# Generated by pormake.
# Topology wjg, (4)-cn, num edge types: 1
# Building blocks:
#     Node 0, Type 0, BuildingBlock: KUFVIS_clean_sbu_0, # of connection points: 4
#     Node 1, Type 0, BuildingBlock: KUFVIS_clean_sbu_0, # of connection points: 4
#     Node 2, Type 0, BuildingBlock: KUFVIS_clean_sbu_0, # of connection points: 4
#     Node 3, Type 0, BuildingBlock: KUFVIS_clean_sbu_0, # of connection points: 4
#     Node 4, Type 0, BuildingBlock: KUFVIS_clean_sbu_0, # of connection points: 4
#     Node 5, Type 0, BuildingBlock: KUFVIS_clean_sbu_0, # of connection points: 4
#     Node 6, Type 0, BuildingBlock: KUFVIS_clean_sbu_0, # of connection points: 4
#     Node 7, Type 0, BuildingBlock: KUFVIS_clean_sbu_0, # of connection points: 4
#     Node 8, Type 0, BuildingBlock: KUFVIS_clean_sbu_0, # of connection points: 4
#     Node 9, Type 0, BuildingBlock: KUFVIS_clean_sbu_0, # of connection points: 4
#     Node 10, Type 0, BuildingBlock: KUFVIS_clean_sbu_0, # of connection points: 4
#     Node 11, Type 0, BuildingBlock: KUFVIS_clean_sbu_0, # of connection points: 4
#     Edge 12, Type (0, 0), BuildingBlock: TEMPAE_clean_linker_10, # of connection points: 2
#     Edge 13, Type (0, 0), BuildingBlock: TEMPAE_clean_linker_10, # of connection points: 2
#     Edge 14, Type (0, 0), BuildingBlock: TEMPAE_clean_linker_10, # of connection points: 2
#     Edge 15, Type (0, 0), BuildingBlock: TEMPAE_clean_linker_10, # of connection points: 2
#     Edge 16, Type (0, 0), BuildingBlock: TEMPAE_clean_linker_10, # of connection points: 2
#     Edge 17, Type (0, 0), BuildingBlock: TEMPAE_clean_linker_10, # of connection points: 2
#     Edge 18, Type (0, 0), BuildingBlock: TEMPAE_clean_linker_10, # of connection points: 2
#     Edge 19, Type (0, 0), BuildingBlock: TEMPAE_clean_linker_10, # of connection points: 2
#     Edge 20, Type (0, 0), BuildingBlock: TEMPAE_clean_linker_10, # of connection points: 2
#     Edge 21, Type (0, 0), BuildingBlock: TEMPAE_clean_linker_10, # of connection points: 2
#     Edge 22, Type (0, 0), BuildingBlock: TEMPAE_clean_linker_10, # of connection points: 2
#     Edge 23, Type (0, 0), BuildingBlock: TEMPAE_clean_linker_10, # of connection points: 2
#     Edge 24, Type (0, 0), BuildingBlock: TEMPAE_clean_linker_10, # of connection points: 2
#     Edge 25, Type (0, 0), BuildingBlock: TEMPAE_clean_linker_10, # of connection points: 2
#     Edge 26, Type (0, 0), BuildingBlock: TEMPAE_clean_linker_10, # of connection points: 2
#     Edge 27, Type (0, 0), BuildingBlock: TEMPAE_clean_linker_10, # of connection points: 2
#     Edge 28, Type (0, 0), BuildingBlock: TEMPAE_clean_linker_10, # of connection points: 2
#     Edge 29, Type (0, 0), BuildingBlock: TEMPAE_clean_linker_10, # of connection points: 2
#     Edge 30, Type (0, 0), BuildingBlock: TEMPAE_clean_linker_10, # of connection points: 2
#     Edge 31, Type (0, 0), BuildingBlock: TEMPAE_clean_linker_10, # of connection points: 2
#     Edge 32, Type (0, 0), BuildingBlock: TEMPAE_clean_linker_10, # of connection points: 2
#     Edge 33, Type (0, 0), BuildingBlock: TEMPAE_clean_linker_10, # of connection points: 2
#     Edge 34, Type (0, 0), BuildingBlock: TEMPAE_clean_linker_10, # of connection points: 2
#     Edge 35, Type (0, 0), BuildingBlock: TEMPAE_clean_linker_10, # of connection points: 2
# Relax obj value: 0.318
# Max RMSD: 0.127
# Mean RMSD: 0.118
data_MOF--net-wjg--node1-KUFVIS_clean_sbu_0--edge1-TEMPAE_clean_linker_10
_symmetry_space_group_name_H-M    P1
_symmetry_Int_Tables_number       1
_symmetry_cell_setting            triclinic
loop_
_symmetry_equiv_pos_as_xyz
'x, y, z'
_cell_length_a     31.437618
_cell_length_b     31.337897
_cell_length_c     40.744329
_cell_angle_alpha  90.022084
_cell_angle_beta   89.959293
_cell_angle_gamma 120.07979
loop_
_atom_site_label
_atom_site_type_symbol
_atom_site_fract_x
_atom_site_fract_y
_atom_site_fract_z
_atom_type_partial_charge
Mn0 Mn 0.11234 0.41645 0.32876 0.0
Mn1 Mn 0.22747 0.43988 0.36215 0.0
C2 C 0.13103 0.35127 0.33424 0.0
C3 C 0.07957 0.4156 0.27661 0.0
C4 C 0.13745 0.43316 0.38952 0.0
O5 O 0.16293 0.49231 0.32761 0.0
O6 O 0.23605 0.49273 0.33089 0.0
C7 C 0.33338 0.51002 0.35669 0.0
N8 N 0.29574 0.46941 0.37089 0.0
C9 C 0.35044 0.46181 0.40837 0.0
C10 C 0.38972 0.50376 0.3943 0.0
C11 C 0.38125 0.52781 0.36817 0.0
C12 C 0.30356 0.44537 0.39555 0.0
H13 H 0.32683 0.52864 0.33684 0.0
C14 C 0.2105 0.51423 0.32595 0.0
O15 O 0.06025 0.42162 0.30315 0.0
O16 O 0.11889 0.41272 0.28035 0.0
N17 N 0.21902 0.39177 0.39476 0.0
C18 C 0.17676 0.35415 0.40773 0.0
C19 C 0.17914 0.32614 0.43375 0.0
C20 C 0.2248 0.33822 0.44727 0.0
C21 C 0.2676 0.37869 0.4349 0.0
C22 C 0.26305 0.40451 0.4083 0.0
H23 H 0.14119 0.34584 0.39877 0.0
O24 O 0.08624 0.34081 0.32808 0.0
O25 O 0.15984 0.39697 0.34279 0.0
O26 O 0.09561 0.42237 0.37886 0.0
O27 O 0.1618 0.42614 0.36757 0.0
C28 C 0.31459 0.39452 0.44808 0.0
C29 C 0.35601 0.43607 0.4348 0.0
H30 H 0.42643 0.51702 0.40323 0.0
H31 H 0.41118 0.55995 0.35682 0.0
H32 H 0.14574 0.29585 0.44376 0.0
H33 H 0.22648 0.3169 0.46763 0.0
H34 H 0.31922 0.37519 0.46856 0.0
H35 H 0.39193 0.44814 0.44529 0.0
Mn36 Mn 0.72906 0.12558 0.65169 0.0
Mn37 Mn 0.76098 0.23324 0.68966 0.0
C38 C 0.81202 0.18405 0.65837 0.0
C39 C 0.70465 0.07966 0.60318 0.0
C40 C 0.73539 0.13957 0.72623 0.0
O41 O 0.66282 0.12441 0.65372 0.0
O42 O 0.69214 0.19877 0.67635 0.0
C43 C 0.75107 0.28207 0.6303 0.0
N44 N 0.77695 0.28272 0.65724 0.0
C45 C 0.83469 0.36873 0.65029 0.0
C46 C 0.80871 0.3694 0.62255 0.0
C47 C 0.76699 0.32564 0.61221 0.0
C48 C 0.81847 0.32373 0.66621 0.0
H49 H 0.71867 0.24858 0.62283 0.0
C50 C 0.65723 0.15948 0.66436 0.0
O51 O 0.69588 0.05812 0.63164 0.0
O52 O 0.72716 0.12737 0.60298 0.0
N53 N 0.82637 0.27397 0.70527 0.0
C54 C 0.84766 0.26685 0.7322 0.0
C55 C 0.88782 0.30736 0.74709 0.0
C56 C 0.90482 0.35495 0.73464 0.0
C57 C 0.8832 0.36126 0.70639 0.0
C58 C 0.84374 0.31951 0.69243 0.0
H59 H 0.8329 0.23087 0.74297 0.0
O60 O 0.79817 0.13885 0.65066 0.0
O61 O 0.77735 0.19527 0.65924 0.0
O62 O 0.72717 0.11121 0.70148 0.0
O63 O 0.74618 0.18452 0.7242 0.0
C64 C 0.8978 0.40754 0.69231 0.0
C65 C 0.87512 0.41106 0.6634 0.0
H66 H 0.8205 0.40325 0.6091 0.0
H67 H 0.74674 0.32574 0.59077 0.0
H68 H 0.90454 0.30212 0.76878 0.0
H69 H 0.93474 0.38629 0.74686 0.0
H70 H 0.92663 0.44055 0.70346 0.0
H71 H 0.88817 0.44646 0.65181 0.0
Mn72 Mn 0.57638 0.72051 0.97235 0.0
Mn73 Mn 0.50745 0.76224 0.00837 0.0
C74 C 0.61129 0.80545 0.98279 0.0
C75 C 0.59651 0.69268 0.92424 0.0
C76 C 0.55856 0.7178 0.04622 0.0
O77 O 0.5059 0.66021 0.97034 0.0
O78 O 0.46557 0.69735 0.98888 0.0
C79 C 0.46428 0.77429 0.94699 0.0
N80 N 0.48838 0.79301 0.97582 0.0
C81 C 0.48868 0.86887 0.96746 0.0
C82 C 0.46329 0.85038 0.93785 0.0
C83 C 0.45133 0.80291 0.92744 0.0
C84 C 0.50139 0.83901 0.98553 0.0
H85 H 0.45519 0.73793 0.93899 0.0
C86 C 0.4663 0.66043 0.9767 0.0
O87 O 0.60223 0.679 0.9532 0.0
O88 O 0.57983 0.72306 0.92323 0.0
N89 N 0.54054 0.825 0.02925 0.0
C90 C 0.56216 0.83612 0.0594 0.0
C91 C 0.57197 0.87995 0.07501 0.0
C92 C 0.55864 0.91151 0.05968 0.0
C93 C 0.53774 0.90004 0.02828 0.0
C94 C 0.5276 0.85529 0.01436 0.0
H95 H 0.56961 0.8107 0.07221 0.0
O96 O 0.63863 0.7866 0.97555 0.0
O97 O 0.56412 0.7748 0.98112 0.0
O98 O 0.58111 0.71184 0.02209 0.0
O99 O 0.52721 0.73216 0.04323 0.0
C100 C 0.52513 0.93056 0.01072 0.0
C101 C 0.50153 0.91554 0.97995 0.0
H102 H 0.45277 0.87224 0.92297 0.0
H103 H 0.43194 0.78833 0.90456 0.0
H104 H 0.58835 0.88863 0.09921 0.0
H105 H 0.56436 0.94435 0.07235 0.0
H106 H 0.53331 0.96551 0.02108 0.0
H107 H 0.4923 0.93945 0.96638 0.0
Mn108 Mn 0.8374 0.53927 0.31364 0.0
Mn109 Mn 0.71779 0.4706 0.32942 0.0
C110 C 0.79195 0.5792 0.31944 0.0
C111 C 0.89541 0.56539 0.27104 0.0
C112 C 0.79804 0.49822 0.38027 0.0
O113 O 0.82139 0.4672 0.30929 0.0
O114 O 0.74071 0.43481 0.3015 0.0
C115 C 0.6707 0.45237 0.26412 0.0
N116 N 0.67458 0.46805 0.29572 0.0
C117 C 0.59573 0.46287 0.29311 0.0
C118 C 0.59096 0.44708 0.26041 0.0
C119 C 0.62893 0.44245 0.24572 0.0
C120 C 0.63905 0.47417 0.30971 0.0
H121 H 0.69877 0.44651 0.25332 0.0
C122 C 0.77928 0.43115 0.30185 0.0
O123 O 0.90814 0.56353 0.30117 0.0
O124 O 0.84971 0.55127 0.26594 0.0
N125 N 0.68977 0.50093 0.35565 0.0
C126 C 0.70198 0.52068 0.38635 0.0
C127 C 0.66881 0.52942 0.4041 0.0
C128 C 0.62298 0.51667 0.39042 0.0
C129 C 0.6118 0.49754 0.35848 0.0
C130 C 0.64702 0.49139 0.34155 0.0
H131 H 0.73646 0.52946 0.39735 0.0
O132 O 0.83959 0.60415 0.31879 0.0
O133 O 0.7725 0.53237 0.31379 0.0
O134 O 0.83463 0.53145 0.36407 0.0
O135 O 0.7568 0.46888 0.36682 0.0
C136 C 0.56669 0.48334 0.34302 0.0
C137 C 0.55876 0.46654 0.31021 0.0
H138 H 0.55819 0.43808 0.24645 0.0
H139 H 0.62535 0.4299 0.22059 0.0
H140 H 0.67809 0.54485 0.42857 0.0
H141 H 0.59688 0.52223 0.40447 0.0
H142 H 0.53799 0.48548 0.35618 0.0
H143 H 0.52406 0.45641 0.29845 0.0
Mn144 Mn 0.28469 0.88598 0.6646 0.0
Mn145 Mn 0.25498 0.78278 0.70774 0.0
C146 C 0.20233 0.82964 0.6761 0.0
C147 C 0.30363 0.92628 0.61369 0.0
C148 C 0.28861 0.88153 0.73966 0.0
O149 O 0.34928 0.88398 0.66326 0.0
O150 O 0.32205 0.81328 0.69073 0.0
C151 C 0.25567 0.72385 0.65105 0.0
N152 N 0.23345 0.72852 0.67839 0.0
C153 C 0.1719 0.64293 0.67707 0.0
C154 C 0.19428 0.63669 0.6491 0.0
C155 C 0.23607 0.67759 0.63577 0.0
C156 C 0.19208 0.69013 0.69044 0.0
H157 H 0.28813 0.75513 0.64123 0.0
C158 C 0.35553 0.85011 0.67545 0.0
O159 O 0.31786 0.95094 0.64102 0.0
O160 O 0.2789 0.87868 0.61602 0.0
N161 N 0.19119 0.74684 0.72684 0.0
C162 C 0.17257 0.75949 0.75283 0.0
C163 C 0.13163 0.72282 0.76973 0.0
C164 C 0.11115 0.67332 0.76025 0.0
C165 C 0.13029 0.66139 0.73294 0.0
C166 C 0.17045 0.69957 0.71674 0.0
H167 H 0.18974 0.79699 0.76113 0.0
O168 O 0.21604 0.87445 0.66726 0.0
O169 O 0.23666 0.81797 0.6762 0.0
O170 O 0.2944 0.90684 0.71364 0.0
O171 O 0.27563 0.83595 0.73964 0.0
C172 C 0.11196 0.61299 0.7216 0.0
C173 C 0.13106 0.60409 0.6927 0.0
H174 H 0.17983 0.60075 0.63779 0.0
H175 H 0.25357 0.67328 0.61414 0.0
H176 H 0.1169 0.73247 0.79062 0.0
H177 H 0.08039 0.64484 0.77386 0.0
H178 H 0.08292 0.58249 0.7348 0.0
H179 H 0.1143 0.56741 0.6827 0.0
Mn180 Mn 0.422 0.28971 0.97963 0.0
Mn181 Mn 0.49044 0.24525 0.00679 0.0
C182 C 0.38295 0.20162 0.98534 0.0
C183 C 0.40947 0.32432 0.93178 0.0
C184 C 0.44313 0.28974 0.04974 0.0
O185 O 0.49387 0.3503 0.98648 0.0
O186 O 0.51833 0.29912 0.97517 0.0
C187 C 0.51426 0.2143 0.94396 0.0
N188 N 0.49758 0.204 0.97551 0.0
C189 C 0.49138 0.12474 0.9729 0.0
C190 C 0.50853 0.13431 0.94048 0.0
C191 C 0.51965 0.17922 0.92584 0.0
C192 C 0.48531 0.16038 0.98946 0.0
H193 H 0.52369 0.24907 0.93263 0.0
C194 C 0.52934 0.34196 0.98335 0.0
O195 O 0.40033 0.33519 0.96077 0.0
O196 O 0.42634 0.29421 0.93077 0.0
N197 N 0.46485 0.19 0.03582 0.0
C198 C 0.45791 0.18956 0.06889 0.0
C199 C 0.44758 0.14782 0.0874 0.0
C200 C 0.44889 0.10851 0.07232 0.0
C201 C 0.46004 0.11129 0.03885 0.0
C202 C 0.46827 0.15307 0.02137 0.0
H203 H 0.46384 0.22189 0.08167 0.0
O204 O 0.35796 0.22261 0.97706 0.0
O205 O 0.4295 0.23197 0.98704 0.0
O206 O 0.41294 0.28999 0.02888 0.0
O207 O 0.4808 0.28606 0.04146 0.0
C208 C 0.46615 0.07535 0.02278 0.0
C209 C 0.48129 0.08172 0.9897 0.0
H210 H 0.5136 0.10761 0.92671 0.0
H211 H 0.53297 0.18705 0.90082 0.0
H212 H 0.44091 0.14685 0.11349 0.0
H213 H 0.44288 0.07705 0.08689 0.0
H214 H 0.46098 0.04387 0.03654 0.0
H215 H 0.48697 0.05446 0.97754 0.0
Mn216 Mn 0.59803 0.83779 0.34495 0.0
Mn217 Mn 0.52075 0.72325 0.31816 0.0
C218 C 0.62632 0.78179 0.34099 0.0
C219 C 0.6205 0.89011 0.3904 0.0
C220 C 0.57486 0.81124 0.27303 0.0
O221 O 0.53076 0.83429 0.34402 0.0
O222 O 0.48437 0.75274 0.33689 0.0
C223 C 0.49108 0.68533 0.38549 0.0
N224 N 0.505 0.68027 0.35475 0.0
C225 C 0.50824 0.60824 0.37043 0.0
C226 C 0.49537 0.61338 0.40259 0.0
C227 C 0.48639 0.65191 0.41008 0.0
C228 C 0.51513 0.64437 0.3476 0.0
H229 H 0.48507 0.71553 0.39135 0.0
C230 C 0.48933 0.79461 0.34334 0.0
O231 O 0.63005 0.9079 0.36075 0.0
O232 O 0.59888 0.84271 0.39346 0.0
N233 N 0.54758 0.68655 0.29863 0.0
C234 C 0.56256 0.68879 0.26696 0.0
C235 C 0.56695 0.6498 0.25387 0.0
C236 C 0.55443 0.60811 0.27316 0.0
C237 C 0.53942 0.60666 0.30571 0.0
C238 C 0.53498 0.64619 0.31717 0.0
H239 H 0.56839 0.71864 0.25115 0.0
O240 O 0.65684 0.82829 0.3456 0.0
O241 O 0.58029 0.76936 0.34125 0.0
O242 O 0.60268 0.84272 0.29459 0.0
O243 O 0.53927 0.76794 0.27979 0.0
C244 C 0.52714 0.56682 0.32695 0.0
C245 C 0.51402 0.56867 0.35985 0.0
H246 H 0.49225 0.58802 0.42173 0.0
H247 H 0.47617 0.65598 0.43476 0.0
H248 H 0.57838 0.65115 0.22864 0.0
H249 H 0.55645 0.57739 0.26269 0.0
H250 H 0.52826 0.53509 0.31806 0.0
H251 H 0.50741 0.53913 0.37653 0.0
Mn252 Mn 0.74825 0.54983 0.69074 0.0
Mn253 Mn 0.8141 0.4933 0.68417 0.0
C254 C 0.8344 0.59797 0.68831 0.0
C255 C 0.70868 0.57509 0.72889 0.0
C256 C 0.76177 0.50859 0.62647 0.0
O257 O 0.6972 0.47621 0.69793 0.0
O258 O 0.75016 0.44888 0.70426 0.0
C259 C 0.8285 0.48358 0.75489 0.0
N260 N 0.84738 0.49839 0.72421 0.0
C261 C 0.92805 0.5191 0.74223 0.0
C262 C 0.90978 0.50422 0.77412 0.0
C263 C 0.85979 0.48674 0.78053 0.0
C264 C 0.8955 0.51663 0.71799 0.0
H265 H 0.78986 0.46918 0.75964 0.0
C266 C 0.70669 0.44211 0.70477 0.0
O267 O 0.69554 0.56821 0.69816 0.0
O268 O 0.74311 0.56622 0.73708 0.0
N269 N 0.87754 0.53018 0.66486 0.0
C270 C 0.88893 0.54168 0.63258 0.0
C271 C 0.93589 0.55437 0.62122 0.0
C272 C 0.97044 0.55476 0.64311 0.0
C273 C 0.95861 0.54518 0.67648 0.0
C274 C 0.91111 0.53197 0.6863 0.0
H275 H 0.86198 0.53948 0.61535 0.0
O276 O 0.80723 0.61786 0.68441 0.0
O277 O 0.81035 0.55135 0.69551 0.0
O278 O 0.74765 0.53602 0.64073 0.0
O279 O 0.78182 0.48764 0.64184 0.0
C280 C 0.99146 0.54606 0.70009 0.0
C281 C 0.97685 0.53481 0.73324 0.0
H282 H 0.93366 0.50563 0.79375 0.0
H283 H 0.84529 0.475 0.80503 0.0
H284 H 0.94497 0.56248 0.5955 0.0
H285 H 0.00613 0.56284 0.63407 0.0
H286 H 0.02761 0.5545 0.6925 0.0
H287 H 0.00258 0.53622 0.75141 0.0
Mn288 Mn 0.16719 0.74446 0.02708 0.0
Mn289 Mn 0.28363 0.79747 1.00032 0.0
C290 C 0.21391 0.83112 0.02469 0.0
C291 C 0.11476 0.70665 0.0721 0.0
C292 C 0.1965 0.76089 0.95451 0.0
O293 O 0.17941 0.68545 0.02427 0.0
O294 O 0.25914 0.72893 0.01237 0.0
C295 C 0.32129 0.79412 0.06618 0.0
N296 N 0.32436 0.81922 0.03819 0.0
C297 C 0.39947 0.88939 0.05576 0.0
C298 C 0.39818 0.86413 0.08448 0.0
C299 C 0.35838 0.81645 0.08997 0.0
C300 C 0.36038 0.86598 0.03371 0.0
H301 H 0.29066 0.75752 0.07027 0.0
C302 C 0.22094 0.68869 0.01961 0.0
O303 O 0.0981 0.69733 0.04218 0.0
O304 O 0.16114 0.73778 0.0756 0.0
N305 N 0.3173 0.86447 0.98669 0.0
C306 C 0.31459 0.8821 0.95666 0.0
C307 C 0.3544 0.92614 0.94514 0.0
C308 C 0.39684 0.95124 0.96436 0.0
C309 C 0.39809 0.9336 0.99571 0.0
C310 C 0.35785 0.88913 1.00563 0.0
H311 H 0.28357 0.86133 0.94079 0.0
O312 O 0.16681 0.80846 0.02925 0.0
O313 O 0.23297 0.80251 0.02483 0.0
O314 O 0.16268 0.74671 0.97644 0.0
O315 O 0.24187 0.7765 0.9608 0.0
C316 C 0.43897 0.95656 0.01663 0.0
C317 C 0.43877 0.93595 0.0474 0.0
H318 H 0.42755 0.88087 0.10236 0.0
H319 H 0.35667 0.79676 0.1122 0.0
H320 H 0.35304 0.94003 0.92109 0.0
H321 H 0.42807 0.98407 0.95466 0.0
H322 H 0.47162 0.98916 0.00877 0.0
H323 H 0.47034 0.95478 0.06344 0.0
Mn324 Mn 0.39114 0.16401 0.35468 0.0
Mn325 Mn 0.45047 0.28383 0.33159 0.0
C326 C 0.34632 0.20365 0.34735 0.0
C327 C 0.37023 0.10901 0.39876 0.0
C328 C 0.4157 0.1995 0.28329 0.0
O329 O 0.46303 0.18284 0.3593 0.0
O330 O 0.49665 0.26229 0.34571 0.0
C331 C 0.48726 0.32336 0.39799 0.0
N332 N 0.46305 0.32291 0.37016 0.0
C333 C 0.4565 0.3921 0.38875 0.0
C334 C 0.48183 0.39376 0.41748 0.0
C335 C 0.49689 0.35892 0.42224 0.0
C336 C 0.44704 0.35517 0.36582 0.0
H337 H 0.49933 0.29694 0.40155 0.0
C338 C 0.50009 0.22537 0.35509 0.0
O339 O 0.37171 0.09493 0.36892 0.0
O340 O 0.38103 0.15424 0.40269 0.0
N341 N 0.41361 0.31348 0.31679 0.0
C342 C 0.39297 0.30931 0.28671 0.0
C343 C 0.37833 0.34306 0.27729 0.0
C344 C 0.38583 0.38138 0.29864 0.0
C345 C 0.40762 0.38541 0.32928 0.0
C346 C 0.42185 0.35092 0.33722 0.0
H347 H 0.38926 0.28152 0.26957 0.0
O348 O 0.3248 0.15612 0.34976 0.0
O349 O 0.39374 0.22768 0.35249 0.0
O350 O 0.39683 0.16348 0.30382 0.0
O351 O 0.43711 0.24507 0.29126 0.0
C352 C 0.4175 0.42344 0.35171 0.0
C353 C 0.44133 0.42635 0.38164 0.0
H354 H 0.49003 0.4217 0.43596 0.0
H355 H 0.51638 0.35984 0.44436 0.0
H356 H 0.36242 0.34027 0.25328 0.0
H357 H 0.37587 0.40828 0.29095 0.0
H358 H 0.40735 0.45085 0.34593 0.0
H359 H 0.44918 0.45579 0.39869 0.0
Mn360 Mn 0.26535 0.45502 0.68749 0.0
Mn361 Mn 0.20242 0.51325 0.67509 0.0
C362 C 0.17977 0.40764 0.68152 0.0
C363 C 0.30221 0.43193 0.72895 0.0
C364 C 0.25921 0.4961 0.62149 0.0
O365 O 0.31618 0.52863 0.69413 0.0
O366 O 0.26318 0.55609 0.69932 0.0
C367 C 0.17761 0.51945 0.74432 0.0
N368 N 0.16337 0.50645 0.7126 0.0
C369 C 0.08013 0.4835 0.72533 0.0
C370 C 0.09356 0.49634 0.75821 0.0
C371 C 0.14254 0.51414 0.76779 0.0
C372 C 0.11624 0.48787 0.70335 0.0
H373 H 0.21544 0.5339 0.75156 0.0
C374 C 0.30654 0.56266 0.7007 0.0
O375 O 0.3174 0.43721 0.69869 0.0
O376 O 0.26684 0.44051 0.73476 0.0
N377 N 0.14197 0.47779 0.65175 0.0
C378 C 0.13514 0.46824 0.61893 0.0
C379 C 0.08983 0.45583 0.60467 0.0
C380 C 0.05231 0.45413 0.62413 0.0
C381 C 0.05944 0.46201 0.65799 0.0
C382 C 0.10539 0.47466 0.67084 0.0
H383 H 0.16437 0.4717 0.60343 0.0
O384 O 0.20655 0.38693 0.68076 0.0
O385 O 0.2037 0.45445 0.68809 0.0
O386 O 0.26944 0.46692 0.63736 0.0
O387 O 0.24101 0.52032 0.63505 0.0
C388 C 0.02321 0.45952 0.67928 0.0
C389 C 0.03281 0.46815 0.71318 0.0
H390 H 0.06678 0.49339 0.77616 0.0
H391 H 0.15336 0.52443 0.79307 0.0
H392 H 0.08417 0.44887 0.57862 0.0
H393 H 0.01791 0.44616 0.61283 0.0
H394 H 0.98815 0.45129 0.66945 0.0
H395 H 0.00411 0.46421 0.72959 0.0
Mn396 Mn 0.84287 0.26508 0.01644 0.0
Mn397 Mn 0.73173 0.21861 0.98086 0.0
C398 C 0.79311 0.17919 0.01087 0.0
C399 C 0.89034 0.29877 0.06401 0.0
C400 C 0.82569 0.25558 0.94211 0.0
O401 O 0.83354 0.32578 0.01336 0.0
O402 O 0.7569 0.28718 0.99376 0.0
C403 C 0.68126 0.21992 0.04191 0.0
N404 N 0.68402 0.19549 0.01508 0.0
C405 C 0.60823 0.12283 0.02902 0.0
C406 C 0.60418 0.14699 0.05681 0.0
C407 C 0.64106 0.19577 0.06336 0.0
C408 C 0.64964 0.14834 0.00908 0.0
H409 H 0.70948 0.25752 0.04681 0.0
C410 C 0.79478 0.32563 1.00411 0.0
O411 O 0.91028 0.30893 0.03501 0.0
O412 O 0.84332 0.26872 0.06529 0.0
N413 N 0.69955 0.15243 0.96555 0.0
C414 C 0.70769 0.13548 0.9368 0.0
C415 C 0.67071 0.09093 0.92361 0.0
C416 C 0.62562 0.06458 0.93999 0.0
C417 C 0.61924 0.08124 0.97046 0.0
C418 C 0.65669 0.12649 0.98189 0.0
H419 H 0.74126 0.15684 0.9233 0.0
O420 O 0.83931 0.19911 0.01823 0.0
O421 O 0.77637 0.20976 0.00986 0.0
O422 O 0.85528 0.2667 0.96643 0.0
O423 O 0.77984 0.24066 0.94492 0.0
C424 C 0.57653 0.05551 0.98945 0.0
C425 C 0.57233 0.07491 0.01976 0.0
H426 H 0.57271 0.12869 0.073 0.0
H427 H 0.63824 0.21485 0.08467 0.0
H428 H 0.67646 0.07744 0.90055 0.0
H429 H 0.59641 0.03104 0.92921 0.0
H430 H 0.5468 0.02102 0.98065 0.0
H431 H 0.54062 0.0536 0.03516 0.0
C432 C 0.28786 0.58964 0.30996 0.0
C433 C 0.23938 0.56849 0.32124 0.0
C434 C 0.32153 0.63975 0.31461 0.0
C435 C 0.30571 0.67058 0.32921 0.0
C436 C 0.25518 0.65067 0.3367 0.0
C437 C 0.22264 0.59954 0.33315 0.0
C438 C 0.37502 0.65822 0.30675 0.0
C439 C 0.23564 0.68216 0.35046 0.0
C440 C 0.41514 0.76405 0.37561 0.0
C441 C 0.44261 0.79338 0.34907 0.0
C442 C 0.36615 0.72659 0.37113 0.0
C443 C 0.34384 0.72107 0.34002 0.0
C444 C 0.36766 0.75899 0.31643 0.0
C445 C 0.4174 0.79481 0.32111 0.0
C446 C 0.34188 0.68808 0.39758 0.0
C447 C 0.34346 0.75707 0.28414 0.0
H448 H 0.30046 0.56618 0.29942 0.0
H449 H 0.185 0.58368 0.34159 0.0
H450 H 0.39002 0.69112 0.29066 0.0
H451 H 0.39663 0.66902 0.32983 0.0
H452 H 0.38069 0.62984 0.29438 0.0
H453 H 0.19803 0.66954 0.34101 0.0
H454 H 0.23293 0.67822 0.37755 0.0
H455 H 0.25954 0.72174 0.34432 0.0
H456 H 0.43443 0.76369 0.39759 0.0
H457 H 0.43818 0.81823 0.30069 0.0
H458 H 0.34281 0.65434 0.39046 0.0
H459 H 0.30286 0.67782 0.40056 0.0
H460 H 0.36078 0.70107 0.4216 0.0
H461 H 0.34919 0.73308 0.2668 0.0
H462 H 0.35956 0.79436 0.27301 0.0
H463 H 0.30326 0.74142 0.28732 0.0
C464 C 0.58469 0.15714 0.68817 0.0
C465 C 0.61167 0.16128 0.65968 0.0
C466 C 0.57492 0.19498 0.69684 0.0
C467 C 0.59579 0.23859 0.67771 0.0
C468 C 0.61221 0.23686 0.64552 0.0
C469 C 0.61603 0.19572 0.63605 0.0
C470 C 0.54903 0.19142 0.72872 0.0
C471 C 0.63217 0.28077 0.62279 0.0
C472 C 0.62227 0.37 0.6921 0.0
C473 C 0.66728 0.38977 0.70877 0.0
C474 C 0.59438 0.31887 0.68542 0.0
C475 C 0.61354 0.28773 0.69391 0.0
C476 C 0.65631 0.30728 0.71393 0.0
C477 C 0.68081 0.35723 0.72234 0.0
C478 C 0.54626 0.29968 0.66752 0.0
C479 C 0.68197 0.27874 0.72215 0.0
H480 H 0.57813 0.12883 0.70602 0.0
H481 H 0.63342 0.19673 0.61284 0.0
H482 H 0.57562 0.20364 0.74932 0.0
H483 H 0.53191 0.21499 0.72827 0.0
H484 H 0.52022 0.15263 0.73361 0.0
H485 H 0.64637 0.27432 0.59946 0.0
H486 H 0.60272 0.28904 0.61672 0.0
H487 H 0.66245 0.31378 0.63491 0.0
H488 H 0.61058 0.39455 0.68217 0.0
H489 H 0.7148 0.37209 0.73617 0.0
H490 H 0.52603 0.25899 0.66471 0.0
H491 H 0.55296 0.31719 0.64294 0.0
H492 H 0.52256 0.31059 0.68111 0.0
H493 H 0.6563 0.24097 0.73078 0.0
H494 H 0.71057 0.29724 0.74136 0.0
H495 H 0.70056 0.27642 0.6997 0.0
C496 C 0.39207 0.58361 0.9938 0.0
C497 C 0.41711 0.61852 0.9691 0.0
C498 C 0.34243 0.56802 1.00085 0.0
C499 C 0.31935 0.59113 0.98459 0.0
C500 C 0.34178 0.61873 0.95568 0.0
C501 C 0.3894 0.62923 0.94725 0.0
C502 C 0.31726 0.53131 0.02812 0.0
C503 C 0.31911 0.64327 0.93612 0.0
C504 C 0.20912 0.60815 0.9988 0.0
C505 C 0.22903 0.64617 0.02209 0.0
C506 C 0.23468 0.58352 0.98967 0.0
C507 C 0.28259 0.59998 1.00244 0.0
C508 C 0.29943 0.63422 0.02888 0.0
C509 C 0.271 0.65456 0.03936 0.0
C510 C 0.21139 0.54259 0.96476 0.0
C511 C 0.35015 0.6547 0.04367 0.0
H512 H 0.41256 0.57327 0.01019 0.0
H513 H 0.40819 0.65407 0.92699 0.0
H514 H 0.33824 0.5454 0.05132 0.0
H515 H 0.27869 0.52233 0.03199 0.0
H516 H 0.31725 0.49675 0.02209 0.0
H517 H 0.34411 0.66797 0.91667 0.0
H518 H 0.28508 0.61474 0.92408 0.0
H519 H 0.30937 0.66552 0.95239 0.0
H520 H 0.17611 0.60064 0.98564 0.0
H521 H 0.28565 0.68296 0.05804 0.0
H522 H 0.23428 0.52574 0.95907 0.0
H523 H 0.2037 0.55663 0.94183 0.0
H524 H 0.17535 0.51335 0.9743 0.0
H525 H 0.3599 0.68632 0.06039 0.0
H526 H 0.37855 0.66747 0.02417 0.0
H527 H 0.35185 0.62569 0.05812 0.0
C528 C 0.58723 0.28096 0.36806 0.0
C529 C 0.55049 0.2339 0.35866 0.0
C530 C 0.63645 0.29806 0.36048 0.0
C531 C 0.64962 0.26651 0.34372 0.0
C532 C 0.61356 0.21606 0.33961 0.0
C533 C 0.5639 0.20035 0.34666 0.0
C534 C 0.6725 0.35196 0.3666 0.0
C535 C 0.62612 0.17914 0.32576 0.0
C536 C 0.73165 0.34848 0.27908 0.0
C537 C 0.76997 0.3802 0.29995 0.0
C538 C 0.69317 0.30394 0.29124 0.0
C539 C 0.69594 0.28993 0.32394 0.0
C540 C 0.74199 0.3141 0.34011 0.0
C541 C 0.77871 0.36025 0.32824 0.0
C542 C 0.64648 0.2773 0.27136 0.0
C543 C 0.7498 0.29547 0.37232 0.0
H544 H 0.57687 0.30632 0.37848 0.0
H545 H 0.53561 0.16323 0.34025 0.0
H546 H 0.70434 0.35641 0.38092 0.0
H547 H 0.68596 0.37106 0.34283 0.0
H548 H 0.65589 0.37073 0.38025 0.0
H549 H 0.61246 0.14714 0.34268 0.0
H550 H 0.60679 0.16472 0.30205 0.0
H551 H 0.66621 0.19471 0.32214 0.0
H552 H 0.72645 0.36306 0.25624 0.0
H553 H 0.80983 0.38346 0.3438 0.0
H554 H 0.6167 0.28076 0.28347 0.0
H555 H 0.63458 0.23759 0.26969 0.0
H556 H 0.65121 0.29215 0.24603 0.0
H557 H 0.75119 0.31973 0.39263 0.0
H558 H 0.78583 0.29694 0.37196 0.0
H559 H 0.72034 0.25703 0.3774 0.0
C560 C 0.39076 0.81146 0.64284 0.0
C561 C 0.39877 0.84538 0.66782 0.0
C562 C 0.39603 0.77027 0.64938 0.0
C563 C 0.41595 0.76715 0.67995 0.0
C564 C 0.43863 0.80968 0.70009 0.0
C565 C 0.42835 0.84795 0.6944 0.0
C566 C 0.37379 0.72745 0.62569 0.0
C567 C 0.46781 0.81192 0.73001 0.0
C568 C 0.33307 0.64582 0.72203 0.0
C569 C 0.34597 0.61444 0.706 0.0
C570 C 0.35792 0.69646 0.71571 0.0
C571 C 0.39944 0.71725 0.69448 0.0
C572 C 0.41786 0.68675 0.68305 0.0
C573 C 0.39022 0.63529 0.68831 0.0
C574 C 0.33448 0.7254 0.72789 0.0
C575 C 0.46466 0.70711 0.6634 0.0
H576 H 0.37038 0.81113 0.62128 0.0
H577 H 0.4371 0.87557 0.71326 0.0
H578 H 0.40254 0.71958 0.61699 0.0
H579 H 0.34481 0.69383 0.63809 0.0
H580 H 0.35723 0.7349 0.60393 0.0
H581 H 0.49961 0.84978 0.73308 0.0
H582 H 0.44469 0.80338 0.75231 0.0
H583 H 0.48146 0.78546 0.72828 0.0
H584 H 0.29955 0.62985 0.73648 0.0
H585 H 0.4012 0.61141 0.67635 0.0
H586 H 0.32013 0.73594 0.70653 0.0
H587 H 0.36141 0.75937 0.74076 0.0
H588 H 0.3033 0.70383 0.74493 0.0
H589 H 0.45603 0.69233 0.63801 0.0
H590 H 0.48867 0.69424 0.67425 0.0
H591 H 0.48539 0.74801 0.66254 0.0
C592 C 0.77132 0.3784 0.97438 0.0
C593 C 0.79077 0.37066 1.00323 0.0
C594 C 0.73951 0.39756 0.97548 0.0
C595 C 0.72918 0.41191 1.00613 0.0
C596 C 0.75871 0.41561 0.03361 0.0
C597 C 0.78801 0.39313 0.03226 0.0
C598 C 0.71151 0.39496 0.9447 0.0
C599 C 0.75523 0.43789 0.06555 0.0
C600 C 0.61304 0.41838 0.99033 0.0
C601 C 0.57756 0.37076 1.00019 0.0
C602 C 0.66358 0.4363 0.99656 0.0
C603 C 0.67863 0.40466 0.01117 0.0
C604 C 0.64209 0.35883 0.02427 0.0
C605 C 0.59256 0.3437 0.01961 0.0
C606 C 0.70024 0.48778 0.98552 0.0
C607 C 0.65431 0.32215 0.0395 0.0
H608 H 0.77482 0.3623 0.95167 0.0
H609 H 0.80409 0.38863 0.05459 0.0
H610 H 0.67148 0.36991 0.94847 0.0
H611 H 0.7176 0.43207 0.93869 0.0
H612 H 0.72313 0.38148 0.92318 0.0
H613 H 0.79272 0.46601 0.07362 0.0
H614 H 0.73238 0.45564 0.06349 0.0
H615 H 0.73995 0.40922 0.08497 0.0
H616 H 0.60198 0.44008 0.97573 0.0
H617 H 0.56558 0.30708 0.0277 0.0
H618 H 0.69666 0.4913 0.95869 0.0
H619 H 0.73875 0.49838 0.99144 0.0
H620 H 0.69163 0.51432 0.99762 0.0
H621 H 0.67765 0.3148 0.02265 0.0
H622 H 0.62105 0.28623 0.04524 0.0
H623 H 0.67467 0.33711 0.06272 0.0
C624 C 0.13902 0.27748 0.34808 0.0
C625 C 0.15118 0.31855 0.32838 0.0
C626 C 0.16873 0.25554 0.34787 0.0
C627 C 0.21039 0.27448 0.32684 0.0
C628 C 0.21914 0.31267 0.30456 0.0
C629 C 0.19009 0.3348 0.30614 0.0
C630 C 0.15747 0.21434 0.37166 0.0
C631 C 0.26105 0.33343 0.28044 0.0
C632 C 0.3189 0.26438 0.35869 0.0
C633 C 0.31605 0.22609 0.3396 0.0
C634 C 0.28596 0.28168 0.3537 0.0
C635 C 0.24734 0.25811 0.33056 0.0
C636 C 0.24432 0.21921 0.31123 0.0
C637 C 0.27882 0.20377 0.31593 0.0
C638 C 0.29183 0.3246 0.37364 0.0
C639 C 0.20444 0.19371 0.28586 0.0
H640 H 0.10887 0.26507 0.36536 0.0
H641 H 0.19928 0.36657 0.29077 0.0
H642 H 0.15929 0.18387 0.3591 0.0
H643 H 0.18545 0.22828 0.39148 0.0
H644 H 0.12061 0.19949 0.38306 0.0
H645 H 0.24896 0.34074 0.25653 0.0
H646 H 0.29037 0.36937 0.28991 0.0
H647 H 0.2762 0.30876 0.27611 0.0
H648 H 0.34622 0.28008 0.37798 0.0
H649 H 0.27608 0.17339 0.30152 0.0
H650 H 0.32385 0.33919 0.39051 0.0
H651 H 0.25795 0.31259 0.38815 0.0
H652 H 0.2964 0.35474 0.35708 0.0
H653 H 0.20691 0.16376 0.273 0.0
H654 H 0.20697 0.2209 0.26738 0.0
H655 H 0.16782 0.17785 0.29772 0.0
C656 C 0.89361 0.2049 0.68135 0.0
C657 C 0.86471 0.21934 0.6636 0.0
C658 C 0.94489 0.23576 0.68365 0.0
C659 C 0.96801 0.28216 0.66759 0.0
C660 C 0.93858 0.29595 0.64899 0.0
C661 C 0.88743 0.26459 0.64742 0.0
C662 C 0.97443 0.21798 0.70244 0.0
C663 C 0.96016 0.34379 0.63068 0.0
C664 C 0.09409 0.37691 0.70138 0.0
C665 C 0.12586 0.37792 0.67699 0.0
C666 C 0.04283 0.34705 0.69813 0.0
C667 C 0.02266 0.31577 0.67047 0.0
C668 C 0.05498 0.31544 0.64628 0.0
C669 C 0.10614 0.34665 0.64978 0.0
C670 C 0.01014 0.34977 0.72395 0.0
C671 C 0.03554 0.28162 0.61694 0.0
H672 H 0.87602 0.16911 0.6932 0.0
H673 H 0.86527 0.27491 0.6327 0.0
H674 H 0.00279 0.21803 0.68617 0.0
H675 H 0.99394 0.24329 0.72314 0.0
H676 H 0.95111 0.18021 0.71244 0.0
H677 H 0.93736 0.34121 0.60912 0.0
H678 H 0.96075 0.37179 0.64746 0.0
H679 H 0.99788 0.35578 0.62208 0.0
H680 H 0.10942 0.39935 0.72315 0.0
H681 H 0.13088 0.34644 0.63131 0.0
H682 H 0.98563 0.31286 0.73465 0.0
H683 H 0.98668 0.36215 0.71194 0.0
H684 H 0.03116 0.37576 0.74408 0.0
H685 H 0.01244 0.24287 0.62523 0.0
H686 H 0.06551 0.28419 0.60109 0.0
H687 H 0.01184 0.29093 0.60198 0.0
C688 C 0.722 0.09628 0.02528 0.0
C689 C 0.76307 0.12492 1.00569 0.0
C690 C 0.6963 0.04438 0.02319 0.0
C691 C 0.7111 0.01978 1.00051 0.0
C692 C 0.75293 0.049 0.98061 0.0
C693 C 0.77878 0.1009 0.98388 0.0
C694 C 0.65308 0.01623 0.04531 0.0
C695 C 0.77076 0.02542 0.95606 0.0
C696 C 0.67236 0.88292 0.0123 0.0
C697 C 0.63408 0.85927 0.98942 0.0
C698 C 0.69683 0.93467 0.01681 0.0
C699 C 0.68345 0.96391 0.99757 0.0
C700 C 0.64487 0.93956 0.97441 0.0
C701 C 0.62109 0.88802 0.97046 0.0
C702 C 0.73757 0.95811 0.04178 0.0
C703 C 0.62814 0.96784 0.95387 0.0
H704 H 0.71065 0.11454 0.04293 0.0
H705 H 0.81148 0.1228 0.96934 0.0
H706 H 0.6545 0.98483 0.05664 0.0
H707 H 0.65101 0.03953 0.0651 0.0
H708 H 0.61956 0.00203 0.0302 0.0
H709 H 0.8046 0.05299 0.94312 0.0
H710 H 0.7784 -0.00147 0.96857 0.0
H711 H 0.7417 0.00477 0.93753 0.0
H712 H 0.68332 0.8609 0.02661 0.0
H713 H 0.59266 0.87015 0.95203 0.0
H714 H 0.72942 0.97973 0.05969 0.0
H715 H 0.77255 0.98416 0.02936 0.0
H716 H 0.74283 0.93037 0.05537 0.0
H717 H 0.59901 0.94423 0.93605 0.0
H718 H 0.6133 0.98498 0.97062 0.0
H719 H 0.65981 0.99727 0.94027 0.0
C720 C 0.63218 0.70839 0.35809 0.0
C721 C 0.64476 0.74727 0.33615 0.0
C722 C 0.65293 0.67788 0.35515 0.0
C723 C 0.68858 0.68786 0.33053 0.0
C724 C 0.70198 0.72782 0.30868 0.0
C725 C 0.67985 0.75698 0.31178 0.0
C726 C 0.6369 0.63508 0.37841 0.0
C727 C 0.74073 0.74068 0.28264 0.0
C728 C 0.78017 0.64422 0.34572 0.0
C729 C 0.76364 0.60454 0.32386 0.0
C730 C 0.75601 0.67157 0.34821 0.0
C731 C 0.71391 0.65836 0.32867 0.0
C732 C 0.69745 0.61824 0.30656 0.0
C733 C 0.72315 0.59258 0.30395 0.0
C734 C 0.77635 0.71538 0.37105 0.0
C735 C 0.65231 0.60163 0.28595 0.0
H736 H 0.60672 0.7024 0.37787 0.0
H737 H 0.69062 0.78806 0.29547 0.0
H738 H 0.66893 0.6382 0.39193 0.0
H739 H 0.60929 0.63255 0.3965 0.0
H740 H 0.62086 0.60038 0.36407 0.0
H741 H 0.74742 0.77331 0.26792 0.0
H742 H 0.77582 0.74844 0.29426 0.0
H743 H 0.72944 0.709 0.26578 0.0
H744 H 0.81246 0.65426 0.36056 0.0
H745 H 0.7123 0.5639 0.2857 0.0
H746 H 0.74831 0.7103 0.38956 0.0
H747 H 0.78552 0.74921 0.35692 0.0
H748 H 0.80988 0.72124 0.38409 0.0
H749 H 0.61994 0.58356 0.30234 0.0
H750 H 0.64837 0.57469 0.26676 0.0
H751 H 0.65272 0.63354 0.27394 0.0
C752 C 0.11881 0.80692 0.69716 0.0
C753 C 0.14961 0.79361 0.68069 0.0
C754 C 0.0677 0.77426 0.699 0.0
C755 C 0.04684 0.72728 0.6838 0.0
C756 C 0.07831 0.71431 0.66702 0.0
C757 C 0.12903 0.74761 0.66553 0.0
C758 C 0.0359 0.79053 0.71649 0.0
C759 C 0.05899 0.66505 0.6509 0.0
C760 C 0.91827 0.62928 0.7123 0.0
C761 C 0.88872 0.62858 0.6864 0.0
C762 C 0.96972 0.66013 0.71139 0.0
C763 C 0.99218 0.69268 0.68456 0.0
C764 C 0.96208 0.69301 0.65876 0.0
C765 C 0.91082 0.66095 0.65998 0.0
C766 C 0.00012 0.65721 0.73884 0.0
C767 C 0.98399 0.72766 0.62999 0.0
H768 H 0.13474 0.84308 0.7084 0.0
H769 H 0.15262 0.73806 0.6518 0.0
H770 H 0.00851 0.79014 0.69914 0.0
H771 H 0.01519 0.76445 0.73661 0.0
H772 H 0.05773 0.82816 0.72702 0.0
H773 H 0.08616 0.66391 0.63401 0.0
H774 H 0.05055 0.63753 0.67047 0.0
H775 H 0.02499 0.65499 0.63697 0.0
H776 H 0.90104 0.60591 0.73344 0.0
H777 H 0.88784 0.66132 0.64028 0.0
H778 H 0.02413 0.69421 0.74962 0.0
H779 H 0.0242 0.64415 0.72858 0.0
H780 H 0.97723 0.63156 0.75863 0.0
H781 H 0.01032 0.71997 0.61682 0.0
H782 H 0.95555 0.72429 0.61234 0.0
H783 H 0.00482 0.76632 0.63886 0.0
C784 C 0.37046 0.11773 0.97399 0.0
C785 C 0.35922 0.14807 0.99276 0.0
C786 C 0.34758 0.06672 0.98009 0.0
C787 C 0.31219 0.04487 1.00549 0.0
C788 C 0.30031 0.07559 0.02433 0.0
C789 C 0.32358 0.12665 0.01753 0.0
C790 C 0.36243 0.03629 0.95998 0.0
C791 C 0.26313 0.05451 0.05172 0.0
C792 C 0.2217 0.90623 0.99737 0.0
C793 C 0.24113 0.88539 0.01891 0.0
C794 C 0.24428 0.95767 0.99291 0.0
C795 C 0.28667 0.98981 0.01135 0.0
C796 C 0.30452 0.96874 0.03469 0.0
C797 C 0.28201 0.91703 0.03784 0.0
C798 C 0.222 0.97765 0.96893 0.0
C799 C 0.34655 -0.00028 0.05729 0.0
H800 H 0.39693 0.13391 0.95422 0.0
H801 H 0.31403 0.1499 0.03169 0.0
H802 H 0.37818 0.02055 0.97705 0.0
H803 H 0.32986 0.00539 0.94802 0.0
H804 H 0.39016 0.05811 0.94089 0.0
H805 H 0.25674 0.08283 0.06345 0.0
H806 H 0.22765 0.02435 0.0422 0.0
H807 H 0.27613 0.03837 0.07074 0.0
H808 H 0.18824 0.88218 0.98416 0.0
H809 H 0.2955 0.90144 0.05601 0.0
H810 H 0.24876 0.99837 0.94915 0.0
H811 H 0.21345 0.00384 0.98159 0.0
H812 H 0.18779 0.94801 0.95753 0.0
H813 H 0.37819 0.99521 0.05056 0.0
H814 H 0.33645 0.98633 0.08292 0.0
H815 H 0.3574 0.03913 0.05662 0.0
C816 C 0.96409 0.36523 0.09366 0.0
C817 C 0.91925 0.32059 0.09444 0.0
C818 C 0.99099 0.38632 0.12265 0.0
C819 C 0.97338 0.36144 0.15301 0.0
C820 C 0.928 0.31643 0.15385 0.0
C821 C 0.90127 0.29697 0.12469 0.0
C822 C 0.03844 0.43502 0.12078 0.0
C823 C 0.90828 0.28798 0.18544 0.0
C824 C 0.06454 0.37941 0.22043 0.0
C825 C 0.05536 0.40647 0.24401 0.0
C826 C 0.03883 0.36546 0.19058 0.0
C827 C 0.00388 0.38007 0.18349 0.0
C828 C 0.9961 0.40951 0.20653 0.0
C829 C 0.02135 0.42167 0.23678 0.0
C830 C 0.04762 0.33319 0.16723 0.0
C831 C 0.96053 0.4274 0.19945 0.0
H832 H 0.97785 0.38403 0.07042 0.0
H833 H 0.86665 0.26246 0.12549 0.0
H834 H 0.03791 0.46138 0.13874 0.0
H835 H 0.06976 0.42979 0.12733 0.0
H836 H 0.04507 0.45165 0.09589 0.0
H837 H 0.87204 0.25402 0.18208 0.0
H838 H 0.93461 0.27738 0.19525 0.0
H839 H 0.90437 0.31145 0.20419 0.0
H840 H 0.0905 0.3672 0.22589 0.0
H841 H 0.01437 0.4429 0.25479 0.0
H842 H 0.05818 0.3507 0.14267 0.0
H843 H 0.01318 0.29731 0.16416 0.0
H844 H 0.0769 0.32601 0.176 0.0
H845 H 0.96937 0.44676 0.17546 0.0
H846 H 0.96125 0.45283 0.21874 0.0
H847 H 0.92263 0.39551 0.19769 0.0
C848 C 0.69449 0.00953 0.56826 0.0
C849 C 0.69038 0.05171 0.57206 0.0
C850 C 0.68432 0.9849 0.53791 0.0
C851 C 0.66779 0.00181 0.5112 0.0
C852 C 0.66233 0.04369 0.51532 0.0
C853 C 0.67468 0.06872 0.5455 0.0
C854 C 0.69203 0.9413 0.53428 0.0
C855 C 0.64291 0.06173 0.48798 0.0
C856 C 0.67805 0.96363 0.42392 0.0
C857 C 0.63194 0.92139 0.41984 0.0
C858 C 0.69045 0.99013 0.45364 0.0
C859 C 0.65514 0.97498 0.47922 0.0
C860 C 0.60778 0.93347 0.47448 0.0
C861 C 0.59715 0.90662 0.44512 0.0
C862 C 0.7418 0.03324 0.4581 0.0
C863 C 0.56842 0.91715 0.5005 0.0
H864 H 0.70721 0.99676 0.58871 0.0
H865 H 0.67129 0.10127 0.54853 0.0
H866 H 0.65661 0.90762 0.5286 0.0
H867 H 0.7173 0.94755 0.51347 0.0
H868 H 0.70756 0.93446 0.55683 0.0
H869 H 0.63916 0.09375 0.49554 0.0
H870 H 0.66782 0.07264 0.46647 0.0
H871 H 0.60643 0.03155 0.47988 0.0
H872 H 0.70508 0.97461 0.40445 0.0
H873 H 0.56136 0.87399 0.44182 0.0
H874 H 0.75968 0.02613 0.47922 0.0
H875 H 0.74044 0.06713 0.46382 0.0
H876 H 0.76498 0.04017 0.43594 0.0
H877 H 0.57956 0.9046 0.52264 0.0
H878 H 0.53242 0.88657 0.49193 0.0
H879 H 0.56369 0.94857 0.50799 0.0
C880 C 0.61007 0.63046 0.89417 0.0
C881 C 0.60786 0.67407 0.89373 0.0
C882 C 0.62136 0.61275 0.8656 0.0
C883 C 0.63204 0.63993 0.83593 0.0
C884 C 0.62911 0.68363 0.83527 0.0
C885 C 0.6165 0.69981 0.86402 0.0
C886 C 0.6229 0.56543 0.86736 0.0
C887 C 0.6412 0.71439 0.8045 0.0
C888 C 0.71966 0.62554 0.77859 0.0
C889 C 0.68826 0.59437 0.75398 0.0
C890 C 0.70198 0.64174 0.80458 0.0
C891 C 0.65112 0.62536 0.80677 0.0
C892 C 0.6191 0.59427 0.78173 0.0
C893 C 0.63819 0.57965 0.75533 0.0
C894 C 0.73782 0.67578 0.83008 0.0
C895 C 0.5645 0.57495 0.78351 0.0
H896 H 0.6028 0.60997 0.9169 0.0
H897 H 0.61483 0.73352 0.86345 0.0
H898 H 0.60072 0.54023 0.84722 0.0
H899 H 0.66127 0.5735 0.86412 0.0
H900 H 0.60887 0.54609 0.89116 0.0
H901 H 0.63435 0.74569 0.80736 0.0
H902 H 0.68049 0.72935 0.79813 0.0
H903 H 0.61911 0.69129 0.78357 0.0
H904 H 0.75847 0.63726 0.77757 0.0
H905 H 0.61371 0.55511 0.73657 0.0
H906 H 0.72945 0.65685 0.8542 0.0
H907 H 0.73414 0.70899 0.833 0.0
H908 H 0.77656 0.68781 0.82363 0.0
H909 H 0.54896 0.55041 0.80516 0.0
H910 H 0.545 0.55389 0.76118 0.0
H911 H 0.55712 0.60577 0.78682 0.0
C912 C 0.03922 0.63814 0.09912 0.0
C913 C 0.08327 0.68333 0.10134 0.0
C914 C 0.01032 0.61578 0.12723 0.0
C915 C 0.02515 0.63986 0.15809 0.0
C916 C 0.06972 0.68541 0.16036 0.0
C917 C 0.09842 0.7062 0.13211 0.0
C918 C 0.96368 0.56661 0.12389 0.0
C919 C 0.08642 0.71304 0.19247 0.0
C920 C 0.92485 0.6149 0.22005 0.0
C921 C 0.93067 0.58541 0.24341 0.0
C922 C 0.95554 0.63298 0.19246 0.0
C923 C 0.99216 0.61998 0.18738 0.0
C924 C 0.9979 0.58959 0.21074 0.0
C925 C 0.96753 0.57328 0.23885 0.0
C926 C 0.94888 0.66634 0.16884 0.0
C927 C 0.03541 0.57358 0.20571 0.0
H928 H 0.02766 0.61996 0.07551 0.0
H929 H 0.13243 0.74117 0.13403 0.0
H930 H 0.96337 0.54008 0.14206 0.0
H931 H 0.9314 0.5709 0.12916 0.0
H932 H 0.95938 0.55072 0.09891 0.0
H933 H 0.12276 0.74726 0.19036 0.0
H934 H 0.05905 0.72312 0.20096 0.0
H935 H 0.08885 0.68923 0.21163 0.0
H936 H 0.89636 0.62435 0.22358 0.0
H937 H 0.9715 0.54979 0.25664 0.0
H938 H 0.93948 0.64931 0.1441 0.0
H939 H 0.98377 0.70199 0.16652 0.0
H940 H 0.91947 0.6739 0.17678 0.0
H941 H 0.02781 0.55279 0.18234 0.0
H942 H 0.03527 0.54989 0.22604 0.0
H943 H 0.07276 0.60631 0.20367 0.0
C944 C 0.32993 0.08141 0.45312 0.0
C945 C 0.35695 0.07617 0.42764 0.0
C946 C 0.3205 0.05465 0.48241 0.0
C947 C 0.33998 0.02297 0.4869 0.0
C948 C 0.36693 0.01708 0.46106 0.0
C949 C 0.37447 0.04325 0.43145 0.0
C950 C 0.29025 0.06093 0.50878 0.0
C951 C 0.38933 0.98463 0.46517 0.0
C952 C 0.35468 0.99805 0.57659 0.0
C953 C 0.31412 0.95076 0.58118 0.0
C954 C 0.36476 0.0211 0.54564 0.0
C955 C 0.33261 0.99692 0.51894 0.0
C956 C 0.29158 0.94913 0.52354 0.0
C957 C 0.28328 0.92638 0.55444 0.0
C958 C 0.40957 0.07156 0.54161 0.0
C959 C 0.25552 0.92264 0.49612 0.0
H960 H 0.31624 0.1068 0.45014 0.0
H961 H 0.39594 0.03971 0.41192 0.0
H962 H 0.25943 0.02441 0.51634 0.0
H963 H 0.31328 0.07823 0.53079 0.0
H964 H 0.27488 0.08423 0.50052 0.0
H965 H 0.40832 0.9831 0.44257 0.0
H966 H 0.41627 -0.00123 0.48561 0.0
H967 H 0.36056 0.9466 0.47177 0.0
H968 H 0.37889 0.0168 0.5971 0.0
H969 H 0.25171 0.88988 0.55791 0.0
H970 H 0.39809 0.09906 0.53638 0.0
H971 H 0.43182 0.07168 0.52041 0.0
H972 H 0.43313 0.08349 0.56387 0.0
H973 H 0.23807 0.94431 0.48851 0.0
H974 H 0.22615 0.88515 0.50343 0.0
H975 H 0.2749 0.91935 0.47437 0.0
C976 C 0.39595 0.3863 0.90094 0.0
C977 C 0.39949 0.34342 0.901 0.0
C978 C 0.38527 0.40347 0.87183 0.0
C979 C 0.37641 0.37635 0.84225 0.0
C980 C 0.38059 0.33338 0.84219 0.0
C981 C 0.39268 0.31789 0.87137 0.0
C982 C 0.38249 0.45015 0.87289 0.0
C983 C 0.37024 0.30252 0.81158 0.0
C984 C 0.29004 0.38578 0.78099 0.0
C985 C 0.32214 0.41562 0.75619 0.0
C986 C 0.30721 0.37218 0.80861 0.0
C987 C 0.3582 0.39004 0.81226 0.0
C988 C 0.391 0.42027 0.78724 0.0
C989 C 0.37247 0.43213 0.75921 0.0
C990 C 0.27059 0.33874 0.83399 0.0
C991 C 0.44572 0.44125 0.79056 0.0
H992 H 0.40166 0.40652 0.92364 0.0
H993 H 0.39518 0.28462 0.87118 0.0
H994 H 0.40502 0.47544 0.85288 0.0
H995 H 0.34398 0.44123 0.86893 0.0
H996 H 0.39538 0.46973 0.89672 0.0
H997 H 0.3773 0.27146 0.81513 0.0
H998 H 0.33124 0.28719 0.80431 0.0
H999 H 0.39324 0.32562 0.79093 0.0
H1000 H 0.25106 0.37283 0.77872 0.0
H1001 H 0.39748 0.4558 0.74034 0.0
H1002 H 0.2779 0.35832 0.85782 0.0
H1003 H 0.27453 0.30585 0.83793 0.0
H1004 H 0.23202 0.32615 0.82674 0.0
H1005 H 0.45935 0.46575 0.81235 0.0
H1006 H 0.46617 0.46273 0.76858 0.0
H1007 H 0.4541 0.41123 0.79456 0.0
C1008 C 0.20915 0.47828 0.42645 0.0
C1009 C 0.15787 0.45059 0.42279 0.0
C1010 C 0.23143 0.48839 0.45746 0.0
C1011 C 0.20164 0.47179 0.48586 0.0
C1012 C 0.14962 0.44611 0.48242 0.0
C1013 C 0.12827 0.43557 0.45086 0.0
C1014 C 0.28685 0.51529 0.45966 0.0
C1015 C 0.11664 0.42918 0.51215 0.0
C1016 C 0.25 0.45363 0.56757 0.0
C1017 C 0.25844 0.49577 0.58496 0.0
C1018 C 0.23329 0.4462 0.53486 0.0
C1019 C 0.22474 0.48162 0.51917 0.0
C1020 C 0.23675 0.52587 0.53583 0.0
C1021 C 0.25402 0.53266 0.56826 0.0
C1022 C 0.22355 0.3998 0.51737 0.0
C1023 C 0.22835 0.56473 0.5202 0.0
H1024 H 0.23219 0.49106 0.4048 0.0
H1025 H 0.08867 0.41417 0.44816 0.0
H1026 H 0.30031 0.54623 0.47739 0.0
H1027 H 0.29881 0.48959 0.46874 0.0
H1028 H 0.30466 0.53011 0.43554 0.0
H1029 H 0.12393 0.40397 0.52715 0.0
H1030 H 0.12497 0.46156 0.52762 0.0
H1031 H 0.07705 0.40992 0.50552 0.0
H1032 H 0.2532 0.42489 0.58014 0.0
H1033 H 0.26067 0.56556 0.58139 0.0
H1034 H 0.18599 0.38061 0.50676 0.0
H1035 H 0.2278 0.37383 0.53373 0.0
H1036 H 0.25 0.41005 0.49686 0.0
H1037 H 0.24658 0.57548 0.49588 0.0
H1038 H 0.24232 0.59833 0.53566 0.0
H1039 H 0.18841 0.54948 0.51613 0.0
C1040 C 0.83989 0.20093 0.90675 0.0
C1041 C 0.83953 0.24527 0.90986 0.0
C1042 C 0.82517 0.17373 0.87741 0.0
C1043 C 0.81381 0.19358 0.84973 0.0
C1044 C 0.82091 0.24204 0.8516 0.0
C1045 C 0.83224 0.26663 0.88192 0.0
C1046 C 0.81532 0.12138 0.87822 0.0
C1047 C 0.8114 0.26626 0.82276 0.0
C1048 C 0.79305 0.13675 0.76477 0.0
C1049 C 0.74481 0.12612 0.75875 0.0
C1050 C 0.81587 0.15657 0.79506 0.0
C1051 C 0.78838 0.1622 0.82054 0.0
C1052 C 0.73728 0.14376 0.81594 0.0
C1053 C 0.71633 0.12657 0.78492 0.0
C1054 C 0.87072 0.17793 0.79796 0.0
C1055 C 0.70533 0.14744 0.84209 0.0
H1056 H 0.84455 0.18394 0.92856 0.0
H1057 H 0.83122 0.30058 0.88435 0.0
H1058 H 0.81376 0.1059 0.85352 0.0
H1059 H 0.84385 0.11912 0.89296 0.0
H1060 H 0.7794 0.09778 0.89048 0.0
H1061 H 0.83691 0.30678 0.82314 0.0
H1062 H 0.81545 0.25148 0.79904 0.0
H1063 H 0.7734 0.25984 0.82442 0.0
H1064 H 0.81537 0.13739 0.74423 0.0
H1065 H 0.6792 0.11898 0.78022 0.0
H1066 H 0.88612 0.16751 0.7769 0.0
H1067 H 0.88005 0.16563 0.82099 0.0
H1068 H 0.88892 0.21877 0.79888 0.0
H1069 H 0.66885 0.11317 0.84263 0.0
H1070 H 0.69891 0.1783 0.83608 0.0
H1071 H 0.72197 0.15389 0.86677 0.0
C1072 C 0.55944 0.81607 0.21385 0.0
C1073 C 0.5911 0.8183 0.23867 0.0
C1074 C 0.56471 0.80344 0.18164 0.0
C1075 C 0.60002 0.78893 0.17485 0.0
C1076 C 0.63397 0.79414 0.19955 0.0
C1077 C 0.6303 0.81084 0.23084 0.0
C1078 C 0.52979 0.80239 0.15583 0.0
C1079 C 0.6711 0.77773 0.19398 0.0
C1080 C 0.54808 0.69659 0.10541 0.0
C1081 C 0.5789 0.72359 0.07943 0.0
C1082 C 0.55836 0.71525 0.13756 0.0
C1083 C 0.5978 0.76388 0.1432 0.0
C1084 C 0.63111 0.78958 0.11731 0.0
C1085 C 0.62243 0.76776 0.0861 0.0
C1086 C 0.52448 0.68423 0.16485 0.0
C1087 C 0.67323 0.84186 0.12073 0.0
H1088 H 0.52889 0.82149 0.21996 0.0
H1089 H 0.65418 0.81174 0.25034 0.0
H1090 H 0.54387 0.80445 0.13061 0.0
H1091 H 0.49392 0.76782 0.15825 0.0
H1092 H 0.52292 0.83357 0.15943 0.0
H1093 H 0.65243 0.7393 0.18458 0.0
H1094 H 0.69822 0.80157 0.17525 0.0
H1095 H 0.69128 0.7794 0.21677 0.0
H1096 H 0.51431 0.66247 0.10029 0.0
H1097 H 0.64595 0.78897 0.06584 0.0
H1098 H 0.49415 0.69235 0.16749 0.0
H1099 H 0.54421 0.69208 0.18863 0.0
H1100 H 0.50782 0.64428 0.15935 0.0
H1101 H 0.67351 0.85949 0.14436 0.0
H1102 H 0.67189 0.86493 0.10049 0.0
H1103 H 0.70844 0.84198 0.11815 0.0
C1104 C 0.7559 0.46087 0.43321 0.0
C1105 C 0.79825 0.49702 0.41689 0.0
C1106 C 0.74824 0.46445 0.46668 0.0
C1107 C 0.78495 0.50375 0.48519 0.0
C1108 C 0.82925 0.5388 0.46957 0.0
C1109 C 0.8351 0.53551 0.43546 0.0
C1110 C 0.70006 0.42669 0.482 0.0
C1111 C 0.87014 0.58005 0.48885 0.0
C1112 C 0.74985 0.53249 0.56901 0.0
C1113 C 0.76164 0.50435 0.58993 0.0
C1114 C 0.75699 0.53266 0.53473 0.0
C1115 C 0.77792 0.50546 0.52132 0.0
C1116 C 0.78937 0.47681 0.54228 0.0
C1117 C 0.77981 0.47553 0.57588 0.0
C1118 C 0.74232 0.56196 0.51287 0.0
C1119 C 0.8125 0.44789 0.52934 0.0
H1120 H 0.72699 0.43073 0.41945 0.0
H1121 H 0.86775 0.5638 0.42326 0.0
H1122 H 0.70665 0.40529 0.50096 0.0
H1123 H 0.6825 0.44548 0.49439 0.0
H1124 H 0.67388 0.40044 0.46365 0.0
H1125 H 0.90305 0.60302 0.47347 0.0
H1126 H 0.85713 0.60409 0.49946 0.0
H1127 H 0.88103 0.56468 0.50964 0.0
H1128 H 0.73585 0.55488 0.57938 0.0
H1129 H 0.78867 0.45308 0.5914 0.0
H1130 H 0.71638 0.53765 0.49371 0.0
H1131 H 0.77516 0.59123 0.50006 0.0
H1132 H 0.72468 0.57944 0.52682 0.0
H1133 H 0.84566 0.47224 0.5146 0.0
H1134 H 0.78636 0.41795 0.51296 0.0
H1135 H 0.82332 0.43112 0.54931 0.0
C1136 C 0.19965 0.75633 0.89385 0.0
C1137 C 0.18793 0.7745 0.92163 0.0
C1138 C 0.21297 0.78303 0.86429 0.0
C1139 C 0.21831 0.83092 0.86326 0.0
C1140 C 0.20381 0.84802 0.89093 0.0
C1141 C 0.18654 0.81835 0.91912 0.0
C1142 C 0.22505 0.76084 0.83537 0.0
C1143 C 0.21114 0.89939 0.89308 0.0
C1144 C 0.31337 0.89869 0.79736 0.0
C1145 C 0.28377 0.89938 0.77198 0.0
C1146 C 0.29388 0.88218 0.82886 0.0
C1147 C 0.24303 0.86379 0.83447 0.0
C1148 C 0.21508 0.87117 0.81017 0.0
C1149 C 0.23684 0.89135 0.77964 0.0
C1150 C 0.32679 0.87929 0.8546 0.0
C1151 C 0.16084 0.85233 0.81473 0.0
H1152 H 0.20149 0.72277 0.8958 0.0
H1153 H 0.17829 0.83279 0.94078 0.0
H1154 H 0.22683 0.77936 0.81186 0.0
H1155 H 0.26101 0.76318 0.83965 0.0
H1156 H 0.19712 0.7211 0.83304 0.0
H1157 H 0.23567 0.91901 0.91413 0.0
H1158 H 0.22743 0.92198 0.87077 0.0
H1159 H 0.17531 0.897 0.89818 0.0
H1160 H 0.34987 0.90522 0.79165 0.0
H1161 H 0.21396 0.89199 0.75993 0.0
H1162 H 0.33113 0.84687 0.84961 0.0
H1163 H 0.31187 0.87586 0.87972 0.0
H1164 H 0.36398 0.91256 0.85351 0.0
H1165 H 0.1418 0.8134 0.82316 0.0
H1166 H 0.14297 0.85447 0.79176 0.0
H1167 H 0.1555 0.87445 0.83379 0.0
C1168 C 0.36734 0.19664 0.23562 0.0
C1169 C 0.4055 0.19066 0.24806 0.0
C1170 C 0.36865 0.21275 0.20332 0.0
C1171 C 0.40725 0.21929 0.18207 0.0
C1172 C 0.4429 0.20759 0.19371 0.0
C1173 C 0.44227 0.19473 0.22685 0.0
C1174 C 0.33044 0.22591 0.19309 0.0
C1175 C 0.48382 0.211 0.17242 0.0
C1176 C 0.38613 0.234 0.09164 0.0
C1177 C 0.42753 0.27966 0.08432 0.0
C1178 C 0.37934 0.2132 0.12304 0.0
C1179 C 0.41198 0.24113 0.14871 0.0
C1180 C 0.45037 0.29007 0.14212 0.0
C1181 C 0.45912 0.30779 0.10966 0.0
C1182 C 0.33914 0.16016 0.12725 0.0
C1183 C 0.48388 0.32311 0.16889 0.0
H1184 H 0.33929 0.19419 0.25232 0.0
H1185 H 0.47233 0.19099 0.23661 0.0
H1186 H 0.30037 0.19426 0.17986 0.0
H1187 H 0.31394 0.23396 0.21466 0.0
H1188 H 0.34614 0.25846 0.17658 0.0
H1189 H 0.48307 0.17519 0.17298 0.0
H1190 H 0.48184 0.22054 0.14653 0.0
H1191 H 0.51982 0.23903 0.18275 0.0
H1192 H 0.36225 0.21182 0.07185 0.0
H1193 H 0.49134 0.34297 0.10397 0.0
H1194 H 0.30296 0.15833 0.12709 0.0
H1195 H 0.3425 0.14294 0.15012 0.0
H1196 H 0.33921 0.13773 0.10613 0.0
H1197 H 0.46391 0.31672 0.1925 0.0
H1198 H 0.50041 0.36265 0.16219 0.0
H1199 H 0.51435 0.31542 0.17258 0.0
loop_
_geom_bond_atom_site_label_1
_geom_bond_atom_site_label_2
_geom_bond_distance
_geom_bond_site_symmetry_2
_ccdc_geom_bond_type
Mn0 O5 2.095 . S
Mn0 O15 2.162 . S
Mn0 O16 2.297 . S
Mn0 O24 2.385 . S
Mn0 O25 2.209 . S
Mn0 O26 2.094 . S
Mn1 O6 2.121 . S
Mn1 N8 2.257 . S
Mn1 N17 2.282 . S
Mn1 O25 2.215 . S
Mn1 O27 2.117 . S
C2 O24 1.234 . S
C2 O25 1.283 . S
C3 O15 1.281 . S
C3 O16 1.236 . S
C4 O26 1.240 . S
C4 O27 1.264 . S
O5 Mn0 2.095 . S
O5 C14 1.250 . S
O6 Mn1 2.121 . S
O6 C14 1.258 . S
C7 N8 1.326 . S
C7 C11 1.460 . S
C7 H13 0.929 . S
N8 Mn1 2.257 . S
N8 C7 1.326 . S
N8 C12 1.362 . S
C9 C10 1.258 . S
C9 C12 1.431 . S
C9 C29 1.449 . S
C10 C9 1.258 . S
C10 C11 1.477 . S
C10 H30 0.931 . S
C11 C7 1.460 . S
C11 C10 1.477 . S
C11 H31 0.930 . S
C12 N8 1.362 . S
C12 C9 1.431 . S
C12 C22 1.476 . S
H13 C7 0.929 . S
C14 O5 1.250 . S
C14 O6 1.258 . S
O15 Mn0 2.162 . S
O15 C3 1.281 . S
O16 Mn0 2.297 . S
O16 C3 1.236 . S
N17 Mn1 2.282 . S
N17 C18 1.328 . S
N17 C22 1.318 . S
C18 N17 1.328 . S
C18 C19 1.457 . S
C18 H23 0.929 . S
C19 C18 1.457 . S
C19 C20 1.291 . S
C19 H32 0.931 . S
C20 C19 1.291 . S
C20 C21 1.373 . S
C20 H33 0.929 . S
C21 C20 1.373 . S
C21 C22 1.396 . S
C21 C28 1.403 . S
C22 C12 1.476 . S
C22 N17 1.318 . S
C22 C21 1.396 . S
H23 C18 0.929 . S
O24 Mn0 2.385 . S
O24 C2 1.234 . S
O25 Mn0 2.209 . S
O25 Mn1 2.215 . S
O25 C2 1.283 . S
O26 Mn0 2.094 . S
O26 C4 1.240 . S
O27 Mn1 2.117 . S
O27 C4 1.264 . S
C28 C21 1.403 . S
C28 C29 1.399 . S
C28 H34 0.929 . S
C29 C9 1.449 . S
C29 C28 1.399 . S
C29 H35 0.930 . S
H30 C10 0.931 . S
H31 C11 0.930 . S
H32 C19 0.931 . S
H33 C20 0.929 . S
H34 C28 0.929 . S
H35 C29 0.930 . S
Mn36 O41 2.095 . S
Mn36 O51 2.162 . S
Mn36 O52 2.297 . S
Mn36 O60 2.385 . S
Mn36 O61 2.209 . S
Mn36 O62 2.094 . S
Mn37 O42 2.121 . S
Mn37 N44 2.257 . S
Mn37 N53 2.282 . S
Mn37 O61 2.215 . S
Mn37 O63 2.117 . S
C38 O60 1.234 . S
C38 O61 1.283 . S
C39 O51 1.281 . S
C39 O52 1.236 . S
C40 O62 1.240 . S
C40 O63 1.264 . S
O41 Mn36 2.095 . S
O41 C50 1.250 . S
O42 Mn37 2.121 . S
O42 C50 1.258 . S
C43 N44 1.326 . S
C43 C47 1.460 . S
C43 H49 0.929 . S
N44 Mn37 2.257 . S
N44 C43 1.326 . S
N44 C48 1.362 . S
C45 C46 1.258 . S
C45 C48 1.431 . S
C45 C65 1.449 1_655 S
C46 C45 1.258 . S
C46 C47 1.477 . S
C46 H66 0.931 1_655 S
C47 C43 1.460 . S
C47 C46 1.477 . S
C47 H67 0.930 . S
C48 N44 1.362 . S
C48 C45 1.431 . S
C48 C58 1.476 . S
H49 C43 0.929 . S
C50 O41 1.250 . S
C50 O42 1.258 . S
O51 Mn36 2.162 . S
O51 C39 1.281 . S
O52 Mn36 2.297 . S
O52 C39 1.236 . S
N53 Mn37 2.282 . S
N53 C54 1.328 . S
N53 C58 1.318 . S
C54 N53 1.328 . S
C54 C55 1.457 . S
C54 H59 0.929 . S
C55 C54 1.457 . S
C55 C56 1.291 . S
C55 H68 0.931 . S
C56 C55 1.291 . S
C56 C57 1.373 . S
C56 H69 0.929 1_655 S
C57 C56 1.373 . S
C57 C58 1.396 . S
C57 C64 1.403 1_655 S
C58 C48 1.476 . S
C58 N53 1.318 . S
C58 C57 1.396 . S
H59 C54 0.929 . S
O60 Mn36 2.385 . S
O60 C38 1.234 . S
O61 Mn36 2.209 . S
O61 Mn37 2.215 . S
O61 C38 1.283 . S
O62 Mn36 2.094 . S
O62 C40 1.240 . S
O63 Mn37 2.117 . S
O63 C40 1.264 . S
C64 C57 1.403 1_455 S
C64 C65 1.399 . S
C64 H70 0.929 . S
C65 C45 1.449 1_455 S
C65 C64 1.399 . S
C65 H71 0.930 . S
H66 C46 0.931 1_455 S
H67 C47 0.930 . S
H68 C55 0.931 . S
H69 C56 0.929 1_455 S
H70 C64 0.929 . S
H71 C65 0.930 . S
Mn72 O77 2.093 1_556 S
Mn72 O87 2.179 . S
Mn72 O88 2.332 . S
Mn72 O96 2.387 . S
Mn72 O97 2.211 . S
Mn72 O98 2.060 1_556 S
Mn73 O78 2.121 . S
Mn73 N80 2.257 . S
Mn73 N89 2.282 . S
Mn73 O97 2.215 1_554 S
Mn73 O99 2.117 . S
C74 O96 1.234 . S
C74 O97 1.283 . S
C75 O87 1.281 . S
C75 O88 1.236 . S
C76 O98 1.240 . S
C76 O99 1.264 . S
O77 Mn72 2.093 1_554 S
O77 C86 1.249 1_554 S
O78 Mn73 2.121 . S
O78 C86 1.257 1_554 S
C79 N80 1.326 1_556 S
C79 C83 1.460 . S
C79 H85 0.929 . S
N80 Mn73 2.257 . S
N80 C79 1.326 1_554 S
N80 C84 1.362 . S
C81 C82 1.258 . S
C81 C84 1.431 . S
C81 C101 1.449 1_565 S
C82 C81 1.258 . S
C82 C83 1.477 1_554 S
C82 H102 0.931 1_564 S
C83 C79 1.460 . S
C83 C82 1.477 1_556 S
C83 H103 0.930 . S
C84 N80 1.362 . S
C84 C81 1.431 . S
C84 C94 1.476 . S
H85 C79 0.929 . S
C86 O77 1.249 1_556 S
C86 O78 1.257 1_556 S
O87 Mn72 2.179 . S
O87 C75 1.281 . S
O88 Mn72 2.332 . S
O88 C75 1.236 . S
N89 Mn73 2.282 . S
N89 C90 1.328 . S
N89 C94 1.318 . S
C90 N89 1.328 . S
C90 C91 1.457 . S
C90 H95 0.929 . S
C91 C90 1.457 . S
C91 C92 1.291 . S
C91 H104 0.931 . S
C92 C91 1.291 . S
C92 C93 1.373 . S
C92 H105 0.929 1_565 S
C93 C92 1.373 . S
C93 C94 1.396 . S
C93 C100 1.403 1_565 S
C94 C84 1.476 . S
C94 N89 1.318 . S
C94 C93 1.396 . S
H95 C90 0.929 . S
O96 Mn72 2.387 . S
O96 C74 1.234 . S
O97 Mn72 2.211 . S
O97 Mn73 2.215 1_556 S
O97 C74 1.283 . S
O98 Mn72 2.060 1_554 S
O98 C76 1.240 . S
O99 Mn73 2.117 . S
O99 C76 1.264 . S
C100 C93 1.403 1_545 S
C100 C101 1.399 . S
C100 H106 0.929 . S
C101 C81 1.449 1_545 S
C101 C100 1.399 . S
C101 H107 0.930 . S
H102 C82 0.931 1_546 S
H103 C83 0.930 . S
H104 C91 0.931 . S
H105 C92 0.929 1_545 S
H106 C100 0.929 . S
H107 C101 0.930 . S
Mn108 O113 2.095 . S
Mn108 O123 2.162 . S
Mn108 O124 2.297 . S
Mn108 O132 2.385 . S
Mn108 O133 2.209 . S
Mn108 O134 2.094 . S
Mn109 O114 2.121 . S
Mn109 N116 2.257 . S
Mn109 N125 2.282 . S
Mn109 O133 2.215 . S
Mn109 O135 2.117 . S
C110 O132 1.234 . S
C110 O133 1.283 . S
C111 O123 1.281 . S
C111 O124 1.236 . S
C112 O134 1.240 . S
C112 O135 1.264 . S
O113 Mn108 2.095 . S
O113 C122 1.250 . S
O114 Mn109 2.121 . S
O114 C122 1.258 . S
C115 N116 1.326 . S
C115 C119 1.460 . S
C115 H121 0.929 . S
N116 Mn109 2.257 . S
N116 C115 1.326 . S
N116 C120 1.362 . S
C117 C118 1.258 . S
C117 C120 1.431 . S
C117 C137 1.449 . S
C118 C117 1.258 . S
C118 C119 1.477 . S
C118 H138 0.931 . S
C119 C115 1.460 . S
C119 C118 1.477 . S
C119 H139 0.930 . S
C120 N116 1.362 . S
C120 C117 1.431 . S
C120 C130 1.476 . S
H121 C115 0.929 . S
C122 O113 1.250 . S
C122 O114 1.258 . S
O123 Mn108 2.162 . S
O123 C111 1.281 . S
O124 Mn108 2.297 . S
O124 C111 1.236 . S
N125 Mn109 2.282 . S
N125 C126 1.328 . S
N125 C130 1.318 . S
C126 N125 1.328 . S
C126 C127 1.457 . S
C126 H131 0.929 . S
C127 C126 1.457 . S
C127 C128 1.291 . S
C127 H140 0.931 . S
C128 C127 1.291 . S
C128 C129 1.373 . S
C128 H141 0.929 . S
C129 C128 1.373 . S
C129 C130 1.396 . S
C129 C136 1.403 . S
C130 C120 1.476 . S
C130 N125 1.318 . S
C130 C129 1.396 . S
H131 C126 0.929 . S
O132 Mn108 2.385 . S
O132 C110 1.234 . S
O133 Mn108 2.209 . S
O133 Mn109 2.215 . S
O133 C110 1.283 . S
O134 Mn108 2.094 . S
O134 C112 1.240 . S
O135 Mn109 2.117 . S
O135 C112 1.264 . S
C136 C129 1.403 . S
C136 C137 1.399 . S
C136 H142 0.929 . S
C137 C117 1.449 . S
C137 C136 1.399 . S
C137 H143 0.930 . S
H138 C118 0.931 . S
H139 C119 0.930 . S
H140 C127 0.931 . S
H141 C128 0.929 . S
H142 C136 0.929 . S
H143 C137 0.930 . S
Mn144 O149 2.095 . S
Mn144 O159 2.162 . S
Mn144 O160 2.297 . S
Mn144 O168 2.385 . S
Mn144 O169 2.209 . S
Mn144 O170 2.094 . S
Mn145 O150 2.121 . S
Mn145 N152 2.257 . S
Mn145 N161 2.282 . S
Mn145 O169 2.215 . S
Mn145 O171 2.117 . S
C146 O168 1.234 . S
C146 O169 1.283 . S
C147 O159 1.281 . S
C147 O160 1.236 . S
C148 O170 1.240 . S
C148 O171 1.264 . S
O149 Mn144 2.095 . S
O149 C158 1.250 . S
O150 Mn145 2.121 . S
O150 C158 1.258 . S
C151 N152 1.326 . S
C151 C155 1.460 . S
C151 H157 0.929 . S
N152 Mn145 2.257 . S
N152 C151 1.326 . S
N152 C156 1.362 . S
C153 C154 1.258 . S
C153 C156 1.431 . S
C153 C173 1.449 1_455 S
C154 C153 1.258 . S
C154 C155 1.477 . S
C154 H174 0.931 1_455 S
C155 C151 1.460 . S
C155 C154 1.477 . S
C155 H175 0.930 . S
C156 N152 1.362 . S
C156 C153 1.431 . S
C156 C166 1.476 . S
H157 C151 0.929 . S
C158 O149 1.250 . S
C158 O150 1.258 . S
O159 Mn144 2.162 . S
O159 C147 1.281 . S
O160 Mn144 2.297 . S
O160 C147 1.236 . S
N161 Mn145 2.282 . S
N161 C162 1.328 . S
N161 C166 1.318 . S
C162 N161 1.328 . S
C162 C163 1.457 . S
C162 H167 0.929 . S
C163 C162 1.457 . S
C163 C164 1.291 . S
C163 H176 0.931 . S
C164 C163 1.291 . S
C164 C165 1.373 . S
C164 H177 0.929 1_455 S
C165 C164 1.373 . S
C165 C166 1.396 . S
C165 C172 1.403 1_455 S
C166 C156 1.476 . S
C166 N161 1.318 . S
C166 C165 1.396 . S
H167 C162 0.929 . S
O168 Mn144 2.385 . S
O168 C146 1.234 . S
O169 Mn144 2.209 . S
O169 Mn145 2.215 . S
O169 C146 1.283 . S
O170 Mn144 2.094 . S
O170 C148 1.240 . S
O171 Mn145 2.117 . S
O171 C148 1.264 . S
C172 C165 1.403 1_655 S
C172 C173 1.399 . S
C172 H178 0.929 . S
C173 C153 1.449 1_655 S
C173 C172 1.399 . S
C173 H179 0.930 . S
H174 C154 0.931 1_655 S
H175 C155 0.930 . S
H176 C163 0.931 . S
H177 C164 0.929 1_655 S
H178 C172 0.929 . S
H179 C173 0.930 . S
Mn180 O185 2.093 1_556 S
Mn180 O195 2.179 . S
Mn180 O196 2.332 . S
Mn180 O204 2.387 . S
Mn180 O205 2.211 . S
Mn180 O206 2.060 1_556 S
Mn181 O186 2.121 . S
Mn181 N188 2.257 . S
Mn181 N197 2.282 . S
Mn181 O205 2.215 1_554 S
Mn181 O207 2.117 . S
C182 O204 1.234 . S
C182 O205 1.283 . S
C183 O195 1.281 . S
C183 O196 1.236 . S
C184 O206 1.240 . S
C184 O207 1.264 . S
O185 Mn180 2.093 1_554 S
O185 C194 1.249 1_554 S
O186 Mn181 2.121 . S
O186 C194 1.257 1_554 S
C187 N188 1.326 1_556 S
C187 C191 1.460 . S
C187 H193 0.929 . S
N188 Mn181 2.257 . S
N188 C187 1.326 1_554 S
N188 C192 1.362 . S
C189 C190 1.258 . S
C189 C192 1.431 . S
C189 C209 1.449 1_545 S
C190 C189 1.258 . S
C190 C191 1.477 1_554 S
C190 H210 0.931 1_544 S
C191 C187 1.460 . S
C191 C190 1.477 1_556 S
C191 H211 0.930 . S
C192 N188 1.362 . S
C192 C189 1.431 . S
C192 C202 1.476 . S
H193 C187 0.929 . S
C194 O185 1.249 1_556 S
C194 O186 1.257 1_556 S
O195 Mn180 2.179 . S
O195 C183 1.281 . S
O196 Mn180 2.332 . S
O196 C183 1.236 . S
N197 Mn181 2.282 . S
N197 C198 1.328 . S
N197 C202 1.318 . S
C198 N197 1.328 . S
C198 C199 1.457 . S
C198 H203 0.929 . S
C199 C198 1.457 . S
C199 C200 1.291 . S
C199 H212 0.931 . S
C200 C199 1.291 . S
C200 C201 1.373 . S
C200 H213 0.929 1_545 S
C201 C200 1.373 . S
C201 C202 1.396 . S
C201 C208 1.403 1_545 S
C202 C192 1.476 . S
C202 N197 1.318 . S
C202 C201 1.396 . S
H203 C198 0.929 . S
O204 Mn180 2.387 . S
O204 C182 1.234 . S
O205 Mn180 2.211 . S
O205 Mn181 2.215 1_556 S
O205 C182 1.283 . S
O206 Mn180 2.060 1_554 S
O206 C184 1.240 . S
O207 Mn181 2.117 . S
O207 C184 1.264 . S
C208 C201 1.403 1_565 S
C208 C209 1.399 . S
C208 H214 0.929 . S
C209 C189 1.449 1_565 S
C209 C208 1.399 . S
C209 H215 0.930 . S
H210 C190 0.931 1_566 S
H211 C191 0.930 . S
H212 C199 0.931 . S
H213 C200 0.929 1_565 S
H214 C208 0.929 . S
H215 C209 0.930 . S
Mn216 O221 2.095 . S
Mn216 O231 2.162 . S
Mn216 O232 2.297 . S
Mn216 O240 2.385 . S
Mn216 O241 2.209 . S
Mn216 O242 2.094 . S
Mn217 O222 2.121 . S
Mn217 N224 2.257 . S
Mn217 N233 2.282 . S
Mn217 O241 2.215 . S
Mn217 O243 2.117 . S
C218 O240 1.234 . S
C218 O241 1.283 . S
C219 O231 1.281 . S
C219 O232 1.236 . S
C220 O242 1.240 . S
C220 O243 1.264 . S
O221 Mn216 2.095 . S
O221 C230 1.250 . S
O222 Mn217 2.121 . S
O222 C230 1.258 . S
C223 N224 1.326 . S
C223 C227 1.460 . S
C223 H229 0.929 . S
N224 Mn217 2.257 . S
N224 C223 1.326 . S
N224 C228 1.362 . S
C225 C226 1.258 . S
C225 C228 1.431 . S
C225 C245 1.449 . S
C226 C225 1.258 . S
C226 C227 1.477 . S
C226 H246 0.931 . S
C227 C223 1.460 . S
C227 C226 1.477 . S
C227 H247 0.930 . S
C228 N224 1.362 . S
C228 C225 1.431 . S
C228 C238 1.476 . S
H229 C223 0.929 . S
C230 O221 1.250 . S
C230 O222 1.258 . S
O231 Mn216 2.162 . S
O231 C219 1.281 . S
O232 Mn216 2.297 . S
O232 C219 1.236 . S
N233 Mn217 2.282 . S
N233 C234 1.328 . S
N233 C238 1.318 . S
C234 N233 1.328 . S
C234 C235 1.457 . S
C234 H239 0.929 . S
C235 C234 1.457 . S
C235 C236 1.291 . S
C235 H248 0.931 . S
C236 C235 1.291 . S
C236 C237 1.373 . S
C236 H249 0.929 . S
C237 C236 1.373 . S
C237 C238 1.396 . S
C237 C244 1.403 . S
C238 C228 1.476 . S
C238 N233 1.318 . S
C238 C237 1.396 . S
H239 C234 0.929 . S
O240 Mn216 2.385 . S
O240 C218 1.234 . S
O241 Mn216 2.209 . S
O241 Mn217 2.215 . S
O241 C218 1.283 . S
O242 Mn216 2.094 . S
O242 C220 1.240 . S
O243 Mn217 2.117 . S
O243 C220 1.264 . S
C244 C237 1.403 . S
C244 C245 1.399 . S
C244 H250 0.929 . S
C245 C225 1.449 . S
C245 C244 1.399 . S
C245 H251 0.930 . S
H246 C226 0.931 . S
H247 C227 0.930 . S
H248 C235 0.931 . S
H249 C236 0.929 . S
H250 C244 0.929 . S
H251 C245 0.930 . S
Mn252 O257 2.095 . S
Mn252 O267 2.162 . S
Mn252 O268 2.297 . S
Mn252 O276 2.385 . S
Mn252 O277 2.209 . S
Mn252 O278 2.094 . S
Mn253 O258 2.121 . S
Mn253 N260 2.257 . S
Mn253 N269 2.282 . S
Mn253 O277 2.215 . S
Mn253 O279 2.117 . S
C254 O276 1.234 . S
C254 O277 1.283 . S
C255 O267 1.281 . S
C255 O268 1.236 . S
C256 O278 1.240 . S
C256 O279 1.264 . S
O257 Mn252 2.095 . S
O257 C266 1.250 . S
O258 Mn253 2.121 . S
O258 C266 1.258 . S
C259 N260 1.326 . S
C259 C263 1.460 . S
C259 H265 0.929 . S
N260 Mn253 2.257 . S
N260 C259 1.326 . S
N260 C264 1.362 . S
C261 C262 1.258 . S
C261 C264 1.431 . S
C261 C281 1.449 1_655 S
C262 C261 1.258 . S
C262 C263 1.477 . S
C262 H282 0.908 1_655 S
C263 C259 1.460 . S
C263 C262 1.477 . S
C263 H283 0.930 . S
C264 N260 1.362 . S
C264 C261 1.431 . S
C264 C274 1.476 . S
H265 C259 0.929 . S
C266 O257 1.250 . S
C266 O258 1.258 . S
O267 Mn252 2.162 . S
O267 C255 1.281 . S
O268 Mn252 2.297 . S
O268 C255 1.236 . S
N269 Mn253 2.282 . S
N269 C270 1.328 . S
N269 C274 1.318 . S
C270 N269 1.328 . S
C270 C271 1.457 . S
C270 H275 0.929 . S
C271 C270 1.457 . S
C271 C272 1.291 . S
C271 H284 0.931 . S
C272 C271 1.291 . S
C272 C273 1.373 . S
C272 H285 0.929 1_655 S
C273 C272 1.373 . S
C273 C274 1.396 . S
C273 C280 1.403 1_655 S
C274 C264 1.476 . S
C274 N269 1.318 . S
C274 C273 1.396 . S
H275 C270 0.929 . S
O276 Mn252 2.385 . S
O276 C254 1.234 . S
O277 Mn252 2.209 . S
O277 Mn253 2.215 . S
O277 C254 1.283 . S
O278 Mn252 2.094 . S
O278 C256 1.240 . S
O279 Mn253 2.117 . S
O279 C256 1.264 . S
C280 C273 1.403 1_455 S
C280 C281 1.399 . S
C280 H286 0.929 . S
C281 C261 1.449 1_455 S
C281 C280 1.399 . S
C281 H287 0.930 . S
H282 C262 0.908 1_455 S
H283 C263 0.930 . S
H284 C271 0.931 . S
H285 C272 0.929 1_455 S
H286 C280 0.929 . S
H287 C281 0.930 . S
Mn288 O293 2.093 1_554 S
Mn288 O303 2.179 . S
Mn288 O304 2.332 . S
Mn288 O312 2.387 . S
Mn288 O313 2.211 . S
Mn288 O314 2.060 1_554 S
Mn289 O294 2.121 . S
Mn289 N296 2.257 . S
Mn289 N305 2.282 . S
Mn289 O313 2.215 1_556 S
Mn289 O315 2.117 . S
C290 O312 1.234 . S
C290 O313 1.283 . S
C291 O303 1.281 . S
C291 O304 1.236 . S
C292 O314 1.240 . S
C292 O315 1.264 . S
O293 Mn288 2.093 1_556 S
O293 C302 1.249 1_556 S
O294 Mn289 2.121 . S
O294 C302 1.257 1_556 S
C295 N296 1.326 1_554 S
C295 C299 1.460 . S
C295 H301 0.929 . S
N296 Mn289 2.257 . S
N296 C295 1.326 1_556 S
N296 C300 1.362 . S
C297 C298 1.258 . S
C297 C300 1.431 . S
C297 C317 1.449 1_565 S
C298 C297 1.258 . S
C298 C299 1.477 1_556 S
C298 H318 0.931 1_566 S
C299 C295 1.460 . S
C299 C298 1.477 1_554 S
C299 H319 0.930 . S
C300 N296 1.362 . S
C300 C297 1.431 . S
C300 C310 1.476 . S
H301 C295 0.929 . S
C302 O293 1.249 1_554 S
C302 O294 1.257 1_554 S
O303 Mn288 2.179 . S
O303 C291 1.281 . S
O304 Mn288 2.332 . S
O304 C291 1.236 . S
N305 Mn289 2.282 . S
N305 C306 1.328 . S
N305 C310 1.318 . S
C306 N305 1.328 . S
C306 C307 1.457 . S
C306 H311 0.929 . S
C307 C306 1.457 . S
C307 C308 1.291 . S
C307 H320 0.931 . S
C308 C307 1.291 . S
C308 C309 1.373 . S
C308 H321 0.929 1_565 S
C309 C308 1.373 . S
C309 C310 1.396 . S
C309 C316 1.403 1_565 S
C310 C300 1.476 . S
C310 N305 1.318 . S
C310 C309 1.396 . S
H311 C306 0.929 . S
O312 Mn288 2.387 . S
O312 C290 1.234 . S
O313 Mn288 2.211 . S
O313 Mn289 2.215 1_554 S
O313 C290 1.283 . S
O314 Mn288 2.060 1_556 S
O314 C292 1.240 . S
O315 Mn289 2.117 . S
O315 C292 1.264 . S
C316 C309 1.403 1_545 S
C316 C317 1.399 . S
C316 H322 0.929 . S
C317 C297 1.449 1_545 S
C317 C316 1.399 . S
C317 H323 0.930 . S
H318 C298 0.931 1_544 S
H319 C299 0.930 . S
H320 C307 0.931 . S
H321 C308 0.929 1_545 S
H322 C316 0.929 . S
H323 C317 0.930 . S
Mn324 O329 2.095 . S
Mn324 O339 2.162 . S
Mn324 O340 2.297 . S
Mn324 O348 2.385 . S
Mn324 O349 2.209 . S
Mn324 O350 2.094 . S
Mn325 O330 2.121 . S
Mn325 N332 2.257 . S
Mn325 N341 2.282 . S
Mn325 O349 2.215 . S
Mn325 O351 2.117 . S
C326 O348 1.234 . S
C326 O349 1.283 . S
C327 O339 1.281 . S
C327 O340 1.236 . S
C328 O350 1.240 . S
C328 O351 1.264 . S
O329 Mn324 2.095 . S
O329 C338 1.250 . S
O330 Mn325 2.121 . S
O330 C338 1.258 . S
C331 N332 1.326 . S
C331 C335 1.460 . S
C331 H337 0.929 . S
N332 Mn325 2.257 . S
N332 C331 1.326 . S
N332 C336 1.362 . S
C333 C334 1.258 . S
C333 C336 1.431 . S
C333 C353 1.449 . S
C334 C333 1.258 . S
C334 C335 1.477 . S
C334 H354 0.931 . S
C335 C331 1.460 . S
C335 C334 1.477 . S
C335 H355 0.930 . S
C336 N332 1.362 . S
C336 C333 1.431 . S
C336 C346 1.476 . S
H337 C331 0.929 . S
C338 O329 1.250 . S
C338 O330 1.258 . S
O339 Mn324 2.162 . S
O339 C327 1.281 . S
O340 Mn324 2.297 . S
O340 C327 1.236 . S
N341 Mn325 2.282 . S
N341 C342 1.328 . S
N341 C346 1.318 . S
C342 N341 1.328 . S
C342 C343 1.457 . S
C342 H347 0.929 . S
C343 C342 1.457 . S
C343 C344 1.291 . S
C343 H356 0.931 . S
C344 C343 1.291 . S
C344 C345 1.373 . S
C344 H357 0.929 . S
C345 C344 1.373 . S
C345 C346 1.396 . S
C345 C352 1.403 . S
C346 C336 1.476 . S
C346 N341 1.318 . S
C346 C345 1.396 . S
H347 C342 0.929 . S
O348 Mn324 2.385 . S
O348 C326 1.234 . S
O349 Mn324 2.209 . S
O349 Mn325 2.215 . S
O349 C326 1.283 . S
O350 Mn324 2.094 . S
O350 C328 1.240 . S
O351 Mn325 2.117 . S
O351 C328 1.264 . S
C352 C345 1.403 . S
C352 C353 1.399 . S
C352 H358 0.929 . S
C353 C333 1.449 . S
C353 C352 1.399 . S
C353 H359 0.930 . S
H354 C334 0.931 . S
H355 C335 0.930 . S
H356 C343 0.931 . S
H357 C344 0.929 . S
H358 C352 0.929 . S
H359 C353 0.930 . S
Mn360 O365 2.095 . S
Mn360 O375 2.162 . S
Mn360 O376 2.297 . S
Mn360 O384 2.385 . S
Mn360 O385 2.209 . S
Mn360 O386 2.094 . S
Mn361 O366 2.121 . S
Mn361 N368 2.257 . S
Mn361 N377 2.282 . S
Mn361 O385 2.215 . S
Mn361 O387 2.117 . S
C362 O384 1.234 . S
C362 O385 1.283 . S
C363 O375 1.281 . S
C363 O376 1.236 . S
C364 O386 1.240 . S
C364 O387 1.264 . S
O365 Mn360 2.095 . S
O365 C374 1.250 . S
O366 Mn361 2.121 . S
O366 C374 1.258 . S
C367 N368 1.326 . S
C367 C371 1.460 . S
C367 H373 0.929 . S
N368 Mn361 2.257 . S
N368 C367 1.326 . S
N368 C372 1.362 . S
C369 C370 1.258 . S
C369 C372 1.431 . S
C369 C389 1.449 1_455 S
C370 C369 1.258 . S
C370 C371 1.477 . S
C370 H390 0.908 1_455 S
C371 C367 1.460 . S
C371 C370 1.477 . S
C371 H391 0.930 . S
C372 N368 1.362 . S
C372 C369 1.431 . S
C372 C382 1.476 . S
H373 C367 0.929 . S
C374 O365 1.250 . S
C374 O366 1.258 . S
O375 Mn360 2.162 . S
O375 C363 1.281 . S
O376 Mn360 2.297 . S
O376 C363 1.236 . S
N377 Mn361 2.282 . S
N377 C378 1.328 . S
N377 C382 1.318 . S
C378 N377 1.328 . S
C378 C379 1.457 . S
C378 H383 0.929 . S
C379 C378 1.457 . S
C379 C380 1.291 . S
C379 H392 0.931 . S
C380 C379 1.291 . S
C380 C381 1.373 . S
C380 H393 0.929 1_455 S
C381 C380 1.373 . S
C381 C382 1.396 . S
C381 C388 1.403 1_455 S
C382 C372 1.476 . S
C382 N377 1.318 . S
C382 C381 1.396 . S
H383 C378 0.929 . S
O384 Mn360 2.385 . S
O384 C362 1.234 . S
O385 Mn360 2.209 . S
O385 Mn361 2.215 . S
O385 C362 1.283 . S
O386 Mn360 2.094 . S
O386 C364 1.240 . S
O387 Mn361 2.117 . S
O387 C364 1.264 . S
C388 C381 1.403 1_655 S
C388 C389 1.399 . S
C388 H394 0.929 . S
C389 C369 1.449 1_655 S
C389 C388 1.399 . S
C389 H395 0.930 . S
H390 C370 0.908 1_655 S
H391 C371 0.930 . S
H392 C379 0.931 . S
H393 C380 0.929 1_655 S
H394 C388 0.929 . S
H395 C389 0.930 . S
Mn396 O401 2.093 1_554 S
Mn396 O411 2.179 . S
Mn396 O412 2.332 . S
Mn396 O420 2.387 . S
Mn396 O421 2.211 . S
Mn396 O422 2.060 1_554 S
Mn397 O402 2.121 . S
Mn397 N404 2.257 . S
Mn397 N413 2.282 . S
Mn397 O421 2.215 1_556 S
Mn397 O423 2.117 . S
C398 O420 1.234 . S
C398 O421 1.283 . S
C399 O411 1.281 . S
C399 O412 1.236 . S
C400 O422 1.240 . S
C400 O423 1.264 . S
O401 Mn396 2.093 1_556 S
O401 C410 1.249 1_556 S
O402 Mn397 2.121 . S
O402 C410 1.257 1_556 S
C403 N404 1.326 1_554 S
C403 C407 1.460 . S
C403 H409 0.929 . S
N404 Mn397 2.257 . S
N404 C403 1.326 1_556 S
N404 C408 1.362 . S
C405 C406 1.258 . S
C405 C408 1.431 . S
C405 C425 1.449 1_545 S
C406 C405 1.258 . S
C406 C407 1.477 1_556 S
C406 H426 0.931 1_546 S
C407 C403 1.460 . S
C407 C406 1.477 1_554 S
C407 H427 0.930 . S
C408 N404 1.362 . S
C408 C405 1.431 . S
C408 C418 1.476 . S
H409 C403 0.929 . S
C410 O401 1.249 1_554 S
C410 O402 1.257 1_554 S
O411 Mn396 2.179 . S
O411 C399 1.281 . S
O412 Mn396 2.332 . S
O412 C399 1.236 . S
N413 Mn397 2.282 . S
N413 C414 1.328 . S
N413 C418 1.318 . S
C414 N413 1.328 . S
C414 C415 1.457 . S
C414 H419 0.929 . S
C415 C414 1.457 . S
C415 C416 1.291 . S
C415 H428 0.931 . S
C416 C415 1.291 . S
C416 C417 1.373 . S
C416 H429 0.929 1_545 S
C417 C416 1.373 . S
C417 C418 1.396 . S
C417 C424 1.403 1_545 S
C418 C408 1.476 . S
C418 N413 1.318 . S
C418 C417 1.396 . S
H419 C414 0.929 . S
O420 Mn396 2.387 . S
O420 C398 1.234 . S
O421 Mn396 2.211 . S
O421 Mn397 2.215 1_554 S
O421 C398 1.283 . S
O422 Mn396 2.060 1_556 S
O422 C400 1.240 . S
O423 Mn397 2.117 . S
O423 C400 1.264 . S
C424 C417 1.403 1_565 S
C424 C425 1.399 . S
C424 H430 0.929 . S
C425 C405 1.449 1_565 S
C425 C424 1.399 . S
C425 H431 0.930 . S
H426 C406 0.931 1_564 S
H427 C407 0.930 . S
H428 C415 0.931 . S
H429 C416 0.929 1_565 S
H430 C424 0.929 . S
H431 C425 0.930 . S
C432 C433 1.391 . S
C432 C434 1.394 . S
C432 H448 0.931 . S
C433 C432 1.391 . S
C433 C437 1.376 . S
C434 C432 1.394 . S
C434 C435 1.369 . S
C434 C438 1.531 . S
C435 C434 1.369 . S
C435 C436 1.410 . S
C435 C443 1.503 . S
C436 C435 1.410 . S
C436 C437 1.392 . S
C436 C439 1.511 . S
C437 C433 1.376 . S
C437 C436 1.392 . S
C437 H449 0.929 . S
C438 C434 1.531 . S
C438 H450 0.960 . S
C438 H451 0.962 . S
C438 H452 0.960 . S
C439 C436 1.511 . S
C439 H453 0.961 . S
C439 H454 0.961 . S
C439 H455 0.961 . S
C440 C441 1.370 . S
C440 C442 1.363 . S
C440 H456 0.931 . S
C441 C440 1.370 . S
C441 C445 1.408 . S
C442 C440 1.363 . S
C442 C443 1.370 . S
C442 C446 1.524 . S
C443 C435 1.503 . S
C443 C442 1.370 . S
C443 C444 1.403 . S
C444 C443 1.403 . S
C444 C445 1.404 . S
C444 C447 1.539 . S
C445 C441 1.408 . S
C445 C444 1.404 . S
C445 H457 0.930 . S
C446 C442 1.524 . S
C446 H458 0.956 . S
C446 H459 0.961 . S
C446 H460 0.961 . S
C447 C444 1.539 . S
C447 H461 0.958 . S
C447 H462 0.961 . S
C447 H463 0.960 . S
H448 C432 0.931 . S
H449 C437 0.929 . S
H450 C438 0.960 . S
H451 C438 0.962 . S
H452 C438 0.960 . S
H453 C439 0.961 . S
H454 C439 0.961 . S
H455 C439 0.961 . S
H456 C440 0.931 . S
H457 C445 0.930 . S
H458 C446 0.956 . S
H459 C446 0.961 . S
H460 C446 0.961 . S
H461 C447 0.958 . S
H462 C447 0.961 . S
H463 C447 0.960 . S
C464 C465 1.391 . S
C464 C466 1.394 . S
C464 H480 0.931 . S
C465 C464 1.391 . S
C465 C469 1.376 . S
C466 C464 1.394 . S
C466 C467 1.369 . S
C466 C470 1.531 . S
C467 C466 1.369 . S
C467 C468 1.410 . S
C467 C475 1.503 . S
C468 C467 1.410 . S
C468 C469 1.392 . S
C468 C471 1.511 . S
C469 C465 1.376 . S
C469 C468 1.392 . S
C469 H481 0.929 . S
C470 C466 1.531 . S
C470 H482 0.960 . S
C470 H483 0.962 . S
C470 H484 0.960 . S
C471 C468 1.511 . S
C471 H485 0.961 . S
C471 H486 0.961 . S
C471 H487 0.961 . S
C472 C473 1.370 . S
C472 C474 1.363 . S
C472 H488 0.931 . S
C473 C472 1.370 . S
C473 C477 1.408 . S
C474 C472 1.363 . S
C474 C475 1.370 . S
C474 C478 1.524 . S
C475 C467 1.503 . S
C475 C474 1.370 . S
C475 C476 1.403 . S
C476 C475 1.403 . S
C476 C477 1.404 . S
C476 C479 1.539 . S
C477 C473 1.408 . S
C477 C476 1.404 . S
C477 H489 0.930 . S
C478 C474 1.524 . S
C478 H490 0.956 . S
C478 H491 0.961 . S
C478 H492 0.961 . S
C479 C476 1.539 . S
C479 H493 0.958 . S
C479 H494 0.961 . S
C479 H495 0.960 . S
H480 C464 0.931 . S
H481 C469 0.929 . S
H482 C470 0.960 . S
H483 C470 0.962 . S
H484 C470 0.960 . S
H485 C471 0.961 . S
H486 C471 0.961 . S
H487 C471 0.961 . S
H488 C472 0.931 . S
H489 C477 0.930 . S
H490 C478 0.956 . S
H491 C478 0.961 . S
H492 C478 0.961 . S
H493 C479 0.958 . S
H494 C479 0.961 . S
H495 C479 0.960 . S
C496 C497 1.391 1_554 S
C496 C498 1.394 . S
C496 H512 0.931 . S
C497 C496 1.391 1_556 S
C497 C501 1.376 . S
C498 C496 1.394 . S
C498 C499 1.369 1_554 S
C498 C502 1.531 . S
C499 C498 1.369 1_556 S
C499 C500 1.410 . S
C499 C507 1.503 . S
C500 C499 1.410 . S
C500 C501 1.392 . S
C500 C503 1.511 . S
C501 C497 1.376 . S
C501 C500 1.392 . S
C501 H513 0.929 . S
C502 C498 1.531 . S
C502 H514 0.960 . S
C502 H515 0.962 . S
C502 H516 0.960 . S
C503 C500 1.511 . S
C503 H517 0.961 . S
C503 H518 0.961 . S
C503 H519 0.961 . S
C504 C505 1.370 . S
C504 C506 1.363 . S
C504 H520 0.931 . S
C505 C504 1.370 . S
C505 C509 1.408 1_554 S
C506 C504 1.363 . S
C506 C507 1.371 1_554 S
C506 C510 1.524 . S
C507 C499 1.503 . S
C507 C506 1.371 1_556 S
C507 C508 1.402 . S
C508 C507 1.402 . S
C508 C509 1.404 . S
C508 C511 1.539 . S
C509 C505 1.408 1_556 S
C509 C508 1.404 . S
C509 H521 0.930 . S
C510 C506 1.524 . S
C510 H522 0.956 . S
C510 H523 0.951 1_554 S
C510 H524 0.961 . S
C511 C508 1.539 . S
C511 H525 0.958 . S
C511 H526 0.961 . S
C511 H527 0.960 . S
H512 C496 0.931 . S
H513 C501 0.929 . S
H514 C502 0.960 . S
H515 C502 0.962 . S
H516 C502 0.960 . S
H517 C503 0.961 . S
H518 C503 0.961 . S
H519 C503 0.961 . S
H520 C504 0.931 . S
H521 C509 0.930 . S
H522 C510 0.956 . S
H523 C510 0.951 1_556 S
H524 C510 0.961 . S
H525 C511 0.958 . S
H526 C511 0.961 . S
H527 C511 0.960 . S
C528 C529 1.391 . S
C528 C530 1.394 . S
C528 H544 0.931 . S
C529 C528 1.391 . S
C529 C533 1.376 . S
C530 C528 1.394 . S
C530 C531 1.369 . S
C530 C534 1.531 . S
C531 C530 1.369 . S
C531 C532 1.410 . S
C531 C539 1.503 . S
C532 C531 1.410 . S
C532 C533 1.392 . S
C532 C535 1.511 . S
C533 C529 1.376 . S
C533 C532 1.392 . S
C533 H545 0.929 . S
C534 C530 1.531 . S
C534 H546 0.960 . S
C534 H547 0.962 . S
C534 H548 0.960 . S
C535 C532 1.511 . S
C535 H549 0.961 . S
C535 H550 0.961 . S
C535 H551 0.961 . S
C536 C537 1.370 . S
C536 C538 1.363 . S
C536 H552 0.931 . S
C537 C536 1.370 . S
C537 C541 1.408 . S
C538 C536 1.363 . S
C538 C539 1.370 . S
C538 C542 1.524 . S
C539 C531 1.503 . S
C539 C538 1.370 . S
C539 C540 1.403 . S
C540 C539 1.403 . S
C540 C541 1.404 . S
C540 C543 1.539 . S
C541 C537 1.408 . S
C541 C540 1.404 . S
C541 H553 0.930 . S
C542 C538 1.524 . S
C542 H554 0.956 . S
C542 H555 0.961 . S
C542 H556 0.961 . S
C543 C540 1.539 . S
C543 H557 0.958 . S
C543 H558 0.961 . S
C543 H559 0.960 . S
H544 C528 0.931 . S
H545 C533 0.929 . S
H546 C534 0.960 . S
H547 C534 0.962 . S
H548 C534 0.960 . S
H549 C535 0.961 . S
H550 C535 0.961 . S
H551 C535 0.961 . S
H552 C536 0.931 . S
H553 C541 0.930 . S
H554 C542 0.956 . S
H555 C542 0.961 . S
H556 C542 0.961 . S
H557 C543 0.958 . S
H558 C543 0.961 . S
H559 C543 0.960 . S
C560 C561 1.391 . S
C560 C562 1.394 . S
C560 H576 0.931 . S
C561 C560 1.391 . S
C561 C565 1.376 . S
C562 C560 1.394 . S
C562 C563 1.369 . S
C562 C566 1.531 . S
C563 C562 1.369 . S
C563 C564 1.410 . S
C563 C571 1.503 . S
C564 C563 1.410 . S
C564 C565 1.392 . S
C564 C567 1.511 . S
C565 C561 1.376 . S
C565 C564 1.392 . S
C565 H577 0.929 . S
C566 C562 1.531 . S
C566 H578 0.960 . S
C566 H579 0.962 . S
C566 H580 0.960 . S
C567 C564 1.511 . S
C567 H581 0.961 . S
C567 H582 0.961 . S
C567 H583 0.961 . S
C568 C569 1.370 . S
C568 C570 1.363 . S
C568 H584 0.931 . S
C569 C568 1.370 . S
C569 C573 1.408 . S
C570 C568 1.363 . S
C570 C571 1.370 . S
C570 C574 1.524 . S
C571 C563 1.503 . S
C571 C570 1.370 . S
C571 C572 1.403 . S
C572 C571 1.403 . S
C572 C573 1.404 . S
C572 C575 1.539 . S
C573 C569 1.408 . S
C573 C572 1.404 . S
C573 H585 0.930 . S
C574 C570 1.524 . S
C574 H586 0.956 . S
C574 H587 0.961 . S
C574 H588 0.961 . S
C575 C572 1.539 . S
C575 H589 0.958 . S
C575 H590 0.961 . S
C575 H591 0.960 . S
H576 C560 0.931 . S
H577 C565 0.929 . S
H578 C566 0.960 . S
H579 C566 0.962 . S
H580 C566 0.960 . S
H581 C567 0.961 . S
H582 C567 0.961 . S
H583 C567 0.961 . S
H584 C568 0.931 . S
H585 C573 0.930 . S
H586 C574 0.956 . S
H587 C574 0.961 . S
H588 C574 0.961 . S
H589 C575 0.958 . S
H590 C575 0.961 . S
H591 C575 0.960 . S
C592 C593 1.391 1_556 S
C592 C594 1.394 . S
C592 H608 0.931 . S
C593 C592 1.391 1_554 S
C593 C597 1.376 . S
C594 C592 1.394 . S
C594 C595 1.369 1_556 S
C594 C598 1.531 . S
C595 C594 1.369 1_554 S
C595 C596 1.410 . S
C595 C603 1.506 . S
C596 C595 1.410 . S
C596 C597 1.392 . S
C596 C599 1.511 . S
C597 C593 1.376 . S
C597 C596 1.392 . S
C597 H609 0.929 . S
C598 C594 1.531 . S
C598 H610 0.960 . S
C598 H611 0.962 . S
C598 H612 0.960 . S
C599 C596 1.511 . S
C599 H613 0.961 . S
C599 H614 0.961 . S
C599 H615 0.961 . S
C600 C601 1.370 . S
C600 C602 1.363 . S
C600 H616 0.931 . S
C601 C600 1.370 . S
C601 C605 1.408 1_556 S
C602 C600 1.363 . S
C602 C603 1.360 1_556 S
C602 C606 1.524 . S
C603 C595 1.506 . S
C603 C602 1.360 1_554 S
C603 C604 1.410 . S
C604 C603 1.410 . S
C604 C605 1.404 . S
C604 C607 1.539 . S
C605 C601 1.408 1_554 S
C605 C604 1.404 . S
C605 H617 0.930 . S
C606 C602 1.524 . S
C606 H618 0.956 . S
C606 H619 0.961 . S
C606 H620 0.961 . S
C607 C604 1.539 . S
C607 H621 0.958 . S
C607 H622 0.961 . S
C607 H623 0.960 . S
H608 C592 0.931 . S
H609 C597 0.929 . S
H610 C598 0.960 . S
H611 C598 0.962 . S
H612 C598 0.960 . S
H613 C599 0.961 . S
H614 C599 0.961 . S
H615 C599 0.961 . S
H616 C600 0.931 . S
H617 C605 0.930 . S
H618 C606 0.956 . S
H619 C606 0.961 . S
H620 C606 0.961 . S
H621 C607 0.958 . S
H622 C607 0.961 . S
H623 C607 0.960 . S
C624 C625 1.391 . S
C624 C626 1.394 . S
C624 H640 0.931 . S
C625 C624 1.391 . S
C625 C629 1.376 . S
C626 C624 1.394 . S
C626 C627 1.369 . S
C626 C630 1.531 . S
C627 C626 1.369 . S
C627 C628 1.410 . S
C627 C635 1.503 . S
C628 C627 1.410 . S
C628 C629 1.392 . S
C628 C631 1.511 . S
C629 C625 1.376 . S
C629 C628 1.392 . S
C629 H641 0.929 . S
C630 C626 1.531 . S
C630 H642 0.960 . S
C630 H643 0.962 . S
C630 H644 0.960 . S
C631 C628 1.511 . S
C631 H645 0.961 . S
C631 H646 0.961 . S
C631 H647 0.961 . S
C632 C633 1.370 . S
C632 C634 1.363 . S
C632 H648 0.931 . S
C633 C632 1.370 . S
C633 C637 1.408 . S
C634 C632 1.363 . S
C634 C635 1.370 . S
C634 C638 1.524 . S
C635 C627 1.503 . S
C635 C634 1.370 . S
C635 C636 1.403 . S
C636 C635 1.403 . S
C636 C637 1.404 . S
C636 C639 1.539 . S
C637 C633 1.408 . S
C637 C636 1.404 . S
C637 H649 0.930 . S
C638 C634 1.524 . S
C638 H650 0.956 . S
C638 H651 0.961 . S
C638 H652 0.961 . S
C639 C636 1.539 . S
C639 H653 0.958 . S
C639 H654 0.961 . S
C639 H655 0.960 . S
H640 C624 0.931 . S
H641 C629 0.929 . S
H642 C630 0.960 . S
H643 C630 0.962 . S
H644 C630 0.960 . S
H645 C631 0.961 . S
H646 C631 0.961 . S
H647 C631 0.961 . S
H648 C632 0.931 . S
H649 C637 0.930 . S
H650 C638 0.956 . S
H651 C638 0.961 . S
H652 C638 0.961 . S
H653 C639 0.958 . S
H654 C639 0.961 . S
H655 C639 0.960 . S
C656 C657 1.391 . S
C656 C658 1.394 . S
C656 H672 0.931 . S
C657 C656 1.391 . S
C657 C661 1.376 . S
C658 C656 1.394 . S
C658 C659 1.369 . S
C658 C662 1.531 . S
C659 C658 1.369 . S
C659 C660 1.410 . S
C659 C667 1.503 1_655 S
C660 C659 1.410 . S
C660 C661 1.392 . S
C660 C663 1.511 . S
C661 C657 1.376 . S
C661 C660 1.392 . S
C661 H673 0.929 . S
C662 C658 1.531 . S
C662 H674 0.960 1_655 S
C662 H675 0.962 . S
C662 H676 0.960 . S
C663 C660 1.511 . S
C663 H677 0.961 . S
C663 H678 0.961 1_655 S
C663 H679 0.961 . S
C664 C665 1.370 . S
C664 C666 1.363 . S
C664 H680 0.931 . S
C665 C664 1.370 . S
C665 C669 1.408 . S
C666 C664 1.363 . S
C666 C667 1.370 . S
C666 C670 1.524 . S
C667 C659 1.503 1_455 S
C667 C666 1.370 . S
C667 C668 1.403 . S
C668 C667 1.403 . S
C668 C669 1.404 . S
C668 C671 1.539 . S
C669 C665 1.408 . S
C669 C668 1.404 . S
C669 H681 0.930 . S
C670 C666 1.524 . S
C670 H682 0.956 . S
C670 H683 0.961 . S
C670 H684 0.961 . S
C671 C668 1.539 . S
C671 H685 0.958 . S
C671 H686 0.961 . S
C671 H687 0.960 . S
H672 C656 0.931 . S
H673 C661 0.929 . S
H674 C662 0.960 1_455 S
H675 C662 0.962 . S
H676 C662 0.960 . S
H677 C663 0.961 . S
H678 C663 0.961 1_455 S
H679 C663 0.961 . S
H680 C664 0.931 . S
H681 C669 0.930 . S
H682 C670 0.956 . S
H683 C670 0.961 . S
H684 C670 0.961 . S
H685 C671 0.958 . S
H686 C671 0.961 . S
H687 C671 0.960 . S
C688 C689 1.391 . S
C688 C690 1.394 . S
C688 H704 0.931 . S
C689 C688 1.391 . S
C689 C693 1.376 1_554 S
C690 C688 1.394 . S
C690 C691 1.369 . S
C690 C694 1.531 . S
C691 C690 1.369 . S
C691 C692 1.410 1_554 S
C691 C699 1.503 1_545 S
C692 C691 1.410 1_556 S
C692 C693 1.392 . S
C692 C695 1.511 . S
C693 C689 1.376 1_556 S
C693 C692 1.392 . S
C693 H705 0.929 . S
C694 C690 1.531 . S
C694 H706 0.960 1_545 S
C694 H707 0.962 . S
C694 H708 0.960 . S
C695 C692 1.511 . S
C695 H709 0.961 . S
C695 H710 0.961 . S
C695 H711 0.961 . S
C696 C697 1.370 . S
C696 C698 1.363 . S
C696 H712 0.931 . S
C697 C696 1.370 . S
C697 C701 1.408 1_556 S
C698 C696 1.363 . S
C698 C699 1.370 1_556 S
C698 C702 1.524 . S
C699 C691 1.503 1_565 S
C699 C698 1.370 1_554 S
C699 C700 1.403 . S
C700 C699 1.403 . S
C700 C701 1.404 . S
C700 C703 1.539 . S
C701 C697 1.408 1_554 S
C701 C700 1.404 . S
C701 H713 0.930 . S
C702 C698 1.524 . S
C702 H714 0.955 1_565 S
C702 H715 0.961 1_565 S
C702 H716 0.961 . S
C703 C700 1.539 . S
C703 H717 0.958 . S
C703 H718 0.961 . S
C703 H719 0.960 . S
H704 C688 0.931 . S
H705 C693 0.929 . S
H706 C694 0.960 1_565 S
H707 C694 0.962 . S
H708 C694 0.960 . S
H709 C695 0.961 . S
H710 C695 0.961 . S
H711 C695 0.961 . S
H712 C696 0.931 . S
H713 C701 0.930 . S
H714 C702 0.955 1_545 S
H715 C702 0.961 1_545 S
H716 C702 0.961 . S
H717 C703 0.958 . S
H718 C703 0.961 . S
H719 C703 0.960 . S
C720 C721 1.391 . S
C720 C722 1.394 . S
C720 H736 0.931 . S
C721 C720 1.391 . S
C721 C725 1.376 . S
C722 C720 1.394 . S
C722 C723 1.369 . S
C722 C726 1.531 . S
C723 C722 1.369 . S
C723 C724 1.410 . S
C723 C731 1.503 . S
C724 C723 1.410 . S
C724 C725 1.392 . S
C724 C727 1.511 . S
C725 C721 1.376 . S
C725 C724 1.392 . S
C725 H737 0.929 . S
C726 C722 1.531 . S
C726 H738 0.960 . S
C726 H739 0.962 . S
C726 H740 0.960 . S
C727 C724 1.511 . S
C727 H741 0.961 . S
C727 H742 0.961 . S
C727 H743 0.961 . S
C728 C729 1.370 . S
C728 C730 1.363 . S
C728 H744 0.931 . S
C729 C728 1.370 . S
C729 C733 1.408 . S
C730 C728 1.363 . S
C730 C731 1.370 . S
C730 C734 1.524 . S
C731 C723 1.503 . S
C731 C730 1.370 . S
C731 C732 1.403 . S
C732 C731 1.403 . S
C732 C733 1.404 . S
C732 C735 1.539 . S
C733 C729 1.408 . S
C733 C732 1.404 . S
C733 H745 0.930 . S
C734 C730 1.524 . S
C734 H746 0.956 . S
C734 H747 0.961 . S
C734 H748 0.961 . S
C735 C732 1.539 . S
C735 H749 0.958 . S
C735 H750 0.961 . S
C735 H751 0.960 . S
H736 C720 0.931 . S
H737 C725 0.929 . S
H738 C726 0.960 . S
H739 C726 0.962 . S
H740 C726 0.960 . S
H741 C727 0.961 . S
H742 C727 0.961 . S
H743 C727 0.961 . S
H744 C728 0.931 . S
H745 C733 0.930 . S
H746 C734 0.956 . S
H747 C734 0.961 . S
H748 C734 0.961 . S
H749 C735 0.958 . S
H750 C735 0.961 . S
H751 C735 0.960 . S
C752 C753 1.391 . S
C752 C754 1.394 . S
C752 H768 0.931 . S
C753 C752 1.391 . S
C753 C757 1.376 . S
C754 C752 1.394 . S
C754 C755 1.369 . S
C754 C758 1.531 . S
C755 C754 1.369 . S
C755 C756 1.410 . S
C755 C763 1.503 1_455 S
C756 C755 1.410 . S
C756 C757 1.392 . S
C756 C759 1.511 . S
C757 C753 1.376 . S
C757 C756 1.392 . S
C757 H769 0.929 . S
C758 C754 1.531 . S
C758 H770 0.960 1_455 S
C758 H771 0.962 . S
C758 H772 0.960 . S
C759 C756 1.511 . S
C759 H773 0.961 . S
C759 H774 0.961 1_455 S
C759 H775 0.961 . S
C760 C761 1.370 . S
C760 C762 1.363 . S
C760 H776 0.931 . S
C761 C760 1.370 . S
C761 C765 1.408 . S
C762 C760 1.363 . S
C762 C763 1.370 . S
C762 C766 1.524 . S
C763 C755 1.503 1_655 S
C763 C762 1.370 . S
C763 C764 1.403 . S
C764 C763 1.403 . S
C764 C765 1.404 . S
C764 C767 1.539 . S
C765 C761 1.408 . S
C765 C764 1.404 . S
C765 H777 0.930 . S
C766 C762 1.524 . S
C766 H778 0.956 . S
C766 H779 0.961 . S
C766 H780 0.961 . S
C767 C764 1.539 . S
C767 H781 0.958 . S
C767 H782 0.961 . S
C767 H783 0.960 . S
H768 C752 0.931 . S
H769 C757 0.929 . S
H770 C758 0.960 1_655 S
H771 C758 0.962 . S
H772 C758 0.960 . S
H773 C759 0.961 . S
H774 C759 0.961 1_655 S
H775 C759 0.961 . S
H776 C760 0.931 . S
H777 C765 0.930 . S
H778 C766 0.956 . S
H779 C766 0.961 . S
H780 C766 0.961 . S
H781 C767 0.958 . S
H782 C767 0.961 . S
H783 C767 0.960 . S
C784 C785 1.391 1_554 S
C784 C786 1.394 . S
C784 H800 0.931 . S
C785 C784 1.391 1_556 S
C785 C789 1.376 . S
C786 C784 1.394 . S
C786 C787 1.369 . S
C786 C790 1.531 . S
C787 C786 1.369 . S
C787 C788 1.410 1_554 S
C787 C795 1.503 1_545 S
C788 C787 1.410 1_556 S
C788 C789 1.392 . S
C788 C791 1.511 . S
C789 C785 1.376 . S
C789 C788 1.392 . S
C789 H801 0.929 . S
C790 C786 1.531 . S
C790 H802 0.960 . S
C790 H803 0.962 . S
C790 H804 0.960 . S
C791 C788 1.511 . S
C791 H805 0.961 . S
C791 H806 0.961 1_545 S
C791 H807 0.961 . S
C792 C793 1.370 1_556 S
C792 C794 1.363 . S
C792 H808 0.931 . S
C793 C792 1.370 1_554 S
C793 C797 1.408 . S
C794 C792 1.363 . S
C794 C795 1.370 1_556 S
C794 C798 1.524 . S
C795 C787 1.503 1_565 S
C795 C794 1.370 1_554 S
C795 C796 1.403 . S
C796 C795 1.403 . S
C796 C797 1.404 . S
C796 C799 1.539 . S
C797 C793 1.408 . S
C797 C796 1.404 . S
C797 H809 0.930 . S
C798 C794 1.524 . S
C798 H810 0.956 . S
C798 H811 0.961 . S
C798 H812 0.961 . S
C799 C796 1.539 . S
C799 H813 0.958 . S
C799 H814 0.961 . S
C799 H815 0.960 1_565 S
H800 C784 0.931 . S
H801 C789 0.929 . S
H802 C790 0.960 . S
H803 C790 0.962 . S
H804 C790 0.960 . S
H805 C791 0.961 . S
H806 C791 0.961 1_565 S
H807 C791 0.961 . S
H808 C792 0.931 . S
H809 C797 0.930 . S
H810 C798 0.956 . S
H811 C798 0.961 . S
H812 C798 0.961 . S
H813 C799 0.958 . S
H814 C799 0.961 . S
H815 C799 0.960 1_545 S
C816 C817 1.391 . S
C816 C818 1.394 . S
C816 H832 0.931 . S
C817 C816 1.391 . S
C817 C821 1.376 . S
C818 C816 1.394 . S
C818 C819 1.369 . S
C818 C822 1.531 . S
C819 C818 1.369 . S
C819 C820 1.410 . S
C819 C827 1.503 . S
C820 C819 1.410 . S
C820 C821 1.392 . S
C820 C823 1.511 1_655 S
C821 C817 1.376 . S
C821 C820 1.392 . S
C821 H833 0.929 . S
C822 C818 1.531 . S
C822 H834 0.960 . S
C822 H835 0.962 . S
C822 H836 0.960 . S
C823 C820 1.511 1_455 S
C823 H837 0.961 . S
C823 H838 0.961 . S
C823 H839 0.961 1_455 S
C824 C825 1.370 . S
C824 C826 1.363 . S
C824 H840 0.931 . S
C825 C824 1.370 . S
C825 C829 1.408 1_455 S
C826 C824 1.363 . S
C826 C827 1.370 1_455 S
C826 C830 1.524 . S
C827 C819 1.503 . S
C827 C826 1.370 1_655 S
C827 C828 1.403 . S
C828 C827 1.403 . S
C828 C829 1.404 . S
C828 C831 1.539 . S
C829 C825 1.408 1_655 S
C829 C828 1.404 . S
C829 H841 0.930 . S
C830 C826 1.524 . S
C830 H842 0.956 . S
C830 H843 0.961 . S
C830 H844 0.961 . S
C831 C828 1.539 . S
C831 H845 0.958 . S
C831 H846 0.961 . S
C831 H847 0.960 . S
H832 C816 0.931 . S
H833 C821 0.929 . S
H834 C822 0.960 . S
H835 C822 0.962 . S
H836 C822 0.960 . S
H837 C823 0.961 . S
H838 C823 0.961 . S
H839 C823 0.961 1_655 S
H840 C824 0.931 . S
H841 C829 0.930 . S
H842 C830 0.956 . S
H843 C830 0.961 . S
H844 C830 0.961 . S
H845 C831 0.958 . S
H846 C831 0.961 . S
H847 C831 0.960 . S
C848 C849 1.391 1_565 S
C848 C850 1.394 . S
C848 H864 0.931 . S
C849 C848 1.391 1_545 S
C849 C853 1.376 . S
C850 C848 1.394 . S
C850 C851 1.360 1_565 S
C850 C854 1.531 . S
C851 C850 1.360 1_545 S
C851 C852 1.422 . S
C851 C859 1.500 1_545 S
C852 C851 1.422 . S
C852 C853 1.392 . S
C852 C855 1.511 . S
C853 C849 1.376 . S
C853 C852 1.392 . S
C853 H865 0.929 . S
C854 C850 1.531 . S
C854 H866 0.960 . S
C854 H867 0.962 . S
C854 H868 0.960 . S
C855 C852 1.511 . S
C855 H869 0.961 . S
C855 H870 0.961 . S
C855 H871 0.961 . S
C856 C857 1.370 . S
C856 C858 1.363 1_565 S
C856 H872 0.931 1_565 S
C857 C856 1.370 . S
C857 C861 1.408 . S
C858 C856 1.363 1_545 S
C858 C859 1.370 1_545 S
C858 C862 1.524 . S
C859 C851 1.500 1_565 S
C859 C858 1.370 1_565 S
C859 C860 1.403 . S
C860 C859 1.403 . S
C860 C861 1.404 . S
C860 C863 1.539 . S
C861 C857 1.408 . S
C861 C860 1.404 . S
C861 H873 0.930 . S
C862 C858 1.524 . S
C862 H874 0.956 . S
C862 H875 0.961 . S
C862 H876 0.961 . S
C863 C860 1.539 . S
C863 H877 0.958 . S
C863 H878 0.961 . S
C863 H879 0.960 . S
H864 C848 0.931 . S
H865 C853 0.929 . S
H866 C854 0.960 . S
H867 C854 0.962 . S
H868 C854 0.960 . S
H869 C855 0.961 . S
H870 C855 0.961 . S
H871 C855 0.961 . S
H872 C856 0.931 1_545 S
H873 C861 0.930 . S
H874 C862 0.956 . S
H875 C862 0.961 . S
H876 C862 0.961 . S
H877 C863 0.958 . S
H878 C863 0.961 . S
H879 C863 0.960 . S
C880 C881 1.391 . S
C880 C882 1.394 . S
C880 H896 0.931 . S
C881 C880 1.391 . S
C881 C885 1.376 . S
C882 C880 1.394 . S
C882 C883 1.369 . S
C882 C886 1.531 . S
C883 C882 1.369 . S
C883 C884 1.410 . S
C883 C891 1.503 . S
C884 C883 1.410 . S
C884 C885 1.392 . S
C884 C887 1.511 . S
C885 C881 1.376 . S
C885 C884 1.392 . S
C885 H897 0.929 . S
C886 C882 1.531 . S
C886 H898 0.960 . S
C886 H899 0.962 . S
C886 H900 0.960 . S
C887 C884 1.511 . S
C887 H901 0.961 . S
C887 H902 0.961 . S
C887 H903 0.961 . S
C888 C889 1.370 . S
C888 C890 1.363 . S
C888 H904 0.931 . S
C889 C888 1.370 . S
C889 C893 1.408 . S
C890 C888 1.363 . S
C890 C891 1.370 . S
C890 C894 1.524 . S
C891 C883 1.503 . S
C891 C890 1.370 . S
C891 C892 1.403 . S
C892 C891 1.403 . S
C892 C893 1.404 . S
C892 C895 1.539 . S
C893 C889 1.408 . S
C893 C892 1.404 . S
C893 H905 0.930 . S
C894 C890 1.524 . S
C894 H906 0.956 . S
C894 H907 0.961 . S
C894 H908 0.961 . S
C895 C892 1.539 . S
C895 H909 0.958 . S
C895 H910 0.961 . S
C895 H911 0.960 . S
H896 C880 0.931 . S
H897 C885 0.929 . S
H898 C886 0.960 . S
H899 C886 0.962 . S
H900 C886 0.960 . S
H901 C887 0.961 . S
H902 C887 0.961 . S
H903 C887 0.961 . S
H904 C888 0.931 . S
H905 C893 0.930 . S
H906 C894 0.956 . S
H907 C894 0.961 . S
H908 C894 0.961 . S
H909 C895 0.958 . S
H910 C895 0.961 . S
H911 C895 0.960 . S
C912 C913 1.391 . S
C912 C914 1.394 1_455 S
C912 H928 0.931 1_455 S
C913 C912 1.391 . S
C913 C917 1.376 . S
C914 C912 1.394 1_655 S
C914 C915 1.369 1_655 S
C914 C918 1.531 . S
C915 C914 1.369 1_455 S
C915 C916 1.410 . S
C915 C923 1.503 1_455 S
C916 C915 1.410 . S
C916 C917 1.392 . S
C916 C919 1.511 . S
C917 C913 1.376 . S
C917 C916 1.392 . S
C917 H929 0.929 . S
C918 C914 1.531 . S
C918 H930 0.960 . S
C918 H931 0.962 . S
C918 H932 0.960 . S
C919 C916 1.511 . S
C919 H933 0.961 . S
C919 H934 0.961 . S
C919 H935 0.961 . S
C920 C921 1.367 1_455 S
C920 C922 1.365 . S
C920 H936 0.932 . S
C921 C920 1.367 1_655 S
C921 C925 1.408 . S
C922 C920 1.365 . S
C922 C923 1.370 1_455 S
C922 C926 1.524 . S
C923 C915 1.503 1_655 S
C923 C922 1.370 1_655 S
C923 C924 1.403 . S
C924 C923 1.403 . S
C924 C925 1.404 . S
C924 C927 1.539 . S
C925 C921 1.408 . S
C925 C924 1.404 . S
C925 H937 0.930 . S
C926 C922 1.524 . S
C926 H938 0.956 . S
C926 H939 0.961 . S
C926 H940 0.961 . S
C927 C924 1.539 . S
C927 H941 0.958 . S
C927 H942 0.961 . S
C927 H943 0.960 . S
H928 C912 0.931 1_655 S
H929 C917 0.929 . S
H930 C918 0.960 . S
H931 C918 0.962 . S
H932 C918 0.960 . S
H933 C919 0.961 . S
H934 C919 0.961 . S
H935 C919 0.961 . S
H936 C920 0.932 . S
H937 C925 0.930 . S
H938 C926 0.956 . S
H939 C926 0.961 . S
H940 C926 0.961 . S
H941 C927 0.958 . S
H942 C927 0.961 . S
H943 C927 0.960 . S
C944 C945 1.391 . S
C944 C946 1.394 1_545 S
C944 H960 0.931 . S
C945 C944 1.391 . S
C945 C949 1.376 . S
C946 C944 1.394 1_565 S
C946 C947 1.369 . S
C946 C950 1.531 . S
C947 C946 1.369 . S
C947 C948 1.410 1_565 S
C947 C955 1.503 . S
C948 C947 1.410 1_545 S
C948 C949 1.392 . S
C948 C951 1.511 . S
C949 C945 1.376 . S
C949 C948 1.392 . S
C949 H961 0.929 . S
C950 C946 1.531 . S
C950 H962 0.960 . S
C950 H963 0.962 . S
C950 H964 0.960 . S
C951 C948 1.511 . S
C951 H965 0.961 . S
C951 H966 0.961 . S
C951 H967 0.961 . S
C952 C953 1.370 1_545 S
C952 C954 1.363 . S
C952 H968 0.931 . S
C953 C952 1.370 1_565 S
C953 C957 1.408 . S
C954 C952 1.363 . S
C954 C955 1.370 1_545 S
C954 C958 1.524 . S
C955 C947 1.503 . S
C955 C954 1.370 1_565 S
C955 C956 1.403 . S
C956 C955 1.403 . S
C956 C957 1.404 . S
C956 C959 1.539 . S
C957 C953 1.408 . S
C957 C956 1.404 . S
C957 H969 0.930 . S
C958 C954 1.524 . S
C958 H970 0.956 . S
C958 H971 0.961 . S
C958 H972 0.961 . S
C959 C956 1.539 . S
C959 H973 0.958 . S
C959 H974 0.961 . S
C959 H975 0.960 . S
H960 C944 0.931 . S
H961 C949 0.929 . S
H962 C950 0.960 . S
H963 C950 0.962 . S
H964 C950 0.960 . S
H965 C951 0.961 . S
H966 C951 0.961 . S
H967 C951 0.961 . S
H968 C952 0.931 . S
H969 C957 0.930 . S
H970 C958 0.956 . S
H971 C958 0.961 . S
H972 C958 0.961 . S
H973 C959 0.958 . S
H974 C959 0.961 . S
H975 C959 0.960 . S
C976 C977 1.391 . S
C976 C978 1.394 . S
C976 H992 0.931 . S
C977 C976 1.391 . S
C977 C981 1.376 . S
C978 C976 1.394 . S
C978 C979 1.369 . S
C978 C982 1.531 . S
C979 C978 1.369 . S
C979 C980 1.410 . S
C979 C987 1.503 . S
C980 C979 1.410 . S
C980 C981 1.392 . S
C980 C983 1.511 . S
C981 C977 1.376 . S
C981 C980 1.392 . S
C981 H993 0.929 . S
C982 C978 1.531 . S
C982 H994 0.960 . S
C982 H995 0.962 . S
C982 H996 0.960 . S
C983 C980 1.511 . S
C983 H997 0.961 . S
C983 H998 0.961 . S
C983 H999 0.961 . S
C984 C985 1.370 . S
C984 C986 1.363 . S
C984 H1000 0.931 . S
C985 C984 1.370 . S
C985 C989 1.408 . S
C986 C984 1.363 . S
C986 C987 1.370 . S
C986 C990 1.524 . S
C987 C979 1.503 . S
C987 C986 1.370 . S
C987 C988 1.403 . S
C988 C987 1.403 . S
C988 C989 1.404 . S
C988 C991 1.539 . S
C989 C985 1.408 . S
C989 C988 1.404 . S
C989 H1001 0.930 . S
C990 C986 1.524 . S
C990 H1002 0.956 . S
C990 H1003 0.961 . S
C990 H1004 0.961 . S
C991 C988 1.539 . S
C991 H1005 0.958 . S
C991 H1006 0.961 . S
C991 H1007 0.960 . S
H992 C976 0.931 . S
H993 C981 0.929 . S
H994 C982 0.960 . S
H995 C982 0.962 . S
H996 C982 0.960 . S
H997 C983 0.961 . S
H998 C983 0.961 . S
H999 C983 0.961 . S
H1000 C984 0.931 . S
H1001 C989 0.930 . S
H1002 C990 0.956 . S
H1003 C990 0.961 . S
H1004 C990 0.961 . S
H1005 C991 0.958 . S
H1006 C991 0.961 . S
H1007 C991 0.960 . S
C1008 C1009 1.391 . S
C1008 C1010 1.394 . S
C1008 H1024 0.931 . S
C1009 C1008 1.391 . S
C1009 C1013 1.376 . S
C1010 C1008 1.394 . S
C1010 C1011 1.369 . S
C1010 C1014 1.531 . S
C1011 C1010 1.369 . S
C1011 C1012 1.410 . S
C1011 C1019 1.503 . S
C1012 C1011 1.410 . S
C1012 C1013 1.392 . S
C1012 C1015 1.511 . S
C1013 C1009 1.376 . S
C1013 C1012 1.392 . S
C1013 H1025 0.929 . S
C1014 C1010 1.531 . S
C1014 H1026 0.960 . S
C1014 H1027 0.962 . S
C1014 H1028 0.960 . S
C1015 C1012 1.511 . S
C1015 H1029 0.961 . S
C1015 H1030 0.961 . S
C1015 H1031 0.961 . S
C1016 C1017 1.370 . S
C1016 C1018 1.363 . S
C1016 H1032 0.931 . S
C1017 C1016 1.370 . S
C1017 C1021 1.408 . S
C1018 C1016 1.363 . S
C1018 C1019 1.370 . S
C1018 C1022 1.524 . S
C1019 C1011 1.503 . S
C1019 C1018 1.370 . S
C1019 C1020 1.403 . S
C1020 C1019 1.403 . S
C1020 C1021 1.404 . S
C1020 C1023 1.539 . S
C1021 C1017 1.408 . S
C1021 C1020 1.404 . S
C1021 H1033 0.930 . S
C1022 C1018 1.524 . S
C1022 H1034 0.956 . S
C1022 H1035 0.961 . S
C1022 H1036 0.961 . S
C1023 C1020 1.539 . S
C1023 H1037 0.958 . S
C1023 H1038 0.961 . S
C1023 H1039 0.960 . S
H1024 C1008 0.931 . S
H1025 C1013 0.929 . S
H1026 C1014 0.960 . S
H1027 C1014 0.962 . S
H1028 C1014 0.960 . S
H1029 C1015 0.961 . S
H1030 C1015 0.961 . S
H1031 C1015 0.961 . S
H1032 C1016 0.931 . S
H1033 C1021 0.930 . S
H1034 C1022 0.956 . S
H1035 C1022 0.961 . S
H1036 C1022 0.961 . S
H1037 C1023 0.958 . S
H1038 C1023 0.961 . S
H1039 C1023 0.960 . S
C1040 C1041 1.391 . S
C1040 C1042 1.394 . S
C1040 H1056 0.931 . S
C1041 C1040 1.391 . S
C1041 C1045 1.376 . S
C1042 C1040 1.394 . S
C1042 C1043 1.369 . S
C1042 C1046 1.531 . S
C1043 C1042 1.369 . S
C1043 C1044 1.410 . S
C1043 C1051 1.503 . S
C1044 C1043 1.410 . S
C1044 C1045 1.392 . S
C1044 C1047 1.511 . S
C1045 C1041 1.376 . S
C1045 C1044 1.392 . S
C1045 H1057 0.929 . S
C1046 C1042 1.531 . S
C1046 H1058 0.960 . S
C1046 H1059 0.962 . S
C1046 H1060 0.960 . S
C1047 C1044 1.511 . S
C1047 H1061 0.961 . S
C1047 H1062 0.961 . S
C1047 H1063 0.961 . S
C1048 C1049 1.370 . S
C1048 C1050 1.363 . S
C1048 H1064 0.931 . S
C1049 C1048 1.370 . S
C1049 C1053 1.408 . S
C1050 C1048 1.363 . S
C1050 C1051 1.370 . S
C1050 C1054 1.524 . S
C1051 C1043 1.503 . S
C1051 C1050 1.370 . S
C1051 C1052 1.403 . S
C1052 C1051 1.403 . S
C1052 C1053 1.404 . S
C1052 C1055 1.539 . S
C1053 C1049 1.408 . S
C1053 C1052 1.404 . S
C1053 H1065 0.930 . S
C1054 C1050 1.524 . S
C1054 H1066 0.956 . S
C1054 H1067 0.961 . S
C1054 H1068 0.961 . S
C1055 C1052 1.539 . S
C1055 H1069 0.958 . S
C1055 H1070 0.961 . S
C1055 H1071 0.960 . S
H1056 C1040 0.931 . S
H1057 C1045 0.929 . S
H1058 C1046 0.960 . S
H1059 C1046 0.962 . S
H1060 C1046 0.960 . S
H1061 C1047 0.961 . S
H1062 C1047 0.961 . S
H1063 C1047 0.961 . S
H1064 C1048 0.931 . S
H1065 C1053 0.930 . S
H1066 C1054 0.956 . S
H1067 C1054 0.961 . S
H1068 C1054 0.961 . S
H1069 C1055 0.958 . S
H1070 C1055 0.961 . S
H1071 C1055 0.960 . S
C1072 C1073 1.391 . S
C1072 C1074 1.394 . S
C1072 H1088 0.931 . S
C1073 C1072 1.391 . S
C1073 C1077 1.376 . S
C1074 C1072 1.394 . S
C1074 C1075 1.369 . S
C1074 C1078 1.531 . S
C1075 C1074 1.369 . S
C1075 C1076 1.410 . S
C1075 C1083 1.503 . S
C1076 C1075 1.410 . S
C1076 C1077 1.392 . S
C1076 C1079 1.511 . S
C1077 C1073 1.376 . S
C1077 C1076 1.392 . S
C1077 H1089 0.929 . S
C1078 C1074 1.531 . S
C1078 H1090 0.960 . S
C1078 H1091 0.962 . S
C1078 H1092 0.960 . S
C1079 C1076 1.511 . S
C1079 H1093 0.961 . S
C1079 H1094 0.961 . S
C1079 H1095 0.961 . S
C1080 C1081 1.370 . S
C1080 C1082 1.363 . S
C1080 H1096 0.931 . S
C1081 C1080 1.370 . S
C1081 C1085 1.408 . S
C1082 C1080 1.363 . S
C1082 C1083 1.370 . S
C1082 C1086 1.524 . S
C1083 C1075 1.503 . S
C1083 C1082 1.370 . S
C1083 C1084 1.403 . S
C1084 C1083 1.403 . S
C1084 C1085 1.404 . S
C1084 C1087 1.539 . S
C1085 C1081 1.408 . S
C1085 C1084 1.404 . S
C1085 H1097 0.930 . S
C1086 C1082 1.524 . S
C1086 H1098 0.956 . S
C1086 H1099 0.961 . S
C1086 H1100 0.961 . S
C1087 C1084 1.539 . S
C1087 H1101 0.958 . S
C1087 H1102 0.961 . S
C1087 H1103 0.960 . S
H1088 C1072 0.931 . S
H1089 C1077 0.929 . S
H1090 C1078 0.960 . S
H1091 C1078 0.962 . S
H1092 C1078 0.960 . S
H1093 C1079 0.961 . S
H1094 C1079 0.961 . S
H1095 C1079 0.961 . S
H1096 C1080 0.931 . S
H1097 C1085 0.930 . S
H1098 C1086 0.956 . S
H1099 C1086 0.961 . S
H1100 C1086 0.961 . S
H1101 C1087 0.958 . S
H1102 C1087 0.961 . S
H1103 C1087 0.960 . S
C1104 C1105 1.391 . S
C1104 C1106 1.394 . S
C1104 H1120 0.931 . S
C1105 C1104 1.391 . S
C1105 C1109 1.376 . S
C1106 C1104 1.394 . S
C1106 C1107 1.369 . S
C1106 C1110 1.531 . S
C1107 C1106 1.369 . S
C1107 C1108 1.410 . S
C1107 C1115 1.503 . S
C1108 C1107 1.410 . S
C1108 C1109 1.392 . S
C1108 C1111 1.511 . S
C1109 C1105 1.376 . S
C1109 C1108 1.392 . S
C1109 H1121 0.929 . S
C1110 C1106 1.531 . S
C1110 H1122 0.960 . S
C1110 H1123 0.962 . S
C1110 H1124 0.960 . S
C1111 C1108 1.511 . S
C1111 H1125 0.961 . S
C1111 H1126 0.961 . S
C1111 H1127 0.961 . S
C1112 C1113 1.370 . S
C1112 C1114 1.363 . S
C1112 H1128 0.931 . S
C1113 C1112 1.370 . S
C1113 C1117 1.408 . S
C1114 C1112 1.363 . S
C1114 C1115 1.370 . S
C1114 C1118 1.524 . S
C1115 C1107 1.503 . S
C1115 C1114 1.370 . S
C1115 C1116 1.403 . S
C1116 C1115 1.403 . S
C1116 C1117 1.404 . S
C1116 C1119 1.539 . S
C1117 C1113 1.408 . S
C1117 C1116 1.404 . S
C1117 H1129 0.930 . S
C1118 C1114 1.524 . S
C1118 H1130 0.956 . S
C1118 H1131 0.961 . S
C1118 H1132 0.961 . S
C1119 C1116 1.539 . S
C1119 H1133 0.958 . S
C1119 H1134 0.961 . S
C1119 H1135 0.960 . S
H1120 C1104 0.931 . S
H1121 C1109 0.929 . S
H1122 C1110 0.960 . S
H1123 C1110 0.962 . S
H1124 C1110 0.960 . S
H1125 C1111 0.961 . S
H1126 C1111 0.961 . S
H1127 C1111 0.961 . S
H1128 C1112 0.931 . S
H1129 C1117 0.930 . S
H1130 C1118 0.956 . S
H1131 C1118 0.961 . S
H1132 C1118 0.961 . S
H1133 C1119 0.958 . S
H1134 C1119 0.961 . S
H1135 C1119 0.960 . S
C1136 C1137 1.391 . S
C1136 C1138 1.394 . S
C1136 H1152 0.931 . S
C1137 C1136 1.391 . S
C1137 C1141 1.376 . S
C1138 C1136 1.394 . S
C1138 C1139 1.369 . S
C1138 C1142 1.531 . S
C1139 C1138 1.369 . S
C1139 C1140 1.410 . S
C1139 C1147 1.503 . S
C1140 C1139 1.410 . S
C1140 C1141 1.392 . S
C1140 C1143 1.511 . S
C1141 C1137 1.376 . S
C1141 C1140 1.392 . S
C1141 H1153 0.929 . S
C1142 C1138 1.531 . S
C1142 H1154 0.960 . S
C1142 H1155 0.962 . S
C1142 H1156 0.960 . S
C1143 C1140 1.511 . S
C1143 H1157 0.961 . S
C1143 H1158 0.961 . S
C1143 H1159 0.961 . S
C1144 C1145 1.370 . S
C1144 C1146 1.363 . S
C1144 H1160 0.931 . S
C1145 C1144 1.370 . S
C1145 C1149 1.408 . S
C1146 C1144 1.363 . S
C1146 C1147 1.370 . S
C1146 C1150 1.524 . S
C1147 C1139 1.503 . S
C1147 C1146 1.370 . S
C1147 C1148 1.403 . S
C1148 C1147 1.403 . S
C1148 C1149 1.404 . S
C1148 C1151 1.539 . S
C1149 C1145 1.408 . S
C1149 C1148 1.404 . S
C1149 H1161 0.930 . S
C1150 C1146 1.524 . S
C1150 H1162 0.956 . S
C1150 H1163 0.961 . S
C1150 H1164 0.961 . S
C1151 C1148 1.539 . S
C1151 H1165 0.958 . S
C1151 H1166 0.961 . S
C1151 H1167 0.960 . S
H1152 C1136 0.931 . S
H1153 C1141 0.929 . S
H1154 C1142 0.960 . S
H1155 C1142 0.962 . S
H1156 C1142 0.960 . S
H1157 C1143 0.961 . S
H1158 C1143 0.961 . S
H1159 C1143 0.961 . S
H1160 C1144 0.931 . S
H1161 C1149 0.930 . S
H1162 C1150 0.956 . S
H1163 C1150 0.961 . S
H1164 C1150 0.961 . S
H1165 C1151 0.958 . S
H1166 C1151 0.961 . S
H1167 C1151 0.960 . S
C1168 C1169 1.391 . S
C1168 C1170 1.394 . S
C1168 H1184 0.931 . S
C1169 C1168 1.391 . S
C1169 C1173 1.376 . S
C1170 C1168 1.394 . S
C1170 C1171 1.369 . S
C1170 C1174 1.531 . S
C1171 C1170 1.369 . S
C1171 C1172 1.410 . S
C1171 C1179 1.503 . S
C1172 C1171 1.410 . S
C1172 C1173 1.392 . S
C1172 C1175 1.511 . S
C1173 C1169 1.376 . S
C1173 C1172 1.392 . S
C1173 H1185 0.929 . S
C1174 C1170 1.531 . S
C1174 H1186 0.960 . S
C1174 H1187 0.962 . S
C1174 H1188 0.960 . S
C1175 C1172 1.511 . S
C1175 H1189 0.961 . S
C1175 H1190 0.961 . S
C1175 H1191 0.961 . S
C1176 C1177 1.370 . S
C1176 C1178 1.363 . S
C1176 H1192 0.931 . S
C1177 C1176 1.370 . S
C1177 C1181 1.408 . S
C1178 C1176 1.363 . S
C1178 C1179 1.370 . S
C1178 C1182 1.524 . S
C1179 C1171 1.503 . S
C1179 C1178 1.370 . S
C1179 C1180 1.403 . S
C1180 C1179 1.403 . S
C1180 C1181 1.404 . S
C1180 C1183 1.539 . S
C1181 C1177 1.408 . S
C1181 C1180 1.404 . S
C1181 H1193 0.930 . S
C1182 C1178 1.524 . S
C1182 H1194 0.956 . S
C1182 H1195 0.961 . S
C1182 H1196 0.961 . S
C1183 C1180 1.539 . S
C1183 H1197 0.958 . S
C1183 H1198 0.961 . S
C1183 H1199 0.960 . S
H1184 C1168 0.931 . S
H1185 C1173 0.929 . S
H1186 C1174 0.960 . S
H1187 C1174 0.962 . S
H1188 C1174 0.960 . S
H1189 C1175 0.961 . S
H1190 C1175 0.961 . S
H1191 C1175 0.961 . S
H1192 C1176 0.931 . S
H1193 C1181 0.930 . S
H1194 C1182 0.956 . S
H1195 C1182 0.961 . S
H1196 C1182 0.961 . S
H1197 C1183 0.958 . S
H1198 C1183 0.961 . S
H1199 C1183 0.960 . S
C433 C14 1.444 . S
C441 C230 1.416 . S
C465 C50 1.360 . S
C473 C266 1.397 . S
C497 C86 1.306 . S
C505 C302 1.309 . S
C529 C338 1.451 . S
C537 C122 1.404 . S
C561 C158 1.446 . S
C569 C374 1.397 . S
C593 C410 1.312 . S
C601 C194 1.309 . S
C625 C2 0.990 . S
C633 C326 0.976 . S
C657 C38 0.994 . S
C665 C362 0.979 . S
C689 C398 0.948 . S
C697 C74 0.932 . S
C721 C218 0.966 . S
C729 C110 0.990 . S
C753 C146 0.988 . S
C761 C254 0.976 . S
C785 C182 0.922 . S
C793 C290 0.947 . S
C817 C399 1.748 . S
C825 C3 1.765 . S
C849 C39 1.925 . S
C857 C219 1.915 . S
C881 C75 1.759 . S
C889 C255 1.764 . S
C913 C291 1.776 . S
C921 C111 1.756 . S
C945 C327 1.928 . S
C953 C147 1.913 . S
C977 C183 1.770 . S
C985 C363 1.760 . S
C1009 C4 0.909 . S
C1017 C364 0.870 . S
C1041 C400 0.912 . S
C1049 C40 1.024 . S
C1073 C220 1.045 . S
C1081 C76 0.977 . S
C1105 C112 0.932 . S
C1113 C256 0.861 . S
C1137 C292 1.058 . S
C1145 C148 0.971 . S
C1169 C328 0.942 . S
C1177 C184 1.007 . S
