# Generated by pormake.
# Topology fni, (5)-cn, num edge types: 1
# Building blocks:
#     Node 0, Type 0, BuildingBlock: XOMCOT_clean_sbu_0, # of connection points: 5
#     Node 1, Type 0, BuildingBlock: XOMCOT_clean_sbu_0, # of connection points: 5
#     Node 2, Type 0, BuildingBlock: XOMCOT_clean_sbu_0, # of connection points: 5
#     Node 3, Type 0, BuildingBlock: XOMCOT_clean_sbu_0, # of connection points: 5
#     Node 4, Type 0, BuildingBlock: XOMCOT_clean_sbu_0, # of connection points: 5
#     Node 5, Type 0, BuildingBlock: XOMCOT_clean_sbu_0, # of connection points: 5
#     Node 6, Type 0, BuildingBlock: XOMCOT_clean_sbu_0, # of connection points: 5
#     Node 7, Type 0, BuildingBlock: XOMCOT_clean_sbu_0, # of connection points: 5
#     Edge 8, Type (0, 0), None
#     Edge 9, Type (0, 0), None
#     Edge 10, Type (0, 0), None
#     Edge 11, Type (0, 0), None
#     Edge 12, Type (0, 0), None
#     Edge 13, Type (0, 0), None
#     Edge 14, Type (0, 0), None
#     Edge 15, Type (0, 0), None
#     Edge 16, Type (0, 0), None
#     Edge 17, Type (0, 0), None
#     Edge 18, Type (0, 0), None
#     Edge 19, Type (0, 0), None
#     Edge 20, Type (0, 0), None
#     Edge 21, Type (0, 0), None
#     Edge 22, Type (0, 0), None
#     Edge 23, Type (0, 0), None
#     Edge 24, Type (0, 0), None
#     Edge 25, Type (0, 0), None
#     Edge 26, Type (0, 0), None
#     Edge 27, Type (0, 0), None
# Relax obj value: 0.068
# Max RMSD: 0.164
# Mean RMSD: 0.164
data_MOF--net-fni--node1-XOMCOT_clean_sbu_0--edge1-none
_symmetry_space_group_name_H-M    P1
_symmetry_Int_Tables_number       1
_symmetry_cell_setting            triclinic
loop_
_symmetry_equiv_pos_as_xyz
'x, y, z'
_cell_length_a     26.667236
_cell_length_b     26.866722
_cell_length_c     9.427645
_cell_angle_alpha  90.003166
_cell_angle_beta   89.783458
_cell_angle_gamma 89.570727
loop_
_atom_site_label
_atom_site_type_symbol
_atom_site_fract_x
_atom_site_fract_y
_atom_site_fract_z
_atom_type_partial_charge
Co0 Co 0.39587 0.34638 0.0396 0.0
C1 C 0.40853 0.34533 0.34957 0.0
C2 C 0.33641 0.37558 0.29658 0.0
C3 C 0.33911 0.37014 0.44266 0.0
N4 N 0.3803 0.36027 0.23823 0.0
N5 N 0.38462 0.35097 0.47368 0.0
H6 H 0.44509 0.32809 0.34097 0.0
H7 H 0.30378 0.38764 0.23788 0.0
C8 C 0.30706 0.41801 0.94458 0.0
O9 O 0.32495 0.46181 0.97795 0.0
N10 N 0.41061 0.33178 0.84292 0.0
C11 C 0.45675 0.32703 0.78543 0.0
C12 C 0.45282 0.33069 0.63999 0.0
C13 C 0.37909 0.33741 0.73175 0.0
N14 N 0.40406 0.33787 0.60777 0.0
C15 C 0.47285 0.41382 0.12212 0.0
C16 C 0.46464 0.48032 0.90003 0.0
C17 C 0.50143 0.48818 1.0036 0.0
C18 C 0.50511 0.4543 0.11544 0.0
C19 C 0.43191 0.43962 0.91287 0.0
N20 N 0.43562 0.40735 0.0249 0.0
H21 H 0.47924 0.38682 0.20395 0.0
H22 H 0.40446 0.43358 0.83092 0.0
H23 H 0.49119 0.32527 0.84545 0.0
H24 H 0.33924 0.34372 0.74037 0.0
O25 O 0.44853 0.29963 0.10056 0.0
O26 O 0.36884 0.28089 0.06704 0.0
O27 O 0.33076 0.37777 0.9735 0.0
C28 C 0.41297 0.26677 0.10997 0.0
H29 H 0.30976 0.37858 0.5187 0.0
H30 H 0.4837 0.33156 0.56535 0.0
H31 H 0.46091 0.50559 0.81113 0.0
H32 H 0.53368 0.45845 0.19597 0.0
Co33 Co 0.67924 0.89097 0.27892 0.0
C34 C 0.68293 0.90189 0.58967 0.0
C35 C 0.6533 0.8304 0.5365 0.0
C36 C 0.65893 0.83315 0.6827 0.0
N37 N 0.66807 0.87393 0.47826 0.0
N38 N 0.67763 0.87834 0.71339 0.0
H39 H 0.69776 0.93905 0.58205 0.0
H40 H 0.64052 0.79839 0.47774 0.0
C41 C 0.62114 0.79933 0.16457 0.0
O42 O 0.57595 0.8185 0.17587 0.0
N43 N 0.69213 0.90679 0.08211 0.0
C44 C 0.69174 0.95271 0.02428 0.0
C45 C 0.68912 0.94809 0.87896 0.0
C46 C 0.69105 0.87486 0.97119 0.0
N47 N 0.6879 0.89917 0.84733 0.0
C48 C 0.5998 0.9537 0.37347 0.0
C49 C 0.54258 0.95567 0.13073 0.0
C50 C 0.52959 0.98714 0.24403 0.0
C51 C 0.5586 0.98536 0.36639 0.0
C52 C 0.5842 0.92328 0.14343 0.0
N53 N 0.61235 0.92213 0.26504 0.0
H54 H 0.62323 0.95771 0.46428 0.0
H55 H 0.59453 0.90065 0.05322 0.0
H56 H 0.68911 0.98704 0.08377 0.0
H57 H 0.6904 0.83488 0.97936 0.0
O58 O 0.71464 0.95036 0.33641 0.0
O59 O 0.74929 0.8758 0.30977 0.0
O60 O 0.65937 0.82153 0.21525 0.0
C61 C 0.75411 0.92204 0.34878 0.0
H62 H 0.65001 0.80451 0.75925 0.0
H63 H 0.68477 0.97825 0.80389 0.0
H64 H 0.52094 0.95613 0.03377 0.0
H65 H 0.55054 1.00982 0.45521 0.0
Co66 Co 0.1338 0.18306 0.54745 0.0
C67 C 0.12098 0.18228 0.85788 0.0
C68 C 0.19469 0.15628 0.80321 0.0
C69 C 0.19173 0.16184 0.94947 0.0
N70 N 0.14998 0.16889 0.74572 0.0
N71 N 0.14521 0.1784 0.98153 0.0
H72 H 0.08356 0.19755 0.85007 0.0
H73 H 0.22798 0.14627 0.74359 0.0
C74 C 0.22111 0.11337 0.44532 0.0
O75 O 0.20368 0.07011 0.48611 0.0
N76 N 0.11838 0.19808 0.35119 0.0
C77 C 0.07204 0.19978 0.29463 0.0
C78 C 0.07612 0.19562 0.14919 0.0
C79 C 0.15011 0.19404 0.23906 0.0
N80 N 0.12518 0.19128 0.11571 0.0
C81 C 0.06119 0.11085 0.63154 0.0
C82 C 0.07304 0.04678 0.40463 0.0
C83 C 0.03852 0.03528 0.51152 0.0
C84 C 0.03254 0.06784 0.62549 0.0
C85 C 0.10183 0.08998 0.41634 0.0
N86 N 0.0968 0.12081 0.53126 0.0
H87 H 0.05323 0.13682 0.71508 0.0
H88 H 0.12759 0.09882 0.33166 0.0
H89 H 0.03759 0.19928 0.35549 0.0
H90 H 0.19024 0.19023 0.24682 0.0
O91 O 0.07976 0.22746 0.61197 0.0
O92 O 0.15896 0.24873 0.57623 0.0
O93 O 0.19925 0.15416 0.47785 0.0
C94 C 0.11463 0.26103 0.62251 0.0
H95 H 0.22158 0.15545 0.02485 0.0
H96 H 0.04531 0.19224 0.07561 0.0
H97 H 0.07749 0.02281 0.31298 0.0
H98 H 1.00476 0.06085 0.70717 0.0
Co99 Co 0.86425 0.65709 0.75257 0.0
C100 C 0.87108 0.66787 0.44149 0.0
C101 C 0.81985 0.60965 0.49587 0.0
C102 C 0.82293 0.61313 0.34935 0.0
N103 N 0.84979 0.64446 0.55348 0.0
N104 N 0.855 0.65001 0.31813 0.0
H105 H 0.89978 0.69582 0.44705 0.0
H106 H 0.79877 0.58251 0.55551 0.0
C107 C 0.77828 0.58712 0.86572 0.0
O108 O 0.80325 0.54491 0.86842 0.0
N109 N 0.87855 0.67058 0.94965 0.0
C110 C 0.92397 0.68037 1.00569 0.0
C111 C 0.9207 0.67658 0.15138 0.0
C112 C 0.84816 0.66183 0.06167 0.0
N113 N 0.87326 0.66401 0.18403 0.0
C114 C 0.93889 0.58919 0.65116 0.0
C115 C 0.94733 0.53009 0.88893 0.0
C116 C 0.98104 0.52252 0.7759 0.0
C117 C 0.97568 0.55208 0.65513 0.0
C118 C 0.90978 0.56699 0.87897 0.0
N119 N 0.90579 0.59634 0.76072 0.0
H120 H 0.93949 0.61413 0.56207 0.0
H121 H 0.8857 0.57323 0.96947 0.0
H122 H 0.95784 0.68635 0.94482 0.0
H123 H 0.80908 0.65243 0.05599 0.0
O124 O 0.91642 0.70359 0.69516 0.0
O125 O 0.83612 0.72243 0.72988 0.0
O126 O 0.79778 0.6266 0.81399 0.0
C127 C 0.88024 0.73644 0.68812 0.0
H128 H 0.80537 0.58903 0.27261 0.0
H129 H 0.95122 0.6796 0.22616 0.0
H130 H 0.95072 0.50849 0.98548 0.0
H131 H 1.0019 0.54881 0.56747 0.0
Co132 Co 0.34692 0.13213 0.28527 0.0
C133 C 0.34777 0.11897 0.59581 0.0
C134 C 0.37672 0.19066 0.54128 0.0
C135 C 0.37101 0.18814 0.6875 0.0
N136 N 0.36234 0.14695 0.4836 0.0
N137 N 0.35259 0.14291 0.71954 0.0
H138 H 0.33049 0.08292 0.58807 0.0
H139 H 0.38785 0.22318 0.48184 0.0
C140 C 0.41892 0.21845 0.1839 0.0
O141 O 0.46323 0.19981 0.21397 0.0
N142 N 0.33096 0.11806 0.08912 0.0
C143 C 0.32603 0.07233 0.03224 0.0
C144 C 0.33049 0.07596 0.88679 0.0
C145 C 0.33737 0.14905 0.97723 0.0
N146 N 0.33831 0.12413 0.85366 0.0
C147 C 0.41158 0.05229 0.36131 0.0
C148 C 0.47966 0.05907 0.14103 0.0
C149 C 0.48548 0.02107 0.242 0.0
C150 C 0.45061 0.01795 0.35227 0.0
C151 C 0.4399 0.09357 0.15539 0.0
N152 N 0.40715 0.09066 0.26729 0.0
H153 H 0.38395 0.04661 0.44235 0.0
H154 H 0.43494 0.12173 0.07489 0.0
H155 H 0.32402 0.03822 0.09282 0.0
H156 H 0.34405 0.18843 0.98509 0.0
O157 O 0.30003 0.08113 0.34956 0.0
O158 O 0.28189 0.16092 0.31672 0.0
O159 O 0.37859 0.19589 0.21683 0.0
C160 C 0.26785 0.11754 0.36248 0.0
H161 H 0.37832 0.2176 0.76277 0.0
H162 H 0.33161 0.04516 0.81295 0.0
H163 H 0.50591 0.06256 0.05375 0.0
H164 H 0.4533 0.9887 0.43115 0.0
Co165 Co 0.88684 0.86259 0.53186 0.0
C166 C 0.90334 0.86572 0.8411 0.0
C167 C 0.83063 0.89464 0.78767 0.0
C168 C 0.83298 0.88842 0.93312 0.0
N169 N 0.8749 0.8806 0.72965 0.0
N170 N 0.8787 0.86995 0.96528 0.0
H171 H 0.93944 0.84767 0.83136 0.0
H172 H 0.79747 0.90466 0.72823 0.0
C173 C 0.7985 0.93978 0.42664 0.0
O174 O 0.80159 0.98694 0.46168 0.0
N175 N 0.89916 0.84438 0.33522 0.0
C176 C 0.94388 0.83105 0.27879 0.0
C177 C 0.94168 0.83612 0.13285 0.0
C178 C 0.87046 0.85686 0.22269 0.0
N179 N 0.89544 0.8528 0.09911 0.0
C180 C 0.97938 0.91198 0.59492 0.0
C181 C 0.96488 0.99133 0.41213 0.0
C182 C 1.00627 0.99123 0.50242 0.0
C183 C 1.01396 0.95076 0.59314 0.0
C184 C 0.93081 0.95221 0.41887 0.0
N185 N 0.93721 0.91415 0.51361 0.0
H186 H 0.98641 0.88047 0.66259 0.0
H187 H 0.89932 0.95287 0.34755 0.0
H188 H 0.97704 0.82241 0.33999 0.0
H189 H 0.83368 0.87237 0.23023 0.0
O190 O 0.92775 0.80673 0.59728 0.0
O191 O 0.84536 0.80573 0.56242 0.0
O192 O 0.83272 0.90968 0.46729 0.0
C193 C 0.88526 0.78351 0.61065 0.0
H194 H 0.80254 0.89431 1.00748 0.0
H195 H 0.97253 0.83106 0.0593 0.0
H196 H 0.95816 0.02207 0.34011 0.0
H197 H 0.04608 0.94946 0.66311 0.0
Co198 Co 0.17786 0.39435 0.80761 0.0
C199 C 0.18063 0.40592 0.11733 0.0
C200 C 0.15146 0.33414 0.06465 0.0
C201 C 0.1569 0.33712 0.21083 0.0
N202 N 0.16602 0.3777 1.00628 0.0
N203 N 0.17534 0.38244 0.24149 0.0
H204 H 0.19635 0.4427 0.10864 0.0
H205 H 0.13932 0.30188 1.00587 0.0
C206 C 0.10833 0.30763 0.70361 0.0
O207 O 0.06385 0.3254 0.73658 0.0
N208 N 0.19095 0.41019 0.61082 0.0
C209 C 0.19186 0.45611 0.55335 0.0
C210 C 0.18905 0.45169 0.4078 0.0
C211 C 0.18871 0.37841 0.49966 0.0
N212 N 0.18635 0.40287 0.37566 0.0
C213 C 0.10209 0.46419 0.90468 0.0
C214 C 0.03827 0.45587 0.67649 0.0
C215 C 0.02498 0.48822 0.78758 0.0
C216 C 0.0575 0.49189 0.90298 0.0
C217 C 0.08276 0.42779 0.68415 0.0
N218 N 0.11391 0.43131 0.79874 0.0
H219 H 0.12777 0.471 0.98959 0.0
H220 H 0.09237 0.40381 0.59617 0.0
H221 H 0.19046 0.49039 0.6134 0.0
H222 H 0.18639 0.33853 0.50836 0.0
O223 O 0.22364 0.44726 0.86842 0.0
O224 O 0.24484 0.36874 0.82853 0.0
O225 O 0.14864 0.32957 0.73956 0.0
C226 C 0.258 0.4124 0.87315 0.0
H227 H 0.14833 0.3084 0.2874 0.0
H228 H 0.18566 0.48203 0.3329 0.0
H229 H 0.01477 0.45276 0.58349 0.0
H230 H 0.04987 0.51798 0.98812 0.0
Co231 Co 0.64591 0.67006 0.02751 0.0
C232 C 0.63654 0.67862 0.33803 0.0
C233 C 0.69402 0.62555 0.28507 0.0
C234 C 0.69159 0.63016 0.43128 0.0
N235 N 0.65953 0.65626 0.22659 0.0
N236 N 0.65559 0.66385 0.46183 0.0
H237 H 0.60576 0.70474 0.33119 0.0
H238 H 0.71876 0.60107 0.22679 0.0
C239 C 0.72834 0.5918 0.93704 0.0
O240 O 0.70345 0.55195 0.97462 0.0
N241 N 0.63269 0.68478 0.83085 0.0
C242 C 0.5878 0.69705 0.77466 0.0
C243 C 0.59116 0.69365 0.62913 0.0
C244 C 0.66294 0.6747 0.71906 0.0
N245 N 0.63815 0.67884 0.59627 0.0
C246 C 0.56947 0.60369 0.11976 0.0
C247 C 0.56921 0.54021 0.88935 0.0
C248 C 0.53532 0.53186 1.00088 0.0
C249 C 0.5358 0.56427 0.11671 0.0
C250 C 0.60337 0.5798 0.89809 0.0
N251 N 0.60404 0.61046 1.01426 0.0
H252 H 0.56673 0.6295 0.20674 0.0
H253 H 0.62914 0.58553 0.81123 0.0
H254 H 0.55406 0.70446 0.83522 0.0
H255 H 0.70138 0.66224 0.72571 0.0
O256 O 0.5937 0.71767 0.08436 0.0
O257 O 0.67383 0.7358 0.05544 0.0
O258 O 0.71112 0.63558 0.96421 0.0
C259 C 0.62916 0.75053 0.09399 0.0
H260 H 0.71308 0.60946 0.50856 0.0
H261 H 0.56076 0.69834 0.55456 0.0
H262 H 0.56996 0.51586 0.79781 0.0
H263 H 0.50971 0.55955 0.20401 0.0
loop_
_geom_bond_atom_site_label_1
_geom_bond_atom_site_label_2
_geom_bond_distance
_geom_bond_site_symmetry_2
_ccdc_geom_bond_type
Co0 N4 2.148 . S
Co0 N10 2.128 1_554 S
Co0 N20 2.194 . S
Co0 O25 2.351 . S
Co0 O26 2.155 . S
Co0 O27 2.096 1_554 S
C1 N4 1.301 . S
C1 N5 1.328 . S
C1 H6 0.930 . S
C2 C3 1.333 . S
C2 N4 1.317 . S
C2 H7 0.930 . S
C3 C2 1.333 . S
C3 N5 1.350 . S
C3 H29 0.931 . S
N4 Co0 2.148 . S
N4 C1 1.301 . S
N4 C2 1.317 . S
N5 C1 1.328 . S
N5 C3 1.350 . S
H6 C1 0.930 . S
H7 C2 0.930 . S
C8 O9 1.224 . S
C8 O27 1.247 . S
O9 C8 1.224 . S
N10 Co0 2.128 1_556 S
N10 C11 1.355 . S
N10 C13 1.311 . S
C11 N10 1.355 . S
C11 C12 1.363 . S
C11 H23 0.929 . S
C12 C11 1.363 . S
C12 N14 1.375 . S
C12 H30 0.931 . S
C13 N10 1.311 . S
C13 N14 1.347 . S
C13 H24 0.929 . S
N14 C12 1.375 . S
N14 C13 1.347 . S
C15 C18 1.365 . S
C15 N20 1.328 . S
C15 H21 0.929 . S
C16 C17 1.362 1_556 S
C16 C19 1.378 . S
C16 H31 0.929 . S
C17 C16 1.362 1_554 S
C17 C18 1.366 . S
C18 C15 1.365 . S
C18 C17 1.366 . S
C18 H32 0.930 . S
C19 C16 1.378 . S
C19 N20 1.315 1_556 S
C19 H22 0.930 . S
N20 Co0 2.194 . S
N20 C15 1.328 . S
N20 C19 1.315 1_554 S
H21 C15 0.929 . S
H22 C19 0.930 . S
H23 C11 0.929 . S
H24 C13 0.929 . S
O25 Co0 2.351 . S
O25 C28 1.244 . S
O26 Co0 2.155 . S
O26 C28 1.240 . S
O27 Co0 2.096 1_556 S
O27 C8 1.247 . S
C28 O25 1.244 . S
C28 O26 1.240 . S
H29 C3 0.931 . S
H30 C12 0.931 . S
H31 C16 0.929 . S
H32 C18 0.930 . S
Co33 N37 2.148 . S
Co33 N43 2.128 . S
Co33 N53 2.194 . S
Co33 O58 2.351 . S
Co33 O59 2.155 . S
Co33 O60 2.096 . S
C34 N37 1.301 . S
C34 N38 1.328 . S
C34 H39 0.930 . S
C35 C36 1.333 . S
C35 N37 1.317 . S
C35 H40 0.930 . S
C36 C35 1.333 . S
C36 N38 1.350 . S
C36 H62 0.931 . S
N37 Co33 2.148 . S
N37 C34 1.301 . S
N37 C35 1.317 . S
N38 C34 1.328 . S
N38 C36 1.350 . S
H39 C34 0.930 . S
H40 C35 0.930 . S
C41 O42 1.224 . S
C41 O60 1.247 . S
O42 C41 1.224 . S
N43 Co33 2.128 . S
N43 C44 1.355 . S
N43 C46 1.311 1_554 S
C44 N43 1.355 . S
C44 C45 1.363 1_554 S
C44 H56 0.929 . S
C45 C44 1.363 1_556 S
C45 N47 1.375 . S
C45 H63 0.931 . S
C46 N43 1.311 1_556 S
C46 N47 1.347 . S
C46 H57 0.929 . S
N47 C45 1.375 . S
N47 C46 1.347 . S
C48 C51 1.365 . S
C48 N53 1.328 . S
C48 H54 0.929 . S
C49 C50 1.362 . S
C49 C52 1.378 . S
C49 H64 0.929 . S
C50 C49 1.362 . S
C50 C51 1.366 . S
C51 C48 1.365 . S
C51 C50 1.366 . S
C51 H65 0.930 1_565 S
C52 C49 1.378 . S
C52 N53 1.315 . S
C52 H55 0.930 . S
N53 Co33 2.194 . S
N53 C48 1.328 . S
N53 C52 1.315 . S
H54 C48 0.929 . S
H55 C52 0.930 . S
H56 C44 0.929 . S
H57 C46 0.929 . S
O58 Co33 2.351 . S
O58 C61 1.244 . S
O59 Co33 2.155 . S
O59 C61 1.240 . S
O60 Co33 2.096 . S
O60 C41 1.247 . S
C61 O58 1.244 . S
C61 O59 1.240 . S
H62 C36 0.931 . S
H63 C45 0.931 . S
H64 C49 0.929 . S
H65 C51 0.930 1_545 S
Co66 N70 2.148 . S
Co66 N76 2.128 . S
Co66 N86 2.194 . S
Co66 O91 2.351 . S
Co66 O92 2.155 . S
Co66 O93 2.096 . S
C67 N70 1.301 . S
C67 N71 1.328 . S
C67 H72 0.930 . S
C68 C69 1.333 . S
C68 N70 1.317 . S
C68 H73 0.930 . S
C69 C68 1.333 . S
C69 N71 1.350 . S
C69 H95 0.931 . S
N70 Co66 2.148 . S
N70 C67 1.301 . S
N70 C68 1.317 . S
N71 C67 1.328 . S
N71 C69 1.350 . S
H72 C67 0.930 . S
H73 C68 0.930 . S
C74 O75 1.224 . S
C74 O93 1.247 . S
O75 C74 1.224 . S
N76 Co66 2.128 . S
N76 C77 1.355 . S
N76 C79 1.311 . S
C77 N76 1.355 . S
C77 C78 1.363 . S
C77 H89 0.929 . S
C78 C77 1.363 . S
C78 N80 1.375 . S
C78 H96 0.931 . S
C79 N76 1.311 . S
C79 N80 1.347 . S
C79 H90 0.929 . S
N80 C78 1.375 . S
N80 C79 1.347 . S
C81 C84 1.365 . S
C81 N86 1.328 . S
C81 H87 0.929 . S
C82 C83 1.362 . S
C82 C85 1.378 . S
C82 H97 0.929 1_545 S
C83 C82 1.362 . S
C83 C84 1.366 . S
C84 C81 1.365 . S
C84 C83 1.366 . S
C84 H98 0.930 1_455 S
C85 C82 1.378 . S
C85 N86 1.315 . S
C85 H88 0.930 . S
N86 Co66 2.194 . S
N86 C81 1.328 . S
N86 C85 1.315 . S
H87 C81 0.929 . S
H88 C85 0.930 . S
H89 C77 0.929 . S
H90 C79 0.929 . S
O91 Co66 2.351 . S
O91 C94 1.244 . S
O92 Co66 2.155 . S
O92 C94 1.240 . S
O93 Co66 2.096 . S
O93 C74 1.247 . S
C94 O91 1.244 . S
C94 O92 1.240 . S
H95 C69 0.931 . S
H96 C78 0.931 . S
H97 C82 0.929 1_565 S
H98 C84 0.930 1_655 S
Co99 N103 2.148 . S
Co99 N109 2.128 . S
Co99 N119 2.194 . S
Co99 O124 2.351 . S
Co99 O125 2.155 . S
Co99 O126 2.096 . S
C100 N103 1.301 . S
C100 N104 1.328 . S
C100 H105 0.930 . S
C101 C102 1.333 . S
C101 N103 1.317 . S
C101 H106 0.930 . S
C102 C101 1.333 . S
C102 N104 1.350 . S
C102 H128 0.931 . S
N103 Co99 2.148 . S
N103 C100 1.301 . S
N103 C101 1.317 . S
N104 C100 1.328 . S
N104 C102 1.350 . S
H105 C100 0.930 . S
H106 C101 0.930 . S
C107 O108 1.224 . S
C107 O126 1.247 . S
O108 C107 1.224 . S
N109 Co99 2.128 . S
N109 C110 1.355 1_556 S
N109 C112 1.311 1_556 S
C110 N109 1.355 1_554 S
C110 C111 1.363 . S
C110 H122 0.929 1_554 S
C111 C110 1.363 . S
C111 N113 1.375 . S
C111 H129 0.931 . S
C112 N109 1.311 1_554 S
C112 N113 1.347 . S
C112 H123 0.929 . S
N113 C111 1.375 . S
N113 C112 1.347 . S
C114 C117 1.365 . S
C114 N119 1.328 . S
C114 H120 0.929 . S
C115 C116 1.362 . S
C115 C118 1.378 . S
C115 H130 0.929 . S
C116 C115 1.362 . S
C116 C117 1.366 . S
C117 C114 1.365 . S
C117 C116 1.366 . S
C117 H131 0.930 1_655 S
C118 C115 1.378 . S
C118 N119 1.315 . S
C118 H121 0.930 . S
N119 Co99 2.194 . S
N119 C114 1.328 . S
N119 C118 1.315 . S
H120 C114 0.929 . S
H121 C118 0.930 . S
H122 C110 0.929 1_556 S
H123 C112 0.929 . S
O124 Co99 2.351 . S
O124 C127 1.244 . S
O125 Co99 2.155 . S
O125 C127 1.240 . S
O126 Co99 2.096 . S
O126 C107 1.247 . S
C127 O124 1.244 . S
C127 O125 1.240 . S
H128 C102 0.931 . S
H129 C111 0.931 . S
H130 C115 0.929 . S
H131 C117 0.930 1_455 S
Co132 N136 2.148 . S
Co132 N142 2.128 . S
Co132 N152 2.194 . S
Co132 O157 2.351 . S
Co132 O158 2.155 . S
Co132 O159 2.096 . S
C133 N136 1.301 . S
C133 N137 1.328 . S
C133 H138 0.930 . S
C134 C135 1.333 . S
C134 N136 1.317 . S
C134 H139 0.930 . S
C135 C134 1.333 . S
C135 N137 1.350 . S
C135 H161 0.931 . S
N136 Co132 2.148 . S
N136 C133 1.301 . S
N136 C134 1.317 . S
N137 C133 1.328 . S
N137 C135 1.350 . S
H138 C133 0.930 . S
H139 C134 0.930 . S
C140 O141 1.224 . S
C140 O159 1.247 . S
O141 C140 1.224 . S
N142 Co132 2.128 . S
N142 C143 1.356 . S
N142 C145 1.311 1_554 S
C143 N142 1.356 . S
C143 C144 1.360 1_554 S
C143 H155 0.931 . S
C144 C143 1.360 1_556 S
C144 N146 1.375 . S
C144 H162 0.931 . S
C145 N142 1.311 1_556 S
C145 N146 1.347 . S
C145 H156 0.929 . S
N146 C144 1.375 . S
N146 C145 1.347 . S
C147 C150 1.365 . S
C147 N152 1.328 . S
C147 H153 0.929 . S
C148 C149 1.362 . S
C148 C151 1.378 . S
C148 H163 0.929 . S
C149 C148 1.362 . S
C149 C150 1.366 . S
C150 C147 1.365 . S
C150 C149 1.366 . S
C150 H164 0.930 1_545 S
C151 C148 1.378 . S
C151 N152 1.315 . S
C151 H154 0.930 . S
N152 Co132 2.194 . S
N152 C147 1.328 . S
N152 C151 1.315 . S
H153 C147 0.929 . S
H154 C151 0.930 . S
H155 C143 0.931 . S
H156 C145 0.929 . S
O157 Co132 2.351 . S
O157 C160 1.244 . S
O158 Co132 2.155 . S
O158 C160 1.240 . S
O159 Co132 2.096 . S
O159 C140 1.247 . S
C160 O157 1.244 . S
C160 O158 1.240 . S
H161 C135 0.931 . S
H162 C144 0.931 . S
H163 C148 0.929 . S
H164 C150 0.930 1_565 S
Co165 N169 2.148 . S
Co165 N175 2.128 . S
Co165 N185 2.194 . S
Co165 O190 2.351 . S
Co165 O191 2.155 . S
Co165 O192 2.096 . S
C166 N169 1.301 . S
C166 N170 1.328 . S
C166 H171 0.930 . S
C167 C168 1.333 . S
C167 N169 1.317 . S
C167 H172 0.930 . S
C168 C167 1.333 . S
C168 N170 1.350 . S
C168 H194 0.931 . S
N169 Co165 2.148 . S
N169 C166 1.301 . S
N169 C167 1.317 . S
N170 C166 1.328 . S
N170 C168 1.350 . S
H171 C166 0.930 . S
H172 C167 0.930 . S
C173 O174 1.224 . S
C173 O192 1.247 . S
O174 C173 1.224 . S
N175 Co165 2.128 . S
N175 C176 1.355 . S
N175 C178 1.311 . S
C176 N175 1.355 . S
C176 C177 1.363 . S
C176 H188 0.929 . S
C177 C176 1.363 . S
C177 N179 1.375 . S
C177 H195 0.931 . S
C178 N175 1.311 . S
C178 N179 1.347 . S
C178 H189 0.929 . S
N179 C177 1.375 . S
N179 C178 1.347 . S
C180 C183 1.365 . S
C180 N185 1.328 . S
C180 H186 0.929 . S
C181 C182 1.362 . S
C181 C184 1.378 . S
C181 H196 0.929 1_565 S
C182 C181 1.362 . S
C182 C183 1.366 . S
C183 C180 1.365 . S
C183 C182 1.366 . S
C183 H197 0.930 1_655 S
C184 C181 1.378 . S
C184 N185 1.315 . S
C184 H187 0.930 . S
N185 Co165 2.194 . S
N185 C180 1.328 . S
N185 C184 1.315 . S
H186 C180 0.929 . S
H187 C184 0.930 . S
H188 C176 0.929 . S
H189 C178 0.929 . S
O190 Co165 2.351 . S
O190 C193 1.244 . S
O191 Co165 2.155 . S
O191 C193 1.240 . S
O192 Co165 2.096 . S
O192 C173 1.247 . S
C193 O190 1.244 . S
C193 O191 1.240 . S
H194 C168 0.931 . S
H195 C177 0.931 . S
H196 C181 0.929 1_545 S
H197 C183 0.930 1_455 S
Co198 N202 2.148 . S
Co198 N208 2.128 . S
Co198 N218 2.194 . S
Co198 O223 2.351 . S
Co198 O224 2.155 . S
Co198 O225 2.096 . S
C199 N202 1.301 1_554 S
C199 N203 1.328 . S
C199 H204 0.930 . S
C200 C201 1.333 1_556 S
C200 N202 1.317 . S
C200 H205 0.930 . S
C201 C200 1.333 1_554 S
C201 N203 1.350 . S
C201 H227 0.931 . S
N202 Co198 2.148 . S
N202 C199 1.301 1_556 S
N202 C200 1.317 . S
N203 C199 1.328 . S
N203 C201 1.350 . S
H204 C199 0.930 . S
H205 C200 0.930 . S
C206 O207 1.224 . S
C206 O225 1.247 . S
O207 C206 1.224 . S
N208 Co198 2.128 . S
N208 C209 1.355 . S
N208 C211 1.311 . S
C209 N208 1.355 . S
C209 C210 1.363 . S
C209 H221 0.929 . S
C210 C209 1.363 . S
C210 N212 1.375 . S
C210 H228 0.931 . S
C211 N208 1.311 . S
C211 N212 1.347 . S
C211 H222 0.929 . S
N212 C210 1.375 . S
N212 C211 1.347 . S
C213 C216 1.365 . S
C213 N218 1.328 . S
C213 H219 0.929 . S
C214 C215 1.362 . S
C214 C217 1.378 . S
C214 H229 0.929 1_455 S
C215 C214 1.362 . S
C215 C216 1.366 . S
C216 C213 1.365 . S
C216 C215 1.366 . S
C216 H230 0.930 . S
C217 C214 1.378 . S
C217 N218 1.315 . S
C217 H220 0.930 . S
N218 Co198 2.194 . S
N218 C213 1.328 . S
N218 C217 1.315 . S
H219 C213 0.929 . S
H220 C217 0.930 . S
H221 C209 0.929 . S
H222 C211 0.929 . S
O223 Co198 2.351 . S
O223 C226 1.244 . S
O224 Co198 2.155 . S
O224 C226 1.240 . S
O225 Co198 2.096 . S
O225 C206 1.247 . S
C226 O223 1.244 . S
C226 O224 1.240 . S
H227 C201 0.931 . S
H228 C210 0.931 . S
H229 C214 0.929 1_655 S
H230 C216 0.930 . S
Co231 N235 2.148 . S
Co231 N241 2.128 1_554 S
Co231 N251 2.194 . S
Co231 O256 2.351 . S
Co231 O257 2.155 . S
Co231 O258 2.096 1_554 S
C232 N235 1.301 . S
C232 N236 1.328 . S
C232 H237 0.930 . S
C233 C234 1.333 . S
C233 N235 1.317 . S
C233 H238 0.930 . S
C234 C233 1.333 . S
C234 N236 1.350 . S
C234 H260 0.931 . S
N235 Co231 2.148 . S
N235 C232 1.301 . S
N235 C233 1.317 . S
N236 C232 1.328 . S
N236 C234 1.350 . S
H237 C232 0.930 . S
H238 C233 0.930 . S
C239 O240 1.224 . S
C239 O258 1.247 . S
O240 C239 1.224 . S
N241 Co231 2.128 1_556 S
N241 C242 1.355 . S
N241 C244 1.311 . S
C242 N241 1.355 . S
C242 C243 1.363 . S
C242 H254 0.929 . S
C243 C242 1.363 . S
C243 N245 1.375 . S
C243 H261 0.931 . S
C244 N241 1.311 . S
C244 N245 1.347 . S
C244 H255 0.929 . S
N245 C243 1.375 . S
N245 C244 1.347 . S
C246 C249 1.365 . S
C246 N251 1.328 . S
C246 H252 0.929 . S
C247 C248 1.362 1_556 S
C247 C250 1.378 . S
C247 H262 0.929 . S
C248 C247 1.362 1_554 S
C248 C249 1.366 . S
C249 C246 1.365 . S
C249 C248 1.366 . S
C249 H263 0.930 . S
C250 C247 1.378 . S
C250 N251 1.315 1_556 S
C250 H253 0.930 . S
N251 Co231 2.194 . S
N251 C246 1.328 . S
N251 C250 1.315 1_554 S
H252 C246 0.929 . S
H253 C250 0.930 . S
H254 C242 0.929 . S
H255 C244 0.929 . S
O256 Co231 2.351 . S
O256 C259 1.244 . S
O257 Co231 2.155 . S
O257 C259 1.240 . S
O258 Co231 2.096 1_556 S
O258 C239 1.247 . S
C259 O256 1.244 . S
C259 O257 1.240 . S
H260 C234 0.931 . S
H261 C243 0.931 . S
H262 C247 0.929 . S
H263 C249 0.930 . S
C248 C17 1.321 . S
C149 C50 1.307 1_545 S
C182 C83 1.296 1_665 S
C215 C116 1.316 1_455 S
N5 N14 1.898 . S
N47 N38 1.896 . S
N71 N80 1.899 1_556 S
N113 N104 1.903 . S
N146 N137 1.893 . S
N179 N170 1.862 1_554 S
N212 N203 1.898 . S
N245 N236 1.928 . S
C226 C8 1.435 . S
C41 C259 1.454 . S
C160 C74 1.415 . S
C127 C193 1.405 . S
C173 C61 1.377 . S
C94 C206 1.394 . S
C239 C107 1.427 . S
C28 C140 1.412 . S
