# Generated by pormake.
# Topology sxb, (6)-cn, num edge types: 1
# Building blocks:
#     Node 0, Type 0, BuildingBlock: PAMTUU_clean_sbu_0, # of connection points: 6
#     Node 1, Type 0, BuildingBlock: PAMTUU_clean_sbu_0, # of connection points: 6
#     Node 2, Type 0, BuildingBlock: PAMTUU_clean_sbu_0, # of connection points: 6
#     Node 3, Type 0, BuildingBlock: PAMTUU_clean_sbu_0, # of connection points: 6
#     Edge 4, Type (0, 0), BuildingBlock: FUNLAD_clean_linker_0, # of connection points: 2
#     Edge 5, Type (0, 0), BuildingBlock: FUNLAD_clean_linker_0, # of connection points: 2
#     Edge 6, Type (0, 0), BuildingBlock: FUNLAD_clean_linker_0, # of connection points: 2
#     Edge 7, Type (0, 0), BuildingBlock: FUNLAD_clean_linker_0, # of connection points: 2
#     Edge 8, Type (0, 0), BuildingBlock: FUNLAD_clean_linker_0, # of connection points: 2
#     Edge 9, Type (0, 0), BuildingBlock: FUNLAD_clean_linker_0, # of connection points: 2
#     Edge 10, Type (0, 0), BuildingBlock: FUNLAD_clean_linker_0, # of connection points: 2
#     Edge 11, Type (0, 0), BuildingBlock: FUNLAD_clean_linker_0, # of connection points: 2
#     Edge 12, Type (0, 0), BuildingBlock: FUNLAD_clean_linker_0, # of connection points: 2
#     Edge 13, Type (0, 0), BuildingBlock: FUNLAD_clean_linker_0, # of connection points: 2
#     Edge 14, Type (0, 0), BuildingBlock: FUNLAD_clean_linker_0, # of connection points: 2
#     Edge 15, Type (0, 0), BuildingBlock: FUNLAD_clean_linker_0, # of connection points: 2
# Relax obj value: 0.090
# Max RMSD: 0.166
# Mean RMSD: 0.166
data_MOF--net-sxb--node1-PAMTUU_clean_sbu_0--edge1-FUNLAD_clean_linker_0
_symmetry_space_group_name_H-M    P1
_symmetry_Int_Tables_number       1
_symmetry_cell_setting            triclinic
loop_
_symmetry_equiv_pos_as_xyz
'x, y, z'
_cell_length_a     26.900796
_cell_length_b     22.043939
_cell_length_c     35.099153
_cell_angle_alpha  90.089812
_cell_angle_beta   98.95948
_cell_angle_gamma 89.930549
loop_
_atom_site_label
_atom_site_type_symbol
_atom_site_fract_x
_atom_site_fract_y
_atom_site_fract_z
_atom_type_partial_charge
Tb0 Tb 0.06395 0.0488 -0.00261 0.0
Tb1 Tb 0.97103 0.9481 0.98968 0.0
C2 C 1.01044 0.01323 0.0666 0.0
C3 C 0.19041 0.11363 -0.00396 0.0
C4 C 0.29242 0.09332 0.98876 0.0
C5 C 0.27839 0.14359 0.00956 0.0
C6 C 0.22789 0.15355 0.01318 0.0
C7 C 0.2039 0.06426 0.97451 0.0
C8 C 0.25433 0.05432 0.97079 0.0
C9 C 0.13837 0.12041 0.00375 0.0
O10 O 0.0982 0.96105 -0.0068 0.0
O11 O 0.03874 0.89714 0.01236 0.0
O12 O 1.00684 0.93234 0.93951 0.0
O13 O 0.04334 0.02654 0.93634 0.0
O14 O 0.92539 0.88925 0.01641 0.0
O15 O 0.90923 0.90704 0.95544 0.0
O16 O 0.94501 0.03165 0.96121 0.0
O17 O 0.99474 0.09952 -0.00126 0.0
O18 O 0.05397 0.02062 0.05492 0.0
O19 O 0.97 0.00037 0.04203 0.0
C20 C 0.08494 0.90856 0.00616 0.0
O21 O 0.10267 0.11922 0.97401 0.0
O22 O 0.12719 0.08684 0.03164 0.0
C23 C 0.02698 0.97462 0.92044 0.0
C24 C 0.84019 0.90044 0.98861 0.0
C25 C 0.73925 0.93262 -0.00749 0.0
C26 C 0.75314 0.87141 0.98901 0.0
C27 C 0.80313 0.85553 0.98703 0.0
C28 C 0.82674 0.96149 -0.00756 0.0
C29 C 0.77679 0.97744 -0.0057 0.0
C30 C 0.89246 0.88403 0.98513 0.0
C31 C 0.95254 0.08568 0.97635 0.0
H32 H 0.30657 0.17422 0.02417 0.0
H33 H 0.21828 0.19156 0.03024 0.0
H34 H 0.17554 0.03265 0.96124 0.0
H35 H 0.26346 0.01573 0.95404 0.0
H36 H 0.72519 0.83576 0.98705 0.0
H37 H 0.81274 0.80824 0.98388 0.0
H38 H 0.85488 -0.00312 -0.00623 0.0
H39 H 0.76768 0.02488 -0.00254 0.0
Tb40 Tb 0.99632 0.02884 0.49517 0.0
Tb41 Tb 0.08751 0.92641 0.49812 0.0
C42 C 0.04165 -0.00963 0.42248 0.0
C43 C 0.8673 0.08231 0.49539 0.0
C44 C 0.76631 0.04616 0.49471 0.0
C45 C 0.77795 0.09534 0.47209 0.0
C46 C 0.82799 0.11315 0.47241 0.0
C47 C 0.85581 0.03407 0.51862 0.0
C48 C 0.8059 0.0163 0.51836 0.0
C49 C 0.92006 0.09683 0.49236 0.0
O50 O 0.96432 0.94143 0.50343 0.0
O51 O 1.01788 0.8781 0.47708 0.0
O52 O 0.05811 0.9183 0.552 0.0
O53 O 0.02982 0.01626 0.55509 0.0
O54 O 0.12865 0.86458 0.46952 0.0
O55 O 0.14913 0.88186 0.53035 0.0
O56 O 0.12134 0.01206 0.51849 0.0
O57 O 0.06287 0.08149 0.49032 0.0
O58 O 0.9999 -0.00231 0.43686 0.0
O59 O 0.08385 0.97688 0.44481 0.0
C60 C 0.97346 0.89057 0.48644 0.0
O61 O 0.95302 0.0888 0.52328 0.0
O62 O 0.9361 0.07508 0.46203 0.0
C63 C 0.04467 0.96456 0.5717 0.0
C64 C 0.21488 0.8739 0.49433 0.0
C65 C 0.31491 0.90968 0.49117 0.0
C66 C 0.30432 0.85089 0.50338 0.0
C67 C 0.25467 0.83329 0.50514 0.0
C68 C 0.22515 0.93196 0.48119 0.0
C69 C 0.27462 0.94971 0.47966 0.0
C70 C 0.16326 0.85827 0.49972 0.0
C71 C 0.10887 0.06712 0.50625 0.0
H72 H 0.74857 0.11893 0.45318 0.0
H73 H 0.83608 0.15002 0.45395 0.0
H74 H 0.88551 0.00915 0.53639 0.0
H75 H 0.7984 0.97887 0.53658 0.0
H76 H 0.33452 0.81922 0.51281 0.0
H77 H 0.24748 0.78863 0.51586 0.0
H78 H 0.19492 0.96411 0.47288 0.0
H79 H 0.28133 -0.005 0.46966 0.0
Tb80 Tb 0.54462 0.50982 -0.00698 0.0
Tb81 Tb 0.45198 0.40904 0.98571 0.0
C82 C 0.51165 0.44889 0.06435 0.0
C83 C 0.67587 0.56137 0.00243 0.0
C84 C 0.77879 0.5303 0.0067 0.0
C85 C 0.76188 0.58976 -0.00281 0.0
C86 C 0.71093 0.60506 -0.00494 0.0
C87 C 0.69243 0.50215 0.01216 0.0
C88 C 0.74332 0.4868 0.01436 0.0
C89 C 0.62182 0.57649 -0.00234 0.0
O90 O 0.57287 0.42578 0.97356 0.0
O91 O 0.52103 0.35519 -0.00457 0.0
O92 O 0.4762 0.41834 0.92971 0.0
O93 O 0.49994 0.51771 0.93606 0.0
O94 O 0.41114 0.34169 0.01003 0.0
O95 O 0.38885 0.37103 0.95136 0.0
O96 O 0.41736 0.49814 0.97963 0.0
O97 O 0.4814 0.56047 0.00827 0.0
O98 O 0.55033 0.45919 0.04666 0.0
O99 O 0.4664 0.44221 0.04465 0.0
C100 C 0.5633 0.37021 0.98338 0.0
O101 O 0.59557 0.55878 0.96527 0.0
O102 O 0.59878 0.56432 0.02679 0.0
C103 C 0.48618 0.4703 0.91427 0.0
C104 C 0.32396 0.34883 0.98657 0.0
C105 C 0.22175 0.37026 -0.00724 0.0
C106 C 0.23719 0.31421 0.9791 0.0
C107 C 0.28778 0.30373 0.97595 0.0
C108 C 0.30912 0.40422 0.00109 0.0
C109 C 0.25856 0.41486 0.00415 0.0
C110 C 0.3762 0.33973 0.97979 0.0
C111 C 0.43345 0.54951 -0.00377 0.0
H112 H 0.78781 0.62427 0.99053 0.0
H113 H 0.6988 0.65081 0.98706 0.0
H114 H 0.66589 0.46758 0.01773 0.0
H115 H 0.75484 0.44085 0.02227 0.0
H116 H 0.21013 0.27849 0.97059 0.0
H117 H 0.29846 0.26078 0.96453 0.0
H118 H 0.33649 0.43978 0.00923 0.0
H119 H 0.24815 0.45879 0.01431 0.0
Tb120 Tb 0.48237 0.55411 0.4867 0.0
Tb121 Tb 0.57682 0.4552 0.50014 0.0
C122 C 0.52131 0.49013 0.41858 0.0
C123 C 0.35232 0.61469 0.47346 0.0
C124 C 0.24827 0.59098 0.46956 0.0
C125 C 0.26893 0.6467 0.48391 0.0
C126 C 0.32046 0.65832 0.48594 0.0
C127 C 0.33179 0.55966 0.45821 0.0
C128 C 0.28032 0.54785 0.45633 0.0
C129 C 0.4072 0.62477 0.4796 0.0
O130 O 0.44909 0.46807 0.49802 0.0
O131 O 0.51067 0.39756 0.48976 0.0
O132 O 0.54432 0.45877 0.55296 0.0
O133 O 0.52005 0.55792 0.54625 0.0
O134 O 0.62123 0.38822 0.47895 0.0
O135 O 0.64151 0.42451 0.5363 0.0
O136 O 0.60605 0.54571 0.51142 0.0
O137 O 0.54753 0.60224 0.47248 0.0
O138 O 0.48088 0.50282 0.43371 0.0
O139 O 0.56547 0.48523 0.44036 0.0
C140 C 0.46412 0.41206 0.49343 0.0
O141 O 0.43091 0.6056 0.51254 0.0
O142 O 0.43118 0.61027 0.45134 0.0
C143 C 0.53097 0.50972 0.56793 0.0
C144 C 0.70751 0.40484 0.50153 0.0
C145 C 0.80706 0.43266 0.49081 0.0
C146 C 0.796 0.37757 0.50801 0.0
C147 C 0.74671 0.36391 0.51338 0.0
C148 C 0.7181 0.45953 0.48398 0.0
C149 C 0.76738 0.4734 0.47874 0.0
C150 C 0.65619 0.39189 0.50913 0.0
C151 C 0.59386 0.59329 0.48971 0.0
H152 H 0.24557 0.68057 0.4948 0.0
H153 H 0.33564 0.70083 0.49815 0.0
H154 H 0.35578 0.52542 0.44838 0.0
H155 H 0.26567 0.50481 0.44465 0.0
H156 H 0.82562 0.34549 0.51815 0.0
H157 H 0.73933 0.32169 0.52724 0.0
H158 H 0.68826 0.49172 0.47459 0.0
H159 H 0.77429 0.51587 0.46501 0.0
C160 C 0.34441 0.58567 0.98798 0.0
C161 C 0.39553 0.59556 0.0023 0.0
C162 C 0.30805 0.6278 -0.00537 0.0
C163 C 0.32194 0.68069 0.01612 0.0
C164 C 0.37305 0.69082 0.03015 0.0
C165 C 0.40951 0.64865 0.02343 0.0
C166 C 0.28485 0.72833 0.0219 0.0
C167 C 0.23482 0.71871 0.01798 0.0
C168 C 0.19772 0.76863 0.01784 0.0
C169 C 0.1488 0.75547 0.02474 0.0
C170 C 0.11201 0.80093 0.02182 0.0
C171 C 0.12355 0.86028 0.0116 0.0
H172 H 0.24562 0.84016 0.0009 0.0
C173 C 0.17268 0.87339 0.00513 0.0
C174 C 0.20915 0.82821 0.00793 0.0
H175 H 0.18304 0.91851 -0.00296 0.0
H176 H 0.33226 0.54546 0.97134 0.0
H177 H 0.26942 0.61912 0.98202 0.0
H178 H 0.38487 0.73159 0.04634 0.0
H179 H 0.44855 0.6576 0.03495 0.0
H180 H 0.29976 0.77321 0.02952 0.0
H181 H 0.22007 0.67292 0.01431 0.0
H182 H 0.13884 0.70975 0.03196 0.0
H183 H 0.07448 0.78933 0.02688 0.0
C184 C 0.63906 0.33792 0.95703 0.0
C185 C 0.60325 0.32528 0.98106 0.0
C186 C 0.68219 0.30288 0.95872 0.0
C187 C 0.69041 0.25346 0.98413 0.0
C188 C 0.6538 0.23923 0.00727 0.0
C189 C 0.61019 0.27471 0.00557 0.0
C190 C 0.73857 0.21957 0.98868 0.0
C191 C 0.76605 0.21516 0.95988 0.0
C192 C 0.816 0.18605 0.96437 0.0
C193 C 0.83011 0.15579 0.93262 0.0
C194 C 0.87622 0.12598 0.93604 0.0
C195 C 0.90958 0.12734 0.97099 0.0
H196 H 0.84077 0.21427 0.02361 0.0
C197 C 0.89695 0.16062 0.0022 0.0
C198 C 0.8502 0.18957 -0.00099 0.0
H199 H 0.92195 0.16155 0.02956 0.0
H200 H 0.63484 0.37665 0.93781 0.0
H201 H 0.71 0.31671 0.94129 0.0
H202 H 0.65949 0.20154 0.02725 0.0
H203 H 0.58336 0.26443 0.02467 0.0
H204 H 0.75156 0.19781 0.0162 0.0
H205 H 0.7506 0.23108 0.93119 0.0
H206 H 0.80466 0.15337 0.9055 0.0
H207 H 0.8852 0.10028 0.91165 0.0
C208 C 0.19948 0.09583 0.52064 0.0
C209 C 0.14901 0.11307 0.50911 0.0
C210 C 0.23811 0.13784 0.52077 0.0
C211 C 0.22699 0.19802 0.50945 0.0
C212 C 0.17657 0.21587 0.49939 0.0
C213 C 0.13786 0.17367 0.4989 0.0
C214 C 0.26691 0.24343 0.50802 0.0
C215 C 0.31283 0.22918 0.49986 0.0
C216 C 0.35148 0.27571 0.49638 0.0
C217 C 0.40265 0.25962 0.50323 0.0
C218 C 0.43981 0.30346 0.50151 0.0
C219 C 0.42612 0.36398 0.49293 0.0
H220 H 0.29916 0.34944 0.4783 0.0
C221 C 0.37494 0.37931 0.48456 0.0
C222 C 0.33806 0.3357 0.48585 0.0
H223 H 0.36313 0.42522 0.47692 0.0
H224 H 0.20942 0.04959 0.52903 0.0
H225 H 0.27648 0.12303 0.52996 0.0
H226 H 0.16717 0.26227 0.49097 0.0
H227 H 0.09936 0.18842 0.49012 0.0
H228 H 0.25703 0.29037 0.51247 0.0
H229 H 0.32276 0.18213 0.49569 0.0
H230 H 0.41389 0.2134 0.51073 0.0
H231 H 0.47904 0.29035 0.50785 0.0
C232 C 0.88226 0.86861 0.47882 0.0
C233 C 0.93134 0.84756 0.4778 0.0
C234 C 0.84163 0.82927 0.47277 0.0
C235 C 0.84881 0.7676 0.46506 0.0
C236 C 0.89776 0.74647 0.46326 0.0
C237 C 0.9388 0.7863 0.46928 0.0
C238 C 0.80678 0.72388 0.46335 0.0
C239 C 0.75809 0.74088 0.45572 0.0
C240 C 0.71631 0.70207 0.46407 0.0
C241 C 0.66708 0.71399 0.44566 0.0
C242 C 0.62662 0.67996 0.45462 0.0
C243 C 0.63483 0.63397 0.48252 0.0
H244 H 0.7611 0.64821 0.50879 0.0
C245 C 0.68394 0.62345 0.50172 0.0
C246 C 0.72416 0.65704 0.49266 0.0
H247 H 0.69165 0.58871 0.52365 0.0
H248 H 0.87502 0.91567 0.48491 0.0
H249 H 0.80507 0.84735 0.47586 0.0
H250 H 0.90434 0.69892 0.45793 0.0
H251 H 0.97625 0.7689 0.46829 0.0
H252 H 0.81645 0.67702 0.47067 0.0
H253 H 0.7482 0.78578 0.44429 0.0
H254 H 0.65998 0.74941 0.42412 0.0
H255 H 0.58922 0.68903 0.43929 0.0
C256 C 0.36473 0.02034 0.98912 0.0
C257 C 0.34658 0.08035 0.98703 0.0
C258 C 0.41558 0.0079 0.98825 0.0
C259 C 0.45 0.05532 0.9857 0.0
C260 C 0.43172 0.11521 0.98308 0.0
C261 C 0.38079 0.12763 0.98385 0.0
C262 C 0.50465 0.0443 0.98455 0.0
C263 C 0.52911 -0.00727 -0.00288 0.0
C264 C 0.58359 0.98025 -0.004 0.0
C265 C 0.60577 0.92927 0.01589 0.0
C266 C 0.6561 0.91413 0.01499 0.0
C267 C 0.68582 0.94956 -0.00595 0.0
H268 H 0.59807 0.05476 0.9585 0.0
C269 C 0.66387 0.0008 0.97424 0.0
C270 C 0.61339 0.01589 0.97503 0.0
H271 H 0.6854 0.02862 0.95732 0.0
H272 H 0.33973 0.9827 0.99193 0.0
H273 H 0.42728 0.96094 0.98913 0.0
H274 H 0.45701 0.15272 0.9806 0.0
H275 H 0.36819 0.17435 0.98158 0.0
H276 H 0.5254 0.0813 0.97418 0.0
H277 H 0.50879 0.95782 0.01005 0.0
H278 H 0.58403 0.90075 0.03227 0.0
H279 H 0.67182 0.87481 0.031 0.0
C280 C 0.40347 0.89186 0.47863 0.0
C281 C 0.36774 0.93011 0.4916 0.0
C282 C 0.45307 0.91146 0.47897 0.0
C283 C 0.46829 0.96976 0.4928 0.0
C284 C 0.43232 0.00781 0.50564 0.0
C285 C 0.38279 -0.01166 0.50508 0.0
C286 C 0.52053 -0.00639 0.49395 0.0
C287 C 0.56052 0.95988 0.48784 0.0
C288 C 0.61274 -0.01593 0.48968 0.0
C289 C 0.65278 0.94257 0.4919 0.0
C290 C 0.70236 0.96263 0.49355 0.0
C291 C 0.71336 0.02497 0.49298 0.0
H292 H 0.59427 0.08043 0.48567 0.0
C293 C 0.67333 0.06662 0.49029 0.0
C294 C 0.62365 0.04655 0.48848 0.0
H295 H 0.68037 0.11496 0.48988 0.0
H296 H 0.39287 0.84705 0.46755 0.0
H297 H 0.47869 0.88077 0.46788 0.0
H298 H 0.44256 0.05294 0.51636 0.0
H299 H 0.35641 0.01877 0.51572 0.0
H300 H 0.52609 0.04107 0.50152 0.0
H301 H 0.55584 0.91162 0.4826 0.0
H302 H 0.64575 0.8942 0.49239 0.0
H303 H 0.73202 0.9291 0.49474 0.0
C304 C 0.84689 0.45664 -0.00494 0.0
C305 C 0.83298 0.51363 0.00824 0.0
C306 C 0.89766 0.44109 -0.00361 0.0
C307 C 0.93605 0.48243 0.01066 0.0
C308 C 0.92208 0.53904 0.02419 0.0
C309 C 0.87136 0.55452 0.02294 0.0
C310 C 0.99085 0.46822 0.01289 0.0
C311 C 1.00929 0.42342 -0.00727 0.0
C312 C 0.06413 0.41037 -0.00593 0.0
C313 C 0.07928 0.3759 0.96417 0.0
C314 C 0.13011 0.36256 0.96392 0.0
C315 C 0.16737 0.383 -0.00621 0.0
H316 H 0.09148 0.45492 0.04871 0.0
C317 C 0.15223 0.41665 0.02412 0.0
C318 C 0.10131 0.43001 0.02438 0.0
H319 H 0.17972 0.43214 0.04801 0.0
H320 H 0.8185 0.42403 0.98329 0.0
H321 H 0.90629 0.39634 0.9866 0.0
H322 H 0.95059 0.57169 0.03574 0.0
H323 H 0.8623 0.59838 0.034 0.0
H324 H 1.01691 0.49809 0.03063 0.0
H325 H 0.98346 0.39656 0.97267 0.0
H326 H 0.05169 0.35975 0.94053 0.0
H327 H 0.14022 0.33718 0.93982 0.0
C328 C 0.17881 0.51957 0.48052 0.0
C329 C 0.19394 0.57724 0.46962 0.0
C330 C 0.12809 0.50711 0.48196 0.0
C331 C 0.09091 0.55198 0.47213 0.0
C332 C 0.10615 0.60958 0.46127 0.0
C333 C 0.15689 0.62208 0.45996 0.0
C334 C 0.03643 0.54166 0.47429 0.0
C335 C 1.0152 0.48624 0.47535 0.0
C336 C 0.96103 0.47521 0.47829 0.0
C337 C 0.94176 0.41629 0.47129 0.0
C338 C 0.89193 0.4027 0.47495 0.0
C339 C 0.85982 0.44769 0.48588 0.0
H340 H 0.94197 0.56611 0.49584 0.0
C341 C 0.87886 0.50683 0.49272 0.0
C342 C 0.92883 0.52044 0.48916 0.0
H343 H 0.85549 0.54244 0.50181 0.0
H344 H 0.20641 0.48433 0.48898 0.0
H345 H 0.11874 0.46271 0.49174 0.0
H346 H 0.07865 0.64527 0.45375 0.0
H347 H 0.16705 0.66688 0.45119 0.0
H348 H 1.01298 0.58177 0.47382 0.0
H349 H 0.03804 0.44627 0.47291 0.0
H350 H 0.96542 0.38034 0.46297 0.0
H351 H 0.87849 0.35685 0.46896 0.0
C352 C 0.99731 0.01571 0.35616 0.0
C353 C 0.04109 -0.00325 0.38044 0.0
C354 C 0.99676 0.02133 0.31641 0.0
C355 C 0.03999 0.00743 0.29998 0.0
C356 C 0.0838 -0.01087 0.32444 0.0
C357 C 0.08441 -0.01618 0.36415 0.0
C358 C 0.04176 0.01209 0.25785 0.0
C359 C 1.00092 0.01738 0.23036 0.0
C360 C 1.00384 0.0193 0.18836 0.0
C361 C 0.96122 0.00304 0.1619 0.0
C362 C 0.96295 0.00208 0.12229 0.0
C363 C 1.0074 0.01762 0.10825 0.0
H364 H 0.08082 0.05243 0.19321 0.0
C365 C 0.04955 0.03586 0.13458 0.0
C366 C 0.04774 0.03711 0.17412 0.0
H367 H 0.08417 0.04902 0.1247 0.0
H368 H 0.9634 0.02659 0.36785 0.0
H369 H 0.9625 0.03722 0.29908 0.0
H370 H 0.1178 0.97853 0.31278 0.0
H371 H 0.11885 0.96924 0.382 0.0
H372 H 0.07864 0.00797 0.24925 0.0
H373 H 0.96357 0.01669 0.23832 0.0
H374 H 0.92669 -0.01011 0.17194 0.0
H375 H 0.92968 -0.01186 0.10278 0.0
C376 C 0.06405 -0.00481 0.86067 0.0
C377 C 0.02823 0.96525 0.87898 0.0
C378 C 0.06302 -0.01071 0.82088 0.0
C379 C 0.02553 0.95421 0.79867 0.0
C380 C 0.98993 0.92414 0.81701 0.0
C381 C 0.99169 0.92884 0.85689 0.0
C382 C 1.02048 0.95215 0.7561 0.0
C383 C 0.06036 0.951 0.73731 0.0
C384 C 0.05455 0.95267 0.69469 0.0
C385 C 0.08686 0.91819 0.67547 0.0
C386 C 0.08276 0.92065 0.63528 0.0
C387 C 0.0473 0.95917 0.61383 0.0
H388 H 0.99386 0.0186 0.68732 0.0
C389 C 1.01531 -0.00588 0.63313 0.0
C390 C 1.01859 -0.00947 0.67316 0.0
H391 H 0.98767 0.02422 0.61727 0.0
H392 H 0.09257 0.02361 0.87704 0.0
H393 H 0.09036 0.01399 0.80737 0.0
H394 H 0.96047 0.89731 0.8004 0.0
H395 H 0.9633 0.90573 0.8702 0.0
H396 H 0.98269 0.94993 0.73977 0.0
H397 H 0.09811 0.9469 0.75346 0.0
H398 H 0.11512 0.88911 0.69156 0.0
H399 H 0.10818 0.89364 0.6211 0.0
C400 C 0.56033 0.47276 0.359 0.0
C401 C 0.51726 0.48314 0.3762 0.0
C402 C 0.55659 0.46721 0.31892 0.0
C403 C 0.50945 0.47167 0.29504 0.0
C404 C 0.46652 0.48191 0.31243 0.0
C405 C 0.47029 0.48752 0.35244 0.0
C406 C 0.50287 0.46747 0.25209 0.0
C407 C 0.53917 0.45097 0.23156 0.0
C408 C 0.53117 0.44875 0.18862 0.0
C409 C 0.5727 0.45621 0.16929 0.0
C410 C 0.56657 0.45568 0.12897 0.0
C411 C 0.51872 0.44705 0.10706 0.0
H412 H 0.45077 0.43023 0.18037 0.0
C413 C 0.47735 0.43787 0.1264 0.0
C414 C 0.48347 0.4385 0.16669 0.0
H415 H 0.44003 0.43041 0.11045 0.0
H416 H 0.59717 0.46939 0.37645 0.0
H417 H 0.59097 0.46033 0.30721 0.0
H418 H 0.42971 0.48574 0.29497 0.0
H419 H 0.43629 0.4955 0.36466 0.0
H420 H 0.466 0.47952 0.23672 0.0
H421 H 0.57672 0.44052 0.24609 0.0
H422 H 0.60995 0.46349 0.18542 0.0
H423 H 0.59932 0.46258 0.11503 0.0
C424 C 0.53801 0.46149 0.63328 0.0
C425 C 0.52723 0.51269 0.6096 0.0
C426 C 0.53267 0.46363 0.67227 0.0
C427 C 0.516 0.51703 0.68844 0.0
C428 C 0.50637 0.56853 0.66494 0.0
C429 C 0.51168 0.56638 0.62596 0.0
C430 C 0.50956 0.52131 0.72977 0.0
C431 C 0.50074 0.4728 0.75113 0.0
C432 C 0.49461 0.47573 0.79261 0.0
C433 C 0.47446 0.42509 0.80904 0.0
C434 C 0.47044 0.42401 0.84825 0.0
C435 C 0.48662 0.47365 0.87214 0.0
H436 H 0.52717 0.56529 0.80551 0.0
C437 C 0.50604 0.52485 0.85571 0.0
C438 C 0.51027 0.52584 0.81647 0.0
H439 H 0.51934 0.56365 0.87336 0.0
H440 H 0.55051 0.41954 0.62173 0.0
H441 H 0.54229 0.42355 0.6896 0.0
H442 H 0.49405 0.61047 0.67666 0.0
H443 H 0.50319 0.60677 0.60862 0.0
H444 H 0.50984 0.56645 0.74213 0.0
H445 H 0.49623 0.42852 0.73745 0.0
H446 H 0.46224 0.38572 0.79154 0.0
H447 H 0.45534 0.38377 0.85991 0.0
loop_
_geom_bond_atom_site_label_1
_geom_bond_atom_site_label_2
_geom_bond_distance
_geom_bond_site_symmetry_2
_ccdc_geom_bond_type
Tb0 C9 2.764 . S
Tb0 O10 2.325 1_545 S
Tb0 O13 2.303 1_554 S
Tb0 O17 2.322 1_455 S
Tb0 O18 2.349 . S
Tb0 O21 2.415 1_554 S
Tb0 O22 2.399 . S
Tb1 O11 2.322 1_655 S
Tb1 O12 2.349 . S
Tb1 O14 2.415 1_556 S
Tb1 O15 2.399 . S
Tb1 O16 2.325 1_565 S
Tb1 O19 2.303 1_556 S
Tb1 C30 2.764 . S
C2 O18 1.261 . S
C2 O19 1.257 1_445 S
C3 C6 1.358 . S
C3 C7 1.332 1_554 S
C3 C9 1.504 . S
C4 C5 1.373 . S
C4 C8 1.308 1_554 S
C5 C4 1.373 . S
C5 C6 1.429 . S
C5 H32 0.932 . S
C6 C3 1.358 . S
C6 C5 1.429 . S
C6 H33 0.930 . S
C7 C3 1.332 1_556 S
C7 C8 1.394 . S
C7 H34 0.932 . S
C8 C4 1.308 1_556 S
C8 C7 1.394 . S
C8 H35 0.929 . S
C9 Tb0 2.764 . S
C9 C3 1.504 . S
C9 O21 1.239 1_554 S
C9 O22 1.263 . S
O10 Tb0 2.325 1_565 S
O10 C20 1.236 . S
O11 Tb1 2.322 1_455 S
O11 C20 1.257 1_556 S
O12 Tb1 2.349 . S
O12 C23 1.261 . S
O13 Tb0 2.303 1_556 S
O13 C23 1.257 1_445 S
O14 Tb1 2.415 1_554 S
O14 C30 1.239 1_554 S
O15 Tb1 2.399 . S
O15 C30 1.263 . S
O16 Tb1 2.325 1_545 S
O16 C31 1.236 . S
O17 Tb0 2.322 1_655 S
O17 C31 1.257 1_554 S
O18 Tb0 2.349 . S
O18 C2 1.261 . S
O19 Tb1 2.303 1_554 S
O19 C2 1.257 1_665 S
C20 O10 1.236 . S
C20 O11 1.257 1_554 S
O21 Tb0 2.415 1_556 S
O21 C9 1.239 1_556 S
O22 Tb0 2.399 . S
O22 C9 1.263 . S
C23 O12 1.261 . S
C23 O13 1.257 1_665 S
C24 C27 1.358 . S
C24 C28 1.332 1_556 S
C24 C30 1.504 . S
C25 C26 1.384 . S
C25 C29 1.300 1_556 S
C26 C25 1.384 . S
C26 C27 1.429 . S
C26 H36 0.932 . S
C27 C24 1.358 . S
C27 C26 1.429 . S
C27 H37 0.930 . S
C28 C24 1.332 1_554 S
C28 C29 1.394 . S
C28 H38 0.932 . S
C29 C25 1.300 1_554 S
C29 C28 1.394 . S
C29 H39 0.929 . S
C30 Tb1 2.764 . S
C30 O14 1.239 1_556 S
C30 O15 1.263 . S
C30 C24 1.504 . S
C31 O16 1.236 . S
C31 O17 1.257 1_556 S
H32 C5 0.932 . S
H33 C6 0.930 . S
H34 C7 0.932 . S
H35 C8 0.929 . S
H36 C26 0.932 . S
H37 C27 0.930 . S
H38 C28 0.932 . S
H39 C29 0.929 . S
Tb40 C49 2.764 . S
Tb40 O50 2.325 1_545 S
Tb40 O53 2.303 . S
Tb40 O57 2.322 1_655 S
Tb40 O58 2.349 . S
Tb40 O61 2.415 . S
Tb40 O62 2.399 . S
Tb41 O51 2.322 1_455 S
Tb41 O52 2.349 . S
Tb41 O54 2.415 . S
Tb41 O55 2.399 . S
Tb41 O56 2.325 1_565 S
Tb41 O59 2.303 . S
Tb41 C70 2.764 . S
C42 O58 1.261 . S
C42 O59 1.257 1_645 S
C43 C46 1.358 . S
C43 C47 1.332 . S
C43 C49 1.504 . S
C44 C45 1.373 . S
C44 C48 1.308 . S
C45 C44 1.373 . S
C45 C46 1.429 . S
C45 H72 0.932 . S
C46 C43 1.358 . S
C46 C45 1.429 . S
C46 H73 0.930 . S
C47 C43 1.332 . S
C47 C48 1.394 . S
C47 H74 0.932 . S
C48 C44 1.308 . S
C48 C47 1.394 . S
C48 H75 0.929 . S
C49 Tb40 2.764 . S
C49 C43 1.504 . S
C49 O61 1.239 . S
C49 O62 1.263 . S
O50 Tb40 2.325 1_565 S
O50 C60 1.236 . S
O51 Tb41 2.322 1_655 S
O51 C60 1.257 . S
O52 Tb41 2.349 . S
O52 C63 1.261 . S
O53 Tb40 2.303 . S
O53 C63 1.257 1_645 S
O54 Tb41 2.415 . S
O54 C70 1.239 . S
O55 Tb41 2.399 . S
O55 C70 1.263 . S
O56 Tb41 2.325 1_545 S
O56 C71 1.236 . S
O57 Tb40 2.322 1_455 S
O57 C71 1.257 . S
O58 Tb40 2.349 . S
O58 C42 1.261 . S
O59 Tb41 2.303 . S
O59 C42 1.257 1_465 S
C60 O50 1.236 . S
C60 O51 1.257 . S
O61 Tb40 2.415 . S
O61 C49 1.239 . S
O62 Tb40 2.399 . S
O62 C49 1.263 . S
C63 O52 1.261 . S
C63 O53 1.257 1_465 S
C64 C67 1.358 . S
C64 C68 1.332 . S
C64 C70 1.504 . S
C65 C66 1.373 . S
C65 C69 1.308 . S
C66 C65 1.373 . S
C66 C67 1.429 . S
C66 H76 0.932 . S
C67 C64 1.358 . S
C67 C66 1.429 . S
C67 H77 0.930 . S
C68 C64 1.332 . S
C68 C69 1.394 . S
C68 H78 0.932 . S
C69 C65 1.308 . S
C69 C68 1.394 . S
C69 H79 0.929 . S
C70 Tb41 2.764 . S
C70 O54 1.239 . S
C70 O55 1.263 . S
C70 C64 1.504 . S
C71 O56 1.236 . S
C71 O57 1.257 . S
H72 C45 0.932 . S
H73 C46 0.930 . S
H74 C47 0.932 . S
H75 C48 0.929 . S
H76 C66 0.932 . S
H77 C67 0.930 . S
H78 C68 0.932 . S
H79 C69 0.929 . S
Tb80 C89 2.764 . S
Tb80 O90 2.325 . S
Tb80 O93 2.303 1_554 S
Tb80 O97 2.322 . S
Tb80 O98 2.349 . S
Tb80 O101 2.415 1_554 S
Tb80 O102 2.399 . S
Tb81 O91 2.322 . S
Tb81 O92 2.349 . S
Tb81 O94 2.415 1_556 S
Tb81 O95 2.399 . S
Tb81 O96 2.325 . S
Tb81 O99 2.303 1_556 S
Tb81 C110 2.764 . S
C82 O98 1.261 . S
C82 O99 1.257 . S
C83 C86 1.358 . S
C83 C87 1.332 1_554 S
C83 C89 1.504 . S
C84 C85 1.373 . S
C84 C88 1.308 1_554 S
C85 C84 1.373 . S
C85 C86 1.429 . S
C85 H112 0.932 . S
C86 C83 1.358 . S
C86 C85 1.429 . S
C86 H113 0.930 . S
C87 C83 1.332 1_556 S
C87 C88 1.394 . S
C87 H114 0.932 . S
C88 C84 1.308 1_556 S
C88 C87 1.394 . S
C88 H115 0.929 . S
C89 Tb80 2.764 . S
C89 C83 1.504 . S
C89 O101 1.239 1_554 S
C89 O102 1.263 . S
O90 Tb80 2.325 . S
O90 C100 1.236 . S
O91 Tb81 2.322 . S
O91 C100 1.257 1_556 S
O92 Tb81 2.349 . S
O92 C103 1.261 . S
O93 Tb80 2.303 1_556 S
O93 C103 1.257 . S
O94 Tb81 2.415 1_554 S
O94 C110 1.239 1_554 S
O95 Tb81 2.399 . S
O95 C110 1.263 . S
O96 Tb81 2.325 . S
O96 C111 1.236 . S
O97 Tb80 2.322 . S
O97 C111 1.257 1_554 S
O98 Tb80 2.349 . S
O98 C82 1.261 . S
O99 Tb81 2.303 1_554 S
O99 C82 1.257 . S
C100 O90 1.236 . S
C100 O91 1.257 1_554 S
O101 Tb80 2.415 1_556 S
O101 C89 1.239 1_556 S
O102 Tb80 2.399 . S
O102 C89 1.263 . S
C103 O92 1.261 . S
C103 O93 1.257 . S
C104 C107 1.358 . S
C104 C108 1.332 1_556 S
C104 C110 1.504 . S
C105 C106 1.384 . S
C105 C109 1.300 1_556 S
C106 C105 1.384 . S
C106 C107 1.429 . S
C106 H116 0.932 . S
C107 C104 1.358 . S
C107 C106 1.429 . S
C107 H117 0.930 . S
C108 C104 1.332 1_554 S
C108 C109 1.394 . S
C108 H118 0.932 . S
C109 C105 1.300 1_554 S
C109 C108 1.394 . S
C109 H119 0.929 . S
C110 Tb81 2.764 . S
C110 O94 1.239 1_556 S
C110 O95 1.263 . S
C110 C104 1.504 . S
C111 O96 1.236 . S
C111 O97 1.257 1_556 S
H112 C85 0.932 . S
H113 C86 0.930 . S
H114 C87 0.932 . S
H115 C88 0.929 . S
H116 C106 0.932 . S
H117 C107 0.930 . S
H118 C108 0.932 . S
H119 C109 0.929 . S
Tb120 C129 2.764 . S
Tb120 O130 2.325 . S
Tb120 O133 2.303 . S
Tb120 O137 2.322 . S
Tb120 O138 2.349 . S
Tb120 O141 2.415 . S
Tb120 O142 2.399 . S
Tb121 O131 2.322 . S
Tb121 O132 2.349 . S
Tb121 O134 2.415 . S
Tb121 O135 2.399 . S
Tb121 O136 2.325 . S
Tb121 O139 2.303 . S
Tb121 C150 2.764 . S
C122 O138 1.261 . S
C122 O139 1.257 . S
C123 C126 1.358 . S
C123 C127 1.332 . S
C123 C129 1.504 . S
C124 C125 1.373 . S
C124 C128 1.308 . S
C125 C124 1.373 . S
C125 C126 1.429 . S
C125 H152 0.932 . S
C126 C123 1.358 . S
C126 C125 1.429 . S
C126 H153 0.930 . S
C127 C123 1.332 . S
C127 C128 1.394 . S
C127 H154 0.932 . S
C128 C124 1.308 . S
C128 C127 1.394 . S
C128 H155 0.929 . S
C129 Tb120 2.764 . S
C129 C123 1.504 . S
C129 O141 1.239 . S
C129 O142 1.263 . S
O130 Tb120 2.325 . S
O130 C140 1.236 . S
O131 Tb121 2.322 . S
O131 C140 1.257 . S
O132 Tb121 2.349 . S
O132 C143 1.261 . S
O133 Tb120 2.303 . S
O133 C143 1.257 . S
O134 Tb121 2.415 . S
O134 C150 1.239 . S
O135 Tb121 2.399 . S
O135 C150 1.263 . S
O136 Tb121 2.325 . S
O136 C151 1.236 . S
O137 Tb120 2.322 . S
O137 C151 1.257 . S
O138 Tb120 2.349 . S
O138 C122 1.261 . S
O139 Tb121 2.303 . S
O139 C122 1.257 . S
C140 O130 1.236 . S
C140 O131 1.257 . S
O141 Tb120 2.415 . S
O141 C129 1.239 . S
O142 Tb120 2.399 . S
O142 C129 1.263 . S
C143 O132 1.261 . S
C143 O133 1.257 . S
C144 C147 1.358 . S
C144 C148 1.332 . S
C144 C150 1.504 . S
C145 C146 1.373 . S
C145 C149 1.308 . S
C146 C145 1.373 . S
C146 C147 1.429 . S
C146 H156 0.932 . S
C147 C144 1.358 . S
C147 C146 1.429 . S
C147 H157 0.930 . S
C148 C144 1.332 . S
C148 C149 1.394 . S
C148 H158 0.932 . S
C149 C145 1.308 . S
C149 C148 1.394 . S
C149 H159 0.929 . S
C150 Tb121 2.764 . S
C150 O134 1.239 . S
C150 O135 1.263 . S
C150 C144 1.504 . S
C151 O136 1.236 . S
C151 O137 1.257 . S
H152 C125 0.932 . S
H153 C126 0.930 . S
H154 C127 0.932 . S
H155 C128 0.929 . S
H156 C146 0.932 . S
H157 C147 0.930 . S
H158 C148 0.932 . S
H159 C149 0.929 . S
C160 C161 1.386 1_556 S
C160 C162 1.383 . S
C160 H176 0.951 . S
C161 C160 1.386 1_554 S
C161 C165 1.383 . S
C162 C160 1.383 . S
C162 C163 1.402 1_556 S
C162 H177 0.951 . S
C163 C162 1.402 1_554 S
C163 C164 1.375 . S
C163 C166 1.481 . S
C164 C163 1.375 . S
C164 C165 1.367 . S
C164 H178 0.951 . S
C165 C161 1.383 . S
C165 C164 1.367 . S
C165 H179 0.950 . S
C166 C163 1.481 . S
C166 C167 1.297 1_554 S
C166 H180 0.950 . S
C167 C166 1.297 1_556 S
C167 C168 1.479 . S
C167 H181 0.950 . S
C168 C167 1.479 . S
C168 C169 1.375 . S
C168 C174 1.404 1_556 S
C169 C168 1.375 . S
C169 C170 1.369 . S
C169 H182 0.950 . S
C170 C169 1.369 . S
C170 C171 1.392 . S
C170 H183 0.951 . S
C171 C170 1.392 . S
C171 C173 1.384 1_556 S
H172 C174 0.949 . S
C173 C171 1.384 1_554 S
C173 C174 1.385 . S
C173 H175 0.950 . S
C174 C168 1.404 1_554 S
C174 H172 0.949 . S
C174 C173 1.385 . S
H175 C173 0.950 . S
H176 C160 0.951 . S
H177 C162 0.951 . S
H178 C164 0.951 . S
H179 C165 0.950 . S
H180 C166 0.950 . S
H181 C167 0.950 . S
H182 C169 0.950 . S
H183 C170 0.951 . S
C184 C185 1.389 . S
C184 C186 1.383 . S
C184 H200 0.951 . S
C185 C184 1.389 . S
C185 C189 1.380 1_556 S
C186 C184 1.383 . S
C186 C187 1.402 1_556 S
C186 H201 0.951 . S
C187 C186 1.402 1_554 S
C187 C188 1.375 . S
C187 C190 1.481 . S
C188 C187 1.375 . S
C188 C189 1.367 . S
C188 H202 0.951 . S
C189 C185 1.380 1_554 S
C189 C188 1.367 . S
C189 H203 0.950 . S
C190 C187 1.481 . S
C190 C191 1.297 1_554 S
C190 H204 0.950 . S
C191 C190 1.297 1_556 S
C191 C192 1.479 . S
C191 H205 0.950 . S
C192 C191 1.479 . S
C192 C193 1.375 . S
C192 C198 1.404 1_556 S
C193 C192 1.375 . S
C193 C194 1.369 . S
C193 H206 0.950 . S
C194 C193 1.369 . S
C194 C195 1.392 . S
C194 H207 0.951 . S
C195 C194 1.392 . S
C195 C197 1.384 1_556 S
H196 C198 0.949 . S
C197 C195 1.384 1_554 S
C197 C198 1.385 . S
C197 H199 0.950 . S
C198 C192 1.404 1_554 S
C198 H196 0.949 . S
C198 C197 1.385 . S
H199 C197 0.950 . S
H200 C184 0.951 . S
H201 C186 0.951 . S
H202 C188 0.951 . S
H203 C189 0.950 . S
H204 C190 0.950 . S
H205 C191 0.950 . S
H206 C193 0.950 . S
H207 C194 0.951 . S
C208 C209 1.386 . S
C208 C210 1.383 . S
C208 H224 0.951 . S
C209 C208 1.386 . S
C209 C213 1.383 . S
C210 C208 1.383 . S
C210 C211 1.402 . S
C210 H225 0.951 . S
C211 C210 1.402 . S
C211 C212 1.375 . S
C211 C214 1.481 . S
C212 C211 1.375 . S
C212 C213 1.367 . S
C212 H226 0.951 . S
C213 C209 1.383 . S
C213 C212 1.367 . S
C213 H227 0.950 . S
C214 C211 1.481 . S
C214 C215 1.297 . S
C214 H228 0.950 . S
C215 C214 1.297 . S
C215 C216 1.479 . S
C215 H229 0.950 . S
C216 C215 1.479 . S
C216 C217 1.375 . S
C216 C222 1.404 . S
C217 C216 1.375 . S
C217 C218 1.369 . S
C217 H230 0.950 . S
C218 C217 1.369 . S
C218 C219 1.392 . S
C218 H231 0.951 . S
C219 C218 1.392 . S
C219 C221 1.384 . S
H220 C222 0.949 . S
C221 C219 1.384 . S
C221 C222 1.385 . S
C221 H223 0.950 . S
C222 C216 1.404 . S
C222 H220 0.949 . S
C222 C221 1.385 . S
H223 C221 0.950 . S
H224 C208 0.951 . S
H225 C210 0.951 . S
H226 C212 0.951 . S
H227 C213 0.950 . S
H228 C214 0.950 . S
H229 C215 0.950 . S
H230 C217 0.950 . S
H231 C218 0.951 . S
C232 C233 1.386 . S
C232 C234 1.383 . S
C232 H248 0.951 . S
C233 C232 1.386 . S
C233 C237 1.383 . S
C234 C232 1.383 . S
C234 C235 1.402 . S
C234 H249 0.951 . S
C235 C234 1.402 . S
C235 C236 1.375 . S
C235 C238 1.481 . S
C236 C235 1.375 . S
C236 C237 1.367 . S
C236 H250 0.951 . S
C237 C233 1.383 . S
C237 C236 1.367 . S
C237 H251 0.950 . S
C238 C235 1.481 . S
C238 C239 1.297 . S
C238 H252 0.950 . S
C239 C238 1.297 . S
C239 C240 1.479 . S
C239 H253 0.950 . S
C240 C239 1.479 . S
C240 C241 1.375 . S
C240 C246 1.404 . S
C241 C240 1.375 . S
C241 C242 1.369 . S
C241 H254 0.950 . S
C242 C241 1.369 . S
C242 C243 1.392 . S
C242 H255 0.951 . S
C243 C242 1.392 . S
C243 C245 1.384 . S
H244 C246 0.949 . S
C245 C243 1.384 . S
C245 C246 1.385 . S
C245 H247 0.950 . S
C246 C240 1.404 . S
C246 H244 0.949 . S
C246 C245 1.385 . S
H247 C245 0.950 . S
H248 C232 0.951 . S
H249 C234 0.951 . S
H250 C236 0.951 . S
H251 C237 0.950 . S
H252 C238 0.950 . S
H253 C239 0.950 . S
H254 C241 0.950 . S
H255 C242 0.951 . S
C256 C257 1.386 1_556 S
C256 C258 1.383 . S
C256 H272 0.951 . S
C257 C256 1.386 1_554 S
C257 C261 1.383 . S
C258 C256 1.383 . S
C258 C259 1.402 1_556 S
C258 H273 0.951 1_545 S
C259 C258 1.402 1_554 S
C259 C260 1.375 . S
C259 C262 1.481 . S
C260 C259 1.375 . S
C260 C261 1.367 . S
C260 H274 0.951 . S
C261 C257 1.383 . S
C261 C260 1.367 . S
C261 H275 0.950 . S
C262 C259 1.481 . S
C262 C263 1.297 1_554 S
C262 H276 0.950 . S
C263 C262 1.297 1_556 S
C263 C264 1.479 1_545 S
C263 H277 0.950 1_545 S
C264 C263 1.479 1_565 S
C264 C265 1.375 . S
C264 C270 1.404 1_566 S
C265 C264 1.375 . S
C265 C266 1.369 . S
C265 H278 0.950 . S
C266 C265 1.369 . S
C266 C267 1.392 . S
C266 H279 0.951 . S
C267 C266 1.392 . S
C267 C269 1.384 1_556 S
H268 C270 0.949 . S
C269 C267 1.384 1_554 S
C269 C270 1.385 1_565 S
C269 H271 0.950 . S
C270 C264 1.404 1_544 S
C270 H268 0.949 . S
C270 C269 1.385 1_545 S
H271 C269 0.950 . S
H272 C256 0.951 . S
H273 C258 0.951 1_565 S
H274 C260 0.951 . S
H275 C261 0.950 . S
H276 C262 0.950 . S
H277 C263 0.950 1_565 S
H278 C265 0.950 . S
H279 C266 0.951 . S
C280 C281 1.386 . S
C280 C282 1.383 . S
C280 H296 0.951 . S
C281 C280 1.386 . S
C281 C285 1.383 . S
C282 C280 1.383 . S
C282 C283 1.402 . S
C282 H297 0.951 . S
C283 C282 1.402 . S
C283 C284 1.375 1_565 S
C283 C286 1.481 1_565 S
C284 C283 1.375 1_545 S
C284 C285 1.367 1_545 S
C284 H298 0.951 . S
C285 C281 1.383 . S
C285 C284 1.367 1_565 S
C285 H299 0.950 1_565 S
C286 C283 1.481 1_545 S
C286 C287 1.297 1_545 S
C286 H300 0.950 . S
C287 C286 1.297 1_565 S
C287 C288 1.479 1_565 S
C287 H301 0.950 . S
C288 C287 1.479 1_545 S
C288 C289 1.375 1_545 S
C288 C294 1.404 . S
C289 C288 1.375 1_565 S
C289 C290 1.369 1_565 S
C289 H302 0.950 . S
C290 C289 1.369 1_545 S
C290 C291 1.392 . S
C290 H303 0.951 1_545 S
C291 C290 1.392 . S
C291 C293 1.384 . S
H292 C294 0.949 . S
C293 C291 1.384 . S
C293 C294 1.385 . S
C293 H295 0.950 . S
C294 C288 1.404 . S
C294 H292 0.949 . S
C294 C293 1.385 . S
H295 C293 0.950 . S
H296 C280 0.951 . S
H297 C282 0.951 . S
H298 C284 0.951 . S
H299 C285 0.950 1_545 S
H300 C286 0.950 . S
H301 C287 0.950 . S
H302 C289 0.950 . S
H303 C290 0.951 1_565 S
C304 C305 1.386 1_556 S
C304 C306 1.383 . S
C304 H320 0.951 . S
C305 C304 1.386 1_554 S
C305 C309 1.383 . S
C306 C304 1.383 . S
C306 C307 1.402 1_556 S
C306 H321 0.951 . S
C307 C306 1.402 1_554 S
C307 C308 1.375 . S
C307 C310 1.481 . S
C308 C307 1.375 . S
C308 C309 1.367 . S
C308 H322 0.951 . S
C309 C305 1.383 . S
C309 C308 1.367 . S
C309 H323 0.950 . S
C310 C307 1.481 . S
C310 C311 1.297 1_655 S
C310 H324 0.950 . S
C311 C310 1.297 1_455 S
C311 C312 1.479 . S
C311 H325 0.950 1_554 S
C312 C311 1.479 . S
C312 C313 1.375 1_554 S
C312 C318 1.404 . S
C313 C312 1.375 1_556 S
C313 C314 1.369 . S
C313 H326 0.950 . S
C314 C313 1.369 . S
C314 C315 1.392 1_556 S
C314 H327 0.951 . S
C315 C314 1.392 1_554 S
C315 C317 1.384 . S
H316 C318 0.949 . S
C317 C315 1.384 . S
C317 C318 1.385 . S
C317 H319 0.950 . S
C318 C312 1.404 . S
C318 H316 0.949 . S
C318 C317 1.385 . S
H319 C317 0.950 . S
H320 C304 0.951 . S
H321 C306 0.951 . S
H322 C308 0.951 . S
H323 C309 0.950 . S
H324 C310 0.950 . S
H325 C311 0.950 1_556 S
H326 C313 0.950 . S
H327 C314 0.951 . S
C328 C329 1.386 . S
C328 C330 1.383 . S
C328 H344 0.951 . S
C329 C328 1.386 . S
C329 C333 1.383 . S
C330 C328 1.383 . S
C330 C331 1.402 . S
C330 H345 0.951 . S
C331 C330 1.402 . S
C331 C332 1.375 . S
C331 C334 1.481 . S
C332 C331 1.375 . S
C332 C333 1.367 . S
C332 H346 0.951 . S
C333 C329 1.383 . S
C333 C332 1.367 . S
C333 H347 0.950 . S
C334 C331 1.481 . S
C334 C335 1.297 1_455 S
C334 H348 0.950 1_455 S
C335 C334 1.297 1_655 S
C335 C336 1.479 . S
C335 H349 0.950 1_655 S
C336 C335 1.479 . S
C336 C337 1.375 . S
C336 C342 1.404 . S
C337 C336 1.375 . S
C337 C338 1.369 . S
C337 H350 0.950 . S
C338 C337 1.369 . S
C338 C339 1.392 . S
C338 H351 0.951 . S
C339 C338 1.392 . S
C339 C341 1.384 . S
H340 C342 0.949 . S
C341 C339 1.384 . S
C341 C342 1.385 . S
C341 H343 0.950 . S
C342 C336 1.404 . S
C342 H340 0.949 . S
C342 C341 1.385 . S
H343 C341 0.950 . S
H344 C328 0.951 . S
H345 C330 0.951 . S
H346 C332 0.951 . S
H347 C333 0.950 . S
H348 C334 0.950 1_655 S
H349 C335 0.950 1_455 S
H350 C337 0.950 . S
H351 C338 0.951 . S
C352 C353 1.386 1_665 S
C352 C354 1.385 . S
C352 H368 0.951 . S
C353 C352 1.386 1_445 S
C353 C357 1.383 . S
C354 C352 1.385 . S
C354 C355 1.395 1_665 S
C354 H369 0.955 . S
C355 C354 1.395 1_445 S
C355 C356 1.375 . S
C355 C358 1.481 . S
C356 C355 1.375 . S
C356 C357 1.367 . S
C356 H370 0.951 . S
C357 C353 1.383 . S
C357 C356 1.367 . S
C357 H371 0.950 . S
C358 C355 1.481 . S
C358 C359 1.297 1_455 S
C358 H372 0.950 . S
C359 C358 1.297 1_655 S
C359 C360 1.479 . S
C359 H373 0.950 . S
C360 C359 1.479 . S
C360 C361 1.375 1_545 S
C360 C366 1.404 1_655 S
C361 C360 1.375 1_565 S
C361 C362 1.369 . S
C361 H374 0.951 . S
C362 C361 1.369 . S
C362 C363 1.392 1_565 S
C362 H375 0.951 . S
C363 C362 1.392 1_545 S
C363 C365 1.384 1_655 S
H364 C366 0.949 . S
C365 C363 1.384 1_455 S
C365 C366 1.385 . S
C365 H367 0.950 . S
C366 C360 1.404 1_455 S
C366 H364 0.949 . S
C366 C365 1.385 . S
H367 C365 0.950 . S
H368 C352 0.951 . S
H369 C354 0.955 . S
H370 C356 0.951 . S
H371 C357 0.950 . S
H372 C358 0.950 . S
H373 C359 0.950 . S
H374 C361 0.951 . S
H375 C362 0.951 . S
C376 C377 1.386 1_455 S
C376 C378 1.383 . S
C376 H392 0.951 . S
C377 C376 1.386 1_655 S
C377 C381 1.383 1_565 S
C378 C376 1.383 . S
C378 C379 1.402 1_455 S
C378 H393 0.951 . S
C379 C378 1.402 1_655 S
C379 C380 1.375 1_565 S
C379 C382 1.481 . S
C380 C379 1.375 1_545 S
C380 C381 1.367 . S
C380 H394 0.951 . S
C381 C377 1.383 1_545 S
C381 C380 1.367 . S
C381 H395 0.950 . S
C382 C379 1.481 . S
C382 C383 1.297 1_655 S
C382 H396 0.950 1_565 S
C383 C382 1.297 1_455 S
C383 C384 1.480 . S
C383 H397 0.950 . S
C384 C383 1.480 . S
C384 C385 1.374 . S
C384 C390 1.405 1_455 S
C385 C384 1.374 . S
C385 C386 1.369 . S
C385 H398 0.950 . S
C386 C385 1.369 . S
C386 C387 1.392 1_455 S
C386 H399 0.951 . S
C387 C386 1.392 1_655 S
C387 C389 1.384 . S
H388 C390 0.949 . S
C389 C387 1.384 . S
C389 C390 1.385 . S
C389 H391 0.950 1_565 S
C390 C384 1.405 1_655 S
C390 H388 0.949 . S
C390 C389 1.385 . S
H391 C389 0.950 1_545 S
H392 C376 0.951 . S
H393 C378 0.951 . S
H394 C380 0.951 . S
H395 C381 0.950 . S
H396 C382 0.950 1_545 S
H397 C383 0.950 . S
H398 C385 0.950 . S
H399 C386 0.951 . S
C400 C401 1.386 . S
C400 C402 1.383 . S
C400 H416 0.951 . S
C401 C400 1.386 . S
C401 C405 1.383 . S
C402 C400 1.383 . S
C402 C403 1.402 . S
C402 H417 0.951 . S
C403 C402 1.402 . S
C403 C404 1.375 . S
C403 C406 1.481 . S
C404 C403 1.375 . S
C404 C405 1.367 . S
C404 H418 0.951 . S
C405 C401 1.383 . S
C405 C404 1.367 . S
C405 H419 0.950 . S
C406 C403 1.481 . S
C406 C407 1.297 . S
C406 H420 0.950 . S
C407 C406 1.297 . S
C407 C408 1.479 . S
C407 H421 0.950 . S
C408 C407 1.479 . S
C408 C409 1.375 . S
C408 C414 1.404 . S
C409 C408 1.375 . S
C409 C410 1.369 . S
C409 H422 0.950 . S
C410 C409 1.369 . S
C410 C411 1.392 . S
C410 H423 0.951 . S
C411 C410 1.392 . S
C411 C413 1.384 . S
H412 C414 0.949 . S
C413 C411 1.384 . S
C413 C414 1.385 . S
C413 H415 0.950 . S
C414 C408 1.404 . S
C414 H412 0.949 . S
C414 C413 1.385 . S
H415 C413 0.950 . S
H416 C400 0.951 . S
H417 C402 0.951 . S
H418 C404 0.951 . S
H419 C405 0.950 . S
H420 C406 0.950 . S
H421 C407 0.950 . S
H422 C409 0.950 . S
H423 C410 0.951 . S
C424 C425 1.386 . S
C424 C426 1.383 . S
C424 H440 0.951 . S
C425 C424 1.386 . S
C425 C429 1.383 . S
C426 C424 1.383 . S
C426 C427 1.402 . S
C426 H441 0.951 . S
C427 C426 1.402 . S
C427 C428 1.375 . S
C427 C430 1.481 . S
C428 C427 1.375 . S
C428 C429 1.367 . S
C428 H442 0.951 . S
C429 C425 1.383 . S
C429 C428 1.367 . S
C429 H443 0.950 . S
C430 C427 1.481 . S
C430 C431 1.297 . S
C430 H444 0.950 . S
C431 C430 1.297 . S
C431 C432 1.479 . S
C431 H445 0.950 . S
C432 C431 1.479 . S
C432 C433 1.375 . S
C432 C438 1.404 . S
C433 C432 1.375 . S
C433 C434 1.369 . S
C433 H446 0.950 . S
C434 C433 1.369 . S
C434 C435 1.392 . S
C434 H447 0.951 . S
C435 C434 1.392 . S
C435 C437 1.384 . S
H436 C438 0.949 . S
C437 C435 1.384 . S
C437 C438 1.385 . S
C437 H439 0.950 . S
C438 C432 1.404 . S
C438 H436 0.949 . S
C438 C437 1.385 . S
H439 C437 0.950 . S
H440 C424 0.951 . S
H441 C426 0.951 . S
H442 C428 0.951 . S
H443 C429 0.950 . S
H444 C430 0.950 . S
H445 C431 0.950 . S
H446 C433 0.950 . S
H447 C434 0.951 . S
C161 C111 1.583 1_554 S
C171 C20 1.610 1_556 S
C185 C100 1.572 1_556 S
C195 C31 1.588 . S
C209 C71 1.578 . S
C219 C140 1.607 . S
C233 C60 1.591 . S
C243 C151 1.603 . S
C257 C4 1.250 . S
C267 C25 1.162 . S
C281 C65 1.189 . S
C291 C44 1.181 . S
C305 C84 1.214 . S
C315 C105 1.143 1_554 S
C329 C124 1.247 . S
C339 C145 1.147 . S
C353 C42 1.464 1_455 S
C363 C2 1.455 1_655 S
C377 C23 1.438 . S
C387 C63 1.444 1_655 S
C401 C122 1.459 . S
C411 C82 1.455 . S
C425 C143 1.477 . S
C435 C103 1.491 . S
