# Generated by pormake.
# Topology wns, (7)-cn, num edge types: 1
# Building blocks:
#     Node 0, Type 0, BuildingBlock: HICVOG_clean_sbu_0, # of connection points: 7
#     Node 1, Type 0, BuildingBlock: HICVOG_clean_sbu_0, # of connection points: 7
#     Node 2, Type 0, BuildingBlock: HICVOG_clean_sbu_0, # of connection points: 7
#     Node 3, Type 0, BuildingBlock: HICVOG_clean_sbu_0, # of connection points: 7
#     Node 4, Type 0, BuildingBlock: HICVOG_clean_sbu_0, # of connection points: 7
#     Node 5, Type 0, BuildingBlock: HICVOG_clean_sbu_0, # of connection points: 7
#     Node 6, Type 0, BuildingBlock: HICVOG_clean_sbu_0, # of connection points: 7
#     Node 7, Type 0, BuildingBlock: HICVOG_clean_sbu_0, # of connection points: 7
#     Node 8, Type 0, BuildingBlock: HICVOG_clean_sbu_0, # of connection points: 7
#     Node 9, Type 0, BuildingBlock: HICVOG_clean_sbu_0, # of connection points: 7
#     Node 10, Type 0, BuildingBlock: HICVOG_clean_sbu_0, # of connection points: 7
#     Node 11, Type 0, BuildingBlock: HICVOG_clean_sbu_0, # of connection points: 7
#     Edge 12, Type (0, 0), BuildingBlock: ZUJKAS_clean_linker_0, # of connection points: 2
#     Edge 13, Type (0, 0), BuildingBlock: ZUJKAS_clean_linker_0, # of connection points: 2
#     Edge 14, Type (0, 0), BuildingBlock: ZUJKAS_clean_linker_0, # of connection points: 2
#     Edge 15, Type (0, 0), BuildingBlock: ZUJKAS_clean_linker_0, # of connection points: 2
#     Edge 16, Type (0, 0), BuildingBlock: ZUJKAS_clean_linker_0, # of connection points: 2
#     Edge 17, Type (0, 0), BuildingBlock: ZUJKAS_clean_linker_0, # of connection points: 2
#     Edge 18, Type (0, 0), BuildingBlock: ZUJKAS_clean_linker_0, # of connection points: 2
#     Edge 19, Type (0, 0), BuildingBlock: ZUJKAS_clean_linker_0, # of connection points: 2
#     Edge 20, Type (0, 0), BuildingBlock: ZUJKAS_clean_linker_0, # of connection points: 2
#     Edge 21, Type (0, 0), BuildingBlock: ZUJKAS_clean_linker_0, # of connection points: 2
#     Edge 22, Type (0, 0), BuildingBlock: ZUJKAS_clean_linker_0, # of connection points: 2
#     Edge 23, Type (0, 0), BuildingBlock: ZUJKAS_clean_linker_0, # of connection points: 2
#     Edge 24, Type (0, 0), BuildingBlock: ZUJKAS_clean_linker_0, # of connection points: 2
#     Edge 25, Type (0, 0), BuildingBlock: ZUJKAS_clean_linker_0, # of connection points: 2
#     Edge 26, Type (0, 0), BuildingBlock: ZUJKAS_clean_linker_0, # of connection points: 2
#     Edge 27, Type (0, 0), BuildingBlock: ZUJKAS_clean_linker_0, # of connection points: 2
#     Edge 28, Type (0, 0), BuildingBlock: ZUJKAS_clean_linker_0, # of connection points: 2
#     Edge 29, Type (0, 0), BuildingBlock: ZUJKAS_clean_linker_0, # of connection points: 2
#     Edge 30, Type (0, 0), BuildingBlock: ZUJKAS_clean_linker_0, # of connection points: 2
#     Edge 31, Type (0, 0), BuildingBlock: ZUJKAS_clean_linker_0, # of connection points: 2
#     Edge 32, Type (0, 0), BuildingBlock: ZUJKAS_clean_linker_0, # of connection points: 2
#     Edge 33, Type (0, 0), BuildingBlock: ZUJKAS_clean_linker_0, # of connection points: 2
#     Edge 34, Type (0, 0), BuildingBlock: ZUJKAS_clean_linker_0, # of connection points: 2
#     Edge 35, Type (0, 0), BuildingBlock: ZUJKAS_clean_linker_0, # of connection points: 2
#     Edge 36, Type (0, 0), BuildingBlock: ZUJKAS_clean_linker_0, # of connection points: 2
#     Edge 37, Type (0, 0), BuildingBlock: ZUJKAS_clean_linker_0, # of connection points: 2
#     Edge 38, Type (0, 0), BuildingBlock: ZUJKAS_clean_linker_0, # of connection points: 2
#     Edge 39, Type (0, 0), BuildingBlock: ZUJKAS_clean_linker_0, # of connection points: 2
#     Edge 40, Type (0, 0), BuildingBlock: ZUJKAS_clean_linker_0, # of connection points: 2
#     Edge 41, Type (0, 0), BuildingBlock: ZUJKAS_clean_linker_0, # of connection points: 2
#     Edge 42, Type (0, 0), BuildingBlock: ZUJKAS_clean_linker_0, # of connection points: 2
#     Edge 43, Type (0, 0), BuildingBlock: ZUJKAS_clean_linker_0, # of connection points: 2
#     Edge 44, Type (0, 0), BuildingBlock: ZUJKAS_clean_linker_0, # of connection points: 2
#     Edge 45, Type (0, 0), BuildingBlock: ZUJKAS_clean_linker_0, # of connection points: 2
#     Edge 46, Type (0, 0), BuildingBlock: ZUJKAS_clean_linker_0, # of connection points: 2
#     Edge 47, Type (0, 0), BuildingBlock: ZUJKAS_clean_linker_0, # of connection points: 2
#     Edge 48, Type (0, 0), BuildingBlock: ZUJKAS_clean_linker_0, # of connection points: 2
#     Edge 49, Type (0, 0), BuildingBlock: ZUJKAS_clean_linker_0, # of connection points: 2
#     Edge 50, Type (0, 0), BuildingBlock: ZUJKAS_clean_linker_0, # of connection points: 2
#     Edge 51, Type (0, 0), BuildingBlock: ZUJKAS_clean_linker_0, # of connection points: 2
#     Edge 52, Type (0, 0), BuildingBlock: ZUJKAS_clean_linker_0, # of connection points: 2
#     Edge 53, Type (0, 0), BuildingBlock: ZUJKAS_clean_linker_0, # of connection points: 2
# Relax obj value: 0.153
# Max RMSD: 0.216
# Mean RMSD: 0.216
data_MOF--net-wns--node1-HICVOG_clean_sbu_0--edge1-ZUJKAS_clean_linker_0
_symmetry_space_group_name_H-M    P1
_symmetry_Int_Tables_number       1
_symmetry_cell_setting            triclinic
loop_
_symmetry_equiv_pos_as_xyz
'x, y, z'
_cell_length_a     53.780456
_cell_length_b     53.77694
_cell_length_c     44.02711
_cell_angle_alpha  90.086391
_cell_angle_beta   89.987377
_cell_angle_gamma 119.99975
loop_
_atom_site_label
_atom_site_type_symbol
_atom_site_fract_x
_atom_site_fract_y
_atom_site_fract_z
_atom_type_partial_charge
Zn0 Zn 0.42728 0.27071 0.14859 0.0
C1 C 0.35427 0.23628 0.09926 0.0
N2 N 0.34476 0.24595 0.122 0.0
C3 C 0.36644 0.25612 0.14211 0.0
N4 N 0.38865 0.25325 0.13181 0.0
N5 N 0.38057 0.24011 0.10508 0.0
C6 C 0.40705 0.22622 0.02471 0.0
O7 O 0.43065 0.24739 0.03642 0.0
O8 O 0.42475 0.26761 0.19463 0.0
Zn9 Zn 0.39109 0.21312 0.08822 0.0
N10 N 0.44896 0.31047 0.13436 0.0
C11 C 0.44872 0.34858 0.1072 0.0
C12 C 0.43421 0.32097 0.11907 0.0
C13 C 0.47808 0.32644 0.13752 0.0
N14 N 0.4776 0.36446 0.11037 0.0
C15 C 0.49307 0.35438 0.12505 0.0
O16 O 0.4307 0.22011 0.09883 0.0
C17 C 0.4511 0.23446 0.1174 0.0
O18 O 0.45034 0.25226 0.13587 0.0
H19 H 0.41128 0.308 0.11599 0.0
H20 H 0.48927 0.317 0.14872 0.0
C21 C 0.35415 0.1511 0.08877 0.0
C22 C 0.33438 0.12455 0.10211 0.0
C23 C 0.33603 0.14932 0.14758 0.0
C24 C 0.3554 0.17535 0.13423 0.0
N25 N 0.36404 0.17582 0.10514 0.0
N26 N 0.32606 0.12471 0.13132 0.0
H27 H 0.36206 0.15234 0.06594 0.0
C28 C 0.41682 0.24283 0.20548 0.0
O29 O 0.41108 0.22167 0.18661 0.0
O30 O 0.38678 0.20972 0.04241 0.0
H31 H 0.36356 0.19508 0.14699 0.0
H32 H 0.43719 0.35724 0.09521 0.0
H33 H 0.32897 0.14863 0.17073 0.0
Zn34 Zn 0.74234 0.15848 0.14848 0.0
C35 C 0.7763 0.12018 0.09802 0.0
N36 N 0.76594 0.10038 0.12009 0.0
C37 C 0.7557 0.11166 0.14039 0.0
N38 N 0.75924 0.13719 0.13089 0.0
N39 N 0.7728 0.14276 0.10443 0.0
C40 C 0.79231 0.19118 0.02634 0.0
O41 O 0.77669 0.2008 0.03916 0.0
O42 O 0.74425 0.15735 0.19441 0.0
Zn43 Zn 0.80056 0.18043 0.08895 0.0
N44 N 0.70296 0.14173 0.13371 0.0
C45 C 0.66423 0.10495 0.1055 0.0
C46 C 0.6921 0.11736 0.1167 0.0
C47 C 0.68722 0.15479 0.13908 0.0
N48 N 0.64847 0.11777 0.11106 0.0
C49 C 0.65912 0.14257 0.12734 0.0
O50 O 0.79478 0.21352 0.10138 0.0
C51 C 0.78041 0.21936 0.12016 0.0
O52 O 0.76189 0.20034 0.13766 0.0
H53 H 0.70489 0.10744 0.11203 0.0
H54 H 0.69651 0.17431 0.15243 0.0
C55 C 0.86227 0.20369 0.08992 0.0
C56 C 0.88842 0.20913 0.10323 0.0
C57 C 0.8629 0.1846 0.1477 0.0
C58 C 0.83722 0.17919 0.13436 0.0
N59 N 0.83734 0.18881 0.10581 0.0
N60 N 0.88775 0.19937 0.13193 0.0
H61 H 0.86158 0.21147 0.06749 0.0
C62 C 0.76922 0.17052 0.20611 0.0
O63 O 0.79152 0.18355 0.188 0.0
O64 O 0.80379 0.18038 0.04302 0.0
H65 H 0.81731 0.16741 0.14669 0.0
H66 H 0.65522 0.08536 0.09229 0.0
H67 H 0.86312 0.17711 0.17044 0.0
Zn68 Zn 0.85479 0.58663 0.14639 0.0
C69 C 0.89616 0.65844 0.09532 0.0
N70 N 0.91758 0.66428 0.11483 0.0
C71 C 0.90503 0.643 0.13514 0.0
N72 N 0.8773 0.62443 0.12808 0.0
N73 N 0.87158 0.63443 0.10309 0.0
C74 C 0.80889 0.61514 0.02842 0.0
O75 O 0.78571 0.60338 0.04539 0.0
O76 O 0.85621 0.59091 0.19215 0.0
Zn77 Zn 0.83402 0.6253 0.08754 0.0
N78 N 0.87106 0.56296 0.13369 0.0
C79 C 0.90691 0.55906 0.10583 0.0
C80 C 0.89456 0.57509 0.11538 0.0
C81 C 0.85851 0.53473 0.14166 0.0
N82 N 0.89464 0.53109 0.11396 0.0
C83 C 0.8705 0.51815 0.13135 0.0
O84 O 0.80075 0.58682 0.10076 0.0
C85 C 0.79413 0.56572 0.11848 0.0
O86 O 0.81274 0.56474 0.13544 0.0
H87 H 0.90357 0.59697 0.10784 0.0
H88 H 0.83949 0.52542 0.15576 0.0
C89 C 0.81299 0.66582 0.08713 0.0
C90 C 0.80791 0.68683 0.10024 0.0
C91 C 0.83065 0.68444 0.14554 0.0
C92 C 0.8353 0.6635 0.13254 0.0
N93 N 0.82646 0.65459 0.10364 0.0
N94 N 0.81714 0.69557 0.12918 0.0
H95 H 0.8068 0.6588 0.06398 0.0
C96 C 0.84184 0.60156 0.20358 0.0
O97 O 0.82763 0.60928 0.18526 0.0
O98 O 0.83334 0.62647 0.04134 0.0
H99 H 0.84602 0.65445 0.14535 0.0
H100 H 0.92584 0.56862 0.0916 0.0
H101 H 0.83768 0.6918 0.1685 0.0
Zn102 Zn 0.2748 0.42455 0.35946 0.0
C103 C 0.24583 0.35317 0.41095 0.0
N104 N 0.26147 0.34739 0.39147 0.0
C105 C 0.26993 0.36856 0.37103 0.0
N106 N 0.26055 0.38698 0.37803 0.0
N107 N 0.24503 0.37701 0.40316 0.0
C108 C 0.23014 0.40162 0.48299 0.0
O109 O 0.25152 0.42507 0.47136 0.0
O110 O 0.27048 0.42027 0.3137 0.0
Zn111 Zn 0.21682 0.38597 0.41949 0.0
N112 N 0.31513 0.44879 0.3708 0.0
C113 C 0.35608 0.45324 0.3966 0.0
C114 C 0.32746 0.43687 0.38799 0.0
C115 C 0.33013 0.47718 0.36318 0.0
N116 N 0.37108 0.48132 0.38877 0.0
C117 C 0.35897 0.49408 0.37258 0.0
O118 O 0.22277 0.42534 0.40931 0.0
C119 C 0.23651 0.44591 0.39078 0.0
O120 O 0.25465 0.44603 0.37215 0.0
H121 H 0.31519 0.41493 0.39544 0.0
H122 H 0.31969 0.48636 0.35008 0.0
C123 C 0.15513 0.34869 0.41818 0.0
C124 C 0.1288 0.32815 0.40505 0.0
C125 C 0.15404 0.32782 0.36082 0.0
C126 C 0.17992 0.34787 0.37404 0.0
N127 N 0.18001 0.35797 0.40236 0.0
N128 N 0.12924 0.31849 0.37653 0.0
H129 H 0.15605 0.35761 0.44044 0.0
C130 C 0.24507 0.40906 0.3032 0.0
O131 O 0.22362 0.40056 0.32237 0.0
O132 O 0.21335 0.38153 0.46522 0.0
H133 H 0.19984 0.35537 0.36182 0.0
H134 H 0.36619 0.44383 0.40991 0.0
H135 H 0.15363 0.31967 0.33824 0.0
Zn136 Zn 0.58818 0.8539 0.35727 0.0
C137 C 0.65929 0.89435 0.40972 0.0
N138 N 0.66572 0.91584 0.39013 0.0
C139 C 0.64468 0.90353 0.36948 0.0
N140 N 0.62568 0.87593 0.37641 0.0
N141 N 0.63515 0.86996 0.40166 0.0
C142 C 0.61554 0.80747 0.47641 0.0
O143 O 0.6034 0.78416 0.45956 0.0
O144 O 0.59313 0.85393 0.31151 0.0
Zn145 Zn 0.62526 0.83218 0.41724 0.0
N146 N 0.56474 0.87091 0.36847 0.0
C147 C 0.56111 0.90782 0.3945 0.0
C148 C 0.57705 0.89513 0.38577 0.0
C149 C 0.53634 0.85793 0.36093 0.0
N150 N 0.533 0.89512 0.38678 0.0
C151 C 0.51983 0.87023 0.37054 0.0
O152 O 0.5862 0.79928 0.40448 0.0
C153 C 0.56541 0.79343 0.38654 0.0
O154 O 0.56547 0.81239 0.36932 0.0
H155 H 0.59894 0.90437 0.39329 0.0
H156 H 0.52683 0.83826 0.34782 0.0
C157 C 0.66583 0.81115 0.4179 0.0
C158 C 0.68655 0.8057 0.40472 0.0
C159 C 0.68244 0.82622 0.35856 0.0
C160 C 0.6618 0.83128 0.37165 0.0
N161 N 0.6539 0.82374 0.40101 0.0
N162 N 0.69429 0.81363 0.37531 0.0
H163 H 0.65963 0.80598 0.44139 0.0
C164 C 0.60049 0.83641 0.30118 0.0
O165 O 0.60469 0.82024 0.32045 0.0
O166 O 0.62693 0.83183 0.46337 0.0
H167 H 0.65222 0.84133 0.35857 0.0
H168 H 0.57083 0.92732 0.40789 0.0
H169 H 0.68901 0.83224 0.33524 0.0
Zn170 Zn 0.15942 0.73745 0.35712 0.0
C171 C 0.11995 0.77162 0.40535 0.0
N172 N 0.10066 0.76109 0.38272 0.0
C173 C 0.11241 0.75063 0.36326 0.0
N174 N 0.13767 0.75421 0.3738 0.0
N175 N 0.1427 0.76811 0.40004 0.0
C176 C 0.18371 0.78276 0.47988 0.0
O177 O 0.18643 0.76177 0.46812 0.0
O178 O 0.15809 0.73861 0.31109 0.0
Zn179 Zn 0.18013 0.79597 0.41641 0.0
N180 N 0.14295 0.69817 0.37223 0.0
C181 C 0.10491 0.6586 0.39821 0.0
C182 C 0.11781 0.6868 0.38791 0.0
C183 C 0.15653 0.68275 0.36788 0.0
N184 N 0.11804 0.64303 0.39326 0.0
C185 C 0.14371 0.65434 0.37865 0.0
O186 O 0.21371 0.79061 0.40463 0.0
C187 C 0.21997 0.77647 0.38594 0.0
O188 O 0.20123 0.75778 0.36828 0.0
H189 H 0.10752 0.69935 0.39194 0.0
H190 H 0.17684 0.69238 0.35594 0.0
C191 C 0.20371 0.85775 0.41631 0.0
C192 C 0.20916 0.88409 0.40354 0.0
C193 C 0.18417 0.85911 0.35894 0.0
C194 C 0.17874 0.83324 0.37176 0.0
N195 N 0.1886 0.83299 0.4001 0.0
N196 N 0.19917 0.88378 0.37503 0.0
H197 H 0.21163 0.85677 0.43858 0.0
C198 C 0.16832 0.76334 0.29916 0.0
O199 O 0.17898 0.78592 0.31705 0.0
O200 O 0.17963 0.79909 0.46225 0.0
H201 H 0.16672 0.81347 0.35921 0.0
H202 H 0.08464 0.64915 0.41017 0.0
H203 H 0.17649 0.85962 0.33637 0.0
Zn204 Zn 0.62612 0.79805 0.91797 0.0
C205 C 0.64907 0.75306 0.865 0.0
N206 N 0.6708 0.76306 0.88504 0.0
C207 C 0.66175 0.7735 0.90746 0.0
N208 N 0.63574 0.77032 0.90154 0.0
N209 N 0.62731 0.7568 0.87506 0.0
C210 C 0.6042 0.76806 0.80068 0.0
O211 O 0.6138 0.79028 0.81899 0.0
O212 O 0.62993 0.80105 0.9638 0.0
Zn213 Zn 0.58891 0.7404 0.85803 0.0
N214 N 0.6544 0.83499 0.90134 0.0
C215 C 0.68512 0.86086 0.86015 0.0
C216 C 0.66425 0.83513 0.87288 0.0
C217 C 0.66449 0.85977 0.91761 0.0
N218 N 0.69532 0.88553 0.87636 0.0
C219 C 0.68559 0.88594 0.90481 0.0
O220 O 0.56679 0.75999 0.87004 0.0
C221 C 0.5666 0.77834 0.88814 0.0
O222 O 0.58708 0.79242 0.90674 0.0
H223 H 0.65614 0.81535 0.86025 0.0
H224 H 0.65655 0.85887 0.94039 0.0
C225 C 0.53733 0.68528 0.86726 0.0
C226 C 0.52183 0.65651 0.87693 0.0
C227 C 0.56491 0.6603 0.89577 0.0
C228 C 0.58012 0.68886 0.88658 0.0
N229 N 0.56629 0.70065 0.87178 0.0
N230 N 0.53624 0.6448 0.89067 0.0
H231 H 0.52663 0.69523 0.85603 0.0
C232 C 0.60977 0.78395 0.98126 0.0
O233 O 0.58648 0.76262 0.96924 0.0
O234 O 0.59184 0.74299 0.81211 0.0
H235 H 0.60294 0.70134 0.89075 0.0
H236 H 0.69325 0.86123 0.83758 0.0
H237 H 0.57577 0.65053 0.90701 0.0
Zn238 Zn 0.2161 0.83061 0.91674 0.0
C239 C 0.26017 0.89945 0.86478 0.0
N240 N 0.25047 0.91098 0.88539 0.0
C241 C 0.2405 0.89138 0.9077 0.0
N242 N 0.24359 0.86856 0.90102 0.0
N243 N 0.2567 0.87396 0.87428 0.0
C244 C 0.24572 0.83772 0.79941 0.0
O245 O 0.22465 0.82257 0.81841 0.0
O246 O 0.21405 0.82977 0.96298 0.0
Zn247 Zn 0.27386 0.85306 0.85615 0.0
N248 N 0.17885 0.82208 0.90069 0.0
C249 C 0.15313 0.82582 0.85867 0.0
C250 C 0.1788 0.83104 0.87187 0.0
C251 C 0.15401 0.80787 0.91693 0.0
N252 N 0.12842 0.81172 0.87478 0.0
C253 C 0.12781 0.80245 0.9037 0.0
O254 O 0.25504 0.81127 0.86689 0.0
C255 C 0.23661 0.79218 0.88436 0.0
O256 O 0.22221 0.79791 0.90319 0.0
H257 H 0.19859 0.84213 0.85918 0.0
H258 H 0.15478 0.80059 0.93954 0.0
C259 C 0.32955 0.85743 0.86507 0.0
C260 C 0.35765 0.86988 0.87691 0.0
C261 C 0.35188 0.90698 0.8991 0.0
C262 C 0.32401 0.89432 0.88787 0.0
N263 N 0.31348 0.87014 0.87058 0.0
N264 N 0.36794 0.89453 0.89341 0.0
H265 H 0.32049 0.83799 0.85161 0.0
C266 C 0.20175 0.80512 0.97547 0.0
O267 O 0.19153 0.78222 0.95808 0.0
O268 O 0.27078 0.85386 0.81011 0.0
H269 H 0.31097 0.90392 0.89274 0.0
H270 H 0.15281 0.83285 0.83574 0.0
H271 H 0.36062 0.92643 0.91251 0.0
Zn272 Zn 0.18189 0.38773 0.91958 0.0
C273 C 0.11101 0.36844 0.87089 0.0
N274 N 0.09851 0.34759 0.89168 0.0
C275 C 0.11994 0.35397 0.91137 0.0
N276 N 0.14443 0.3779 0.90329 0.0
N277 N 0.13871 0.38727 0.87783 0.0
C278 C 0.17798 0.41124 0.80241 0.0
O279 O 0.19417 0.40687 0.82152 0.0
O280 O 0.18155 0.38477 0.96563 0.0
Zn281 Zn 0.16136 0.42455 0.85852 0.0
N282 N 0.19088 0.35967 0.90306 0.0
C283 C 0.1872 0.32976 0.86143 0.0
C284 C 0.18192 0.35034 0.87428 0.0
C285 C 0.20528 0.34942 0.91953 0.0
N286 N 0.20139 0.3194 0.87783 0.0
C287 C 0.21083 0.32866 0.9066 0.0
O288 O 0.20306 0.44698 0.87074 0.0
C289 C 0.22131 0.4472 0.88924 0.0
O290 O 0.21482 0.42684 0.90793 0.0
H291 H 0.17058 0.35873 0.86148 0.0
H292 H 0.21176 0.35702 0.94252 0.0
C293 C 0.15772 0.47665 0.86111 0.0
C294 C 0.14562 0.49345 0.87032 0.0
C295 C 0.10826 0.45282 0.89527 0.0
C296 C 0.12076 0.4366 0.88691 0.0
N297 N 0.14476 0.44844 0.86933 0.0
N298 N 0.12095 0.48074 0.88687 0.0
H299 H 0.1772 0.48579 0.84775 0.0
C300 C 0.19175 0.40728 0.982 0.0
O301 O 0.20089 0.43224 0.96877 0.0
O302 O 0.16095 0.41914 0.81287 0.0
H303 H 0.11151 0.41486 0.89491 0.0
H304 H 0.18005 0.32203 0.8386 0.0
H305 H 0.08894 0.44347 0.90888 0.0
Zn306 Zn 0.74017 0.58657 0.64678 0.0
C307 C 0.7711 0.65848 0.59581 0.0
N308 N 0.75562 0.66447 0.6153 0.0
C309 C 0.74664 0.64305 0.63549 0.0
N310 N 0.75556 0.62431 0.62837 0.0
N311 N 0.77129 0.63426 0.60338 0.0
C312 C 0.81288 0.6143 0.52777 0.0
O313 O 0.8244 0.60257 0.54466 0.0
O314 O 0.7424 0.59087 0.69258 0.0
Zn315 Zn 0.79892 0.62455 0.58699 0.0
N316 N 0.70046 0.56279 0.63324 0.0
C317 C 0.66147 0.5592 0.60416 0.0
C318 C 0.68951 0.57517 0.6147 0.0
C319 C 0.68463 0.5344 0.64063 0.0
N320 N 0.64567 0.53108 0.61165 0.0
C321 C 0.65637 0.51788 0.62935 0.0
O322 O 0.79345 0.58592 0.60002 0.0
C323 C 0.77969 0.56549 0.61869 0.0
O324 O 0.76081 0.56504 0.63642 0.0
H325 H 0.70246 0.59719 0.60768 0.0
H326 H 0.69401 0.52496 0.65501 0.0
C327 C 0.86063 0.66492 0.58552 0.0
C328 C 0.88693 0.68582 0.59835 0.0
C329 C 0.86254 0.68315 0.64431 0.0
C330 C 0.83673 0.66231 0.63159 0.0
N331 N 0.83619 0.65359 0.6025 0.0
N332 N 0.8869 0.69437 0.62748 0.0
H333 H 0.85946 0.65807 0.56224 0.0
C334 C 0.76737 0.60162 0.70415 0.0
O335 O 0.78939 0.60932 0.68596 0.0
O336 O 0.79989 0.62571 0.54081 0.0
H337 H 0.81717 0.6532 0.64477 0.0
H338 H 0.65245 0.56894 0.58969 0.0
H339 H 0.86323 0.69036 0.66741 0.0
Zn340 Zn 0.42728 0.15721 0.64825 0.0
C341 C 0.35596 0.11617 0.59631 0.0
N342 N 0.34975 0.09476 0.61593 0.0
C343 C 0.37087 0.10723 0.63648 0.0
N344 N 0.3897 0.13486 0.62944 0.0
N345 N 0.38005 0.14065 0.60423 0.0
C346 C 0.40736 0.18393 0.526 0.0
O347 O 0.43099 0.18705 0.53835 0.0
O348 O 0.42257 0.15689 0.69404 0.0
Zn349 Zn 0.38946 0.17834 0.58893 0.0
N350 N 0.45083 0.14039 0.6368 0.0
C351 C 0.45457 0.10369 0.61044 0.0
C352 C 0.4386 0.11634 0.61923 0.0
C353 C 0.47915 0.1532 0.64464 0.0
N354 N 0.48259 0.11623 0.61847 0.0
C355 C 0.49567 0.14091 0.63504 0.0
O356 O 0.42857 0.21146 0.60072 0.0
C357 C 0.44943 0.21755 0.61865 0.0
O358 O 0.44955 0.19879 0.63608 0.0
H359 H 0.41673 0.10716 0.61162 0.0
H360 H 0.48857 0.1727 0.65805 0.0
C361 C 0.34983 0.19999 0.58949 0.0
C362 C 0.32904 0.20531 0.60274 0.0
C363 C 0.33234 0.18359 0.6484 0.0
C364 C 0.35294 0.17854 0.63521 0.0
N365 N 0.36122 0.18672 0.60606 0.0
N366 N 0.32088 0.19672 0.63192 0.0
H367 H 0.35657 0.20576 0.56618 0.0
C368 C 0.41512 0.17417 0.70486 0.0
O369 O 0.41079 0.19056 0.68603 0.0
O370 O 0.38626 0.17883 0.54308 0.0
H371 H 0.36217 0.16799 0.64803 0.0
H372 H 0.44492 0.08434 0.59682 0.0
H373 H 0.32544 0.17708 0.67155 0.0
Zn374 Zn 0.83521 0.21512 0.58938 0.0
C375 C 0.90354 0.26062 0.64183 0.0
N376 N 0.91552 0.25108 0.62158 0.0
C377 C 0.89608 0.2407 0.59908 0.0
N378 N 0.8729 0.2433 0.60533 0.0
N379 N 0.87796 0.25665 0.63194 0.0
C380 C 0.84796 0.24572 0.70661 0.0
O381 O 0.83807 0.2239 0.68771 0.0
O382 O 0.83452 0.21414 0.54318 0.0
Zn383 Zn 0.85627 0.27302 0.64985 0.0
N384 N 0.82791 0.17778 0.60413 0.0
C385 C 0.83484 0.15199 0.64394 0.0
C386 C 0.83919 0.17768 0.63171 0.0
C387 C 0.81227 0.1529 0.58818 0.0
N388 N 0.81929 0.12725 0.62814 0.0
C389 C 0.80774 0.12668 0.60044 0.0
O390 O 0.8143 0.25277 0.63961 0.0
C391 C 0.79541 0.2337 0.6224 0.0
O392 O 0.80171 0.2197 0.60358 0.0
H393 H 0.85146 0.19745 0.64419 0.0
H394 H 0.80316 0.15362 0.56659 0.0
C395 C 0.85906 0.32796 0.64137 0.0
C396 C 0.8717 0.35655 0.63124 0.0
C397 C 0.90984 0.3525 0.60944 0.0
C398 C 0.89713 0.32411 0.61914 0.0
N399 N 0.87241 0.31255 0.63561 0.0
N400 N 0.89695 0.36805 0.61579 0.0
H401 H 0.83908 0.31819 0.65393 0.0
C402 C 0.81003 0.20179 0.53031 0.0
O403 O 0.78689 0.19086 0.54734 0.0
O404 O 0.85784 0.27084 0.69577 0.0
H405 H 0.90725 0.31159 0.61403 0.0
H406 H 0.8437 0.15165 0.66589 0.0
H407 H 0.92978 0.3621 0.59686 0.0
H408 H 0.26214 0.88556 0.96137 0.0
H409 H 0.27192 0.91711 0.00534 0.0
H410 H 0.22088 0.94986 0.96526 0.0
H411 H 0.21093 0.91826 0.92162 0.0
H412 H 0.30275 0.97491 0.9927 0.0
H413 H 0.20414 0.95124 0.05527 0.0
H414 H 0.20635 0.92493 0.03157 0.0
H415 H 0.19982 0.95167 0.01489 0.0
C416 C 0.25152 0.89814 0.96289 0.0
C417 C 0.23558 0.89934 0.93824 0.0
C418 C 0.25746 0.91648 0.98785 0.0
C419 C 0.24722 0.93596 0.98861 0.0
C420 C 0.22867 0.93478 0.96552 0.0
H421 H 0.33019 0.11345 0.03989 0.0
H422 H 0.30995 0.06685 0.01491 0.0
C423 C 0.22291 0.91662 0.94056 0.0
C424 C 0.26017 0.96101 0.0096 0.0
H425 H 0.24371 0.99996 0.05866 0.0
C426 C 0.28988 0.9801 0.00755 0.0
C427 C 0.24345 0.96788 0.02893 0.0
C428 C 0.21171 0.9477 0.03306 0.0
C429 C 0.30309 0.00636 0.02326 0.0
C430 C 0.28612 0.01394 0.04126 0.0
C431 C 0.25664 0.99431 0.04448 0.0
C432 C 0.29862 0.04232 0.05657 0.0
C433 C 0.33509 0.02593 0.02021 0.0
C434 C 0.29865 0.04405 0.08831 0.0
C435 C 0.31052 0.07074 0.1028 0.0
C436 C 0.32253 0.09643 0.08589 0.0
C437 C 0.32207 0.0945 0.05394 0.0
C438 C 0.31028 0.06774 0.03949 0.0
H439 H 0.34588 0.01417 0.012 0.0
H440 H 0.33935 0.04309 0.00357 0.0
H441 H 0.34478 0.0363 0.04226 0.0
H442 H 0.28968 0.0247 0.10193 0.0
H443 H 0.31036 0.07117 0.12739 0.0
H444 H 0.89976 0.21507 0.04135 0.0
H445 H 0.94656 0.24097 0.01669 0.0
H446 H 0.9881 0.26477 0.10412 0.0
H447 H 0.94142 0.23922 0.12916 0.0
H448 H 0.98806 0.2995 0.02217 0.0
H449 H 0.03096 0.22963 0.05999 0.0
H450 H 0.99329 0.21856 0.062 0.0
H451 H 0.01789 0.24312 0.08964 0.0
C452 C 0.91868 0.22609 0.05549 0.0
C453 C 0.9166 0.22522 0.0874 0.0
C454 C 0.94552 0.24069 0.04127 0.0
C455 C 0.97083 0.25448 0.05857 0.0
C456 C 0.96889 0.25381 0.09032 0.0
H457 H 0.12744 0.37928 0.96652 0.0
H458 H 0.09632 0.35565 0.01023 0.0
C459 C 0.94211 0.23926 0.10458 0.0
C460 C 0.99913 0.27029 0.04323 0.0
H461 H 0.06228 0.27083 0.03149 0.0
C462 C 1.0044 0.29341 0.0244 0.0
C463 C 0.02033 0.26216 0.04612 0.0
C464 C 0.01539 0.23688 0.06532 0.0
C465 C 0.03003 0.30832 0.00789 0.0
C466 C 0.05128 0.30023 0.01071 0.0
C467 C 0.04621 0.27732 0.02986 0.0
C468 C 0.07694 0.31302 0.99075 0.0
C469 C 0.03357 0.3318 0.98647 0.0
C470 C 0.07829 0.29653 0.96679 0.0
C471 C 0.09646 0.30995 0.94214 0.0
C472 C 0.1136 0.33997 0.94124 0.0
C473 C 0.11503 0.35605 0.96701 0.0
C474 C 0.09686 0.34259 0.99177 0.0
H475 H 0.0132 0.332 0.98315 0.0
H476 H 0.04974 0.35295 0.99588 0.0
H477 H 0.04133 0.32924 0.96394 0.0
H478 H 0.06317 0.27368 0.9656 0.0
H479 H 0.09467 0.29719 0.92231 0.0
H480 H 0.76668 0.66285 0.05515 0.0
H481 H 0.74307 0.68513 0.02848 0.0
H482 H 0.79099 0.76228 0.08149 0.0
H483 H 0.81479 0.7402 0.10842 0.0
H484 H 0.73345 0.74657 0.07546 0.0
H485 H 0.78111 0.7469 0.96372 0.0
H486 H 0.76222 0.71192 0.98065 0.0
H487 H 0.79391 0.73992 0.99875 0.0
C488 C 0.77264 0.68472 0.06089 0.0
C489 C 0.79322 0.69993 0.08355 0.0
C490 C 0.75894 0.69738 0.04568 0.0
C491 C 0.76562 0.72557 0.05261 0.0
C492 C 0.78558 0.74056 0.07568 0.0
H493 H 0.7176 0.81111 0.91909 0.0
H494 H 0.74487 0.80633 0.96084 0.0
C495 C 0.7992 0.72788 0.091 0.0
C496 C 0.75214 0.73952 0.03539 0.0
H497 H 0.74284 0.75694 0.96354 0.0
C498 C 0.73567 0.74912 0.051 0.0
C499 C 0.75551 0.74336 0.00359 0.0
C500 C 0.77438 0.73526 0.9857 0.0
C501 C 0.72166 0.76151 0.03545 0.0
C502 C 0.72389 0.764 0.00344 0.0
C503 C 0.74108 0.75515 0.98808 0.0
C504 C 0.70746 0.77393 0.98472 0.0
C505 C 0.70474 0.77189 0.05348 0.0
C506 C 0.67727 0.75903 0.98544 0.0
C507 C 0.66166 0.76243 0.96195 0.0
C508 C 0.67606 0.78035 0.93722 0.0
C509 C 0.70606 0.79748 0.93817 0.0
C510 C 0.72163 0.79449 0.96187 0.0
H511 H 0.71314 0.77783 0.07701 0.0
H512 H 0.7052 0.79072 0.04256 0.0
H513 H 0.68206 0.75435 0.055 0.0
H514 H 0.66575 0.74267 1.00239 0.0
H515 H 0.63858 0.74843 0.9613 0.0
H516 H 0.11768 0.32412 0.46698 0.0
H517 H 0.07106 0.30419 0.49183 0.0
H518 H 0.02913 0.28519 0.40459 0.0
H519 H 0.07567 0.30538 0.37933 0.0
H520 H 0.02951 0.32125 0.48608 0.0
H521 H 0.98637 0.2079 0.44986 0.0
H522 H 0.02403 0.23445 0.44748 0.0
H523 H 0.99927 0.23407 0.41989 0.0
C524 C 0.09873 0.31618 0.4529 0.0
C525 C 0.10068 0.31675 0.42097 0.0
C526 C 0.07198 0.3045 0.46724 0.0
C527 C 0.04658 0.29288 0.45008 0.0
C528 C 0.04838 0.29354 0.4183 0.0
H529 H 0.8897 0.26028 0.54424 0.0
H530 H 0.92136 0.26909 0.50059 0.0
C531 C 0.0751 0.30523 0.40392 0.0
C532 C 0.01834 0.28066 0.46559 0.0
H533 H 0.95546 0.21813 0.47863 0.0
C534 C 0.0132 0.29877 0.48424 0.0
C535 C 0.99715 0.25127 0.46323 0.0
C536 C 1.00192 0.23065 0.44424 0.0
C537 C 0.98775 0.28825 0.5011 0.0
C538 C 0.96656 0.25882 0.49889 0.0
C539 C 0.97148 0.24075 0.47985 0.0
C540 C 0.94123 0.24608 0.51938 0.0
C541 C 0.98438 0.30848 0.52229 0.0
C542 C 0.94006 0.22804 0.54297 0.0
C543 C 0.92169 0.22261 0.56761 0.0
C544 C 0.90411 0.23501 0.56895 0.0
C545 C 0.90261 0.24999 0.54355 0.0
C546 C 0.92107 0.25545 0.51882 0.0
H547 H 1.00473 0.32919 0.52512 0.0
H548 H 0.96798 0.31316 0.51299 0.0
H549 H 0.97702 0.29857 0.54503 0.0
H550 H 0.95529 0.22044 0.5438 0.0
H551 H 0.92339 0.21119 0.58703 0.0
H552 H 0.74927 0.63702 0.54052 0.0
H553 H 0.74493 0.66565 0.50014 0.0
H554 H 0.8069 0.7432 0.54581 0.0
H555 H 0.81003 0.7144 0.58692 0.0
H556 H 0.75843 0.74196 0.54174 0.0
H557 H 0.78135 0.71516 0.42792 0.0
H558 H 0.75708 0.68328 0.44826 0.0
H559 H 0.79309 0.70574 0.46224 0.0
C560 C 0.76328 0.66012 0.54092 0.0
C561 C 0.78015 0.67357 0.56662 0.0
C562 C 0.76069 0.67657 0.51783 0.0
C563 C 0.77544 0.70672 0.51989 0.0
C564 C 0.79517 0.72002 0.54371 0.0
H565 H 0.74011 0.81323 0.39616 0.0
H566 H 0.76314 0.7905 0.42337 0.0
C567 C 0.7973 0.70357 0.56704 0.0
C568 C 0.76596 0.72374 0.50149 0.0
H569 H 0.74897 0.73433 0.42966 0.0
C570 C 0.75689 0.74062 0.51717 0.0
C571 C 0.76384 0.72215 0.46942 0.0
C572 C 0.77465 0.70582 0.451 0.0
C573 C 0.74511 0.7552 0.50192 0.0
C574 C 0.7414 0.75224 0.47006 0.0
C575 C 0.75136 0.73622 0.45415 0.0
C576 C 0.72706 0.7655 0.45306 0.0
C577 C 0.73684 0.77374 0.52019 0.0
C578 C 0.69893 0.75873 0.46038 0.0
C579 C 0.68575 0.77187 0.44505 0.0
C580 C 0.70035 0.79189 0.42179 0.0
C581 C 0.72827 0.79804 0.41403 0.0
C582 C 0.74148 0.78503 0.42952 0.0
H583 H 0.74883 0.78066 0.54199 0.0
H584 H 0.74094 0.79317 0.50731 0.0
H585 H 0.71361 0.76123 0.52565 0.0
H586 H 0.68705 0.74312 0.47789 0.0
H587 H 0.66393 0.76583 0.45107 0.0
H588 H 0.21569 0.8948 0.4656 0.0
H589 H 0.2417 0.94136 0.49088 0.0
H590 H 0.26482 0.9838 0.40399 0.0
H591 H 0.23913 0.93739 0.37834 0.0
H592 H 0.29986 0.98305 0.48591 0.0
H593 H 0.22997 0.0262 0.44905 0.0
H594 H 0.21906 0.98859 0.44624 0.0
H595 H 0.24357 0.01369 0.41897 0.0
C596 C 0.22658 0.91388 0.4517 0.0
C597 C 0.22545 0.91211 0.41976 0.0
C598 C 0.24126 0.94058 0.46628 0.0
C599 C 0.25487 0.96609 0.44933 0.0
C600 C 0.25399 0.96446 0.41755 0.0
H601 H 0.38075 0.12271 0.5411 0.0
H602 H 0.35659 0.09106 0.49782 0.0
C603 C 0.23936 0.93781 0.40294 0.0
C604 C 0.27069 0.99429 0.46502 0.0
H605 H 0.27158 0.0576 0.47714 0.0
C606 C 0.29382 0.99944 0.48383 0.0
C607 C 0.26264 0.01557 0.46236 0.0
C608 C 0.23731 0.01078 0.44328 0.0
C609 C 0.30888 0.02506 0.50042 0.0
C610 C 0.30094 0.04644 0.49772 0.0
C611 C 0.27797 0.04144 0.47868 0.0
C612 C 0.31414 0.07228 0.51752 0.0
C613 C 0.3324 0.02849 0.52174 0.0
C614 C 0.29794 0.07418 0.54145 0.0
C615 C 0.31167 0.09271 0.56583 0.0
C616 C 0.34173 0.10968 0.56652 0.0
C617 C 0.35751 0.11053 0.54074 0.0
C618 C 0.34375 0.09199 0.51627 0.0
H619 H 0.33236 0.008 0.52514 0.0
H620 H 0.35356 0.0444 0.51218 0.0
H621 H 0.33013 0.0365 0.54424 0.0
H622 H 0.27507 0.05925 0.54283 0.0
H623 H 0.29912 0.09133 0.58568 0.0
H624 H 0.65931 0.9036 0.94667 0.0
H625 H 0.68022 0.94992 0.97267 0.0
H626 H 0.76051 0.97774 0.92629 0.0
H627 H 0.73969 0.93167 0.89988 0.0
H628 H 0.72405 0.97344 0.0111 0.0
H629 H 0.74998 0.04587 0.91224 0.0
H630 H 0.72733 0.00741 0.90924 0.0
H631 H 0.76579 0.02341 0.90973 0.0
C632 C 0.68147 0.91945 0.94211 0.0
C633 C 0.69789 0.91376 0.92133 0.0
C634 C 0.69333 0.94607 0.95681 0.0
C635 C 0.72181 0.96758 0.95106 0.0
C636 C 0.73827 0.96188 0.93049 0.0
H637 H 0.81216 0.1001 0.0847 0.0
H638 H 0.80406 0.06673 0.04305 0.0
C639 C 0.72637 0.93538 0.91559 0.0
C640 C 0.73474 0.99521 0.96803 0.0
H641 H 0.76993 0.06831 0.95993 0.0
C642 C 0.734 0.99415 0.99985 0.0
C643 C 0.74749 0.0223 0.95338 0.0
C644 C 0.74747 0.02489 0.91927 0.0
C645 C 0.74577 0.01924 0.01745 0.0
C646 C 0.75955 0.04636 1.00287 0.0
C647 C 0.75997 0.04755 0.97103 0.0
C648 C 0.77196 0.07335 0.02085 0.0
C649 C 0.74264 0.01638 0.05157 0.0
C650 C 0.75897 0.09042 0.02021 0.0
C651 C 0.76428 0.1102 0.04356 0.0
C652 C 0.78236 0.11276 0.06783 0.0
C653 C 0.79826 0.09859 0.06612 0.0
C654 C 0.79334 0.07924 0.04255 0.0
H655 H 0.72563 0.99455 0.0585 0.0
H656 H 0.76319 0.02032 0.0617 0.0
H657 H 0.73737 0.03228 0.06121 0.0
H658 H 0.74258 0.08639 0.0035 0.0
H659 H 0.75147 0.12059 0.04461 0.0
H660 H 0.11639 0.79377 0.9658 0.0
H661 H 0.06961 0.76763 0.9903 0.0
H662 H 0.02782 0.75027 0.9031 0.0
H663 H 0.07444 0.77581 0.87806 0.0
H664 H 1.00394 0.77081 0.94905 0.0
H665 H 0.01535 0.67885 0.98794 0.0
H666 H 0.04488 0.71357 0.99782 0.0
H667 H 0.03769 0.70321 0.95857 0.0
C668 C 0.09747 0.78403 0.95156 0.0
C669 C 0.09955 0.78662 0.91968 0.0
C670 C 0.07061 0.76919 0.96575 0.0
C671 C 0.04526 0.75673 0.94849 0.0
C672 C 0.04712 0.75966 0.91685 0.0
H673 H 0.88815 0.6338 0.03974 0.0
H674 H 0.91906 0.65765 0.99597 0.0
C675 C 0.07391 0.77432 0.9026 0.0
C676 C 0.0168 0.74065 0.96349 0.0
H677 H 0.97659 0.68266 0.00867 0.0
C678 C 0.99777 0.75137 0.96185 0.0
C679 C 0.00857 0.715 0.97966 0.0
C680 C 0.02753 0.70175 0.98096 0.0
C681 C 0.97129 0.73781 0.97723 0.0
C682 C 0.96376 0.71301 0.99475 0.0
C683 C 0.98227 0.70163 0.99518 0.0
C684 C 0.93868 0.70024 0.01562 0.0
C685 C 0.95176 0.75032 0.9749 0.0
C686 C 0.93804 0.71646 0.04029 0.0
C687 C 0.92016 0.70287 0.06511 0.0
C688 C 0.90263 0.67287 0.06565 0.0
C689 C 0.90081 0.65703 0.03954 0.0
C690 C 0.91883 0.67062 0.0147 0.0
H691 H 0.95565 0.76275 0.95357 0.0
H692 H 0.92882 0.73326 0.97576 0.0
H693 H 0.95608 0.76519 0.99424 0.0
H694 H 0.95344 0.7392 0.04185 0.0
H695 H 0.9224 0.71543 0.08526 0.0
H696 H 0.37959 0.26295 0.04658 0.0
H697 H 0.35437 0.27251 0.00601 0.0
H698 H 0.27315 0.20973 0.04432 0.0
H699 H 0.29834 0.20088 0.08542 0.0
H700 H 0.30989 0.24564 0.96189 0.0
H701 H 0.27741 0.28696 0.06087 0.0
H702 H 0.3038 0.27574 0.06369 0.0
H703 H 0.26614 0.24948 0.06326 0.0
C704 C 0.3564 0.25002 0.04534 0.0
C705 C 0.34084 0.23122 0.06909 0.0
C706 C 0.34197 0.25574 0.02232 0.0
C707 C 0.31189 0.2425 0.02276 0.0
C708 C 0.29639 0.22066 0.04398 0.0
H709 H 0.2033 0.27491 0.90076 0.0
H710 H 0.2284 0.25408 0.92733 0.0
C711 C 0.31078 0.21529 0.06721 0.0
C712 C 0.29719 0.25483 0.00488 0.0
H713 H 0.25848 0.28901 0.01329 0.0
C714 C 0.29856 0.25505 0.97305 0.0
C715 C 0.28314 0.26788 0.01954 0.0
C716 C 0.28272 0.27033 0.0537 0.0
C717 C 0.28573 0.26748 0.95547 0.0
C718 C 0.27071 0.27951 0.97017 0.0
C719 C 0.26975 0.2796 1.00199 0.0
C720 C 0.25597 0.2924 0.95323 0.0
C721 C 0.28903 0.26822 0.9214 0.0
C722 C 0.2624 0.32064 0.95954 0.0
C723 C 0.24772 0.3325 0.94473 0.0
C724 C 0.2262 0.31631 0.92328 0.0
C725 C 0.21986 0.28805 0.917 0.0
C726 C 0.23438 0.27615 0.932 0.0
H727 H 0.30784 0.26621 0.91456 0.0
H728 H 0.26958 0.24992 0.91128 0.0
H729 H 0.29155 0.28843 0.91178 0.0
H730 H 0.27893 0.3336 0.9759 0.0
H731 H 0.25364 0.35449 0.94974 0.0
H732 H 0.93341 0.73923 0.60608 0.0
H733 H 0.97907 0.76125 0.57872 0.0
H734 H 0.94933 0.68405 0.52565 0.0
H735 H 0.90362 0.66188 0.55269 0.0
H736 H 0.02066 0.74589 0.57264 0.0
H737 H 0.97336 0.74524 0.46066 0.0
H738 H 0.95345 0.73822 0.4956 0.0
H739 H 0.95738 0.7103 0.47764 0.0
C740 C 0.93651 0.72691 0.58852 0.0
C741 C 0.91448 0.69896 0.58121 0.0
C742 C 0.96269 0.73955 0.57295 0.0
C743 C 0.96747 0.72452 0.54977 0.0
C744 C 0.94585 0.69636 0.54292 0.0
H745 H 0.11821 0.74747 0.45977 0.0
H746 H 0.08494 0.74184 0.50046 0.0
C747 C 0.9196 0.68373 0.55835 0.0
C748 C 0.9949 0.73836 0.5325 0.0
H749 H 0.02166 0.75512 0.46059 0.0
C750 C 0.02097 0.74819 0.54815 0.0
C751 C 0.99539 0.7419 0.50065 0.0
C752 C 0.96844 0.73364 0.48266 0.0
C753 C 0.0474 0.76052 0.53264 0.0
C754 C 0.04767 0.76266 0.50059 0.0
C755 C 0.02162 0.75358 0.48516 0.0
C756 C 0.07408 0.77252 0.48193 0.0
C757 C 0.07468 0.77122 0.55075 0.0
C758 C 0.08034 0.79271 0.4587 0.0
C759 C 0.09906 0.79558 0.43521 0.0
C760 C 0.11223 0.77872 0.43484 0.0
C761 C 0.10885 0.76124 0.45994 0.0
C762 C 0.08965 0.75792 0.48321 0.0
H763 H 0.07218 0.7775 0.57411 0.0
H764 H 0.07987 0.75374 0.55274 0.0
H765 H 0.09304 0.78991 0.53963 0.0
H766 H 0.06874 0.80433 0.45724 0.0
H767 H 0.10105 0.80889 0.41586 0.0
H768 H 0.27556 0.19799 0.61128 0.0
H769 H 0.25273 0.22095 0.58414 0.0
H770 H 0.3291 0.26858 0.53009 0.0
H771 H 0.35206 0.24572 0.55691 0.0
H772 H 0.26741 0.27767 0.57779 0.0
H773 H 0.26708 0.23038 0.46586 0.0
H774 H 0.27467 0.21788 0.50074 0.0
H775 H 0.30226 0.24961 0.48234 0.0
C776 C 0.28753 0.21331 0.59356 0.0
C777 C 0.31547 0.21946 0.5859 0.0
C778 C 0.27442 0.22645 0.57811 0.0
C779 C 0.28897 0.24608 0.5547 0.0
C780 C 0.31714 0.2529 0.54752 0.0
H781 H 0.26852 0.37473 0.4659 0.0
H782 H 0.27243 0.3461 0.50657 0.0
C783 C 0.33023 0.23967 0.56284 0.0
C784 C 0.27471 0.25932 0.53758 0.0
H785 H 0.25768 0.26921 0.46575 0.0
C786 C 0.26496 0.2756 0.55331 0.0
C787 C 0.27091 0.2561 0.50575 0.0
C788 C 0.279 0.2373 0.48771 0.0
C789 C 0.25265 0.28974 0.53787 0.0
C790 C 0.25047 0.28791 0.50581 0.0
C791 C 0.25927 0.27072 0.49032 0.0
C792 C 0.24132 0.30507 0.48721 0.0
C793 C 0.24212 0.30643 0.55607 0.0
C794 C 0.22146 0.2918 0.46349 0.0
C795 C 0.21953 0.30825 0.44003 0.0
C796 C 0.23702 0.33821 0.44021 0.0
C797 C 0.25418 0.35168 0.46573 0.0
C798 C 0.25653 0.33523 0.48898 0.0
H799 H 0.23541 0.29731 0.57923 0.0
H800 H 0.25985 0.32893 0.55861 0.0
H801 H 0.22377 0.30663 0.54476 0.0
H802 H 0.20942 0.26861 0.46161 0.0
H803 H 0.20661 0.2974 0.42026 0.0
H804 H 0.7161 0.9196 0.42042 0.0
H805 H 0.73998 0.95089 0.46368 0.0
H806 H 0.65831 0.91825 0.5087 0.0
H807 H 0.63434 0.88711 0.46501 0.0
H808 H 0.68401 0.97548 0.49645 0.0
H809 H 0.76324 0.95347 0.55175 0.0
H810 H 0.76611 0.95403 0.51113 0.0
H811 H 0.73384 0.92691 0.52917 0.0
C812 C 0.7035 0.91778 0.44037 0.0
C813 C 0.67346 0.90069 0.43957 0.0
C814 C 0.71716 0.93582 0.46511 0.0
C815 C 0.70098 0.93705 0.4895 0.0
C816 C 0.67126 0.9176 0.4902 0.0
H817 H 0.7815 0.07345 0.62618 0.0
H818 H 0.75446 0.02677 0.6014 0.0
C819 C 0.65759 0.89943 0.46542 0.0
C820 C 0.71408 0.96225 0.5103 0.0
H821 H 0.77233 1.00222 0.55565 0.0
C822 C 0.70301 0.98103 0.50985 0.0
C823 C 0.7389 0.96961 0.52775 0.0
C824 C 0.75105 0.94978 0.53025 0.0
C825 C 0.71672 0.00742 0.52529 0.0
C826 C 0.74246 0.01552 0.5413 0.0
C827 C 0.75284 0.99621 0.54296 0.0
C828 C 0.75899 0.04407 0.55617 0.0
C829 C 0.70366 0.02655 0.5241 0.0
C830 C 0.77083 0.06941 0.53893 0.0
C831 C 0.78646 0.09631 0.55299 0.0
C832 C 0.79059 0.09843 0.58471 0.0
C833 C 0.77884 0.07285 0.60176 0.0
C834 C 0.76331 0.04603 0.58766 0.0
H835 H 0.68054 0.0143 0.51791 0.0
H836 H 0.7059 0.03734 0.54628 0.0
H837 H 0.71497 0.04338 0.50663 0.0
H838 H 0.76828 0.06837 0.51448 0.0
H839 H 0.79575 0.11523 0.53879 0.0
H840 H 0.31891 0.24031 0.17508 0.0
H841 H 0.31171 0.26669 0.21585 0.0
H842 H 0.40194 0.3296 0.21468 0.0
H843 H 0.40927 0.30312 0.17365 0.0
H844 H 0.3372 0.28436 0.27426 0.0
H845 H 0.35985 0.37622 0.19855 0.0
H846 H 0.35257 0.34184 0.18388 0.0
H847 H 0.38667 0.36561 0.20096 0.0
C848 C 0.3374 0.25954 0.18376 0.0
C849 C 0.36469 0.26972 0.17077 0.0
C850 C 0.3332 0.27461 0.20707 0.0
C851 C 0.35615 0.30042 0.21787 0.0
C852 C 0.38381 0.30997 0.20625 0.0
H853 H 0.32331 0.37655 0.37674 0.0
H854 H 0.34961 0.36596 0.33846 0.0
C855 C 0.38805 0.29466 0.1829 0.0
C856 C 0.35029 0.31738 0.24046 0.0
H857 H 0.34364 0.37714 0.24801 0.0
C858 C 0.33903 0.30486 0.26874 0.0
C859 C 0.35223 0.34388 0.23291 0.0
C860 C 0.3633 0.35775 0.20239 0.0
C861 C 0.32904 0.31775 0.28945 0.0
C862 C 0.33081 0.34419 0.28189 0.0
C863 C 0.34254 0.35702 0.25381 0.0
C864 C 0.31907 0.35773 0.30248 0.0
C865 C 0.31551 0.30225 0.31872 0.0
C866 C 0.29424 0.35862 0.29437 0.0
C867 C 0.27948 0.36536 0.31616 0.0
C868 C 0.28954 0.3715 0.34617 0.0
C869 C 0.31551 0.37265 0.35355 0.0
C870 C 0.33037 0.36625 0.3318 0.0
H871 H 0.31017 0.27945 0.31806 0.0
H872 H 0.33076 0.31298 0.33773 0.0
H873 H 0.29559 0.3029 0.32366 0.0
H874 H 0.28509 0.352 0.27188 0.0
H875 H 0.25896 0.36323 0.31023 0.0
H876 H 0.77176 0.08027 0.17345 0.0
H877 H 0.74548 0.04675 0.21421 0.0
H878 H 0.68179 0.07306 0.21212 0.0
H879 H 0.70809 0.10666 0.17095 0.0
H880 H 0.72809 0.05479 0.272 0.0
H881 H 0.63563 0.98454 0.19722 0.0
H882 H 0.6697 0.01185 0.18225 0.0
H883 H 0.64577 0.02186 0.19955 0.0
C884 C 0.75236 0.07928 0.18192 0.0
C885 C 0.74195 0.0961 0.16876 0.0
C886 C 0.73735 0.06007 0.20521 0.0
C887 C 0.7114 0.057 0.21579 0.0
C888 C 0.70155 0.07475 0.20387 0.0
H889 H 0.63828 0.94982 0.37577 0.0
H890 H 0.64825 0.98641 0.33744 0.0
C891 C 0.71676 0.09419 0.18049 0.0
C892 C 0.6947 0.03443 0.23856 0.0
H893 H 0.63514 0.96806 0.24687 0.0
C894 C 0.70756 0.03602 0.26673 0.0
C895 C 0.66816 0.00976 0.23131 0.0
C896 C 0.65395 0.00659 0.2009 0.0
C897 C 0.69502 0.01334 0.28759 0.0
C898 C 0.66851 0.98857 0.28035 0.0
C899 C 0.65531 0.98716 0.25241 0.0
C900 C 0.65528 0.96352 0.30112 0.0
C901 C 0.71098 0.01561 0.31663 0.0
C902 C 0.65385 0.93757 0.29284 0.0
C903 C 0.64738 0.9162 0.31465 0.0
C904 C 0.64208 0.92054 0.34484 0.0
C905 C 0.64154 0.94564 0.35246 0.0
C906 C 0.64759 0.96672 0.33067 0.0
H907 H 0.73383 0.0329 0.31548 0.0
H908 H 0.70075 0.02063 0.33574 0.0
H909 H 0.71022 0.99503 0.32177 0.0
H910 H 0.65982 0.93472 0.27014 0.0
H911 H 0.64897 0.89754 0.30853 0.0
H912 H 0.94985 0.63434 0.12806 0.0
H913 H 0.98657 0.64294 0.16581 0.0
H914 H 0.93778 0.65791 0.23387 0.0
H915 H 0.90065 0.64857 0.19606 0.0
H916 H 0.01744 0.6943 0.19078 0.0
H917 H 0.96724 0.61467 0.28305 0.0
H918 H 0.95082 0.60974 0.24609 0.0
H919 H 0.9471 0.63207 0.27412 0.0
C920 C 0.94626 0.63795 0.15146 0.0
C921 C 0.92191 0.63969 0.15948 0.0
C922 C 0.96742 0.64319 0.17295 0.0
C923 C 0.96493 0.65083 0.20282 0.0
C924 C 0.93989 0.65127 0.21125 0.0
H925 H 0.08448 0.7685 0.32685 0.0
H926 H 0.05215 0.74263 0.28487 0.0
C927 C 0.91852 0.64573 0.1897 0.0
C928 C 0.99017 0.66245 0.22353 0.0
H929 H 0.01098 0.65835 0.29579 0.0
C930 C 0.01611 0.68604 0.21355 0.0
C931 C 0.98867 0.65163 0.25316 0.0
C932 C 0.96204 0.62545 0.26464 0.0
C933 C 0.04 0.69994 0.23285 0.0
C934 C 0.03784 0.69025 0.26303 0.0
C935 C 0.0125 0.6658 0.27261 0.0
C936 C 0.0603 0.70713 0.28587 0.0
C937 C 0.0672 0.72538 0.22112 0.0
C938 C 0.07611 0.69605 0.29995 0.0
C939 C 0.09498 0.71108 0.32385 0.0
C940 C 0.09786 0.73708 0.33432 0.0
C941 C 0.08278 0.74852 0.31928 0.0
C942 C 0.0643 0.73378 0.29526 0.0
H943 H 0.06811 0.72555 0.1959 0.0
H944 H 0.06803 0.74547 0.22869 0.0
H945 H 0.08647 0.72538 0.23022 0.0
H946 H 0.07329 0.67547 0.29297 0.0
H947 H 0.10616 0.70165 0.33477 0.0
H948 H 0.69265 0.63342 0.62938 0.0
H949 H 0.66554 0.64343 0.66726 0.0
H950 H 0.7309 0.66057 0.734 0.0
H951 H 0.75781 0.64994 0.6961 0.0
H952 H 0.67335 0.63413 0.75826 0.0
H953 H 0.70072 0.72938 0.68624 0.0
H954 H 0.68086 0.69524 0.66755 0.0
H955 H 0.71679 0.70725 0.68057 0.0
C956 C 0.70049 0.63793 0.65254 0.0
C957 C 0.72686 0.64008 0.66013 0.0
C958 C 0.68519 0.64403 0.67404 0.0
C959 C 0.69645 0.65324 0.70327 0.0
C960 C 0.72179 0.65343 0.71157 0.0
H961 H 0.69643 0.76888 0.83172 0.0
H962 H 0.70318 0.74281 0.79024 0.0
C963 C 0.737 0.64703 0.69005 0.0
C964 C 0.68396 0.66613 0.72372 0.0
H965 H 0.67506 0.72452 0.73107 0.0
C966 C 0.67336 0.65367 0.75222 0.0
C967 C 0.68427 0.69184 0.71583 0.0
C968 C 0.69646 0.70692 0.68602 0.0
C969 C 0.66354 0.66654 0.77327 0.0
C970 C 0.66425 0.69242 0.76549 0.0
C971 C 0.67421 0.70449 0.73675 0.0
C972 C 0.65865 0.70933 0.78829 0.0
C973 C 0.65373 0.65319 0.80423 0.0
C974 C 0.6311 0.69979 0.80016 0.0
C975 C 0.62711 0.71492 0.82388 0.0
C976 C 0.65063 0.73962 0.83615 0.0
C977 C 0.67783 0.7498 0.82295 0.0
C978 C 0.68177 0.73493 0.79923 0.0
H979 H 0.65723 0.63472 0.80777 0.0
H980 H 0.66535 0.66943 0.82224 0.0
H981 H 0.63048 0.64554 0.80686 0.0
H982 H 0.61287 0.68026 0.79167 0.0
H983 H 0.60595 0.7065 0.83322 0.0
H984 H 0.36656 0.11321 0.69737 0.0
H985 H 0.3565 0.07645 0.73586 0.0
H986 H 0.36835 0.02488 0.66856 0.0
H987 H 0.37754 0.06115 0.63014 0.0
H988 H 0.31703 0.9962 0.69384 0.0
H989 H 0.39786 0.04512 0.7855 0.0
H990 H 0.38156 0.06623 0.77625 0.0
H991 H 0.4031 0.06117 0.74833 0.0
C992 C 0.36851 0.09473 0.6913 0.0
C993 C 0.37375 0.09039 0.6611 0.0
C994 C 0.3626 0.07362 0.71324 0.0
C995 C 0.36193 0.04793 0.70521 0.0
C996 C 0.36893 0.04453 0.67538 0.0
H997 H 0.30761 0.90428 0.83414 0.0
H998 H 0.33404 0.93782 0.79308 0.0
C999 C 0.37447 0.0654 0.6535 0.0
C1000 C 0.34967 0.02298 0.72624 0.0
H1001 H 0.35368 1.00215 0.79849 0.0
C1002 C 0.32542 0.99741 0.71653 0.0
C1003 C 0.36062 0.02437 0.7558 0.0
C1004 C 0.38739 0.05061 0.767 0.0
C1005 C 0.31112 0.97376 0.73598 0.0
C1006 C 0.32109 0.97578 0.76601 0.0
C1007 C 0.34605 1.00075 0.7754 0.0
C1008 C 0.30416 0.95344 0.7888 0.0
C1009 C 0.28499 0.94695 0.72459 0.0
C1010 C 0.2784 0.95073 0.7995 0.0
C1011 C 0.26347 0.93177 0.82306 0.0
C1012 C 0.27381 0.91492 0.83631 0.0
C1013 C 0.29895 0.91671 0.82457 0.0
C1014 C 0.31417 0.93602 0.80113 0.0
H1015 H 0.28387 0.94627 0.69938 0.0
H1016 H 0.28497 0.92744 0.73287 0.0
H1017 H 0.26537 0.94639 0.73339 0.0
H1018 H 0.27037 0.96407 0.79035 0.0
H1019 H 0.24418 0.93096 0.83162 0.0
H1020 H 0.93231 0.24273 0.67689 0.0
H1021 H 0.96485 0.26821 0.71889 0.0
H1022 H 0.94244 0.33462 0.71343 0.0
H1023 H 0.90936 0.30883 0.67168 0.0
H1024 H 1.00535 0.35218 0.70947 0.0
H1025 H 0.94852 0.28384 0.80888 0.0
H1026 H 0.94832 0.26449 0.77544 0.0
H1027 H 0.93001 0.28472 0.77499 0.0
C1028 C 0.93378 0.26245 0.68506 0.0
C1029 C 0.91825 0.2738 0.6708 0.0
C1030 C 0.95239 0.27696 0.70906 0.0
C1031 C 0.95609 0.3033 0.71918 0.0
C1032 C 0.93986 0.31428 0.70587 0.0
H1033 H 0.06524 0.37554 0.87755 0.0
H1034 H 0.02874 0.36655 0.83944 0.0
C1035 C 0.92086 0.29946 0.68201 0.0
C1036 C 0.97858 0.31999 0.74203 0.0
H1037 H 0.99895 0.31556 0.81415 0.0
C1038 C 1.00386 0.34457 0.73257 0.0
C1039 C 0.97644 0.31007 0.77209 0.0
C1040 C 0.94928 0.28448 0.78366 0.0
C1041 C 0.02764 0.35875 0.7521 0.0
C1042 C 0.02614 0.34776 0.78164 0.0
C1043 C 1.00028 0.32395 0.79145 0.0
C1044 C 0.05122 0.35961 0.80258 0.0
C1045 C 0.05415 0.38516 0.74081 0.0
C1046 C 0.07667 0.3599 0.79436 0.0
C1047 C 0.09796 0.36575 0.81612 0.0
C1048 C 0.09401 0.37126 0.84635 0.0
C1049 C 0.06921 0.37226 0.85416 0.0
C1050 C 0.04819 0.36682 0.83246 0.0
H1051 H 0.04888 0.39591 0.72244 0.0
H1052 H 0.06515 0.4008 0.75947 0.0
H1053 H 0.06931 0.37881 0.73135 0.0
H1054 H 0.07922 0.35363 0.77171 0.0
H1055 H 0.11626 0.36357 0.80989 0.0
H1056 H 0.49607 0.25708 0.15761 0.0
H1057 H 0.53542 0.24682 0.16121 0.0
H1058 H 0.50166 0.19008 0.08404 0.0
H1059 H 0.46223 0.20022 0.08011 0.0
H1060 H 0.5298 0.19227 0.17043 0.0
H1061 H 0.58754 0.2419 0.06326 0.0
H1062 H 0.56184 0.25022 0.07991 0.0
H1063 H 0.54972 0.21767 0.05852 0.0
C1064 C 0.4971 0.24262 0.14117 0.0
C1065 C 0.47591 0.22948 0.11853 0.0
C1066 C 0.51963 0.23677 0.14332 0.0
C1067 C 0.52166 0.21794 0.12271 0.0
C1068 C 0.50079 0.20506 0.09987 0.0
H1069 H 0.60103 0.11489 0.13195 0.0
H1070 H 0.5698 0.13568 0.13363 0.0
C1071 C 0.47816 0.21078 0.09777 0.0
C1072 C 0.54466 0.21053 0.12608 0.0
H1073 H 0.60037 0.21067 0.08859 0.0
C1074 C 0.54541 0.19655 0.15267 0.0
C1075 C 0.56526 0.21646 0.10307 0.0
C1076 C 0.56633 0.23263 0.07468 0.0
C1077 C 0.56546 0.18729 0.15634 0.0
C1078 C 0.58513 0.19196 0.13269 0.0
C1079 C 0.58516 0.20698 0.10662 0.0
C1080 C 0.6045 0.17975 0.13371 0.0
C1081 C 0.56529 0.17237 0.18538 0.0
C1082 C 0.63447 0.19765 0.13303 0.0
C1083 C 0.6525 0.18579 0.13214 0.0
C1084 C 0.6408 0.15579 0.13152 0.0
C1085 C 0.61077 0.13805 0.13248 0.0
C1086 C 0.59285 0.14989 0.13362 0.0
H1087 H 0.55469 0.17739 0.20415 0.0
H1088 H 0.55323 0.1488 0.18166 0.0
H1089 H 0.58747 0.17858 0.19248 0.0
H1090 H 0.64387 0.22077 0.13279 0.0
H1091 H 0.67547 0.20012 0.13078 0.0
H1092 H 0.75712 0.24076 0.16065 0.0
H1093 H 0.76726 0.29025 0.16555 0.0
H1094 H 0.82614 0.31529 0.09023 0.0
H1095 H 0.81612 0.26582 0.08499 0.0
H1096 H 0.82145 0.33945 0.17676 0.0
H1097 H 0.77375 0.34861 0.06858 0.0
H1098 H 0.76546 0.31445 0.08473 0.0
H1099 H 0.79843 0.33551 0.06429 0.0
C1100 C 0.77209 0.2567 0.14493 0.0
C1101 C 0.78579 0.24923 0.12238 0.0
C1102 C 0.77786 0.285 0.14782 0.0
C1103 C 0.79719 0.30637 0.12806 0.0
C1104 C 0.81077 0.29902 0.10541 0.0
H1105 H 0.8984 0.48838 0.13965 0.0
H1106 H 0.87782 0.43643 0.14249 0.0
C1107 C 0.80513 0.27074 0.10256 0.0
C1108 C 0.80414 0.33659 0.13196 0.0
H1109 H 0.80389 0.39231 0.0951 0.0
C1110 C 0.81736 0.35094 0.15904 0.0
C1111 C 0.79839 0.35142 0.10902 0.0
C1112 C 0.78298 0.33669 0.08011 0.0
C1113 C 0.82611 0.38009 0.16324 0.0
C1114 C 0.8217 0.3953 0.13966 0.0
C1115 C 0.80738 0.38064 0.11311 0.0
C1116 C 0.83368 0.42683 0.14108 0.0
C1117 C 0.84027 0.39446 0.19276 0.0
C1118 C 0.81569 0.43876 0.1394 0.0
C1119 C 0.82744 0.46861 0.13788 0.0
C1120 C 0.85741 0.48696 0.13758 0.0
C1121 C 0.87525 0.47486 0.13994 0.0
C1122 C 0.86352 0.44516 0.14172 0.0
H1123 H 0.83479 0.37856 0.2113 0.0
H1124 H 0.86392 0.40605 0.18977 0.0
H1125 H 0.83383 0.41029 0.19974 0.0
H1126 H 0.7926 0.42494 0.13859 0.0
H1127 H 0.81309 0.47714 0.13548 0.0
H1128 H 0.7481 0.55941 0.08535 0.0
H1129 H 0.69801 0.52143 0.08939 0.0
H1130 H 0.72074 0.48055 0.15957 0.0
H1131 H 0.77111 0.5182 0.15534 0.0
H1132 H 0.68291 0.44169 0.11759 0.0
H1133 H 0.64383 0.51374 0.15776 0.0
H1134 H 0.66327 0.52543 0.12267 0.0
H1135 H 0.68149 0.52469 0.15665 0.0
C1136 C 0.74256 0.54237 0.10163 0.0
C1137 C 0.76374 0.54208 0.12015 0.0
C1138 C 0.71381 0.52072 0.10405 0.0
C1139 C 0.70549 0.49844 0.12524 0.0
C1140 C 0.72662 0.49764 0.14323 0.0
H1141 H 0.53239 0.35337 0.16578 0.0
H1142 H 0.5843 0.38644 0.16751 0.0
C1143 C 0.75543 0.51925 0.14078 0.0
C1144 C 0.67475 0.47601 0.12847 0.0
H1145 H 0.60807 0.46693 0.14149 0.0
C1146 C 0.66656 0.44713 0.12316 0.0
C1147 C 0.65344 0.48309 0.13603 0.0
C1148 C 0.66093 0.51338 0.14392 0.0
C1149 C 0.63752 0.42536 0.12384 0.0
C1150 C 0.6162 0.43267 0.13024 0.0
C1151 C 0.62446 0.4614 0.13644 0.0
C1152 C 0.58504 0.41133 0.12862 0.0
C1153 C 0.62968 0.39489 0.11657 0.0
C1154 C 0.56824 0.41437 0.10627 0.0
C1155 C 0.53868 0.39548 0.10504 0.0
C1156 C 0.52498 0.37305 0.12628 0.0
C1157 C 0.54199 0.36988 0.14862 0.0
C1158 C 0.57176 0.38887 0.14975 0.0
H1159 H 0.64827 0.39347 0.10768 0.0
H1160 H 0.62187 0.3817 0.13748 0.0
H1161 H 0.61208 0.38548 0.09956 0.0
H1162 H 0.57803 0.43154 0.08975 0.0
H1163 H 0.52655 0.39866 0.08736 0.0
H1164 H 0.11925 0.60024 0.35635 0.0
H1165 H 0.13871 0.56775 0.3571 0.0
H1166 H 0.21723 0.63464 0.39686 0.0
H1167 H 0.19831 0.66777 0.39431 0.0
H1168 H 0.22969 0.60484 0.36 0.0
H1169 H 0.13998 0.52751 0.43155 0.0
H1170 H 0.1268 0.53266 0.39617 0.0
H1171 H 0.14486 0.56229 0.42233 0.0
C1172 C 0.14085 0.6081 0.36476 0.0
C1173 C 0.15729 0.63643 0.3753 0.0
C1174 C 0.15184 0.58943 0.36556 0.0
C1175 C 0.17906 0.59832 0.37811 0.0
C1176 C 0.19606 0.62711 0.38737 0.0
H1177 H 0.2183 0.4665 0.43744 0.0
H1178 H 0.20767 0.50574 0.43577 0.0
C1179 C 0.18532 0.64607 0.38581 0.0
C1180 C 0.18934 0.5774 0.38216 0.0
H1181 H 0.16893 0.5103 0.40894 0.0
C1182 C 0.2165 0.58426 0.37095 0.0
C1183 C 0.17261 0.55081 0.39724 0.0
C1184 C 0.14462 0.54304 0.41281 0.0
C1185 C 0.22695 0.56502 0.37355 0.0
C1186 C 0.20925 0.53756 0.38659 0.0
C1187 C 0.18245 0.53108 0.39852 0.0
C1188 C 0.21777 0.51506 0.388 0.0
C1189 C 0.25712 0.57475 0.3629 0.0
C1190 C 0.22704 0.50704 0.36182 0.0
C1191 C 0.23384 0.48512 0.36297 0.0
C1192 C 0.23059 0.47001 0.39009 0.0
C1193 C 0.22096 0.47771 0.4162 0.0
C1194 C 0.21487 0.50015 0.41523 0.0
H1195 H 0.2708 0.59849 0.36426 0.0
H1196 H 0.26734 0.56494 0.37655 0.0
H1197 H 0.25652 0.56851 0.33876 0.0
H1198 H 0.22846 0.51728 0.34024 0.0
H1199 H 0.24081 0.47938 0.34235 0.0
H1200 H 0.5191 0.77235 0.34824 0.0
H1201 H 0.47992 0.72281 0.34334 0.0
H1202 H 0.5169 0.69697 0.41486 0.0
H1203 H 0.55622 0.74651 0.42008 0.0
H1204 H 0.48511 0.67443 0.32891 0.0
H1205 H 0.43196 0.6619 0.44036 0.0
H1206 H 0.45699 0.69656 0.42459 0.0
H1207 H 0.46993 0.67531 0.44279 0.0
C1208 C 0.51886 0.75623 0.36316 0.0
C1209 C 0.5409 0.76352 0.38462 0.0
C1210 C 0.49641 0.72789 0.36026 0.0
C1211 C 0.49531 0.70626 0.37894 0.0
C1212 C 0.51707 0.71343 0.40056 0.0
H1213 H 0.41621 0.52475 0.36183 0.0
H1214 H 0.44687 0.57684 0.35994 0.0
C1215 C 0.53962 0.74176 0.40341 0.0
C1216 C 0.47217 0.67598 0.37484 0.0
H1217 H 0.41796 0.61896 0.41212 0.0
C1218 C 0.47024 0.66237 0.34699 0.0
C1219 C 0.45251 0.6604 0.39828 0.0
C1220 C 0.45268 0.67431 0.42811 0.0
C1221 C 0.44995 0.63324 0.34242 0.0
C1222 C 0.43127 0.61728 0.36639 0.0
C1223 C 0.43239 0.6312 0.39379 0.0
C1224 C 0.412 0.58572 0.36437 0.0
C1225 C 0.44886 0.61969 0.31206 0.0
C1226 C 0.38211 0.57333 0.3674 0.0
C1227 C 0.3644 0.54339 0.36835 0.0
C1228 C 0.37642 0.52541 0.36676 0.0
C1229 C 0.40628 0.53798 0.36302 0.0
C1230 C 0.42385 0.56777 0.36178 0.0
H1231 H 0.45847 0.63607 0.29382 0.0
H1232 H 0.46126 0.60831 0.31344 0.0
H1233 H 0.42642 0.60381 0.30569 0.0
H1234 H 0.37258 0.58684 0.36971 0.0
H1235 H 0.34158 0.53446 0.37185 0.0
H1236 H 0.47902 0.81257 0.36932 0.0
H1237 H 0.4267 0.79165 0.36758 0.0
H1238 H 0.43742 0.87635 0.35959 0.0
H1239 H 0.48946 0.89735 0.36102 0.0
H1240 H 0.39497 0.80457 0.41064 0.0
H1241 H 0.37783 0.83 0.29322 0.0
H1242 H 0.41004 0.8299 0.30467 0.0
H1243 H 0.40567 0.86018 0.31333 0.0
C1244 C 0.47027 0.82668 0.36629 0.0
C1245 C 0.48845 0.85666 0.36503 0.0
C1246 C 0.44035 0.8147 0.36558 0.0
C1247 C 0.42818 0.83243 0.36316 0.0
C1248 C 0.44631 0.86222 0.36095 0.0
H1249 H 0.26655 0.81389 0.42024 0.0
H1250 H 0.31633 0.82484 0.4149 0.0
C1251 C 0.47608 0.8742 0.36192 0.0
C1252 C 0.39664 0.82032 0.36531 0.0
H1253 H 0.3395 0.81766 0.32842 0.0
C1254 C 0.38274 0.8071 0.39254 0.0
C1255 C 0.38069 0.82349 0.34162 0.0
C1256 C 0.39422 0.83642 0.31144 0.0
C1257 C 0.35353 0.79793 0.3971 0.0
C1258 C 0.33794 0.80237 0.37395 0.0
C1259 C 0.35157 0.81457 0.34629 0.0
C1260 C 0.30756 0.79487 0.37806 0.0
C1261 C 0.33962 0.78363 0.42669 0.0
C1262 C 0.28614 0.77464 0.35891 0.0
C1263 C 0.25769 0.76834 0.36185 0.0
C1264 C 0.25005 0.78239 0.38385 0.0
C1265 C 0.27159 0.80259 0.40312 0.0
C1266 C 0.30006 0.80878 0.40021 0.0
H1267 H 0.3521 0.77522 0.43861 0.0
H1268 H 0.33848 0.79957 0.4418 0.0
H1269 H 0.31741 0.76567 0.42289 0.0
H1270 H 0.29148 0.76375 0.34158 0.0
H1271 H 0.24175 0.75269 0.34656 0.0
H1272 H 0.34208 0.8125 0.8726 0.0
H1273 H 0.37429 0.79253 0.87145 0.0
H1274 H 0.44761 0.8781 0.87232 0.0
H1275 H 0.41579 0.89823 0.87305 0.0
H1276 H 0.45164 0.8394 0.83024 0.0
H1277 H 0.42213 0.79496 0.94721 0.0
H1278 H 0.39307 0.78467 0.92078 0.0
H1279 H 0.41386 0.82141 0.93278 0.0
C1280 C 0.36503 0.8271 0.8719 0.0
C1281 C 0.37633 0.85703 0.87284 0.0
C1282 C 0.38341 0.81562 0.8716 0.0
C1283 C 0.41334 0.83385 0.87218 0.0
C1284 C 0.4246 0.86365 0.87198 0.0
H1285 H 0.55736 0.81497 0.92369 0.0
H1286 H 0.51869 0.82624 0.91912 0.0
C1287 C 0.40634 0.8751 0.87247 0.0
C1288 C 0.43323 0.82226 0.87397 0.0
H1289 H 0.45704 0.78853 0.92173 0.0
C1290 C 0.45265 0.82801 0.85009 0.0
C1291 C 0.43475 0.80779 0.90011 0.0
C1292 C 0.41503 0.80194 0.92685 0.0
C1293 C 0.47371 0.81987 0.85173 0.0
C1294 C 0.47525 0.80542 0.87787 0.0
C1295 C 0.45569 0.79947 0.90166 0.0
C1296 C 0.4978 0.79739 0.88138 0.0
C1297 C 0.49477 0.82762 0.82591 0.0
C1298 C 0.49856 0.77703 0.86206 0.0
C1299 C 0.52059 0.77048 0.86462 0.0
C1300 C 0.54235 0.78418 0.88661 0.0
C1301 C 0.54108 0.80408 0.90642 0.0
C1302 C 0.51897 0.81053 0.90389 0.0
H1303 H 0.4943 0.84362 0.81034 0.0
H1304 H 0.51696 0.83643 0.83472 0.0
H1305 H 0.4893 0.80801 0.81257 0.0
H1306 H 0.4822 0.76633 0.84483 0.0
H1307 H 0.52073 0.75493 0.84906 0.0
H1308 H 0.1998 0.74508 0.9182 0.0
H1309 H 0.18991 0.69571 0.91249 0.0
H1310 H 0.25105 0.722 0.8392 0.0
H1311 H 0.26108 0.77141 0.84459 0.0
H1312 H 0.19759 0.67315 0.82593 0.0
H1313 H 0.24116 0.66173 0.93591 0.0
H1314 H 0.21628 0.67466 0.93936 0.0
H1315 H 0.24995 0.69622 0.92029 0.0
C1316 C 0.21135 0.74048 0.90102 0.0
C1317 C 0.23128 0.76233 0.88191 0.0
C1318 C 0.20576 0.71223 0.89789 0.0
C1319 C 0.22001 0.70525 0.87566 0.0
C1320 C 0.23993 0.72695 0.8566 0.0
H1321 H 0.20327 0.53408 0.86848 0.0
H1322 H 0.22429 0.58638 0.8658 0.0
C1323 C 0.24563 0.75521 0.85977 0.0
C1324 C 0.21315 0.67508 0.87143 0.0
H1325 H 0.21173 0.61852 0.90825 0.0
C1326 C 0.20094 0.66128 0.8438 0.0
C1327 C 0.21795 0.65974 0.89458 0.0
C1328 C 0.23231 0.67387 0.92412 0.0
C1329 C 0.19226 0.63219 0.83922 0.0
C1330 C 0.19567 0.61646 0.86296 0.0
C1331 C 0.20901 0.63058 0.8901 0.0
C1332 C 0.18354 0.58491 0.86107 0.0
C1333 C 0.17924 0.61845 0.80909 0.0
C1334 C 0.15373 0.56679 0.85898 0.0
C1335 C 0.14171 0.53704 0.8605 0.0
C1336 C 0.15921 0.52468 0.86405 0.0
C1337 C 0.1892 0.54283 0.86512 0.0
C1338 C 0.20123 0.57273 0.86386 0.0
H1339 H 0.18568 0.63472 0.79078 0.0
H1340 H 0.18569 0.60253 0.80248 0.0
H1341 H 0.15549 0.60709 0.81098 0.0
H1342 H 0.13963 0.5757 0.85736 0.0
H1343 H 0.11855 0.52368 0.85973 0.0
H1344 H 0.26023 0.46823 0.93566 0.0
H1345 H 0.30993 0.50772 0.93372 0.0
H1346 H 0.30012 0.51891 0.83824 0.0
H1347 H 0.24999 0.48068 0.84061 0.0
H1348 H 0.35305 0.51214 0.90633 0.0
H1349 H 0.33875 0.60021 0.86239 0.0
H1350 H 0.30883 0.56661 0.87484 0.0
H1351 H 0.323 0.5702 0.83694 0.0
C1352 C 0.26862 0.47941 0.91437 0.0
C1353 C 0.25119 0.4715 0.88834 0.0
C1354 C 0.29704 0.502 0.91325 0.0
C1355 C 0.30883 0.51685 0.88595 0.0
C1356 C 0.29143 0.50867 0.85985 0.0
H1357 H 0.49234 0.60285 0.85352 0.0
H1358 H 0.4404 0.57029 0.85403 0.0
C1359 C 0.2628 0.48658 0.86115 0.0
C1360 C 0.33978 0.5394 0.88438 0.0
H1361 H 0.3863 0.60687 0.85808 0.0
C1362 C 0.3602 0.53295 0.89606 0.0
C1363 C 0.34937 0.56688 0.8715 0.0
C1364 C 0.32878 0.57649 0.86105 0.0
C1365 C 0.38973 0.55278 0.89472 0.0
C1366 C 0.39941 0.57943 0.87986 0.0
C1367 C 0.37902 0.58625 0.86887 0.0
C1368 C 0.43055 0.60047 0.87585 0.0
C1369 C 0.4101 0.54504 0.90999 0.0
C1370 C 0.44225 0.62908 0.8857 0.0
C1371 C 0.47194 0.64808 0.88434 0.0
C1372 C 0.49038 0.63865 0.87342 0.0
C1373 C 0.47855 0.61053 0.86226 0.0
C1374 C 0.44891 0.59182 0.8629 0.0
H1375 H 0.3993 0.52927 0.92857 0.0
H1376 H 0.41767 0.53496 0.89311 0.0
H1377 H 0.42902 0.56427 0.91966 0.0
H1378 H 0.42857 0.6364 0.89552 0.0
H1379 H 0.4806 0.66962 0.8933 0.0
H1380 H 0.77373 0.53202 0.6678 0.0
H1381 H 0.78764 0.49527 0.67208 0.0
H1382 H 0.81325 0.50792 0.57789 0.0
H1383 H 0.80093 0.54585 0.57404 0.0
H1384 H 0.771 0.44585 0.64784 0.0
H1385 H 0.88415 0.51617 0.61393 0.0
H1386 H 0.86032 0.53 0.62095 0.0
H1387 H 0.86008 0.5142 0.5847 0.0
C1388 C 0.78241 0.527 0.64802 0.0
C1389 C 0.78658 0.54208 0.62068 0.0
C1390 C 0.79032 0.50594 0.65047 0.0
C1391 C 0.80221 0.49919 0.62554 0.0
C1392 C 0.80517 0.51338 0.59782 0.0
H1393 H 0.81802 0.34496 0.61461 0.0
H1394 H 0.79974 0.37857 0.6147 0.0
C1395 C 0.79791 0.53494 0.59555 0.0
C1396 C 0.8115 0.4774 0.62865 0.0
H1397 H 0.86766 0.46609 0.61564 0.0
C1398 C 0.79224 0.45036 0.64101 0.0
C1399 C 0.83939 0.48333 0.62036 0.0
C1400 C 0.86225 0.5126 0.60958 0.0
C1401 C 0.79994 0.42912 0.64498 0.0
C1402 C 0.82731 0.43455 0.63517 0.0
C1403 C 0.84658 0.46166 0.62301 0.0
C1404 C 0.83685 0.41287 0.63747 0.0
C1405 C 0.77888 0.40147 0.66047 0.0
C1406 C 0.86396 0.42083 0.64977 0.0
C1407 C 0.87472 0.40197 0.6488 0.0
C1408 C 0.85834 0.37445 0.63623 0.0
C1409 C 0.83076 0.36588 0.62504 0.0
C1410 C 0.82028 0.38508 0.62524 0.0
H1411 H 0.76408 0.40457 0.67555 0.0
H1412 H 0.76561 0.38536 0.643 0.0
H1413 H 0.79004 0.39271 0.67423 0.0
H1414 H 0.87724 0.44204 0.65938 0.0
H1415 H 0.89615 0.40911 0.65734 0.0
H1416 H 0.49457 0.23987 0.6586 0.0
H1417 H 0.53293 0.28983 0.66353 0.0
H1418 H 0.49788 0.3134 0.58817 0.0
H1419 H 0.4593 0.26345 0.58297 0.0
H1420 H 0.5608 0.33685 0.588 0.0
H1421 H 0.5185 0.35519 0.69601 0.0
H1422 H 0.52262 0.324 0.69432 0.0
H1423 H 0.49656 0.32595 0.67054 0.0
C1424 C 0.49502 0.25559 0.64292 0.0
C1425 C 0.47366 0.2476 0.62047 0.0
C1426 C 0.51694 0.28417 0.64588 0.0
C1427 C 0.51804 0.30532 0.62643 0.0
C1428 C 0.49732 0.29737 0.60347 0.0
H1429 H 0.59827 0.48761 0.6331 0.0
H1430 H 0.56702 0.43564 0.63479 0.0
C1431 C 0.47526 0.26881 0.60058 0.0
C1432 C 0.54044 0.33586 0.63038 0.0
H1433 H 0.56157 0.39373 0.67721 0.0
C1434 C 0.56117 0.34928 0.60759 0.0
C1435 C 0.54066 0.35198 0.6559 0.0
C1436 C 0.51833 0.33874 0.68058 0.0
C1437 C 0.58199 0.37857 0.60946 0.0
C1438 C 0.58216 0.39475 0.63495 0.0
C1439 C 0.56159 0.3812 0.65789 0.0
C1440 C 0.60169 0.4263 0.63673 0.0
C1441 C 0.60295 0.39222 0.58365 0.0
C1442 C 0.63165 0.4384 0.63815 0.0
C1443 C 0.64972 0.46829 0.63723 0.0
C1444 C 0.63805 0.48654 0.63489 0.0
C1445 C 0.608 0.47423 0.63474 0.0
C1446 C 0.59006 0.4445 0.63578 0.0
H1447 H 0.5967 0.37807 0.56333 0.0
H1448 H 0.60462 0.41293 0.57705 0.0
H1449 H 0.62453 0.39672 0.59107 0.0
H1450 H 0.64106 0.42471 0.63929 0.0
H1451 H 0.67272 0.47692 0.63699 0.0
H1452 H 0.74869 0.19589 0.58853 0.0
H1453 H 0.69895 0.18497 0.59384 0.0
H1454 H 0.72377 0.24595 0.66726 0.0
H1455 H 0.77353 0.25703 0.66226 0.0
H1456 H 0.67511 0.19182 0.6799 0.0
H1457 H 0.66437 0.23573 0.56984 0.0
H1458 H 0.67784 0.21126 0.56671 0.0
H1459 H 0.69877 0.24493 0.58606 0.0
C1460 C 0.74367 0.20715 0.60569 0.0
C1461 C 0.76523 0.22741 0.6249 0.0
C1462 C 0.71521 0.20096 0.60859 0.0
C1463 C 0.70772 0.21491 0.6307 0.0
C1464 C 0.72911 0.23505 0.64995 0.0
H1465 H 0.53671 0.19846 0.63726 0.0
H1466 H 0.58896 0.21906 0.63991 0.0
C1467 C 0.75758 0.24136 0.647 0.0
C1468 C 0.67739 0.20767 0.6345 0.0
H1469 H 0.62109 0.20638 0.59716 0.0
C1470 C 0.66335 0.19523 0.66192 0.0
C1471 C 0.66221 0.21254 0.61121 0.0
C1472 C 0.67658 0.22709 0.58188 0.0
C1473 C 0.63421 0.18646 0.66619 0.0
C1474 C 0.61867 0.19005 0.64234 0.0
C1475 C 0.633 0.20354 0.61538 0.0
C1476 C 0.58714 0.1781 0.644 0.0
C1477 C 0.62022 0.17323 0.69611 0.0
C1478 C 0.56883 0.1483 0.64571 0.0
C1479 C 0.5391 0.13651 0.64421 0.0
C1480 C 0.52694 0.15423 0.64106 0.0
C1481 C 0.54529 0.1842 0.6403 0.0
C1482 C 0.57517 0.19601 0.64154 0.0
H1483 H 0.63634 0.17932 0.71456 0.0
H1484 H 0.60443 0.17983 0.70274 0.0
H1485 H 0.60864 0.14949 0.6939 0.0
H1486 H 0.57757 0.13404 0.6471 0.0
H1487 H 0.52559 0.11336 0.64474 0.0
H1488 H 0.4164 0.13994 0.75054 0.0
H1489 H 0.41155 0.14489 0.80534 0.0
H1490 H 0.40239 0.21894 0.78883 0.0
H1491 H 0.40662 0.21386 0.73437 0.0
H1492 H 0.44505 0.18908 0.84319 0.0
H1493 H 0.33488 0.17233 0.84398 0.0
H1494 H 0.34971 0.1639 0.8114 0.0
H1495 H 0.35786 0.20024 0.81821 0.0
C1496 C 0.41319 0.15717 0.75861 0.0
C1497 C 0.41183 0.17646 0.73805 0.0
C1498 C 0.41039 0.15996 0.78992 0.0
C1499 C 0.40607 0.18199 0.80122 0.0
C1500 C 0.40491 0.20132 0.78069 0.0
H1501 H 0.44519 0.2585 0.98035 0.0
H1502 H 0.444 0.24656 0.92659 0.0
C1503 C 0.40755 0.19848 0.74949 0.0
C1504 C 0.40409 0.18575 0.83447 0.0
H1505 H 0.36321 0.19408 0.88857 0.0
C1506 C 0.42702 0.18989 0.85315 0.0
C1507 C 0.38038 0.18638 0.84765 0.0
C1508 C 0.35418 0.18017 0.82931 0.0
C1509 C 0.42735 0.19564 0.88435 0.0
C1510 C 0.40443 0.19797 0.89715 0.0
C1511 C 0.38101 0.19278 0.87871 0.0
C1512 C 0.4044 0.20584 0.92959 0.0
C1513 C 0.45218 0.1989 0.90333 0.0
C1514 C 0.38185 0.1876 0.94896 0.0
C1515 C 0.38225 0.19457 0.97969 0.0
C1516 C 0.40524 0.21998 0.99167 0.0
C1517 C 0.4273 0.23864 0.97198 0.0
C1518 C 0.42679 0.23173 0.94125 0.0
H1519 H 0.46297 0.18811 0.89256 0.0
H1520 H 0.46829 0.22205 0.9056 0.0
H1521 H 0.445 0.18987 0.92643 0.0
H1522 H 0.3642 0.16764 0.94044 0.0
H1523 H 0.36488 0.17972 0.99418 0.0
H1524 H 0.86409 0.28526 0.75286 0.0
H1525 H 0.85724 0.27556 0.80754 0.0
H1526 H 0.82104 0.18503 0.79005 0.0
H1527 H 0.82738 0.19441 0.73561 0.0
H1528 H 0.78725 0.1963 0.82735 0.0
H1529 H 0.89991 0.25306 0.86843 0.0
H1530 H 0.89042 0.2749 0.8459 0.0
H1531 H 0.89071 0.24467 0.82884 0.0
C1532 C 0.85492 0.26333 0.7607 0.0
C1533 C 0.8461 0.2406 0.73983 0.0
C1534 C 0.8512 0.25783 0.79197 0.0
C1535 C 0.83882 0.22957 0.80292 0.0
C1536 C 0.83064 0.20699 0.78214 0.0
H1537 H 0.82521 0.17558 0.99243 0.0
H1538 H 0.83634 0.18395 0.93811 0.0
C1539 C 0.83431 0.21243 0.75098 0.0
C1540 C 0.83255 0.22313 0.83577 0.0
H1541 H 0.86332 0.2364 0.90622 0.0
C1542 C 0.80391 0.20499 0.84458 0.0
C1543 C 0.85433 0.23416 0.85819 0.0
C1544 C 0.88561 0.25256 0.84994 0.0
C1545 C 0.79637 0.19799 0.87518 0.0
C1546 C 0.81799 0.20984 0.89773 0.0
C1547 C 0.84673 0.22752 0.88892 0.0
C1548 C 0.81104 0.20447 0.93058 0.0
C1549 C 0.76533 0.17766 0.88305 0.0
C1550 C 0.79322 0.21331 0.9444 0.0
C1551 C 0.78674 0.20848 0.97533 0.0
C1552 C 0.79812 0.19487 0.99321 0.0
C1553 C 0.816 0.18602 0.97932 0.0
C1554 C 0.82247 0.19088 0.94831 0.0
H1555 H 0.75307 0.16449 0.86316 0.0
H1556 H 0.76347 0.16304 0.90181 0.0
H1557 H 0.75522 0.19025 0.89057 0.0
H1558 H 0.78456 0.22428 0.93131 0.0
H1559 H 0.77308 0.21577 0.98528 0.0
H1560 H 0.75956 0.59374 0.99534 0.0
H1561 H 0.75439 0.59365 0.9403 0.0
H1562 H 0.84643 0.63748 0.93022 0.0
H1563 H 0.85188 0.63743 0.98556 0.0
H1564 H 0.77572 0.64023 0.90005 0.0
H1565 H 0.81853 0.56757 0.87366 0.0
H1566 H 0.80803 0.57146 0.91153 0.0
H1567 H 0.8417 0.59857 0.89613 0.0
C1568 C 0.77878 0.60332 0.9815 0.0
C1569 C 0.80616 0.61544 0.9949 0.0
C1570 C 0.77574 0.60329 0.95 0.0
C1571 C 0.79997 0.61523 0.93111 0.0
C1572 C 0.82741 0.62769 0.94434 0.0
H1573 H 0.81827 0.62502 0.73473 0.0
H1574 H 0.82608 0.62978 0.78953 0.0
C1575 C 0.83049 0.62775 0.97597 0.0
C1576 C 0.79623 0.61466 0.89763 0.0
H1577 H 0.8067 0.58725 0.83197 0.0
C1578 C 0.7825 0.62866 0.88513 0.0
C1579 C 0.80506 0.59954 0.87823 0.0
C1580 C 0.81894 0.5832 0.89048 0.0
C1581 C 0.77761 0.6282 0.85371 0.0
C1582 C 0.78618 0.61282 0.83433 0.0
C1583 C 0.80011 0.599 0.84683 0.0
C1584 C 0.78111 0.61086 0.80098 0.0
C1585 C 0.7638 0.64462 0.84152 0.0
C1586 C 0.75316 0.59857 0.78907 0.0
C1587 C 0.74859 0.5959 0.7576 0.0
C1588 C 0.77188 0.6052 0.73748 0.0
C1589 C 0.79981 0.61758 0.74952 0.0
C1590 C 0.80435 0.62031 0.7809 0.0
H1591 H 0.76586 0.66142 0.85772 0.0
H1592 H 0.77349 0.65499 0.8195 0.0
H1593 H 0.74057 0.62955 0.8378 0.0
H1594 H 0.73482 0.59057 0.80411 0.0
H1595 H 0.72681 0.5862 0.74909 0.0
H1596 H 0.18371 0.3595 0.5135 0.0
H1597 H 0.17177 0.35893 0.56725 0.0
H1598 H 0.2509 0.43857 0.58118 0.0
H1599 H 0.2627 0.43966 0.52741 0.0
H1600 H 0.19817 0.35801 0.6193 0.0
H1601 H 0.19258 0.45798 0.61469 0.0
H1602 H 0.19426 0.43979 0.58094 0.0
H1603 H 0.22647 0.46309 0.60181 0.0
C1604 C 0.19864 0.37686 0.52801 0.0
C1605 C 0.22404 0.3998 0.51605 0.0
C1606 C 0.19175 0.37651 0.55875 0.0
C1607 C 0.21008 0.39906 0.57813 0.0
C1608 C 0.236 0.42136 0.5665 0.0
H1609 H 0.21745 0.40202 0.77349 0.0
H1610 H 0.22267 0.39737 0.71913 0.0
C1611 C 0.24283 0.42182 0.53577 0.0
C1612 C 0.20221 0.39925 0.61051 0.0
H1613 H 0.19335 0.44019 0.66415 0.0
C1614 C 0.19691 0.37589 0.62905 0.0
C1615 C 0.19993 0.42227 0.62315 0.0
C1616 C 0.2033 0.44706 0.60405 0.0
C1617 C 0.19044 0.37539 0.66006 0.0
C1618 C 0.18985 0.3992 0.67308 0.0
C1619 C 0.19412 0.42208 0.6543 0.0
C1620 C 0.18596 0.40132 0.70627 0.0
C1621 C 0.18408 0.34923 0.67849 0.0
C1622 C 0.16402 0.40592 0.71727 0.0
C1623 C 0.16117 0.40897 0.74851 0.0
C1624 C 0.1803 0.40757 0.76931 0.0
C1625 C 0.2022 0.40298 0.75818 0.0
C1626 C 0.20511 0.4001 0.72704 0.0
H1627 H 0.17621 0.32987 0.66388 0.0
H1628 H 0.2041 0.35286 0.68972 0.0
H1629 H 0.16779 0.34488 0.69631 0.0
H1630 H 0.14909 0.40712 0.70167 0.0
H1631 H 0.14404 0.41242 0.75634 0.0
H1632 H 0.59358 0.75835 0.50983 0.0
H1633 H 0.5941 0.75362 0.56488 0.0
H1634 H 0.63995 0.8458 0.57421 0.0
H1635 H 0.63927 0.85081 0.51888 0.0
H1636 H 0.64086 0.77413 0.60469 0.0
H1637 H 0.57107 0.82022 0.63137 0.0
H1638 H 0.57426 0.8092 0.59351 0.0
H1639 H 0.60211 0.84265 0.60869 0.0
C1640 C 0.60373 0.77769 0.52351 0.0
C1641 C 0.61622 0.80498 0.50991 0.0
C1642 C 0.60406 0.77491 0.55502 0.0
C1643 C 0.61674 0.79931 0.57369 0.0
C1644 C 0.62959 0.82665 0.56025 0.0
H1645 H 0.62907 0.81894 0.77005 0.0
H1646 H 0.63368 0.8265 0.7152 0.0
C1647 C 0.62928 0.82948 0.52863 0.0
C1648 C 0.61644 0.79587 0.60719 0.0
H1649 H 0.59054 0.80803 0.67298 0.0
C1650 C 0.62988 0.78155 0.61966 0.0
C1651 C 0.60208 0.80553 0.62665 0.0
C1652 C 0.58633 0.82005 0.61446 0.0
C1653 C 0.62956 0.77686 0.65109 0.0
C1654 C 0.61494 0.78628 0.67052 0.0
C1655 C 0.60172 0.80081 0.65806 0.0
C1656 C 0.61304 0.78135 0.70386 0.0
C1657 C 0.64529 0.76232 0.66325 0.0
C1658 C 0.5998 0.75339 0.7158 0.0
C1659 C 0.59716 0.74896 0.74726 0.0
C1660 C 0.6075 0.77243 0.76735 0.0
C1661 C 0.62082 0.80037 0.75527 0.0
C1662 C 0.62348 0.80476 0.72389 0.0
H1663 H 0.66167 0.76362 0.64694 0.0
H1664 H 0.65606 0.77203 0.68514 0.0
H1665 H 0.62969 0.73927 0.66725 0.0
H1666 H 0.59105 0.73496 0.70078 0.0
H1667 H 0.58677 0.72717 0.7558 0.0
H1668 H 0.19753 0.79755 0.7705 0.0
H1669 H 0.1881 0.79128 0.7161 0.0
H1670 H 0.27094 0.8655 0.69848 0.0
H1671 H 0.28092 0.87149 0.75324 0.0
H1672 H 0.18416 0.82514 0.67395 0.0
H1673 H 0.27352 0.80579 0.64468 0.0
H1674 H 0.26282 0.80638 0.68338 0.0
H1675 H 0.28465 0.83945 0.66335 0.0
C1676 C 0.21383 0.81257 0.75513 0.0
C1677 C 0.24012 0.83485 0.76623 0.0
C1678 C 0.20836 0.80897 0.72396 0.0
C1679 C 0.22895 0.82759 0.70307 0.0
C1680 C 0.25499 0.85039 0.71407 0.0
H1681 H 0.18771 0.8291 0.51039 0.0
H1682 H 0.19855 0.84099 0.56418 0.0
C1683 C 0.26062 0.85388 0.74538 0.0
C1684 C 0.22283 0.82276 0.66993 0.0
H1685 H 0.24601 0.80766 0.60386 0.0
C1686 C 0.19774 0.8214 0.6586 0.0
C1687 C 0.24031 0.81747 0.64995 0.0
C1688 C 0.26669 0.81706 0.66092 0.0
C1689 C 0.18955 0.81473 0.628 0.0
C1690 C 0.2073 0.80993 0.60793 0.0
C1691 C 0.23248 0.81148 0.6192 0.0
C1692 C 0.19981 0.80245 0.57535 0.0
C1693 C 0.16148 0.81194 0.61777 0.0
C1694 C 0.19732 0.77703 0.56349 0.0
C1695 C 0.19143 0.77032 0.53265 0.0
C1696 C 0.18792 0.7889 0.51296 0.0
C1697 C 0.19004 0.81418 0.52495 0.0
C1698 C 0.19613 0.82097 0.55577 0.0
H1699 H 0.14692 0.80836 0.63724 0.0
H1700 H 0.16579 0.83208 0.60633 0.0
H1701 H 0.15024 0.79395 0.60142 0.0
H1702 H 0.20009 0.76241 0.57811 0.0
H1703 H 0.18997 0.7507 0.52421 0.0
H1704 H 0.65174 0.82982 0.0127 0.0
H1705 H 0.65235 0.84055 0.06679 0.0
H1706 H 0.5725 0.76133 0.07916 0.0
H1707 H 0.57138 0.75075 0.025 0.0
H1708 H 0.57125 0.80616 0.10562 0.0
H1709 H 0.67085 0.80667 0.13935 0.0
H1710 H 0.67591 0.83077 0.10875 0.0
H1711 H 0.65344 0.79269 0.10329 0.0
C1712 C 0.63444 0.81452 0.02697 0.0
C1713 C 0.61149 0.7894 0.01447 0.0
C1714 C 0.63491 0.82063 0.05796 0.0
C1715 C 0.61264 0.80161 0.07718 0.0
C1716 C 0.58994 0.77633 0.06481 0.0
H1717 H 0.60838 0.79581 0.27284 0.0
H1718 H 0.61179 0.78922 0.21852 0.0
C1719 C 0.58938 0.77027 0.03383 0.0
C1720 C 0.61225 0.8085 0.10987 0.0
H1721 H 0.65003 0.82302 0.17621 0.0
C1722 C 0.58847 0.80983 0.12106 0.0
C1723 C 0.63461 0.81306 0.13009 0.0
C1724 C 0.66002 0.81047 0.11989 0.0
C1725 C 0.58638 0.81551 0.15185 0.0
C1726 C 0.60902 0.82068 0.17196 0.0
C1727 C 0.63283 0.81939 0.16075 0.0
C1728 C 0.60762 0.82565 0.20505 0.0
C1729 C 0.55949 0.81498 0.16269 0.0
C1730 C 0.60453 0.84861 0.21575 0.0
C1731 C 0.60231 0.85233 0.24698 0.0
C1732 C 0.60349 0.83333 0.26808 0.0
C1733 C 0.60731 0.81083 0.25728 0.0
C1734 C 0.60933 0.80704 0.22616 0.0
H1735 H 0.54146 0.80365 0.1464 0.0
H1736 H 0.55263 0.80431 0.18516 0.0
H1737 H 0.56382 0.83734 0.16507 0.0
H1738 H 0.60385 0.86368 0.19996 0.0
H1739 H 0.59972 0.87007 0.25458 0.0
H1740 H 0.21718 0.84713 0.01907 0.0
H1741 H 0.21073 0.84043 0.07431 0.0
H1742 H 0.17148 0.74885 0.0624 0.0
H1743 H 0.17792 0.75523 0.00762 0.0
H1744 H 0.15819 0.8065 0.10794 0.0
H1745 H 0.23575 0.76815 0.12487 0.0
H1746 H 0.23529 0.78673 0.09094 0.0
H1747 H 0.20944 0.74932 0.09583 0.0
C1748 C 0.20729 0.82559 0.02826 0.0
C1749 C 0.19823 0.80174 0.00891 0.0
C1750 C 0.20356 0.8218 0.05979 0.0
C1751 C 0.19099 0.79416 0.07247 0.0
C1752 C 0.1817 0.77039 0.05316 0.0
H1753 H 0.15005 0.72183 0.25482 0.0
H1754 H 0.15371 0.72899 0.19961 0.0
C1755 C 0.18532 0.77411 0.02178 0.0
C1756 C 0.18717 0.78987 0.10582 0.0
H1757 H 0.20571 0.76316 0.16667 0.0
C1758 C 0.16872 0.79722 0.12085 0.0
C1759 C 0.20078 0.77756 0.12256 0.0
C1760 C 0.22163 0.77019 0.10784 0.0
C1761 C 0.1631 0.79209 0.15211 0.0
C1762 C 0.17669 0.77975 0.16881 0.0
C1763 C 0.19518 0.77246 0.15378 0.0
C1764 C 0.17289 0.77518 0.20212 0.0
C1765 C 0.14219 0.79933 0.1669 0.0
C1766 C 0.18247 0.79874 0.2218 0.0
C1767 C 0.18052 0.79475 0.25325 0.0
C1768 C 0.16905 0.76708 0.26573 0.0
C1769 C 0.15907 0.74342 0.24596 0.0
C1770 C 0.16113 0.74747 0.21443 0.0
H1771 H 0.12825 0.80168 0.14989 0.0
H1772 H 0.12837 0.78253 0.18352 0.0
H1773 H 0.15432 0.81998 0.1793 0.0
H1774 H 0.19206 0.82034 0.21284 0.0
H1775 H 0.18841 0.81346 0.26777 0.0
H1776 H 0.21835 0.45204 0.02175 0.0
H1777 H 0.22686 0.45015 0.07591 0.0
H1778 H 0.18146 0.35761 0.0722 0.0
H1779 H 0.17328 0.35931 0.01765 0.0
H1780 H 0.18976 0.42666 0.12284 0.0
H1781 H 0.2566 0.37507 0.11233 0.0
H1782 H 0.24756 0.38976 0.08014 0.0
H1783 H 0.22183 0.35515 0.09496 0.0
C1784 C 0.21011 0.43124 0.03239 0.0
C1785 C 0.1953 0.40582 0.01527 0.0
C1786 C 0.21503 0.43021 0.0634 0.0
C1787 C 0.20529 0.40377 0.07806 0.0
C1788 C 0.18982 0.37829 0.06125 0.0
H1789 H 0.19309 0.38345 0.27459 0.0
H1790 H 0.18349 0.38118 0.22018 0.0
C1791 C 0.18497 0.37929 0.03011 0.0
C1792 C 0.2111 0.40315 0.11102 0.0
H1793 H 0.24384 0.38112 0.16229 0.0
C1794 C 0.20157 0.41668 0.13145 0.0
C1795 C 0.22692 0.39053 0.12222 0.0
C1796 C 0.23908 0.37704 0.10129 0.0
C1797 C 0.2072 0.41776 0.16272 0.0
C1798 C 0.22227 0.4044 0.17405 0.0
C1799 C 0.23207 0.39111 0.15362 0.0
C1800 C 0.22823 0.40428 0.20702 0.0
C1801 C 0.19752 0.43382 0.18323 0.0
C1802 C 0.25661 0.41699 0.21774 0.0
C1803 C 0.26221 0.4181 0.24895 0.0
C1804 C 0.2395 0.40648 0.27001 0.0
C1805 C 0.21111 0.39294 0.25907 0.0
C1806 C 0.20556 0.39173 0.22793 0.0
H1807 H 0.19358 0.44925 0.1703 0.0
H1808 H 0.17712 0.41826 0.19445 0.0
H1809 H 0.21371 0.44578 0.20115 0.0
H1810 H 0.27445 0.42661 0.20198 0.0
H1811 H 0.28431 0.42852 0.25659 0.0
H1812 H 0.84093 0.5931 0.49466 0.0
H1813 H 0.84616 0.59317 0.43969 0.0
H1814 H 0.79644 0.63545 0.42954 0.0
H1815 H 0.79146 0.63593 0.48492 0.0
H1816 H 0.80404 0.5676 0.3965 0.0
H1817 H 0.86721 0.68545 0.3779 0.0
H1818 H 0.86221 0.66955 0.41509 0.0
H1819 H 0.83395 0.67323 0.39782 0.0
C1820 C 0.83116 0.60256 0.48084 0.0
C1821 C 0.8158 0.61456 0.49425 0.0
C1822 C 0.83418 0.60255 0.44935 0.0
C1823 C 0.82201 0.61461 0.43047 0.0
C1824 C 0.8065 0.62652 0.44369 0.0
H1825 H 0.81317 0.62379 0.23411 0.0
H1826 H 0.80885 0.62721 0.28899 0.0
C1827 C 0.80351 0.6266 0.47533 0.0
C1828 C 0.82501 0.61377 0.39697 0.0
H1829 H 0.85223 0.65598 0.33396 0.0
C1830 C 0.81463 0.58693 0.38284 0.0
C1831 C 0.83883 0.63901 0.37917 0.0
C1832 C 0.85144 0.66848 0.39322 0.0
C1833 C 0.81749 0.58462 0.35141 0.0
C1834 C 0.83148 0.60984 0.33365 0.0
C1835 C 0.84162 0.63668 0.34768 0.0
C1836 C 0.83526 0.6087 0.30037 0.0
C1837 C 0.80506 0.55516 0.33737 0.0
C1838 C 0.85205 0.59766 0.28851 0.0
C1839 C 0.8546 0.59567 0.25706 0.0
C1840 C 0.84042 0.60473 0.23691 0.0
C1841 C 0.82423 0.61644 0.24893 0.0
C1842 C 0.82177 0.61848 0.28033 0.0
H1843 H 0.78942 0.53811 0.35271 0.0
H1844 H 0.79419 0.55402 0.31554 0.0
H1845 H 0.82267 0.55061 0.33263 0.0
H1846 H 0.86307 0.59047 0.30361 0.0
H1847 H 0.86745 0.58681 0.24856 0.0
H1848 H 0.3655 0.18773 0.49432 0.0
H1849 H 0.36529 0.19816 0.44028 0.0
H1850 H 0.44585 0.20006 0.4286 0.0
H1851 H 0.4466 0.1904 0.48272 0.0
H1852 H 0.44671 0.2454 0.40164 0.0
H1853 H 0.34756 0.14569 0.36809 0.0
H1854 H 0.34216 0.16493 0.39829 0.0
H1855 H 0.36477 0.14957 0.40434 0.0
C1856 C 0.38304 0.19009 0.4802 0.0
C1857 C 0.40605 0.18817 0.49286 0.0
C1858 C 0.38282 0.19593 0.44924 0.0
C1859 C 0.40537 0.19955 0.43022 0.0
C1860 C 0.42819 0.19734 0.44278 0.0
H1861 H 0.40953 0.19509 0.23481 0.0
H1862 H 0.40655 0.18621 0.28933 0.0
C1863 C 0.42854 0.19172 0.47374 0.0
C1864 C 0.40582 0.20658 0.39746 0.0
H1865 H 0.3684 0.18246 0.331 0.0
C1866 C 0.42959 0.23163 0.38618 0.0
C1867 C 0.38359 0.1885 0.37722 0.0
C1868 C 0.35821 0.16054 0.38747 0.0
C1869 C 0.43184 0.23902 0.35529 0.0
C1870 C 0.40935 0.22124 0.33515 0.0
C1871 C 0.38551 0.19626 0.34646 0.0
C1872 C 0.41089 0.2271 0.30196 0.0
C1873 C 0.45874 0.26529 0.34438 0.0
C1874 C 0.41404 0.25299 0.29072 0.0
C1875 C 0.41606 0.2583 0.25938 0.0
C1876 C 0.41456 0.23762 0.23871 0.0
C1877 C 0.41081 0.21152 0.25005 0.0
C1878 C 0.40904 0.20636 0.28127 0.0
H1879 H 0.4767 0.27221 0.36081 0.0
H1880 H 0.46573 0.26126 0.32207 0.0
H1881 H 0.45438 0.28327 0.34165 0.0
H1882 H 0.41482 0.26905 0.30617 0.0
H1883 H 0.41858 0.27847 0.25135 0.0
H1884 H 0.76054 0.17513 0.4974 0.0
H1885 H 0.75511 0.16946 0.44245 0.0
H1886 H 0.84716 0.21621 0.43198 0.0
H1887 H 0.85287 0.22167 0.48731 0.0
H1888 H 0.7733 0.21138 0.39846 0.0
H1889 H 0.82337 0.14364 0.38179 0.0
H1890 H 0.81287 0.1498 0.41873 0.0
H1891 H 0.84547 0.17691 0.40138 0.0
C1892 C 0.77971 0.18417 0.48351 0.0
C1893 C 0.80717 0.1988 0.49681 0.0
C1894 C 0.77653 0.1809 0.45204 0.0
C1895 C 0.80069 0.19207 0.4331 0.0
C1896 C 0.8282 0.20692 0.4462 0.0
H1897 H 0.81993 0.19721 0.23715 0.0
H1898 H 0.82712 0.20194 0.29209 0.0
C1899 C 0.83143 0.21018 0.47781 0.0
C1900 C 0.79678 0.18864 0.39965 0.0
H1901 H 0.81021 0.15915 0.33739 0.0
C1902 C 0.78131 0.1999 0.38512 0.0
C1903 C 0.80723 0.17364 0.38228 0.0
C1904 C 0.82295 0.16006 0.39679 0.0
C1905 C 0.77628 0.19686 0.35367 0.0
C1906 C 0.7866 0.18175 0.33632 0.0
C1907 C 0.80223 0.17064 0.35078 0.0
C1908 C 0.7819 0.1778 0.30302 0.0
C1909 C 0.76044 0.21033 0.33916 0.0
C1910 C 0.75406 0.16216 0.2909 0.0
C1911 C 0.74982 0.15938 0.25941 0.0
C1912 C 0.77339 0.17218 0.2395 0.0
C1913 C 0.80127 0.18722 0.25179 0.0
C1914 C 0.80546 0.18992 0.28322 0.0
H1915 H 0.75992 0.22669 0.35416 0.0
H1916 H 0.77051 0.22062 0.31723 0.0
H1917 H 0.73795 0.1934 0.33453 0.0
H1918 H 0.73559 0.15216 0.30582 0.0
H1919 H 0.7281 0.14745 0.25069 0.0
loop_
_geom_bond_atom_site_label_1
_geom_bond_atom_site_label_2
_geom_bond_distance
_geom_bond_site_symmetry_2
_ccdc_geom_bond_type
Zn0 N4 2.020 . S
Zn0 O8 2.019 . S
Zn0 N10 2.119 . S
Zn0 O18 1.975 . S
C1 N2 1.334 . S
C1 N5 1.336 . S
N2 C1 1.334 . S
N2 C3 1.334 . S
C3 N2 1.334 . S
C3 N4 1.336 . S
N4 Zn0 2.020 . S
N4 C3 1.336 . S
N4 N5 1.354 . S
N5 C1 1.336 . S
N5 N4 1.354 . S
N5 Zn9 2.020 . S
C6 O7 1.244 . S
C6 O30 1.257 . S
O7 C6 1.244 . S
O8 Zn0 2.019 . S
O8 C28 1.257 . S
Zn9 N5 2.020 . S
Zn9 O16 1.975 . S
Zn9 N25 2.119 . S
Zn9 O30 2.019 . S
N10 Zn0 2.119 . S
N10 C12 1.334 . S
N10 C13 1.328 . S
C11 C12 1.391 . S
C11 N14 1.329 . S
C11 H32 0.930 . S
C12 N10 1.334 . S
C12 C11 1.391 . S
C12 H19 0.930 . S
C13 N10 1.328 . S
C13 C15 1.392 . S
C13 H20 0.930 . S
N14 C11 1.329 . S
N14 C15 1.331 . S
C15 C13 1.392 . S
C15 N14 1.331 . S
O16 Zn9 1.975 . S
O16 C17 1.252 . S
C17 O16 1.252 . S
C17 O18 1.252 . S
O18 Zn0 1.975 . S
O18 C17 1.252 . S
H19 C12 0.930 . S
H20 C13 0.930 . S
C21 C22 1.392 . S
C21 N25 1.328 . S
C21 H27 0.930 . S
C22 C21 1.392 . S
C22 N26 1.331 . S
C23 C24 1.391 . S
C23 N26 1.329 . S
C23 H33 0.930 . S
C24 C23 1.391 . S
C24 N25 1.334 . S
C24 H31 0.930 . S
N25 Zn9 2.119 . S
N25 C21 1.328 . S
N25 C24 1.334 . S
N26 C22 1.331 . S
N26 C23 1.329 . S
H27 C21 0.930 . S
C28 O8 1.257 . S
C28 O29 1.244 . S
O29 C28 1.244 . S
O30 C6 1.257 . S
O30 Zn9 2.019 . S
H31 C24 0.930 . S
H32 C11 0.930 . S
H33 C23 0.930 . S
Zn34 N38 2.020 . S
Zn34 O42 2.019 . S
Zn34 N44 2.119 . S
Zn34 O52 1.975 . S
C35 N36 1.334 . S
C35 N39 1.336 . S
N36 C35 1.334 . S
N36 C37 1.334 . S
C37 N36 1.334 . S
C37 N38 1.336 . S
N38 Zn34 2.020 . S
N38 C37 1.336 . S
N38 N39 1.354 . S
N39 C35 1.336 . S
N39 N38 1.354 . S
N39 Zn43 2.020 . S
C40 O41 1.244 . S
C40 O64 1.257 . S
O41 C40 1.244 . S
O42 Zn34 2.019 . S
O42 C62 1.257 . S
Zn43 N39 2.020 . S
Zn43 O50 1.975 . S
Zn43 N59 2.119 . S
Zn43 O64 2.019 . S
N44 Zn34 2.119 . S
N44 C46 1.334 . S
N44 C47 1.328 . S
C45 C46 1.391 . S
C45 N48 1.329 . S
C45 H66 0.930 . S
C46 N44 1.334 . S
C46 C45 1.391 . S
C46 H53 0.930 . S
C47 N44 1.328 . S
C47 C49 1.392 . S
C47 H54 0.930 . S
N48 C45 1.329 . S
N48 C49 1.331 . S
C49 C47 1.392 . S
C49 N48 1.331 . S
O50 Zn43 1.975 . S
O50 C51 1.252 . S
C51 O50 1.252 . S
C51 O52 1.252 . S
O52 Zn34 1.975 . S
O52 C51 1.252 . S
H53 C46 0.930 . S
H54 C47 0.930 . S
C55 C56 1.392 . S
C55 N59 1.328 . S
C55 H61 0.930 . S
C56 C55 1.392 . S
C56 N60 1.331 . S
C57 C58 1.391 . S
C57 N60 1.329 . S
C57 H67 0.930 . S
C58 C57 1.391 . S
C58 N59 1.334 . S
C58 H65 0.930 . S
N59 Zn43 2.119 . S
N59 C55 1.328 . S
N59 C58 1.334 . S
N60 C56 1.331 . S
N60 C57 1.329 . S
H61 C55 0.930 . S
C62 O42 1.257 . S
C62 O63 1.244 . S
O63 C62 1.244 . S
O64 C40 1.257 . S
O64 Zn43 2.019 . S
H65 C58 0.930 . S
H66 C45 0.930 . S
H67 C57 0.930 . S
Zn68 N72 2.020 . S
Zn68 O76 2.019 . S
Zn68 N78 2.119 . S
Zn68 O86 1.975 . S
C69 N70 1.334 . S
C69 N73 1.336 . S
N70 C69 1.334 . S
N70 C71 1.334 . S
C71 N70 1.334 . S
C71 N72 1.336 . S
N72 Zn68 2.020 . S
N72 C71 1.336 . S
N72 N73 1.354 . S
N73 C69 1.336 . S
N73 N72 1.354 . S
N73 Zn77 2.020 . S
C74 O75 1.244 . S
C74 O98 1.257 . S
O75 C74 1.244 . S
O76 Zn68 2.019 . S
O76 C96 1.257 . S
Zn77 N73 2.020 . S
Zn77 O84 1.975 . S
Zn77 N93 2.119 . S
Zn77 O98 2.019 . S
N78 Zn68 2.119 . S
N78 C80 1.334 . S
N78 C81 1.328 . S
C79 C80 1.391 . S
C79 N82 1.329 . S
C79 H100 0.930 . S
C80 N78 1.334 . S
C80 C79 1.391 . S
C80 H87 0.930 . S
C81 N78 1.328 . S
C81 C83 1.392 . S
C81 H88 0.930 . S
N82 C79 1.329 . S
N82 C83 1.331 . S
C83 C81 1.392 . S
C83 N82 1.331 . S
O84 Zn77 1.975 . S
O84 C85 1.252 . S
C85 O84 1.252 . S
C85 O86 1.252 . S
O86 Zn68 1.975 . S
O86 C85 1.252 . S
H87 C80 0.930 . S
H88 C81 0.930 . S
C89 C90 1.392 . S
C89 N93 1.328 . S
C89 H95 0.930 . S
C90 C89 1.392 . S
C90 N94 1.331 . S
C91 C92 1.391 . S
C91 N94 1.329 . S
C91 H101 0.930 . S
C92 C91 1.391 . S
C92 N93 1.334 . S
C92 H99 0.930 . S
N93 Zn77 2.119 . S
N93 C89 1.328 . S
N93 C92 1.334 . S
N94 C90 1.331 . S
N94 C91 1.329 . S
H95 C89 0.930 . S
C96 O76 1.257 . S
C96 O97 1.244 . S
O97 C96 1.244 . S
O98 C74 1.257 . S
O98 Zn77 2.019 . S
H99 C92 0.930 . S
H100 C79 0.930 . S
H101 C91 0.930 . S
Zn102 N106 2.020 . S
Zn102 O110 2.019 . S
Zn102 N112 2.119 . S
Zn102 O120 1.975 . S
C103 N104 1.334 . S
C103 N107 1.336 . S
N104 C103 1.334 . S
N104 C105 1.334 . S
C105 N104 1.334 . S
C105 N106 1.336 . S
N106 Zn102 2.020 . S
N106 C105 1.336 . S
N106 N107 1.354 . S
N107 C103 1.336 . S
N107 N106 1.354 . S
N107 Zn111 2.020 . S
C108 O109 1.244 . S
C108 O132 1.257 . S
O109 C108 1.244 . S
O110 Zn102 2.019 . S
O110 C130 1.257 . S
Zn111 N107 2.020 . S
Zn111 O118 1.975 . S
Zn111 N127 2.119 . S
Zn111 O132 2.019 . S
N112 Zn102 2.119 . S
N112 C114 1.334 . S
N112 C115 1.328 . S
C113 C114 1.391 . S
C113 N116 1.329 . S
C113 H134 0.930 . S
C114 N112 1.334 . S
C114 C113 1.391 . S
C114 H121 0.930 . S
C115 N112 1.328 . S
C115 C117 1.392 . S
C115 H122 0.930 . S
N116 C113 1.329 . S
N116 C117 1.331 . S
C117 C115 1.392 . S
C117 N116 1.331 . S
O118 Zn111 1.975 . S
O118 C119 1.252 . S
C119 O118 1.252 . S
C119 O120 1.252 . S
O120 Zn102 1.975 . S
O120 C119 1.252 . S
H121 C114 0.930 . S
H122 C115 0.930 . S
C123 C124 1.392 . S
C123 N127 1.328 . S
C123 H129 0.930 . S
C124 C123 1.392 . S
C124 N128 1.331 . S
C125 C126 1.391 . S
C125 N128 1.329 . S
C125 H135 0.930 . S
C126 C125 1.391 . S
C126 N127 1.334 . S
C126 H133 0.930 . S
N127 Zn111 2.119 . S
N127 C123 1.328 . S
N127 C126 1.334 . S
N128 C124 1.331 . S
N128 C125 1.329 . S
H129 C123 0.930 . S
C130 O110 1.257 . S
C130 O131 1.244 . S
O131 C130 1.244 . S
O132 C108 1.257 . S
O132 Zn111 2.019 . S
H133 C126 0.930 . S
H134 C113 0.930 . S
H135 C125 0.930 . S
Zn136 N140 2.020 . S
Zn136 O144 2.019 . S
Zn136 N146 2.119 . S
Zn136 O154 1.975 . S
C137 N138 1.334 . S
C137 N141 1.336 . S
N138 C137 1.334 . S
N138 C139 1.334 . S
C139 N138 1.334 . S
C139 N140 1.336 . S
N140 Zn136 2.020 . S
N140 C139 1.336 . S
N140 N141 1.354 . S
N141 C137 1.336 . S
N141 N140 1.354 . S
N141 Zn145 2.020 . S
C142 O143 1.244 . S
C142 O166 1.257 . S
O143 C142 1.244 . S
O144 Zn136 2.019 . S
O144 C164 1.257 . S
Zn145 N141 2.020 . S
Zn145 O152 1.975 . S
Zn145 N161 2.119 . S
Zn145 O166 2.019 . S
N146 Zn136 2.119 . S
N146 C148 1.334 . S
N146 C149 1.328 . S
C147 C148 1.391 . S
C147 N150 1.329 . S
C147 H168 0.930 . S
C148 N146 1.334 . S
C148 C147 1.391 . S
C148 H155 0.930 . S
C149 N146 1.328 . S
C149 C151 1.392 . S
C149 H156 0.930 . S
N150 C147 1.329 . S
N150 C151 1.331 . S
C151 C149 1.392 . S
C151 N150 1.331 . S
O152 Zn145 1.975 . S
O152 C153 1.252 . S
C153 O152 1.252 . S
C153 O154 1.252 . S
O154 Zn136 1.975 . S
O154 C153 1.252 . S
H155 C148 0.930 . S
H156 C149 0.930 . S
C157 C158 1.392 . S
C157 N161 1.328 . S
C157 H163 0.930 . S
C158 C157 1.392 . S
C158 N162 1.331 . S
C159 C160 1.391 . S
C159 N162 1.329 . S
C159 H169 0.930 . S
C160 C159 1.391 . S
C160 N161 1.334 . S
C160 H167 0.930 . S
N161 Zn145 2.119 . S
N161 C157 1.328 . S
N161 C160 1.334 . S
N162 C158 1.331 . S
N162 C159 1.329 . S
H163 C157 0.930 . S
C164 O144 1.257 . S
C164 O165 1.244 . S
O165 C164 1.244 . S
O166 C142 1.257 . S
O166 Zn145 2.019 . S
H167 C160 0.930 . S
H168 C147 0.930 . S
H169 C159 0.930 . S
Zn170 N174 2.020 . S
Zn170 O178 2.019 . S
Zn170 N180 2.119 . S
Zn170 O188 1.975 . S
C171 N172 1.334 . S
C171 N175 1.336 . S
N172 C171 1.334 . S
N172 C173 1.334 . S
C173 N172 1.334 . S
C173 N174 1.336 . S
N174 Zn170 2.020 . S
N174 C173 1.336 . S
N174 N175 1.354 . S
N175 C171 1.336 . S
N175 N174 1.354 . S
N175 Zn179 2.020 . S
C176 O177 1.244 . S
C176 O200 1.257 . S
O177 C176 1.244 . S
O178 Zn170 2.019 . S
O178 C198 1.257 . S
Zn179 N175 2.020 . S
Zn179 O186 1.975 . S
Zn179 N195 2.119 . S
Zn179 O200 2.019 . S
N180 Zn170 2.119 . S
N180 C182 1.334 . S
N180 C183 1.328 . S
C181 C182 1.391 . S
C181 N184 1.329 . S
C181 H202 0.930 . S
C182 N180 1.334 . S
C182 C181 1.391 . S
C182 H189 0.930 . S
C183 N180 1.328 . S
C183 C185 1.392 . S
C183 H190 0.930 . S
N184 C181 1.329 . S
N184 C185 1.331 . S
C185 C183 1.392 . S
C185 N184 1.331 . S
O186 Zn179 1.975 . S
O186 C187 1.252 . S
C187 O186 1.252 . S
C187 O188 1.252 . S
O188 Zn170 1.975 . S
O188 C187 1.252 . S
H189 C182 0.930 . S
H190 C183 0.930 . S
C191 C192 1.392 . S
C191 N195 1.328 . S
C191 H197 0.930 . S
C192 C191 1.392 . S
C192 N196 1.331 . S
C193 C194 1.391 . S
C193 N196 1.329 . S
C193 H203 0.930 . S
C194 C193 1.391 . S
C194 N195 1.334 . S
C194 H201 0.930 . S
N195 Zn179 2.119 . S
N195 C191 1.328 . S
N195 C194 1.334 . S
N196 C192 1.331 . S
N196 C193 1.329 . S
H197 C191 0.930 . S
C198 O178 1.257 . S
C198 O199 1.244 . S
O199 C198 1.244 . S
O200 C176 1.257 . S
O200 Zn179 2.019 . S
H201 C194 0.930 . S
H202 C181 0.930 . S
H203 C193 0.930 . S
Zn204 N208 2.020 . S
Zn204 O212 2.019 . S
Zn204 N214 2.119 . S
Zn204 O222 1.975 . S
C205 N206 1.334 . S
C205 N209 1.336 . S
N206 C205 1.334 . S
N206 C207 1.334 . S
C207 N206 1.334 . S
C207 N208 1.336 . S
N208 Zn204 2.020 . S
N208 C207 1.336 . S
N208 N209 1.354 . S
N209 C205 1.336 . S
N209 N208 1.354 . S
N209 Zn213 2.020 . S
C210 O211 1.244 . S
C210 O234 1.257 . S
O211 C210 1.244 . S
O212 Zn204 2.019 . S
O212 C232 1.257 . S
Zn213 N209 2.020 . S
Zn213 O220 1.975 . S
Zn213 N229 2.119 . S
Zn213 O234 2.019 . S
N214 Zn204 2.119 . S
N214 C216 1.334 . S
N214 C217 1.328 . S
C215 C216 1.391 . S
C215 N218 1.329 . S
C215 H236 0.930 . S
C216 N214 1.334 . S
C216 C215 1.391 . S
C216 H223 0.930 . S
C217 N214 1.328 . S
C217 C219 1.392 . S
C217 H224 0.930 . S
N218 C215 1.329 . S
N218 C219 1.331 . S
C219 C217 1.392 . S
C219 N218 1.331 . S
O220 Zn213 1.975 . S
O220 C221 1.252 . S
C221 O220 1.252 . S
C221 O222 1.252 . S
O222 Zn204 1.975 . S
O222 C221 1.252 . S
H223 C216 0.930 . S
H224 C217 0.930 . S
C225 C226 1.392 . S
C225 N229 1.328 . S
C225 H231 0.930 . S
C226 C225 1.392 . S
C226 N230 1.331 . S
C227 C228 1.391 . S
C227 N230 1.329 . S
C227 H237 0.930 . S
C228 C227 1.391 . S
C228 N229 1.334 . S
C228 H235 0.930 . S
N229 Zn213 2.119 . S
N229 C225 1.328 . S
N229 C228 1.334 . S
N230 C226 1.331 . S
N230 C227 1.329 . S
H231 C225 0.930 . S
C232 O212 1.257 . S
C232 O233 1.244 . S
O233 C232 1.244 . S
O234 C210 1.257 . S
O234 Zn213 2.019 . S
H235 C228 0.930 . S
H236 C215 0.930 . S
H237 C227 0.930 . S
Zn238 N242 2.020 . S
Zn238 O246 2.019 . S
Zn238 N248 2.119 . S
Zn238 O256 1.975 . S
C239 N240 1.334 . S
C239 N243 1.336 . S
N240 C239 1.334 . S
N240 C241 1.334 . S
C241 N240 1.334 . S
C241 N242 1.336 . S
N242 Zn238 2.020 . S
N242 C241 1.336 . S
N242 N243 1.354 . S
N243 C239 1.336 . S
N243 N242 1.354 . S
N243 Zn247 2.020 . S
C244 O245 1.244 . S
C244 O268 1.257 . S
O245 C244 1.244 . S
O246 Zn238 2.019 . S
O246 C266 1.257 . S
Zn247 N243 2.020 . S
Zn247 O254 1.975 . S
Zn247 N263 2.119 . S
Zn247 O268 2.019 . S
N248 Zn238 2.119 . S
N248 C250 1.334 . S
N248 C251 1.328 . S
C249 C250 1.391 . S
C249 N252 1.329 . S
C249 H270 0.930 . S
C250 N248 1.334 . S
C250 C249 1.391 . S
C250 H257 0.930 . S
C251 N248 1.328 . S
C251 C253 1.392 . S
C251 H258 0.930 . S
N252 C249 1.329 . S
N252 C253 1.331 . S
C253 C251 1.392 . S
C253 N252 1.331 . S
O254 Zn247 1.975 . S
O254 C255 1.252 . S
C255 O254 1.252 . S
C255 O256 1.252 . S
O256 Zn238 1.975 . S
O256 C255 1.252 . S
H257 C250 0.930 . S
H258 C251 0.930 . S
C259 C260 1.392 . S
C259 N263 1.328 . S
C259 H265 0.930 . S
C260 C259 1.392 . S
C260 N264 1.331 . S
C261 C262 1.391 . S
C261 N264 1.329 . S
C261 H271 0.930 . S
C262 C261 1.391 . S
C262 N263 1.334 . S
C262 H269 0.930 . S
N263 Zn247 2.119 . S
N263 C259 1.328 . S
N263 C262 1.334 . S
N264 C260 1.331 . S
N264 C261 1.329 . S
H265 C259 0.930 . S
C266 O246 1.257 . S
C266 O267 1.244 . S
O267 C266 1.244 . S
O268 C244 1.257 . S
O268 Zn247 2.019 . S
H269 C262 0.930 . S
H270 C249 0.930 . S
H271 C261 0.930 . S
Zn272 N276 2.020 . S
Zn272 O280 2.019 . S
Zn272 N282 2.119 . S
Zn272 O290 1.975 . S
C273 N274 1.334 . S
C273 N277 1.336 . S
N274 C273 1.334 . S
N274 C275 1.334 . S
C275 N274 1.334 . S
C275 N276 1.336 . S
N276 Zn272 2.020 . S
N276 C275 1.336 . S
N276 N277 1.354 . S
N277 C273 1.336 . S
N277 N276 1.354 . S
N277 Zn281 2.020 . S
C278 O279 1.244 . S
C278 O302 1.257 . S
O279 C278 1.244 . S
O280 Zn272 2.019 . S
O280 C300 1.257 . S
Zn281 N277 2.020 . S
Zn281 O288 1.975 . S
Zn281 N297 2.119 . S
Zn281 O302 2.019 . S
N282 Zn272 2.119 . S
N282 C284 1.334 . S
N282 C285 1.328 . S
C283 C284 1.391 . S
C283 N286 1.329 . S
C283 H304 0.930 . S
C284 N282 1.334 . S
C284 C283 1.391 . S
C284 H291 0.930 . S
C285 N282 1.328 . S
C285 C287 1.392 . S
C285 H292 0.930 . S
N286 C283 1.329 . S
N286 C287 1.331 . S
C287 C285 1.392 . S
C287 N286 1.331 . S
O288 Zn281 1.975 . S
O288 C289 1.252 . S
C289 O288 1.252 . S
C289 O290 1.252 . S
O290 Zn272 1.975 . S
O290 C289 1.252 . S
H291 C284 0.930 . S
H292 C285 0.930 . S
C293 C294 1.392 . S
C293 N297 1.328 . S
C293 H299 0.930 . S
C294 C293 1.392 . S
C294 N298 1.331 . S
C295 C296 1.391 . S
C295 N298 1.329 . S
C295 H305 0.930 . S
C296 C295 1.391 . S
C296 N297 1.334 . S
C296 H303 0.930 . S
N297 Zn281 2.119 . S
N297 C293 1.328 . S
N297 C296 1.334 . S
N298 C294 1.331 . S
N298 C295 1.329 . S
H299 C293 0.930 . S
C300 O280 1.257 . S
C300 O301 1.244 . S
O301 C300 1.244 . S
O302 C278 1.257 . S
O302 Zn281 2.019 . S
H303 C296 0.930 . S
H304 C283 0.930 . S
H305 C295 0.930 . S
Zn306 N310 2.020 . S
Zn306 O314 2.019 . S
Zn306 N316 2.119 . S
Zn306 O324 1.975 . S
C307 N308 1.334 . S
C307 N311 1.336 . S
N308 C307 1.334 . S
N308 C309 1.334 . S
C309 N308 1.334 . S
C309 N310 1.336 . S
N310 Zn306 2.020 . S
N310 C309 1.336 . S
N310 N311 1.354 . S
N311 C307 1.336 . S
N311 N310 1.354 . S
N311 Zn315 2.020 . S
C312 O313 1.244 . S
C312 O336 1.257 . S
O313 C312 1.244 . S
O314 Zn306 2.019 . S
O314 C334 1.257 . S
Zn315 N311 2.020 . S
Zn315 O322 1.975 . S
Zn315 N331 2.119 . S
Zn315 O336 2.019 . S
N316 Zn306 2.119 . S
N316 C318 1.334 . S
N316 C319 1.328 . S
C317 C318 1.391 . S
C317 N320 1.329 . S
C317 H338 0.930 . S
C318 N316 1.334 . S
C318 C317 1.391 . S
C318 H325 0.930 . S
C319 N316 1.328 . S
C319 C321 1.392 . S
C319 H326 0.930 . S
N320 C317 1.329 . S
N320 C321 1.331 . S
C321 C319 1.392 . S
C321 N320 1.331 . S
O322 Zn315 1.975 . S
O322 C323 1.252 . S
C323 O322 1.252 . S
C323 O324 1.252 . S
O324 Zn306 1.975 . S
O324 C323 1.252 . S
H325 C318 0.930 . S
H326 C319 0.930 . S
C327 C328 1.392 . S
C327 N331 1.328 . S
C327 H333 0.930 . S
C328 C327 1.392 . S
C328 N332 1.331 . S
C329 C330 1.391 . S
C329 N332 1.329 . S
C329 H339 0.930 . S
C330 C329 1.391 . S
C330 N331 1.334 . S
C330 H337 0.930 . S
N331 Zn315 2.119 . S
N331 C327 1.328 . S
N331 C330 1.334 . S
N332 C328 1.331 . S
N332 C329 1.329 . S
H333 C327 0.930 . S
C334 O314 1.257 . S
C334 O335 1.244 . S
O335 C334 1.244 . S
O336 C312 1.257 . S
O336 Zn315 2.019 . S
H337 C330 0.930 . S
H338 C317 0.930 . S
H339 C329 0.930 . S
Zn340 N344 2.020 . S
Zn340 O348 2.019 . S
Zn340 N350 2.119 . S
Zn340 O358 1.975 . S
C341 N342 1.334 . S
C341 N345 1.336 . S
N342 C341 1.334 . S
N342 C343 1.334 . S
C343 N342 1.334 . S
C343 N344 1.336 . S
N344 Zn340 2.020 . S
N344 C343 1.336 . S
N344 N345 1.354 . S
N345 C341 1.336 . S
N345 N344 1.354 . S
N345 Zn349 2.020 . S
C346 O347 1.244 . S
C346 O370 1.257 . S
O347 C346 1.244 . S
O348 Zn340 2.019 . S
O348 C368 1.257 . S
Zn349 N345 2.020 . S
Zn349 O356 1.975 . S
Zn349 N365 2.119 . S
Zn349 O370 2.019 . S
N350 Zn340 2.119 . S
N350 C352 1.334 . S
N350 C353 1.328 . S
C351 C352 1.391 . S
C351 N354 1.329 . S
C351 H372 0.930 . S
C352 N350 1.334 . S
C352 C351 1.391 . S
C352 H359 0.930 . S
C353 N350 1.328 . S
C353 C355 1.392 . S
C353 H360 0.930 . S
N354 C351 1.329 . S
N354 C355 1.331 . S
C355 C353 1.392 . S
C355 N354 1.331 . S
O356 Zn349 1.975 . S
O356 C357 1.252 . S
C357 O356 1.252 . S
C357 O358 1.252 . S
O358 Zn340 1.975 . S
O358 C357 1.252 . S
H359 C352 0.930 . S
H360 C353 0.930 . S
C361 C362 1.392 . S
C361 N365 1.328 . S
C361 H367 0.930 . S
C362 C361 1.392 . S
C362 N366 1.331 . S
C363 C364 1.391 . S
C363 N366 1.329 . S
C363 H373 0.930 . S
C364 C363 1.391 . S
C364 N365 1.334 . S
C364 H371 0.930 . S
N365 Zn349 2.119 . S
N365 C361 1.328 . S
N365 C364 1.334 . S
N366 C362 1.331 . S
N366 C363 1.329 . S
H367 C361 0.930 . S
C368 O348 1.257 . S
C368 O369 1.244 . S
O369 C368 1.244 . S
O370 C346 1.257 . S
O370 Zn349 2.019 . S
H371 C364 0.930 . S
H372 C351 0.930 . S
H373 C363 0.930 . S
Zn374 N378 2.020 . S
Zn374 O382 2.019 . S
Zn374 N384 2.119 . S
Zn374 O392 1.975 . S
C375 N376 1.334 . S
C375 N379 1.336 . S
N376 C375 1.334 . S
N376 C377 1.334 . S
C377 N376 1.334 . S
C377 N378 1.336 . S
N378 Zn374 2.020 . S
N378 C377 1.336 . S
N378 N379 1.354 . S
N379 C375 1.336 . S
N379 N378 1.354 . S
N379 Zn383 2.020 . S
C380 O381 1.244 . S
C380 O404 1.257 . S
O381 C380 1.244 . S
O382 Zn374 2.019 . S
O382 C402 1.257 . S
Zn383 N379 2.020 . S
Zn383 O390 1.975 . S
Zn383 N399 2.119 . S
Zn383 O404 2.019 . S
N384 Zn374 2.119 . S
N384 C386 1.334 . S
N384 C387 1.328 . S
C385 C386 1.391 . S
C385 N388 1.329 . S
C385 H406 0.930 . S
C386 N384 1.334 . S
C386 C385 1.391 . S
C386 H393 0.930 . S
C387 N384 1.328 . S
C387 C389 1.392 . S
C387 H394 0.930 . S
N388 C385 1.329 . S
N388 C389 1.331 . S
C389 C387 1.392 . S
C389 N388 1.331 . S
O390 Zn383 1.975 . S
O390 C391 1.252 . S
C391 O390 1.252 . S
C391 O392 1.252 . S
O392 Zn374 1.975 . S
O392 C391 1.252 . S
H393 C386 0.930 . S
H394 C387 0.930 . S
C395 C396 1.392 . S
C395 N399 1.328 . S
C395 H401 0.930 . S
C396 C395 1.392 . S
C396 N400 1.331 . S
C397 C398 1.391 . S
C397 N400 1.329 . S
C397 H407 0.930 . S
C398 C397 1.391 . S
C398 N399 1.334 . S
C398 H405 0.930 . S
N399 Zn383 2.119 . S
N399 C395 1.328 . S
N399 C398 1.334 . S
N400 C396 1.331 . S
N400 C397 1.329 . S
H401 C395 0.930 . S
C402 O382 1.257 . S
C402 O403 1.244 . S
O403 C402 1.244 . S
O404 C380 1.257 . S
O404 Zn383 2.019 . S
H405 C398 0.930 . S
H406 C385 0.930 . S
H407 C397 0.930 . S
H408 C416 0.929 . S
H409 C418 0.930 . S
H410 C420 0.930 . S
H411 C423 0.929 . S
H412 C426 0.930 . S
H413 C428 0.960 . S
H414 C428 0.960 . S
H415 C428 0.960 . S
C416 H408 0.929 . S
C416 C417 1.377 . S
C416 C418 1.384 . S
C417 C416 1.377 . S
C417 C423 1.390 . S
C418 H409 0.930 . S
C418 C416 1.384 . S
C418 C419 1.372 . S
C419 C418 1.372 . S
C419 C420 1.400 . S
C419 C424 1.490 . S
C420 H410 0.930 . S
C420 C419 1.400 . S
C420 C423 1.386 . S
H421 C437 0.930 . S
H422 C438 0.931 . S
C423 H411 0.929 . S
C423 C417 1.390 . S
C423 C420 1.386 . S
C424 C419 1.490 . S
C424 C426 1.395 . S
C424 C427 1.403 . S
H425 C431 0.930 . S
C426 H412 0.930 . S
C426 C424 1.395 . S
C426 C429 1.403 1_556 S
C427 C424 1.403 . S
C427 C428 1.524 . S
C427 C431 1.400 1_565 S
C428 H413 0.960 . S
C428 H414 0.960 . S
C428 H415 0.960 . S
C428 C427 1.524 . S
C429 C426 1.403 1_554 S
C429 C430 1.392 1_565 S
C429 C433 1.495 . S
C430 C429 1.392 1_545 S
C430 C431 1.385 1_554 S
C430 C432 1.478 . S
C431 H425 0.930 . S
C431 C427 1.400 1_545 S
C431 C430 1.385 1_556 S
C432 C430 1.478 . S
C432 C434 1.381 . S
C432 C438 1.383 . S
C433 C429 1.495 . S
C433 H439 0.959 . S
C433 H440 0.961 1_565 S
C433 H441 0.960 . S
C434 C432 1.381 . S
C434 C435 1.394 . S
C434 H442 0.930 . S
C435 C434 1.394 . S
C435 C436 1.383 . S
C435 H443 0.929 . S
C436 C435 1.383 . S
C436 C437 1.377 . S
C437 H421 0.930 . S
C437 C436 1.377 . S
C437 C438 1.379 . S
C438 H422 0.931 . S
C438 C432 1.383 . S
C438 C437 1.379 . S
H439 C433 0.959 . S
H440 C433 0.961 1_545 S
H441 C433 0.960 . S
H442 C434 0.930 . S
H443 C435 0.929 . S
H444 C452 0.929 . S
H445 C454 0.930 . S
H446 C456 0.930 . S
H447 C459 0.929 . S
H448 C462 0.930 . S
H449 C464 0.960 . S
H450 C464 0.960 . S
H451 C464 0.960 . S
C452 H444 0.929 . S
C452 C453 1.377 . S
C452 C454 1.384 . S
C453 C452 1.377 . S
C453 C459 1.390 . S
C454 H445 0.930 . S
C454 C452 1.384 . S
C454 C455 1.372 . S
C455 C454 1.372 . S
C455 C456 1.400 . S
C455 C460 1.490 . S
C456 H446 0.930 . S
C456 C455 1.400 . S
C456 C459 1.386 . S
H457 C473 0.930 . S
H458 C474 0.931 . S
C459 H447 0.929 . S
C459 C453 1.390 . S
C459 C456 1.386 . S
C460 C455 1.490 . S
C460 C462 1.395 1_554 S
C460 C463 1.403 1_655 S
H461 C467 0.930 1_554 S
C462 H448 0.930 . S
C462 C460 1.395 1_556 S
C462 C465 1.403 1_655 S
C463 C460 1.403 1_455 S
C463 C464 1.524 . S
C463 C467 1.400 1_554 S
C464 H449 0.960 . S
C464 H450 0.960 . S
C464 H451 0.960 . S
C464 C463 1.524 . S
C465 C462 1.403 1_455 S
C465 C466 1.392 . S
C465 C469 1.495 1_455 S
C466 C465 1.392 . S
C466 C467 1.385 . S
C466 C468 1.478 . S
C467 H461 0.930 1_556 S
C467 C463 1.400 1_556 S
C467 C466 1.385 . S
C468 C466 1.478 . S
C468 C470 1.381 . S
C468 C474 1.383 . S
C469 C465 1.495 1_655 S
C469 H475 0.959 . S
C469 H476 0.961 1_655 S
C469 H477 0.960 1_655 S
C470 C468 1.381 . S
C470 C471 1.394 . S
C470 H478 0.930 . S
C471 C470 1.394 . S
C471 C472 1.383 . S
C471 H479 0.929 . S
C472 C471 1.383 . S
C472 C473 1.377 . S
C473 H457 0.930 . S
C473 C472 1.377 . S
C473 C474 1.379 . S
C474 H458 0.931 . S
C474 C468 1.383 . S
C474 C473 1.379 . S
H475 C469 0.959 . S
H476 C469 0.961 1_455 S
H477 C469 0.960 1_455 S
H478 C470 0.930 . S
H479 C471 0.929 . S
H480 C488 0.929 . S
H481 C490 0.930 . S
H482 C492 0.930 . S
H483 C495 0.929 . S
H484 C498 0.930 . S
H485 C500 0.960 . S
H486 C500 0.960 . S
H487 C500 0.960 . S
C488 H480 0.929 . S
C488 C489 1.377 . S
C488 C490 1.384 . S
C489 C488 1.377 . S
C489 C495 1.390 . S
C490 H481 0.930 . S
C490 C488 1.384 . S
C490 C491 1.372 . S
C491 C490 1.372 . S
C491 C492 1.400 . S
C491 C496 1.490 . S
C492 H482 0.930 . S
C492 C491 1.400 . S
C492 C495 1.386 . S
H493 C509 0.930 . S
H494 C510 0.931 . S
C495 H483 0.929 . S
C495 C489 1.390 . S
C495 C492 1.386 . S
C496 C491 1.490 . S
C496 C498 1.395 . S
C496 C499 1.403 1_554 S
H497 C503 0.930 . S
C498 H484 0.930 . S
C498 C496 1.395 . S
C498 C501 1.416 . S
C499 C496 1.403 1_556 S
C499 C500 1.524 . S
C499 C503 1.400 . S
C500 H485 0.960 . S
C500 H486 0.960 . S
C500 H487 0.960 . S
C500 C499 1.524 . S
C501 C498 1.416 . S
C501 C502 1.374 1_554 S
C501 C505 1.502 . S
C502 C501 1.374 1_556 S
C502 C503 1.385 . S
C502 C504 1.478 . S
C503 H497 0.930 . S
C503 C499 1.400 . S
C503 C502 1.385 . S
C504 C502 1.478 . S
C504 C506 1.381 . S
C504 C510 1.383 . S
C505 C501 1.502 . S
C505 H511 0.959 . S
C505 H512 0.961 . S
C505 H513 0.960 1_554 S
C506 C504 1.381 . S
C506 C507 1.394 . S
C506 H514 0.930 . S
C507 C506 1.394 . S
C507 C508 1.383 . S
C507 H515 0.929 . S
C508 C507 1.383 . S
C508 C509 1.377 . S
C509 H493 0.930 . S
C509 C508 1.377 . S
C509 C510 1.379 . S
C510 H494 0.931 . S
C510 C504 1.383 . S
C510 C509 1.379 . S
H511 C505 0.959 . S
H512 C505 0.961 . S
H513 C505 0.960 1_556 S
H514 C506 0.930 . S
H515 C507 0.929 . S
H516 C524 0.929 . S
H517 C526 0.930 . S
H518 C528 0.930 . S
H519 C531 0.929 . S
H520 C534 0.930 . S
H521 C536 0.960 . S
H522 C536 0.964 . S
H523 C536 0.960 . S
C524 H516 0.929 . S
C524 C525 1.377 . S
C524 C526 1.384 . S
C525 C524 1.377 . S
C525 C531 1.390 . S
C526 H517 0.930 . S
C526 C524 1.384 . S
C526 C527 1.372 . S
C527 C526 1.372 . S
C527 C528 1.400 . S
C527 C532 1.490 . S
C528 H518 0.930 . S
C528 C527 1.400 . S
C528 C531 1.386 . S
H529 C545 0.930 . S
H530 C546 0.931 . S
C531 H519 0.929 . S
C531 C525 1.390 . S
C531 C528 1.386 . S
C532 C527 1.490 . S
C532 C534 1.395 . S
C532 C535 1.403 1_455 S
H533 C539 0.930 . S
C534 H520 0.930 . S
C534 C532 1.395 . S
C534 C537 1.403 1_455 S
C535 C532 1.403 1_655 S
C535 C536 1.524 . S
C535 C539 1.400 . S
C536 H521 0.960 . S
C536 H522 0.964 . S
C536 H523 0.960 . S
C536 C535 1.524 . S
C537 C534 1.403 1_655 S
C537 C538 1.392 . S
C537 C541 1.495 . S
C538 C537 1.392 . S
C538 C539 1.385 . S
C538 C540 1.478 . S
C539 H533 0.930 . S
C539 C535 1.400 . S
C539 C538 1.385 . S
C540 C538 1.478 . S
C540 C542 1.381 . S
C540 C546 1.383 . S
C541 C537 1.495 . S
C541 H547 0.959 1_655 S
C541 H548 0.961 . S
C541 H549 0.960 . S
C542 C540 1.381 . S
C542 C543 1.394 . S
C542 H550 0.930 . S
C543 C542 1.394 . S
C543 C544 1.383 . S
C543 H551 0.929 . S
C544 C543 1.383 . S
C544 C545 1.377 . S
C545 H529 0.930 . S
C545 C544 1.377 . S
C545 C546 1.379 . S
C546 H530 0.931 . S
C546 C540 1.383 . S
C546 C545 1.379 . S
H547 C541 0.959 1_455 S
H548 C541 0.961 . S
H549 C541 0.960 . S
H550 C542 0.930 . S
H551 C543 0.929 . S
H552 C560 0.929 . S
H553 C562 0.930 . S
H554 C564 0.930 . S
H555 C567 0.929 . S
H556 C570 0.930 . S
H557 C572 0.960 . S
H558 C572 0.960 . S
H559 C572 0.960 . S
C560 H552 0.929 . S
C560 C561 1.377 . S
C560 C562 1.384 . S
C561 C560 1.377 . S
C561 C567 1.390 . S
C562 H553 0.930 . S
C562 C560 1.384 . S
C562 C563 1.372 . S
C563 C562 1.372 . S
C563 C564 1.400 . S
C563 C568 1.490 . S
C564 H554 0.930 . S
C564 C563 1.400 . S
C564 C567 1.386 . S
H565 C581 0.930 . S
H566 C582 0.931 . S
C567 H555 0.929 . S
C567 C561 1.390 . S
C567 C564 1.386 . S
C568 C563 1.490 . S
C568 C570 1.395 . S
C568 C571 1.403 . S
H569 C575 0.930 . S
C570 H556 0.930 . S
C570 C568 1.395 . S
C570 C573 1.403 . S
C571 C568 1.403 . S
C571 C572 1.524 . S
C571 C575 1.400 . S
C572 H557 0.960 . S
C572 H558 0.960 . S
C572 H559 0.960 . S
C572 C571 1.524 . S
C573 C570 1.403 . S
C573 C574 1.392 . S
C573 C577 1.495 . S
C574 C573 1.392 . S
C574 C575 1.385 . S
C574 C576 1.478 . S
C575 H569 0.930 . S
C575 C571 1.400 . S
C575 C574 1.385 . S
C576 C574 1.478 . S
C576 C578 1.381 . S
C576 C582 1.383 . S
C577 C573 1.495 . S
C577 H583 0.959 . S
C577 H584 0.961 . S
C577 H585 0.960 . S
C578 C576 1.381 . S
C578 C579 1.394 . S
C578 H586 0.930 . S
C579 C578 1.394 . S
C579 C580 1.383 . S
C579 H587 0.929 . S
C580 C579 1.383 . S
C580 C581 1.377 . S
C581 H565 0.930 . S
C581 C580 1.377 . S
C581 C582 1.379 . S
C582 H566 0.931 . S
C582 C576 1.383 . S
C582 C581 1.379 . S
H583 C577 0.959 . S
H584 C577 0.961 . S
H585 C577 0.960 . S
H586 C578 0.930 . S
H587 C579 0.929 . S
H588 C596 0.929 . S
H589 C598 0.930 . S
H590 C600 0.930 . S
H591 C603 0.929 . S
H592 C606 0.930 . S
H593 C608 0.960 . S
H594 C608 0.960 1_565 S
H595 C608 0.960 . S
C596 H588 0.929 . S
C596 C597 1.377 . S
C596 C598 1.384 . S
C597 C596 1.377 . S
C597 C603 1.390 . S
C598 H589 0.930 . S
C598 C596 1.384 . S
C598 C599 1.372 . S
C599 C598 1.372 . S
C599 C600 1.400 . S
C599 C604 1.490 . S
C600 H590 0.930 . S
C600 C599 1.400 . S
C600 C603 1.386 . S
H601 C617 0.930 . S
H602 C618 0.931 . S
C603 H591 0.929 . S
C603 C597 1.390 . S
C603 C600 1.386 . S
C604 C599 1.490 . S
C604 C606 1.395 . S
C604 C607 1.403 1_565 S
H605 C611 0.930 . S
C606 H592 0.930 . S
C606 C604 1.395 . S
C606 C609 1.403 1_565 S
C607 C604 1.403 1_545 S
C607 C608 1.524 . S
C607 C611 1.400 . S
C608 H593 0.960 . S
C608 H594 0.960 1_545 S
C608 H595 0.960 . S
C608 C607 1.524 . S
C609 C606 1.403 1_545 S
C609 C610 1.392 . S
C609 C613 1.495 . S
C610 C609 1.392 . S
C610 C611 1.385 . S
C610 C612 1.478 . S
C611 H605 0.930 . S
C611 C607 1.400 . S
C611 C610 1.385 . S
C612 C610 1.478 . S
C612 C614 1.381 . S
C612 C618 1.383 . S
C613 C609 1.495 . S
C613 H619 0.959 1_545 S
C613 H620 0.961 . S
C613 H621 0.960 . S
C614 C612 1.381 . S
C614 C615 1.394 . S
C614 H622 0.930 . S
C615 C614 1.394 . S
C615 C616 1.383 . S
C615 H623 0.929 . S
C616 C615 1.383 . S
C616 C617 1.377 . S
C617 H601 0.930 . S
C617 C616 1.377 . S
C617 C618 1.379 . S
C618 H602 0.931 . S
C618 C612 1.383 . S
C618 C617 1.379 . S
H619 C613 0.959 1_565 S
H620 C613 0.961 . S
H621 C613 0.960 . S
H622 C614 0.930 . S
H623 C615 0.929 . S
H624 C632 0.929 . S
H625 C634 0.930 . S
H626 C636 0.930 . S
H627 C639 0.929 . S
H628 C642 0.930 . S
H629 C644 0.960 . S
H630 C644 0.960 . S
H631 C644 0.960 . S
C632 H624 0.929 . S
C632 C633 1.377 . S
C632 C634 1.384 . S
C633 C632 1.377 . S
C633 C639 1.390 . S
C634 H625 0.930 . S
C634 C632 1.384 . S
C634 C635 1.372 . S
C635 C634 1.372 . S
C635 C636 1.400 . S
C635 C640 1.490 . S
C636 H626 0.930 . S
C636 C635 1.400 . S
C636 C639 1.386 . S
H637 C653 0.930 . S
H638 C654 0.931 . S
C639 H627 0.929 . S
C639 C633 1.390 . S
C639 C636 1.386 . S
C640 C635 1.490 . S
C640 C642 1.395 1_556 S
C640 C643 1.403 1_565 S
H641 C647 0.923 1_556 S
C642 H628 0.930 . S
C642 C640 1.395 1_554 S
C642 C645 1.403 1_565 S
C643 C640 1.403 1_545 S
C643 C644 1.524 . S
C643 C647 1.400 1_556 S
C644 H629 0.960 . S
C644 H630 0.960 . S
C644 H631 0.960 . S
C644 C643 1.524 . S
C645 C642 1.403 1_545 S
C645 C646 1.392 . S
C645 C649 1.495 1_545 S
C646 C645 1.392 . S
C646 C647 1.385 . S
C646 C648 1.478 . S
C647 H641 0.923 1_554 S
C647 C643 1.400 1_554 S
C647 C646 1.385 . S
C648 C646 1.478 . S
C648 C650 1.381 . S
C648 C654 1.383 . S
C649 C645 1.495 1_565 S
C649 H655 0.959 . S
C649 H656 0.961 1_565 S
C649 H657 0.960 1_565 S
C650 C648 1.381 . S
C650 C651 1.394 . S
C650 H658 0.930 . S
C651 C650 1.394 . S
C651 C652 1.383 . S
C651 H659 0.929 . S
C652 C651 1.383 . S
C652 C653 1.377 . S
C653 H637 0.930 . S
C653 C652 1.377 . S
C653 C654 1.379 . S
C654 H638 0.931 . S
C654 C648 1.383 . S
C654 C653 1.379 . S
H655 C649 0.959 . S
H656 C649 0.961 1_545 S
H657 C649 0.960 1_545 S
H658 C650 0.930 . S
H659 C651 0.929 . S
H660 C668 0.929 . S
H661 C670 0.930 . S
H662 C672 0.930 . S
H663 C675 0.929 . S
H664 C678 0.930 . S
H665 C680 0.960 . S
H666 C680 0.960 . S
H667 C680 0.960 . S
C668 H660 0.929 . S
C668 C669 1.377 . S
C668 C670 1.384 . S
C669 C668 1.377 . S
C669 C675 1.390 . S
C670 H661 0.930 . S
C670 C668 1.384 . S
C670 C671 1.372 . S
C671 C670 1.372 . S
C671 C672 1.400 . S
C671 C676 1.490 . S
C672 H662 0.930 . S
C672 C671 1.400 . S
C672 C675 1.386 . S
H673 C689 0.930 . S
H674 C690 0.931 . S
C675 H663 0.929 . S
C675 C669 1.390 . S
C675 C672 1.386 . S
C676 C671 1.490 . S
C676 C678 1.395 1_455 S
C676 C679 1.403 1_556 S
H677 C683 0.930 . S
C678 H664 0.930 . S
C678 C676 1.395 1_655 S
C678 C681 1.403 1_556 S
C679 C676 1.403 1_554 S
C679 C680 1.524 . S
C679 C683 1.400 1_455 S
C680 H665 0.960 . S
C680 H666 0.960 . S
C680 H667 0.960 . S
C680 C679 1.524 . S
C681 C678 1.403 1_554 S
C681 C682 1.392 . S
C681 C685 1.495 1_554 S
C682 C681 1.392 . S
C682 C683 1.385 . S
C682 C684 1.478 . S
C683 H677 0.930 . S
C683 C679 1.400 1_655 S
C683 C682 1.385 . S
C684 C682 1.478 . S
C684 C686 1.381 . S
C684 C690 1.383 . S
C685 C681 1.495 1_556 S
C685 H691 0.959 . S
C685 H692 0.961 . S
C685 H693 0.960 1_556 S
C686 C684 1.381 . S
C686 C687 1.394 . S
C686 H694 0.930 . S
C687 C686 1.394 . S
C687 C688 1.383 . S
C687 H695 0.929 . S
C688 C687 1.383 . S
C688 C689 1.377 . S
C689 H673 0.930 . S
C689 C688 1.377 . S
C689 C690 1.379 . S
C690 H674 0.931 . S
C690 C684 1.383 . S
C690 C689 1.379 . S
H691 C685 0.959 . S
H692 C685 0.961 . S
H693 C685 0.960 1_554 S
H694 C686 0.930 . S
H695 C687 0.929 . S
H696 C704 0.929 . S
H697 C706 0.930 . S
H698 C708 0.930 . S
H699 C711 0.929 . S
H700 C714 0.933 . S
H701 C716 0.960 . S
H702 C716 0.960 . S
H703 C716 0.960 . S
C704 H696 0.929 . S
C704 C705 1.377 . S
C704 C706 1.384 . S
C705 C704 1.377 . S
C705 C711 1.390 . S
C706 H697 0.930 . S
C706 C704 1.384 . S
C706 C707 1.372 . S
C707 C706 1.372 . S
C707 C708 1.400 . S
C707 C712 1.490 . S
C708 H698 0.930 . S
C708 C707 1.400 . S
C708 C711 1.386 . S
H709 C725 0.930 . S
H710 C726 0.931 . S
C711 H699 0.929 . S
C711 C705 1.390 . S
C711 C708 1.386 . S
C712 C707 1.490 . S
C712 C714 1.395 . S
C712 C715 1.403 . S
H713 C719 0.930 . S
C714 H700 0.933 . S
C714 C712 1.395 . S
C714 C717 1.403 1_554 S
C715 C712 1.403 . S
C715 C716 1.524 . S
C715 C719 1.400 . S
C716 H701 0.960 . S
C716 H702 0.960 . S
C716 H703 0.960 . S
C716 C715 1.524 . S
C717 C714 1.403 1_556 S
C717 C718 1.392 . S
C717 C721 1.495 . S
C718 C717 1.392 . S
C718 C719 1.385 1_556 S
C718 C720 1.478 . S
C719 H713 0.930 . S
C719 C715 1.400 . S
C719 C718 1.385 1_554 S
C720 C718 1.478 . S
C720 C722 1.381 . S
C720 C726 1.383 . S
C721 C717 1.495 . S
C721 H727 0.959 . S
C721 H728 0.961 . S
C721 H729 0.960 . S
C722 C720 1.381 . S
C722 C723 1.394 . S
C722 H730 0.930 . S
C723 C722 1.394 . S
C723 C724 1.383 . S
C723 H731 0.929 . S
C724 C723 1.383 . S
C724 C725 1.377 . S
C725 H709 0.930 . S
C725 C724 1.377 . S
C725 C726 1.379 . S
C726 H710 0.931 . S
C726 C720 1.383 . S
C726 C725 1.379 . S
H727 C721 0.959 . S
H728 C721 0.961 . S
H729 C721 0.960 . S
H730 C722 0.930 . S
H731 C723 0.929 . S
H732 C740 0.929 . S
H733 C742 0.930 . S
H734 C744 0.930 . S
H735 C747 0.929 . S
H736 C750 0.930 . S
H737 C752 0.960 . S
H738 C752 0.960 . S
H739 C752 0.960 . S
C740 H732 0.929 . S
C740 C741 1.377 . S
C740 C742 1.384 . S
C741 C740 1.377 . S
C741 C747 1.390 . S
C742 H733 0.930 . S
C742 C740 1.384 . S
C742 C743 1.372 . S
C743 C742 1.372 . S
C743 C744 1.400 . S
C743 C748 1.490 . S
C744 H734 0.930 . S
C744 C743 1.400 . S
C744 C747 1.386 . S
H745 C761 0.930 . S
H746 C762 0.931 . S
C747 H735 0.929 . S
C747 C741 1.390 . S
C747 C744 1.386 . S
C748 C743 1.490 . S
C748 C750 1.395 1_655 S
C748 C751 1.403 . S
H749 C755 0.930 . S
C750 H736 0.930 . S
C750 C748 1.395 1_455 S
C750 C753 1.403 . S
C751 C748 1.403 . S
C751 C752 1.524 . S
C751 C755 1.400 1_655 S
C752 H737 0.960 . S
C752 H738 0.960 . S
C752 H739 0.960 . S
C752 C751 1.524 . S
C753 C750 1.403 . S
C753 C754 1.392 . S
C753 C757 1.495 . S
C754 C753 1.392 . S
C754 C755 1.385 . S
C754 C756 1.478 . S
C755 H749 0.930 . S
C755 C751 1.400 1_455 S
C755 C754 1.385 . S
C756 C754 1.478 . S
C756 C758 1.381 . S
C756 C762 1.383 . S
C757 C753 1.495 . S
C757 H763 0.959 . S
C757 H764 0.961 . S
C757 H765 0.960 . S
C758 C756 1.381 . S
C758 C759 1.394 . S
C758 H766 0.930 . S
C759 C758 1.394 . S
C759 C760 1.383 . S
C759 H767 0.929 . S
C760 C759 1.383 . S
C760 C761 1.377 . S
C761 H745 0.930 . S
C761 C760 1.377 . S
C761 C762 1.379 . S
C762 H746 0.931 . S
C762 C756 1.383 . S
C762 C761 1.379 . S
H763 C757 0.959 . S
H764 C757 0.961 . S
H765 C757 0.960 . S
H766 C758 0.930 . S
H767 C759 0.929 . S
H768 C776 0.929 . S
H769 C778 0.930 . S
H770 C780 0.930 . S
H771 C783 0.929 . S
H772 C786 0.930 . S
H773 C788 0.960 . S
H774 C788 0.960 . S
H775 C788 0.960 . S
C776 H768 0.929 . S
C776 C777 1.377 . S
C776 C778 1.384 . S
C777 C776 1.377 . S
C777 C783 1.390 . S
C778 H769 0.930 . S
C778 C776 1.384 . S
C778 C779 1.372 . S
C779 C778 1.372 . S
C779 C780 1.400 . S
C779 C784 1.490 . S
C780 H770 0.930 . S
C780 C779 1.400 . S
C780 C783 1.386 . S
H781 C797 0.930 . S
H782 C798 0.931 . S
C783 H771 0.929 . S
C783 C777 1.390 . S
C783 C780 1.386 . S
C784 C779 1.490 . S
C784 C786 1.395 . S
C784 C787 1.403 . S
H785 C791 0.930 . S
C786 H772 0.930 . S
C786 C784 1.395 . S
C786 C789 1.403 . S
C787 C784 1.403 . S
C787 C788 1.524 . S
C787 C791 1.400 . S
C788 H773 0.960 . S
C788 H774 0.960 . S
C788 H775 0.960 . S
C788 C787 1.524 . S
C789 C786 1.403 . S
C789 C790 1.392 . S
C789 C793 1.495 . S
C790 C789 1.392 . S
C790 C791 1.385 . S
C790 C792 1.478 . S
C791 H785 0.930 . S
C791 C787 1.400 . S
C791 C790 1.385 . S
C792 C790 1.478 . S
C792 C794 1.381 . S
C792 C798 1.383 . S
C793 C789 1.495 . S
C793 H799 0.959 . S
C793 H800 0.961 . S
C793 H801 0.960 . S
C794 C792 1.381 . S
C794 C795 1.394 . S
C794 H802 0.930 . S
C795 C794 1.394 . S
C795 C796 1.383 . S
C795 H803 0.929 . S
C796 C795 1.383 . S
C796 C797 1.377 . S
C797 H781 0.930 . S
C797 C796 1.377 . S
C797 C798 1.379 . S
C798 H782 0.931 . S
C798 C792 1.383 . S
C798 C797 1.379 . S
H799 C793 0.959 . S
H800 C793 0.961 . S
H801 C793 0.960 . S
H802 C794 0.930 . S
H803 C795 0.929 . S
H804 C812 0.929 . S
H805 C814 0.930 . S
H806 C816 0.930 . S
H807 C819 0.929 . S
H808 C822 0.930 . S
H809 C824 0.960 . S
H810 C824 0.960 . S
H811 C824 0.960 . S
C812 H804 0.929 . S
C812 C813 1.377 . S
C812 C814 1.384 . S
C813 C812 1.377 . S
C813 C819 1.390 . S
C814 H805 0.930 . S
C814 C812 1.384 . S
C814 C815 1.372 . S
C815 C814 1.372 . S
C815 C816 1.400 . S
C815 C820 1.490 . S
C816 H806 0.930 . S
C816 C815 1.400 . S
C816 C819 1.386 . S
H817 C833 0.930 . S
H818 C834 0.931 . S
C819 H807 0.929 . S
C819 C813 1.390 . S
C819 C816 1.386 . S
C820 C815 1.490 . S
C820 C822 1.395 . S
C820 C823 1.403 . S
H821 C827 0.930 . S
C822 H808 0.930 . S
C822 C820 1.395 . S
C822 C825 1.403 1_565 S
C823 C820 1.403 . S
C823 C824 1.524 . S
C823 C827 1.400 . S
C824 H809 0.960 . S
C824 H810 0.960 . S
C824 H811 0.960 . S
C824 C823 1.524 . S
C825 C822 1.403 1_545 S
C825 C826 1.392 . S
C825 C829 1.495 . S
C826 C825 1.392 . S
C826 C827 1.385 1_545 S
C826 C828 1.478 . S
C827 H821 0.930 . S
C827 C823 1.400 . S
C827 C826 1.385 1_565 S
C828 C826 1.478 . S
C828 C830 1.381 . S
C828 C834 1.383 . S
C829 C825 1.495 . S
C829 H835 0.959 . S
C829 H836 0.961 . S
C829 H837 0.960 . S
C830 C828 1.381 . S
C830 C831 1.394 . S
C830 H838 0.930 . S
C831 C830 1.394 . S
C831 C832 1.383 . S
C831 H839 0.929 . S
C832 C831 1.383 . S
C832 C833 1.377 . S
C833 H817 0.930 . S
C833 C832 1.377 . S
C833 C834 1.379 . S
C834 H818 0.931 . S
C834 C828 1.383 . S
C834 C833 1.379 . S
H835 C829 0.959 . S
H836 C829 0.961 . S
H837 C829 0.960 . S
H838 C830 0.930 . S
H839 C831 0.929 . S
H840 C848 0.929 . S
H841 C850 0.930 . S
H842 C852 0.930 . S
H843 C855 0.929 . S
H844 C858 0.930 . S
H845 C860 0.960 . S
H846 C860 0.960 . S
H847 C860 0.960 . S
C848 H840 0.929 . S
C848 C849 1.377 . S
C848 C850 1.384 . S
C849 C848 1.377 . S
C849 C855 1.390 . S
C850 H841 0.930 . S
C850 C848 1.384 . S
C850 C851 1.372 . S
C851 C850 1.372 . S
C851 C852 1.400 . S
C851 C856 1.490 . S
C852 H842 0.930 . S
C852 C851 1.400 . S
C852 C855 1.386 . S
H853 C869 0.930 . S
H854 C870 0.931 . S
C855 H843 0.929 . S
C855 C849 1.390 . S
C855 C852 1.386 . S
C856 C851 1.490 . S
C856 C858 1.395 . S
C856 C859 1.403 . S
H857 C863 0.930 . S
C858 H844 0.930 . S
C858 C856 1.395 . S
C858 C861 1.403 . S
C859 C856 1.403 . S
C859 C860 1.524 . S
C859 C863 1.400 . S
C860 H845 0.960 . S
C860 H846 0.960 . S
C860 H847 0.960 . S
C860 C859 1.524 . S
C861 C858 1.403 . S
C861 C862 1.392 . S
C861 C865 1.495 . S
C862 C861 1.392 . S
C862 C863 1.385 . S
C862 C864 1.478 . S
C863 H857 0.930 . S
C863 C859 1.400 . S
C863 C862 1.385 . S
C864 C862 1.478 . S
C864 C866 1.381 . S
C864 C870 1.383 . S
C865 C861 1.495 . S
C865 H871 0.959 . S
C865 H872 0.961 . S
C865 H873 0.960 . S
C866 C864 1.381 . S
C866 C867 1.394 . S
C866 H874 0.930 . S
C867 C866 1.394 . S
C867 C868 1.383 . S
C867 H875 0.929 . S
C868 C867 1.383 . S
C868 C869 1.377 . S
C869 H853 0.930 . S
C869 C868 1.377 . S
C869 C870 1.379 . S
C870 H854 0.931 . S
C870 C864 1.383 . S
C870 C869 1.379 . S
H871 C865 0.959 . S
H872 C865 0.961 . S
H873 C865 0.960 . S
H874 C866 0.930 . S
H875 C867 0.929 . S
H876 C884 0.929 . S
H877 C886 0.930 . S
H878 C888 0.930 . S
H879 C891 0.929 . S
H880 C894 0.930 . S
H881 C896 0.960 1_565 S
H882 C896 0.960 . S
H883 C896 0.960 . S
C884 H876 0.929 . S
C884 C885 1.377 . S
C884 C886 1.384 . S
C885 C884 1.377 . S
C885 C891 1.390 . S
C886 H877 0.930 . S
C886 C884 1.384 . S
C886 C887 1.372 . S
C887 C886 1.372 . S
C887 C888 1.400 . S
C887 C892 1.490 . S
C888 H878 0.930 . S
C888 C887 1.400 . S
C888 C891 1.386 . S
H889 C905 0.930 . S
H890 C906 0.931 . S
C891 H879 0.929 . S
C891 C885 1.390 . S
C891 C888 1.386 . S
C892 C887 1.490 . S
C892 C894 1.395 . S
C892 C895 1.403 . S
H893 C899 0.930 . S
C894 H880 0.930 . S
C894 C892 1.395 . S
C894 C897 1.403 1_545 S
C895 C892 1.403 . S
C895 C896 1.524 . S
C895 C899 1.400 1_545 S
C896 H881 0.960 1_545 S
C896 H882 0.960 . S
C896 H883 0.960 . S
C896 C895 1.524 . S
C897 C894 1.403 1_565 S
C897 C898 1.392 . S
C897 C901 1.495 . S
C898 C897 1.392 . S
C898 C899 1.385 . S
C898 C900 1.478 . S
C899 H893 0.930 . S
C899 C895 1.400 1_565 S
C899 C898 1.385 . S
C900 C898 1.478 . S
C900 C902 1.381 . S
C900 C906 1.383 . S
C901 C897 1.495 . S
C901 H907 0.959 1_565 S
C901 H908 0.961 . S
C901 H909 0.960 . S
C902 C900 1.381 . S
C902 C903 1.394 . S
C902 H910 0.930 . S
C903 C902 1.394 . S
C903 C904 1.383 . S
C903 H911 0.929 . S
C904 C903 1.383 . S
C904 C905 1.377 . S
C905 H889 0.930 . S
C905 C904 1.377 . S
C905 C906 1.379 . S
C906 H890 0.931 . S
C906 C900 1.383 . S
C906 C905 1.379 . S
H907 C901 0.959 1_545 S
H908 C901 0.961 . S
H909 C901 0.960 . S
H910 C902 0.930 . S
H911 C903 0.929 . S
H912 C920 0.929 . S
H913 C922 0.930 . S
H914 C924 0.930 . S
H915 C927 0.929 . S
H916 C930 0.930 1_655 S
H917 C932 0.960 . S
H918 C932 0.960 . S
H919 C932 0.960 . S
C920 H912 0.929 . S
C920 C921 1.377 . S
C920 C922 1.384 . S
C921 C920 1.377 . S
C921 C927 1.390 . S
C922 H913 0.930 . S
C922 C920 1.384 . S
C922 C923 1.372 . S
C923 C922 1.372 . S
C923 C924 1.400 . S
C923 C928 1.490 . S
C924 H914 0.930 . S
C924 C923 1.400 . S
C924 C927 1.386 . S
H925 C941 0.930 . S
H926 C942 0.931 . S
C927 H915 0.929 . S
C927 C921 1.390 . S
C927 C924 1.386 . S
C928 C923 1.490 . S
C928 C930 1.394 1_655 S
C928 C931 1.403 . S
H929 C935 0.930 . S
C930 H916 0.930 1_455 S
C930 C928 1.394 1_455 S
C930 C933 1.404 . S
C931 C928 1.403 . S
C931 C932 1.524 . S
C931 C935 1.400 1_655 S
C932 H917 0.960 . S
C932 H918 0.960 . S
C932 H919 0.960 . S
C932 C931 1.524 . S
C933 C930 1.404 . S
C933 C934 1.392 . S
C933 C937 1.495 . S
C934 C933 1.392 . S
C934 C935 1.385 . S
C934 C936 1.478 . S
C935 H929 0.930 . S
C935 C931 1.400 1_455 S
C935 C934 1.385 . S
C936 C934 1.478 . S
C936 C938 1.381 . S
C936 C942 1.383 . S
C937 C933 1.495 . S
C937 H943 0.959 . S
C937 H944 0.961 . S
C937 H945 0.960 . S
C938 C936 1.381 . S
C938 C939 1.394 . S
C938 H946 0.930 . S
C939 C938 1.394 . S
C939 C940 1.383 . S
C939 H947 0.929 . S
C940 C939 1.383 . S
C940 C941 1.377 . S
C941 H925 0.930 . S
C941 C940 1.377 . S
C941 C942 1.379 . S
C942 H926 0.931 . S
C942 C936 1.383 . S
C942 C941 1.379 . S
H943 C937 0.959 . S
H944 C937 0.961 . S
H945 C937 0.960 . S
H946 C938 0.930 . S
H947 C939 0.929 . S
H948 C956 0.929 . S
H949 C958 0.930 . S
H950 C960 0.930 . S
H951 C963 0.929 . S
H952 C966 0.930 . S
H953 C968 0.960 . S
H954 C968 0.960 . S
H955 C968 0.960 . S
C956 H948 0.929 . S
C956 C957 1.377 . S
C956 C958 1.384 . S
C957 C956 1.377 . S
C957 C963 1.390 . S
C958 H949 0.930 . S
C958 C956 1.384 . S
C958 C959 1.372 . S
C959 C958 1.372 . S
C959 C960 1.400 . S
C959 C964 1.490 . S
C960 H950 0.930 . S
C960 C959 1.400 . S
C960 C963 1.386 . S
H961 C977 0.930 . S
H962 C978 0.931 . S
C963 H951 0.929 . S
C963 C957 1.390 . S
C963 C960 1.386 . S
C964 C959 1.490 . S
C964 C966 1.395 . S
C964 C967 1.403 . S
H965 C971 0.930 . S
C966 H952 0.930 . S
C966 C964 1.395 . S
C966 C969 1.403 . S
C967 C964 1.403 . S
C967 C968 1.524 . S
C967 C971 1.400 . S
C968 H953 0.960 . S
C968 H954 0.960 . S
C968 H955 0.960 . S
C968 C967 1.524 . S
C969 C966 1.403 . S
C969 C970 1.392 . S
C969 C973 1.495 . S
C970 C969 1.392 . S
C970 C971 1.385 . S
C970 C972 1.478 . S
C971 H965 0.930 . S
C971 C967 1.400 . S
C971 C970 1.385 . S
C972 C970 1.478 . S
C972 C974 1.381 . S
C972 C978 1.383 . S
C973 C969 1.495 . S
C973 H979 0.959 . S
C973 H980 0.961 . S
C973 H981 0.960 . S
C974 C972 1.381 . S
C974 C975 1.394 . S
C974 H982 0.930 . S
C975 C974 1.394 . S
C975 C976 1.383 . S
C975 H983 0.929 . S
C976 C975 1.383 . S
C976 C977 1.377 . S
C977 H961 0.930 . S
C977 C976 1.377 . S
C977 C978 1.379 . S
C978 H962 0.931 . S
C978 C972 1.383 . S
C978 C977 1.379 . S
H979 C973 0.959 . S
H980 C973 0.961 . S
H981 C973 0.960 . S
H982 C974 0.930 . S
H983 C975 0.929 . S
H984 C992 0.929 . S
H985 C994 0.930 . S
H986 C996 0.930 . S
H987 C999 0.929 . S
H988 C1002 0.930 . S
H989 C1004 0.960 . S
H990 C1004 0.960 . S
H991 C1004 0.960 . S
C992 H984 0.929 . S
C992 C993 1.377 . S
C992 C994 1.384 . S
C993 C992 1.377 . S
C993 C999 1.390 . S
C994 H985 0.930 . S
C994 C992 1.384 . S
C994 C995 1.372 . S
C995 C994 1.372 . S
C995 C996 1.400 . S
C995 C1000 1.490 . S
C996 H986 0.930 . S
C996 C995 1.400 . S
C996 C999 1.386 . S
H997 C1013 0.930 . S
H998 C1014 0.931 . S
C999 H987 0.929 . S
C999 C993 1.390 . S
C999 C996 1.386 . S
C1000 C995 1.490 . S
C1000 C1002 1.395 . S
C1000 C1003 1.403 . S
H1001 C1007 0.930 . S
C1002 H988 0.930 . S
C1002 C1000 1.395 . S
C1002 C1005 1.403 1_545 S
C1003 C1000 1.403 . S
C1003 C1004 1.524 . S
C1003 C1007 1.400 1_545 S
C1004 H989 0.960 . S
C1004 H990 0.960 . S
C1004 H991 0.960 . S
C1004 C1003 1.524 . S
C1005 C1002 1.403 1_565 S
C1005 C1006 1.392 . S
C1005 C1009 1.495 . S
C1006 C1005 1.392 . S
C1006 C1007 1.385 . S
C1006 C1008 1.478 . S
C1007 H1001 0.930 . S
C1007 C1003 1.400 1_565 S
C1007 C1006 1.385 . S
C1008 C1006 1.478 . S
C1008 C1010 1.381 . S
C1008 C1014 1.383 . S
C1009 C1005 1.495 . S
C1009 H1015 0.959 . S
C1009 H1016 0.961 . S
C1009 H1017 0.960 . S
C1010 C1008 1.381 . S
C1010 C1011 1.394 . S
C1010 H1018 0.930 . S
C1011 C1010 1.394 . S
C1011 C1012 1.383 . S
C1011 H1019 0.929 . S
C1012 C1011 1.383 . S
C1012 C1013 1.377 . S
C1013 H997 0.930 . S
C1013 C1012 1.377 . S
C1013 C1014 1.379 . S
C1014 H998 0.931 . S
C1014 C1008 1.383 . S
C1014 C1013 1.379 . S
H1015 C1009 0.959 . S
H1016 C1009 0.961 . S
H1017 C1009 0.960 . S
H1018 C1010 0.930 . S
H1019 C1011 0.929 . S
H1020 C1028 0.929 . S
H1021 C1030 0.930 . S
H1022 C1032 0.930 . S
H1023 C1035 0.929 . S
H1024 C1038 0.930 1_655 S
H1025 C1040 0.960 . S
H1026 C1040 0.960 . S
H1027 C1040 0.960 . S
C1028 H1020 0.929 . S
C1028 C1029 1.377 . S
C1028 C1030 1.384 . S
C1029 C1028 1.377 . S
C1029 C1035 1.390 . S
C1030 H1021 0.930 . S
C1030 C1028 1.384 . S
C1030 C1031 1.372 . S
C1031 C1030 1.372 . S
C1031 C1032 1.400 . S
C1031 C1036 1.490 . S
C1032 H1022 0.930 . S
C1032 C1031 1.400 . S
C1032 C1035 1.386 . S
H1033 C1049 0.930 . S
H1034 C1050 0.931 . S
C1035 H1023 0.929 . S
C1035 C1029 1.390 . S
C1035 C1032 1.386 . S
C1036 C1031 1.490 . S
C1036 C1038 1.394 1_655 S
C1036 C1039 1.403 . S
H1037 C1043 0.930 . S
C1038 H1024 0.930 1_455 S
C1038 C1036 1.394 1_455 S
C1038 C1041 1.405 . S
C1039 C1036 1.403 . S
C1039 C1040 1.524 . S
C1039 C1043 1.400 1_655 S
C1040 H1025 0.960 . S
C1040 H1026 0.960 . S
C1040 H1027 0.960 . S
C1040 C1039 1.524 . S
C1041 C1038 1.405 . S
C1041 C1042 1.392 . S
C1041 C1045 1.495 . S
C1042 C1041 1.392 . S
C1042 C1043 1.385 . S
C1042 C1044 1.478 . S
C1043 H1037 0.930 . S
C1043 C1039 1.400 1_455 S
C1043 C1042 1.385 . S
C1044 C1042 1.478 . S
C1044 C1046 1.381 . S
C1044 C1050 1.383 . S
C1045 C1041 1.495 . S
C1045 H1051 0.959 . S
C1045 H1052 0.961 . S
C1045 H1053 0.960 . S
C1046 C1044 1.381 . S
C1046 C1047 1.394 . S
C1046 H1054 0.930 . S
C1047 C1046 1.394 . S
C1047 C1048 1.383 . S
C1047 H1055 0.929 . S
C1048 C1047 1.383 . S
C1048 C1049 1.377 . S
C1049 H1033 0.930 . S
C1049 C1048 1.377 . S
C1049 C1050 1.379 . S
C1050 H1034 0.931 . S
C1050 C1044 1.383 . S
C1050 C1049 1.379 . S
H1051 C1045 0.959 . S
H1052 C1045 0.961 . S
H1053 C1045 0.960 . S
H1054 C1046 0.930 . S
H1055 C1047 0.929 . S
H1056 C1064 0.929 . S
H1057 C1066 0.930 . S
H1058 C1068 0.930 . S
H1059 C1071 0.929 . S
H1060 C1074 0.930 . S
H1061 C1076 0.960 . S
H1062 C1076 0.960 . S
H1063 C1076 0.960 . S
C1064 H1056 0.929 . S
C1064 C1065 1.377 . S
C1064 C1066 1.384 . S
C1065 C1064 1.377 . S
C1065 C1071 1.390 . S
C1066 H1057 0.930 . S
C1066 C1064 1.384 . S
C1066 C1067 1.372 . S
C1067 C1066 1.372 . S
C1067 C1068 1.400 . S
C1067 C1072 1.490 . S
C1068 H1058 0.930 . S
C1068 C1067 1.400 . S
C1068 C1071 1.386 . S
H1069 C1085 0.930 . S
H1070 C1086 0.931 . S
C1071 H1059 0.929 . S
C1071 C1065 1.390 . S
C1071 C1068 1.386 . S
C1072 C1067 1.490 . S
C1072 C1074 1.395 . S
C1072 C1075 1.403 . S
H1073 C1079 0.930 . S
C1074 H1060 0.930 . S
C1074 C1072 1.395 . S
C1074 C1077 1.403 . S
C1075 C1072 1.403 . S
C1075 C1076 1.524 . S
C1075 C1079 1.400 . S
C1076 H1061 0.960 . S
C1076 H1062 0.960 . S
C1076 H1063 0.960 . S
C1076 C1075 1.524 . S
C1077 C1074 1.403 . S
C1077 C1078 1.392 . S
C1077 C1081 1.495 . S
C1078 C1077 1.392 . S
C1078 C1079 1.385 . S
C1078 C1080 1.478 . S
C1079 H1073 0.930 . S
C1079 C1075 1.400 . S
C1079 C1078 1.385 . S
C1080 C1078 1.478 . S
C1080 C1082 1.381 . S
C1080 C1086 1.383 . S
C1081 C1077 1.495 . S
C1081 H1087 0.959 . S
C1081 H1088 0.961 . S
C1081 H1089 0.960 . S
C1082 C1080 1.381 . S
C1082 C1083 1.394 . S
C1082 H1090 0.930 . S
C1083 C1082 1.394 . S
C1083 C1084 1.383 . S
C1083 H1091 0.929 . S
C1084 C1083 1.383 . S
C1084 C1085 1.377 . S
C1085 H1069 0.930 . S
C1085 C1084 1.377 . S
C1085 C1086 1.379 . S
C1086 H1070 0.931 . S
C1086 C1080 1.383 . S
C1086 C1085 1.379 . S
H1087 C1081 0.959 . S
H1088 C1081 0.961 . S
H1089 C1081 0.960 . S
H1090 C1082 0.930 . S
H1091 C1083 0.929 . S
H1092 C1100 0.929 . S
H1093 C1102 0.930 . S
H1094 C1104 0.930 . S
H1095 C1107 0.929 . S
H1096 C1110 0.930 . S
H1097 C1112 0.960 . S
H1098 C1112 0.960 . S
H1099 C1112 0.960 . S
C1100 H1092 0.929 . S
C1100 C1101 1.377 . S
C1100 C1102 1.384 . S
C1101 C1100 1.377 . S
C1101 C1107 1.390 . S
C1102 H1093 0.930 . S
C1102 C1100 1.384 . S
C1102 C1103 1.372 . S
C1103 C1102 1.372 . S
C1103 C1104 1.400 . S
C1103 C1108 1.490 . S
C1104 H1094 0.930 . S
C1104 C1103 1.400 . S
C1104 C1107 1.386 . S
H1105 C1121 0.930 . S
H1106 C1122 0.931 . S
C1107 H1095 0.929 . S
C1107 C1101 1.390 . S
C1107 C1104 1.386 . S
C1108 C1103 1.490 . S
C1108 C1110 1.395 . S
C1108 C1111 1.403 . S
H1109 C1115 0.930 . S
C1110 H1096 0.930 . S
C1110 C1108 1.395 . S
C1110 C1113 1.403 . S
C1111 C1108 1.403 . S
C1111 C1112 1.524 . S
C1111 C1115 1.400 . S
C1112 H1097 0.960 . S
C1112 H1098 0.960 . S
C1112 H1099 0.960 . S
C1112 C1111 1.524 . S
C1113 C1110 1.403 . S
C1113 C1114 1.392 . S
C1113 C1117 1.495 . S
C1114 C1113 1.392 . S
C1114 C1115 1.385 . S
C1114 C1116 1.478 . S
C1115 H1109 0.930 . S
C1115 C1111 1.400 . S
C1115 C1114 1.385 . S
C1116 C1114 1.478 . S
C1116 C1118 1.381 . S
C1116 C1122 1.383 . S
C1117 C1113 1.495 . S
C1117 H1123 0.959 . S
C1117 H1124 0.961 . S
C1117 H1125 0.960 . S
C1118 C1116 1.381 . S
C1118 C1119 1.394 . S
C1118 H1126 0.930 . S
C1119 C1118 1.394 . S
C1119 C1120 1.383 . S
C1119 H1127 0.929 . S
C1120 C1119 1.383 . S
C1120 C1121 1.377 . S
C1121 H1105 0.930 . S
C1121 C1120 1.377 . S
C1121 C1122 1.379 . S
C1122 H1106 0.931 . S
C1122 C1116 1.383 . S
C1122 C1121 1.379 . S
H1123 C1117 0.959 . S
H1124 C1117 0.961 . S
H1125 C1117 0.960 . S
H1126 C1118 0.930 . S
H1127 C1119 0.929 . S
H1128 C1136 0.929 . S
H1129 C1138 0.930 . S
H1130 C1140 0.930 . S
H1131 C1143 0.929 . S
H1132 C1146 0.930 . S
H1133 C1148 0.960 . S
H1134 C1148 0.960 . S
H1135 C1148 0.960 . S
C1136 H1128 0.929 . S
C1136 C1137 1.377 . S
C1136 C1138 1.384 . S
C1137 C1136 1.377 . S
C1137 C1143 1.390 . S
C1138 H1129 0.930 . S
C1138 C1136 1.384 . S
C1138 C1139 1.372 . S
C1139 C1138 1.372 . S
C1139 C1140 1.400 . S
C1139 C1144 1.490 . S
C1140 H1130 0.930 . S
C1140 C1139 1.400 . S
C1140 C1143 1.386 . S
H1141 C1157 0.930 . S
H1142 C1158 0.931 . S
C1143 H1131 0.929 . S
C1143 C1137 1.390 . S
C1143 C1140 1.386 . S
C1144 C1139 1.490 . S
C1144 C1146 1.395 . S
C1144 C1147 1.403 . S
H1145 C1151 0.930 . S
C1146 H1132 0.930 . S
C1146 C1144 1.395 . S
C1146 C1149 1.403 . S
C1147 C1144 1.403 . S
C1147 C1148 1.524 . S
C1147 C1151 1.400 . S
C1148 H1133 0.960 . S
C1148 H1134 0.960 . S
C1148 H1135 0.960 . S
C1148 C1147 1.524 . S
C1149 C1146 1.403 . S
C1149 C1150 1.392 . S
C1149 C1153 1.495 . S
C1150 C1149 1.392 . S
C1150 C1151 1.385 . S
C1150 C1152 1.478 . S
C1151 H1145 0.930 . S
C1151 C1147 1.400 . S
C1151 C1150 1.385 . S
C1152 C1150 1.478 . S
C1152 C1154 1.381 . S
C1152 C1158 1.383 . S
C1153 C1149 1.495 . S
C1153 H1159 0.959 . S
C1153 H1160 0.961 . S
C1153 H1161 0.960 . S
C1154 C1152 1.381 . S
C1154 C1155 1.394 . S
C1154 H1162 0.930 . S
C1155 C1154 1.394 . S
C1155 C1156 1.383 . S
C1155 H1163 0.929 . S
C1156 C1155 1.383 . S
C1156 C1157 1.377 . S
C1157 H1141 0.930 . S
C1157 C1156 1.377 . S
C1157 C1158 1.379 . S
C1158 H1142 0.931 . S
C1158 C1152 1.383 . S
C1158 C1157 1.379 . S
H1159 C1153 0.959 . S
H1160 C1153 0.961 . S
H1161 C1153 0.960 . S
H1162 C1154 0.930 . S
H1163 C1155 0.929 . S
H1164 C1172 0.929 . S
H1165 C1174 0.930 . S
H1166 C1176 0.930 . S
H1167 C1179 0.929 . S
H1168 C1182 0.930 . S
H1169 C1184 0.960 . S
H1170 C1184 0.960 . S
H1171 C1184 0.960 . S
C1172 H1164 0.929 . S
C1172 C1173 1.377 . S
C1172 C1174 1.384 . S
C1173 C1172 1.377 . S
C1173 C1179 1.390 . S
C1174 H1165 0.930 . S
C1174 C1172 1.384 . S
C1174 C1175 1.372 . S
C1175 C1174 1.372 . S
C1175 C1176 1.400 . S
C1175 C1180 1.490 . S
C1176 H1166 0.930 . S
C1176 C1175 1.400 . S
C1176 C1179 1.386 . S
H1177 C1193 0.930 . S
H1178 C1194 0.931 . S
C1179 H1167 0.929 . S
C1179 C1173 1.390 . S
C1179 C1176 1.386 . S
C1180 C1175 1.490 . S
C1180 C1182 1.395 . S
C1180 C1183 1.403 . S
H1181 C1187 0.930 . S
C1182 H1168 0.930 . S
C1182 C1180 1.395 . S
C1182 C1185 1.403 . S
C1183 C1180 1.403 . S
C1183 C1184 1.524 . S
C1183 C1187 1.400 . S
C1184 H1169 0.960 . S
C1184 H1170 0.960 . S
C1184 H1171 0.960 . S
C1184 C1183 1.524 . S
C1185 C1182 1.403 . S
C1185 C1186 1.392 . S
C1185 C1189 1.495 . S
C1186 C1185 1.392 . S
C1186 C1187 1.385 . S
C1186 C1188 1.478 . S
C1187 H1181 0.930 . S
C1187 C1183 1.400 . S
C1187 C1186 1.385 . S
C1188 C1186 1.478 . S
C1188 C1190 1.381 . S
C1188 C1194 1.383 . S
C1189 C1185 1.495 . S
C1189 H1195 0.959 . S
C1189 H1196 0.961 . S
C1189 H1197 0.960 . S
C1190 C1188 1.381 . S
C1190 C1191 1.394 . S
C1190 H1198 0.930 . S
C1191 C1190 1.394 . S
C1191 C1192 1.383 . S
C1191 H1199 0.929 . S
C1192 C1191 1.383 . S
C1192 C1193 1.377 . S
C1193 H1177 0.930 . S
C1193 C1192 1.377 . S
C1193 C1194 1.379 . S
C1194 H1178 0.931 . S
C1194 C1188 1.383 . S
C1194 C1193 1.379 . S
H1195 C1189 0.959 . S
H1196 C1189 0.961 . S
H1197 C1189 0.960 . S
H1198 C1190 0.930 . S
H1199 C1191 0.929 . S
H1200 C1208 0.929 . S
H1201 C1210 0.930 . S
H1202 C1212 0.930 . S
H1203 C1215 0.929 . S
H1204 C1218 0.930 . S
H1205 C1220 0.960 . S
H1206 C1220 0.960 . S
H1207 C1220 0.960 . S
C1208 H1200 0.929 . S
C1208 C1209 1.377 . S
C1208 C1210 1.384 . S
C1209 C1208 1.377 . S
C1209 C1215 1.390 . S
C1210 H1201 0.930 . S
C1210 C1208 1.384 . S
C1210 C1211 1.372 . S
C1211 C1210 1.372 . S
C1211 C1212 1.400 . S
C1211 C1216 1.490 . S
C1212 H1202 0.930 . S
C1212 C1211 1.400 . S
C1212 C1215 1.386 . S
H1213 C1229 0.930 . S
H1214 C1230 0.931 . S
C1215 H1203 0.929 . S
C1215 C1209 1.390 . S
C1215 C1212 1.386 . S
C1216 C1211 1.490 . S
C1216 C1218 1.395 . S
C1216 C1219 1.403 . S
H1217 C1223 0.930 . S
C1218 H1204 0.930 . S
C1218 C1216 1.395 . S
C1218 C1221 1.403 . S
C1219 C1216 1.403 . S
C1219 C1220 1.524 . S
C1219 C1223 1.400 . S
C1220 H1205 0.960 . S
C1220 H1206 0.960 . S
C1220 H1207 0.960 . S
C1220 C1219 1.524 . S
C1221 C1218 1.403 . S
C1221 C1222 1.392 . S
C1221 C1225 1.495 . S
C1222 C1221 1.392 . S
C1222 C1223 1.385 . S
C1222 C1224 1.478 . S
C1223 H1217 0.930 . S
C1223 C1219 1.400 . S
C1223 C1222 1.385 . S
C1224 C1222 1.478 . S
C1224 C1226 1.381 . S
C1224 C1230 1.383 . S
C1225 C1221 1.495 . S
C1225 H1231 0.959 . S
C1225 H1232 0.961 . S
C1225 H1233 0.960 . S
C1226 C1224 1.381 . S
C1226 C1227 1.394 . S
C1226 H1234 0.930 . S
C1227 C1226 1.394 . S
C1227 C1228 1.383 . S
C1227 H1235 0.929 . S
C1228 C1227 1.383 . S
C1228 C1229 1.377 . S
C1229 H1213 0.930 . S
C1229 C1228 1.377 . S
C1229 C1230 1.379 . S
C1230 H1214 0.931 . S
C1230 C1224 1.383 . S
C1230 C1229 1.379 . S
H1231 C1225 0.959 . S
H1232 C1225 0.961 . S
H1233 C1225 0.960 . S
H1234 C1226 0.930 . S
H1235 C1227 0.929 . S
H1236 C1244 0.929 . S
H1237 C1246 0.930 . S
H1238 C1248 0.930 . S
H1239 C1251 0.929 . S
H1240 C1254 0.930 . S
H1241 C1256 0.960 . S
H1242 C1256 0.960 . S
H1243 C1256 0.960 . S
C1244 H1236 0.929 . S
C1244 C1245 1.377 . S
C1244 C1246 1.384 . S
C1245 C1244 1.377 . S
C1245 C1251 1.390 . S
C1246 H1237 0.930 . S
C1246 C1244 1.384 . S
C1246 C1247 1.372 . S
C1247 C1246 1.372 . S
C1247 C1248 1.400 . S
C1247 C1252 1.490 . S
C1248 H1238 0.930 . S
C1248 C1247 1.400 . S
C1248 C1251 1.386 . S
H1249 C1265 0.930 . S
H1250 C1266 0.931 . S
C1251 H1239 0.929 . S
C1251 C1245 1.390 . S
C1251 C1248 1.386 . S
C1252 C1247 1.490 . S
C1252 C1254 1.395 . S
C1252 C1255 1.403 . S
H1253 C1259 0.930 . S
C1254 H1240 0.930 . S
C1254 C1252 1.395 . S
C1254 C1257 1.403 . S
C1255 C1252 1.403 . S
C1255 C1256 1.524 . S
C1255 C1259 1.400 . S
C1256 H1241 0.960 . S
C1256 H1242 0.960 . S
C1256 H1243 0.960 . S
C1256 C1255 1.524 . S
C1257 C1254 1.403 . S
C1257 C1258 1.392 . S
C1257 C1261 1.495 . S
C1258 C1257 1.392 . S
C1258 C1259 1.385 . S
C1258 C1260 1.478 . S
C1259 H1253 0.930 . S
C1259 C1255 1.400 . S
C1259 C1258 1.385 . S
C1260 C1258 1.478 . S
C1260 C1262 1.381 . S
C1260 C1266 1.383 . S
C1261 C1257 1.495 . S
C1261 H1267 0.959 . S
C1261 H1268 0.961 . S
C1261 H1269 0.960 . S
C1262 C1260 1.381 . S
C1262 C1263 1.394 . S
C1262 H1270 0.930 . S
C1263 C1262 1.394 . S
C1263 C1264 1.383 . S
C1263 H1271 0.929 . S
C1264 C1263 1.383 . S
C1264 C1265 1.377 . S
C1265 H1249 0.930 . S
C1265 C1264 1.377 . S
C1265 C1266 1.379 . S
C1266 H1250 0.931 . S
C1266 C1260 1.383 . S
C1266 C1265 1.379 . S
H1267 C1261 0.959 . S
H1268 C1261 0.961 . S
H1269 C1261 0.960 . S
H1270 C1262 0.930 . S
H1271 C1263 0.929 . S
H1272 C1280 0.929 . S
H1273 C1282 0.930 . S
H1274 C1284 0.930 . S
H1275 C1287 0.929 . S
H1276 C1290 0.930 . S
H1277 C1292 0.960 . S
H1278 C1292 0.960 . S
H1279 C1292 0.960 . S
C1280 H1272 0.929 . S
C1280 C1281 1.377 . S
C1280 C1282 1.384 . S
C1281 C1280 1.377 . S
C1281 C1287 1.390 . S
C1282 H1273 0.930 . S
C1282 C1280 1.384 . S
C1282 C1283 1.372 . S
C1283 C1282 1.372 . S
C1283 C1284 1.400 . S
C1283 C1288 1.490 . S
C1284 H1274 0.930 . S
C1284 C1283 1.400 . S
C1284 C1287 1.386 . S
H1285 C1301 0.930 . S
H1286 C1302 0.931 . S
C1287 H1275 0.929 . S
C1287 C1281 1.390 . S
C1287 C1284 1.386 . S
C1288 C1283 1.490 . S
C1288 C1290 1.395 . S
C1288 C1291 1.403 . S
H1289 C1295 0.930 . S
C1290 H1276 0.930 . S
C1290 C1288 1.395 . S
C1290 C1293 1.403 . S
C1291 C1288 1.403 . S
C1291 C1292 1.524 . S
C1291 C1295 1.400 . S
C1292 H1277 0.960 . S
C1292 H1278 0.960 . S
C1292 H1279 0.960 . S
C1292 C1291 1.524 . S
C1293 C1290 1.403 . S
C1293 C1294 1.392 . S
C1293 C1297 1.495 . S
C1294 C1293 1.392 . S
C1294 C1295 1.385 . S
C1294 C1296 1.478 . S
C1295 H1289 0.930 . S
C1295 C1291 1.400 . S
C1295 C1294 1.385 . S
C1296 C1294 1.478 . S
C1296 C1298 1.381 . S
C1296 C1302 1.383 . S
C1297 C1293 1.495 . S
C1297 H1303 0.959 . S
C1297 H1304 0.961 . S
C1297 H1305 0.960 . S
C1298 C1296 1.381 . S
C1298 C1299 1.394 . S
C1298 H1306 0.930 . S
C1299 C1298 1.394 . S
C1299 C1300 1.383 . S
C1299 H1307 0.929 . S
C1300 C1299 1.383 . S
C1300 C1301 1.377 . S
C1301 H1285 0.930 . S
C1301 C1300 1.377 . S
C1301 C1302 1.379 . S
C1302 H1286 0.931 . S
C1302 C1296 1.383 . S
C1302 C1301 1.379 . S
H1303 C1297 0.959 . S
H1304 C1297 0.961 . S
H1305 C1297 0.960 . S
H1306 C1298 0.930 . S
H1307 C1299 0.929 . S
H1308 C1316 0.929 . S
H1309 C1318 0.930 . S
H1310 C1320 0.930 . S
H1311 C1323 0.929 . S
H1312 C1326 0.930 . S
H1313 C1328 0.960 . S
H1314 C1328 0.960 . S
H1315 C1328 0.960 . S
C1316 H1308 0.929 . S
C1316 C1317 1.377 . S
C1316 C1318 1.384 . S
C1317 C1316 1.377 . S
C1317 C1323 1.390 . S
C1318 H1309 0.930 . S
C1318 C1316 1.384 . S
C1318 C1319 1.372 . S
C1319 C1318 1.372 . S
C1319 C1320 1.400 . S
C1319 C1324 1.490 . S
C1320 H1310 0.930 . S
C1320 C1319 1.400 . S
C1320 C1323 1.386 . S
H1321 C1337 0.930 . S
H1322 C1338 0.931 . S
C1323 H1311 0.929 . S
C1323 C1317 1.390 . S
C1323 C1320 1.386 . S
C1324 C1319 1.490 . S
C1324 C1326 1.395 . S
C1324 C1327 1.403 . S
H1325 C1331 0.930 . S
C1326 H1312 0.930 . S
C1326 C1324 1.395 . S
C1326 C1329 1.403 . S
C1327 C1324 1.403 . S
C1327 C1328 1.524 . S
C1327 C1331 1.400 . S
C1328 H1313 0.960 . S
C1328 H1314 0.960 . S
C1328 H1315 0.960 . S
C1328 C1327 1.524 . S
C1329 C1326 1.403 . S
C1329 C1330 1.392 . S
C1329 C1333 1.495 . S
C1330 C1329 1.392 . S
C1330 C1331 1.385 . S
C1330 C1332 1.478 . S
C1331 H1325 0.930 . S
C1331 C1327 1.400 . S
C1331 C1330 1.385 . S
C1332 C1330 1.478 . S
C1332 C1334 1.381 . S
C1332 C1338 1.383 . S
C1333 C1329 1.495 . S
C1333 H1339 0.959 . S
C1333 H1340 0.961 . S
C1333 H1341 0.960 . S
C1334 C1332 1.381 . S
C1334 C1335 1.394 . S
C1334 H1342 0.930 . S
C1335 C1334 1.394 . S
C1335 C1336 1.383 . S
C1335 H1343 0.929 . S
C1336 C1335 1.383 . S
C1336 C1337 1.377 . S
C1337 H1321 0.930 . S
C1337 C1336 1.377 . S
C1337 C1338 1.379 . S
C1338 H1322 0.931 . S
C1338 C1332 1.383 . S
C1338 C1337 1.379 . S
H1339 C1333 0.959 . S
H1340 C1333 0.961 . S
H1341 C1333 0.960 . S
H1342 C1334 0.930 . S
H1343 C1335 0.929 . S
H1344 C1352 0.929 . S
H1345 C1354 0.930 . S
H1346 C1356 0.930 . S
H1347 C1359 0.929 . S
H1348 C1362 0.930 . S
H1349 C1364 0.960 . S
H1350 C1364 0.960 . S
H1351 C1364 0.960 . S
C1352 H1344 0.929 . S
C1352 C1353 1.377 . S
C1352 C1354 1.384 . S
C1353 C1352 1.377 . S
C1353 C1359 1.390 . S
C1354 H1345 0.930 . S
C1354 C1352 1.384 . S
C1354 C1355 1.372 . S
C1355 C1354 1.372 . S
C1355 C1356 1.400 . S
C1355 C1360 1.490 . S
C1356 H1346 0.930 . S
C1356 C1355 1.400 . S
C1356 C1359 1.386 . S
H1357 C1373 0.930 . S
H1358 C1374 0.931 . S
C1359 H1347 0.929 . S
C1359 C1353 1.390 . S
C1359 C1356 1.386 . S
C1360 C1355 1.490 . S
C1360 C1362 1.395 . S
C1360 C1363 1.403 . S
H1361 C1367 0.930 . S
C1362 H1348 0.930 . S
C1362 C1360 1.395 . S
C1362 C1365 1.403 . S
C1363 C1360 1.403 . S
C1363 C1364 1.524 . S
C1363 C1367 1.400 . S
C1364 H1349 0.960 . S
C1364 H1350 0.960 . S
C1364 H1351 0.960 . S
C1364 C1363 1.524 . S
C1365 C1362 1.403 . S
C1365 C1366 1.392 . S
C1365 C1369 1.495 . S
C1366 C1365 1.392 . S
C1366 C1367 1.385 . S
C1366 C1368 1.478 . S
C1367 H1361 0.930 . S
C1367 C1363 1.400 . S
C1367 C1366 1.385 . S
C1368 C1366 1.478 . S
C1368 C1370 1.381 . S
C1368 C1374 1.383 . S
C1369 C1365 1.495 . S
C1369 H1375 0.959 . S
C1369 H1376 0.961 . S
C1369 H1377 0.960 . S
C1370 C1368 1.381 . S
C1370 C1371 1.394 . S
C1370 H1378 0.930 . S
C1371 C1370 1.394 . S
C1371 C1372 1.383 . S
C1371 H1379 0.929 . S
C1372 C1371 1.383 . S
C1372 C1373 1.377 . S
C1373 H1357 0.930 . S
C1373 C1372 1.377 . S
C1373 C1374 1.379 . S
C1374 H1358 0.931 . S
C1374 C1368 1.383 . S
C1374 C1373 1.379 . S
H1375 C1369 0.959 . S
H1376 C1369 0.961 . S
H1377 C1369 0.960 . S
H1378 C1370 0.930 . S
H1379 C1371 0.929 . S
H1380 C1388 0.929 . S
H1381 C1390 0.930 . S
H1382 C1392 0.930 . S
H1383 C1395 0.929 . S
H1384 C1398 0.930 . S
H1385 C1400 0.960 . S
H1386 C1400 0.960 . S
H1387 C1400 0.960 . S
C1388 H1380 0.929 . S
C1388 C1389 1.377 . S
C1388 C1390 1.384 . S
C1389 C1388 1.377 . S
C1389 C1395 1.390 . S
C1390 H1381 0.930 . S
C1390 C1388 1.384 . S
C1390 C1391 1.372 . S
C1391 C1390 1.372 . S
C1391 C1392 1.400 . S
C1391 C1396 1.490 . S
C1392 H1382 0.930 . S
C1392 C1391 1.400 . S
C1392 C1395 1.386 . S
H1393 C1409 0.930 . S
H1394 C1410 0.931 . S
C1395 H1383 0.929 . S
C1395 C1389 1.390 . S
C1395 C1392 1.386 . S
C1396 C1391 1.490 . S
C1396 C1398 1.395 . S
C1396 C1399 1.403 . S
H1397 C1403 0.930 . S
C1398 H1384 0.930 . S
C1398 C1396 1.395 . S
C1398 C1401 1.403 . S
C1399 C1396 1.403 . S
C1399 C1400 1.524 . S
C1399 C1403 1.400 . S
C1400 H1385 0.960 . S
C1400 H1386 0.960 . S
C1400 H1387 0.960 . S
C1400 C1399 1.524 . S
C1401 C1398 1.403 . S
C1401 C1402 1.392 . S
C1401 C1405 1.495 . S
C1402 C1401 1.392 . S
C1402 C1403 1.385 . S
C1402 C1404 1.478 . S
C1403 H1397 0.930 . S
C1403 C1399 1.400 . S
C1403 C1402 1.385 . S
C1404 C1402 1.478 . S
C1404 C1406 1.381 . S
C1404 C1410 1.383 . S
C1405 C1401 1.495 . S
C1405 H1411 0.959 . S
C1405 H1412 0.961 . S
C1405 H1413 0.960 . S
C1406 C1404 1.381 . S
C1406 C1407 1.394 . S
C1406 H1414 0.930 . S
C1407 C1406 1.394 . S
C1407 C1408 1.383 . S
C1407 H1415 0.929 . S
C1408 C1407 1.383 . S
C1408 C1409 1.377 . S
C1409 H1393 0.930 . S
C1409 C1408 1.377 . S
C1409 C1410 1.379 . S
C1410 H1394 0.931 . S
C1410 C1404 1.383 . S
C1410 C1409 1.379 . S
H1411 C1405 0.959 . S
H1412 C1405 0.961 . S
H1413 C1405 0.960 . S
H1414 C1406 0.930 . S
H1415 C1407 0.929 . S
H1416 C1424 0.929 . S
H1417 C1426 0.930 . S
H1418 C1428 0.930 . S
H1419 C1431 0.929 . S
H1420 C1434 0.930 . S
H1421 C1436 0.960 . S
H1422 C1436 0.960 . S
H1423 C1436 0.960 . S
C1424 H1416 0.929 . S
C1424 C1425 1.377 . S
C1424 C1426 1.384 . S
C1425 C1424 1.377 . S
C1425 C1431 1.390 . S
C1426 H1417 0.930 . S
C1426 C1424 1.384 . S
C1426 C1427 1.372 . S
C1427 C1426 1.372 . S
C1427 C1428 1.400 . S
C1427 C1432 1.490 . S
C1428 H1418 0.930 . S
C1428 C1427 1.400 . S
C1428 C1431 1.386 . S
H1429 C1445 0.930 . S
H1430 C1446 0.931 . S
C1431 H1419 0.929 . S
C1431 C1425 1.390 . S
C1431 C1428 1.386 . S
C1432 C1427 1.490 . S
C1432 C1434 1.395 . S
C1432 C1435 1.403 . S
H1433 C1439 0.930 . S
C1434 H1420 0.930 . S
C1434 C1432 1.395 . S
C1434 C1437 1.403 . S
C1435 C1432 1.403 . S
C1435 C1436 1.524 . S
C1435 C1439 1.400 . S
C1436 H1421 0.960 . S
C1436 H1422 0.960 . S
C1436 H1423 0.960 . S
C1436 C1435 1.524 . S
C1437 C1434 1.403 . S
C1437 C1438 1.392 . S
C1437 C1441 1.495 . S
C1438 C1437 1.392 . S
C1438 C1439 1.385 . S
C1438 C1440 1.478 . S
C1439 H1433 0.930 . S
C1439 C1435 1.400 . S
C1439 C1438 1.385 . S
C1440 C1438 1.478 . S
C1440 C1442 1.381 . S
C1440 C1446 1.383 . S
C1441 C1437 1.495 . S
C1441 H1447 0.959 . S
C1441 H1448 0.961 . S
C1441 H1449 0.960 . S
C1442 C1440 1.381 . S
C1442 C1443 1.394 . S
C1442 H1450 0.930 . S
C1443 C1442 1.394 . S
C1443 C1444 1.383 . S
C1443 H1451 0.929 . S
C1444 C1443 1.383 . S
C1444 C1445 1.377 . S
C1445 H1429 0.930 . S
C1445 C1444 1.377 . S
C1445 C1446 1.379 . S
C1446 H1430 0.931 . S
C1446 C1440 1.383 . S
C1446 C1445 1.379 . S
H1447 C1441 0.959 . S
H1448 C1441 0.961 . S
H1449 C1441 0.960 . S
H1450 C1442 0.930 . S
H1451 C1443 0.929 . S
H1452 C1460 0.929 . S
H1453 C1462 0.930 . S
H1454 C1464 0.930 . S
H1455 C1467 0.929 . S
H1456 C1470 0.930 . S
H1457 C1472 0.960 . S
H1458 C1472 0.960 . S
H1459 C1472 0.960 . S
C1460 H1452 0.929 . S
C1460 C1461 1.377 . S
C1460 C1462 1.384 . S
C1461 C1460 1.377 . S
C1461 C1467 1.390 . S
C1462 H1453 0.930 . S
C1462 C1460 1.384 . S
C1462 C1463 1.372 . S
C1463 C1462 1.372 . S
C1463 C1464 1.400 . S
C1463 C1468 1.490 . S
C1464 H1454 0.930 . S
C1464 C1463 1.400 . S
C1464 C1467 1.386 . S
H1465 C1481 0.930 . S
H1466 C1482 0.931 . S
C1467 H1455 0.929 . S
C1467 C1461 1.390 . S
C1467 C1464 1.386 . S
C1468 C1463 1.490 . S
C1468 C1470 1.395 . S
C1468 C1471 1.403 . S
H1469 C1475 0.930 . S
C1470 H1456 0.930 . S
C1470 C1468 1.395 . S
C1470 C1473 1.403 . S
C1471 C1468 1.403 . S
C1471 C1472 1.524 . S
C1471 C1475 1.400 . S
C1472 H1457 0.960 . S
C1472 H1458 0.960 . S
C1472 H1459 0.960 . S
C1472 C1471 1.524 . S
C1473 C1470 1.403 . S
C1473 C1474 1.392 . S
C1473 C1477 1.495 . S
C1474 C1473 1.392 . S
C1474 C1475 1.385 . S
C1474 C1476 1.478 . S
C1475 H1469 0.930 . S
C1475 C1471 1.400 . S
C1475 C1474 1.385 . S
C1476 C1474 1.478 . S
C1476 C1478 1.381 . S
C1476 C1482 1.383 . S
C1477 C1473 1.495 . S
C1477 H1483 0.959 . S
C1477 H1484 0.961 . S
C1477 H1485 0.960 . S
C1478 C1476 1.381 . S
C1478 C1479 1.394 . S
C1478 H1486 0.930 . S
C1479 C1478 1.394 . S
C1479 C1480 1.383 . S
C1479 H1487 0.929 . S
C1480 C1479 1.383 . S
C1480 C1481 1.377 . S
C1481 H1465 0.930 . S
C1481 C1480 1.377 . S
C1481 C1482 1.379 . S
C1482 H1466 0.931 . S
C1482 C1476 1.383 . S
C1482 C1481 1.379 . S
H1483 C1477 0.959 . S
H1484 C1477 0.961 . S
H1485 C1477 0.960 . S
H1486 C1478 0.930 . S
H1487 C1479 0.929 . S
H1488 C1496 0.929 . S
H1489 C1498 0.930 . S
H1490 C1500 0.930 . S
H1491 C1503 0.929 . S
H1492 C1506 0.930 . S
H1493 C1508 0.960 . S
H1494 C1508 0.960 . S
H1495 C1508 0.960 . S
C1496 H1488 0.929 . S
C1496 C1497 1.377 . S
C1496 C1498 1.384 . S
C1497 C1496 1.377 . S
C1497 C1503 1.390 . S
C1498 H1489 0.930 . S
C1498 C1496 1.384 . S
C1498 C1499 1.372 . S
C1499 C1498 1.372 . S
C1499 C1500 1.400 . S
C1499 C1504 1.490 . S
C1500 H1490 0.930 . S
C1500 C1499 1.400 . S
C1500 C1503 1.386 . S
H1501 C1517 0.930 1_554 S
H1502 C1518 0.931 . S
C1503 H1491 0.929 . S
C1503 C1497 1.390 . S
C1503 C1500 1.386 . S
C1504 C1499 1.490 . S
C1504 C1506 1.395 . S
C1504 C1507 1.403 . S
H1505 C1511 0.930 . S
C1506 H1492 0.930 . S
C1506 C1504 1.395 . S
C1506 C1509 1.403 . S
C1507 C1504 1.403 . S
C1507 C1508 1.524 . S
C1507 C1511 1.400 . S
C1508 H1493 0.960 . S
C1508 H1494 0.960 . S
C1508 H1495 0.960 . S
C1508 C1507 1.524 . S
C1509 C1506 1.403 . S
C1509 C1510 1.392 . S
C1509 C1513 1.495 . S
C1510 C1509 1.392 . S
C1510 C1511 1.385 . S
C1510 C1512 1.478 . S
C1511 H1505 0.930 . S
C1511 C1507 1.400 . S
C1511 C1510 1.385 . S
C1512 C1510 1.478 . S
C1512 C1514 1.381 . S
C1512 C1518 1.383 . S
C1513 C1509 1.495 . S
C1513 H1519 0.959 . S
C1513 H1520 0.961 . S
C1513 H1521 0.960 . S
C1514 C1512 1.381 . S
C1514 C1515 1.394 1_556 S
C1514 H1522 0.930 . S
C1515 C1514 1.394 1_554 S
C1515 C1516 1.383 . S
C1515 H1523 0.929 . S
C1516 C1515 1.383 . S
C1516 C1517 1.377 1_554 S
C1517 H1501 0.930 1_556 S
C1517 C1516 1.377 1_556 S
C1517 C1518 1.379 . S
C1518 H1502 0.931 . S
C1518 C1512 1.383 . S
C1518 C1517 1.379 . S
H1519 C1513 0.959 . S
H1520 C1513 0.961 . S
H1521 C1513 0.960 . S
H1522 C1514 0.930 . S
H1523 C1515 0.929 . S
H1524 C1532 0.929 . S
H1525 C1534 0.930 . S
H1526 C1536 0.930 . S
H1527 C1539 0.929 . S
H1528 C1542 0.930 . S
H1529 C1544 0.960 . S
H1530 C1544 0.960 . S
H1531 C1544 0.960 . S
C1532 H1524 0.929 . S
C1532 C1533 1.377 . S
C1532 C1534 1.384 . S
C1533 C1532 1.377 . S
C1533 C1539 1.390 . S
C1534 H1525 0.930 . S
C1534 C1532 1.384 . S
C1534 C1535 1.372 . S
C1535 C1534 1.372 . S
C1535 C1536 1.400 . S
C1535 C1540 1.490 . S
C1536 H1526 0.930 . S
C1536 C1535 1.400 . S
C1536 C1539 1.386 . S
H1537 C1553 0.913 1_554 S
H1538 C1554 0.931 . S
C1539 H1527 0.929 . S
C1539 C1533 1.390 . S
C1539 C1536 1.386 . S
C1540 C1535 1.490 . S
C1540 C1542 1.395 . S
C1540 C1543 1.403 . S
H1541 C1547 0.930 . S
C1542 H1528 0.930 . S
C1542 C1540 1.395 . S
C1542 C1545 1.403 . S
C1543 C1540 1.403 . S
C1543 C1544 1.524 . S
C1543 C1547 1.400 . S
C1544 H1529 0.960 . S
C1544 H1530 0.960 . S
C1544 H1531 0.960 . S
C1544 C1543 1.524 . S
C1545 C1542 1.403 . S
C1545 C1546 1.392 . S
C1545 C1549 1.495 . S
C1546 C1545 1.392 . S
C1546 C1547 1.385 . S
C1546 C1548 1.478 . S
C1547 H1541 0.930 . S
C1547 C1543 1.400 . S
C1547 C1546 1.385 . S
C1548 C1546 1.478 . S
C1548 C1550 1.381 . S
C1548 C1554 1.383 . S
C1549 C1545 1.495 . S
C1549 H1555 0.959 . S
C1549 H1556 0.961 . S
C1549 H1557 0.960 . S
C1550 C1548 1.381 . S
C1550 C1551 1.394 1_556 S
C1550 H1558 0.930 . S
C1551 C1550 1.394 1_554 S
C1551 C1552 1.383 . S
C1551 H1559 0.929 . S
C1552 C1551 1.383 . S
C1552 C1553 1.356 1_554 S
C1553 H1537 0.913 1_556 S
C1553 C1552 1.356 1_556 S
C1553 C1554 1.418 . S
C1554 H1538 0.931 . S
C1554 C1548 1.383 . S
C1554 C1553 1.418 . S
H1555 C1549 0.959 . S
H1556 C1549 0.961 . S
H1557 C1549 0.960 . S
H1558 C1550 0.930 . S
H1559 C1551 0.929 . S
H1560 C1568 0.929 . S
H1561 C1570 0.930 . S
H1562 C1572 0.930 . S
H1563 C1575 0.929 1_554 S
H1564 C1578 0.930 . S
H1565 C1580 0.960 . S
H1566 C1580 0.960 . S
H1567 C1580 0.960 . S
C1568 H1560 0.929 . S
C1568 C1569 1.377 . S
C1568 C1570 1.384 1_554 S
C1569 C1568 1.377 . S
C1569 C1575 1.390 1_554 S
C1570 H1561 0.930 . S
C1570 C1568 1.384 1_556 S
C1570 C1571 1.372 . S
C1571 C1570 1.372 . S
C1571 C1572 1.400 . S
C1571 C1576 1.490 . S
C1572 H1562 0.930 . S
C1572 C1571 1.400 . S
C1572 C1575 1.386 . S
H1573 C1589 0.930 . S
H1574 C1590 0.931 . S
C1575 H1563 0.929 1_556 S
C1575 C1569 1.390 1_556 S
C1575 C1572 1.386 . S
C1576 C1571 1.490 . S
C1576 C1578 1.395 . S
C1576 C1579 1.403 . S
H1577 C1583 0.930 . S
C1578 H1564 0.930 . S
C1578 C1576 1.395 . S
C1578 C1581 1.403 . S
C1579 C1576 1.403 . S
C1579 C1580 1.524 . S
C1579 C1583 1.400 . S
C1580 H1565 0.960 . S
C1580 H1566 0.960 . S
C1580 H1567 0.960 . S
C1580 C1579 1.524 . S
C1581 C1578 1.403 . S
C1581 C1582 1.392 . S
C1581 C1585 1.495 . S
C1582 C1581 1.392 . S
C1582 C1583 1.385 . S
C1582 C1584 1.478 . S
C1583 H1577 0.930 . S
C1583 C1579 1.400 . S
C1583 C1582 1.385 . S
C1584 C1582 1.478 . S
C1584 C1586 1.381 . S
C1584 C1590 1.383 . S
C1585 C1581 1.495 . S
C1585 H1591 0.959 . S
C1585 H1592 0.961 . S
C1585 H1593 0.960 . S
C1586 C1584 1.381 . S
C1586 C1587 1.394 . S
C1586 H1594 0.930 . S
C1587 C1586 1.394 . S
C1587 C1588 1.383 . S
C1587 H1595 0.929 . S
C1588 C1587 1.383 . S
C1588 C1589 1.377 . S
C1589 H1573 0.930 . S
C1589 C1588 1.377 . S
C1589 C1590 1.379 . S
C1590 H1574 0.931 . S
C1590 C1584 1.383 . S
C1590 C1589 1.379 . S
H1591 C1585 0.959 . S
H1592 C1585 0.961 . S
H1593 C1585 0.960 . S
H1594 C1586 0.930 . S
H1595 C1587 0.929 . S
H1596 C1604 0.929 . S
H1597 C1606 0.930 . S
H1598 C1608 0.930 . S
H1599 C1611 0.929 . S
H1600 C1614 0.930 . S
H1601 C1616 0.960 . S
H1602 C1616 0.960 . S
H1603 C1616 0.960 . S
C1604 H1596 0.929 . S
C1604 C1605 1.377 . S
C1604 C1606 1.384 . S
C1605 C1604 1.377 . S
C1605 C1611 1.390 . S
C1606 H1597 0.930 . S
C1606 C1604 1.384 . S
C1606 C1607 1.372 . S
C1607 C1606 1.372 . S
C1607 C1608 1.400 . S
C1607 C1612 1.490 . S
C1608 H1598 0.930 . S
C1608 C1607 1.400 . S
C1608 C1611 1.386 . S
H1609 C1625 0.930 . S
H1610 C1626 0.931 . S
C1611 H1599 0.929 . S
C1611 C1605 1.390 . S
C1611 C1608 1.386 . S
C1612 C1607 1.490 . S
C1612 C1614 1.395 . S
C1612 C1615 1.403 . S
H1613 C1619 0.930 . S
C1614 H1600 0.930 . S
C1614 C1612 1.395 . S
C1614 C1617 1.403 . S
C1615 C1612 1.403 . S
C1615 C1616 1.524 . S
C1615 C1619 1.400 . S
C1616 H1601 0.960 . S
C1616 H1602 0.960 . S
C1616 H1603 0.960 . S
C1616 C1615 1.524 . S
C1617 C1614 1.403 . S
C1617 C1618 1.392 . S
C1617 C1621 1.495 . S
C1618 C1617 1.392 . S
C1618 C1619 1.385 . S
C1618 C1620 1.478 . S
C1619 H1613 0.930 . S
C1619 C1615 1.400 . S
C1619 C1618 1.385 . S
C1620 C1618 1.478 . S
C1620 C1622 1.381 . S
C1620 C1626 1.383 . S
C1621 C1617 1.495 . S
C1621 H1627 0.959 . S
C1621 H1628 0.961 . S
C1621 H1629 0.960 . S
C1622 C1620 1.381 . S
C1622 C1623 1.394 . S
C1622 H1630 0.930 . S
C1623 C1622 1.394 . S
C1623 C1624 1.383 . S
C1623 H1631 0.929 . S
C1624 C1623 1.383 . S
C1624 C1625 1.377 . S
C1625 H1609 0.930 . S
C1625 C1624 1.377 . S
C1625 C1626 1.379 . S
C1626 H1610 0.931 . S
C1626 C1620 1.383 . S
C1626 C1625 1.379 . S
H1627 C1621 0.959 . S
H1628 C1621 0.961 . S
H1629 C1621 0.960 . S
H1630 C1622 0.930 . S
H1631 C1623 0.929 . S
H1632 C1640 0.929 . S
H1633 C1642 0.930 . S
H1634 C1644 0.930 . S
H1635 C1647 0.929 . S
H1636 C1650 0.930 . S
H1637 C1652 0.960 . S
H1638 C1652 0.960 . S
H1639 C1652 0.960 . S
C1640 H1632 0.929 . S
C1640 C1641 1.377 . S
C1640 C1642 1.384 . S
C1641 C1640 1.377 . S
C1641 C1647 1.390 . S
C1642 H1633 0.930 . S
C1642 C1640 1.384 . S
C1642 C1643 1.372 . S
C1643 C1642 1.372 . S
C1643 C1644 1.400 . S
C1643 C1648 1.490 . S
C1644 H1634 0.930 . S
C1644 C1643 1.400 . S
C1644 C1647 1.386 . S
H1645 C1661 0.930 . S
H1646 C1662 0.931 . S
C1647 H1635 0.929 . S
C1647 C1641 1.390 . S
C1647 C1644 1.386 . S
C1648 C1643 1.490 . S
C1648 C1650 1.395 . S
C1648 C1651 1.403 . S
H1649 C1655 0.930 . S
C1650 H1636 0.930 . S
C1650 C1648 1.395 . S
C1650 C1653 1.403 . S
C1651 C1648 1.403 . S
C1651 C1652 1.524 . S
C1651 C1655 1.400 . S
C1652 H1637 0.960 . S
C1652 H1638 0.960 . S
C1652 H1639 0.960 . S
C1652 C1651 1.524 . S
C1653 C1650 1.403 . S
C1653 C1654 1.392 . S
C1653 C1657 1.495 . S
C1654 C1653 1.392 . S
C1654 C1655 1.385 . S
C1654 C1656 1.478 . S
C1655 H1649 0.930 . S
C1655 C1651 1.400 . S
C1655 C1654 1.385 . S
C1656 C1654 1.478 . S
C1656 C1658 1.381 . S
C1656 C1662 1.383 . S
C1657 C1653 1.495 . S
C1657 H1663 0.959 . S
C1657 H1664 0.961 . S
C1657 H1665 0.960 . S
C1658 C1656 1.381 . S
C1658 C1659 1.394 . S
C1658 H1666 0.930 . S
C1659 C1658 1.394 . S
C1659 C1660 1.383 . S
C1659 H1667 0.929 . S
C1660 C1659 1.383 . S
C1660 C1661 1.377 . S
C1661 H1645 0.930 . S
C1661 C1660 1.377 . S
C1661 C1662 1.379 . S
C1662 H1646 0.931 . S
C1662 C1656 1.383 . S
C1662 C1661 1.379 . S
H1663 C1657 0.959 . S
H1664 C1657 0.961 . S
H1665 C1657 0.960 . S
H1666 C1658 0.930 . S
H1667 C1659 0.929 . S
H1668 C1676 0.929 . S
H1669 C1678 0.930 . S
H1670 C1680 0.930 . S
H1671 C1683 0.929 . S
H1672 C1686 0.930 . S
H1673 C1688 0.960 . S
H1674 C1688 0.960 . S
H1675 C1688 0.960 . S
C1676 H1668 0.929 . S
C1676 C1677 1.377 . S
C1676 C1678 1.384 . S
C1677 C1676 1.377 . S
C1677 C1683 1.390 . S
C1678 H1669 0.930 . S
C1678 C1676 1.384 . S
C1678 C1679 1.372 . S
C1679 C1678 1.372 . S
C1679 C1680 1.400 . S
C1679 C1684 1.490 . S
C1680 H1670 0.930 . S
C1680 C1679 1.400 . S
C1680 C1683 1.386 . S
H1681 C1697 0.930 . S
H1682 C1698 0.931 . S
C1683 H1671 0.929 . S
C1683 C1677 1.390 . S
C1683 C1680 1.386 . S
C1684 C1679 1.490 . S
C1684 C1686 1.395 . S
C1684 C1687 1.403 . S
H1685 C1691 0.930 . S
C1686 H1672 0.930 . S
C1686 C1684 1.395 . S
C1686 C1689 1.403 . S
C1687 C1684 1.403 . S
C1687 C1688 1.524 . S
C1687 C1691 1.400 . S
C1688 H1673 0.960 . S
C1688 H1674 0.960 . S
C1688 H1675 0.960 . S
C1688 C1687 1.524 . S
C1689 C1686 1.403 . S
C1689 C1690 1.392 . S
C1689 C1693 1.495 . S
C1690 C1689 1.392 . S
C1690 C1691 1.385 . S
C1690 C1692 1.478 . S
C1691 H1685 0.930 . S
C1691 C1687 1.400 . S
C1691 C1690 1.385 . S
C1692 C1690 1.478 . S
C1692 C1694 1.381 . S
C1692 C1698 1.383 . S
C1693 C1689 1.495 . S
C1693 H1699 0.959 . S
C1693 H1700 0.961 . S
C1693 H1701 0.960 . S
C1694 C1692 1.381 . S
C1694 C1695 1.394 . S
C1694 H1702 0.930 . S
C1695 C1694 1.394 . S
C1695 C1696 1.383 . S
C1695 H1703 0.929 . S
C1696 C1695 1.383 . S
C1696 C1697 1.377 . S
C1697 H1681 0.930 . S
C1697 C1696 1.377 . S
C1697 C1698 1.379 . S
C1698 H1682 0.931 . S
C1698 C1692 1.383 . S
C1698 C1697 1.379 . S
H1699 C1693 0.959 . S
H1700 C1693 0.961 . S
H1701 C1693 0.960 . S
H1702 C1694 0.930 . S
H1703 C1695 0.929 . S
H1704 C1712 0.929 . S
H1705 C1714 0.930 . S
H1706 C1716 0.930 . S
H1707 C1719 0.929 1_556 S
H1708 C1722 0.930 . S
H1709 C1724 0.960 . S
H1710 C1724 0.960 . S
H1711 C1724 0.960 . S
C1712 H1704 0.929 . S
C1712 C1713 1.377 . S
C1712 C1714 1.384 1_556 S
C1713 C1712 1.377 . S
C1713 C1719 1.390 1_556 S
C1714 H1705 0.930 . S
C1714 C1712 1.384 1_554 S
C1714 C1715 1.372 . S
C1715 C1714 1.372 . S
C1715 C1716 1.400 . S
C1715 C1720 1.490 . S
C1716 H1706 0.930 . S
C1716 C1715 1.400 . S
C1716 C1719 1.386 . S
H1717 C1733 0.930 . S
H1718 C1734 0.931 . S
C1719 H1707 0.929 1_554 S
C1719 C1713 1.390 1_554 S
C1719 C1716 1.386 . S
C1720 C1715 1.490 . S
C1720 C1722 1.395 . S
C1720 C1723 1.403 . S
H1721 C1727 0.930 . S
C1722 H1708 0.930 . S
C1722 C1720 1.395 . S
C1722 C1725 1.403 . S
C1723 C1720 1.403 . S
C1723 C1724 1.524 . S
C1723 C1727 1.400 . S
C1724 H1709 0.960 . S
C1724 H1710 0.960 . S
C1724 H1711 0.960 . S
C1724 C1723 1.524 . S
C1725 C1722 1.403 . S
C1725 C1726 1.392 . S
C1725 C1729 1.495 . S
C1726 C1725 1.392 . S
C1726 C1727 1.385 . S
C1726 C1728 1.478 . S
C1727 H1721 0.930 . S
C1727 C1723 1.400 . S
C1727 C1726 1.385 . S
C1728 C1726 1.478 . S
C1728 C1730 1.381 . S
C1728 C1734 1.383 . S
C1729 C1725 1.495 . S
C1729 H1735 0.959 . S
C1729 H1736 0.961 . S
C1729 H1737 0.960 . S
C1730 C1728 1.381 . S
C1730 C1731 1.394 . S
C1730 H1738 0.930 . S
C1731 C1730 1.394 . S
C1731 C1732 1.383 . S
C1731 H1739 0.929 . S
C1732 C1731 1.383 . S
C1732 C1733 1.377 . S
C1733 H1717 0.930 . S
C1733 C1732 1.377 . S
C1733 C1734 1.379 . S
C1734 H1718 0.931 . S
C1734 C1728 1.383 . S
C1734 C1733 1.379 . S
H1735 C1729 0.959 . S
H1736 C1729 0.961 . S
H1737 C1729 0.960 . S
H1738 C1730 0.930 . S
H1739 C1731 0.929 . S
H1740 C1748 0.929 1_556 S
H1741 C1750 0.930 . S
H1742 C1752 0.930 . S
H1743 C1755 0.929 . S
H1744 C1758 0.930 . S
H1745 C1760 0.960 . S
H1746 C1760 0.960 . S
H1747 C1760 0.960 . S
C1748 H1740 0.929 1_554 S
C1748 C1749 1.377 1_554 S
C1748 C1750 1.384 . S
C1749 C1748 1.377 1_556 S
C1749 C1755 1.390 . S
C1750 H1741 0.930 . S
C1750 C1748 1.384 . S
C1750 C1751 1.372 . S
C1751 C1750 1.372 . S
C1751 C1752 1.400 . S
C1751 C1756 1.490 . S
C1752 H1742 0.930 . S
C1752 C1751 1.400 . S
C1752 C1755 1.386 1_554 S
H1753 C1769 0.930 . S
H1754 C1770 0.931 . S
C1755 H1743 0.929 . S
C1755 C1749 1.390 . S
C1755 C1752 1.386 1_556 S
C1756 C1751 1.490 . S
C1756 C1758 1.395 . S
C1756 C1759 1.403 . S
H1757 C1763 0.930 . S
C1758 H1744 0.930 . S
C1758 C1756 1.395 . S
C1758 C1761 1.403 . S
C1759 C1756 1.403 . S
C1759 C1760 1.524 . S
C1759 C1763 1.400 . S
C1760 H1745 0.960 . S
C1760 H1746 0.960 . S
C1760 H1747 0.960 . S
C1760 C1759 1.524 . S
C1761 C1758 1.403 . S
C1761 C1762 1.392 . S
C1761 C1765 1.495 . S
C1762 C1761 1.392 . S
C1762 C1763 1.385 . S
C1762 C1764 1.478 . S
C1763 H1757 0.930 . S
C1763 C1759 1.400 . S
C1763 C1762 1.385 . S
C1764 C1762 1.478 . S
C1764 C1766 1.381 . S
C1764 C1770 1.383 . S
C1765 C1761 1.495 . S
C1765 H1771 0.959 . S
C1765 H1772 0.961 . S
C1765 H1773 0.960 . S
C1766 C1764 1.381 . S
C1766 C1767 1.394 . S
C1766 H1774 0.930 . S
C1767 C1766 1.394 . S
C1767 C1768 1.383 . S
C1767 H1775 0.929 . S
C1768 C1767 1.383 . S
C1768 C1769 1.377 . S
C1769 H1753 0.930 . S
C1769 C1768 1.377 . S
C1769 C1770 1.379 . S
C1770 H1754 0.931 . S
C1770 C1764 1.383 . S
C1770 C1769 1.379 . S
H1771 C1765 0.959 . S
H1772 C1765 0.961 . S
H1773 C1765 0.960 . S
H1774 C1766 0.930 . S
H1775 C1767 0.929 . S
H1776 C1784 0.936 . S
H1777 C1786 0.930 . S
H1778 C1788 0.930 . S
H1779 C1791 0.941 . S
H1780 C1794 0.930 . S
H1781 C1796 0.960 . S
H1782 C1796 0.960 . S
H1783 C1796 0.960 . S
C1784 H1776 0.936 . S
C1784 C1785 1.385 . S
C1784 C1786 1.370 1_556 S
C1785 C1784 1.385 . S
C1785 C1791 1.402 . S
C1786 H1777 0.930 . S
C1786 C1784 1.370 1_554 S
C1786 C1787 1.372 . S
C1787 C1786 1.372 . S
C1787 C1788 1.400 . S
C1787 C1792 1.490 . S
C1788 H1778 0.930 . S
C1788 C1787 1.400 . S
C1788 C1791 1.362 1_554 S
H1789 C1805 0.930 . S
H1790 C1806 0.931 . S
C1791 H1779 0.941 . S
C1791 C1785 1.402 . S
C1791 C1788 1.362 1_556 S
C1792 C1787 1.490 . S
C1792 C1794 1.395 . S
C1792 C1795 1.403 . S
H1793 C1799 0.930 . S
C1794 H1780 0.930 . S
C1794 C1792 1.395 . S
C1794 C1797 1.403 . S
C1795 C1792 1.403 . S
C1795 C1796 1.524 . S
C1795 C1799 1.400 . S
C1796 H1781 0.960 . S
C1796 H1782 0.960 . S
C1796 H1783 0.960 . S
C1796 C1795 1.524 . S
C1797 C1794 1.403 . S
C1797 C1798 1.392 . S
C1797 C1801 1.495 . S
C1798 C1797 1.392 . S
C1798 C1799 1.385 . S
C1798 C1800 1.478 . S
C1799 H1793 0.930 . S
C1799 C1795 1.400 . S
C1799 C1798 1.385 . S
C1800 C1798 1.478 . S
C1800 C1802 1.381 . S
C1800 C1806 1.383 . S
C1801 C1797 1.495 . S
C1801 H1807 0.959 . S
C1801 H1808 0.961 . S
C1801 H1809 0.960 . S
C1802 C1800 1.381 . S
C1802 C1803 1.394 . S
C1802 H1810 0.930 . S
C1803 C1802 1.394 . S
C1803 C1804 1.383 . S
C1803 H1811 0.929 . S
C1804 C1803 1.383 . S
C1804 C1805 1.377 . S
C1805 H1789 0.930 . S
C1805 C1804 1.377 . S
C1805 C1806 1.379 . S
C1806 H1790 0.931 . S
C1806 C1800 1.383 . S
C1806 C1805 1.379 . S
H1807 C1801 0.959 . S
H1808 C1801 0.961 . S
H1809 C1801 0.960 . S
H1810 C1802 0.930 . S
H1811 C1803 0.929 . S
H1812 C1820 0.929 . S
H1813 C1822 0.930 . S
H1814 C1824 0.930 . S
H1815 C1827 0.929 . S
H1816 C1830 0.930 . S
H1817 C1832 0.960 . S
H1818 C1832 0.960 . S
H1819 C1832 0.960 . S
C1820 H1812 0.929 . S
C1820 C1821 1.377 . S
C1820 C1822 1.384 . S
C1821 C1820 1.377 . S
C1821 C1827 1.390 . S
C1822 H1813 0.930 . S
C1822 C1820 1.384 . S
C1822 C1823 1.372 . S
C1823 C1822 1.372 . S
C1823 C1824 1.400 . S
C1823 C1828 1.490 . S
C1824 H1814 0.930 . S
C1824 C1823 1.400 . S
C1824 C1827 1.386 . S
H1825 C1841 0.930 . S
H1826 C1842 0.931 . S
C1827 H1815 0.929 . S
C1827 C1821 1.390 . S
C1827 C1824 1.386 . S
C1828 C1823 1.490 . S
C1828 C1830 1.395 . S
C1828 C1831 1.403 . S
H1829 C1835 0.930 . S
C1830 H1816 0.930 . S
C1830 C1828 1.395 . S
C1830 C1833 1.403 . S
C1831 C1828 1.403 . S
C1831 C1832 1.524 . S
C1831 C1835 1.400 . S
C1832 H1817 0.960 . S
C1832 H1818 0.960 . S
C1832 H1819 0.960 . S
C1832 C1831 1.524 . S
C1833 C1830 1.403 . S
C1833 C1834 1.392 . S
C1833 C1837 1.495 . S
C1834 C1833 1.392 . S
C1834 C1835 1.385 . S
C1834 C1836 1.478 . S
C1835 H1829 0.930 . S
C1835 C1831 1.400 . S
C1835 C1834 1.385 . S
C1836 C1834 1.478 . S
C1836 C1838 1.381 . S
C1836 C1842 1.383 . S
C1837 C1833 1.495 . S
C1837 H1843 0.959 . S
C1837 H1844 0.961 . S
C1837 H1845 0.960 . S
C1838 C1836 1.381 . S
C1838 C1839 1.394 . S
C1838 H1846 0.930 . S
C1839 C1838 1.394 . S
C1839 C1840 1.383 . S
C1839 H1847 0.929 . S
C1840 C1839 1.383 . S
C1840 C1841 1.377 . S
C1841 H1825 0.930 . S
C1841 C1840 1.377 . S
C1841 C1842 1.379 . S
C1842 H1826 0.931 . S
C1842 C1836 1.383 . S
C1842 C1841 1.379 . S
H1843 C1837 0.959 . S
H1844 C1837 0.961 . S
H1845 C1837 0.960 . S
H1846 C1838 0.930 . S
H1847 C1839 0.929 . S
H1848 C1856 0.929 . S
H1849 C1858 0.930 . S
H1850 C1860 0.930 . S
H1851 C1863 0.929 . S
H1852 C1866 0.930 . S
H1853 C1868 0.960 . S
H1854 C1868 0.960 . S
H1855 C1868 0.960 . S
C1856 H1848 0.929 . S
C1856 C1857 1.377 . S
C1856 C1858 1.384 . S
C1857 C1856 1.377 . S
C1857 C1863 1.390 . S
C1858 H1849 0.930 . S
C1858 C1856 1.384 . S
C1858 C1859 1.372 . S
C1859 C1858 1.372 . S
C1859 C1860 1.400 . S
C1859 C1864 1.490 . S
C1860 H1850 0.930 . S
C1860 C1859 1.400 . S
C1860 C1863 1.386 . S
H1861 C1877 0.930 . S
H1862 C1878 0.931 . S
C1863 H1851 0.929 . S
C1863 C1857 1.390 . S
C1863 C1860 1.386 . S
C1864 C1859 1.490 . S
C1864 C1866 1.395 . S
C1864 C1867 1.403 . S
H1865 C1871 0.930 . S
C1866 H1852 0.930 . S
C1866 C1864 1.395 . S
C1866 C1869 1.403 . S
C1867 C1864 1.403 . S
C1867 C1868 1.524 . S
C1867 C1871 1.400 . S
C1868 H1853 0.960 . S
C1868 H1854 0.960 . S
C1868 H1855 0.960 . S
C1868 C1867 1.524 . S
C1869 C1866 1.403 . S
C1869 C1870 1.392 . S
C1869 C1873 1.495 . S
C1870 C1869 1.392 . S
C1870 C1871 1.385 . S
C1870 C1872 1.478 . S
C1871 H1865 0.930 . S
C1871 C1867 1.400 . S
C1871 C1870 1.385 . S
C1872 C1870 1.478 . S
C1872 C1874 1.381 . S
C1872 C1878 1.383 . S
C1873 C1869 1.495 . S
C1873 H1879 0.959 . S
C1873 H1880 0.961 . S
C1873 H1881 0.960 . S
C1874 C1872 1.381 . S
C1874 C1875 1.394 . S
C1874 H1882 0.930 . S
C1875 C1874 1.394 . S
C1875 C1876 1.383 . S
C1875 H1883 0.929 . S
C1876 C1875 1.383 . S
C1876 C1877 1.377 . S
C1877 H1861 0.930 . S
C1877 C1876 1.377 . S
C1877 C1878 1.379 . S
C1878 H1862 0.931 . S
C1878 C1872 1.383 . S
C1878 C1877 1.379 . S
H1879 C1873 0.959 . S
H1880 C1873 0.961 . S
H1881 C1873 0.960 . S
H1882 C1874 0.930 . S
H1883 C1875 0.929 . S
H1884 C1892 0.929 . S
H1885 C1894 0.930 . S
H1886 C1896 0.930 . S
H1887 C1899 0.929 . S
H1888 C1902 0.930 . S
H1889 C1904 0.960 . S
H1890 C1904 0.960 . S
H1891 C1904 0.960 . S
C1892 H1884 0.929 . S
C1892 C1893 1.377 . S
C1892 C1894 1.384 . S
C1893 C1892 1.377 . S
C1893 C1899 1.390 . S
C1894 H1885 0.930 . S
C1894 C1892 1.384 . S
C1894 C1895 1.372 . S
C1895 C1894 1.372 . S
C1895 C1896 1.400 . S
C1895 C1900 1.490 . S
C1896 H1886 0.930 . S
C1896 C1895 1.400 . S
C1896 C1899 1.386 . S
H1897 C1913 0.930 . S
H1898 C1914 0.931 . S
C1899 H1887 0.929 . S
C1899 C1893 1.390 . S
C1899 C1896 1.386 . S
C1900 C1895 1.490 . S
C1900 C1902 1.395 . S
C1900 C1903 1.403 . S
H1901 C1907 0.930 . S
C1902 H1888 0.930 . S
C1902 C1900 1.395 . S
C1902 C1905 1.403 . S
C1903 C1900 1.403 . S
C1903 C1904 1.524 . S
C1903 C1907 1.400 . S
C1904 H1889 0.960 . S
C1904 H1890 0.960 . S
C1904 H1891 0.960 . S
C1904 C1903 1.524 . S
C1905 C1902 1.403 . S
C1905 C1906 1.392 . S
C1905 C1909 1.495 . S
C1906 C1905 1.392 . S
C1906 C1907 1.385 . S
C1906 C1908 1.478 . S
C1907 H1901 0.930 . S
C1907 C1903 1.400 . S
C1907 C1906 1.385 . S
C1908 C1906 1.478 . S
C1908 C1910 1.381 . S
C1908 C1914 1.383 . S
C1909 C1905 1.495 . S
C1909 H1915 0.959 . S
C1909 H1916 0.961 . S
C1909 H1917 0.960 . S
C1910 C1908 1.381 . S
C1910 C1911 1.394 . S
C1910 H1918 0.930 . S
C1911 C1910 1.394 . S
C1911 C1912 1.383 . S
C1911 H1919 0.929 . S
C1912 C1911 1.383 . S
C1912 C1913 1.377 . S
C1913 H1897 0.930 . S
C1913 C1912 1.377 . S
C1913 C1914 1.379 . S
C1914 H1898 0.931 . S
C1914 C1908 1.383 . S
C1914 C1913 1.379 . S
H1915 C1909 0.959 . S
H1916 C1909 0.961 . S
H1917 C1909 0.960 . S
H1918 C1910 0.930 . S
H1919 C1911 0.929 . S
C417 C241 1.660 . S
C436 C22 1.734 . S
C453 C56 1.753 . S
C472 C275 1.621 . S
C489 C90 1.752 . S
C508 C207 1.661 . S
C525 C124 1.754 . S
C544 C377 1.620 . S
C561 C307 1.650 . S
C580 C158 1.759 . S
C597 C192 1.754 . S
C616 C341 1.621 . S
C633 C219 1.748 . S
C652 C35 1.622 . S
C669 C253 1.753 . S
C688 C69 1.681 . S
C705 C1 1.647 . S
C724 C287 1.735 . S
C741 C328 1.754 . S
C760 C171 1.667 . S
C777 C362 1.754 . S
C796 C103 1.672 . S
C813 C137 1.657 . S
C832 C389 1.747 . S
C849 C3 1.326 . S
C868 C105 1.294 . S
C885 C37 1.326 . S
C904 C139 1.297 . S
C921 C71 1.337 . S
C940 C173 1.351 . S
C957 C309 1.329 . S
C976 C205 1.312 . S
C993 C343 1.338 . S
C1012 C239 1.344 . S
C1029 C375 1.329 . S
C1048 C273 1.367 . S
C1065 C17 1.884 . S
C1084 C49 1.684 . S
C1101 C51 1.884 . S
C1120 C83 1.693 . S
C1137 C85 1.889 . S
C1156 C15 1.656 . S
C1173 C185 1.669 . S
C1192 C119 1.872 . S
C1209 C153 1.888 . S
C1228 C117 1.682 . S
C1245 C151 1.674 . S
C1264 C187 1.883 . S
C1281 C260 1.661 . S
C1300 C221 1.873 . S
C1317 C255 1.889 . S
C1336 C294 1.701 . S
C1353 C289 1.885 . S
C1372 C226 1.644 . S
C1389 C323 1.888 . S
C1408 C396 1.686 . S
C1425 C357 1.885 . S
C1444 C321 1.645 . S
C1461 C391 1.889 . S
C1480 C355 1.702 . S
C1497 C368 1.212 . S
C1516 C6 1.214 . S
C1533 C380 1.213 . S
C1552 C40 1.216 . S
C1569 C74 1.212 . S
C1588 C334 1.209 . S
C1605 C108 1.211 . S
C1624 C278 1.208 . S
C1641 C142 1.212 . S
C1660 C210 1.210 . S
C1677 C244 1.213 . S
C1696 C176 1.199 . S
C1713 C232 1.208 . S
C1732 C164 1.213 . S
C1749 C266 1.212 . S
C1768 C198 1.208 . S
C1785 C300 1.210 . S
C1804 C130 1.212 . S
C1821 C312 1.209 . S
C1840 C96 1.213 . S
C1857 C346 1.209 . S
C1876 C28 1.209 . S
C1893 C402 1.209 . S
C1912 C62 1.213 . S
