# Generated by pormake.
# Topology unn, (4)-cn, num edge types: 1
# Building blocks:
#     Node 0, Type 0, BuildingBlock: CEKHIL_clean_sbu_0, # of connection points: 4
#     Node 1, Type 0, BuildingBlock: CEKHIL_clean_sbu_0, # of connection points: 4
#     Node 2, Type 0, BuildingBlock: CEKHIL_clean_sbu_0, # of connection points: 4
#     Node 3, Type 0, BuildingBlock: CEKHIL_clean_sbu_0, # of connection points: 4
#     Node 4, Type 0, BuildingBlock: CEKHIL_clean_sbu_0, # of connection points: 4
#     Node 5, Type 0, BuildingBlock: CEKHIL_clean_sbu_0, # of connection points: 4
#     Node 6, Type 0, BuildingBlock: CEKHIL_clean_sbu_0, # of connection points: 4
#     Node 7, Type 0, BuildingBlock: CEKHIL_clean_sbu_0, # of connection points: 4
#     Node 8, Type 0, BuildingBlock: CEKHIL_clean_sbu_0, # of connection points: 4
#     Node 9, Type 0, BuildingBlock: CEKHIL_clean_sbu_0, # of connection points: 4
#     Node 10, Type 0, BuildingBlock: CEKHIL_clean_sbu_0, # of connection points: 4
#     Node 11, Type 0, BuildingBlock: CEKHIL_clean_sbu_0, # of connection points: 4
#     Node 12, Type 0, BuildingBlock: CEKHIL_clean_sbu_0, # of connection points: 4
#     Node 13, Type 0, BuildingBlock: CEKHIL_clean_sbu_0, # of connection points: 4
#     Node 14, Type 0, BuildingBlock: CEKHIL_clean_sbu_0, # of connection points: 4
#     Node 15, Type 0, BuildingBlock: CEKHIL_clean_sbu_0, # of connection points: 4
#     Node 16, Type 0, BuildingBlock: CEKHIL_clean_sbu_0, # of connection points: 4
#     Node 17, Type 0, BuildingBlock: CEKHIL_clean_sbu_0, # of connection points: 4
#     Edge 18, Type (0, 0), BuildingBlock: OJICUG_clean_linker_0, # of connection points: 2
#     Edge 19, Type (0, 0), BuildingBlock: OJICUG_clean_linker_0, # of connection points: 2
#     Edge 20, Type (0, 0), BuildingBlock: OJICUG_clean_linker_0, # of connection points: 2
#     Edge 21, Type (0, 0), BuildingBlock: OJICUG_clean_linker_0, # of connection points: 2
#     Edge 22, Type (0, 0), BuildingBlock: OJICUG_clean_linker_0, # of connection points: 2
#     Edge 23, Type (0, 0), BuildingBlock: OJICUG_clean_linker_0, # of connection points: 2
#     Edge 24, Type (0, 0), BuildingBlock: OJICUG_clean_linker_0, # of connection points: 2
#     Edge 25, Type (0, 0), BuildingBlock: OJICUG_clean_linker_0, # of connection points: 2
#     Edge 26, Type (0, 0), BuildingBlock: OJICUG_clean_linker_0, # of connection points: 2
#     Edge 27, Type (0, 0), BuildingBlock: OJICUG_clean_linker_0, # of connection points: 2
#     Edge 28, Type (0, 0), BuildingBlock: OJICUG_clean_linker_0, # of connection points: 2
#     Edge 29, Type (0, 0), BuildingBlock: OJICUG_clean_linker_0, # of connection points: 2
#     Edge 30, Type (0, 0), BuildingBlock: OJICUG_clean_linker_0, # of connection points: 2
#     Edge 31, Type (0, 0), BuildingBlock: OJICUG_clean_linker_0, # of connection points: 2
#     Edge 32, Type (0, 0), BuildingBlock: OJICUG_clean_linker_0, # of connection points: 2
#     Edge 33, Type (0, 0), BuildingBlock: OJICUG_clean_linker_0, # of connection points: 2
#     Edge 34, Type (0, 0), BuildingBlock: OJICUG_clean_linker_0, # of connection points: 2
#     Edge 35, Type (0, 0), BuildingBlock: OJICUG_clean_linker_0, # of connection points: 2
#     Edge 36, Type (0, 0), BuildingBlock: OJICUG_clean_linker_0, # of connection points: 2
#     Edge 37, Type (0, 0), BuildingBlock: OJICUG_clean_linker_0, # of connection points: 2
#     Edge 38, Type (0, 0), BuildingBlock: OJICUG_clean_linker_0, # of connection points: 2
#     Edge 39, Type (0, 0), BuildingBlock: OJICUG_clean_linker_0, # of connection points: 2
#     Edge 40, Type (0, 0), BuildingBlock: OJICUG_clean_linker_0, # of connection points: 2
#     Edge 41, Type (0, 0), BuildingBlock: OJICUG_clean_linker_0, # of connection points: 2
#     Edge 42, Type (0, 0), BuildingBlock: OJICUG_clean_linker_0, # of connection points: 2
#     Edge 43, Type (0, 0), BuildingBlock: OJICUG_clean_linker_0, # of connection points: 2
#     Edge 44, Type (0, 0), BuildingBlock: OJICUG_clean_linker_0, # of connection points: 2
#     Edge 45, Type (0, 0), BuildingBlock: OJICUG_clean_linker_0, # of connection points: 2
#     Edge 46, Type (0, 0), BuildingBlock: OJICUG_clean_linker_0, # of connection points: 2
#     Edge 47, Type (0, 0), BuildingBlock: OJICUG_clean_linker_0, # of connection points: 2
#     Edge 48, Type (0, 0), BuildingBlock: OJICUG_clean_linker_0, # of connection points: 2
#     Edge 49, Type (0, 0), BuildingBlock: OJICUG_clean_linker_0, # of connection points: 2
#     Edge 50, Type (0, 0), BuildingBlock: OJICUG_clean_linker_0, # of connection points: 2
#     Edge 51, Type (0, 0), BuildingBlock: OJICUG_clean_linker_0, # of connection points: 2
#     Edge 52, Type (0, 0), BuildingBlock: OJICUG_clean_linker_0, # of connection points: 2
#     Edge 53, Type (0, 0), BuildingBlock: OJICUG_clean_linker_0, # of connection points: 2
# Relax obj value: 0.126
# Max RMSD: 0.231
# Mean RMSD: 0.221
data_MOF--net-unn--node1-CEKHIL_clean_sbu_0--edge1-OJICUG_clean_linker_0
_symmetry_space_group_name_H-M    P1
_symmetry_Int_Tables_number       1
_symmetry_cell_setting            triclinic
loop_
_symmetry_equiv_pos_as_xyz
'x, y, z'
_cell_length_a     33.813856
_cell_length_b     33.70713
_cell_length_c     27.304381
_cell_angle_alpha  90.319401
_cell_angle_beta   89.649961
_cell_angle_gamma 120.12553
loop_
_atom_site_label
_atom_site_type_symbol
_atom_site_fract_x
_atom_site_fract_y
_atom_site_fract_z
_atom_type_partial_charge
Co0 Co 0.94784 0.69736 0.24912 0.0
O1 O 0.88851 0.65497 0.2236 0.0
O2 O 0.91485 0.72917 0.22942 0.0
C3 C 0.94578 0.6585 0.31597 0.0
O4 O 1.01037 0.74904 0.277 0.0
Co5 Co 1.01478 0.65939 0.24723 0.0
O6 O 0.05089 0.7132 0.28989 0.0
C7 C 0.99491 0.69073 0.15607 0.0
C8 C 0.88173 0.6888 0.21601 0.0
C9 C 0.04548 0.74782 0.29504 0.0
O10 O 0.97406 0.70689 0.18119 0.0
O11 O 1.01034 0.66655 0.17498 0.0
O12 O 0.92528 0.68234 0.3157 0.0
O13 O 0.95806 0.65153 0.27334 0.0
Co14 Co 0.3255 0.2583 0.24725 0.0
O15 O 0.30365 0.3003 0.26191 0.0
O16 O 0.28132 0.23667 0.30258 0.0
C17 C 0.31466 0.26162 0.16647 0.0
O18 O 0.3478 0.21269 0.23497 0.0
Co19 Co 0.41856 0.32364 0.20218 0.0
O20 O 0.41399 0.26106 0.19501 0.0
C21 C 0.39959 0.33465 0.29978 0.0
C22 C 0.27904 0.27397 0.29692 0.0
C23 C 0.38455 0.22077 0.21081 0.0
O24 O 0.37621 0.29113 0.29532 0.0
O25 O 0.42092 0.35929 0.26285 0.0
O26 O 0.2814 0.2332 0.19435 0.0
O27 O 0.35379 0.28419 0.18796 0.0
Co28 Co 0.79914 0.07964 0.21386 0.0
O29 O 0.76118 1.01381 0.22096 0.0
O30 O 0.82666 0.05327 0.25829 0.0
C31 C 0.79356 0.08123 0.13225 0.0
O32 O 0.84515 0.15056 0.20927 0.0
Co33 Co 0.7431 0.12381 0.18231 0.0
O34 O 0.80451 0.17837 0.17202 0.0
C35 C 0.72799 0.08288 0.27798 0.0
C36 C 0.78978 1.0134 0.25143 0.0
C37 C 0.84236 0.18374 0.18778 0.0
O38 O 0.76752 0.08719 0.27223 0.0
O39 O 0.70836 0.09273 0.24423 0.0
O40 O 0.82358 0.07305 0.15199 0.0
O41 O 0.76388 0.08147 0.16244 0.0
Co42 Co 0.96687 0.25878 0.74786 0.0
O43 O 0.03091 0.29932 0.76027 0.0
O44 O 0.99312 0.23031 0.79113 0.0
C45 C 0.97036 0.27039 0.66766 0.0
O46 O 0.89816 0.21071 0.73643 0.0
Co47 Co 0.92218 0.31423 0.72142 0.0
O48 O 0.86917 0.25286 0.70544 0.0
C49 C 0.96558 0.32596 0.81386 0.0
C50 C 0.03172 0.26929 0.78814 0.0
C51 C 0.86533 0.21412 0.71556 0.0
O52 O 0.95209 0.28369 0.80686 0.0
O53 O 0.95918 0.34901 0.78109 0.0
O54 O 0.97909 0.24013 0.68588 0.0
O55 O 0.96728 0.29778 0.69905 0.0
Co56 Co 0.78495 0.6871 0.74629 0.0
O57 O 0.80423 0.64597 0.71884 0.0
O58 O 0.85054 0.71973 0.72984 0.0
C59 C 0.74512 0.64439 0.81098 0.0
O60 O 0.77391 0.7384 0.77627 0.0
Co61 Co 0.6807 0.65252 0.74517 0.0
O62 O 0.69806 0.70341 0.79211 0.0
C63 C 0.73464 0.69296 0.65564 0.0
C64 C 0.84522 0.6805 0.71477 0.0
C65 C 0.73829 0.73781 0.79611 0.0
O66 O 0.77081 0.70014 0.67841 0.0
O67 O 0.69474 0.67243 0.67505 0.0
O68 O 0.78938 0.66899 0.81246 0.0
O69 O 0.72744 0.64016 0.76802 0.0
Co70 Co 0.37779 0.13028 0.75344 0.0
O71 O 0.41845 0.19198 0.72925 0.0
O72 O 0.3436 0.15937 0.72985 0.0
C73 C 0.41271 0.13331 0.82372 0.0
O74 O 0.32685 0.06532 0.77869 0.0
Co75 Co 0.42031 0.06726 0.75804 0.0
O76 O 0.36438 0.0273 0.79611 0.0
C77 C 0.38995 0.08236 0.66361 0.0
C78 C 0.38298 0.19512 0.71852 0.0
C79 C 0.32834 0.03042 0.79753 0.0
O80 O 0.37415 0.10507 0.68581 0.0
O81 O 0.4128 0.06682 0.68528 0.0
O82 O 0.38726 0.15195 0.82057 0.0
O83 O 0.42393 0.12304 0.78216 0.0
Co84 Co 0.61727 1.00236 0.56664 0.0
O85 O 0.55957 0.9577 0.53788 0.0
O86 O 0.57735 0.02841 0.55534 0.0
C87 C 0.61707 0.95585 0.62523 0.0
O88 O 0.67576 0.05562 0.60025 0.0
Co89 Co 0.69486 0.97813 0.5572 0.0
O90 O 0.72711 0.03122 0.60166 0.0
C91 C 0.66798 1.0107 0.47116 0.0
C92 C 0.54703 0.98804 0.53865 0.0
C93 C 0.71449 0.05961 0.6144 0.0
O94 O 0.64483 0.02245 0.49908 0.0
O95 O 0.68653 0.98809 0.48662 0.0
O96 O 0.59407 0.97685 0.63088 0.0
O97 O 0.63448 0.95907 0.58219 0.0
Co98 Co 0.04055 0.61021 0.57942 0.0
O99 O 0.07911 0.58775 0.5527 0.0
O100 O 1.00487 0.54464 0.56203 0.0
C101 C 0.08356 0.64749 0.64415 0.0
O102 O 0.99198 0.62576 0.60832 0.0
Co103 Co 0.08487 0.71714 0.5802 0.0
O104 O 0.03125 0.70235 0.62198 0.0
C105 C 0.04334 0.66542 0.48989 0.0
C106 C 0.04334 0.54775 0.54785 0.0
C107 C 0.99492 0.66333 0.62594 0.0
O108 O 0.03078 0.62737 0.51199 0.0
O109 O 0.06803 0.70485 0.50961 0.0
O110 O 0.05614 0.60345 0.64609 0.0
O111 O 0.08965 0.66548 0.60131 0.0
Co112 Co 0.45238 0.45681 0.57595 0.0
O113 O 0.47535 0.51855 0.55132 0.0
O114 O 0.51463 0.48267 0.55014 0.0
C115 C 0.42348 0.46306 0.64751 0.0
O116 O 0.43637 0.39156 0.60164 0.0
Co117 Co 0.34658 0.39804 0.58336 0.0
O118 O 0.36091 0.3564 0.61967 0.0
C119 C 0.38995 0.40757 0.48811 0.0
C120 C 0.51279 0.51944 0.53934 0.0
C121 C 0.39908 0.35737 0.62013 0.0
O122 O 0.4288 0.43113 0.509 0.0
O123 O 0.35186 0.39243 0.51075 0.0
O124 O 0.46716 0.47955 0.6423 0.0
O125 O 0.40064 0.4524 0.60694 0.0
Co126 Co 0.61677 0.56056 0.08427 0.0
O127 O 0.56717 0.57819 0.06919 0.0
O128 O 0.5537 0.51116 0.06423 0.0
C129 C 0.60226 0.58691 0.15799 0.0
O130 O 0.68348 0.60508 0.10634 0.0
Co131 Co 0.64144 0.6622 0.08593 0.0
O132 O 0.69961 0.67751 0.11825 0.0
C133 C 0.64923 0.62011 -0.00681 0.0
C134 C 0.53755 0.53702 0.05824 0.0
C135 C 0.71078 0.64679 0.1207 0.0
O136 O 0.63593 0.58172 0.01493 0.0
O137 O 0.65152 0.65522 0.01437 0.0
O138 O 0.5997 0.54781 0.1542 0.0
O139 O 0.60047 0.6026 0.11562 0.0
Co140 Co 0.44227 0.0142 0.08103 0.0
O141 O 0.45655 0.96977 0.0536 0.0
O142 O 0.50752 0.04266 0.06202 0.0
C143 C 0.40313 0.9733 0.1461 0.0
O144 O 0.43473 0.0675 0.1116 0.0
Co145 Co 0.33779 0.98185 0.08324 0.0
O146 O 0.35906 0.03418 0.12896 0.0
C147 C 0.39148 0.02447 -0.00592 0.0
C148 C 0.49849 1.00169 0.0484 0.0
C149 C 0.39983 0.06788 0.13217 0.0
O150 O 0.42751 0.02852 0.01436 0.0
O151 O 0.35197 1.00454 0.01437 0.0
O152 O 0.44746 0.996 0.14683 0.0
O153 O 0.38481 0.96944 0.10375 0.0
Co154 Co 0.06191 0.45535 0.08362 0.0
O155 O 0.10829 0.51579 0.0616 0.0
O156 O 0.03484 0.49172 0.05976 0.0
C157 C 0.09301 0.453 0.15455 0.0
O158 O 1.00621 0.39191 0.1071 0.0
Co159 Co 0.09552 0.38485 0.08663 0.0
O160 O 0.03818 0.3483 0.12359 0.0
C161 C 0.06478 0.40184 -0.00658 0.0
C162 C 0.07654 0.52467 0.05062 0.0
C163 C 1.00416 0.3548 0.12492 0.0
O164 O 0.05589 0.43007 0.01557 0.0
O165 O 0.08364 0.38181 0.01454 0.0
O166 O 0.0719 0.47608 0.15093 0.0
O167 O 0.10362 0.44177 0.11314 0.0
Co168 Co 0.27918 0.35214 0.91519 0.0
O169 O 0.22463 0.30349 0.88434 0.0
O170 O 0.23606 0.3728 0.89691 0.0
C171 C 0.27936 0.3095 0.97806 0.0
O172 O 0.33347 0.40962 0.94906 0.0
Co173 Co 0.36287 0.33582 0.92049 0.0
O174 O 0.38795 0.39056 0.96308 0.0
C175 C 0.34526 0.37181 0.82986 0.0
C176 C 0.20887 0.33116 0.88097 0.0
C177 C 0.37245 0.4179 0.96753 0.0
O178 O 0.31106 0.37248 0.84979 0.0
O179 O 0.36794 0.35566 0.85078 0.0
O180 O 0.25339 0.32759 0.97924 0.0
O181 O 0.29973 0.31296 0.9369 0.0
Co182 Co 0.66819 0.93844 0.89789 0.0
O183 O 0.63864 0.97416 0.90815 0.0
O184 O 0.62607 0.91642 0.95512 0.0
C185 C 0.65655 0.92916 0.81726 0.0
O186 O 0.69592 0.89524 0.8918 0.0
Co187 Co 0.75747 0.99161 0.83849 0.0
O188 O 0.75436 0.93139 0.83784 0.0
C189 C 0.7533 0.02133 0.9367 0.0
C190 C 0.61837 0.95008 0.94624 0.0
C191 C 0.72806 0.89648 0.86379 0.0
O192 O 0.71785 0.98179 0.94236 0.0
O193 O 0.77447 0.03502 0.89588 0.0
O194 O 0.62497 0.90206 0.84772 0.0
O195 O 0.69124 0.96461 0.83676 0.0
Co196 Co 0.13206 0.75717 0.90227 0.0
O197 O 0.09628 0.69209 0.91395 0.0
O198 O 0.1621 0.73521 0.9492 0.0
C199 C 0.12325 0.75001 0.82095 0.0
O200 O 0.17606 0.82781 0.89241 0.0
Co201 Co 0.0737 0.79571 0.86544 0.0
O202 O 0.13329 0.85166 0.85281 0.0
C203 C 0.05933 0.75895 0.96275 0.0
C204 C 0.12597 0.6944 0.94451 0.0
C205 C 0.17178 0.85912 0.86883 0.0
O206 O 0.10036 0.76699 0.95881 0.0
O207 O 0.03867 0.76525 0.9273 0.0
O208 O 0.1562 0.74765 0.84222 0.0
O209 O 0.09378 0.75181 0.85013 0.0
Co210 Co 0.31064 0.93828 0.41032 0.0
O211 O 0.37537 0.97345 0.4217 0.0
O212 O 0.33164 0.9062 0.45508 0.0
C213 C 0.31532 0.94759 0.32942 0.0
O214 O 0.24061 0.89531 0.40082 0.0
Co215 Co 0.27406 0.99978 0.37853 0.0
O216 O 0.21759 0.94061 0.36509 0.0
C217 C 0.31346 1.01082 0.47375 0.0
C218 C 0.37241 0.94242 0.45091 0.0
C219 C 0.20981 0.90117 0.37874 0.0
O220 O 0.30111 0.96858 0.46824 0.0
O221 O 0.30839 0.03357 0.43956 0.0
O222 O 0.31903 0.9148 0.34939 0.0
O223 O 0.31548 0.97764 0.35947 0.0
Co224 Co 0.1011 0.33986 0.42173 0.0
O225 O 0.11722 0.29502 0.40049 0.0
O226 O 0.16723 0.3684 0.40654 0.0
C227 C 0.05881 0.30158 0.48618 0.0
O228 O 0.09085 0.39352 0.44586 0.0
Co229 Co 0.99632 0.3046 0.41324 0.0
O230 O 1.01394 0.35935 0.45434 0.0
C231 C 0.05484 0.34246 0.32668 0.0
C232 C 0.15909 0.32713 0.39562 0.0
C233 C 0.05397 0.39369 0.46054 0.0
O234 O 0.08981 0.35062 0.35225 0.0
O235 O 1.01388 0.32152 0.34326 0.0
O236 O 0.10302 0.32491 0.48978 0.0
O237 O 0.04283 0.29546 0.44231 0.0
Co238 Co 0.72099 0.77286 0.39373 0.0
O239 O 0.76723 0.83109 0.36633 0.0
O240 O 0.69419 0.80789 0.36428 0.0
C241 C 0.75402 0.77827 0.46702 0.0
O242 O 0.66628 0.71216 0.42213 0.0
Co243 Co 0.75882 0.70602 0.40941 0.0
O244 O 0.70011 0.67153 0.44454 0.0
C245 C 0.71658 0.70518 0.31499 0.0
C246 C 0.73592 0.84003 0.35378 0.0
C247 C 0.66509 0.67639 0.44218 0.0
O248 O 0.71249 0.73949 0.32906 0.0
O249 O 0.73696 0.68909 0.34047 0.0
O250 O 0.73175 0.79963 0.45923 0.0
O251 O 0.76378 0.76338 0.42772 0.0
C252 C 0.99559 0.73675 0.08316 0.0
C253 C 1.0047 0.70383 0.10388 0.0
H254 H 1.00552 0.78027 0.02123 0.0
C255 C 0.02657 0.68595 0.07517 0.0
H256 H 0.97843 0.75102 0.10427 0.0
C257 C 0.04189 0.70279 0.02841 0.0
C258 C 0.03556 0.73758 0.00881 0.0
H259 H 0.03352 0.66011 0.08936 0.0
H260 H 0.0601 0.68948 0.00803 0.0
C261 C 1.01083 0.75345 0.03569 0.0
C262 C 0.25309 0.2711 0.05776 0.0
C263 C 0.28803 0.29128 0.02279 0.0
H264 H 0.23427 0.24503 0.13017 0.0
C265 C 0.33162 0.29809 0.03358 0.0
H266 H 0.21917 0.26532 0.05013 0.0
C267 C 0.34087 0.28792 0.08036 0.0
C268 C 0.30603 0.26916 0.11576 0.0
H269 H 0.35899 0.31319 0.00692 0.0
H270 H 0.37512 0.29525 0.08903 0.0
C271 C 0.26181 0.25951 0.10352 0.0
C272 C 0.74579 0.06824 0.05826 0.0
C273 C 0.78789 0.07887 0.07868 0.0
H274 H 0.70223 0.04179 -0.00421 0.0
C275 C 0.82221 0.07998 0.04818 0.0
H276 H 0.71886 0.06737 0.08075 0.0
C277 C 0.81287 0.06591 -0.00075 0.0
C278 C 0.76903 0.05032 0.98064 0.0
H279 H 0.85523 0.08858 0.06302 0.0
H280 H 0.8384 0.06326 0.97756 0.0
C281 C 0.73633 0.05369 0.00967 0.0
C282 C 0.67137 0.06293 0.40295 0.0
C283 C 0.67602 0.02582 0.41936 0.0
H284 H 0.68411 0.11062 0.34428 0.0
C285 C 0.69183 1.00481 0.38637 0.0
H286 H 0.65904 0.07971 0.42751 0.0
C287 C 0.70571 0.02225 0.3395 0.0
C288 C 0.70423 0.0611 0.32405 0.0
H289 H 0.69501 0.97566 0.39721 0.0
H290 H 0.71927 1.0062 0.3157 0.0
C291 C 0.68546 0.08053 0.3554 0.0
C292 C 1.00762 0.69635 0.43548 0.0
C293 C 0.02114 0.66383 0.44329 0.0
H294 H 0.97164 0.71871 0.39045 0.0
C295 C 1.00856 0.62796 0.40934 0.0
H296 H 1.01611 0.7239 0.46143 0.0
C297 C 0.9834 0.6254 0.3676 0.0
C298 C 0.96906 0.65751 0.36079 0.0
H299 H 1.01827 0.60221 0.41503 0.0
H300 H 0.97488 0.59834 0.34101 0.0
C301 C 0.98129 0.69279 0.39523 0.0
C302 C 0.42457 0.41934 0.40407 0.0
C303 C 0.39002 0.39167 0.43776 0.0
H304 H 0.45445 0.42339 0.33316 0.0
C305 C 0.35913 0.34599 0.42558 0.0
H306 H 0.44923 0.45462 0.41307 0.0
C307 C 0.36355 0.32772 0.38147 0.0
C308 C 0.39774 0.35511 0.34731 0.0
H309 H 0.3329 0.32361 0.45127 0.0
H310 H 0.33998 0.29179 0.37442 0.0
C311 C 0.42786 0.40141 0.3587 0.0
C312 C 1.00485 0.39243 0.8731 0.0
C313 C 0.99235 0.34758 0.85877 0.0
H314 H 0.0382 0.44532 0.92728 0.0
C315 C 1.00764 0.323 0.88687 0.0
H316 H 0.99403 0.4124 0.852 0.0
C317 C 0.03419 0.34225 0.92836 0.0
C318 C 0.04508 0.38618 0.94409 0.0
H319 H 0.99896 0.2884 0.87711 0.0
H320 H 0.04418 0.32158 0.94943 0.0
C321 C 0.03054 0.41138 0.91582 0.0
C322 C 0.71115 0.66728 0.93466 0.0
C323 C 0.67008 0.62656 0.94416 0.0
H324 H 0.76753 0.70374 0.88595 0.0
C325 C 0.65279 0.59132 0.90881 0.0
H326 H 0.72562 0.69473 0.96149 0.0
C327 C 0.6764 0.59708 0.86449 0.0
C328 C 0.71847 0.63719 0.85627 0.0
H329 H 0.6213 0.55946 0.91558 0.0
H330 H 0.6626 0.56982 0.83745 0.0
C331 C 0.73545 0.67218 0.89167 0.0
C332 C 0.43322 0.06188 0.91591 0.0
C333 C 0.39715 0.0508 0.94906 0.0
H334 H 0.46663 0.09707 0.84945 0.0
C335 C 0.36874 0.0695 0.94205 0.0
H336 H 0.45599 0.04836 0.92091 0.0
C337 C 0.37605 0.09863 0.903 0.0
C338 C 0.41117 0.10887 0.86896 0.0
H339 H 0.34129 0.0625 0.96749 0.0
H340 H 0.35292 0.1118 0.89865 0.0
C341 C 0.43973 0.09019 0.8756 0.0
C342 C 0.3759 0.03011 0.59311 0.0
C343 C 0.37586 0.06868 0.61231 0.0
H344 H 0.35511 0.98127 0.53556 0.0
C345 C 0.35726 0.09033 0.58415 0.0
H346 H 0.38964 1.01242 0.61376 0.0
C347 C 0.33779 0.07264 0.53824 0.0
C348 C 0.33573 0.03251 0.52053 0.0
H349 H 0.35682 0.12026 0.59807 0.0
H350 H 0.3231 0.08937 0.51752 0.0
C351 C 0.35564 1.012 0.5482 0.0
C352 C 0.96583 0.24816 0.58096 0.0
C353 C 0.9827 0.28293 0.61667 0.0
H354 H 0.97694 0.22727 0.51017 0.0
C355 C 0.02112 0.32557 0.60652 0.0
H356 H 0.93657 0.21475 0.58879 0.0
C357 C 0.0453 0.33173 0.56317 0.0
C358 C 0.03034 0.29587 0.52893 0.0
H359 H 0.0351 0.35242 0.63404 0.0
H360 H 0.07663 0.36398 0.5572 0.0
C361 C 0.98916 0.25496 0.53665 0.0
C362 C 0.78096 0.74189 0.5291 0.0
C363 C 0.75168 0.75831 0.51584 0.0
H364 H 0.79903 0.70866 0.58448 0.0
C365 C 0.71657 0.75201 0.5483 0.0
H366 H 0.80791 0.74581 0.50447 0.0
C367 C 0.71041 0.72944 0.59271 0.0
C368 C 0.73993 0.71359 0.60657 0.0
H369 H 0.69285 0.76349 0.5389 0.0
H370 H 0.68296 0.72528 0.61672 0.0
C371 C 0.77564 0.7204 0.57458 0.0
C372 C 0.33529 0.39766 0.7466 0.0
C373 C 0.36356 0.39616 0.78324 0.0
H374 H 0.33212 0.42021 0.67385 0.0
C375 C 0.41106 0.42018 0.77634 0.0
H376 H 0.29852 0.37982 0.75145 0.0
C377 C 0.43009 0.44419 0.73339 0.0
C378 C 0.40212 0.444 0.69546 0.0
H379 H 0.43381 0.42066 0.80443 0.0
H380 H 0.46693 0.46156 0.7294 0.0
C381 C 0.35447 0.42102 0.70258 0.0
C382 C 0.59126 0.91279 0.70196 0.0
C383 C 0.62662 0.93602 0.66797 0.0
H384 H 0.57329 0.89137 0.77594 0.0
C385 C 0.67169 0.9493 0.68111 0.0
H386 H 0.5562 0.90201 0.69245 0.0
C387 C 0.68196 0.94548 0.72981 0.0
C388 C 0.64678 0.92602 0.76474 0.0
H389 H 0.69935 0.96585 0.65517 0.0
H390 H 0.7173 0.95936 0.74051 0.0
C391 C 0.60118 0.90707 0.74979 0.0
C392 C 0.14373 0.74362 0.73522 0.0
C393 C 0.11032 0.73004 0.77205 0.0
H394 H 0.16101 0.72786 0.66473 0.0
C395 C 0.06771 0.69029 0.76573 0.0
H396 H 0.17712 0.77379 0.74005 0.0
C397 C 0.05957 0.66297 0.72438 0.0
C398 C 0.09339 0.67581 0.68813 0.0
H399 H 0.04186 0.67869 0.79423 0.0
H400 H 0.0268 0.63176 0.72074 0.0
C401 C 0.1349 0.71711 0.69285 0.0
C402 C 0.66582 0.6918 0.24115 0.0
C403 C 0.68971 0.67756 0.27194 0.0
H404 H 0.61885 0.67425 0.18091 0.0
C405 C 0.68252 0.63298 0.26577 0.0
H406 H 0.66998 0.72567 0.24524 0.0
C407 C 0.65211 0.60332 0.23083 0.0
C408 C 0.62861 0.61741 0.19954 0.0
H409 H 0.69951 0.62016 0.28892 0.0
H410 H 0.64813 0.56947 0.22757 0.0
C411 C 0.63588 0.66213 0.20493 0.0
C412 C 0.33373 0.93003 0.19825 0.0
C413 C 0.37743 0.96803 0.19117 0.0
H414 H 0.27885 0.89367 0.24947 0.0
C415 C 0.39632 1.00274 0.22686 0.0
H416 H 0.31845 0.90335 0.17067 0.0
C417 C 0.37271 0.99861 0.27013 0.0
C418 C 0.33071 0.95895 0.27894 0.0
H419 H 0.42961 0.03295 0.22151 0.0
H420 H 0.38901 0.02463 0.29826 0.0
C421 C 0.31087 0.92498 0.24258 0.0
C422 C 0.10192 0.37722 0.25078 0.0
C423 C 0.06331 0.36664 0.27977 0.0
H424 H 0.14172 0.41298 0.18725 0.0
C425 C 0.03594 0.38543 0.26773 0.0
H426 H 0.12387 0.36352 0.25985 0.0
C427 C 0.04744 0.41522 0.22851 0.0
C428 C 0.08571 0.42575 0.1991 0.0
H429 H 1.0065 0.37866 0.28988 0.0
H430 H 0.02535 0.42902 0.22053 0.0
C431 C 0.11254 0.40594 0.20995 0.0
C432 C 0.1533 0.81588 0.37168 0.0
C433 C 0.16423 0.86135 0.36413 0.0
H434 H 0.10703 0.74498 0.3573 0.0
C435 C 0.13239 0.86891 0.33808 0.0
H436 H 0.17635 0.80839 0.39163 0.0
C437 C 0.09246 0.83239 0.31765 0.0
C438 C 0.0831 0.78716 0.32269 0.0
H439 H 0.13909 0.90342 0.33166 0.0
H440 H 0.07018 0.83981 0.2961 0.0
C441 C 0.11335 0.77946 0.35152 0.0
C442 C 0.2621 0.3343 0.32865 0.0
C443 C 0.25126 0.28792 0.32789 0.0
H444 H 0.24256 0.38349 0.35112 0.0
C445 C 0.21242 0.25586 0.35378 0.0
H446 H 0.29211 0.36017 0.30953 0.0
C447 C 0.18382 0.26935 0.37725 0.0
C448 C 0.19361 0.3154 0.37628 0.0
H449 H 0.20301 0.22005 0.35413 0.0
H450 H 0.15317 0.24324 0.39525 0.0
C451 C 0.23389 0.34792 0.35278 0.0
C452 C 0.73137 0.93257 0.27675 0.0
C453 C 0.77698 0.96969 0.27873 0.0
H454 H 0.6823 0.86374 0.29909 0.0
C455 C 0.80828 0.96385 0.30693 0.0
H456 H 0.70587 0.93553 0.25583 0.0
C457 C 0.79459 0.92199 0.33127 0.0
C458 C 0.74896 0.88492 0.32913 0.0
H459 H 0.84345 0.99134 0.30968 0.0
H460 H 0.81998 0.9187 0.35202 0.0
C461 C 0.7175 0.89117 0.30188 0.0
C462 C 0.8792 0.26327 0.1496 0.0
C463 C 0.88376 0.23019 0.1774 0.0
H464 H 0.91242 0.32813 0.1116 0.0
C465 C 0.92791 0.24178 0.19212 0.0
H466 H 0.84586 0.2563 0.13753 0.0
C467 C 0.96605 0.28367 0.17766 0.0
C468 C 0.96174 0.31547 0.14737 0.0
H469 H 0.93323 0.21804 0.21375 0.0
H470 H 0.9995 0.29042 0.18905 0.0
C471 C 0.91746 0.30509 0.13479 0.0
C472 C 0.76721 0.6248 0.15109 0.0
C473 C 0.75548 0.65878 0.14378 0.0
H474 H 0.81531 0.60762 0.17933 0.0
C475 C 0.78608 0.70369 0.16069 0.0
H476 H 0.74469 0.58986 0.13907 0.0
C477 C 0.82726 0.71415 0.18411 0.0
C478 C 0.83861 0.67985 0.19147 0.0
H479 H 0.77813 0.73082 0.1561 0.0
H480 H 0.84996 0.74887 0.19663 0.0
C481 C 0.80794 0.63513 0.17454 0.0
C482 C 0.42904 0.19018 0.16396 0.0
C483 C 0.39295 0.18231 0.19659 0.0
H484 H 0.46036 0.16094 0.11838 0.0
C485 C 0.36415 0.13724 0.21263 0.0
H486 H 0.45239 0.22442 0.15075 0.0
C487 C 0.36948 0.10107 0.19457 0.0
C488 C 0.40346 0.10844 0.15936 0.0
H489 H 0.33646 0.12954 0.23797 0.0
H490 H 0.34529 0.06661 0.20665 0.0
C491 C 0.43416 0.1538 0.14555 0.0
C492 C 0.75097 0.14083 0.64947 0.0
C493 C 0.74803 0.0979 0.64684 0.0
H494 H 0.78954 0.21064 0.67361 0.0
C495 C 0.78117 0.09224 0.67265 0.0
H496 H 0.72633 0.14666 0.63048 0.0
C497 C 0.81775 0.1289 0.69725 0.0
C498 C 0.82248 0.17263 0.69728 0.0
H499 H 0.77984 0.05945 0.67254 0.0
H500 H 0.84332 0.1233 0.71443 0.0
C501 C 0.78763 0.17761 0.67428 0.0
C502 C 0.96395 0.70587 0.67444 0.0
C503 C 0.95568 0.66462 0.65128 0.0
H504 H 0.93676 0.74333 0.71154 0.0
C505 C 0.91033 0.62788 0.65086 0.0
H506 H 0.99821 0.7352 0.67644 0.0
C507 C 0.87464 0.63284 0.67185 0.0
C508 C 0.88322 0.67469 0.69361 0.0
H509 H 0.90226 0.59572 0.63353 0.0
H510 H 0.84008 0.60398 0.67033 0.0
C511 C 0.92852 0.71086 0.69485 0.0
C512 C 0.43153 0.27465 0.68135 0.0
C513 C 0.38799 0.23684 0.69309 0.0
H514 H 0.46993 0.34218 0.64916 0.0
C515 C 0.34936 0.23901 0.67924 0.0
H516 H 0.46227 0.2742 0.69124 0.0
C517 C 0.35383 0.27759 0.655 0.0
C518 C 0.39718 0.31594 0.64355 0.0
H519 H 0.31539 0.21077 0.68711 0.0
H520 H 0.32257 0.27712 0.64539 0.0
C521 C 0.4361 0.31369 0.65691 0.0
C522 C 0.29426 0.95885 0.84984 0.0
C523 C 0.28767 0.99012 0.8212 0.0
H524 H 0.26416 0.89391 0.88712 0.0
C525 C 0.24258 0.97952 0.81274 0.0
H526 H 0.32845 0.96581 0.85814 0.0
C527 C 0.20552 0.93802 0.83 0.0
C528 C 0.21216 0.90555 0.85633 0.0
H529 H 0.23582 1.00232 0.79117 0.0
H530 H 0.17138 0.93086 0.82118 0.0
C531 C 0.25727 0.91732 0.8669 0.0
C532 C 0.10465 0.32998 0.82613 0.0
C533 C 0.07457 0.28288 0.81646 0.0
H534 H 0.16955 0.38205 0.85415 0.0
C535 C 0.08821 0.25162 0.83064 0.0
H536 H 0.09526 0.35523 0.81617 0.0
C537 C 0.13158 0.2674 0.85194 0.0
C538 C 0.16207 0.31473 0.86037 0.0
H539 H 0.06622 0.2153 0.8237 0.0
H540 H 0.14145 0.24241 0.86137 0.0
C541 C 0.14746 0.34561 0.84803 0.0
C542 C 0.777 0.82332 0.81446 0.0
C543 C 0.74089 0.77857 0.82212 0.0
H544 H 0.80172 0.89514 0.82254 0.0
C545 C 0.7032 0.77301 0.85067 0.0
H546 H 0.80654 0.82925 0.79306 0.0
C547 C 0.69997 0.81089 0.86741 0.0
C548 C 0.73446 0.85569 0.85639 0.0
H549 H 0.6748 0.73904 0.85829 0.0
H550 H 0.66931 0.80494 0.88653 0.0
C551 C 0.77385 0.8612 0.83136 0.0
C552 C 0.58603 0.55646 0.49137 0.0
C553 C 0.55028 0.55979 0.51307 0.0
H554 H 0.64806 0.58918 0.45073 0.0
C555 C 0.55026 0.60164 0.50823 0.0
H556 H 0.58696 0.52486 0.49344 0.0
C557 C 0.58616 0.63966 0.48366 0.0
C558 C 0.62264 0.63643 0.46312 0.0
H559 H 0.52287 0.60529 0.52424 0.0
H560 H 0.58602 0.67168 0.48208 0.0
C561 C 0.6212 0.59379 0.46662 0.0
C562 C 0.46672 0.92957 0.5124 0.0
C563 C 0.50049 0.97594 0.52076 0.0
H564 H 0.39931 0.882 0.48497 0.0
C565 C 0.48966 1.00993 0.50992 0.0
H566 H 0.4737 0.9023 0.52069 0.0
C567 C 0.44729 0.99816 0.48909 0.0
C568 C 0.41406 0.95201 0.47917 0.0
H569 H 0.51446 0.04578 0.51598 0.0
H570 H 0.44083 0.02562 0.47984 0.0
C571 C 0.42384 0.91769 0.49225 0.0
C572 C 1.0138 0.42722 0.50864 0.0
C573 C 0.05453 0.43393 0.48581 0.0
H574 H 0.97809 0.45672 0.54491 0.0
C575 C 0.09228 0.47873 0.48537 0.0
H576 H 0.98379 0.39337 0.51078 0.0
C577 C 0.08872 0.51549 0.50586 0.0
C578 C 0.04733 0.50852 0.52707 0.0
H579 H 0.12407 0.48557 0.46831 0.0
H580 H 0.11833 0.54965 0.50433 0.0
C581 C 1.01019 0.46373 0.52848 0.0
C582 C 0.41099 0.45491 0.04517 0.0
C583 C 0.40351 0.46031 -0.0044 0.0
H584 H 0.45939 0.4753 0.10389 0.0
C585 C 0.4383 0.49851 0.97052 0.0
H586 H 0.38584 0.42501 0.06511 0.0
C587 C 0.48083 0.52778 -0.00694 0.0
C588 C 0.48964 0.51913 0.04099 0.0
H589 H 0.43462 0.50269 0.9318 0.0
H590 H 0.50828 0.55403 0.97126 0.0
C591 C 0.45351 0.48356 0.06734 0.0
C592 C 0.59941 1.00928 0.97658 0.0
C593 C 0.59027 0.96345 0.9775 0.0
H594 H 0.5789 0.05775 -0.00112 0.0
C595 C 0.55284 0.93151 0.0053 0.0
H596 H 0.62814 0.03502 0.95573 0.0
C597 C 0.52407 0.94457 0.02929 0.0
C598 C 0.53254 0.99015 0.02721 0.0
H599 H 0.54464 0.89608 0.0068 0.0
H600 H 0.49452 0.91859 0.04893 0.0
C601 C 0.57133 0.02256 0.00151 0.0
C602 C 0.14672 0.64816 0.00262 0.0
C603 C 0.11466 0.65233 0.97398 0.0
H604 H 0.15987 0.60466 0.04895 0.0
C605 C 0.06932 0.61466 0.97303 0.0
H606 H 0.1817 0.67617 0.00455 0.0
C607 C 0.05646 0.5742 -0.00076 0.0
C608 C 0.08866 0.5694 0.02664 0.0
H609 H 0.04322 0.61633 0.95184 0.0
H610 H 0.0215 0.54617 -0.00316 0.0
C611 C 0.13398 0.60706 0.02815 0.0
loop_
_geom_bond_atom_site_label_1
_geom_bond_atom_site_label_2
_geom_bond_distance
_geom_bond_site_symmetry_2
_ccdc_geom_bond_type
Co0 O1 2.216 1_455 S
Co0 O2 2.091 1_455 S
Co0 O4 2.004 . S
Co0 O10 2.021 . S
Co0 O12 2.137 1_455 S
Co0 O13 2.244 . S
O1 Co0 2.216 1_655 S
O1 C8 1.247 . S
O2 Co0 2.091 1_655 S
O2 C8 1.261 . S
C3 O12 1.247 . S
C3 O13 1.272 1_655 S
O4 Co0 2.004 . S
O4 C9 1.259 . S
Co5 O6 2.061 . S
Co5 O11 2.052 . S
Co5 O13 2.135 . S
O6 Co5 2.061 . S
O6 C9 1.235 . S
C7 O10 1.238 . S
C7 O11 1.241 . S
C8 O1 1.247 . S
C8 O2 1.261 . S
C9 O4 1.259 . S
C9 O6 1.235 . S
O10 Co0 2.021 . S
O10 C7 1.238 . S
O11 Co5 2.052 . S
O11 C7 1.241 . S
O12 Co0 2.137 1_655 S
O12 C3 1.247 . S
O13 Co0 2.244 . S
O13 C3 1.272 1_455 S
O13 Co5 2.135 . S
Co14 O15 2.216 . S
Co14 O16 2.091 . S
Co14 O18 2.004 . S
Co14 O24 2.021 . S
Co14 O26 2.137 . S
Co14 O27 2.244 . S
O15 Co14 2.216 . S
O15 C22 1.247 . S
O16 Co14 2.091 . S
O16 C22 1.261 . S
C17 O26 1.247 . S
C17 O27 1.272 . S
O18 Co14 2.004 . S
O18 C23 1.259 . S
Co19 O20 2.061 . S
Co19 O25 2.052 . S
Co19 O27 2.135 . S
O20 Co19 2.061 . S
O20 C23 1.235 . S
C21 O24 1.238 . S
C21 O25 1.241 . S
C22 O15 1.247 . S
C22 O16 1.261 . S
C23 O18 1.259 . S
C23 O20 1.235 . S
O24 Co14 2.021 . S
O24 C21 1.238 . S
O25 Co19 2.052 . S
O25 C21 1.241 . S
O26 Co14 2.137 . S
O26 C17 1.247 . S
O27 Co14 2.244 . S
O27 C17 1.272 . S
O27 Co19 2.135 . S
Co28 O29 2.235 . S
Co28 O30 2.115 . S
Co28 O32 1.992 1_565 S
Co28 O38 2.008 1_565 S
Co28 O40 2.146 . S
Co28 O41 2.229 1_565 S
O29 Co28 2.235 . S
O29 C36 1.247 . S
O30 Co28 2.115 . S
O30 C36 1.261 . S
C31 O40 1.247 . S
C31 O41 1.272 1_565 S
O32 Co28 1.992 1_545 S
O32 C37 1.259 . S
Co33 O34 2.061 . S
Co33 O39 2.052 . S
Co33 O41 2.135 . S
O34 Co33 2.061 . S
O34 C37 1.235 . S
C35 O38 1.238 . S
C35 O39 1.241 . S
C36 O29 1.247 . S
C36 O30 1.261 . S
C37 O32 1.259 . S
C37 O34 1.235 . S
O38 Co28 2.008 1_545 S
O38 C35 1.238 . S
O39 Co33 2.052 . S
O39 C35 1.241 . S
O40 Co28 2.146 . S
O40 C31 1.247 . S
O41 Co28 2.229 1_545 S
O41 C31 1.272 1_545 S
O41 Co33 2.135 . S
Co42 O43 2.216 . S
Co42 O44 2.091 . S
Co42 O46 2.004 1_455 S
Co42 O52 2.021 1_455 S
Co42 O54 2.137 . S
Co42 O55 2.244 . S
O43 Co42 2.216 . S
O43 C50 1.247 . S
O44 Co42 2.091 . S
O44 C50 1.261 . S
C45 O54 1.247 . S
C45 O55 1.272 . S
O46 Co42 2.004 1_655 S
O46 C51 1.259 . S
Co47 O48 2.061 . S
Co47 O53 2.052 . S
Co47 O55 2.135 1_655 S
O48 Co47 2.061 . S
O48 C51 1.235 . S
C49 O52 1.238 . S
C49 O53 1.241 . S
C50 O43 1.247 . S
C50 O44 1.261 . S
C51 O46 1.259 . S
C51 O48 1.235 . S
O52 Co42 2.021 1_655 S
O52 C49 1.238 . S
O53 Co47 2.052 . S
O53 C49 1.241 . S
O54 Co42 2.137 . S
O54 C45 1.247 . S
O55 Co42 2.244 . S
O55 C45 1.272 . S
O55 Co47 2.135 1_455 S
Co56 O57 2.216 . S
Co56 O58 2.091 . S
Co56 O60 2.004 . S
Co56 O66 2.021 . S
Co56 O68 2.137 . S
Co56 O69 2.244 . S
O57 Co56 2.216 . S
O57 C64 1.247 . S
O58 Co56 2.091 . S
O58 C64 1.261 . S
C59 O68 1.247 . S
C59 O69 1.272 . S
O60 Co56 2.004 . S
O60 C65 1.259 . S
Co61 O62 2.061 . S
Co61 O67 2.052 . S
Co61 O69 2.135 . S
O62 Co61 2.061 . S
O62 C65 1.235 . S
C63 O66 1.238 . S
C63 O67 1.241 . S
C64 O57 1.247 . S
C64 O58 1.261 . S
C65 O60 1.259 . S
C65 O62 1.235 . S
O66 Co56 2.021 . S
O66 C63 1.238 . S
O67 Co61 2.052 . S
O67 C63 1.241 . S
O68 Co56 2.137 . S
O68 C59 1.247 . S
O69 Co56 2.244 . S
O69 C59 1.272 . S
O69 Co61 2.135 . S
Co70 O71 2.216 . S
Co70 O72 2.091 . S
Co70 O74 2.004 1_545 S
Co70 O80 2.021 1_545 S
Co70 O82 2.137 . S
Co70 O83 2.244 . S
O71 Co70 2.216 . S
O71 C78 1.247 . S
O72 Co70 2.091 . S
O72 C78 1.261 . S
C73 O82 1.247 . S
C73 O83 1.272 . S
O74 Co70 2.004 1_565 S
O74 C79 1.259 . S
Co75 O76 2.061 . S
Co75 O81 2.052 . S
Co75 O83 2.135 1_565 S
O76 Co75 2.061 . S
O76 C79 1.235 . S
C77 O80 1.238 . S
C77 O81 1.241 . S
C78 O71 1.247 . S
C78 O72 1.261 . S
C79 O74 1.259 . S
C79 O76 1.235 . S
O80 Co70 2.021 1_565 S
O80 C77 1.238 . S
O81 Co75 2.052 . S
O81 C77 1.241 . S
O82 Co70 2.137 . S
O82 C73 1.247 . S
O83 Co70 2.244 . S
O83 C73 1.272 . S
O83 Co75 2.135 1_545 S
Co84 O85 2.216 . S
Co84 O86 2.091 . S
Co84 O88 2.004 . S
Co84 O94 2.021 . S
Co84 O96 2.137 . S
Co84 O97 2.244 . S
O85 Co84 2.216 . S
O85 C92 1.247 . S
O86 Co84 2.091 . S
O86 C92 1.261 . S
C87 O96 1.247 . S
C87 O97 1.272 . S
O88 Co84 2.004 . S
O88 C93 1.259 . S
Co89 O90 2.061 . S
Co89 O95 2.052 . S
Co89 O97 2.135 . S
O90 Co89 2.061 . S
O90 C93 1.235 . S
C91 O94 1.238 . S
C91 O95 1.241 . S
C92 O85 1.247 . S
C92 O86 1.261 . S
C93 O88 1.259 . S
C93 O90 1.235 . S
O94 Co84 2.021 . S
O94 C91 1.238 . S
O95 Co89 2.052 . S
O95 C91 1.241 . S
O96 Co84 2.137 . S
O96 C87 1.247 . S
O97 Co84 2.244 . S
O97 C87 1.272 . S
O97 Co89 2.135 . S
Co98 O99 2.216 . S
Co98 O100 2.091 . S
Co98 O102 2.004 . S
Co98 O108 2.021 . S
Co98 O110 2.137 . S
Co98 O111 2.244 . S
O99 Co98 2.216 . S
O99 C106 1.247 . S
O100 Co98 2.091 . S
O100 C106 1.261 . S
C101 O110 1.247 . S
C101 O111 1.272 . S
O102 Co98 2.004 . S
O102 C107 1.259 . S
Co103 O104 2.061 . S
Co103 O109 2.052 . S
Co103 O111 2.135 . S
O104 Co103 2.061 . S
O104 C107 1.235 . S
C105 O108 1.238 . S
C105 O109 1.241 . S
C106 O99 1.247 . S
C106 O100 1.261 . S
C107 O102 1.259 . S
C107 O104 1.235 . S
O108 Co98 2.021 . S
O108 C105 1.238 . S
O109 Co103 2.052 . S
O109 C105 1.241 . S
O110 Co98 2.137 . S
O110 C101 1.247 . S
O111 Co98 2.244 . S
O111 C101 1.272 . S
O111 Co103 2.135 . S
Co112 O113 2.216 . S
Co112 O114 2.091 . S
Co112 O116 2.004 . S
Co112 O122 2.021 . S
Co112 O124 2.137 . S
Co112 O125 2.244 . S
O113 Co112 2.216 . S
O113 C120 1.247 . S
O114 Co112 2.091 . S
O114 C120 1.261 . S
C115 O124 1.247 . S
C115 O125 1.272 . S
O116 Co112 2.004 . S
O116 C121 1.259 . S
Co117 O118 2.061 . S
Co117 O123 2.052 . S
Co117 O125 2.135 . S
O118 Co117 2.061 . S
O118 C121 1.235 . S
C119 O122 1.238 . S
C119 O123 1.241 . S
C120 O113 1.247 . S
C120 O114 1.261 . S
C121 O116 1.259 . S
C121 O118 1.235 . S
O122 Co112 2.021 . S
O122 C119 1.238 . S
O123 Co117 2.052 . S
O123 C119 1.241 . S
O124 Co112 2.137 . S
O124 C115 1.247 . S
O125 Co112 2.244 . S
O125 C115 1.272 . S
O125 Co117 2.135 . S
Co126 O127 2.216 . S
Co126 O128 2.091 . S
Co126 O130 2.004 . S
Co126 O136 2.021 . S
Co126 O138 2.137 . S
Co126 O139 2.244 . S
O127 Co126 2.216 . S
O127 C134 1.247 . S
O128 Co126 2.091 . S
O128 C134 1.261 . S
C129 O138 1.247 . S
C129 O139 1.272 . S
O130 Co126 2.004 . S
O130 C135 1.259 . S
Co131 O132 2.061 . S
Co131 O137 2.052 . S
Co131 O139 2.135 . S
O132 Co131 2.061 . S
O132 C135 1.235 . S
C133 O136 1.238 . S
C133 O137 1.241 . S
C134 O127 1.247 . S
C134 O128 1.261 . S
C135 O130 1.259 . S
C135 O132 1.235 . S
O136 Co126 2.021 . S
O136 C133 1.238 . S
O137 Co131 2.052 . S
O137 C133 1.241 . S
O138 Co126 2.137 . S
O138 C129 1.247 . S
O139 Co126 2.244 . S
O139 C129 1.272 . S
O139 Co131 2.135 . S
Co140 O141 2.216 . S
Co140 O142 2.091 . S
Co140 O144 2.004 . S
Co140 O150 2.021 . S
Co140 O152 2.137 . S
Co140 O153 2.244 . S
O141 Co140 2.216 . S
O141 C148 1.247 . S
O142 Co140 2.091 . S
O142 C148 1.261 . S
C143 O152 1.247 . S
C143 O153 1.272 . S
O144 Co140 2.004 . S
O144 C149 1.259 . S
Co145 O146 2.061 . S
Co145 O151 2.052 . S
Co145 O153 2.135 . S
O146 Co145 2.061 . S
O146 C149 1.235 . S
C147 O150 1.238 . S
C147 O151 1.241 . S
C148 O141 1.247 . S
C148 O142 1.261 . S
C149 O144 1.259 . S
C149 O146 1.235 . S
O150 Co140 2.021 . S
O150 C147 1.238 . S
O151 Co145 2.052 . S
O151 C147 1.241 . S
O152 Co140 2.137 . S
O152 C143 1.247 . S
O153 Co140 2.244 . S
O153 C143 1.272 . S
O153 Co145 2.135 . S
Co154 O155 2.216 . S
Co154 O156 2.091 . S
Co154 O158 2.004 . S
Co154 O164 2.021 . S
Co154 O166 2.137 . S
Co154 O167 2.244 . S
O155 Co154 2.216 . S
O155 C162 1.247 . S
O156 Co154 2.091 . S
O156 C162 1.261 . S
C157 O166 1.247 . S
C157 O167 1.272 . S
O158 Co154 2.004 . S
O158 C163 1.259 . S
Co159 O160 2.061 . S
Co159 O165 2.052 . S
Co159 O167 2.135 . S
O160 Co159 2.061 . S
O160 C163 1.235 . S
C161 O164 1.238 . S
C161 O165 1.241 . S
C162 O155 1.247 . S
C162 O156 1.261 . S
C163 O158 1.259 . S
C163 O160 1.235 . S
O164 Co154 2.021 . S
O164 C161 1.238 . S
O165 Co159 2.052 . S
O165 C161 1.241 . S
O166 Co154 2.137 . S
O166 C157 1.247 . S
O167 Co154 2.244 . S
O167 C157 1.272 . S
O167 Co159 2.135 . S
Co168 O169 2.216 . S
Co168 O170 2.091 . S
Co168 O172 2.004 . S
Co168 O178 2.021 . S
Co168 O180 2.137 . S
Co168 O181 2.244 . S
O169 Co168 2.216 . S
O169 C176 1.247 . S
O170 Co168 2.091 . S
O170 C176 1.261 . S
C171 O180 1.247 . S
C171 O181 1.272 . S
O172 Co168 2.004 . S
O172 C177 1.259 . S
Co173 O174 2.061 . S
Co173 O179 2.052 . S
Co173 O181 2.135 . S
O174 Co173 2.061 . S
O174 C177 1.235 . S
C175 O178 1.238 . S
C175 O179 1.241 . S
C176 O169 1.247 . S
C176 O170 1.261 . S
C177 O172 1.259 . S
C177 O174 1.235 . S
O178 Co168 2.021 . S
O178 C175 1.238 . S
O179 Co173 2.052 . S
O179 C175 1.241 . S
O180 Co168 2.137 . S
O180 C171 1.247 . S
O181 Co168 2.244 . S
O181 C171 1.272 . S
O181 Co173 2.135 . S
Co182 O183 2.216 . S
Co182 O184 2.091 . S
Co182 O186 2.004 . S
Co182 O192 2.021 . S
Co182 O194 2.137 . S
Co182 O195 2.244 . S
O183 Co182 2.216 . S
O183 C190 1.247 . S
O184 Co182 2.091 . S
O184 C190 1.261 . S
C185 O194 1.247 . S
C185 O195 1.272 . S
O186 Co182 2.004 . S
O186 C191 1.259 . S
Co187 O188 2.061 . S
Co187 O193 2.052 . S
Co187 O195 2.135 . S
O188 Co187 2.061 . S
O188 C191 1.235 . S
C189 O192 1.238 . S
C189 O193 1.241 . S
C190 O183 1.247 . S
C190 O184 1.261 . S
C191 O186 1.259 . S
C191 O188 1.235 . S
O192 Co182 2.021 . S
O192 C189 1.238 . S
O193 Co187 2.052 . S
O193 C189 1.241 . S
O194 Co182 2.137 . S
O194 C185 1.247 . S
O195 Co182 2.244 . S
O195 C185 1.272 . S
O195 Co187 2.135 . S
Co196 O197 2.216 . S
Co196 O198 2.091 . S
Co196 O200 2.004 . S
Co196 O206 2.021 . S
Co196 O208 2.137 . S
Co196 O209 2.244 . S
O197 Co196 2.216 . S
O197 C204 1.247 . S
O198 Co196 2.091 . S
O198 C204 1.261 . S
C199 O208 1.247 . S
C199 O209 1.272 . S
O200 Co196 2.004 . S
O200 C205 1.259 . S
Co201 O202 2.061 . S
Co201 O207 2.052 . S
Co201 O209 2.135 . S
O202 Co201 2.061 . S
O202 C205 1.235 . S
C203 O206 1.238 . S
C203 O207 1.241 . S
C204 O197 1.247 . S
C204 O198 1.261 . S
C205 O200 1.259 . S
C205 O202 1.235 . S
O206 Co196 2.021 . S
O206 C203 1.238 . S
O207 Co201 2.052 . S
O207 C203 1.241 . S
O208 Co196 2.137 . S
O208 C199 1.247 . S
O209 Co196 2.244 . S
O209 C199 1.272 . S
O209 Co201 2.135 . S
Co210 O211 2.216 . S
Co210 O212 2.091 . S
Co210 O214 2.004 . S
Co210 O220 2.021 . S
Co210 O222 2.137 . S
Co210 O223 2.244 . S
O211 Co210 2.216 . S
O211 C218 1.247 . S
O212 Co210 2.091 . S
O212 C218 1.261 . S
C213 O222 1.247 . S
C213 O223 1.272 . S
O214 Co210 2.004 . S
O214 C219 1.259 . S
Co215 O216 2.061 . S
Co215 O221 2.052 . S
Co215 O223 2.135 . S
O216 Co215 2.061 . S
O216 C219 1.235 . S
C217 O220 1.238 . S
C217 O221 1.241 . S
C218 O211 1.247 . S
C218 O212 1.261 . S
C219 O214 1.259 . S
C219 O216 1.235 . S
O220 Co210 2.021 . S
O220 C217 1.238 . S
O221 Co215 2.052 . S
O221 C217 1.241 . S
O222 Co210 2.137 . S
O222 C213 1.247 . S
O223 Co210 2.244 . S
O223 C213 1.272 . S
O223 Co215 2.135 . S
Co224 O225 2.216 . S
Co224 O226 2.091 . S
Co224 O228 2.004 . S
Co224 O234 2.021 . S
Co224 O236 2.137 . S
Co224 O237 2.244 . S
O225 Co224 2.216 . S
O225 C232 1.247 . S
O226 Co224 2.091 . S
O226 C232 1.261 . S
C227 O236 1.247 . S
C227 O237 1.272 . S
O228 Co224 2.004 . S
O228 C233 1.259 . S
Co229 O230 2.061 1_655 S
Co229 O235 2.052 1_655 S
Co229 O237 2.135 1_655 S
O230 Co229 2.061 1_455 S
O230 C233 1.235 . S
C231 O234 1.238 . S
C231 O235 1.241 . S
C232 O225 1.247 . S
C232 O226 1.261 . S
C233 O228 1.259 . S
C233 O230 1.235 . S
O234 Co224 2.021 . S
O234 C231 1.238 . S
O235 Co229 2.052 1_455 S
O235 C231 1.241 . S
O236 Co224 2.137 . S
O236 C227 1.247 . S
O237 Co224 2.244 . S
O237 C227 1.272 . S
O237 Co229 2.135 1_455 S
Co238 O239 2.216 . S
Co238 O240 2.091 . S
Co238 O242 2.004 . S
Co238 O248 2.021 . S
Co238 O250 2.137 . S
Co238 O251 2.244 . S
O239 Co238 2.216 . S
O239 C246 1.247 . S
O240 Co238 2.091 . S
O240 C246 1.261 . S
C241 O250 1.247 . S
C241 O251 1.272 . S
O242 Co238 2.004 . S
O242 C247 1.259 . S
Co243 O244 2.061 . S
Co243 O249 2.052 . S
Co243 O251 2.135 . S
O244 Co243 2.061 . S
O244 C247 1.235 . S
C245 O248 1.238 . S
C245 O249 1.241 . S
C246 O239 1.247 . S
C246 O240 1.261 . S
C247 O242 1.259 . S
C247 O244 1.235 . S
O248 Co238 2.021 . S
O248 C245 1.238 . S
O249 Co243 2.052 . S
O249 C245 1.241 . S
O250 Co238 2.137 . S
O250 C241 1.247 . S
O251 Co238 2.244 . S
O251 C241 1.272 . S
O251 Co243 2.135 . S
C252 C253 1.387 . S
C252 H256 0.950 1_455 S
C252 C261 1.390 . S
C253 C252 1.387 . S
C253 C255 1.387 . S
H254 C261 0.950 . S
C255 C253 1.387 . S
C255 C257 1.390 . S
C255 H259 0.950 . S
H256 C252 0.950 1_655 S
C257 C255 1.390 . S
C257 C258 1.387 . S
C257 H260 0.950 . S
C258 C257 1.387 . S
C258 C261 1.387 . S
H259 C255 0.950 . S
H260 C257 0.950 . S
C261 C252 1.390 . S
C261 H254 0.950 . S
C261 C258 1.387 . S
C262 C263 1.387 . S
C262 H266 0.950 . S
C262 C271 1.390 . S
C263 C262 1.387 . S
C263 C265 1.387 . S
H264 C271 0.950 . S
C265 C263 1.387 . S
C265 C267 1.390 . S
C265 H269 0.950 . S
H266 C262 0.950 . S
C267 C265 1.390 . S
C267 C268 1.387 . S
C267 H270 0.950 . S
C268 C267 1.387 . S
C268 C271 1.387 . S
H269 C265 0.950 . S
H270 C267 0.950 . S
C271 C262 1.390 . S
C271 H264 0.950 . S
C271 C268 1.387 . S
C272 C273 1.387 1_545 S
C272 H276 0.950 . S
C272 C281 1.390 1_545 S
C273 C272 1.387 1_565 S
C273 C275 1.387 . S
H274 C281 0.950 1_545 S
C275 C273 1.387 . S
C275 C277 1.390 . S
C275 H279 0.950 . S
H276 C272 0.950 . S
C277 C275 1.390 . S
C277 C278 1.387 . S
C277 H280 0.950 . S
C278 C277 1.387 . S
C278 C281 1.387 . S
H279 C275 0.950 . S
H280 C277 0.950 . S
C281 C272 1.390 1_565 S
C281 H274 0.950 1_565 S
C281 C278 1.387 . S
C282 C283 1.387 . S
C282 H286 0.950 . S
C282 C291 1.390 . S
C283 C282 1.387 . S
C283 C285 1.387 . S
H284 C291 0.950 . S
C285 C283 1.387 . S
C285 C287 1.390 . S
C285 H289 0.950 . S
H286 C282 0.950 . S
C287 C285 1.390 . S
C287 C288 1.387 . S
C287 H290 0.950 1_545 S
C288 C287 1.387 . S
C288 C291 1.387 . S
H289 C285 0.950 . S
H290 C287 0.950 1_565 S
C291 C282 1.390 . S
C291 H284 0.950 . S
C291 C288 1.387 . S
C292 C293 1.387 . S
C292 H296 0.950 1_655 S
C292 C301 1.390 1_655 S
C293 C292 1.387 . S
C293 C295 1.387 . S
H294 C301 0.950 . S
C295 C293 1.387 . S
C295 C297 1.390 . S
C295 H299 0.950 . S
H296 C292 0.950 1_455 S
C297 C295 1.390 . S
C297 C298 1.387 . S
C297 H300 0.950 . S
C298 C297 1.387 . S
C298 C301 1.387 1_655 S
H299 C295 0.950 . S
H300 C297 0.950 . S
C301 C292 1.390 1_455 S
C301 H294 0.950 . S
C301 C298 1.387 1_455 S
C302 C303 1.387 . S
C302 H306 0.950 . S
C302 C311 1.390 . S
C303 C302 1.387 . S
C303 C305 1.387 . S
H304 C311 0.950 . S
C305 C303 1.387 . S
C305 C307 1.390 . S
C305 H309 0.950 . S
H306 C302 0.950 . S
C307 C305 1.390 . S
C307 C308 1.387 . S
C307 H310 0.950 . S
C308 C307 1.387 . S
C308 C311 1.387 . S
H309 C305 0.950 . S
H310 C307 0.950 . S
C311 C302 1.390 . S
C311 H304 0.950 . S
C311 C308 1.387 . S
C312 C313 1.387 . S
C312 H316 0.950 . S
C312 C321 1.390 . S
C313 C312 1.387 . S
C313 C315 1.387 . S
H314 C321 0.950 . S
C315 C313 1.387 . S
C315 C317 1.390 . S
C315 H319 0.950 . S
H316 C312 0.950 . S
C317 C315 1.390 . S
C317 C318 1.387 . S
C317 H320 0.950 . S
C318 C317 1.387 . S
C318 C321 1.387 . S
H319 C315 0.950 . S
H320 C317 0.950 . S
C321 C312 1.390 . S
C321 H314 0.950 . S
C321 C318 1.387 . S
C322 C323 1.387 . S
C322 H326 0.950 . S
C322 C331 1.390 . S
C323 C322 1.387 . S
C323 C325 1.387 . S
H324 C331 0.950 . S
C325 C323 1.387 . S
C325 C327 1.390 . S
C325 H329 0.950 . S
H326 C322 0.950 . S
C327 C325 1.390 . S
C327 C328 1.387 . S
C327 H330 0.950 . S
C328 C327 1.387 . S
C328 C331 1.387 . S
H329 C325 0.950 . S
H330 C327 0.950 . S
C331 C322 1.390 . S
C331 H324 0.950 . S
C331 C328 1.387 . S
C332 C333 1.387 . S
C332 H336 0.950 1_545 S
C332 C341 1.390 . S
C333 C332 1.387 . S
C333 C335 1.387 . S
H334 C341 0.950 1_565 S
C335 C333 1.387 . S
C335 C337 1.390 . S
C335 H339 0.950 . S
H336 C332 0.950 1_565 S
C337 C335 1.390 . S
C337 C338 1.387 . S
C337 H340 0.950 . S
C338 C337 1.387 . S
C338 C341 1.387 . S
H339 C335 0.950 . S
H340 C337 0.950 . S
C341 C332 1.390 . S
C341 H334 0.950 1_545 S
C341 C338 1.387 . S
C342 C343 1.387 . S
C342 H346 0.950 . S
C342 C351 1.390 . S
C343 C342 1.387 . S
C343 C345 1.387 . S
H344 C351 0.950 . S
C345 C343 1.387 . S
C345 C347 1.390 . S
C345 H349 0.950 . S
H346 C342 0.950 . S
C347 C345 1.390 . S
C347 C348 1.387 . S
C347 H350 0.950 . S
C348 C347 1.387 . S
C348 C351 1.387 . S
H349 C345 0.950 . S
H350 C347 0.950 . S
C351 C342 1.390 . S
C351 H344 0.950 . S
C351 C348 1.387 . S
C352 C353 1.387 . S
C352 H356 0.950 1_455 S
C352 C361 1.390 . S
C353 C352 1.387 . S
C353 C355 1.387 . S
H354 C361 0.950 1_655 S
C355 C353 1.387 . S
C355 C357 1.390 . S
C355 H359 0.950 . S
H356 C352 0.950 1_655 S
C357 C355 1.390 . S
C357 C358 1.387 . S
C357 H360 0.950 . S
C358 C357 1.387 . S
C358 C361 1.387 . S
H359 C355 0.950 . S
H360 C357 0.950 . S
C361 C352 1.390 . S
C361 H354 0.950 1_455 S
C361 C358 1.387 . S
C362 C363 1.387 . S
C362 H366 0.950 . S
C362 C371 1.390 . S
C363 C362 1.387 . S
C363 C365 1.387 . S
H364 C371 0.950 . S
C365 C363 1.387 . S
C365 C367 1.390 . S
C365 H369 0.950 . S
H366 C362 0.950 . S
C367 C365 1.390 . S
C367 C368 1.387 . S
C367 H370 0.950 . S
C368 C367 1.387 . S
C368 C371 1.387 . S
H369 C365 0.950 . S
H370 C367 0.950 . S
C371 C362 1.390 . S
C371 H364 0.950 . S
C371 C368 1.387 . S
C372 C373 1.387 . S
C372 H376 0.950 . S
C372 C381 1.390 . S
C373 C372 1.387 . S
C373 C375 1.387 . S
H374 C381 0.950 . S
C375 C373 1.387 . S
C375 C377 1.390 . S
C375 H379 0.950 . S
H376 C372 0.950 . S
C377 C375 1.390 . S
C377 C378 1.387 . S
C377 H380 0.950 . S
C378 C377 1.387 . S
C378 C381 1.387 . S
H379 C375 0.950 . S
H380 C377 0.950 . S
C381 C372 1.390 . S
C381 H374 0.950 . S
C381 C378 1.387 . S
C382 C383 1.387 . S
C382 H386 0.950 . S
C382 C391 1.390 . S
C383 C382 1.387 . S
C383 C385 1.387 1_545 S
H384 C391 0.950 . S
C385 C383 1.387 1_565 S
C385 C387 1.390 . S
C385 H389 0.950 . S
H386 C382 0.950 . S
C387 C385 1.390 . S
C387 C388 1.387 . S
C387 H390 0.950 . S
C388 C387 1.387 . S
C388 C391 1.387 1_565 S
H389 C385 0.950 . S
H390 C387 0.950 . S
C391 C382 1.390 . S
C391 H384 0.950 . S
C391 C388 1.387 1_545 S
C392 C393 1.387 . S
C392 H396 0.950 . S
C392 C401 1.390 1_455 S
C393 C392 1.387 . S
C393 C395 1.387 . S
H394 C401 0.950 . S
C395 C393 1.387 . S
C395 C397 1.390 . S
C395 H399 0.950 . S
H396 C392 0.950 . S
C397 C395 1.390 . S
C397 C398 1.387 1_455 S
C397 H400 0.950 . S
C398 C397 1.387 1_655 S
C398 C401 1.387 . S
H399 C395 0.950 . S
H400 C397 0.950 . S
C401 C392 1.390 1_655 S
C401 H394 0.950 . S
C401 C398 1.387 . S
C402 C403 1.387 . S
C402 H406 0.950 . S
C402 C411 1.390 . S
C403 C402 1.387 . S
C403 C405 1.387 . S
H404 C411 0.950 . S
C405 C403 1.387 . S
C405 C407 1.390 . S
C405 H409 0.950 . S
H406 C402 0.950 . S
C407 C405 1.390 . S
C407 C408 1.387 . S
C407 H410 0.950 . S
C408 C407 1.387 . S
C408 C411 1.387 . S
H409 C405 0.950 . S
H410 C407 0.950 . S
C411 C402 1.390 . S
C411 H404 0.950 . S
C411 C408 1.387 . S
C412 C413 1.387 . S
C412 H416 0.950 . S
C412 C421 1.390 1_545 S
C413 C412 1.387 . S
C413 C415 1.387 . S
H414 C421 0.950 . S
C415 C413 1.387 . S
C415 C417 1.390 1_545 S
C415 H419 0.950 . S
H416 C412 0.950 . S
C417 C415 1.390 1_565 S
C417 C418 1.387 . S
C417 H420 0.950 . S
C418 C417 1.387 . S
C418 C421 1.387 . S
H419 C415 0.950 . S
H420 C417 0.950 . S
C421 C412 1.390 1_565 S
C421 H414 0.950 . S
C421 C418 1.387 . S
C422 C423 1.387 . S
C422 H426 0.950 . S
C422 C431 1.390 . S
C423 C422 1.387 . S
C423 C425 1.387 . S
H424 C431 0.950 . S
C425 C423 1.387 . S
C425 C427 1.390 1_455 S
C425 H429 0.950 . S
H426 C422 0.950 . S
C427 C425 1.390 1_655 S
C427 C428 1.387 . S
C427 H430 0.950 . S
C428 C427 1.387 . S
C428 C431 1.387 1_655 S
H429 C425 0.950 . S
H430 C427 0.950 . S
C431 C422 1.390 . S
C431 H424 0.950 . S
C431 C428 1.387 1_455 S
C432 C433 1.387 . S
C432 H436 0.950 . S
C432 C441 1.390 . S
C433 C432 1.387 . S
C433 C435 1.387 . S
H434 C441 0.950 . S
C435 C433 1.387 . S
C435 C437 1.390 . S
C435 H439 0.950 . S
H436 C432 0.950 . S
C437 C435 1.390 . S
C437 C438 1.387 . S
C437 H440 0.950 . S
C438 C437 1.387 . S
C438 C441 1.387 . S
H439 C435 0.950 . S
H440 C437 0.950 . S
C441 C432 1.390 . S
C441 H434 0.950 . S
C441 C438 1.387 . S
C442 C443 1.387 . S
C442 H446 0.950 . S
C442 C451 1.390 . S
C443 C442 1.387 . S
C443 C445 1.387 . S
H444 C451 0.950 . S
C445 C443 1.387 . S
C445 C447 1.390 . S
C445 H449 0.950 . S
H446 C442 0.950 . S
C447 C445 1.390 . S
C447 C448 1.387 . S
C447 H450 0.950 . S
C448 C447 1.387 . S
C448 C451 1.387 . S
H449 C445 0.950 . S
H450 C447 0.950 . S
C451 C442 1.390 . S
C451 H444 0.950 . S
C451 C448 1.387 . S
C452 C453 1.387 . S
C452 H456 0.950 . S
C452 C461 1.390 . S
C453 C452 1.387 . S
C453 C455 1.387 . S
H454 C461 0.950 . S
C455 C453 1.387 . S
C455 C457 1.390 . S
C455 H459 0.950 . S
H456 C452 0.950 . S
C457 C455 1.390 . S
C457 C458 1.387 . S
C457 H460 0.950 . S
C458 C457 1.387 . S
C458 C461 1.387 . S
H459 C455 0.950 . S
H460 C457 0.950 . S
C461 C452 1.390 . S
C461 H454 0.950 . S
C461 C458 1.387 . S
C462 C463 1.387 . S
C462 H466 0.950 . S
C462 C471 1.390 . S
C463 C462 1.387 . S
C463 C465 1.387 . S
H464 C471 0.950 . S
C465 C463 1.387 . S
C465 C467 1.390 . S
C465 H469 0.950 . S
H466 C462 0.950 . S
C467 C465 1.390 . S
C467 C468 1.387 . S
C467 H470 0.950 . S
C468 C467 1.387 . S
C468 C471 1.387 . S
H469 C465 0.950 . S
H470 C467 0.950 . S
C471 C462 1.390 . S
C471 H464 0.950 . S
C471 C468 1.387 . S
C472 C473 1.387 . S
C472 H476 0.950 . S
C472 C481 1.390 . S
C473 C472 1.387 . S
C473 C475 1.387 . S
H474 C481 0.950 . S
C475 C473 1.387 . S
C475 C477 1.390 . S
C475 H479 0.950 . S
H476 C472 0.950 . S
C477 C475 1.390 . S
C477 C478 1.387 . S
C477 H480 0.950 . S
C478 C477 1.387 . S
C478 C481 1.387 . S
H479 C475 0.950 . S
H480 C477 0.950 . S
C481 C472 1.390 . S
C481 H474 0.950 . S
C481 C478 1.387 . S
C482 C483 1.387 . S
C482 H486 0.950 . S
C482 C491 1.390 . S
C483 C482 1.387 . S
C483 C485 1.387 . S
H484 C491 0.950 . S
C485 C483 1.387 . S
C485 C487 1.390 . S
C485 H489 0.950 . S
H486 C482 0.950 . S
C487 C485 1.390 . S
C487 C488 1.387 . S
C487 H490 0.950 . S
C488 C487 1.387 . S
C488 C491 1.387 . S
H489 C485 0.950 . S
H490 C487 0.950 . S
C491 C482 1.390 . S
C491 H484 0.950 . S
C491 C488 1.387 . S
C492 C493 1.387 . S
C492 H496 0.950 . S
C492 C501 1.390 . S
C493 C492 1.387 . S
C493 C495 1.387 . S
H494 C501 0.950 . S
C495 C493 1.387 . S
C495 C497 1.390 . S
C495 H499 0.950 . S
H496 C492 0.950 . S
C497 C495 1.390 . S
C497 C498 1.387 . S
C497 H500 0.950 . S
C498 C497 1.387 . S
C498 C501 1.387 . S
H499 C495 0.950 . S
H500 C497 0.950 . S
C501 C492 1.390 . S
C501 H494 0.950 . S
C501 C498 1.387 . S
C502 C503 1.387 . S
C502 H506 0.950 . S
C502 C511 1.390 . S
C503 C502 1.387 . S
C503 C505 1.387 . S
H504 C511 0.950 . S
C505 C503 1.387 . S
C505 C507 1.390 . S
C505 H509 0.950 . S
H506 C502 0.950 . S
C507 C505 1.390 . S
C507 C508 1.387 . S
C507 H510 0.950 . S
C508 C507 1.387 . S
C508 C511 1.387 . S
H509 C505 0.950 . S
H510 C507 0.950 . S
C511 C502 1.390 . S
C511 H504 0.950 . S
C511 C508 1.387 . S
C512 C513 1.387 . S
C512 H516 0.950 . S
C512 C521 1.390 . S
C513 C512 1.387 . S
C513 C515 1.387 . S
H514 C521 0.950 . S
C515 C513 1.387 . S
C515 C517 1.390 . S
C515 H519 0.950 . S
H516 C512 0.950 . S
C517 C515 1.390 . S
C517 C518 1.387 . S
C517 H520 0.950 . S
C518 C517 1.387 . S
C518 C521 1.387 . S
H519 C515 0.950 . S
H520 C517 0.950 . S
C521 C512 1.390 . S
C521 H514 0.950 . S
C521 C518 1.387 . S
C522 C523 1.387 . S
C522 H526 0.950 . S
C522 C531 1.390 . S
C523 C522 1.387 . S
C523 C525 1.387 . S
H524 C531 0.950 . S
C525 C523 1.387 . S
C525 C527 1.390 . S
C525 H529 0.950 . S
H526 C522 0.950 . S
C527 C525 1.390 . S
C527 C528 1.387 . S
C527 H530 0.950 . S
C528 C527 1.387 . S
C528 C531 1.387 . S
H529 C525 0.950 . S
H530 C527 0.950 . S
C531 C522 1.390 . S
C531 H524 0.950 . S
C531 C528 1.387 . S
C532 C533 1.387 . S
C532 H536 0.950 . S
C532 C541 1.390 . S
C533 C532 1.387 . S
C533 C535 1.387 . S
H534 C541 0.950 . S
C535 C533 1.387 . S
C535 C537 1.390 . S
C535 H539 0.950 . S
H536 C532 0.950 . S
C537 C535 1.390 . S
C537 C538 1.387 . S
C537 H540 0.950 . S
C538 C537 1.387 . S
C538 C541 1.387 . S
H539 C535 0.950 . S
H540 C537 0.950 . S
C541 C532 1.390 . S
C541 H534 0.950 . S
C541 C538 1.387 . S
C542 C543 1.387 . S
C542 H546 0.950 . S
C542 C551 1.390 . S
C543 C542 1.387 . S
C543 C545 1.387 . S
H544 C551 0.950 . S
C545 C543 1.387 . S
C545 C547 1.390 . S
C545 H549 0.950 . S
H546 C542 0.950 . S
C547 C545 1.390 . S
C547 C548 1.387 . S
C547 H550 0.950 . S
C548 C547 1.387 . S
C548 C551 1.387 . S
H549 C545 0.950 . S
H550 C547 0.950 . S
C551 C542 1.390 . S
C551 H544 0.950 . S
C551 C548 1.387 . S
C552 C553 1.387 . S
C552 H556 0.950 . S
C552 C561 1.390 . S
C553 C552 1.387 . S
C553 C555 1.387 . S
H554 C561 0.950 . S
C555 C553 1.387 . S
C555 C557 1.390 . S
C555 H559 0.950 . S
H556 C552 0.950 . S
C557 C555 1.390 . S
C557 C558 1.387 . S
C557 H560 0.950 . S
C558 C557 1.387 . S
C558 C561 1.387 . S
H559 C555 0.950 . S
H560 C557 0.950 . S
C561 C552 1.390 . S
C561 H554 0.950 . S
C561 C558 1.387 . S
C562 C563 1.387 . S
C562 H566 0.950 . S
C562 C571 1.390 1_545 S
C563 C562 1.387 . S
C563 C565 1.387 . S
H564 C571 0.950 . S
C565 C563 1.387 . S
C565 C567 1.390 1_545 S
C565 H569 0.950 . S
H566 C562 0.950 . S
C567 C565 1.390 1_565 S
C567 C568 1.387 . S
C567 H570 0.950 . S
C568 C567 1.387 . S
C568 C571 1.387 . S
H569 C565 0.950 . S
H570 C567 0.950 . S
C571 C562 1.390 1_565 S
C571 H564 0.950 . S
C571 C568 1.387 . S
C572 C573 1.387 . S
C572 H576 0.950 . S
C572 C581 1.390 1_455 S
C573 C572 1.387 . S
C573 C575 1.387 . S
H574 C581 0.950 . S
C575 C573 1.387 . S
C575 C577 1.390 . S
C575 H579 0.950 . S
H576 C572 0.950 . S
C577 C575 1.390 . S
C577 C578 1.387 1_455 S
C577 H580 0.950 . S
C578 C577 1.387 1_655 S
C578 C581 1.387 . S
H579 C575 0.950 . S
H580 C577 0.950 . S
C581 C572 1.390 1_655 S
C581 H574 0.950 . S
C581 C578 1.387 . S
C582 C583 1.387 . S
C582 H586 0.950 . S
C582 C591 1.384 1_556 S
C583 C582 1.387 . S
C583 C585 1.396 . S
H584 C591 0.950 . S
C585 C583 1.396 . S
C585 C587 1.381 1_556 S
C585 H589 0.950 . S
H586 C582 0.950 . S
C587 C585 1.381 1_554 S
C587 C588 1.387 . S
C587 H590 0.950 . S
C588 C587 1.387 . S
C588 C591 1.393 . S
H589 C585 0.950 . S
H590 C587 0.950 . S
C591 C582 1.384 1_554 S
C591 H584 0.950 . S
C591 C588 1.393 . S
C592 C593 1.387 1_545 S
C592 H596 0.950 1_545 S
C592 C601 1.390 . S
C593 C592 1.387 1_565 S
C593 C595 1.387 1_556 S
H594 C601 0.950 . S
C595 C593 1.387 1_554 S
C595 C597 1.390 1_565 S
C595 H599 0.950 . S
H596 C592 0.950 1_565 S
C597 C595 1.390 1_545 S
C597 C598 1.387 . S
C597 H600 0.950 . S
C598 C597 1.387 . S
C598 C601 1.387 1_554 S
H599 C595 0.950 . S
H600 C597 0.950 . S
C601 C592 1.390 . S
C601 H594 0.950 . S
C601 C598 1.387 1_556 S
C602 C603 1.387 1_554 S
C602 H606 0.950 . S
C602 C611 1.390 . S
C603 C602 1.387 1_556 S
C603 C605 1.387 . S
H604 C611 0.951 . S
C605 C603 1.387 . S
C605 C607 1.390 1_455 S
C605 H609 0.950 . S
H606 C602 0.950 . S
C607 C605 1.390 1_655 S
C607 C608 1.387 1_556 S
C607 H610 0.950 . S
C608 C607 1.387 1_554 S
C608 C611 1.387 1_655 S
H609 C605 0.950 . S
H610 C607 0.950 . S
C611 C602 1.390 . S
C611 H604 0.951 . S
C611 C608 1.387 1_455 S
C253 C7 1.257 . S
C258 C203 1.258 1_554 S
C263 C171 1.225 1_554 S
C268 C17 1.225 . S
C273 C31 1.247 . S
C278 C189 1.239 1_554 S
C283 C91 1.255 . S
C288 C35 1.256 . S
C293 C105 1.240 . S
C298 C3 1.248 . S
C303 C119 1.253 . S
C308 C21 1.254 . S
C313 C49 1.258 . S
C318 C161 1.257 1_556 S
C323 C133 1.245 1_556 S
C328 C59 1.252 . S
C333 C147 1.243 1_556 S
C338 C73 1.249 . S
C343 C77 1.259 . S
C348 C217 1.258 . S
C353 C45 1.225 . S
C358 C227 1.225 . S
C363 C241 1.245 . S
C368 C63 1.240 . S
C373 C175 1.236 . S
C378 C115 1.245 . S
C383 C87 1.232 . S
C388 C185 1.231 . S
C393 C199 1.228 . S
C398 C101 1.228 . S
C403 C245 1.235 . S
C408 C129 1.241 . S
C413 C143 1.227 . S
C418 C213 1.227 . S
C423 C231 1.235 . S
C428 C157 1.241 . S
C433 C219 1.684 . S
C438 C9 1.680 . S
C443 C22 1.795 . S
C448 C232 1.798 . S
C453 C36 1.861 . S
C458 C246 1.864 . S
C463 C37 1.698 . S
C468 C163 1.693 . S
C473 C135 1.694 . S
C478 C8 1.857 . S
C483 C23 1.624 . S
C488 C149 1.627 . S
C493 C93 1.644 . S
C498 C51 1.650 . S
C503 C107 1.642 . S
C508 C64 1.798 . S
C513 C78 1.888 . S
C518 C121 1.712 . S
C523 C79 1.698 . S
C528 C205 1.702 . S
C533 C50 1.817 . S
C538 C176 1.820 . S
C543 C65 1.643 . S
C548 C191 1.648 . S
C553 C120 1.868 . S
C558 C247 1.701 . S
C563 C92 1.859 . S
C568 C218 1.855 . S
C573 C233 1.625 . S
C578 C106 1.782 . S
C583 C177 1.649 . S
C588 C134 1.807 . S
C593 C190 1.794 . S
C598 C148 1.796 . S
C603 C204 1.887 . S
C608 C162 1.885 . S
