# Generated by pormake.
# Topology npo, (4)-cn, num edge types: 1
# Building blocks:
#     Node 0, Type 0, BuildingBlock: NAHDIM_clean_sbu_0, # of connection points: 4
#     Node 1, Type 0, BuildingBlock: NAHDIM_clean_sbu_0, # of connection points: 4
#     Node 2, Type 0, BuildingBlock: NAHDIM_clean_sbu_0, # of connection points: 4
#     Node 3, Type 0, BuildingBlock: NAHDIM_clean_sbu_0, # of connection points: 4
#     Node 4, Type 0, BuildingBlock: NAHDIM_clean_sbu_0, # of connection points: 4
#     Node 5, Type 0, BuildingBlock: NAHDIM_clean_sbu_0, # of connection points: 4
#     Edge 6, Type (0, 0), BuildingBlock: FUNLAD_clean_linker_1, # of connection points: 2
#     Edge 7, Type (0, 0), BuildingBlock: FUNLAD_clean_linker_1, # of connection points: 2
#     Edge 8, Type (0, 0), BuildingBlock: FUNLAD_clean_linker_1, # of connection points: 2
#     Edge 9, Type (0, 0), BuildingBlock: FUNLAD_clean_linker_1, # of connection points: 2
#     Edge 10, Type (0, 0), BuildingBlock: FUNLAD_clean_linker_1, # of connection points: 2
#     Edge 11, Type (0, 0), BuildingBlock: FUNLAD_clean_linker_1, # of connection points: 2
#     Edge 12, Type (0, 0), BuildingBlock: FUNLAD_clean_linker_1, # of connection points: 2
#     Edge 13, Type (0, 0), BuildingBlock: FUNLAD_clean_linker_1, # of connection points: 2
#     Edge 14, Type (0, 0), BuildingBlock: FUNLAD_clean_linker_1, # of connection points: 2
#     Edge 15, Type (0, 0), BuildingBlock: FUNLAD_clean_linker_1, # of connection points: 2
#     Edge 16, Type (0, 0), BuildingBlock: FUNLAD_clean_linker_1, # of connection points: 2
#     Edge 17, Type (0, 0), BuildingBlock: FUNLAD_clean_linker_1, # of connection points: 2
# Relax obj value: 0.248
# Max RMSD: 0.224
# Mean RMSD: 0.223
data_MOF--net-npo--node1-NAHDIM_clean_sbu_0--edge1-FUNLAD_clean_linker_1
_symmetry_space_group_name_H-M    P1
_symmetry_Int_Tables_number       1
_symmetry_cell_setting            triclinic
loop_
_symmetry_equiv_pos_as_xyz
'x, y, z'
_cell_length_a     42.694731
_cell_length_b     44.750816
_cell_length_c     26.09289
_cell_angle_alpha  92.239372
_cell_angle_beta   90.25857
_cell_angle_gamma 118.38988
loop_
_atom_site_label
_atom_site_type_symbol
_atom_site_fract_x
_atom_site_fract_y
_atom_site_fract_z
_atom_type_partial_charge
C0 C 0.52311 0.04952 0.30747 0.0
O1 O 0.53436 0.04379 0.26335 0.0
O2 O 0.59445 0.1371 0.26615 0.0
Zn3 Zn 0.5409 0.1124 0.26269 0.0
O4 O 0.52274 0.08881 0.19343 0.0
C5 C 0.54093 0.17415 0.24898 0.0
O6 O 0.56394 0.17532 0.21475 0.0
O7 O 0.52276 0.0775 0.31632 0.0
C8 C 0.54296 0.08468 0.1617 0.0
O9 O 0.577 0.09712 0.1732 0.0
C10 C 0.61259 0.13806 0.30553 0.0
O11 O 0.59636 0.12085 0.34548 0.0
O12 O 0.52537 0.14798 0.27533 0.0
C13 C 0.41223 0.50524 0.61442 0.0
O14 O 0.38652 0.48198 0.64036 0.0
O15 O 0.36887 0.52298 0.71825 0.0
Zn16 Zn 0.42146 0.5472 0.70556 0.0
O17 O 0.44756 0.53325 0.75567 0.0
C18 C 0.42208 0.60867 0.74204 0.0
O19 O 0.39541 0.58707 0.76854 0.0
O20 O 0.43052 0.53509 0.63435 0.0
C21 C 0.46179 0.55013 0.79724 0.0
O22 O 0.45969 0.57792 0.80895 0.0
C23 C 0.35255 0.49622 0.74323 0.0
O24 O 0.37004 0.48139 0.76165 0.0
O25 O 0.43841 0.59778 0.71245 0.0
C26 C 0.96842 0.43141 0.33853 0.0
O27 O 0.97729 0.42637 0.29216 0.0
O28 O 0.87717 0.4477 0.30633 0.0
Zn29 Zn 0.90287 0.42092 0.28851 0.0
O30 O 0.92909 0.43697 0.22278 0.0
C31 C 0.83514 0.36498 0.26356 0.0
O32 O 0.83046 0.38978 0.24638 0.0
O33 O 0.93803 0.42934 0.34566 0.0
C34 C 0.91595 0.42494 0.17828 0.0
O35 O 0.88355 0.39938 0.1729 0.0
C36 C 0.87468 0.46837 0.27674 0.0
O37 O 0.89153 0.47507 0.23324 0.0
O38 O 0.86531 0.37152 0.28271 0.0
C39 C 0.45714 0.91488 0.6385 0.0
O40 O 0.47749 0.90083 0.64674 0.0
O41 O 0.44539 0.85457 0.732 0.0
Zn42 Zn 0.43096 0.89127 0.73879 0.0
O43 O 0.46139 0.92689 0.79231 0.0
C44 C 0.35626 0.8499 0.72617 0.0
O45 O 0.36575 0.84804 0.67879 0.0
O46 O 0.43519 0.91361 0.67207 0.0
C47 C 0.4543 0.9223 0.83941 0.0
O48 O 0.42726 0.89376 0.85301 0.0
C49 C 0.47624 0.8584 0.74241 0.0
O50 O 0.50193 0.88849 0.75755 0.0
O51 O 0.37988 0.86841 0.75968 0.0
C52 C 0.5734 0.4961 0.10847 0.0
O53 O 0.59624 0.48503 0.09762 0.0
O54 O 0.63642 0.50285 0.21164 0.0
Zn55 Zn 0.58306 0.48156 0.21266 0.0
O56 O 0.56733 0.49408 0.2786 0.0
C57 C 0.55839 0.41314 0.24506 0.0
O58 O 0.56264 0.42775 0.29107 0.0
O59 O 0.56429 0.49692 0.15448 0.0
C60 C 0.53437 0.48421 0.28379 0.0
O61 O 0.51181 0.46641 0.24616 0.0
C62 C 0.65245 0.50062 0.2512 0.0
O63 O 0.63412 0.48711 0.29212 0.0
O64 O 0.56426 0.4308 0.20581 0.0
C65 C 0.03299 0.54206 0.84607 0.0
O66 O 0.02199 0.54959 0.80385 0.0
O67 O 0.13731 0.55226 0.80266 0.0
Zn68 Zn 0.09901 0.56545 0.79308 0.0
O69 O 0.07334 0.54413 0.7261 0.0
C70 C 0.11756 0.63224 0.75618 0.0
O71 O 0.09283 0.61517 0.72076 0.0
O72 O 0.06503 0.54777 0.85042 0.0
C73 C 0.09033 0.54197 0.68759 0.0
O74 O 0.12503 0.55433 0.69136 0.0
C75 C 0.1312 0.52162 0.79771 0.0
O76 O 0.09857 0.49726 0.78778 0.0
O77 O 0.12318 0.61643 0.79148 0.0
H78 H 0.51625 0.20211 0.28838 0.0
C79 C 0.535 0.20369 0.25919 0.0
H80 H 0.57327 0.23502 0.20728 0.0
H81 H 0.48425 0.32107 0.24426 0.0
H82 H 0.43428 0.2728 0.20106 0.0
H83 H 0.43737 0.22026 0.1782 0.0
H84 H 0.49018 0.21549 0.19896 0.0
C85 C 0.5534 0.23275 0.23498 0.0
C86 C 0.55076 0.26395 0.24916 0.0
C87 C 0.51988 0.26645 0.23574 0.0
C88 C 0.51855 0.29715 0.24731 0.0
C89 C 0.48705 0.29871 0.23493 0.0
C90 C 0.45812 0.27113 0.21039 0.0
C91 C 0.45982 0.24152 0.19765 0.0
C92 C 0.49027 0.23907 0.21 0.0
H93 H 0.54962 0.36707 0.19976 0.0
C94 C 0.55095 0.3775 0.23854 0.0
H95 H 0.5516 0.36939 0.31766 0.0
H96 H 0.61335 0.26703 0.28201 0.0
H97 H 0.66356 0.31568 0.32393 0.0
H98 H 0.66156 0.36913 0.34275 0.0
H99 H 0.6097 0.37462 0.31889 0.0
C100 C 0.54882 0.35879 0.27869 0.0
C101 C 0.54844 0.32552 0.27092 0.0
C102 C 0.57896 0.32273 0.28543 0.0
C103 C 0.58015 0.29193 0.27442 0.0
C104 C 0.61109 0.28991 0.28903 0.0
C105 C 0.64005 0.31757 0.31336 0.0
C106 C 0.63893 0.34768 0.32396 0.0
C107 C 0.60892 0.35045 0.31005 0.0
H108 H 0.30127 0.46059 0.77667 0.0
C109 C 0.31458 0.48321 0.75459 0.0
H110 H 0.30992 0.52215 0.71773 0.0
H111 H 0.14642 0.46034 0.69165 0.0
H112 H 0.16093 0.44999 0.60529 0.0
H113 H 0.22044 0.45661 0.58647 0.0
H114 H 0.26591 0.47392 0.65398 0.0
C115 C 0.29704 0.49995 0.74079 0.0
C116 C 0.25957 0.48907 0.75466 0.0
C117 C 0.23299 0.4779 0.71519 0.0
C118 C 0.19856 0.47362 0.72618 0.0
C119 C 0.17293 0.46372 0.68559 0.0
C120 C 0.1809 0.45767 0.6358 0.0
C121 C 0.21441 0.46144 0.62519 0.0
C122 C 0.24028 0.47148 0.66424 0.0
H123 H 0.188 0.53632 0.80394 0.0
C124 C 0.16158 0.51472 0.79751 0.0
H125 H 0.13232 0.46224 0.77695 0.0
H126 H 0.30393 0.50966 0.84037 0.0
H127 H 0.28786 0.51597 0.92742 0.0
H128 H 0.22678 0.50457 0.94702 0.0
H129 H 0.18158 0.48737 0.87906 0.0
C130 C 0.15833 0.48389 0.78564 0.0
C131 C 0.19087 0.48045 0.7767 0.0
C132 C 0.21633 0.48841 0.81704 0.0
C133 C 0.25105 0.49352 0.80595 0.0
C134 C 0.27675 0.50416 0.84657 0.0
C135 C 0.26793 0.50807 0.89683 0.0
C136 C 0.23358 0.50176 0.90785 0.0
C137 C 0.20799 0.4921 0.86855 0.0
H138 H 0.66491 0.16498 0.34587 0.0
C139 C 0.6509 0.16238 0.30971 0.0
H140 H 0.65409 0.18152 0.23596 0.0
H141 H 0.77341 0.32031 0.35811 0.0
H142 H 0.7232 0.31894 0.40328 0.0
H143 H 0.66319 0.26969 0.39157 0.0
H144 H 0.65313 0.22147 0.33546 0.0
C145 C 0.66754 0.18391 0.27253 0.0
C146 C 0.70375 0.21316 0.28098 0.0
C147 C 0.70873 0.24159 0.31287 0.0
C148 C 0.74291 0.27062 0.31779 0.0
C149 C 0.74764 0.29815 0.35147 0.0
C150 C 0.71913 0.2976 0.37792 0.0
C151 C 0.68539 0.26982 0.37148 0.0
C152 C 0.68005 0.24216 0.33927 0.0
H153 H 0.77959 0.3273 0.24624 0.0
C154 C 0.80445 0.33071 0.26327 0.0
H155 H 0.82947 0.30695 0.30275 0.0
H156 H 0.70357 0.16205 0.21988 0.0
H157 H 0.75387 0.16388 0.17413 0.0
H158 H 0.81275 0.21513 0.18047 0.0
H159 H 0.82177 0.26486 0.23281 0.0
C160 C 0.805 0.30457 0.28599 0.0
C161 C 0.7715 0.27189 0.28876 0.0
C162 C 0.76689 0.24301 0.25865 0.0
C163 C 0.7329 0.21357 0.25471 0.0
C164 C 0.72881 0.18515 0.22388 0.0
C165 C 0.75745 0.18585 0.19751 0.0
C166 C 0.79061 0.21471 0.2011 0.0
C167 C 0.79542 0.24307 0.23119 0.0
H168 H 0.50977 0.83309 0.74704 0.0
C169 C 0.48295 0.82896 0.73912 0.0
H170 H 0.42978 0.79306 0.71921 0.0
H171 H 0.45182 0.67516 0.62388 0.0
H172 H 0.44149 0.69817 0.54689 0.0
H173 H 0.44125 0.75323 0.55057 0.0
H174 H 0.45111 0.78551 0.63142 0.0
C175 C 0.45649 0.7973 0.72841 0.0
C176 C 0.46238 0.7671 0.7257 0.0
C177 C 0.45743 0.74894 0.678 0.0
C178 C 0.4581 0.71745 0.67577 0.0
C179 C 0.45195 0.69936 0.6278 0.0
C180 C 0.44597 0.71228 0.58325 0.0
C181 C 0.4458 0.74326 0.58532 0.0
C182 C 0.45139 0.76147 0.63202 0.0
H183 H 0.41473 0.65198 0.76894 0.0
C184 C 0.4314 0.64487 0.7456 0.0
H185 H 0.47476 0.66206 0.69564 0.0
H186 H 0.4729 0.79527 0.82396 0.0
H187 H 0.48772 0.77435 0.89953 0.0
H188 H 0.49364 0.7221 0.89409 0.0
H189 H 0.48395 0.69009 0.81295 0.0
C190 C 0.45845 0.66884 0.72029 0.0
C191 C 0.46389 0.7043 0.72128 0.0
C192 C 0.47171 0.7238 0.76828 0.0
C193 C 0.47005 0.75482 0.77084 0.0
C194 C 0.47523 0.77233 0.81915 0.0
C195 C 0.48357 0.76048 0.86302 0.0
C196 C 0.48677 0.731 0.86 0.0
C197 C 0.48091 0.71276 0.81331 0.0
H198 H 0.70364 0.51775 0.21247 0.0
C199 C 0.68989 0.50812 0.24794 0.0
H200 H 0.69159 0.48817 0.31934 0.0
H201 H 0.79148 0.43137 0.22883 0.0
H202 H 0.73424 0.38055 0.21993 0.0
H203 H 0.67863 0.38304 0.23584 0.0
H204 H 0.67997 0.43624 0.26194 0.0
C205 C 0.70568 0.49948 0.28482 0.0
C206 C 0.73943 0.49856 0.27523 0.0
C207 C 0.73813 0.46701 0.26157 0.0
C208 C 0.77017 0.46556 0.25266 0.0
C209 C 0.76805 0.43389 0.23733 0.0
C210 C 0.73532 0.4045 0.23172 0.0
C211 C 0.70401 0.40589 0.2408 0.0
C212 C 0.70521 0.43665 0.25567 0.0
H213 H 0.83288 0.47109 0.32248 0.0
C214 C 0.84755 0.47904 0.28724 0.0
H215 H 0.85083 0.5015 0.21615 0.0
H216 H 0.75091 0.56296 0.30022 0.0
H217 H 0.80824 0.61417 0.30736 0.0
H218 H 0.86395 0.61162 0.29208 0.0
H219 H 0.86269 0.55782 0.2696 0.0
C220 C 0.83694 0.49358 0.25194 0.0
C221 C 0.80346 0.49559 0.2585 0.0
C222 C 0.80469 0.52721 0.27097 0.0
C223 C 0.77258 0.5287 0.27952 0.0
C224 C 0.77452 0.5605 0.29287 0.0
C225 C 0.80723 0.59004 0.2972 0.0
C226 C 0.83861 0.5886 0.28862 0.0
C227 C 0.83753 0.5576 0.27575 0.0
H228 H 0.3143 0.82688 0.7831 0.0
C229 C 0.31999 0.82674 0.74254 0.0
H230 H 0.30144 0.80146 0.66991 0.0
H231 H 0.21427 0.66225 0.78002 0.0
H232 H 0.26919 0.66009 0.76622 0.0
H233 H 0.32236 0.70981 0.73582 0.0
H234 H 0.3208 0.76193 0.71886 0.0
C235 C 0.29567 0.80288 0.71018 0.0
C236 C 0.26374 0.77373 0.73012 0.0
C237 C 0.26519 0.74351 0.74014 0.0
C238 C 0.23467 0.71503 0.75813 0.0
C239 C 0.23673 0.68493 0.767 0.0
C240 C 0.26811 0.68326 0.75909 0.0
C241 C 0.29803 0.71122 0.74193 0.0
C242 C 0.29673 0.74102 0.73238 0.0
H243 H 0.14208 0.67877 0.71247 0.0
C244 C 0.14323 0.66814 0.74876 0.0
H245 H 0.17242 0.67515 0.81763 0.0
H246 H 0.25257 0.82799 0.71478 0.0
H247 H 0.198 0.83094 0.73063 0.0
H248 H 0.14533 0.78198 0.76386 0.0
H249 H 0.14677 0.72968 0.78118 0.0
C250 C 0.17059 0.68605 0.78197 0.0
C251 C 0.20272 0.71683 0.76591 0.0
C252 C 0.20152 0.74733 0.75688 0.0
C253 C 0.23208 0.77578 0.73861 0.0
C254 C 0.23015 0.80578 0.7291 0.0
C255 C 0.19903 0.80779 0.73802 0.0
C256 C 0.16935 0.78019 0.75666 0.0
C257 C 0.17045 0.75027 0.76618 0.0
H258 H 0.49835 0.97237 0.86474 0.0
C259 C 0.47563 0.94964 0.87774 0.0
H260 H 0.44497 0.92497 0.94121 0.0
H261 H 0.56289 0.01015 0.11033 0.0
H262 H 0.56251 0.95587 0.11202 0.0
H263 H 0.52879 0.91033 0.04626 0.0
H264 H 0.49499 0.91872 0.97862 0.0
C265 C 0.46708 0.9478 0.92734 0.0
C266 C 0.48859 0.976 0.96528 0.0
C267 C 0.50862 0.97083 0.00407 0.0
C268 C 0.52849 0.99727 0.04148 0.0
C269 C 0.54764 0.99114 0.08051 0.0
C270 C 0.54763 0.96006 0.082 0.0
C271 C 0.52862 0.9344 0.04502 0.0
C272 C 0.50928 0.93956 0.00644 0.0
H273 H 0.49846 0.05171 0.10884 0.0
C274 C 0.52713 0.06299 0.11498 0.0
H275 H 0.57481 0.0651 0.08859 0.0
H276 H 0.45089 0.99361 0.89836 0.0
H277 H 0.45384 0.04886 0.89395 0.0
H278 H 0.49218 0.09612 0.95468 0.0
H279 H 0.52724 0.0881 0.02087 0.0
C280 C 0.54635 0.05506 0.08195 0.0
C281 C 0.5284 0.02886 0.03979 0.0
C282 C 0.50951 0.0345 -0.00022 0.0
C283 C 0.48882 0.00775 0.96322 0.0
C284 C 0.46829 0.01339 0.92579 0.0
C285 C 0.46953 0.04496 0.92303 0.0
C286 C 0.491 0.07153 0.95734 0.0
C287 C 0.5108 0.06651 -0.00465 0.0
H288 H 0.54158 0.50622 0.36268 0.0
C289 C 0.52188 0.49189 0.33245 0.0
H290 H 0.46724 0.46774 0.31067 0.0
H291 H 0.47296 0.47875 0.56712 0.0
H292 H 0.49412 0.43724 0.56104 0.0
H293 H 0.5056 0.41781 0.47686 0.0
H294 H 0.49663 0.44035 0.39839 0.0
C295 C 0.48725 0.48125 0.34084 0.0
C296 C 0.47565 0.48922 0.39075 0.0
C297 C 0.47944 0.47455 0.43601 0.0
C298 C 0.47115 0.4845 0.48427 0.0
C299 C 0.47736 0.47108 0.5292 0.0
C300 C 0.48975 0.44737 0.52632 0.0
C301 C 0.49635 0.43653 0.47896 0.0
C302 C 0.4913 0.44986 0.43422 0.0
H303 H 0.40468 0.46999 0.54836 0.0
C304 C 0.42071 0.49596 0.56361 0.0
H305 H 0.46403 0.54435 0.551 0.0
H306 H 0.46406 0.52104 0.31095 0.0
H307 H 0.44033 0.56069 0.31653 0.0
H308 H 0.4238 0.57634 0.39992 0.0
H309 H 0.43109 0.55258 0.4783 0.0
C310 C 0.44828 0.51808 0.53696 0.0
C311 C 0.45741 0.50781 0.48678 0.0
C312 C 0.45269 0.52172 0.44135 0.0
C313 C 0.46183 0.51242 0.39324 0.0
C314 C 0.45728 0.52702 0.34849 0.0
C315 C 0.4437 0.54983 0.35114 0.0
C316 C 0.43442 0.55867 0.3981 0.0
C317 C 0.43879 0.54486 0.4428 0.0
H318 H 0.98029 0.52027 0.8817 0.0
C319 C 0.00754 0.52484 0.88654 0.0
H320 H 0.04361 0.51645 0.93161 0.0
H321 H 0.91784 0.4892 0.09944 0.0
H322 H 0.93501 0.54903 0.09422 0.0
H323 H 0.97858 0.58407 0.03109 0.0
H324 H 0.00475 0.55939 0.97233 0.0
C325 C 0.01687 0.51336 0.92758 0.0
C326 C 0.99038 0.49268 0.96549 0.0
C327 C 0.97611 0.50788 0.00031 0.0
C328 C 0.95211 0.48804 0.03802 0.0
C329 C 0.93716 0.50341 0.07122 0.0
C330 C 0.94661 0.53767 0.06843 0.0
C331 C 0.97105 0.55737 0.03278 0.0
C332 C 0.98576 0.54281 -0.00092 0.0
H333 H 0.96322 0.4628 0.14008 0.0
C334 C 0.93637 0.44194 0.13342 0.0
H335 H 0.8959 0.41295 0.07768 0.0
H336 H 0.01103 0.45528 0.90215 0.0
H337 H 0.99394 0.3955 0.90786 0.0
H338 H 0.95365 0.36156 0.97502 0.0
H339 H 0.93006 0.3872 0.03676 0.0
C340 C 0.92244 0.43398 0.08552 0.0
C341 C 0.94358 0.45348 0.042 0.0
C342 C 0.95688 0.43803 0.00616 0.0
C343 C 0.98037 0.45768 0.96783 0.0
C344 C 0.9934 0.44165 0.93246 0.0
C345 C 0.98374 0.40733 0.93521 0.0
C346 C 0.96103 0.38821 0.973 0.0
C347 C 0.9477 0.40325 0.00821 0.0
H348 H 0.51367 0.00067 0.33746 0.0
C349 C 0.51316 0.0243 0.34708 0.0
H350 H 0.50636 0.05443 0.40582 0.0
H351 H 0.42803 0.90056 0.5005 0.0
H352 H 0.38201 0.88686 0.4351 0.0
H353 H 0.38902 0.92794 0.36992 0.0
H354 H 0.44227 0.98279 0.36938 0.0
C355 C 0.50542 0.03033 0.39485 0.0
C356 C 0.49994 0.00619 0.43554 0.0
C357 C 0.46824 0.97465 0.43596 0.0
C358 C 0.46368 0.95145 0.47455 0.0
C359 C 0.43236 0.91957 0.47306 0.0
C360 C 0.40584 0.9113 0.43555 0.0
C361 C 0.40983 0.93439 0.39876 0.0
C362 C 0.4406 0.96574 0.39877 0.0
H363 H 0.44404 0.94588 0.58799 0.0
C364 C 0.46072 0.93377 0.59212 0.0
H365 H 0.50247 0.92681 0.56077 0.0
H366 H 0.56426 0.06424 0.44459 0.0
H367 H 0.60993 0.07821 0.51055 0.0
H368 H 0.6014 0.03858 0.57878 0.0
H369 H 0.54724 0.98468 0.58131 0.0
C370 C 0.48467 0.93765 0.55635 0.0
C371 C 0.49038 0.96036 0.51339 0.0
C372 C 0.52223 0.99175 0.51259 0.0
C373 C 0.52698 0.01473 0.47363 0.0
C374 C 0.5591 0.04592 0.47357 0.0
C375 C 0.58557 0.05426 0.51118 0.0
C376 C 0.58078 0.03194 0.54957 0.0
C377 C 0.54954 0.00105 0.55052 0.0
H378 H 0.48081 0.51463 0.82076 0.0
C379 C 0.47991 0.53784 0.83209 0.0
H380 H 0.49482 0.5777 0.88859 0.0
H381 H 0.50194 0.45408 0.01409 0.0
H382 H 0.43798 0.42253 -0.00077 0.0
H383 H 0.40707 0.44541 0.94616 0.0
H384 H 0.43999 0.49957 0.90689 0.0
C385 C 0.49452 0.55392 0.87734 0.0
C386 C 0.51249 0.54086 0.91201 0.0
C387 C 0.49248 0.50972 0.9363 0.0
C388 C 0.51001 0.49732 0.96893 0.0
C389 C 0.48975 0.46534 0.99063 0.0
C390 C 0.45305 0.44685 0.98214 0.0
C391 C 0.43567 0.45967 0.95211 0.0
C392 C 0.45498 0.49073 0.92946 0.0
H393 H 0.53794 0.51496 0.07944 0.0
C394 C 0.55723 0.50674 0.06804 0.0
H395 H 0.58471 0.499 0.00602 0.0
H396 H 0.55873 0.60087 0.87028 0.0
H397 H 0.62248 0.633 0.88706 0.0
H398 H 0.65248 0.61249 0.94635 0.0
H399 H 0.61892 0.55959 0.989 0.0
C400 C 0.56478 0.50611 0.01828 0.0
C401 C 0.54716 0.51689 0.97928 0.0
C402 C 0.56718 0.54779 0.95465 0.0
C403 C 0.54982 0.55979 0.92094 0.0
C404 C 0.57049 0.59072 0.89667 0.0
C405 C 0.60712 0.6094 0.90589 0.0
C406 C 0.62401 0.59784 0.93925 0.0
C407 C 0.60443 0.56743 0.96349 0.0
H408 H 0.04239 0.5179 0.63745 0.0
C409 C 0.07078 0.52599 0.63917 0.0
H410 H 0.11458 0.52786 0.59894 0.0
H411 H 0.00547 0.40448 0.4503 0.0
H412 H 0.03473 0.3778 0.49545 0.0
H413 H 0.07852 0.40896 0.56571 0.0
H414 H 0.09315 0.46695 0.59142 0.0
C415 C 0.08655 0.52112 0.59767 0.0
C416 C 0.06519 0.50465 0.54995 0.0
C417 C 0.05778 0.47118 0.5345 0.0
C418 C 0.03289 0.45339 0.49356 0.0
C419 C 0.02469 0.41942 0.48041 0.0
C420 C 0.04119 0.40374 0.50618 0.0
C421 C 0.06581 0.42127 0.54578 0.0
C422 C 0.07398 0.45454 0.56014 0.0
H423 H 0.02216 0.44851 0.37229 0.0
C424 C 0.9952 0.44336 0.38081 0.0
H425 H 0.96111 0.4467 0.4364 0.0
H426 H 0.07893 0.57079 0.56384 0.0
H427 H 0.05155 0.59842 0.51668 0.0
H428 H 0.0077 0.56741 0.44646 0.0
H429 H 0.99113 0.50873 0.42284 0.0
C430 C 0.98768 0.45056 0.42812 0.0
C431 C 0.01606 0.46947 0.46779 0.0
C432 C 0.02519 0.50369 0.48127 0.0
C433 C 0.05005 0.52141 0.5221 0.0
C434 C 0.0594 0.55585 0.53403 0.0
C435 C 0.0441 0.5721 0.50701 0.0
C436 C 0.01945 0.55465 0.46746 0.0
C437 C 0.01007 0.5209 0.45445 0.0
loop_
_geom_bond_atom_site_label_1
_geom_bond_atom_site_label_2
_geom_bond_distance
_geom_bond_site_symmetry_2
_ccdc_geom_bond_type
C0 O1 1.160 . S
C0 O7 1.185 . S
O1 C0 1.160 . S
O2 Zn3 1.899 . S
O2 C10 1.284 . S
Zn3 O2 1.899 . S
Zn3 O4 2.032 . S
Zn3 O7 2.086 . S
Zn3 O12 1.977 . S
O4 Zn3 2.032 . S
O4 C8 1.278 . S
C5 O6 1.203 . S
C5 O12 1.267 . S
O6 C5 1.203 . S
O7 C0 1.185 . S
O7 Zn3 2.086 . S
C8 O4 1.278 . S
C8 O9 1.211 . S
O9 C8 1.211 . S
C10 O2 1.284 . S
C10 O11 1.273 . S
O11 C10 1.273 . S
O12 Zn3 1.977 . S
O12 C5 1.267 . S
C13 O14 1.160 . S
C13 O20 1.185 . S
O14 C13 1.160 . S
O15 Zn16 1.899 . S
O15 C23 1.284 . S
Zn16 O15 1.899 . S
Zn16 O17 2.032 . S
Zn16 O20 2.086 . S
Zn16 O25 1.977 . S
O17 Zn16 2.032 . S
O17 C21 1.278 . S
C18 O19 1.203 . S
C18 O25 1.267 . S
O19 C18 1.203 . S
O20 C13 1.185 . S
O20 Zn16 2.086 . S
C21 O17 1.278 . S
C21 O22 1.211 . S
O22 C21 1.211 . S
C23 O15 1.284 . S
C23 O24 1.273 . S
O24 C23 1.273 . S
O25 Zn16 1.977 . S
O25 C18 1.267 . S
C26 O27 1.160 . S
C26 O33 1.185 . S
O27 C26 1.160 . S
O28 Zn29 1.899 . S
O28 C36 1.284 . S
Zn29 O28 1.899 . S
Zn29 O30 2.032 . S
Zn29 O33 2.086 . S
Zn29 O38 1.977 . S
O30 Zn29 2.032 . S
O30 C34 1.278 . S
C31 O32 1.203 . S
C31 O38 1.267 . S
O32 C31 1.203 . S
O33 C26 1.185 . S
O33 Zn29 2.086 . S
C34 O30 1.278 . S
C34 O35 1.211 . S
O35 C34 1.211 . S
C36 O28 1.284 . S
C36 O37 1.273 . S
O37 C36 1.273 . S
O38 Zn29 1.977 . S
O38 C31 1.267 . S
C39 O40 1.160 . S
C39 O46 1.185 . S
O40 C39 1.160 . S
O41 Zn42 1.899 . S
O41 C49 1.284 . S
Zn42 O41 1.899 . S
Zn42 O43 2.032 . S
Zn42 O46 2.086 . S
Zn42 O51 1.977 . S
O43 Zn42 2.032 . S
O43 C47 1.278 . S
C44 O45 1.203 . S
C44 O51 1.267 . S
O45 C44 1.203 . S
O46 C39 1.185 . S
O46 Zn42 2.086 . S
C47 O43 1.278 . S
C47 O48 1.211 . S
O48 C47 1.211 . S
C49 O41 1.284 . S
C49 O50 1.273 . S
O50 C49 1.273 . S
O51 Zn42 1.977 . S
O51 C44 1.267 . S
C52 O53 1.160 . S
C52 O59 1.185 . S
O53 C52 1.160 . S
O54 Zn55 1.899 . S
O54 C62 1.284 . S
Zn55 O54 1.899 . S
Zn55 O56 2.032 . S
Zn55 O59 2.086 . S
Zn55 O64 1.977 . S
O56 Zn55 2.032 . S
O56 C60 1.278 . S
C57 O58 1.203 . S
C57 O64 1.267 . S
O58 C57 1.203 . S
O59 C52 1.185 . S
O59 Zn55 2.086 . S
C60 O56 1.278 . S
C60 O61 1.211 . S
O61 C60 1.211 . S
C62 O54 1.284 . S
C62 O63 1.273 . S
O63 C62 1.273 . S
O64 Zn55 1.977 . S
O64 C57 1.267 . S
C65 O66 1.160 . S
C65 O72 1.185 . S
O66 C65 1.160 . S
O67 Zn68 1.899 . S
O67 C75 1.284 . S
Zn68 O67 1.899 . S
Zn68 O69 2.032 . S
Zn68 O72 2.086 . S
Zn68 O77 1.977 . S
O69 Zn68 2.032 . S
O69 C73 1.278 . S
C70 O71 1.203 . S
C70 O77 1.267 . S
O71 C70 1.203 . S
O72 C65 1.185 . S
O72 Zn68 2.086 . S
C73 O69 1.278 . S
C73 O74 1.211 . S
O74 C73 1.211 . S
C75 O67 1.284 . S
C75 O76 1.273 . S
O76 C75 1.273 . S
O77 Zn68 1.977 . S
O77 C70 1.267 . S
H78 C79 0.951 . S
C79 H78 0.951 . S
C79 C85 1.265 . S
H80 C85 0.950 . S
H81 C89 0.949 . S
H82 C90 0.950 . S
H83 C91 0.951 . S
H84 C92 0.951 . S
C85 C79 1.265 . S
C85 H80 0.950 . S
C85 C86 1.478 . S
C86 C85 1.478 . S
C86 C87 1.397 . S
C86 C103 1.394 . S
C87 C86 1.397 . S
C87 C88 1.438 . S
C87 C92 1.429 . S
C88 C87 1.438 . S
C88 C89 1.428 . S
C88 C101 1.394 . S
C89 H81 0.949 . S
C89 C88 1.428 . S
C89 C90 1.345 . S
C90 H82 0.950 . S
C90 C89 1.345 . S
C90 C91 1.424 . S
C91 H83 0.951 . S
C91 C90 1.424 . S
C91 C92 1.347 . S
C92 H84 0.951 . S
C92 C87 1.429 . S
C92 C91 1.347 . S
H93 C94 0.951 . S
C94 H93 0.951 . S
C94 C100 1.265 . S
H95 C100 0.950 . S
H96 C104 0.949 . S
H97 C105 0.950 . S
H98 C106 0.951 . S
H99 C107 0.951 . S
C100 C94 1.265 . S
C100 H95 0.950 . S
C100 C101 1.478 . S
C101 C88 1.394 . S
C101 C100 1.478 . S
C101 C102 1.397 . S
C102 C101 1.397 . S
C102 C103 1.438 . S
C102 C107 1.429 . S
C103 C86 1.394 . S
C103 C102 1.438 . S
C103 C104 1.428 . S
C104 H96 0.949 . S
C104 C103 1.428 . S
C104 C105 1.345 . S
C105 H97 0.950 . S
C105 C104 1.345 . S
C105 C106 1.424 . S
C106 H98 0.951 . S
C106 C105 1.424 . S
C106 C107 1.347 . S
C107 H99 0.951 . S
C107 C102 1.429 . S
C107 C106 1.347 . S
H108 C109 0.951 . S
C109 H108 0.951 . S
C109 C115 1.265 . S
H110 C115 0.950 . S
H111 C119 0.949 . S
H112 C120 0.950 . S
H113 C121 0.951 . S
H114 C122 0.951 . S
C115 C109 1.265 . S
C115 H110 0.950 . S
C115 C116 1.478 . S
C116 C115 1.478 . S
C116 C117 1.397 . S
C116 C133 1.394 . S
C117 C116 1.397 . S
C117 C118 1.438 . S
C117 C122 1.429 . S
C118 C117 1.438 . S
C118 C119 1.428 . S
C118 C131 1.394 . S
C119 H111 0.949 . S
C119 C118 1.428 . S
C119 C120 1.345 . S
C120 H112 0.950 . S
C120 C119 1.345 . S
C120 C121 1.424 . S
C121 H113 0.951 . S
C121 C120 1.424 . S
C121 C122 1.347 . S
C122 H114 0.951 . S
C122 C117 1.429 . S
C122 C121 1.347 . S
H123 C124 0.951 . S
C124 H123 0.951 . S
C124 C130 1.265 . S
H125 C130 0.950 . S
H126 C134 0.949 . S
H127 C135 0.950 . S
H128 C136 0.951 . S
H129 C137 0.951 . S
C130 C124 1.265 . S
C130 H125 0.950 . S
C130 C131 1.478 . S
C131 C118 1.394 . S
C131 C130 1.478 . S
C131 C132 1.397 . S
C132 C131 1.397 . S
C132 C133 1.438 . S
C132 C137 1.429 . S
C133 C116 1.394 . S
C133 C132 1.438 . S
C133 C134 1.428 . S
C134 H126 0.949 . S
C134 C133 1.428 . S
C134 C135 1.345 . S
C135 H127 0.950 . S
C135 C134 1.345 . S
C135 C136 1.424 . S
C136 H128 0.951 . S
C136 C135 1.424 . S
C136 C137 1.347 . S
C137 H129 0.951 . S
C137 C132 1.429 . S
C137 C136 1.347 . S
H138 C139 0.951 . S
C139 H138 0.951 . S
C139 C145 1.265 . S
H140 C145 0.950 . S
H141 C149 0.949 . S
H142 C150 0.950 . S
H143 C151 0.951 . S
H144 C152 0.951 . S
C145 C139 1.265 . S
C145 H140 0.950 . S
C145 C146 1.478 . S
C146 C145 1.478 . S
C146 C147 1.397 . S
C146 C163 1.394 . S
C147 C146 1.397 . S
C147 C148 1.438 . S
C147 C152 1.429 . S
C148 C147 1.438 . S
C148 C149 1.428 . S
C148 C161 1.394 . S
C149 H141 0.949 . S
C149 C148 1.428 . S
C149 C150 1.345 . S
C150 H142 0.950 . S
C150 C149 1.345 . S
C150 C151 1.424 . S
C151 H143 0.951 . S
C151 C150 1.424 . S
C151 C152 1.347 . S
C152 H144 0.951 . S
C152 C147 1.429 . S
C152 C151 1.347 . S
H153 C154 0.951 . S
C154 H153 0.951 . S
C154 C160 1.265 . S
H155 C160 0.950 . S
H156 C164 0.949 . S
H157 C165 0.950 . S
H158 C166 0.951 . S
H159 C167 0.951 . S
C160 C154 1.265 . S
C160 H155 0.950 . S
C160 C161 1.478 . S
C161 C148 1.394 . S
C161 C160 1.478 . S
C161 C162 1.397 . S
C162 C161 1.397 . S
C162 C163 1.438 . S
C162 C167 1.429 . S
C163 C146 1.394 . S
C163 C162 1.438 . S
C163 C164 1.428 . S
C164 H156 0.949 . S
C164 C163 1.428 . S
C164 C165 1.345 . S
C165 H157 0.950 . S
C165 C164 1.345 . S
C165 C166 1.424 . S
C166 H158 0.951 . S
C166 C165 1.424 . S
C166 C167 1.347 . S
C167 H159 0.951 . S
C167 C162 1.429 . S
C167 C166 1.347 . S
H168 C169 0.951 . S
C169 H168 0.951 . S
C169 C175 1.265 . S
H170 C175 0.950 . S
H171 C179 0.949 . S
H172 C180 0.950 . S
H173 C181 0.951 . S
H174 C182 0.951 . S
C175 C169 1.265 . S
C175 H170 0.950 . S
C175 C176 1.478 . S
C176 C175 1.478 . S
C176 C177 1.397 . S
C176 C193 1.394 . S
C177 C176 1.397 . S
C177 C178 1.438 . S
C177 C182 1.429 . S
C178 C177 1.438 . S
C178 C179 1.428 . S
C178 C191 1.394 . S
C179 H171 0.949 . S
C179 C178 1.428 . S
C179 C180 1.345 . S
C180 H172 0.950 . S
C180 C179 1.345 . S
C180 C181 1.424 . S
C181 H173 0.951 . S
C181 C180 1.424 . S
C181 C182 1.347 . S
C182 H174 0.951 . S
C182 C177 1.429 . S
C182 C181 1.347 . S
H183 C184 0.951 . S
C184 H183 0.951 . S
C184 C190 1.265 . S
H185 C190 0.950 . S
H186 C194 0.949 . S
H187 C195 0.950 . S
H188 C196 0.951 . S
H189 C197 0.951 . S
C190 C184 1.265 . S
C190 H185 0.950 . S
C190 C191 1.478 . S
C191 C178 1.394 . S
C191 C190 1.478 . S
C191 C192 1.397 . S
C192 C191 1.397 . S
C192 C193 1.438 . S
C192 C197 1.429 . S
C193 C176 1.394 . S
C193 C192 1.438 . S
C193 C194 1.428 . S
C194 H186 0.949 . S
C194 C193 1.428 . S
C194 C195 1.345 . S
C195 H187 0.950 . S
C195 C194 1.345 . S
C195 C196 1.424 . S
C196 H188 0.951 . S
C196 C195 1.424 . S
C196 C197 1.347 . S
C197 H189 0.951 . S
C197 C192 1.429 . S
C197 C196 1.347 . S
H198 C199 0.951 . S
C199 H198 0.951 . S
C199 C205 1.265 . S
H200 C205 0.950 . S
H201 C209 0.949 . S
H202 C210 0.950 . S
H203 C211 0.951 . S
H204 C212 0.951 . S
C205 C199 1.265 . S
C205 H200 0.950 . S
C205 C206 1.478 . S
C206 C205 1.478 . S
C206 C207 1.397 . S
C206 C223 1.394 . S
C207 C206 1.397 . S
C207 C208 1.438 . S
C207 C212 1.429 . S
C208 C207 1.438 . S
C208 C209 1.428 . S
C208 C221 1.394 . S
C209 H201 0.949 . S
C209 C208 1.428 . S
C209 C210 1.345 . S
C210 H202 0.950 . S
C210 C209 1.345 . S
C210 C211 1.424 . S
C211 H203 0.951 . S
C211 C210 1.424 . S
C211 C212 1.347 . S
C212 H204 0.951 . S
C212 C207 1.429 . S
C212 C211 1.347 . S
H213 C214 0.951 . S
C214 H213 0.951 . S
C214 C220 1.265 . S
H215 C220 0.950 . S
H216 C224 0.949 . S
H217 C225 0.950 . S
H218 C226 0.951 . S
H219 C227 0.951 . S
C220 C214 1.265 . S
C220 H215 0.950 . S
C220 C221 1.478 . S
C221 C208 1.394 . S
C221 C220 1.478 . S
C221 C222 1.397 . S
C222 C221 1.397 . S
C222 C223 1.438 . S
C222 C227 1.429 . S
C223 C206 1.394 . S
C223 C222 1.438 . S
C223 C224 1.428 . S
C224 H216 0.949 . S
C224 C223 1.428 . S
C224 C225 1.345 . S
C225 H217 0.950 . S
C225 C224 1.345 . S
C225 C226 1.424 . S
C226 H218 0.951 . S
C226 C225 1.424 . S
C226 C227 1.347 . S
C227 H219 0.951 . S
C227 C222 1.429 . S
C227 C226 1.347 . S
H228 C229 0.951 . S
C229 H228 0.951 . S
C229 C235 1.265 . S
H230 C235 0.950 . S
H231 C239 0.949 . S
H232 C240 0.950 . S
H233 C241 0.951 . S
H234 C242 0.951 . S
C235 C229 1.265 . S
C235 H230 0.950 . S
C235 C236 1.478 . S
C236 C235 1.478 . S
C236 C237 1.397 . S
C236 C253 1.394 . S
C237 C236 1.397 . S
C237 C238 1.438 . S
C237 C242 1.429 . S
C238 C237 1.438 . S
C238 C239 1.428 . S
C238 C251 1.394 . S
C239 H231 0.949 . S
C239 C238 1.428 . S
C239 C240 1.345 . S
C240 H232 0.950 . S
C240 C239 1.345 . S
C240 C241 1.424 . S
C241 H233 0.951 . S
C241 C240 1.424 . S
C241 C242 1.347 . S
C242 H234 0.951 . S
C242 C237 1.429 . S
C242 C241 1.347 . S
H243 C244 0.951 . S
C244 H243 0.951 . S
C244 C250 1.265 . S
H245 C250 0.950 . S
H246 C254 0.949 . S
H247 C255 0.950 . S
H248 C256 0.951 . S
H249 C257 0.951 . S
C250 C244 1.265 . S
C250 H245 0.950 . S
C250 C251 1.478 . S
C251 C238 1.394 . S
C251 C250 1.478 . S
C251 C252 1.397 . S
C252 C251 1.397 . S
C252 C253 1.438 . S
C252 C257 1.429 . S
C253 C236 1.394 . S
C253 C252 1.438 . S
C253 C254 1.428 . S
C254 H246 0.949 . S
C254 C253 1.428 . S
C254 C255 1.345 . S
C255 H247 0.950 . S
C255 C254 1.345 . S
C255 C256 1.424 . S
C256 H248 0.951 . S
C256 C255 1.424 . S
C256 C257 1.347 . S
C257 H249 0.951 . S
C257 C252 1.429 . S
C257 C256 1.347 . S
H258 C259 0.951 . S
C259 H258 0.951 . S
C259 C265 1.265 . S
H260 C265 0.950 . S
H261 C269 0.949 . S
H262 C270 0.950 . S
H263 C271 0.951 . S
H264 C272 0.951 1_556 S
C265 C259 1.265 . S
C265 H260 0.950 . S
C265 C266 1.478 . S
C266 C265 1.478 . S
C266 C267 1.397 1_556 S
C266 C283 1.394 1_565 S
C267 C266 1.397 1_554 S
C267 C268 1.438 . S
C267 C272 1.429 . S
C268 C267 1.438 . S
C268 C269 1.428 . S
C268 C281 1.394 1_565 S
C269 H261 0.949 . S
C269 C268 1.428 . S
C269 C270 1.345 . S
C270 H262 0.950 . S
C270 C269 1.345 . S
C270 C271 1.424 . S
C271 H263 0.951 . S
C271 C270 1.424 . S
C271 C272 1.347 . S
C272 H264 0.951 1_554 S
C272 C267 1.429 . S
C272 C271 1.347 . S
H273 C274 0.951 . S
C274 H273 0.951 . S
C274 C280 1.265 . S
H275 C280 0.950 . S
H276 C284 0.949 . S
H277 C285 0.950 . S
H278 C286 0.951 . S
H279 C287 0.951 1_554 S
C280 C274 1.265 . S
C280 H275 0.950 . S
C280 C281 1.478 . S
C281 C268 1.394 1_545 S
C281 C280 1.478 . S
C281 C282 1.397 1_554 S
C282 C281 1.397 1_556 S
C282 C283 1.438 . S
C282 C287 1.429 . S
C283 C266 1.394 1_545 S
C283 C282 1.438 . S
C283 C284 1.428 . S
C284 H276 0.949 . S
C284 C283 1.428 . S
C284 C285 1.345 . S
C285 H277 0.950 . S
C285 C284 1.345 . S
C285 C286 1.424 . S
C286 H278 0.951 . S
C286 C285 1.424 . S
C286 C287 1.347 . S
C287 H279 0.951 1_556 S
C287 C282 1.429 . S
C287 C286 1.347 . S
H288 C289 0.951 . S
C289 H288 0.951 . S
C289 C295 1.265 . S
H290 C295 0.950 . S
H291 C299 0.949 . S
H292 C300 0.950 . S
H293 C301 0.951 . S
H294 C302 0.951 . S
C295 C289 1.265 . S
C295 H290 0.950 . S
C295 C296 1.478 . S
C296 C295 1.478 . S
C296 C297 1.397 . S
C296 C313 1.394 . S
C297 C296 1.397 . S
C297 C298 1.438 . S
C297 C302 1.429 . S
C298 C297 1.438 . S
C298 C299 1.428 . S
C298 C311 1.394 . S
C299 H291 0.949 . S
C299 C298 1.428 . S
C299 C300 1.345 . S
C300 H292 0.950 . S
C300 C299 1.345 . S
C300 C301 1.424 . S
C301 H293 0.951 . S
C301 C300 1.424 . S
C301 C302 1.347 . S
C302 H294 0.951 . S
C302 C297 1.429 . S
C302 C301 1.347 . S
H303 C304 0.951 . S
C304 H303 0.951 . S
C304 C310 1.265 . S
H305 C310 0.950 . S
H306 C314 0.949 . S
H307 C315 0.950 . S
H308 C316 0.951 . S
H309 C317 0.951 . S
C310 C304 1.265 . S
C310 H305 0.950 . S
C310 C311 1.478 . S
C311 C298 1.394 . S
C311 C310 1.478 . S
C311 C312 1.397 . S
C312 C311 1.397 . S
C312 C313 1.438 . S
C312 C317 1.429 . S
C313 C296 1.394 . S
C313 C312 1.438 . S
C313 C314 1.428 . S
C314 H306 0.949 . S
C314 C313 1.428 . S
C314 C315 1.345 . S
C315 H307 0.950 . S
C315 C314 1.345 . S
C315 C316 1.424 . S
C316 H308 0.951 . S
C316 C315 1.424 . S
C316 C317 1.347 . S
C317 H309 0.951 . S
C317 C312 1.429 . S
C317 C316 1.347 . S
H318 C319 0.951 . S
C319 H318 0.951 . S
C319 C325 1.265 . S
H320 C325 0.950 . S
H321 C329 0.949 . S
H322 C330 0.950 . S
H323 C331 0.951 . S
H324 C332 0.951 . S
C325 C319 1.265 . S
C325 H320 0.950 . S
C325 C326 1.478 . S
C326 C325 1.478 . S
C326 C327 1.397 1_556 S
C326 C343 1.392 1_455 S
C327 C326 1.397 1_554 S
C327 C328 1.438 1_455 S
C327 C332 1.429 . S
C328 C327 1.438 1_655 S
C328 C329 1.428 . S
C328 C341 1.394 . S
C329 H321 0.949 . S
C329 C328 1.428 . S
C329 C330 1.345 1_655 S
C330 H322 0.950 . S
C330 C329 1.345 1_455 S
C330 C331 1.424 . S
C331 H323 0.951 . S
C331 C330 1.424 . S
C331 C332 1.347 . S
C332 H324 0.951 . S
C332 C327 1.429 . S
C332 C331 1.347 . S
H333 C334 0.951 . S
C334 H333 0.951 . S
C334 C340 1.265 . S
H335 C340 0.950 . S
H336 C344 0.949 . S
H337 C345 0.950 . S
H338 C346 0.951 . S
H339 C347 0.951 . S
C340 C334 1.265 . S
C340 H335 0.950 . S
C340 C341 1.478 . S
C341 C328 1.394 . S
C341 C340 1.478 . S
C341 C342 1.397 . S
C342 C341 1.397 . S
C342 C343 1.446 1_554 S
C342 C347 1.429 . S
C343 C326 1.392 1_655 S
C343 C342 1.446 1_556 S
C343 C344 1.422 1_655 S
C344 H336 0.949 . S
C344 C343 1.422 1_455 S
C344 C345 1.345 1_455 S
C345 H337 0.950 . S
C345 C344 1.345 1_655 S
C345 C346 1.424 . S
C346 H338 0.951 . S
C346 C345 1.424 . S
C346 C347 1.347 1_556 S
C347 H339 0.951 . S
C347 C342 1.429 . S
C347 C346 1.347 1_554 S
H348 C349 0.951 . S
C349 H348 0.951 . S
C349 C355 1.265 . S
H350 C355 0.950 . S
H351 C359 0.949 . S
H352 C360 0.950 . S
H353 C361 0.951 . S
H354 C362 0.951 . S
C355 C349 1.265 . S
C355 H350 0.950 . S
C355 C356 1.478 . S
C356 C355 1.478 . S
C356 C357 1.397 1_545 S
C356 C373 1.394 . S
C357 C356 1.397 1_565 S
C357 C358 1.438 . S
C357 C362 1.429 . S
C358 C357 1.438 . S
C358 C359 1.428 . S
C358 C371 1.394 . S
C359 H351 0.949 . S
C359 C358 1.428 . S
C359 C360 1.345 . S
C360 H352 0.950 . S
C360 C359 1.345 . S
C360 C361 1.424 . S
C361 H353 0.951 . S
C361 C360 1.424 . S
C361 C362 1.347 . S
C362 H354 0.951 . S
C362 C357 1.429 . S
C362 C361 1.347 . S
H363 C364 0.951 . S
C364 H363 0.951 . S
C364 C370 1.265 . S
H365 C370 0.950 . S
H366 C374 0.949 . S
H367 C375 0.950 . S
H368 C376 0.951 . S
H369 C377 0.951 . S
C370 C364 1.265 . S
C370 H365 0.950 . S
C370 C371 1.478 . S
C371 C358 1.394 . S
C371 C370 1.478 . S
C371 C372 1.397 1_565 S
C372 C371 1.397 1_545 S
C372 C373 1.438 . S
C372 C377 1.429 . S
C373 C356 1.394 . S
C373 C372 1.438 . S
C373 C374 1.428 . S
C374 H366 0.949 . S
C374 C373 1.428 . S
C374 C375 1.345 . S
C375 H367 0.950 . S
C375 C374 1.345 . S
C375 C376 1.424 . S
C376 H368 0.951 . S
C376 C375 1.424 . S
C376 C377 1.347 . S
C377 H369 0.951 . S
C377 C372 1.429 . S
C377 C376 1.347 . S
H378 C379 0.951 . S
C379 H378 0.951 . S
C379 C385 1.265 . S
H380 C385 0.950 . S
H381 C389 0.949 . S
H382 C390 0.947 1_554 S
H383 C391 0.951 . S
H384 C392 0.951 . S
C385 C379 1.265 . S
C385 H380 0.950 . S
C385 C386 1.478 . S
C386 C385 1.478 . S
C386 C387 1.397 . S
C386 C403 1.394 . S
C387 C386 1.397 . S
C387 C388 1.438 . S
C387 C392 1.429 . S
C388 C387 1.438 . S
C388 C389 1.428 1_556 S
C388 C401 1.394 1_556 S
C389 H381 0.949 . S
C389 C388 1.428 1_554 S
C389 C390 1.345 1_554 S
C390 H382 0.947 1_556 S
C390 C389 1.345 1_556 S
C390 C391 1.424 . S
C391 H383 0.951 . S
C391 C390 1.424 . S
C391 C392 1.347 . S
C392 H384 0.951 . S
C392 C387 1.429 . S
C392 C391 1.347 . S
H393 C394 0.951 . S
C394 H393 0.951 . S
C394 C400 1.265 . S
H395 C400 0.950 . S
H396 C404 0.949 . S
H397 C405 0.950 . S
H398 C406 0.951 . S
H399 C407 0.951 . S
C400 C394 1.265 . S
C400 H395 0.950 . S
C400 C401 1.478 . S
C401 C388 1.394 1_554 S
C401 C400 1.478 . S
C401 C402 1.397 1_554 S
C402 C401 1.397 1_556 S
C402 C403 1.438 . S
C402 C407 1.429 1_556 S
C403 C386 1.394 . S
C403 C402 1.438 . S
C403 C404 1.428 . S
C404 H396 0.949 . S
C404 C403 1.428 . S
C404 C405 1.345 . S
C405 H397 0.950 . S
C405 C404 1.345 . S
C405 C406 1.424 1_556 S
C406 H398 0.951 . S
C406 C405 1.424 1_554 S
C406 C407 1.347 . S
C407 H399 0.951 . S
C407 C402 1.429 1_554 S
C407 C406 1.347 . S
H408 C409 0.951 . S
C409 H408 0.951 . S
C409 C415 1.265 . S
H410 C415 0.950 . S
H411 C419 0.949 . S
H412 C420 0.950 . S
H413 C421 0.951 . S
H414 C422 0.951 . S
C415 C409 1.265 . S
C415 H410 0.950 . S
C415 C416 1.478 . S
C416 C415 1.478 . S
C416 C417 1.397 . S
C416 C433 1.394 . S
C417 C416 1.397 . S
C417 C418 1.438 1_455 S
C417 C422 1.429 . S
C418 C417 1.438 1_655 S
C418 C419 1.428 . S
C418 C431 1.394 . S
C419 H411 0.949 . S
C419 C418 1.428 . S
C419 C420 1.345 . S
C420 H412 0.950 . S
C420 C419 1.345 . S
C420 C421 1.424 1_655 S
C421 H413 0.951 . S
C421 C420 1.424 1_455 S
C421 C422 1.347 . S
C422 H414 0.951 . S
C422 C417 1.429 . S
C422 C421 1.347 . S
H423 C424 0.951 . S
C424 H423 0.951 . S
C424 C430 1.265 . S
H425 C430 0.950 . S
H426 C434 0.949 . S
H427 C435 0.950 . S
H428 C436 0.951 . S
H429 C437 0.951 . S
C430 C424 1.265 . S
C430 H425 0.950 . S
C430 C431 1.478 . S
C431 C418 1.394 . S
C431 C430 1.478 . S
C431 C432 1.397 . S
C432 C431 1.397 . S
C432 C433 1.438 1_655 S
C432 C437 1.429 . S
C433 C416 1.394 . S
C433 C432 1.438 1_455 S
C433 C434 1.428 . S
C434 H426 0.949 . S
C434 C433 1.428 . S
C434 C435 1.345 . S
C435 H427 0.950 . S
C435 C434 1.345 . S
C435 C436 1.424 1_455 S
C436 H428 0.951 . S
C436 C435 1.424 1_655 S
C436 C437 1.347 . S
C437 H429 0.951 . S
C437 C432 1.429 . S
C437 C436 1.347 . S
C79 C5 0.925 . S
C94 C57 0.908 . S
C109 C23 0.976 . S
C124 C75 0.912 . S
C139 C10 0.992 . S
C154 C31 0.816 . S
C169 C49 0.984 . S
C184 C18 0.817 . S
C199 C62 1.003 . S
C214 C36 0.995 . S
C229 C44 0.970 . S
C244 C70 0.798 . S
C259 C47 1.327 . S
C274 C8 1.279 . S
C289 C60 1.353 . S
C304 C13 1.292 . S
C319 C65 1.342 . S
C334 C34 1.353 . S
C349 C0 1.307 . S
C364 C39 1.363 . S
C379 C21 1.344 . S
C394 C52 1.351 . S
C409 C73 1.346 . S
C424 C26 1.364 . S
