# Generated by pormake.
# Topology xfc, (7)-cn, num edge types: 1
# Building blocks:
#     Node 0, Type 0, BuildingBlock: NUHQUE_clean_sbu_2, # of connection points: 7
#     Node 1, Type 0, BuildingBlock: NUHQUE_clean_sbu_2, # of connection points: 7
#     Node 2, Type 0, BuildingBlock: NUHQUE_clean_sbu_2, # of connection points: 7
#     Node 3, Type 0, BuildingBlock: NUHQUE_clean_sbu_2, # of connection points: 7
#     Node 4, Type 0, BuildingBlock: NUHQUE_clean_sbu_2, # of connection points: 7
#     Node 5, Type 0, BuildingBlock: NUHQUE_clean_sbu_2, # of connection points: 7
#     Node 6, Type 0, BuildingBlock: NUHQUE_clean_sbu_2, # of connection points: 7
#     Node 7, Type 0, BuildingBlock: NUHQUE_clean_sbu_2, # of connection points: 7
#     Node 8, Type 0, BuildingBlock: NUHQUE_clean_sbu_2, # of connection points: 7
#     Node 9, Type 0, BuildingBlock: NUHQUE_clean_sbu_2, # of connection points: 7
#     Node 10, Type 0, BuildingBlock: NUHQUE_clean_sbu_2, # of connection points: 7
#     Node 11, Type 0, BuildingBlock: NUHQUE_clean_sbu_2, # of connection points: 7
#     Node 12, Type 0, BuildingBlock: NUHQUE_clean_sbu_2, # of connection points: 7
#     Node 13, Type 0, BuildingBlock: NUHQUE_clean_sbu_2, # of connection points: 7
#     Node 14, Type 0, BuildingBlock: NUHQUE_clean_sbu_2, # of connection points: 7
#     Node 15, Type 0, BuildingBlock: NUHQUE_clean_sbu_2, # of connection points: 7
#     Edge 16, Type (0, 0), BuildingBlock: CIFDUS_clean_linker_0, # of connection points: 2
#     Edge 17, Type (0, 0), BuildingBlock: CIFDUS_clean_linker_0, # of connection points: 2
#     Edge 18, Type (0, 0), BuildingBlock: CIFDUS_clean_linker_0, # of connection points: 2
#     Edge 19, Type (0, 0), BuildingBlock: CIFDUS_clean_linker_0, # of connection points: 2
#     Edge 20, Type (0, 0), BuildingBlock: CIFDUS_clean_linker_0, # of connection points: 2
#     Edge 21, Type (0, 0), BuildingBlock: CIFDUS_clean_linker_0, # of connection points: 2
#     Edge 22, Type (0, 0), BuildingBlock: CIFDUS_clean_linker_0, # of connection points: 2
#     Edge 23, Type (0, 0), BuildingBlock: CIFDUS_clean_linker_0, # of connection points: 2
#     Edge 24, Type (0, 0), BuildingBlock: CIFDUS_clean_linker_0, # of connection points: 2
#     Edge 25, Type (0, 0), BuildingBlock: CIFDUS_clean_linker_0, # of connection points: 2
#     Edge 26, Type (0, 0), BuildingBlock: CIFDUS_clean_linker_0, # of connection points: 2
#     Edge 27, Type (0, 0), BuildingBlock: CIFDUS_clean_linker_0, # of connection points: 2
#     Edge 28, Type (0, 0), BuildingBlock: CIFDUS_clean_linker_0, # of connection points: 2
#     Edge 29, Type (0, 0), BuildingBlock: CIFDUS_clean_linker_0, # of connection points: 2
#     Edge 30, Type (0, 0), BuildingBlock: CIFDUS_clean_linker_0, # of connection points: 2
#     Edge 31, Type (0, 0), BuildingBlock: CIFDUS_clean_linker_0, # of connection points: 2
#     Edge 32, Type (0, 0), BuildingBlock: CIFDUS_clean_linker_0, # of connection points: 2
#     Edge 33, Type (0, 0), BuildingBlock: CIFDUS_clean_linker_0, # of connection points: 2
#     Edge 34, Type (0, 0), BuildingBlock: CIFDUS_clean_linker_0, # of connection points: 2
#     Edge 35, Type (0, 0), BuildingBlock: CIFDUS_clean_linker_0, # of connection points: 2
#     Edge 36, Type (0, 0), BuildingBlock: CIFDUS_clean_linker_0, # of connection points: 2
#     Edge 37, Type (0, 0), BuildingBlock: CIFDUS_clean_linker_0, # of connection points: 2
#     Edge 38, Type (0, 0), BuildingBlock: CIFDUS_clean_linker_0, # of connection points: 2
#     Edge 39, Type (0, 0), BuildingBlock: CIFDUS_clean_linker_0, # of connection points: 2
#     Edge 40, Type (0, 0), BuildingBlock: CIFDUS_clean_linker_0, # of connection points: 2
#     Edge 41, Type (0, 0), BuildingBlock: CIFDUS_clean_linker_0, # of connection points: 2
#     Edge 42, Type (0, 0), BuildingBlock: CIFDUS_clean_linker_0, # of connection points: 2
#     Edge 43, Type (0, 0), BuildingBlock: CIFDUS_clean_linker_0, # of connection points: 2
#     Edge 44, Type (0, 0), BuildingBlock: CIFDUS_clean_linker_0, # of connection points: 2
#     Edge 45, Type (0, 0), BuildingBlock: CIFDUS_clean_linker_0, # of connection points: 2
#     Edge 46, Type (0, 0), BuildingBlock: CIFDUS_clean_linker_0, # of connection points: 2
#     Edge 47, Type (0, 0), BuildingBlock: CIFDUS_clean_linker_0, # of connection points: 2
#     Edge 48, Type (0, 0), BuildingBlock: CIFDUS_clean_linker_0, # of connection points: 2
#     Edge 49, Type (0, 0), BuildingBlock: CIFDUS_clean_linker_0, # of connection points: 2
#     Edge 50, Type (0, 0), BuildingBlock: CIFDUS_clean_linker_0, # of connection points: 2
#     Edge 51, Type (0, 0), BuildingBlock: CIFDUS_clean_linker_0, # of connection points: 2
#     Edge 52, Type (0, 0), BuildingBlock: CIFDUS_clean_linker_0, # of connection points: 2
#     Edge 53, Type (0, 0), BuildingBlock: CIFDUS_clean_linker_0, # of connection points: 2
#     Edge 54, Type (0, 0), BuildingBlock: CIFDUS_clean_linker_0, # of connection points: 2
#     Edge 55, Type (0, 0), BuildingBlock: CIFDUS_clean_linker_0, # of connection points: 2
#     Edge 56, Type (0, 0), BuildingBlock: CIFDUS_clean_linker_0, # of connection points: 2
#     Edge 57, Type (0, 0), BuildingBlock: CIFDUS_clean_linker_0, # of connection points: 2
#     Edge 58, Type (0, 0), BuildingBlock: CIFDUS_clean_linker_0, # of connection points: 2
#     Edge 59, Type (0, 0), BuildingBlock: CIFDUS_clean_linker_0, # of connection points: 2
#     Edge 60, Type (0, 0), BuildingBlock: CIFDUS_clean_linker_0, # of connection points: 2
#     Edge 61, Type (0, 0), BuildingBlock: CIFDUS_clean_linker_0, # of connection points: 2
#     Edge 62, Type (0, 0), BuildingBlock: CIFDUS_clean_linker_0, # of connection points: 2
#     Edge 63, Type (0, 0), BuildingBlock: CIFDUS_clean_linker_0, # of connection points: 2
#     Edge 64, Type (0, 0), BuildingBlock: CIFDUS_clean_linker_0, # of connection points: 2
#     Edge 65, Type (0, 0), BuildingBlock: CIFDUS_clean_linker_0, # of connection points: 2
#     Edge 66, Type (0, 0), BuildingBlock: CIFDUS_clean_linker_0, # of connection points: 2
#     Edge 67, Type (0, 0), BuildingBlock: CIFDUS_clean_linker_0, # of connection points: 2
#     Edge 68, Type (0, 0), BuildingBlock: CIFDUS_clean_linker_0, # of connection points: 2
#     Edge 69, Type (0, 0), BuildingBlock: CIFDUS_clean_linker_0, # of connection points: 2
#     Edge 70, Type (0, 0), BuildingBlock: CIFDUS_clean_linker_0, # of connection points: 2
#     Edge 71, Type (0, 0), BuildingBlock: CIFDUS_clean_linker_0, # of connection points: 2
# Relax obj value: 0.431
# Max RMSD: 0.230
# Mean RMSD: 0.230
data_MOF--net-xfc--node1-NUHQUE_clean_sbu_2--edge1-CIFDUS_clean_linker_0
_symmetry_space_group_name_H-M    P1
_symmetry_Int_Tables_number       1
_symmetry_cell_setting            triclinic
loop_
_symmetry_equiv_pos_as_xyz
'x, y, z'
_cell_length_a     34.253014
_cell_length_b     34.147379
_cell_length_c     41.790582
_cell_angle_alpha  90.163586
_cell_angle_beta   89.863588
_cell_angle_gamma 90.358229
loop_
_atom_site_label
_atom_site_type_symbol
_atom_site_fract_x
_atom_site_fract_y
_atom_site_fract_z
_atom_type_partial_charge
O0 O 0.10178 0.94377 0.22323 0.0
Tb1 Tb 0.04894 0.97297 0.20822 0.0
Eu2 Eu 0.97733 0.02555 0.2327 0.0
C3 C 0.13198 0.96392 0.23395 0.0
O4 O 0.12604 0.99626 0.2502 0.0
C5 C 0.05407 0.06149 0.20552 0.0
O6 O 0.92412 0.06208 0.2238 0.0
C7 C 0.00168 0.01706 0.29123 0.0
C8 C 0.90771 0.05717 0.19559 0.0
O9 O 0.92297 0.03143 0.17584 0.0
C10 C 0.9669 0.93519 0.21479 0.0
C11 C 0.00223 0.98967 0.31877 0.0
C12 C 0.03803 0.97205 0.32737 0.0
C13 C 0.0399 0.94697 0.35381 0.0
C14 C 0.00665 0.94125 0.37245 0.0
C15 C 0.97026 0.95588 0.36337 0.0
C16 C 0.96818 0.98094 0.3367 0.0
O17 O 0.06861 0.03178 0.22115 0.0
O18 O 0.01621 0.06312 0.2016 0.0
O19 O 0.06872 0.96156 0.1592 0.0
O20 O 0.01701 0.99462 0.16717 0.0
C21 C 0.04066 0.98097 0.1456 0.0
O22 O 0.95195 0.97031 0.21285 0.0
O23 O 0.00406 0.93018 0.22187 0.0
O24 O 0.96903 0.03531 0.28404 0.0
O25 O 0.02169 0.00617 0.26594 0.0
H26 H 0.06413 0.97728 0.31325 0.0
H27 H 0.00912 0.92367 0.39393 0.0
H28 H 0.94028 0.99286 0.32963 0.0
O29 O 0.28677 0.8478 0.46142 0.0
Tb30 Tb 0.26975 0.79977 0.42989 0.0
Eu31 Eu 0.22956 0.72263 0.45712 0.0
C32 C 0.30711 0.87784 0.45133 0.0
O33 O 0.31311 0.908 0.47028 0.0
C34 C 0.18224 0.79473 0.4355 0.0
O35 O 0.19851 0.66501 0.44974 0.0
C36 C 0.24362 0.74888 0.51463 0.0
C37 C 0.20287 0.64996 0.42088 0.0
O38 O 0.22583 0.6684 0.40065 0.0
C39 C 0.31652 0.72206 0.42958 0.0
C40 C 0.2715 0.74837 0.5419 0.0
C41 C 0.29132 0.78313 0.55128 0.0
C42 C 0.3169 0.7832 0.57775 0.0
C43 C 0.32144 0.7484 0.59502 0.0
C44 C 0.30207 0.71375 0.58626 0.0
C45 C 0.27716 0.71392 0.55963 0.0
O46 O 0.21219 0.81194 0.44896 0.0
O47 O 0.18362 0.75683 0.43131 0.0
O48 O 0.27291 0.8268 0.38248 0.0
O49 O 0.24246 0.77242 0.38834 0.0
C50 C 0.25241 0.79966 0.36811 0.0
O51 O 0.28346 0.70279 0.4312 0.0
O52 O 0.31859 0.75951 0.43699 0.0
O53 O 0.2226 0.71712 0.50874 0.0
O54 O 0.25504 0.76704 0.48851 0.0
H55 H 0.28709 0.80986 0.53784 0.0
H56 H 0.3409 0.74813 0.6154 0.0
H57 H 0.26201 0.68721 0.5529 0.0
O58 O 0.42936 0.06047 0.65442 0.0
Tb59 Tb 0.48002 0.02457 0.6564 0.0
Eu60 Eu 0.52154 0.97322 0.71335 0.0
C61 C 0.39921 0.05579 0.67347 0.0
O62 O 0.40027 0.0304 0.697 0.0
C63 C 0.45589 0.93909 0.66649 0.0
O64 O 0.5715 0.93132 0.71588 0.0
C65 C 0.48252 0.98964 0.76519 0.0
C66 C 0.59163 0.93117 0.68907 0.0
O67 O 0.58085 0.9554 0.66641 0.0
C68 C 0.55357 0.05577 0.68933 0.0
C69 C 0.48405 0.01565 0.79374 0.0
C70 C 0.44953 0.0327 0.80618 0.0
C71 C 0.45112 0.05732 0.83341 0.0
C72 C 0.48723 0.06342 0.84834 0.0
C73 C 0.52165 0.04683 0.83648 0.0
C74 C 0.51993 0.02321 0.80897 0.0
O75 O 0.44212 0.97472 0.66625 0.0
O76 O 0.4904 0.93253 0.67888 0.0
O77 O 0.48677 0.0449 0.60735 0.0
O78 O 0.51357 0.99131 0.6209 0.0
C79 C 0.50767 0.01561 0.59742 0.0
O80 O 0.56393 0.02073 0.69845 0.0
O81 O 0.51661 0.06325 0.68475 0.0
O82 O 0.50896 0.96173 0.76341 0.0
O83 O 0.47549 0.00633 0.73737 0.0
H84 H 0.42182 0.02733 0.79445 0.0
H85 H 0.48865 0.08221 0.86925 0.0
H86 H 0.54651 0.01055 0.7995 0.0
O87 O 0.1828 0.1443 0.95227 0.0
Tb88 Tb 0.21559 0.1906 0.92958 0.0
Eu89 Eu 0.25896 0.26156 0.96483 0.0
C90 C 0.19375 0.12636 0.97871 0.0
O91 O 0.22759 0.13426 0.99198 0.0
C92 C 0.3036 0.18976 0.93556 0.0
O93 O 0.29157 0.3188 0.96742 0.0
C94 C 0.23703 0.2304 1.01884 0.0
C95 C 0.29317 0.33799 0.9402 0.0
O96 O 0.27483 0.32301 0.91541 0.0
C97 C 0.17702 0.27249 0.92931 0.0
C98 C 0.20899 0.23453 0.04572 0.0
C99 C 0.19186 0.20076 0.05945 0.0
C100 C 0.16737 0.20401 0.08642 0.0
C101 C 0.15953 0.24112 0.09903 0.0
C102 C 0.17585 0.27511 0.08559 0.0
C103 C 0.20055 0.27161 0.05879 0.0
O104 O 0.27247 0.17107 0.94572 0.0
O105 O 0.30385 0.22807 0.9367 0.0
O106 O 0.21106 0.16516 0.88148 0.0
O107 O 0.23993 0.22037 0.88859 0.0
C108 C 0.23021 0.1938 0.86764 0.0
O109 O 0.2108 0.28857 0.93614 0.0
O110 O 0.17043 0.23524 0.93546 0.0
O111 O 0.26498 0.25695 1.01644 0.0
O112 O 0.22287 0.21942 0.99096 0.0
H113 H 0.19817 0.17206 0.04965 0.0
H114 H 0.13947 0.24345 0.11905 0.0
H115 H 0.21363 0.29762 0.04841 0.0
O116 O 0.04358 0.02419 0.85986 0.0
Tb117 Tb 0.01032 0.99471 0.897 0.0
Eu118 Eu -0.0032 0.99019 0.82164 0.0
C119 C 0.07511 0.04419 0.8664 0.0
O120 O 0.09636 0.05886 0.84311 0.0
C121 C 0.03241 0.92346 0.86651 0.0
O122 O 0.95242 0.94084 0.82533 0.0
C123 C 0.02017 0.00947 0.76433 0.0
C124 C 0.91903 0.94481 0.84066 0.0
O125 O 0.90695 0.97981 0.84865 0.0
C126 C 0.94767 0.04632 0.8711 0.0
C127 C 0.01763 0.04059 0.73934 0.0
C128 C 0.05084 0.06385 0.73105 0.0
C129 C 0.04907 0.09057 0.70523 0.0
C130 C 0.01497 0.09152 0.68708 0.0
C131 C 0.98092 0.07201 0.69655 0.0
C132 C 0.98245 0.0459 0.72232 0.0
O133 O 0.00405 0.93432 0.88528 0.0
O134 O 0.04145 0.94716 0.84261 0.0
O135 O 0.05329 0.97946 0.9335 0.0
O136 O 0.00568 0.01593 0.94608 0.0
C137 C 0.03648 -0.00175 0.95674 0.0
O138 O 0.96652 0.04438 0.84341 0.0
O139 O 0.95382 0.02013 0.89327 0.0
O140 O 0.98869 0.98814 0.77009 0.0
O141 O 0.04057 0.01718 0.79027 0.0
H142 H 0.07764 0.06121 0.74456 0.0
H143 H 0.01447 0.10905 0.66549 0.0
H144 H 0.95626 0.03001 0.72913 0.0
O145 O 0.17682 0.85228 0.09695 0.0
Tb146 Tb 0.20901 0.80366 0.11705 0.0
Eu147 Eu 0.26324 0.73542 0.08771 0.0
C148 C 0.19527 0.88198 0.0835 0.0
O149 O 0.22349 0.87497 0.06304 0.0
C150 C 0.29766 0.8148 0.1112 0.0
O151 O 0.30269 0.68451 0.09722 0.0
C152 C 0.24662 0.7564 0.02942 0.0
C153 C 0.30361 0.67537 0.1278 0.0
O154 O 0.28243 0.69633 0.14766 0.0
C155 C 0.17877 0.7177 0.11667 0.0
C156 C 0.22029 0.7515 1.00126 0.0
C157 C 0.19735 0.78343 0.99084 0.0
C158 C 0.17489 0.78063 0.96265 0.0
C159 C 0.175 0.74545 0.94545 0.0
C160 C 0.19761 0.71348 0.955 0.0
C161 C 0.22014 0.7166 0.98306 0.0
O162 O 0.26462 0.82769 0.09956 0.0
O163 O 0.30233 0.7771 0.11438 0.0
O164 O 0.19337 0.82594 0.16465 0.0
O165 O 0.23994 0.78514 0.15993 0.0
C166 C 0.22005 0.80639 0.17989 0.0
O167 O 0.21477 0.70562 0.11413 0.0
O168 O 0.16942 0.75373 0.10866 0.0
O169 O 0.27144 0.7282 0.0363 0.0
O170 O 0.23242 0.77406 0.05495 0.0
H171 H 0.19768 0.81066 1.00424 0.0
H172 H 0.15609 0.74256 0.9248 0.0
H173 H 0.23789 0.69208 0.99039 0.0
O174 O 0.43197 0.92507 0.33584 0.0
Tb175 Tb 0.4801 0.96019 0.35223 0.0
Eu176 Eu 0.54156 0.01565 0.31462 0.0
C177 C 0.4092 0.93465 0.31175 0.0
O178 O 0.4158 0.96709 0.29578 0.0
C179 C 0.46711 0.04947 0.35251 0.0
O180 O 0.5908 0.05903 0.31899 0.0
C181 C 0.5128 -0.00098 0.25859 0.0
C182 C 0.60918 0.05701 0.34657 0.0
O183 O 0.59818 0.02976 0.36684 0.0
C184 C 0.56029 0.93035 0.3369 0.0
C185 C 0.51216 0.96865 0.23289 0.0
C186 C 0.47603 0.95293 0.22278 0.0
C187 C 0.47424 0.92616 0.19722 0.0
C188 C 0.5087 0.91535 0.18155 0.0
C189 C 0.54546 0.92905 0.19195 0.0
C190 C 0.54674 0.95597 0.21774 0.0
O191 O 0.45005 0.01577 0.34618 0.0
O192 O 0.50436 0.05469 0.34591 0.0
O193 O 0.47027 0.93607 0.40001 0.0
O194 O 0.51304 0.98111 0.39357 0.0
C195 C 0.49615 0.95814 0.4143 0.0
O196 O 0.57394 0.96603 0.33689 0.0
O197 O 0.52392 0.92482 0.32856 0.0
O198 O 0.54498 0.01993 0.26264 0.0
O199 O 0.49504 0.99028 0.28565 0.0
H200 H 0.44928 0.96155 0.2347 0.0
H201 H 0.50648 0.8955 0.16137 0.0
H202 H 0.57456 0.96672 0.22642 0.0
O203 O 0.22388 0.18697 0.58426 0.0
Tb204 Tb 0.25866 0.21702 0.62099 0.0
Eu205 Eu 0.23478 0.27622 0.5594 0.0
C206 C 0.23226 0.15164 0.57443 0.0
O207 O 0.20881 0.13278 0.55486 0.0
C208 C 0.18005 0.2509 0.6154 0.0
O209 O 0.21934 0.33979 0.55513 0.0
C210 C 0.25701 0.24042 0.50723 0.0
C211 C 0.18277 0.35033 0.55231 0.0
O212 O 0.15706 0.32434 0.54238 0.0
C213 C 0.31415 0.28207 0.60229 0.0
C214 C 0.28444 0.2392 0.47939 0.0
C215 C 0.30491 0.20417 0.47201 0.0
C216 C 0.32853 0.20167 0.44425 0.0
C217 C 0.33007 0.23384 0.42365 0.0
C218 C 0.30986 0.26841 0.43014 0.0
C219 C 0.28769 0.2714 0.45836 0.0
O220 O 0.21303 0.25856 0.6296 0.0
O221 O 0.1809 0.25059 0.58398 0.0
O222 O 0.2639 0.16893 0.65577 0.0
O223 O 0.26433 0.22828 0.67155 0.0
C224 C 0.26594 0.19207 0.68065 0.0
O225 O 0.28435 0.30086 0.58977 0.0
O226 O 0.31292 0.24383 0.60546 0.0
O227 O 0.23035 0.26817 0.5079 0.0
O228 O 0.2704 0.23151 0.53582 0.0
H229 H 0.30241 0.1791 0.48774 0.0
H230 H 0.34742 0.23199 0.40195 0.0
H231 H 0.27216 0.2983 0.46333 0.0
O232 O 0.67478 0.34288 0.59836 0.0
Tb233 Tb 0.71683 0.3001 0.61206 0.0
Eu234 Eu 0.771 0.24394 0.57772 0.0
C235 C 0.67786 0.36678 0.57375 0.0
O236 O 0.7093 0.367 0.55573 0.0
C237 C 0.80138 0.324 0.60435 0.0
O238 O 0.81958 0.20059 0.57418 0.0
C239 C 0.7469 0.27199 0.52317 0.0
C240 C 0.81679 0.16585 0.58753 0.0
O241 O 0.78217 0.15065 0.59316 0.0
C242 C 0.69022 0.2155 0.60364 0.0
C243 C 0.71826 0.26596 0.49687 0.0
C244 C 0.69357 0.29688 0.48716 0.0
C245 C 0.66726 0.29158 0.46151 0.0
C246 C 0.66677 0.25566 0.44535 0.0
C247 C 0.69181 0.22517 0.45385 0.0
C248 C 0.71707 0.23025 0.47995 0.0
O249 O 0.76639 0.33506 0.59581 0.0
O250 O 0.80868 0.28644 0.60575 0.0
O251 O 0.70105 0.31308 0.66183 0.0
O252 O 0.7484 0.2745 0.65213 0.0
C253 C 0.7281 0.29144 0.67456 0.0
O254 O 0.72712 0.20592 0.60353 0.0
O255 O 0.68081 0.2513 0.59578 0.0
O256 O 0.77531 0.2464 0.52589 0.0
O257 O 0.73346 0.28393 0.55098 0.0
H258 H 0.69476 0.3248 0.49949 0.0
H259 H 0.64662 0.2515 0.42564 0.0
H260 H 0.7363 0.20659 0.48665 0.0
O261 O 0.81939 0.68159 0.19783 0.0
Tb262 Tb 0.80055 0.72041 0.16058 0.0
Eu263 Eu 0.77343 0.74638 0.08095 0.0
C264 C 0.79405 0.66897 0.21923 0.0
O265 O 0.75842 0.68287 0.21932 0.0
C266 C 0.7344 0.67445 0.12469 0.0
O267 O 0.72152 0.78661 0.08605 0.0
C268 C 0.79289 0.72539 0.02286 0.0
C269 C 0.72236 0.81738 0.10521 0.0
O270 O 0.75569 0.82868 0.11773 0.0
C271 C 0.85082 0.77002 0.1188 0.0
C272 C 0.82121 0.72932 0.99562 0.0
C273 C 0.83935 0.69558 0.98251 0.0
C274 C 0.86431 0.69848 0.95555 0.0
C275 C 0.87036 0.73542 0.94179 0.0
C276 C 0.85142 0.76905 0.95321 0.0
C277 C 0.82731 0.76581 0.9805 0.0
O278 O 0.76424 0.6727 0.14424 0.0
O279 O 0.73128 0.70106 0.10193 0.0
O280 O 0.80219 0.7663 0.19652 0.0
O281 O 0.74965 0.75688 0.17075 0.0
C282 C 0.76594 0.77694 0.19389 0.0
O283 O 0.82038 0.78442 0.10399 0.0
O284 O 0.84879 0.73415 0.12922 0.0
O285 O 0.76994 0.75524 0.02949 0.0
O286 O 0.80382 0.70602 0.04858 0.0
H287 H 0.83386 0.66716 0.99314 0.0
H288 H 0.88958 0.73781 0.92128 0.0
H289 H 0.81231 0.79147 0.98937 0.0
O290 O 0.80669 0.33763 0.93409 0.0
Tb291 Tb 0.76746 0.28915 0.92626 0.0
Eu292 Eu 0.71581 0.22966 0.97263 0.0
C293 C 0.79567 0.37324 0.92681 0.0
O294 O 0.75828 0.38151 0.92733 0.0
C295 C 0.68507 0.30722 0.94452 0.0
O296 O 0.67553 0.17835 0.9655 0.0
C297 C 0.7307 0.2558 0.02983 0.0
C298 C 0.67716 0.16399 0.93627 0.0
O299 O 0.70122 0.18068 0.91584 0.0
C300 C 0.79928 0.20452 0.94228 0.0
C301 C 0.75801 0.25099 0.0571 0.0
C302 C 0.77885 0.28399 0.06878 0.0
C303 C 0.80558 0.28004 0.09407 0.0
C304 C 0.81019 0.24342 0.10827 0.0
C305 C 0.78949 0.21044 0.09755 0.0
C306 C 0.76373 0.21417 0.07158 0.0
O307 O 0.72056 0.31804 0.95201 0.0
O308 O 0.67738 0.26969 0.94376 0.0
O309 O 0.77769 0.30516 0.87635 0.0
O310 O 0.7292 0.26843 0.88756 0.0
C311 C 0.74802 0.28614 0.8646 0.0
O312 O 0.76549 0.19345 0.95413 0.0
O313 O 0.80763 0.24128 0.93574 0.0
O314 O 0.70509 0.22759 0.02402 0.0
O315 O 0.7455 0.2715 1.00368 0.0
H316 H 0.77503 0.31237 0.0577 0.0
H317 H 0.83114 0.24044 0.12753 0.0
H318 H 0.74829 0.18855 0.06278 0.0
O319 O 0.66686 0.67791 0.44248 0.0
Tb320 Tb 0.70608 0.72308 0.4262 0.0
Eu321 Eu 0.76955 0.76823 0.47631 0.0
C322 C 0.67743 0.65074 0.46289 0.0
O323 O 0.71359 0.64938 0.47313 0.0
C324 C 0.7948 0.7045 0.42398 0.0
O325 O 0.8185 0.81092 0.48534 0.0
C326 C 0.74968 0.72304 0.52396 0.0
C327 C 0.81598 0.84757 0.47584 0.0
O328 O 0.78143 0.86344 0.47264 0.0
C329 C 0.68882 0.80261 0.4556 0.0
C330 C 0.72477 0.72397 0.55296 0.0
C331 C 0.7052 0.68993 0.56386 0.0
C332 C 0.68224 0.69131 0.59191 0.0
C333 C 0.67797 0.72703 0.60805 0.0
C334 C 0.69671 0.76123 0.59731 0.0
C335 C 0.72062 0.75915 0.57001 0.0
O336 O 0.75976 0.68896 0.42654 0.0
O337 O 0.80283 0.73877 0.4367 0.0
O338 O 0.6782 0.71854 0.37933 0.0
O339 O 0.72015 0.76383 0.38765 0.0
C340 C 0.6964 0.74844 0.36671 0.0
O341 O 0.72522 0.81212 0.46085 0.0
O342 O 0.67847 0.76574 0.45709 0.0
O343 O 0.78061 0.74617 0.52413 0.0
O344 O 0.73163 0.72274 0.49622 0.0
H345 H 0.70813 0.6626 0.55084 0.0
H346 H 0.65827 0.72824 0.62835 0.0
H347 H 0.73587 0.7851 0.56171 0.0
O348 O 0.56838 0.4253 0.73074 0.0
Tb349 Tb 0.5336 0.46306 0.7002 0.0
Eu350 Eu 0.47527 0.51884 0.72683 0.0
C351 C 0.59294 0.3998 0.71906 0.0
O352 O 0.61373 0.37802 0.73835 0.0
C353 C 0.55449 0.54839 0.70041 0.0
O354 O 0.42594 0.56096 0.72024 0.0
C355 C 0.50308 0.50522 0.78362 0.0
C356 C 0.41112 0.5593 0.69125 0.0
O357 O 0.42636 0.53429 0.67088 0.0
C358 C 0.44781 0.43348 0.70156 0.0
C359 C 0.4993 0.48048 0.81254 0.0
C360 C 0.53161 0.45848 0.82299 0.0
C361 C 0.5285 0.43438 0.85008 0.0
C362 C 0.49288 0.43187 0.86636 0.0
C363 C 0.4602 0.45324 0.85622 0.0
C364 C 0.46397 0.4781 0.82956 0.0
O365 O 0.56526 0.51587 0.71425 0.0
O366 O 0.5171 0.55403 0.69629 0.0
O367 O 0.55585 0.45814 0.65163 0.0
O368 O 0.50333 0.49035 0.66057 0.0
C369 C 0.52844 0.47945 0.63887 0.0
O370 O 0.43783 0.46992 0.70712 0.0
O371 O 0.48434 0.42257 0.70459 0.0
O372 O 0.4762 0.53188 0.77797 0.0
O373 O 0.51533 0.48739 0.7576 0.0
H374 H 0.55898 0.45983 0.80993 0.0
H375 H 0.49033 0.41141 0.88605 0.0
H376 H 0.43915 0.49498 0.82162 0.0
O377 O 0.92046 0.49045 0.15074 0.0
Tb378 Tb 0.97894 0.48106 0.13204 0.0
Eu379 Eu 0.00324 0.48142 0.21703 0.0
C380 C 0.91755 0.50775 0.17866 0.0
O381 O 0.94961 0.51988 0.19242 0.0
C382 C 0.96958 0.4145 0.17446 0.0
O383 O 0.05418 0.44164 0.20715 0.0
C384 C 0.98718 0.4908 0.27756 0.0
C385 C 0.0761 0.44778 0.18171 0.0
O386 O 0.06936 0.47859 0.1639 0.0
C387 C 0.02283 0.55455 0.16509 0.0
C388 C 0.98589 0.51879 0.30487 0.0
C389 C 0.95136 0.53964 0.31212 0.0
C390 C 0.9497 0.56458 0.33897 0.0
C391 C 0.9825 0.56772 0.35885 0.0
C392 C 0.01679 0.54688 0.35249 0.0
C393 C 0.01819 0.52234 0.32546 0.0
O394 O -0.00336 0.42873 0.15599 0.0
O395 O 0.95919 0.43648 0.19867 0.0
O396 O 0.95037 0.47064 0.08606 0.0
O397 O 0.01236 0.46736 0.08933 0.0
C398 C 0.98252 0.46376 0.07041 0.0
O399 O 0.02421 0.53932 0.19438 0.0
O400 O 0.00692 0.53731 0.13992 0.0
O401 O 0.02141 0.47891 0.26701 0.0
O402 O 0.96154 0.49544 0.2546 0.0
H403 H 0.92593 0.53664 0.29693 0.0
H404 H 0.98138 0.58708 0.3794 0.0
H405 H 0.04437 0.50565 0.32066 0.0
O406 O 0.54572 0.51017 0.35007 0.0
Tb407 Tb 0.50912 0.49849 0.39188 0.0
Eu408 Eu 0.48801 0.48615 0.3187 0.0
C409 C 0.58372 0.51458 0.35107 0.0
O410 O 0.60366 0.51524 0.32419 0.0
C411 C 0.50956 0.41961 0.36922 0.0
O412 O 0.43014 0.46184 0.33491 0.0
C413 C 0.50753 0.48646 0.25847 0.0
C414 C 0.4178 0.42643 0.3279 0.0
O415 O 0.43675 0.40555 0.30656 0.0
C416 C 0.45692 0.55916 0.36105 0.0
C417 C 0.51151 0.51285 0.23029 0.0
C418 C 0.54883 0.5264 0.22069 0.0
C419 C 0.55337 0.55199 0.19443 0.0
C420 C 0.51986 0.56329 0.17765 0.0
C421 C 0.48268 0.54919 0.18604 0.0
C422 C 0.47871 0.52393 0.2124 0.0
O423 O 0.48682 0.44022 0.38759 0.0
O424 O 0.52218 0.43667 0.34288 0.0
O425 O 0.54985 0.48175 0.42978 0.0
O426 O 0.50778 0.52582 0.43901 0.0
C427 C 0.5357 0.50529 0.45134 0.0
O428 O 0.47296 0.54916 0.33337 0.0
O429 O 0.46053 0.53693 0.38628 0.0
O430 O 0.47222 0.47672 0.26859 0.0
O431 O 0.53241 0.49252 0.28195 0.0
H432 H 0.57434 0.51695 0.23378 0.0
H433 H 0.52234 0.58483 0.15876 0.0
H434 H 0.45001 0.51313 0.21903 0.0
O435 O 0.95042 0.45201 0.77764 0.0
Tb436 Tb 0.9801 0.4638 0.82279 0.0
Eu437 Eu 0.05287 0.51614 0.79846 0.0
C438 C 0.91619 0.43497 0.77531 0.0
O439 O 0.89929 0.43137 0.74731 0.0
C440 C 0.98348 0.552 0.84064 0.0
O441 O 0.1023 0.55785 0.80914 0.0
C442 C 0.02547 0.51683 0.74027 0.0
C443 C 0.12057 0.55155 0.83634 0.0
O444 O 0.11104 0.52016 0.85278 0.0
C445 C 0.06368 0.42576 0.81964 0.0
C446 C 0.01863 0.49228 0.71101 0.0
C447 C 0.98203 0.47371 0.70593 0.0
C448 C 0.97493 0.4516 0.67809 0.0
C449 C 0.00375 0.4495 0.65461 0.0
C450 C 0.03985 0.46851 0.6583 0.0
C451 C 0.04746 0.48942 0.68679 0.0
O452 O 0.96157 0.52462 0.82767 0.0
O453 O 0.02132 0.55208 0.83573 0.0
O454 O 0.94386 0.43875 0.86052 0.0
O455 O 0.00021 0.46401 0.87144 0.0
C456 C 0.96927 0.44664 0.88306 0.0
O457 O 0.07997 0.46013 0.81491 0.0
O458 O 0.02586 0.42013 0.81629 0.0
O459 O 0.06165 0.527 0.74744 0.0
O460 O 0.00389 0.50956 0.76575 0.0
H461 H 0.95882 0.47696 0.72318 0.0
H462 H -0.00167 0.43155 0.63359 0.0
H463 H 0.07546 0.50387 0.68978 0.0
H464 H 0.00091 0.034 1.00591 0.0
H465 H 0.09504 0.95538 0.98324 0.0
H466 H 0.1057 0.94341 0.04032 0.0
H467 H 0.08506 0.95244 0.09674 0.0
H468 H 0.98902 0.02955 0.11802 0.0
H469 H 0.98226 0.04505 0.06148 0.0
C470 C 0.02412 0.01469 1.01353 0.0
C471 C 0.04702 0.99542 0.99066 0.0
C472 C 0.02949 0.00747 0.04614 0.0
C473 C 0.07708 0.97053 1.00063 0.0
C474 C 0.08306 0.96359 0.03321 0.0
C475 C 0.06282 0.97269 0.08887 0.0
C476 C 0.03736 0.98959 0.11131 0.0
C477 C 0.0589 0.98132 0.05618 0.0
C478 C 0.00867 0.01586 0.10104 0.0
C479 C 0.00488 0.0249 0.06877 0.0
H480 H 0.29191 0.82961 0.31735 0.0
H481 H 0.18473 0.77141 0.34395 0.0
H482 H 0.16326 0.77149 0.28812 0.0
H483 H 0.17627 0.78576 0.23115 0.0
H484 H 0.28673 0.83654 0.20393 0.0
H485 H 0.30578 0.84211 0.26027 0.0
C486 C 0.26383 0.81718 0.3108 0.0
C487 C 0.23986 0.80056 0.33447 0.0
C488 C 0.25238 0.81602 0.27851 0.0
C489 C 0.20371 0.78409 0.3259 0.0
C490 C 0.1914 0.78423 0.29405 0.0
C491 C 0.20429 0.7983 0.23778 0.0
C492 C 0.23001 0.81113 0.21383 0.0
C493 C 0.21563 0.79977 0.27009 0.0
C494 C 0.2666 0.82662 0.22226 0.0
C495 C 0.27744 0.82978 0.25438 0.0
H496 H 0.52568 0.01893 0.44802 0.0
H497 H 0.47939 0.90202 0.45854 0.0
H498 H 0.48467 0.90746 0.51688 0.0
H499 H 0.49694 0.94788 0.56498 0.0
H500 H 0.53472 0.06764 0.55394 0.0
H501 H 0.53898 0.05878 0.49584 0.0
C502 C 0.51729 0.99449 0.46313 0.0
C503 C 0.50231 0.96008 0.44919 0.0
C504 C 0.51893 -0.00153 0.49657 0.0
C505 C 0.49096 0.92879 0.46889 0.0
C506 C 0.49398 0.93191 0.50219 0.0
C507 C 0.50698 0.97162 0.54978 0.0
C508 C 0.51617 0.00815 0.56346 0.0
C509 C 0.50723 0.96689 0.51633 0.0
C510 C 0.52797 0.0392 0.54372 0.0
C511 C 0.53016 0.03418 0.51058 0.0
H512 H 0.28556 0.23767 0.7295 0.0
H513 H 0.24096 0.12252 0.70748 0.0
H514 H 0.226 0.11185 0.76451 0.0
H515 H 0.22106 0.13851 0.8202 0.0
H516 H 0.26527 0.255 0.83931 0.0
H517 H 0.28459 0.2621 0.78375 0.0
C518 C 0.27306 0.20996 0.73723 0.0
C519 C 0.26403 0.18103 0.71457 0.0
C520 C 0.26392 0.20462 0.76946 0.0
C521 C 0.2482 0.14514 0.72473 0.0
C522 C 0.23934 0.13927 0.75721 0.0
C523 C 0.23492 0.16532 0.81203 0.0
C524 C 0.24134 0.19636 0.83368 0.0
C525 C 0.24617 0.16931 0.77972 0.0
C526 C 0.25974 0.23081 0.82306 0.0
C527 C 0.27095 0.23491 0.79131 0.0
H528 H 0.79717 0.28838 0.81421 0.0
H529 H 0.67507 0.28278 0.8388 0.0
H530 H 0.65755 0.28575 0.78194 0.0
H531 H 0.67748 0.29057 0.72491 0.0
H532 H 0.79987 0.28817 0.70082 0.0
H533 H 0.81699 0.28765 0.75761 0.0
C534 C 0.76676 0.28764 0.80701 0.0
C535 C 0.73738 0.28561 0.83044 0.0
C536 C 0.75708 0.28794 0.77436 0.0
C537 C 0.69809 0.28421 0.82102 0.0
C538 C 0.68812 0.28604 0.78857 0.0
C539 C 0.70782 0.28983 0.73226 0.0
C540 C 0.73745 0.28965 0.70893 0.0
C541 C 0.71739 0.28802 0.76499 0.0
C542 C 0.77666 0.28819 0.71849 0.0
C543 C 0.78644 0.28799 0.75091 0.0
H544 H 0.69759 0.7498 0.21731 0.0
H545 H 0.7895 0.83372 0.23503 0.0
H546 H 0.77078 0.83724 0.29147 0.0
H547 H 0.73829 0.80533 0.33706 0.0
H548 H 0.65131 0.71595 0.3199 0.0
H549 H 0.65793 0.72546 0.26216 0.0
C550 C 0.71228 0.77021 0.23326 0.0
C551 C 0.74483 0.79153 0.22217 0.0
C552 C 0.70308 0.76994 0.26606 0.0
C553 C 0.76417 0.8173 0.24311 0.0
C554 C 0.75387 0.81879 0.27546 0.0
C555 C 0.72018 0.78858 0.32066 0.0
C556 C 0.69489 0.75949 0.33259 0.0
C557 C 0.72499 0.79345 0.2875 0.0
C558 C 0.67134 0.73819 0.3112 0.0
C559 C 0.67513 0.74361 0.27818 0.0
H560 H 0.49192 0.5343 0.49896 0.0
H561 H 0.5989 0.47243 0.48005 0.0
H562 H 0.60796 0.46185 0.53757 0.0
H563 H 0.58207 0.46563 0.59256 0.0
H564 H 0.47177 0.52174 0.61015 0.0
H565 H 0.46736 0.53975 0.55377 0.0
C566 C 0.51752 0.51903 0.50752 0.0
C567 C 0.54468 0.50401 0.48559 0.0
C568 C 0.52152 0.51163 0.54024 0.0
C569 C 0.57763 0.48409 0.49672 0.0
C570 C 0.58266 0.47788 0.52949 0.0
C571 C 0.55691 0.48122 0.5839 0.0
C572 C 0.5268 0.4913 0.60513 0.0
C573 C 0.55416 0.49053 0.55135 0.0
C574 C 0.49501 0.51309 0.59404 0.0
C575 C 0.49252 0.52345 0.56187 0.0
H576 H 0.92311 0.45305 0.02813 0.0
H577 H 0.04871 0.45308 0.03652 0.0
H578 H 0.05516 0.44277 0.97907 0.0
H579 H 0.02562 0.44009 0.9263 0.0
H580 H 0.90049 0.44103 0.91627 0.0
H581 H 0.89302 0.44363 0.97471 0.0
C582 C 0.95178 0.45046 1.01729 0.0
C583 C 0.98542 0.45442 0.03623 0.0
C584 C 0.95528 0.44461 0.98414 0.0
C585 C 0.02246 0.45056 0.02223 0.0
C586 C 0.02618 0.44462 0.98945 0.0
C587 C -0.00329 0.44028 0.93699 0.0
C588 C 0.96363 0.44069 0.9174 0.0
C589 C 0.99287 0.44252 0.97018 0.0
C590 C 0.92627 0.44046 0.93119 0.0
C591 C 0.92209 0.44236 0.96448 0.0
H592 H 0.17811 0.17887 0.14701 0.0
H593 H 0.11316 0.15389 0.06116 0.0
H594 H 0.07152 0.10757 0.09071 0.0
H595 H 0.05018 0.07879 0.14235 0.0
H596 H 0.11821 0.1004 0.22723 0.0
H597 H 0.16193 0.14384 0.19695 0.0
C598 C 0.15537 0.16253 0.13469 0.0
C599 C 0.14863 0.16964 0.102 0.0
C600 C 0.1316 0.13621 0.15189 0.0
C601 C 0.11907 0.14854 0.08622 0.0
C602 C 0.09501 0.12247 0.10322 0.0
C603 C 0.07454 0.0932 0.15414 0.0
C604 C 0.08044 0.08751 0.18715 0.0
C605 C 0.10031 0.11696 0.13627 0.0
C606 C 0.11278 0.10508 0.202 0.0
C607 C 0.13782 0.12971 0.18466 0.0
H608 H 0.0434 0.86892 0.35847 0.0
H609 H 0.11354 0.97319 0.36943 0.0
H610 H 0.16461 0.9348 0.39597 0.0
H611 H 0.18588 0.8725 0.42047 0.0
H612 H 0.11338 0.76926 0.41058 0.0
H613 H 0.06605 0.80657 0.37979 0.0
C614 C 0.07028 0.88306 0.36614 0.0
C615 C 0.07484 0.92373 0.36213 0.0
C616 C 0.09841 0.8612 0.38235 0.0
C617 C 0.10965 0.94185 0.37203 0.0
C618 C 0.13847 0.91999 0.3876 0.0
C619 C 0.15955 0.85826 0.41182 0.0
C620 C 0.15277 0.81826 0.4184 0.0
C621 C 0.13254 0.87988 0.39381 0.0
C622 C 0.11903 0.80005 0.40628 0.0
C623 C 0.09208 0.8213 0.38848 0.0
H624 H 0.39248 0.78687 0.59734 0.0
H625 H 0.29173 0.85972 0.58277 0.0
H626 H 0.32589 0.91487 0.60839 0.0
H627 H 0.38308 0.94086 0.63857 0.0
H628 H 0.48109 0.86476 0.65579 0.0
H629 H 0.44866 0.81219 0.62658 0.0
C630 C 0.37774 0.81473 0.59985 0.0
C631 C 0.33921 0.81877 0.58851 0.0
C632 C 0.39686 0.84562 0.61574 0.0
C633 C 0.32133 0.85562 0.59111 0.0
C634 C 0.34073 0.88706 0.60614 0.0
C635 C 0.39727 0.91272 0.63605 0.0
C636 C 0.4345 0.90687 0.64975 0.0
C637 C 0.37822 0.88214 0.61923 0.0
C638 C 0.45242 0.87021 0.64593 0.0
C639 C 0.43397 0.84007 0.62901 0.0
H640 H 0.30225 0.11481 0.91085 0.0
H641 H 0.37412 0.21888 0.91746 0.0
H642 H 0.42312 0.18875 0.88323 0.0
H643 H 0.44641 0.13316 0.85212 0.0
H644 H 0.37784 0.02712 0.84669 0.0
H645 H 0.326 0.05824 0.87846 0.0
C646 C 0.32886 0.13068 0.90512 0.0
C647 C 0.33459 0.16903 0.91717 0.0
C648 C 0.35714 0.11314 0.88503 0.0
C649 C 0.36895 0.18934 0.90888 0.0
C650 C 0.39696 0.17221 0.88908 0.0
C651 C 0.4201 0.11673 0.85782 0.0
C652 C 0.41631 0.07761 0.84729 0.0
C653 C 0.39138 0.13423 0.87704 0.0
C654 C 0.38153 0.05726 0.85428 0.0
C655 C 0.35213 0.07493 0.87284 0.0
H656 H 0.16997 0.80819 0.90173 0.0
H657 H 0.12275 0.82534 0.99645 0.0
H658 H 0.07379 0.8701 0.97481 0.0
H659 H 0.04172 0.90044 0.92852 0.0
H660 H 0.09046 0.88548 0.83397 0.0
H661 H 0.1408 0.84251 0.85588 0.0
C662 C 0.14914 0.82199 0.91769 0.0
C663 C 0.14985 0.81314 0.95069 0.0
C664 C 0.1208 0.84721 0.90498 0.0
C665 C 0.12305 0.83175 0.97108 0.0
C666 C 0.09475 0.85696 0.95861 0.0
C667 C 0.06326 0.88779 0.91258 0.0
C668 C 0.06193 0.89585 0.87943 0.0
C669 C 0.09281 0.86415 0.92552 0.0
C670 C 0.09053 0.87951 0.85942 0.0
C671 C 0.11944 0.85513 0.872 0.0
H672 H 0.4249 0.94309 0.14788 0.0
H673 H 0.44258 0.86271 0.22566 0.0
H674 H 0.38942 0.82097 0.20588 0.0
H675 H 0.34135 0.80482 0.16422 0.0
H676 H 0.31938 0.88696 0.08841 0.0
H677 H 0.37066 0.93057 0.10941 0.0
C678 C 0.41639 0.91687 0.16077 0.0
C679 C 0.43734 0.90595 0.18827 0.0
C680 C 0.38558 0.89306 0.14925 0.0
C681 C 0.4265 0.87177 0.20467 0.0
C682 C 0.39638 0.84778 0.1932 0.0
C683 C 0.34784 0.83229 0.15228 0.0
C684 C 0.32735 0.84226 0.12434 0.0
C685 C 0.37636 0.85764 0.1651 0.0
C686 C 0.33517 0.87844 0.10969 0.0
C687 C 0.36442 0.90337 0.12175 0.0
H688 H 0.40396 0.19931 0.42493 0.0
H689 H 0.30404 0.12451 0.4406 0.0
H690 H 0.33777 0.07037 0.4134 0.0
H691 H 0.39425 0.04608 0.38118 0.0
H692 H 0.49193 0.12399 0.36409 0.0
H693 H 0.46001 0.1752 0.39484 0.0
C694 C 0.38962 0.17101 0.42271 0.0
C695 C 0.35135 0.16614 0.4347 0.0
C696 C 0.40849 0.14076 0.40596 0.0
C697 C 0.33354 0.12908 0.43193 0.0
C698 C 0.35266 0.09829 0.41592 0.0
C699 C 0.40842 0.07435 0.38398 0.0
C700 C 0.44548 0.08105 0.36984 0.0
C701 C 0.3898 0.1041 0.40203 0.0
C702 C 0.46346 0.11781 0.3743 0.0
C703 C 0.44528 0.1472 0.39211 0.0
H704 H 0.04118 0.16667 0.68771 0.0
H705 H 0.12883 0.07794 0.70076 0.0
H706 H 0.17737 0.12073 0.6748 0.0
H707 H 0.19283 0.18088 0.64392 0.0
H708 H 0.10296 0.26553 0.62607 0.0
H709 H 0.05643 0.22588 0.65714 0.0
C710 C 0.07093 0.15647 0.68493 0.0
C711 C 0.08105 0.1186 0.6958 0.0
C712 C 0.09785 0.18017 0.6684 0.0
C713 C 0.12008 0.10673 0.69281 0.0
C714 C 0.1477 0.13105 0.67757 0.0
C715 C 0.16316 0.19069 0.64704 0.0
C716 C 0.15131 0.22613 0.63279 0.0
C717 C 0.1366 0.16734 0.66451 0.0
C718 C 0.1126 0.2383 0.63658 0.0
C719 C 0.08619 0.21575 0.65452 0.0
H720 H 0.89222 0.93865 0.90121 0.0
H721 H 0.90645 0.87312 0.8137 0.0
H722 H 0.88172 0.81395 0.84021 0.0
H723 H 0.85984 0.78055 0.88871 0.0
H724 H 0.85562 0.84376 0.97838 0.0
H725 H 0.87104 0.90457 0.95031 0.0
C726 C 0.88923 0.91151 0.88786 0.0
C727 C 0.90054 0.91016 0.85545 0.0
C728 C 0.8768 0.87733 0.90367 0.0
C729 C 0.8976 0.87474 0.83857 0.0
C730 C 0.88357 0.84101 0.85375 0.0
C731 C 0.86285 0.80739 0.90242 0.0
C732 C 0.85716 0.80706 0.93593 0.0
C733 C 0.87385 0.84183 0.88644 0.0
C734 C 0.85954 0.8428 0.95268 0.0
C735 C 0.86877 0.87763 0.93666 0.0
H736 H 0.83039 0.09192 0.61034 0.0
H737 H 0.87797 0.2095 0.60764 0.0
H738 H 0.92843 0.19133 0.64501 0.0
H739 H 0.95847 0.14368 0.6789 0.0
H740 H 0.92053 0.02303 0.67671 0.0
H741 H 0.86524 0.04122 0.64238 0.0
C742 C 0.85224 0.11325 0.61763 0.0
C743 C 0.85048 0.15192 0.60603 0.0
C744 C 0.88213 0.1024 0.63885 0.0
C745 C 0.87883 0.1794 0.61572 0.0
C746 C 0.9075 0.16923 0.63745 0.0
C747 C 0.93857 0.12101 0.67055 0.0
C748 C 0.94417 0.08191 0.6797 0.0
C749 C 0.90923 0.13103 0.64921 0.0
C750 C 0.91694 0.05337 0.66992 0.0
C751 C 0.88571 0.0637 0.64996 0.0
H752 H 0.64738 0.05912 0.40284 0.0
H753 H 0.63006 0.12529 0.31618 0.0
H754 H 0.66213 0.18213 0.34077 0.0
H755 H 0.68503 0.21539 0.38945 0.0
H756 H 0.69355 0.15072 0.47779 0.0
H757 H 0.67614 0.09045 0.44966 0.0
C758 C 0.65109 0.08576 0.38905 0.0
C759 C 0.63562 0.08832 0.35795 0.0
C760 C 0.66783 0.1186 0.40378 0.0
C761 C 0.64136 0.12276 0.34027 0.0
C762 C 0.6595 0.15527 0.35439 0.0
C763 C 0.68329 0.18804 0.40252 0.0
C764 C 0.68965 0.18772 0.43583 0.0
C765 C 0.67119 0.15396 0.38657 0.0
C766 C 0.68873 0.15187 0.45221 0.0
C767 C 0.67838 0.11745 0.43618 0.0
H768 H 0.71146 0.8899 0.13128 0.0
H769 H 0.65059 0.78288 0.10704 0.0
H770 H 0.59148 0.80731 0.13271 0.0
H771 H 0.55835 0.85709 0.16436 0.0
H772 H 0.61612 0.9676 0.18361 0.0
H773 H 0.67554 0.943 0.15872 0.0
C774 C 0.68508 0.87216 0.1313 0.0
C775 C 0.68547 0.83462 0.1172 0.0
C776 C 0.65087 0.88664 0.14577 0.0
C777 C 0.65106 0.812 0.11738 0.0
C778 C 0.61729 0.82584 0.13231 0.0
C779 C 0.58334 0.87654 0.16251 0.0
C780 C 0.58208 0.91444 0.17613 0.0
C781 C 0.61698 0.86294 0.14683 0.0
C782 C 0.61589 0.93807 0.17417 0.0
C783 C 0.64997 0.92418 0.15952 0.0
H784 H 0.7949 0.19445 0.16084 0.0
H785 H 0.80563 0.14105 0.06761 0.0
H786 H 0.83875 0.08494 0.09135 0.0
H787 H 0.87463 0.05755 0.13669 0.0
H788 H 0.86982 0.11476 0.2289 0.0
H789 H 0.82472 0.16323 0.20742 0.0
C790 C 0.80387 0.17012 0.14582 0.0
C791 C 0.79848 0.17215 0.11246 0.0
C792 C 0.82478 0.1392 0.15936 0.0
C793 C 0.8094 0.14017 0.09333 0.0
C794 C 0.82884 0.10837 0.10685 0.0
C795 C 0.86332 0.08026 0.15228 0.0
C796 C 0.87612 0.08297 0.18425 0.0
C797 C 0.83832 0.10859 0.13955 0.0
C798 C 0.86082 0.11232 0.20414 0.0
C799 C 0.83503 0.14002 0.19187 0.0
H800 H 0.53724 0.05301 0.90024 0.0
H801 H 0.59064 0.06567 0.80709 0.0
H802 H 0.64694 0.09803 0.83135 0.0
H803 H 0.67533 0.13207 0.87716 0.0
H804 H 0.61865 0.1265 0.96944 0.0
H805 H 0.56885 0.08243 0.94727 0.0
C806 C 0.56135 0.06262 0.88526 0.0
C807 C 0.55932 0.05765 0.85179 0.0
C808 C 0.59258 0.08316 0.89913 0.0
C809 C 0.59136 0.06902 0.83286 0.0
C810 C 0.62337 0.08801 0.84669 0.0
C811 C 0.65236 0.12093 0.89262 0.0
C812 C 0.65024 0.1331 0.92479 0.0
C813 C 0.62338 0.09673 0.87952 0.0
C814 C 0.62065 0.11789 0.94453 0.0
C815 C 0.59219 0.09276 0.93185 0.0
H816 H 0.68219 0.7761 0.66088 0.0
H817 H 0.69122 0.83314 0.56876 0.0
H818 H 0.66734 0.89338 0.59199 0.0
H819 H 0.63399 0.92646 0.63519 0.0
H820 H 0.6137 0.86746 0.72496 0.0
H821 H 0.6516 0.81129 0.70582 0.0
C822 C 0.67884 0.8016 0.64577 0.0
C823 C 0.68813 0.79951 0.61288 0.0
C824 C 0.66254 0.83573 0.65878 0.0
C825 C 0.68493 0.83352 0.59415 0.0
C826 C 0.67072 0.86808 0.60732 0.0
C827 C 0.63815 0.90155 0.65085 0.0
C828 C 0.62045 0.90073 0.68121 0.0
C829 C 0.658 0.86895 0.63916 0.0
C830 C 0.62679 0.86858 0.70136 0.0
C831 C 0.64824 0.83644 0.69034 0.0
H832 H 0.95708 0.88295 0.38547 0.0
H833 H 0.90456 -0.00261 0.38196 0.0
H834 H 0.85214 0.97447 0.41776 0.0
H835 H 0.82322 0.92187 0.45175 0.0
H836 H 0.88348 0.81136 0.45936 0.0
H837 H 0.93271 0.83403 0.42192 0.0
C838 C 0.93473 0.90342 0.39297 0.0
C839 C 0.93536 0.94218 0.3816 0.0
C840 C 0.90671 0.89102 0.41501 0.0
C841 C 0.90487 0.96742 0.39034 0.0
C842 C 0.87525 0.95446 0.41116 0.0
C843 C 0.84752 0.90306 0.44563 0.0
C844 C 0.84946 0.86488 0.45838 0.0
C845 C 0.87632 0.91645 0.42411 0.0
C846 C 0.88117 0.84089 0.45019 0.0
C847 C 0.9092 0.85363 0.42844 0.0
H848 H 0.69056 0.65782 0.65 0.0
H849 H 0.62367 0.64966 0.56308 0.0
H850 H 0.57753 0.60455 0.58922 0.0
H851 H 0.55305 0.5725 0.63863 0.0
H852 H 0.62226 0.5778 0.72451 0.0
H853 H 0.67052 0.61939 0.69725 0.0
C854 C 0.66638 0.64533 0.63661 0.0
C855 C 0.66051 0.65688 0.60466 0.0
C856 C 0.63992 0.61981 0.65192 0.0
C857 C 0.62901 0.64078 0.58754 0.0
C858 C 0.60238 0.61545 0.60265 0.0
C859 C 0.5787 0.58292 0.65131 0.0
C860 C 0.58372 0.57313 0.68378 0.0
C861 C 0.60691 0.60573 0.63512 0.0
C862 C 0.61758 0.5856 0.69971 0.0
C863 C 0.64519 0.6092 0.68408 0.0
H864 H 0.57899 0.44754 0.8989 0.0
H865 H 0.54844 0.36349 0.82604 0.0
H866 H 0.59342 0.31584 0.84939 0.0
H867 H 0.63864 0.29693 0.89256 0.0
H868 H 0.6727 0.38243 0.96335 0.0
H869 H 0.62905 0.43062 0.93918 0.0
C870 C 0.58295 0.41906 0.88785 0.0
C871 C 0.56092 0.409 0.86066 0.0
C872 C 0.60884 0.3919 0.90146 0.0
C873 C 0.56564 0.3719 0.8467 0.0
C874 C 0.59101 0.3446 0.86024 0.0
C875 C 0.63629 0.32607 0.90273 0.0
C876 C 0.65812 0.33594 0.93012 0.0
C877 C 0.61217 0.35399 0.88801 0.0
C878 C 0.65573 0.37409 0.94255 0.0
C879 C 0.63091 0.40165 0.92866 0.0
H880 H 0.88963 0.41745 0.1696 0.0
H881 H 0.98999 0.34774 0.14517 0.0
H882 H 0.94849 0.30199 0.11554 0.0
H883 H 0.88397 0.28137 0.09692 0.0
H884 H 0.78296 0.35084 0.11919 0.0
H885 H 0.82439 0.39804 0.14827 0.0
C886 C 0.90218 0.39193 0.15814 0.0
C887 C 0.94271 0.38537 0.16011 0.0
C888 C 0.87818 0.36634 0.14013 0.0
C889 C 0.95881 0.35288 0.1444 0.0
C890 C 0.93517 0.32696 0.12723 0.0
C891 C 0.87113 0.30719 0.10778 0.0
C892 C 0.83055 0.31275 0.10591 0.0
C893 C 0.89493 0.33349 0.12481 0.0
C894 C 0.8142 0.34626 0.12 0.0
C895 C 0.83783 0.37288 0.13697 0.0
H896 H 0.79181 0.63209 0.39464 0.0
H897 H 0.86852 0.7308 0.41225 0.0
H898 H 0.92092 0.6982 0.38374 0.0
H899 H 0.94668 0.64077 0.35661 0.0
H900 H 0.87299 0.53984 0.34081 0.0
H901 H 0.81745 0.57475 0.36449 0.0
C902 C 0.81997 0.64646 0.39221 0.0
C903 C 0.82613 0.68377 0.40606 0.0
C904 C 0.8505 0.62734 0.37575 0.0
C905 C 0.8628 0.70201 0.40229 0.0
C906 C 0.89291 0.68346 0.38581 0.0
C907 C 0.91842 0.62637 0.35824 0.0
C908 C 0.91419 0.5875 0.34747 0.0
C909 C 0.88727 0.646 0.37287 0.0
C910 C 0.87709 0.56973 0.34892 0.0
C911 C 0.84545 0.58956 0.3628 0.0
H912 H 0.58548 0.42821 0.3857 0.0
H913 H 0.4881 0.3481 0.39158 0.0
H914 H 0.5273 0.30302 0.42375 0.0
H915 H 0.58959 0.28609 0.44929 0.0
H916 H 0.68651 0.36705 0.44532 0.0
H917 H 0.64669 0.41315 0.41464 0.0
C918 C 0.57316 0.40056 0.39369 0.0
C919 C 0.53444 0.39065 0.38547 0.0
C920 C 0.59544 0.37562 0.41319 0.0
C921 C 0.51817 0.35563 0.39692 0.0
C922 C 0.54044 0.33017 0.41557 0.0
C923 C 0.60185 0.31407 0.44204 0.0
C924 C 0.64108 0.32304 0.44946 0.0
C925 C 0.57907 0.33988 0.42386 0.0
C926 C 0.65638 0.35957 0.44021 0.0
C927 C 0.63378 0.38564 0.42224 0.0
H928 H 0.91625 0.46486 0.63604 0.0
H929 H 0.9557 0.38336 0.70721 0.0
H930 H 0.9057 0.33594 0.69037 0.0
H931 H 0.85392 0.31585 0.65251 0.0
H932 H 0.81245 0.39849 0.58282 0.0
H933 H 0.86007 0.44717 0.60164 0.0
C934 C 0.91302 0.43713 0.6484 0.0
C935 C 0.939 0.42781 0.67325 0.0
C936 C 0.88447 0.40992 0.6383 0.0
C937 C 0.93537 0.39144 0.68857 0.0
C938 C 0.90714 0.36418 0.67864 0.0
C939 C 0.85547 0.3445 0.6414 0.0
C940 C 0.83031 0.35333 0.61583 0.0
C941 C 0.88216 0.37271 0.653 0.0
C942 C 0.83183 0.39088 0.60226 0.0
C943 C 0.85896 0.41875 0.61309 0.0
H944 H 0.93903 0.69185 0.93355 0.0
H945 H 0.83092 0.62711 0.94035 0.0
H946 H 0.85772 0.57606 0.90527 0.0
H947 H 0.91078 0.55205 0.86941 0.0
H948 H 0.01765 0.61926 0.86223 0.0
H949 H 0.99199 0.66737 0.89976 0.0
C950 C 0.92126 0.6665 0.92752 0.0
C951 C 0.88275 0.66369 0.93951 0.0
C952 C 0.93641 0.63798 0.90655 0.0
C953 C 0.86067 0.63009 0.93182 0.0
C954 C 0.87586 0.6011 0.91135 0.0
C955 C 0.92833 0.5774 0.87584 0.0
C956 C 0.96607 0.58208 0.86245 0.0
C957 C 0.91341 0.60517 0.89791 0.0
C958 C 0.98852 0.61482 0.87174 0.0
C959 C 0.97391 0.64239 0.89341 0.0
H960 H 0.58059 0.57154 0.13447 0.0
H961 H 0.61424 0.57234 0.23413 0.0
H962 H 0.67447 0.60663 0.22039 0.0
H963 H 0.71436 0.64195 0.18133 0.0
H964 H 0.6786 0.64734 0.08267 0.0
H965 H 0.62149 0.60631 0.09504 0.0
C966 C 0.60082 0.5794 0.15336 0.0
C967 C 0.59226 0.56933 0.18547 0.0
C968 C 0.63479 0.60077 0.14552 0.0
C969 C 0.61981 0.57895 0.20921 0.0
C970 C 0.65421 0.59908 0.20143 0.0
C971 C 0.69467 0.63348 0.16232 0.0
C972 C 0.70119 0.64728 0.131 0.0
C973 C 0.66159 0.61078 0.16981 0.0
C974 C 0.67443 0.63703 0.10693 0.0
C975 C 0.64179 0.61357 0.11403 0.0
H976 H 0.33284 0.3435 0.4421 0.0
H977 H 0.29776 0.2655 0.36602 0.0
H978 H 0.32507 0.31022 0.32629 0.0
H979 H 0.36914 0.36546 0.31421 0.0
H980 H 0.40222 0.44494 0.38996 0.0
H981 H 0.36532 0.4061 0.42858 0.0
C982 C 0.32989 0.33711 0.41677 0.0
C983 C 0.3141 0.30099 0.40699 0.0
C984 C 0.34613 0.3628 0.394 0.0
C985 C 0.31038 0.29298 0.37407 0.0
C986 C 0.32623 0.31837 0.35136 0.0
C987 C 0.36752 0.37466 0.33904 0.0
C988 C 0.38896 0.40749 0.34929 0.0
C989 C 0.34592 0.35237 0.36116 0.0
C990 C 0.38617 0.41956 0.38144 0.0
C991 C 0.36516 0.39728 0.40364 0.0
H992 H 0.41372 0.57238 0.2116 0.0
H993 H 0.47409 0.55998 0.12145 0.0
H994 H 0.42196 0.59531 0.09432 0.0
H995 H 0.36263 0.63601 0.09751 0.0
H996 H 0.30302 0.64713 0.18823 0.0
H997 H 0.35091 0.60532 0.21351 0.0
C998 C 0.41503 0.57639 0.18588 0.0
C999 C 0.448 0.56404 0.1687 0.0
C1000 C 0.38517 0.59687 0.17049 0.0
C1001 C 0.44932 0.56991 0.13537 0.0
C1002 C 0.41951 0.59005 0.11981 0.0
C1003 C 0.35984 0.62871 0.12265 0.0
C1004 C 0.32974 0.64526 0.14101 0.0
C1005 C 0.38784 0.60475 0.13731 0.0
C1006 C 0.3263 0.63533 0.17357 0.0
C1007 C 0.35367 0.61136 0.18815 0.0
H1008 H 0.14956 0.5512 0.89663 0.0
H1009 H 0.1461 0.621 0.8107 0.0
H1010 H 0.17686 0.67562 0.8393 0.0
H1011 H 0.19647 0.70591 0.89011 0.0
H1012 H 0.19264 0.63809 0.97709 0.0
H1013 H 0.17441 0.57981 0.94641 0.0
C1014 C 0.15606 0.57812 0.88392 0.0
C1015 C 0.14506 0.58219 0.85162 0.0
C1016 C 0.17243 0.60975 0.90078 0.0
C1017 C 0.15396 0.61721 0.83558 0.0
C1018 C 0.17146 0.64846 0.85196 0.0
C1019 C 0.19189 0.6783 0.90237 0.0
C1020 C 0.19515 0.67661 0.93599 0.0
C1021 C 0.17949 0.64547 0.88481 0.0
C1022 C 0.19037 0.64033 0.95132 0.0
C1023 C 0.17949 0.60707 0.9338 0.0
H1024 H 0.12231 0.39868 0.53917 0.0
H1025 H 0.21149 0.37591 0.60918 0.0
H1026 H 0.17803 0.41743 0.64798 0.0
H1027 H 0.11668 0.44906 0.6649 0.0
H1028 H 0.0294 0.47489 0.59394 0.0
H1029 H 0.06925 0.44437 0.55253 0.0
C1030 C 0.13499 0.40392 0.56257 0.0
C1031 C 0.16889 0.3839 0.57145 0.0
C1032 C 0.11568 0.428 0.58479 0.0
C1033 C 0.18535 0.39105 0.60175 0.0
C1034 C 0.16605 0.41456 0.6241 0.0
C1035 C 0.10711 0.4494 0.64019 0.0
C1036 C 0.06958 0.46298 0.63271 0.0
C1037 C 0.13021 0.43167 0.61636 0.0
C1038 C 0.05776 0.46355 0.60045 0.0
C1039 C 0.08045 0.44598 0.57674 0.0
H1040 H 0.31138 0.7042 0.65066 0.0
H1041 H 0.31337 0.64074 0.5611 0.0
H1042 H 0.34161 0.58441 0.58785 0.0
H1043 H 0.37531 0.5577 0.634 0.0
H1044 H 0.38082 0.62343 0.72228 0.0
H1045 H 0.34034 0.67466 0.69861 0.0
C1046 C 0.31781 0.67796 0.63702 0.0
C1047 C 0.31097 0.67706 0.60375 0.0
C1048 C 0.33599 0.64641 0.6522 0.0
C1049 C 0.31818 0.64234 0.58667 0.0
C1050 C 0.3348 0.61023 0.6019 0.0
C1051 C 0.36735 0.58301 0.64829 0.0
C1052 C 0.38166 0.5872 0.67966 0.0
C1053 C 0.34533 0.61266 0.63425 0.0
C1054 C 0.37046 0.61976 0.69799 0.0
C1055 C 0.34744 0.64905 0.68442 0.0
H1056 H 0.13783 0.61775 0.44883 0.0
H1057 H 0.21045 0.61162 0.3644 0.0
H1058 H 0.16073 0.57342 0.33686 0.0
H1059 H 0.09255 0.55297 0.33338 0.0
H1060 H 0.01983 0.55637 0.41784 0.0
H1061 H 0.07371 0.58425 0.44863 0.0
C1062 C 0.14317 0.60713 0.42475 0.0
C1063 C 0.17726 0.6185 0.40841 0.0
C1064 C 0.11414 0.58537 0.40874 0.0
C1065 C 0.18402 0.60405 0.37732 0.0
C1066 C 0.15556 0.58222 0.36144 0.0
C1067 C 0.0887 0.55848 0.35876 0.0
C1068 C 0.05174 0.5538 0.37291 0.0
C1069 C 0.11979 0.57438 0.37638 0.0
C1070 C 0.04759 0.56109 0.40596 0.0
C1071 C 0.07844 0.57689 0.42368 0.0
H1072 H 0.10356 0.43846 0.12126 0.0
H1073 H 0.10697 0.38719 0.2155 0.0
H1074 H 0.14342 0.33145 0.19436 0.0
H1075 H 0.16855 0.29465 0.14848 0.0
H1076 H 0.15912 0.34285 0.05344 0.0
H1077 H 0.132 0.40311 0.07569 0.0
C1078 C 0.11286 0.41543 0.13731 0.0
C1079 C 0.10247 0.41685 0.16991 0.0
C1080 C 0.13268 0.38293 0.12481 0.0
C1081 C 0.11445 0.38664 0.1903 0.0
C1082 C 0.13524 0.35478 0.17822 0.0
C1083 C 0.16061 0.31834 0.13258 0.0
C1084 C 0.16533 0.31393 0.09927 0.0
C1085 C 0.14354 0.35215 0.14539 0.0
C1086 C 0.15598 0.34542 0.07916 0.0
C1087 C 0.1401 0.37976 0.09185 0.0
H1088 H 0.44352 0.43837 0.91927 0.0
H1089 H 0.38909 0.44988 0.82653 0.0
H1090 H 0.32866 0.4233 0.8478 0.0
H1091 H 0.29592 0.38495 0.88879 0.0
H1092 H 0.3526 0.36396 0.97916 0.0
H1093 H 0.4073 0.40602 0.96285 0.0
C1094 C 0.41839 0.43528 0.90371 0.0
C1095 C 0.4214 0.44546 0.8711 0.0
C1096 C 0.38421 0.41765 0.91558 0.0
C1097 C 0.38796 0.4426 0.85171 0.0
C1098 C 0.35334 0.42688 0.86376 0.0
C1099 C 0.31991 0.39009 0.90521 0.0
C1100 C 0.32076 0.37065 0.93479 0.0
C1101 C 0.35186 0.41253 0.89509 0.0
C1102 C 0.35151 0.37831 0.95611 0.0
C1103 C 0.3829 0.40211 0.94667 0.0
H1104 H 0.2362 0.88561 0.13737 0.0
H1105 H 0.16186 0.95361 0.07635 0.0
H1106 H 0.14658 -0.0025 0.12109 0.0
H1107 H 0.13813 0.00176 0.1791 0.0
H1108 H 0.19855 0.92128 0.24043 0.0
H1109 H 0.23727 0.89821 0.19484 0.0
C1110 C 0.2179 0.91102 0.13377 0.0
C1111 C 0.19936 0.91628 0.1042 0.0
C1112 C 0.2065 0.93343 0.16014 0.0
C1113 C 0.17598 0.94913 0.09919 0.0
C1114 C 0.16704 0.97386 0.12482 0.0
C1115 C 0.16108 0.98037 0.1825 0.0
C1116 C 0.16565 0.96283 0.21259 0.0
C1117 C 0.17961 0.96421 0.15578 0.0
C1118 C 0.19489 0.93504 0.2173 0.0
C1119 C 0.21644 0.92146 0.19119 0.0
H1120 H 0.39142 0.85877 0.32057 0.0
H1121 H 0.33793 0.97046 0.30554 0.0
H1122 H 0.29484 0.95973 0.35137 0.0
H1123 H 0.28986 0.92945 0.40508 0.0
H1124 H 0.35655 0.82587 0.42545 0.0
H1125 H 0.38023 0.82384 0.37019 0.0
C1126 C 0.36886 0.87977 0.32658 0.0
C1127 C 0.37018 0.91681 0.3123 0.0
C1128 C 0.34952 0.87628 0.35588 0.0
C1129 C 0.33911 0.9426 0.31783 0.0
C1130 C 0.3155 0.93716 0.3448 0.0
C1131 C 0.30947 0.90654 0.39715 0.0
C1132 C 0.32191 0.87797 0.41876 0.0
C1133 C 0.32361 0.9062 0.36573 0.0
C1134 C 0.34699 0.84804 0.40878 0.0
C1135 C 0.36011 0.84669 0.37727 0.0
H1136 H 0.23529 0.09017 0.61437 0.0
H1137 H 0.30556 0.17498 0.56374 0.0
H1138 H 0.36294 0.15617 0.59412 0.0
H1139 H 0.39215 0.11763 0.63566 0.0
H1140 H 0.32444 0.03065 0.68637 0.0
H1141 H 0.26584 0.05001 0.65678 0.0
C1142 C 0.26356 0.10342 0.60952 0.0
C1143 C 0.26695 0.13344 0.58692 0.0
C1144 C 0.29611 0.0932 0.6278 0.0
C1145 C 0.30292 0.15164 0.58107 0.0
C1146 C 0.33544 0.14125 0.59863 0.0
C1147 C 0.36452 0.10298 0.64041 0.0
C1148 C 0.36244 0.07261 0.66273 0.0
C1149 C 0.33209 0.11269 0.62239 0.0
C1150 C 0.32647 0.05436 0.66927 0.0
C1151 C 0.29328 0.06484 0.65197 0.0
H1152 H 0.11796 0.11984 0.99501 0.0
H1153 H 0.2206 0.05128 0.97894 0.0
H1154 H 0.18568 0.01041 0.9404 0.0
H1155 H 0.13612 0.01352 0.89747 0.0
H1156 H 0.03717 0.08961 0.90869 0.0
H1157 H 0.06052 0.11011 0.96154 0.0
C1158 C 0.13172 0.09432 0.98442 0.0
C1159 C 0.1723 0.09061 0.98675 0.0
C1160 C 0.11278 0.0747 0.95944 0.0
C1161 C 0.18963 0.05606 0.97558 0.0
C1162 C 0.17004 0.03353 0.95268 0.0
C1163 C 0.11948 0.03389 0.91199 0.0
C1164 C 0.08589 0.05114 0.8995 0.0
C1165 C 0.13333 0.04576 0.94194 0.0
C1166 C 0.06368 0.07692 0.91811 0.0
C1167 C 0.07679 0.08828 0.94828 0.0
H1168 H 0.89895 0.05215 0.922 0.0
H1169 H 0.93737 0.11533 0.83826 0.0
H1170 H 0.89711 0.1713 0.85418 0.0
H1171 H 0.85048 0.20211 0.89214 0.0
H1172 H 0.811 0.13666 0.97435 0.0
H1173 H 0.85283 0.08205 0.95911 0.0
C1174 C 0.89858 0.07808 0.90708 0.0
C1175 C 0.92125 0.07943 0.87891 0.0
C1176 C 0.8755 0.10998 0.91639 0.0
C1177 C 0.92007 0.11332 0.85993 0.0
C1178 C 0.89724 0.14544 0.86916 0.0
C1179 C 0.85158 0.1761 0.90693 0.0
C1180 C 0.828 0.1736 0.93457 0.0
C1181 C 0.87494 0.14419 0.89745 0.0
C1182 C 0.82898 0.13937 0.9531 0.0
C1183 C 0.85277 0.10807 0.94431 0.0
H1184 H 0.70126 0.14953 0.63907 0.0
H1185 H 0.61107 0.22146 0.59832 0.0
H1186 H 0.56099 0.18014 0.62303 0.0
H1187 H 0.54265 0.12336 0.65593 0.0
H1188 H 0.63274 0.05154 0.69704 0.0
H1189 H 0.68285 0.09344 0.67302 0.0
C1190 C 0.67064 0.15595 0.63532 0.0
C1191 C 0.66 0.18839 0.61657 0.0
C1192 C 0.64191 0.13242 0.65011 0.0
C1193 C 0.62015 0.19659 0.61245 0.0
C1194 C 0.59145 0.17306 0.62672 0.0
C1195 C 0.57323 0.11713 0.66007 0.0
C1196 C 0.58378 0.08434 0.67849 0.0
C1197 C 0.60197 0.14101 0.64574 0.0
C1198 C 0.62365 0.07662 0.68317 0.0
C1199 C 0.65239 0.10045 0.66924 0.0
H1200 H 0.628 0.78766 0.41512 0.0
H1201 H 0.69476 0.88179 0.45784 0.0
H1202 H 0.66187 0.92906 0.42377 0.0
H1203 H 0.61687 0.94338 0.38052 0.0
H1204 H 0.54856 0.85063 0.33761 0.0
H1205 H 0.58005 0.80278 0.37274 0.0
C1206 C 0.63474 0.81861 0.41743 0.0
C1207 C 0.66371 0.83124 0.43911 0.0
C1208 C 0.61621 0.84565 0.39724 0.0
C1209 C 0.67254 0.87135 0.44143 0.0
C1210 C 0.65396 0.89836 0.42179 0.0
C1211 C 0.60902 0.91265 0.37851 0.0
C1212 C 0.58085 0.90047 0.35606 0.0
C1213 C 0.62639 0.88574 0.39921 0.0
C1214 C 0.57049 0.86065 0.35443 0.0
C1215 C 0.58828 0.83339 0.37466 0.0
H1216 H 0.98759 0.86723 0.1838 0.0
H1217 H 0.88856 0.93049 0.22088 0.0
H1218 H 0.84407 0.88603 0.19332 0.0
H1219 H 0.83292 0.83227 0.15548 0.0
H1220 H 0.93032 0.76579 0.12008 0.0
H1221 H 0.97581 0.80855 0.14954 0.0
C1222 C 0.95629 0.87056 0.18649 0.0
C1223 C 0.94148 0.90224 0.20434 0.0
C1224 C 0.93058 0.84502 0.17007 0.0
C1225 C 0.90077 0.90645 0.20724 0.0
C1226 C 0.87524 0.88123 0.19126 0.0
C1227 C 0.86416 0.82747 0.154 0.0
C1228 C 0.87849 0.79684 0.13495 0.0
C1229 C 0.88979 0.85117 0.17186 0.0
C1230 C 0.91884 0.78985 0.13411 0.0
C1231 C 0.94475 0.81408 0.15113 0.0
H1232 H 0.64538 0.43953 0.68427 0.0
H1233 H 0.55069 0.35618 0.6778 0.0
H1234 H 0.55794 0.35366 0.61936 0.0
H1235 H 0.59834 0.36776 0.57224 0.0
H1236 H 0.69648 0.44514 0.57981 0.0
H1237 H 0.67766 0.46282 0.63445 0.0
C1238 C 0.62663 0.42079 0.6699 0.0
C1239 C 0.59834 0.39721 0.68469 0.0
C1240 C 0.63066 0.41997 0.6366 0.0
C1241 C 0.57319 0.3737 0.66637 0.0
C1242 C 0.57692 0.37277 0.63314 0.0
C1243 C 0.6144 0.38991 0.58555 0.0
C1244 C 0.65187 0.40054 0.57498 0.0
C1245 C 0.60614 0.39508 0.61814 0.0
C1246 C 0.66961 0.43315 0.58952 0.0
C1247 C 0.6599 0.442 0.62124 0.0
H1248 H 0.85829 0.34516 0.89551 0.0
H1249 H 0.78822 0.44907 0.90674 0.0
H1250 H 0.81983 0.47801 0.85963 0.0
H1251 H 0.86334 0.47068 0.81262 0.0
H1252 H 0.92866 0.3642 0.80039 0.0
H1253 H 0.90111 0.338 0.85007 0.0
C1254 C 0.85018 0.37443 0.88813 0.0
C1255 C 0.82082 0.39496 0.90448 0.0
C1256 C 0.86641 0.38953 0.86021 0.0
C1257 C 0.81085 0.43282 0.89447 0.0
C1258 C 0.82844 0.44906 0.86736 0.0
C1259 C 0.87107 0.44169 0.82097 0.0
C1260 C 0.89755 0.41899 0.80349 0.0
C1261 C 0.85529 0.4271 0.84949 0.0
C1262 C 0.90802 0.38164 0.8139 0.0
C1263 C 0.89258 0.36694 0.84223 0.0
H1264 H 0.90572 0.54032 0.23649 0.0
H1265 H 0.84472 0.50196 0.15168 0.0
H1266 H 0.78867 0.54203 0.16683 0.0
H1267 H 0.76909 0.60259 0.19342 0.0
H1268 H 0.8381 0.64938 0.27066 0.0
H1269 H 0.87797 0.5903 0.2708 0.0
C1270 C 0.87971 0.5396 0.22182 0.0
C1271 C 0.87985 0.5197 0.19232 0.0
C1272 C 0.84905 0.56457 0.22958 0.0
C1273 C 0.84561 0.51808 0.17403 0.0
C1274 C 0.81367 0.54107 0.18266 0.0
C1275 C 0.79141 0.59864 0.21146 0.0
C1276 C 0.80126 0.62997 0.23173 0.0
C1277 C 0.81659 0.56677 0.20887 0.0
C1278 C 0.83031 0.62534 0.25488 0.0
C1279 C 0.85346 0.59191 0.25449 0.0
H1280 H 0.5556 0.56143 0.39633 0.0
H1281 H 0.65548 0.49163 0.37132 0.0
H1282 H 0.69239 0.52039 0.41585 0.0
H1283 H 0.69963 0.57676 0.45192 0.0
H1284 H 0.59976 0.6479 0.47419 0.0
H1285 H 0.55777 0.60427 0.44313 0.0
C1286 C 0.58485 0.55126 0.40158 0.0
C1287 C 0.60301 0.52462 0.38104 0.0
C1288 C 0.60544 0.56765 0.42708 0.0
C1289 C 0.64123 0.51231 0.38714 0.0
C1290 C 0.66212 0.52852 0.4126 0.0
C1291 C 0.66829 0.58125 0.45148 0.0
C1292 C 0.65268 0.61592 0.464 0.0
C1293 C 0.6451 0.55777 0.4316 0.0
C1294 C 0.61217 0.62154 0.46398 0.0
C1295 C 0.58842 0.59717 0.44565 0.0
H1296 H 0.32469 0.68523 0.37287 0.0
H1297 H 0.3849 0.70947 0.46116 0.0
H1298 H 0.43636 0.6631 0.44609 0.0
H1299 H 0.45972 0.61025 0.41047 0.0
H1300 H 0.40144 0.58837 0.32085 0.0
H1301 H 0.35396 0.63982 0.3333 0.0
C1302 C 0.3496 0.68091 0.38842 0.0
C1303 C 0.35113 0.70046 0.41813 0.0
C1304 C 0.37914 0.65457 0.37937 0.0
C1305 C 0.38338 0.69487 0.43814 0.0
C1306 C 0.41258 0.66819 0.42959 0.0
C1307 C 0.43708 0.61739 0.39337 0.0
C1308 C 0.4338 0.59541 0.36486 0.0
C1309 C 0.41016 0.64711 0.40067 0.0
C1310 C 0.40462 0.60503 0.3428 0.0
C1311 C 0.37732 0.63419 0.35008 0.0
H1312 H 0.09167 0.58111 0.18951 0.0
H1313 H -0.0004 0.61207 0.12444 0.0
H1314 H 0.0377 0.66829 0.10556 0.0
H1315 H 0.10068 0.70483 0.10333 0.0
H1316 H 0.19407 0.66957 0.16577 0.0
H1317 H 0.15237 0.61968 0.18977 0.0
C1318 C 0.07958 0.60076 0.17181 0.0
C1319 C 0.0428 0.59247 0.15855 0.0
C1320 C 0.10233 0.6322 0.16011 0.0
C1321 C 0.02789 0.61781 0.13508 0.0
C1322 C 0.04975 0.64991 0.12413 0.0
C1323 C 0.11155 0.68656 0.12249 0.0
C1324 C 0.15054 0.69074 0.1325 0.0
C1325 C 0.08756 0.65682 0.13576 0.0
C1326 C 0.16432 0.66665 0.15727 0.0
C1327 C 0.14046 0.63808 0.17114 0.0
H1328 H 0.19522 0.3282 0.88639 0.0
H1329 H 0.09636 0.26757 0.92721 0.0
H1330 H 0.05199 0.30717 0.89441 0.0
H1331 H 0.04171 0.36206 0.856 0.0
H1332 H 0.14245 0.41982 0.8149 0.0
H1333 H 0.18556 0.37777 0.84544 0.0
C1334 C 0.16392 0.3237 0.88833 0.0
C1335 C 0.14908 0.29558 0.90982 0.0
C1336 C 0.13892 0.34581 0.86897 0.0
C1337 C 0.10852 0.28935 0.91119 0.0
C1338 C 0.0832 0.31193 0.89234 0.0
C1339 C 0.07308 0.36475 0.85313 0.0
C1340 C 0.0887 0.39427 0.83306 0.0
C1341 C 0.09807 0.34054 0.87125 0.0
C1342 C 0.1295 0.39757 0.83008 0.0
C1343 C 0.15427 0.37365 0.84773 0.0
H1344 H 0.30601 0.35317 0.63013 0.0
H1345 H 0.3902 0.26167 0.61503 0.0
H1346 H 0.43884 0.29908 0.64587 0.0
H1347 H 0.45766 0.35908 0.67644 0.0
H1348 H 0.37044 0.44769 0.69342 0.0
H1349 H 0.32294 0.40987 0.66313 0.0
C1350 C 0.33512 0.34148 0.63327 0.0
C1351 C 0.34466 0.30499 0.61966 0.0
C1352 C 0.36238 0.36251 0.65184 0.0
C1353 C 0.38222 0.28989 0.62488 0.0
C1354 C 0.40997 0.31123 0.64266 0.0
C1355 C 0.4281 0.36981 0.67398 0.0
C1356 C 0.41797 0.40648 0.68733 0.0
C1357 C 0.4004 0.34767 0.65632 0.0
C1358 C 0.37941 0.41978 0.68358 0.0
C1359 C 0.35208 0.39821 0.66602 0.0
loop_
_geom_bond_atom_site_label_1
_geom_bond_atom_site_label_2
_geom_bond_distance
_geom_bond_site_symmetry_2
_ccdc_geom_bond_type
O0 Tb1 2.292 1_565 S
O0 C3 1.255 . S
Tb1 O0 2.292 1_545 S
Tb1 O17 2.326 . S
Tb1 O19 2.500 . S
Tb1 O20 2.473 . S
Tb1 O23 2.324 1_445 S
Eu2 O6 2.292 . S
Eu2 C7 2.852 . S
Eu2 O18 2.324 1_655 S
Eu2 O22 2.326 . S
Eu2 O24 2.500 . S
Eu2 O25 2.473 1_655 S
C3 O0 1.255 . S
C3 O4 1.247 1_565 S
O4 C3 1.247 1_545 S
C5 O17 1.242 . S
C5 O18 1.258 . S
O6 Eu2 2.292 . S
O6 C8 1.255 . S
C7 Eu2 2.852 . S
C7 C11 1.503 . S
C7 O24 1.273 . S
C7 O25 1.257 1_655 S
C8 O6 1.255 . S
C8 O9 1.247 . S
O9 C8 1.247 . S
C10 O22 1.242 . S
C10 O23 1.258 1_545 S
C11 C7 1.503 . S
C11 C12 1.379 1_655 S
C11 C16 1.392 . S
C12 C11 1.379 1_455 S
C12 C13 1.412 . S
C12 H26 0.929 . S
C13 C12 1.412 . S
C13 C14 1.389 1_455 S
C14 C13 1.389 1_655 S
C14 C15 1.399 . S
C14 H27 0.931 1_545 S
C15 C14 1.399 . S
C15 C16 1.390 . S
C16 C11 1.392 . S
C16 C15 1.390 . S
C16 H28 0.929 . S
O17 Tb1 2.326 . S
O17 C5 1.242 . S
O18 Eu2 2.324 1_455 S
O18 C5 1.258 . S
O19 Tb1 2.500 . S
O19 C21 1.273 . S
O20 Tb1 2.473 . S
O20 C21 1.257 . S
C21 O19 1.273 . S
C21 O20 1.257 . S
O22 Eu2 2.326 . S
O22 C10 1.242 . S
O23 Tb1 2.324 1_665 S
O23 C10 1.258 1_565 S
O24 Eu2 2.500 . S
O24 C7 1.273 . S
O25 Eu2 2.473 1_455 S
O25 C7 1.257 1_455 S
H26 C12 0.929 . S
H27 C14 0.931 1_565 S
H28 C16 0.929 . S
O29 Tb30 2.292 . S
O29 C32 1.255 . S
Tb30 O29 2.292 . S
Tb30 O46 2.326 . S
Tb30 O48 2.500 . S
Tb30 O49 2.473 . S
Tb30 O52 2.324 . S
Eu31 O35 2.292 . S
Eu31 C36 2.852 . S
Eu31 O47 2.324 . S
Eu31 O51 2.326 . S
Eu31 O53 2.500 . S
Eu31 O54 2.473 . S
C32 O29 1.255 . S
C32 O33 1.247 . S
O33 C32 1.247 . S
C34 O46 1.242 . S
C34 O47 1.258 . S
O35 Eu31 2.292 . S
O35 C37 1.255 . S
C36 Eu31 2.852 . S
C36 C40 1.503 . S
C36 O53 1.273 . S
C36 O54 1.257 . S
C37 O35 1.255 . S
C37 O38 1.247 . S
O38 C37 1.247 . S
C39 O51 1.242 . S
C39 O52 1.258 . S
C40 C36 1.503 . S
C40 C41 1.379 . S
C40 C45 1.392 . S
C41 C40 1.379 . S
C41 C42 1.404 . S
C41 H55 0.929 . S
C42 C41 1.404 . S
C42 C43 1.389 . S
C43 C42 1.389 . S
C43 C44 1.399 . S
C43 H56 0.931 . S
C44 C43 1.399 . S
C44 C45 1.390 . S
C45 C40 1.392 . S
C45 C44 1.390 . S
C45 H57 0.929 . S
O46 Tb30 2.326 . S
O46 C34 1.242 . S
O47 Eu31 2.324 . S
O47 C34 1.258 . S
O48 Tb30 2.500 . S
O48 C50 1.273 . S
O49 Tb30 2.473 . S
O49 C50 1.257 . S
C50 O48 1.273 . S
C50 O49 1.257 . S
O51 Eu31 2.326 . S
O51 C39 1.242 . S
O52 Tb30 2.324 . S
O52 C39 1.258 . S
O53 Eu31 2.500 . S
O53 C36 1.273 . S
O54 Eu31 2.473 . S
O54 C36 1.257 . S
H55 C41 0.929 . S
H56 C43 0.931 . S
H57 C45 0.929 . S
O58 Tb59 2.292 1_545 S
O58 C61 1.255 . S
Tb59 O58 2.292 1_565 S
Tb59 O75 2.326 . S
Tb59 O77 2.500 . S
Tb59 O78 2.473 . S
Tb59 O81 2.324 1_565 S
Eu60 O64 2.292 . S
Eu60 C65 2.852 . S
Eu60 O76 2.324 . S
Eu60 O80 2.326 . S
Eu60 O82 2.500 . S
Eu60 O83 2.473 . S
C61 O58 1.255 . S
C61 O62 1.247 1_545 S
O62 C61 1.247 1_565 S
C63 O75 1.242 . S
C63 O76 1.258 . S
O64 Eu60 2.292 . S
O64 C66 1.255 . S
C65 Eu60 2.852 . S
C65 C69 1.503 . S
C65 O82 1.273 . S
C65 O83 1.257 . S
C66 O64 1.255 . S
C66 O67 1.247 . S
O67 C66 1.247 . S
C68 O80 1.242 . S
C68 O81 1.258 1_565 S
C69 C65 1.503 . S
C69 C70 1.379 . S
C69 C74 1.392 . S
C70 C69 1.379 . S
C70 C71 1.412 . S
C70 H84 0.929 . S
C71 C70 1.412 . S
C71 C72 1.389 . S
C72 C71 1.389 . S
C72 C73 1.399 . S
C72 H85 0.931 1_565 S
C73 C72 1.399 . S
C73 C74 1.390 . S
C74 C69 1.392 . S
C74 C73 1.390 . S
C74 H86 0.929 . S
O75 Tb59 2.326 . S
O75 C63 1.242 . S
O76 Eu60 2.324 . S
O76 C63 1.258 . S
O77 Tb59 2.500 . S
O77 C79 1.273 . S
O78 Tb59 2.473 . S
O78 C79 1.257 . S
C79 O77 1.273 . S
C79 O78 1.257 . S
O80 Eu60 2.326 . S
O80 C68 1.242 . S
O81 Tb59 2.324 1_545 S
O81 C68 1.258 1_545 S
O82 Eu60 2.500 . S
O82 C65 1.273 . S
O83 Eu60 2.473 . S
O83 C65 1.257 . S
H84 C70 0.929 . S
H85 C72 0.931 1_545 S
H86 C74 0.929 . S
O87 Tb88 2.292 . S
O87 C90 1.255 . S
Tb88 O87 2.292 . S
Tb88 O104 2.326 . S
Tb88 O106 2.500 . S
Tb88 O107 2.473 . S
Tb88 O110 2.324 . S
Eu89 O93 2.292 . S
Eu89 C94 2.850 . S
Eu89 O105 2.324 . S
Eu89 O109 2.326 . S
Eu89 O111 2.500 . S
Eu89 O112 2.473 . S
C90 O87 1.255 . S
C90 O91 1.247 . S
O91 C90 1.247 . S
C92 O104 1.242 . S
C92 O105 1.258 . S
O93 Eu89 2.292 . S
O93 C95 1.255 . S
C94 Eu89 2.850 . S
C94 C98 1.505 1_556 S
C94 O111 1.272 . S
C94 O112 1.256 . S
C95 O93 1.255 . S
C95 O96 1.247 . S
O96 C95 1.247 . S
C97 O109 1.242 . S
C97 O110 1.258 . S
C98 C94 1.505 1_554 S
C98 C99 1.379 . S
C98 C103 1.392 . S
C99 C98 1.379 . S
C99 C100 1.404 . S
C99 H113 0.929 . S
C100 C99 1.404 . S
C100 C101 1.389 . S
C101 C100 1.389 . S
C101 C102 1.399 . S
C101 H114 0.931 . S
C102 C101 1.399 . S
C102 C103 1.390 . S
C103 C98 1.392 . S
C103 C102 1.390 . S
C103 H115 0.929 . S
O104 Tb88 2.326 . S
O104 C92 1.242 . S
O105 Eu89 2.324 . S
O105 C92 1.258 . S
O106 Tb88 2.500 . S
O106 C108 1.273 . S
O107 Tb88 2.473 . S
O107 C108 1.257 . S
C108 O106 1.273 . S
C108 O107 1.257 . S
O109 Eu89 2.326 . S
O109 C97 1.242 . S
O110 Tb88 2.324 . S
O110 C97 1.258 . S
O111 Eu89 2.500 . S
O111 C94 1.272 . S
O112 Eu89 2.473 . S
O112 C94 1.256 . S
H113 C99 0.929 . S
H114 C101 0.931 . S
H115 C103 0.929 . S
O116 Tb117 2.292 1_545 S
O116 C119 1.255 . S
Tb117 O116 2.292 1_565 S
Tb117 O133 2.326 . S
Tb117 O135 2.500 . S
Tb117 O136 2.473 . S
Tb117 O139 2.324 1_465 S
Eu118 O122 2.292 . S
Eu118 C123 2.852 . S
Eu118 O134 2.324 1_655 S
Eu118 O138 2.326 . S
Eu118 O140 2.500 . S
Eu118 O141 2.473 1_655 S
C119 O116 1.255 . S
C119 O120 1.247 1_545 S
O120 C119 1.247 1_565 S
C121 O133 1.242 . S
C121 O134 1.258 . S
O122 Eu118 2.292 . S
O122 C124 1.255 . S
C123 Eu118 2.852 . S
C123 C127 1.503 . S
C123 O140 1.273 . S
C123 O141 1.257 1_655 S
C124 O122 1.255 . S
C124 O125 1.247 . S
O125 C124 1.247 . S
C126 O138 1.242 . S
C126 O139 1.258 1_565 S
C127 C123 1.503 . S
C127 C128 1.379 1_655 S
C127 C132 1.392 . S
C128 C127 1.379 1_455 S
C128 C129 1.412 . S
C128 H142 0.929 . S
C129 C128 1.412 . S
C129 C130 1.389 1_455 S
C130 C129 1.389 1_655 S
C130 C131 1.399 . S
C130 H143 0.931 1_565 S
C131 C130 1.399 . S
C131 C132 1.390 . S
C132 C127 1.392 . S
C132 C131 1.390 . S
C132 H144 0.929 . S
O133 Tb117 2.326 . S
O133 C121 1.242 . S
O134 Eu118 2.324 1_455 S
O134 C121 1.258 . S
O135 Tb117 2.500 . S
O135 C137 1.273 . S
O136 Tb117 2.473 . S
O136 C137 1.257 . S
C137 O135 1.273 . S
C137 O136 1.257 . S
O138 Eu118 2.326 . S
O138 C126 1.242 . S
O139 Tb117 2.324 1_645 S
O139 C126 1.258 1_545 S
O140 Eu118 2.500 . S
O140 C123 1.273 . S
O141 Eu118 2.473 1_455 S
O141 C123 1.257 1_455 S
H142 C128 0.929 . S
H143 C130 0.931 1_545 S
H144 C132 0.929 . S
O145 Tb146 2.292 . S
O145 C148 1.255 . S
Tb146 O145 2.292 . S
Tb146 O162 2.326 . S
Tb146 O164 2.500 . S
Tb146 O165 2.473 . S
Tb146 O168 2.324 . S
Eu147 O151 2.292 . S
Eu147 C152 2.850 . S
Eu147 O163 2.324 . S
Eu147 O167 2.326 . S
Eu147 O169 2.500 . S
Eu147 O170 2.473 . S
C148 O145 1.255 . S
C148 O149 1.247 . S
O149 C148 1.247 . S
C150 O162 1.242 . S
C150 O163 1.258 . S
O151 Eu147 2.292 . S
O151 C153 1.255 . S
C152 Eu147 2.850 . S
C152 C156 1.505 1_554 S
C152 O169 1.272 . S
C152 O170 1.256 . S
C153 O151 1.255 . S
C153 O154 1.247 . S
O154 C153 1.247 . S
C155 O167 1.242 . S
C155 O168 1.258 . S
C156 C152 1.505 1_556 S
C156 C157 1.379 . S
C156 C161 1.392 . S
C157 C156 1.379 . S
C157 C158 1.404 . S
C157 H171 0.929 . S
C158 C157 1.404 . S
C158 C159 1.389 . S
C159 C158 1.389 . S
C159 C160 1.399 . S
C159 H172 0.931 . S
C160 C159 1.399 . S
C160 C161 1.390 . S
C161 C156 1.392 . S
C161 C160 1.390 . S
C161 H173 0.929 . S
O162 Tb146 2.326 . S
O162 C150 1.242 . S
O163 Eu147 2.324 . S
O163 C150 1.258 . S
O164 Tb146 2.500 . S
O164 C166 1.273 . S
O165 Tb146 2.473 . S
O165 C166 1.257 . S
C166 O164 1.273 . S
C166 O165 1.257 . S
O167 Eu147 2.326 . S
O167 C155 1.242 . S
O168 Tb146 2.324 . S
O168 C155 1.258 . S
O169 Eu147 2.500 . S
O169 C152 1.272 . S
O170 Eu147 2.473 . S
O170 C152 1.256 . S
H171 C157 0.929 . S
H172 C159 0.931 . S
H173 C161 0.929 . S
O174 Tb175 2.292 1_565 S
O174 C177 1.255 . S
Tb175 O174 2.292 1_545 S
Tb175 O191 2.326 . S
Tb175 O193 2.500 . S
Tb175 O194 2.473 . S
Tb175 O197 2.324 1_545 S
Eu176 O180 2.292 . S
Eu176 C181 2.852 . S
Eu176 O192 2.324 . S
Eu176 O196 2.326 . S
Eu176 O198 2.500 . S
Eu176 O199 2.473 . S
C177 O174 1.255 . S
C177 O178 1.247 1_565 S
O178 C177 1.247 1_545 S
C179 O191 1.242 . S
C179 O192 1.258 . S
O180 Eu176 2.292 . S
O180 C182 1.255 . S
C181 Eu176 2.852 . S
C181 C185 1.503 . S
C181 O198 1.273 . S
C181 O199 1.257 . S
C182 O180 1.255 . S
C182 O183 1.247 . S
O183 C182 1.247 . S
C184 O196 1.242 . S
C184 O197 1.258 1_545 S
C185 C181 1.503 . S
C185 C186 1.379 . S
C185 C190 1.392 . S
C186 C185 1.379 . S
C186 C187 1.412 . S
C186 H200 0.929 . S
C187 C186 1.412 . S
C187 C188 1.389 . S
C188 C187 1.389 . S
C188 C189 1.399 . S
C188 H201 0.931 1_545 S
C189 C188 1.399 . S
C189 C190 1.390 . S
C190 C185 1.392 . S
C190 C189 1.390 . S
C190 H202 0.929 . S
O191 Tb175 2.326 . S
O191 C179 1.242 . S
O192 Eu176 2.324 . S
O192 C179 1.258 . S
O193 Tb175 2.500 . S
O193 C195 1.273 . S
O194 Tb175 2.473 . S
O194 C195 1.257 . S
C195 O193 1.273 . S
C195 O194 1.257 . S
O196 Eu176 2.326 . S
O196 C184 1.242 . S
O197 Tb175 2.324 1_565 S
O197 C184 1.258 1_565 S
O198 Eu176 2.500 . S
O198 C181 1.273 . S
O199 Eu176 2.473 . S
O199 C181 1.257 . S
H200 C186 0.929 . S
H201 C188 0.931 1_565 S
H202 C190 0.929 . S
O203 Tb204 2.292 . S
O203 C206 1.255 . S
Tb204 O203 2.292 . S
Tb204 O220 2.326 . S
Tb204 O222 2.500 . S
Tb204 O223 2.473 . S
Tb204 O226 2.324 . S
Eu205 O209 2.292 . S
Eu205 C210 2.852 . S
Eu205 O221 2.324 . S
Eu205 O225 2.326 . S
Eu205 O227 2.500 . S
Eu205 O228 2.473 . S
C206 O203 1.255 . S
C206 O207 1.247 . S
O207 C206 1.247 . S
C208 O220 1.242 . S
C208 O221 1.258 . S
O209 Eu205 2.292 . S
O209 C211 1.255 . S
C210 Eu205 2.852 . S
C210 C214 1.503 . S
C210 O227 1.273 . S
C210 O228 1.257 . S
C211 O209 1.255 . S
C211 O212 1.247 . S
O212 C211 1.247 . S
C213 O225 1.242 . S
C213 O226 1.258 . S
C214 C210 1.503 . S
C214 C215 1.379 . S
C214 C219 1.392 . S
C215 C214 1.379 . S
C215 C216 1.404 . S
C215 H229 0.929 . S
C216 C215 1.404 . S
C216 C217 1.389 . S
C217 C216 1.389 . S
C217 C218 1.399 . S
C217 H230 0.931 . S
C218 C217 1.399 . S
C218 C219 1.390 . S
C219 C214 1.392 . S
C219 C218 1.390 . S
C219 H231 0.929 . S
O220 Tb204 2.326 . S
O220 C208 1.242 . S
O221 Eu205 2.324 . S
O221 C208 1.258 . S
O222 Tb204 2.500 . S
O222 C224 1.273 . S
O223 Tb204 2.473 . S
O223 C224 1.257 . S
C224 O222 1.273 . S
C224 O223 1.257 . S
O225 Eu205 2.326 . S
O225 C213 1.242 . S
O226 Tb204 2.324 . S
O226 C213 1.258 . S
O227 Eu205 2.500 . S
O227 C210 1.273 . S
O228 Eu205 2.473 . S
O228 C210 1.257 . S
H229 C215 0.929 . S
H230 C217 0.931 . S
H231 C219 0.929 . S
O232 Tb233 2.292 . S
O232 C235 1.255 . S
Tb233 O232 2.292 . S
Tb233 O249 2.326 . S
Tb233 O251 2.500 . S
Tb233 O252 2.473 . S
Tb233 O255 2.324 . S
Eu234 O238 2.292 . S
Eu234 C239 2.852 . S
Eu234 O250 2.324 . S
Eu234 O254 2.326 . S
Eu234 O256 2.500 . S
Eu234 O257 2.473 . S
C235 O232 1.255 . S
C235 O236 1.247 . S
O236 C235 1.247 . S
C237 O249 1.242 . S
C237 O250 1.258 . S
O238 Eu234 2.292 . S
O238 C240 1.255 . S
C239 Eu234 2.852 . S
C239 C243 1.503 . S
C239 O256 1.273 . S
C239 O257 1.257 . S
C240 O238 1.255 . S
C240 O241 1.247 . S
O241 C240 1.247 . S
C242 O254 1.242 . S
C242 O255 1.258 . S
C243 C239 1.503 . S
C243 C244 1.379 . S
C243 C248 1.392 . S
C244 C243 1.379 . S
C244 C245 1.404 . S
C244 H258 0.929 . S
C245 C244 1.404 . S
C245 C246 1.389 . S
C246 C245 1.389 . S
C246 C247 1.399 . S
C246 H259 0.931 . S
C247 C246 1.399 . S
C247 C248 1.390 . S
C248 C243 1.392 . S
C248 C247 1.390 . S
C248 H260 0.929 . S
O249 Tb233 2.326 . S
O249 C237 1.242 . S
O250 Eu234 2.324 . S
O250 C237 1.258 . S
O251 Tb233 2.500 . S
O251 C253 1.273 . S
O252 Tb233 2.473 . S
O252 C253 1.257 . S
C253 O251 1.273 . S
C253 O252 1.257 . S
O254 Eu234 2.326 . S
O254 C242 1.242 . S
O255 Tb233 2.324 . S
O255 C242 1.258 . S
O256 Eu234 2.500 . S
O256 C239 1.273 . S
O257 Eu234 2.473 . S
O257 C239 1.257 . S
H258 C244 0.929 . S
H259 C246 0.931 . S
H260 C248 0.929 . S
O261 Tb262 2.292 . S
O261 C264 1.255 . S
Tb262 O261 2.292 . S
Tb262 O278 2.326 . S
Tb262 O280 2.500 . S
Tb262 O281 2.473 . S
Tb262 O284 2.324 . S
Eu263 O267 2.292 . S
Eu263 C268 2.850 . S
Eu263 O279 2.324 . S
Eu263 O283 2.326 . S
Eu263 O285 2.500 . S
Eu263 O286 2.473 . S
C264 O261 1.255 . S
C264 O265 1.247 . S
O265 C264 1.247 . S
C266 O278 1.242 . S
C266 O279 1.258 . S
O267 Eu263 2.292 . S
O267 C269 1.255 . S
C268 Eu263 2.850 . S
C268 C272 1.505 1_554 S
C268 O285 1.272 . S
C268 O286 1.256 . S
C269 O267 1.255 . S
C269 O270 1.247 . S
O270 C269 1.247 . S
C271 O283 1.242 . S
C271 O284 1.258 . S
C272 C268 1.505 1_556 S
C272 C273 1.379 . S
C272 C277 1.392 . S
C273 C272 1.379 . S
C273 C274 1.404 . S
C273 H287 0.929 . S
C274 C273 1.404 . S
C274 C275 1.389 . S
C275 C274 1.389 . S
C275 C276 1.399 . S
C275 H288 0.931 . S
C276 C275 1.399 . S
C276 C277 1.390 . S
C277 C272 1.392 . S
C277 C276 1.390 . S
C277 H289 0.929 . S
O278 Tb262 2.326 . S
O278 C266 1.242 . S
O279 Eu263 2.324 . S
O279 C266 1.258 . S
O280 Tb262 2.500 . S
O280 C282 1.273 . S
O281 Tb262 2.473 . S
O281 C282 1.257 . S
C282 O280 1.273 . S
C282 O281 1.257 . S
O283 Eu263 2.326 . S
O283 C271 1.242 . S
O284 Tb262 2.324 . S
O284 C271 1.258 . S
O285 Eu263 2.500 . S
O285 C268 1.272 . S
O286 Eu263 2.473 . S
O286 C268 1.256 . S
H287 C273 0.929 . S
H288 C275 0.931 . S
H289 C277 0.929 . S
O290 Tb291 2.292 . S
O290 C293 1.255 . S
Tb291 O290 2.292 . S
Tb291 O307 2.326 . S
Tb291 O309 2.500 . S
Tb291 O310 2.473 . S
Tb291 O313 2.324 . S
Eu292 O296 2.292 . S
Eu292 C297 2.850 . S
Eu292 O308 2.324 . S
Eu292 O312 2.326 . S
Eu292 O314 2.500 . S
Eu292 O315 2.473 . S
C293 O290 1.255 . S
C293 O294 1.247 . S
O294 C293 1.247 . S
C295 O307 1.242 . S
C295 O308 1.258 . S
O296 Eu292 2.292 . S
O296 C298 1.255 . S
C297 Eu292 2.850 . S
C297 C301 1.505 1_556 S
C297 O314 1.272 . S
C297 O315 1.256 . S
C298 O296 1.255 . S
C298 O299 1.247 . S
O299 C298 1.247 . S
C300 O312 1.242 . S
C300 O313 1.258 . S
C301 C297 1.505 1_554 S
C301 C302 1.379 . S
C301 C306 1.392 . S
C302 C301 1.379 . S
C302 C303 1.404 . S
C302 H316 0.929 . S
C303 C302 1.404 . S
C303 C304 1.389 . S
C304 C303 1.389 . S
C304 C305 1.399 . S
C304 H317 0.931 . S
C305 C304 1.399 . S
C305 C306 1.390 . S
C306 C301 1.392 . S
C306 C305 1.390 . S
C306 H318 0.929 . S
O307 Tb291 2.326 . S
O307 C295 1.242 . S
O308 Eu292 2.324 . S
O308 C295 1.258 . S
O309 Tb291 2.500 . S
O309 C311 1.273 . S
O310 Tb291 2.473 . S
O310 C311 1.257 . S
C311 O309 1.273 . S
C311 O310 1.257 . S
O312 Eu292 2.326 . S
O312 C300 1.242 . S
O313 Tb291 2.324 . S
O313 C300 1.258 . S
O314 Eu292 2.500 . S
O314 C297 1.272 . S
O315 Eu292 2.473 . S
O315 C297 1.256 . S
H316 C302 0.929 . S
H317 C304 0.931 . S
H318 C306 0.929 . S
O319 Tb320 2.292 . S
O319 C322 1.255 . S
Tb320 O319 2.292 . S
Tb320 O336 2.326 . S
Tb320 O338 2.500 . S
Tb320 O339 2.473 . S
Tb320 O342 2.324 . S
Eu321 O325 2.292 . S
Eu321 C326 2.852 . S
Eu321 O337 2.324 . S
Eu321 O341 2.326 . S
Eu321 O343 2.500 . S
Eu321 O344 2.473 . S
C322 O319 1.255 . S
C322 O323 1.247 . S
O323 C322 1.247 . S
C324 O336 1.242 . S
C324 O337 1.258 . S
O325 Eu321 2.292 . S
O325 C327 1.255 . S
C326 Eu321 2.852 . S
C326 C330 1.503 . S
C326 O343 1.273 . S
C326 O344 1.257 . S
C327 O325 1.255 . S
C327 O328 1.247 . S
O328 C327 1.247 . S
C329 O341 1.242 . S
C329 O342 1.258 . S
C330 C326 1.503 . S
C330 C331 1.379 . S
C330 C335 1.392 . S
C331 C330 1.379 . S
C331 C332 1.404 . S
C331 H345 0.929 . S
C332 C331 1.404 . S
C332 C333 1.389 . S
C333 C332 1.389 . S
C333 C334 1.399 . S
C333 H346 0.931 . S
C334 C333 1.399 . S
C334 C335 1.390 . S
C335 C330 1.392 . S
C335 C334 1.390 . S
C335 H347 0.929 . S
O336 Tb320 2.326 . S
O336 C324 1.242 . S
O337 Eu321 2.324 . S
O337 C324 1.258 . S
O338 Tb320 2.500 . S
O338 C340 1.273 . S
O339 Tb320 2.473 . S
O339 C340 1.257 . S
C340 O338 1.273 . S
C340 O339 1.257 . S
O341 Eu321 2.326 . S
O341 C329 1.242 . S
O342 Tb320 2.324 . S
O342 C329 1.258 . S
O343 Eu321 2.500 . S
O343 C326 1.273 . S
O344 Eu321 2.473 . S
O344 C326 1.257 . S
H345 C331 0.929 . S
H346 C333 0.931 . S
H347 C335 0.929 . S
O348 Tb349 2.292 . S
O348 C351 1.255 . S
Tb349 O348 2.292 . S
Tb349 O365 2.326 . S
Tb349 O367 2.500 . S
Tb349 O368 2.473 . S
Tb349 O371 2.324 . S
Eu350 O354 2.292 . S
Eu350 C355 2.852 . S
Eu350 O366 2.324 . S
Eu350 O370 2.326 . S
Eu350 O372 2.500 . S
Eu350 O373 2.473 . S
C351 O348 1.255 . S
C351 O352 1.247 . S
O352 C351 1.247 . S
C353 O365 1.242 . S
C353 O366 1.258 . S
O354 Eu350 2.292 . S
O354 C356 1.255 . S
C355 Eu350 2.852 . S
C355 C359 1.503 . S
C355 O372 1.273 . S
C355 O373 1.257 . S
C356 O354 1.255 . S
C356 O357 1.247 . S
O357 C356 1.247 . S
C358 O370 1.242 . S
C358 O371 1.258 . S
C359 C355 1.503 . S
C359 C360 1.379 . S
C359 C364 1.392 . S
C360 C359 1.379 . S
C360 C361 1.404 . S
C360 H374 0.929 . S
C361 C360 1.404 . S
C361 C362 1.389 . S
C362 C361 1.389 . S
C362 C363 1.399 . S
C362 H375 0.931 . S
C363 C362 1.399 . S
C363 C364 1.390 . S
C364 C359 1.392 . S
C364 C363 1.390 . S
C364 H376 0.929 . S
O365 Tb349 2.326 . S
O365 C353 1.242 . S
O366 Eu350 2.324 . S
O366 C353 1.258 . S
O367 Tb349 2.500 . S
O367 C369 1.273 . S
O368 Tb349 2.473 . S
O368 C369 1.257 . S
C369 O367 1.273 . S
C369 O368 1.257 . S
O370 Eu350 2.326 . S
O370 C358 1.242 . S
O371 Tb349 2.324 . S
O371 C358 1.258 . S
O372 Eu350 2.500 . S
O372 C355 1.273 . S
O373 Eu350 2.473 . S
O373 C355 1.257 . S
H374 C360 0.929 . S
H375 C362 0.931 . S
H376 C364 0.929 . S
O377 Tb378 2.292 . S
O377 C380 1.255 . S
Tb378 O377 2.292 . S
Tb378 O394 2.326 . S
Tb378 O396 2.500 . S
Tb378 O397 2.473 1_655 S
Tb378 O400 2.324 1_655 S
Eu379 O383 2.292 . S
Eu379 C384 2.852 . S
Eu379 O395 2.324 1_455 S
Eu379 O399 2.326 . S
Eu379 O401 2.500 . S
Eu379 O402 2.473 1_455 S
C380 O377 1.255 . S
C380 O381 1.247 . S
O381 C380 1.247 . S
C382 O394 1.242 . S
C382 O395 1.258 . S
O383 Eu379 2.292 . S
O383 C385 1.255 . S
C384 Eu379 2.852 . S
C384 C388 1.503 . S
C384 O401 1.273 . S
C384 O402 1.257 1_455 S
C385 O383 1.255 . S
C385 O386 1.247 . S
O386 C385 1.247 . S
C387 O399 1.242 . S
C387 O400 1.258 . S
C388 C384 1.503 . S
C388 C389 1.379 1_455 S
C388 C393 1.392 . S
C389 C388 1.379 1_655 S
C389 C390 1.404 . S
C389 H403 0.929 . S
C390 C389 1.404 . S
C390 C391 1.389 1_655 S
C391 C390 1.389 1_455 S
C391 C392 1.399 . S
C391 H404 0.931 . S
C392 C391 1.399 . S
C392 C393 1.390 . S
C393 C388 1.392 . S
C393 C392 1.390 . S
C393 H405 0.929 . S
O394 Tb378 2.326 . S
O394 C382 1.242 . S
O395 Eu379 2.324 1_655 S
O395 C382 1.258 . S
O396 Tb378 2.500 . S
O396 C398 1.273 . S
O397 Tb378 2.473 1_455 S
O397 C398 1.257 1_455 S
C398 O396 1.273 . S
C398 O397 1.257 1_655 S
O399 Eu379 2.326 . S
O399 C387 1.242 . S
O400 Tb378 2.324 1_455 S
O400 C387 1.258 . S
O401 Eu379 2.500 . S
O401 C384 1.273 . S
O402 Eu379 2.473 1_655 S
O402 C384 1.257 1_655 S
H403 C389 0.929 . S
H404 C391 0.931 . S
H405 C393 0.929 . S
O406 Tb407 2.292 . S
O406 C409 1.255 . S
Tb407 O406 2.292 . S
Tb407 O423 2.326 . S
Tb407 O425 2.500 . S
Tb407 O426 2.473 . S
Tb407 O429 2.324 . S
Eu408 O412 2.292 . S
Eu408 C413 2.852 . S
Eu408 O424 2.324 . S
Eu408 O428 2.326 . S
Eu408 O430 2.500 . S
Eu408 O431 2.473 . S
C409 O406 1.255 . S
C409 O410 1.247 . S
O410 C409 1.247 . S
C411 O423 1.242 . S
C411 O424 1.258 . S
O412 Eu408 2.292 . S
O412 C414 1.255 . S
C413 Eu408 2.852 . S
C413 C417 1.503 . S
C413 O430 1.273 . S
C413 O431 1.257 . S
C414 O412 1.255 . S
C414 O415 1.247 . S
O415 C414 1.247 . S
C416 O428 1.242 . S
C416 O429 1.258 . S
C417 C413 1.503 . S
C417 C418 1.379 . S
C417 C422 1.392 . S
C418 C417 1.379 . S
C418 C419 1.404 . S
C418 H432 0.929 . S
C419 C418 1.404 . S
C419 C420 1.389 . S
C420 C419 1.389 . S
C420 C421 1.399 . S
C420 H433 0.931 . S
C421 C420 1.399 . S
C421 C422 1.390 . S
C422 C417 1.392 . S
C422 C421 1.390 . S
C422 H434 0.929 . S
O423 Tb407 2.326 . S
O423 C411 1.242 . S
O424 Eu408 2.324 . S
O424 C411 1.258 . S
O425 Tb407 2.500 . S
O425 C427 1.273 . S
O426 Tb407 2.473 . S
O426 C427 1.257 . S
C427 O425 1.273 . S
C427 O426 1.257 . S
O428 Eu408 2.326 . S
O428 C416 1.242 . S
O429 Tb407 2.324 . S
O429 C416 1.258 . S
O430 Eu408 2.500 . S
O430 C413 1.273 . S
O431 Eu408 2.473 . S
O431 C413 1.257 . S
H432 C418 0.929 . S
H433 C420 0.931 . S
H434 C422 0.929 . S
O435 Tb436 2.292 . S
O435 C438 1.255 . S
Tb436 O435 2.292 . S
Tb436 O452 2.326 . S
Tb436 O454 2.500 . S
Tb436 O455 2.473 1_655 S
Tb436 O458 2.324 1_655 S
Eu437 O441 2.292 . S
Eu437 C442 2.852 . S
Eu437 O453 2.324 1_455 S
Eu437 O457 2.326 . S
Eu437 O459 2.500 . S
Eu437 O460 2.473 1_455 S
C438 O435 1.255 . S
C438 O439 1.247 . S
O439 C438 1.247 . S
C440 O452 1.242 . S
C440 O453 1.258 . S
O441 Eu437 2.292 . S
O441 C443 1.255 . S
C442 Eu437 2.852 . S
C442 C446 1.503 . S
C442 O459 1.273 . S
C442 O460 1.257 1_455 S
C443 O441 1.255 . S
C443 O444 1.247 . S
O444 C443 1.247 . S
C445 O457 1.242 . S
C445 O458 1.258 . S
C446 C442 1.503 . S
C446 C447 1.379 1_455 S
C446 C451 1.392 . S
C447 C446 1.379 1_655 S
C447 C448 1.404 . S
C447 H461 0.929 . S
C448 C447 1.404 . S
C448 C449 1.389 1_655 S
C449 C448 1.389 1_455 S
C449 C450 1.399 . S
C449 H462 0.931 . S
C450 C449 1.399 . S
C450 C451 1.390 . S
C451 C446 1.392 . S
C451 C450 1.390 . S
C451 H463 0.929 . S
O452 Tb436 2.326 . S
O452 C440 1.242 . S
O453 Eu437 2.324 1_655 S
O453 C440 1.258 . S
O454 Tb436 2.500 . S
O454 C456 1.273 . S
O455 Tb436 2.473 1_455 S
O455 C456 1.257 1_455 S
C456 O454 1.273 . S
C456 O455 1.257 1_655 S
O457 Eu437 2.326 . S
O457 C445 1.242 . S
O458 Tb436 2.324 1_455 S
O458 C445 1.258 . S
O459 Eu437 2.500 . S
O459 C442 1.273 . S
O460 Eu437 2.473 1_655 S
O460 C442 1.257 1_655 S
H461 C447 0.929 . S
H462 C449 0.931 . S
H463 C451 0.929 . S
H464 C470 0.930 1_655 S
H465 C473 0.930 . S
H466 C474 0.927 1_545 S
H467 C475 0.930 . S
H468 C478 0.930 . S
H469 C479 0.927 1_565 S
C470 H464 0.930 1_455 S
C470 C471 1.355 . S
C470 C472 1.415 . S
C471 C470 1.355 . S
C471 C473 1.419 . S
C472 C470 1.415 . S
C472 C477 1.425 1_566 S
C472 C479 1.407 1_466 S
C473 H465 0.930 . S
C473 C471 1.419 . S
C473 C474 1.368 . S
C474 H466 0.927 1_565 S
C474 C473 1.368 . S
C474 C477 1.407 1_566 S
C475 H467 0.930 . S
C475 C476 1.355 . S
C475 C477 1.415 . S
C476 C475 1.355 . S
C476 C478 1.419 1_455 S
C477 C472 1.425 1_544 S
C477 C474 1.407 1_544 S
C477 C475 1.415 . S
C478 H468 0.930 . S
C478 C476 1.419 1_655 S
C478 C479 1.368 . S
C479 H469 0.927 1_545 S
C479 C472 1.407 1_644 S
C479 C478 1.368 . S
H480 C486 0.930 . S
H481 C489 0.930 . S
H482 C490 0.930 . S
H483 C491 0.930 . S
H484 C494 0.930 . S
H485 C495 0.930 . S
C486 H480 0.930 . S
C486 C487 1.355 . S
C486 C488 1.415 . S
C487 C486 1.355 . S
C487 C489 1.419 . S
C488 C486 1.415 . S
C488 C493 1.425 . S
C488 C495 1.409 . S
C489 H481 0.930 . S
C489 C487 1.419 . S
C489 C490 1.362 . S
C490 H482 0.930 . S
C490 C489 1.362 . S
C490 C493 1.409 . S
C491 H483 0.930 . S
C491 C492 1.355 . S
C491 C493 1.415 . S
C492 C491 1.355 . S
C492 C494 1.419 . S
C493 C488 1.425 . S
C493 C490 1.409 . S
C493 C491 1.415 . S
C494 H484 0.930 . S
C494 C492 1.419 . S
C494 C495 1.362 . S
C495 H485 0.930 . S
C495 C488 1.409 . S
C495 C494 1.362 . S
H496 C502 0.930 . S
H497 C505 0.930 . S
H498 C506 0.930 . S
H499 C507 0.930 . S
H500 C510 0.930 . S
H501 C511 0.930 . S
C502 H496 0.930 . S
C502 C503 1.355 . S
C502 C504 1.415 . S
C503 C502 1.355 . S
C503 C505 1.419 1_545 S
C504 C502 1.415 . S
C504 C509 1.425 1_545 S
C504 C511 1.409 . S
C505 H497 0.930 . S
C505 C503 1.419 1_565 S
C505 C506 1.362 . S
C506 H498 0.930 . S
C506 C505 1.362 . S
C506 C509 1.409 . S
C507 H499 0.930 . S
C507 C508 1.355 . S
C507 C509 1.415 . S
C508 C507 1.355 . S
C508 C510 1.419 1_565 S
C509 C504 1.425 1_565 S
C509 C506 1.409 . S
C509 C507 1.415 . S
C510 H500 0.930 . S
C510 C508 1.419 1_545 S
C510 C511 1.362 . S
C511 H501 0.930 . S
C511 C504 1.409 . S
C511 C510 1.362 . S
H512 C518 0.930 . S
H513 C521 0.930 . S
H514 C522 0.930 . S
H515 C523 0.930 . S
H516 C526 0.930 . S
H517 C527 0.930 . S
C518 H512 0.930 . S
C518 C519 1.355 . S
C518 C520 1.415 . S
C519 C518 1.355 . S
C519 C521 1.419 . S
C520 C518 1.415 . S
C520 C525 1.425 . S
C520 C527 1.409 . S
C521 H513 0.930 . S
C521 C519 1.419 . S
C521 C522 1.362 . S
C522 H514 0.930 . S
C522 C521 1.362 . S
C522 C525 1.409 . S
C523 H515 0.930 . S
C523 C524 1.355 . S
C523 C525 1.415 . S
C524 C523 1.355 . S
C524 C526 1.419 . S
C525 C520 1.425 . S
C525 C522 1.409 . S
C525 C523 1.415 . S
C526 H516 0.930 . S
C526 C524 1.419 . S
C526 C527 1.362 . S
C527 H517 0.930 . S
C527 C520 1.409 . S
C527 C526 1.362 . S
H528 C534 0.930 . S
H529 C537 0.930 . S
H530 C538 0.930 . S
H531 C539 0.930 . S
H532 C542 0.930 . S
H533 C543 0.930 . S
C534 H528 0.930 . S
C534 C535 1.355 . S
C534 C536 1.415 . S
C535 C534 1.355 . S
C535 C537 1.419 . S
C536 C534 1.415 . S
C536 C541 1.425 . S
C536 C543 1.409 . S
C537 H529 0.930 . S
C537 C535 1.419 . S
C537 C538 1.362 . S
C538 H530 0.930 . S
C538 C537 1.362 . S
C538 C541 1.409 . S
C539 H531 0.930 . S
C539 C540 1.355 . S
C539 C541 1.415 . S
C540 C539 1.355 . S
C540 C542 1.419 . S
C541 C536 1.425 . S
C541 C538 1.409 . S
C541 C539 1.415 . S
C542 H532 0.930 . S
C542 C540 1.419 . S
C542 C543 1.362 . S
C543 H533 0.930 . S
C543 C536 1.409 . S
C543 C542 1.362 . S
H544 C550 0.930 . S
H545 C553 0.930 . S
H546 C554 0.930 . S
H547 C555 0.930 . S
H548 C558 0.930 . S
H549 C559 0.930 . S
C550 H544 0.930 . S
C550 C551 1.355 . S
C550 C552 1.415 . S
C551 C550 1.355 . S
C551 C553 1.419 . S
C552 C550 1.415 . S
C552 C557 1.425 . S
C552 C559 1.409 . S
C553 H545 0.930 . S
C553 C551 1.419 . S
C553 C554 1.362 . S
C554 H546 0.930 . S
C554 C553 1.362 . S
C554 C557 1.409 . S
C555 H547 0.930 . S
C555 C556 1.355 . S
C555 C557 1.415 . S
C556 C555 1.355 . S
C556 C558 1.419 . S
C557 C552 1.425 . S
C557 C554 1.409 . S
C557 C555 1.415 . S
C558 H548 0.930 . S
C558 C556 1.419 . S
C558 C559 1.362 . S
C559 H549 0.930 . S
C559 C552 1.409 . S
C559 C558 1.362 . S
H560 C566 0.930 . S
H561 C569 0.930 . S
H562 C570 0.930 . S
H563 C571 0.930 . S
H564 C574 0.930 . S
H565 C575 0.930 . S
C566 H560 0.930 . S
C566 C567 1.355 . S
C566 C568 1.415 . S
C567 C566 1.355 . S
C567 C569 1.419 . S
C568 C566 1.415 . S
C568 C573 1.425 . S
C568 C575 1.409 . S
C569 H561 0.930 . S
C569 C567 1.419 . S
C569 C570 1.362 . S
C570 H562 0.930 . S
C570 C569 1.362 . S
C570 C573 1.409 . S
C571 H563 0.930 . S
C571 C572 1.355 . S
C571 C573 1.415 . S
C572 C571 1.355 . S
C572 C574 1.419 . S
C573 C568 1.425 . S
C573 C570 1.409 . S
C573 C571 1.415 . S
C574 H564 0.930 . S
C574 C572 1.419 . S
C574 C575 1.362 . S
C575 H565 0.930 . S
C575 C568 1.409 . S
C575 C574 1.362 . S
H576 C582 0.930 . S
H577 C585 0.930 . S
H578 C586 0.930 . S
H579 C587 0.930 . S
H580 C590 0.930 . S
H581 C591 0.930 . S
C582 H576 0.930 . S
C582 C583 1.355 . S
C582 C584 1.415 . S
C583 C582 1.355 . S
C583 C585 1.419 . S
C584 C582 1.415 . S
C584 C589 1.425 1_554 S
C584 C591 1.409 . S
C585 H577 0.930 . S
C585 C583 1.419 . S
C585 C586 1.362 1_554 S
C586 H578 0.930 . S
C586 C585 1.362 1_556 S
C586 C589 1.409 . S
C587 H579 0.930 . S
C587 C588 1.355 . S
C587 C589 1.415 . S
C588 C587 1.355 . S
C588 C590 1.419 . S
C589 C584 1.425 1_556 S
C589 C586 1.409 . S
C589 C587 1.415 . S
C590 H580 0.930 . S
C590 C588 1.419 . S
C590 C591 1.362 1_556 S
C591 H581 0.930 . S
C591 C584 1.409 . S
C591 C590 1.362 1_554 S
H592 C598 0.930 . S
H593 C601 0.930 . S
H594 C602 0.930 . S
H595 C603 0.930 . S
H596 C606 0.930 . S
H597 C607 0.930 . S
C598 H592 0.930 . S
C598 C599 1.355 . S
C598 C600 1.415 . S
C599 C598 1.355 . S
C599 C601 1.419 . S
C600 C598 1.415 . S
C600 C605 1.425 . S
C600 C607 1.409 . S
C601 H593 0.930 . S
C601 C599 1.419 . S
C601 C602 1.362 . S
C602 H594 0.930 . S
C602 C601 1.362 . S
C602 C605 1.409 . S
C603 H595 0.930 . S
C603 C604 1.355 . S
C603 C605 1.415 . S
C604 C603 1.355 . S
C604 C606 1.419 . S
C605 C600 1.425 . S
C605 C602 1.409 . S
C605 C603 1.415 . S
C606 H596 0.930 . S
C606 C604 1.419 . S
C606 C607 1.362 . S
C607 H597 0.930 . S
C607 C600 1.409 . S
C607 C606 1.362 . S
H608 C614 0.930 . S
H609 C617 0.930 . S
H610 C618 0.930 . S
H611 C619 0.930 . S
H612 C622 0.930 . S
H613 C623 0.930 . S
C614 H608 0.930 . S
C614 C615 1.355 . S
C614 C616 1.415 . S
C615 C614 1.355 . S
C615 C617 1.419 . S
C616 C614 1.415 . S
C616 C621 1.425 . S
C616 C623 1.409 . S
C617 H609 0.930 . S
C617 C615 1.419 . S
C617 C618 1.362 . S
C618 H610 0.930 . S
C618 C617 1.362 . S
C618 C621 1.409 . S
C619 H611 0.930 . S
C619 C620 1.355 . S
C619 C621 1.415 . S
C620 C619 1.355 . S
C620 C622 1.419 . S
C621 C616 1.425 . S
C621 C618 1.409 . S
C621 C619 1.415 . S
C622 H612 0.930 . S
C622 C620 1.419 . S
C622 C623 1.362 . S
C623 H613 0.930 . S
C623 C616 1.409 . S
C623 C622 1.362 . S
H624 C630 0.930 . S
H625 C633 0.930 . S
H626 C634 0.930 . S
H627 C635 0.930 . S
H628 C638 0.930 . S
H629 C639 0.930 . S
C630 H624 0.930 . S
C630 C631 1.355 . S
C630 C632 1.415 . S
C631 C630 1.355 . S
C631 C633 1.419 . S
C632 C630 1.415 . S
C632 C637 1.425 . S
C632 C639 1.409 . S
C633 H625 0.930 . S
C633 C631 1.419 . S
C633 C634 1.362 . S
C634 H626 0.930 . S
C634 C633 1.362 . S
C634 C637 1.409 . S
C635 H627 0.930 . S
C635 C636 1.355 . S
C635 C637 1.415 . S
C636 C635 1.355 . S
C636 C638 1.419 . S
C637 C632 1.425 . S
C637 C634 1.409 . S
C637 C635 1.415 . S
C638 H628 0.930 . S
C638 C636 1.419 . S
C638 C639 1.362 . S
C639 H629 0.930 . S
C639 C632 1.409 . S
C639 C638 1.362 . S
H640 C646 0.930 . S
H641 C649 0.930 . S
H642 C650 0.930 . S
H643 C651 0.930 . S
H644 C654 0.930 . S
H645 C655 0.930 . S
C646 H640 0.930 . S
C646 C647 1.355 . S
C646 C648 1.415 . S
C647 C646 1.355 . S
C647 C649 1.419 . S
C648 C646 1.415 . S
C648 C653 1.425 . S
C648 C655 1.409 . S
C649 H641 0.930 . S
C649 C647 1.419 . S
C649 C650 1.362 . S
C650 H642 0.930 . S
C650 C649 1.362 . S
C650 C653 1.409 . S
C651 H643 0.930 . S
C651 C652 1.355 . S
C651 C653 1.415 . S
C652 C651 1.355 . S
C652 C654 1.419 . S
C653 C648 1.425 . S
C653 C650 1.409 . S
C653 C651 1.415 . S
C654 H644 0.930 . S
C654 C652 1.419 . S
C654 C655 1.362 . S
C655 H645 0.930 . S
C655 C648 1.409 . S
C655 C654 1.362 . S
H656 C662 0.930 . S
H657 C665 0.930 . S
H658 C666 0.930 . S
H659 C667 0.930 . S
H660 C670 0.930 . S
H661 C671 0.930 . S
C662 H656 0.930 . S
C662 C663 1.355 . S
C662 C664 1.415 . S
C663 C662 1.355 . S
C663 C665 1.419 . S
C664 C662 1.415 . S
C664 C669 1.425 . S
C664 C671 1.409 . S
C665 H657 0.930 . S
C665 C663 1.419 . S
C665 C666 1.362 . S
C666 H658 0.930 . S
C666 C665 1.362 . S
C666 C669 1.409 . S
C667 H659 0.930 . S
C667 C668 1.355 . S
C667 C669 1.415 . S
C668 C667 1.355 . S
C668 C670 1.419 . S
C669 C664 1.425 . S
C669 C666 1.409 . S
C669 C667 1.415 . S
C670 H660 0.930 . S
C670 C668 1.419 . S
C670 C671 1.362 . S
C671 H661 0.930 . S
C671 C664 1.409 . S
C671 C670 1.362 . S
H672 C678 0.930 . S
H673 C681 0.930 . S
H674 C682 0.930 . S
H675 C683 0.930 . S
H676 C686 0.930 . S
H677 C687 0.930 . S
C678 H672 0.930 . S
C678 C679 1.355 . S
C678 C680 1.415 . S
C679 C678 1.355 . S
C679 C681 1.419 . S
C680 C678 1.415 . S
C680 C685 1.425 . S
C680 C687 1.409 . S
C681 H673 0.930 . S
C681 C679 1.419 . S
C681 C682 1.362 . S
C682 H674 0.930 . S
C682 C681 1.362 . S
C682 C685 1.409 . S
C683 H675 0.930 . S
C683 C684 1.355 . S
C683 C685 1.415 . S
C684 C683 1.355 . S
C684 C686 1.419 . S
C685 C680 1.425 . S
C685 C682 1.409 . S
C685 C683 1.415 . S
C686 H676 0.930 . S
C686 C684 1.419 . S
C686 C687 1.362 . S
C687 H677 0.930 . S
C687 C680 1.409 . S
C687 C686 1.362 . S
H688 C694 0.930 . S
H689 C697 0.930 . S
H690 C698 0.930 . S
H691 C699 0.930 . S
H692 C702 0.930 . S
H693 C703 0.930 . S
C694 H688 0.930 . S
C694 C695 1.355 . S
C694 C696 1.415 . S
C695 C694 1.355 . S
C695 C697 1.419 . S
C696 C694 1.415 . S
C696 C701 1.425 . S
C696 C703 1.409 . S
C697 H689 0.930 . S
C697 C695 1.419 . S
C697 C698 1.362 . S
C698 H690 0.930 . S
C698 C697 1.362 . S
C698 C701 1.409 . S
C699 H691 0.930 . S
C699 C700 1.355 . S
C699 C701 1.415 . S
C700 C699 1.355 . S
C700 C702 1.419 . S
C701 C696 1.425 . S
C701 C698 1.409 . S
C701 C699 1.415 . S
C702 H692 0.930 . S
C702 C700 1.419 . S
C702 C703 1.362 . S
C703 H693 0.930 . S
C703 C696 1.409 . S
C703 C702 1.362 . S
H704 C710 0.930 . S
H705 C713 0.930 1_565 S
H706 C714 0.930 . S
H707 C715 0.930 . S
H708 C718 0.930 . S
H709 C719 0.930 . S
C710 H704 0.930 . S
C710 C711 1.355 . S
C710 C712 1.415 . S
C711 C710 1.355 . S
C711 C713 1.419 . S
C712 C710 1.415 . S
C712 C717 1.425 . S
C712 C719 1.409 . S
C713 H705 0.930 1_545 S
C713 C711 1.419 . S
C713 C714 1.362 . S
C714 H706 0.930 . S
C714 C713 1.362 . S
C714 C717 1.409 . S
C715 H707 0.930 . S
C715 C716 1.355 . S
C715 C717 1.415 . S
C716 C715 1.355 . S
C716 C718 1.419 . S
C717 C712 1.425 . S
C717 C714 1.409 . S
C717 C715 1.415 . S
C718 H708 0.930 . S
C718 C716 1.419 . S
C718 C719 1.362 . S
C719 H709 0.930 . S
C719 C712 1.409 . S
C719 C718 1.362 . S
H720 C726 0.930 . S
H721 C729 0.930 . S
H722 C730 0.930 . S
H723 C731 0.930 . S
H724 C734 0.930 . S
H725 C735 0.930 . S
C726 H720 0.930 . S
C726 C727 1.355 . S
C726 C728 1.415 . S
C727 C726 1.355 . S
C727 C729 1.419 . S
C728 C726 1.415 . S
C728 C733 1.425 . S
C728 C735 1.409 . S
C729 H721 0.930 . S
C729 C727 1.419 . S
C729 C730 1.362 . S
C730 H722 0.930 . S
C730 C729 1.362 . S
C730 C733 1.409 . S
C731 H723 0.930 . S
C731 C732 1.355 . S
C731 C733 1.415 . S
C732 C731 1.355 . S
C732 C734 1.419 . S
C733 C728 1.425 . S
C733 C730 1.409 . S
C733 C731 1.415 . S
C734 H724 0.930 . S
C734 C732 1.419 . S
C734 C735 1.362 . S
C735 H725 0.930 . S
C735 C728 1.409 . S
C735 C734 1.362 . S
H736 C742 0.930 . S
H737 C745 0.930 . S
H738 C746 0.930 . S
H739 C747 0.930 . S
H740 C750 0.930 . S
H741 C751 0.930 . S
C742 H736 0.930 . S
C742 C743 1.355 . S
C742 C744 1.415 . S
C743 C742 1.355 . S
C743 C745 1.419 . S
C744 C742 1.415 . S
C744 C749 1.425 . S
C744 C751 1.409 1_545 S
C745 H737 0.930 . S
C745 C743 1.419 . S
C745 C746 1.362 . S
C746 H738 0.930 . S
C746 C745 1.362 . S
C746 C749 1.409 . S
C747 H739 0.930 . S
C747 C748 1.355 1_545 S
C747 C749 1.415 . S
C748 C747 1.355 1_565 S
C748 C750 1.419 . S
C749 C744 1.425 . S
C749 C746 1.409 . S
C749 C747 1.415 . S
C750 H740 0.930 . S
C750 C748 1.419 . S
C750 C751 1.362 . S
C751 H741 0.930 . S
C751 C744 1.409 1_565 S
C751 C750 1.362 . S
H752 C758 0.930 . S
H753 C761 0.930 . S
H754 C762 0.930 . S
H755 C763 0.930 . S
H756 C766 0.930 . S
H757 C767 0.930 . S
C758 H752 0.930 . S
C758 C759 1.355 . S
C758 C760 1.415 . S
C759 C758 1.355 . S
C759 C761 1.419 . S
C760 C758 1.415 . S
C760 C765 1.425 . S
C760 C767 1.409 . S
C761 H753 0.930 . S
C761 C759 1.419 . S
C761 C762 1.362 . S
C762 H754 0.930 . S
C762 C761 1.362 . S
C762 C765 1.409 . S
C763 H755 0.930 . S
C763 C764 1.355 . S
C763 C765 1.415 . S
C764 C763 1.355 . S
C764 C766 1.419 . S
C765 C760 1.425 . S
C765 C762 1.409 . S
C765 C763 1.415 . S
C766 H756 0.930 . S
C766 C764 1.419 . S
C766 C767 1.362 . S
C767 H757 0.930 . S
C767 C760 1.409 . S
C767 C766 1.362 . S
H768 C774 0.930 . S
H769 C777 0.930 . S
H770 C778 0.930 . S
H771 C779 0.930 . S
H772 C782 0.930 . S
H773 C783 0.930 1_545 S
C774 H768 0.930 . S
C774 C775 1.355 . S
C774 C776 1.415 . S
C775 C774 1.355 . S
C775 C777 1.419 . S
C776 C774 1.415 . S
C776 C781 1.425 . S
C776 C783 1.409 . S
C777 H769 0.930 . S
C777 C775 1.419 . S
C777 C778 1.362 . S
C778 H770 0.930 . S
C778 C777 1.362 . S
C778 C781 1.409 . S
C779 H771 0.930 . S
C779 C780 1.355 1_565 S
C779 C781 1.415 . S
C780 C779 1.355 1_545 S
C780 C782 1.419 . S
C781 C776 1.425 . S
C781 C778 1.409 . S
C781 C779 1.415 . S
C782 H772 0.930 . S
C782 C780 1.419 . S
C782 C783 1.362 1_545 S
C783 H773 0.930 1_565 S
C783 C776 1.409 . S
C783 C782 1.362 1_565 S
H784 C790 0.930 . S
H785 C793 0.930 . S
H786 C794 0.930 . S
H787 C795 0.930 . S
H788 C798 0.930 . S
H789 C799 0.930 . S
C790 H784 0.930 . S
C790 C791 1.355 . S
C790 C792 1.415 . S
C791 C790 1.355 . S
C791 C793 1.419 . S
C792 C790 1.415 . S
C792 C797 1.425 . S
C792 C799 1.409 . S
C793 H785 0.930 . S
C793 C791 1.419 . S
C793 C794 1.362 . S
C794 H786 0.930 . S
C794 C793 1.362 . S
C794 C797 1.409 . S
C795 H787 0.930 . S
C795 C796 1.355 . S
C795 C797 1.415 . S
C796 C795 1.355 . S
C796 C798 1.419 . S
C797 C792 1.425 . S
C797 C794 1.409 . S
C797 C795 1.415 . S
C798 H788 0.930 . S
C798 C796 1.419 . S
C798 C799 1.362 . S
C799 H789 0.930 . S
C799 C792 1.409 . S
C799 C798 1.362 . S
H800 C806 0.930 . S
H801 C809 0.930 . S
H802 C810 0.930 . S
H803 C811 0.930 . S
H804 C814 0.930 . S
H805 C815 0.930 . S
C806 H800 0.930 . S
C806 C807 1.355 . S
C806 C808 1.415 1_565 S
C807 C806 1.355 . S
C807 C809 1.419 1_565 S
C808 C806 1.415 1_545 S
C808 C813 1.425 . S
C808 C815 1.409 . S
C809 H801 0.930 . S
C809 C807 1.419 1_545 S
C809 C810 1.362 . S
C810 H802 0.930 . S
C810 C809 1.362 . S
C810 C813 1.409 . S
C811 H803 0.930 . S
C811 C812 1.355 . S
C811 C813 1.415 . S
C812 C811 1.355 . S
C812 C814 1.419 . S
C813 C808 1.425 . S
C813 C810 1.409 . S
C813 C811 1.415 . S
C814 H804 0.930 . S
C814 C812 1.419 . S
C814 C815 1.362 . S
C815 H805 0.930 . S
C815 C808 1.409 . S
C815 C814 1.362 . S
H816 C822 0.930 . S
H817 C825 0.930 . S
H818 C826 0.930 . S
H819 C827 0.930 . S
H820 C830 0.930 . S
H821 C831 0.930 . S
C822 H816 0.930 . S
C822 C823 1.355 . S
C822 C824 1.415 . S
C823 C822 1.355 . S
C823 C825 1.419 . S
C824 C822 1.415 . S
C824 C829 1.425 . S
C824 C831 1.409 . S
C825 H817 0.930 . S
C825 C823 1.419 . S
C825 C826 1.362 . S
C826 H818 0.930 . S
C826 C825 1.362 . S
C826 C829 1.409 . S
C827 H819 0.930 . S
C827 C828 1.355 . S
C827 C829 1.415 . S
C828 C827 1.355 . S
C828 C830 1.419 . S
C829 C824 1.425 . S
C829 C826 1.409 . S
C829 C827 1.415 . S
C830 H820 0.930 . S
C830 C828 1.419 . S
C830 C831 1.362 . S
C831 H821 0.930 . S
C831 C824 1.409 . S
C831 C830 1.362 . S
H832 C838 0.930 . S
H833 C841 0.930 . S
H834 C842 0.930 . S
H835 C843 0.930 . S
H836 C846 0.930 . S
H837 C847 0.930 . S
C838 H832 0.930 . S
C838 C839 1.355 1_565 S
C838 C840 1.415 . S
C839 C838 1.355 1_545 S
C839 C841 1.419 . S
C840 C838 1.415 . S
C840 C845 1.425 . S
C840 C847 1.409 . S
C841 H833 0.930 . S
C841 C839 1.419 . S
C841 C842 1.362 . S
C842 H834 0.930 . S
C842 C841 1.362 . S
C842 C845 1.409 1_545 S
C843 H835 0.930 . S
C843 C844 1.355 . S
C843 C845 1.415 . S
C844 C843 1.355 . S
C844 C846 1.419 . S
C845 C840 1.425 . S
C845 C842 1.409 1_565 S
C845 C843 1.415 . S
C846 H836 0.930 . S
C846 C844 1.419 . S
C846 C847 1.362 . S
C847 H837 0.930 . S
C847 C840 1.409 . S
C847 C846 1.362 . S
H848 C854 0.930 . S
H849 C857 0.930 . S
H850 C858 0.930 . S
H851 C859 0.930 . S
H852 C862 0.930 . S
H853 C863 0.930 . S
C854 H848 0.930 . S
C854 C855 1.355 . S
C854 C856 1.415 . S
C855 C854 1.355 . S
C855 C857 1.419 . S
C856 C854 1.415 . S
C856 C861 1.425 . S
C856 C863 1.409 . S
C857 H849 0.930 . S
C857 C855 1.419 . S
C857 C858 1.362 . S
C858 H850 0.930 . S
C858 C857 1.362 . S
C858 C861 1.409 . S
C859 H851 0.930 . S
C859 C860 1.355 . S
C859 C861 1.415 . S
C860 C859 1.355 . S
C860 C862 1.419 . S
C861 C856 1.425 . S
C861 C858 1.409 . S
C861 C859 1.415 . S
C862 H852 0.930 . S
C862 C860 1.419 . S
C862 C863 1.362 . S
C863 H853 0.930 . S
C863 C856 1.409 . S
C863 C862 1.362 . S
H864 C870 0.930 . S
H865 C873 0.930 . S
H866 C874 0.930 . S
H867 C875 0.930 . S
H868 C878 0.930 . S
H869 C879 0.930 . S
C870 H864 0.930 . S
C870 C871 1.355 . S
C870 C872 1.415 . S
C871 C870 1.355 . S
C871 C873 1.419 . S
C872 C870 1.415 . S
C872 C877 1.425 . S
C872 C879 1.409 . S
C873 H865 0.930 . S
C873 C871 1.419 . S
C873 C874 1.362 . S
C874 H866 0.930 . S
C874 C873 1.362 . S
C874 C877 1.409 . S
C875 H867 0.930 . S
C875 C876 1.355 . S
C875 C877 1.415 . S
C876 C875 1.355 . S
C876 C878 1.419 . S
C877 C872 1.425 . S
C877 C874 1.409 . S
C877 C875 1.415 . S
C878 H868 0.930 . S
C878 C876 1.419 . S
C878 C879 1.362 . S
C879 H869 0.930 . S
C879 C872 1.409 . S
C879 C878 1.362 . S
H880 C886 0.930 . S
H881 C889 0.930 . S
H882 C890 0.930 . S
H883 C891 0.930 . S
H884 C894 0.930 . S
H885 C895 0.930 . S
C886 H880 0.930 . S
C886 C887 1.355 . S
C886 C888 1.415 . S
C887 C886 1.355 . S
C887 C889 1.419 . S
C888 C886 1.415 . S
C888 C893 1.425 . S
C888 C895 1.409 . S
C889 H881 0.930 . S
C889 C887 1.419 . S
C889 C890 1.362 . S
C890 H882 0.930 . S
C890 C889 1.362 . S
C890 C893 1.409 . S
C891 H883 0.930 . S
C891 C892 1.355 . S
C891 C893 1.415 . S
C892 C891 1.355 . S
C892 C894 1.419 . S
C893 C888 1.425 . S
C893 C890 1.409 . S
C893 C891 1.415 . S
C894 H884 0.930 . S
C894 C892 1.419 . S
C894 C895 1.362 . S
C895 H885 0.930 . S
C895 C888 1.409 . S
C895 C894 1.362 . S
H896 C902 0.930 . S
H897 C905 0.930 . S
H898 C906 0.930 . S
H899 C907 0.930 . S
H900 C910 0.930 . S
H901 C911 0.930 . S
C902 H896 0.930 . S
C902 C903 1.355 . S
C902 C904 1.415 . S
C903 C902 1.355 . S
C903 C905 1.419 . S
C904 C902 1.415 . S
C904 C909 1.425 . S
C904 C911 1.409 . S
C905 H897 0.930 . S
C905 C903 1.419 . S
C905 C906 1.362 . S
C906 H898 0.930 . S
C906 C905 1.362 . S
C906 C909 1.409 . S
C907 H899 0.930 . S
C907 C908 1.355 . S
C907 C909 1.415 . S
C908 C907 1.355 . S
C908 C910 1.419 . S
C909 C904 1.425 . S
C909 C906 1.409 . S
C909 C907 1.415 . S
C910 H900 0.930 . S
C910 C908 1.419 . S
C910 C911 1.362 . S
C911 H901 0.930 . S
C911 C904 1.409 . S
C911 C910 1.362 . S
H912 C918 0.930 . S
H913 C921 0.930 . S
H914 C922 0.930 . S
H915 C923 0.930 . S
H916 C926 0.930 . S
H917 C927 0.930 . S
C918 H912 0.930 . S
C918 C919 1.355 . S
C918 C920 1.415 . S
C919 C918 1.355 . S
C919 C921 1.419 . S
C920 C918 1.415 . S
C920 C925 1.425 . S
C920 C927 1.409 . S
C921 H913 0.930 . S
C921 C919 1.419 . S
C921 C922 1.362 . S
C922 H914 0.930 . S
C922 C921 1.362 . S
C922 C925 1.409 . S
C923 H915 0.930 . S
C923 C924 1.355 . S
C923 C925 1.415 . S
C924 C923 1.355 . S
C924 C926 1.419 . S
C925 C920 1.425 . S
C925 C922 1.409 . S
C925 C923 1.415 . S
C926 H916 0.930 . S
C926 C924 1.419 . S
C926 C927 1.362 . S
C927 H917 0.930 . S
C927 C920 1.409 . S
C927 C926 1.362 . S
H928 C934 0.930 . S
H929 C937 0.930 . S
H930 C938 0.930 . S
H931 C939 0.930 . S
H932 C942 0.930 . S
H933 C943 0.930 . S
C934 H928 0.930 . S
C934 C935 1.355 . S
C934 C936 1.415 . S
C935 C934 1.355 . S
C935 C937 1.419 . S
C936 C934 1.415 . S
C936 C941 1.425 . S
C936 C943 1.409 . S
C937 H929 0.930 . S
C937 C935 1.419 . S
C937 C938 1.362 . S
C938 H930 0.930 . S
C938 C937 1.362 . S
C938 C941 1.409 . S
C939 H931 0.930 . S
C939 C940 1.355 . S
C939 C941 1.415 . S
C940 C939 1.355 . S
C940 C942 1.419 . S
C941 C936 1.425 . S
C941 C938 1.409 . S
C941 C939 1.415 . S
C942 H932 0.930 . S
C942 C940 1.419 . S
C942 C943 1.362 . S
C943 H933 0.930 . S
C943 C936 1.409 . S
C943 C942 1.362 . S
H944 C950 0.930 . S
H945 C953 0.930 . S
H946 C954 0.930 . S
H947 C955 0.930 . S
H948 C958 0.930 . S
H949 C959 0.930 . S
C950 H944 0.930 . S
C950 C951 1.355 . S
C950 C952 1.415 . S
C951 C950 1.355 . S
C951 C953 1.419 . S
C952 C950 1.415 . S
C952 C957 1.425 . S
C952 C959 1.409 . S
C953 H945 0.930 . S
C953 C951 1.419 . S
C953 C954 1.362 . S
C954 H946 0.930 . S
C954 C953 1.362 . S
C954 C957 1.409 . S
C955 H947 0.930 . S
C955 C956 1.355 . S
C955 C957 1.415 . S
C956 C955 1.355 . S
C956 C958 1.419 . S
C957 C952 1.425 . S
C957 C954 1.409 . S
C957 C955 1.415 . S
C958 H948 0.930 . S
C958 C956 1.419 . S
C958 C959 1.362 . S
C959 H949 0.930 . S
C959 C952 1.409 . S
C959 C958 1.362 . S
H960 C966 0.930 . S
H961 C969 0.930 . S
H962 C970 0.930 . S
H963 C971 0.930 . S
H964 C974 0.930 . S
H965 C975 0.930 . S
C966 H960 0.930 . S
C966 C967 1.355 . S
C966 C968 1.415 . S
C967 C966 1.355 . S
C967 C969 1.419 . S
C968 C966 1.415 . S
C968 C973 1.425 . S
C968 C975 1.409 . S
C969 H961 0.930 . S
C969 C967 1.419 . S
C969 C970 1.362 . S
C970 H962 0.930 . S
C970 C969 1.362 . S
C970 C973 1.409 . S
C971 H963 0.930 . S
C971 C972 1.355 . S
C971 C973 1.415 . S
C972 C971 1.355 . S
C972 C974 1.419 . S
C973 C968 1.425 . S
C973 C970 1.409 . S
C973 C971 1.415 . S
C974 H964 0.930 . S
C974 C972 1.419 . S
C974 C975 1.362 . S
C975 H965 0.930 . S
C975 C968 1.409 . S
C975 C974 1.362 . S
H976 C982 0.930 . S
H977 C985 0.930 . S
H978 C986 0.930 . S
H979 C987 0.930 . S
H980 C990 0.930 . S
H981 C991 0.930 . S
C982 H976 0.930 . S
C982 C983 1.355 . S
C982 C984 1.415 . S
C983 C982 1.355 . S
C983 C985 1.419 . S
C984 C982 1.415 . S
C984 C989 1.425 . S
C984 C991 1.409 . S
C985 H977 0.930 . S
C985 C983 1.419 . S
C985 C986 1.362 . S
C986 H978 0.930 . S
C986 C985 1.362 . S
C986 C989 1.409 . S
C987 H979 0.930 . S
C987 C988 1.355 . S
C987 C989 1.415 . S
C988 C987 1.355 . S
C988 C990 1.419 . S
C989 C984 1.425 . S
C989 C986 1.409 . S
C989 C987 1.415 . S
C990 H980 0.930 . S
C990 C988 1.419 . S
C990 C991 1.362 . S
C991 H981 0.930 . S
C991 C984 1.409 . S
C991 C990 1.362 . S
H992 C998 0.930 . S
H993 C1001 0.930 . S
H994 C1002 0.930 . S
H995 C1003 0.930 . S
H996 C1006 0.930 . S
H997 C1007 0.930 . S
C998 H992 0.930 . S
C998 C999 1.355 . S
C998 C1000 1.415 . S
C999 C998 1.355 . S
C999 C1001 1.419 . S
C1000 C998 1.415 . S
C1000 C1005 1.425 . S
C1000 C1007 1.409 . S
C1001 H993 0.930 . S
C1001 C999 1.419 . S
C1001 C1002 1.362 . S
C1002 H994 0.930 . S
C1002 C1001 1.362 . S
C1002 C1005 1.409 . S
C1003 H995 0.930 . S
C1003 C1004 1.355 . S
C1003 C1005 1.415 . S
C1004 C1003 1.355 . S
C1004 C1006 1.419 . S
C1005 C1000 1.425 . S
C1005 C1002 1.409 . S
C1005 C1003 1.415 . S
C1006 H996 0.930 . S
C1006 C1004 1.419 . S
C1006 C1007 1.362 . S
C1007 H997 0.930 . S
C1007 C1000 1.409 . S
C1007 C1006 1.362 . S
H1008 C1014 0.930 . S
H1009 C1017 0.930 . S
H1010 C1018 0.930 . S
H1011 C1019 0.930 . S
H1012 C1022 0.930 . S
H1013 C1023 0.930 . S
C1014 H1008 0.930 . S
C1014 C1015 1.355 . S
C1014 C1016 1.415 . S
C1015 C1014 1.355 . S
C1015 C1017 1.419 . S
C1016 C1014 1.415 . S
C1016 C1021 1.425 . S
C1016 C1023 1.409 . S
C1017 H1009 0.930 . S
C1017 C1015 1.419 . S
C1017 C1018 1.362 . S
C1018 H1010 0.930 . S
C1018 C1017 1.362 . S
C1018 C1021 1.409 . S
C1019 H1011 0.930 . S
C1019 C1020 1.355 . S
C1019 C1021 1.415 . S
C1020 C1019 1.355 . S
C1020 C1022 1.419 . S
C1021 C1016 1.425 . S
C1021 C1018 1.409 . S
C1021 C1019 1.415 . S
C1022 H1012 0.930 . S
C1022 C1020 1.419 . S
C1022 C1023 1.362 . S
C1023 H1013 0.930 . S
C1023 C1016 1.409 . S
C1023 C1022 1.362 . S
H1024 C1030 0.930 . S
H1025 C1033 0.930 . S
H1026 C1034 0.930 . S
H1027 C1035 0.930 . S
H1028 C1038 0.930 . S
H1029 C1039 0.930 . S
C1030 H1024 0.930 . S
C1030 C1031 1.355 . S
C1030 C1032 1.415 . S
C1031 C1030 1.355 . S
C1031 C1033 1.419 . S
C1032 C1030 1.415 . S
C1032 C1037 1.425 . S
C1032 C1039 1.409 . S
C1033 H1025 0.930 . S
C1033 C1031 1.419 . S
C1033 C1034 1.362 . S
C1034 H1026 0.930 . S
C1034 C1033 1.362 . S
C1034 C1037 1.409 . S
C1035 H1027 0.930 . S
C1035 C1036 1.355 . S
C1035 C1037 1.415 . S
C1036 C1035 1.355 . S
C1036 C1038 1.419 . S
C1037 C1032 1.425 . S
C1037 C1034 1.409 . S
C1037 C1035 1.415 . S
C1038 H1028 0.930 . S
C1038 C1036 1.419 . S
C1038 C1039 1.362 . S
C1039 H1029 0.930 . S
C1039 C1032 1.409 . S
C1039 C1038 1.362 . S
H1040 C1046 0.930 . S
H1041 C1049 0.930 . S
H1042 C1050 0.930 . S
H1043 C1051 0.930 . S
H1044 C1054 0.930 . S
H1045 C1055 0.930 . S
C1046 H1040 0.930 . S
C1046 C1047 1.355 . S
C1046 C1048 1.415 . S
C1047 C1046 1.355 . S
C1047 C1049 1.419 . S
C1048 C1046 1.415 . S
C1048 C1053 1.425 . S
C1048 C1055 1.409 . S
C1049 H1041 0.930 . S
C1049 C1047 1.419 . S
C1049 C1050 1.362 . S
C1050 H1042 0.930 . S
C1050 C1049 1.362 . S
C1050 C1053 1.409 . S
C1051 H1043 0.930 . S
C1051 C1052 1.355 . S
C1051 C1053 1.415 . S
C1052 C1051 1.355 . S
C1052 C1054 1.419 . S
C1053 C1048 1.425 . S
C1053 C1050 1.409 . S
C1053 C1051 1.415 . S
C1054 H1044 0.930 . S
C1054 C1052 1.419 . S
C1054 C1055 1.362 . S
C1055 H1045 0.930 . S
C1055 C1048 1.409 . S
C1055 C1054 1.362 . S
H1056 C1062 0.930 . S
H1057 C1065 0.930 . S
H1058 C1066 0.930 . S
H1059 C1067 0.930 . S
H1060 C1070 0.930 . S
H1061 C1071 0.930 . S
C1062 H1056 0.930 . S
C1062 C1063 1.355 . S
C1062 C1064 1.415 . S
C1063 C1062 1.355 . S
C1063 C1065 1.419 . S
C1064 C1062 1.415 . S
C1064 C1069 1.425 . S
C1064 C1071 1.409 . S
C1065 H1057 0.930 . S
C1065 C1063 1.419 . S
C1065 C1066 1.362 . S
C1066 H1058 0.930 . S
C1066 C1065 1.362 . S
C1066 C1069 1.409 . S
C1067 H1059 0.930 . S
C1067 C1068 1.355 . S
C1067 C1069 1.415 . S
C1068 C1067 1.355 . S
C1068 C1070 1.419 . S
C1069 C1064 1.425 . S
C1069 C1066 1.409 . S
C1069 C1067 1.415 . S
C1070 H1060 0.930 . S
C1070 C1068 1.419 . S
C1070 C1071 1.362 . S
C1071 H1061 0.930 . S
C1071 C1064 1.409 . S
C1071 C1070 1.362 . S
H1072 C1078 0.930 . S
H1073 C1081 0.930 . S
H1074 C1082 0.930 . S
H1075 C1083 0.930 . S
H1076 C1086 0.930 . S
H1077 C1087 0.930 . S
C1078 H1072 0.930 . S
C1078 C1079 1.355 . S
C1078 C1080 1.415 . S
C1079 C1078 1.355 . S
C1079 C1081 1.419 . S
C1080 C1078 1.415 . S
C1080 C1085 1.425 . S
C1080 C1087 1.409 . S
C1081 H1073 0.930 . S
C1081 C1079 1.419 . S
C1081 C1082 1.362 . S
C1082 H1074 0.930 . S
C1082 C1081 1.362 . S
C1082 C1085 1.409 . S
C1083 H1075 0.930 . S
C1083 C1084 1.355 . S
C1083 C1085 1.415 . S
C1084 C1083 1.355 . S
C1084 C1086 1.419 . S
C1085 C1080 1.425 . S
C1085 C1082 1.409 . S
C1085 C1083 1.415 . S
C1086 H1076 0.930 . S
C1086 C1084 1.419 . S
C1086 C1087 1.362 . S
C1087 H1077 0.930 . S
C1087 C1080 1.409 . S
C1087 C1086 1.362 . S
H1088 C1094 0.930 . S
H1089 C1097 0.930 . S
H1090 C1098 0.930 . S
H1091 C1099 0.930 . S
H1092 C1102 0.930 . S
H1093 C1103 0.930 . S
C1094 H1088 0.930 . S
C1094 C1095 1.355 . S
C1094 C1096 1.415 . S
C1095 C1094 1.355 . S
C1095 C1097 1.419 . S
C1096 C1094 1.415 . S
C1096 C1101 1.425 . S
C1096 C1103 1.409 . S
C1097 H1089 0.930 . S
C1097 C1095 1.419 . S
C1097 C1098 1.362 . S
C1098 H1090 0.930 . S
C1098 C1097 1.362 . S
C1098 C1101 1.409 . S
C1099 H1091 0.930 . S
C1099 C1100 1.355 . S
C1099 C1101 1.415 . S
C1100 C1099 1.355 . S
C1100 C1102 1.419 . S
C1101 C1096 1.425 . S
C1101 C1098 1.409 . S
C1101 C1099 1.415 . S
C1102 H1092 0.930 . S
C1102 C1100 1.419 . S
C1102 C1103 1.362 . S
C1103 H1093 0.930 . S
C1103 C1096 1.409 . S
C1103 C1102 1.362 . S
H1104 C1110 0.930 . S
H1105 C1113 0.930 . S
H1106 C1114 0.930 . S
H1107 C1115 0.930 . S
H1108 C1118 0.930 . S
H1109 C1119 0.930 . S
C1110 H1104 0.930 . S
C1110 C1111 1.355 . S
C1110 C1112 1.415 . S
C1111 C1110 1.355 . S
C1111 C1113 1.419 . S
C1112 C1110 1.415 . S
C1112 C1117 1.425 . S
C1112 C1119 1.409 . S
C1113 H1105 0.930 . S
C1113 C1111 1.419 . S
C1113 C1114 1.362 . S
C1114 H1106 0.930 . S
C1114 C1113 1.362 . S
C1114 C1117 1.409 . S
C1115 H1107 0.930 . S
C1115 C1116 1.355 . S
C1115 C1117 1.415 . S
C1116 C1115 1.355 . S
C1116 C1118 1.419 . S
C1117 C1112 1.425 . S
C1117 C1114 1.409 . S
C1117 C1115 1.415 . S
C1118 H1108 0.930 . S
C1118 C1116 1.419 . S
C1118 C1119 1.362 . S
C1119 H1109 0.930 . S
C1119 C1112 1.409 . S
C1119 C1118 1.362 . S
H1120 C1126 0.930 . S
H1121 C1129 0.930 . S
H1122 C1130 0.930 1_545 S
H1123 C1131 0.930 . S
H1124 C1134 0.930 . S
H1125 C1135 0.930 . S
C1126 H1120 0.930 . S
C1126 C1127 1.355 . S
C1126 C1128 1.415 . S
C1127 C1126 1.355 . S
C1127 C1129 1.419 1_565 S
C1128 C1126 1.415 . S
C1128 C1133 1.425 . S
C1128 C1135 1.409 . S
C1129 H1121 0.930 . S
C1129 C1127 1.419 1_545 S
C1129 C1130 1.362 1_545 S
C1130 H1122 0.930 1_565 S
C1130 C1129 1.362 1_565 S
C1130 C1133 1.409 . S
C1131 H1123 0.930 . S
C1131 C1132 1.355 . S
C1131 C1133 1.415 . S
C1132 C1131 1.355 . S
C1132 C1134 1.419 . S
C1133 C1128 1.425 . S
C1133 C1130 1.409 . S
C1133 C1131 1.415 . S
C1134 H1124 0.930 . S
C1134 C1132 1.419 . S
C1134 C1135 1.362 . S
C1135 H1125 0.930 . S
C1135 C1128 1.409 . S
C1135 C1134 1.362 . S
H1136 C1142 0.930 . S
H1137 C1145 0.930 . S
H1138 C1146 0.930 . S
H1139 C1147 0.930 . S
H1140 C1150 0.930 . S
H1141 C1151 0.930 1_565 S
C1142 H1136 0.930 . S
C1142 C1143 1.355 . S
C1142 C1144 1.415 . S
C1143 C1142 1.355 . S
C1143 C1145 1.419 . S
C1144 C1142 1.415 . S
C1144 C1149 1.425 . S
C1144 C1151 1.409 . S
C1145 H1137 0.930 . S
C1145 C1143 1.419 . S
C1145 C1146 1.362 . S
C1146 H1138 0.930 . S
C1146 C1145 1.362 . S
C1146 C1149 1.409 . S
C1147 H1139 0.930 . S
C1147 C1148 1.355 . S
C1147 C1149 1.415 . S
C1148 C1147 1.355 . S
C1148 C1150 1.419 1_545 S
C1149 C1144 1.425 . S
C1149 C1146 1.409 . S
C1149 C1147 1.415 . S
C1150 H1140 0.930 . S
C1150 C1148 1.419 1_565 S
C1150 C1151 1.362 1_565 S
C1151 H1141 0.930 1_545 S
C1151 C1144 1.409 . S
C1151 C1150 1.362 1_545 S
H1152 C1158 0.930 . S
H1153 C1161 0.930 . S
H1154 C1162 0.930 . S
H1155 C1163 0.930 . S
H1156 C1166 0.930 . S
H1157 C1167 0.930 . S
C1158 H1152 0.930 . S
C1158 C1159 1.355 . S
C1158 C1160 1.415 . S
C1159 C1158 1.355 . S
C1159 C1161 1.419 . S
C1160 C1158 1.415 . S
C1160 C1165 1.425 . S
C1160 C1167 1.409 . S
C1161 H1153 0.930 . S
C1161 C1159 1.419 . S
C1161 C1162 1.362 . S
C1162 H1154 0.930 . S
C1162 C1161 1.362 . S
C1162 C1165 1.409 . S
C1163 H1155 0.930 . S
C1163 C1164 1.355 . S
C1163 C1165 1.415 . S
C1164 C1163 1.355 . S
C1164 C1166 1.419 . S
C1165 C1160 1.425 . S
C1165 C1162 1.409 . S
C1165 C1163 1.415 . S
C1166 H1156 0.930 . S
C1166 C1164 1.419 . S
C1166 C1167 1.362 . S
C1167 H1157 0.930 . S
C1167 C1160 1.409 . S
C1167 C1166 1.362 . S
H1168 C1174 0.930 . S
H1169 C1177 0.930 . S
H1170 C1178 0.930 . S
H1171 C1179 0.930 . S
H1172 C1182 0.930 . S
H1173 C1183 0.930 . S
C1174 H1168 0.930 . S
C1174 C1175 1.355 . S
C1174 C1176 1.415 . S
C1175 C1174 1.355 . S
C1175 C1177 1.419 . S
C1176 C1174 1.415 . S
C1176 C1181 1.425 . S
C1176 C1183 1.409 . S
C1177 H1169 0.930 . S
C1177 C1175 1.419 . S
C1177 C1178 1.362 . S
C1178 H1170 0.930 . S
C1178 C1177 1.362 . S
C1178 C1181 1.409 . S
C1179 H1171 0.930 . S
C1179 C1180 1.355 . S
C1179 C1181 1.415 . S
C1180 C1179 1.355 . S
C1180 C1182 1.419 . S
C1181 C1176 1.425 . S
C1181 C1178 1.409 . S
C1181 C1179 1.415 . S
C1182 H1172 0.930 . S
C1182 C1180 1.419 . S
C1182 C1183 1.362 . S
C1183 H1173 0.930 . S
C1183 C1176 1.409 . S
C1183 C1182 1.362 . S
H1184 C1190 0.930 . S
H1185 C1193 0.930 . S
H1186 C1194 0.930 . S
H1187 C1195 0.930 . S
H1188 C1198 0.930 1_565 S
H1189 C1199 0.930 . S
C1190 H1184 0.930 . S
C1190 C1191 1.355 . S
C1190 C1192 1.415 . S
C1191 C1190 1.355 . S
C1191 C1193 1.419 . S
C1192 C1190 1.415 . S
C1192 C1197 1.425 . S
C1192 C1199 1.409 . S
C1193 H1185 0.930 . S
C1193 C1191 1.419 . S
C1193 C1194 1.362 . S
C1194 H1186 0.930 . S
C1194 C1193 1.362 . S
C1194 C1197 1.409 . S
C1195 H1187 0.930 . S
C1195 C1196 1.355 . S
C1195 C1197 1.415 . S
C1196 C1195 1.355 . S
C1196 C1198 1.419 . S
C1197 C1192 1.425 . S
C1197 C1194 1.409 . S
C1197 C1195 1.415 . S
C1198 H1188 0.930 1_545 S
C1198 C1196 1.419 . S
C1198 C1199 1.362 . S
C1199 H1189 0.930 . S
C1199 C1192 1.409 . S
C1199 C1198 1.362 . S
H1200 C1206 0.930 . S
H1201 C1209 0.930 . S
H1202 C1210 0.930 . S
H1203 C1211 0.930 . S
H1204 C1214 0.930 . S
H1205 C1215 0.930 . S
C1206 H1200 0.930 . S
C1206 C1207 1.355 . S
C1206 C1208 1.415 . S
C1207 C1206 1.355 . S
C1207 C1209 1.419 . S
C1208 C1206 1.415 . S
C1208 C1213 1.425 . S
C1208 C1215 1.409 . S
C1209 H1201 0.930 . S
C1209 C1207 1.419 . S
C1209 C1210 1.362 . S
C1210 H1202 0.930 . S
C1210 C1209 1.362 . S
C1210 C1213 1.409 . S
C1211 H1203 0.930 . S
C1211 C1212 1.355 . S
C1211 C1213 1.415 . S
C1212 C1211 1.355 . S
C1212 C1214 1.419 . S
C1213 C1208 1.425 . S
C1213 C1210 1.409 . S
C1213 C1211 1.415 . S
C1214 H1204 0.930 . S
C1214 C1212 1.419 . S
C1214 C1215 1.362 . S
C1215 H1205 0.930 . S
C1215 C1208 1.409 . S
C1215 C1214 1.362 . S
H1216 C1222 0.930 . S
H1217 C1225 0.930 1_545 S
H1218 C1226 0.930 . S
H1219 C1227 0.930 . S
H1220 C1230 0.930 . S
H1221 C1231 0.930 . S
C1222 H1216 0.930 . S
C1222 C1223 1.355 . S
C1222 C1224 1.415 . S
C1223 C1222 1.355 . S
C1223 C1225 1.419 . S
C1224 C1222 1.415 . S
C1224 C1229 1.425 . S
C1224 C1231 1.409 . S
C1225 H1217 0.930 1_565 S
C1225 C1223 1.419 . S
C1225 C1226 1.362 . S
C1226 H1218 0.930 . S
C1226 C1225 1.362 . S
C1226 C1229 1.409 . S
C1227 H1219 0.930 . S
C1227 C1228 1.355 . S
C1227 C1229 1.415 . S
C1228 C1227 1.355 . S
C1228 C1230 1.419 . S
C1229 C1224 1.425 . S
C1229 C1226 1.409 . S
C1229 C1227 1.415 . S
C1230 H1220 0.930 . S
C1230 C1228 1.419 . S
C1230 C1231 1.362 . S
C1231 H1221 0.930 . S
C1231 C1224 1.409 . S
C1231 C1230 1.362 . S
H1232 C1238 0.930 . S
H1233 C1241 0.930 . S
H1234 C1242 0.930 . S
H1235 C1243 0.930 . S
H1236 C1246 0.930 . S
H1237 C1247 0.930 . S
C1238 H1232 0.930 . S
C1238 C1239 1.355 . S
C1238 C1240 1.415 . S
C1239 C1238 1.355 . S
C1239 C1241 1.419 . S
C1240 C1238 1.415 . S
C1240 C1245 1.425 . S
C1240 C1247 1.409 . S
C1241 H1233 0.930 . S
C1241 C1239 1.419 . S
C1241 C1242 1.362 . S
C1242 H1234 0.930 . S
C1242 C1241 1.362 . S
C1242 C1245 1.409 . S
C1243 H1235 0.930 . S
C1243 C1244 1.355 . S
C1243 C1245 1.415 . S
C1244 C1243 1.355 . S
C1244 C1246 1.419 . S
C1245 C1240 1.425 . S
C1245 C1242 1.409 . S
C1245 C1243 1.415 . S
C1246 H1236 0.930 . S
C1246 C1244 1.419 . S
C1246 C1247 1.362 . S
C1247 H1237 0.930 . S
C1247 C1240 1.409 . S
C1247 C1246 1.362 . S
H1248 C1254 0.930 . S
H1249 C1257 0.930 . S
H1250 C1258 0.930 . S
H1251 C1259 0.930 . S
H1252 C1262 0.930 . S
H1253 C1263 0.930 . S
C1254 H1248 0.930 . S
C1254 C1255 1.355 . S
C1254 C1256 1.415 . S
C1255 C1254 1.355 . S
C1255 C1257 1.419 . S
C1256 C1254 1.415 . S
C1256 C1261 1.425 . S
C1256 C1263 1.409 . S
C1257 H1249 0.930 . S
C1257 C1255 1.419 . S
C1257 C1258 1.362 . S
C1258 H1250 0.930 . S
C1258 C1257 1.362 . S
C1258 C1261 1.409 . S
C1259 H1251 0.930 . S
C1259 C1260 1.355 . S
C1259 C1261 1.415 . S
C1260 C1259 1.355 . S
C1260 C1262 1.419 . S
C1261 C1256 1.425 . S
C1261 C1258 1.409 . S
C1261 C1259 1.415 . S
C1262 H1252 0.930 . S
C1262 C1260 1.419 . S
C1262 C1263 1.362 . S
C1263 H1253 0.930 . S
C1263 C1256 1.409 . S
C1263 C1262 1.362 . S
H1264 C1270 0.930 . S
H1265 C1273 0.930 . S
H1266 C1274 0.930 . S
H1267 C1275 0.930 . S
H1268 C1278 0.930 . S
H1269 C1279 0.930 . S
C1270 H1264 0.930 . S
C1270 C1271 1.355 . S
C1270 C1272 1.415 . S
C1271 C1270 1.355 . S
C1271 C1273 1.419 . S
C1272 C1270 1.415 . S
C1272 C1277 1.425 . S
C1272 C1279 1.409 . S
C1273 H1265 0.930 . S
C1273 C1271 1.419 . S
C1273 C1274 1.362 . S
C1274 H1266 0.930 . S
C1274 C1273 1.362 . S
C1274 C1277 1.409 . S
C1275 H1267 0.930 . S
C1275 C1276 1.355 . S
C1275 C1277 1.415 . S
C1276 C1275 1.355 . S
C1276 C1278 1.419 . S
C1277 C1272 1.425 . S
C1277 C1274 1.409 . S
C1277 C1275 1.415 . S
C1278 H1268 0.930 . S
C1278 C1276 1.419 . S
C1278 C1279 1.362 . S
C1279 H1269 0.930 . S
C1279 C1272 1.409 . S
C1279 C1278 1.362 . S
H1280 C1286 0.930 . S
H1281 C1289 0.930 . S
H1282 C1290 0.930 . S
H1283 C1291 0.930 . S
H1284 C1294 0.930 . S
H1285 C1295 0.930 . S
C1286 H1280 0.930 . S
C1286 C1287 1.355 . S
C1286 C1288 1.415 . S
C1287 C1286 1.355 . S
C1287 C1289 1.419 . S
C1288 C1286 1.415 . S
C1288 C1293 1.425 . S
C1288 C1295 1.409 . S
C1289 H1281 0.930 . S
C1289 C1287 1.419 . S
C1289 C1290 1.362 . S
C1290 H1282 0.930 . S
C1290 C1289 1.362 . S
C1290 C1293 1.409 . S
C1291 H1283 0.930 . S
C1291 C1292 1.355 . S
C1291 C1293 1.415 . S
C1292 C1291 1.355 . S
C1292 C1294 1.419 . S
C1293 C1288 1.425 . S
C1293 C1290 1.409 . S
C1293 C1291 1.415 . S
C1294 H1284 0.930 . S
C1294 C1292 1.419 . S
C1294 C1295 1.362 . S
C1295 H1285 0.930 . S
C1295 C1288 1.409 . S
C1295 C1294 1.362 . S
H1296 C1302 0.930 . S
H1297 C1305 0.930 . S
H1298 C1306 0.930 . S
H1299 C1307 0.930 . S
H1300 C1310 0.930 . S
H1301 C1311 0.930 . S
C1302 H1296 0.930 . S
C1302 C1303 1.355 . S
C1302 C1304 1.415 . S
C1303 C1302 1.355 . S
C1303 C1305 1.419 . S
C1304 C1302 1.415 . S
C1304 C1309 1.425 . S
C1304 C1311 1.409 . S
C1305 H1297 0.930 . S
C1305 C1303 1.419 . S
C1305 C1306 1.362 . S
C1306 H1298 0.930 . S
C1306 C1305 1.362 . S
C1306 C1309 1.409 . S
C1307 H1299 0.930 . S
C1307 C1308 1.355 . S
C1307 C1309 1.415 . S
C1308 C1307 1.355 . S
C1308 C1310 1.419 . S
C1309 C1304 1.425 . S
C1309 C1306 1.409 . S
C1309 C1307 1.415 . S
C1310 H1300 0.930 . S
C1310 C1308 1.419 . S
C1310 C1311 1.362 . S
C1311 H1301 0.930 . S
C1311 C1304 1.409 . S
C1311 C1310 1.362 . S
H1312 C1318 0.930 . S
H1313 C1321 0.930 . S
H1314 C1322 0.930 . S
H1315 C1323 0.930 . S
H1316 C1326 0.930 . S
H1317 C1327 0.930 . S
C1318 H1312 0.930 . S
C1318 C1319 1.355 . S
C1318 C1320 1.415 . S
C1319 C1318 1.355 . S
C1319 C1321 1.419 . S
C1320 C1318 1.415 . S
C1320 C1325 1.425 . S
C1320 C1327 1.409 . S
C1321 H1313 0.930 . S
C1321 C1319 1.419 . S
C1321 C1322 1.362 . S
C1322 H1314 0.930 . S
C1322 C1321 1.362 . S
C1322 C1325 1.409 . S
C1323 H1315 0.930 . S
C1323 C1324 1.355 . S
C1323 C1325 1.415 . S
C1324 C1323 1.355 . S
C1324 C1326 1.419 . S
C1325 C1320 1.425 . S
C1325 C1322 1.409 . S
C1325 C1323 1.415 . S
C1326 H1316 0.930 . S
C1326 C1324 1.419 . S
C1326 C1327 1.362 . S
C1327 H1317 0.930 . S
C1327 C1320 1.409 . S
C1327 C1326 1.362 . S
H1328 C1334 0.930 . S
H1329 C1337 0.930 . S
H1330 C1338 0.930 . S
H1331 C1339 0.930 . S
H1332 C1342 0.930 . S
H1333 C1343 0.930 . S
C1334 H1328 0.930 . S
C1334 C1335 1.355 . S
C1334 C1336 1.415 . S
C1335 C1334 1.355 . S
C1335 C1337 1.419 . S
C1336 C1334 1.415 . S
C1336 C1341 1.425 . S
C1336 C1343 1.409 . S
C1337 H1329 0.930 . S
C1337 C1335 1.419 . S
C1337 C1338 1.362 . S
C1338 H1330 0.930 . S
C1338 C1337 1.362 . S
C1338 C1341 1.409 . S
C1339 H1331 0.930 . S
C1339 C1340 1.355 . S
C1339 C1341 1.415 . S
C1340 C1339 1.355 . S
C1340 C1342 1.419 . S
C1341 C1336 1.425 . S
C1341 C1338 1.409 . S
C1341 C1339 1.415 . S
C1342 H1332 0.930 . S
C1342 C1340 1.419 . S
C1342 C1343 1.362 . S
C1343 H1333 0.930 . S
C1343 C1336 1.409 . S
C1343 C1342 1.362 . S
H1344 C1350 0.930 . S
H1345 C1353 0.930 . S
H1346 C1354 0.930 . S
H1347 C1355 0.930 . S
H1348 C1358 0.930 . S
H1349 C1359 0.930 . S
C1350 H1344 0.930 . S
C1350 C1351 1.355 . S
C1350 C1352 1.415 . S
C1351 C1350 1.355 . S
C1351 C1353 1.419 . S
C1352 C1350 1.415 . S
C1352 C1357 1.425 . S
C1352 C1359 1.409 . S
C1353 H1345 0.930 . S
C1353 C1351 1.419 . S
C1353 C1354 1.362 . S
C1354 H1346 0.930 . S
C1354 C1353 1.362 . S
C1354 C1357 1.409 . S
C1355 H1347 0.930 . S
C1355 C1356 1.355 . S
C1355 C1357 1.415 . S
C1356 C1355 1.355 . S
C1356 C1358 1.419 . S
C1357 C1352 1.425 . S
C1357 C1354 1.409 . S
C1357 C1355 1.415 . S
C1358 H1348 0.930 . S
C1358 C1356 1.419 . S
C1358 C1359 1.362 . S
C1359 H1349 0.930 . S
C1359 C1352 1.409 . S
C1359 C1358 1.362 . S
C471 C137 1.463 . S
C476 C21 1.469 . S
C487 C50 1.556 . S
C492 C166 1.559 . S
C503 C195 1.436 . S
C508 C79 1.436 . S
C519 C224 1.437 . S
C524 C108 1.438 . S
C535 C311 1.560 . S
C540 C253 1.557 . S
C551 C282 1.481 . S
C556 C340 1.474 . S
C567 C427 1.439 . S
C572 C369 1.442 . S
C583 C398 1.562 . S
C588 C456 1.563 . S
C599 C100 1.997 . S
C604 C5 2.007 . S
C615 C13 1.988 1_565 S
C620 C34 1.985 . S
C631 C42 1.950 . S
C636 C63 1.981 . S
C647 C92 1.997 . S
C652 C71 1.992 1_545 S
C663 C158 2.001 . S
C668 C121 1.995 . S
C679 C187 1.954 1_565 S
C684 C150 2.006 . S
C695 C216 1.950 . S
C700 C179 1.985 . S
C711 C129 1.954 1_545 S
C716 C208 1.968 . S
C727 C124 1.279 . S
C732 C276 1.240 . S
C743 C240 1.161 . S
C748 C131 1.330 . S
C759 C182 1.298 . S
C764 C247 1.292 . S
C775 C269 1.180 . S
C780 C189 1.353 . S
C791 C305 1.267 . S
C796 C8 1.303 . S
C807 C73 1.272 . S
C812 C298 1.303 . S
C823 C334 1.252 . S
C828 C66 1.298 . S
C839 C15 1.355 . S
C844 C327 1.204 . S
C855 C332 1.990 . S
C860 C353 2.012 . S
C871 C361 1.954 . S
C876 C295 1.995 . S
C887 C382 1.972 . S
C892 C303 1.955 . S
C903 C324 1.995 . S
C908 C390 2.001 . S
C919 C411 1.974 . S
C924 C245 1.953 . S
C935 C448 2.000 . S
C940 C237 1.991 . S
C951 C274 1.960 . S
C956 C440 1.969 . S
C967 C419 1.954 . S
C972 C266 1.995 . S
C983 C218 1.261 . S
C988 C414 1.209 . S
C999 C421 1.292 . S
C1004 C153 1.175 . S
C1015 C443 1.246 . S
C1020 C160 1.343 . S
C1031 C211 1.230 . S
C1036 C450 1.249 . S
C1047 C44 1.244 . S
C1052 C356 1.290 . S
C1063 C37 1.209 . S
C1068 C392 1.261 . S
C1079 C385 1.297 . S
C1084 C102 1.251 . S
C1095 C363 1.241 . S
C1100 C95 1.280 . S
C1111 C148 0.739 . S
C1116 C3 0.821 . S
C1127 C177 0.810 . S
C1132 C32 0.703 . S
C1143 C206 0.707 . S
C1148 C61 0.804 . S
C1159 C90 0.816 . S
C1164 C119 0.700 . S
C1175 C126 3.110 1_545 S
C1180 C300 3.138 . S
C1191 C242 3.110 . S
C1196 C68 3.138 1_545 S
C1207 C329 3.124 . S
C1212 C184 3.102 1_565 S
C1223 C10 3.132 1_565 S
C1228 C271 3.105 . S
C1239 C351 0.704 . S
C1244 C235 0.808 . S
C1255 C293 0.811 . S
C1260 C438 0.703 . S
C1271 C380 0.791 . S
C1276 C264 0.716 . S
C1287 C409 0.832 . S
C1292 C322 0.709 . S
C1303 C39 3.128 . S
C1308 C416 3.147 . S
C1319 C387 3.101 . S
C1324 C155 3.114 . S
C1335 C97 3.104 . S
C1340 C445 3.131 . S
C1351 C213 3.123 . S
C1356 C358 3.146 . S
