# Generated by pormake.
# Topology wle, (5)-cn, num edge types: 1
# Building blocks:
#     Node 0, Type 0, BuildingBlock: XOMCOT_clean_sbu_1, # of connection points: 5
#     Node 1, Type 0, BuildingBlock: XOMCOT_clean_sbu_1, # of connection points: 5
#     Node 2, Type 0, BuildingBlock: XOMCOT_clean_sbu_1, # of connection points: 5
#     Node 3, Type 0, BuildingBlock: XOMCOT_clean_sbu_1, # of connection points: 5
#     Node 4, Type 0, BuildingBlock: XOMCOT_clean_sbu_1, # of connection points: 5
#     Node 5, Type 0, BuildingBlock: XOMCOT_clean_sbu_1, # of connection points: 5
#     Node 6, Type 0, BuildingBlock: XOMCOT_clean_sbu_1, # of connection points: 5
#     Node 7, Type 0, BuildingBlock: XOMCOT_clean_sbu_1, # of connection points: 5
#     Node 8, Type 0, BuildingBlock: XOMCOT_clean_sbu_1, # of connection points: 5
#     Node 9, Type 0, BuildingBlock: XOMCOT_clean_sbu_1, # of connection points: 5
#     Node 10, Type 0, BuildingBlock: XOMCOT_clean_sbu_1, # of connection points: 5
#     Node 11, Type 0, BuildingBlock: XOMCOT_clean_sbu_1, # of connection points: 5
#     Node 12, Type 0, BuildingBlock: XOMCOT_clean_sbu_1, # of connection points: 5
#     Node 13, Type 0, BuildingBlock: XOMCOT_clean_sbu_1, # of connection points: 5
#     Node 14, Type 0, BuildingBlock: XOMCOT_clean_sbu_1, # of connection points: 5
#     Node 15, Type 0, BuildingBlock: XOMCOT_clean_sbu_1, # of connection points: 5
#     Node 16, Type 0, BuildingBlock: XOMCOT_clean_sbu_1, # of connection points: 5
#     Node 17, Type 0, BuildingBlock: XOMCOT_clean_sbu_1, # of connection points: 5
#     Node 18, Type 0, BuildingBlock: XOMCOT_clean_sbu_1, # of connection points: 5
#     Node 19, Type 0, BuildingBlock: XOMCOT_clean_sbu_1, # of connection points: 5
#     Node 20, Type 0, BuildingBlock: XOMCOT_clean_sbu_1, # of connection points: 5
#     Node 21, Type 0, BuildingBlock: XOMCOT_clean_sbu_1, # of connection points: 5
#     Node 22, Type 0, BuildingBlock: XOMCOT_clean_sbu_1, # of connection points: 5
#     Node 23, Type 0, BuildingBlock: XOMCOT_clean_sbu_1, # of connection points: 5
#     Node 24, Type 0, BuildingBlock: XOMCOT_clean_sbu_1, # of connection points: 5
#     Node 25, Type 0, BuildingBlock: XOMCOT_clean_sbu_1, # of connection points: 5
#     Node 26, Type 0, BuildingBlock: XOMCOT_clean_sbu_1, # of connection points: 5
#     Node 27, Type 0, BuildingBlock: XOMCOT_clean_sbu_1, # of connection points: 5
#     Node 28, Type 0, BuildingBlock: XOMCOT_clean_sbu_1, # of connection points: 5
#     Node 29, Type 0, BuildingBlock: XOMCOT_clean_sbu_1, # of connection points: 5
#     Node 30, Type 0, BuildingBlock: XOMCOT_clean_sbu_1, # of connection points: 5
#     Node 31, Type 0, BuildingBlock: XOMCOT_clean_sbu_1, # of connection points: 5
#     Node 32, Type 0, BuildingBlock: XOMCOT_clean_sbu_1, # of connection points: 5
#     Node 33, Type 0, BuildingBlock: XOMCOT_clean_sbu_1, # of connection points: 5
#     Node 34, Type 0, BuildingBlock: XOMCOT_clean_sbu_1, # of connection points: 5
#     Node 35, Type 0, BuildingBlock: XOMCOT_clean_sbu_1, # of connection points: 5
#     Edge 36, Type (0, 0), BuildingBlock: EZIPEK_clean_linker_0, # of connection points: 2
#     Edge 37, Type (0, 0), BuildingBlock: EZIPEK_clean_linker_0, # of connection points: 2
#     Edge 38, Type (0, 0), BuildingBlock: EZIPEK_clean_linker_0, # of connection points: 2
#     Edge 39, Type (0, 0), BuildingBlock: EZIPEK_clean_linker_0, # of connection points: 2
#     Edge 40, Type (0, 0), BuildingBlock: EZIPEK_clean_linker_0, # of connection points: 2
#     Edge 41, Type (0, 0), BuildingBlock: EZIPEK_clean_linker_0, # of connection points: 2
#     Edge 42, Type (0, 0), BuildingBlock: EZIPEK_clean_linker_0, # of connection points: 2
#     Edge 43, Type (0, 0), BuildingBlock: EZIPEK_clean_linker_0, # of connection points: 2
#     Edge 44, Type (0, 0), BuildingBlock: EZIPEK_clean_linker_0, # of connection points: 2
#     Edge 45, Type (0, 0), BuildingBlock: EZIPEK_clean_linker_0, # of connection points: 2
#     Edge 46, Type (0, 0), BuildingBlock: EZIPEK_clean_linker_0, # of connection points: 2
#     Edge 47, Type (0, 0), BuildingBlock: EZIPEK_clean_linker_0, # of connection points: 2
#     Edge 48, Type (0, 0), BuildingBlock: EZIPEK_clean_linker_0, # of connection points: 2
#     Edge 49, Type (0, 0), BuildingBlock: EZIPEK_clean_linker_0, # of connection points: 2
#     Edge 50, Type (0, 0), BuildingBlock: EZIPEK_clean_linker_0, # of connection points: 2
#     Edge 51, Type (0, 0), BuildingBlock: EZIPEK_clean_linker_0, # of connection points: 2
#     Edge 52, Type (0, 0), BuildingBlock: EZIPEK_clean_linker_0, # of connection points: 2
#     Edge 53, Type (0, 0), BuildingBlock: EZIPEK_clean_linker_0, # of connection points: 2
#     Edge 54, Type (0, 0), BuildingBlock: EZIPEK_clean_linker_0, # of connection points: 2
#     Edge 55, Type (0, 0), BuildingBlock: EZIPEK_clean_linker_0, # of connection points: 2
#     Edge 56, Type (0, 0), BuildingBlock: EZIPEK_clean_linker_0, # of connection points: 2
#     Edge 57, Type (0, 0), BuildingBlock: EZIPEK_clean_linker_0, # of connection points: 2
#     Edge 58, Type (0, 0), BuildingBlock: EZIPEK_clean_linker_0, # of connection points: 2
#     Edge 59, Type (0, 0), BuildingBlock: EZIPEK_clean_linker_0, # of connection points: 2
#     Edge 60, Type (0, 0), BuildingBlock: EZIPEK_clean_linker_0, # of connection points: 2
#     Edge 61, Type (0, 0), BuildingBlock: EZIPEK_clean_linker_0, # of connection points: 2
#     Edge 62, Type (0, 0), BuildingBlock: EZIPEK_clean_linker_0, # of connection points: 2
#     Edge 63, Type (0, 0), BuildingBlock: EZIPEK_clean_linker_0, # of connection points: 2
#     Edge 64, Type (0, 0), BuildingBlock: EZIPEK_clean_linker_0, # of connection points: 2
#     Edge 65, Type (0, 0), BuildingBlock: EZIPEK_clean_linker_0, # of connection points: 2
#     Edge 66, Type (0, 0), BuildingBlock: EZIPEK_clean_linker_0, # of connection points: 2
#     Edge 67, Type (0, 0), BuildingBlock: EZIPEK_clean_linker_0, # of connection points: 2
#     Edge 68, Type (0, 0), BuildingBlock: EZIPEK_clean_linker_0, # of connection points: 2
#     Edge 69, Type (0, 0), BuildingBlock: EZIPEK_clean_linker_0, # of connection points: 2
#     Edge 70, Type (0, 0), BuildingBlock: EZIPEK_clean_linker_0, # of connection points: 2
#     Edge 71, Type (0, 0), BuildingBlock: EZIPEK_clean_linker_0, # of connection points: 2
#     Edge 72, Type (0, 0), BuildingBlock: EZIPEK_clean_linker_0, # of connection points: 2
#     Edge 73, Type (0, 0), BuildingBlock: EZIPEK_clean_linker_0, # of connection points: 2
#     Edge 74, Type (0, 0), BuildingBlock: EZIPEK_clean_linker_0, # of connection points: 2
#     Edge 75, Type (0, 0), BuildingBlock: EZIPEK_clean_linker_0, # of connection points: 2
#     Edge 76, Type (0, 0), BuildingBlock: EZIPEK_clean_linker_0, # of connection points: 2
#     Edge 77, Type (0, 0), BuildingBlock: EZIPEK_clean_linker_0, # of connection points: 2
#     Edge 78, Type (0, 0), BuildingBlock: EZIPEK_clean_linker_0, # of connection points: 2
#     Edge 79, Type (0, 0), BuildingBlock: EZIPEK_clean_linker_0, # of connection points: 2
#     Edge 80, Type (0, 0), BuildingBlock: EZIPEK_clean_linker_0, # of connection points: 2
#     Edge 81, Type (0, 0), BuildingBlock: EZIPEK_clean_linker_0, # of connection points: 2
#     Edge 82, Type (0, 0), BuildingBlock: EZIPEK_clean_linker_0, # of connection points: 2
#     Edge 83, Type (0, 0), BuildingBlock: EZIPEK_clean_linker_0, # of connection points: 2
#     Edge 84, Type (0, 0), BuildingBlock: EZIPEK_clean_linker_0, # of connection points: 2
#     Edge 85, Type (0, 0), BuildingBlock: EZIPEK_clean_linker_0, # of connection points: 2
#     Edge 86, Type (0, 0), BuildingBlock: EZIPEK_clean_linker_0, # of connection points: 2
#     Edge 87, Type (0, 0), BuildingBlock: EZIPEK_clean_linker_0, # of connection points: 2
#     Edge 88, Type (0, 0), BuildingBlock: EZIPEK_clean_linker_0, # of connection points: 2
#     Edge 89, Type (0, 0), BuildingBlock: EZIPEK_clean_linker_0, # of connection points: 2
#     Edge 90, Type (0, 0), BuildingBlock: EZIPEK_clean_linker_0, # of connection points: 2
#     Edge 91, Type (0, 0), BuildingBlock: EZIPEK_clean_linker_0, # of connection points: 2
#     Edge 92, Type (0, 0), BuildingBlock: EZIPEK_clean_linker_0, # of connection points: 2
#     Edge 93, Type (0, 0), BuildingBlock: EZIPEK_clean_linker_0, # of connection points: 2
#     Edge 94, Type (0, 0), BuildingBlock: EZIPEK_clean_linker_0, # of connection points: 2
#     Edge 95, Type (0, 0), BuildingBlock: EZIPEK_clean_linker_0, # of connection points: 2
#     Edge 96, Type (0, 0), BuildingBlock: EZIPEK_clean_linker_0, # of connection points: 2
#     Edge 97, Type (0, 0), BuildingBlock: EZIPEK_clean_linker_0, # of connection points: 2
#     Edge 98, Type (0, 0), BuildingBlock: EZIPEK_clean_linker_0, # of connection points: 2
#     Edge 99, Type (0, 0), BuildingBlock: EZIPEK_clean_linker_0, # of connection points: 2
#     Edge 100, Type (0, 0), BuildingBlock: EZIPEK_clean_linker_0, # of connection points: 2
#     Edge 101, Type (0, 0), BuildingBlock: EZIPEK_clean_linker_0, # of connection points: 2
#     Edge 102, Type (0, 0), BuildingBlock: EZIPEK_clean_linker_0, # of connection points: 2
#     Edge 103, Type (0, 0), BuildingBlock: EZIPEK_clean_linker_0, # of connection points: 2
#     Edge 104, Type (0, 0), BuildingBlock: EZIPEK_clean_linker_0, # of connection points: 2
#     Edge 105, Type (0, 0), BuildingBlock: EZIPEK_clean_linker_0, # of connection points: 2
#     Edge 106, Type (0, 0), BuildingBlock: EZIPEK_clean_linker_0, # of connection points: 2
#     Edge 107, Type (0, 0), BuildingBlock: EZIPEK_clean_linker_0, # of connection points: 2
#     Edge 108, Type (0, 0), BuildingBlock: EZIPEK_clean_linker_0, # of connection points: 2
#     Edge 109, Type (0, 0), BuildingBlock: EZIPEK_clean_linker_0, # of connection points: 2
#     Edge 110, Type (0, 0), BuildingBlock: EZIPEK_clean_linker_0, # of connection points: 2
#     Edge 111, Type (0, 0), BuildingBlock: EZIPEK_clean_linker_0, # of connection points: 2
#     Edge 112, Type (0, 0), BuildingBlock: EZIPEK_clean_linker_0, # of connection points: 2
#     Edge 113, Type (0, 0), BuildingBlock: EZIPEK_clean_linker_0, # of connection points: 2
#     Edge 114, Type (0, 0), BuildingBlock: EZIPEK_clean_linker_0, # of connection points: 2
#     Edge 115, Type (0, 0), BuildingBlock: EZIPEK_clean_linker_0, # of connection points: 2
#     Edge 116, Type (0, 0), BuildingBlock: EZIPEK_clean_linker_0, # of connection points: 2
#     Edge 117, Type (0, 0), BuildingBlock: EZIPEK_clean_linker_0, # of connection points: 2
#     Edge 118, Type (0, 0), BuildingBlock: EZIPEK_clean_linker_0, # of connection points: 2
#     Edge 119, Type (0, 0), BuildingBlock: EZIPEK_clean_linker_0, # of connection points: 2
#     Edge 120, Type (0, 0), BuildingBlock: EZIPEK_clean_linker_0, # of connection points: 2
#     Edge 121, Type (0, 0), BuildingBlock: EZIPEK_clean_linker_0, # of connection points: 2
#     Edge 122, Type (0, 0), BuildingBlock: EZIPEK_clean_linker_0, # of connection points: 2
#     Edge 123, Type (0, 0), BuildingBlock: EZIPEK_clean_linker_0, # of connection points: 2
#     Edge 124, Type (0, 0), BuildingBlock: EZIPEK_clean_linker_0, # of connection points: 2
#     Edge 125, Type (0, 0), BuildingBlock: EZIPEK_clean_linker_0, # of connection points: 2
# Relax obj value: 0.517
# Max RMSD: 0.295
# Mean RMSD: 0.295
data_MOF--net-wle--node1-XOMCOT_clean_sbu_1--edge1-EZIPEK_clean_linker_0
_symmetry_space_group_name_H-M    P1
_symmetry_Int_Tables_number       1
_symmetry_cell_setting            triclinic
loop_
_symmetry_equiv_pos_as_xyz
'x, y, z'
_cell_length_a     75.191189
_cell_length_b     75.104961
_cell_length_c     21.191498
_cell_angle_alpha  89.951039
_cell_angle_beta   89.994965
_cell_angle_gamma 120.01715
loop_
_atom_site_label
_atom_site_type_symbol
_atom_site_fract_x
_atom_site_fract_y
_atom_site_fract_z
_atom_type_partial_charge
C0 C 0.28653 0.07783 0.11905 0.0
C1 C 0.30267 0.08073 0.08136 0.0
N2 N 0.30095 0.08824 0.02541 0.0
N3 N 0.27475 0.0837 0.08746 0.0
C4 C 0.2837 0.08954 0.02997 0.0
H5 H 0.28503 0.07405 0.16868 0.0
Co6 Co 0.25798 0.09207 0.12696 0.0
C7 C 0.23107 0.09217 0.01991 0.0
O8 O 0.21466 0.08684 0.05459 0.0
N9 N 0.24214 0.10129 0.169 0.0
C10 C 0.23215 0.12286 0.2046 0.0
C11 C 0.23856 0.11661 0.15243 0.0
C12 C 0.23793 0.09865 0.23138 0.0
N13 N 0.23188 0.11152 0.25402 0.0
O14 O 0.27926 0.11944 0.11829 0.0
H15 H 0.2427 0.12443 0.10747 0.0
H16 H 0.24162 0.08937 0.2616 0.0
O17 O 0.24733 0.09389 0.0447 0.0
C18 C 0.28998 0.12566 0.16826 0.0
O19 O 0.2846 0.11349 0.21772 0.0
N20 N 0.23784 0.06484 0.14136 0.0
C21 C 0.20864 0.02876 0.19825 0.0
C22 C 0.20516 0.03383 0.13766 0.0
C23 C 0.22029 0.05195 0.1092 0.0
C24 C 0.24189 0.05911 0.19808 0.0
C25 C 0.22747 0.04115 0.22759 0.0
H26 H 0.21745 0.05553 0.06261 0.0
H27 H 0.25594 0.06936 0.22271 0.0
H28 H 0.27908 0.09681 0.99457 0.0
H29 H 0.31553 0.07897 0.09559 0.0
H30 H 0.22993 0.13601 0.20742 0.0
H31 H 0.19084 0.0241 0.11333 0.0
H32 H 0.23063 0.03741 0.27412 0.0
C33 C 0.9116 0.1942 0.13527 0.0
C34 C 0.91469 0.20982 0.09491 0.0
N35 N 0.90398 0.20175 0.04086 0.0
N36 N 0.89839 0.17614 0.10867 0.0
C37 C 0.89359 0.18117 0.05253 0.0
H38 H 0.91737 0.19593 0.18296 0.0
Co39 Co 0.88585 0.1507 0.14951 0.0
C40 C 0.88648 0.12614 0.03489 0.0
O41 O 0.90127 0.12319 0.05552 0.0
N42 N 0.8726 0.12522 0.19237 0.0
C43 C 0.86136 0.09357 0.22968 0.0
C44 C 0.86928 0.10626 0.17779 0.0
C45 C 0.86603 0.12341 0.25267 0.0
N46 N 0.8595 0.10454 0.27659 0.0
O47 O 0.86038 0.14948 0.14113 0.0
H48 H 0.87317 0.10188 0.13388 0.0
H49 H 0.86746 0.13618 0.28028 0.0
O50 O 0.88119 0.13689 0.0681 0.0
C51 C 0.85805 0.1602 0.18315 0.0
O52 O 0.87277 0.17035 0.22438 0.0
N53 N 0.91156 0.15309 0.16321 0.0
C54 C 0.95063 0.16338 0.20412 0.0
C55 C 0.94696 0.16467 0.13985 0.0
C56 C 0.92717 0.15962 0.12028 0.0
C57 C 0.91536 0.15234 0.22578 0.0
C58 C 0.93451 0.15667 0.24695 0.0
H59 H 0.92467 0.16213 0.07162 0.0
H60 H 0.90401 0.14996 0.26067 0.0
H61 H 0.88127 0.1699 0.02361 0.0
H62 H 0.92281 0.22581 0.10833 0.0
H63 H 0.85834 0.07793 0.23386 0.0
H64 H 0.95946 0.17075 0.10614 0.0
H65 H 0.93715 0.15653 0.2972 0.0
C66 C 0.83364 0.71722 0.95974 0.0
C67 C 0.81981 0.70201 0.92181 0.0
N68 N 0.80294 0.70373 0.91849 0.0
N69 N 0.82585 0.72881 0.98172 0.0
C70 C 0.80709 0.72045 0.95381 0.0
H71 H 0.8475 0.71801 0.97648 0.0
Co72 Co 0.83974 0.74738 0.04943 0.0
C73 C 0.86928 0.76858 0.96742 0.0
O74 O 0.85742 0.77681 0.96611 0.0
N75 N 0.85424 0.76518 0.1173 0.0
C76 C 0.88016 0.78948 0.17318 0.0
C77 C 0.87069 0.78437 0.11488 0.0
C78 C 0.85367 0.75944 0.17825 0.0
N79 N 0.86942 0.77364 0.21288 0.0
O80 O 0.83995 0.72486 0.09552 0.0
H81 H 0.87648 0.79353 0.07259 0.0
H82 H 0.84327 0.74427 0.19608 0.0
O83 O 0.86526 0.7546 0.00842 0.0
C84 C 0.82616 0.70592 0.09988 0.0
O85 O 0.80797 0.69952 0.07494 0.0
N86 N 0.81501 0.74259 0.08496 0.0
C87 C 0.78522 0.74909 0.13903 0.0
C88 C 0.79336 0.75747 0.07993 0.0
C89 C 0.80854 0.75425 0.05422 0.0
C90 C 0.80609 0.73311 0.14057 0.0
C91 C 0.79101 0.73611 0.16837 0.0
H92 H 0.81619 0.76217 0.01126 0.0
H93 H 0.81153 0.72457 0.16674 0.0
H94 H 0.79603 0.72533 0.96298 0.0
H95 H 0.82137 0.68956 0.90197 0.0
H96 H 0.89448 0.80324 0.18453 0.0
H97 H 0.78931 0.76781 0.05671 0.0
H98 H 0.78515 0.72973 0.21466 0.0
C99 C 0.0776 0.28014 0.34465 0.0
C100 C 0.07831 0.2964 0.37652 0.0
N101 N 0.08233 0.29498 0.43763 0.0
N102 N 0.08172 0.26884 0.3851 0.0
C103 C 0.08339 0.27759 0.44199 0.0
H104 H 0.07739 0.2786 0.29389 0.0
Co105 Co 0.09537 0.25577 0.35551 0.0
C106 C 0.10162 0.23957 0.48613 0.0
O107 O 0.09671 0.2205 0.47427 0.0
N108 N 0.10954 0.24365 0.32011 0.0
C109 C 0.13254 0.23484 0.28986 0.0
C110 C 0.12277 0.23772 0.3411 0.0
C111 C 0.11148 0.24406 0.25672 0.0
N112 N 0.12526 0.23889 0.23706 0.0
O113 O 0.11983 0.28053 0.36184 0.0
H114 H 0.12634 0.23698 0.38994 0.0
H115 H 0.10423 0.24979 0.22511 0.0
O116 O 0.10068 0.25079 0.44253 0.0
C117 C 0.12692 0.29291 0.31586 0.0
O118 O 0.11788 0.28769 0.26053 0.0
N119 N 0.07068 0.23175 0.34608 0.0
C120 C 0.03146 0.20222 0.31035 0.0
C121 C 0.03833 0.20221 0.37196 0.0
C122 C 0.05824 0.21742 0.38926 0.0
C123 C 0.06411 0.23152 0.28613 0.0
C124 C 0.04473 0.21669 0.26691 0.0
H125 H 0.06299 0.21836 0.43764 0.0
H126 H 0.0735 0.24387 0.25411 0.0
H127 H 0.08834 0.27319 0.48418 0.0
H128 H 0.07823 0.30947 0.35521 0.0
H129 H 0.1448 0.23125 0.29141 0.0
H130 H 0.02803 0.19151 0.40696 0.0
H131 H 0.03957 0.21745 0.21971 0.0
C132 C 0.69151 0.78435 0.42838 0.0
C133 C 0.67553 0.77317 0.4689 0.0
N134 N 0.68124 0.78122 0.52684 0.0
N135 N 0.70753 0.79961 0.46004 0.0
C136 C 0.70066 0.79716 0.52044 0.0
H137 H 0.69062 0.78225 0.37799 0.0
Co138 Co 0.73055 0.82188 0.42004 0.0
C139 C 0.74571 0.84453 0.52569 0.0
O140 O 0.76027 0.84063 0.50942 0.0
N141 N 0.75338 0.84442 0.37754 0.0
C142 C 0.78066 0.85841 0.31357 0.0
C143 C 0.7714 0.84535 0.36401 0.0
C144 C 0.75326 0.85869 0.3385 0.0
N145 N 0.76864 0.86605 0.29555 0.0
O146 O 0.71047 0.82507 0.36877 0.0
H147 H 0.77647 0.83547 0.38445 0.0
H148 H 0.74107 0.86234 0.33738 0.0
O149 O 0.73108 0.84012 0.48635 0.0
C150 C 0.70655 0.82917 0.31341 0.0
O151 O 0.71991 0.83424 0.26739 0.0
N152 N 0.73183 0.80346 0.36311 0.0
C153 C 0.74357 0.78046 0.29062 0.0
C154 C 0.75059 0.78563 0.35261 0.0
C155 C 0.74432 0.79703 0.38831 0.0
C156 C 0.72317 0.7966 0.30509 0.0
C157 C 0.72915 0.78531 0.2674 0.0
H158 H 0.75042 0.8019 0.43535 0.0
H159 H 0.71149 0.79935 0.28732 0.0
H160 H 0.70886 0.80773 0.55815 0.0
H161 H 0.66045 0.76068 0.45632 0.0
H162 H 0.79369 0.85997 0.28711 0.0
H163 H 0.76165 0.78187 0.37188 0.0
H164 H 0.72311 0.78101 0.21999 0.0
C165 C 0.18976 0.92417 0.43582 0.0
C166 C 0.20531 0.92495 0.47192 0.0
N167 N 0.19685 0.91255 0.52212 0.0
N168 N 0.17154 0.91156 0.46359 0.0
C169 C 0.17636 0.90471 0.51642 0.0
H170 H 0.19144 0.93082 0.38938 0.0
Co171 Co 0.14707 0.89933 0.41809 0.0
C172 C 0.11754 0.89197 0.52203 0.0
O173 O 0.10962 0.90173 0.49242 0.0
N174 N 0.12376 0.88576 0.36729 0.0
C175 C 0.09488 0.86345 0.31845 0.0
C176 C 0.10398 0.87107 0.3763 0.0
C177 C 0.12616 0.88701 0.30395 0.0
N178 N 0.10899 0.87351 0.27327 0.0
O179 O 0.14913 0.87538 0.41581 0.0
H180 H 0.09679 0.86547 0.4213 0.0
H181 H 0.14061 0.89705 0.2807 0.0
O182 O 0.13173 0.88989 0.49652 0.0
C183 C 0.15897 0.87364 0.36981 0.0
O184 O 0.16688 0.88816 0.32674 0.0
N185 N 0.1455 0.92457 0.41808 0.0
C186 C 0.15757 0.96254 0.365 0.0
C187 C 0.1674 0.96124 0.41926 0.0
C188 C 0.1605 0.94198 0.44689 0.0
C189 C 0.13278 0.9268 0.37624 0.0
C190 C 0.13888 0.94567 0.34763 0.0
H191 H 0.16883 0.94118 0.48718 0.0
H192 H 0.11864 0.91401 0.35973 0.0
H193 H 0.16513 0.89239 0.54571 0.0
H194 H 0.22144 0.9326 0.45957 0.0
H195 H 0.07942 0.85094 0.31025 0.0
H196 H 0.18142 0.97443 0.43599 0.0
H197 H 0.13027 0.94652 0.30787 0.0
C198 C 0.71174 0.90957 0.95555 0.0
C199 C 0.69975 0.91235 0.99855 0.0
N200 N 0.702 0.90563 0.05537 0.0
N201 N 0.72133 0.90072 0.98429 0.0
C202 C 0.71552 0.89893 0.04563 0.0
H203 H 0.71255 0.91271 0.90549 0.0
Co204 Co 0.73449 0.88981 0.9364 0.0
C205 C 0.76485 0.89378 0.04216 0.0
O206 O 0.7819 0.90717 0.01381 0.0
N207 N 0.74659 0.87837 0.88318 0.0
C208 C 0.76712 0.87074 0.82754 0.0
C209 C 0.76414 0.87756 0.88519 0.0
C210 C 0.73911 0.87157 0.8243 0.0
N211 N 0.75141 0.86724 0.78922 0.0
O212 O 0.71216 0.86319 0.95064 0.0
H213 H 0.77462 0.88239 0.92449 0.0
H214 H 0.72549 0.87106 0.80568 0.0
O215 O 0.74751 0.88697 0.01432 0.0
C216 C 0.69731 0.85908 0.91359 0.0
O217 O 0.69886 0.87295 0.8728 0.0
N218 N 0.75551 0.91636 0.91796 0.0
C219 C 0.77767 0.95638 0.87352 0.0
C220 C 0.77673 0.95247 0.93852 0.0
C221 C 0.76534 0.93211 0.96001 0.0
C222 C 0.75645 0.92031 0.85493 0.0
C223 C 0.76803 0.94003 0.8316 0.0
H224 H 0.76292 0.9292 0.01004 0.0
H225 H 0.7466 0.90848 0.8225 0.0
H226 H 0.72044 0.89213 0.08173 0.0
H227 H 0.68961 0.91835 0.98853 0.0
H228 H 0.78012 0.86911 0.81411 0.0
H229 H 0.78337 0.96501 0.97206 0.0
H230 H 0.76774 0.94269 0.7814 0.0
C231 C 0.06826 0.78126 0.93379 0.0
C232 C 0.06972 0.76851 0.97749 0.0
N233 N 0.08043 0.7797 0.02834 0.0
N234 N 0.07868 0.80066 0.95495 0.0
C235 C 0.08646 0.79936 0.01101 0.0
H236 H 0.061 0.77683 0.88797 0.0
Co237 Co 0.08324 0.824 0.91072 0.0
C238 C 0.10168 0.8558 0.00771 0.0
O239 O 0.1164 0.86773 0.96846 0.0
N240 N 0.08789 0.84728 0.86448 0.0
C241 C 0.08562 0.87334 0.82283 0.0
C242 C 0.08127 0.86077 0.87492 0.0
C243 C 0.09597 0.85182 0.80584 0.0
N244 N 0.0949 0.8676 0.77979 0.0
O245 O 0.11133 0.8322 0.90563 0.0
H246 H 0.07266 0.86062 0.91582 0.0
H247 H 0.1014 0.84297 0.78065 0.0
O248 O 0.08731 0.83831 0.98977 0.0
C249 C 0.11467 0.82314 0.86042 0.0
O250 O 0.09926 0.81032 0.82467 0.0
N251 N 0.05552 0.81485 0.91202 0.0
C252 C 0.01342 0.79399 0.89684 0.0
C253 C 0.02184 0.7988 0.95763 0.0
C254 C 0.04325 0.80952 0.96429 0.0
C255 C 0.0474 0.81054 0.85301 0.0
C256 C 0.02639 0.80058 0.84431 0.0
H257 H 0.04991 0.81235 0.01099 0.0
H258 H 0.05731 0.81399 0.81246 0.0
H259 H 0.09748 0.81287 0.03637 0.0
H260 H 0.0644 0.75248 0.96889 0.0
H261 H 0.0814 0.88502 0.81573 0.0
H262 H 0.01206 0.7935 0.99895 0.0
H263 H 0.02026 0.79679 0.79682 0.0
C264 C 0.22824 0.30453 0.90135 0.0
C265 C 0.24655 0.3089 0.97908 0.0
N266 N 0.22854 0.30134 0.04602 0.0
N267 N 0.20255 0.29486 0.93454 0.0
C268 C 0.202 0.29244 0.02015 0.0
H269 H 0.23249 0.3074 0.85208 0.0
Co270 Co 0.17902 0.28444 0.88168 0.0
C271 C 0.15308 0.24902 0.97962 0.0
O272 O 0.15443 0.23365 0.95543 0.0
N273 N 0.15489 0.27294 0.82587 0.0
C274 C 0.12609 0.24799 0.78133 0.0
C275 C 0.13808 0.25416 0.83448 0.0
C276 C 0.15205 0.27786 0.76585 0.0
N277 N 0.13484 0.26278 0.73746 0.0
O278 O 0.19624 0.30425 0.81903 0.0
H279 H 0.13502 0.24441 0.87475 0.0
H280 H 0.16325 0.29122 0.74075 0.0
O281 O 0.16218 0.26646 0.95162 0.0
C282 C 0.19843 0.32083 0.79508 0.0
O283 O 0.2147 0.33187 0.75979 0.0
N284 N 0.18582 0.2651 0.84901 0.0
C285 C 0.19452 0.23687 0.79321 0.0
C286 C 0.19527 0.23902 0.85888 0.0
C287 C 0.19104 0.25349 0.88596 0.0
C288 C 0.1866 0.26392 0.78488 0.0
C289 C 0.19035 0.24959 0.75603 0.0
H290 H 0.19202 0.25537 0.93656 0.0
H291 H 0.18479 0.27445 0.75528 0.0
H292 H 0.18922 0.28926 0.05047 0.0
H293 H 0.26315 0.31738 0.98166 0.0
H294 H 0.11238 0.2332 0.77429 0.0
H295 H 0.19922 0.22978 0.88862 0.0
H296 H 0.19057 0.24884 0.70498 0.0
C297 C 0.93282 0.73703 0.502 0.0
C298 C 0.93152 0.72158 0.46369 0.0
N299 N 0.91159 0.70895 0.45031 0.0
N300 N 0.91376 0.73397 0.51274 0.0
C301 C 0.90127 0.717 0.4791 0.0
H302 H 0.94677 0.74955 0.52151 0.0
Co303 Co 0.90682 0.74957 0.56522 0.0
C304 C 0.89839 0.7632 0.45348 0.0
O305 O 0.91845 0.77501 0.45495 0.0
N306 N 0.89969 0.76497 0.6195 0.0
C307 C 0.88629 0.78243 0.6651 0.0
C308 C 0.89154 0.77714 0.60827 0.0
C309 C 0.8992 0.76323 0.68311 0.0
N310 N 0.8913 0.77362 0.71189 0.0
O311 O 0.88289 0.72546 0.60007 0.0
H312 H 0.88864 0.78115 0.56201 0.0
H313 H 0.90347 0.75355 0.70886 0.0
O314 O 0.88953 0.75064 0.49891 0.0
C315 C 0.87454 0.7061 0.60825 0.0
O316 O 0.88342 0.69584 0.58898 0.0
N317 N 0.92478 0.74973 0.62721 0.0
C318 C 0.94925 0.75721 0.73291 0.0
C319 C 0.95375 0.77295 0.68927 0.0
C320 C 0.94123 0.76885 0.63657 0.0
C321 C 0.9218 0.73376 0.66517 0.0
C322 C 0.93328 0.73735 0.72003 0.0
H323 H 0.94378 0.78126 0.60507 0.0
H324 H 0.91006 0.71839 0.65587 0.0
H325 H 0.88477 0.71008 0.47761 0.0
H326 H 0.9441 0.7197 0.44711 0.0
H327 H 0.87889 0.7915 0.67147 0.0
H328 H 0.96625 0.78844 0.69744 0.0
H329 H 0.92963 0.72478 0.75232 0.0
C330 C 0.28 0.19912 0.61138 0.0
C331 C 0.2935 0.21406 0.57093 0.0
N332 N 0.29467 0.20525 0.51639 0.0
N333 N 0.27299 0.18067 0.58436 0.0
C334 C 0.28251 0.18475 0.52777 0.0
H335 H 0.27669 0.20141 0.65938 0.0
Co336 Co 0.25751 0.15564 0.62613 0.0
C337 C 0.23085 0.13191 0.51385 0.0
O338 O 0.21409 0.13122 0.5349 0.0
N339 N 0.24283 0.13065 0.67029 0.0
C340 C 0.22109 0.09949 0.70851 0.0
C341 C 0.22662 0.112 0.656 0.0
C342 C 0.24711 0.12884 0.73107 0.0
N343 N 0.23401 0.11026 0.75541 0.0
O344 O 0.27978 0.151 0.61938 0.0
H345 H 0.21873 0.10762 0.61145 0.0
H346 H 0.25898 0.14136 0.75815 0.0
O347 O 0.24738 0.14166 0.5457 0.0
C348 C 0.29424 0.16132 0.65804 0.0
O349 O 0.29252 0.17353 0.6988 0.0
N350 N 0.23615 0.16139 0.63697 0.0
C351 C 0.21489 0.18115 0.67183 0.0
C352 C 0.21935 0.18026 0.60815 0.0
C353 C 0.2302 0.17031 0.5916 0.0
C354 C 0.23104 0.16162 0.69862 0.0
C355 C 0.21995 0.17092 0.7168 0.0
H356 H 0.23541 0.17139 0.54345 0.0
H357 H 0.23731 0.15659 0.73544 0.0
H358 H 0.28185 0.17272 0.4983 0.0
H359 H 0.30297 0.22992 0.58461 0.0
H360 H 0.20813 0.08405 0.71278 0.0
H361 H 0.21606 0.18861 0.57272 0.0
H362 H 0.21723 0.17197 0.76655 0.0
C363 C 0.77453 0.07423 0.62881 0.0
C364 C 0.76112 0.07448 0.58526 0.0
N365 N 0.77149 0.08411 0.53202 0.0
N366 N 0.79362 0.08414 0.60483 0.0
C367 C 0.79137 0.09054 0.54733 0.0
H368 H 0.7707 0.06867 0.67669 0.0
Co369 Co 0.81853 0.09249 0.64622 0.0
C370 C 0.84454 0.08891 0.54222 0.0
O371 O 0.85504 0.08345 0.57911 0.0
N372 N 0.84356 0.10158 0.68909 0.0
C373 C 0.87563 0.12211 0.72286 0.0
C374 C 0.86269 0.11609 0.67129 0.0
C375 C 0.84532 0.09915 0.75153 0.0
N376 N 0.86452 0.11133 0.77301 0.0
O377 O 0.82569 0.11995 0.63211 0.0
H378 H 0.86657 0.12325 0.62531 0.0
H379 H 0.8325 0.09034 0.78266 0.0
O380 O 0.83065 0.09205 0.56516 0.0
C381 C 0.82186 0.12661 0.68239 0.0
O382 O 0.81451 0.11434 0.7315 0.0
N383 N 0.81034 0.06542 0.6667 0.0
C384 C 0.80002 0.02955 0.73171 0.0
C385 C 0.80828 0.03257 0.6707 0.0
C386 C 0.81334 0.0508 0.63849 0.0
C387 C 0.8009 0.06179 0.72388 0.0
C388 C 0.79596 0.04416 0.75778 0.0
H389 H 0.81981 0.05301 0.59202 0.0
H390 H 0.79822 0.07334 0.74494 0.0
H391 H 0.80453 0.10148 0.5205 0.0
H392 H 0.74527 0.06953 0.59573 0.0
H393 H 0.89144 0.13446 0.72447 0.0
H394 H 0.81103 0.02113 0.64886 0.0
H395 H 0.78923 0.04205 0.80435 0.0
C396 C 0.9501 0.40593 0.41949 0.0
C397 C 0.96579 0.40685 0.38351 0.0
N398 N 0.96686 0.41681 0.3296 0.0
N399 N 0.94071 0.41446 0.38728 0.0
C400 C 0.95163 0.42134 0.3331 0.0
H401 H 0.9466 0.40062 0.46779 0.0
Co402 Co 0.92429 0.42368 0.42494 0.0
C403 C 0.89995 0.42348 0.31284 0.0
O404 O 0.88224 0.41313 0.34169 0.0
N405 N 0.91028 0.4349 0.46637 0.0
C406 C 0.89975 0.45598 0.50186 0.0
C407 C 0.9052 0.44908 0.44884 0.0
C408 C 0.90778 0.43341 0.52956 0.0
N409 N 0.90144 0.44602 0.55224 0.0
O410 O 0.94776 0.45007 0.42515 0.0
H411 H 0.90723 0.45546 0.40196 0.0
H412 H 0.91185 0.4242 0.55898 0.0
O413 O 0.91676 0.42868 0.34168 0.0
C414 C 0.95768 0.45499 0.47678 0.0
O415 O 0.95097 0.44195 0.52416 0.0
N416 N 0.90009 0.39602 0.42834 0.0
C417 C 0.87358 0.35965 0.48988 0.0
C418 C 0.8893 0.36075 0.45217 0.0
C419 C 0.90194 0.37893 0.41952 0.0
C420 C 0.882 0.39315 0.45383 0.0
C421 C 0.86859 0.3751 0.48525 0.0
H422 H 0.91384 0.37919 0.39092 0.0
H423 H 0.87813 0.40513 0.45524 0.0
H424 H 0.9499 0.4313 0.2998 0.0
H425 H 0.97669 0.40222 0.39799 0.0
H426 H 0.89627 0.46832 0.50388 0.0
H427 H 0.89271 0.34835 0.45164 0.0
H428 H 0.85575 0.37416 0.51134 0.0
C429 C 0.57823 0.54594 0.43055 0.0
C430 C 0.57699 0.56067 0.39559 0.0
N431 N 0.5707 0.55324 0.33702 0.0
N432 N 0.57225 0.52904 0.39488 0.0
C433 C 0.56822 0.53411 0.33752 0.0
H434 H 0.58219 0.54704 0.48 0.0
Co435 Co 0.56657 0.50412 0.43096 0.0
C436 C 0.56886 0.4826 0.31265 0.0
O437 O 0.5857 0.48286 0.33083 0.0
N438 N 0.56003 0.47911 0.47184 0.0
C439 C 0.55058 0.44709 0.50232 0.0
C440 C 0.55605 0.46037 0.45166 0.0
C441 C 0.55633 0.47652 0.53468 0.0
N442 N 0.55073 0.45738 0.55427 0.0
O443 O 0.5389 0.49662 0.43502 0.0
H444 H 0.55633 0.45609 0.40351 0.0
H445 H 0.55784 0.48853 0.56607 0.0
O446 O 0.56132 0.49097 0.34781 0.0
C447 C 0.53444 0.50339 0.48373 0.0
O448 O 0.54878 0.51443 0.52507 0.0
N449 N 0.59449 0.51279 0.43047 0.0
C450 C 0.6366 0.53379 0.44779 0.0
C451 C 0.62847 0.53265 0.38762 0.0
C452 C 0.60716 0.52238 0.38022 0.0
C453 C 0.60247 0.5138 0.48892 0.0
C454 C 0.62349 0.52393 0.49842 0.0
H455 H 0.60085 0.52298 0.33497 0.0
H456 H 0.59268 0.50815 0.5297 0.0
H457 H 0.5629 0.52385 0.29755 0.0
H458 H 0.58014 0.57561 0.41206 0.0
H459 H 0.5465 0.43108 0.50108 0.0
H460 H 0.63842 0.54063 0.34803 0.0
H461 H 0.62946 0.52507 0.54571 0.0
C462 C 0.46841 0.04419 0.4283 0.0
C463 C 0.45802 0.03099 0.37943 0.0
N464 N 0.47181 0.02975 0.3422 0.0
N465 N 0.48889 0.05182 0.4216 0.0
C466 C 0.49027 0.04232 0.36877 0.0
H467 H 0.46114 0.04802 0.4656 0.0
Co468 Co 0.51096 0.07284 0.47004 0.0
C469 C 0.53334 0.08854 0.36825 0.0
O470 O 0.52317 0.09839 0.37625 0.0
N471 N 0.53251 0.09339 0.51779 0.0
C472 C 0.55132 0.12302 0.56865 0.0
C473 C 0.53867 0.11365 0.51744 0.0
C474 C 0.54187 0.09093 0.56894 0.0
N475 N 0.55317 0.10857 0.60068 0.0
O476 O 0.51326 0.05248 0.51852 0.0
H477 H 0.533 0.12082 0.48512 0.0
H478 H 0.53928 0.0763 0.58639 0.0
O479 O 0.53029 0.07456 0.40823 0.0
C480 C 0.50927 0.03437 0.53213 0.0
O481 O 0.51733 0.0315 0.58336 0.0
N482 N 0.49283 0.07349 0.52817 0.0
C483 C 0.47483 0.08781 0.61276 0.0
C484 C 0.47637 0.09308 0.54893 0.0
C485 C 0.48576 0.08598 0.50752 0.0
C486 C 0.49045 0.06725 0.58976 0.0
C487 C 0.48139 0.07431 0.63312 0.0
H488 H 0.4885 0.09134 0.45918 0.0
H489 H 0.49691 0.05822 0.6072 0.0
H490 H 0.50449 0.04475 0.34877 0.0
H491 H 0.44159 0.02293 0.37161 0.0
H492 H 0.55745 0.13879 0.58368 0.0
H493 H 0.47161 0.10369 0.53221 0.0
H494 H 0.48062 0.07029 0.68254 0.0
C495 C 0.75357 0.63499 0.66869 0.0
C496 C 0.7366 0.64 0.73542 0.0
N497 N 0.74344 0.63251 0.81035 0.0
N498 N 0.76753 0.62481 0.7146 0.0
C499 C 0.76155 0.62303 0.7994 0.0
H500 H 0.75353 0.63669 0.61806 0.0
Co501 Co 0.77455 0.60407 0.67321 0.0
C502 C 0.77685 0.58253 0.78128 0.0
O503 O 0.78892 0.57859 0.74649 0.0
N504 N 0.77468 0.58195 0.63496 0.0
C505 C 0.76468 0.55218 0.58646 0.0
C506 C 0.76171 0.56144 0.63856 0.0
C507 C 0.78522 0.5848 0.58097 0.0
N508 N 0.77939 0.56702 0.55042 0.0
O509 O 0.78448 0.63073 0.69918 0.0
H510 H 0.74968 0.55398 0.67344 0.0
H511 H 0.79541 0.59983 0.5611 0.0
O512 O 0.76745 0.59087 0.7555 0.0
C513 C 0.80418 0.63874 0.68876 0.0
O514 O 0.81139 0.62653 0.67444 0.0
N515 N 0.74913 0.595 0.63992 0.0
C516 C 0.71384 0.57799 0.56868 0.0
C517 C 0.71289 0.5729 0.63272 0.0
C518 C 0.73097 0.58167 0.66801 0.0
C519 C 0.75015 0.60039 0.57813 0.0
C520 C 0.73253 0.59218 0.54152 0.0
H521 H 0.73056 0.57728 0.7167 0.0
H522 H 0.76489 0.61058 0.55686 0.0
H523 H 0.76771 0.61768 0.8362 0.0
H524 H 0.72827 0.6482 0.72997 0.0
H525 H 0.75556 0.53616 0.57325 0.0
H526 H 0.69848 0.56186 0.65439 0.0
H527 H 0.73357 0.5962 0.49202 0.0
C528 C 0.37742 0.12215 0.73858 0.0
C529 C 0.36177 0.10898 0.77791 0.0
N530 N 0.36154 0.11967 0.82861 0.0
N531 N 0.3868 0.14117 0.7637 0.0
C532 C 0.37716 0.13909 0.81937 0.0
H533 H 0.38079 0.11847 0.69237 0.0
Co534 Co 0.40439 0.1646 0.71744 0.0
C535 C 0.42735 0.19205 0.82908 0.0
O536 O 0.44439 0.19164 0.81926 0.0
N537 N 0.42125 0.18794 0.66737 0.0
C538 C 0.44513 0.2174 0.62392 0.0
C539 C 0.4392 0.20552 0.6779 0.0
C540 C 0.41677 0.18955 0.60652 0.0
N541 N 0.43087 0.20726 0.57945 0.0
O542 O 0.38238 0.16952 0.7063 0.0
H543 H 0.44786 0.20959 0.72101 0.0
H544 H 0.40362 0.17776 0.5816 0.0
O545 O 0.4119 0.1815 0.79347 0.0
C546 C 0.36939 0.15897 0.66394 0.0
O547 O 0.37279 0.14692 0.62709 0.0
N548 N 0.42529 0.15825 0.72621 0.0
C549 C 0.44639 0.13682 0.7229 0.0
C550 C 0.43933 0.13998 0.78047 0.0
C551 C 0.42852 0.15061 0.781 0.0
C552 C 0.43294 0.15596 0.67045 0.0
C553 C 0.4438 0.14552 0.66792 0.0
H554 H 0.42145 0.15138 0.82456 0.0
H555 H 0.42919 0.16068 0.62668 0.0
H556 H 0.38052 0.15176 0.85057 0.0
H557 H 0.3508 0.09297 0.76873 0.0
H558 H 0.45893 0.23214 0.61742 0.0
H559 H 0.44093 0.1331 0.82348 0.0
H560 H 0.44888 0.14299 0.62265 0.0
C561 C 0.87086 0.25173 0.77809 0.0
C562 C 0.88456 0.24895 0.81367 0.0
N563 N 0.87536 0.23996 0.86826 0.0
N564 N 0.85321 0.24515 0.81077 0.0
C565 C 0.85639 0.23773 0.86545 0.0
H566 H 0.87292 0.2565 0.72919 0.0
Co567 Co 0.82787 0.23683 0.77145 0.0
C568 C 0.80749 0.24331 0.88461 0.0
O569 O 0.80532 0.25779 0.85771 0.0
N570 N 0.80279 0.22631 0.72942 0.0
C571 C 0.7702 0.20903 0.6981 0.0
C572 C 0.78317 0.21529 0.74969 0.0
C573 C 0.80142 0.22616 0.66585 0.0
N574 N 0.78184 0.21583 0.64564 0.0
O575 O 0.82316 0.20978 0.77577 0.0
H576 H 0.77861 0.2112 0.79825 0.0
H577 H 0.8146 0.23319 0.63476 0.0
O578 O 0.81532 0.23405 0.8548 0.0
C579 C 0.8295 0.20548 0.72552 0.0
O580 O 0.83815 0.21956 0.68137 0.0
N581 N 0.83324 0.26502 0.76117 0.0
C582 C 0.84389 0.30021 0.69102 0.0
C583 C 0.85869 0.29889 0.72721 0.0
C584 C 0.85286 0.28142 0.76398 0.0
C585 C 0.81829 0.26832 0.73561 0.0
C586 C 0.82331 0.28576 0.70012 0.0
H587 H 0.86466 0.2811 0.79147 0.0
H588 H 0.8022 0.25715 0.73895 0.0
H589 H 0.84432 0.22853 0.89874 0.0
H590 H 0.89937 0.25147 0.79824 0.0
H591 H 0.75364 0.19948 0.69877 0.0
H592 H 0.87474 0.31066 0.72427 0.0
H593 H 0.81136 0.28703 0.67552 0.0
C594 C 0.37838 0.25457 0.25456 0.0
C595 C 0.36328 0.25242 0.29561 0.0
N596 N 0.36089 0.23859 0.33999 0.0
N597 N 0.38568 0.24222 0.27294 0.0
C598 C 0.37489 0.23291 0.32599 0.0
H599 H 0.38226 0.26323 0.21117 0.0
Co600 Co 0.40032 0.23323 0.22295 0.0
C601 C 0.42829 0.22908 0.32017 0.0
O602 O 0.44355 0.23332 0.2814 0.0
N603 N 0.41391 0.22354 0.17141 0.0
C604 C 0.42277 0.20224 0.12675 0.0
C605 C 0.41711 0.20763 0.18213 0.0
C606 C 0.41735 0.22726 0.10887 0.0
N607 N 0.42282 0.21462 0.081 0.0
O608 O 0.37808 0.20623 0.22969 0.0
H609 H 0.41314 0.19888 0.22532 0.0
H610 H 0.41392 0.23752 0.08264 0.0
O611 O 0.41229 0.22929 0.30068 0.0
C612 C 0.366 0.20243 0.18319 0.0
O613 O 0.37075 0.21648 0.13933 0.0
N614 N 0.42135 0.26022 0.20908 0.0
C615 C 0.45028 0.2956 0.14766 0.0
C616 C 0.45537 0.28947 0.20417 0.0
C617 C 0.44047 0.27161 0.23484 0.0
C618 C 0.4161 0.26687 0.15628 0.0
C619 C 0.43027 0.2845 0.12486 0.0
H620 H 0.44464 0.26689 0.27749 0.0
H621 H 0.40105 0.25752 0.13573 0.0
H622 H 0.37578 0.22067 0.35016 0.0
H623 H 0.35372 0.25935 0.29075 0.0
H624 H 0.42481 0.1891 0.11943 0.0
H625 H 0.47074 0.29813 0.22343 0.0
H626 H 0.42586 0.289 0.08165 0.0
C627 C 0.73588 0.13367 0.27265 0.0
C628 C 0.73509 0.11773 0.30716 0.0
N629 N 0.74727 0.12571 0.35802 0.0
N630 N 0.74838 0.15159 0.30195 0.0
C631 C 0.755 0.14621 0.3541 0.0
H632 H 0.72938 0.13245 0.22637 0.0
Co633 Co 0.76019 0.17775 0.26558 0.0
C634 C 0.75782 0.19902 0.38447 0.0
O635 O 0.74412 0.20318 0.36119 0.0
N636 N 0.7733 0.20393 0.22715 0.0
C637 C 0.78534 0.23617 0.19377 0.0
C638 C 0.77635 0.22266 0.24346 0.0
C639 C 0.78077 0.2066 0.16775 0.0
N640 N 0.78793 0.22581 0.14643 0.0
O641 O 0.78574 0.17854 0.26723 0.0
H642 H 0.77137 0.22621 0.28657 0.0
H643 H 0.77954 0.19433 0.13829 0.0
O644 O 0.76492 0.18979 0.35094 0.0
C645 C 0.78698 0.16888 0.21946 0.0
O646 O 0.77174 0.16086 0.17886 0.0
N647 N 0.73393 0.17547 0.25686 0.0
C648 C 0.6938 0.15943 0.21448 0.0
C649 C 0.69755 0.15571 0.27645 0.0
C650 C 0.71791 0.16419 0.29716 0.0
C651 C 0.73005 0.18044 0.19835 0.0
C652 C 0.71018 0.17321 0.17725 0.0
H653 H 0.72066 0.1597 0.34278 0.0
H654 H 0.74194 0.18791 0.16384 0.0
H655 H 0.76688 0.15718 0.38506 0.0
H656 H 0.72739 0.10169 0.29365 0.0
H657 H 0.78853 0.25189 0.19112 0.0
H658 H 0.68509 0.14482 0.30607 0.0
H659 H 0.70774 0.17605 0.12871 0.0
C660 C 0.86975 0.62078 0.20599 0.0
C661 C 0.88384 0.63566 0.24573 0.0
N662 N 0.87367 0.63765 0.29497 0.0
N663 N 0.85075 0.6135 0.23007 0.0
C664 C 0.85367 0.62383 0.28489 0.0
H665 H 0.87294 0.61693 0.15978 0.0
Co666 Co 0.82609 0.59888 0.18586 0.0
C667 C 0.80336 0.56818 0.29253 0.0
O668 O 0.8 0.55154 0.26214 0.0
N669 N 0.80096 0.58468 0.13931 0.0
C670 C 0.77134 0.56161 0.09435 0.0
C671 C 0.78304 0.56693 0.1487 0.0
C672 C 0.79913 0.59016 0.07982 0.0
N673 N 0.78163 0.5763 0.05103 0.0
O674 O 0.82105 0.62069 0.20024 0.0
H675 H 0.77884 0.55762 0.19053 0.0
H676 H 0.81129 0.60309 0.05511 0.0
O677 O 0.81249 0.5858 0.26563 0.0
C678 C 0.83027 0.6338 0.15649 0.0
O679 O 0.84013 0.62961 0.11316 0.0
N680 N 0.8328 0.57898 0.16473 0.0
C681 C 0.84598 0.55412 0.11029 0.0
C682 C 0.84502 0.55518 0.1762 0.0
C683 C 0.83877 0.56825 0.20278 0.0
C684 C 0.83548 0.57925 0.10116 0.0
C685 C 0.84144 0.56651 0.07275 0.0
H686 H 0.83947 0.57036 0.25322 0.0
H687 H 0.83379 0.59009 0.07218 0.0
H688 H 0.84126 0.62308 0.31286 0.0
H689 H 0.90008 0.64552 0.2365 0.0
H690 H 0.75709 0.54744 0.08597 0.0
H691 H 0.84966 0.54656 0.20633 0.0
H692 H 0.84329 0.5669 0.02196 0.0
C693 C 0.58323 0.0472 0.90728 0.0
C694 C 0.58003 0.03324 0.86061 0.0
N695 N 0.56461 0.03128 0.82388 0.0
N696 N 0.56985 0.05417 0.90038 0.0
C697 C 0.55881 0.04419 0.84832 0.0
H698 H 0.59431 0.05121 0.94451 0.0
Co699 Co 0.56354 0.07013 0.95579 0.0
C700 C 0.57744 0.09466 0.83872 0.0
O701 O 0.59205 0.08995 0.83593 0.0
N702 N 0.55649 0.08469 0.01168 0.0
C703 C 0.53939 0.09714 0.06376 0.0
C704 C 0.54357 0.09215 0.00497 0.0
C705 C 0.56002 0.0854 0.07425 0.0
N706 N 0.54978 0.09276 0.10689 0.0
O707 O 0.53554 0.05195 0.94123 0.0
H708 H 0.53618 0.09218 0.96132 0.0
H709 H 0.56839 0.07887 0.09648 0.0
O710 O 0.56461 0.08747 0.88455 0.0
C711 C 0.52818 0.03885 0.98575 0.0
O712 O 0.54067 0.03992 0.03065 0.0
N713 N 0.59092 0.08744 0.97743 0.0
C714 C 0.62456 0.11132 0.0536 0.0
C715 C 0.61351 0.09001 0.06094 0.0
C716 C 0.59661 0.0784 0.02273 0.0
C717 C 0.60155 0.10833 0.96971 0.0
C718 C 0.61882 0.12057 0.00666 0.0
H719 H 0.58674 0.06229 0.03355 0.0
H720 H 0.59587 0.1159 0.93933 0.0
H721 H 0.54623 0.04576 0.82998 0.0
H722 H 0.5881 0.02479 0.85477 0.0
H723 H 0.5286 0.10227 0.07443 0.0
H724 H 0.61737 0.08253 0.09787 0.0
H725 H 0.62694 0.13713 1.00106 0.0
C726 C 0.94444 0.53374 0.91501 0.0
C727 C 0.95712 0.54903 0.87384 0.0
N728 N 0.95857 0.54045 0.81919 0.0
N729 N 0.93838 0.51542 0.88814 0.0
C730 C 0.94749 0.51993 0.83102 0.0
H731 H 0.94101 0.53581 0.96312 0.0
Co732 Co 0.92422 0.4898 0.92747 0.0
C733 C 0.89956 0.46636 0.81204 0.0
O734 O 0.88228 0.46467 0.83224 0.0
N735 N 0.91087 0.46415 0.96812 0.0
C736 C 0.89142 0.43189 1.00183 0.0
C737 C 0.89618 0.44499 0.951 0.0
C738 C 0.91507 0.4621 0.02863 0.0
N739 N 0.90336 0.44287 0.05031 0.0
O740 O 0.94807 0.48751 0.92329 0.0
H741 H 0.8888 0.44062 0.90565 0.0
H742 H 0.9253 0.47492 0.05793 0.0
O743 O 0.91572 0.47636 0.84534 0.0
C744 C 0.96163 0.49821 0.96426 0.0
O745 O 0.95896 0.51086 1.00052 0.0
N746 N 0.90122 0.49314 0.93766 0.0
C747 C 0.8762 0.50848 0.97596 0.0
C748 C 0.88213 0.51004 0.91257 0.0
C749 C 0.89479 0.50221 0.89422 0.0
C750 C 0.89488 0.49123 0.9989 0.0
C751 C 0.88186 0.49813 0.01848 0.0
H752 H 0.90078 0.50495 0.84662 0.0
H753 H 0.90148 0.48639 0.0351 0.0
H754 H 0.94741 0.50823 0.80129 0.0
H755 H 0.9658 0.56504 0.88678 0.0
H756 H 0.87955 0.41587 0.00399 0.0
H757 H 0.87836 0.51856 0.87912 0.0
H758 H 0.87808 0.49738 0.06816 0.0
C759 C 0.46245 0.39354 0.90369 0.0
C760 C 0.44625 0.39092 0.86648 0.0
N761 N 0.45369 0.40579 0.82229 0.0
N762 N 0.48006 0.40962 0.88168 0.0
C763 C 0.47414 0.41661 0.83173 0.0
H764 H 0.46125 0.38533 0.94687 0.0
Co765 Co 0.50521 0.42474 0.9243 0.0
C766 C 0.53256 0.43099 0.81338 0.0
O767 O 0.54072 0.42115 0.84117 0.0
N768 N 0.52929 0.44113 0.96914 0.0
C769 C 0.55993 0.46437 0.00663 0.0
C770 C 0.54883 0.45488 0.95291 0.0
C771 C 0.5287 0.44307 0.03231 0.0
N772 N 0.54708 0.45685 0.05611 0.0
O773 O 0.50051 0.4474 0.92722 0.0
H774 H 0.55453 0.45853 0.90545 0.0
H775 H 0.51502 0.43426 0.06043 0.0
O776 O 0.51919 0.43378 0.84222 0.0
C777 C 0.48721 0.44545 0.96815 0.0
O778 O 0.47678 0.42794 0.99854 0.0
N779 N 0.50936 0.40103 0.92758 0.0
C780 C 0.49868 0.3631 0.97969 0.0
C781 C 0.49047 0.36412 0.92144 0.0
C782 C 0.49679 0.38344 0.89457 0.0
C783 C 0.52081 0.39966 0.97586 0.0
C784 C 0.51552 0.38081 1.00317 0.0
H785 H 0.48946 0.38399 0.85146 0.0
H786 H 0.53299 0.41288 0.99847 0.0
H787 H 0.48434 0.43057 0.80634 0.0
H788 H 0.43013 0.38023 0.8748 0.0
H789 H 0.57596 0.47616 0.00915 0.0
H790 H 0.47794 0.35046 0.90038 0.0
H791 H 0.52288 0.38039 0.04668 0.0
C792 C 0.60379 0.74009 0.81327 0.0
C793 C 0.61896 0.7409 0.77459 0.0
N794 N 0.62194 0.75384 0.72639 0.0
N795 N 0.59741 0.75263 0.78985 0.0
C796 C 0.60841 0.76041 0.73626 0.0
H797 H 0.59896 0.73223 0.85816 0.0
Co798 Co 0.58239 0.76274 0.83221 0.0
C799 C 0.55937 0.76431 0.71742 0.0
O800 O 0.54131 0.7515 0.7417 0.0
N801 N 0.56828 0.77397 0.87639 0.0
C802 C 0.5509 0.78903 0.91102 0.0
C803 C 0.55555 0.78101 0.85909 0.0
C804 C 0.57128 0.77822 0.93877 0.0
N805 N 0.56092 0.78722 0.96079 0.0
O806 O 0.607 0.78859 0.8384 0.0
H807 H 0.55045 0.78128 0.81189 0.0
H808 H 0.58111 0.77493 0.96782 0.0
O809 O 0.57572 0.77002 0.74976 0.0
C810 C 0.6181 0.78808 0.8832 0.0
O811 O 0.61103 0.77156 0.91867 0.0
N812 N 0.55895 0.7363 0.83261 0.0
C813 C 0.53404 0.69457 0.85622 0.0
C814 C 0.54144 0.70141 0.79511 0.0
C815 C 0.55407 0.72253 0.7843 0.0
C816 C 0.55059 0.72958 0.89103 0.0
C817 C 0.53776 0.70888 0.90338 0.0
H818 H 0.56156 0.72761 0.73906 0.0
H819 H 0.55546 0.73975 0.93083 0.0
H820 H 0.60783 0.77204 0.70762 0.0
H821 H 0.62793 0.73349 0.78309 0.0
H822 H 0.54162 0.79633 0.91174 0.0
H823 H 0.53914 0.69053 0.75807 0.0
H824 H 0.53261 0.70396 0.95134 0.0
C825 C 0.24661 0.8811 0.78681 0.0
C826 C 0.24634 0.89525 0.74634 0.0
N827 N 0.23772 0.88603 0.69073 0.0
N828 N 0.23758 0.86267 0.75853 0.0
C829 C 0.23192 0.86597 0.70124 0.0
H830 H 0.25158 0.88372 0.8355 0.0
Co831 Co 0.23001 0.83758 0.79713 0.0
C832 C 0.2433 0.82071 0.68401 0.0
O833 O 0.25821 0.81925 0.71116 0.0
N834 N 0.22188 0.81236 0.83798 0.0
C835 C 0.21922 0.78362 0.8778 0.0
C836 C 0.2254 0.79668 0.82651 0.0
C837 C 0.2133 0.80825 0.89608 0.0
N838 N 0.21186 0.79118 0.92152 0.0
O839 O 0.20228 0.8285 0.77812 0.0
H840 H 0.23329 0.79535 0.78625 0.0
H841 H 0.20967 0.8185 0.92157 0.0
O842 O 0.23288 0.82703 0.71473 0.0
C843 C 0.19536 0.83596 0.81868 0.0
O844 O 0.20772 0.8484 0.86234 0.0
N845 N 0.25704 0.84741 0.82244 0.0
C846 C 0.29518 0.86413 0.87943 0.0
C847 C 0.29366 0.86426 0.81357 0.0
C848 C 0.27426 0.85608 0.78583 0.0
C849 C 0.25865 0.8485 0.88662 0.0
C850 C 0.27752 0.85631 0.91617 0.0
H851 H 0.27316 0.8574 0.73568 0.0
H852 H 0.24528 0.84399 0.9155 0.0
H853 H 0.22193 0.85335 0.67087 0.0
H854 H 0.25053 0.91067 0.76035 0.0
H855 H 0.22142 0.77056 0.88447 0.0
H856 H 0.30731 0.87109 0.78431 0.0
H857 H 0.27839 0.85687 0.96724 0.0
C858 C 0.11574 0.37506 0.71072 0.0
C859 C 0.10194 0.36214 0.6667 0.0
N860 N 0.11251 0.35964 0.61978 0.0
N861 N 0.135 0.38047 0.69214 0.0
C862 C 0.13254 0.37152 0.63521 0.0
H863 H 0.11162 0.37788 0.75691 0.0
Co864 Co 0.15729 0.38806 0.74636 0.0
C865 C 0.19008 0.42716 0.67214 0.0
O866 O 0.1992 0.44066 0.71748 0.0
N867 N 0.1795 0.3955 0.80302 0.0
C868 C 0.21072 0.4098 0.84663 0.0
C869 C 0.19974 0.40367 0.79067 0.0
C870 C 0.17864 0.3959 0.86683 0.0
N871 N 0.19725 0.40515 0.89426 0.0
O872 O 0.13947 0.36455 0.79704 0.0
H873 H 0.20621 0.40575 0.74391 0.0
H874 H 0.16472 0.38975 0.89394 0.0
O875 O 0.17529 0.40918 0.68517 0.0
C876 C 0.13848 0.34792 0.81551 0.0
O877 O 0.12106 0.3338 0.84041 0.0
N878 N 0.14989 0.40576 0.79236 0.0
C879 C 0.14266 0.43182 0.86851 0.0
C880 C 0.15142 0.43829 0.80875 0.0
C881 C 0.15473 0.42489 0.77109 0.0
C882 C 0.13957 0.39902 0.84866 0.0
C883 C 0.13654 0.41193 0.88803 0.0
H884 H 0.16073 0.42996 0.72462 0.0
H885 H 0.13381 0.38367 0.86607 0.0
H886 H 0.14492 0.37117 0.61018 0.0
H887 H 0.0854 0.35345 0.67211 0.0
H888 H 0.22725 0.41779 0.85171 0.0
H889 H 0.15537 0.45336 0.79111 0.0
H890 H 0.12891 0.4062 0.93302 0.0
C891 C 0.4322 0.96759 0.02755 0.0
C892 C 0.43499 0.98181 0.07332 0.0
N893 N 0.45022 0.984 0.11156 0.0
N894 N 0.44535 0.96054 0.0378 0.0
C895 C 0.45647 0.97131 0.08843 0.0
H896 H 0.42091 0.96232 0.99013 0.0
Co897 Co 0.44796 0.94017 0.99335 0.0
C898 C 0.43977 0.91085 0.10158 0.0
O899 O 0.42334 0.89606 0.07416 0.0
N900 N 0.45187 0.92024 0.94751 0.0
C901 C 0.45667 0.8944 0.91628 0.0
C902 C 0.45458 0.90455 0.96731 0.0
C903 C 0.45372 0.9198 0.88396 0.0
N904 N 0.45627 0.90426 0.86407 0.0
O905 O 0.44635 0.95229 0.91458 0.0
H906 H 0.45586 0.90081 0.01538 0.0
H907 H 0.45303 0.93053 0.85151 0.0
O908 O 0.44986 0.92829 0.07392 0.0
C909 C 0.45665 0.97009 0.8903 0.0
O910 O 0.45202 0.97316 0.83304 0.0
N911 N 0.41885 0.92299 0.99079 0.0
C912 C 0.37637 0.90142 0.97861 0.0
C913 C 0.3853 0.90992 0.03682 0.0
C914 C 0.40671 0.92074 0.04191 0.0
C915 C 0.40992 0.9144 0.93428 0.0
C916 C 0.3888 0.9034 0.92746 0.0
H917 H 0.41356 0.92772 0.08663 0.0
H918 H 0.41888 0.91678 0.89254 0.0
H919 H 0.46893 0.96995 0.10811 0.0
H920 H 0.42622 0.98955 0.0791 0.0
H921 H 0.4588 0.88118 0.91739 0.0
H922 H 0.37588 0.90873 0.07704 0.0
H923 H 0.3822 0.89725 0.8816 0.0
C924 C 0.05211 0.45528 0.06661 0.0
C925 C 0.03794 0.44032 0.10638 0.0
N926 N 0.0323 0.44965 0.14973 0.0
N927 N 0.05561 0.4739 0.08584 0.0
C928 C 0.04343 0.46989 0.13677 0.0
H929 H 0.05866 0.45271 0.0246 0.0
Co930 Co 0.07051 0.49917 0.04439 0.0
C931 C 0.09301 0.52358 0.16111 0.0
O932 O 0.11064 0.5253 0.14464 0.0
N933 N 0.08472 0.52443 1.00137 0.0
C934 C 0.10619 0.5558 0.9641 0.0
C935 C 0.10105 0.54299 0.01577 0.0
C936 C 0.08017 0.5265 0.94121 0.0
N937 N 0.09298 0.54527 0.91749 0.0
O938 O 0.04631 0.50121 0.04002 0.0
H939 H 0.10925 0.54709 0.05976 0.0
H940 H 0.06853 0.51403 0.91387 0.0
O941 O 0.07732 0.51347 0.12582 0.0
C942 C 0.03352 0.4903 0.99735 0.0
O943 O 0.03686 0.47748 0.96421 0.0
N944 N 0.09376 0.49602 0.04279 0.0
C945 C 0.11926 0.48029 0.01515 0.0
C946 C 0.11261 0.47971 0.07729 0.0
C947 C 0.09956 0.48757 0.09011 0.0
C948 C 0.10119 0.49748 0.98319 0.0
C949 C 0.11445 0.49035 0.96887 0.0
H950 H 0.09267 0.48518 0.13642 0.0
H951 H 0.09518 0.50206 0.94442 0.0
H952 H 0.04138 0.48133 0.16087 0.0
H953 H 0.03137 0.42386 0.10162 0.0
H954 H 0.11887 0.57142 0.96044 0.0
H955 H 0.11566 0.47143 0.11356 0.0
H956 H 0.11885 0.49042 0.9201 0.0
C957 C 0.52978 0.55438 0.05037 0.0
C958 C 0.55843 0.57472 0.08468 0.0
N959 N 0.55371 0.59071 0.14023 0.0
N960 N 0.51271 0.5617 0.0896 0.0
C961 C 0.52637 0.58346 0.14305 0.0
H962 H 0.52572 0.54224 0.01649 0.0
Co963 Co 0.48638 0.55295 0.05736 0.0
C964 C 0.46539 0.55748 0.17773 0.0
O965 O 0.4567 0.56719 0.15242 0.0
N966 N 0.46049 0.5443 0.02021 0.0
C967 C 0.42804 0.53268 0.99007 0.0
C968 C 0.44122 0.53809 0.04092 0.0
C969 C 0.45837 0.54213 0.95684 0.0
N970 N 0.43898 0.53505 0.93746 0.0
O971 O 0.47902 0.52512 0.06844 0.0
H972 H 0.43647 0.53653 0.08935 0.0
H973 H 0.47074 0.54508 0.92486 0.0
O974 O 0.47638 0.5525 0.14418 0.0
C975 C 0.48325 0.51825 0.01932 0.0
O976 O 0.49132 0.53056 0.97061 0.0
N977 N 0.49428 0.58003 0.03916 0.0
C978 C 0.50601 0.61703 0.97905 0.0
C979 C 0.49976 0.61429 0.04241 0.0
C980 C 0.49414 0.59553 0.07226 0.0
C981 C 0.50158 0.58317 0.97896 0.0
C982 C 0.50724 0.60142 0.94761 0.0
H983 H 0.49029 0.59387 0.12154 0.0
H984 H 0.50284 0.57118 0.95486 0.0
H985 H 0.51953 0.5898 0.17401 0.0
H986 H 0.57232 0.57384 0.08092 0.0
H987 H 0.41157 0.52634 0.99178 0.0
H988 H 0.49955 0.62658 0.06848 0.0
H989 H 0.5127 0.60342 0.89935 0.0
C990 C 0.04301 0.58555 0.55791 0.0
C991 C 0.02745 0.58475 0.59435 0.0
N992 N 0.02489 0.57293 0.6452 0.0
N993 N 0.05019 0.57427 0.58578 0.0
C994 C 0.0391 0.56706 0.6395 0.0
H995 H 0.04758 0.59242 0.51158 0.0
Co996 Co 0.06586 0.56454 0.54661 0.0
C997 C 0.09244 0.5704 0.66194 0.0
O998 O 0.10977 0.58482 0.63769 0.0
N999 N 0.08084 0.55388 0.50549 0.0
C1000 C 0.10327 0.54524 0.46818 0.0
C1001 C 0.09771 0.55262 0.51975 0.0
C1002 C 0.07644 0.54699 0.44551 0.0
N1003 N 0.08997 0.54212 0.42133 0.0
O1004 O 0.0436 0.53767 0.55514 0.0
H1005 H 0.10631 0.55774 0.56293 0.0
H1006 H 0.06445 0.54709 0.41774 0.0
O1007 O 0.07589 0.56217 0.62967 0.0
C1008 C 0.03116 0.53356 0.50949 0.0
O1009 O 0.03521 0.54772 0.46653 0.0
N1010 N 0.08703 0.59148 0.53191 0.0
C1011 C 0.11401 0.63115 0.49135 0.0
C1012 C 0.10811 0.62743 0.55485 0.0
C1013 C 0.09421 0.60732 0.57406 0.0
C1014 C 0.09212 0.59539 0.46962 0.0
C1015 C 0.10605 0.61494 0.4487 0.0
H1016 H 0.08842 0.60461 0.62158 0.0
H1017 H 0.08445 0.58367 0.43458 0.0
H1018 H 0.03984 0.55594 0.67025 0.0
H1019 H 0.01772 0.59106 0.58219 0.0
H1020 H 0.11675 0.54364 0.46394 0.0
H1021 H 0.11336 0.64 0.58815 0.0
H1022 H 0.10956 0.61761 0.39878 0.0
C1023 C 0.39641 0.44288 0.59274 0.0
C1024 C 0.39768 0.42791 0.6266 0.0
N1025 N 0.4144 0.43721 0.66357 0.0
N1026 N 0.4118 0.46168 0.60987 0.0
C1027 C 0.42252 0.45763 0.65344 0.0
H1028 H 0.38544 0.44007 0.55566 0.0
Co1029 Co 0.41896 0.48662 0.56741 0.0
C1030 C 0.41412 0.50937 0.68072 0.0
O1031 O 0.39905 0.51128 0.65675 0.0
N1032 N 0.42671 0.51096 0.52018 0.0
C1033 C 0.43292 0.54054 0.47588 0.0
C1034 C 0.42597 0.52839 0.52935 0.0
C1035 C 0.4342 0.51305 0.46072 0.0
N1036 N 0.43818 0.53083 0.4329 0.0
O1037 O 0.44679 0.49424 0.57213 0.0
H1038 H 0.42045 0.53215 0.57103 0.0
H1039 H 0.4363 0.50145 0.4373 0.0
O1040 O 0.42207 0.50049 0.64941 0.0
C1041 C 0.4523 0.48587 0.5305 0.0
O1042 O 0.43844 0.47195 0.49285 0.0
N1043 N 0.39122 0.47851 0.55908 0.0
C1044 C 0.34981 0.45955 0.53039 0.0
C1045 C 0.35608 0.46146 0.59328 0.0
C1046 C 0.37703 0.4709 0.60668 0.0
C1047 C 0.38508 0.47656 0.49776 0.0
C1048 C 0.36445 0.46745 0.48241 0.0
H1049 H 0.38171 0.47089 0.65467 0.0
H1050 H 0.39611 0.48092 0.46008 0.0
H1051 H 0.43664 0.46933 0.67483 0.0
H1052 H 0.3878 0.41145 0.62201 0.0
H1053 H 0.43384 0.55525 0.46881 0.0
H1054 H 0.34491 0.45493 0.63104 0.0
H1055 H 0.35989 0.46565 0.43325 0.0
C1056 C 0.5272 0.96997 0.51098 0.0
C1057 C 0.53995 0.98392 0.55481 0.0
N1058 N 0.53259 0.97705 0.61358 0.0
N1059 N 0.51114 0.95454 0.54071 0.0
C1060 C 0.51432 0.95961 0.60259 0.0
H1061 H 0.52926 0.97118 0.46035 0.0
Co1062 Co 0.49008 0.93237 0.49761 0.0
C1063 C 0.46864 0.90164 0.60014 0.0
O1064 O 0.46723 0.88653 0.56524 0.0
N1065 N 0.46882 0.91077 0.4507 0.0
C1066 C 0.43763 0.89074 0.40921 0.0
C1067 C 0.44861 0.8986 0.46414 0.0
C1068 C 0.4695 0.90999 0.38715 0.0
N1069 N 0.45092 0.89811 0.36095 0.0
O1070 O 0.47565 0.94691 0.49338 0.0
H1071 H 0.44171 0.89737 0.50941 0.0
H1072 H 0.48267 0.9204 0.35934 0.0
O1073 O 0.47669 0.91987 0.5778 0.0
C1074 C 0.48018 0.95782 0.4436 0.0
O1075 O 0.49195 0.95572 0.40202 0.0
N1076 N 0.50582 0.91935 0.49909 0.0
C1077 C 0.53338 0.90502 0.49346 0.0
C1078 C 0.52686 0.90822 0.55189 0.0
C1079 C 0.51336 0.91587 0.55362 0.0
C1080 C 0.51327 0.91755 0.4423 0.0
C1081 C 0.5267 0.90996 0.43827 0.0
H1082 H 0.50964 0.91976 0.5988 0.0
H1083 H 0.50981 0.92304 0.39994 0.0
H1084 H 0.50286 0.95089 0.63754 0.0
H1085 H 0.55342 -0.00156 0.54332 0.0
H1086 H 0.42107 0.88237 0.40462 0.0
H1087 H 0.53249 0.90525 0.59541 0.0
H1088 H 0.53225 0.90844 0.39253 0.0
C1089 C 0.20544 0.37635 0.17667 0.0
C1090 C 0.20789 0.36237 0.14274 0.0
N1091 N 0.2276 0.36734 0.14671 0.0
N1092 N 0.22347 0.3905 0.20284 0.0
C1093 C 0.23695 0.3846 0.18267 0.0
H1094 H 0.19077 0.37502 0.18657 0.0
Co1095 Co 0.22283 0.40986 0.26053 0.0
C1096 C 0.21494 0.42437 0.15467 0.0
O1097 O 0.23508 0.43475 0.15882 0.0
N1098 N 0.22111 0.42829 0.31789 0.0
C1099 C 0.23117 0.45581 0.37932 0.0
C1100 C 0.23423 0.44871 0.32233 0.0
C1101 C 0.21 0.42348 0.37209 0.0
N1102 N 0.21605 0.43976 0.41067 0.0
O1103 O 0.19957 0.38694 0.3013 0.0
H1104 H 0.24638 0.45752 0.28883 0.0
H1105 H 0.199 0.40803 0.38659 0.0
O1106 O 0.20507 0.41297 0.20149 0.0
C1107 C 0.19799 0.37002 0.31963 0.0
O1108 O 0.2133 0.36664 0.3094 0.0
N1109 N 0.24178 0.4087 0.31544 0.0
C1110 C 0.27459 0.41955 0.39633 0.0
C1111 C 0.27804 0.42434 0.33211 0.0
C1112 C 0.26132 0.41904 0.29257 0.0
C1113 C 0.23831 0.40352 0.37807 0.0
C1114 C 0.25456 0.40857 0.41915 0.0
H1115 H 0.264 0.42446 0.24431 0.0
H1116 H 0.22317 0.39675 0.39825 0.0
H1117 H 0.25285 0.3918 0.19698 0.0
H1118 H 0.19582 0.34872 0.12012 0.0
H1119 H 0.24038 0.47115 0.39832 0.0
H1120 H 0.29351 0.43334 0.31378 0.0
H1121 H 0.25158 0.40518 0.46901 0.0
C1122 C 0.65156 0.86862 0.34699 0.0
C1123 C 0.66529 0.89852 0.31627 0.0
N1124 N 0.64928 0.89782 0.24986 0.0
N1125 N 0.62904 0.85457 0.29421 0.0
C1126 C 0.62723 0.87185 0.23601 0.0
H1127 H 0.65492 0.86294 0.38945 0.0
Co1128 Co 0.60297 0.82938 0.33037 0.0
C1129 C 0.57255 0.8176 0.21527 0.0
O1130 O 0.55719 0.81879 0.24002 0.0
N1131 N 0.57937 0.81122 0.37452 0.0
C1132 C 0.55119 0.79803 0.43408 0.0
C1133 C 0.56051 0.80915 0.38024 0.0
C1134 C 0.58117 0.80142 0.4254 0.0
N1135 N 0.56437 0.79341 0.46246 0.0
O1136 O 0.6264 0.83811 0.28327 0.0
H1137 H 0.55487 0.81737 0.35287 0.0
H1138 H 0.59534 0.80197 0.43849 0.0
O1139 O 0.58838 0.82179 0.24845 0.0
C1140 C 0.62738 0.82146 0.27133 0.0
O1141 O 0.61076 0.80339 0.27804 0.0
N1142 N 0.59823 0.85057 0.35087 0.0
C1143 C 0.5842 0.87377 0.41091 0.0
C1144 C 0.58044 0.86941 0.34652 0.0
C1145 C 0.58774 0.85777 0.31695 0.0
C1146 C 0.6036 0.85632 0.41206 0.0
C1147 C 0.59671 0.86802 0.44332 0.0
H1148 H 0.58419 0.85391 0.26802 0.0
H1149 H 0.61192 0.85039 0.43797 0.0
H1150 H 0.61434 0.86847 0.20595 0.0
H1151 H 0.67989 0.91143 0.33039 0.0
H1152 H 0.53685 0.79541 0.4542 0.0
H1153 H 0.57098 0.87398 0.32039 0.0
H1154 H 0.59982 0.87125 0.49318 0.0
C1155 C 0.13182 0.74923 0.2964 0.0
C1156 C 0.11575 0.7476 0.26074 0.0
N1157 N 0.12357 0.75971 0.20953 0.0
N1158 N 0.14967 0.76228 0.2676 0.0
C1159 C 0.14413 0.76823 0.21437 0.0
H1160 H 0.13065 0.74251 0.34244 0.0
Co1161 Co 0.17584 0.77424 0.30341 0.0
C1162 C 0.19582 0.76943 0.1837 0.0
O1163 O 0.20032 0.75588 0.20622 0.0
N1164 N 0.20219 0.78703 0.34119 0.0
C1165 C 0.23341 0.79553 0.37675 0.0
C1166 C 0.21981 0.78717 0.32707 0.0
C1167 C 0.20569 0.79564 0.39922 0.0
N1168 N 0.22428 0.80065 0.42199 0.0
O1169 O 0.17784 0.80011 0.2947 0.0
H1170 H 0.22227 0.78025 0.28617 0.0
H1171 H 0.19416 0.79651 0.42724 0.0
O1172 O 0.18725 0.77692 0.21832 0.0
C1173 C 0.16853 0.80258 0.3411 0.0
O1174 O 0.16059 0.78832 0.385 0.0
N1175 N 0.17248 0.74824 0.31903 0.0
C1176 C 0.15851 0.70907 0.3665 0.0
C1177 C 0.15703 0.71192 0.30181 0.0
C1178 C 0.16401 0.73181 0.27891 0.0
C1179 C 0.17404 0.74535 0.38191 0.0
C1180 C 0.16774 0.72601 0.40632 0.0
H1181 H 0.16103 0.73374 0.23045 0.0
H1182 H 0.17837 0.75771 0.4149 0.0
H1183 H 0.15495 0.77991 0.1825 0.0
H1184 H 0.09962 0.73915 0.27319 0.0
H1185 H 0.24812 0.79631 0.38131 0.0
H1186 H 0.1492 0.69886 0.2705 0.0
H1187 H 0.16828 0.7241 0.45687 0.0
C1188 C 0.33615 0.12277 0.89711 0.0
C1189 C 0.34643 0.11204 0.87879 0.0
C1190 C 0.32452 0.08432 0.95197 0.0
C1191 C 0.31634 0.09637 0.97602 0.0
N1192 N 0.3188 0.12978 0.97995 0.0
N1193 N 0.35386 0.08501 0.90283 0.0
C1194 C 0.32356 0.11643 0.9514 0.0
C1195 C 0.34161 0.09347 0.91031 0.0
N1196 N 0.33745 0.13875 0.86304 0.0
N1197 N 0.31547 0.06393 0.96664 0.0
H1198 H 0.36735 0.09207 0.87634 0.0
H1199 H 0.35191 0.07239 0.92892 0.0
H1200 H 0.30213 0.0564 0.99373 0.0
H1201 H 0.31985 0.05413 0.94592 0.0
H1202 H 0.34478 0.14346 0.81942 0.0
H1203 H 0.34478 0.14346 0.81942 0.0
H1204 H 0.32384 0.14453 0.96218 0.0
H1205 H 0.31177 0.12695 0.02407 0.0
C1206 C 0.89821 0.24257 0.95541 0.0
C1207 C 0.88281 0.23028 0.91136 0.0
C1208 C 0.88815 0.2014 0.93622 0.0
C1209 C 0.9006 0.21248 0.98835 0.0
N1210 N 0.92791 0.24673 0.01164 0.0
N1211 N 0.86248 0.19756 0.86017 0.0
C1212 C 0.90864 0.2341 0.98895 0.0
C1213 C 0.87761 0.20955 0.90179 0.0
N1214 N 0.90285 0.26239 0.96517 0.0
N1215 N 0.88891 0.18477 0.91388 0.0
H1216 H 0.85459 0.20309 0.83384 0.0
H1217 H 0.85672 0.18179 0.85576 0.0
H1218 H 0.89921 0.18059 0.93204 0.0
H1219 H 0.88199 0.17739 0.87182 0.0
H1220 H 0.91261 0.27153 1.00111 0.0
H1221 H 0.89553 0.26897 0.9406 0.0
H1222 H 0.93519 0.26271 0.00945 0.0
H1223 H 0.93781 0.24114 0.02183 0.0
C1224 C 0.78512 0.68199 0.82721 0.0
C1225 C 0.78406 0.68799 0.89068 0.0
C1226 C 0.75097 0.65558 0.90509 0.0
C1227 C 0.75395 0.65065 0.84441 0.0
N1228 N 0.76859 0.65122 0.75325 0.0
N1229 N 0.76569 0.68001 0.99105 0.0
C1230 C 0.76982 0.66232 0.80747 0.0
C1231 C 0.76663 0.67481 0.93 0.0
N1232 N 0.80074 0.69482 0.78825 0.0
N1233 N 0.73385 0.64205 0.93756 0.0
H1234 H 0.77642 0.69386 0.01109 0.0
H1235 H 0.75423 0.67055 0.02258 0.0
H1236 H 0.7231 0.62806 0.91729 0.0
H1237 H 0.73005 0.64475 0.98235 0.0
H1238 H 0.80207 0.69117 0.74174 0.0
H1239 H 0.81173 0.70966 0.80213 0.0
H1240 H 0.78134 0.66006 0.72365 0.0
H1241 H 0.74218 0.61877 0.73916 0.0
C1242 C 0.11184 0.3292 0.57241 0.0
C1243 C 0.1041 0.34291 0.57516 0.0
C1244 C 0.07926 0.32252 0.49333 0.0
C1245 C 0.08981 0.31147 0.48324 0.0
N1246 N 0.12088 0.30994 0.50355 0.0
N1247 N 0.08233 0.35455 0.52953 0.0
C1248 C 0.10761 0.31659 0.5195 0.0
C1249 C 0.0883 0.34017 0.53298 0.0
N1250 N 0.12249 0.32706 0.62074 0.0
N1251 N 0.06029 0.31571 0.46776 0.0
H1252 H 0.08917 0.36795 0.5565 0.0
H1253 H 0.07205 0.35405 0.49562 0.0
H1254 H 0.05259 0.30204 0.44229 0.0
H1255 H 0.05136 0.32238 0.478 0.0
H1256 H 0.12399 0.33376 0.66494 0.0
H1257 H 0.12399 0.33376 0.66494 0.0
H1258 H 0.13375 0.31339 0.53103 0.0
H1259 H 0.12048 0.30345 0.45982 0.0
C1260 C 0.65078 0.78248 0.66708 0.0
C1261 C 0.63786 0.76106 0.67855 0.0
C1262 C 0.6575 0.75405 0.59998 0.0
C1263 C 0.66792 0.77499 0.58147 0.0
N1264 N 0.67061 0.80833 0.58888 0.0
N1265 N 0.62641 0.72629 0.64495 0.0
C1266 C 0.6636 0.78907 0.6128 0.0
C1267 C 0.64059 0.74675 0.64217 0.0
N1268 N 0.6514 0.79659 0.70884 0.0
N1269 N 0.66398 0.74119 0.57783 0.0
H1270 H 0.61302 0.7205 0.67175 0.0
H1271 H 0.62678 0.71544 0.61518 0.0
H1272 H 0.67683 0.74635 0.54871 0.0
H1273 H 0.65802 0.72614 0.59384 0.0
H1274 H 0.662 0.81226 0.70531 0.0
H1275 H 0.64303 0.79249 0.75062 0.0
H1276 H 0.66622 0.81845 0.60705 0.0
H1277 H 0.67883 0.81334 0.54682 0.0
C1278 C 0.23551 0.91506 0.63919 0.0
C1279 C 0.23153 0.8945 0.63827 0.0
C1280 C 0.20668 0.88675 0.55288 0.0
C1281 C 0.20766 0.90589 0.56338 0.0
N1282 N 0.22262 0.93824 0.61779 0.0
N1283 N 0.22477 0.86791 0.56324 0.0
C1284 C 0.22204 0.92006 0.60685 0.0
C1285 C 0.22018 0.88205 0.58646 0.0
N1286 N 0.25376 0.93029 0.66204 0.0
N1287 N 0.193 0.87308 0.51062 0.0
H1288 H 0.23746 0.86719 0.57965 0.0
H1289 H 0.21835 0.85945 0.52223 0.0
H1290 H 0.18358 0.87633 0.48283 0.0
H1291 H 0.19009 0.85804 0.5063 0.0
H1292 H 0.25825 0.94584 0.65962 0.0
H1293 H 0.26566 0.92751 0.67356 0.0
H1294 H 0.23148 0.94835 0.65345 0.0
H1295 H 0.21285 0.94225 0.59473 0.0
C1296 C 0.66619 0.88758 0.19588 0.0
C1297 C 0.66202 0.90283 0.19748 0.0
C1298 C 0.68977 0.9235 0.12664 0.0
C1299 C 0.69103 0.90544 0.11195 0.0
N1300 N 0.67927 0.86931 0.13642 0.0
N1301 N 0.67074 0.93759 0.18185 0.0
C1302 C 0.67934 0.88709 0.14897 0.0
C1303 C 0.67416 0.92182 0.16878 0.0
N1304 N 0.65675 0.87456 0.24751 0.0
N1305 N 0.70392 0.94203 0.10195 0.0
H1306 H 0.65921 0.93559 0.21349 0.0
H1307 H 0.67855 0.95195 0.16033 0.0
H1308 H 0.71647 0.94381 0.07574 0.0
H1309 H 0.7042 0.95576 0.1113 0.0
H1310 H 0.66091 0.86305 0.24881 0.0
H1311 H 0.6373 0.88078 0.31591 0.0
H1312 H 0.66987 0.8558 0.16098 0.0
H1313 H 0.68713 0.86757 0.09879 0.0
C1314 C 0.08372 0.75269 0.08968 0.0
C1315 C 0.08729 0.77305 0.08378 0.0
C1316 C 0.11287 0.78393 0.16847 0.0
C1317 C 0.11209 0.76466 0.16522 0.0
N1318 N 0.09763 0.73097 0.11955 0.0
N1319 N 0.09431 0.80196 0.14922 0.0
C1320 C 0.0977 0.7491 0.12494 0.0
C1321 C 0.09888 0.7872 0.13208 0.0
N1322 N 0.06536 0.73652 0.07126 0.0
N1323 N 0.12702 0.79921 0.20588 0.0
H1324 H 0.08161 0.80228 0.13068 0.0
H1325 H 0.10092 0.81167 0.18781 0.0
H1326 H 0.1373 0.79741 0.23411 0.0
H1327 H 0.12962 0.81418 0.20491 0.0
H1328 H 0.06133 0.72122 0.07836 0.0
H1329 H 0.05297 0.73852 0.05984 0.0
H1330 H 0.08872 0.7198 0.08632 0.0
H1331 H 0.10789 0.72803 0.14432 0.0
C1332 C 0.23246 0.33125 0.03867 0.0
C1333 C 0.23467 0.31922 0.08042 0.0
C1334 C 0.23699 0.34053 0.16835 0.0
C1335 C 0.23474 0.35389 0.12437 0.0
N1336 N 0.23119 0.36223 0.01626 0.0
N1337 N 0.2362 0.30762 0.18333 0.0
C1338 C 0.2331 0.34954 0.05818 0.0
C1339 C 0.23626 0.32227 0.14535 0.0
N1340 N 0.22586 0.32074 0.98133 0.0
N1341 N 0.23887 0.34487 0.23129 0.0
H1342 H 0.23558 0.29452 0.16401 0.0
H1343 H 0.23641 0.30817 0.23237 0.0
H1344 H 0.2393 0.35791 0.24957 0.0
H1345 H 0.24083 0.33603 0.26537 0.0
H1346 H 0.2242 0.32999 0.94709 0.0
H1347 H 0.21975 0.28792 0.97204 0.0
H1348 H 0.2301 0.3598 0.9677 0.0
H1349 H 0.23176 0.3758 0.03068 0.0
C1350 C 0.90136 0.67238 0.43293 0.0
C1351 C 0.90273 0.69089 0.41127 0.0
C1352 C 0.88136 0.67287 0.32079 0.0
C1353 C 0.88193 0.65492 0.33764 0.0
N1354 N 0.89365 0.63766 0.40694 0.0
N1355 N 0.89833 0.70987 0.32772 0.0
C1356 C 0.89236 0.65471 0.39302 0.0
C1357 C 0.89396 0.69144 0.35316 0.0
N1358 N 0.90802 0.67158 0.49219 0.0
N1359 N 0.86809 0.67204 0.2757 0.0
H1360 H 0.90771 0.72385 0.35035 0.0
H1361 H 0.8945 0.71127 0.28146 0.0
H1362 H 0.85782 0.65839 0.25358 0.0
H1363 H 0.86569 0.68429 0.26599 0.0
H1364 H 0.9058 0.65808 0.51318 0.0
H1365 H 0.91452 0.6843 0.52213 0.0
H1366 H 0.90266 0.63709 0.44333 0.0
H1367 H 0.88644 0.62436 0.37946 0.0
C1368 C 0.32709 0.20973 0.3753 0.0
C1369 C 0.3442 0.22973 0.38506 0.0
C1370 C 0.3244 0.23602 0.46491 0.0
C1371 C 0.30906 0.21492 0.46375 0.0
N1372 N 0.29044 0.18791 0.38881 0.0
N1373 N 0.35978 0.26143 0.44315 0.0
C1374 C 0.3088 0.20323 0.4109 0.0
C1375 C 0.34301 0.24269 0.43124 0.0
N1376 N 0.32818 0.19683 0.33224 0.0
N1377 N 0.31985 0.25018 0.48827 0.0
H1378 H 0.37371 0.26661 0.41959 0.0
H1379 H 0.36032 0.27077 0.48032 0.0
H1380 H 0.30475 0.24623 0.49871 0.0
H1381 H 0.33 0.26598 0.48626 0.0
H1382 H 0.31696 0.18137 0.32825 0.0
H1383 H 0.34095 0.20106 0.30387 0.0
H1384 H 0.2889 0.18034 0.34627 0.0
H1385 H 0.2765 0.18525 0.40771 0.0
C1386 C 0.74319 0.08594 0.47407 0.0
C1387 C 0.76389 0.09042 0.47749 0.0
C1388 C 0.77284 0.1161 0.39402 0.0
C1389 C 0.75333 0.11462 0.40033 0.0
N1390 N 0.71998 0.0985 0.44884 0.0
N1391 N 0.79345 0.10046 0.41096 0.0
C1392 C 0.73849 0.09957 0.44102 0.0
C1393 C 0.77738 0.10285 0.42894 0.0
N1394 N 0.72778 0.06724 0.49362 0.0
N1395 N 0.78745 0.12974 0.35407 0.0
H1396 H 0.7946 0.08786 0.42598 0.0
H1397 H 0.80382 0.10937 0.3757 0.0
H1398 H 0.78578 0.14039 0.32708 0.0
H1399 H 0.78578 0.14039 0.32708 0.0
H1400 H 0.71227 0.06247 0.48795 0.0
H1401 H 0.73065 0.05543 0.50561 0.0
H1402 H 0.70926 0.08904 0.48243 0.0
H1403 H 0.71622 0.10844 0.42563 0.0
C1404 C 0.02013 0.44534 0.25986 0.0
C1405 C 0.0158 0.44032 0.19517 0.0
C1406 C 0.97927 0.4182 0.22065 0.0
C1407 C 0.98339 0.4248 0.28416 0.0
N1408 N 0.00693 0.44819 0.36135 0.0
N1409 N 0.99062 0.42552 0.112 0.0
C1410 C 0.00364 0.43935 0.3031 0.0
C1411 C 0.99518 0.42764 0.17487 0.0
N1412 N 0.04005 0.45553 0.27995 0.0
N1413 N 0.96025 0.40256 0.20454 0.0
H1414 H 0.0017 0.43285 0.07709 0.0
H1415 H 0.97564 0.41823 0.09474 0.0
H1416 H 0.94845 0.39524 0.23752 0.0
H1417 H 0.95675 0.3957 0.16014 0.0
H1418 H 0.04421 0.45806 0.32738 0.0
H1419 H 0.05239 0.45974 0.24934 0.0
H1420 H 0.02112 0.46005 0.37644 0.0
H1421 H 0.99496 0.44509 0.39226 0.0
C1422 C 0.58308 0.58441 0.26981 0.0
C1423 C 0.56725 0.56391 0.28593 0.0
C1424 C 0.54585 0.56629 0.2043 0.0
C1425 C 0.55915 0.58648 0.19869 0.0
N1426 N 0.5923 0.61583 0.20932 0.0
N1427 N 0.53233 0.5356 0.26743 0.0
C1428 C 0.57856 0.59615 0.22624 0.0
C1429 C 0.54815 0.55457 0.25224 0.0
N1430 N 0.60244 0.59189 0.2932 0.0
N1431 N 0.53351 0.55933 0.1504 0.0
H1432 H 0.53277 0.52721 0.30592 0.0
H1433 H 0.51812 0.52921 0.24492 0.0
H1434 H 0.53838 0.58149 0.06971 0.0
H1435 H 0.52274 0.54344 0.15384 0.0
H1436 H 0.61466 0.60647 0.28324 0.0
H1437 H 0.60666 0.58283 0.31935 0.0
H1438 H 0.60693 0.62442 0.22854 0.0
H1439 H 0.58833 0.62367 0.17656 0.0
C1440 C 0.47477 0.02865 0.22545 0.0
C1441 C 0.46755 0.0182 0.28405 0.0
C1442 C 0.44878 0.98528 0.22774 0.0
C1443 C 0.45659 0.99553 0.16971 0.0
N1444 N 0.4786 0.02625 0.1121 0.0
N1445 N 0.44834 0.98581 0.34001 0.0
C1446 C 0.47015 0.01706 0.16835 0.0
C1447 C 0.4549 0.99645 0.2849 0.0
N1448 N 0.4849 0.04965 0.22415 0.0
N1449 N 0.43512 0.96465 0.22859 0.0
H1450 H 0.4524 0.99261 0.38449 0.0
H1451 H 0.4524 0.99261 0.38449 0.0
H1452 H 0.43002 0.95579 0.18766 0.0
H1453 H 0.42856 0.95661 0.27029 0.0
H1454 H 0.4892 0.05834 0.18292 0.0
H1455 H 0.48772 0.05857 0.26455 0.0
H1456 H 0.49006 0.04155 0.10727 0.0
H1457 H 0.47481 0.01798 0.07006 0.0
C1458 C 0.56252 0.00439 0.67307 0.0
C1459 C 0.54192 0.98788 0.67274 0.0
C1460 C 0.5368 -0.00094 0.77683 0.0
C1461 C 0.55609 0.01738 0.77116 0.0
N1462 N 0.58661 0.0385 0.71092 0.0
N1463 N 0.51718 0.96347 0.74573 0.0
C1464 C 0.56876 0.02027 0.71842 0.0
C1465 C 0.53073 0.98339 0.73022 0.0
N1466 N 0.57676 0.00344 0.6355 0.0
N1467 N 0.52449 0.99634 0.82746 0.0
H1468 H 0.51739 0.95138 0.72227 0.0
H1469 H 0.50918 0.95902 0.78829 0.0
H1470 H 0.529 0.0067 0.86485 0.0
H1471 H 0.50927 0.9845 0.82971 0.0
H1472 H 0.5924 0.01415 0.63746 0.0
H1473 H 0.57322 0.99031 0.60934 0.0
H1474 H 0.59554 0.0422 0.67018 0.0
H1475 H 0.59133 0.05062 0.74281 0.0
C1476 C 0.98732 0.57156 0.76533 0.0
C1477 C 0.97241 0.5503 0.76561 0.0
C1478 C 0.99091 0.54462 0.68028 0.0
C1479 C 0.0076 0.56495 0.68789 0.0
N1480 N 0.02219 0.59776 0.73941 0.0
N1481 N 0.9543 0.52267 0.69219 0.0
C1482 C 0.00588 0.57846 0.73079 0.0
C1483 C 0.97246 0.53836 0.71409 0.0
N1484 N 0.98238 0.58541 0.78887 0.0
N1485 N 0.99265 0.53106 0.64176 0.0
H1486 H 0.94023 0.51982 0.7106 0.0
H1487 H 0.9531 0.51478 0.65053 0.0
H1488 H 0.00582 0.53485 0.616 0.0
H1489 H 0.98158 0.51551 0.63984 0.0
H1490 H 0.99209 0.60127 0.78621 0.0
H1491 H 0.96725 0.58103 0.80059 0.0
H1492 H 0.02258 0.60764 0.7746 0.0
H1493 H 0.03597 0.60312 0.71485 0.0
C1494 C 0.44215 0.40926 0.71618 0.0
C1495 C 0.44215 0.41193 0.78238 0.0
C1496 C 0.42134 0.42845 0.76923 0.0
C1497 C 0.42264 0.42736 0.70308 0.0
N1498 N 0.4311 0.41381 0.61229 0.0
N1499 N 0.43171 0.42473 0.87206 0.0
C1500 C 0.43212 0.41685 0.67603 0.0
C1501 C 0.4317 0.42152 0.80887 0.0
N1502 N 0.45204 0.39966 0.69235 0.0
N1503 N 0.40964 0.43579 0.79473 0.0
H1504 H 0.43954 0.42093 0.90515 0.0
H1505 H 0.43954 0.42093 0.90515 0.0
H1506 H 0.40037 0.4393 0.76686 0.0
H1507 H 0.40835 0.43711 0.84335 0.0
H1508 H 0.45445 0.39848 0.64462 0.0
H1509 H 0.45826 0.39295 0.72143 0.0
H1510 H 0.43645 0.40523 0.58899 0.0
H1511 H 0.42427 0.4195 0.58182 0.0
C1512 C 0.30919 0.1641 0.1658 0.0
C1513 C 0.3094 0.14536 0.16938 0.0
C1514 C 0.34688 0.16414 0.17544 0.0
C1515 C 0.34656 0.18281 0.17859 0.0
N1516 N 0.32752 0.20084 0.18433 0.0
N1517 N 0.32809 0.12716 0.18382 0.0
C1518 C 0.32775 0.18292 0.17523 0.0
C1519 C 0.32813 0.14527 0.17631 0.0
N1520 N 0.29125 0.16394 0.15379 0.0
N1521 N 0.36506 0.16443 0.16784 0.0
H1522 H 0.31493 0.1128 0.18017 0.0
H1523 H 0.34095 0.12635 0.1977 0.0
H1524 H 0.3791 0.17797 0.16568 0.0
H1525 H 0.36615 0.15147 0.15729 0.0
H1526 H 0.29048 0.17705 0.14293 0.0
H1527 H 0.27713 0.15047 0.15051 0.0
H1528 H 0.31414 0.20157 0.18972 0.0
H1529 H 0.34072 0.21493 0.19292 0.0
C1530 C 0.82475 0.18429 0.19991 0.0
C1531 C 0.8051 0.16657 0.20828 0.0
C1532 C 0.82006 0.1443 0.19634 0.0
C1533 C 0.83945 0.16196 0.18552 0.0
N1534 N 0.85944 0.19803 0.16052 0.0
N1535 N 0.78329 0.1295 0.20154 0.0
C1536 C 0.84158 0.18178 0.18263 0.0
C1537 C 0.80249 0.14653 0.20169 0.0
N1538 N 0.8274 0.20353 0.20802 0.0
N1539 N 0.81852 0.12555 0.20564 0.0
H1540 H 0.76997 0.12983 0.21255 0.0
H1541 H 0.78048 0.11499 0.18794 0.0
H1542 H 0.83092 0.12308 0.20166 0.0
H1543 H 0.80527 0.11272 0.22232 0.0
H1544 H 0.84177 0.21678 0.2102 0.0
H1545 H 0.81537 0.20631 0.21642 0.0
H1546 H 0.86123 0.21243 0.15074 0.0
H1547 H 0.87186 0.19657 0.1456 0.0
C1548 C 0.8128 0.65487 0.16689 0.0
C1549 C 0.83065 0.65368 0.15355 0.0
C1550 C 0.84804 0.68924 0.11462 0.0
C1551 C 0.83026 0.69048 0.12984 0.0
N1552 N 0.79949 0.67725 0.19292 0.0
N1553 N 0.86736 0.67204 0.13345 0.0
C1554 C 0.81397 0.67423 0.16383 0.0
C1555 C 0.84893 0.67158 0.13332 0.0
N1556 N 0.79427 0.63753 0.17726 0.0
N1557 N 0.86369 0.70414 0.07958 0.0
H1558 H 0.86917 0.6599 0.14931 0.0
H1559 H 0.88136 0.68542 0.12574 0.0
H1560 H 0.86517 0.71825 0.06835 0.0
H1561 H 0.87504 0.70202 0.05869 0.0
H1562 H 0.78057 0.63778 0.18096 0.0
H1563 H 0.79196 0.62268 0.17469 0.0
H1564 H 0.78827 0.66636 0.22267 0.0
H1565 H 0.80028 0.69149 0.19327 0.0
C1566 C 0.16233 0.31581 0.35589 0.0
C1567 C 0.14429 0.31362 0.32706 0.0
C1568 C 0.15938 0.35104 0.32464 0.0
C1569 C 0.17828 0.35279 0.3427 0.0
N1570 N 0.19435 0.3389 0.40832 0.0
N1571 N 0.12449 0.32886 0.28919 0.0
C1572 C 0.17859 0.33576 0.36933 0.0
C1573 C 0.14237 0.33116 0.31344 0.0
N1574 N 0.16466 0.29909 0.3657 0.0
N1575 N 0.15736 0.36812 0.32311 0.0
H1576 H 0.11107 0.31473 0.28522 0.0
H1577 H 0.12306 0.34089 0.2704 0.0
H1578 H 0.16873 0.38229 0.34006 0.0
H1579 H 0.14365 0.36789 0.31393 0.0
H1580 H 0.17839 0.30023 0.38066 0.0
H1581 H 0.15363 0.28416 0.35322 0.0
H1582 H 0.19467 0.32718 0.43368 0.0
H1583 H 0.20584 0.3537 0.42082 0.0
C1584 C 0.67679 0.83276 0.34818 0.0
C1585 C 0.68626 0.82713 0.30051 0.0
C1586 C 0.65706 0.81858 0.23025 0.0
C1587 C 0.64716 0.82242 0.28054 0.0
N1588 N 0.64438 0.82506 0.39336 0.0
N1589 N 0.68224 0.80909 0.20137 0.0
C1590 C 0.65597 0.82689 0.34148 0.0
C1591 C 0.67562 0.81853 0.2426 0.0
N1592 N 0.68777 0.84467 0.39819 0.0
N1593 N 0.64877 0.81492 0.17106 0.0
H1594 H 0.69467 0.807 0.20998 0.0
H1595 H 0.6739 0.8011 0.16169 0.0
H1596 H 0.63486 0.81429 0.16124 0.0
H1597 H 0.65652 0.81426 0.13114 0.0
H1598 H 0.68145 0.85019 0.43133 0.0
H1599 H 0.70365 0.85125 0.40213 0.0
H1600 H 0.64991 0.82633 0.43926 0.0
H1601 H 0.62888 0.82067 0.39059 0.0
C1602 C 0.18147 0.85818 0.35658 0.0
C1603 C 0.16145 0.85541 0.36431 0.0
C1604 C 0.14619 0.81806 0.35533 0.0
C1605 C 0.16616 0.82085 0.34621 0.0
N1606 N 0.20301 0.84271 0.35045 0.0
N1607 N 0.12453 0.83323 0.36382 0.0
C1608 C 0.18388 0.84071 0.34923 0.0
C1609 C 0.14376 0.83548 0.36277 0.0
N1610 N 0.19824 0.87757 0.35671 0.0
N1611 N 0.12944 0.79865 0.35765 0.0
H1612 H 0.12175 0.84536 0.36994 0.0
H1613 H 0.11112 0.81959 0.35347 0.0
H1614 H 0.12981 0.78553 0.34392 0.0
H1615 H 0.11515 0.79528 0.375 0.0
H1616 H 0.21278 0.88102 0.34154 0.0
H1617 H 0.19765 0.89058 0.37055 0.0
H1618 H 0.21645 0.85632 0.36081 0.0
H1619 H 0.20557 0.83037 0.3459 0.0
C1620 C 0.67615 0.82177 0.88968 0.0
C1621 C 0.67785 0.83961 0.91794 0.0
C1622 C 0.64058 0.8228 0.93001 0.0
C1623 C 0.63871 0.80563 0.8965 0.0
N1624 N 0.6544 0.78588 0.86342 0.0
N1625 N 0.66264 0.8574 0.9688 0.0
C1626 C 0.65642 0.80421 0.88211 0.0
C1627 C 0.66032 0.84006 0.94012 0.0
N1628 N 0.69331 0.82202 0.86699 0.0
N1629 N 0.62357 0.82205 0.95548 0.0
H1630 H 0.67696 0.86947 0.98195 0.0
H1631 H 0.65067 0.86019 0.97827 0.0
H1632 H 0.60882 0.80993 0.9475 0.0
H1633 H 0.62414 0.83253 0.98851 0.0
H1634 H 0.69289 0.81074 0.83748 0.0
H1635 H 0.70812 0.83414 0.87525 0.0
H1636 H 0.66667 0.78324 0.8587 0.0
H1637 H 0.64022 0.77271 0.85716 0.0
C1638 C 0.13836 0.80903 0.85151 0.0
C1639 C 0.1353 0.82623 0.84834 0.0
C1640 C 0.17025 0.84787 0.80871 0.0
C1641 C 0.17394 0.83135 0.81796 0.0
N1642 N 0.16229 0.79627 0.848 0.0
N1643 N 0.14864 0.86252 0.82986 0.0
C1644 C 0.15811 0.81182 0.83834 0.0
C1645 C 0.15132 0.84581 0.8286 0.0
N1646 N 0.12242 0.79012 0.86817 0.0
N1647 N 0.18475 0.86533 0.77905 0.0
H1648 H 0.13489 0.86172 0.84248 0.0
H1649 H 0.16048 0.87756 0.82296 0.0
H1650 H 0.19863 0.86706 0.76305 0.0
H1651 H 0.18233 0.87721 0.76469 0.0
H1652 H 0.12268 0.77647 0.86343 0.0
H1653 H 0.10842 0.78782 0.8852 0.0
H1654 H 0.15237 0.78249 0.87044 0.0
H1655 H 0.17616 0.79736 0.83509 0.0
C1656 C 0.17693 0.33414 0.74732 0.0
C1657 C 0.18297 0.32767 0.80217 0.0
C1658 C 0.16056 0.33567 0.86601 0.0
C1659 C 0.15588 0.34369 0.81165 0.0
N1660 N 0.1645 0.35527 0.70361 0.0
N1661 N 0.18339 0.32615 0.91569 0.0
C1662 C 0.16566 0.34452 0.75346 0.0
C1663 C 0.17542 0.32932 0.86205 0.0
N1664 N 0.18077 0.32924 0.68858 0.0
N1665 N 0.15108 0.33443 0.92227 0.0
H1666 H 0.18053 0.32954 0.96093 0.0
H1667 H 0.19448 0.32197 0.91411 0.0
H1668 H 0.14296 0.34207 0.93109 0.0
H1669 H 0.15111 0.3256 0.96019 0.0
H1670 H 0.17457 0.3315 0.64742 0.0
H1671 H 0.18793 0.3206 0.68104 0.0
H1672 H 0.15591 0.36245 0.70495 0.0
H1673 H 0.17352 0.35856 0.66319 0.0
C1674 C 0.81844 0.66927 0.61861 0.0
C1675 C 0.81768 0.66091 0.67922 0.0
C1676 C 0.85263 0.68797 0.70161 0.0
C1677 C 0.85423 0.6947 0.63829 0.0
N1678 N 0.83759 0.69715 0.54451 0.0
N1679 N 0.83035 0.66566 0.78506 0.0
C1680 C 0.83662 0.6873 0.59974 0.0
C1681 C 0.83357 0.6716 0.72326 0.0
N1682 N 0.80253 0.65898 0.57748 0.0
N1683 N 0.86955 0.69662 0.7396 0.0
H1684 H 0.81621 0.65368 0.80073 0.0
H1685 H 0.84077 0.67355 0.82104 0.0
H1686 H 0.88315 0.70968 0.72613 0.0
H1687 H 0.87014 0.69094 0.78387 0.0
H1688 H 0.80309 0.66279 0.53001 0.0
H1689 H 0.78888 0.64593 0.59054 0.0
H1690 H 0.82486 0.69349 0.51641 0.0
H1691 H 0.85093 0.71031 0.52973 0.0
C1692 C 0.31282 0.14206 0.67512 0.0
C1693 C 0.31322 0.16031 0.65595 0.0
C1694 C 0.35053 0.17785 0.64269 0.0
C1695 C 0.35002 0.15926 0.65885 0.0
N1696 N 0.33057 0.1228 0.68186 0.0
N1697 N 0.33134 0.19441 0.61135 0.0
C1698 C 0.33112 0.14107 0.67208 0.0
C1699 C 0.33178 0.17792 0.63702 0.0
N1700 N 0.29518 0.12604 0.6993 0.0
N1701 N 0.36893 0.19544 0.63299 0.0
H1702 H 0.31789 0.19507 0.60697 0.0
H1703 H 0.3439 0.20674 0.58976 0.0
H1704 H 0.38294 0.19578 0.63196 0.0
H1705 H 0.3705 0.20998 0.6292 0.0
H1706 H 0.29453 0.11344 0.72208 0.0
H1707 H 0.28131 0.12597 0.70107 0.0
H1708 H 0.31705 0.10865 0.6837 0.0
H1709 H 0.34362 0.1214 0.68395 0.0
C1710 C 0.80756 0.16725 0.71564 0.0
C1711 C 0.82736 0.18511 0.71546 0.0
C1712 C 0.84295 0.16493 0.68052 0.0
C1713 C 0.82347 0.14691 0.68544 0.0
N1714 N 0.78699 0.13019 0.704 0.0
N1715 N 0.86423 0.20085 0.7073 0.0
C1716 C 0.8057 0.14789 0.70208 0.0
C1717 C 0.84513 0.18396 0.69994 0.0
N1718 N 0.79052 0.16894 0.72614 0.0
N1719 N 0.85937 0.16393 0.65711 0.0
H1720 H 0.8666 0.21504 0.72266 0.0
H1721 H 0.87785 0.20045 0.70442 0.0
H1722 H 0.85864 0.15025 0.6442 0.0
H1723 H 0.87333 0.1768 0.64527 0.0
H1724 H 0.77548 0.15693 0.72182 0.0
H1725 H 0.79115 0.1828 0.736 0.0
H1726 H 0.77379 0.12904 0.7237 0.0
H1727 H 0.78461 0.11619 0.68647 0.0
C1728 C 0.99509 0.47574 0.50226 0.0
C1729 C 0.97657 0.47507 0.48418 0.0
C1730 C 0.99343 0.51258 0.49079 0.0
C1731 C 0.01234 0.51335 0.50376 0.0
N1732 N 0.03205 0.49598 0.51038 0.0
N1733 N 0.95852 0.49287 0.45369 0.0
C1734 C 0.01342 0.49503 0.50704 0.0
C1735 C 0.97591 0.49349 0.47572 0.0
N1736 N 0.99532 0.45794 0.51414 0.0
N1737 N 0.99188 0.52992 0.49627 0.0
H1738 H 0.94465 0.47935 0.44752 0.0
H1739 H 0.95813 0.50579 0.43776 0.0
H1740 H 0.00408 0.54422 0.50925 0.0
H1741 H 0.97799 0.52983 0.49515 0.0
H1742 H 0.00745 0.45758 0.53659 0.0
H1743 H 0.98307 0.44335 0.50407 0.0
H1744 H 0.03394 0.48325 0.50475 0.0
H1745 H 0.04601 0.50968 0.51273 0.0
C1746 C 0.49786 0.47872 0.50798 0.0
C1747 C 0.51344 0.49909 0.49441 0.0
C1748 C 0.48917 0.51149 0.50786 0.0
C1749 C 0.47386 0.4912 0.52456 0.0
N1750 N 0.46489 0.45697 0.55652 0.0
N1751 N 0.52503 0.53535 0.48611 0.0
C1752 C 0.47855 0.47521 0.52893 0.0
C1753 C 0.50944 0.51565 0.49599 0.0
N1754 N 0.50139 0.46267 0.50056 0.0
N1755 N 0.48421 0.52658 0.50082 0.0
H1756 H 0.53967 0.5389 0.47171 0.0
H1757 H 0.52381 0.54834 0.4949 0.0
H1758 H 0.47013 0.5248 0.51419 0.0
H1759 H 0.49374 0.54069 0.47935 0.0
H1760 H 0.48975 0.44733 0.50197 0.0
H1761 H 0.5156 0.46451 0.48808 0.0
H1762 H 0.46838 0.44556 0.56784 0.0
H1763 H 0.45086 0.45424 0.57453 0.0
C1764 C 0.49374 0.9937 0.40791 0.0
C1765 C 0.4789 0.97694 0.44337 0.0
C1766 C 0.47689 0.00119 0.51561 0.0
C1767 C 0.49626 0.01655 0.49239 0.0
N1768 N 0.52413 0.02669 0.41852 0.0
N1769 N 0.45119 0.96468 0.51775 0.0
C1770 C 0.50477 0.01286 0.438 0.0
C1771 C 0.46853 0.98072 0.4927 0.0
N1772 N 0.49758 0.99119 0.3467 0.0
N1773 N 0.46704 0.00622 0.56016 0.0
H1774 H 0.44422 0.95011 0.49707 0.0
H1775 H 0.44375 0.96575 0.55773 0.0
H1776 H 0.47307 0.02126 0.57646 0.0
H1777 H 0.45247 0.99603 0.57755 0.0
H1778 H 0.50765 0.00351 0.31831 0.0
H1779 H 0.48869 0.97732 0.32304 0.0
H1780 H 0.53168 0.02323 0.38347 0.0
H1781 H 0.53312 0.04077 0.44097 0.0
C1782 C 0.47358 0.0064 0.92886 0.0
C1783 C 0.47325 0.98736 0.9254 0.0
C1784 C 0.50315 0.00118 0.99392 0.0
C1785 C 0.50693 0.02128 0.98143 0.0
N1786 N 0.49397 0.04314 0.94616 0.0
N1787 N 0.49047 0.96807 0.94637 0.0
C1788 C 0.49155 0.02394 0.95153 0.0
C1789 C 0.48862 0.98499 0.95636 0.0
N1790 N 0.45652 0.00751 0.91312 0.0
N1791 N 0.51296 0.9973 0.04153 0.0
H1792 H 0.48196 0.95727 0.91214 0.0
H1793 H 0.50249 0.96654 0.9649 0.0
H1794 H 0.52167 0.00818 0.07557 0.0
H1795 H 0.50953 0.98243 0.05328 0.0
H1796 H 0.45532 0.02059 0.91999 0.0
H1797 H 0.44274 0.99468 0.89941 0.0
H1798 H 0.48472 0.04649 0.91774 0.0
H1799 H 0.50555 0.05578 0.96999 0.0
C1800 C 0.01097 0.49795 0.92784 0.0
C1801 C 0.01459 0.49132 0.98694 0.0
C1802 C 0.98354 0.4893 0.03094 0.0
C1803 C 0.97999 0.49614 0.97225 0.0
N1804 N 0.99175 0.51036 0.86846 0.0
N1805 N 0.00122 0.47476 0.08687 0.0
C1806 C 0.99396 0.50116 0.92132 0.0
C1807 C 0.00011 0.48554 0.03655 0.0
N1808 N 0.02342 0.5006 0.87743 0.0
N1809 N 0.97134 0.4867 0.08199 0.0
H1810 H 0.01219 0.47028 0.08964 0.0
H1811 H 0.98994 0.46797 0.12148 0.0
H1812 H 0.95836 0.48819 0.08018 0.0
H1813 H 0.97495 0.48461 0.12782 0.0
H1814 H 0.0203 0.50302 0.8314 0.0
H1815 H 0.03618 0.49874 0.88003 0.0
H1816 H 0.00255 0.51663 0.83243 0.0
H1817 H 0.97981 0.51346 0.86269 0.0
C1818 C 0.48766 0.48909 0.06076 0.0
C1819 C 0.47986 0.49712 0.01463 0.0
C1820 C 0.47666 0.4712 0.93863 0.0
C1821 C 0.48418 0.46289 0.98459 0.0
N1822 N 0.49259 0.46109 0.09404 0.0
N1823 N 0.46038 0.49145 0.91917 0.0
C1824 C 0.48813 0.4708 0.04726 0.0
C1825 C 0.47227 0.48673 0.95656 0.0
N1826 N 0.49582 0.49944 0.11584 0.0
N1827 N 0.474 0.46462 0.87752 0.0
H1828 H 0.45634 0.50234 0.93231 0.0
H1829 H 0.4527 0.48306 0.87917 0.0
H1830 H 0.4762 0.45269 0.86257 0.0
H1831 H 0.47088 0.47188 0.84081 0.0
H1832 H 0.50458 0.49607 0.14633 0.0
H1833 H 0.49474 0.51204 0.13048 0.0
H1834 H 0.49275 0.4645 0.14175 0.0
H1835 H 0.49492 0.44876 0.08624 0.0
C1836 C 0.23763 0.08629 0.90716 0.0
C1837 C 0.23075 0.09592 0.95108 0.0
C1838 C 0.22297 0.11222 0.86321 0.0
C1839 C 0.23211 0.10462 0.82088 0.0
N1840 N 0.2505 0.08673 0.8017 0.0
N1841 N 0.22024 0.12109 0.97089 0.0
C1842 C 0.24012 0.09229 0.84267 0.0
C1843 C 0.22418 0.10962 0.92914 0.0
N1844 N 0.24088 0.07077 0.9263 0.0
N1845 N 0.21287 0.12169 0.84001 0.0
H1846 H 0.22149 0.12028 0.01957 0.0
H1847 H 0.21763 0.1329 0.9571 0.0
H1848 H 0.21173 0.12374 0.79179 0.0
H1849 H 0.20405 0.12575 0.86791 0.0
H1850 H 0.24401 0.06194 0.89524 0.0
H1851 H 0.23855 0.06531 0.97246 0.0
H1852 H 0.25881 0.07974 0.8159 0.0
H1853 H 0.25206 0.09058 0.75389 0.0
C1854 C 0.86411 0.12503 0.94279 0.0
C1855 C 0.87734 0.11868 0.97023 0.0
C1856 C 0.88074 0.10593 0.86648 0.0
C1857 C 0.87017 0.11504 0.83857 0.0
N1858 N 0.85364 0.13522 0.84757 0.0
N1859 N 0.88845 0.09365 0.96248 0.0
C1860 C 0.8624 0.12517 0.87611 0.0
C1861 C 0.88311 0.10652 0.93328 0.0
N1862 N 0.85141 0.12863 0.98003 0.0
N1863 N 0.88854 0.09675 0.82873 0.0
H1864 H 0.88659 0.0908 0.01087 0.0
H1865 H 0.89161 0.08345 0.93863 0.0
H1866 H 0.88627 0.09547 0.77999 0.0
H1867 H 0.89842 0.09178 0.84477 0.0
H1868 H 0.84061 0.13214 0.9623 0.0
H1869 H 0.84904 0.12462 0.02761 0.0
H1870 H 0.84912 0.14434 0.87188 0.0
H1871 H 0.85271 0.13603 0.79864 0.0
C1872 C 0.87859 0.75443 0.81193 0.0
C1873 C 0.88789 0.77343 0.77905 0.0
C1874 C 0.89169 0.79113 0.8796 0.0
C1875 C 0.88254 0.77188 0.91132 0.0
N1876 N 0.87952 0.73844 0.90935 0.0
N1877 N 0.909 0.81032 0.78504 0.0
C1878 C 0.87993 0.7545 0.87823 0.0
C1879 C 0.89623 0.79204 0.81389 0.0
N1880 N 0.86754 0.7363 0.78049 0.0
N1881 N 0.89588 0.80842 0.91241 0.0
H1882 H 0.91324 0.81131 0.73778 0.0
H1883 H 0.91688 0.82419 0.80931 0.0
H1884 H 0.89435 0.80829 0.96142 0.0
H1885 H 0.90029 0.82252 0.89096 0.0
H1886 H 0.85919 0.72233 0.80426 0.0
H1887 H 0.86472 0.73563 0.73211 0.0
H1888 H 0.87855 0.7258 0.88572 0.0
H1889 H 0.8829 0.73926 0.95737 0.0
C1890 C 0.09753 0.24615 0.60117 0.0
C1891 C 0.11047 0.24886 0.54901 0.0
C1892 C 0.14025 0.26289 0.61991 0.0
C1893 C 0.12752 0.2608 0.6725 0.0
N1894 N 0.09515 0.25616 0.70849 0.0
N1895 N 0.1448 0.2665 0.50653 0.0
C1896 C 0.10646 0.2542 0.66146 0.0
C1897 C 0.13205 0.25956 0.55766 0.0
N1898 N 0.07671 0.23566 0.59343 0.0
N1899 N 0.1596 0.26624 0.62898 0.0
H1900 H 0.13933 0.26459 0.46044 0.0
H1901 H 0.16064 0.27613 0.51039 0.0
H1902 H 0.16547 0.26666 0.67338 0.0
H1903 H 0.16879 0.26599 0.59256 0.0
H1904 H 0.0664 0.23115 0.63097 0.0
H1905 H 0.06976 0.23041 0.54954 0.0
H1906 H 0.08017 0.25319 0.70232 0.0
H1907 H 0.10161 0.2629 0.7518 0.0
C1908 C 0.75139 0.87564 0.67526 0.0
C1909 C 0.7488 0.8613 0.72321 0.0
C1910 C 0.74337 0.83577 0.64202 0.0
C1911 C 0.74464 0.84965 0.59361 0.0
N1912 N 0.74682 0.88174 0.56516 0.0
N1913 N 0.73796 0.82659 0.75316 0.0
C1914 C 0.74749 0.8692 0.61068 0.0
C1915 C 0.74351 0.84103 0.7067 0.0
N1916 N 0.75872 0.89571 0.69131 0.0
N1917 N 0.74252 0.81768 0.62662 0.0
H1918 H 0.7379 0.83006 0.80081 0.0
H1919 H 0.73164 0.81094 0.74426 0.0
H1920 H 0.74117 0.81233 0.58056 0.0
H1921 H 0.74434 0.80842 0.65956 0.0
H1922 H 0.76282 0.90748 0.65858 0.0
H1923 H 0.76254 0.90091 0.73761 0.0
H1924 H 0.74678 0.89529 0.57508 0.0
H1925 H 0.74471 0.87779 0.51748 0.0
C1926 C 0.08889 0.86056 0.6661 0.0
C1927 C 0.09986 0.87442 0.71539 0.0
C1928 C 0.12162 0.90046 0.63763 0.0
C1929 C 0.11191 0.88576 0.58876 0.0
N1930 N 0.08993 0.85031 0.55888 0.0
N1931 N 0.12852 0.90634 0.75 0.0
C1932 C 0.09656 0.86535 0.60359 0.0
C1933 C 0.11671 0.89413 0.70171 0.0
N1934 N 0.07085 0.84302 0.67907 0.0
N1935 N 0.13549 0.92042 0.62283 0.0
H1936 H 0.12528 0.90195 0.79721 0.0
H1937 H 0.14232 0.92 0.74324 0.0
H1938 H 0.14009 0.92542 0.57665 0.0
H1939 H 0.14146 0.93227 0.65584 0.0
H1940 H 0.06116 0.83316 0.64421 0.0
H1941 H 0.06453 0.83952 0.72431 0.0
H1942 H 0.08 0.83481 0.56866 0.0
H1943 H 0.09631 0.85298 0.51398 0.0
C1944 C 0.77334 0.8938 0.22169 0.0
C1945 C 0.7676 0.87299 0.23219 0.0
C1946 C 0.75902 0.86552 0.11897 0.0
C1947 C 0.76573 0.88662 0.10779 0.0
N1948 N 0.78017 0.92125 0.14751 0.0
N1949 N 0.75571 0.83892 0.19137 0.0
C1950 C 0.77319 0.90088 0.15896 0.0
C1951 C 0.76061 0.85883 0.18088 0.0
N1952 N 0.77856 0.90665 0.2725 0.0
N1953 N 0.75091 0.85177 0.0703 0.0
H1954 H 0.75463 0.83285 0.23625 0.0
H1955 H 0.75327 0.82838 0.15588 0.0
H1956 H 0.75106 0.85613 0.02352 0.0
H1957 H 0.74319 0.83588 0.07599 0.0
H1958 H 0.78105 0.92156 0.27065 0.0
H1959 H 0.7794 0.90189 0.31815 0.0
H1960 H 0.78783 0.93287 0.18051 0.0
H1961 H 0.77906 0.92686 0.10363 0.0
C1962 C 0.11922 0.86161 0.17829 0.0
C1963 C 0.10709 0.86905 0.20661 0.0
C1964 C 0.09037 0.86653 0.10513 0.0
C1965 C 0.10373 0.86078 0.07581 0.0
N1966 N 0.13204 0.85427 0.08255 0.0
N1967 N 0.08387 0.88206 0.19613 0.0
C1968 C 0.11864 0.85891 0.1118 0.0
C1969 C 0.09335 0.87239 0.16977 0.0
N1970 N 0.13053 0.85618 0.21564 0.0
N1971 N 0.07468 0.86614 0.07151 0.0
H1972 H 0.08615 0.88691 0.24303 0.0
H1973 H 0.07527 0.88691 0.1704 0.0
H1974 H 0.07236 0.86246 0.02375 0.0
H1975 H 0.06309 0.86796 0.0919 0.0
H1976 H 0.13868 0.8493 0.19923 0.0
H1977 H 0.13044 0.85703 0.2645 0.0
H1978 H 0.14481 0.85512 0.10459 0.0
H1979 H 0.13118 0.85063 0.03478 0.0
C1980 C 0.1298 0.22624 0.06793 0.0
C1981 C 0.14246 0.24634 0.04249 0.0
C1982 C 0.14376 0.26115 0.14673 0.0
C1983 C 0.13269 0.2412 0.17307 0.0
N1984 N 0.11551 0.20461 0.1611 0.0
N1985 N 0.15044 0.28172 0.05296 0.0
C1986 C 0.12582 0.22368 0.13421 0.0
C1987 C 0.1464 0.26359 0.08032 0.0
N1988 N 0.11973 0.20995 0.02781 0.0
N1989 N 0.15209 0.27785 0.18572 0.0
H1990 H 0.14868 0.28316 0.00485 0.0
H1991 H 0.15212 0.29429 0.07864 0.0
H1992 H 0.15064 0.27645 0.23469 0.0
H1993 H 0.1621 0.29275 0.17001 0.0
H1994 H 0.10929 0.19507 0.04229 0.0
H1995 H 0.11961 0.21186 0.97909 0.0
H1996 H 0.11187 0.19108 0.1374 0.0
H1997 H 0.11181 0.20245 0.20899 0.0
C1998 C 0.87764 0.74813 0.35458 0.0
C1999 C 0.8869 0.76466 0.39795 0.0
C2000 C 0.88046 0.78586 0.32298 0.0
C2001 C 0.87534 0.77074 0.27556 0.0
N2002 N 0.87429 0.7393 0.24416 0.0
N2003 N 0.89807 0.80017 0.42179 0.0
C2004 C 0.87527 0.75229 0.29081 0.0
C2005 C 0.88862 0.78385 0.38159 0.0
N2006 N 0.87096 0.72849 0.37388 0.0
N2007 N 0.8767 0.80164 0.31313 0.0
H2008 H 0.90315 0.79901 0.46655 0.0
H2009 H 0.90181 0.81506 0.40921 0.0
H2010 H 0.86974 0.8029 0.27213 0.0
H2011 H 0.87842 0.81213 0.34811 0.0
H2012 H 0.86279 0.71578 0.3446 0.0
H2013 H 0.87094 0.72478 0.42107 0.0
H2014 H 0.87499 0.72603 0.2529 0.0
H2015 H 0.87539 0.74306 0.19642 0.0
C2016 C 0.21241 0.10781 0.35141 0.0
C2017 C 0.23143 0.11604 0.31973 0.0
C2018 C 0.2497 0.12777 0.42011 0.0
C2019 C 0.2309 0.12271 0.45072 0.0
N2020 N 0.19444 0.09867 0.45161 0.0
N2021 N 0.2683 0.13588 0.32128 0.0
C2022 C 0.21212 0.11014 0.41807 0.0
C2023 C 0.25012 0.12661 0.35343 0.0
N2024 N 0.19467 0.09796 0.31722 0.0
N2025 N 0.26657 0.13147 0.45452 0.0
H2026 H 0.26902 0.13586 0.27218 0.0
H2027 H 0.28245 0.1452 0.34274 0.0
H2028 H 0.26583 0.12829 0.50259 0.0
H2029 H 0.2803 0.13408 0.43432 0.0
H2030 H 0.1802 0.09344 0.33569 0.0
H2031 H 0.19464 0.09554 0.26871 0.0
H2032 H 0.18044 0.08824 0.43136 0.0
H2033 H 0.1944 0.09732 0.50059 0.0
C2034 C 0.86893 0.10482 0.45049 0.0
C2035 C 0.84867 0.09149 0.4731 0.0
C2036 C 0.83558 0.08648 0.36434 0.0
C2037 C 0.85585 0.09895 0.34223 0.0
N2038 N 0.89215 0.11564 0.36104 0.0
N2039 N 0.81348 0.0659 0.44992 0.0
C2040 C 0.87263 0.10676 0.38445 0.0
C2041 C 0.83217 0.08122 0.42951 0.0
N2042 N 0.88445 0.11652 0.49158 0.0
N2043 N 0.81961 0.08014 0.32301 0.0
H2044 H 0.81038 0.06135 0.49694 0.0
H2045 H 0.80155 0.05649 0.41959 0.0
H2046 H 0.82185 0.08371 0.27501 0.0
H2047 H 0.80425 0.07258 0.33668 0.0
H2048 H 0.89887 0.12816 0.47705 0.0
H2049 H 0.88254 0.11599 0.5403 0.0
H2050 H 0.90504 0.11993 0.38906 0.0
H2051 H 0.89519 0.11675 0.31275 0.0
C2052 C 0.90906 0.42011 0.20142 0.0
C2053 C 0.90026 0.42795 0.24477 0.0
C2054 C 0.89031 0.44236 0.15702 0.0
C2055 C 0.90134 0.43675 0.11522 0.0
N2056 N 0.92344 0.42279 0.09705 0.0
N2057 N 0.8845 0.44862 0.26501 0.0
C2058 C 0.91136 0.42632 0.13728 0.0
C2059 C 0.89131 0.43958 0.22291 0.0
N2060 N 0.91415 0.40586 0.22069 0.0
N2061 N 0.87858 0.44999 0.13321 0.0
H2062 H 0.8849 0.44695 0.3137 0.0
H2063 H 0.87995 0.45913 0.25203 0.0
H2064 H 0.87748 0.45198 0.08495 0.0
H2065 H 0.86856 0.45256 0.16042 0.0
H2066 H 0.91864 0.39809 0.18961 0.0
H2067 H 0.91188 0.40022 0.26673 0.0
H2068 H 0.93302 0.41729 0.11188 0.0
H2069 H 0.92501 0.42689 0.04944 0.0
C2070 C 0.56253 0.45702 0.22517 0.0
C2071 C 0.55898 0.47255 0.25091 0.0
C2072 C 0.5471 0.47698 0.14744 0.0
C2073 C 0.55162 0.46243 0.12139 0.0
N2074 N 0.56006 0.43586 0.13465 0.0
N2075 N 0.53768 0.48831 0.24136 0.0
C2076 C 0.55833 0.45163 0.16017 0.0
C2077 C 0.54829 0.48002 0.21373 0.0
N2078 N 0.56918 0.44689 0.2635 0.0
N2079 N 0.5417 0.48799 0.10849 0.0
H2080 H 0.53469 0.4874 0.28948 0.0
H2081 H 0.52883 0.49293 0.21599 0.0
H2082 H 0.54015 0.48564 0.05979 0.0
H2083 H 0.54046 0.50051 0.12382 0.0
H2084 H 0.57498 0.43773 0.24733 0.0
H2085 H 0.56837 0.44723 0.31252 0.0
H2086 H 0.56313 0.42591 0.16038 0.0
H2087 H 0.55749 0.43207 0.08689 0.0
C2088 C 0.54018 0.07368 0.2075 0.0
C2089 C 0.54785 0.0925 0.17448 0.0
C2090 C 0.55266 0.11053 0.27485 0.0
C2091 C 0.54438 0.09138 0.30707 0.0
N2092 N 0.54243 0.05847 0.3049 0.0
N2093 N 0.56639 0.12943 0.17675 0.0
C2094 C 0.54184 0.074 0.27384 0.0
C2095 C 0.55565 0.1112 0.20824 0.0
N2096 N 0.53064 0.05543 0.17587 0.0
N2097 N 0.55776 0.12797 0.30828 0.0
H2098 H 0.56894 0.13015 0.12818 0.0
H2099 H 0.57405 0.14368 0.19896 0.0
H2100 H 0.55805 0.1282 0.35755 0.0
H2101 H 0.56148 0.14199 0.28754 0.0
H2102 H 0.52339 0.04127 0.19902 0.0
H2103 H 0.52797 0.05457 0.12741 0.0
H2104 H 0.54162 0.04582 0.28182 0.0
H2105 H 0.54731 0.06024 0.35159 0.0
C2106 C 0.75921 0.57471 0.88946 0.0
C2107 C 0.77684 0.57998 0.85138 0.0
C2108 C 0.79373 0.57589 0.94386 0.0
C2109 C 0.7783 0.57497 0.98364 0.0
N2110 N 0.74692 0.57584 0.99473 0.0
N2111 N 0.81366 0.59273 0.85219 0.0
C2112 C 0.7611 0.57502 0.95664 0.0
C2113 C 0.79493 0.58254 0.88115 0.0
N2114 N 0.74057 0.56853 0.86225 0.0
N2115 N 0.80713 0.57015 0.96588 0.0
H2116 H 0.81617 0.6009 0.81023 0.0
H2117 H 0.82717 0.59568 0.87493 0.0
H2118 H 0.80515 0.56332 0.01013 0.0
H2119 H 0.81809 0.56957 0.93709 0.0
H2120 H 0.72709 0.56315 0.88832 0.0
H2121 H 0.73817 0.56645 0.81381 0.0
H2122 H 0.73511 0.57792 0.97738 0.0
H2123 H 0.74803 0.57608 0.04382 0.0
C2124 C 0.4438 0.21759 0.91789 0.0
C2125 C 0.42566 0.20291 0.88631 0.0
C2126 C 0.4053 0.19973 0.98013 0.0
C2127 C 0.42369 0.21179 0.01427 0.0
N2128 N 0.46027 0.23347 0.01738 0.0
N2129 N 0.38926 0.19076 0.87749 0.0
C2130 C 0.44291 0.22134 0.98333 0.0
C2131 C 0.4063 0.19704 0.91421 0.0
N2132 N 0.46139 0.22899 0.8839 0.0
N2133 N 0.38692 0.19033 0.01118 0.0
H2134 H 0.39 0.19208 0.82854 0.0
H2135 H 0.37502 0.18744 0.89532 0.0
H2136 H 0.38562 0.1925 0.05914 0.0
H2137 H 0.37326 0.17928 0.99041 0.0
H2138 H 0.47493 0.24085 0.90267 0.0
H2139 H 0.46164 0.22819 0.83477 0.0
H2140 H 0.4751 0.23933 0.99993 0.0
H2141 H 0.45975 0.23691 0.06484 0.0
C2142 C 0.78181 0.23056 0.97272 0.0
C2143 C 0.8025 0.23921 0.95243 0.0
C2144 C 0.81364 0.23999 0.06156 0.0
C2145 C 0.79317 0.2321 0.08193 0.0
N2146 N 0.7582 0.22268 0.06041 0.0
N2147 N 0.83861 0.25677 0.97816 0.0
C2148 C 0.77737 0.22828 0.03841 0.0
C2149 C 0.81861 0.24518 0.997 0.0
N2150 N 0.76638 0.22395 0.92915 0.0
N2151 N 0.82822 0.24216 0.10415 0.0
H2152 H 0.8428 0.26167 0.93169 0.0
H2153 H 0.85097 0.26314 0.0093 0.0
H2154 H 0.82507 0.23936 0.15224 0.0
H2155 H 0.84295 0.2455 0.09143 0.0
H2156 H 0.75084 0.21542 0.94041 0.0
H2157 H 0.76907 0.22586 0.88072 0.0
H2158 H 0.74634 0.2215 0.03217 0.0
H2159 H 0.75456 0.22074 0.10831 0.0
C2160 C 0.43279 0.20719 0.40209 0.0
C2161 C 0.42957 0.22388 0.38735 0.0
C2162 C 0.42637 0.22896 0.50058 0.0
C2163 C 0.43105 0.21335 0.51486 0.0
N2164 N 0.44212 0.18996 0.48137 0.0
N2165 N 0.42685 0.25297 0.4232 0.0
C2166 C 0.43525 0.20316 0.46612 0.0
C2167 C 0.4273 0.23541 0.43683 0.0
N2168 N 0.43253 0.19454 0.35536 0.0
N2169 N 0.4204 0.23712 0.54803 0.0
H2170 H 0.42766 0.25836 0.3774 0.0
H2171 H 0.42748 0.26319 0.45747 0.0
H2172 H 0.41967 0.23268 0.59507 0.0
H2173 H 0.41465 0.24699 0.54041 0.0
H2174 H 0.43215 0.18071 0.36402 0.0
H2175 H 0.43099 0.19689 0.30782 0.0
H2176 H 0.44751 0.18354 0.44827 0.0
H2177 H 0.44416 0.18684 0.52796 0.0
C2178 C 0.75839 0.18699 0.49487 0.0
C2179 C 0.76371 0.2035 0.4522 0.0
C2180 C 0.77844 0.22792 0.54031 0.0
C2181 C 0.77517 0.21157 0.58084 0.0
N2182 N 0.76558 0.17609 0.59426 0.0
N2183 N 0.781 0.2401 0.43301 0.0
C2184 C 0.76612 0.19124 0.55742 0.0
C2185 C 0.7743 0.22412 0.47459 0.0
N2186 N 0.74508 0.16724 0.47682 0.0
N2187 N 0.78494 0.24697 0.56527 0.0
H2188 H 0.77804 0.23799 0.38489 0.0
H2189 H 0.79081 0.25539 0.44541 0.0
H2190 H 0.78775 0.25001 0.61338 0.0
H2191 H 0.78583 0.25922 0.53964 0.0
H2192 H 0.73909 0.15479 0.5078 0.0
H2193 H 0.73832 0.16356 0.43242 0.0
H2194 H 0.76132 0.16145 0.57745 0.0
H2195 H 0.77125 0.17876 0.64011 0.0
C2196 C 0.77371 0.56941 0.43691 0.0
C2197 C 0.78406 0.56532 0.4856 0.0
C2198 C 0.80516 0.56035 0.40734 0.0
C2199 C 0.79622 0.56648 0.35881 0.0
N2200 N 0.77274 0.57798 0.32713 0.0
N2201 N 0.81035 0.55847 0.52001 0.0
C2202 C 0.78069 0.57135 0.37355 0.0
C2203 C 0.7999 0.56107 0.47149 0.0
N2204 N 0.75683 0.57092 0.4516 0.0
N2205 N 0.81868 0.55386 0.39226 0.0
H2206 H 0.80633 0.55844 0.56718 0.0
H2207 H 0.82364 0.55761 0.51418 0.0
H2208 H 0.82374 0.55399 0.34648 0.0
H2209 H 0.82397 0.5471 0.42444 0.0
H2210 H 0.74714 0.57184 0.4183 0.0
H2211 H 0.75151 0.56955 0.4977 0.0
H2212 H 0.76332 0.58418 0.33586 0.0
H2213 H 0.77635 0.57831 0.27953 0.0
C2214 C 0.54838 0.10643 0.71638 0.0
C2215 C 0.56123 0.1101 0.66331 0.0
C2216 C 0.58849 0.11282 0.73283 0.0
C2217 C 0.57429 0.10554 0.78383 0.0
N2218 N 0.54649 0.10822 0.82996 0.0
N2219 N 0.59357 0.11746 0.61936 0.0
C2220 C 0.55584 0.10613 0.77764 0.0
C2221 C 0.58147 0.11384 0.67125 0.0
N2222 N 0.52872 0.10232 0.7078 0.0
N2223 N 0.60887 0.12026 0.7444 0.0
H2224 H 0.58885 0.11883 0.57418 0.0
H2225 H 0.60766 0.11797 0.6205 0.0
H2226 H 0.61465 0.12225 0.79021 0.0
H2227 H 0.62026 0.127 0.71012 0.0
H2228 H 0.51781 0.09724 0.74377 0.0
H2229 H 0.52298 0.10257 0.66337 0.0
H2230 H 0.53358 0.10993 0.82827 0.0
H2231 H 0.55372 0.11169 0.87381 0.0
C2232 C 0.88198 0.4416 0.65015 0.0
C2233 C 0.90095 0.45063 0.61788 0.0
C2234 C 0.91938 0.46372 0.71773 0.0
C2235 C 0.90034 0.45753 0.74883 0.0
N2236 N 0.86446 0.43154 0.75086 0.0
N2237 N 0.93767 0.47158 0.61809 0.0
C2238 C 0.88176 0.44393 0.71677 0.0
C2239 C 0.91965 0.46205 0.651 0.0
N2240 N 0.86419 0.4309 0.61664 0.0
N2241 N 0.93675 0.46903 0.75184 0.0
H2242 H 0.93822 0.47097 0.56905 0.0
H2243 H 0.95183 0.48148 0.63849 0.0
H2244 H 0.93648 0.4663 0.80007 0.0
H2245 H 0.9508 0.47269 0.73166 0.0
H2246 H 0.84967 0.42581 0.63568 0.0
H2247 H 0.86408 0.42835 0.56821 0.0
H2248 H 0.85075 0.4203 0.73099 0.0
H2249 H 0.86468 0.43035 0.79985 0.0
C2250 C 0.5625 0.45741 0.66292 0.0
C2251 C 0.54636 0.44992 0.61831 0.0
C2252 C 0.52193 0.42806 0.69952 0.0
C2253 C 0.53758 0.43728 0.746 0.0
N2254 N 0.57283 0.46156 0.77263 0.0
N2255 N 0.51041 0.42987 0.59411 0.0
C2256 C 0.55794 0.45214 0.72783 0.0
C2257 C 0.52599 0.43566 0.63659 0.0
N2258 N 0.58232 0.46898 0.6424 0.0
N2259 N 0.50351 0.41123 0.71459 0.0
H2260 H 0.51298 0.4347 0.54724 0.0
H2261 H 0.49492 0.42151 0.60635 0.0
H2262 H 0.50004 0.40489 0.75972 0.0
H2263 H 0.49255 0.40229 0.68101 0.0
H2264 H 0.5951 0.47339 0.671 0.0
H2265 H 0.58605 0.47274 0.59498 0.0
H2266 H 0.58709 0.47445 0.76377 0.0
H2267 H 0.57062 0.45715 0.81979 0.0
C2268 C 0.57008 0.80042 0.57681 0.0
C2269 C 0.56304 0.78618 0.52626 0.0
C2270 C 0.55286 0.75762 0.6005 0.0
C2271 C 0.56075 0.77192 0.65147 0.0
N2272 N 0.57835 0.80713 0.68807 0.0
N2273 N 0.55004 0.75207 0.48682 0.0
C2274 C 0.56987 0.79341 0.63953 0.0
C2275 C 0.55502 0.765 0.53738 0.0
N2276 N 0.57646 0.82061 0.56455 0.0
N2277 N 0.54327 0.73696 0.61229 0.0
H2278 H 0.55102 0.75714 0.4404 0.0
H2279 H 0.54621 0.73674 0.49003 0.0
H2280 H 0.54266 0.73077 0.65669 0.0
H2281 H 0.535 0.72573 0.57867 0.0
H2282 H 0.57968 0.83163 0.59915 0.0
H2283 H 0.57738 0.82623 0.51896 0.0
H2284 H 0.58745 0.82294 0.68182 0.0
H2285 H 0.57716 0.80277 0.73523 0.0
C2286 C 0.22349 0.78967 0.53214 0.0
C2287 C 0.23052 0.80563 0.48677 0.0
C2288 C 0.24761 0.83133 0.56972 0.0
C2289 C 0.23891 0.81551 0.61602 0.0
N2290 N 0.21635 0.77982 0.64219 0.0
N2291 N 0.24695 0.84147 0.46119 0.0
C2292 C 0.22628 0.79469 0.59746 0.0
C2293 C 0.242 0.82643 0.50528 0.0
N2294 N 0.21436 0.76971 0.51233 0.0
N2295 N 0.26163 0.85094 0.58705 0.0
H2296 H 0.24341 0.83817 0.41346 0.0
H2297 H 0.25324 0.85697 0.47233 0.0
H2298 H 0.26555 0.85531 0.63382 0.0
H2299 H 0.27027 0.86261 0.55489 0.0
H2300 H 0.21062 0.75734 0.54228 0.0
H2301 H 0.21207 0.76566 0.46476 0.0
H2302 H 0.20524 0.76474 0.63177 0.0
H2303 H 0.21798 0.78293 0.69036 0.0
C2304 C 0.19082 0.43559 0.49271 0.0
C2305 C 0.21041 0.43868 0.47661 0.0
C2306 C 0.21783 0.43718 0.58917 0.0
C2307 C 0.19746 0.43229 0.60513 0.0
N2308 N 0.1639 0.42536 0.5711 0.0
N2309 N 0.24147 0.43937 0.50738 0.0
C2310 C 0.18375 0.43106 0.55652 0.0
C2311 C 0.22371 0.43886 0.52439 0.0
N2312 N 0.17918 0.4375 0.44662 0.0
N2313 N 0.23157 0.43992 0.63571 0.0
H2314 H 0.24607 0.44039 0.46057 0.0
H2315 H 0.25082 0.43707 0.53864 0.0
H2316 H 0.22771 0.43725 0.6833 0.0
H2317 H 0.24722 0.44607 0.62767 0.0
H2318 H 0.16556 0.43752 0.45515 0.0
H2319 H 0.18409 0.44073 0.39979 0.0
H2320 H 0.15247 0.42157 0.53749 0.0
H2321 H 0.15843 0.42337 0.61718 0.0
C2322 C 0.4509 0.91949 0.27422 0.0
C2323 C 0.44623 0.89993 0.29638 0.0
C2324 C 0.4398 0.8871 0.18767 0.0
C2325 C 0.44577 0.90736 0.16594 0.0
N2326 N 0.46816 0.94331 0.19039 0.0
N2327 N 0.4388 0.86556 0.27545 0.0
C2328 C 0.45451 0.92384 0.20949 0.0
C2329 C 0.44125 0.88374 0.25339 0.0
N2330 N 0.45231 0.93404 0.31545 0.0
N2331 N 0.43376 0.8714 0.14545 0.0
H2332 H 0.43948 0.86287 0.32348 0.0
H2333 H 0.43711 0.85361 0.24659 0.0
H2334 H 0.43624 0.87391 0.09706 0.0
H2335 H 0.42661 0.85597 0.15836 0.0
H2336 H 0.45485 0.94837 0.30074 0.0
H2337 H 0.44863 0.93078 0.36311 0.0
H2338 H 0.47532 0.95562 0.22168 0.0
H2339 H 0.47536 0.94613 0.1466 0.0
C2340 C 0.0728 0.52159 0.25902 0.0
C2341 C 0.09127 0.5319 0.22379 0.0
C2342 C 0.10821 0.55249 0.31838 0.0
C2343 C 0.09133 0.53819 0.35545 0.0
N2344 N 0.0583 0.5074 0.36073 0.0
N2345 N 0.12599 0.56058 0.21795 0.0
C2346 C 0.0739 0.52213 0.32553 0.0
C2347 C 0.10893 0.54832 0.25307 0.0
N2348 N 0.05416 0.51308 0.22998 0.0
N2349 N 0.12267 0.5707 0.34425 0.0
H2350 H 0.12577 0.56072 0.16875 0.0
H2351 H 0.14025 0.57063 0.23769 0.0
H2352 H 0.1219 0.57487 0.3906 0.0
H2353 H 0.1343 0.58261 0.31829 0.0
H2354 H 0.04035 0.50634 0.25491 0.0
H2355 H 0.05261 0.51595 0.18279 0.0
H2356 H 0.04576 0.49465 0.34055 0.0
H2357 H 0.05914 0.50694 0.40975 0.0
C2358 C 0.46428 0.5561 0.35855 0.0
C2359 C 0.44562 0.53745 0.36921 0.0
C2360 C 0.44326 0.53003 0.25581 0.0
C2361 C 0.46009 0.55 0.24408 0.0
N2362 N 0.48576 0.58299 0.28419 0.0
N2363 N 0.41513 0.50878 0.32609 0.0
C2364 C 0.47036 0.56335 0.2955 0.0
C2365 C 0.43452 0.52494 0.31726 0.0
N2366 N 0.47661 0.56641 0.40851 0.0
N2367 N 0.43583 0.51574 0.20869 0.0
H2368 H 0.40779 0.50541 0.3698 0.0
H2369 H 0.40556 0.50025 0.28901 0.0
H2370 H 0.44256 0.51856 0.16414 0.0
H2371 H 0.42466 0.50043 0.2161 0.0
H2372 H 0.49132 0.57903 0.40353 0.0
H2373 H 0.47289 0.5611 0.4548 0.0
H2374 H 0.49234 0.59412 0.31932 0.0
H2375 H 0.49106 0.58852 0.23886 0.0
C2376 C 0.08877 0.56779 0.84147 0.0
C2377 C 0.09326 0.55195 0.8537 0.0
C2378 C 0.09412 0.54627 0.74037 0.0
C2379 C 0.09206 0.5637 0.72795 0.0
N2380 N 0.09004 0.59285 0.76714 0.0
N2381 N 0.10457 0.52909 0.81596 0.0
C2382 C 0.0902 0.57505 0.77868 0.0
C2383 C 0.09714 0.54199 0.8034 0.0
N2384 N 0.08231 0.57527 0.88958 0.0
N2385 N 0.09273 0.53352 0.69235 0.0
H2386 H 0.10797 0.52659 0.86165 0.0
H2387 H 0.10945 0.52275 0.78103 0.0
H2388 H 0.08994 0.53584 0.64583 0.0
H2389 H 0.0922 0.51955 0.69969 0.0
H2390 H 0.07674 0.58534 0.88275 0.0
H2391 H 0.08077 0.56995 0.93584 0.0
H2392 H 0.09102 0.6029 0.80256 0.0
H2393 H 0.0905 0.59836 0.72185 0.0
C2394 C 0.42125 0.50741 0.85898 0.0
C2395 C 0.43157 0.5286 0.87412 0.0
C2396 C 0.43005 0.53732 0.76315 0.0
C2397 C 0.42065 0.51611 0.74712 0.0
N2398 N 0.40817 0.48095 0.77872 0.0
N2399 N 0.44698 0.56394 0.84301 0.0
C2400 C 0.41646 0.50116 0.79483 0.0
C2401 C 0.43624 0.54361 0.82674 0.0
N2402 N 0.41608 0.49329 0.90643 0.0
N2403 N 0.43296 0.55142 0.71755 0.0
H2404 H 0.45059 0.56881 0.88972 0.0
H2405 H 0.45304 0.57601 0.81077 0.0
H2406 H 0.42994 0.54765 0.67 0.0
H2407 H 0.4376 0.56674 0.72661 0.0
H2408 H 0.4063 0.47756 0.90127 0.0
H2409 H 0.42092 0.49733 0.95289 0.0
H2410 H 0.40641 0.46957 0.81002 0.0
H2411 H 0.40377 0.47543 0.73312 0.0
C2412 C 0.47513 0.89929 0.77605 0.0
C2413 C 0.45758 0.89951 0.7991 0.0
C2414 C 0.44637 0.89984 0.69129 0.0
C2415 C 0.46322 0.89827 0.66799 0.0
N2416 N 0.48964 0.88965 0.69009 0.0
N2417 N 0.42339 0.89305 0.77952 0.0
C2418 C 0.47624 0.89562 0.71092 0.0
C2419 C 0.44215 0.89748 0.75679 0.0
N2420 N 0.49134 0.90397 0.815 0.0
N2421 N 0.43472 0.90417 0.65169 0.0
H2422 H 0.4197 0.89017 0.82731 0.0
H2423 H 0.41097 0.88987 0.75047 0.0
H2424 H 0.4373 0.90613 0.60339 0.0
H2425 H 0.42362 0.90752 0.66777 0.0
H2426 H 0.50534 0.9061 0.79861 0.0
H2427 H 0.49157 0.90779 0.86234 0.0
H2428 H 0.49828 0.88608 0.72062 0.0
H2429 H 0.49035 0.88592 0.64325 0.0
C2430 C 0.21545 0.43715 0.04373 0.0
C2431 C 0.20555 0.42149 0.09016 0.0
C2432 C 0.19122 0.39568 0.00704 0.0
C2433 C 0.20106 0.41097 0.96017 0.0
N2434 N 0.21691 0.44694 0.93367 0.0
N2435 N 0.17505 0.38878 0.1092 0.0
C2436 C 0.2116 0.432 0.97831 0.0
C2437 C 0.19059 0.40159 0.07003 0.0
N2438 N 0.22828 0.45694 0.06232 0.0
N2439 N 0.183 0.37547 0.9918 0.0
H2440 H 0.17271 0.39361 0.15295 0.0
H2441 H 0.16315 0.37449 0.09455 0.0
H2442 H 0.18454 0.37088 0.94668 0.0
H2443 H 0.17694 0.3638 0.02562 0.0
H2444 H 0.23799 0.46859 0.03149 0.0
H2445 H 0.22936 0.46151 0.10935 0.0
H2446 H 0.22292 0.46243 0.94451 0.0
H2447 H 0.21342 0.44364 0.88602 0.0
C2448 C 0.55024 0.7817 0.07265 0.0
C2449 C 0.56237 0.79507 0.02366 0.0
C2450 C 0.58366 0.82105 0.1011 0.0
C2451 C 0.57019 0.80892 0.15028 0.0
N2452 N 0.54018 0.77733 0.18298 0.0
N2453 N 0.58725 0.82906 0.98963 0.0
C2454 C 0.5532 0.78914 0.13596 0.0
C2455 C 0.57791 0.81531 0.03748 0.0
N2456 N 0.53626 0.76176 0.05838 0.0
N2457 N 0.60258 0.83722 0.11475 0.0
H2458 H 0.5837 0.82511 0.94228 0.0
H2459 H 0.59726 0.84468 0.99745 0.0
H2460 H 0.60856 0.8397 0.15999 0.0
H2461 H 0.61344 0.8459 0.08047 0.0
H2462 H 0.52831 0.75042 0.0921 0.0
H2463 H 0.53339 0.75633 0.01204 0.0
H2464 H 0.52622 0.764 0.17477 0.0
H2465 H 0.54305 0.78118 0.23062 0.0
C2466 C 0.18743 0.77258 0.00726 0.0
C2467 C 0.20788 0.78532 0.98688 0.0
C2468 C 0.22025 0.78916 0.09592 0.0
C2469 C 0.19986 0.77535 0.11612 0.0
N2470 N 0.16412 0.75247 0.09141 0.0
N2471 N 0.24407 0.80466 0.00844 0.0
C2472 C 0.18342 0.76674 0.07189 0.0
C2473 C 0.2244 0.79328 0.03036 0.0
N2474 N 0.17189 0.76635 0.96433 0.0
N2475 N 0.23545 0.79893 0.13974 0.0
H2476 H 0.2475 0.80868 0.96109 0.0
H2477 H 0.25707 0.80916 0.03604 0.0
H2478 H 0.23291 0.79637 0.18805 0.0
H2479 H 0.25021 0.81069 0.12913 0.0
H2480 H 0.15638 0.75899 0.97615 0.0
H2481 H 0.17466 0.76955 0.91626 0.0
H2482 H 0.15186 0.74401 0.06108 0.0
H2483 H 0.16051 0.74819 0.13838 0.0
C2484 C 0.18072 0.97608 0.27159 0.0
C2485 C 0.16897 0.9791 0.31859 0.0
C2486 C 0.18101 0.01401 0.28022 0.0
C2487 C 0.19265 0.01089 0.23318 0.0
N2488 N 0.2006 0.98823 0.17507 0.0
N2489 N 0.15479 -0.00105 0.36171 0.0
C2490 C 0.19146 0.99162 0.22587 0.0
C2491 C 0.1681 0.99748 0.32098 0.0
N2492 N 0.18231 0.95869 0.27233 0.0
N2493 N 0.18287 0.03298 0.28696 0.0
H2494 H 0.1455 0.98719 0.39298 0.0
H2495 H 0.15189 0.01112 0.3618 0.0
H2496 H 0.19134 0.0451 0.2558 0.0
H2497 H 0.17681 0.03707 0.32474 0.0
H2498 H 0.19262 0.95674 0.24456 0.0
H2499 H 0.17432 0.94657 0.30381 0.0
H2500 H 0.19847 0.97386 0.16307 0.0
H2501 H 0.20903 -0.00049 0.14148 0.0
C2502 C 0.98222 0.16175 0.23279 0.0
C2503 C 0.97166 0.17295 0.22979 0.0
C2504 C -0.00211 0.20013 0.29538 0.0
C2505 C 0.00961 0.19013 0.29256 0.0
N2506 N 0.01423 0.16243 0.25548 0.0
N2507 N 0.97079 0.2042 0.24882 0.0
C2508 C 0.00209 0.17112 0.26063 0.0
C2509 C 0.97988 0.19255 0.25855 0.0
N2510 N 0.97307 0.14209 0.21016 0.0
N2511 N 0.00405 0.21691 0.33345 0.0
H2512 H 0.95763 0.1993 0.22142 0.0
H2513 H 0.97731 0.21948 0.26289 0.0
H2514 H 0.01735 0.22305 0.36081 0.0
H2515 H 0.99505 0.22358 0.34256 0.0
H2516 H 0.979 0.13232 0.2168 0.0
H2517 H 0.9588 0.13509 0.1878 0.0
H2518 H 0.01071 0.14985 0.22677 0.0
H2519 H 0.02845 0.16851 0.27793 0.0
C2520 C 0.74277 0.75143 0.22937 0.0
C2521 C 0.75335 0.77235 0.2481 0.0
C2522 C 0.78482 0.77745 0.19858 0.0
C2523 C 0.7739 0.75701 0.1753 0.0
N2524 N 0.74199 0.7254 0.15972 0.0
N2525 N 0.78271 0.80652 0.2378 0.0
C2526 C 0.75267 0.74421 0.18804 0.0
C2527 C 0.77385 0.78576 0.22868 0.0
N2528 N 0.7236 0.73839 0.2527 0.0
N2529 N 0.80579 0.78862 0.19475 0.0
H2530 H 0.7751 0.81331 0.2593 0.0
H2531 H 0.79685 0.81715 0.2185 0.0
H2532 H 0.81466 0.783 0.17458 0.0
H2533 H 0.81457 0.80272 0.21721 0.0
H2534 H 0.71598 0.72253 0.24614 0.0
H2535 H 0.71586 0.74326 0.28263 0.0
H2536 H 0.72608 0.71619 0.16217 0.0
H2537 H 0.7489 0.71968 0.12948 0.0
C2538 C 0.77399 0.99704 0.78297 0.0
C2539 C 0.79489 0.01096 0.76896 0.0
C2540 C 0.80533 0.99024 0.83136 0.0
C2541 C 0.78451 0.97711 0.8481 0.0
N2542 N 0.74976 0.97071 0.85338 0.0
N2543 N 0.83082 0.0234 0.78959 0.0
C2544 C 0.7691 0.9815 0.82847 0.0
C2545 C 0.81074 0.00835 0.79601 0.0
N2546 N 0.7588 -0.00185 0.75084 0.0
N2547 N 0.81975 0.98507 0.84755 0.0
H2548 H 0.83536 0.03688 0.76404 0.0
H2549 H 0.84283 0.02328 0.81365 0.0
H2550 H 0.81633 0.97232 0.87561 0.0
H2551 H 0.83474 0.99272 0.83039 0.0
H2552 H 0.74331 0.98709 0.75461 0.0
H2553 H 0.76179 0.00901 0.71563 0.0
H2554 H 0.73841 0.97452 0.84527 0.0
H2555 H 0.74569 0.9592 0.88723 0.0
C2556 C 0.96154 0.77745 0.83272 0.0
C2557 C 0.96099 0.76202 0.79264 0.0
C2558 C 0.98662 0.76051 0.85922 0.0
C2559 C 0.99144 0.77972 0.88491 0.0
N2560 N 0.98253 0.80583 0.903 0.0
N2561 N 0.97378 0.73896 0.76705 0.0
C2562 C 0.97823 0.78774 0.87517 0.0
C2563 C 0.97325 0.75302 0.80673 0.0
N2564 N 0.94634 0.78234 0.82929 0.0
N2565 N -0.00378 0.75051 0.88201 0.0
H2566 H 0.96526 0.73388 0.72562 0.0
H2567 H 0.98412 0.73366 0.77234 0.0
H2568 H 0.00653 0.75641 0.91968 0.0
H2569 H 0.99241 0.73572 0.868 0.0
H2570 H 0.94522 0.7925 0.86028 0.0
H2571 H 0.93374 0.77464 0.79925 0.0
H2572 H 0.9749 0.8138 0.8919 0.0
H2573 H 0.99437 0.81314 0.93581 0.0
C2574 C 0.18847 0.18916 0.71189 0.0
C2575 C 0.20912 0.19611 0.6947 0.0
C2576 C 0.21999 0.23002 0.73981 0.0
C2577 C 0.19967 0.22251 0.76188 0.0
N2578 N 0.1647 0.19502 0.77387 0.0
N2579 N 0.24505 0.22216 0.69655 0.0
C2580 C 0.18389 0.20208 0.74919 0.0
C2581 C 0.22501 0.21635 0.70929 0.0
N2582 N 0.17335 0.17032 0.69171 0.0
N2583 N 0.23441 0.25034 0.7473 0.0
H2584 H 0.24943 0.21299 0.67178 0.0
H2585 H 0.25753 0.2356 0.71362 0.0
H2586 H 0.23173 0.26064 0.7728 0.0
H2587 H 0.24868 0.25738 0.72512 0.0
H2588 H 0.15773 0.16487 0.69775 0.0
H2589 H 0.17641 0.16062 0.6643 0.0
H2590 H 0.15299 0.17975 0.7718 0.0
H2591 H 0.16076 0.20425 0.80031 0.0
C2592 C 0.86027 0.3366 0.65405 0.0
C2593 C 0.85007 0.3154 0.63955 0.0
C2594 C 0.85212 0.32327 0.52674 0.0
C2595 C 0.86473 0.34436 0.54112 0.0
N2596 N 0.88443 0.37085 0.61818 0.0
N2597 N 0.83947 0.28835 0.56163 0.0
C2598 C 0.86977 0.35102 0.60476 0.0
C2599 C 0.84674 0.30861 0.57571 0.0
N2600 N 0.8606 0.34295 0.71469 0.0
N2601 N 0.84508 0.31731 0.46662 0.0
H2602 H 0.83602 0.27708 0.59576 0.0
H2603 H 0.83873 0.28301 0.51581 0.0
H2604 H 0.84879 0.32777 0.42962 0.0
H2605 H 0.83411 0.30229 0.45483 0.0
H2606 H 0.86607 0.35827 0.72676 0.0
H2607 H 0.85356 0.3327 0.752 0.0
H2608 H 0.89007 0.37584 0.66353 0.0
H2609 H 0.89252 0.38188 0.58364 0.0
C2610 C 0.68383 0.57758 0.51742 0.0
C2611 C 0.69542 0.56775 0.52883 0.0
C2612 C 0.67059 0.53728 0.47064 0.0
C2613 C 0.65863 0.54681 0.4614 0.0
N2614 N 0.65542 0.57716 0.46188 0.0
N2615 N 0.70262 0.54044 0.50713 0.0
C2616 C 0.6659 0.56745 0.47981 0.0
C2617 C 0.68972 0.54829 0.50217 0.0
N2618 N 0.68949 0.59613 0.54511 0.0
N2619 N 0.66308 0.51738 0.45177 0.0
H2620 H 0.71637 0.54772 0.53232 0.0
H2621 H 0.70043 0.52739 0.48333 0.0
H2622 H 0.64962 0.5094 0.42542 0.0
H2623 H 0.66966 0.50851 0.46379 0.0
H2624 H 0.68051 0.60308 0.54471 0.0
H2625 H 0.70277 0.60416 0.5722 0.0
H2626 H 0.66081 0.59275 0.46869 0.0
H2627 H 0.64197 0.56996 0.43523 0.0
C2628 C 0.44045 0.1014 0.70506 0.0
C2629 C 0.45439 0.12252 0.71686 0.0
C2630 C 0.48274 0.11945 0.67355 0.0
C2631 C 0.46863 0.0986 0.65826 0.0
N2632 N 0.4356 0.06822 0.67312 0.0
N2633 N 0.489 0.15004 0.73097 0.0
C2634 C 0.448 0.08901 0.67929 0.0
C2635 C 0.4757 0.13092 0.70781 0.0
N2636 N 0.41987 0.09363 0.71445 0.0
N2637 N 0.50252 0.1286 0.65195 0.0
H2638 H 0.48393 0.15862 0.75604 0.0
H2639 H 0.50489 0.1565 0.73071 0.0
H2640 H 0.50828 0.1207 0.62668 0.0
H2641 H 0.51289 0.14429 0.65539 0.0
H2642 H 0.40862 0.07914 0.69929 0.0
H2643 H 0.41389 0.10211 0.73521 0.0
H2644 H 0.42098 0.06 0.69273 0.0
H2645 H 0.44058 0.05887 0.65252 0.0
C2646 C 0.46585 0.33246 0.11871 0.0
C2647 C 0.46542 0.31357 0.11078 0.0
C2648 C 0.48841 0.32754 0.01921 0.0
C2649 C 0.48697 0.3456 0.0233 0.0
N2650 N 0.47161 0.36407 0.07034 0.0
N2651 N 0.47459 0.29196 0.05143 0.0
C2652 C 0.475 0.34778 0.07143 0.0
C2653 C 0.47635 0.3108 0.06061 0.0
N2654 N 0.45753 0.33575 0.17174 0.0
N2655 N 0.50151 0.32656 0.97648 0.0
H2656 H 0.46656 0.27965 0.08232 0.0
H2657 H 0.48013 0.28818 0.01164 0.0
H2658 H 0.51012 0.33841 0.94463 0.0
H2659 H 0.50487 0.3147 0.97524 0.0
H2660 H 0.45925 0.34999 0.18356 0.0
H2661 H 0.45052 0.32471 0.20711 0.0
H2662 H 0.46113 0.36521 0.09973 0.0
H2663 H 0.47783 0.37564 0.03633 0.0
C2664 C 0.64009 0.13594 0.14445 0.0
C2665 C 0.64189 0.12367 0.09658 0.0
C2666 C 0.67476 0.13064 0.13983 0.0
C2667 C 0.67445 0.14525 0.18158 0.0
N2668 N 0.6578 0.1632 0.22141 0.0
N2669 N 0.66236 0.11204 0.0419 0.0
C2670 C 0.65733 0.14826 0.18357 0.0
C2671 C 0.65961 0.12173 0.09245 0.0
N2672 N 0.62179 0.13531 0.15376 0.0
N2673 N 0.68949 0.12518 0.14595 0.0
H2674 H 0.65175 0.10562 0.00525 0.0
H2675 H 0.67603 0.11211 0.03316 0.0
H2676 H 0.70073 0.13124 0.18086 0.0
H2677 H 0.68929 0.11316 0.12085 0.0
H2678 H 0.61898 0.14232 0.19182 0.0
H2679 H 0.6088 0.12635 0.12631 0.0
H2680 H 0.64677 0.1677 0.21973 0.0
H2681 H 0.66996 0.17193 0.25208 0.0
C2682 C 0.87494 0.55186 0.06201 0.0
C2683 C 0.85387 0.54198 0.07883 0.0
C2684 C 0.84681 0.51187 0.01552 0.0
C2685 C 0.86808 0.52112 1.00262 0.0
N2686 N 0.90293 0.54883 0.01731 0.0
N2687 N 0.81984 0.51237 0.07737 0.0
C2688 C 0.88229 0.54091 0.02649 0.0
C2689 C 0.83979 0.52189 0.05716 0.0
N2690 N 0.88779 0.57191 0.07883 0.0
N2691 N 0.83344 0.49365 0.98717 0.0
H2692 H 0.81426 0.51943 0.10753 0.0
H2693 H 0.80912 0.49708 0.06809 0.0
H2694 H 0.83832 0.48611 0.95637 0.0
H2695 H 0.81754 0.48673 0.99006 0.0
H2696 H 0.90259 0.58087 0.06106 0.0
H2697 H 0.88331 0.58012 0.10816 0.0
H2698 H 0.9142 0.56177 0.04061 0.0
H2699 H 0.90898 0.54186 0.98874 0.0
C2700 C 0.53417 0.65095 0.94193 0.0
C2701 C 0.51285 0.63668 0.94578 0.0
C2702 C 0.50522 0.65921 0.88166 0.0
C2703 C 0.52658 0.67315 0.87636 0.0
N2704 N 0.56156 0.68071 0.88952 0.0
N2705 N 0.47818 0.62501 0.91119 0.0
C2706 C 0.5411 0.66843 0.90252 0.0
C2707 C 0.49836 0.64012 0.91308 0.0
N2708 N 0.54771 0.64812 0.97769 0.0
N2709 N 0.49159 0.66456 0.85834 0.0
H2710 H 0.47256 0.61107 0.93515 0.0
H2711 H 0.46725 0.62567 0.8827 0.0
H2712 H 0.49624 0.67801 0.83244 0.0
H2713 H 0.47586 0.65624 0.86699 0.0
H2714 H 0.56316 0.65912 0.98256 0.0
H2715 H 0.54322 0.63538 0.00691 0.0
H2716 H 0.5727 0.67697 0.9017 0.0
H2717 H 0.56729 0.69385 0.86148 0.0
C2718 C 0.34635 0.90459 0.94553 0.0
C2719 C 0.35416 0.89199 0.96743 0.0
C2720 C 0.32303 0.86102 0.93338 0.0
C2721 C 0.3153 0.87364 0.91097 0.0
N2722 N 0.31697 0.90656 0.90771 0.0
N2723 N 0.34898 0.8587 0.99535 0.0
C2724 C 0.32614 0.89519 0.92094 0.0
C2725 C 0.34208 0.87029 0.96581 0.0
N2726 N 0.35865 0.92552 0.94544 0.0
N2727 N 0.31248 0.84034 0.92156 0.0
H2728 H 0.36296 0.86528 0.01943 0.0
H2729 H 0.34027 0.84283 1.00077 0.0
H2730 H 0.29831 0.83302 0.89859 0.0
H2731 H 0.31824 0.83058 0.93081 0.0
H2732 H 0.35489 0.93545 0.92252 0.0
H2733 H 0.37325 0.93301 0.9657 0.0
H2734 H 0.32319 0.92193 0.92039 0.0
H2735 H 0.30231 0.90026 0.88821 0.0
C2736 C 0.11638 0.43791 0.91882 0.0
C2737 C 0.13741 0.44456 0.90878 0.0
C2738 C 0.14722 0.4736 0.98032 0.0
C2739 C 0.12615 0.46616 0.99258 0.0
N2740 N 0.09105 0.43838 0.98762 0.0
N2741 N 0.17291 0.4662 0.93868 0.0
C2742 C 0.11088 0.44724 0.96681 0.0
C2743 C 0.15293 0.46168 0.94222 0.0
N2744 N 0.10169 0.42331 0.88048 0.0
N2745 N 0.16161 0.49229 1.00354 0.0
H2746 H 0.17759 0.45784 0.91082 0.0
H2747 H 0.18456 0.47725 0.96678 0.0
H2748 H 0.1578 0.50077 0.03407 0.0
H2749 H 0.17702 0.4997 0.99039 0.0
H2750 H 0.08632 0.41943 0.88167 0.0
H2751 H 0.10515 0.41657 0.84296 0.0
H2752 H 0.07967 0.42367 0.97447 0.0
H2753 H 0.08648 0.44479 0.02323 0.0
C2754 C 0.12611 0.68111 0.41268 0.0
C2755 C 0.14694 0.68859 0.39579 0.0
C2756 C 0.14712 0.66046 0.45343 0.0
C2757 C 0.12589 0.65212 0.46577 0.0
N2758 N 0.0943 0.65266 0.45159 0.0
N2759 N 0.17701 0.68502 0.39369 0.0
C2760 C 0.11514 0.66198 0.44412 0.0
C2761 C 0.15741 0.67816 0.41445 0.0
N2762 N 0.11701 0.69262 0.40043 0.0
N2763 N 0.15735 0.65153 0.47978 0.0
H2764 H 0.1849 0.69802 0.36519 0.0
H2765 H 0.18495 0.67713 0.4006 0.0
H2766 H 0.15009 0.6385 0.50848 0.0
H2767 H 0.17319 0.65778 0.47746 0.0
H2768 H 0.10283 0.68928 0.41884 0.0
H2769 H 0.12417 0.70639 0.37523 0.0
H2770 H 0.08523 0.65767 0.4294 0.0
H2771 H 0.08572 0.63905 0.47693 0.0
C2772 C 0.3005 0.41675 0.463 0.0
C2773 C 0.29193 0.42864 0.44095 0.0
C2774 C 0.31758 0.45859 0.49951 0.0
C2775 C 0.32801 0.44774 0.51244 0.0
N2776 N 0.32994 0.41668 0.50956 0.0
N2777 N 0.29168 0.46069 0.43724 0.0
C2778 C 0.31942 0.42671 0.49613 0.0
C2779 C 0.30011 0.44946 0.4597 0.0
N2780 N 0.29061 0.39605 0.45176 0.0
N2781 N 0.32456 0.47765 0.52519 0.0
H2782 H 0.27856 0.45443 0.40912 0.0
H2783 H 0.29828 0.47649 0.44324 0.0
H2784 H 0.33746 0.48462 0.55437 0.0
H2785 H 0.31672 0.48576 0.52241 0.0
H2786 H 0.29493 0.38614 0.4718 0.0
H2787 H 0.27707 0.38844 0.4256 0.0
H2788 H 0.32593 0.40219 0.49226 0.0
H2789 H 0.34338 0.42329 0.53637 0.0
C2790 C 0.58108 0.90351 0.44989 0.0
C2791 C 0.57287 0.88199 0.44546 0.0
C2792 C 0.53979 0.87556 0.48658 0.0
C2793 C 0.54773 0.89709 0.48851 0.0
N2794 N 0.5766 0.93154 0.48787 0.0
N2795 N 0.54669 0.84752 0.47335 0.0
C2796 C 0.5687 0.91108 0.47557 0.0
C2797 C 0.55296 0.868 0.46874 0.0
N2798 N 0.60034 0.91659 0.42721 0.0
N2799 N 0.51941 0.86243 0.49841 0.0
H2800 H 0.55578 0.84137 0.45924 0.0
H2801 H 0.5332 0.83682 0.49572 0.0
H2802 H 0.50948 0.86744 0.51388 0.0
H2803 H 0.51203 0.84667 0.48999 0.0
H2804 H 0.60643 0.93237 0.42236 0.0
H2805 H 0.61003 0.91145 0.4103 0.0
H2806 H 0.59214 0.94243 0.48452 0.0
H2807 H 0.56775 0.93739 0.50673 0.0
loop_
_geom_bond_atom_site_label_1
_geom_bond_atom_site_label_2
_geom_bond_distance
_geom_bond_site_symmetry_2
_ccdc_geom_bond_type
C0 C1 1.351 . S
C0 N3 1.368 . S
C0 H5 0.931 . S
C1 C0 1.351 . S
C1 N2 1.373 1_554 S
C1 H29 0.930 . S
N2 C1 1.373 1_556 S
N2 C4 1.340 1_556 S
N3 C0 1.368 . S
N3 C4 1.321 . S
N3 Co6 2.135 . S
C4 N2 1.340 1_554 S
C4 N3 1.321 . S
C4 H28 0.930 1_554 S
H5 C0 0.931 . S
Co6 N3 2.135 . S
Co6 N9 2.121 . S
Co6 O14 2.055 . S
Co6 O17 2.039 . S
Co6 N20 2.140 . S
C7 O8 1.227 . S
C7 O17 1.265 . S
O8 C7 1.227 . S
N9 Co6 2.121 . S
N9 C11 1.375 . S
N9 C12 1.313 . S
C10 C11 1.338 . S
C10 N13 1.377 . S
C10 H30 0.930 . S
C11 N9 1.375 . S
C11 C10 1.338 . S
C11 H15 0.931 . S
C12 N9 1.313 . S
C12 N13 1.344 . S
C12 H16 0.930 . S
N13 C10 1.377 . S
N13 C12 1.344 . S
O14 Co6 2.055 . S
O14 C18 1.253 . S
H15 C11 0.931 . S
H16 C12 0.930 . S
O17 Co6 2.039 . S
O17 C7 1.265 . S
C18 O14 1.253 . S
C18 O19 1.227 . S
O19 C18 1.227 . S
N20 Co6 2.140 . S
N20 C23 1.346 . S
N20 C24 1.345 . S
C21 C22 1.387 . S
C21 C25 1.391 . S
C22 C21 1.387 . S
C22 C23 1.369 . S
C22 H31 0.929 . S
C23 N20 1.346 . S
C23 C22 1.369 . S
C23 H26 0.928 . S
C24 N20 1.345 . S
C24 C25 1.371 . S
C24 H27 0.931 . S
C25 C21 1.391 . S
C25 C24 1.371 . S
C25 H32 0.930 . S
H26 C23 0.928 . S
H27 C24 0.931 . S
H28 C4 0.930 1_556 S
H29 C1 0.930 . S
H30 C10 0.930 . S
H31 C22 0.929 . S
H32 C25 0.930 . S
C33 C34 1.351 . S
C33 N36 1.368 . S
C33 H38 0.931 . S
C34 C33 1.351 . S
C34 N35 1.373 1_554 S
C34 H62 0.930 . S
N35 C34 1.373 1_556 S
N35 C37 1.340 1_556 S
N36 C33 1.368 . S
N36 C37 1.321 . S
N36 Co39 2.135 . S
C37 N35 1.340 1_554 S
C37 N36 1.321 . S
C37 H61 0.930 1_554 S
H38 C33 0.931 . S
Co39 N36 2.135 . S
Co39 N42 2.121 . S
Co39 O47 2.055 . S
Co39 O50 2.039 . S
Co39 N53 2.140 . S
C40 O41 1.227 . S
C40 O50 1.265 . S
O41 C40 1.227 . S
N42 Co39 2.121 . S
N42 C44 1.375 . S
N42 C45 1.313 . S
C43 C44 1.338 . S
C43 N46 1.377 . S
C43 H63 0.930 . S
C44 N42 1.375 . S
C44 C43 1.338 . S
C44 H48 0.931 . S
C45 N42 1.313 . S
C45 N46 1.344 . S
C45 H49 0.930 . S
N46 C43 1.377 . S
N46 C45 1.344 . S
O47 Co39 2.055 . S
O47 C51 1.253 . S
H48 C44 0.931 . S
H49 C45 0.930 . S
O50 Co39 2.039 . S
O50 C40 1.265 . S
C51 O47 1.253 . S
C51 O52 1.227 . S
O52 C51 1.227 . S
N53 Co39 2.140 . S
N53 C56 1.346 . S
N53 C57 1.345 . S
C54 C55 1.387 . S
C54 C58 1.391 . S
C55 C54 1.387 . S
C55 C56 1.369 . S
C55 H64 0.929 . S
C56 N53 1.346 . S
C56 C55 1.369 . S
C56 H59 0.928 . S
C57 N53 1.345 . S
C57 C58 1.371 . S
C57 H60 0.931 . S
C58 C54 1.391 . S
C58 C57 1.371 . S
C58 H65 0.930 . S
H59 C56 0.928 . S
H60 C57 0.931 . S
H61 C37 0.930 1_556 S
H62 C34 0.930 . S
H63 C43 0.930 . S
H64 C55 0.929 . S
H65 C58 0.930 . S
C66 C67 1.351 . S
C66 N69 1.368 . S
C66 H71 0.931 . S
C67 C66 1.351 . S
C67 N68 1.373 1_554 S
C67 H95 0.930 . S
N68 C67 1.373 1_556 S
N68 C70 1.340 1_556 S
N69 C66 1.368 . S
N69 C70 1.321 . S
N69 Co72 2.135 . S
C70 N68 1.340 1_554 S
C70 N69 1.321 . S
C70 H94 0.930 1_554 S
H71 C66 0.931 . S
Co72 N69 2.135 . S
Co72 N75 2.121 . S
Co72 O80 2.055 . S
Co72 O83 2.039 . S
Co72 N86 2.140 . S
C73 O74 1.227 . S
C73 O83 1.265 . S
O74 C73 1.227 . S
N75 Co72 2.121 . S
N75 C77 1.375 . S
N75 C78 1.313 . S
C76 C77 1.338 . S
C76 N79 1.377 . S
C76 H96 0.930 . S
C77 N75 1.375 . S
C77 C76 1.338 . S
C77 H81 0.931 . S
C78 N75 1.313 . S
C78 N79 1.344 . S
C78 H82 0.930 . S
N79 C76 1.377 . S
N79 C78 1.344 . S
O80 Co72 2.055 . S
O80 C84 1.253 . S
H81 C77 0.931 . S
H82 C78 0.930 . S
O83 Co72 2.039 . S
O83 C73 1.265 . S
C84 O80 1.253 . S
C84 O85 1.227 . S
O85 C84 1.227 . S
N86 Co72 2.140 . S
N86 C89 1.346 . S
N86 C90 1.345 . S
C87 C88 1.387 . S
C87 C91 1.391 . S
C88 C87 1.387 . S
C88 C89 1.369 . S
C88 H97 0.929 . S
C89 N86 1.346 . S
C89 C88 1.369 . S
C89 H92 0.928 . S
C90 N86 1.345 . S
C90 C91 1.371 . S
C90 H93 0.931 . S
C91 C87 1.391 . S
C91 C90 1.371 . S
C91 H98 0.930 . S
H92 C89 0.928 . S
H93 C90 0.931 . S
H94 C70 0.930 1_556 S
H95 C67 0.930 . S
H96 C76 0.930 . S
H97 C88 0.929 . S
H98 C91 0.930 . S
C99 C100 1.351 . S
C99 N102 1.368 . S
C99 H104 0.931 . S
C100 C99 1.351 . S
C100 N101 1.373 . S
C100 H128 0.930 . S
N101 C100 1.373 . S
N101 C103 1.340 . S
N102 C99 1.368 . S
N102 C103 1.321 . S
N102 Co105 2.135 . S
C103 N101 1.340 . S
C103 N102 1.321 . S
C103 H127 0.930 . S
H104 C99 0.931 . S
Co105 N102 2.135 . S
Co105 N108 2.121 . S
Co105 O113 2.055 . S
Co105 O116 2.039 . S
Co105 N119 2.140 . S
C106 O107 1.227 . S
C106 O116 1.265 . S
O107 C106 1.227 . S
N108 Co105 2.121 . S
N108 C110 1.375 . S
N108 C111 1.313 . S
C109 C110 1.338 . S
C109 N112 1.377 . S
C109 H129 0.930 . S
C110 N108 1.375 . S
C110 C109 1.338 . S
C110 H114 0.931 . S
C111 N108 1.313 . S
C111 N112 1.344 . S
C111 H115 0.930 . S
N112 C109 1.377 . S
N112 C111 1.344 . S
O113 Co105 2.055 . S
O113 C117 1.253 . S
H114 C110 0.931 . S
H115 C111 0.930 . S
O116 Co105 2.039 . S
O116 C106 1.265 . S
C117 O113 1.253 . S
C117 O118 1.227 . S
O118 C117 1.227 . S
N119 Co105 2.140 . S
N119 C122 1.346 . S
N119 C123 1.345 . S
C120 C121 1.387 . S
C120 C124 1.391 . S
C121 C120 1.387 . S
C121 C122 1.369 . S
C121 H130 0.929 . S
C122 N119 1.346 . S
C122 C121 1.369 . S
C122 H125 0.928 . S
C123 N119 1.345 . S
C123 C124 1.371 . S
C123 H126 0.931 . S
C124 C120 1.391 . S
C124 C123 1.371 . S
C124 H131 0.930 . S
H125 C122 0.928 . S
H126 C123 0.931 . S
H127 C103 0.930 . S
H128 C100 0.930 . S
H129 C109 0.930 . S
H130 C121 0.929 . S
H131 C124 0.930 . S
C132 C133 1.351 . S
C132 N135 1.368 . S
C132 H137 0.931 . S
C133 C132 1.351 . S
C133 N134 1.373 . S
C133 H161 0.930 . S
N134 C133 1.373 . S
N134 C136 1.340 . S
N135 C132 1.368 . S
N135 C136 1.321 . S
N135 Co138 2.135 . S
C136 N134 1.340 . S
C136 N135 1.321 . S
C136 H160 0.930 . S
H137 C132 0.931 . S
Co138 N135 2.135 . S
Co138 N141 2.121 . S
Co138 O146 2.055 . S
Co138 O149 2.039 . S
Co138 N152 2.140 . S
C139 O140 1.227 . S
C139 O149 1.265 . S
O140 C139 1.227 . S
N141 Co138 2.121 . S
N141 C143 1.375 . S
N141 C144 1.313 . S
C142 C143 1.338 . S
C142 N145 1.377 . S
C142 H162 0.930 . S
C143 N141 1.375 . S
C143 C142 1.338 . S
C143 H147 0.931 . S
C144 N141 1.313 . S
C144 N145 1.344 . S
C144 H148 0.930 . S
N145 C142 1.377 . S
N145 C144 1.344 . S
O146 Co138 2.055 . S
O146 C150 1.253 . S
H147 C143 0.931 . S
H148 C144 0.930 . S
O149 Co138 2.039 . S
O149 C139 1.265 . S
C150 O146 1.253 . S
C150 O151 1.227 . S
O151 C150 1.227 . S
N152 Co138 2.140 . S
N152 C155 1.346 . S
N152 C156 1.345 . S
C153 C154 1.387 . S
C153 C157 1.391 . S
C154 C153 1.387 . S
C154 C155 1.369 . S
C154 H163 0.929 . S
C155 N152 1.346 . S
C155 C154 1.369 . S
C155 H158 0.928 . S
C156 N152 1.345 . S
C156 C157 1.371 . S
C156 H159 0.931 . S
C157 C153 1.391 . S
C157 C156 1.371 . S
C157 H164 0.930 . S
H158 C155 0.928 . S
H159 C156 0.931 . S
H160 C136 0.930 . S
H161 C133 0.930 . S
H162 C142 0.930 . S
H163 C154 0.929 . S
H164 C157 0.930 . S
C165 C166 1.351 . S
C165 N168 1.368 . S
C165 H170 0.931 . S
C166 C165 1.351 . S
C166 N167 1.373 . S
C166 H194 0.930 . S
N167 C166 1.373 . S
N167 C169 1.340 . S
N168 C165 1.368 . S
N168 C169 1.321 . S
N168 Co171 2.135 . S
C169 N167 1.340 . S
C169 N168 1.321 . S
C169 H193 0.930 . S
H170 C165 0.931 . S
Co171 N168 2.135 . S
Co171 N174 2.121 . S
Co171 O179 2.055 . S
Co171 O182 2.039 . S
Co171 N185 2.140 . S
C172 O173 1.227 . S
C172 O182 1.265 . S
O173 C172 1.227 . S
N174 Co171 2.121 . S
N174 C176 1.375 . S
N174 C177 1.313 . S
C175 C176 1.338 . S
C175 N178 1.377 . S
C175 H195 0.930 . S
C176 N174 1.375 . S
C176 C175 1.338 . S
C176 H180 0.931 . S
C177 N174 1.313 . S
C177 N178 1.344 . S
C177 H181 0.930 . S
N178 C175 1.377 . S
N178 C177 1.344 . S
O179 Co171 2.055 . S
O179 C183 1.253 . S
H180 C176 0.931 . S
H181 C177 0.930 . S
O182 Co171 2.039 . S
O182 C172 1.265 . S
C183 O179 1.253 . S
C183 O184 1.227 . S
O184 C183 1.227 . S
N185 Co171 2.140 . S
N185 C188 1.346 . S
N185 C189 1.345 . S
C186 C187 1.387 . S
C186 C190 1.391 . S
C187 C186 1.387 . S
C187 C188 1.369 . S
C187 H196 0.929 . S
C188 N185 1.346 . S
C188 C187 1.369 . S
C188 H191 0.928 . S
C189 N185 1.345 . S
C189 C190 1.371 . S
C189 H192 0.931 . S
C190 C186 1.391 . S
C190 C189 1.371 . S
C190 H197 0.930 . S
H191 C188 0.928 . S
H192 C189 0.931 . S
H193 C169 0.930 . S
H194 C166 0.930 . S
H195 C175 0.930 . S
H196 C187 0.929 . S
H197 C190 0.930 . S
C198 C199 1.351 . S
C198 N201 1.368 . S
C198 H203 0.931 . S
C199 C198 1.351 . S
C199 N200 1.373 1_556 S
C199 H227 0.930 . S
N200 C199 1.373 1_554 S
N200 C202 1.340 1_554 S
N201 C198 1.368 . S
N201 C202 1.321 . S
N201 Co204 2.135 . S
C202 N200 1.340 1_556 S
C202 N201 1.321 . S
C202 H226 0.930 1_556 S
H203 C198 0.931 . S
Co204 N201 2.135 . S
Co204 N207 2.121 . S
Co204 O212 2.055 . S
Co204 O215 2.039 . S
Co204 N218 2.140 . S
C205 O206 1.227 . S
C205 O215 1.265 . S
O206 C205 1.227 . S
N207 Co204 2.121 . S
N207 C209 1.375 . S
N207 C210 1.313 . S
C208 C209 1.338 . S
C208 N211 1.377 . S
C208 H228 0.930 . S
C209 N207 1.375 . S
C209 C208 1.338 . S
C209 H213 0.931 . S
C210 N207 1.313 . S
C210 N211 1.344 . S
C210 H214 0.930 . S
N211 C208 1.377 . S
N211 C210 1.344 . S
O212 Co204 2.055 . S
O212 C216 1.253 . S
H213 C209 0.931 . S
H214 C210 0.930 . S
O215 Co204 2.039 . S
O215 C205 1.265 . S
C216 O212 1.253 . S
C216 O217 1.227 . S
O217 C216 1.227 . S
N218 Co204 2.140 . S
N218 C221 1.346 . S
N218 C222 1.345 . S
C219 C220 1.387 . S
C219 C223 1.391 . S
C220 C219 1.387 . S
C220 C221 1.369 . S
C220 H229 0.929 . S
C221 N218 1.346 . S
C221 C220 1.369 . S
C221 H224 0.928 . S
C222 N218 1.345 . S
C222 C223 1.371 . S
C222 H225 0.931 . S
C223 C219 1.391 . S
C223 C222 1.371 . S
C223 H230 0.930 . S
H224 C221 0.928 . S
H225 C222 0.931 . S
H226 C202 0.930 1_554 S
H227 C199 0.930 . S
H228 C208 0.930 . S
H229 C220 0.929 . S
H230 C223 0.930 . S
C231 C232 1.351 . S
C231 N234 1.368 . S
C231 H236 0.931 . S
C232 C231 1.351 . S
C232 N233 1.373 1_556 S
C232 H260 0.930 . S
N233 C232 1.373 1_554 S
N233 C235 1.340 1_554 S
N234 C231 1.368 . S
N234 C235 1.321 . S
N234 Co237 2.135 . S
C235 N233 1.340 1_556 S
C235 N234 1.321 . S
C235 H259 0.930 1_556 S
H236 C231 0.931 . S
Co237 N234 2.135 . S
Co237 N240 2.121 . S
Co237 O245 2.055 . S
Co237 O248 2.039 . S
Co237 N251 2.140 . S
C238 O239 1.227 . S
C238 O248 1.265 . S
O239 C238 1.227 . S
N240 Co237 2.121 . S
N240 C242 1.375 . S
N240 C243 1.313 . S
C241 C242 1.338 . S
C241 N244 1.377 . S
C241 H261 0.930 . S
C242 N240 1.375 . S
C242 C241 1.338 . S
C242 H246 0.931 . S
C243 N240 1.313 . S
C243 N244 1.344 . S
C243 H247 0.930 . S
N244 C241 1.377 . S
N244 C243 1.344 . S
O245 Co237 2.055 . S
O245 C249 1.253 . S
H246 C242 0.931 . S
H247 C243 0.930 . S
O248 Co237 2.039 . S
O248 C238 1.265 . S
C249 O245 1.253 . S
C249 O250 1.227 . S
O250 C249 1.227 . S
N251 Co237 2.140 . S
N251 C254 1.346 . S
N251 C255 1.345 . S
C252 C253 1.387 . S
C252 C256 1.391 . S
C253 C252 1.387 . S
C253 C254 1.369 . S
C253 H262 0.929 . S
C254 N251 1.346 . S
C254 C253 1.369 . S
C254 H257 0.928 . S
C255 N251 1.345 . S
C255 C256 1.371 . S
C255 H258 0.931 . S
C256 C252 1.391 . S
C256 C255 1.371 . S
C256 H263 0.930 . S
H257 C254 0.928 . S
H258 C255 0.931 . S
H259 C235 0.930 1_554 S
H260 C232 0.930 . S
H261 C241 0.930 . S
H262 C253 0.929 . S
H263 C256 0.930 . S
C264 C265 1.351 . S
C264 N267 1.368 . S
C264 H269 0.931 . S
C265 C264 1.351 . S
C265 N266 1.373 1_556 S
C265 H293 0.930 . S
N266 C265 1.373 1_554 S
N266 C268 1.340 1_554 S
N267 C264 1.368 . S
N267 C268 1.321 . S
N267 Co270 2.135 . S
C268 N266 1.340 1_556 S
C268 N267 1.321 . S
C268 H292 0.930 1_556 S
H269 C264 0.931 . S
Co270 N267 2.135 . S
Co270 N273 2.121 . S
Co270 O278 2.055 . S
Co270 O281 2.039 . S
Co270 N284 2.140 . S
C271 O272 1.227 . S
C271 O281 1.265 . S
O272 C271 1.227 . S
N273 Co270 2.121 . S
N273 C275 1.375 . S
N273 C276 1.313 . S
C274 C275 1.338 . S
C274 N277 1.377 . S
C274 H294 0.930 . S
C275 N273 1.375 . S
C275 C274 1.338 . S
C275 H279 0.931 . S
C276 N273 1.313 . S
C276 N277 1.344 . S
C276 H280 0.930 . S
N277 C274 1.377 . S
N277 C276 1.344 . S
O278 Co270 2.055 . S
O278 C282 1.253 . S
H279 C275 0.931 . S
H280 C276 0.930 . S
O281 Co270 2.039 . S
O281 C271 1.265 . S
C282 O278 1.253 . S
C282 O283 1.227 . S
O283 C282 1.227 . S
N284 Co270 2.140 . S
N284 C287 1.346 . S
N284 C288 1.345 . S
C285 C286 1.387 . S
C285 C289 1.391 . S
C286 C285 1.387 . S
C286 C287 1.369 . S
C286 H295 0.929 . S
C287 N284 1.346 . S
C287 C286 1.369 . S
C287 H290 0.928 . S
C288 N284 1.345 . S
C288 C289 1.371 . S
C288 H291 0.931 . S
C289 C285 1.391 . S
C289 C288 1.371 . S
C289 H296 0.930 . S
H290 C287 0.928 . S
H291 C288 0.931 . S
H292 C268 0.930 1_554 S
H293 C265 0.930 . S
H294 C274 0.930 . S
H295 C286 0.929 . S
H296 C289 0.930 . S
C297 C298 1.351 . S
C297 N300 1.368 . S
C297 H302 0.931 . S
C298 C297 1.351 . S
C298 N299 1.373 . S
C298 H326 0.930 . S
N299 C298 1.373 . S
N299 C301 1.340 . S
N300 C297 1.368 . S
N300 C301 1.321 . S
N300 Co303 2.135 . S
C301 N299 1.340 . S
C301 N300 1.321 . S
C301 H325 0.930 . S
H302 C297 0.931 . S
Co303 N300 2.135 . S
Co303 N306 2.121 . S
Co303 O311 2.055 . S
Co303 O314 2.039 . S
Co303 N317 2.140 . S
C304 O305 1.227 . S
C304 O314 1.265 . S
O305 C304 1.227 . S
N306 Co303 2.121 . S
N306 C308 1.375 . S
N306 C309 1.313 . S
C307 C308 1.338 . S
C307 N310 1.377 . S
C307 H327 0.930 . S
C308 N306 1.375 . S
C308 C307 1.338 . S
C308 H312 0.931 . S
C309 N306 1.313 . S
C309 N310 1.344 . S
C309 H313 0.930 . S
N310 C307 1.377 . S
N310 C309 1.344 . S
O311 Co303 2.055 . S
O311 C315 1.253 . S
H312 C308 0.931 . S
H313 C309 0.930 . S
O314 Co303 2.039 . S
O314 C304 1.265 . S
C315 O311 1.253 . S
C315 O316 1.227 . S
O316 C315 1.227 . S
N317 Co303 2.140 . S
N317 C320 1.346 . S
N317 C321 1.345 . S
C318 C319 1.387 . S
C318 C322 1.391 . S
C319 C318 1.387 . S
C319 C320 1.369 . S
C319 H328 0.929 . S
C320 N317 1.346 . S
C320 C319 1.369 . S
C320 H323 0.928 . S
C321 N317 1.345 . S
C321 C322 1.371 . S
C321 H324 0.931 . S
C322 C318 1.391 . S
C322 C321 1.371 . S
C322 H329 0.930 . S
H323 C320 0.928 . S
H324 C321 0.931 . S
H325 C301 0.930 . S
H326 C298 0.930 . S
H327 C307 0.930 . S
H328 C319 0.929 . S
H329 C322 0.930 . S
C330 C331 1.351 . S
C330 N333 1.368 . S
C330 H335 0.931 . S
C331 C330 1.351 . S
C331 N332 1.373 . S
C331 H359 0.930 . S
N332 C331 1.373 . S
N332 C334 1.340 . S
N333 C330 1.368 . S
N333 C334 1.321 . S
N333 Co336 2.135 . S
C334 N332 1.340 . S
C334 N333 1.321 . S
C334 H358 0.930 . S
H335 C330 0.931 . S
Co336 N333 2.135 . S
Co336 N339 2.121 . S
Co336 O344 2.055 . S
Co336 O347 2.039 . S
Co336 N350 2.140 . S
C337 O338 1.227 . S
C337 O347 1.265 . S
O338 C337 1.227 . S
N339 Co336 2.121 . S
N339 C341 1.375 . S
N339 C342 1.313 . S
C340 C341 1.338 . S
C340 N343 1.377 . S
C340 H360 0.930 . S
C341 N339 1.375 . S
C341 C340 1.338 . S
C341 H345 0.931 . S
C342 N339 1.313 . S
C342 N343 1.344 . S
C342 H346 0.930 . S
N343 C340 1.377 . S
N343 C342 1.344 . S
O344 Co336 2.055 . S
O344 C348 1.253 . S
H345 C341 0.931 . S
H346 C342 0.930 . S
O347 Co336 2.039 . S
O347 C337 1.265 . S
C348 O344 1.253 . S
C348 O349 1.227 . S
O349 C348 1.227 . S
N350 Co336 2.140 . S
N350 C353 1.346 . S
N350 C354 1.345 . S
C351 C352 1.387 . S
C351 C355 1.391 . S
C352 C351 1.387 . S
C352 C353 1.369 . S
C352 H361 0.929 . S
C353 N350 1.346 . S
C353 C352 1.369 . S
C353 H356 0.928 . S
C354 N350 1.345 . S
C354 C355 1.371 . S
C354 H357 0.931 . S
C355 C351 1.391 . S
C355 C354 1.371 . S
C355 H362 0.930 . S
H356 C353 0.928 . S
H357 C354 0.931 . S
H358 C334 0.930 . S
H359 C331 0.930 . S
H360 C340 0.930 . S
H361 C352 0.929 . S
H362 C355 0.930 . S
C363 C364 1.351 . S
C363 N366 1.368 . S
C363 H368 0.931 . S
C364 C363 1.351 . S
C364 N365 1.373 . S
C364 H392 0.930 . S
N365 C364 1.373 . S
N365 C367 1.340 . S
N366 C363 1.368 . S
N366 C367 1.321 . S
N366 Co369 2.135 . S
C367 N365 1.340 . S
C367 N366 1.321 . S
C367 H391 0.930 . S
H368 C363 0.931 . S
Co369 N366 2.135 . S
Co369 N372 2.121 . S
Co369 O377 2.055 . S
Co369 O380 2.039 . S
Co369 N383 2.140 . S
C370 O371 1.227 . S
C370 O380 1.265 . S
O371 C370 1.227 . S
N372 Co369 2.121 . S
N372 C374 1.375 . S
N372 C375 1.313 . S
C373 C374 1.338 . S
C373 N376 1.377 . S
C373 H393 0.930 . S
C374 N372 1.375 . S
C374 C373 1.338 . S
C374 H378 0.931 . S
C375 N372 1.313 . S
C375 N376 1.344 . S
C375 H379 0.930 . S
N376 C373 1.377 . S
N376 C375 1.344 . S
O377 Co369 2.055 . S
O377 C381 1.253 . S
H378 C374 0.931 . S
H379 C375 0.930 . S
O380 Co369 2.039 . S
O380 C370 1.265 . S
C381 O377 1.253 . S
C381 O382 1.227 . S
O382 C381 1.227 . S
N383 Co369 2.140 . S
N383 C386 1.346 . S
N383 C387 1.345 . S
C384 C385 1.387 . S
C384 C388 1.391 . S
C385 C384 1.387 . S
C385 C386 1.369 . S
C385 H394 0.929 . S
C386 N383 1.346 . S
C386 C385 1.369 . S
C386 H389 0.928 . S
C387 N383 1.345 . S
C387 C388 1.371 . S
C387 H390 0.931 . S
C388 C384 1.391 . S
C388 C387 1.371 . S
C388 H395 0.930 . S
H389 C386 0.928 . S
H390 C387 0.931 . S
H391 C367 0.930 . S
H392 C364 0.930 . S
H393 C373 0.930 . S
H394 C385 0.929 . S
H395 C388 0.930 . S
C396 C397 1.351 . S
C396 N399 1.368 . S
C396 H401 0.931 . S
C397 C396 1.351 . S
C397 N398 1.373 . S
C397 H425 0.930 1_655 S
N398 C397 1.373 . S
N398 C400 1.340 . S
N399 C396 1.368 . S
N399 C400 1.321 . S
N399 Co402 2.135 . S
C400 N398 1.340 . S
C400 N399 1.321 . S
C400 H424 0.930 . S
H401 C396 0.931 . S
Co402 N399 2.135 . S
Co402 N405 2.121 . S
Co402 O410 2.055 . S
Co402 O413 2.039 . S
Co402 N416 2.140 . S
C403 O404 1.227 . S
C403 O413 1.265 . S
O404 C403 1.227 . S
N405 Co402 2.121 . S
N405 C407 1.375 . S
N405 C408 1.313 . S
C406 C407 1.338 . S
C406 N409 1.377 . S
C406 H426 0.930 . S
C407 N405 1.375 . S
C407 C406 1.338 . S
C407 H411 0.931 . S
C408 N405 1.313 . S
C408 N409 1.344 . S
C408 H412 0.930 . S
N409 C406 1.377 . S
N409 C408 1.344 . S
O410 Co402 2.055 . S
O410 C414 1.253 . S
H411 C407 0.931 . S
H412 C408 0.930 . S
O413 Co402 2.039 . S
O413 C403 1.265 . S
C414 O410 1.253 . S
C414 O415 1.227 . S
O415 C414 1.227 . S
N416 Co402 2.140 . S
N416 C419 1.346 . S
N416 C420 1.345 . S
C417 C418 1.387 . S
C417 C421 1.391 . S
C418 C417 1.387 . S
C418 C419 1.369 . S
C418 H427 0.929 . S
C419 N416 1.346 . S
C419 C418 1.369 . S
C419 H422 0.928 . S
C420 N416 1.345 . S
C420 C421 1.371 . S
C420 H423 0.931 . S
C421 C417 1.391 . S
C421 C420 1.371 . S
C421 H428 0.930 . S
H422 C419 0.928 . S
H423 C420 0.931 . S
H424 C400 0.930 . S
H425 C397 0.930 1_455 S
H426 C406 0.930 . S
H427 C418 0.929 . S
H428 C421 0.930 . S
C429 C430 1.351 . S
C429 N432 1.368 . S
C429 H434 0.931 . S
C430 C429 1.351 . S
C430 N431 1.373 . S
C430 H458 0.930 . S
N431 C430 1.373 . S
N431 C433 1.340 . S
N432 C429 1.368 . S
N432 C433 1.321 . S
N432 Co435 2.135 . S
C433 N431 1.340 . S
C433 N432 1.321 . S
C433 H457 0.930 . S
H434 C429 0.931 . S
Co435 N432 2.135 . S
Co435 N438 2.121 . S
Co435 O443 2.055 . S
Co435 O446 2.039 . S
Co435 N449 2.140 . S
C436 O437 1.227 . S
C436 O446 1.265 . S
O437 C436 1.227 . S
N438 Co435 2.121 . S
N438 C440 1.375 . S
N438 C441 1.313 . S
C439 C440 1.338 . S
C439 N442 1.377 . S
C439 H459 0.930 . S
C440 N438 1.375 . S
C440 C439 1.338 . S
C440 H444 0.931 . S
C441 N438 1.313 . S
C441 N442 1.344 . S
C441 H445 0.930 . S
N442 C439 1.377 . S
N442 C441 1.344 . S
O443 Co435 2.055 . S
O443 C447 1.253 . S
H444 C440 0.931 . S
H445 C441 0.930 . S
O446 Co435 2.039 . S
O446 C436 1.265 . S
C447 O443 1.253 . S
C447 O448 1.227 . S
O448 C447 1.227 . S
N449 Co435 2.140 . S
N449 C452 1.346 . S
N449 C453 1.345 . S
C450 C451 1.387 . S
C450 C454 1.391 . S
C451 C450 1.387 . S
C451 C452 1.369 . S
C451 H460 0.929 . S
C452 N449 1.346 . S
C452 C451 1.369 . S
C452 H455 0.928 . S
C453 N449 1.345 . S
C453 C454 1.371 . S
C453 H456 0.931 . S
C454 C450 1.391 . S
C454 C453 1.371 . S
C454 H461 0.930 . S
H455 C452 0.928 . S
H456 C453 0.931 . S
H457 C433 0.930 . S
H458 C430 0.930 . S
H459 C439 0.930 . S
H460 C451 0.929 . S
H461 C454 0.930 . S
C462 C463 1.351 . S
C462 N465 1.368 . S
C462 H467 0.931 . S
C463 C462 1.351 . S
C463 N464 1.373 . S
C463 H491 0.930 1_545 S
N464 C463 1.373 . S
N464 C466 1.340 . S
N465 C462 1.368 . S
N465 C466 1.321 . S
N465 Co468 2.135 . S
C466 N464 1.340 . S
C466 N465 1.321 . S
C466 H490 0.930 . S
H467 C462 0.931 . S
Co468 N465 2.135 . S
Co468 N471 2.121 . S
Co468 O476 2.055 . S
Co468 O479 2.039 . S
Co468 N482 2.140 . S
C469 O470 1.227 . S
C469 O479 1.265 . S
O470 C469 1.227 . S
N471 Co468 2.121 . S
N471 C473 1.375 . S
N471 C474 1.313 . S
C472 C473 1.338 . S
C472 N475 1.377 . S
C472 H492 0.930 . S
C473 N471 1.375 . S
C473 C472 1.338 . S
C473 H477 0.931 . S
C474 N471 1.313 . S
C474 N475 1.344 . S
C474 H478 0.930 . S
N475 C472 1.377 . S
N475 C474 1.344 . S
O476 Co468 2.055 . S
O476 C480 1.253 . S
H477 C473 0.931 . S
H478 C474 0.930 . S
O479 Co468 2.039 . S
O479 C469 1.265 . S
C480 O476 1.253 . S
C480 O481 1.227 . S
O481 C480 1.227 . S
N482 Co468 2.140 . S
N482 C485 1.346 . S
N482 C486 1.345 . S
C483 C484 1.387 . S
C483 C487 1.391 . S
C484 C483 1.387 . S
C484 C485 1.369 . S
C484 H493 0.929 . S
C485 N482 1.346 . S
C485 C484 1.369 . S
C485 H488 0.928 . S
C486 N482 1.345 . S
C486 C487 1.371 . S
C486 H489 0.931 . S
C487 C483 1.391 . S
C487 C486 1.371 . S
C487 H494 0.930 . S
H488 C485 0.928 . S
H489 C486 0.931 . S
H490 C466 0.930 . S
H491 C463 0.930 1_565 S
H492 C472 0.930 . S
H493 C484 0.929 . S
H494 C487 0.930 . S
C495 C496 1.351 . S
C495 N498 1.368 . S
C495 H500 0.931 . S
C496 C495 1.351 . S
C496 N497 1.373 . S
C496 H524 0.930 . S
N497 C496 1.373 . S
N497 C499 1.340 . S
N498 C495 1.368 . S
N498 C499 1.321 . S
N498 Co501 2.135 . S
C499 N497 1.340 . S
C499 N498 1.321 . S
C499 H523 0.930 . S
H500 C495 0.931 . S
Co501 N498 2.135 . S
Co501 N504 2.121 . S
Co501 O509 2.055 . S
Co501 O512 2.039 . S
Co501 N515 2.140 . S
C502 O503 1.227 . S
C502 O512 1.265 . S
O503 C502 1.227 . S
N504 Co501 2.121 . S
N504 C506 1.375 . S
N504 C507 1.313 . S
C505 C506 1.338 . S
C505 N508 1.377 . S
C505 H525 0.930 . S
C506 N504 1.375 . S
C506 C505 1.338 . S
C506 H510 0.931 . S
C507 N504 1.313 . S
C507 N508 1.344 . S
C507 H511 0.930 . S
N508 C505 1.377 . S
N508 C507 1.344 . S
O509 Co501 2.055 . S
O509 C513 1.253 . S
H510 C506 0.931 . S
H511 C507 0.930 . S
O512 Co501 2.039 . S
O512 C502 1.265 . S
C513 O509 1.253 . S
C513 O514 1.227 . S
O514 C513 1.227 . S
N515 Co501 2.140 . S
N515 C518 1.346 . S
N515 C519 1.345 . S
C516 C517 1.387 . S
C516 C520 1.391 . S
C517 C516 1.387 . S
C517 C518 1.369 . S
C517 H526 0.929 . S
C518 N515 1.346 . S
C518 C517 1.369 . S
C518 H521 0.928 . S
C519 N515 1.345 . S
C519 C520 1.371 . S
C519 H522 0.931 . S
C520 C516 1.391 . S
C520 C519 1.371 . S
C520 H527 0.930 . S
H521 C518 0.928 . S
H522 C519 0.931 . S
H523 C499 0.930 . S
H524 C496 0.930 . S
H525 C505 0.930 . S
H526 C517 0.929 . S
H527 C520 0.930 . S
C528 C529 1.351 . S
C528 N531 1.368 . S
C528 H533 0.931 . S
C529 C528 1.351 . S
C529 N530 1.373 . S
C529 H557 0.930 . S
N530 C529 1.373 . S
N530 C532 1.340 . S
N531 C528 1.368 . S
N531 C532 1.321 . S
N531 Co534 2.135 . S
C532 N530 1.340 . S
C532 N531 1.321 . S
C532 H556 0.930 . S
H533 C528 0.931 . S
Co534 N531 2.135 . S
Co534 N537 2.121 . S
Co534 O542 2.055 . S
Co534 O545 2.039 . S
Co534 N548 2.140 . S
C535 O536 1.227 . S
C535 O545 1.265 . S
O536 C535 1.227 . S
N537 Co534 2.121 . S
N537 C539 1.375 . S
N537 C540 1.313 . S
C538 C539 1.338 . S
C538 N541 1.377 . S
C538 H558 0.930 . S
C539 N537 1.375 . S
C539 C538 1.338 . S
C539 H543 0.931 . S
C540 N537 1.313 . S
C540 N541 1.344 . S
C540 H544 0.930 . S
N541 C538 1.377 . S
N541 C540 1.344 . S
O542 Co534 2.055 . S
O542 C546 1.253 . S
H543 C539 0.931 . S
H544 C540 0.930 . S
O545 Co534 2.039 . S
O545 C535 1.265 . S
C546 O542 1.253 . S
C546 O547 1.227 . S
O547 C546 1.227 . S
N548 Co534 2.140 . S
N548 C551 1.346 . S
N548 C552 1.345 . S
C549 C550 1.387 . S
C549 C553 1.391 . S
C550 C549 1.387 . S
C550 C551 1.369 . S
C550 H559 0.929 . S
C551 N548 1.346 . S
C551 C550 1.369 . S
C551 H554 0.928 . S
C552 N548 1.345 . S
C552 C553 1.371 . S
C552 H555 0.931 . S
C553 C549 1.391 . S
C553 C552 1.371 . S
C553 H560 0.930 . S
H554 C551 0.928 . S
H555 C552 0.931 . S
H556 C532 0.930 . S
H557 C529 0.930 . S
H558 C538 0.930 . S
H559 C550 0.929 . S
H560 C553 0.930 . S
C561 C562 1.351 . S
C561 N564 1.368 . S
C561 H566 0.931 . S
C562 C561 1.351 . S
C562 N563 1.373 . S
C562 H590 0.930 . S
N563 C562 1.373 . S
N563 C565 1.340 . S
N564 C561 1.368 . S
N564 C565 1.321 . S
N564 Co567 2.135 . S
C565 N563 1.340 . S
C565 N564 1.321 . S
C565 H589 0.930 . S
H566 C561 0.931 . S
Co567 N564 2.135 . S
Co567 N570 2.121 . S
Co567 O575 2.055 . S
Co567 O578 2.039 . S
Co567 N581 2.140 . S
C568 O569 1.227 . S
C568 O578 1.265 . S
O569 C568 1.227 . S
N570 Co567 2.121 . S
N570 C572 1.375 . S
N570 C573 1.313 . S
C571 C572 1.338 . S
C571 N574 1.377 . S
C571 H591 0.930 . S
C572 N570 1.375 . S
C572 C571 1.338 . S
C572 H576 0.931 . S
C573 N570 1.313 . S
C573 N574 1.344 . S
C573 H577 0.930 . S
N574 C571 1.377 . S
N574 C573 1.344 . S
O575 Co567 2.055 . S
O575 C579 1.253 . S
H576 C572 0.931 . S
H577 C573 0.930 . S
O578 Co567 2.039 . S
O578 C568 1.265 . S
C579 O575 1.253 . S
C579 O580 1.227 . S
O580 C579 1.227 . S
N581 Co567 2.140 . S
N581 C584 1.346 . S
N581 C585 1.345 . S
C582 C583 1.387 . S
C582 C586 1.391 . S
C583 C582 1.387 . S
C583 C584 1.369 . S
C583 H592 0.929 . S
C584 N581 1.346 . S
C584 C583 1.369 . S
C584 H587 0.928 . S
C585 N581 1.345 . S
C585 C586 1.371 . S
C585 H588 0.931 . S
C586 C582 1.391 . S
C586 C585 1.371 . S
C586 H593 0.930 . S
H587 C584 0.928 . S
H588 C585 0.931 . S
H589 C565 0.930 . S
H590 C562 0.930 . S
H591 C571 0.930 . S
H592 C583 0.929 . S
H593 C586 0.930 . S
C594 C595 1.351 . S
C594 N597 1.368 . S
C594 H599 0.931 . S
C595 C594 1.351 . S
C595 N596 1.373 . S
C595 H623 0.930 . S
N596 C595 1.373 . S
N596 C598 1.340 . S
N597 C594 1.368 . S
N597 C598 1.321 . S
N597 Co600 2.135 . S
C598 N596 1.340 . S
C598 N597 1.321 . S
C598 H622 0.930 . S
H599 C594 0.931 . S
Co600 N597 2.135 . S
Co600 N603 2.121 . S
Co600 O608 2.055 . S
Co600 O611 2.039 . S
Co600 N614 2.140 . S
C601 O602 1.227 . S
C601 O611 1.265 . S
O602 C601 1.227 . S
N603 Co600 2.121 . S
N603 C605 1.375 . S
N603 C606 1.313 . S
C604 C605 1.338 . S
C604 N607 1.377 . S
C604 H624 0.930 . S
C605 N603 1.375 . S
C605 C604 1.338 . S
C605 H609 0.931 . S
C606 N603 1.313 . S
C606 N607 1.344 . S
C606 H610 0.930 . S
N607 C604 1.377 . S
N607 C606 1.344 . S
O608 Co600 2.055 . S
O608 C612 1.253 . S
H609 C605 0.931 . S
H610 C606 0.930 . S
O611 Co600 2.039 . S
O611 C601 1.265 . S
C612 O608 1.253 . S
C612 O613 1.227 . S
O613 C612 1.227 . S
N614 Co600 2.140 . S
N614 C617 1.346 . S
N614 C618 1.345 . S
C615 C616 1.387 . S
C615 C619 1.391 . S
C616 C615 1.387 . S
C616 C617 1.369 . S
C616 H625 0.929 . S
C617 N614 1.346 . S
C617 C616 1.369 . S
C617 H620 0.928 . S
C618 N614 1.345 . S
C618 C619 1.371 . S
C618 H621 0.931 . S
C619 C615 1.391 . S
C619 C618 1.371 . S
C619 H626 0.930 . S
H620 C617 0.928 . S
H621 C618 0.931 . S
H622 C598 0.930 . S
H623 C595 0.930 . S
H624 C604 0.930 . S
H625 C616 0.929 . S
H626 C619 0.930 . S
C627 C628 1.351 . S
C627 N630 1.368 . S
C627 H632 0.931 . S
C628 C627 1.351 . S
C628 N629 1.373 . S
C628 H656 0.930 . S
N629 C628 1.373 . S
N629 C631 1.340 . S
N630 C627 1.368 . S
N630 C631 1.321 . S
N630 Co633 2.135 . S
C631 N629 1.340 . S
C631 N630 1.321 . S
C631 H655 0.930 . S
H632 C627 0.931 . S
Co633 N630 2.135 . S
Co633 N636 2.121 . S
Co633 O641 2.055 . S
Co633 O644 2.039 . S
Co633 N647 2.140 . S
C634 O635 1.227 . S
C634 O644 1.265 . S
O635 C634 1.227 . S
N636 Co633 2.121 . S
N636 C638 1.375 . S
N636 C639 1.313 . S
C637 C638 1.338 . S
C637 N640 1.377 . S
C637 H657 0.930 . S
C638 N636 1.375 . S
C638 C637 1.338 . S
C638 H642 0.931 . S
C639 N636 1.313 . S
C639 N640 1.344 . S
C639 H643 0.930 . S
N640 C637 1.377 . S
N640 C639 1.344 . S
O641 Co633 2.055 . S
O641 C645 1.253 . S
H642 C638 0.931 . S
H643 C639 0.930 . S
O644 Co633 2.039 . S
O644 C634 1.265 . S
C645 O641 1.253 . S
C645 O646 1.227 . S
O646 C645 1.227 . S
N647 Co633 2.140 . S
N647 C650 1.346 . S
N647 C651 1.345 . S
C648 C649 1.387 . S
C648 C652 1.391 . S
C649 C648 1.387 . S
C649 C650 1.369 . S
C649 H658 0.929 . S
C650 N647 1.346 . S
C650 C649 1.369 . S
C650 H653 0.928 . S
C651 N647 1.345 . S
C651 C652 1.371 . S
C651 H654 0.931 . S
C652 C648 1.391 . S
C652 C651 1.371 . S
C652 H659 0.930 . S
H653 C650 0.928 . S
H654 C651 0.931 . S
H655 C631 0.930 . S
H656 C628 0.930 . S
H657 C637 0.930 . S
H658 C649 0.929 . S
H659 C652 0.930 . S
C660 C661 1.351 . S
C660 N663 1.368 . S
C660 H665 0.931 . S
C661 C660 1.351 . S
C661 N662 1.373 . S
C661 H689 0.930 . S
N662 C661 1.373 . S
N662 C664 1.340 . S
N663 C660 1.368 . S
N663 C664 1.321 . S
N663 Co666 2.135 . S
C664 N662 1.340 . S
C664 N663 1.321 . S
C664 H688 0.930 . S
H665 C660 0.931 . S
Co666 N663 2.135 . S
Co666 N669 2.121 . S
Co666 O674 2.055 . S
Co666 O677 2.039 . S
Co666 N680 2.140 . S
C667 O668 1.227 . S
C667 O677 1.265 . S
O668 C667 1.227 . S
N669 Co666 2.121 . S
N669 C671 1.375 . S
N669 C672 1.313 . S
C670 C671 1.338 . S
C670 N673 1.377 . S
C670 H690 0.930 . S
C671 N669 1.375 . S
C671 C670 1.338 . S
C671 H675 0.931 . S
C672 N669 1.313 . S
C672 N673 1.344 . S
C672 H676 0.930 . S
N673 C670 1.377 . S
N673 C672 1.344 . S
O674 Co666 2.055 . S
O674 C678 1.253 . S
H675 C671 0.931 . S
H676 C672 0.930 . S
O677 Co666 2.039 . S
O677 C667 1.265 . S
C678 O674 1.253 . S
C678 O679 1.227 . S
O679 C678 1.227 . S
N680 Co666 2.140 . S
N680 C683 1.346 . S
N680 C684 1.345 . S
C681 C682 1.387 . S
C681 C685 1.391 . S
C682 C681 1.387 . S
C682 C683 1.369 . S
C682 H691 0.929 . S
C683 N680 1.346 . S
C683 C682 1.369 . S
C683 H686 0.928 . S
C684 N680 1.345 . S
C684 C685 1.371 . S
C684 H687 0.931 . S
C685 C681 1.391 . S
C685 C684 1.371 . S
C685 H692 0.930 . S
H686 C683 0.928 . S
H687 C684 0.931 . S
H688 C664 0.930 . S
H689 C661 0.930 . S
H690 C670 0.930 . S
H691 C682 0.929 . S
H692 C685 0.930 . S
C693 C694 1.351 . S
C693 N696 1.368 . S
C693 H698 0.931 . S
C694 C693 1.351 . S
C694 N695 1.373 . S
C694 H722 0.930 1_545 S
N695 C694 1.373 . S
N695 C697 1.340 . S
N696 C693 1.368 . S
N696 C697 1.321 . S
N696 Co699 2.135 . S
C697 N695 1.340 . S
C697 N696 1.321 . S
C697 H721 0.930 . S
H698 C693 0.931 . S
Co699 N696 2.135 . S
Co699 N702 2.121 1_556 S
Co699 O707 2.055 . S
Co699 O710 2.039 . S
Co699 N713 2.140 . S
C700 O701 1.227 . S
C700 O710 1.265 . S
O701 C700 1.227 . S
N702 Co699 2.121 1_554 S
N702 C704 1.375 . S
N702 C705 1.313 . S
C703 C704 1.338 . S
C703 N706 1.377 . S
C703 H723 0.930 . S
C704 N702 1.375 . S
C704 C703 1.338 . S
C704 H708 0.931 1_554 S
C705 N702 1.313 . S
C705 N706 1.344 . S
C705 H709 0.930 . S
N706 C703 1.377 . S
N706 C705 1.344 . S
O707 Co699 2.055 . S
O707 C711 1.253 1_556 S
H708 C704 0.931 1_556 S
H709 C705 0.930 . S
O710 Co699 2.039 . S
O710 C700 1.265 . S
C711 O707 1.253 1_554 S
C711 O712 1.227 . S
O712 C711 1.227 . S
N713 Co699 2.140 . S
N713 C716 1.346 . S
N713 C717 1.345 1_556 S
C714 C715 1.387 1_554 S
C714 C718 1.391 . S
C715 C714 1.387 1_556 S
C715 C716 1.369 . S
C715 H724 0.929 . S
C716 N713 1.346 . S
C716 C715 1.369 . S
C716 H719 0.928 . S
C717 N713 1.345 1_554 S
C717 C718 1.371 . S
C717 H720 0.931 . S
C718 C714 1.391 . S
C718 C717 1.371 . S
C718 H725 0.930 . S
H719 C716 0.928 . S
H720 C717 0.931 . S
H721 C697 0.930 . S
H722 C694 0.930 1_565 S
H723 C703 0.930 . S
H724 C715 0.929 . S
H725 C718 0.930 . S
C726 C727 1.351 . S
C726 N729 1.368 . S
C726 H731 0.931 . S
C727 C726 1.351 . S
C727 N728 1.373 . S
C727 H755 0.930 1_655 S
N728 C727 1.373 . S
N728 C730 1.340 . S
N729 C726 1.368 . S
N729 C730 1.321 . S
N729 Co732 2.135 . S
C730 N728 1.340 . S
C730 N729 1.321 . S
C730 H754 0.930 . S
H731 C726 0.931 . S
Co732 N729 2.135 . S
Co732 N735 2.121 1_556 S
Co732 O740 2.055 . S
Co732 O743 2.039 . S
Co732 N746 2.140 . S
C733 O734 1.227 . S
C733 O743 1.265 . S
O734 C733 1.227 . S
N735 Co732 2.121 1_554 S
N735 C737 1.375 . S
N735 C738 1.313 . S
C736 C737 1.338 . S
C736 N739 1.377 . S
C736 H756 0.930 . S
C737 N735 1.375 . S
C737 C736 1.338 . S
C737 H741 0.931 1_554 S
C738 N735 1.313 . S
C738 N739 1.344 . S
C738 H742 0.930 . S
N739 C736 1.377 . S
N739 C738 1.344 . S
O740 Co732 2.055 . S
O740 C744 1.253 1_556 S
H741 C737 0.931 1_556 S
H742 C738 0.930 . S
O743 Co732 2.039 . S
O743 C733 1.265 . S
C744 O740 1.253 1_554 S
C744 O745 1.227 . S
O745 C744 1.227 . S
N746 Co732 2.140 . S
N746 C749 1.346 . S
N746 C750 1.345 1_556 S
C747 C748 1.387 1_554 S
C747 C751 1.391 . S
C748 C747 1.387 1_556 S
C748 C749 1.369 . S
C748 H757 0.929 . S
C749 N746 1.346 . S
C749 C748 1.369 . S
C749 H752 0.928 . S
C750 N746 1.345 1_554 S
C750 C751 1.371 . S
C750 H753 0.931 . S
C751 C747 1.391 . S
C751 C750 1.371 . S
C751 H758 0.930 . S
H752 C749 0.928 . S
H753 C750 0.931 . S
H754 C730 0.930 . S
H755 C727 0.930 1_455 S
H756 C736 0.930 . S
H757 C748 0.929 . S
H758 C751 0.930 . S
C759 C760 1.351 . S
C759 N762 1.368 . S
C759 H764 0.931 . S
C760 C759 1.351 . S
C760 N761 1.373 . S
C760 H788 0.930 . S
N761 C760 1.373 . S
N761 C763 1.340 . S
N762 C759 1.368 . S
N762 C763 1.321 . S
N762 Co765 2.135 . S
C763 N761 1.340 . S
C763 N762 1.321 . S
C763 H787 0.930 . S
H764 C759 0.931 . S
Co765 N762 2.135 . S
Co765 N768 2.121 1_556 S
Co765 O773 2.055 . S
Co765 O776 2.039 . S
Co765 N779 2.140 . S
C766 O767 1.227 . S
C766 O776 1.265 . S
O767 C766 1.227 . S
N768 Co765 2.121 1_554 S
N768 C770 1.375 . S
N768 C771 1.313 . S
C769 C770 1.338 . S
C769 N772 1.377 . S
C769 H789 0.930 . S
C770 N768 1.375 . S
C770 C769 1.338 . S
C770 H774 0.931 1_554 S
C771 N768 1.313 . S
C771 N772 1.344 . S
C771 H775 0.930 . S
N772 C769 1.377 . S
N772 C771 1.344 . S
O773 Co765 2.055 . S
O773 C777 1.253 1_556 S
H774 C770 0.931 1_556 S
H775 C771 0.930 . S
O776 Co765 2.039 . S
O776 C766 1.265 . S
C777 O773 1.253 1_554 S
C777 O778 1.227 . S
O778 C777 1.227 . S
N779 Co765 2.140 . S
N779 C782 1.346 . S
N779 C783 1.345 1_556 S
C780 C781 1.387 1_554 S
C780 C784 1.391 . S
C781 C780 1.387 1_556 S
C781 C782 1.369 . S
C781 H790 0.929 . S
C782 N779 1.346 . S
C782 C781 1.369 . S
C782 H785 0.928 . S
C783 N779 1.345 1_554 S
C783 C784 1.371 . S
C783 H786 0.931 . S
C784 C780 1.391 . S
C784 C783 1.371 . S
C784 H791 0.930 . S
H785 C782 0.928 . S
H786 C783 0.931 . S
H787 C763 0.930 . S
H788 C760 0.930 . S
H789 C769 0.930 . S
H790 C781 0.929 . S
H791 C784 0.930 . S
C792 C793 1.351 . S
C792 N795 1.368 . S
C792 H797 0.931 . S
C793 C792 1.351 . S
C793 N794 1.373 . S
C793 H821 0.930 . S
N794 C793 1.373 . S
N794 C796 1.340 . S
N795 C792 1.368 . S
N795 C796 1.321 . S
N795 Co798 2.135 . S
C796 N794 1.340 . S
C796 N795 1.321 . S
C796 H820 0.930 . S
H797 C792 0.931 . S
Co798 N795 2.135 . S
Co798 N801 2.121 . S
Co798 O806 2.055 . S
Co798 O809 2.039 . S
Co798 N812 2.140 . S
C799 O800 1.227 . S
C799 O809 1.265 . S
O800 C799 1.227 . S
N801 Co798 2.121 . S
N801 C803 1.375 . S
N801 C804 1.313 . S
C802 C803 1.338 . S
C802 N805 1.377 . S
C802 H822 0.930 . S
C803 N801 1.375 . S
C803 C802 1.338 . S
C803 H807 0.931 . S
C804 N801 1.313 . S
C804 N805 1.344 . S
C804 H808 0.930 . S
N805 C802 1.377 . S
N805 C804 1.344 . S
O806 Co798 2.055 . S
O806 C810 1.253 . S
H807 C803 0.931 . S
H808 C804 0.930 . S
O809 Co798 2.039 . S
O809 C799 1.265 . S
C810 O806 1.253 . S
C810 O811 1.227 . S
O811 C810 1.227 . S
N812 Co798 2.140 . S
N812 C815 1.346 . S
N812 C816 1.345 . S
C813 C814 1.387 . S
C813 C817 1.391 . S
C814 C813 1.387 . S
C814 C815 1.369 . S
C814 H823 0.929 . S
C815 N812 1.346 . S
C815 C814 1.369 . S
C815 H818 0.928 . S
C816 N812 1.345 . S
C816 C817 1.371 . S
C816 H819 0.931 . S
C817 C813 1.391 . S
C817 C816 1.371 . S
C817 H824 0.930 . S
H818 C815 0.928 . S
H819 C816 0.931 . S
H820 C796 0.930 . S
H821 C793 0.930 . S
H822 C802 0.930 . S
H823 C814 0.929 . S
H824 C817 0.930 . S
C825 C826 1.351 . S
C825 N828 1.368 . S
C825 H830 0.931 . S
C826 C825 1.351 . S
C826 N827 1.373 . S
C826 H854 0.930 . S
N827 C826 1.373 . S
N827 C829 1.340 . S
N828 C825 1.368 . S
N828 C829 1.321 . S
N828 Co831 2.135 . S
C829 N827 1.340 . S
C829 N828 1.321 . S
C829 H853 0.930 . S
H830 C825 0.931 . S
Co831 N828 2.135 . S
Co831 N834 2.121 . S
Co831 O839 2.055 . S
Co831 O842 2.039 . S
Co831 N845 2.140 . S
C832 O833 1.227 . S
C832 O842 1.265 . S
O833 C832 1.227 . S
N834 Co831 2.121 . S
N834 C836 1.375 . S
N834 C837 1.313 . S
C835 C836 1.338 . S
C835 N838 1.377 . S
C835 H855 0.930 . S
C836 N834 1.375 . S
C836 C835 1.338 . S
C836 H840 0.931 . S
C837 N834 1.313 . S
C837 N838 1.344 . S
C837 H841 0.930 . S
N838 C835 1.377 . S
N838 C837 1.344 . S
O839 Co831 2.055 . S
O839 C843 1.253 . S
H840 C836 0.931 . S
H841 C837 0.930 . S
O842 Co831 2.039 . S
O842 C832 1.265 . S
C843 O839 1.253 . S
C843 O844 1.227 . S
O844 C843 1.227 . S
N845 Co831 2.140 . S
N845 C848 1.346 . S
N845 C849 1.345 . S
C846 C847 1.387 . S
C846 C850 1.391 . S
C847 C846 1.387 . S
C847 C848 1.369 . S
C847 H856 0.929 . S
C848 N845 1.346 . S
C848 C847 1.369 . S
C848 H851 0.928 . S
C849 N845 1.345 . S
C849 C850 1.371 . S
C849 H852 0.931 . S
C850 C846 1.391 . S
C850 C849 1.371 . S
C850 H857 0.930 . S
H851 C848 0.928 . S
H852 C849 0.931 . S
H853 C829 0.930 . S
H854 C826 0.930 . S
H855 C835 0.930 . S
H856 C847 0.929 . S
H857 C850 0.930 . S
C858 C859 1.351 . S
C858 N861 1.368 . S
C858 H863 0.931 . S
C859 C858 1.351 . S
C859 N860 1.373 . S
C859 H887 0.930 . S
N860 C859 1.373 . S
N860 C862 1.340 . S
N861 C858 1.368 . S
N861 C862 1.321 . S
N861 Co864 2.135 . S
C862 N860 1.340 . S
C862 N861 1.321 . S
C862 H886 0.930 . S
H863 C858 0.931 . S
Co864 N861 2.135 . S
Co864 N867 2.121 . S
Co864 O872 2.055 . S
Co864 O875 2.039 . S
Co864 N878 2.140 . S
C865 O866 1.227 . S
C865 O875 1.265 . S
O866 C865 1.227 . S
N867 Co864 2.121 . S
N867 C869 1.375 . S
N867 C870 1.313 . S
C868 C869 1.338 . S
C868 N871 1.377 . S
C868 H888 0.930 . S
C869 N867 1.375 . S
C869 C868 1.338 . S
C869 H873 0.931 . S
C870 N867 1.313 . S
C870 N871 1.344 . S
C870 H874 0.930 . S
N871 C868 1.377 . S
N871 C870 1.344 . S
O872 Co864 2.055 . S
O872 C876 1.253 . S
H873 C869 0.931 . S
H874 C870 0.930 . S
O875 Co864 2.039 . S
O875 C865 1.265 . S
C876 O872 1.253 . S
C876 O877 1.227 . S
O877 C876 1.227 . S
N878 Co864 2.140 . S
N878 C881 1.346 . S
N878 C882 1.345 . S
C879 C880 1.387 . S
C879 C883 1.391 . S
C880 C879 1.387 . S
C880 C881 1.369 . S
C880 H889 0.929 . S
C881 N878 1.346 . S
C881 C880 1.369 . S
C881 H884 0.928 . S
C882 N878 1.345 . S
C882 C883 1.371 . S
C882 H885 0.931 . S
C883 C879 1.391 . S
C883 C882 1.371 . S
C883 H890 0.930 . S
H884 C881 0.928 . S
H885 C882 0.931 . S
H886 C862 0.930 . S
H887 C859 0.930 . S
H888 C868 0.930 . S
H889 C880 0.929 . S
H890 C883 0.930 . S
C891 C892 1.351 . S
C891 N894 1.368 . S
C891 H896 0.931 . S
C892 C891 1.351 . S
C892 N893 1.373 . S
C892 H920 0.930 1_565 S
N893 C892 1.373 . S
N893 C895 1.340 . S
N894 C891 1.368 . S
N894 C895 1.321 . S
N894 Co897 2.135 . S
C895 N893 1.340 . S
C895 N894 1.321 . S
C895 H919 0.930 . S
H896 C891 0.931 . S
Co897 N894 2.135 . S
Co897 N900 2.121 1_554 S
Co897 O905 2.055 . S
Co897 O908 2.039 . S
Co897 N911 2.140 . S
C898 O899 1.227 . S
C898 O908 1.265 . S
O899 C898 1.227 . S
N900 Co897 2.121 1_556 S
N900 C902 1.375 . S
N900 C903 1.313 . S
C901 C902 1.338 . S
C901 N904 1.377 . S
C901 H921 0.930 . S
C902 N900 1.375 . S
C902 C901 1.338 . S
C902 H906 0.931 1_556 S
C903 N900 1.313 . S
C903 N904 1.344 . S
C903 H907 0.930 . S
N904 C901 1.377 . S
N904 C903 1.344 . S
O905 Co897 2.055 . S
O905 C909 1.253 1_554 S
H906 C902 0.931 1_554 S
H907 C903 0.930 . S
O908 Co897 2.039 . S
O908 C898 1.265 . S
C909 O905 1.253 1_556 S
C909 O910 1.227 . S
O910 C909 1.227 . S
N911 Co897 2.140 . S
N911 C914 1.346 . S
N911 C915 1.345 1_554 S
C912 C913 1.387 1_556 S
C912 C916 1.391 . S
C913 C912 1.387 1_554 S
C913 C914 1.369 . S
C913 H922 0.929 . S
C914 N911 1.346 . S
C914 C913 1.369 . S
C914 H917 0.928 . S
C915 N911 1.345 1_556 S
C915 C916 1.371 . S
C915 H918 0.931 . S
C916 C912 1.391 . S
C916 C915 1.371 . S
C916 H923 0.930 . S
H917 C914 0.928 . S
H918 C915 0.931 . S
H919 C895 0.930 . S
H920 C892 0.930 1_545 S
H921 C901 0.930 . S
H922 C913 0.929 . S
H923 C916 0.930 . S
C924 C925 1.351 . S
C924 N927 1.368 . S
C924 H929 0.931 . S
C925 C924 1.351 . S
C925 N926 1.373 . S
C925 H953 0.930 1_455 S
N926 C925 1.373 . S
N926 C928 1.340 . S
N927 C924 1.368 . S
N927 C928 1.321 . S
N927 Co930 2.135 . S
C928 N926 1.340 . S
C928 N927 1.321 . S
C928 H952 0.930 . S
H929 C924 0.931 . S
Co930 N927 2.135 . S
Co930 N933 2.121 1_554 S
Co930 O938 2.055 . S
Co930 O941 2.039 . S
Co930 N944 2.140 . S
C931 O932 1.227 . S
C931 O941 1.265 . S
O932 C931 1.227 . S
N933 Co930 2.121 1_556 S
N933 C935 1.375 . S
N933 C936 1.313 . S
C934 C935 1.338 . S
C934 N937 1.377 . S
C934 H954 0.930 . S
C935 N933 1.375 . S
C935 C934 1.338 . S
C935 H939 0.931 1_556 S
C936 N933 1.313 . S
C936 N937 1.344 . S
C936 H940 0.930 . S
N937 C934 1.377 . S
N937 C936 1.344 . S
O938 Co930 2.055 . S
O938 C942 1.253 1_554 S
H939 C935 0.931 1_554 S
H940 C936 0.930 . S
O941 Co930 2.039 . S
O941 C931 1.265 . S
C942 O938 1.253 1_556 S
C942 O943 1.227 . S
O943 C942 1.227 . S
N944 Co930 2.140 . S
N944 C947 1.346 . S
N944 C948 1.345 1_554 S
C945 C946 1.387 1_556 S
C945 C949 1.391 . S
C946 C945 1.387 1_554 S
C946 C947 1.369 . S
C946 H955 0.929 . S
C947 N944 1.346 . S
C947 C946 1.369 . S
C947 H950 0.928 . S
C948 N944 1.345 1_556 S
C948 C949 1.371 . S
C948 H951 0.931 . S
C949 C945 1.391 . S
C949 C948 1.371 . S
C949 H956 0.930 . S
H950 C947 0.928 . S
H951 C948 0.931 . S
H952 C928 0.930 . S
H953 C925 0.930 1_655 S
H954 C934 0.930 . S
H955 C946 0.929 . S
H956 C949 0.930 . S
C957 C958 1.351 . S
C957 N960 1.368 . S
C957 H962 0.931 . S
C958 C957 1.351 . S
C958 N959 1.373 . S
C958 H986 0.930 . S
N959 C958 1.373 . S
N959 C961 1.340 . S
N960 C957 1.368 . S
N960 C961 1.321 . S
N960 Co963 2.135 . S
C961 N959 1.340 . S
C961 N960 1.321 . S
C961 H985 0.930 . S
H962 C957 0.931 . S
Co963 N960 2.135 . S
Co963 N966 2.121 1_554 S
Co963 O971 2.055 . S
Co963 O974 2.039 . S
Co963 N977 2.140 . S
C964 O965 1.227 . S
C964 O974 1.265 . S
O965 C964 1.227 . S
N966 Co963 2.121 1_556 S
N966 C968 1.375 . S
N966 C969 1.313 . S
C967 C968 1.338 . S
C967 N970 1.377 . S
C967 H987 0.930 . S
C968 N966 1.375 . S
C968 C967 1.338 . S
C968 H972 0.931 1_556 S
C969 N966 1.313 . S
C969 N970 1.344 . S
C969 H973 0.930 . S
N970 C967 1.377 . S
N970 C969 1.344 . S
O971 Co963 2.055 . S
O971 C975 1.253 1_554 S
H972 C968 0.931 1_554 S
H973 C969 0.930 . S
O974 Co963 2.039 . S
O974 C964 1.265 . S
C975 O971 1.253 1_556 S
C975 O976 1.227 . S
O976 C975 1.227 . S
N977 Co963 2.140 . S
N977 C980 1.346 . S
N977 C981 1.345 1_554 S
C978 C979 1.387 1_556 S
C978 C982 1.391 . S
C979 C978 1.387 1_554 S
C979 C980 1.369 . S
C979 H988 0.929 . S
C980 N977 1.346 . S
C980 C979 1.369 . S
C980 H983 0.928 . S
C981 N977 1.345 1_556 S
C981 C982 1.371 . S
C981 H984 0.931 . S
C982 C978 1.391 . S
C982 C981 1.371 . S
C982 H989 0.930 . S
H983 C980 0.928 . S
H984 C981 0.931 . S
H985 C961 0.930 . S
H986 C958 0.930 . S
H987 C967 0.930 . S
H988 C979 0.929 . S
H989 C982 0.930 . S
C990 C991 1.351 . S
C990 N993 1.368 . S
C990 H995 0.931 . S
C991 C990 1.351 . S
C991 N992 1.373 . S
C991 H1019 0.930 1_455 S
N992 C991 1.373 . S
N992 C994 1.340 . S
N993 C990 1.368 . S
N993 C994 1.321 . S
N993 Co996 2.135 . S
C994 N992 1.340 . S
C994 N993 1.321 . S
C994 H1018 0.930 . S
H995 C990 0.931 . S
Co996 N993 2.135 . S
Co996 N999 2.121 . S
Co996 O1004 2.055 . S
Co996 O1007 2.039 . S
Co996 N1010 2.140 . S
C997 O998 1.227 . S
C997 O1007 1.265 . S
O998 C997 1.227 . S
N999 Co996 2.121 . S
N999 C1001 1.375 . S
N999 C1002 1.313 . S
C1000 C1001 1.338 . S
C1000 N1003 1.377 . S
C1000 H1020 0.930 . S
C1001 N999 1.375 . S
C1001 C1000 1.338 . S
C1001 H1005 0.931 . S
C1002 N999 1.313 . S
C1002 N1003 1.344 . S
C1002 H1006 0.930 . S
N1003 C1000 1.377 . S
N1003 C1002 1.344 . S
O1004 Co996 2.055 . S
O1004 C1008 1.253 . S
H1005 C1001 0.931 . S
H1006 C1002 0.930 . S
O1007 Co996 2.039 . S
O1007 C997 1.265 . S
C1008 O1004 1.253 . S
C1008 O1009 1.227 . S
O1009 C1008 1.227 . S
N1010 Co996 2.140 . S
N1010 C1013 1.346 . S
N1010 C1014 1.345 . S
C1011 C1012 1.387 . S
C1011 C1015 1.391 . S
C1012 C1011 1.387 . S
C1012 C1013 1.369 . S
C1012 H1021 0.929 . S
C1013 N1010 1.346 . S
C1013 C1012 1.369 . S
C1013 H1016 0.928 . S
C1014 N1010 1.345 . S
C1014 C1015 1.371 . S
C1014 H1017 0.931 . S
C1015 C1011 1.391 . S
C1015 C1014 1.371 . S
C1015 H1022 0.930 . S
H1016 C1013 0.928 . S
H1017 C1014 0.931 . S
H1018 C994 0.930 . S
H1019 C991 0.930 1_655 S
H1020 C1000 0.930 . S
H1021 C1012 0.929 . S
H1022 C1015 0.930 . S
C1023 C1024 1.351 . S
C1023 N1026 1.368 . S
C1023 H1028 0.931 . S
C1024 C1023 1.351 . S
C1024 N1025 1.373 . S
C1024 H1052 0.930 . S
N1025 C1024 1.373 . S
N1025 C1027 1.340 . S
N1026 C1023 1.368 . S
N1026 C1027 1.321 . S
N1026 Co1029 2.135 . S
C1027 N1025 1.340 . S
C1027 N1026 1.321 . S
C1027 H1051 0.930 . S
H1028 C1023 0.931 . S
Co1029 N1026 2.135 . S
Co1029 N1032 2.121 . S
Co1029 O1037 2.055 . S
Co1029 O1040 2.039 . S
Co1029 N1043 2.140 . S
C1030 O1031 1.227 . S
C1030 O1040 1.265 . S
O1031 C1030 1.227 . S
N1032 Co1029 2.121 . S
N1032 C1034 1.375 . S
N1032 C1035 1.313 . S
C1033 C1034 1.338 . S
C1033 N1036 1.377 . S
C1033 H1053 0.930 . S
C1034 N1032 1.375 . S
C1034 C1033 1.338 . S
C1034 H1038 0.931 . S
C1035 N1032 1.313 . S
C1035 N1036 1.344 . S
C1035 H1039 0.930 . S
N1036 C1033 1.377 . S
N1036 C1035 1.344 . S
O1037 Co1029 2.055 . S
O1037 C1041 1.253 . S
H1038 C1034 0.931 . S
H1039 C1035 0.930 . S
O1040 Co1029 2.039 . S
O1040 C1030 1.265 . S
C1041 O1037 1.253 . S
C1041 O1042 1.227 . S
O1042 C1041 1.227 . S
N1043 Co1029 2.140 . S
N1043 C1046 1.346 . S
N1043 C1047 1.345 . S
C1044 C1045 1.387 . S
C1044 C1048 1.391 . S
C1045 C1044 1.387 . S
C1045 C1046 1.369 . S
C1045 H1054 0.929 . S
C1046 N1043 1.346 . S
C1046 C1045 1.369 . S
C1046 H1049 0.928 . S
C1047 N1043 1.345 . S
C1047 C1048 1.371 . S
C1047 H1050 0.931 . S
C1048 C1044 1.391 . S
C1048 C1047 1.371 . S
C1048 H1055 0.930 . S
H1049 C1046 0.928 . S
H1050 C1047 0.931 . S
H1051 C1027 0.930 . S
H1052 C1024 0.930 . S
H1053 C1033 0.930 . S
H1054 C1045 0.929 . S
H1055 C1048 0.930 . S
C1056 C1057 1.351 . S
C1056 N1059 1.368 . S
C1056 H1061 0.931 . S
C1057 C1056 1.351 . S
C1057 N1058 1.373 . S
C1057 H1085 0.930 1_565 S
N1058 C1057 1.373 . S
N1058 C1060 1.340 . S
N1059 C1056 1.368 . S
N1059 C1060 1.321 . S
N1059 Co1062 2.135 . S
C1060 N1058 1.340 . S
C1060 N1059 1.321 . S
C1060 H1084 0.930 . S
H1061 C1056 0.931 . S
Co1062 N1059 2.135 . S
Co1062 N1065 2.121 . S
Co1062 O1070 2.055 . S
Co1062 O1073 2.039 . S
Co1062 N1076 2.140 . S
C1063 O1064 1.227 . S
C1063 O1073 1.265 . S
O1064 C1063 1.227 . S
N1065 Co1062 2.121 . S
N1065 C1067 1.375 . S
N1065 C1068 1.313 . S
C1066 C1067 1.338 . S
C1066 N1069 1.377 . S
C1066 H1086 0.930 . S
C1067 N1065 1.375 . S
C1067 C1066 1.338 . S
C1067 H1071 0.931 . S
C1068 N1065 1.313 . S
C1068 N1069 1.344 . S
C1068 H1072 0.930 . S
N1069 C1066 1.377 . S
N1069 C1068 1.344 . S
O1070 Co1062 2.055 . S
O1070 C1074 1.253 . S
H1071 C1067 0.931 . S
H1072 C1068 0.930 . S
O1073 Co1062 2.039 . S
O1073 C1063 1.265 . S
C1074 O1070 1.253 . S
C1074 O1075 1.227 . S
O1075 C1074 1.227 . S
N1076 Co1062 2.140 . S
N1076 C1079 1.346 . S
N1076 C1080 1.345 . S
C1077 C1078 1.387 . S
C1077 C1081 1.391 . S
C1078 C1077 1.387 . S
C1078 C1079 1.369 . S
C1078 H1087 0.929 . S
C1079 N1076 1.346 . S
C1079 C1078 1.369 . S
C1079 H1082 0.928 . S
C1080 N1076 1.345 . S
C1080 C1081 1.371 . S
C1080 H1083 0.931 . S
C1081 C1077 1.391 . S
C1081 C1080 1.371 . S
C1081 H1088 0.930 . S
H1082 C1079 0.928 . S
H1083 C1080 0.931 . S
H1084 C1060 0.930 . S
H1085 C1057 0.930 1_545 S
H1086 C1066 0.930 . S
H1087 C1078 0.929 . S
H1088 C1081 0.930 . S
C1089 C1090 1.351 . S
C1089 N1092 1.368 . S
C1089 H1094 0.931 . S
C1090 C1089 1.351 . S
C1090 N1091 1.373 . S
C1090 H1118 0.930 . S
N1091 C1090 1.373 . S
N1091 C1093 1.340 . S
N1092 C1089 1.368 . S
N1092 C1093 1.321 . S
N1092 Co1095 2.135 . S
C1093 N1091 1.340 . S
C1093 N1092 1.321 . S
C1093 H1117 0.930 . S
H1094 C1089 0.931 . S
Co1095 N1092 2.135 . S
Co1095 N1098 2.121 . S
Co1095 O1103 2.055 . S
Co1095 O1106 2.039 . S
Co1095 N1109 2.140 . S
C1096 O1097 1.227 . S
C1096 O1106 1.265 . S
O1097 C1096 1.227 . S
N1098 Co1095 2.121 . S
N1098 C1100 1.375 . S
N1098 C1101 1.313 . S
C1099 C1100 1.338 . S
C1099 N1102 1.377 . S
C1099 H1119 0.930 . S
C1100 N1098 1.375 . S
C1100 C1099 1.338 . S
C1100 H1104 0.931 . S
C1101 N1098 1.313 . S
C1101 N1102 1.344 . S
C1101 H1105 0.930 . S
N1102 C1099 1.377 . S
N1102 C1101 1.344 . S
O1103 Co1095 2.055 . S
O1103 C1107 1.253 . S
H1104 C1100 0.931 . S
H1105 C1101 0.930 . S
O1106 Co1095 2.039 . S
O1106 C1096 1.265 . S
C1107 O1103 1.253 . S
C1107 O1108 1.227 . S
O1108 C1107 1.227 . S
N1109 Co1095 2.140 . S
N1109 C1112 1.346 . S
N1109 C1113 1.345 . S
C1110 C1111 1.387 . S
C1110 C1114 1.391 . S
C1111 C1110 1.387 . S
C1111 C1112 1.369 . S
C1111 H1120 0.929 . S
C1112 N1109 1.346 . S
C1112 C1111 1.369 . S
C1112 H1115 0.928 . S
C1113 N1109 1.345 . S
C1113 C1114 1.371 . S
C1113 H1116 0.931 . S
C1114 C1110 1.391 . S
C1114 C1113 1.371 . S
C1114 H1121 0.930 . S
H1115 C1112 0.928 . S
H1116 C1113 0.931 . S
H1117 C1093 0.930 . S
H1118 C1090 0.930 . S
H1119 C1099 0.930 . S
H1120 C1111 0.929 . S
H1121 C1114 0.930 . S
C1122 C1123 1.351 . S
C1122 N1125 1.368 . S
C1122 H1127 0.931 . S
C1123 C1122 1.351 . S
C1123 N1124 1.373 . S
C1123 H1151 0.930 . S
N1124 C1123 1.373 . S
N1124 C1126 1.340 . S
N1125 C1122 1.368 . S
N1125 C1126 1.321 . S
N1125 Co1128 2.135 . S
C1126 N1124 1.340 . S
C1126 N1125 1.321 . S
C1126 H1150 0.930 . S
H1127 C1122 0.931 . S
Co1128 N1125 2.135 . S
Co1128 N1131 2.121 . S
Co1128 O1136 2.055 . S
Co1128 O1139 2.039 . S
Co1128 N1142 2.140 . S
C1129 O1130 1.227 . S
C1129 O1139 1.265 . S
O1130 C1129 1.227 . S
N1131 Co1128 2.121 . S
N1131 C1133 1.375 . S
N1131 C1134 1.313 . S
C1132 C1133 1.338 . S
C1132 N1135 1.377 . S
C1132 H1152 0.930 . S
C1133 N1131 1.375 . S
C1133 C1132 1.338 . S
C1133 H1137 0.931 . S
C1134 N1131 1.313 . S
C1134 N1135 1.344 . S
C1134 H1138 0.930 . S
N1135 C1132 1.377 . S
N1135 C1134 1.344 . S
O1136 Co1128 2.055 . S
O1136 C1140 1.253 . S
H1137 C1133 0.931 . S
H1138 C1134 0.930 . S
O1139 Co1128 2.039 . S
O1139 C1129 1.265 . S
C1140 O1136 1.253 . S
C1140 O1141 1.227 . S
O1141 C1140 1.227 . S
N1142 Co1128 2.140 . S
N1142 C1145 1.346 . S
N1142 C1146 1.345 . S
C1143 C1144 1.387 . S
C1143 C1147 1.391 . S
C1144 C1143 1.387 . S
C1144 C1145 1.369 . S
C1144 H1153 0.929 . S
C1145 N1142 1.346 . S
C1145 C1144 1.369 . S
C1145 H1148 0.928 . S
C1146 N1142 1.345 . S
C1146 C1147 1.371 . S
C1146 H1149 0.931 . S
C1147 C1143 1.391 . S
C1147 C1146 1.371 . S
C1147 H1154 0.930 . S
H1148 C1145 0.928 . S
H1149 C1146 0.931 . S
H1150 C1126 0.930 . S
H1151 C1123 0.930 . S
H1152 C1132 0.930 . S
H1153 C1144 0.929 . S
H1154 C1147 0.930 . S
C1155 C1156 1.351 . S
C1155 N1158 1.368 . S
C1155 H1160 0.931 . S
C1156 C1155 1.351 . S
C1156 N1157 1.373 . S
C1156 H1184 0.930 . S
N1157 C1156 1.373 . S
N1157 C1159 1.340 . S
N1158 C1155 1.368 . S
N1158 C1159 1.321 . S
N1158 Co1161 2.135 . S
C1159 N1157 1.340 . S
C1159 N1158 1.321 . S
C1159 H1183 0.930 . S
H1160 C1155 0.931 . S
Co1161 N1158 2.135 . S
Co1161 N1164 2.121 . S
Co1161 O1169 2.055 . S
Co1161 O1172 2.039 . S
Co1161 N1175 2.140 . S
C1162 O1163 1.227 . S
C1162 O1172 1.265 . S
O1163 C1162 1.227 . S
N1164 Co1161 2.121 . S
N1164 C1166 1.375 . S
N1164 C1167 1.313 . S
C1165 C1166 1.338 . S
C1165 N1168 1.377 . S
C1165 H1185 0.930 . S
C1166 N1164 1.375 . S
C1166 C1165 1.338 . S
C1166 H1170 0.931 . S
C1167 N1164 1.313 . S
C1167 N1168 1.344 . S
C1167 H1171 0.930 . S
N1168 C1165 1.377 . S
N1168 C1167 1.344 . S
O1169 Co1161 2.055 . S
O1169 C1173 1.253 . S
H1170 C1166 0.931 . S
H1171 C1167 0.930 . S
O1172 Co1161 2.039 . S
O1172 C1162 1.265 . S
C1173 O1169 1.253 . S
C1173 O1174 1.227 . S
O1174 C1173 1.227 . S
N1175 Co1161 2.140 . S
N1175 C1178 1.346 . S
N1175 C1179 1.345 . S
C1176 C1177 1.387 . S
C1176 C1180 1.391 . S
C1177 C1176 1.387 . S
C1177 C1178 1.369 . S
C1177 H1186 0.929 . S
C1178 N1175 1.346 . S
C1178 C1177 1.369 . S
C1178 H1181 0.928 . S
C1179 N1175 1.345 . S
C1179 C1180 1.371 . S
C1179 H1182 0.931 . S
C1180 C1176 1.391 . S
C1180 C1179 1.371 . S
C1180 H1187 0.930 . S
H1181 C1178 0.928 . S
H1182 C1179 0.931 . S
H1183 C1159 0.930 . S
H1184 C1156 0.930 . S
H1185 C1165 0.930 . S
H1186 C1177 0.929 . S
H1187 C1180 0.930 . S
C1188 C1189 1.363 . S
C1188 C1194 1.379 . S
C1188 N1196 1.356 . S
C1189 C1188 1.363 . S
C1189 C1195 1.363 . S
C1190 C1191 1.363 . S
C1190 C1195 1.379 . S
C1190 N1197 1.356 1_556 S
C1191 C1190 1.363 . S
C1191 C1194 1.363 . S
N1192 C1194 1.356 . S
N1192 H1204 0.984 . S
N1192 H1205 0.985 . S
N1193 C1195 1.356 . S
N1193 H1198 0.984 . S
N1193 H1199 0.985 . S
C1194 C1188 1.379 . S
C1194 C1191 1.363 . S
C1194 N1192 1.356 . S
C1195 C1189 1.363 . S
C1195 C1190 1.379 . S
C1195 N1193 1.356 . S
N1196 C1188 1.356 . S
N1196 H1202 0.984 . S
N1196 H1203 0.984 . S
N1197 C1190 1.356 1_554 S
N1197 H1200 0.984 . S
N1197 H1201 0.985 . S
H1198 N1193 0.984 . S
H1199 N1193 0.985 . S
H1200 N1197 0.984 . S
H1201 N1197 0.985 . S
H1202 N1196 0.984 . S
H1203 N1196 0.984 . S
H1204 N1192 0.984 . S
H1205 N1192 0.985 . S
C1206 C1207 1.363 . S
C1206 C1212 1.379 . S
C1206 N1214 1.356 . S
C1207 C1206 1.363 . S
C1207 C1213 1.363 . S
C1208 C1209 1.363 . S
C1208 C1213 1.379 . S
C1208 N1215 1.356 . S
C1209 C1208 1.363 . S
C1209 C1212 1.363 . S
N1210 C1212 1.356 . S
N1210 H1222 0.984 1_556 S
N1210 H1223 0.985 1_556 S
N1211 C1213 1.356 . S
N1211 H1216 0.984 . S
N1211 H1217 0.985 . S
C1212 C1206 1.379 . S
C1212 C1209 1.363 . S
C1212 N1210 1.356 . S
C1213 C1207 1.363 . S
C1213 C1208 1.379 . S
C1213 N1211 1.356 . S
N1214 C1206 1.356 . S
N1214 H1220 0.984 . S
N1214 H1221 0.984 . S
N1215 C1208 1.356 . S
N1215 H1218 0.984 . S
N1215 H1219 0.985 . S
H1216 N1211 0.984 . S
H1217 N1211 0.985 . S
H1218 N1215 0.984 . S
H1219 N1215 0.985 . S
H1220 N1214 0.984 . S
H1221 N1214 0.984 . S
H1222 N1210 0.984 1_554 S
H1223 N1210 0.985 1_554 S
C1224 C1225 1.363 . S
C1224 C1230 1.379 . S
C1224 N1232 1.356 . S
C1225 C1224 1.363 . S
C1225 C1231 1.363 . S
C1226 C1227 1.363 . S
C1226 C1231 1.379 . S
C1226 N1233 1.356 . S
C1227 C1226 1.363 . S
C1227 C1230 1.363 . S
N1228 C1230 1.356 . S
N1228 H1240 0.984 . S
N1228 H1241 0.985 . S
N1229 C1231 1.356 1_554 S
N1229 H1234 0.984 . S
N1229 H1235 0.985 . S
C1230 C1224 1.379 . S
C1230 C1227 1.363 . S
C1230 N1228 1.356 . S
C1231 C1225 1.363 . S
C1231 C1226 1.379 . S
C1231 N1229 1.356 1_556 S
N1232 C1224 1.356 . S
N1232 H1238 0.984 . S
N1232 H1239 0.984 . S
N1233 C1226 1.356 . S
N1233 H1236 0.984 . S
N1233 H1237 0.985 1_556 S
H1234 N1229 0.984 . S
H1235 N1229 0.985 . S
H1236 N1233 0.984 . S
H1237 N1233 0.985 1_554 S
H1238 N1232 0.984 . S
H1239 N1232 0.984 . S
H1240 N1228 0.984 . S
H1241 N1228 0.985 . S
C1242 C1243 1.363 . S
C1242 C1248 1.379 . S
C1242 N1250 1.356 . S
C1243 C1242 1.363 . S
C1243 C1249 1.363 . S
C1244 C1245 1.363 . S
C1244 C1249 1.379 . S
C1244 N1251 1.356 . S
C1245 C1244 1.363 . S
C1245 C1248 1.363 . S
N1246 C1248 1.356 . S
N1246 H1258 0.984 . S
N1246 H1259 0.985 . S
N1247 C1249 1.356 . S
N1247 H1252 0.984 . S
N1247 H1253 0.985 . S
C1248 C1242 1.379 . S
C1248 C1245 1.363 . S
C1248 N1246 1.356 . S
C1249 C1243 1.363 . S
C1249 C1244 1.379 . S
C1249 N1247 1.356 . S
N1250 C1242 1.356 . S
N1250 H1256 0.984 . S
N1250 H1257 0.984 . S
N1251 C1244 1.356 . S
N1251 H1254 0.984 . S
N1251 H1255 0.985 . S
H1252 N1247 0.984 . S
H1253 N1247 0.985 . S
H1254 N1251 0.984 . S
H1255 N1251 0.985 . S
H1256 N1250 0.984 . S
H1257 N1250 0.984 . S
H1258 N1246 0.984 . S
H1259 N1246 0.985 . S
C1260 C1261 1.363 . S
C1260 C1266 1.379 . S
C1260 N1268 1.356 . S
C1261 C1260 1.363 . S
C1261 C1267 1.363 . S
C1262 C1263 1.363 . S
C1262 C1267 1.379 . S
C1262 N1269 1.356 . S
C1263 C1262 1.363 . S
C1263 C1266 1.363 . S
N1264 C1266 1.356 . S
N1264 H1276 0.984 . S
N1264 H1277 0.985 . S
N1265 C1267 1.356 . S
N1265 H1270 0.984 . S
N1265 H1271 0.985 . S
C1266 C1260 1.379 . S
C1266 C1263 1.363 . S
C1266 N1264 1.356 . S
C1267 C1261 1.363 . S
C1267 C1262 1.379 . S
C1267 N1265 1.356 . S
N1268 C1260 1.356 . S
N1268 H1274 0.984 . S
N1268 H1275 0.984 . S
N1269 C1262 1.356 . S
N1269 H1272 0.984 . S
N1269 H1273 0.985 . S
H1270 N1265 0.984 . S
H1271 N1265 0.985 . S
H1272 N1269 0.984 . S
H1273 N1269 0.985 . S
H1274 N1268 0.984 . S
H1275 N1268 0.984 . S
H1276 N1264 0.984 . S
H1277 N1264 0.985 . S
C1278 C1279 1.363 . S
C1278 C1284 1.379 . S
C1278 N1286 1.356 . S
C1279 C1278 1.363 . S
C1279 C1285 1.363 . S
C1280 C1281 1.363 . S
C1280 C1285 1.379 . S
C1280 N1287 1.356 . S
C1281 C1280 1.363 . S
C1281 C1284 1.363 . S
N1282 C1284 1.356 . S
N1282 H1294 0.984 . S
N1282 H1295 0.985 . S
N1283 C1285 1.356 . S
N1283 H1288 0.984 . S
N1283 H1289 0.985 . S
C1284 C1278 1.379 . S
C1284 C1281 1.363 . S
C1284 N1282 1.356 . S
C1285 C1279 1.363 . S
C1285 C1280 1.379 . S
C1285 N1283 1.356 . S
N1286 C1278 1.356 . S
N1286 H1292 0.984 . S
N1286 H1293 0.984 . S
N1287 C1280 1.356 . S
N1287 H1290 0.984 . S
N1287 H1291 0.985 . S
H1288 N1283 0.984 . S
H1289 N1283 0.985 . S
H1290 N1287 0.984 . S
H1291 N1287 0.985 . S
H1292 N1286 0.984 . S
H1293 N1286 0.984 . S
H1294 N1282 0.984 . S
H1295 N1282 0.985 . S
C1296 C1297 1.363 . S
C1296 C1302 1.379 . S
C1296 N1304 1.356 . S
C1297 C1296 1.363 . S
C1297 C1303 1.363 . S
C1298 C1299 1.363 . S
C1298 C1303 1.379 . S
C1298 N1305 1.356 1_554 S
C1299 C1298 1.363 . S
C1299 C1302 1.363 . S
N1300 C1302 1.356 . S
N1300 H1312 0.984 . S
N1300 H1313 0.985 . S
N1301 C1303 1.356 . S
N1301 H1306 0.984 . S
N1301 H1307 0.985 1_554 S
C1302 C1296 1.379 . S
C1302 C1299 1.363 . S
C1302 N1300 1.356 . S
C1303 C1297 1.363 . S
C1303 C1298 1.379 . S
C1303 N1301 1.356 . S
N1304 C1296 1.356 . S
N1304 H1310 0.984 . S
N1304 H1311 0.984 . S
N1305 C1298 1.356 1_556 S
N1305 H1308 0.984 . S
N1305 H1309 0.985 . S
H1306 N1301 0.984 . S
H1307 N1301 0.985 1_556 S
H1308 N1305 0.984 . S
H1309 N1305 0.985 . S
H1310 N1304 0.984 . S
H1311 N1304 0.984 . S
H1312 N1300 0.984 . S
H1313 N1300 0.985 . S
C1314 C1315 1.363 . S
C1314 C1320 1.379 . S
C1314 N1322 1.356 1_554 S
C1315 C1314 1.363 . S
C1315 C1321 1.363 . S
C1316 C1317 1.363 . S
C1316 C1321 1.379 . S
C1316 N1323 1.356 . S
C1317 C1316 1.363 . S
C1317 C1320 1.363 . S
N1318 C1320 1.356 . S
N1318 H1330 0.984 . S
N1318 H1331 0.985 . S
N1319 C1321 1.356 . S
N1319 H1324 0.984 . S
N1319 H1325 0.985 . S
C1320 C1314 1.379 . S
C1320 C1317 1.363 . S
C1320 N1318 1.356 . S
C1321 C1315 1.363 . S
C1321 C1316 1.379 . S
C1321 N1319 1.356 . S
N1322 C1314 1.356 1_556 S
N1322 H1328 0.984 . S
N1322 H1329 0.984 . S
N1323 C1316 1.356 . S
N1323 H1326 0.984 . S
N1323 H1327 0.985 . S
H1324 N1319 0.984 . S
H1325 N1319 0.985 . S
H1326 N1323 0.984 . S
H1327 N1323 0.985 . S
H1328 N1322 0.984 . S
H1329 N1322 0.984 . S
H1330 N1318 0.984 . S
H1331 N1318 0.985 . S
C1332 C1333 1.363 . S
C1332 C1338 1.379 . S
C1332 N1340 1.356 1_554 S
C1333 C1332 1.363 . S
C1333 C1339 1.363 . S
C1334 C1335 1.363 . S
C1334 C1339 1.379 . S
C1334 N1341 1.356 . S
C1335 C1334 1.363 . S
C1335 C1338 1.363 . S
N1336 C1338 1.356 . S
N1336 H1348 0.984 1_554 S
N1336 H1349 0.985 . S
N1337 C1339 1.356 . S
N1337 H1342 0.984 . S
N1337 H1343 0.985 . S
C1338 C1332 1.379 . S
C1338 C1335 1.363 . S
C1338 N1336 1.356 . S
C1339 C1333 1.363 . S
C1339 C1334 1.379 . S
C1339 N1337 1.356 . S
N1340 C1332 1.356 1_556 S
N1340 H1346 0.984 . S
N1340 H1347 0.984 . S
N1341 C1334 1.356 . S
N1341 H1344 0.984 . S
N1341 H1345 0.985 . S
H1342 N1337 0.984 . S
H1343 N1337 0.985 . S
H1344 N1341 0.984 . S
H1345 N1341 0.985 . S
H1346 N1340 0.984 . S
H1347 N1340 0.984 . S
H1348 N1336 0.984 1_556 S
H1349 N1336 0.985 . S
C1350 C1351 1.363 . S
C1350 C1356 1.379 . S
C1350 N1358 1.356 . S
C1351 C1350 1.363 . S
C1351 C1357 1.363 . S
C1352 C1353 1.363 . S
C1352 C1357 1.379 . S
C1352 N1359 1.356 . S
C1353 C1352 1.363 . S
C1353 C1356 1.363 . S
N1354 C1356 1.356 . S
N1354 H1366 0.984 . S
N1354 H1367 0.985 . S
N1355 C1357 1.356 . S
N1355 H1360 0.984 . S
N1355 H1361 0.985 . S
C1356 C1350 1.379 . S
C1356 C1353 1.363 . S
C1356 N1354 1.356 . S
C1357 C1351 1.363 . S
C1357 C1352 1.379 . S
C1357 N1355 1.356 . S
N1358 C1350 1.356 . S
N1358 H1364 0.984 . S
N1358 H1365 0.984 . S
N1359 C1352 1.356 . S
N1359 H1362 0.984 . S
N1359 H1363 0.985 . S
H1360 N1355 0.984 . S
H1361 N1355 0.985 . S
H1362 N1359 0.984 . S
H1363 N1359 0.985 . S
H1364 N1358 0.984 . S
H1365 N1358 0.984 . S
H1366 N1354 0.984 . S
H1367 N1354 0.985 . S
C1368 C1369 1.363 . S
C1368 C1374 1.379 . S
C1368 N1376 1.356 . S
C1369 C1368 1.363 . S
C1369 C1375 1.363 . S
C1370 C1371 1.363 . S
C1370 C1375 1.379 . S
C1370 N1377 1.356 . S
C1371 C1370 1.363 . S
C1371 C1374 1.363 . S
N1372 C1374 1.356 . S
N1372 H1384 0.984 . S
N1372 H1385 0.985 . S
N1373 C1375 1.356 . S
N1373 H1378 0.984 . S
N1373 H1379 0.985 . S
C1374 C1368 1.379 . S
C1374 C1371 1.363 . S
C1374 N1372 1.356 . S
C1375 C1369 1.363 . S
C1375 C1370 1.379 . S
C1375 N1373 1.356 . S
N1376 C1368 1.356 . S
N1376 H1382 0.984 . S
N1376 H1383 0.984 . S
N1377 C1370 1.356 . S
N1377 H1380 0.984 . S
N1377 H1381 0.985 . S
H1378 N1373 0.984 . S
H1379 N1373 0.985 . S
H1380 N1377 0.984 . S
H1381 N1377 0.985 . S
H1382 N1376 0.984 . S
H1383 N1376 0.984 . S
H1384 N1372 0.984 . S
H1385 N1372 0.985 . S
C1386 C1387 1.363 . S
C1386 C1392 1.379 . S
C1386 N1394 1.356 . S
C1387 C1386 1.363 . S
C1387 C1393 1.363 . S
C1388 C1389 1.363 . S
C1388 C1393 1.379 . S
C1388 N1395 1.356 . S
C1389 C1388 1.363 . S
C1389 C1392 1.363 . S
N1390 C1392 1.356 . S
N1390 H1402 0.984 . S
N1390 H1403 0.985 . S
N1391 C1393 1.356 . S
N1391 H1396 0.984 . S
N1391 H1397 0.985 . S
C1392 C1386 1.379 . S
C1392 C1389 1.363 . S
C1392 N1390 1.356 . S
C1393 C1387 1.363 . S
C1393 C1388 1.379 . S
C1393 N1391 1.356 . S
N1394 C1386 1.356 . S
N1394 H1400 0.984 . S
N1394 H1401 0.984 . S
N1395 C1388 1.356 . S
N1395 H1398 0.984 . S
N1395 H1399 0.985 . S
H1396 N1391 0.984 . S
H1397 N1391 0.985 . S
H1398 N1395 0.984 . S
H1399 N1395 0.985 . S
H1400 N1394 0.984 . S
H1401 N1394 0.984 . S
H1402 N1390 0.984 . S
H1403 N1390 0.985 . S
C1404 C1405 1.363 . S
C1404 C1410 1.331 1_455 S
C1404 N1412 1.356 . S
C1405 C1404 1.363 . S
C1405 C1411 1.404 . S
C1406 C1407 1.363 . S
C1406 C1411 1.331 1_655 S
C1406 N1413 1.356 . S
C1407 C1406 1.363 . S
C1407 C1410 1.404 . S
N1408 C1410 1.381 . S
N1408 H1420 0.984 1_655 S
N1408 H1421 0.985 . S
N1409 C1411 1.381 . S
N1409 H1414 0.984 . S
N1409 H1415 0.985 1_455 S
C1410 C1404 1.331 1_655 S
C1410 C1407 1.404 . S
C1410 N1408 1.381 . S
C1411 C1405 1.404 . S
C1411 C1406 1.331 1_455 S
C1411 N1409 1.381 . S
N1412 C1404 1.356 . S
N1412 H1418 0.984 . S
N1412 H1419 0.984 . S
N1413 C1406 1.356 . S
N1413 H1416 0.984 . S
N1413 H1417 0.985 . S
H1414 N1409 0.984 . S
H1415 N1409 0.985 1_655 S
H1416 N1413 0.984 . S
H1417 N1413 0.985 . S
H1418 N1412 0.984 . S
H1419 N1412 0.984 . S
H1420 N1408 0.984 1_455 S
H1421 N1408 0.985 . S
C1422 C1423 1.363 . S
C1422 C1428 1.379 . S
C1422 N1430 1.356 . S
C1423 C1422 1.363 . S
C1423 C1429 1.363 . S
C1424 C1425 1.363 . S
C1424 C1429 1.379 . S
C1424 N1431 1.356 . S
C1425 C1424 1.363 . S
C1425 C1428 1.363 . S
N1426 C1428 1.356 . S
N1426 H1438 0.984 . S
N1426 H1439 0.985 . S
N1427 C1429 1.356 . S
N1427 H1432 0.984 . S
N1427 H1433 0.985 . S
C1428 C1422 1.379 . S
C1428 C1425 1.363 . S
C1428 N1426 1.356 . S
C1429 C1423 1.363 . S
C1429 C1424 1.379 . S
C1429 N1427 1.356 . S
N1430 C1422 1.356 . S
N1430 H1436 0.984 . S
N1430 H1437 0.984 . S
N1431 C1424 1.356 . S
N1431 H1434 0.984 . S
N1431 H1435 0.985 . S
H1432 N1427 0.984 . S
H1433 N1427 0.985 . S
H1434 N1431 0.984 . S
H1435 N1431 0.985 . S
H1436 N1430 0.984 . S
H1437 N1430 0.984 . S
H1438 N1426 0.984 . S
H1439 N1426 0.985 . S
C1440 C1441 1.363 . S
C1440 C1446 1.379 1_545 S
C1440 N1448 1.356 . S
C1441 C1440 1.363 . S
C1441 C1447 1.363 . S
C1442 C1443 1.363 . S
C1442 C1447 1.379 1_565 S
C1442 N1449 1.356 . S
C1443 C1442 1.363 . S
C1443 C1446 1.363 . S
N1444 C1446 1.356 . S
N1444 H1456 0.956 1_565 S
N1444 H1457 0.985 . S
N1445 C1447 1.356 . S
N1445 H1450 0.984 . S
N1445 H1451 0.956 1_545 S
C1446 C1440 1.379 1_565 S
C1446 C1443 1.363 . S
C1446 N1444 1.356 . S
C1447 C1441 1.363 . S
C1447 C1442 1.379 1_545 S
C1447 N1445 1.356 . S
N1448 C1440 1.356 . S
N1448 H1454 0.984 . S
N1448 H1455 0.984 . S
N1449 C1442 1.356 . S
N1449 H1452 0.984 . S
N1449 H1453 0.985 . S
H1450 N1445 0.984 . S
H1451 N1445 0.956 1_565 S
H1452 N1449 0.984 . S
H1453 N1449 0.985 . S
H1454 N1448 0.984 . S
H1455 N1448 0.984 . S
H1456 N1444 0.956 1_545 S
H1457 N1444 0.985 . S
C1458 C1459 1.363 . S
C1458 C1464 1.379 1_565 S
C1458 N1466 1.356 . S
C1459 C1458 1.363 . S
C1459 C1465 1.363 . S
C1460 C1461 1.363 . S
C1460 C1465 1.379 1_545 S
C1460 N1467 1.356 . S
C1461 C1460 1.363 . S
C1461 C1464 1.363 . S
N1462 C1464 1.356 . S
N1462 H1474 0.984 . S
N1462 H1475 0.985 . S
N1463 C1465 1.356 . S
N1463 H1468 0.984 . S
N1463 H1469 0.985 . S
C1464 C1458 1.379 1_545 S
C1464 C1461 1.363 . S
C1464 N1462 1.356 . S
C1465 C1459 1.363 . S
C1465 C1460 1.379 1_565 S
C1465 N1463 1.356 . S
N1466 C1458 1.356 . S
N1466 H1472 0.984 . S
N1466 H1473 0.984 . S
N1467 C1460 1.356 . S
N1467 H1470 0.984 . S
N1467 H1471 0.985 . S
H1468 N1463 0.984 . S
H1469 N1463 0.985 . S
H1470 N1467 0.984 . S
H1471 N1467 0.985 . S
H1472 N1466 0.984 . S
H1473 N1466 0.984 . S
H1474 N1462 0.984 . S
H1475 N1462 0.985 . S
C1476 C1477 1.363 . S
C1476 C1482 1.379 1_655 S
C1476 N1484 1.356 . S
C1477 C1476 1.363 . S
C1477 C1483 1.363 . S
C1478 C1479 1.363 . S
C1478 C1483 1.379 1_455 S
C1478 N1485 1.356 . S
C1479 C1478 1.363 . S
C1479 C1482 1.363 . S
N1480 C1482 1.356 . S
N1480 H1492 0.984 . S
N1480 H1493 0.985 . S
N1481 C1483 1.356 . S
N1481 H1486 0.984 . S
N1481 H1487 0.985 . S
C1482 C1476 1.379 1_455 S
C1482 C1479 1.363 . S
C1482 N1480 1.356 . S
C1483 C1477 1.363 . S
C1483 C1478 1.379 1_655 S
C1483 N1481 1.356 . S
N1484 C1476 1.356 . S
N1484 H1490 0.984 . S
N1484 H1491 0.984 . S
N1485 C1478 1.356 . S
N1485 H1488 0.984 . S
N1485 H1489 0.985 . S
H1486 N1481 0.984 . S
H1487 N1481 0.985 . S
H1488 N1485 0.984 . S
H1489 N1485 0.985 . S
H1490 N1484 0.984 . S
H1491 N1484 0.984 . S
H1492 N1480 0.984 . S
H1493 N1480 0.985 . S
C1494 C1495 1.363 . S
C1494 C1500 1.379 . S
C1494 N1502 1.356 . S
C1495 C1494 1.363 . S
C1495 C1501 1.363 . S
C1496 C1497 1.363 . S
C1496 C1501 1.379 . S
C1496 N1503 1.356 . S
C1497 C1496 1.363 . S
C1497 C1500 1.363 . S
N1498 C1500 1.356 . S
N1498 H1510 0.984 . S
N1498 H1511 0.985 . S
N1499 C1501 1.356 . S
N1499 H1504 0.984 . S
N1499 H1505 0.985 . S
C1500 C1494 1.379 . S
C1500 C1497 1.363 . S
C1500 N1498 1.356 . S
C1501 C1495 1.363 . S
C1501 C1496 1.379 . S
C1501 N1499 1.356 . S
N1502 C1494 1.356 . S
N1502 H1508 0.984 . S
N1502 H1509 0.984 . S
N1503 C1496 1.356 . S
N1503 H1506 0.984 . S
N1503 H1507 0.985 . S
H1504 N1499 0.984 . S
H1505 N1499 0.985 . S
H1506 N1503 0.984 . S
H1507 N1503 0.985 . S
H1508 N1502 0.984 . S
H1509 N1502 0.984 . S
H1510 N1498 0.984 . S
H1511 N1498 0.985 . S
C1512 C1513 1.363 . S
C1512 C1518 1.379 . S
C1512 N1520 1.356 . S
C1513 C1512 1.363 . S
C1513 C1519 1.363 . S
C1514 C1515 1.363 . S
C1514 C1519 1.379 . S
C1514 N1521 1.356 . S
C1515 C1514 1.363 . S
C1515 C1518 1.363 . S
N1516 C1518 1.356 . S
N1516 H1528 0.984 . S
N1516 H1529 0.985 . S
N1517 C1519 1.356 . S
N1517 H1522 0.984 . S
N1517 H1523 0.985 . S
C1518 C1512 1.379 . S
C1518 C1515 1.363 . S
C1518 N1516 1.356 . S
C1519 C1513 1.363 . S
C1519 C1514 1.379 . S
C1519 N1517 1.356 . S
N1520 C1512 1.356 . S
N1520 H1526 0.984 . S
N1520 H1527 0.984 . S
N1521 C1514 1.356 . S
N1521 H1524 0.984 . S
N1521 H1525 0.985 . S
H1522 N1517 0.984 . S
H1523 N1517 0.985 . S
H1524 N1521 0.984 . S
H1525 N1521 0.985 . S
H1526 N1520 0.984 . S
H1527 N1520 0.984 . S
H1528 N1516 0.984 . S
H1529 N1516 0.985 . S
C1530 C1531 1.363 . S
C1530 C1536 1.379 . S
C1530 N1538 1.356 . S
C1531 C1530 1.363 . S
C1531 C1537 1.363 . S
C1532 C1533 1.363 . S
C1532 C1537 1.379 . S
C1532 N1539 1.356 . S
C1533 C1532 1.363 . S
C1533 C1536 1.363 . S
N1534 C1536 1.356 . S
N1534 H1546 0.984 . S
N1534 H1547 0.985 . S
N1535 C1537 1.356 . S
N1535 H1540 0.984 . S
N1535 H1541 0.985 . S
C1536 C1530 1.379 . S
C1536 C1533 1.363 . S
C1536 N1534 1.356 . S
C1537 C1531 1.363 . S
C1537 C1532 1.379 . S
C1537 N1535 1.356 . S
N1538 C1530 1.356 . S
N1538 H1544 0.984 . S
N1538 H1545 0.984 . S
N1539 C1532 1.356 . S
N1539 H1542 0.984 . S
N1539 H1543 0.985 . S
H1540 N1535 0.984 . S
H1541 N1535 0.985 . S
H1542 N1539 0.984 . S
H1543 N1539 0.985 . S
H1544 N1538 0.984 . S
H1545 N1538 0.984 . S
H1546 N1534 0.984 . S
H1547 N1534 0.985 . S
C1548 C1549 1.363 . S
C1548 C1554 1.379 . S
C1548 N1556 1.356 . S
C1549 C1548 1.363 . S
C1549 C1555 1.363 . S
C1550 C1551 1.363 . S
C1550 C1555 1.379 . S
C1550 N1557 1.356 . S
C1551 C1550 1.363 . S
C1551 C1554 1.363 . S
N1552 C1554 1.356 . S
N1552 H1564 0.984 . S
N1552 H1565 0.985 . S
N1553 C1555 1.356 . S
N1553 H1558 0.984 . S
N1553 H1559 0.985 . S
C1554 C1548 1.379 . S
C1554 C1551 1.363 . S
C1554 N1552 1.356 . S
C1555 C1549 1.363 . S
C1555 C1550 1.379 . S
C1555 N1553 1.356 . S
N1556 C1548 1.356 . S
N1556 H1562 0.984 . S
N1556 H1563 0.984 . S
N1557 C1550 1.356 . S
N1557 H1560 0.984 . S
N1557 H1561 0.985 . S
H1558 N1553 0.984 . S
H1559 N1553 0.985 . S
H1560 N1557 0.984 . S
H1561 N1557 0.985 . S
H1562 N1556 0.984 . S
H1563 N1556 0.984 . S
H1564 N1552 0.984 . S
H1565 N1552 0.985 . S
C1566 C1567 1.363 . S
C1566 C1572 1.379 . S
C1566 N1574 1.356 . S
C1567 C1566 1.363 . S
C1567 C1573 1.363 . S
C1568 C1569 1.363 . S
C1568 C1573 1.379 . S
C1568 N1575 1.356 . S
C1569 C1568 1.363 . S
C1569 C1572 1.363 . S
N1570 C1572 1.356 . S
N1570 H1582 0.984 . S
N1570 H1583 0.985 . S
N1571 C1573 1.356 . S
N1571 H1576 0.984 . S
N1571 H1577 0.985 . S
C1572 C1566 1.379 . S
C1572 C1569 1.363 . S
C1572 N1570 1.356 . S
C1573 C1567 1.363 . S
C1573 C1568 1.379 . S
C1573 N1571 1.356 . S
N1574 C1566 1.356 . S
N1574 H1580 0.984 . S
N1574 H1581 0.984 . S
N1575 C1568 1.356 . S
N1575 H1578 0.984 . S
N1575 H1579 0.985 . S
H1576 N1571 0.984 . S
H1577 N1571 0.985 . S
H1578 N1575 0.984 . S
H1579 N1575 0.985 . S
H1580 N1574 0.984 . S
H1581 N1574 0.984 . S
H1582 N1570 0.984 . S
H1583 N1570 0.985 . S
C1584 C1585 1.363 . S
C1584 C1590 1.379 . S
C1584 N1592 1.356 . S
C1585 C1584 1.363 . S
C1585 C1591 1.363 . S
C1586 C1587 1.363 . S
C1586 C1591 1.379 . S
C1586 N1593 1.356 . S
C1587 C1586 1.363 . S
C1587 C1590 1.363 . S
N1588 C1590 1.356 . S
N1588 H1600 0.984 . S
N1588 H1601 0.985 . S
N1589 C1591 1.356 . S
N1589 H1594 0.984 . S
N1589 H1595 0.985 . S
C1590 C1584 1.379 . S
C1590 C1587 1.363 . S
C1590 N1588 1.356 . S
C1591 C1585 1.363 . S
C1591 C1586 1.379 . S
C1591 N1589 1.356 . S
N1592 C1584 1.356 . S
N1592 H1598 0.984 . S
N1592 H1599 0.984 . S
N1593 C1586 1.356 . S
N1593 H1596 0.984 . S
N1593 H1597 0.985 . S
H1594 N1589 0.984 . S
H1595 N1589 0.985 . S
H1596 N1593 0.984 . S
H1597 N1593 0.985 . S
H1598 N1592 0.984 . S
H1599 N1592 0.984 . S
H1600 N1588 0.984 . S
H1601 N1588 0.985 . S
C1602 C1603 1.363 . S
C1602 C1608 1.379 . S
C1602 N1610 1.356 . S
C1603 C1602 1.363 . S
C1603 C1609 1.363 . S
C1604 C1605 1.363 . S
C1604 C1609 1.379 . S
C1604 N1611 1.356 . S
C1605 C1604 1.363 . S
C1605 C1608 1.363 . S
N1606 C1608 1.356 . S
N1606 H1618 0.984 . S
N1606 H1619 0.985 . S
N1607 C1609 1.356 . S
N1607 H1612 0.984 . S
N1607 H1613 0.985 . S
C1608 C1602 1.379 . S
C1608 C1605 1.363 . S
C1608 N1606 1.356 . S
C1609 C1603 1.363 . S
C1609 C1604 1.379 . S
C1609 N1607 1.356 . S
N1610 C1602 1.356 . S
N1610 H1616 0.984 . S
N1610 H1617 0.984 . S
N1611 C1604 1.356 . S
N1611 H1614 0.984 . S
N1611 H1615 0.985 . S
H1612 N1607 0.984 . S
H1613 N1607 0.985 . S
H1614 N1611 0.984 . S
H1615 N1611 0.985 . S
H1616 N1610 0.984 . S
H1617 N1610 0.984 . S
H1618 N1606 0.984 . S
H1619 N1606 0.985 . S
C1620 C1621 1.363 . S
C1620 C1626 1.379 . S
C1620 N1628 1.356 . S
C1621 C1620 1.363 . S
C1621 C1627 1.363 . S
C1622 C1623 1.363 . S
C1622 C1627 1.379 . S
C1622 N1629 1.356 . S
C1623 C1622 1.363 . S
C1623 C1626 1.363 . S
N1624 C1626 1.356 . S
N1624 H1636 0.984 . S
N1624 H1637 0.985 . S
N1625 C1627 1.356 . S
N1625 H1630 0.984 . S
N1625 H1631 0.985 . S
C1626 C1620 1.379 . S
C1626 C1623 1.363 . S
C1626 N1624 1.356 . S
C1627 C1621 1.363 . S
C1627 C1622 1.379 . S
C1627 N1625 1.356 . S
N1628 C1620 1.356 . S
N1628 H1634 0.984 . S
N1628 H1635 0.984 . S
N1629 C1622 1.356 . S
N1629 H1632 0.984 . S
N1629 H1633 0.985 . S
H1630 N1625 0.984 . S
H1631 N1625 0.985 . S
H1632 N1629 0.984 . S
H1633 N1629 0.985 . S
H1634 N1628 0.984 . S
H1635 N1628 0.984 . S
H1636 N1624 0.984 . S
H1637 N1624 0.985 . S
C1638 C1639 1.363 . S
C1638 C1644 1.379 . S
C1638 N1646 1.356 . S
C1639 C1638 1.363 . S
C1639 C1645 1.363 . S
C1640 C1641 1.363 . S
C1640 C1645 1.379 . S
C1640 N1647 1.356 . S
C1641 C1640 1.363 . S
C1641 C1644 1.363 . S
N1642 C1644 1.356 . S
N1642 H1654 0.984 . S
N1642 H1655 0.985 . S
N1643 C1645 1.356 . S
N1643 H1648 0.984 . S
N1643 H1649 0.985 . S
C1644 C1638 1.379 . S
C1644 C1641 1.363 . S
C1644 N1642 1.356 . S
C1645 C1639 1.363 . S
C1645 C1640 1.379 . S
C1645 N1643 1.356 . S
N1646 C1638 1.356 . S
N1646 H1652 0.984 . S
N1646 H1653 0.984 . S
N1647 C1640 1.356 . S
N1647 H1650 0.984 . S
N1647 H1651 0.985 . S
H1648 N1643 0.984 . S
H1649 N1643 0.985 . S
H1650 N1647 0.984 . S
H1651 N1647 0.985 . S
H1652 N1646 0.984 . S
H1653 N1646 0.984 . S
H1654 N1642 0.984 . S
H1655 N1642 0.985 . S
C1656 C1657 1.363 . S
C1656 C1662 1.379 . S
C1656 N1664 1.356 . S
C1657 C1656 1.363 . S
C1657 C1663 1.363 . S
C1658 C1659 1.363 . S
C1658 C1663 1.379 . S
C1658 N1665 1.356 . S
C1659 C1658 1.363 . S
C1659 C1662 1.363 . S
N1660 C1662 1.356 . S
N1660 H1672 0.984 . S
N1660 H1673 0.985 . S
N1661 C1663 1.356 . S
N1661 H1666 0.984 . S
N1661 H1667 0.985 . S
C1662 C1656 1.379 . S
C1662 C1659 1.363 . S
C1662 N1660 1.356 . S
C1663 C1657 1.363 . S
C1663 C1658 1.379 . S
C1663 N1661 1.356 . S
N1664 C1656 1.356 . S
N1664 H1670 0.984 . S
N1664 H1671 0.984 . S
N1665 C1658 1.356 . S
N1665 H1668 0.984 . S
N1665 H1669 0.985 . S
H1666 N1661 0.984 . S
H1667 N1661 0.985 . S
H1668 N1665 0.984 . S
H1669 N1665 0.985 . S
H1670 N1664 0.984 . S
H1671 N1664 0.984 . S
H1672 N1660 0.984 . S
H1673 N1660 0.985 . S
C1674 C1675 1.363 . S
C1674 C1680 1.379 . S
C1674 N1682 1.356 . S
C1675 C1674 1.363 . S
C1675 C1681 1.363 . S
C1676 C1677 1.363 . S
C1676 C1681 1.379 . S
C1676 N1683 1.356 . S
C1677 C1676 1.363 . S
C1677 C1680 1.363 . S
N1678 C1680 1.356 . S
N1678 H1690 0.984 . S
N1678 H1691 0.985 . S
N1679 C1681 1.356 . S
N1679 H1684 0.984 . S
N1679 H1685 0.985 . S
C1680 C1674 1.379 . S
C1680 C1677 1.363 . S
C1680 N1678 1.356 . S
C1681 C1675 1.363 . S
C1681 C1676 1.379 . S
C1681 N1679 1.356 . S
N1682 C1674 1.356 . S
N1682 H1688 0.984 . S
N1682 H1689 0.984 . S
N1683 C1676 1.356 . S
N1683 H1686 0.984 . S
N1683 H1687 0.985 . S
H1684 N1679 0.984 . S
H1685 N1679 0.985 . S
H1686 N1683 0.984 . S
H1687 N1683 0.985 . S
H1688 N1682 0.984 . S
H1689 N1682 0.984 . S
H1690 N1678 0.984 . S
H1691 N1678 0.985 . S
C1692 C1693 1.363 . S
C1692 C1698 1.379 . S
C1692 N1700 1.356 . S
C1693 C1692 1.363 . S
C1693 C1699 1.363 . S
C1694 C1695 1.363 . S
C1694 C1699 1.379 . S
C1694 N1701 1.356 . S
C1695 C1694 1.363 . S
C1695 C1698 1.363 . S
N1696 C1698 1.356 . S
N1696 H1708 0.984 . S
N1696 H1709 0.985 . S
N1697 C1699 1.356 . S
N1697 H1702 0.984 . S
N1697 H1703 0.985 . S
C1698 C1692 1.379 . S
C1698 C1695 1.363 . S
C1698 N1696 1.356 . S
C1699 C1693 1.363 . S
C1699 C1694 1.379 . S
C1699 N1697 1.356 . S
N1700 C1692 1.356 . S
N1700 H1706 0.984 . S
N1700 H1707 0.984 . S
N1701 C1694 1.356 . S
N1701 H1704 0.984 . S
N1701 H1705 0.985 . S
H1702 N1697 0.984 . S
H1703 N1697 0.985 . S
H1704 N1701 0.984 . S
H1705 N1701 0.985 . S
H1706 N1700 0.984 . S
H1707 N1700 0.984 . S
H1708 N1696 0.984 . S
H1709 N1696 0.985 . S
C1710 C1711 1.363 . S
C1710 C1716 1.379 . S
C1710 N1718 1.356 . S
C1711 C1710 1.363 . S
C1711 C1717 1.363 . S
C1712 C1713 1.363 . S
C1712 C1717 1.379 . S
C1712 N1719 1.356 . S
C1713 C1712 1.363 . S
C1713 C1716 1.363 . S
N1714 C1716 1.356 . S
N1714 H1726 0.984 . S
N1714 H1727 0.985 . S
N1715 C1717 1.356 . S
N1715 H1720 0.984 . S
N1715 H1721 0.985 . S
C1716 C1710 1.379 . S
C1716 C1713 1.363 . S
C1716 N1714 1.356 . S
C1717 C1711 1.363 . S
C1717 C1712 1.379 . S
C1717 N1715 1.356 . S
N1718 C1710 1.356 . S
N1718 H1724 0.984 . S
N1718 H1725 0.984 . S
N1719 C1712 1.356 . S
N1719 H1722 0.984 . S
N1719 H1723 0.985 . S
H1720 N1715 0.984 . S
H1721 N1715 0.985 . S
H1722 N1719 0.984 . S
H1723 N1719 0.985 . S
H1724 N1718 0.984 . S
H1725 N1718 0.984 . S
H1726 N1714 0.984 . S
H1727 N1714 0.985 . S
C1728 C1729 1.363 1_455 S
C1728 C1734 1.379 . S
C1728 N1736 1.356 . S
C1729 C1728 1.363 1_655 S
C1729 C1735 1.363 . S
C1730 C1731 1.363 1_655 S
C1730 C1735 1.379 . S
C1730 N1737 1.356 . S
C1731 C1730 1.363 1_455 S
C1731 C1734 1.363 . S
N1732 C1734 1.356 . S
N1732 H1744 0.984 . S
N1732 H1745 0.985 . S
N1733 C1735 1.356 . S
N1733 H1738 0.984 . S
N1733 H1739 0.985 . S
C1734 C1728 1.379 . S
C1734 C1731 1.363 . S
C1734 N1732 1.356 . S
C1735 C1729 1.363 . S
C1735 C1730 1.379 . S
C1735 N1733 1.356 . S
N1736 C1728 1.356 . S
N1736 H1742 0.984 . S
N1736 H1743 0.984 1_455 S
N1737 C1730 1.356 . S
N1737 H1740 0.984 1_655 S
N1737 H1741 0.985 . S
H1738 N1733 0.984 . S
H1739 N1733 0.985 . S
H1740 N1737 0.984 1_455 S
H1741 N1737 0.985 . S
H1742 N1736 0.984 . S
H1743 N1736 0.984 1_655 S
H1744 N1732 0.984 . S
H1745 N1732 0.985 . S
C1746 C1747 1.363 . S
C1746 C1752 1.379 . S
C1746 N1754 1.356 . S
C1747 C1746 1.363 . S
C1747 C1753 1.363 . S
C1748 C1749 1.363 . S
C1748 C1753 1.379 . S
C1748 N1755 1.356 . S
C1749 C1748 1.363 . S
C1749 C1752 1.363 . S
N1750 C1752 1.356 . S
N1750 H1762 0.984 . S
N1750 H1763 0.985 . S
N1751 C1753 1.356 . S
N1751 H1756 0.984 . S
N1751 H1757 0.985 . S
C1752 C1746 1.379 . S
C1752 C1749 1.363 . S
C1752 N1750 1.356 . S
C1753 C1747 1.363 . S
C1753 C1748 1.379 . S
C1753 N1751 1.356 . S
N1754 C1746 1.356 . S
N1754 H1760 0.984 . S
N1754 H1761 0.984 . S
N1755 C1748 1.356 . S
N1755 H1758 0.984 . S
N1755 H1759 0.985 . S
H1756 N1751 0.984 . S
H1757 N1751 0.985 . S
H1758 N1755 0.984 . S
H1759 N1755 0.985 . S
H1760 N1754 0.984 . S
H1761 N1754 0.984 . S
H1762 N1750 0.984 . S
H1763 N1750 0.985 . S
C1764 C1765 1.363 1_545 S
C1764 C1770 1.379 . S
C1764 N1772 1.356 . S
C1765 C1764 1.363 1_565 S
C1765 C1771 1.363 . S
C1766 C1767 1.363 1_565 S
C1766 C1771 1.379 . S
C1766 N1773 1.356 . S
C1767 C1766 1.363 1_545 S
C1767 C1770 1.363 . S
N1768 C1770 1.356 . S
N1768 H1780 0.984 . S
N1768 H1781 0.985 . S
N1769 C1771 1.356 . S
N1769 H1774 0.984 . S
N1769 H1775 0.985 . S
C1770 C1764 1.379 . S
C1770 C1767 1.363 . S
C1770 N1768 1.356 . S
C1771 C1765 1.363 . S
C1771 C1766 1.379 . S
C1771 N1769 1.356 . S
N1772 C1764 1.356 . S
N1772 H1778 0.984 . S
N1772 H1779 0.984 . S
N1773 C1766 1.356 . S
N1773 H1776 0.984 . S
N1773 H1777 0.985 . S
H1774 N1769 0.984 . S
H1775 N1769 0.985 . S
H1776 N1773 0.984 . S
H1777 N1773 0.985 . S
H1778 N1772 0.984 . S
H1779 N1772 0.984 . S
H1780 N1768 0.984 . S
H1781 N1768 0.985 . S
C1782 C1783 1.363 1_545 S
C1782 C1788 1.379 . S
C1782 N1790 1.356 . S
C1783 C1782 1.363 1_565 S
C1783 C1789 1.363 1_556 S
C1784 C1785 1.363 1_565 S
C1784 C1789 1.379 . S
C1784 N1791 1.356 . S
C1785 C1784 1.363 1_545 S
C1785 C1788 1.363 1_554 S
N1786 C1788 1.356 . S
N1786 H1798 0.984 . S
N1786 H1799 0.985 1_556 S
N1787 C1789 1.356 . S
N1787 H1792 0.984 1_554 S
N1787 H1793 0.985 . S
C1788 C1782 1.379 . S
C1788 C1785 1.363 1_556 S
C1788 N1786 1.356 . S
C1789 C1783 1.363 1_554 S
C1789 C1784 1.379 . S
C1789 N1787 1.356 . S
N1790 C1782 1.356 . S
N1790 H1796 0.984 . S
N1790 H1797 0.984 . S
N1791 C1784 1.356 . S
N1791 H1794 0.984 . S
N1791 H1795 0.985 . S
H1792 N1787 0.984 1_556 S
H1793 N1787 0.985 . S
H1794 N1791 0.984 . S
H1795 N1791 0.985 . S
H1796 N1790 0.984 . S
H1797 N1790 0.984 . S
H1798 N1786 0.984 . S
H1799 N1786 0.985 1_554 S
C1800 C1801 1.363 . S
C1800 C1806 1.379 1_455 S
C1800 N1808 1.356 . S
C1801 C1800 1.363 . S
C1801 C1807 1.363 1_556 S
C1802 C1803 1.363 . S
C1802 C1807 1.379 1_655 S
C1802 N1809 1.356 . S
C1803 C1802 1.363 . S
C1803 C1806 1.363 1_554 S
N1804 C1806 1.356 . S
N1804 H1816 0.984 . S
N1804 H1817 0.986 1_556 S
N1805 C1807 1.356 . S
N1805 H1810 0.986 1_554 S
N1805 H1811 0.985 . S
C1806 C1800 1.379 1_655 S
C1806 C1803 1.363 1_556 S
C1806 N1804 1.356 . S
C1807 C1801 1.363 1_554 S
C1807 C1802 1.379 1_455 S
C1807 N1805 1.356 . S
N1808 C1800 1.356 . S
N1808 H1814 0.984 . S
N1808 H1815 0.984 . S
N1809 C1802 1.356 . S
N1809 H1812 0.984 . S
N1809 H1813 0.985 . S
H1810 N1805 0.986 1_556 S
H1811 N1805 0.985 . S
H1812 N1809 0.984 . S
H1813 N1809 0.985 . S
H1814 N1808 0.984 . S
H1815 N1808 0.984 . S
H1816 N1804 0.984 . S
H1817 N1804 0.986 1_554 S
C1818 C1819 1.363 1_554 S
C1818 C1824 1.379 . S
C1818 N1826 1.356 . S
C1819 C1818 1.363 1_556 S
C1819 C1825 1.363 . S
C1820 C1821 1.363 1_556 S
C1820 C1825 1.379 . S
C1820 N1827 1.356 . S
C1821 C1820 1.363 1_554 S
C1821 C1824 1.363 . S
N1822 C1824 1.356 . S
N1822 H1834 0.984 . S
N1822 H1835 0.985 . S
N1823 C1825 1.356 . S
N1823 H1828 0.984 . S
N1823 H1829 0.985 . S
C1824 C1818 1.379 . S
C1824 C1821 1.363 . S
C1824 N1822 1.356 . S
C1825 C1819 1.363 . S
C1825 C1820 1.379 . S
C1825 N1823 1.356 . S
N1826 C1818 1.356 . S
N1826 H1832 0.984 . S
N1826 H1833 0.984 1_554 S
N1827 C1820 1.356 . S
N1827 H1830 0.984 1_556 S
N1827 H1831 0.985 . S
H1828 N1823 0.984 . S
H1829 N1823 0.985 . S
H1830 N1827 0.984 1_554 S
H1831 N1827 0.985 . S
H1832 N1826 0.984 . S
H1833 N1826 0.984 1_556 S
H1834 N1822 0.984 . S
H1835 N1822 0.985 . S
C1836 C1837 1.363 . S
C1836 C1842 1.379 . S
C1836 N1844 1.356 . S
C1837 C1836 1.363 . S
C1837 C1843 1.363 . S
C1838 C1839 1.363 . S
C1838 C1843 1.379 . S
C1838 N1845 1.356 . S
C1839 C1838 1.363 . S
C1839 C1842 1.363 . S
N1840 C1842 1.356 . S
N1840 H1852 0.984 . S
N1840 H1853 0.985 . S
N1841 C1843 1.356 1_554 S
N1841 H1846 0.984 . S
N1841 H1847 0.985 . S
C1842 C1836 1.379 . S
C1842 C1839 1.363 . S
C1842 N1840 1.356 . S
C1843 C1837 1.363 . S
C1843 C1838 1.379 . S
C1843 N1841 1.356 1_556 S
N1844 C1836 1.356 . S
N1844 H1850 0.984 . S
N1844 H1851 0.984 1_556 S
N1845 C1838 1.356 . S
N1845 H1848 0.984 . S
N1845 H1849 0.985 . S
H1846 N1841 0.984 . S
H1847 N1841 0.985 . S
H1848 N1845 0.984 . S
H1849 N1845 0.985 . S
H1850 N1844 0.984 . S
H1851 N1844 0.984 1_554 S
H1852 N1840 0.984 . S
H1853 N1840 0.985 . S
C1854 C1855 1.363 . S
C1854 C1860 1.379 . S
C1854 N1862 1.356 . S
C1855 C1854 1.363 . S
C1855 C1861 1.363 . S
C1856 C1857 1.363 . S
C1856 C1861 1.379 . S
C1856 N1863 1.356 . S
C1857 C1856 1.363 . S
C1857 C1860 1.363 . S
N1858 C1860 1.356 . S
N1858 H1870 0.984 . S
N1858 H1871 0.985 . S
N1859 C1861 1.356 1_554 S
N1859 H1864 0.984 . S
N1859 H1865 0.985 . S
C1860 C1854 1.379 . S
C1860 C1857 1.363 . S
C1860 N1858 1.356 . S
C1861 C1855 1.363 . S
C1861 C1856 1.379 . S
C1861 N1859 1.356 1_556 S
N1862 C1854 1.356 . S
N1862 H1868 0.984 . S
N1862 H1869 0.984 1_556 S
N1863 C1856 1.356 . S
N1863 H1866 0.984 . S
N1863 H1867 0.985 . S
H1864 N1859 0.984 . S
H1865 N1859 0.985 . S
H1866 N1863 0.984 . S
H1867 N1863 0.985 . S
H1868 N1862 0.984 . S
H1869 N1862 0.984 1_554 S
H1870 N1858 0.984 . S
H1871 N1858 0.985 . S
C1872 C1873 1.363 . S
C1872 C1878 1.379 . S
C1872 N1880 1.356 . S
C1873 C1872 1.363 . S
C1873 C1879 1.363 . S
C1874 C1875 1.363 . S
C1874 C1879 1.379 . S
C1874 N1881 1.356 1_556 S
C1875 C1874 1.363 . S
C1875 C1878 1.363 . S
N1876 C1878 1.356 . S
N1876 H1888 0.984 . S
N1876 H1889 0.985 1_556 S
N1877 C1879 1.356 . S
N1877 H1882 0.984 . S
N1877 H1883 0.985 . S
C1878 C1872 1.379 . S
C1878 C1875 1.363 . S
C1878 N1876 1.356 . S
C1879 C1873 1.363 . S
C1879 C1874 1.379 . S
C1879 N1877 1.356 . S
N1880 C1872 1.356 . S
N1880 H1886 0.984 . S
N1880 H1887 0.984 . S
N1881 C1874 1.356 1_554 S
N1881 H1884 0.984 . S
N1881 H1885 0.985 . S
H1882 N1877 0.984 . S
H1883 N1877 0.985 . S
H1884 N1881 0.984 . S
H1885 N1881 0.985 . S
H1886 N1880 0.984 . S
H1887 N1880 0.984 . S
H1888 N1876 0.984 . S
H1889 N1876 0.985 1_554 S
C1890 C1891 1.363 . S
C1890 C1896 1.379 . S
C1890 N1898 1.356 . S
C1891 C1890 1.363 . S
C1891 C1897 1.363 . S
C1892 C1893 1.363 . S
C1892 C1897 1.379 . S
C1892 N1899 1.356 . S
C1893 C1892 1.363 . S
C1893 C1896 1.363 . S
N1894 C1896 1.356 . S
N1894 H1906 0.984 . S
N1894 H1907 0.985 . S
N1895 C1897 1.356 . S
N1895 H1900 0.984 . S
N1895 H1901 0.985 . S
C1896 C1890 1.379 . S
C1896 C1893 1.363 . S
C1896 N1894 1.356 . S
C1897 C1891 1.363 . S
C1897 C1892 1.379 . S
C1897 N1895 1.356 . S
N1898 C1890 1.356 . S
N1898 H1904 0.984 . S
N1898 H1905 0.984 . S
N1899 C1892 1.356 . S
N1899 H1902 0.984 . S
N1899 H1903 0.985 . S
H1900 N1895 0.984 . S
H1901 N1895 0.985 . S
H1902 N1899 0.984 . S
H1903 N1899 0.985 . S
H1904 N1898 0.984 . S
H1905 N1898 0.984 . S
H1906 N1894 0.984 . S
H1907 N1894 0.985 . S
C1908 C1909 1.363 . S
C1908 C1914 1.379 . S
C1908 N1916 1.356 . S
C1909 C1908 1.363 . S
C1909 C1915 1.363 . S
C1910 C1911 1.363 . S
C1910 C1915 1.379 . S
C1910 N1917 1.356 . S
C1911 C1910 1.363 . S
C1911 C1914 1.363 . S
N1912 C1914 1.356 . S
N1912 H1924 0.984 . S
N1912 H1925 0.985 . S
N1913 C1915 1.356 . S
N1913 H1918 0.984 . S
N1913 H1919 0.985 . S
C1914 C1908 1.379 . S
C1914 C1911 1.363 . S
C1914 N1912 1.356 . S
C1915 C1909 1.363 . S
C1915 C1910 1.379 . S
C1915 N1913 1.356 . S
N1916 C1908 1.356 . S
N1916 H1922 0.984 . S
N1916 H1923 0.984 . S
N1917 C1910 1.356 . S
N1917 H1920 0.984 . S
N1917 H1921 0.985 . S
H1918 N1913 0.984 . S
H1919 N1913 0.985 . S
H1920 N1917 0.984 . S
H1921 N1917 0.985 . S
H1922 N1916 0.984 . S
H1923 N1916 0.984 . S
H1924 N1912 0.984 . S
H1925 N1912 0.985 . S
C1926 C1927 1.363 . S
C1926 C1932 1.379 . S
C1926 N1934 1.356 . S
C1927 C1926 1.363 . S
C1927 C1933 1.363 . S
C1928 C1929 1.363 . S
C1928 C1933 1.379 . S
C1928 N1935 1.356 . S
C1929 C1928 1.363 . S
C1929 C1932 1.363 . S
N1930 C1932 1.356 . S
N1930 H1942 0.984 . S
N1930 H1943 0.985 . S
N1931 C1933 1.356 . S
N1931 H1936 0.984 . S
N1931 H1937 0.985 . S
C1932 C1926 1.379 . S
C1932 C1929 1.363 . S
C1932 N1930 1.356 . S
C1933 C1927 1.363 . S
C1933 C1928 1.379 . S
C1933 N1931 1.356 . S
N1934 C1926 1.356 . S
N1934 H1940 0.984 . S
N1934 H1941 0.984 . S
N1935 C1928 1.356 . S
N1935 H1938 0.984 . S
N1935 H1939 0.985 . S
H1936 N1931 0.984 . S
H1937 N1931 0.985 . S
H1938 N1935 0.984 . S
H1939 N1935 0.985 . S
H1940 N1934 0.984 . S
H1941 N1934 0.984 . S
H1942 N1930 0.984 . S
H1943 N1930 0.985 . S
C1944 C1945 1.363 . S
C1944 C1950 1.379 . S
C1944 N1952 1.356 . S
C1945 C1944 1.363 . S
C1945 C1951 1.363 . S
C1946 C1947 1.363 . S
C1946 C1951 1.379 . S
C1946 N1953 1.356 1_554 S
C1947 C1946 1.363 . S
C1947 C1950 1.363 . S
N1948 C1950 1.356 . S
N1948 H1960 0.984 . S
N1948 H1961 0.985 1_554 S
N1949 C1951 1.356 . S
N1949 H1954 0.984 . S
N1949 H1955 0.985 . S
C1950 C1944 1.379 . S
C1950 C1947 1.363 . S
C1950 N1948 1.356 . S
C1951 C1945 1.363 . S
C1951 C1946 1.379 . S
C1951 N1949 1.356 . S
N1952 C1944 1.356 . S
N1952 H1958 0.984 . S
N1952 H1959 0.984 . S
N1953 C1946 1.356 1_556 S
N1953 H1956 0.984 . S
N1953 H1957 0.985 . S
H1954 N1949 0.984 . S
H1955 N1949 0.985 . S
H1956 N1953 0.984 . S
H1957 N1953 0.985 . S
H1958 N1952 0.984 . S
H1959 N1952 0.984 . S
H1960 N1948 0.984 . S
H1961 N1948 0.985 1_556 S
C1962 C1963 1.363 . S
C1962 C1968 1.379 . S
C1962 N1970 1.356 . S
C1963 C1962 1.363 . S
C1963 C1969 1.363 . S
C1964 C1965 1.363 . S
C1964 C1969 1.379 . S
C1964 N1971 1.356 . S
C1965 C1964 1.363 . S
C1965 C1968 1.363 . S
N1966 C1968 1.356 . S
N1966 H1978 0.984 . S
N1966 H1979 0.985 1_554 S
N1967 C1969 1.356 . S
N1967 H1972 0.984 . S
N1967 H1973 0.985 . S
C1968 C1962 1.379 . S
C1968 C1965 1.363 . S
C1968 N1966 1.356 . S
C1969 C1963 1.363 . S
C1969 C1964 1.379 . S
C1969 N1967 1.356 . S
N1970 C1962 1.356 . S
N1970 H1976 0.984 . S
N1970 H1977 0.984 . S
N1971 C1964 1.356 . S
N1971 H1974 0.984 1_554 S
N1971 H1975 0.985 . S
H1972 N1967 0.984 . S
H1973 N1967 0.985 . S
H1974 N1971 0.984 1_556 S
H1975 N1971 0.985 . S
H1976 N1970 0.984 . S
H1977 N1970 0.984 . S
H1978 N1966 0.984 . S
H1979 N1966 0.985 1_556 S
C1980 C1981 1.363 . S
C1980 C1986 1.379 . S
C1980 N1988 1.356 1_554 S
C1981 C1980 1.363 . S
C1981 C1987 1.363 . S
C1982 C1983 1.363 . S
C1982 C1987 1.379 . S
C1982 N1989 1.356 . S
C1983 C1982 1.363 . S
C1983 C1986 1.363 . S
N1984 C1986 1.356 . S
N1984 H1996 0.984 . S
N1984 H1997 0.985 . S
N1985 C1987 1.356 . S
N1985 H1990 0.984 1_554 S
N1985 H1991 0.985 . S
C1986 C1980 1.379 . S
C1986 C1983 1.363 . S
C1986 N1984 1.356 . S
C1987 C1981 1.363 . S
C1987 C1982 1.379 . S
C1987 N1985 1.356 . S
N1988 C1980 1.356 1_556 S
N1988 H1994 0.984 . S
N1988 H1995 0.984 . S
N1989 C1982 1.356 . S
N1989 H1992 0.984 . S
N1989 H1993 0.985 . S
H1990 N1985 0.984 1_556 S
H1991 N1985 0.985 . S
H1992 N1989 0.984 . S
H1993 N1989 0.985 . S
H1994 N1988 0.984 . S
H1995 N1988 0.984 . S
H1996 N1984 0.984 . S
H1997 N1984 0.985 . S
C1998 C1999 1.363 . S
C1998 C2004 1.379 . S
C1998 N2006 1.356 . S
C1999 C1998 1.363 . S
C1999 C2005 1.363 . S
C2000 C2001 1.363 . S
C2000 C2005 1.379 . S
C2000 N2007 1.356 . S
C2001 C2000 1.363 . S
C2001 C2004 1.363 . S
N2002 C2004 1.356 . S
N2002 H2014 0.984 . S
N2002 H2015 0.985 . S
N2003 C2005 1.356 . S
N2003 H2008 0.984 . S
N2003 H2009 0.985 . S
C2004 C1998 1.379 . S
C2004 C2001 1.363 . S
C2004 N2002 1.356 . S
C2005 C1999 1.363 . S
C2005 C2000 1.379 . S
C2005 N2003 1.356 . S
N2006 C1998 1.356 . S
N2006 H2012 0.984 . S
N2006 H2013 0.984 . S
N2007 C2000 1.356 . S
N2007 H2010 0.984 . S
N2007 H2011 0.985 . S
H2008 N2003 0.984 . S
H2009 N2003 0.985 . S
H2010 N2007 0.984 . S
H2011 N2007 0.985 . S
H2012 N2006 0.984 . S
H2013 N2006 0.984 . S
H2014 N2002 0.984 . S
H2015 N2002 0.985 . S
C2016 C2017 1.363 . S
C2016 C2022 1.379 . S
C2016 N2024 1.356 . S
C2017 C2016 1.363 . S
C2017 C2023 1.363 . S
C2018 C2019 1.363 . S
C2018 C2023 1.379 . S
C2018 N2025 1.356 . S
C2019 C2018 1.363 . S
C2019 C2022 1.363 . S
N2020 C2022 1.356 . S
N2020 H2032 0.984 . S
N2020 H2033 0.985 . S
N2021 C2023 1.356 . S
N2021 H2026 0.984 . S
N2021 H2027 0.985 . S
C2022 C2016 1.379 . S
C2022 C2019 1.363 . S
C2022 N2020 1.356 . S
C2023 C2017 1.363 . S
C2023 C2018 1.379 . S
C2023 N2021 1.356 . S
N2024 C2016 1.356 . S
N2024 H2030 0.984 . S
N2024 H2031 0.984 . S
N2025 C2018 1.356 . S
N2025 H2028 0.984 . S
N2025 H2029 0.985 . S
H2026 N2021 0.984 . S
H2027 N2021 0.985 . S
H2028 N2025 0.984 . S
H2029 N2025 0.985 . S
H2030 N2024 0.984 . S
H2031 N2024 0.984 . S
H2032 N2020 0.984 . S
H2033 N2020 0.985 . S
C2034 C2035 1.363 . S
C2034 C2040 1.379 . S
C2034 N2042 1.356 . S
C2035 C2034 1.363 . S
C2035 C2041 1.363 . S
C2036 C2037 1.363 . S
C2036 C2041 1.379 . S
C2036 N2043 1.356 . S
C2037 C2036 1.363 . S
C2037 C2040 1.363 . S
N2038 C2040 1.356 . S
N2038 H2050 0.984 . S
N2038 H2051 0.985 . S
N2039 C2041 1.356 . S
N2039 H2044 0.984 . S
N2039 H2045 0.985 . S
C2040 C2034 1.379 . S
C2040 C2037 1.363 . S
C2040 N2038 1.356 . S
C2041 C2035 1.363 . S
C2041 C2036 1.379 . S
C2041 N2039 1.356 . S
N2042 C2034 1.356 . S
N2042 H2048 0.984 . S
N2042 H2049 0.984 . S
N2043 C2036 1.356 . S
N2043 H2046 0.984 . S
N2043 H2047 0.985 . S
H2044 N2039 0.984 . S
H2045 N2039 0.985 . S
H2046 N2043 0.984 . S
H2047 N2043 0.985 . S
H2048 N2042 0.984 . S
H2049 N2042 0.984 . S
H2050 N2038 0.984 . S
H2051 N2038 0.985 . S
C2052 C2053 1.363 . S
C2052 C2058 1.379 . S
C2052 N2060 1.356 . S
C2053 C2052 1.363 . S
C2053 C2059 1.363 . S
C2054 C2055 1.363 . S
C2054 C2059 1.379 . S
C2054 N2061 1.356 . S
C2055 C2054 1.363 . S
C2055 C2058 1.363 . S
N2056 C2058 1.356 . S
N2056 H2068 0.984 . S
N2056 H2069 0.985 . S
N2057 C2059 1.356 . S
N2057 H2062 0.984 . S
N2057 H2063 0.985 . S
C2058 C2052 1.379 . S
C2058 C2055 1.363 . S
C2058 N2056 1.356 . S
C2059 C2053 1.363 . S
C2059 C2054 1.379 . S
C2059 N2057 1.356 . S
N2060 C2052 1.356 . S
N2060 H2066 0.984 . S
N2060 H2067 0.984 . S
N2061 C2054 1.356 . S
N2061 H2064 0.984 . S
N2061 H2065 0.985 . S
H2062 N2057 0.984 . S
H2063 N2057 0.985 . S
H2064 N2061 0.984 . S
H2065 N2061 0.985 . S
H2066 N2060 0.984 . S
H2067 N2060 0.984 . S
H2068 N2056 0.984 . S
H2069 N2056 0.985 . S
C2070 C2071 1.363 . S
C2070 C2076 1.379 . S
C2070 N2078 1.356 . S
C2071 C2070 1.363 . S
C2071 C2077 1.363 . S
C2072 C2073 1.363 . S
C2072 C2077 1.379 . S
C2072 N2079 1.356 . S
C2073 C2072 1.363 . S
C2073 C2076 1.363 . S
N2074 C2076 1.356 . S
N2074 H2086 0.984 . S
N2074 H2087 0.985 . S
N2075 C2077 1.356 . S
N2075 H2080 0.984 . S
N2075 H2081 0.985 . S
C2076 C2070 1.379 . S
C2076 C2073 1.363 . S
C2076 N2074 1.356 . S
C2077 C2071 1.363 . S
C2077 C2072 1.379 . S
C2077 N2075 1.356 . S
N2078 C2070 1.356 . S
N2078 H2084 0.984 . S
N2078 H2085 0.984 . S
N2079 C2072 1.356 . S
N2079 H2082 0.984 . S
N2079 H2083 0.985 . S
H2080 N2075 0.984 . S
H2081 N2075 0.985 . S
H2082 N2079 0.984 . S
H2083 N2079 0.985 . S
H2084 N2078 0.984 . S
H2085 N2078 0.984 . S
H2086 N2074 0.984 . S
H2087 N2074 0.985 . S
C2088 C2089 1.363 . S
C2088 C2094 1.379 . S
C2088 N2096 1.356 . S
C2089 C2088 1.363 . S
C2089 C2095 1.363 . S
C2090 C2091 1.363 . S
C2090 C2095 1.379 . S
C2090 N2097 1.356 . S
C2091 C2090 1.363 . S
C2091 C2094 1.363 . S
N2092 C2094 1.356 . S
N2092 H2104 0.984 . S
N2092 H2105 0.985 . S
N2093 C2095 1.356 . S
N2093 H2098 0.984 . S
N2093 H2099 0.985 . S
C2094 C2088 1.379 . S
C2094 C2091 1.363 . S
C2094 N2092 1.356 . S
C2095 C2089 1.363 . S
C2095 C2090 1.379 . S
C2095 N2093 1.356 . S
N2096 C2088 1.356 . S
N2096 H2102 0.984 . S
N2096 H2103 0.984 . S
N2097 C2090 1.356 . S
N2097 H2100 0.984 . S
N2097 H2101 0.985 . S
H2098 N2093 0.984 . S
H2099 N2093 0.985 . S
H2100 N2097 0.984 . S
H2101 N2097 0.985 . S
H2102 N2096 0.984 . S
H2103 N2096 0.984 . S
H2104 N2092 0.984 . S
H2105 N2092 0.985 . S
C2106 C2107 1.363 . S
C2106 C2112 1.379 . S
C2106 N2114 1.356 . S
C2107 C2106 1.363 . S
C2107 C2113 1.363 . S
C2108 C2109 1.363 . S
C2108 C2113 1.379 . S
C2108 N2115 1.356 . S
C2109 C2108 1.363 . S
C2109 C2112 1.363 . S
N2110 C2112 1.356 1_554 S
N2110 H2122 0.984 . S
N2110 H2123 0.985 . S
N2111 C2113 1.356 . S
N2111 H2116 0.984 . S
N2111 H2117 0.985 . S
C2112 C2106 1.379 . S
C2112 C2109 1.363 . S
C2112 N2110 1.356 1_556 S
C2113 C2107 1.363 . S
C2113 C2108 1.379 . S
C2113 N2111 1.356 . S
N2114 C2106 1.356 . S
N2114 H2120 0.984 . S
N2114 H2121 0.984 . S
N2115 C2108 1.356 . S
N2115 H2118 0.984 1_556 S
N2115 H2119 0.985 . S
H2116 N2111 0.984 . S
H2117 N2111 0.985 . S
H2118 N2115 0.984 1_554 S
H2119 N2115 0.985 . S
H2120 N2114 0.984 . S
H2121 N2114 0.984 . S
H2122 N2110 0.984 . S
H2123 N2110 0.985 . S
C2124 C2125 1.363 . S
C2124 C2130 1.379 . S
C2124 N2132 1.356 . S
C2125 C2124 1.363 . S
C2125 C2131 1.363 . S
C2126 C2127 1.363 . S
C2126 C2131 1.379 . S
C2126 N2133 1.356 1_556 S
C2127 C2126 1.363 . S
C2127 C2130 1.363 . S
N2128 C2130 1.356 . S
N2128 H2140 0.984 . S
N2128 H2141 0.985 1_556 S
N2129 C2131 1.356 . S
N2129 H2134 0.984 . S
N2129 H2135 0.985 . S
C2130 C2124 1.379 . S
C2130 C2127 1.363 . S
C2130 N2128 1.356 . S
C2131 C2125 1.363 . S
C2131 C2126 1.379 . S
C2131 N2129 1.356 . S
N2132 C2124 1.356 . S
N2132 H2138 0.984 . S
N2132 H2139 0.984 . S
N2133 C2126 1.356 1_554 S
N2133 H2136 0.984 . S
N2133 H2137 0.985 . S
H2134 N2129 0.984 . S
H2135 N2129 0.985 . S
H2136 N2133 0.984 . S
H2137 N2133 0.985 . S
H2138 N2132 0.984 . S
H2139 N2132 0.984 . S
H2140 N2128 0.984 . S
H2141 N2128 0.985 1_554 S
C2142 C2143 1.363 . S
C2142 C2148 1.379 . S
C2142 N2150 1.356 . S
C2143 C2142 1.363 . S
C2143 C2149 1.363 . S
C2144 C2145 1.363 . S
C2144 C2149 1.379 . S
C2144 N2151 1.356 1_556 S
C2145 C2144 1.363 . S
C2145 C2148 1.363 . S
N2146 C2148 1.356 . S
N2146 H2158 0.984 . S
N2146 H2159 0.985 1_556 S
N2147 C2149 1.356 . S
N2147 H2152 0.984 . S
N2147 H2153 0.985 . S
C2148 C2142 1.379 . S
C2148 C2145 1.363 . S
C2148 N2146 1.356 . S
C2149 C2143 1.363 . S
C2149 C2144 1.379 . S
C2149 N2147 1.356 . S
N2150 C2142 1.356 . S
N2150 H2156 0.984 . S
N2150 H2157 0.984 . S
N2151 C2144 1.356 1_554 S
N2151 H2154 0.984 . S
N2151 H2155 0.985 . S
H2152 N2147 0.984 . S
H2153 N2147 0.985 . S
H2154 N2151 0.984 . S
H2155 N2151 0.985 . S
H2156 N2150 0.984 . S
H2157 N2150 0.984 . S
H2158 N2146 0.984 . S
H2159 N2146 0.985 1_554 S
C2160 C2161 1.363 . S
C2160 C2166 1.379 . S
C2160 N2168 1.356 . S
C2161 C2160 1.363 . S
C2161 C2167 1.363 . S
C2162 C2163 1.363 . S
C2162 C2167 1.379 . S
C2162 N2169 1.356 . S
C2163 C2162 1.363 . S
C2163 C2166 1.363 . S
N2164 C2166 1.356 . S
N2164 H2176 0.984 . S
N2164 H2177 0.985 . S
N2165 C2167 1.356 . S
N2165 H2170 0.984 . S
N2165 H2171 0.985 . S
C2166 C2160 1.379 . S
C2166 C2163 1.363 . S
C2166 N2164 1.356 . S
C2167 C2161 1.363 . S
C2167 C2162 1.379 . S
C2167 N2165 1.356 . S
N2168 C2160 1.356 . S
N2168 H2174 0.984 . S
N2168 H2175 0.984 . S
N2169 C2162 1.356 . S
N2169 H2172 0.984 . S
N2169 H2173 0.985 . S
H2170 N2165 0.984 . S
H2171 N2165 0.985 . S
H2172 N2169 0.984 . S
H2173 N2169 0.985 . S
H2174 N2168 0.984 . S
H2175 N2168 0.984 . S
H2176 N2164 0.984 . S
H2177 N2164 0.985 . S
C2178 C2179 1.363 . S
C2178 C2184 1.379 . S
C2178 N2186 1.356 . S
C2179 C2178 1.363 . S
C2179 C2185 1.363 . S
C2180 C2181 1.363 . S
C2180 C2185 1.379 . S
C2180 N2187 1.356 . S
C2181 C2180 1.363 . S
C2181 C2184 1.363 . S
N2182 C2184 1.356 . S
N2182 H2194 0.984 . S
N2182 H2195 0.985 . S
N2183 C2185 1.356 . S
N2183 H2188 0.984 . S
N2183 H2189 0.985 . S
C2184 C2178 1.379 . S
C2184 C2181 1.363 . S
C2184 N2182 1.356 . S
C2185 C2179 1.363 . S
C2185 C2180 1.379 . S
C2185 N2183 1.356 . S
N2186 C2178 1.356 . S
N2186 H2192 0.984 . S
N2186 H2193 0.984 . S
N2187 C2180 1.356 . S
N2187 H2190 0.984 . S
N2187 H2191 0.985 . S
H2188 N2183 0.984 . S
H2189 N2183 0.985 . S
H2190 N2187 0.984 . S
H2191 N2187 0.985 . S
H2192 N2186 0.984 . S
H2193 N2186 0.984 . S
H2194 N2182 0.984 . S
H2195 N2182 0.985 . S
C2196 C2197 1.363 . S
C2196 C2202 1.379 . S
C2196 N2204 1.356 . S
C2197 C2196 1.363 . S
C2197 C2203 1.363 . S
C2198 C2199 1.363 . S
C2198 C2203 1.379 . S
C2198 N2205 1.356 . S
C2199 C2198 1.363 . S
C2199 C2202 1.363 . S
N2200 C2202 1.356 . S
N2200 H2212 0.984 . S
N2200 H2213 0.985 . S
N2201 C2203 1.356 . S
N2201 H2206 0.984 . S
N2201 H2207 0.985 . S
C2202 C2196 1.379 . S
C2202 C2199 1.363 . S
C2202 N2200 1.356 . S
C2203 C2197 1.363 . S
C2203 C2198 1.379 . S
C2203 N2201 1.356 . S
N2204 C2196 1.356 . S
N2204 H2210 0.984 . S
N2204 H2211 0.984 . S
N2205 C2198 1.356 . S
N2205 H2208 0.984 . S
N2205 H2209 0.985 . S
H2206 N2201 0.984 . S
H2207 N2201 0.985 . S
H2208 N2205 0.984 . S
H2209 N2205 0.985 . S
H2210 N2204 0.984 . S
H2211 N2204 0.984 . S
H2212 N2200 0.984 . S
H2213 N2200 0.985 . S
C2214 C2215 1.363 . S
C2214 C2220 1.379 . S
C2214 N2222 1.356 . S
C2215 C2214 1.363 . S
C2215 C2221 1.363 . S
C2216 C2217 1.363 . S
C2216 C2221 1.379 . S
C2216 N2223 1.356 . S
C2217 C2216 1.363 . S
C2217 C2220 1.363 . S
N2218 C2220 1.356 . S
N2218 H2230 0.984 . S
N2218 H2231 0.985 . S
N2219 C2221 1.356 . S
N2219 H2224 0.984 . S
N2219 H2225 0.985 . S
C2220 C2214 1.379 . S
C2220 C2217 1.363 . S
C2220 N2218 1.356 . S
C2221 C2215 1.363 . S
C2221 C2216 1.379 . S
C2221 N2219 1.356 . S
N2222 C2214 1.356 . S
N2222 H2228 0.984 . S
N2222 H2229 0.984 . S
N2223 C2216 1.356 . S
N2223 H2226 0.984 . S
N2223 H2227 0.985 . S
H2224 N2219 0.984 . S
H2225 N2219 0.985 . S
H2226 N2223 0.984 . S
H2227 N2223 0.985 . S
H2228 N2222 0.984 . S
H2229 N2222 0.984 . S
H2230 N2218 0.984 . S
H2231 N2218 0.985 . S
C2232 C2233 1.363 . S
C2232 C2238 1.379 . S
C2232 N2240 1.356 . S
C2233 C2232 1.363 . S
C2233 C2239 1.363 . S
C2234 C2235 1.363 . S
C2234 C2239 1.379 . S
C2234 N2241 1.356 . S
C2235 C2234 1.363 . S
C2235 C2238 1.363 . S
N2236 C2238 1.356 . S
N2236 H2248 0.984 . S
N2236 H2249 0.985 . S
N2237 C2239 1.356 . S
N2237 H2242 0.984 . S
N2237 H2243 0.985 . S
C2238 C2232 1.379 . S
C2238 C2235 1.363 . S
C2238 N2236 1.356 . S
C2239 C2233 1.363 . S
C2239 C2234 1.379 . S
C2239 N2237 1.356 . S
N2240 C2232 1.356 . S
N2240 H2246 0.984 . S
N2240 H2247 0.984 . S
N2241 C2234 1.356 . S
N2241 H2244 0.984 . S
N2241 H2245 0.985 . S
H2242 N2237 0.984 . S
H2243 N2237 0.985 . S
H2244 N2241 0.984 . S
H2245 N2241 0.985 . S
H2246 N2240 0.984 . S
H2247 N2240 0.984 . S
H2248 N2236 0.984 . S
H2249 N2236 0.985 . S
C2250 C2251 1.363 . S
C2250 C2256 1.379 . S
C2250 N2258 1.356 . S
C2251 C2250 1.363 . S
C2251 C2257 1.363 . S
C2252 C2253 1.363 . S
C2252 C2257 1.379 . S
C2252 N2259 1.356 . S
C2253 C2252 1.363 . S
C2253 C2256 1.363 . S
N2254 C2256 1.356 . S
N2254 H2266 0.984 . S
N2254 H2267 0.985 . S
N2255 C2257 1.356 . S
N2255 H2260 0.984 . S
N2255 H2261 0.985 . S
C2256 C2250 1.379 . S
C2256 C2253 1.363 . S
C2256 N2254 1.356 . S
C2257 C2251 1.363 . S
C2257 C2252 1.379 . S
C2257 N2255 1.356 . S
N2258 C2250 1.356 . S
N2258 H2264 0.984 . S
N2258 H2265 0.984 . S
N2259 C2252 1.356 . S
N2259 H2262 0.984 . S
N2259 H2263 0.985 . S
H2260 N2255 0.984 . S
H2261 N2255 0.985 . S
H2262 N2259 0.984 . S
H2263 N2259 0.985 . S
H2264 N2258 0.984 . S
H2265 N2258 0.984 . S
H2266 N2254 0.984 . S
H2267 N2254 0.985 . S
C2268 C2269 1.363 . S
C2268 C2274 1.379 . S
C2268 N2276 1.356 . S
C2269 C2268 1.363 . S
C2269 C2275 1.363 . S
C2270 C2271 1.363 . S
C2270 C2275 1.379 . S
C2270 N2277 1.356 . S
C2271 C2270 1.363 . S
C2271 C2274 1.363 . S
N2272 C2274 1.356 . S
N2272 H2284 0.984 . S
N2272 H2285 0.985 . S
N2273 C2275 1.356 . S
N2273 H2278 0.984 . S
N2273 H2279 0.985 . S
C2274 C2268 1.379 . S
C2274 C2271 1.363 . S
C2274 N2272 1.356 . S
C2275 C2269 1.363 . S
C2275 C2270 1.379 . S
C2275 N2273 1.356 . S
N2276 C2268 1.356 . S
N2276 H2282 0.984 . S
N2276 H2283 0.984 . S
N2277 C2270 1.356 . S
N2277 H2280 0.984 . S
N2277 H2281 0.985 . S
H2278 N2273 0.984 . S
H2279 N2273 0.985 . S
H2280 N2277 0.984 . S
H2281 N2277 0.985 . S
H2282 N2276 0.984 . S
H2283 N2276 0.984 . S
H2284 N2272 0.984 . S
H2285 N2272 0.985 . S
C2286 C2287 1.363 . S
C2286 C2292 1.379 . S
C2286 N2294 1.356 . S
C2287 C2286 1.363 . S
C2287 C2293 1.363 . S
C2288 C2289 1.363 . S
C2288 C2293 1.379 . S
C2288 N2295 1.356 . S
C2289 C2288 1.363 . S
C2289 C2292 1.363 . S
N2290 C2292 1.356 . S
N2290 H2302 0.984 . S
N2290 H2303 0.985 . S
N2291 C2293 1.356 . S
N2291 H2296 0.984 . S
N2291 H2297 0.985 . S
C2292 C2286 1.379 . S
C2292 C2289 1.363 . S
C2292 N2290 1.356 . S
C2293 C2287 1.363 . S
C2293 C2288 1.379 . S
C2293 N2291 1.356 . S
N2294 C2286 1.356 . S
N2294 H2300 0.984 . S
N2294 H2301 0.984 . S
N2295 C2288 1.356 . S
N2295 H2298 0.984 . S
N2295 H2299 0.985 . S
H2296 N2291 0.984 . S
H2297 N2291 0.985 . S
H2298 N2295 0.984 . S
H2299 N2295 0.985 . S
H2300 N2294 0.984 . S
H2301 N2294 0.984 . S
H2302 N2290 0.984 . S
H2303 N2290 0.985 . S
C2304 C2305 1.363 . S
C2304 C2310 1.379 . S
C2304 N2312 1.356 . S
C2305 C2304 1.363 . S
C2305 C2311 1.363 . S
C2306 C2307 1.363 . S
C2306 C2311 1.379 . S
C2306 N2313 1.356 . S
C2307 C2306 1.363 . S
C2307 C2310 1.363 . S
N2308 C2310 1.356 . S
N2308 H2320 0.984 . S
N2308 H2321 0.985 . S
N2309 C2311 1.356 . S
N2309 H2314 0.984 . S
N2309 H2315 0.985 . S
C2310 C2304 1.379 . S
C2310 C2307 1.363 . S
C2310 N2308 1.356 . S
C2311 C2305 1.363 . S
C2311 C2306 1.379 . S
C2311 N2309 1.356 . S
N2312 C2304 1.356 . S
N2312 H2318 0.984 . S
N2312 H2319 0.984 . S
N2313 C2306 1.356 . S
N2313 H2316 0.984 . S
N2313 H2317 0.985 . S
H2314 N2309 0.984 . S
H2315 N2309 0.985 . S
H2316 N2313 0.984 . S
H2317 N2313 0.985 . S
H2318 N2312 0.984 . S
H2319 N2312 0.984 . S
H2320 N2308 0.984 . S
H2321 N2308 0.985 . S
C2322 C2323 1.363 . S
C2322 C2328 1.379 . S
C2322 N2330 1.356 . S
C2323 C2322 1.363 . S
C2323 C2329 1.363 . S
C2324 C2325 1.363 . S
C2324 C2329 1.379 . S
C2324 N2331 1.356 . S
C2325 C2324 1.363 . S
C2325 C2328 1.363 . S
N2326 C2328 1.356 . S
N2326 H2338 0.984 . S
N2326 H2339 0.985 . S
N2327 C2329 1.356 . S
N2327 H2332 0.984 . S
N2327 H2333 0.985 . S
C2328 C2322 1.379 . S
C2328 C2325 1.363 . S
C2328 N2326 1.356 . S
C2329 C2323 1.363 . S
C2329 C2324 1.379 . S
C2329 N2327 1.356 . S
N2330 C2322 1.356 . S
N2330 H2336 0.984 . S
N2330 H2337 0.984 . S
N2331 C2324 1.356 . S
N2331 H2334 0.984 . S
N2331 H2335 0.985 . S
H2332 N2327 0.984 . S
H2333 N2327 0.985 . S
H2334 N2331 0.984 . S
H2335 N2331 0.985 . S
H2336 N2330 0.984 . S
H2337 N2330 0.984 . S
H2338 N2326 0.984 . S
H2339 N2326 0.985 . S
C2340 C2341 1.363 . S
C2340 C2346 1.379 . S
C2340 N2348 1.356 . S
C2341 C2340 1.363 . S
C2341 C2347 1.363 . S
C2342 C2343 1.363 . S
C2342 C2347 1.379 . S
C2342 N2349 1.356 . S
C2343 C2342 1.363 . S
C2343 C2346 1.363 . S
N2344 C2346 1.356 . S
N2344 H2356 0.984 . S
N2344 H2357 0.985 . S
N2345 C2347 1.356 . S
N2345 H2350 0.984 . S
N2345 H2351 0.985 . S
C2346 C2340 1.379 . S
C2346 C2343 1.363 . S
C2346 N2344 1.356 . S
C2347 C2341 1.363 . S
C2347 C2342 1.379 . S
C2347 N2345 1.356 . S
N2348 C2340 1.356 . S
N2348 H2354 0.984 . S
N2348 H2355 0.984 . S
N2349 C2342 1.356 . S
N2349 H2352 0.984 . S
N2349 H2353 0.985 . S
H2350 N2345 0.984 . S
H2351 N2345 0.985 . S
H2352 N2349 0.984 . S
H2353 N2349 0.985 . S
H2354 N2348 0.984 . S
H2355 N2348 0.984 . S
H2356 N2344 0.984 . S
H2357 N2344 0.985 . S
C2358 C2359 1.363 . S
C2358 C2364 1.379 . S
C2358 N2366 1.356 . S
C2359 C2358 1.363 . S
C2359 C2365 1.363 . S
C2360 C2361 1.363 . S
C2360 C2365 1.379 . S
C2360 N2367 1.356 . S
C2361 C2360 1.363 . S
C2361 C2364 1.363 . S
N2362 C2364 1.356 . S
N2362 H2374 0.984 . S
N2362 H2375 0.985 . S
N2363 C2365 1.356 . S
N2363 H2368 0.984 . S
N2363 H2369 0.985 . S
C2364 C2358 1.379 . S
C2364 C2361 1.363 . S
C2364 N2362 1.356 . S
C2365 C2359 1.363 . S
C2365 C2360 1.379 . S
C2365 N2363 1.356 . S
N2366 C2358 1.356 . S
N2366 H2372 0.984 . S
N2366 H2373 0.984 . S
N2367 C2360 1.356 . S
N2367 H2370 0.984 . S
N2367 H2371 0.985 . S
H2368 N2363 0.984 . S
H2369 N2363 0.985 . S
H2370 N2367 0.984 . S
H2371 N2367 0.985 . S
H2372 N2366 0.984 . S
H2373 N2366 0.984 . S
H2374 N2362 0.984 . S
H2375 N2362 0.985 . S
C2376 C2377 1.363 . S
C2376 C2382 1.379 . S
C2376 N2384 1.356 . S
C2377 C2376 1.363 . S
C2377 C2383 1.363 . S
C2378 C2379 1.363 . S
C2378 C2383 1.379 . S
C2378 N2385 1.356 . S
C2379 C2378 1.363 . S
C2379 C2382 1.363 . S
N2380 C2382 1.356 . S
N2380 H2392 0.984 . S
N2380 H2393 0.985 . S
N2381 C2383 1.356 . S
N2381 H2386 0.984 . S
N2381 H2387 0.985 . S
C2382 C2376 1.379 . S
C2382 C2379 1.363 . S
C2382 N2380 1.356 . S
C2383 C2377 1.363 . S
C2383 C2378 1.379 . S
C2383 N2381 1.356 . S
N2384 C2376 1.356 . S
N2384 H2390 0.984 . S
N2384 H2391 0.984 . S
N2385 C2378 1.356 . S
N2385 H2388 0.984 . S
N2385 H2389 0.985 . S
H2386 N2381 0.984 . S
H2387 N2381 0.985 . S
H2388 N2385 0.984 . S
H2389 N2385 0.985 . S
H2390 N2384 0.984 . S
H2391 N2384 0.984 . S
H2392 N2380 0.984 . S
H2393 N2380 0.985 . S
C2394 C2395 1.363 . S
C2394 C2400 1.379 . S
C2394 N2402 1.356 . S
C2395 C2394 1.363 . S
C2395 C2401 1.363 . S
C2396 C2397 1.363 . S
C2396 C2401 1.379 . S
C2396 N2403 1.356 . S
C2397 C2396 1.363 . S
C2397 C2400 1.363 . S
N2398 C2400 1.356 . S
N2398 H2410 0.984 . S
N2398 H2411 0.985 . S
N2399 C2401 1.356 . S
N2399 H2404 0.984 . S
N2399 H2405 0.985 . S
C2400 C2394 1.379 . S
C2400 C2397 1.363 . S
C2400 N2398 1.356 . S
C2401 C2395 1.363 . S
C2401 C2396 1.379 . S
C2401 N2399 1.356 . S
N2402 C2394 1.356 . S
N2402 H2408 0.984 . S
N2402 H2409 0.984 . S
N2403 C2396 1.356 . S
N2403 H2406 0.984 . S
N2403 H2407 0.985 . S
H2404 N2399 0.984 . S
H2405 N2399 0.985 . S
H2406 N2403 0.984 . S
H2407 N2403 0.985 . S
H2408 N2402 0.984 . S
H2409 N2402 0.984 . S
H2410 N2398 0.984 . S
H2411 N2398 0.985 . S
C2412 C2413 1.363 . S
C2412 C2418 1.379 . S
C2412 N2420 1.356 . S
C2413 C2412 1.363 . S
C2413 C2419 1.363 . S
C2414 C2415 1.363 . S
C2414 C2419 1.379 . S
C2414 N2421 1.356 . S
C2415 C2414 1.363 . S
C2415 C2418 1.363 . S
N2416 C2418 1.356 . S
N2416 H2428 0.984 . S
N2416 H2429 0.985 . S
N2417 C2419 1.356 . S
N2417 H2422 0.984 . S
N2417 H2423 0.985 . S
C2418 C2412 1.379 . S
C2418 C2415 1.363 . S
C2418 N2416 1.356 . S
C2419 C2413 1.363 . S
C2419 C2414 1.379 . S
C2419 N2417 1.356 . S
N2420 C2412 1.356 . S
N2420 H2426 0.984 . S
N2420 H2427 0.984 . S
N2421 C2414 1.356 . S
N2421 H2424 0.984 . S
N2421 H2425 0.985 . S
H2422 N2417 0.984 . S
H2423 N2417 0.985 . S
H2424 N2421 0.984 . S
H2425 N2421 0.985 . S
H2426 N2420 0.984 . S
H2427 N2420 0.984 . S
H2428 N2416 0.984 . S
H2429 N2416 0.985 . S
C2430 C2431 1.363 . S
C2430 C2436 1.379 . S
C2430 N2438 1.356 . S
C2431 C2430 1.363 . S
C2431 C2437 1.363 . S
C2432 C2433 1.363 . S
C2432 C2437 1.379 . S
C2432 N2439 1.356 1_554 S
C2433 C2432 1.363 . S
C2433 C2436 1.363 . S
N2434 C2436 1.356 . S
N2434 H2446 0.984 . S
N2434 H2447 0.985 1_554 S
N2435 C2437 1.356 . S
N2435 H2440 0.984 . S
N2435 H2441 0.985 . S
C2436 C2430 1.379 . S
C2436 C2433 1.363 . S
C2436 N2434 1.356 . S
C2437 C2431 1.363 . S
C2437 C2432 1.379 . S
C2437 N2435 1.356 . S
N2438 C2430 1.356 . S
N2438 H2444 0.984 . S
N2438 H2445 0.984 . S
N2439 C2432 1.356 1_556 S
N2439 H2442 0.984 . S
N2439 H2443 0.985 . S
H2440 N2435 0.984 . S
H2441 N2435 0.985 . S
H2442 N2439 0.984 . S
H2443 N2439 0.985 . S
H2444 N2438 0.984 . S
H2445 N2438 0.984 . S
H2446 N2434 0.984 . S
H2447 N2434 0.985 1_556 S
C2448 C2449 1.363 . S
C2448 C2454 1.379 . S
C2448 N2456 1.356 . S
C2449 C2448 1.363 . S
C2449 C2455 1.363 . S
C2450 C2451 1.363 . S
C2450 C2455 1.379 . S
C2450 N2457 1.356 . S
C2451 C2450 1.363 . S
C2451 C2454 1.363 . S
N2452 C2454 1.356 . S
N2452 H2464 0.984 . S
N2452 H2465 0.985 . S
N2453 C2455 1.352 1_556 S
N2453 H2458 0.989 . S
N2453 H2459 0.984 1_556 S
C2454 C2448 1.379 . S
C2454 C2451 1.363 . S
C2454 N2452 1.356 . S
C2455 C2449 1.363 . S
C2455 C2450 1.379 . S
C2455 N2453 1.352 1_554 S
N2456 C2448 1.356 . S
N2456 H2462 0.984 . S
N2456 H2463 0.984 1_554 S
N2457 C2450 1.356 . S
N2457 H2460 0.984 . S
N2457 H2461 0.985 . S
H2458 N2453 0.989 . S
H2459 N2453 0.984 1_554 S
H2460 N2457 0.984 . S
H2461 N2457 0.985 . S
H2462 N2456 0.984 . S
H2463 N2456 0.984 1_556 S
H2464 N2452 0.984 . S
H2465 N2452 0.985 . S
C2466 C2467 1.363 . S
C2466 C2472 1.379 . S
C2466 N2474 1.356 1_554 S
C2467 C2466 1.363 . S
C2467 C2473 1.363 . S
C2468 C2469 1.363 . S
C2468 C2473 1.379 . S
C2468 N2475 1.356 . S
C2469 C2468 1.363 . S
C2469 C2472 1.363 . S
N2470 C2472 1.356 . S
N2470 H2482 0.984 . S
N2470 H2483 0.985 . S
N2471 C2473 1.356 . S
N2471 H2476 0.984 1_554 S
N2471 H2477 0.985 . S
C2472 C2466 1.379 . S
C2472 C2469 1.363 . S
C2472 N2470 1.356 . S
C2473 C2467 1.363 . S
C2473 C2468 1.379 . S
C2473 N2471 1.356 . S
N2474 C2466 1.356 1_556 S
N2474 H2480 0.984 . S
N2474 H2481 0.984 . S
N2475 C2468 1.356 . S
N2475 H2478 0.984 . S
N2475 H2479 0.985 . S
H2476 N2471 0.984 1_556 S
H2477 N2471 0.985 . S
H2478 N2475 0.984 . S
H2479 N2475 0.985 . S
H2480 N2474 0.984 . S
H2481 N2474 0.984 . S
H2482 N2470 0.984 . S
H2483 N2470 0.985 . S
C2484 C2485 1.363 . S
C2484 C2490 1.380 . S
C2484 N2492 1.356 . S
C2485 C2484 1.363 . S
C2485 C2491 1.361 1_565 S
C2486 C2487 1.363 . S
C2486 C2491 1.380 . S
C2486 N2493 1.356 . S
C2487 C2486 1.363 . S
C2487 C2490 1.362 1_545 S
N2488 C2490 1.356 1_545 S
N2488 H2500 0.984 1_545 S
N2488 H2501 0.985 . S
N2489 C2491 1.356 1_565 S
N2489 H2494 0.984 . S
N2489 H2495 0.985 1_565 S
C2490 C2484 1.380 . S
C2490 C2487 1.362 1_565 S
C2490 N2488 1.356 1_565 S
C2491 C2485 1.361 1_545 S
C2491 C2486 1.380 . S
C2491 N2489 1.356 1_545 S
N2492 C2484 1.356 . S
N2492 H2498 0.984 . S
N2492 H2499 0.984 . S
N2493 C2486 1.356 . S
N2493 H2496 0.984 . S
N2493 H2497 0.985 . S
H2494 N2489 0.984 . S
H2495 N2489 0.985 1_545 S
H2496 N2493 0.984 . S
H2497 N2493 0.985 . S
H2498 N2492 0.984 . S
H2499 N2492 0.984 . S
H2500 N2488 0.984 1_565 S
H2501 N2488 0.985 . S
C2502 C2503 1.353 1_455 S
C2502 C2508 1.387 . S
C2502 N2510 1.355 1_455 S
C2503 C2502 1.353 1_655 S
C2503 C2509 1.363 . S
C2504 C2505 1.353 1_655 S
C2504 C2509 1.387 . S
C2504 N2511 1.355 1_655 S
C2505 C2504 1.353 1_455 S
C2505 C2508 1.363 . S
N2506 C2508 1.356 . S
N2506 H2518 0.984 . S
N2506 H2519 0.985 . S
N2507 C2509 1.356 . S
N2507 H2512 0.984 . S
N2507 H2513 0.985 . S
C2508 C2502 1.387 . S
C2508 C2505 1.363 . S
C2508 N2506 1.356 . S
C2509 C2503 1.363 . S
C2509 C2504 1.387 . S
C2509 N2507 1.356 . S
N2510 C2502 1.355 1_655 S
N2510 H2516 0.984 1_655 S
N2510 H2517 0.984 . S
N2511 C2504 1.355 1_455 S
N2511 H2514 0.984 . S
N2511 H2515 0.985 1_455 S
H2512 N2507 0.984 . S
H2513 N2507 0.985 . S
H2514 N2511 0.984 . S
H2515 N2511 0.985 1_655 S
H2516 N2510 0.984 1_455 S
H2517 N2510 0.984 . S
H2518 N2506 0.984 . S
H2519 N2506 0.985 . S
C2520 C2521 1.363 . S
C2520 C2526 1.379 . S
C2520 N2528 1.356 . S
C2521 C2520 1.363 . S
C2521 C2527 1.363 . S
C2522 C2523 1.363 . S
C2522 C2527 1.379 . S
C2522 N2529 1.356 . S
C2523 C2522 1.363 . S
C2523 C2526 1.363 . S
N2524 C2526 1.356 . S
N2524 H2536 0.984 . S
N2524 H2537 0.985 . S
N2525 C2527 1.356 . S
N2525 H2530 0.984 . S
N2525 H2531 0.985 . S
C2526 C2520 1.379 . S
C2526 C2523 1.363 . S
C2526 N2524 1.356 . S
C2527 C2521 1.363 . S
C2527 C2522 1.379 . S
C2527 N2525 1.356 . S
N2528 C2520 1.356 . S
N2528 H2534 0.984 . S
N2528 H2535 0.984 . S
N2529 C2522 1.356 . S
N2529 H2532 0.984 . S
N2529 H2533 0.985 . S
H2530 N2525 0.984 . S
H2531 N2525 0.985 . S
H2532 N2529 0.984 . S
H2533 N2529 0.985 . S
H2534 N2528 0.984 . S
H2535 N2528 0.984 . S
H2536 N2524 0.984 . S
H2537 N2524 0.985 . S
C2538 C2539 1.363 . S
C2538 C2544 1.379 1_545 S
C2538 N2546 1.356 . S
C2539 C2538 1.363 . S
C2539 C2545 1.363 . S
C2540 C2541 1.363 . S
C2540 C2545 1.379 1_565 S
C2540 N2547 1.356 . S
C2541 C2540 1.363 . S
C2541 C2544 1.363 . S
N2542 C2544 1.356 . S
N2542 H2554 0.984 . S
N2542 H2555 0.985 . S
N2543 C2545 1.356 . S
N2543 H2548 0.984 . S
N2543 H2549 0.985 . S
C2544 C2538 1.379 1_565 S
C2544 C2541 1.363 . S
C2544 N2542 1.356 . S
C2545 C2539 1.363 . S
C2545 C2540 1.379 1_545 S
C2545 N2543 1.356 . S
N2546 C2538 1.356 . S
N2546 H2552 0.973 1_545 S
N2546 H2553 0.984 . S
N2547 C2540 1.356 . S
N2547 H2550 0.984 . S
N2547 H2551 0.973 1_565 S
H2548 N2543 0.984 . S
H2549 N2543 0.985 . S
H2550 N2547 0.984 . S
H2551 N2547 0.973 1_545 S
H2552 N2546 0.973 1_565 S
H2553 N2546 0.984 . S
H2554 N2542 0.984 . S
H2555 N2542 0.985 . S
C2556 C2557 1.363 . S
C2556 C2562 1.379 1_655 S
C2556 N2564 1.356 . S
C2557 C2556 1.363 . S
C2557 C2563 1.363 . S
C2558 C2559 1.363 . S
C2558 C2563 1.379 1_455 S
C2558 N2565 1.356 . S
C2559 C2558 1.363 . S
C2559 C2562 1.363 . S
N2560 C2562 1.356 . S
N2560 H2572 0.984 . S
N2560 H2573 0.985 . S
N2561 C2563 1.356 . S
N2561 H2566 0.984 . S
N2561 H2567 0.985 . S
C2562 C2556 1.379 1_455 S
C2562 C2559 1.363 . S
C2562 N2560 1.356 . S
C2563 C2557 1.363 . S
C2563 C2558 1.379 1_655 S
C2563 N2561 1.356 . S
N2564 C2556 1.356 . S
N2564 H2570 0.984 . S
N2564 H2571 0.984 . S
N2565 C2558 1.356 . S
N2565 H2568 0.984 . S
N2565 H2569 0.985 . S
H2566 N2561 0.984 . S
H2567 N2561 0.985 . S
H2568 N2565 0.984 . S
H2569 N2565 0.985 . S
H2570 N2564 0.984 . S
H2571 N2564 0.984 . S
H2572 N2560 0.984 . S
H2573 N2560 0.985 . S
C2574 C2575 1.363 . S
C2574 C2580 1.379 . S
C2574 N2582 1.356 . S
C2575 C2574 1.363 . S
C2575 C2581 1.363 . S
C2576 C2577 1.363 . S
C2576 C2581 1.379 . S
C2576 N2583 1.356 . S
C2577 C2576 1.363 . S
C2577 C2580 1.363 . S
N2578 C2580 1.356 . S
N2578 H2590 0.984 . S
N2578 H2591 0.985 . S
N2579 C2581 1.356 . S
N2579 H2584 0.984 . S
N2579 H2585 0.985 . S
C2580 C2574 1.379 . S
C2580 C2577 1.363 . S
C2580 N2578 1.356 . S
C2581 C2575 1.363 . S
C2581 C2576 1.379 . S
C2581 N2579 1.356 . S
N2582 C2574 1.356 . S
N2582 H2588 0.984 . S
N2582 H2589 0.984 . S
N2583 C2576 1.356 . S
N2583 H2586 0.984 . S
N2583 H2587 0.985 . S
H2584 N2579 0.984 . S
H2585 N2579 0.985 . S
H2586 N2583 0.984 . S
H2587 N2583 0.985 . S
H2588 N2582 0.984 . S
H2589 N2582 0.984 . S
H2590 N2578 0.984 . S
H2591 N2578 0.985 . S
C2592 C2593 1.363 . S
C2592 C2598 1.379 . S
C2592 N2600 1.356 . S
C2593 C2592 1.363 . S
C2593 C2599 1.363 . S
C2594 C2595 1.363 . S
C2594 C2599 1.379 . S
C2594 N2601 1.356 . S
C2595 C2594 1.363 . S
C2595 C2598 1.363 . S
N2596 C2598 1.356 . S
N2596 H2608 0.984 . S
N2596 H2609 0.985 . S
N2597 C2599 1.356 . S
N2597 H2602 0.984 . S
N2597 H2603 0.985 . S
C2598 C2592 1.379 . S
C2598 C2595 1.363 . S
C2598 N2596 1.356 . S
C2599 C2593 1.363 . S
C2599 C2594 1.379 . S
C2599 N2597 1.356 . S
N2600 C2592 1.356 . S
N2600 H2606 0.984 . S
N2600 H2607 0.984 . S
N2601 C2594 1.356 . S
N2601 H2604 0.984 . S
N2601 H2605 0.985 . S
H2602 N2597 0.984 . S
H2603 N2597 0.985 . S
H2604 N2601 0.984 . S
H2605 N2601 0.985 . S
H2606 N2600 0.984 . S
H2607 N2600 0.984 . S
H2608 N2596 0.984 . S
H2609 N2596 0.985 . S
C2610 C2611 1.363 . S
C2610 C2616 1.379 . S
C2610 N2618 1.356 . S
C2611 C2610 1.363 . S
C2611 C2617 1.363 . S
C2612 C2613 1.363 . S
C2612 C2617 1.379 . S
C2612 N2619 1.356 . S
C2613 C2612 1.363 . S
C2613 C2616 1.363 . S
N2614 C2616 1.356 . S
N2614 H2626 0.984 . S
N2614 H2627 0.985 . S
N2615 C2617 1.356 . S
N2615 H2620 0.984 . S
N2615 H2621 0.985 . S
C2616 C2610 1.379 . S
C2616 C2613 1.363 . S
C2616 N2614 1.356 . S
C2617 C2611 1.363 . S
C2617 C2612 1.379 . S
C2617 N2615 1.356 . S
N2618 C2610 1.356 . S
N2618 H2624 0.984 . S
N2618 H2625 0.984 . S
N2619 C2612 1.356 . S
N2619 H2622 0.984 . S
N2619 H2623 0.985 . S
H2620 N2615 0.984 . S
H2621 N2615 0.985 . S
H2622 N2619 0.984 . S
H2623 N2619 0.985 . S
H2624 N2618 0.984 . S
H2625 N2618 0.984 . S
H2626 N2614 0.984 . S
H2627 N2614 0.985 . S
C2628 C2629 1.363 . S
C2628 C2634 1.379 . S
C2628 N2636 1.356 . S
C2629 C2628 1.363 . S
C2629 C2635 1.363 . S
C2630 C2631 1.363 . S
C2630 C2635 1.379 . S
C2630 N2637 1.356 . S
C2631 C2630 1.363 . S
C2631 C2634 1.363 . S
N2632 C2634 1.356 . S
N2632 H2644 0.984 . S
N2632 H2645 0.985 . S
N2633 C2635 1.356 . S
N2633 H2638 0.984 . S
N2633 H2639 0.985 . S
C2634 C2628 1.379 . S
C2634 C2631 1.363 . S
C2634 N2632 1.356 . S
C2635 C2629 1.363 . S
C2635 C2630 1.379 . S
C2635 N2633 1.356 . S
N2636 C2628 1.356 . S
N2636 H2642 0.984 . S
N2636 H2643 0.984 . S
N2637 C2630 1.356 . S
N2637 H2640 0.984 . S
N2637 H2641 0.985 . S
H2638 N2633 0.984 . S
H2639 N2633 0.985 . S
H2640 N2637 0.984 . S
H2641 N2637 0.985 . S
H2642 N2636 0.984 . S
H2643 N2636 0.984 . S
H2644 N2632 0.984 . S
H2645 N2632 0.985 . S
C2646 C2647 1.363 . S
C2646 C2652 1.379 . S
C2646 N2654 1.356 . S
C2647 C2646 1.363 . S
C2647 C2653 1.363 . S
C2648 C2649 1.363 . S
C2648 C2653 1.379 . S
C2648 N2655 1.356 1_554 S
C2649 C2648 1.363 . S
C2649 C2652 1.363 . S
N2650 C2652 1.356 . S
N2650 H2662 0.984 . S
N2650 H2663 0.985 . S
N2651 C2653 1.356 . S
N2651 H2656 0.984 . S
N2651 H2657 0.985 . S
C2652 C2646 1.379 . S
C2652 C2649 1.363 . S
C2652 N2650 1.356 . S
C2653 C2647 1.363 . S
C2653 C2648 1.379 . S
C2653 N2651 1.356 . S
N2654 C2646 1.356 . S
N2654 H2660 0.984 . S
N2654 H2661 0.984 . S
N2655 C2648 1.356 1_556 S
N2655 H2658 0.984 . S
N2655 H2659 0.985 . S
H2656 N2651 0.984 . S
H2657 N2651 0.985 . S
H2658 N2655 0.984 . S
H2659 N2655 0.985 . S
H2660 N2654 0.984 . S
H2661 N2654 0.984 . S
H2662 N2650 0.984 . S
H2663 N2650 0.985 . S
C2664 C2665 1.363 . S
C2664 C2670 1.379 . S
C2664 N2672 1.356 . S
C2665 C2664 1.363 . S
C2665 C2671 1.363 . S
C2666 C2667 1.363 . S
C2666 C2671 1.379 . S
C2666 N2673 1.356 . S
C2667 C2666 1.363 . S
C2667 C2670 1.363 . S
N2668 C2670 1.356 . S
N2668 H2680 0.984 . S
N2668 H2681 0.985 . S
N2669 C2671 1.356 1_556 S
N2669 H2674 0.984 . S
N2669 H2675 0.985 . S
C2670 C2664 1.379 . S
C2670 C2667 1.363 . S
C2670 N2668 1.356 . S
C2671 C2665 1.363 . S
C2671 C2666 1.379 . S
C2671 N2669 1.356 1_554 S
N2672 C2664 1.356 . S
N2672 H2678 0.984 . S
N2672 H2679 0.984 . S
N2673 C2666 1.356 . S
N2673 H2676 0.984 . S
N2673 H2677 0.985 . S
H2674 N2669 0.984 . S
H2675 N2669 0.985 . S
H2676 N2673 0.984 . S
H2677 N2673 0.985 . S
H2678 N2672 0.984 . S
H2679 N2672 0.984 . S
H2680 N2668 0.984 . S
H2681 N2668 0.985 . S
C2682 C2683 1.363 . S
C2682 C2688 1.379 . S
C2682 N2690 1.356 . S
C2683 C2682 1.363 . S
C2683 C2689 1.363 . S
C2684 C2685 1.363 . S
C2684 C2689 1.379 . S
C2684 N2691 1.356 . S
C2685 C2684 1.363 . S
C2685 C2688 1.363 . S
N2686 C2688 1.356 1_556 S
N2686 H2698 0.984 . S
N2686 H2699 0.985 . S
N2687 C2689 1.356 . S
N2687 H2692 0.984 . S
N2687 H2693 0.985 . S
C2688 C2682 1.379 . S
C2688 C2685 1.363 . S
C2688 N2686 1.356 1_554 S
C2689 C2683 1.363 . S
C2689 C2684 1.379 . S
C2689 N2687 1.356 . S
N2690 C2682 1.356 . S
N2690 H2696 0.984 . S
N2690 H2697 0.984 . S
N2691 C2684 1.356 . S
N2691 H2694 0.984 . S
N2691 H2695 0.985 . S
H2692 N2687 0.984 . S
H2693 N2687 0.985 . S
H2694 N2691 0.984 . S
H2695 N2691 0.985 . S
H2696 N2690 0.984 . S
H2697 N2690 0.984 . S
H2698 N2686 0.984 . S
H2699 N2686 0.985 . S
C2700 C2701 1.363 . S
C2700 C2706 1.379 . S
C2700 N2708 1.356 . S
C2701 C2700 1.363 . S
C2701 C2707 1.363 . S
C2702 C2703 1.363 . S
C2702 C2707 1.379 . S
C2702 N2709 1.356 . S
C2703 C2702 1.363 . S
C2703 C2706 1.363 . S
N2704 C2706 1.356 . S
N2704 H2716 0.984 . S
N2704 H2717 0.985 . S
N2705 C2707 1.356 1_554 S
N2705 H2710 0.984 . S
N2705 H2711 0.985 . S
C2706 C2700 1.379 . S
C2706 C2703 1.363 . S
C2706 N2704 1.356 . S
C2707 C2701 1.363 . S
C2707 C2702 1.379 . S
C2707 N2705 1.356 1_556 S
N2708 C2700 1.356 . S
N2708 H2714 0.984 . S
N2708 H2715 0.984 . S
N2709 C2702 1.356 . S
N2709 H2712 0.984 . S
N2709 H2713 0.985 . S
H2710 N2705 0.984 . S
H2711 N2705 0.985 . S
H2712 N2709 0.984 . S
H2713 N2709 0.985 . S
H2714 N2708 0.984 . S
H2715 N2708 0.984 . S
H2716 N2704 0.984 . S
H2717 N2704 0.985 . S
C2718 C2719 1.363 . S
C2718 C2724 1.379 . S
C2718 N2726 1.356 . S
C2719 C2718 1.363 . S
C2719 C2725 1.363 . S
C2720 C2721 1.363 . S
C2720 C2725 1.379 . S
C2720 N2727 1.356 . S
C2721 C2720 1.363 . S
C2721 C2724 1.363 . S
N2722 C2724 1.356 . S
N2722 H2734 0.984 . S
N2722 H2735 0.985 . S
N2723 C2725 1.356 . S
N2723 H2728 0.984 . S
N2723 H2729 0.985 . S
C2724 C2718 1.379 . S
C2724 C2721 1.363 . S
C2724 N2722 1.356 . S
C2725 C2719 1.363 . S
C2725 C2720 1.379 . S
C2725 N2723 1.356 . S
N2726 C2718 1.356 . S
N2726 H2732 0.984 . S
N2726 H2733 0.984 . S
N2727 C2720 1.356 . S
N2727 H2730 0.984 . S
N2727 H2731 0.985 . S
H2728 N2723 0.984 . S
H2729 N2723 0.985 . S
H2730 N2727 0.984 . S
H2731 N2727 0.985 . S
H2732 N2726 0.984 . S
H2733 N2726 0.984 . S
H2734 N2722 0.984 . S
H2735 N2722 0.985 . S
C2736 C2737 1.363 . S
C2736 C2742 1.379 . S
C2736 N2744 1.356 . S
C2737 C2736 1.363 . S
C2737 C2743 1.363 . S
C2738 C2739 1.363 . S
C2738 C2743 1.379 . S
C2738 N2745 1.356 . S
C2739 C2738 1.363 . S
C2739 C2742 1.363 . S
N2740 C2742 1.356 . S
N2740 H2752 0.984 . S
N2740 H2753 0.985 . S
N2741 C2743 1.356 . S
N2741 H2746 0.984 . S
N2741 H2747 0.985 . S
C2742 C2736 1.379 . S
C2742 C2739 1.363 . S
C2742 N2740 1.356 . S
C2743 C2737 1.363 . S
C2743 C2738 1.379 . S
C2743 N2741 1.356 . S
N2744 C2736 1.356 . S
N2744 H2750 0.984 . S
N2744 H2751 0.984 . S
N2745 C2738 1.356 . S
N2745 H2748 0.984 . S
N2745 H2749 0.985 . S
H2746 N2741 0.984 . S
H2747 N2741 0.985 . S
H2748 N2745 0.984 . S
H2749 N2745 0.985 . S
H2750 N2744 0.984 . S
H2751 N2744 0.984 . S
H2752 N2740 0.984 . S
H2753 N2740 0.985 . S
C2754 C2755 1.363 . S
C2754 C2760 1.379 . S
C2754 N2762 1.356 . S
C2755 C2754 1.363 . S
C2755 C2761 1.363 . S
C2756 C2757 1.363 . S
C2756 C2761 1.379 . S
C2756 N2763 1.356 . S
C2757 C2756 1.363 . S
C2757 C2760 1.363 . S
N2758 C2760 1.356 . S
N2758 H2770 0.984 . S
N2758 H2771 0.985 . S
N2759 C2761 1.356 . S
N2759 H2764 0.984 . S
N2759 H2765 0.985 . S
C2760 C2754 1.379 . S
C2760 C2757 1.363 . S
C2760 N2758 1.356 . S
C2761 C2755 1.363 . S
C2761 C2756 1.379 . S
C2761 N2759 1.356 . S
N2762 C2754 1.356 . S
N2762 H2768 0.984 . S
N2762 H2769 0.984 . S
N2763 C2756 1.356 . S
N2763 H2766 0.984 . S
N2763 H2767 0.985 . S
H2764 N2759 0.984 . S
H2765 N2759 0.985 . S
H2766 N2763 0.984 . S
H2767 N2763 0.985 . S
H2768 N2762 0.984 . S
H2769 N2762 0.984 . S
H2770 N2758 0.984 . S
H2771 N2758 0.985 . S
C2772 C2773 1.363 . S
C2772 C2778 1.379 . S
C2772 N2780 1.356 . S
C2773 C2772 1.363 . S
C2773 C2779 1.363 . S
C2774 C2775 1.363 . S
C2774 C2779 1.379 . S
C2774 N2781 1.356 . S
C2775 C2774 1.363 . S
C2775 C2778 1.363 . S
N2776 C2778 1.356 . S
N2776 H2788 0.984 . S
N2776 H2789 0.985 . S
N2777 C2779 1.356 . S
N2777 H2782 0.984 . S
N2777 H2783 0.985 . S
C2778 C2772 1.379 . S
C2778 C2775 1.363 . S
C2778 N2776 1.356 . S
C2779 C2773 1.363 . S
C2779 C2774 1.379 . S
C2779 N2777 1.356 . S
N2780 C2772 1.356 . S
N2780 H2786 0.984 . S
N2780 H2787 0.984 . S
N2781 C2774 1.356 . S
N2781 H2784 0.984 . S
N2781 H2785 0.985 . S
H2782 N2777 0.984 . S
H2783 N2777 0.985 . S
H2784 N2781 0.984 . S
H2785 N2781 0.985 . S
H2786 N2780 0.984 . S
H2787 N2780 0.984 . S
H2788 N2776 0.984 . S
H2789 N2776 0.985 . S
C2790 C2791 1.363 . S
C2790 C2796 1.379 . S
C2790 N2798 1.356 . S
C2791 C2790 1.363 . S
C2791 C2797 1.363 . S
C2792 C2793 1.363 . S
C2792 C2797 1.379 . S
C2792 N2799 1.356 . S
C2793 C2792 1.363 . S
C2793 C2796 1.363 . S
N2794 C2796 1.356 . S
N2794 H2806 0.984 . S
N2794 H2807 0.985 . S
N2795 C2797 1.356 . S
N2795 H2800 0.984 . S
N2795 H2801 0.985 . S
C2796 C2790 1.379 . S
C2796 C2793 1.363 . S
C2796 N2794 1.356 . S
C2797 C2791 1.363 . S
C2797 C2792 1.379 . S
C2797 N2795 1.356 . S
N2798 C2790 1.356 . S
N2798 H2804 0.984 . S
N2798 H2805 0.984 . S
N2799 C2792 1.356 . S
N2799 H2802 0.984 . S
N2799 H2803 0.985 . S
H2800 N2795 0.984 . S
H2801 N2795 0.985 . S
H2802 N2799 0.984 . S
H2803 N2799 0.985 . S
H2804 N2798 0.984 . S
H2805 N2798 0.984 . S
H2806 N2794 0.984 . S
H2807 N2794 0.985 . S
C1189 N530 0.856 . S
C1191 N2 0.856 . S
C1207 N563 0.856 . S
C1209 N35 0.856 . S
C1225 N68 0.856 . S
C1227 N497 0.856 . S
C1243 N860 0.856 . S
C1245 N101 0.856 . S
C1261 N794 0.855 . S
C1263 N134 0.855 . S
C1279 N827 0.856 . S
C1281 N167 0.856 . S
C1297 N1124 0.856 . S
C1299 N200 0.856 . S
C1315 N233 0.856 . S
C1317 N1157 0.856 . S
C1333 N266 0.856 . S
C1335 N1091 0.856 . S
C1351 N299 0.856 . S
C1353 N662 0.856 . S
C1369 N596 0.855 . S
C1371 N332 0.855 . S
C1387 N365 0.856 . S
C1389 N629 0.856 . S
C1405 N926 0.856 . S
C1407 N398 0.856 . S
C1423 N431 0.856 . S
C1425 N959 0.856 . S
C1441 N464 0.856 . S
C1443 N893 0.856 . S
C1459 N1058 0.856 . S
C1461 N695 0.856 . S
C1477 N728 0.856 . S
C1479 N992 0.856 . S
C1495 N761 0.856 . S
C1497 N1025 0.856 . S
C1513 C18 1.164 . S
C1515 C612 1.164 . S
C1531 C645 1.164 . S
C1533 C51 1.164 . S
C1549 C678 1.164 . S
C1551 C84 1.164 . S
C1567 C117 1.164 . S
C1569 C1107 1.164 . S
C1585 C150 1.164 . S
C1587 C1140 1.164 . S
C1603 C183 1.164 . S
C1605 C1173 1.164 . S
C1621 C216 1.164 . S
C1623 C810 1.164 . S
C1639 C249 1.164 . S
C1641 C843 1.164 . S
C1657 C282 1.164 . S
C1659 C876 1.164 . S
C1675 C513 1.164 . S
C1677 C315 1.164 . S
C1693 C348 1.164 . S
C1695 C546 1.164 . S
C1711 C579 1.164 . S
C1713 C381 1.164 . S
C1729 C414 1.164 . S
C1731 C1008 1.164 . S
C1747 C447 1.164 . S
C1749 C1041 1.164 . S
C1765 C1074 1.164 . S
C1767 C480 1.164 . S
C1783 C909 1.164 . S
C1785 C711 1.164 . S
C1801 C942 1.164 . S
C1803 C744 1.164 . S
C1819 C975 1.164 . S
C1821 C777 1.164 . S
C1837 C7 1.476 1_556 S
C1839 N343 1.573 . S
C1855 C40 1.476 1_556 S
C1857 N376 1.572 . S
C1873 N310 1.573 . S
C1875 C73 1.476 1_556 S
C1891 C106 1.476 . S
C1893 N277 1.572 . S
C1909 N211 1.572 . S
C1911 C139 1.476 . S
C1927 N244 1.573 . S
C1929 C172 1.476 . S
C1945 N145 1.573 . S
C1947 C205 1.476 1_554 S
C1963 N178 1.572 . S
C1965 C238 1.476 1_554 S
C1981 C271 1.476 1_554 S
C1983 N112 1.573 . S
C1999 C304 1.476 . S
C2001 N79 1.572 . S
C2017 N13 1.572 . S
C2019 C337 1.476 . S
C2035 C370 1.476 . S
C2037 N46 1.573 . S
C2053 C403 1.476 . S
C2055 N739 1.573 . S
C2071 C436 1.476 . S
C2073 N772 1.572 . S
C2089 N706 1.572 . S
C2091 C469 1.476 . S
C2107 C502 1.476 . S
C2109 N673 1.572 1_556 S
C2125 C535 1.476 . S
C2127 N607 1.573 1_556 S
C2143 C568 1.476 . S
C2145 N640 1.573 1_556 S
C2161 C601 1.476 . S
C2163 N541 1.572 . S
C2179 C634 1.476 . S
C2181 N574 1.572 . S
C2197 N508 1.573 . S
C2199 C667 1.476 . S
C2215 N475 1.573 . S
C2217 C700 1.476 . S
C2233 N409 1.572 . S
C2235 C733 1.476 . S
C2251 N442 1.573 . S
C2253 C766 1.476 . S
C2269 N1135 1.572 . S
C2271 C799 1.476 . S
C2287 N1168 1.572 . S
C2289 C832 1.476 . S
C2305 N1102 1.573 . S
C2307 C865 1.476 . S
C2323 N1069 1.573 . S
C2325 C898 1.476 . S
C2341 C931 1.476 . S
C2343 N1003 1.572 . S
C2359 N1036 1.573 . S
C2361 C964 1.476 . S
C2377 N937 1.573 . S
C2379 C997 1.476 . S
C2395 N970 1.572 . S
C2397 C1030 1.476 . S
C2413 N904 1.572 . S
C2415 C1063 1.476 . S
C2431 C1096 1.476 . S
C2433 N871 1.572 1_554 S
C2449 N805 1.573 1_554 S
C2451 C1129 1.476 . S
C2467 N838 1.573 1_554 S
C2469 C1162 1.476 . S
C2485 C186 1.188 . S
C2487 C21 1.187 . S
C2503 C54 1.187 . S
C2505 C120 1.187 . S
C2521 C153 1.187 . S
C2523 C87 1.187 . S
C2539 C384 1.187 . S
C2541 C219 1.187 . S
C2557 C318 1.187 . S
C2559 C252 1.187 . S
C2575 C351 1.187 . S
C2577 C285 1.187 . S
C2593 C582 1.187 . S
C2595 C417 1.187 . S
C2611 C516 1.187 . S
C2613 C450 1.187 . S
C2629 C549 1.187 . S
C2631 C483 1.187 . S
C2647 C615 1.187 . S
C2649 C780 1.187 . S
C2665 C714 1.187 . S
C2667 C648 1.187 . S
C2683 C681 1.187 . S
C2685 C747 1.187 . S
C2701 C978 1.187 . S
C2703 C813 1.187 . S
C2719 C912 1.187 . S
C2721 C846 1.187 . S
C2737 C879 1.187 . S
C2739 C945 1.187 . S
C2755 C1176 1.187 . S
C2757 C1011 1.187 . S
C2773 C1110 1.187 . S
C2775 C1044 1.187 . S
C2791 C1143 1.187 . S
C2793 C1077 1.187 . S
