# Generated by pormake.
# Topology ulf, (4)-cn, num edge types: 1
# Building blocks:
#     Node 0, Type 0, BuildingBlock: ESEHIV_clean_sbu_0, # of connection points: 4
#     Node 1, Type 0, BuildingBlock: ESEHIV_clean_sbu_0, # of connection points: 4
#     Node 2, Type 0, BuildingBlock: ESEHIV_clean_sbu_0, # of connection points: 4
#     Node 3, Type 0, BuildingBlock: ESEHIV_clean_sbu_0, # of connection points: 4
#     Node 4, Type 0, BuildingBlock: ESEHIV_clean_sbu_0, # of connection points: 4
#     Node 5, Type 0, BuildingBlock: ESEHIV_clean_sbu_0, # of connection points: 4
#     Node 6, Type 0, BuildingBlock: ESEHIV_clean_sbu_0, # of connection points: 4
#     Node 7, Type 0, BuildingBlock: ESEHIV_clean_sbu_0, # of connection points: 4
#     Node 8, Type 0, BuildingBlock: ESEHIV_clean_sbu_0, # of connection points: 4
#     Node 9, Type 0, BuildingBlock: ESEHIV_clean_sbu_0, # of connection points: 4
#     Node 10, Type 0, BuildingBlock: ESEHIV_clean_sbu_0, # of connection points: 4
#     Node 11, Type 0, BuildingBlock: ESEHIV_clean_sbu_0, # of connection points: 4
#     Node 12, Type 0, BuildingBlock: ESEHIV_clean_sbu_0, # of connection points: 4
#     Node 13, Type 0, BuildingBlock: ESEHIV_clean_sbu_0, # of connection points: 4
#     Node 14, Type 0, BuildingBlock: ESEHIV_clean_sbu_0, # of connection points: 4
#     Node 15, Type 0, BuildingBlock: ESEHIV_clean_sbu_0, # of connection points: 4
#     Node 16, Type 0, BuildingBlock: ESEHIV_clean_sbu_0, # of connection points: 4
#     Node 17, Type 0, BuildingBlock: ESEHIV_clean_sbu_0, # of connection points: 4
#     Node 18, Type 0, BuildingBlock: ESEHIV_clean_sbu_0, # of connection points: 4
#     Node 19, Type 0, BuildingBlock: ESEHIV_clean_sbu_0, # of connection points: 4
#     Node 20, Type 0, BuildingBlock: ESEHIV_clean_sbu_0, # of connection points: 4
#     Node 21, Type 0, BuildingBlock: ESEHIV_clean_sbu_0, # of connection points: 4
#     Node 22, Type 0, BuildingBlock: ESEHIV_clean_sbu_0, # of connection points: 4
#     Node 23, Type 0, BuildingBlock: ESEHIV_clean_sbu_0, # of connection points: 4
#     Node 24, Type 0, BuildingBlock: ESEHIV_clean_sbu_0, # of connection points: 4
#     Node 25, Type 0, BuildingBlock: ESEHIV_clean_sbu_0, # of connection points: 4
#     Node 26, Type 0, BuildingBlock: ESEHIV_clean_sbu_0, # of connection points: 4
#     Node 27, Type 0, BuildingBlock: ESEHIV_clean_sbu_0, # of connection points: 4
#     Node 28, Type 0, BuildingBlock: ESEHIV_clean_sbu_0, # of connection points: 4
#     Node 29, Type 0, BuildingBlock: ESEHIV_clean_sbu_0, # of connection points: 4
#     Node 30, Type 0, BuildingBlock: ESEHIV_clean_sbu_0, # of connection points: 4
#     Node 31, Type 0, BuildingBlock: ESEHIV_clean_sbu_0, # of connection points: 4
#     Node 32, Type 0, BuildingBlock: ESEHIV_clean_sbu_0, # of connection points: 4
#     Node 33, Type 0, BuildingBlock: ESEHIV_clean_sbu_0, # of connection points: 4
#     Node 34, Type 0, BuildingBlock: ESEHIV_clean_sbu_0, # of connection points: 4
#     Node 35, Type 0, BuildingBlock: ESEHIV_clean_sbu_0, # of connection points: 4
#     Node 36, Type 0, BuildingBlock: ESEHIV_clean_sbu_0, # of connection points: 4
#     Node 37, Type 0, BuildingBlock: ESEHIV_clean_sbu_0, # of connection points: 4
#     Node 38, Type 0, BuildingBlock: ESEHIV_clean_sbu_0, # of connection points: 4
#     Node 39, Type 0, BuildingBlock: ESEHIV_clean_sbu_0, # of connection points: 4
#     Node 40, Type 0, BuildingBlock: ESEHIV_clean_sbu_0, # of connection points: 4
#     Node 41, Type 0, BuildingBlock: ESEHIV_clean_sbu_0, # of connection points: 4
#     Node 42, Type 0, BuildingBlock: ESEHIV_clean_sbu_0, # of connection points: 4
#     Node 43, Type 0, BuildingBlock: ESEHIV_clean_sbu_0, # of connection points: 4
#     Node 44, Type 0, BuildingBlock: ESEHIV_clean_sbu_0, # of connection points: 4
#     Node 45, Type 0, BuildingBlock: ESEHIV_clean_sbu_0, # of connection points: 4
#     Node 46, Type 0, BuildingBlock: ESEHIV_clean_sbu_0, # of connection points: 4
#     Node 47, Type 0, BuildingBlock: ESEHIV_clean_sbu_0, # of connection points: 4
#     Edge 48, Type (0, 0), BuildingBlock: XUDNAN_clean_linker_2, # of connection points: 2
#     Edge 49, Type (0, 0), BuildingBlock: XUDNAN_clean_linker_2, # of connection points: 2
#     Edge 50, Type (0, 0), BuildingBlock: XUDNAN_clean_linker_2, # of connection points: 2
#     Edge 51, Type (0, 0), BuildingBlock: XUDNAN_clean_linker_2, # of connection points: 2
#     Edge 52, Type (0, 0), BuildingBlock: XUDNAN_clean_linker_2, # of connection points: 2
#     Edge 53, Type (0, 0), BuildingBlock: XUDNAN_clean_linker_2, # of connection points: 2
#     Edge 54, Type (0, 0), BuildingBlock: XUDNAN_clean_linker_2, # of connection points: 2
#     Edge 55, Type (0, 0), BuildingBlock: XUDNAN_clean_linker_2, # of connection points: 2
#     Edge 56, Type (0, 0), BuildingBlock: XUDNAN_clean_linker_2, # of connection points: 2
#     Edge 57, Type (0, 0), BuildingBlock: XUDNAN_clean_linker_2, # of connection points: 2
#     Edge 58, Type (0, 0), BuildingBlock: XUDNAN_clean_linker_2, # of connection points: 2
#     Edge 59, Type (0, 0), BuildingBlock: XUDNAN_clean_linker_2, # of connection points: 2
#     Edge 60, Type (0, 0), BuildingBlock: XUDNAN_clean_linker_2, # of connection points: 2
#     Edge 61, Type (0, 0), BuildingBlock: XUDNAN_clean_linker_2, # of connection points: 2
#     Edge 62, Type (0, 0), BuildingBlock: XUDNAN_clean_linker_2, # of connection points: 2
#     Edge 63, Type (0, 0), BuildingBlock: XUDNAN_clean_linker_2, # of connection points: 2
#     Edge 64, Type (0, 0), BuildingBlock: XUDNAN_clean_linker_2, # of connection points: 2
#     Edge 65, Type (0, 0), BuildingBlock: XUDNAN_clean_linker_2, # of connection points: 2
#     Edge 66, Type (0, 0), BuildingBlock: XUDNAN_clean_linker_2, # of connection points: 2
#     Edge 67, Type (0, 0), BuildingBlock: XUDNAN_clean_linker_2, # of connection points: 2
#     Edge 68, Type (0, 0), BuildingBlock: XUDNAN_clean_linker_2, # of connection points: 2
#     Edge 69, Type (0, 0), BuildingBlock: XUDNAN_clean_linker_2, # of connection points: 2
#     Edge 70, Type (0, 0), BuildingBlock: XUDNAN_clean_linker_2, # of connection points: 2
#     Edge 71, Type (0, 0), BuildingBlock: XUDNAN_clean_linker_2, # of connection points: 2
#     Edge 72, Type (0, 0), BuildingBlock: XUDNAN_clean_linker_2, # of connection points: 2
#     Edge 73, Type (0, 0), BuildingBlock: XUDNAN_clean_linker_2, # of connection points: 2
#     Edge 74, Type (0, 0), BuildingBlock: XUDNAN_clean_linker_2, # of connection points: 2
#     Edge 75, Type (0, 0), BuildingBlock: XUDNAN_clean_linker_2, # of connection points: 2
#     Edge 76, Type (0, 0), BuildingBlock: XUDNAN_clean_linker_2, # of connection points: 2
#     Edge 77, Type (0, 0), BuildingBlock: XUDNAN_clean_linker_2, # of connection points: 2
#     Edge 78, Type (0, 0), BuildingBlock: XUDNAN_clean_linker_2, # of connection points: 2
#     Edge 79, Type (0, 0), BuildingBlock: XUDNAN_clean_linker_2, # of connection points: 2
#     Edge 80, Type (0, 0), BuildingBlock: XUDNAN_clean_linker_2, # of connection points: 2
#     Edge 81, Type (0, 0), BuildingBlock: XUDNAN_clean_linker_2, # of connection points: 2
#     Edge 82, Type (0, 0), BuildingBlock: XUDNAN_clean_linker_2, # of connection points: 2
#     Edge 83, Type (0, 0), BuildingBlock: XUDNAN_clean_linker_2, # of connection points: 2
#     Edge 84, Type (0, 0), BuildingBlock: XUDNAN_clean_linker_2, # of connection points: 2
#     Edge 85, Type (0, 0), BuildingBlock: XUDNAN_clean_linker_2, # of connection points: 2
#     Edge 86, Type (0, 0), BuildingBlock: XUDNAN_clean_linker_2, # of connection points: 2
#     Edge 87, Type (0, 0), BuildingBlock: XUDNAN_clean_linker_2, # of connection points: 2
#     Edge 88, Type (0, 0), BuildingBlock: XUDNAN_clean_linker_2, # of connection points: 2
#     Edge 89, Type (0, 0), BuildingBlock: XUDNAN_clean_linker_2, # of connection points: 2
#     Edge 90, Type (0, 0), BuildingBlock: XUDNAN_clean_linker_2, # of connection points: 2
#     Edge 91, Type (0, 0), BuildingBlock: XUDNAN_clean_linker_2, # of connection points: 2
#     Edge 92, Type (0, 0), BuildingBlock: XUDNAN_clean_linker_2, # of connection points: 2
#     Edge 93, Type (0, 0), BuildingBlock: XUDNAN_clean_linker_2, # of connection points: 2
#     Edge 94, Type (0, 0), BuildingBlock: XUDNAN_clean_linker_2, # of connection points: 2
#     Edge 95, Type (0, 0), BuildingBlock: XUDNAN_clean_linker_2, # of connection points: 2
#     Edge 96, Type (0, 0), BuildingBlock: XUDNAN_clean_linker_2, # of connection points: 2
#     Edge 97, Type (0, 0), BuildingBlock: XUDNAN_clean_linker_2, # of connection points: 2
#     Edge 98, Type (0, 0), BuildingBlock: XUDNAN_clean_linker_2, # of connection points: 2
#     Edge 99, Type (0, 0), BuildingBlock: XUDNAN_clean_linker_2, # of connection points: 2
#     Edge 100, Type (0, 0), BuildingBlock: XUDNAN_clean_linker_2, # of connection points: 2
#     Edge 101, Type (0, 0), BuildingBlock: XUDNAN_clean_linker_2, # of connection points: 2
#     Edge 102, Type (0, 0), BuildingBlock: XUDNAN_clean_linker_2, # of connection points: 2
#     Edge 103, Type (0, 0), BuildingBlock: XUDNAN_clean_linker_2, # of connection points: 2
#     Edge 104, Type (0, 0), BuildingBlock: XUDNAN_clean_linker_2, # of connection points: 2
#     Edge 105, Type (0, 0), BuildingBlock: XUDNAN_clean_linker_2, # of connection points: 2
#     Edge 106, Type (0, 0), BuildingBlock: XUDNAN_clean_linker_2, # of connection points: 2
#     Edge 107, Type (0, 0), BuildingBlock: XUDNAN_clean_linker_2, # of connection points: 2
#     Edge 108, Type (0, 0), BuildingBlock: XUDNAN_clean_linker_2, # of connection points: 2
#     Edge 109, Type (0, 0), BuildingBlock: XUDNAN_clean_linker_2, # of connection points: 2
#     Edge 110, Type (0, 0), BuildingBlock: XUDNAN_clean_linker_2, # of connection points: 2
#     Edge 111, Type (0, 0), BuildingBlock: XUDNAN_clean_linker_2, # of connection points: 2
#     Edge 112, Type (0, 0), BuildingBlock: XUDNAN_clean_linker_2, # of connection points: 2
#     Edge 113, Type (0, 0), BuildingBlock: XUDNAN_clean_linker_2, # of connection points: 2
#     Edge 114, Type (0, 0), BuildingBlock: XUDNAN_clean_linker_2, # of connection points: 2
#     Edge 115, Type (0, 0), BuildingBlock: XUDNAN_clean_linker_2, # of connection points: 2
#     Edge 116, Type (0, 0), BuildingBlock: XUDNAN_clean_linker_2, # of connection points: 2
#     Edge 117, Type (0, 0), BuildingBlock: XUDNAN_clean_linker_2, # of connection points: 2
#     Edge 118, Type (0, 0), BuildingBlock: XUDNAN_clean_linker_2, # of connection points: 2
#     Edge 119, Type (0, 0), BuildingBlock: XUDNAN_clean_linker_2, # of connection points: 2
#     Edge 120, Type (0, 0), BuildingBlock: XUDNAN_clean_linker_2, # of connection points: 2
#     Edge 121, Type (0, 0), BuildingBlock: XUDNAN_clean_linker_2, # of connection points: 2
#     Edge 122, Type (0, 0), BuildingBlock: XUDNAN_clean_linker_2, # of connection points: 2
#     Edge 123, Type (0, 0), BuildingBlock: XUDNAN_clean_linker_2, # of connection points: 2
#     Edge 124, Type (0, 0), BuildingBlock: XUDNAN_clean_linker_2, # of connection points: 2
#     Edge 125, Type (0, 0), BuildingBlock: XUDNAN_clean_linker_2, # of connection points: 2
#     Edge 126, Type (0, 0), BuildingBlock: XUDNAN_clean_linker_2, # of connection points: 2
#     Edge 127, Type (0, 0), BuildingBlock: XUDNAN_clean_linker_2, # of connection points: 2
#     Edge 128, Type (0, 0), BuildingBlock: XUDNAN_clean_linker_2, # of connection points: 2
#     Edge 129, Type (0, 0), BuildingBlock: XUDNAN_clean_linker_2, # of connection points: 2
#     Edge 130, Type (0, 0), BuildingBlock: XUDNAN_clean_linker_2, # of connection points: 2
#     Edge 131, Type (0, 0), BuildingBlock: XUDNAN_clean_linker_2, # of connection points: 2
#     Edge 132, Type (0, 0), BuildingBlock: XUDNAN_clean_linker_2, # of connection points: 2
#     Edge 133, Type (0, 0), BuildingBlock: XUDNAN_clean_linker_2, # of connection points: 2
#     Edge 134, Type (0, 0), BuildingBlock: XUDNAN_clean_linker_2, # of connection points: 2
#     Edge 135, Type (0, 0), BuildingBlock: XUDNAN_clean_linker_2, # of connection points: 2
#     Edge 136, Type (0, 0), BuildingBlock: XUDNAN_clean_linker_2, # of connection points: 2
#     Edge 137, Type (0, 0), BuildingBlock: XUDNAN_clean_linker_2, # of connection points: 2
#     Edge 138, Type (0, 0), BuildingBlock: XUDNAN_clean_linker_2, # of connection points: 2
#     Edge 139, Type (0, 0), BuildingBlock: XUDNAN_clean_linker_2, # of connection points: 2
#     Edge 140, Type (0, 0), BuildingBlock: XUDNAN_clean_linker_2, # of connection points: 2
#     Edge 141, Type (0, 0), BuildingBlock: XUDNAN_clean_linker_2, # of connection points: 2
#     Edge 142, Type (0, 0), BuildingBlock: XUDNAN_clean_linker_2, # of connection points: 2
#     Edge 143, Type (0, 0), BuildingBlock: XUDNAN_clean_linker_2, # of connection points: 2
# Relax obj value: 0.410
# Max RMSD: 0.474
# Mean RMSD: 0.465
data_MOF--net-ulf--node1-ESEHIV_clean_sbu_0--edge1-XUDNAN_clean_linker_2
_symmetry_space_group_name_H-M    P1
_symmetry_Int_Tables_number       1
_symmetry_cell_setting            triclinic
loop_
_symmetry_equiv_pos_as_xyz
'x, y, z'
_cell_length_a     52.983088
_cell_length_b     59.514581
_cell_length_c     61.766493
_cell_angle_alpha  90.189519
_cell_angle_beta   90.3603
_cell_angle_gamma 90.407203
loop_
_atom_site_label
_atom_site_type_symbol
_atom_site_fract_x
_atom_site_fract_y
_atom_site_fract_z
_atom_type_partial_charge
Cu0 Cu 0.12893 0.27365 0.26595 0.0
N1 N 0.11451 0.25185 0.28338 0.0
N2 N 0.11235 0.22784 0.31085 0.0
C3 C 0.12408 0.24598 0.30271 0.0
C4 C 0.09471 0.22189 0.29601 0.0
C5 C 0.09594 0.23694 0.27906 0.0
O6 O 0.16398 0.27363 0.27696 0.0
C7 C 0.10102 0.30592 0.28937 0.0
O8 O 0.11023 0.29471 0.30586 0.0
H9 H 0.14056 0.25389 0.30997 0.0
H10 H 0.08511 0.23632 0.26416 0.0
N11 N 0.12661 0.2631 0.23722 0.0
N12 N 0.11061 0.25351 0.20481 0.0
C13 C 0.10716 0.26549 0.2232 0.0
C14 C 0.14233 0.24851 0.22754 0.0
C15 C 0.13276 0.24291 0.20747 0.0
C16 C 0.18421 0.27062 0.26624 0.0
O17 O 0.18438 0.27489 0.2454 0.0
H18 H 0.09024 0.27482 0.22685 0.0
H19 H 0.1587 0.2411 0.23511 0.0
O20 O 0.1087 0.30104 0.27036 0.0
H21 H 0.08273 0.20711 0.2969 0.0
H22 H 0.14036 0.23052 0.19645 0.0
Cu23 Cu 0.00851 0.84378 0.40949 0.0
N24 N 0.04177 0.83512 0.41383 0.0
N25 N 0.07627 0.84095 0.43418 0.0
C26 C 0.05156 0.83556 0.43395 0.0
C27 C 0.08266 0.84184 0.41301 0.0
C28 C 0.06133 0.83839 0.4005 0.0
O29 O 0.00245 0.86324 0.43499 0.0
C30 C 0.97922 0.81023 0.42978 0.0
O31 O 0.98332 0.82269 0.44705 0.0
H32 H 0.03983 0.83643 0.44811 0.0
H33 H 0.05959 0.84182 0.38338 0.0
N34 N 0.00455 0.85818 0.38225 0.0
N35 N 0.00087 0.86558 0.34658 0.0
C36 C 0.00561 0.84968 0.36178 0.0
C37 C 0.99918 0.88006 0.37969 0.0
C38 C 0.99692 0.88463 0.35794 0.0
C39 C 0.01484 0.88112 0.43973 0.0
O40 O 0.02998 0.88994 0.42527 0.0
H41 H 0.00892 0.83215 0.35815 0.0
H42 H 0.99655 0.89187 0.39281 0.0
O43 O 0.98755 0.8169 0.41155 0.0
H44 H 0.10043 0.8484 0.40708 0.0
H45 H 0.9923 0.90077 0.35097 0.0
Cu46 Cu 0.52774 0.8572 0.85513 0.0
N47 N 0.54953 0.87382 0.87335 0.0
N48 N 0.56039 0.89237 0.90376 0.0
C49 C 0.54209 0.88833 0.88887 0.0
C50 C 0.58024 0.88002 0.89732 0.0
C51 C 0.5735 0.86861 0.87859 0.0
O52 O 0.49456 0.86102 0.86711 0.0
C53 C 0.52305 0.81083 0.84975 0.0
O54 O 0.50565 0.81629 0.83557 0.0
H55 H 0.52293 0.89422 0.89041 0.0
H56 H 0.58456 0.85599 0.87042 0.0
N57 N 0.52993 0.86482 0.82548 0.0
N58 N 0.52292 0.86629 0.78957 0.0
C59 C 0.51457 0.85857 0.80885 0.0
C60 C 0.54852 0.87692 0.81629 0.0
C61 C 0.54418 0.87798 0.79425 0.0
C62 C 0.48211 0.87904 0.8654 0.0
O63 O 0.48937 0.89423 0.85132 0.0
H64 H 0.49738 0.84891 0.8108 0.0
H65 H 0.5643 0.88428 0.82503 0.0
O66 O 0.53554 0.82606 0.85951 0.0
H67 H 0.59789 0.87846 0.90608 0.0
H68 H 0.55598 0.88642 0.78252 0.0
Cu69 Cu 0.40493 0.237 0.05969 0.0
N70 N 0.38619 0.24925 0.08234 0.0
N71 N 0.35922 0.25278 0.10975 0.0
C72 C 0.37628 0.2395 0.10002 0.0
C73 C 0.35909 0.27195 0.09826 0.0
C74 C 0.37595 0.26982 0.08159 0.0
O75 O 0.41617 0.20595 0.06456 0.0
C76 C 0.44962 0.25879 0.07225 0.0
O77 O 0.44464 0.24686 0.0896 0.0
H78 H 0.3802 0.2226 0.10504 0.0
H79 H 0.37891 0.28161 0.06867 0.0
N80 N 0.38491 0.23677 0.03439 0.0
N81 N 0.37092 0.22938 1.0008 0.0
C82 C 0.39108 0.22955 0.01435 0.0
C83 C 0.35994 0.24084 0.03342 0.0
C84 C 0.35127 0.23607 0.01279 0.0
C85 C 0.41192 0.18662 0.07295 0.0
O86 O 0.42916 0.17117 0.06993 0.0
H87 H 0.40958 0.22336 0.0101 0.0
H88 H 0.34854 0.24562 0.04711 0.0
O89 O 0.43464 0.25694 0.05609 0.0
H90 H 0.34584 0.28551 0.10044 0.0
H91 H 0.33185 0.23605 0.00734 0.0
Cu92 Cu 0.04181 0.85203 0.12895 0.0
N93 N 0.01945 0.8645 0.10894 0.0
N94 N 0.01503 0.88582 0.0794 0.0
C95 C 0.0243 0.88451 0.09971 0.0
C96 C 0.00295 0.86609 0.07594 0.0
C97 C 0.00562 0.85301 0.09422 0.0
O98 O 0.07439 0.85641 0.11423 0.0
C99 C 0.0367 0.80461 0.11873 0.0
O100 O 0.04637 0.80921 0.0997 0.0
H101 H 0.03795 0.89632 0.10625 0.0
H102 H 0.00102 0.83532 0.09536 0.0
N103 N 0.03796 0.8661 0.15628 0.0
N104 N 0.02591 0.87167 0.19077 0.0
C105 C 0.03254 0.85634 0.17558 0.0
C106 C 0.03453 0.88823 0.15953 0.0
C107 C 0.02713 0.89168 0.18062 0.0
C108 C 0.08615 0.87516 0.1127 0.0
O109 O 0.08047 0.8916 0.12599 0.0
H110 H 0.03168 0.83834 0.17798 0.0
H111 H 0.03574 0.90088 0.14706 0.0
O112 O 0.03391 0.8203 0.13257 0.0
H113 H 0.99548 0.86047 0.06047 0.0
H114 H 0.02192 0.90763 0.18772 0.0
Cu115 Cu 0.40197 0.80375 0.60151 0.0
N116 N 0.37856 0.78072 0.59623 0.0
N117 N 0.36224 0.76563 0.56582 0.0
C118 C 0.38261 0.77343 0.57627 0.0
C119 C 0.34463 0.76542 0.58176 0.0
C120 C 0.35447 0.7755 0.60036 0.0
O121 O 0.39319 0.82998 0.58203 0.0
C122 C 0.44247 0.77257 0.58205 0.0
O123 O 0.43376 0.77038 0.56233 0.0
H124 H 0.39635 0.78264 0.56793 0.0
H125 H 0.34373 0.78214 0.61373 0.0
N126 N 0.40536 0.81298 0.63056 0.0
N127 N 0.42426 0.82441 0.66132 0.0
C128 C 0.42658 0.82171 0.63968 0.0
C129 C 0.38905 0.81035 0.64699 0.0
C130 C 0.40068 0.81736 0.66598 0.0
C131 C 0.37492 0.84363 0.58551 0.0
O132 O 0.3624 0.84134 0.60367 0.0
H133 H 0.44364 0.82534 0.63075 0.0
H134 H 0.37021 0.80342 0.64534 0.0
O135 O 0.43334 0.78651 0.59598 0.0
H136 H 0.32459 0.76345 0.57868 0.0
H137 H 0.39247 0.81735 0.68198 0.0
Cu138 Cu 0.42216 0.20679 0.7949 0.0
N139 N 0.45078 0.19865 0.77961 0.0
N140 N 0.46637 0.18616 0.7485 0.0
C141 C 0.44945 0.18272 0.76432 0.0
C142 C 0.4794 0.20477 0.75416 0.0
C143 C 0.46995 0.21232 0.77367 0.0
O144 O 0.39343 0.19182 0.78162 0.0
C145 C 0.42024 0.24537 0.77192 0.0
O146 O 0.42165 0.23043 0.75627 0.0
H147 H 0.43379 0.17098 0.76302 0.0
H148 H 0.47416 0.22839 0.78115 0.0
N149 N 0.42395 0.19685 0.82329 0.0
N150 N 0.41085 0.18771 0.85638 0.0
C151 C 0.40719 0.20105 0.83901 0.0
C152 C 0.43866 0.18027 0.83087 0.0
C153 C 0.4307 0.17465 0.85136 0.0
C154 C 0.37422 0.20136 0.77345 0.0
O155 O 0.37197 0.22328 0.77387 0.0
H156 H 0.39192 0.21292 0.83734 0.0
H157 H 0.45345 0.17221 0.82175 0.0
O158 O 0.41909 0.23881 0.79149 0.0
H159 H 0.49289 0.21341 0.74399 0.0
H160 H 0.43884 0.16194 0.86172 0.0
Cu161 Cu 1.00014 0.19972 0.01537 0.0
N162 N 0.02594 0.21378 1.00057 0.0
N163 N 0.04969 0.22053 0.97173 0.0
C164 C 0.02755 0.21259 0.97896 0.0
C165 C 0.06245 0.22743 0.98957 0.0
C166 C 0.04757 0.22345 0.00743 0.0
O167 O 0.99152 0.17392 0.99671 0.0
C168 C 0.96615 0.23117 1.00031 0.0
O169 O 0.9687 0.21994 0.98211 0.0
H170 H 0.01404 0.2035 0.96896 0.0
H171 H 0.05303 0.22568 0.02419 0.0
N172 N 0.01083 0.19177 0.0432 0.0
N173 N 0.02391 0.195 0.07753 0.0
C174 C 0.02104 0.20552 0.05836 0.0
C175 C 0.00715 0.17195 0.05315 0.0
C176 C 0.01514 0.17391 0.07436 0.0
C177 C 0.00796 0.15852 0.99446 0.0
O178 O 0.02806 0.15887 0.00702 0.0
H179 H 0.02493 0.22319 0.05578 0.0
H180 H 0.99837 0.15736 0.04572 0.0
O181 O 0.97467 0.22259 0.01763 0.0
H182 H 0.08203 0.23277 0.98983 0.0
H183 H 0.01398 0.16106 0.08668 0.0
Cu184 Cu 0.25705 0.1184 0.21385 0.0
N185 N 0.27561 0.11281 0.23935 0.0
N186 N 0.29065 0.09763 0.2701 0.0
C187 C 0.27803 0.09381 0.2512 0.0
C188 C 0.29594 0.11988 0.27003 0.0
C189 C 0.28672 0.12907 0.25125 0.0
O190 O 0.22933 0.09707 0.21049 0.0
C191 C 0.30039 0.12671 0.18632 0.0
O192 O 0.31397 0.12701 0.20417 0.0
H193 H 0.27047 0.07767 0.24618 0.0
H194 H 0.28739 0.14663 0.24685 0.0
N195 N 0.24316 0.14684 0.21629 0.0
N196 N 0.24175 0.18233 0.20488 0.0
C197 C 0.25657 0.1652 0.21104 0.0
C198 C 0.21879 0.15269 0.21414 0.0
C199 C 0.21787 0.17463 0.207 0.0
C200 C 0.2163 0.09626 0.1931 0.0
O201 O 0.22296 0.10897 0.17671 0.0
H202 H 0.27672 0.16475 0.20825 0.0
H203 H 0.20305 0.14104 0.21479 0.0
O204 O 0.27709 0.12126 0.1872 0.0
H205 H 0.30518 0.12918 0.28294 0.0
H206 H 0.20118 0.18322 0.20125 0.0
Cu207 Cu 0.26781 0.1223 0.4032 0.0
N208 N 0.28145 0.14047 0.38115 0.0
N209 N 0.28208 0.16566 0.35423 0.0
C210 C 0.26762 0.15266 0.36705 0.0
C211 C 0.30607 0.16169 0.36043 0.0
C212 C 0.30562 0.14624 0.37718 0.0
O213 O 0.23317 0.13195 0.4051 0.0
C214 C 0.27146 0.12918 0.44752 0.0
O215 O 0.24676 0.12935 0.44588 0.0
H216 H 0.24725 0.15243 0.36633 0.0
H217 H 0.32171 0.1402 0.38627 0.0
N218 N 0.27047 0.09156 0.39724 0.0
N219 N 0.26799 0.05404 0.3996 0.0
C220 C 0.26076 0.07387 0.40826 0.0
C221 C 0.28424 0.08262 0.38125 0.0
C222 C 0.28255 0.05963 0.38256 0.0
C223 C 0.2169 0.12641 0.39089 0.0
O224 O 0.22252 0.11061 0.37685 0.0
H225 H 0.24795 0.0755 0.42176 0.0
H226 H 0.29445 0.0922 0.36926 0.0
O227 O 0.28477 0.12711 0.43061 0.0
H228 H 0.32258 0.17 0.3539 0.0
H229 H 0.29038 0.04778 0.37123 0.0
Cu230 Cu 0.12873 0.98311 0.5762 0.0
N231 N 0.11347 1.00124 0.59857 0.0
N232 N 0.10986 0.01728 0.63161 0.0
C233 C 0.12559 0.01191 0.61525 0.0
C234 C 0.08709 0.0097 0.62548 0.0
C235 C 0.08936 0.99961 0.60571 0.0
O236 O 0.16498 0.97955 0.58502 0.0
C237 C 0.08345 0.95946 0.565 0.0
O238 O 0.07521 0.98019 0.56445 0.0
H239 H 0.14581 0.01337 0.61682 0.0
H240 H 0.07464 0.9891 0.59938 0.0
N241 N 0.13213 0.99346 0.54687 0.0
N242 N 0.12959 0.97201 0.51663 0.0
C243 C 0.11698 0.98373 0.53169 0.0
C244 C 0.15525 0.99128 0.53778 0.0
C245 C 0.15384 0.97745 0.51996 0.0
C246 C 0.17756 0.99812 0.58596 0.0
O247 O 0.16552 0.01682 0.58156 0.0
H248 H 0.0969 0.98264 0.53271 0.0
H249 H 0.17292 0.99545 0.54546 0.0
O250 O 0.10627 0.95606 0.57156 0.0
H251 H 0.07045 0.00945 0.63559 0.0
H252 H 0.16965 0.96934 0.51221 0.0
Cu253 Cu 0.45231 0.01423 0.02119 0.0
N254 N 0.43345 0.00604 0.99612 0.0
N255 N 0.42202 0.97956 0.97179 0.0
C256 C 0.44087 0.98858 0.98372 0.0
C257 C 0.40144 0.99159 0.97671 0.0
C258 C 0.4084 0.00754 0.99208 0.0
O259 O 0.48245 0.99614 0.01562 0.0
C260 C 0.41768 0.9873 0.04372 0.0
O261 O 0.42676 0.97079 0.03201 0.0
H262 H 0.45916 0.98097 0.98489 0.0
H263 H 0.39557 0.01796 1.00112 0.0
N264 N 0.46383 0.04467 0.02548 0.0
N265 N 0.47065 0.08221 0.03004 0.0
C266 C 0.4534 0.06559 0.0258 0.0
C267 C 0.48796 0.04832 0.03136 0.0
C268 C 0.49208 0.0709 0.03439 0.0
C269 C 0.49698 0.98181 0.02438 0.0
O270 O 0.49425 0.97664 0.04489 0.0
H271 H 0.43353 0.06865 0.02385 0.0
H272 H 0.50183 0.03524 0.03336 0.0
O273 O 0.42966 0.00592 0.04442 0.0
H274 H 0.38246 0.98777 0.97121 0.0
H275 H 0.50998 0.07824 0.03901 0.0
Cu276 Cu 0.2949 0.92544 0.4108 0.0
N277 N 0.31379 0.9454 0.39387 0.0
N278 N 0.32097 0.9738 0.37098 0.0
C279 C 0.30507 0.96494 0.38568 0.0
C280 C 0.34048 0.95944 0.36985 0.0
C281 C 0.33585 0.94177 0.3838 0.0
O282 O 0.26008 0.9351 0.40548 0.0
C283 C 0.32429 0.92491 0.45147 0.0
O284 O 0.34424 0.9275 0.43918 0.0
H285 H 0.28719 0.97226 0.39003 0.0
H286 H 0.34722 0.92688 0.38577 0.0
N287 N 0.30044 0.89541 0.4024 0.0
N288 N 0.31381 0.86152 0.4138 0.0
C289 C 0.31968 0.8835 0.41084 0.0
C290 C 0.28238 0.88009 0.39796 0.0
C291 C 0.29058 0.8593 0.40486 0.0
C292 C 0.2423 0.92943 0.4186 0.0
O293 O 0.25104 0.91247 0.43071 0.0
H294 H 0.33532 0.89153 0.41915 0.0
H295 H 0.26312 0.88422 0.39372 0.0
O296 O 0.30235 0.92591 0.44267 0.0
H297 H 0.35652 0.96129 0.35922 0.0
H298 H 0.27843 0.84477 0.40704 0.0
Cu299 Cu 0.3324 0.07285 0.63166 0.0
N300 N 0.30628 0.07723 0.6509 0.0
N301 N 0.29104 0.09717 0.67835 0.0
C302 C 0.31041 0.08486 0.67108 0.0
C303 C 0.27381 0.09719 0.66226 0.0
C304 C 0.28319 0.08465 0.64533 0.0
O305 O 0.35858 0.09467 0.63905 0.0
C306 C 0.33612 0.08571 0.58817 0.0
O307 O 0.36034 0.08198 0.59066 0.0
H308 H 0.32873 0.08462 0.67888 0.0
H309 H 0.27549 0.084 0.62907 0.0
N310 N 0.34541 0.04363 0.63155 0.0
N311 N 0.35345 0.0068 0.63253 0.0
C312 C 0.33658 0.02303 0.63747 0.0
C313 C 0.36815 0.03993 0.62287 0.0
C314 C 0.37271 0.01745 0.62316 0.0
C315 C 0.37389 0.09085 0.65442 0.0
O316 O 0.37257 0.07142 0.66443 0.0
H317 H 0.31829 0.01999 0.64462 0.0
H318 H 0.38015 0.05275 0.616 0.0
O319 O 0.3209 0.08169 0.6035 0.0
H320 H 0.2573 0.1078 0.66171 0.0
H321 H 0.38798 0.0088 0.61578 0.0
Cu322 Cu 0.10606 0.05682 0.84806 0.0
N323 N 0.09618 0.05692 0.81904 0.0
N324 N 0.09782 0.05517 0.78303 0.0
C325 C 0.10926 0.04954 0.80178 0.0
C326 C 0.07698 0.06659 0.78854 0.0
C327 C 0.07599 0.06764 0.81082 0.0
O328 O 0.13313 0.03475 0.85165 0.0
C329 C 0.07664 0.05936 0.88696 0.0
O330 O 0.09825 0.057 0.89707 0.0
H331 H 0.12723 0.04105 0.80291 0.0
H332 H 0.06214 0.07642 0.82039 0.0
N333 N 0.11957 0.08499 0.85344 0.0
N334 N 0.11838 0.11993 0.86602 0.0
C335 C 0.10502 0.10285 0.85739 0.0
C336 C 0.14318 0.09113 0.85921 0.0
C337 C 0.14242 0.11272 0.8673 0.0
C338 C 0.1488 0.03472 0.86742 0.0
O339 O 0.14377 0.04658 0.88477 0.0
H340 H 0.08465 0.1025 0.85604 0.0
H341 H 0.1594 0.08023 0.85909 0.0
O342 O 0.07572 0.05644 0.86647 0.0
H343 H 0.06388 0.07416 0.77724 0.0
H344 H 0.15789 0.12184 0.87486 0.0
Cu345 Cu 0.18693 0.99973 0.01686 0.0
N346 N 0.19498 0.98052 0.99366 0.0
N347 N 0.18524 0.94372 0.99609 0.0
C348 C 0.17718 0.96454 0.99095 0.0
C349 C 0.2104 0.94623 0.99806 0.0
C350 C 0.21643 0.96863 0.9957 0.0
O351 O 0.15522 0.9876 0.02903 0.0
C352 C 0.23602 0.00786 0.03132 0.0
O353 O 0.23494 0.02213 0.01516 0.0
H354 H 0.15777 0.96891 0.99027 0.0
H355 H 0.23445 0.97584 1.00027 0.0
N356 N 0.18314 0.03048 0.0113 0.0
N357 N 0.18388 0.06704 0.0204 0.0
C358 C 0.18651 0.04564 0.02723 0.0
C359 C 0.17797 0.04256 0.99346 0.0
C360 C 0.17844 0.06518 0.99903 0.0
C361 C 0.13386 0.99079 0.01978 0.0
O362 O 0.13261 0.0044 1.00313 0.0
H363 H 0.19168 0.04074 0.04348 0.0
H364 H 0.17435 0.0355 0.97757 0.0
O365 O 0.21614 0.99678 0.03625 0.0
H366 H 0.22291 0.93364 0.00466 0.0
H367 H 0.17503 0.07905 0.98815 0.0
Cu368 Cu 0.24127 0.27129 0.10829 0.0
N369 N 0.22614 0.2971 0.09803 0.0
N370 N 0.19985 0.32594 0.09876 0.0
C371 C 0.20777 0.30735 0.1089 0.0
C372 C 0.21384 0.32774 0.08071 0.0
C373 C 0.23012 0.30965 0.08022 0.0
O374 O 0.24154 0.27499 0.13977 0.0
C375 C 0.28702 0.28396 0.08831 0.0
O376 O 0.28426 0.30333 0.09816 0.0
H377 H 0.20019 0.30116 0.12401 0.0
H378 H 0.24365 0.30584 0.06771 0.0
N379 N 0.22013 0.24724 0.10097 0.0
N380 N 0.20546 0.21456 0.0882 0.0
C381 C 0.22572 0.22831 0.08998 0.0
C382 C 0.19562 0.2453 0.10626 0.0
C383 C 0.18659 0.22501 0.0986 0.0
C384 C 0.2495 0.29331 0.14819 0.0
O385 O 0.26518 0.30581 0.13706 0.0
H386 H 0.24437 0.22431 0.08412 0.0
H387 H 0.18526 0.25755 0.11557 0.0
O388 O 0.27263 0.2676 0.09314 0.0
H389 H 0.21185 0.34066 0.06855 0.0
H390 H 0.16791 0.21805 0.10113 0.0
Cu391 Cu 0.56598 0.14698 0.97045 0.0
N392 N 0.54687 0.12549 0.98514 0.0
N393 N 0.51951 0.09722 0.99002 0.0
C394 C 0.52496 0.11584 0.97858 0.0
C395 C 0.53878 0.09511 0.00427 0.0
C396 C 0.55533 0.1127 1.00148 0.0
O397 O 0.55646 0.14426 0.93972 0.0
C398 C 0.61328 0.14411 0.99188 0.0
O399 O 0.60087 0.15335 0.00789 0.0
H400 H 0.51471 0.12073 0.96422 0.0
H401 H 0.5735 0.11468 0.00932 0.0
N402 N 0.56048 0.17525 0.98296 0.0
N403 N 0.56388 0.2121 0.98975 0.0
C404 C 0.56613 0.19558 0.97478 0.0
C405 C 0.55441 0.17908 0.0038 0.0
C406 C 0.55651 0.20178 0.00805 0.0
C407 C 0.53439 0.14954 0.93335 0.0
O408 O 0.51966 0.16031 0.94687 0.0
H409 H 0.57275 0.19808 0.95841 0.0
H410 H 0.5498 0.1661 0.01536 0.0
O411 O 0.6017 0.13978 0.97416 0.0
H412 H 0.5421 0.08066 0.01444 0.0
H413 H 0.55283 0.21004 0.02334 0.0
Cu414 Cu 0.09448 0.42414 0.21999 0.0
N415 N 0.10235 0.43931 0.24627 0.0
N416 N 0.10289 0.46073 0.2762 0.0
C417 C 0.0883 0.44922 0.26184 0.0
C418 C 0.12679 0.45785 0.26972 0.0
C419 C 0.12638 0.44495 0.25132 0.0
O420 O 0.07363 0.44323 0.19947 0.0
C421 C 0.1386 0.39842 0.22301 0.0
O422 O 0.12957 0.3966 0.2427 0.0
H423 H 0.06794 0.44866 0.2625 0.0
H424 H 0.14261 0.44102 0.24155 0.0
N425 N 0.07454 0.39799 0.22203 0.0
N426 N 0.07096 0.37799 0.19134 0.0
C427 C 0.08356 0.3809 0.21005 0.0
C428 C 0.05164 0.40122 0.2134 0.0
C429 C 0.05044 0.39073 0.19352 0.0
C430 C 0.05497 0.4551 0.20617 0.0
O431 O 0.05206 0.45779 0.22702 0.0
H432 H 0.10216 0.37452 0.21194 0.0
H433 H 0.03942 0.41411 0.21922 0.0
O434 O 0.12713 0.4115 0.20969 0.0
H435 H 0.1432 0.46598 0.27687 0.0
H436 H 0.03893 0.39579 0.18005 0.0
Cu437 Cu 0.84521 0.82581 0.52603 0.0
N438 N 0.86011 0.8409 0.55001 0.0
N439 N 0.87911 0.87404 0.55769 0.0
C440 C 0.88067 0.85396 0.54725 0.0
C441 C 0.85791 0.87237 0.56951 0.0
C442 C 0.84634 0.85201 0.56484 0.0
O443 O 0.85145 0.84461 0.50092 0.0
C444 C 0.79681 0.84391 0.52852 0.0
O445 O 0.80865 0.86267 0.52363 0.0
H446 H 0.89367 0.851 0.53411 0.0
H447 H 0.827 0.84783 0.56874 0.0
N448 N 0.85645 0.79626 0.5204 0.0
N449 N 0.86305 0.76363 0.50283 0.0
C450 C 0.84956 0.78288 0.50351 0.0
C451 C 0.87479 0.78498 0.53077 0.0
C452 C 0.87901 0.76501 0.51991 0.0
C453 C 0.87189 0.84445 0.49024 0.0
O454 O 0.88939 0.8298 0.49528 0.0
H455 H 0.83595 0.78773 0.49128 0.0
H456 H 0.8851 0.79127 0.54473 0.0
O457 O 0.80925 0.82578 0.53032 0.0
H458 H 0.84898 0.88635 0.57764 0.0
H459 H 0.89333 0.75276 0.52384 0.0
Cu460 Cu 0.9977 0.01244 0.17376 0.0
N461 N 0.992 0.99855 0.2 0.0
N462 N 0.99319 0.9973 0.23607 0.0
C463 C 0.9949 0.0103 0.21834 0.0
C464 C 0.98846 0.97634 0.22847 0.0
C465 C 0.98792 0.97714 0.20604 0.0
O466 O 0.03052 0.02681 0.17784 0.0
C467 C 0.96819 0.05372 0.17193 0.0
O468 O 0.98775 0.06485 0.17972 0.0
H469 H 0.99864 0.02819 0.21845 0.0
H470 H 0.98558 0.96311 0.19501 0.0
N471 N 0.99703 0.99273 0.15032 0.0
N472 N 0.98034 0.98669 0.11738 0.0
C473 C 0.97574 0.99053 0.13856 0.0
C474 C 0.01595 0.98878 0.13645 0.0
C475 C 0.00569 0.985 0.11615 0.0
C476 C 0.0454 0.03657 0.16474 0.0
O477 O 0.03858 0.0394 0.14446 0.0
H478 H 0.95753 0.99532 0.14484 0.0
H479 H 0.03567 0.99203 0.13996 0.0
O480 O 0.96968 0.03268 0.16876 0.0
H481 H 0.98642 0.96143 0.23831 0.0
H482 H 0.01624 0.98488 0.10127 0.0
Cu483 Cu 0.44319 0.82455 0.55251 0.0
N484 N 0.46154 0.80977 0.53085 0.0
N485 N 0.47366 0.77546 0.52022 0.0
C486 C 0.47411 0.79092 0.53619 0.0
C487 C 0.46186 0.78529 0.50344 0.0
C488 C 0.45448 0.80656 0.51003 0.0
O489 O 0.46338 0.81676 0.57958 0.0
C490 C 0.39532 0.80263 0.53355 0.0
O491 O 0.40971 0.78567 0.52813 0.0
H492 H 0.48097 0.78746 0.55234 0.0
H493 H 0.44238 0.81772 0.50106 0.0
N494 N 0.44515 0.85551 0.55523 0.0
N495 N 0.43881 0.88699 0.57406 0.0
C496 C 0.43774 0.86457 0.57412 0.0
C497 C 0.45147 0.87295 0.54255 0.0
C498 C 0.44722 0.89255 0.55421 0.0
C499 C 0.48185 0.82865 0.58766 0.0
O500 O 0.48644 0.84858 0.57958 0.0
H501 H 0.43077 0.85479 0.58756 0.0
H502 H 0.45744 0.87159 0.52589 0.0
O503 O 0.40574 0.819 0.54419 0.0
H504 H 0.45782 0.77732 0.48802 0.0
H505 H 0.44848 0.90955 0.54813 0.0
Cu506 Cu 0.04271 0.66121 0.35588 0.0
N507 N 0.06695 0.63811 0.35482 0.0
N508 N 0.08433 0.60455 0.3481 0.0
C509 C 0.06535 0.61876 0.34341 0.0
C510 C 0.09924 0.61581 0.36222 0.0
C511 C 0.08876 0.63655 0.36602 0.0
O512 O 0.00803 0.64799 0.35721 0.0
C513 C 0.05677 0.69891 0.32637 0.0
O514 O 0.05716 0.70639 0.30641 0.0
H515 H 0.05074 0.61513 0.33187 0.0
H516 H 0.09684 0.64954 0.37611 0.0
N517 N 0.04602 0.67864 0.38109 0.0
N518 N 0.05384 0.69364 0.41376 0.0
C519 C 0.06128 0.67848 0.39878 0.0
C520 C 0.02873 0.69427 0.38533 0.0
C521 C 0.03343 0.70361 0.40526 0.0
C522 C 0.98751 0.65544 0.34885 0.0
O523 O 0.98823 0.67415 0.33766 0.0
H524 H 0.07689 0.66726 0.40119 0.0
H525 H 0.01385 0.69853 0.3742 0.0
O526 O 0.04637 0.67981 0.32997 0.0
H527 H 0.1165 0.60949 0.36933 0.0
H528 H 0.02303 0.71701 0.41288 0.0
Cu529 Cu 0.58108 0.4583 0.85295 0.0
N530 N 0.57066 0.47719 0.83059 0.0
N531 N 0.56334 0.49373 0.79919 0.0
C532 C 0.57529 0.47683 0.80925 0.0
C533 C 0.5512 0.50526 0.81471 0.0
C534 C 0.55606 0.49518 0.83403 0.0
O535 O 0.60981 0.47584 0.86376 0.0
C536 C 0.52754 0.45847 0.8752 0.0
O537 O 0.51952 0.4738 0.86163 0.0
H538 H 0.58809 0.46536 0.80156 0.0
H539 H 0.54983 0.50092 0.84965 0.0
N540 N 0.59695 0.42944 0.84439 0.0
N541 N 0.59204 0.38244 0.84777 0.0
C542 C 0.59306 0.40485 0.83207 0.0
C543 C 0.60039 0.42843 0.86985 0.0
C544 C 0.59631 0.38721 0.87248 0.0
C545 C 0.62753 0.47883 0.85034 0.0
O546 O 0.62549 0.46997 0.83092 0.0
H547 H 0.58943 0.4038 0.81484 0.0
H548 H 0.60062 0.44226 0.88138 0.0
O549 O 0.55164 0.45388 0.87613 0.0
H550 H 0.54025 0.52035 0.81229 0.0
H551 H 0.59505 0.37472 0.88531 0.0
Cu552 Cu 0.50112 0.60821 0.85032 0.0
N553 N 0.47758 0.59231 0.86702 0.0
N554 N 0.47033 0.56896 0.89481 0.0
C555 C 0.48284 0.57222 0.87607 0.0
C556 C 0.45624 0.5875 0.89753 0.0
C557 C 0.46072 0.60184 0.8804 0.0
O558 O 0.53235 0.59228 0.8542 0.0
C559 C 0.52582 0.64815 0.86003 0.0
O560 O 0.5445 0.63843 0.84986 0.0
H561 H 0.49809 0.56161 0.87065 0.0
H562 H 0.45463 0.61911 0.8793 0.0
N563 N 0.49461 0.61188 0.82048 0.0
N564 N 0.50546 0.62334 0.78704 0.0
C565 C 0.50689 0.62739 0.80852 0.0
C566 C 0.48435 0.59756 0.80596 0.0
C567 C 0.49115 0.60451 0.78539 0.0
C568 C 0.54297 0.59301 0.87271 0.0
O569 O 0.5334 0.6059 0.88785 0.0
H570 H 0.51969 0.63966 0.81544 0.0
H571 H 0.4752 0.58185 0.81005 0.0
O572 O 0.505 0.63782 0.86236 0.0
H573 H 0.44509 0.59119 0.91172 0.0
H574 H 0.48869 0.59477 0.77068 0.0
Cu575 Cu 0.64859 0.36918 0.04913 0.0
N576 N 0.66921 0.34536 0.05743 0.0
N577 N 0.69838 0.32686 0.07637 0.0
C578 C 0.68521 0.346 0.07435 0.0
C579 C 0.69055 0.31352 0.05994 0.0
C580 C 0.67223 0.32491 0.04841 0.0
O581 O 0.66126 0.39396 0.06718 0.0
C582 C 0.59216 0.36632 0.0574 0.0
O583 O 0.58817 0.38743 0.05247 0.0
H584 H 0.68821 0.36069 0.08439 0.0
H585 H 0.66266 0.31909 0.03395 0.0
N586 N 0.65483 0.37486 0.01929 0.0
N587 N 0.65489 0.38787 0.98507 0.0
C588 C 0.6446 0.38957 0.00503 0.0
C589 C 0.67281 0.36424 0.0079 0.0
C590 C 0.67282 0.37206 0.987 0.0
C591 C 0.65613 0.39605 0.08717 0.0
O592 O 0.63913 0.38262 0.09569 0.0
H593 H 0.63081 0.402 0.00931 0.0
H594 H 0.68528 0.35161 0.01432 0.0
O595 O 0.61435 0.3581 0.05626 0.0
H596 H 0.69801 0.29709 0.05621 0.0
H597 H 0.68467 0.36607 0.97402 0.0
Cu598 Cu 0.90755 0.42603 0.27313 0.0
N599 N 0.89591 0.41474 0.29958 0.0
N600 N 0.90945 0.42025 0.33373 0.0
C601 C 0.9025 0.42961 0.31496 0.0
C602 C 0.90617 0.398 0.33079 0.0
C603 C 0.89795 0.39458 0.30952 0.0
O604 O 0.89644 0.45861 0.2754 0.0
C605 C 0.94964 0.39869 0.27891 0.0
O606 O 0.93203 0.38367 0.27469 0.0
H607 H 0.90703 0.44683 0.31122 0.0
H608 H 0.89688 0.3785 0.30136 0.0
N609 N 0.89849 0.41185 0.24661 0.0
N610 N 0.91065 0.4078 0.21201 0.0
C611 C 0.91699 0.40556 0.23302 0.0
C612 C 0.87861 0.41599 0.23353 0.0
C613 C 0.88612 0.4136 0.21219 0.0
C614 C 0.87722 0.46963 0.26819 0.0
O615 O 0.86564 0.46263 0.25062 0.0
H616 H 0.93627 0.40356 0.23826 0.0
H617 H 0.8609 0.42293 0.23882 0.0
O618 O 0.94411 0.41964 0.27764 0.0
H619 H 0.91193 0.3852 0.34215 0.0
H620 H 0.87538 0.41852 0.19812 0.0
Cu621 Cu 0.99852 0.60522 0.42845 0.0
N622 N 0.01751 0.61205 0.45411 0.0
N623 N 0.00279 0.62249 0.48719 0.0
C624 C 0.00691 0.60543 0.473 0.0
C625 C 0.01575 0.63975 0.47834 0.0
C626 C 0.02486 0.63332 0.45831 0.0
O627 O 0.97618 0.58005 0.43667 0.0
C628 C 0.98759 0.65102 0.41721 0.0
O629 O 0.00917 0.65041 0.40697 0.0
H630 H 0.99524 0.59066 0.47366 0.0
H631 H 0.03102 0.64499 0.44602 0.0
N632 N 0.01557 0.59708 0.40222 0.0
N633 N 0.01691 0.58729 0.36663 0.0
C634 C 0.00686 0.60106 0.3819 0.0
C635 C 0.03244 0.58051 0.3996 0.0
C636 C 0.03319 0.57445 0.37795 0.0
C637 C 0.98533 0.56175 0.44401 0.0
O638 O 0.00992 0.55919 0.44411 0.0
H639 H 0.99173 0.6123 0.37905 0.0
H640 H 0.04183 0.57192 0.41273 0.0
O641 O 0.97854 0.63284 0.42495 0.0
H642 H 0.01395 0.65707 0.48349 0.0
H643 H 0.04356 0.56046 0.37128 0.0
Cu644 Cu 0.53181 0.41165 0.77532 0.0
N645 N 0.51747 0.43757 0.76266 0.0
N646 N 0.50825 0.46277 0.73673 0.0
C647 C 0.52217 0.44468 0.74231 0.0
C648 C 0.49414 0.46723 0.75433 0.0
C649 C 0.49957 0.45152 0.77012 0.0
O650 O 0.56269 0.40771 0.75843 0.0
C651 C 0.49959 0.38425 0.75094 0.0
O652 O 0.51035 0.39329 0.73395 0.0
H653 H 0.53558 0.43662 0.73175 0.0
H654 H 0.49063 0.4501 0.78575 0.0
N655 N 0.53556 0.41457 0.80585 0.0
N656 N 0.5478 0.41349 0.84216 0.0
C657 C 0.54303 0.40159 0.82293 0.0
C658 C 0.53347 0.43472 0.8142 0.0
C659 C 0.54103 0.43399 0.835 0.0
C660 C 0.58123 0.42141 0.76021 0.0
O661 O 0.58376 0.43282 0.77826 0.0
H662 H 0.5485 0.38446 0.81999 0.0
H663 H 0.53017 0.4498 0.80499 0.0
O664 O 0.50768 0.38856 0.76987 0.0
H665 H 0.48029 0.48044 0.75549 0.0
H666 H 0.54531 0.44895 0.84177 0.0
Cu667 Cu 0.99549 0.43871 0.00812 0.0
N668 N 0.01994 0.43531 0.98644 0.0
N669 N 0.00989 0.42585 0.95222 0.0
C670 C 0.01244 0.4426 0.9668 0.0
C671 C 0.021 0.40817 0.96183 0.0
C672 C 0.0278 0.41421 0.98264 0.0
O673 O 0.96992 0.45956 0.99736 0.0
C674 C 0.987 0.39277 0.02055 0.0
O675 O 0.00459 0.39586 0.03535 0.0
H676 H 0.00224 0.45799 0.96473 0.0
H677 H 0.03187 0.40226 0.99532 0.0
N678 N 0.00769 0.44576 0.03586 0.0
N679 N 0.00936 0.44459 0.07207 0.0
C680 C 0.9948 0.4419 0.05423 0.0
C681 C 0.03126 0.45128 0.04228 0.0
C682 C 0.03236 0.45054 0.06467 0.0
C683 C 0.9747 0.47934 0.99056 0.0
O684 O 0.99725 0.48805 0.99397 0.0
H685 H 0.9756 0.43558 0.05441 0.0
H686 H 0.04683 0.45449 0.03145 0.0
O687 O 0.97964 0.4092 0.00901 0.0
H688 H 0.01939 0.39101 0.95607 0.0
H689 H 0.0489 0.45354 0.07467 0.0
Cu690 Cu 0.97404 0.60133 0.1478 0.0
N691 N 0.99062 0.58763 0.12426 0.0
N692 N 0.99438 0.56697 0.09394 0.0
C693 C 0.97913 0.57998 0.10603 0.0
C694 C 0.01658 0.56681 0.10481 0.0
C695 C 0.01431 0.57974 0.12332 0.0
O696 O 0.93878 0.59502 0.14112 0.0
C697 C 0.98895 0.64457 0.13152 0.0
O698 O 0.99229 0.634 0.11307 0.0
H699 H 0.95936 0.58239 0.10253 0.0
H700 H 0.02828 0.58168 0.13604 0.0
N701 N 0.98347 0.58727 0.17432 0.0
N702 N 0.98852 0.57702 0.2093 0.0
C703 C 0.981 0.59349 0.19546 0.0
C704 C 0.99296 0.5664 0.17503 0.0
C705 C 0.99616 0.56015 0.19625 0.0
C706 C 0.9219 0.58654 0.15327 0.0
O707 O 0.92583 0.58533 0.17424 0.0
H708 H 0.97293 0.60928 0.20057 0.0
H709 H 0.99669 0.55609 0.16099 0.0
O710 O 0.9812 0.63362 0.148 0.0
H711 H 0.03261 0.55652 0.10063 0.0
H712 H 0.00336 0.54414 0.20165 0.0
Cu713 Cu 0.65787 0.67051 0.61511 0.0
N714 N 0.69156 0.67853 0.61436 0.0
N715 N 0.73084 0.67945 0.60206 0.0
C716 C 0.70896 0.66795 0.60262 0.0
C717 C 0.72698 0.69834 0.6136 0.0
C718 C 0.70266 0.6976 0.62146 0.0
O719 O 0.65444 0.64364 0.59334 0.0
C720 C 0.61811 0.69274 0.60039 0.0
O721 O 0.61227 0.67134 0.59885 0.0
H722 H 0.70504 0.65311 0.59296 0.0
H723 H 0.6931 0.7108 0.63018 0.0
N724 N 0.64948 0.66802 0.645 0.0
N725 N 0.62998 0.66757 0.67749 0.0
C726 C 0.62701 0.66773 0.65559 0.0
C727 C 0.66686 0.67019 0.66084 0.0
C728 C 0.65512 0.66964 0.68056 0.0
C729 C 0.6575 0.64986 0.57359 0.0
O730 O 0.65979 0.67169 0.57115 0.0
H731 H 0.60907 0.66636 0.64741 0.0
H732 H 0.68698 0.67135 0.65827 0.0
O733 O 0.64 0.69761 0.60682 0.0
H734 H 0.73988 0.7125 0.61448 0.0
H735 H 0.66457 0.66932 0.69615 0.0
Cu736 Cu 0.83836 0.5421 0.591 0.0
N737 N 0.83492 0.51599 0.60878 0.0
N738 N 0.83364 0.50658 0.64414 0.0
C739 C 0.82337 0.51877 0.62806 0.0
C740 C 0.85136 0.49411 0.63452 0.0
C741 C 0.8524 0.50004 0.61302 0.0
O742 O 0.81281 0.56352 0.60433 0.0
C743 C 0.87995 0.52591 0.56818 0.0
O744 O 0.8638 0.50911 0.56844 0.0
H745 H 0.81157 0.53295 0.63164 0.0
H746 H 0.86834 0.49593 0.60312 0.0
N747 N 0.82661 0.54641 0.56286 0.0
N748 N 0.846 0.56402 0.53567 0.0
C749 C 0.83781 0.56544 0.5561 0.0
C750 C 0.82456 0.53329 0.54519 0.0
C751 C 0.8359 0.54451 0.52814 0.0
C752 C 0.79074 0.5547 0.60092 0.0
O753 O 0.79043 0.53516 0.59091 0.0
H754 H 0.84464 0.57789 0.56753 0.0
H755 H 0.8195 0.51566 0.54541 0.0
O756 O 0.87487 0.54295 0.58048 0.0
H757 H 0.86574 0.48476 0.64309 0.0
H758 H 0.83976 0.53713 0.51249 0.0
Cu759 Cu 0.57952 0.44078 0.00807 0.0
N760 N 0.59692 0.45113 0.98367 0.0
N761 N 0.60792 0.47412 0.95693 0.0
C762 C 0.58901 0.46667 0.96945 0.0
C763 C 0.62867 0.46301 0.96316 0.0
C764 C 0.62186 0.44899 0.97989 0.0
O765 O 0.54922 0.4595 0.01059 0.0
C766 C 0.62072 0.45918 0.03072 0.0
O767 O 0.61274 0.47823 0.02263 0.0
H768 H 0.56999 0.47281 0.96841 0.0
H769 H 0.6345 0.43864 0.98925 0.0
N770 N 0.5663 0.41117 1.00376 0.0
N771 N 0.55935 0.37408 0.99863 0.0
C772 C 0.57607 0.39014 0.00496 0.0
C773 C 0.54232 0.40784 0.99708 0.0
C774 C 0.53808 0.38529 0.99374 0.0
C775 C 0.54703 0.48063 0.00771 0.0
O776 O 0.56667 0.49379 0.0109 0.0
H777 H 0.59503 0.38644 0.0096 0.0
H778 H 0.52895 0.42111 0.99406 0.0
O779 O 0.60561 0.4423 0.03057 0.0
H780 H 0.64732 0.46519 0.95639 0.0
H781 H 0.52093 0.37773 0.98736 0.0
Cu782 Cu 0.83224 0.45284 0.18418 0.0
N783 N 0.81252 0.44871 0.20918 0.0
N784 N 0.7932 0.45499 0.24065 0.0
C785 C 0.81245 0.46101 0.22759 0.0
C786 C 0.78038 0.43876 0.23013 0.0
C787 C 0.79193 0.4353 0.21057 0.0
O788 O 0.86667 0.46472 0.19032 0.0
C789 C 0.78991 0.47598 0.16883 0.0
O790 O 0.78885 0.48502 0.18823 0.0
H791 H 0.82533 0.4748 0.23084 0.0
H792 H 0.78427 0.42519 0.19757 0.0
N793 N 0.83804 0.4253 0.17043 0.0
N794 N 0.83019 0.3922 0.15429 0.0
C795 C 0.8246 0.406 0.17098 0.0
C796 C 0.85314 0.42333 0.15313 0.0
C797 C 0.8485 0.40298 0.14323 0.0
C798 C 0.87742 0.48401 0.19178 0.0
O799 O 0.864 0.50232 0.18948 0.0
H800 H 0.81005 0.4025 0.18254 0.0
H801 H 0.86492 0.43672 0.14698 0.0
O802 O 0.81075 0.46759 0.16276 0.0
H803 H 0.76303 0.43102 0.23564 0.0
H804 H 0.85617 0.39765 0.12786 0.0
Cu805 Cu 0.82847 0.57316 0.41812 0.0
N806 N 0.80542 0.54073 0.41745 0.0
N807 N 0.78924 0.50564 0.40753 0.0
C808 C 0.81007 0.51958 0.4099 0.0
C809 C 0.77094 0.51739 0.41679 0.0
C810 C 0.77998 0.53844 0.42089 0.0
O811 O 0.85837 0.55239 0.40776 0.0
C812 C 0.78354 0.5978 0.45183 0.0
O813 O 0.78598 0.57966 0.46225 0.0
H814 H 0.82729 0.51615 0.4017 0.0
H815 H 0.7677 0.55173 0.42609 0.0
N816 N 0.83639 0.60114 0.40096 0.0
N817 N 0.84421 0.6389 0.39825 0.0
C818 C 0.82916 0.6226 0.40613 0.0
C819 C 0.85445 0.60462 0.38617 0.0
C820 C 0.85943 0.62754 0.38459 0.0
C821 C 0.86543 0.53314 0.41567 0.0
O822 O 0.8541 0.52509 0.43294 0.0
H823 H 0.81535 0.62695 0.41783 0.0
H824 H 0.86475 0.59128 0.3785 0.0
O825 O 0.79744 0.59915 0.43431 0.0
H826 H 0.7511 0.51284 0.41644 0.0
H827 H 0.87468 0.63487 0.3754 0.0
Cu828 Cu 0.84381 0.54367 0.85793 0.0
N829 N 0.8609 0.54102 0.83185 0.0
N830 N 0.86542 0.53653 0.79635 0.0
C831 C 0.84974 0.5426 0.8123 0.0
C832 C 0.88736 0.53103 0.80596 0.0
C833 C 0.88449 0.53372 0.82802 0.0
O834 O 0.80887 0.54811 0.85026 0.0
C835 C 0.88109 0.56651 0.88198 0.0
O836 O 0.89708 0.5689 0.86597 0.0
H837 H 0.83028 0.54745 0.80982 0.0
H838 H 0.89838 0.53 0.84035 0.0
N839 N 0.84531 0.51627 0.87235 0.0
N840 N 0.86102 0.4862 0.8892 0.0
C841 C 0.86583 0.50356 0.87573 0.0
C842 C 0.82686 0.50672 0.88407 0.0
C843 C 0.83636 0.48812 0.89429 0.0
C844 C 0.79105 0.55327 0.86295 0.0
O845 O 0.7964 0.56218 0.88191 0.0
H846 H 0.88426 0.50802 0.8697 0.0
H847 H 0.80823 0.51355 0.88619 0.0
O848 O 0.85758 0.56624 0.87754 0.0
H849 H 0.90403 0.52523 0.79764 0.0
H850 H 0.82596 0.47745 0.90526 0.0
Cu851 Cu 0.84998 0.43381 0.01719 0.0
N852 N 0.84257 0.44016 0.04607 0.0
N853 N 0.84149 0.4633 0.07479 0.0
C854 C 0.85542 0.45516 0.05826 0.0
C855 C 0.8191 0.45243 0.07306 0.0
C856 C 0.81986 0.43814 0.05547 0.0
O857 O 0.8789 0.45318 0.0098 0.0
C858 C 0.8032 0.45345 0.00515 0.0
O859 O 0.81208 0.47165 0.01463 0.0
H860 H 0.87385 0.46126 0.05386 0.0
H861 H 0.80405 0.4289 0.04865 0.0
N862 N 0.86051 0.40394 0.01333 0.0
N863 N 0.86369 0.36636 0.01368 0.0
C864 C 0.85249 0.3846 0.02256 0.0
C865 C 0.87731 0.39765 0.99828 0.0
C866 C 0.87933 0.37462 0.99844 0.0
C867 C 0.88115 0.47458 0.0106 0.0
O868 O 0.86089 0.48709 0.01101 0.0
H869 H 0.83825 0.38387 0.03504 0.0
H870 H 0.88713 0.40909 0.98761 0.0
O871 O 0.81805 0.4371 1.00169 0.0
H872 H 0.80252 0.45608 0.08242 0.0
H873 H 0.89148 0.36472 0.98817 0.0
Cu874 Cu 0.81084 0.56685 0.44142 0.0
N875 N 0.79454 0.57595 0.40405 0.0
N876 N 0.79383 0.56773 0.36627 0.0
C877 C 0.8071 0.56931 0.38505 0.0
C878 C 0.77094 0.57481 0.37304 0.0
C879 C 0.77152 0.58039 0.39527 0.0
O880 O 0.85082 0.56382 0.44598 0.0
C881 C 0.76334 0.53736 0.46862 0.0
O882 O 0.76152 0.51702 0.47666 0.0
H883 H 0.82551 0.56188 0.38529 0.0
H884 H 0.75503 0.58422 0.4048 0.0
N885 N 0.8286 0.58956 0.46288 0.0
N886 N 0.83409 0.61212 0.49247 0.0
C887 C 0.82586 0.59191 0.48474 0.0
C888 C 0.84033 0.60879 0.45758 0.0
C889 C 0.8447 0.62194 0.47529 0.0
C890 C 0.87484 0.56976 0.44428 0.0
O891 O 0.89111 0.55668 0.45389 0.0
H892 H 0.81521 0.58008 0.4944 0.0
H893 H 0.8441 0.61385 0.44164 0.0
O894 O 0.78584 0.54242 0.46022 0.0
H895 H 0.75384 0.57315 0.36347 0.0
H896 H 0.85095 0.6393 0.47473 0.0
Cu897 Cu 0.60021 0.55637 0.59328 0.0
N898 N 0.61223 0.54887 0.62177 0.0
N899 N 0.62317 0.52456 0.64847 0.0
C900 C 0.61709 0.52729 0.62727 0.0
C901 C 0.62334 0.54561 0.65656 0.0
C902 C 0.61687 0.56029 0.64015 0.0
O903 O 0.56751 0.53983 0.59357 0.0
C904 C 0.63001 0.5525 0.55773 0.0
O905 O 0.60925 0.54392 0.54923 0.0
H906 H 0.61637 0.51375 0.61571 0.0
H907 H 0.61575 0.57798 0.64168 0.0
N908 N 0.59159 0.58597 0.58208 0.0
N909 N 0.58999 0.61734 0.56075 0.0
C910 C 0.59258 0.59456 0.56147 0.0
C911 C 0.58557 0.60366 0.5941 0.0
C912 C 0.58615 0.62295 0.58157 0.0
C913 C 0.56361 0.5194 0.59908 0.0
O914 O 0.5803 0.50418 0.59377 0.0
H915 H 0.59558 0.58459 0.54723 0.0
H916 H 0.5809 0.60193 0.6109 0.0
O917 O 0.63164 0.55236 0.57794 0.0
H918 H 0.62691 0.55015 0.67328 0.0
H919 H 0.58365 0.63988 0.58725 0.0
Cu920 Cu 0.56676 0.82966 0.50245 0.0
N921 N 0.55232 0.84457 0.47865 0.0
N922 N 0.5368 0.87703 0.46564 0.0
C923 C 0.53596 0.86167 0.48167 0.0
C924 C 0.55438 0.86927 0.45185 0.0
C925 C 0.56379 0.84927 0.4598 0.0
O926 O 0.55259 0.84576 0.52691 0.0
C927 C 0.61498 0.85194 0.50761 0.0
O928 O 0.60351 0.87141 0.50865 0.0
H929 H 0.5266 0.86472 0.49692 0.0
H930 H 0.58037 0.84072 0.45396 0.0
N931 N 0.56303 0.7981 0.50599 0.0
N932 N 0.57069 0.76078 0.50485 0.0
C933 C 0.56609 0.77968 0.49304 0.0
C934 C 0.56628 0.79036 0.5262 0.0
C935 C 0.57119 0.76782 0.5256 0.0
C936 C 0.56192 0.85055 0.54541 0.0
O937 O 0.58356 0.84204 0.55164 0.0
H938 H 0.56707 0.78039 0.47556 0.0
H939 H 0.56726 0.80095 0.54039 0.0
O940 O 0.60257 0.8341 0.50347 0.0
H941 H 0.56209 0.87875 0.43847 0.0
H942 H 0.57552 0.75739 0.53946 0.0
Cu943 Cu 0.17946 0.82984 0.44938 0.0
N944 N 0.16877 0.82087 0.47669 0.0
N945 N 0.14833 0.79418 0.4951 0.0
C946 C 0.14724 0.80903 0.47873 0.0
C947 C 0.1713 0.79721 0.50419 0.0
C948 C 0.18377 0.81395 0.493 0.0
O949 O 0.15603 0.81515 0.42913 0.0
C950 C 0.218 0.79872 0.44887 0.0
O951 O 0.19972 0.78484 0.45424 0.0
H952 H 0.13305 0.8082 0.46603 0.0
H953 H 0.2037 0.81784 0.49431 0.0
N954 N 0.17855 0.86091 0.44587 0.0
N955 N 0.18947 0.89664 0.43904 0.0
C956 C 0.19612 0.87737 0.44915 0.0
C957 C 0.16084 0.86992 0.43316 0.0
C958 C 0.168 0.89134 0.42833 0.0
C959 C 0.16184 0.80205 0.41362 0.0
O960 O 0.18567 0.79937 0.40859 0.0
H961 H 0.21442 0.87455 0.45651 0.0
H962 H 0.14529 0.86067 0.42591 0.0
O963 O 0.21306 0.81918 0.44516 0.0
H964 H 0.17977 0.78601 0.5159 0.0
H965 H 0.15937 0.90161 0.41596 0.0
Cu966 Cu 0.41765 0.00632 0.57636 0.0
N967 N 0.43023 0.02318 0.60006 0.0
N968 N 0.43656 0.0319 0.63517 0.0
C969 C 0.43323 0.01528 0.62047 0.0
C970 C 0.43717 0.05093 0.62311 0.0
C971 C 0.43316 0.04551 0.60164 0.0
O972 O 0.37967 0.00928 0.57633 0.0
C973 C 0.45455 0.97467 0.5877 0.0
O974 O 0.46761 0.99305 0.59168 0.0
H975 H 0.43004 0.99784 0.62462 0.0
H976 H 0.43071 0.05714 0.5884 0.0
N977 N 0.43118 0.0151 0.54952 0.0
N978 N 0.4536 0.00742 0.51973 0.0
C979 C 0.4528 0.00666 0.54152 0.0
C980 C 0.41824 0.02223 0.53202 0.0
C981 C 0.43187 0.01722 0.5136 0.0
C982 C 0.36231 0.00516 0.56219 0.0
O983 O 0.36841 0.99641 0.54341 0.0
H984 H 0.46643 0.99772 0.55112 0.0
H985 H 0.39916 0.0285 0.53237 0.0
O986 O 0.43171 0.97613 0.58095 0.0
H987 H 0.43876 0.06791 0.62922 0.0
H988 H 0.42548 0.01903 0.49703 0.0
Cu989 Cu 0.43056 0.29064 0.94353 0.0
N990 N 0.45603 0.30263 0.96079 0.0
N991 N 0.49562 0.30643 0.94935 0.0
C992 C 0.47205 0.31452 0.94867 0.0
C993 C 0.49537 0.29035 0.96457 0.0
C994 C 0.47099 0.28863 0.97223 0.0
O995 O 0.42896 0.30963 0.91611 0.0
C996 C 0.38466 0.30855 0.95959 0.0
O997 O 0.39328 0.32833 0.95373 0.0
H998 H 0.46562 0.32494 0.93564 0.0
H999 H 0.46403 0.27493 0.98204 0.0
N1000 N 0.44048 0.25984 0.94232 0.0
N1001 N 0.45173 0.22637 0.95668 0.0
C1002 C 0.43585 0.24413 0.95786 0.0
C1003 C 0.46018 0.25166 0.9312 0.0
C1004 C 0.46711 0.23124 0.93998 0.0
C1005 C 0.42793 0.32166 0.89867 0.0
O1006 O 0.42204 0.31151 0.8804 0.0
H1007 H 0.42307 0.24687 0.97119 0.0
H1008 H 0.47043 0.26094 0.91901 0.0
O1009 O 0.39824 0.29124 0.9574 0.0
H1010 H 0.51078 0.27911 0.96817 0.0
H1011 H 0.48345 0.2215 0.93546 0.0
Cu1012 Cu 0.56663 0.63301 0.63679 0.0
N1013 N 0.55387 0.61231 0.65555 0.0
N1014 N 0.54895 0.57896 0.67074 0.0
C1015 C 0.56444 0.59258 0.65987 0.0
C1016 C 0.52765 0.59084 0.67375 0.0
C1017 C 0.53054 0.61133 0.66389 0.0
O1018 O 0.60451 0.62654 0.6302 0.0
C1019 C 0.54289 0.67516 0.64985 0.0
O1020 O 0.52086 0.66499 0.64898 0.0
H1021 H 0.58368 0.58907 0.65679 0.0
H1022 H 0.51674 0.62456 0.66303 0.0
N1023 N 0.54308 0.6303 0.6131 0.0
N1024 N 0.52046 0.64051 0.58366 0.0
C1025 C 0.53731 0.64669 0.5992 0.0
C1026 C 0.5283 0.61286 0.60663 0.0
C1027 C 0.51466 0.61901 0.58826 0.0
C1028 C 0.6236 0.62077 0.6422 0.0
O1029 O 0.62039 0.61882 0.66314 0.0
H1030 H 0.5474 0.66206 0.59941 0.0
H1031 H 0.52827 0.59645 0.61411 0.0
O1032 O 0.56298 0.6634 0.64881 0.0
H1033 H 0.51198 0.58568 0.6838 0.0
H1034 H 0.5028 0.60817 0.57836 0.0
Cu1035 Cu 0.84604 0.13641 0.03134 0.0
N1036 N 0.8656 0.11405 0.01862 0.0
N1037 N 0.88867 0.08273 0.01959 0.0
C1038 C 0.88267 0.10209 0.02972 0.0
C1039 C 0.87546 0.0829 1.00085 0.0
C1040 C 0.86109 0.10223 1.00035 0.0
O1041 O 0.84777 0.13054 0.06234 0.0
C1042 C 0.79275 0.1383 0.03197 0.0
O1043 O 0.79635 0.14795 0.05092 0.0
H1044 H 0.88902 0.10669 0.0458 0.0
H1045 H 0.84667 0.10627 0.98854 0.0
N1046 N 0.85806 0.16503 0.02388 0.0
N1047 N 0.86256 0.20236 0.02091 0.0
C1048 C 0.85078 0.18532 0.03137 0.0
C1049 C 0.87502 0.1694 0.00832 0.0
C1050 C 0.87783 0.19233 0.00644 0.0
C1051 C 0.8662 0.1371 0.07413 0.0
O1052 O 0.88297 0.15097 0.06591 0.0
H1053 H 0.83667 0.18753 0.04378 0.0
H1054 H 0.88442 0.15674 0.99878 0.0
O1055 O 0.81175 0.13236 0.02094 0.0
H1056 H 0.8744 0.06913 0.98938 0.0
H1057 H 0.89025 0.20095 0.99531 0.0
Cu1058 Cu 0.3843 0.02451 0.84666 0.0
N1059 N 0.39425 0.00697 0.82329 0.0
N1060 N 0.404 1.00182 0.78854 0.0
C1061 C 0.39024 0.0136 0.80289 0.0
C1062 C 0.41647 0.98642 0.80042 0.0
C1063 C 0.41041 0.98967 0.822 0.0
O1064 O 0.34798 0.02942 0.84334 0.0
C1065 C 0.42814 0.053 0.84066 0.0
O1066 O 0.43623 0.03684 0.82804 0.0
H1067 H 0.3791 0.02821 0.79893 0.0
H1068 H 0.41889 0.9814 0.8358 0.0
N1069 N 0.38955 0.01 0.8727 0.0
N1070 N 0.4053 0.00949 0.90603 0.0
C1071 C 0.40961 0.01472 0.88528 0.0
C1072 C 0.37208 1.00102 0.88596 0.0
C1073 C 0.3817 1.00104 0.90677 0.0
C1074 C 0.33322 0.03584 0.85834 0.0
O1075 O 0.34286 0.04294 0.87681 0.0
H1076 H 0.42602 0.02397 0.8798 0.0
H1077 H 0.35288 0.99697 0.88128 0.0
O1078 O 0.40582 0.05174 0.84852 0.0
H1079 H 0.43075 0.9752 0.79427 0.0
H1080 H 0.37179 0.9964 0.92139 0.0
Cu1081 Cu 0.99351 0.00683 0.44657 0.0
N1082 N 0.98574 0.02574 0.42369 0.0
N1083 N 0.9828 0.03571 0.38902 0.0
C1084 C 0.98523 0.01863 0.40304 0.0
C1085 C 0.98139 0.05443 0.40138 0.0
C1086 C 0.98313 0.04818 0.42288 0.0
O1087 O 0.02975 1.00169 0.44573 0.0
C1088 C 0.95175 0.97925 0.43486 0.0
O1089 O 0.94197 0.99862 0.42928 0.0
H1090 H 0.98799 1.00131 0.39835 0.0
H1091 H 0.98365 0.05924 0.43681 0.0
N1092 N 0.98485 0.01845 0.47395 0.0
N1093 N 0.96045 0.00909 0.50226 0.0
C1094 C 0.96119 0.01616 0.48137 0.0
C1095 C 0.99963 0.01608 0.49157 0.0
C1096 C 0.98466 0.01057 0.50903 0.0
C1097 C 0.04115 0.99237 0.42999 0.0
O1098 O 0.02798 0.98392 0.4138 0.0
H1099 H 0.94536 0.01419 0.47035 0.0
H1100 H 0.01988 0.01402 0.49097 0.0
O1101 O 0.97433 0.97885 0.44226 0.0
H1102 H 0.9801 0.07142 0.39532 0.0
H1103 H 0.99164 0.00374 0.52413 0.0
H1104 H 0.06585 0.22031 0.08562 0.0
H1105 H 0.99943 0.19132 0.11534 0.0
H1106 H 0.01263 0.20697 0.15082 0.0
H1107 H 0.1076 0.20707 0.1285 0.0
H1108 H 0.12644 0.23232 0.12658 0.0
H1109 H 0.11035 0.2215 0.10299 0.0
H1110 H 0.08798 0.25973 0.09781 0.0
H1111 H 0.10448 0.27027 0.1214 0.0
H1112 H 0.07049 0.27163 0.11997 0.0
H1113 H 0.03323 0.22494 0.18307 0.0
H1114 H 0.06273 0.23977 0.21101 0.0
H1115 H 0.1178 0.25436 0.16143 0.0
C1116 C 0.05399 0.21766 0.09961 0.0
C1117 C 0.03149 0.20486 0.09786 0.0
C1118 C 0.01666 0.20115 0.11648 0.0
C1119 C 0.02393 0.21009 0.1366 0.0
C1120 C 0.0463 0.22249 0.13791 0.0
C1121 C 0.06133 0.22605 0.12 0.0
C1122 C 0.08564 0.2381 0.12635 0.0
C1123 C 0.10887 0.22388 0.12078 0.0
C1124 C 0.08719 0.26133 0.11572 0.0
C1125 C 0.08214 0.24025 0.15064 0.0
C1126 C 0.05898 0.23171 0.15684 0.0
C1127 C 0.05137 0.23177 0.17841 0.0
C1128 C 0.0681 0.24035 0.19413 0.0
C1129 C 0.0923 0.24829 0.18826 0.0
C1130 C 0.09928 0.24846 0.16621 0.0
H1131 H 0.03128 0.84338 0.31744 0.0
H1132 H 0.96367 0.88353 0.32271 0.0
H1133 H 0.96037 0.88528 0.28299 0.0
H1134 H 0.05816 0.87207 0.27436 0.0
H1135 H 0.07038 0.84807 0.26008 0.0
H1136 H 0.06576 0.84674 0.28889 0.0
H1137 H 0.03741 0.8115 0.28395 0.0
H1138 H 0.04199 0.81272 0.25506 0.0
H1139 H 0.01052 0.81262 0.26596 0.0
H1140 H 0.96692 0.88731 0.24349 0.0
H1141 H 0.98277 0.88886 0.20605 0.0
H1142 H 0.04594 0.84696 0.22411 0.0
C1143 C 0.01543 0.85193 0.31014 0.0
C1144 C 0.99765 0.86332 0.32329 0.0
C1145 C 0.97751 0.87478 0.31307 0.0
C1146 C 0.97541 0.87578 0.29046 0.0
C1147 C 0.99354 0.8651 0.27795 0.0
C1148 C 0.01306 0.85315 0.28729 0.0
C1149 C 0.03085 0.84462 0.26976 0.0
C1150 C 0.05789 0.85341 0.2735 0.0
C1151 C 0.03015 0.81883 0.26862 0.0
C1152 C 0.01909 0.8548 0.24945 0.0
C1153 C 0.99727 0.86614 0.25465 0.0
C1154 C 0.98376 0.87818 0.23917 0.0
C1155 C 0.99294 0.87905 0.21794 0.0
C1156 C 0.01546 0.86795 0.21211 0.0
C1157 C 0.02843 0.85524 0.22803 0.0
H1158 H 0.50019 0.82848 0.77315 0.0
H1159 H 0.51978 0.89739 0.75792 0.0
H1160 H 0.49955 0.89317 0.72192 0.0
H1161 H 0.5105 0.80764 0.7164 0.0
H1162 H 0.48537 0.78721 0.71815 0.0
H1163 H 0.5031 0.79501 0.74209 0.0
H1164 H 0.46164 0.80574 0.76147 0.0
H1165 H 0.44382 0.79792 0.7377 0.0
H1166 H 0.4407 0.82573 0.749 0.0
H1167 H 0.47514 0.88199 0.68803 0.0
H1168 H 0.44711 0.86505 0.6599 0.0
H1169 H 0.44275 0.80367 0.69704 0.0
C1170 C 0.50021 0.84262 0.76217 0.0
C1171 C 0.51144 0.86335 0.7684 0.0
C1172 C 0.51143 0.88136 0.75346 0.0
C1173 C 0.50001 0.8791 0.73296 0.0
C1174 C 0.48903 0.85851 0.72731 0.0
C1175 C 0.48927 0.84049 0.7414 0.0
C1176 C 0.47589 0.82028 0.73136 0.0
C1177 C 0.49484 0.80142 0.72674 0.0
C1178 C 0.45421 0.81194 0.74575 0.0
C1179 C 0.4662 0.83033 0.71035 0.0
C1180 C 0.47478 0.85216 0.70793 0.0
C1181 C 0.46843 0.86487 0.68974 0.0
C1182 C 0.45258 0.85517 0.67383 0.0
C1183 C 0.44274 0.8332 0.67644 0.0
C1184 C 0.44993 0.82057 0.69481 0.0
H1185 H 0.38969 0.22385 0.87489 0.0
H1186 H 0.40225 0.15271 0.88366 0.0
H1187 H 0.38468 0.15516 0.9206 0.0
H1188 H 0.41206 0.23961 0.91613 0.0
H1189 H 0.39219 0.26149 0.9274 0.0
H1190 H 0.39221 0.25598 0.89889 0.0
H1191 H 0.34652 0.24568 0.89464 0.0
H1192 H 0.34245 0.25531 0.92207 0.0
H1193 H 0.33129 0.2278 0.91415 0.0
H1194 H 0.36595 0.1664 0.95728 0.0
H1195 H 0.36094 0.18614 0.99264 0.0
H1196 H 0.37375 0.24981 0.96175 0.0
C1197 C 0.38752 0.20859 0.88418 0.0
C1198 C 0.39715 0.18812 0.87642 0.0
C1199 C 0.3951 0.16862 0.88939 0.0
C1200 C 0.3847 0.16978 0.91022 0.0
C1201 C 0.37623 0.19053 0.91774 0.0
C1202 C 0.37748 0.20958 0.90501 0.0
C1203 C 0.3724 0.23056 0.91812 0.0
C1204 C 0.3935 0.248 0.91509 0.0
C1205 C 0.34663 0.24041 0.91189 0.0
C1206 C 0.37158 0.22071 0.94072 0.0
C1207 C 0.3712 0.19748 0.93981 0.0
C1208 C 0.3674 0.18452 0.95826 0.0
C1209 C 0.36532 0.19561 0.97825 0.0
C1210 C 0.3693 0.21898 0.97984 0.0
C1211 C 0.37152 0.23182 0.96081 0.0
H1212 H 0.08368 0.05768 0.14201 0.0
H1213 H 0.0652 0.03072 0.20529 0.0
H1214 H 0.10769 0.04077 0.21853 0.0
H1215 H 0.14935 0.03971 0.14191 0.0
H1216 H 0.16058 0.06476 0.12864 0.0
H1217 H 0.12891 0.05469 0.1236 0.0
H1218 H 0.11103 0.09332 0.13517 0.0
H1219 H 0.14265 0.10351 0.14002 0.0
H1220 H 0.11954 0.10483 0.16128 0.0
H1221 H 0.15193 0.05425 0.22539 0.0
H1222 H 0.19393 0.07247 0.22583 0.0
H1223 H 0.18392 0.09115 0.15842 0.0
C1224 C 0.08857 0.05385 0.15863 0.0
C1225 C 0.07098 0.04335 0.17254 0.0
C1226 C 0.07822 0.03873 0.19423 0.0
C1227 C 0.10241 0.04429 0.20194 0.0
C1228 C 0.1193 0.0545 0.18783 0.0
C1229 C 0.11272 0.05935 0.16667 0.0
C1230 C 0.13426 0.07108 0.15512 0.0
C1231 C 0.14384 0.05669 0.1362 0.0
C1232 C 0.12639 0.09458 0.14745 0.0
C1233 C 0.1537 0.07247 0.17323 0.0
C1234 C 0.1448 0.06252 0.19187 0.0
C1235 C 0.15914 0.06205 0.21086 0.0
C1236 C 0.18301 0.07242 0.21094 0.0
C1237 C 0.19227 0.0833 0.19219 0.0
C1238 C 0.17746 0.08296 0.17303 0.0
H1239 H 0.26543 0.02935 0.43752 0.0
H1240 H 0.24648 0.02904 0.36918 0.0
H1241 H 0.23116 0.99029 0.37185 0.0
H1242 H 0.28527 0.96924 0.43946 0.0
H1243 H 0.27418 0.96524 0.46675 0.0
H1244 H 0.28516 0.99253 0.45809 0.0
H1245 H 0.24455 0.00978 0.46982 0.0
H1246 H 0.23075 0.98339 0.47778 0.0
H1247 H 0.21503 1.00107 0.45813 0.0
H1248 H 0.21582 0.9491 0.37518 0.0
H1249 H 0.19518 0.90833 0.39241 0.0
H1250 H 0.22175 0.93298 0.46737 0.0
C1251 C 0.25779 0.02085 0.42338 0.0
C1252 C 0.25725 0.03199 0.40295 0.0
C1253 C 0.24736 0.0207 0.38468 0.0
C1254 C 0.2387 0.99875 0.38605 0.0
C1255 C 0.23992 0.98804 0.40587 0.0
C1256 C 0.2489 0.9983 0.42487 0.0
C1257 C 0.2478 0.98302 0.44558 0.0
C1258 C 0.27468 0.97716 0.45293 0.0
C1259 C 0.23364 0.99495 0.46391 0.0
C1260 C 0.23416 0.9616 0.43773 0.0
C1261 C 0.23103 0.96607 0.41001 0.0
C1262 C 0.21717 0.9458 0.39236 0.0
C1263 C 0.20424 0.92024 0.40325 0.0
C1264 C 0.20491 0.91509 0.43199 0.0
C1265 C 0.22093 0.93563 0.45005 0.0
H1266 H 0.32142 0.97691 0.55193 0.0
H1267 H 0.34056 0.03917 0.58471 0.0
H1268 H 0.29603 0.04286 0.59638 0.0
H1269 H 0.25991 0.98775 0.53425 0.0
H1270 H 0.24684 0.96073 0.5414 0.0
H1271 H 0.27986 0.96334 0.53523 0.0
H1272 H 0.28938 0.94487 0.57107 0.0
H1273 H 0.25721 0.94413 0.58004 0.0
H1274 H 0.2809 0.95825 0.59627 0.0
H1275 H 0.24908 0.0406 0.60283 0.0
H1276 H 0.2035 0.03238 0.60451 0.0
H1277 H 0.21511 0.96901 0.57135 0.0
C1278 C 0.31653 0.99113 0.56195 0.0
C1279 C 0.33495 0.00759 0.56799 0.0
C1280 C 0.32709 0.02621 0.58042 0.0
C1281 C 0.30182 0.0284 0.58704 0.0
C1282 C 0.28453 0.01144 0.58166 0.0
C1283 C 0.29162 0.99294 0.56969 0.0
C1284 C 0.26948 0.97658 0.56704 0.0
C1285 C 0.26368 0.97185 0.54304 0.0
C1286 C 0.27458 0.95468 0.57938 0.0
C1287 C 0.24837 0.98958 0.57784 0.0
C1288 C 0.25765 0.00951 0.58645 0.0
C1289 C 0.24178 0.02485 0.59648 0.0
C1290 C 0.21584 0.01995 0.59742 0.0
C1291 C 0.20562 0.99982 0.58848 0.0
C1292 C 0.22232 0.98422 0.5789 0.0
H1293 H 0.43125 0.10644 0.01205 0.0
H1294 H 0.50606 0.11476 0.04011 0.0
H1295 H 0.5077 0.15335 0.02679 0.0
H1296 H 0.43962 0.13632 0.96431 0.0
H1297 H 0.40949 0.15007 0.96453 0.0
H1298 H 0.41307 0.12359 0.97807 0.0
H1299 H 0.39767 0.14064 0.01395 0.0
H1300 H 0.39402 0.16722 1.00081 0.0
H1301 H 0.41315 0.16546 0.02469 0.0
H1302 H 0.50384 0.1899 0.00576 0.0
H1303 H 0.49363 0.22136 0.98113 0.0
H1304 H 0.42051 0.19144 0.96797 0.0
C1305 C 0.44792 0.11627 0.01564 0.0
C1306 C 0.4689 0.10654 0.02651 0.0
C1307 C 0.48991 0.12086 0.03123 0.0
C1308 C 0.49111 0.14313 0.02369 0.0
C1309 C 0.47091 0.15153 0.01176 0.0
C1310 C 0.44954 0.13867 0.00813 0.0
C1311 C 0.43028 0.15197 0.99522 0.0
C1312 C 0.42267 0.13971 0.97427 0.0
C1313 C 0.40741 0.15657 0.00956 0.0
C1314 C 0.44488 0.17355 0.99042 0.0
C1315 C 0.46817 0.17307 1.00059 0.0
C1316 C 0.4857 0.1904 0.99776 0.0
C1317 C 0.47971 0.20826 0.98377 0.0
C1318 C 0.45617 0.20904 0.97279 0.0
C1319 C 0.43837 0.19155 0.97651 0.0
H1320 H 0.17194 0.94647 0.39251 0.0
H1321 H 0.19528 0.96495 0.4597 0.0
H1322 H 0.15993 0.98426 0.46272 0.0
H1323 H 0.13945 1.00074 0.38395 0.0
H1324 H 0.11453 0.98701 0.36884 0.0
H1325 H 0.14637 0.97651 0.36749 0.0
H1326 H 0.13135 0.93636 0.38069 0.0
H1327 H 0.10023 0.94799 0.37877 0.0
H1328 H 0.11026 0.93537 0.40344 0.0
H1329 H 0.11929 1.00105 0.46389 0.0
H1330 H 0.07334 0.00554 0.46226 0.0
H1331 H 0.07232 0.97614 0.39776 0.0
C1332 C 0.17275 0.95421 0.40835 0.0
C1333 C 0.19447 0.95157 0.42428 0.0
C1334 C 0.18544 0.96385 0.44437 0.0
C1335 C 0.16379 0.97653 0.44717 0.0
C1336 C 0.14693 0.9782 0.43067 0.0
C1337 C 0.1505 0.96677 0.41182 0.0
C1338 C 0.12681 0.96864 0.39763 0.0
C1339 C 0.13211 0.98415 0.37833 0.0
C1340 C 0.11672 0.94571 0.38973 0.0
C1341 C 0.10871 0.97984 0.41335 0.0
C1342 C 0.12139 0.98645 0.43183 0.0
C1343 C 0.10909 0.99622 0.44935 0.0
C1344 C 0.08289 0.99858 0.44834 0.0
C1345 C 0.06911 0.99113 0.42995 0.0
C1346 C 0.08233 0.98205 0.41203 0.0
H1347 H 0.33866 0.97747 0.6022 0.0
H1348 H 0.37289 0.98323 0.66526 0.0
H1349 H 0.3953 0.94708 0.65915 0.0
H1350 H 0.34166 0.90956 0.59712 0.0
H1351 H 0.34508 0.9175 0.56895 0.0
H1352 H 0.32612 0.93405 0.58661 0.0
H1353 H 0.38687 0.96672 0.57696 0.0
H1354 H 0.35504 0.9624 0.56712 0.0
H1355 H 0.37949 0.94501 0.5576 0.0
H1356 H 0.42277 0.91642 0.64236 0.0
H1357 H 0.44755 0.89241 0.61714 0.0
H1358 H 0.39787 0.91042 0.56464 0.0
C1359 C 0.34928 0.97024 0.61538 0.0
C1360 C 0.35333 0.98277 0.6345 0.0
C1361 C 0.36864 0.97337 0.65096 0.0
C1362 C 0.38194 0.95327 0.64743 0.0
C1363 C 0.37967 0.9427 0.62742 0.0
C1364 C 0.36311 0.95057 0.61189 0.0
C1365 C 0.36665 0.93829 0.59074 0.0
C1366 C 0.34345 0.92384 0.58565 0.0
C1367 C 0.37253 0.95412 0.57203 0.0
C1368 C 0.38912 0.9241 0.59596 0.0
C1369 C 0.39603 0.92602 0.61744 0.0
C1370 C 0.41719 0.91482 0.62554 0.0
C1371 C 0.43138 0.90156 0.61114 0.0
C1372 C 0.42509 0.90078 0.58885 0.0
C1373 C 0.40346 0.91173 0.58143 0.0
H1374 H 0.29634 0.04384 0.88862 0.0
H1375 H 0.30714 0.01967 0.82295 0.0
H1376 H 0.26133 0.01237 0.81962 0.0
H1377 H 0.24635 0.00395 0.90296 0.0
H1378 H 0.22927 0.02431 0.91869 0.0
H1379 H 0.2631 0.0265 0.91647 0.0
H1380 H 0.25901 0.06717 0.90199 0.0
H1381 H 0.22527 0.06516 0.90453 0.0
H1382 H 0.23902 0.07243 0.87885 0.0
H1383 H 0.21376 0.00956 0.82277 0.0
H1384 H 0.16857 0.01425 0.83128 0.0
H1385 H 0.18911 0.03941 0.89509 0.0
C1386 C 0.28913 0.03701 0.87351 0.0
C1387 C 0.30546 0.03245 0.856 0.0
C1388 C 0.2951 0.02343 0.83658 0.0
C1389 C 0.26909 0.01906 0.83458 0.0
C1390 C 0.25358 0.02362 0.85218 0.0
C1391 C 0.26322 0.03246 0.87126 0.0
C1392 C 0.24238 0.03683 0.8874 0.0
C1393 C 0.24547 0.02201 0.90758 0.0
C1394 C 0.24137 0.06188 0.89354 0.0
C1395 C 0.21945 0.02972 0.87421 0.0
C1396 C 0.22629 0.02184 0.85404 0.0
C1397 C 0.20822 0.01553 0.8386 0.0
C1398 C 0.18255 0.01817 0.84361 0.0
C1399 C 0.17516 0.02717 0.86387 0.0
C1400 C 0.19398 0.03226 0.87953 0.0
H1401 H 0.18958 0.11093 0.0067 0.0
H1402 H 0.18491 0.06953 0.06451 0.0
H1403 H 0.193 0.10247 0.08703 0.0
H1404 H 0.23817 0.14912 0.02584 0.0
H1405 H 0.22405 0.17382 0.01424 0.0
H1406 H 0.21892 0.14674 1.00175 0.0
H1407 H 0.17058 0.15196 0.00447 0.0
H1408 H 0.17556 0.17913 0.01677 0.0
H1409 H 0.15677 0.15821 0.03038 0.0
H1410 H 0.20121 0.13914 0.10403 0.0
H1411 H 0.20578 0.17916 0.11448 0.0
H1412 H 0.20375 0.19835 0.04698 0.0
C1413 C 0.19018 0.10872 0.02406 0.0
C1414 C 0.18715 0.08714 0.03353 0.0
C1415 C 0.18792 0.08539 0.05647 0.0
C1416 C 0.19239 0.10416 0.0696 0.0
C1417 C 0.19574 0.12489 0.05978 0.0
C1418 C 0.19436 0.12748 0.0376 0.0
C1419 C 0.19753 0.1521 0.03153 0.0
C1420 C 0.22108 0.15564 0.01751 0.0
C1421 C 0.17369 0.16087 0.02011 0.0
C1422 C 0.20092 0.16273 0.0538 0.0
C1423 C 0.19996 0.14657 0.06979 0.0
C1424 C 0.20203 0.15199 0.0917 0.0
C1425 C 0.20466 0.17462 0.09751 0.0
C1426 C 0.20525 0.19149 0.08153 0.0
C1427 C 0.20365 0.18554 0.05938 0.0
H1428 H 0.58354 0.3413 0.02274 0.0
H1429 H 0.54531 0.35333 0.96188 0.0
H1430 H 0.55671 0.31554 0.94998 0.0
H1431 H 0.62489 0.29383 1.00152 0.0
H1432 H 0.62171 0.27727 0.02574 0.0
H1433 H 0.62112 0.30755 0.02735 0.0
H1434 H 0.57823 0.30626 0.04632 0.0
H1435 H 0.57978 0.27618 0.04571 0.0
H1436 H 0.55264 0.28997 0.03468 0.0
H1437 H 0.5612 0.27493 0.94671 0.0
H1438 H 0.55563 0.23455 0.95277 0.0
H1439 H 0.5811 0.24353 0.0192 0.0
C1440 C 0.57654 0.33578 0.0073 0.0
C1441 C 0.56433 0.35092 0.99297 0.0
C1442 C 0.55602 0.34282 0.97265 0.0
C1443 C 0.56106 0.32094 0.96609 0.0
C1444 C 0.5711 0.30611 0.98093 0.0
C1445 C 0.57834 0.31289 1.00138 0.0
C1446 C 0.58648 0.29251 0.01459 0.0
C1447 C 0.61529 0.29278 0.01746 0.0
C1448 C 0.57338 0.29119 0.0366 0.0
C1449 C 0.57839 0.27345 0.99951 0.0
C1450 C 0.57174 0.28192 0.97959 0.0
C1451 C 0.56462 0.26811 0.96246 0.0
C1452 C 0.56223 0.24509 0.96597 0.0
C1453 C 0.56761 0.23585 0.98648 0.0
C1454 C 0.57631 0.25021 1.00344 0.0
H1455 H 0.01375 0.4298 0.19904 0.0
H1456 H 0.04387 0.49529 0.18707 0.0
H1457 H 0.00123 0.5083 0.17742 0.0
H1458 H 0.93098 0.39867 0.14889 0.0
H1459 H 0.93413 0.38284 0.17084 0.0
H1460 H 0.95857 0.38683 0.15431 0.0
H1461 H 0.97835 0.42745 0.22267 0.0
H1462 H 0.94633 0.43765 0.22524 0.0
H1463 H 0.97112 0.45574 0.22291 0.0
H1464 H 0.95625 0.51684 0.17593 0.0
H1465 H 0.90991 0.51938 0.18093 0.0
H1466 H 0.90961 0.45243 0.20612 0.0
C1467 C 0.01158 0.44593 0.19193 0.0
C1468 C 0.03259 0.46077 0.19227 0.0
C1469 C 0.02862 0.48313 0.18586 0.0
C1470 C 0.00426 0.49062 0.18035 0.0
C1471 C 0.98377 0.47556 0.18103 0.0
C1472 C 0.98687 0.45291 0.18571 0.0
C1473 C 0.96032 0.43932 0.18982 0.0
C1474 C 0.94433 0.3975 0.16313 0.0
C1475 C 0.96405 0.43935 0.21625 0.0
C1476 C 0.9441 0.46238 0.18972 0.0
C1477 C 0.95736 0.48119 0.18307 0.0
C1478 C 0.94566 0.50222 0.1811 0.0
C1479 C 0.91944 0.50381 0.18461 0.0
C1480 C 0.90572 0.48509 0.19234 0.0
C1481 C 0.91933 0.46574 0.19783 0.0
H1482 H 0.82412 0.73777 0.48685 0.0
H1483 H 0.904 0.75157 0.48011 0.0
H1484 H 0.90641 0.72347 0.45054 0.0
H1485 H 0.82868 0.67786 0.47913 0.0
H1486 H 0.79896 0.67593 0.46457 0.0
H1487 H 0.80409 0.69799 0.4841 0.0
H1488 H 0.79262 0.72648 0.45415 0.0
H1489 H 0.78869 0.70407 0.43469 0.0
H1490 H 0.81041 0.72681 0.42937 0.0
H1491 H 0.89899 0.69628 0.41924 0.0
H1492 H 0.8852 0.66586 0.39449 0.0
H1493 H 0.81262 0.66354 0.42585 0.0
C1494 C 0.84199 0.73495 0.47892 0.0
C1495 C 0.86385 0.74714 0.48551 0.0
C1496 C 0.88706 0.74259 0.47518 0.0
C1497 C 0.88854 0.72672 0.4583 0.0
C1498 C 0.8667 0.71507 0.45204 0.0
C1499 C 0.84397 0.71861 0.46232 0.0
C1500 C 0.82386 0.70258 0.45339 0.0
C1501 C 0.81331 0.68767 0.47141 0.0
C1502 C 0.80264 0.71578 0.44224 0.0
C1503 C 0.83897 0.68903 0.43693 0.0
C1504 C 0.86335 0.69728 0.43586 0.0
C1505 C 0.88021 0.68919 0.42053 0.0
C1506 C 0.87244 0.6716 0.40665 0.0
C1507 C 0.84882 0.66072 0.40893 0.0
C1508 C 0.83144 0.67037 0.42397 0.0
H1509 H 0.90334 0.56333 0.40749 0.0
H1510 H 0.88546 0.61533 0.45207 0.0
H1511 H 0.90669 0.64274 0.42948 0.0
H1512 H 0.96122 0.5806 0.39459 0.0
H1513 H 0.96106 0.57448 0.36595 0.0
H1514 H 0.9409 0.55897 0.38378 0.0
H1515 H 0.9005 0.57114 0.36083 0.0
H1516 H 0.92285 0.584 0.34296 0.0
H1517 H 0.89759 0.60026 0.35401 0.0
H1518 H 0.92576 0.66618 0.39837 0.0
H1519 H 0.95097 0.68024 0.36775 0.0
H1520 H 0.96404 0.6125 0.34667 0.0
C1521 C 0.9008 0.5807 0.41095 0.0
C1522 C 0.88659 0.58744 0.42936 0.0
C1523 C 0.89078 0.60993 0.43625 0.0
C1524 C 0.90382 0.62576 0.4236 0.0
C1525 C 0.91402 0.61888 0.40403 0.0
C1526 C 0.9131 0.59667 0.39776 0.0
C1527 C 0.92825 0.59318 0.37707 0.0
C1528 C 0.94914 0.57581 0.38057 0.0
C1529 C 0.91128 0.5867 0.35768 0.0
C1530 C 0.93861 0.6167 0.37345 0.0
C1531 C 0.92905 0.63144 0.38852 0.0
C1532 C 0.93323 0.65449 0.38672 0.0
C1533 C 0.94847 0.66237 0.36986 0.0
C1534 C 0.96281 0.6473 0.35751 0.0
C1535 C 0.95554 0.62437 0.35753 0.0
H1536 H 0.74107 0.56673 0.86809 0.0
H1537 H 0.78824 0.50996 0.85114 0.0
H1538 H 0.75159 0.48496 0.85204 0.0
H1539 H 0.69444 0.53934 0.90097 0.0
H1540 H 0.66737 0.55261 0.88882 0.0
H1541 H 0.69749 0.5669 0.88917 0.0
H1542 H 0.69583 0.57123 0.84752 0.0
H1543 H 0.66543 0.55748 0.84715 0.0
H1544 H 0.69069 0.54672 0.8308 0.0
H1545 H 0.71224 0.46548 0.8566 0.0
H1546 H 0.66802 0.453 0.85345 0.0
H1547 H 0.64294 0.52169 0.86187 0.0
C1548 C 0.74347 0.54903 0.86462 0.0
C1549 C 0.76763 0.54008 0.86041 0.0
C1550 C 0.77007 0.51707 0.85504 0.0
C1551 C 0.74938 0.50265 0.85561 0.0
C1552 C 0.72605 0.51163 0.86057 0.0
C1553 C 0.72253 0.53436 0.8639 0.0
C1554 C 0.6945 0.53955 0.86549 0.0
C1555 C 0.68809 0.55023 0.88743 0.0
C1556 C 0.68612 0.55464 0.84662 0.0
C1557 C 0.68327 0.51603 0.86333 0.0
C1558 C 0.70212 0.50031 0.86099 0.0
C1559 C 0.69716 0.47753 0.85823 0.0
C1560 C 0.6721 0.47059 0.85659 0.0
C1561 C 0.65245 0.48639 0.85753 0.0
C1562 C 0.65786 0.50934 0.86154 0.0
H1563 H 0.50583 0.65346 0.75305 0.0
H1564 H 0.55175 0.60705 0.78974 0.0
H1565 H 0.58766 0.61454 0.76571 0.0
H1566 H 0.52774 0.64423 0.69944 0.0
H1567 H 0.52993 0.67364 0.69251 0.0
H1568 H 0.50814 0.66458 0.71285 0.0
H1569 H 0.52895 0.69352 0.73902 0.0
H1570 H 0.55132 0.70149 0.71849 0.0
H1571 H 0.56233 0.69191 0.74451 0.0
H1572 H 0.61525 0.62041 0.73506 0.0
H1573 H 0.64043 0.63435 0.70487 0.0
H1574 H 0.58089 0.68085 0.68755 0.0
C1575 C 0.52339 0.64463 0.75556 0.0
C1576 C 0.52587 0.62882 0.77263 0.0
C1577 C 0.54939 0.61853 0.77632 0.0
C1578 C 0.56974 0.62248 0.76261 0.0
C1579 C 0.56642 0.63687 0.74516 0.0
C1580 C 0.5444 0.64867 0.74201 0.0
C1581 C 0.54769 0.66516 0.72327 0.0
C1582 C 0.52716 0.66162 0.70596 0.0
C1583 C 0.54756 0.68946 0.73183 0.0
C1584 C 0.57399 0.65886 0.71508 0.0
C1585 C 0.58419 0.64262 0.7284 0.0
C1586 C 0.6078 0.63348 0.72477 0.0
C1587 C 0.62201 0.64158 0.70754 0.0
C1588 C 0.61296 0.65885 0.69387 0.0
C1589 C 0.58831 0.6675 0.69753 0.0
H1590 H 0.60709 0.39738 0.97175 0.0
H1591 H 0.68506 0.40074 0.95224 0.0
H1592 H 0.6718 0.40957 0.9153 0.0
H1593 H 0.59387 0.36908 0.93899 0.0
H1594 H 0.57339 0.3717 0.91692 0.0
H1595 H 0.5626 0.37905 0.94342 0.0
H1596 H 0.56886 0.41871 0.95812 0.0
H1597 H 0.54913 0.41805 0.93434 0.0
H1598 H 0.57377 0.43872 0.93674 0.0
H1599 H 0.65736 0.40476 0.88165 0.0
H1600 H 0.63744 0.40365 0.84206 0.0
H1601 H 0.56273 0.41067 0.87322 0.0
C1602 C 0.62126 0.40134 0.95992 0.0
C1603 C 0.64711 0.39835 0.96499 0.0
C1604 C 0.66512 0.4026 0.94878 0.0
C1605 C 0.65755 0.40767 0.92761 0.0
C1606 C 0.63174 0.40874 0.92266 0.0
C1607 C 0.61376 0.407 0.93863 0.0
C1608 C 0.58707 0.40485 0.92938 0.0
C1609 C 0.57874 0.38 0.93232 0.0
C1610 C 0.56868 0.42109 0.94033 0.0
C1611 C 0.58967 0.4102 0.90533 0.0
C1612 C 0.61995 0.40875 0.90129 0.0
C1613 C 0.6371 0.40587 0.88014 0.0
C1614 C 0.62557 0.40474 0.85642 0.0
C1615 C 0.5675 0.40947 0.86158 0.0
C1616 C 0.56454 0.41121 0.88914 0.0
H1617 H 0.96451 0.45333 0.09021 0.0
H1618 H 0.03783 0.42504 0.1035 0.0
H1619 H 0.0242 0.41525 0.14067 0.0
H1620 H 0.95846 0.47877 0.14045 0.0
H1621 H 0.92432 0.4758 0.14171 0.0
H1622 H 0.94071 0.47741 0.11611 0.0
H1623 H 0.92126 0.44293 0.10205 0.0
H1624 H 0.90405 0.43789 0.12652 0.0
H1625 H 0.92499 0.41675 0.11599 0.0
H1626 H 0.99994 0.39837 0.17894 0.0
H1627 H 0.96415 0.38939 0.21094 0.0
H1628 H 0.90275 0.43437 0.16969 0.0
C1629 C 0.97751 0.44497 0.10103 0.0
C1630 C 0.00208 0.43984 0.09408 0.0
C1631 C 0.01897 0.42931 0.10863 0.0
C1632 C 0.01132 0.42357 0.12969 0.0
C1633 C 0.98688 0.42882 0.13613 0.0
C1634 C 0.96994 0.43957 0.1221 0.0
C1635 C 0.9441 0.44537 0.13173 0.0
C1636 C 0.9416 0.47088 0.13282 0.0
C1637 C 0.92234 0.43507 0.11832 0.0
C1638 C 0.94561 0.43528 0.154 0.0
C1639 C 0.97481 0.42441 0.15667 0.0
C1640 C 0.98256 0.40728 0.17868 0.0
C1641 C 0.95962 0.40072 0.19783 0.0
C1642 C 0.92895 0.41197 0.19521 0.0
C1643 C 0.92179 0.4287 0.17259 0.0
H1644 H 0.00961 0.61694 0.33258 0.0
H1645 H 0.00335 0.54687 0.35003 0.0
H1646 H 0.99029 0.5378 0.3125 0.0
H1647 H 0.95901 0.6184 0.29136 0.0
H1648 H 0.97646 0.63659 0.27349 0.0
H1649 H 0.98145 0.63834 0.30235 0.0
H1650 H 0.02914 0.63186 0.29702 0.0
H1651 H 0.02449 0.62997 0.26817 0.0
H1652 H 0.03953 0.6073 0.28248 0.0
H1653 H 0.98194 0.53558 0.27253 0.0
H1654 H 0.97946 0.53981 0.23306 0.0
H1655 H 0.99496 0.61121 0.23948 0.0
C1656 C 0.00561 0.59974 0.32866 0.0
C1657 C 0.00786 0.58267 0.34461 0.0
C1658 C 0.00202 0.5603 0.33832 0.0
C1659 C 0.99441 0.55503 0.317 0.0
C1660 C 0.99339 0.57216 0.30162 0.0
C1661 C 0.999 0.5941 0.30711 0.0
C1662 C 0.99858 0.609 0.287 0.0
C1663 C 0.97762 0.62663 0.28865 0.0
C1664 C 0.02448 0.62019 0.28346 0.0
C1665 C 0.9926 0.59187 0.26923 0.0
C1666 C 0.98923 0.57081 0.27824 0.0
C1667 C 0.98438 0.55201 0.26538 0.0
C1668 C 0.98323 0.5546 0.24282 0.0
C1669 C 0.98723 0.57579 0.23285 0.0
C1670 C 0.99155 0.59481 0.24644 0.0
H1671 H 0.77538 0.59156 0.62923 0.0
H1672 H 0.74622 0.53685 0.58907 0.0
H1673 H 0.70379 0.54941 0.59473 0.0
H1674 H 0.71853 0.58419 0.66769 0.0
H1675 H 0.71788 0.61367 0.67447 0.0
H1676 H 0.74737 0.60042 0.66784 0.0
H1677 H 0.75401 0.63093 0.64025 0.0
H1678 H 0.72318 0.64338 0.64259 0.0
H1679 H 0.73396 0.63236 0.61688 0.0
H1680 H 0.66519 0.57052 0.5983 0.0
H1681 H 0.62927 0.59328 0.60772 0.0
H1682 H 0.67485 0.62714 0.65628 0.0
C1683 C 0.76006 0.58243 0.62146 0.0
C1684 C 0.76511 0.56386 0.60737 0.0
C1685 C 0.74395 0.5518 0.59888 0.0
C1686 C 0.71924 0.55886 0.60189 0.0
C1687 C 0.71498 0.57778 0.61433 0.0
C1688 C 0.73432 0.58861 0.6253 0.0
C1689 C 0.72273 0.60672 0.63997 0.0
C1690 C 0.72688 0.6009 0.66392 0.0
C1691 C 0.73407 0.62979 0.63465 0.0
C1692 C 0.69441 0.6052 0.63392 0.0
C1693 C 0.69107 0.58856 0.61872 0.0
C1694 C 0.66768 0.58421 0.60939 0.0
C1695 C 0.64698 0.59722 0.61523 0.0
C1696 C 0.64829 0.61252 0.63264 0.0
C1697 C 0.67274 0.61638 0.64232 0.0
H1698 H 0.86731 0.33073 0.98617 0.0
H1699 H 0.85188 0.34855 0.05288 0.0
H1700 H 0.84816 0.30815 0.06203 0.0
H1701 H 0.82428 0.28245 0.98384 0.0
H1702 H 0.84482 0.26651 0.96655 0.0
H1703 H 0.8449 0.29675 0.96522 0.0
H1704 H 0.8932 0.29732 0.97263 0.0
H1705 H 0.89325 0.26712 0.97407 0.0
H1706 H 0.90543 0.28357 0.99641 0.0
H1707 H 0.84801 0.2652 0.06395 0.0
H1708 H 0.85131 0.22406 0.05842 0.0
H1709 H 0.86688 0.23497 0.99044 0.0
C1710 C 0.86315 0.32619 1.00272 0.0
C1711 C 0.85998 0.34287 0.01885 0.0
C1712 C 0.85415 0.33612 0.04023 0.0
C1713 C 0.85212 0.31319 0.04557 0.0
C1714 C 0.85568 0.2972 0.0293 0.0
C1715 C 0.86089 0.30346 0.00827 0.0
C1716 C 0.86412 0.28311 0.99377 0.0
C1717 C 0.84329 0.28216 0.97631 0.0
C1718 C 0.89057 0.28277 0.98363 0.0
C1719 C 0.86082 0.26437 0.01004 0.0
C1720 C 0.85563 0.27276 0.03041 0.0
C1721 C 0.85193 0.2585 0.04802 0.0
C1722 C 0.85374 0.23515 0.04473 0.0
C1723 C 0.85945 0.22626 0.02404 0.0
C1724 C 0.86282 0.2412 0.00652 0.0
H1725 H 0.61231 0.7388 0.51569 0.0
H1726 H 0.54145 0.73061 0.48217 0.0
H1727 H 0.54538 0.68911 0.48485 0.0
H1728 H 0.65136 0.70503 0.51 0.0
H1729 H 0.6415 0.67761 0.5006 0.0
H1730 H 0.65581 0.68108 0.52693 0.0
H1731 H 0.6335 0.71991 0.5447 0.0
H1732 H 0.62644 0.69515 0.55952 0.0
H1733 H 0.60145 0.71357 0.55118 0.0
H1734 H 0.55513 0.6471 0.49749 0.0
H1735 H 0.56181 0.61571 0.52345 0.0
H1736 H 0.61589 0.65664 0.55767 0.0
C1737 C 0.59852 0.72814 0.5076 0.0
C1738 C 0.57693 0.73798 0.49838 0.0
C1739 C 0.55861 0.72355 0.48876 0.0
C1740 C 0.56076 0.6998 0.49031 0.0
C1741 C 0.58153 0.69057 0.5013 0.0
C1742 C 0.60016 0.70466 0.50958 0.0
C1743 C 0.61692 0.69238 0.52536 0.0
C1744 C 0.64289 0.68874 0.51506 0.0
C1745 C 0.61964 0.70594 0.54648 0.0
C1746 C 0.6027 0.67003 0.5275 0.0
C1747 C 0.58427 0.66823 0.51166 0.0
C1748 C 0.56974 0.64845 0.50974 0.0
C1749 C 0.57363 0.63057 0.52463 0.0
C1750 C 0.59056 0.63299 0.54237 0.0
C1751 C 0.6049 0.65323 0.54356 0.0
H1752 H 0.96324 0.09838 0.16225 0.0
H1753 H 0.92151 0.03551 0.16388 0.0
H1754 H 0.88546 0.05364 0.14574 0.0
H1755 H 0.9043 0.13657 0.16558 0.0
H1756 H 0.91891 0.15652 0.14761 0.0
H1757 H 0.93802 0.14071 0.16635 0.0
H1758 H 0.96522 0.12658 0.1344 0.0
H1759 H 0.94618 0.14202 0.11561 0.0
H1760 H 0.95008 0.11215 0.11205 0.0
H1761 H 0.8584 0.07565 0.12039 0.0
H1762 H 0.84339 0.09915 0.0902 0.0
H1763 H 0.90283 0.14769 0.10401 0.0
C1764 C 0.94616 0.08868 0.15948 0.0
C1765 C 0.94519 0.06559 0.16453 0.0
C1766 C 0.9227 0.05327 0.16022 0.0
C1767 C 0.90202 0.06346 0.15001 0.0
C1768 C 0.90409 0.08598 0.14412 0.0
C1769 C 0.92549 0.09854 0.14898 0.0
C1770 C 0.92444 0.1214 0.13833 0.0
C1771 C 0.92123 0.1399 0.15549 0.0
C1772 C 0.94785 0.12576 0.12425 0.0
C1773 C 0.90066 0.11878 0.1248 0.0
C1774 C 0.88854 0.09867 0.12912 0.0
C1775 C 0.86743 0.09166 0.11722 0.0
C1776 C 0.85901 0.10516 0.10007 0.0
C1777 C 0.87185 0.12537 0.09477 0.0
C1778 C 0.89244 0.13249 0.10779 0.0
H1779 H 0.16157 0.75784 0.47274 0.0
H1780 H 0.10309 0.78558 0.51283 0.0
H1781 H 0.07436 0.7544 0.50209 0.0
H1782 H 0.12525 0.74913 0.43045 0.0
H1783 H 0.13939 0.72369 0.42061 0.0
H1784 H 0.15766 0.74279 0.4369 0.0
H1785 H 0.16704 0.71067 0.46407 0.0
H1786 H 0.14867 0.69147 0.44758 0.0
H1787 H 0.14124 0.69511 0.47581 0.0
H1788 H 0.04977 0.72631 0.48118 0.0
H1789 H 0.03044 0.70569 0.45056 0.0
H1790 H 0.10397 0.6977 0.42152 0.0
C1791 C 0.14323 0.75634 0.48022 0.0
C1792 C 0.13465 0.77337 0.49422 0.0
C1793 C 0.11008 0.7721 0.50275 0.0
C1794 C 0.09374 0.75449 0.49667 0.0
C1795 C 0.10232 0.73844 0.48193 0.0
C1796 C 0.12662 0.73915 0.47388 0.0
C1797 C 0.12966 0.72304 0.45502 0.0
C1798 C 0.13852 0.73543 0.43455 0.0
C1799 C 0.14773 0.70393 0.46099 0.0
C1800 C 0.10285 0.71441 0.4526 0.0
C1801 C 0.08762 0.72281 0.46883 0.0
C1802 C 0.06161 0.71925 0.46871 0.0
C1803 C 0.05077 0.70764 0.4512 0.0
C1804 C 0.06581 0.7001 0.43379 0.0
C1805 C 0.09225 0.70274 0.43495 0.0
H1806 H 0.48013 0.96007 0.5529 0.0
H1807 H 0.46366 0.94418 0.61962 0.0
H1808 H 0.49319 0.91187 0.61788 0.0
H1809 H 0.51436 0.91462 0.5145 0.0
H1810 H 0.49129 0.93525 0.5223 0.0
H1811 H 0.48784 0.90624 0.53015 0.0
H1812 H 0.52816 0.95913 0.53921 0.0
H1813 H 0.55016 0.9376 0.53149 0.0
H1814 H 0.54812 0.94645 0.55935 0.0
H1815 H 0.52399 0.88006 0.60745 0.0
H1816 H 0.55052 0.85159 0.58893 0.0
H1817 H 0.54675 0.89038 0.52986 0.0
C1818 C 0.48232 0.94946 0.56698 0.0
C1819 C 0.46873 0.95367 0.58605 0.0
C1820 C 0.47312 0.94037 0.60457 0.0
C1821 C 0.49013 0.9223 0.6038 0.0
C1822 C 0.50319 0.91844 0.58461 0.0
C1823 C 0.49965 0.93191 0.56666 0.0
C1824 C 0.51662 0.92506 0.54829 0.0
C1825 C 0.50155 0.92004 0.52759 0.0
C1826 C 0.53697 0.94313 0.54435 0.0
C1827 C 0.52808 0.90412 0.55766 0.0
C1828 C 0.52111 0.90097 0.57897 0.0
C1829 C 0.52951 0.88244 0.59077 0.0
C1830 C 0.54444 0.86633 0.58016 0.0
C1831 C 0.54998 0.86865 0.55792 0.0
C1832 C 0.54232 0.88809 0.54682 0.0
H1833 H 0.50252 0.34518 0.92976 0.0
H1834 H 0.52502 0.27601 0.92756 0.0
H1835 H 0.55632 0.28515 0.89857 0.0
H1836 H 0.48364 0.34329 0.88981 0.0
H1837 H 0.50095 0.32769 0.87011 0.0
H1838 H 0.4933 0.35616 0.86497 0.0
H1839 H 0.5033 0.37704 0.90831 0.0
H1840 H 0.51837 0.38888 0.88494 0.0
H1841 H 0.53596 0.38116 0.90873 0.0
H1842 H 0.59164 0.31064 0.87161 0.0
H1843 H 0.60903 0.33896 0.84605 0.0
H1844 H 0.53943 0.37601 0.85389 0.0
C1845 C 0.51486 0.33214 0.92385 0.0
C1846 C 0.51369 0.31059 0.93255 0.0
C1847 C 0.52782 0.29327 0.92261 0.0
C1848 C 0.54543 0.29835 0.90602 0.0
C1849 C 0.54665 0.32042 0.89817 0.0
C1850 C 0.52955 0.33599 0.90573 0.0
C1851 C 0.52328 0.35254 0.88862 0.0
C1852 C 0.49883 0.34453 0.87769 0.0
C1853 C 0.52028 0.37632 0.89801 0.0
C1854 C 0.54513 0.34903 0.87345 0.0
C1855 C 0.55834 0.33003 0.87852 0.0
C1856 C 0.58056 0.32515 0.86723 0.0
C1857 C 0.58998 0.34106 0.85188 0.0
C1858 C 0.57701 0.36146 0.84715 0.0
C1859 C 0.5521 0.3625 0.85617 0.0
H1860 H 0.96511 0.93534 0.44241 0.0
H1861 H 0.90018 0.97827 0.4329 0.0
H1862 H 0.87182 0.94653 0.44123 0.0
H1863 H 0.93401 0.88222 0.42068 0.0
H1864 H 0.95137 0.86597 0.44022 0.0
H1865 H 0.96455 0.89182 0.42961 0.0
H1866 H 0.96877 0.90736 0.47083 0.0
H1867 H 0.95724 0.88011 0.47864 0.0
H1868 H 0.94152 0.90522 0.48756 0.0
H1869 H 0.85092 0.91175 0.45611 0.0
H1870 H 0.83956 0.87676 0.47522 0.0
H1871 H 0.91786 0.856 0.47348 0.0
C1872 C 0.94491 0.93788 0.44143 0.0
C1873 C 0.93495 0.95925 0.43669 0.0
C1874 C 0.90836 0.96198 0.43607 0.0
C1875 C 0.89202 0.94402 0.44079 0.0
C1876 C 0.90246 0.92323 0.44569 0.0
C1877 C 0.92828 0.92005 0.44588 0.0
C1878 C 0.93476 0.89662 0.45337 0.0
C1879 C 0.94694 0.88333 0.4349 0.0
C1880 C 0.95156 0.89732 0.47379 0.0
C1881 C 0.9088 0.88745 0.45839 0.0
C1882 C 0.8903 0.90293 0.45362 0.0
C1883 C 0.86516 0.8992 0.45921 0.0
C1884 C 0.8589 0.87927 0.47012 0.0
C1885 C 0.87772 0.86336 0.47546 0.0
C1886 C 0.90287 0.86741 0.46906 0.0
H1887 H 0.44801 0.73495 0.52095 0.0
H1888 H 0.52128 0.76633 0.5261 0.0
H1889 H 0.54074 0.72935 0.53302 0.0
H1890 H 0.45107 0.69338 0.56333 0.0
H1891 H 0.43575 0.67307 0.54668 0.0
H1892 H 0.4312 0.70239 0.54113 0.0
H1893 H 0.44482 0.68797 0.5017 0.0
H1894 H 0.45401 0.66082 0.51192 0.0
H1895 H 0.47661 0.67819 0.49806 0.0
H1896 H 0.55267 0.69167 0.53812 0.0
H1897 H 0.5563 0.65792 0.56015 0.0
H1898 H 0.47537 0.65141 0.56221 0.0
C1899 C 0.46829 0.73361 0.52251 0.0
C1900 C 0.48388 0.75319 0.52169 0.0
C1901 C 0.50989 0.75128 0.52537 0.0
C1902 C 0.5209 0.73045 0.52906 0.0
C1903 C 0.50561 0.71138 0.52889 0.0
C1904 C 0.47969 0.71259 0.52675 0.0
C1905 C 0.46802 0.68937 0.53118 0.0
C1906 C 0.44524 0.68977 0.54648 0.0
C1907 C 0.46041 0.67845 0.50944 0.0
C1908 C 0.49078 0.67711 0.54077 0.0
C1909 C 0.51235 0.68919 0.536 0.0
C1910 C 0.53609 0.68173 0.54158 0.0
C1911 C 0.538 0.66272 0.55442 0.0
C1912 C 0.51658 0.65274 0.56368 0.0
C1913 C 0.49231 0.65897 0.55569 0.0
H1914 H 0.42769 0.07464 0.87949 0.0
H1915 H 0.47168 0.06842 0.82102 0.0
H1916 H 0.50435 0.09405 0.83668 0.0
H1917 H 0.43917 0.1302 0.89552 0.0
H1918 H 0.44328 0.12305 0.92345 0.0
H1919 H 0.42369 0.10571 0.90598 0.0
H1920 H 0.48727 0.07314 0.91129 0.0
H1921 H 0.45435 0.06913 0.91494 0.0
H1922 H 0.47242 0.08782 0.93281 0.0
H1923 H 0.53448 0.11929 0.86246 0.0
H1924 H 0.55487 0.14082 0.89272 0.0
H1925 H 0.48851 0.12999 0.93187 0.0
C1926 C 0.44366 0.07931 0.86956 0.0
C1927 C 0.44656 0.07018 0.84872 0.0
C1928 C 0.46872 0.07563 0.83691 0.0
C1929 C 0.48745 0.09016 0.84571 0.0
C1930 C 0.48395 0.09886 0.86651 0.0
C1931 C 0.46259 0.09333 0.87812 0.0
C1932 C 0.46445 0.10188 0.9009 0.0
C1933 C 0.44125 0.11592 0.90692 0.0
C1934 C 0.46963 0.08189 0.91599 0.0
C1935 C 0.48785 0.11611 0.89977 0.0
C1936 C 0.50014 0.11318 0.88035 0.0
C1937 C 0.52443 0.12206 0.87742 0.0
C1938 C 0.53592 0.13425 0.89468 0.0
C1939 C 0.52284 0.13788 0.91435 0.0
C1940 C 0.49855 0.12857 0.9167 0.0
H1941 H 0.15606 0.30992 0.11301 0.0
H1942 H 0.19737 0.37147 0.10088 0.0
H1943 H 0.1636 0.3932 0.11917 0.0
H1944 H 0.09001 0.33471 0.10955 0.0
H1945 H 0.08064 0.31467 0.12986 0.0
H1946 H 0.10526 0.30794 0.11082 0.0
H1947 H 0.13334 0.29878 0.14544 0.0
H1948 H 0.109 0.30821 0.16331 0.0
H1949 H 0.13987 0.32115 0.16447 0.0
H1950 H 0.12764 0.40688 0.14266 0.0
H1951 H 0.09492 0.41131 0.17076 0.0
H1952 H 0.07972 0.3399 0.16917 0.0
C1953 C 0.15759 0.32806 0.11374 0.0
C1954 C 0.17893 0.33919 0.10553 0.0
C1955 C 0.18072 0.36285 0.10676 0.0
C1956 C 0.16172 0.3752 0.11714 0.0
C1957 C 0.14121 0.36346 0.12582 0.0
C1958 C 0.13909 0.3404 0.12406 0.0
C1959 C 0.11689 0.33126 0.13646 0.0
C1960 C 0.09699 0.32153 0.12078 0.0
C1961 C 0.12529 0.31384 0.15343 0.0
C1962 C 0.10759 0.35254 0.14682 0.0
C1963 C 0.12124 0.37109 0.13988 0.0
C1964 C 0.11659 0.39254 0.14785 0.0
C1965 C 0.09793 0.39492 0.16362 0.0
C1966 C 0.08467 0.37593 0.17158 0.0
C1967 C 0.08922 0.3546 0.16282 0.0
H1968 H 0.17948 0.94847 0.0391 0.0
H1969 H 0.15792 0.90673 0.98455 0.0
H1970 H 0.13153 0.88306 0.0089 0.0
H1971 H 0.18253 0.90458 0.07949 0.0
H1972 H 0.16957 0.92185 0.10066 0.0
H1973 H 0.18732 0.93461 0.07911 0.0
H1974 H 0.14955 0.96064 0.06979 0.0
H1975 H 0.13247 0.94827 0.09197 0.0
H1976 H 0.11905 0.94794 0.06521 0.0
H1977 H 0.10715 0.86436 0.03981 0.0
H1978 H 0.08527 0.8534 0.07344 0.0
H1979 H 0.12144 0.90894 0.10741 0.0
C1980 C 0.16929 0.93421 0.0324 0.0
C1981 C 0.17081 0.92915 0.01005 0.0
C1982 C 0.15713 0.9106 1.00166 0.0
C1983 C 0.14214 0.89718 0.01539 0.0
C1984 C 0.14095 0.9027 0.03741 0.0
C1985 C 0.15412 0.92088 0.0458 0.0
C1986 C 0.14917 0.92378 0.06982 0.0
C1987 C 0.17361 0.92103 0.08305 0.0
C1988 C 0.13687 0.94655 0.07449 0.0
C1989 C 0.13091 0.90451 0.07373 0.0
C1990 C 0.12661 0.89237 0.05491 0.0
C1991 C 0.11048 0.87374 0.05461 0.0
C1992 C 0.09825 0.86754 0.07388 0.0
C1993 C 0.10183 0.88009 0.09324 0.0
C1994 C 0.11846 0.89881 0.09301 0.0
H1995 H 0.36759 0.90958 0.47108 0.0
H1996 H 0.28862 0.92194 0.48415 0.0
H1997 H 0.29408 0.90574 0.52088 0.0
H1998 H 0.39582 0.87828 0.48301 0.0
H1999 H 0.37268 0.85913 0.49344 0.0
H2000 H 0.40323 0.86187 0.50659 0.0
H2001 H 0.40189 0.91638 0.50153 0.0
H2002 H 0.41432 0.90055 0.52364 0.0
H2003 H 0.3897 0.9208 0.52819 0.0
H2004 H 0.30851 0.88599 0.55614 0.0
H2005 H 0.32867 0.86361 0.58481 0.0
H2006 H 0.39722 0.86073 0.54697 0.0
C2007 C 0.35143 0.90928 0.48172 0.0
C2008 C 0.32765 0.91728 0.47454 0.0
C2009 C 0.30709 0.91614 0.48913 0.0
C2010 C 0.31006 0.90695 0.51012 0.0
C2011 C 0.3337 0.89871 0.51639 0.0
C2012 C 0.35396 0.89992 0.50254 0.0
C2013 C 0.37721 0.88944 0.51269 0.0
C2014 C 0.38791 0.87102 0.49809 0.0
C2015 C 0.39696 0.90788 0.51688 0.0
C2016 C 0.36653 0.88012 0.53378 0.0
C2017 C 0.34162 0.88655 0.53596 0.0
C2018 C 0.32792 0.88079 0.55438 0.0
C2019 C 0.33975 0.86802 0.57076 0.0
C2020 C 0.36476 0.85976 0.56847 0.0
C2021 C 0.37826 0.86632 0.54959 0.0
H2022 H 0.31401 0.13705 0.67355 0.0
H2023 H 0.27706 0.09379 0.7198 0.0
H2024 H 0.29023 0.11941 0.74963 0.0
H2025 H 0.36704 0.14737 0.7039 0.0
H2026 H 0.37156 0.17629 0.6962 0.0
H2027 H 0.35533 0.15723 0.67819 0.0
H2028 H 0.3166 0.18354 0.67717 0.0
H2029 H 0.33283 0.2029 0.69504 0.0
H2030 H 0.3021 0.19214 0.70216 0.0
H2031 H 0.3133 0.14523 0.77422 0.0
H2032 H 0.34293 0.17158 0.79249 0.0
H2033 H 0.36408 0.19925 0.73039 0.0
C2034 C 0.30784 0.1337 0.68992 0.0
C2035 C 0.29398 0.11402 0.69466 0.0
C2036 C 0.28707 0.10922 0.71613 0.0
C2037 C 0.29455 0.12359 0.73302 0.0
C2038 C 0.30882 0.14262 0.72797 0.0
C2039 C 0.31519 0.14789 0.7069 0.0
C2040 C 0.33288 0.168 0.70608 0.0
C2041 C 0.35818 0.16184 0.69548 0.0
C2042 C 0.32034 0.18782 0.69442 0.0
C2043 C 0.33607 0.17273 0.73003 0.0
C2044 C 0.32194 0.15795 0.74234 0.0
C2045 C 0.32385 0.15736 0.76484 0.0
C2046 C 0.34068 0.17225 0.77505 0.0
C2047 C 0.355 0.18757 0.76274 0.0
C2048 C 0.35253 0.18807 0.74004 0.0
H2049 H 0.06485 0.05662 0.9298 0.0
H2050 H 0.04354 0.09042 0.87052 0.0
H2051 H 0.01805 0.11731 0.89163 0.0
H2052 H 0.00133 0.06691 0.95783 0.0
H2053 H 0.01694 0.06971 0.98371 0.0
H2054 H 0.02931 0.05087 0.96351 0.0
H2055 H 0.07261 0.07111 0.9662 0.0
H2056 H 0.06047 0.09022 0.98605 0.0
H2057 H 0.07444 0.10098 0.96161 0.0
H2058 H 1.00052 0.1442 0.92023 0.0
H2059 H 0.99224 0.16728 0.95288 0.0
H2060 H 0.0249 0.11546 0.9931 0.0
C2061 C 0.054 0.06914 0.92119 0.0
C2062 C 0.05611 0.07132 0.8985 0.0
C2063 C 0.04196 0.08817 0.88784 0.0
C2064 C 0.02746 0.10359 0.89975 0.0
C2065 C 0.02662 0.10153 0.92226 0.0
C2066 C 0.03904 0.08431 0.93278 0.0
C2067 C 0.03657 0.0865 0.95713 0.0
C2068 C 0.02006 0.06736 0.96607 0.0
C2069 C 0.06256 0.08727 0.96838 0.0
C2070 C 0.02301 0.10875 0.9588 0.0
C2071 C 0.01658 0.11684 0.93856 0.0
C2072 C 0.00497 0.13771 0.93614 0.0
C2073 C 1.00022 0.15069 0.95479 0.0
C2074 C 0.00762 0.14301 0.97556 0.0
C2075 C 0.01873 0.1216 0.97747 0.0
H2076 H 0.2484 0.19888 0.36052 0.0
H2077 H 0.29534 0.16772 0.31206 0.0
H2078 H 0.27761 0.19319 0.28406 0.0
H2079 H 0.19392 0.20732 0.32946 0.0
H2080 H 0.18696 0.23462 0.34052 0.0
H2081 H 0.20435 0.21467 0.35643 0.0
H2082 H 0.24049 0.24395 0.36141 0.0
H2083 H 0.22311 0.2639 0.34536 0.0
H2084 H 0.25478 0.25641 0.33787 0.0
H2085 H 0.25228 0.22104 0.26111 0.0
H2086 H 0.22212 0.24803 0.24538 0.0
H2087 H 0.19263 0.26163 0.30944 0.0
C2088 C 0.25506 0.19767 0.34402 0.0
C2089 C 0.27321 0.18146 0.33832 0.0
C2090 C 0.28163 0.18024 0.31666 0.0
C2091 C 0.27163 0.19461 0.30073 0.0
C2092 C 0.25364 0.21045 0.30686 0.0
C2093 C 0.24571 0.2122 0.32809 0.0
C2094 C 0.22623 0.23055 0.33057 0.0
C2095 C 0.2014 0.22121 0.33978 0.0
C2096 C 0.23678 0.24984 0.34464 0.0
C2097 C 0.22315 0.23795 0.30726 0.0
C2098 C 0.23949 0.22652 0.29385 0.0
C2099 C 0.23966 0.23025 0.27156 0.0
C2100 C 0.22248 0.24575 0.26277 0.0
C2101 C 0.20503 0.25722 0.27614 0.0
C2102 C 0.20578 0.25337 0.29874 0.0
H2103 H 0.05144 0.96872 0.53165 0.0
H2104 H 0.08308 0.91276 0.56723 0.0
H2105 H 0.06139 0.88636 0.54182 0.0
H2106 H 0.98966 0.93723 0.51373 0.0
H2107 H 0.99033 0.95311 0.48893 0.0
H2108 H 0.00182 0.96549 0.51384 0.0
H2109 H 0.04172 0.97501 0.49302 0.0
H2110 H 0.03346 0.95929 0.46911 0.0
H2111 H 0.06194 0.95304 0.48401 0.0
H2112 H 0.03753 0.86639 0.51115 0.0
H2113 H 0.02193 0.85453 0.47523 0.0
H2114 H 0.0134 0.92414 0.45656 0.0
C2115 C 0.05332 0.95089 0.53462 0.0
C2116 C 0.06895 0.94279 0.55164 0.0
C2117 C 0.07118 0.91934 0.55447 0.0
C2118 C 0.0587 0.90429 0.54021 0.0
C2119 C 0.04418 0.91296 0.52318 0.0
C2120 C 0.04137 0.93579 0.52042 0.0
C2121 C 0.02737 0.94103 0.49946 0.0
C2122 C 1.00071 0.94972 0.50427 0.0
C2123 C 0.04199 0.95803 0.48552 0.0
C2124 C 0.02578 0.91774 0.48945 0.0
C2125 C 0.03361 0.90169 0.50416 0.0
C2126 C 0.03186 0.87885 0.49941 0.0
C2127 C 0.02309 0.87226 0.47882 0.0
C2128 C 0.01757 0.8884 0.46271 0.0
C2129 C 0.01818 0.91144 0.46839 0.0
H2130 H 0.40896 0.97142 0.93 0.0
H2131 H 0.43906 0.94033 0.98755 0.0
H2132 H 0.44887 0.90614 0.96646 0.0
H2133 H 0.38699 0.91794 0.90109 0.0
H2134 H 0.39722 0.92849 0.87524 0.0
H2135 H 0.3858 0.94765 0.89557 0.0
H2136 H 0.42676 0.97007 0.89195 0.0
H2137 H 0.4394 0.95089 0.87272 0.0
H2138 H 0.45686 0.95683 0.89721 0.0
H2139 H 0.46285 0.87893 0.93857 0.0
H2140 H 0.48192 0.86185 0.90634 0.0
H2141 H 0.44652 0.91205 0.86577 0.0
C2142 C 0.41708 0.95726 0.93809 0.0
C2143 C 0.42329 0.9585 0.96029 0.0
C2144 C 0.43403 0.93959 0.97054 0.0
C2145 C 0.43951 0.9201 0.9587 0.0
C2146 C 0.43459 0.91995 0.93649 0.0
C2147 C 0.42362 0.93807 0.92622 0.0
C2148 C 0.42381 0.93499 0.90179 0.0
C2149 C 0.39684 0.93208 0.8929 0.0
C2150 C 0.4376 0.95435 0.89032 0.0
C2151 C 0.4384 0.91333 0.89995 0.0
C2152 C 0.44352 0.90444 0.92015 0.0
C2153 C 0.4585 0.88549 0.92267 0.0
C2154 C 0.46924 0.87588 0.90419 0.0
C2155 C 0.46559 0.88565 0.8835 0.0
C2156 C 0.44933 0.90414 0.88135 0.0
H2157 H 0.34805 0.12091 0.17065 0.0
H2158 H 0.27763 0.15464 0.15691 0.0
H2159 H 0.29732 0.17354 0.1254 0.0
H2160 H 0.38958 0.16435 0.15856 0.0
H2161 H 0.41281 0.14692 0.14565 0.0
H2162 H 0.39244 0.13517 0.16591 0.0
H2163 H 0.37753 0.10436 0.13888 0.0
H2164 H 0.39801 0.11596 0.11851 0.0
H2165 H 0.36479 0.11244 0.11295 0.0
H2166 H 0.32642 0.18908 0.09461 0.0
H2167 H 0.36162 0.20056 0.07028 0.0
H2168 H 0.41215 0.15722 0.10607 0.0
C2169 C 0.33667 0.13199 0.16079 0.0
C2170 C 0.31124 0.13607 0.16606 0.0
C2171 C 0.29701 0.15086 0.15287 0.0
C2172 C 0.3081 0.16176 0.13498 0.0
C2173 C 0.33334 0.15737 0.13021 0.0
C2174 C 0.34728 0.14261 0.1427 0.0
C2175 C 0.37404 0.14075 0.13453 0.0
C2176 C 0.39334 0.1472 0.15222 0.0
C2177 C 0.37888 0.11697 0.1257 0.0
C2178 C 0.37358 0.15777 0.11637 0.0
C2179 C 0.34987 0.16681 0.11355 0.0
C2180 C 0.34512 0.18228 0.09697 0.0
C2181 C 0.3652 0.18881 0.08327 0.0
C2182 C 0.38992 0.18057 0.08682 0.0
C2183 C 0.39371 0.16445 0.1033 0.0
H2184 H 0.08979 0.19406 0.9684 0.0
H2185 H 0.03128 0.22693 0.93142 0.0
H2186 H 0.04407 0.20576 0.89854 0.0
H2187 H 0.13795 0.1882 0.92774 0.0
H2188 H 0.14583 0.16018 0.93639 0.0
H2189 H 0.13373 0.18013 0.95561 0.0
H2190 H 0.09795 0.15197 0.96548 0.0
H2191 H 0.10963 0.13208 0.94602 0.0
H2192 H 0.07737 0.14137 0.94441 0.0
H2193 H 0.06122 0.17807 0.87098 0.0
H2194 H 0.08238 0.1475 0.85065 0.0
H2195 H 0.12857 0.13293 0.90682 0.0
C2196 C 0.08058 0.19759 0.9531 0.0
C2197 C 0.06042 0.21274 0.95197 0.0
C2198 C 0.04743 0.2159 0.93215 0.0
C2199 C 0.05438 0.20382 0.91359 0.0
C2200 C 0.07405 0.18848 0.91544 0.0
C2201 C 0.08687 0.18535 0.93475 0.0
C2202 C 0.10528 0.16624 0.93337 0.0
C2203 C 0.13231 0.17418 0.93858 0.0
C2204 C 0.09707 0.14677 0.94819 0.0
C2205 C 0.10212 0.15995 0.90987 0.0
C2206 C 0.08359 0.17253 0.89986 0.0
C2207 C 0.07612 0.16846 0.87852 0.0
C2208 C 0.08819 0.15122 0.86712 0.0
C2209 C 0.10761 0.13866 0.87705 0.0
C2210 C 0.11454 0.14305 0.89866 0.0
H2211 H 0.70154 0.34131 0.11744 0.0
H2212 H 0.74317 0.30758 0.06705 0.0
H2213 H 0.78274 0.31361 0.08765 0.0
H2214 H 0.73471 0.38191 0.12114 0.0
H2215 H 0.73848 0.38909 0.14946 0.0
H2216 H 0.71116 0.3738 0.14023 0.0
H2217 H 0.71696 0.33913 0.16285 0.0
H2218 H 0.74196 0.35407 0.17682 0.0
H2219 H 0.74764 0.32655 0.16564 0.0
H2220 H 0.81787 0.33147 0.10836 0.0
H2221 H 0.84533 0.35893 0.12725 0.0
H2222 H 0.78056 0.3836 0.16254 0.0
C2223 C 0.71887 0.33415 0.1114 0.0
C2224 C 0.71945 0.32395 0.09079 0.0
C2225 C 0.74235 0.31513 0.08299 0.0
C2226 C 0.7649 0.31852 0.09462 0.0
C2227 C 0.76402 0.33035 0.11415 0.0
C2228 C 0.74141 0.33753 0.1228 0.0
C2229 C 0.74569 0.35355 0.14159 0.0
C2230 C 0.73182 0.37595 0.13793 0.0
C2231 C 0.73759 0.34266 0.163 0.0
C2232 C 0.77412 0.35608 0.14071 0.0
C2233 C 0.78443 0.34178 0.1255 0.0
C2234 C 0.81009 0.34234 0.12067 0.0
C2235 C 0.82552 0.35813 0.13135 0.0
C2236 C 0.81522 0.37349 0.14641 0.0
C2237 C 0.78927 0.37188 0.15152 0.0
H2238 H 0.90173 0.41913 0.37711 0.0
H2239 H 0.94685 0.45039 0.32747 0.0
H2240 H 0.95095 0.48448 0.34951 0.0
H2241 H 0.86779 0.45227 0.39489 0.0
H2242 H 0.87105 0.45264 0.42392 0.0
H2243 H 0.88076 0.42848 0.40899 0.0
H2244 H 0.9254 0.43135 0.42568 0.0
H2245 H 0.91571 0.45564 0.44104 0.0
H2246 H 0.94301 0.45728 0.42387 0.0
H2247 H 0.92771 0.51646 0.36441 0.0
H2248 H 0.89503 0.54085 0.37958 0.0
H2249 H 0.87863 0.49113 0.42821 0.0
C2250 C 0.91434 0.43238 0.37187 0.0
C2251 C 0.92289 0.43265 0.35032 0.0
C2252 C 0.9393 0.45025 0.34372 0.0
C2253 C 0.942 0.46969 0.35624 0.0
C2254 C 0.93041 0.47031 0.37635 0.0
C2255 C 0.91903 0.45135 0.38511 0.0
C2256 C 0.90672 0.45728 0.40645 0.0
C2257 C 0.87999 0.44711 0.40861 0.0
C2258 C 0.92371 0.44995 0.42538 0.0
C2259 C 0.9067 0.48271 0.40484 0.0
C2260 C 0.92141 0.49005 0.3878 0.0
C2261 C 0.9182 0.51155 0.37913 0.0
C2262 C 0.89949 0.52549 0.38779 0.0
C2263 C 0.8856 0.51893 0.40611 0.0
C2264 C 0.88984 0.49732 0.4149 0.0
H2265 H 0.98229 0.62148 0.5295 0.0
H2266 H 0.9643 0.62915 0.46142 0.0
H2267 H 0.92145 0.6189 0.46813 0.0
H2268 H 0.93679 0.58149 0.55417 0.0
H2269 H 0.93084 0.60218 0.57391 0.0
H2270 H 0.95999 0.60351 0.55923 0.0
H2271 H 0.93619 0.64588 0.55652 0.0
H2272 H 0.90571 0.6345 0.56374 0.0
H2273 H 0.90998 0.64769 0.53786 0.0
H2274 H 0.89425 0.58845 0.47847 0.0
H2275 H 0.86235 0.56347 0.49428 0.0
H2276 H 0.88286 0.58929 0.5578 0.0
C2277 C 0.9688 0.62208 0.51631 0.0
C2278 C 0.97704 0.62531 0.49447 0.0
C2279 C 0.95873 0.62664 0.47792 0.0
C2280 C 0.93409 0.62052 0.48153 0.0
C2281 C 0.92693 0.61512 0.50226 0.0
C2282 C 0.94252 0.61819 0.51995 0.0
C2283 C 0.92668 0.61408 0.54047 0.0
C2284 C 0.93955 0.59951 0.55779 0.0
C2285 C 0.9192 0.63689 0.55022 0.0
C2286 C 0.90333 0.60244 0.5306 0.0
C2287 C 0.90442 0.60351 0.50848 0.0
C2288 C 0.89039 0.58921 0.49541 0.0
C2289 C 0.87254 0.57503 0.50469 0.0
C2290 C 0.86725 0.57651 0.52693 0.0
C2291 C 0.88399 0.58963 0.54035 0.0
H2292 H 0.12076 0.18342 0.31077 0.0
H2293 H 0.12702 0.24352 0.35003 0.0
H2294 H 0.14978 0.22209 0.37836 0.0
H2295 H 0.11567 0.14141 0.3548 0.0
H2296 H 0.13547 0.12184 0.34057 0.0
H2297 H 0.11582 0.14101 0.32561 0.0
H2298 H 0.15525 0.15585 0.30513 0.0
H2299 H 0.17489 0.13676 0.32001 0.0
H2300 H 0.18188 0.16642 0.32048 0.0
H2301 H 0.17624 0.19502 0.39996 0.0
H2302 H 0.20531 0.16546 0.41237 0.0
H2303 H 0.18247 0.12353 0.35794 0.0
C2304 C 0.12597 0.19175 0.32576 0.0
C2305 C 0.1216 0.21484 0.32865 0.0
C2306 C 0.12983 0.22565 0.3479 0.0
C2307 C 0.14269 0.21362 0.36401 0.0
C2308 C 0.14732 0.19088 0.3604 0.0
C2309 C 0.13923 0.18011 0.3417 0.0
C2310 C 0.14938 0.15652 0.34029 0.0
C2311 C 0.12779 0.13917 0.34032 0.0
C2312 C 0.16635 0.15374 0.3203 0.0
C2313 C 0.16458 0.15563 0.36101 0.0
C2314 C 0.16305 0.17552 0.37251 0.0
C2315 C 0.17717 0.17921 0.39131 0.0
C2316 C 0.19358 0.16226 0.39825 0.0
C2317 C 0.19596 0.14201 0.38625 0.0
C2318 C 0.18075 0.13857 0.36772 0.0
H2319 H 0.35899 0.77186 0.50242 0.0
H2320 H 0.34371 0.81043 0.56921 0.0
H2321 H 0.32648 0.84131 0.53912 0.0
H2322 H 0.39219 0.79422 0.4548 0.0
H2323 H 0.37533 0.78403 0.43173 0.0
H2324 H 0.38542 0.76535 0.4531 0.0
H2325 H 0.34671 0.74895 0.45165 0.0
H2326 H 0.33003 0.76788 0.43427 0.0
H2327 H 0.31877 0.7603 0.46098 0.0
H2328 H 0.31136 0.86536 0.48765 0.0
H2329 H 0.30281 0.87799 0.45129 0.0
H2330 H 0.33714 0.82088 0.41914 0.0
C2331 C 0.36218 0.7658 0.51884 0.0
C2332 C 0.3576 0.77785 0.54633 0.0
C2333 C 0.34611 0.80609 0.55238 0.0
C2334 C 0.33576 0.82665 0.53342 0.0
C2335 C 0.3363 0.82226 0.50548 0.0
C2336 C 0.35422 0.78191 0.49471 0.0
C2337 C 0.35111 0.78493 0.4606 0.0
C2338 C 0.37742 0.78216 0.44955 0.0
C2339 C 0.33555 0.7647 0.45133 0.0
C2340 C 0.33557 0.81782 0.45392 0.0
C2341 C 0.32839 0.83521 0.47724 0.0
C2342 C 0.31724 0.85535 0.47401 0.0
C2343 C 0.31275 0.86226 0.45297 0.0
C2344 C 0.32021 0.85059 0.43388 0.0
C2345 C 0.33212 0.82909 0.43415 0.0
H2346 H 0.96814 0.57344 0.056 0.0
H2347 H 1.00065 0.5226 0.09756 0.0
H2348 H 0.98076 0.49292 0.07541 0.0
H2349 H 0.90898 0.55476 0.03709 0.0
H2350 H 0.91617 0.55969 0.00968 0.0
H2351 H 0.93317 0.57484 0.03039 0.0
H2352 H 0.97203 0.55982 0.00802 0.0
H2353 H 0.95168 0.54219 0.99174 0.0
H2354 H 0.97746 0.53002 0.00666 0.0
H2355 H 0.95149 0.46994 0.05485 0.0
H2356 H 0.9162 0.45326 0.03477 0.0
H2357 H 0.90094 0.51791 0.00507 0.0
C2358 C 0.97132 0.556 0.05999 0.0
C2359 C 0.98583 0.55021 0.07856 0.0
C2360 C 0.98995 0.52731 0.08331 0.0
C2361 C 0.97869 0.51035 0.07082 0.0
C2362 C 0.96392 0.51647 0.05312 0.0
C2363 C 0.96075 0.53865 0.04711 0.0
C2364 C 0.94482 0.53972 0.0264 0.0
C2365 C 0.92469 0.55828 0.02611 0.0
C2366 C 0.96259 0.5431 0.00708 0.0
C2367 C 0.93394 0.51588 0.02595 0.0
C2368 C 0.94728 0.50247 0.04016 0.0
C2369 C 0.94137 0.47994 0.04318 0.0
C2370 C 0.92098 0.4707 0.0318 0.0
C2371 C 0.90554 0.48424 0.01845 0.0
C2372 C 0.91238 0.50715 0.01519 0.0
H2373 H 0.51927 0.4451 0.69735 0.0
H2374 H 0.49776 0.50691 0.72918 0.0
H2375 H 0.50061 0.52697 0.69419 0.0
H2376 H 0.56432 0.46598 0.66936 0.0
H2377 H 0.56103 0.45071 0.64403 0.0
H2378 H 0.54957 0.43867 0.66873 0.0
H2379 H 0.50445 0.43467 0.6548 0.0
H2380 H 0.51475 0.44471 0.62875 0.0
H2381 H 0.48897 0.45826 0.64239 0.0
H2382 H 0.50896 0.54066 0.65502 0.0
H2383 H 0.53215 0.54846 0.62121 0.0
H2384 H 0.55204 0.47807 0.61659 0.0
C2385 C 0.5146 0.46275 0.69693 0.0
C2386 C 0.50802 0.4743 0.71607 0.0
C2387 C 0.50227 0.4975 0.71471 0.0
C2388 C 0.50368 0.50902 0.6948 0.0
C2389 C 0.51047 0.49709 0.6762 0.0
C2390 C 0.51581 0.47441 0.67724 0.0
C2391 C 0.52637 0.46598 0.65603 0.0
C2392 C 0.5519 0.45465 0.6597 0.0
C2393 C 0.50751 0.44995 0.64483 0.0
C2394 C 0.52882 0.48779 0.64356 0.0
C2395 C 0.51783 0.50528 0.65475 0.0
C2396 C 0.51762 0.52701 0.64622 0.0
C2397 C 0.53094 0.5313 0.6269 0.0
C2398 C 0.54447 0.51398 0.61624 0.0
C2399 C 0.54226 0.49179 0.62434 0.0
H2400 H 0.51539 0.71419 0.66405 0.0
H2401 H 0.57289 0.68437 0.61882 0.0
H2402 H 0.57336 0.73793 0.58152 0.0
H2403 H 0.471 0.75131 0.63919 0.0
H2404 H 0.46813 0.78117 0.64496 0.0
H2405 H 0.47435 0.76042 0.66522 0.0
H2406 H 0.51524 0.77166 0.68148 0.0
H2407 H 0.4976 0.79448 0.67139 0.0
H2408 H 0.52849 0.79559 0.66578 0.0
H2409 H 0.5492 0.78615 0.57125 0.0
H2410 H 0.52136 0.81758 0.56512 0.0
H2411 H 0.49245 0.8156 0.63048 0.0
C2412 C 0.52569 0.71736 0.6493 0.0
C2413 C 0.54442 0.69826 0.64112 0.0
C2414 C 0.56215 0.69989 0.6202 0.0
C2415 C 0.56206 0.73342 0.59567 0.0
C2416 C 0.54274 0.75221 0.60389 0.0
C2417 C 0.52114 0.74089 0.63791 0.0
C2418 C 0.50851 0.76973 0.64543 0.0
C2419 C 0.47904 0.7657 0.64841 0.0
C2420 C 0.51331 0.78288 0.66726 0.0
C2421 C 0.51952 0.78966 0.6237 0.0
C2422 C 0.53612 0.78051 0.60319 0.0
C2423 C 0.53832 0.79272 0.58452 0.0
C2424 C 0.52216 0.81055 0.58129 0.0
C2425 C 0.50433 0.81708 0.59689 0.0
C2426 C 0.50627 0.80979 0.61895 0.0
H2427 H 0.46914 0.09991 0.97986 0.0
H2428 H 0.53277 0.05471 0.9832 0.0
H2429 H 0.50688 0.02466 0.9673 0.0
H2430 H 0.42372 0.04884 0.99463 0.0
H2431 H 0.39705 0.05626 0.97822 0.0
H2432 H 0.41438 0.07774 0.99227 0.0
H2433 H 0.40581 0.09074 0.95579 0.0
H2434 H 0.42181 0.08025 0.93336 0.0
H2435 H 0.43783 0.09897 0.95212 0.0
H2436 H 0.48113 0.00557 0.94161 0.0
H2437 H 0.45048 0.99207 0.91478 0.0
H2438 H 0.39768 0.04304 0.93457 0.0
C2439 C 0.47691 0.08329 0.9783 0.0
C2440 C 0.50283 0.07942 0.98309 0.0
C2441 C 0.51301 0.05786 0.97994 0.0
C2442 C 0.4984 0.04067 0.97105 0.0
C2443 C 0.47321 0.04493 0.96636 0.0
C2444 C 0.46173 0.06522 0.97092 0.0
C2445 C 0.43371 0.06434 0.96399 0.0
C2446 C 0.41629 0.0616 0.9835 0.0
C2447 C 0.42461 0.08465 0.95057 0.0
C2448 C 0.43369 0.04251 0.95119 0.0
C2449 C 0.45643 0.0315 0.95341 0.0
C2450 C 0.46268 0.01309 0.94072 0.0
C2451 C 0.44516 0.00547 0.92553 0.0
C2452 C 0.42138 0.01571 0.92363 0.0
C2453 C 0.41535 0.03428 0.93677 0.0
H2454 H 0.1828 0.39995 0.19897 0.0
H2455 H 0.1312 0.35407 0.2309 0.0
H2456 H 0.15531 0.32182 0.2175 0.0
H2457 H 0.19777 0.36858 0.15293 0.0
H2458 H 0.23114 0.37469 0.15351 0.0
H2459 H 0.20931 0.39415 0.16536 0.0
H2460 H 0.23385 0.39179 0.20189 0.0
H2461 H 0.25551 0.37202 0.1901 0.0
H2462 H 0.23852 0.36476 0.2143 0.0
H2463 H 0.18274 0.29426 0.19736 0.0
H2464 H 0.21324 0.27414 0.17425 0.0
H2465 H 0.25088 0.33748 0.16047 0.0
C2466 C 0.17661 0.38312 0.20302 0.0
C2467 C 0.15449 0.37959 0.21518 0.0
C2468 C 0.14758 0.35727 0.22094 0.0
C2469 C 0.16129 0.33875 0.2136 0.0
C2470 C 0.18286 0.34272 0.20149 0.0
C2471 C 0.19094 0.36433 0.1968 0.0
C2472 C 0.21563 0.36381 0.18458 0.0
C2473 C 0.21331 0.37604 0.16279 0.0
C2474 C 0.23715 0.37369 0.19854 0.0
C2475 C 0.21891 0.3387 0.18156 0.0
C2476 C 0.19999 0.32675 0.19169 0.0
C2477 C 0.198 0.30341 0.18975 0.0
C2478 C 0.21546 0.29209 0.17663 0.0
C2479 C 0.23467 0.30412 0.16567 0.0
C2480 C 0.23675 0.32764 0.16886 0.0
H2481 H 0.89504 0.91415 0.57746 0.0
H2482 H 0.8798 0.88215 0.51549 0.0
H2483 H 0.89582 0.91463 0.49674 0.0
H2484 H 0.87661 0.97216 0.55389 0.0
H2485 H 0.89926 0.98749 0.57016 0.0
H2486 H 0.88471 0.96225 0.58056 0.0
H2487 H 0.92885 0.94527 0.58739 0.0
H2488 H 0.94341 0.97045 0.57705 0.0
H2489 H 0.95097 0.94354 0.56535 0.0
H2490 H 0.91928 0.94396 0.48433 0.0
H2491 H 0.94448 0.97635 0.47633 0.0
H2492 H 0.94257 0.99765 0.54336 0.0
C2493 C 0.89525 0.91418 0.55995 0.0
C2494 C 0.88762 0.89475 0.54786 0.0
C2495 C 0.8871 0.89587 0.52505 0.0
C2496 C 0.89576 0.91451 0.51418 0.0
C2497 C 0.90428 0.93266 0.52614 0.0
C2498 C 0.90362 0.93342 0.54841 0.0
C2499 C 0.91379 0.95633 0.55618 0.0
C2500 C 0.89232 0.97039 0.56578 0.0
C2501 C 0.93557 0.95372 0.57246 0.0
C2502 C 0.92276 0.96658 0.5348 0.0
C2503 C 0.91611 0.9524 0.51801 0.0
C2504 C 0.9234 0.95596 0.49695 0.0
C2505 C 0.93752 0.97481 0.49246 0.0
C2506 C 0.94409 0.9907 0.50858 0.0
C2507 C 0.9369 0.98639 0.5304 0.0
H2508 H 0.49376 0.43306 0.84943 0.0
H2509 H 0.51603 0.44556 0.91608 0.0
H2510 H 0.48369 0.41836 0.9281 0.0
H2511 H 0.42253 0.41646 0.86504 0.0
H2512 H 0.4213 0.39613 0.84335 0.0
H2513 H 0.4388 0.42199 0.84012 0.0
H2514 H 0.47035 0.39673 0.82686 0.0
H2515 H 0.46481 0.36941 0.83791 0.0
H2516 H 0.49266 0.38579 0.8453 0.0
H2517 H 0.4535 0.38786 0.93364 0.0
H2518 H 0.43395 0.35039 0.93315 0.0
H2519 H 0.43537 0.35056 0.86287 0.0
C2520 C 0.49188 0.43006 0.86659 0.0
C2521 C 0.50803 0.44137 0.88201 0.0
C2522 C 0.5043 0.43714 0.90413 0.0
C2523 C 0.48559 0.42195 0.91104 0.0
C2524 C 0.47078 0.41049 0.89567 0.0
C2525 C 0.47361 0.41418 0.87375 0.0
C2526 C 0.4574 0.3971 0.86081 0.0
C2527 C 0.4336 0.40861 0.85183 0.0
C2528 C 0.47213 0.38649 0.84182 0.0
C2529 C 0.44961 0.38069 0.87903 0.0
C2530 C 0.45534 0.39036 0.89886 0.0
C2531 C 0.44924 0.37984 0.9183 0.0
C2532 C 0.43841 0.35827 0.91788 0.0
C2533 C 0.43459 0.34655 0.89822 0.0
C2534 C 0.43882 0.35862 0.87835 0.0
H2535 H 0.89072 0.07325 0.06229 0.0
H2536 H 0.91485 0.04921 0.99946 0.0
H2537 H 0.93743 0.01776 0.01748 0.0
H2538 H 0.9479 0.06543 0.08782 0.0
H2539 H 0.93465 0.05779 0.11348 0.0
H2540 H 0.91745 0.07591 0.09549 0.0
H2541 H 0.87887 0.04873 0.09558 0.0
H2542 H 0.8953 0.03027 0.11391 0.0
H2543 H 0.88315 0.01964 0.08858 0.0
H2544 H 0.95919 0.98953 0.0443 0.0
H2545 H 0.98011 0.97119 0.07578 0.0
H2546 H 0.94357 0.01816 0.11888 0.0
C2547 C 0.9008 0.06157 0.05212 0.0
C2548 C 0.90129 0.06392 0.02944 0.0
C2549 C 0.91421 0.0477 0.0169 0.0
C2550 C 0.927 0.02979 0.02701 0.0
C2551 C 0.92644 0.02834 0.04959 0.0
C2552 C 0.91364 0.04399 0.06182 0.0
C2553 C 0.9173 0.04043 0.0857 0.0
C2554 C 0.93004 0.06111 0.09626 0.0
C2555 C 0.89216 0.03444 0.09661 0.0
C2556 C 0.93464 0.02057 0.08532 0.0
C2557 C 0.93946 0.01333 0.06448 0.0
C2558 C 0.9556 0.99532 0.06061 0.0
C2559 C 0.96766 0.98519 0.07847 0.0
C2560 C 0.96411 0.99352 0.09975 0.0
C2561 C 0.94668 0.01097 0.10304 0.0
H2562 H 0.10677 0.70636 0.33443 0.0
H2563 H 0.03209 0.72732 0.35314 0.0
H2564 H 0.05065 0.75443 0.37936 0.0
H2565 H 0.14066 0.71328 0.38386 0.0
H2566 H 0.16799 0.72703 0.37253 0.0
H2567 H 0.14975 0.70744 0.35643 0.0
H2568 H 0.14205 0.73661 0.32673 0.0
H2569 H 0.16124 0.75652 0.3416 0.0
H2570 H 0.12951 0.76373 0.33374 0.0
H2571 H 0.07779 0.77947 0.40337 0.0
H2572 H 0.11088 0.80287 0.42076 0.0
H2573 H 0.16782 0.76955 0.38228 0.0
C2574 C 0.09444 0.71612 0.34469 0.0
C2575 C 0.06799 0.71327 0.34348 0.0
C2576 C 0.05236 0.72784 0.35544 0.0
C2577 C 0.06277 0.74356 0.37004 0.0
C2578 C 0.08896 0.74554 0.37136 0.0
C2579 C 0.10459 0.73263 0.35857 0.0
C2580 C 0.13188 0.74016 0.36092 0.0
C2581 C 0.14857 0.72085 0.36895 0.0
C2582 C 0.14174 0.74982 0.33947 0.0
C2583 C 0.12933 0.75853 0.37781 0.0
C2584 C 0.1044 0.76145 0.38355 0.0
C2585 C 0.09733 0.7775 0.3988 0.0
C2586 C 0.11625 0.79087 0.40846 0.0
C2587 C 0.14192 0.78842 0.40262 0.0
C2588 C 0.1484 0.77202 0.38701 0.0
H2589 H 0.49015 0.8953 0.4606 0.0
H2590 H 0.56757 0.91074 0.4779 0.0
H2591 H 0.55537 0.94947 0.48788 0.0
H2592 H 0.47721 0.9561 0.43966 0.0
H2593 H 0.44495 0.95468 0.44861 0.0
H2594 H 0.46034 0.9297 0.43888 0.0
H2595 H 0.43425 0.93444 0.48381 0.0
H2596 H 0.44959 0.9094 0.47458 0.0
H2597 H 0.45862 0.92196 0.50003 0.0
H2598 H 0.53368 0.98283 0.50319 0.0
H2599 H 0.50429 0.00943 0.52059 0.0
H2600 H 0.44094 0.97468 0.491 0.0
C2601 C 0.50452 0.90719 0.46579 0.0
C2602 C 0.52986 0.90028 0.46827 0.0
C2603 C 0.54821 0.91597 0.47556 0.0
C2604 C 0.54144 0.93799 0.48116 0.0
C2605 C 0.51624 0.94429 0.47893 0.0
C2606 C 0.49809 0.92952 0.47095 0.0
C2607 C 0.47214 0.94028 0.4714 0.0
C2608 C 0.46314 0.9455 0.44826 0.0
C2609 C 0.4526 0.92561 0.48321 0.0
C2610 C 0.47805 0.96191 0.48361 0.0
C2611 C 0.50376 0.96428 0.48707 0.0
C2612 C 0.51363 0.9816 0.49991 0.0
C2613 C 0.49688 0.9966 0.50978 0.0
C2614 C 0.47054 0.99443 0.5066 0.0
C2615 C 0.46108 0.97714 0.49296 0.0
H2616 H 0.64161 0.51763 0.68994 0.0
H2617 H 0.60871 0.48284 0.63444 0.0
H2618 H 0.60491 0.44868 0.65591 0.0
H2619 H 0.6696 0.45738 0.71196 0.0
H2620 H 0.66761 0.4681 0.7392 0.0
H2621 H 0.67692 0.48643 0.7174 0.0
H2622 H 0.64448 0.51193 0.73152 0.0
H2623 H 0.62671 0.49405 0.74931 0.0
H2624 H 0.61219 0.50666 0.72579 0.0
H2625 H 0.59016 0.42352 0.68517 0.0
H2626 H 0.57478 0.40615 0.71869 0.0
H2627 H 0.61699 0.45543 0.75648 0.0
C2628 C 0.63402 0.50275 0.68212 0.0
C2629 C 0.62502 0.50349 0.66034 0.0
C2630 C 0.61572 0.48327 0.65089 0.0
C2631 C 0.61334 0.46357 0.66306 0.0
C2632 C 0.61996 0.46409 0.68486 0.0
C2633 C 0.63168 0.48262 0.69407 0.0
C2634 C 0.63647 0.47846 0.71811 0.0
C2635 C 0.66429 0.47222 0.72188 0.0
C2636 C 0.62945 0.49884 0.73212 0.0
C2637 C 0.61989 0.45773 0.72165 0.0
C2638 C 0.61234 0.44877 0.70196 0.0
C2639 C 0.5965 0.42999 0.70067 0.0
C2640 C 0.58785 0.42018 0.71989 0.0
C2641 C 0.59465 0.42926 0.74035 0.0
C2642 C 0.61153 0.44796 0.74114 0.0
H2643 H 0.92884 0.56682 0.89996 0.0
H2644 H 0.85329 0.54015 0.90944 0.0
H2645 H 0.86976 0.5135 0.93636 0.0
H2646 H 0.96421 0.52219 0.90524 0.0
H2647 H 0.98874 0.53053 0.92408 0.0
H2648 H 0.97365 0.551 0.90702 0.0
H2649 H 0.95814 0.57567 0.93669 0.0
H2650 H 0.97532 0.55883 0.95591 0.0
H2651 H 0.94211 0.56404 0.95971 0.0
H2652 H 0.89562 0.48581 0.95736 0.0
H2653 H 0.92641 0.46628 0.98057 0.0
H2654 H 0.98354 0.51576 0.96389 0.0
C2655 C 0.91571 0.5556 0.90795 0.0
C2656 C 0.88998 0.55469 0.9017 0.0
C2657 C 0.87326 0.54046 0.91319 0.0
C2658 C 0.88242 0.52527 0.92858 0.0
C2659 C 0.90811 0.5256 0.93337 0.0
C2660 C 0.92426 0.54127 0.92439 0.0
C2661 C 0.95052 0.53952 0.93418 0.0
C2662 C 0.97047 0.5355 0.91664 0.0
C2663 C 0.9569 0.56075 0.94743 0.0
C2664 C 0.94695 0.51928 0.94885 0.0
C2665 C 0.92235 0.51148 0.94793 0.0
C2666 C 0.91468 0.49229 0.95898 0.0
C2667 C 0.93226 0.4814 0.97225 0.0
C2668 C 0.95689 0.49031 0.97525 0.0
C2669 C 0.96452 0.50907 0.96273 0.0
H2670 H 0.88286 0.49105 0.07252 0.0
H2671 H 0.81426 0.47951 0.10907 0.0
H2672 H 0.82438 0.5124 0.1319 0.0
H2673 H 0.92179 0.51037 0.1183 0.0
H2674 H 0.93843 0.52829 0.09998 0.0
H2675 H 0.92441 0.50262 0.08989 0.0
H2676 H 0.90084 0.52839 0.06215 0.0
H2677 H 0.91396 0.55333 0.07486 0.0
H2678 H 0.88019 0.55012 0.07193 0.0
H2679 H 0.84599 0.5452 0.15357 0.0
H2680 H 0.87493 0.57426 0.16918 0.0
H2681 H 0.92522 0.56493 0.11504 0.0
C2682 C 0.86977 0.49503 0.08525 0.0
C2683 C 0.84763 0.48224 0.08875 0.0
C2684 C 0.83132 0.48881 0.1058 0.0
C2685 C 0.83692 0.50758 0.11896 0.0
C2686 C 0.85888 0.5198 0.11483 0.0
C2687 C 0.87492 0.51364 0.09836 0.0
C2688 C 0.8973 0.52922 0.09699 0.0
C2689 C 0.92198 0.51677 0.10147 0.0
C2690 C 0.89807 0.54104 0.07516 0.0
C2691 C 0.89156 0.54526 0.11509 0.0
C2692 C 0.86963 0.53947 0.12571 0.0
C2693 C 0.86288 0.55014 0.145 0.0
C2694 C 0.87939 0.56659 0.15377 0.0
C2695 C 0.90206 0.57236 0.14301 0.0
C2696 C 0.90762 0.56184 0.1232 0.0
H2697 H 0.71878 0.52679 0.49254 0.0
H2698 H 0.74548 0.57498 0.44827 0.0
H2699 H 0.72392 0.62786 0.48062 0.0
H2700 H 0.66234 0.54323 0.48341 0.0
H2701 H 0.64396 0.53183 0.50568 0.0
H2702 H 0.6733 0.52103 0.4977 0.0
H2703 H 0.69518 0.52031 0.52668 0.0
H2704 H 0.66853 0.52671 0.54278 0.0
H2705 H 0.69923 0.53895 0.54721 0.0
H2706 H 0.70578 0.64729 0.51353 0.0
H2707 H 0.68999 0.66258 0.54535 0.0
H2708 H 0.64073 0.60595 0.55681 0.0
C2709 C 0.72072 0.54463 0.48977 0.0
C2710 C 0.73934 0.55244 0.4723 0.0
C2711 C 0.73965 0.57711 0.46514 0.0
C2712 C 0.72432 0.6099 0.48442 0.0
C2713 C 0.70871 0.60252 0.50463 0.0
C2714 C 0.70601 0.56031 0.50524 0.0
C2715 C 0.67688 0.55382 0.51767 0.0
C2716 C 0.6631 0.53705 0.50034 0.0
C2717 C 0.68512 0.53437 0.53469 0.0
C2718 C 0.66399 0.60111 0.52648 0.0
C2719 C 0.68561 0.61652 0.51604 0.0
C2720 C 0.69073 0.63825 0.52159 0.0
C2721 C 0.68168 0.64664 0.54048 0.0
C2722 C 0.66408 0.63536 0.55351 0.0
C2723 C 0.65396 0.61365 0.54593 0.0
H2724 H 0.61148 0.51922 0.96032 0.0
H2725 H 0.59495 0.46457 0.91623 0.0
H2726 H 0.58221 0.4921 0.88851 0.0
H2727 H 0.56016 0.54783 0.94327 0.0
H2728 H 0.57221 0.57609 0.94683 0.0
H2729 H 0.58477 0.55357 0.96288 0.0
H2730 H 0.62989 0.56223 0.949 0.0
H2731 H 0.61772 0.58501 0.9329 0.0
H2732 H 0.63564 0.56298 0.92027 0.0
H2733 H 0.58056 0.52374 0.86276 0.0
H2734 H 0.55727 0.55649 0.84895 0.0
H2735 H 0.57119 0.59111 0.90995 0.0
C2736 C 0.60742 0.51319 0.9441 0.0
C2737 C 0.60566 0.48995 0.93978 0.0
C2738 C 0.59777 0.48231 0.91925 0.0
C2739 C 0.59174 0.49764 0.90305 0.0
C2740 C 0.59568 0.52038 0.90698 0.0
C2741 C 0.60217 0.52832 0.92733 0.0
C2742 C 0.59706 0.55332 0.92903 0.0
C2743 C 0.5774 0.55804 0.94659 0.0
C2744 C 0.62155 0.56667 0.93304 0.0
C2745 C 0.58645 0.55786 0.90663 0.0
C2746 C 0.58732 0.53886 0.8939 0.0
C2747 C 0.5784 0.53848 0.87272 0.0
C2748 C 0.56565 0.5573 0.86497 0.0
C2749 C 0.56194 0.57612 0.87861 0.0
C2750 C 0.57358 0.57683 0.89927 0.0
H2751 H 0.78117 0.46233 0.1263 0.0
H2752 H 0.74476 0.46951 0.18866 0.0
H2753 H 0.70651 0.45136 0.17399 0.0
H2754 H 0.72204 0.47354 0.09392 0.0
H2755 H 0.73087 0.45396 0.073 0.0
H2756 H 0.75489 0.46904 0.08804 0.0
H2757 H 0.77508 0.43145 0.097 0.0
H2758 H 0.75044 0.41492 0.08448 0.0
H2759 H 0.75869 0.41119 0.1127 0.0
H2760 H 0.67346 0.42991 0.15394 0.0
H2761 H 0.64631 0.40826 0.12881 0.0
H2762 H 0.70218 0.4164 0.07824 0.0
C2763 C 0.76493 0.46069 0.13665 0.0
C2764 C 0.76601 0.46779 0.15858 0.0
C2765 C 0.74441 0.46473 0.17172 0.0
C2766 C 0.72254 0.45429 0.16357 0.0
C2767 C 0.72213 0.44742 0.14201 0.0
C2768 C 0.7425 0.45089 0.12853 0.0
C2769 C 0.73694 0.44161 0.10599 0.0
C2770 C 0.73614 0.46067 0.08925 0.0
C2771 C 0.75632 0.4237 0.09962 0.0
C2772 C 0.71076 0.43153 0.10929 0.0
C2773 C 0.7026 0.43529 0.13017 0.0
C2774 C 0.67945 0.42715 0.13743 0.0
C2775 C 0.66413 0.41486 0.12301 0.0
C2776 C 0.67185 0.41081 0.10145 0.0
C2777 C 0.69548 0.41948 0.0945 0.0
H2778 H 0.82589 0.4766 0.38796 0.0
H2779 H 0.75848 0.5165 0.35959 0.0
H2780 H 0.74989 0.53228 0.33605 0.0
H2781 H 0.87992 0.50346 0.34923 0.0
H2782 H 0.88821 0.47444 0.3452 0.0
H2783 H 0.87392 0.48306 0.37025 0.0
H2784 H 0.84074 0.45102 0.36363 0.0
H2785 H 0.85412 0.44465 0.33829 0.0
H2786 H 0.8215 0.45245 0.33953 0.0
H2787 H 0.82814 0.53257 0.29111 0.0
H2788 H 0.85179 0.51156 0.2625 0.0
H2789 H 0.86984 0.46145 0.30934 0.0
C2790 C 0.81444 0.4866 0.37716 0.0
C2791 C 0.78447 0.49383 0.38717 0.0
C2792 C 0.75969 0.50812 0.37309 0.0
C2793 C 0.76529 0.52258 0.34675 0.0
C2794 C 0.81497 0.51452 0.33426 0.0
C2795 C 0.82951 0.49623 0.35364 0.0
C2796 C 0.84789 0.48109 0.3434 0.0
C2797 C 0.87414 0.48583 0.35256 0.0
C2798 C 0.84056 0.45599 0.34636 0.0
C2799 C 0.84628 0.48785 0.32023 0.0
C2800 C 0.83129 0.50662 0.31504 0.0
C2801 C 0.83524 0.51605 0.29443 0.0
C2802 C 0.84994 0.50448 0.27853 0.0
C2803 C 0.86273 0.48427 0.28374 0.0
C2804 C 0.86063 0.47664 0.3048 0.0
H2805 H 0.93118 0.54082 0.56129 0.0
H2806 H 0.86688 0.50917 0.52932 0.0
H2807 H 0.88803 0.51115 0.49472 0.0
H2808 H 0.95868 0.57476 0.52245 0.0
H2809 H 0.9906 0.56499 0.52332 0.0
H2810 H 0.97156 0.56184 0.54688 0.0
H2811 H 0.97911 0.51947 0.54724 0.0
H2812 H 0.99883 0.5226 0.5237 0.0
H2813 H 0.97269 0.50309 0.52322 0.0
H2814 H 0.91318 0.52057 0.46234 0.0
H2815 H 0.94128 0.53871 0.43541 0.0
H2816 H 0.99505 0.5539 0.4866 0.0
C2817 C 0.92152 0.53473 0.54693 0.0
C2818 C 0.89604 0.52694 0.54805 0.0
C2819 C 0.88526 0.51715 0.52902 0.0
C2820 C 0.8974 0.51761 0.50909 0.0
C2821 C 0.92176 0.52596 0.50828 0.0
C2822 C 0.93437 0.53339 0.52673 0.0
C2823 C 0.96183 0.53854 0.52083 0.0
C2824 C 0.97109 0.56147 0.52893 0.0
C2825 C 0.97914 0.51982 0.52925 0.0
C2826 C 0.96039 0.53772 0.49621 0.0
C2827 C 0.93755 0.52904 0.4894 0.0
C2828 C 0.931 0.52787 0.46746 0.0
C2829 C 0.94706 0.53805 0.45226 0.0
C2830 C 0.97004 0.54801 0.45904 0.0
C2831 C 0.97736 0.54664 0.48109 0.0
H2832 H 0.77471 0.65648 0.60318 0.0
H2833 H 0.72428 0.6946 0.56224 0.0
H2834 H 0.74789 0.68274 0.52996 0.0
H2835 H 0.83325 0.66795 0.56725 0.0
H2836 H 0.84583 0.64055 0.57308 0.0
H2837 H 0.82779 0.65527 0.59326 0.0
H2838 H 0.79939 0.6209 0.59634 0.0
H2839 H 0.81479 0.60605 0.57485 0.0
H2840 H 0.78141 0.61113 0.57352 0.0
H2841 H 0.77229 0.66436 0.50293 0.0
H2842 H 0.79922 0.64089 0.48027 0.0
H2843 H 0.83555 0.61346 0.53724 0.0
C2844 C 0.76962 0.66303 0.58743 0.0
C2845 C 0.7483 0.67686 0.58487 0.0
C2846 C 0.74112 0.68457 0.5642 0.0
C2847 C 0.75429 0.67782 0.54591 0.0
C2848 C 0.77485 0.66373 0.54877 0.0
C2849 C 0.78303 0.65677 0.56892 0.0
C2850 C 0.80511 0.64072 0.5669 0.0
C2851 C 0.82944 0.65179 0.57564 0.0
C2852 C 0.79983 0.61837 0.57851 0.0
C2853 C 0.80631 0.63818 0.54242 0.0
C2854 C 0.78912 0.65233 0.53258 0.0
C2855 C 0.78624 0.65361 0.51035 0.0
C2856 C 0.80173 0.64043 0.49764 0.0
C2857 C 0.8196 0.62573 0.50697 0.0
C2858 C 0.82201 0.6245 0.52973 0.0
H2859 H 0.08844 0.88403 0.42823 0.0
H2860 H 0.08422 0.83233 0.47711 0.0
H2861 H 0.09611 0.86068 0.50539 0.0
H2862 H 0.14182 0.91562 0.45457 0.0
H2863 H 0.12864 0.93998 0.44235 0.0
H2864 H 0.12375 0.91325 0.42947 0.0
H2865 H 0.07703 0.92482 0.42952 0.0
H2866 H 0.08192 0.94888 0.44685 0.0
H2867 H 0.06128 0.9265 0.45495 0.0
H2868 H 0.11397 0.89591 0.52678 0.0
H2869 H 0.1281 0.93357 0.53972 0.0
H2870 H 0.11446 0.96117 0.47639 0.0
C2871 C 0.09059 0.87848 0.44481 0.0
C2872 C 0.08643 0.85591 0.45042 0.0
C2873 C 0.08823 0.8495 0.47246 0.0
C2874 C 0.09473 0.86551 0.48855 0.0
C2875 C 0.09856 0.88784 0.48226 0.0
C2876 C 0.09624 0.8941 0.46089 0.0
C2877 C 0.10121 0.91872 0.4578 0.0
C2878 C 0.12544 0.92202 0.4452 0.0
C2879 C 0.07904 0.93044 0.44661 0.0
C2880 C 0.10532 0.92614 0.48077 0.0
C2881 C 0.105 0.90797 0.49473 0.0
C2882 C 0.11326 0.91025 0.51608 0.0
C2883 C 0.12137 0.93161 0.52325 0.0
C2884 C 0.12124 0.95032 0.5091 0.0
C2885 C 0.11346 0.9474 0.48763 0.0
H2886 H 0.53372 0.93039 0.91011 0.0
H2887 H 0.58016 0.88155 0.94316 0.0
H2888 H 0.57217 0.90074 0.97812 0.0
H2889 H 0.55352 0.97857 0.9427 0.0
H2890 H 0.52277 0.99117 0.94263 0.0
H2891 H 0.53245 0.97416 0.92002 0.0
H2892 H 0.49356 0.94866 0.92403 0.0
H2893 H 0.48254 0.96453 0.94692 0.0
H2894 H 0.48789 0.9348 0.94939 0.0
H2895 H 0.55438 0.92355 0.01032 0.0
H2896 H 0.53112 0.94853 0.03539 0.0
H2897 H 0.50094 0.98456 0.98015 0.0
C2898 C 0.54245 0.92391 0.92468 0.0
C2899 C 0.55756 0.90451 0.9239 0.0
C2900 C 0.56871 0.89653 0.94333 0.0
C2901 C 0.56419 0.90729 0.96328 0.0
C2902 C 0.54887 0.92628 0.9635 0.0
C2903 C 0.53858 0.93469 0.94457 0.0
C2904 C 0.52245 0.95502 0.94898 0.0
C2905 C 0.53344 0.97597 0.93792 0.0
C2906 C 0.49497 0.95054 0.94189 0.0
C2907 C 0.5248 0.95662 0.97338 0.0
C2908 C 0.53988 0.93983 0.98161 0.0
C2909 C 0.54284 0.93695 0.00395 0.0
C2910 C 0.52957 0.95126 0.01811 0.0
C2911 C 0.51381 0.96846 0.00992 0.0
C2912 C 0.51235 0.97148 0.9872 0.0
H2913 H 0.3545 0.24862 0.15321 0.0
H2914 H 0.31659 0.23738 0.09191 0.0
H2915 H 0.2786 0.2236 0.11104 0.0
H2916 H 0.33122 0.19879 0.1775 0.0
H2917 H 0.32845 0.21078 0.20422 0.0
H2918 H 0.35138 0.22188 0.1857 0.0
H2919 H 0.332 0.26157 0.19044 0.0
H2920 H 0.3086 0.25038 0.20861 0.0
H2921 H 0.29891 0.26562 0.18483 0.0
H2922 H 0.24522 0.2111 0.13619 0.0
H2923 H 0.22237 0.1917 0.16541 0.0
H2924 H 0.28211 0.20937 0.21064 0.0
C2925 C 0.33793 0.2436 0.14402 0.0
C2926 C 0.33782 0.24451 0.12127 0.0
C2927 C 0.31641 0.23718 0.10944 0.0
C2928 C 0.29482 0.22956 0.12012 0.0
C2929 C 0.295 0.22956 0.14262 0.0
C2930 C 0.31616 0.23586 0.15448 0.0
C2931 C 0.31238 0.23151 0.17836 0.0
C2932 C 0.33201 0.21474 0.18694 0.0
C2933 C 0.31301 0.25359 0.19132 0.0
C2934 C 0.28606 0.22139 0.17796 0.0
C2935 C 0.27611 0.22107 0.15725 0.0
C2936 C 0.25266 0.21144 0.15255 0.0
C2937 C 0.23965 0.2007 0.16929 0.0
C2938 C 0.2504 0.19937 0.19029 0.0
C2939 C 0.27336 0.21064 0.1948 0.0
H2940 H 0.47681 0.57415 0.93846 0.0
H2941 H 0.47708 0.52501 0.88657 0.0
H2942 H 0.48946 0.49555 0.91261 0.0
H2943 H 0.52978 0.5581 0.96577 0.0
H2944 H 0.5181 0.56138 0.99278 0.0
H2945 H 0.50469 0.57746 0.97101 0.0
H2946 H 0.46067 0.56198 0.981 0.0
H2947 H 0.4744 0.54547 1.00244 0.0
H2948 H 0.45531 0.53206 0.98183 0.0
H2949 H 0.50268 0.47187 0.94348 0.0
H2950 H 0.52609 0.45689 0.97453 0.0
H2951 H 0.52354 0.52217 0.00595 0.0
C2952 C 0.47879 0.55703 0.93279 0.0
C2953 C 0.4755 0.55167 0.91054 0.0
C2954 C 0.47918 0.52931 0.90353 0.0
C2955 C 0.486 0.51248 0.91824 0.0
C2956 C 0.48922 0.51828 0.93998 0.0
C2957 C 0.48603 0.54005 0.94729 0.0
C2958 C 0.49322 0.542 0.97117 0.0
C2959 C 0.51261 0.56084 0.9754 0.0
C2960 C 0.46949 0.54559 0.98492 0.0
C2961 C 0.504 0.51874 0.97517 0.0
C2962 C 0.49955 0.50496 0.95747 0.0
C2963 C 0.50654 0.4825 0.95735 0.0
C2964 C 0.51966 0.4741 0.97525 0.0
C2965 C 0.52696 0.4884 0.99263 0.0
C2966 C 0.51835 0.5109 0.99285 0.0
H2967 H 0.99856 0.44188 0.9123 0.0
H2968 H 0.96713 0.40971 0.9686 0.0
H2969 H 0.92433 0.41672 0.95545 0.0
H2970 H 0.95994 0.48433 0.91199 0.0
H2971 H 0.9545 0.48789 0.88327 0.0
H2972 H 0.98304 0.47492 0.89272 0.0
H2973 H 0.97409 0.43887 0.87059 0.0
H2974 H 0.9461 0.45183 0.85971 0.0
H2975 H 0.94391 0.42493 0.87292 0.0
H2976 H 0.88627 0.43476 0.9412 0.0
H2977 H 0.85466 0.45898 0.92438 0.0
H2978 H 0.90931 0.47874 0.87563 0.0
C2979 C 0.98258 0.43502 0.92096 0.0
C2980 C 0.98618 0.42401 0.94087 0.0
C2981 C 0.96483 0.41662 0.95265 0.0
C2982 C 0.94036 0.42095 0.94545 0.0
C2983 C 0.93738 0.43251 0.92615 0.0
C2984 C 0.95782 0.43893 0.91368 0.0
C2985 C 0.94933 0.4535 0.895 0.0
C2986 C 0.9625 0.47655 0.89577 0.0
C2987 C 0.95362 0.44157 0.87326 0.0
C2988 C 0.92143 0.45545 0.89981 0.0
C2989 C 0.9149 0.44298 0.9177 0.0
C2990 C 0.89088 0.44394 0.92664 0.0
C2991 C 0.87297 0.45787 0.91689 0.0
C2992 C 0.8791 0.47078 0.89835 0.0
C2993 C 0.9037 0.46919 0.88966 0.0
H2994 H 0.46535 0.1426 0.74156 0.0
H2995 H 0.45903 0.20665 0.70966 0.0
H2996 H 0.4397 0.18788 0.67749 0.0
H2997 H 0.47282 0.10704 0.69106 0.0
H2998 H 0.4563 0.0852 0.705 0.0
H2999 H 0.47518 0.1046 0.72008 0.0
H3000 H 0.43546 0.11275 0.74361 0.0
H3001 H 0.41484 0.09599 0.72702 0.0
H3002 H 0.40821 0.1253 0.73097 0.0
H3003 H 0.41367 0.16177 0.65182 0.0
H3004 H 0.38469 0.13263 0.63653 0.0
H3005 H 0.40107 0.09013 0.6909 0.0
C3006 C 0.46108 0.1524 0.72727 0.0
C3007 C 0.46408 0.17574 0.7277 0.0
C3008 C 0.45754 0.18851 0.70921 0.0
C3009 C 0.44629 0.178 0.69103 0.0
C3010 C 0.4418 0.15485 0.69185 0.0
C3011 C 0.44913 0.14239 0.70965 0.0
C3012 C 0.43943 0.11871 0.70864 0.0
C3013 C 0.46212 0.10294 0.70599 0.0
C3014 C 0.42358 0.11287 0.72874 0.0
C3015 C 0.42344 0.12001 0.68838 0.0
C3016 C 0.42594 0.14053 0.67818 0.0
C3017 C 0.41198 0.14554 0.65953 0.0
C3018 C 0.39535 0.12902 0.65111 0.0
C3019 C 0.39196 0.10833 0.66202 0.0
C3020 C 0.40552 0.10446 0.68118 0.0
H3021 H 0.02202 0.93064 0.08266 0.0
H3022 H 0.03432 0.8733 0.04081 0.0
H3023 H 0.06218 0.89628 0.01784 0.0
H3024 H 0.02817 0.97508 0.0367 0.0
H3025 H 0.04352 0.99453 0.05508 0.0
H3026 H 0.01963 0.97555 0.06475 0.0
H3027 H 0.05084 0.96071 0.09386 0.0
H3028 H 0.07517 0.97915 0.084 0.0
H3029 H 0.0804 0.94923 0.08538 0.0
H3030 H 0.0924 0.92368 1.00236 0.0
H3031 H 0.12372 0.95269 0.9957 0.0
H3032 H 0.09554 0.99204 0.04951 0.0
C3033 C 0.02967 0.92335 0.06805 0.0
C3034 C 0.0256 0.90039 0.06322 0.0
C3035 C 0.03651 0.89102 0.0444 0.0
C3036 C 0.05247 0.90394 0.03131 0.0
C3037 C 0.05691 0.9263 0.03705 0.0
C3038 C 0.04548 0.93611 0.05471 0.0
C3039 C 0.05574 0.95966 0.05866 0.0
C3040 C 0.03558 0.97727 0.05348 0.0
C3041 C 0.06619 0.96237 0.08182 0.0
C3042 C 0.07638 0.96068 0.04194 0.0
C3043 C 0.0759 0.94165 0.02906 0.0
C3044 C 0.09299 0.93859 0.01244 0.0
C3045 C 0.11124 0.95522 0.00908 0.0
C3046 C 0.11315 0.97431 0.02284 0.0
C3047 C 0.09493 0.97738 0.03908 0.0
H3048 H 0.07087 0.5859 0.30917 0.0
H3049 H 0.10275 0.57057 0.3722 0.0
H3050 H 0.10656 0.53076 0.36163 0.0
H3051 H 0.036 0.53308 0.30017 0.0
H3052 H 0.04391 0.53208 0.27191 0.0
H3053 H 0.04173 0.55884 0.28546 0.0
H3054 H 0.08713 0.56836 0.27307 0.0
H3055 H 0.08936 0.54134 0.26006 0.0
H3056 H 0.11248 0.54964 0.28013 0.0
H3057 H 0.10915 0.49312 0.34383 0.0
H3058 H 0.11284 0.46065 0.31881 0.0
H3059 H 0.07935 0.49966 0.26734 0.0
C3060 C 0.07839 0.57408 0.32078 0.0
C3061 C 0.08658 0.58136 0.34153 0.0
C3062 C 0.09671 0.56546 0.35615 0.0
C3063 C 0.09869 0.54275 0.35037 0.0
C3064 C 0.0906 0.53613 0.32982 0.0
C3065 C 0.08088 0.55132 0.31513 0.0
C3066 C 0.07568 0.54004 0.29345 0.0
C3067 C 0.04761 0.54109 0.2874 0.0
C3068 C 0.09215 0.55046 0.27563 0.0
C3069 C 0.08356 0.51615 0.29839 0.0
C3070 C 0.09209 0.51427 0.31949 0.0
C3071 C 0.10206 0.49427 0.32741 0.0
C3072 C 0.1039 0.47589 0.31324 0.0
C3073 C 0.09552 0.47754 0.29155 0.0
C3074 C 0.08483 0.4978 0.28415 0.0
H3075 H 0.65519 0.88181 0.50444 0.0
H3076 H 0.63354 0.81594 0.52843 0.0
H3077 H 0.67696 0.80935 0.54047 0.0
H3078 H 0.71273 0.8653 0.4826 0.0
H3079 H 0.73028 0.89028 0.48991 0.0
H3080 H 0.69668 0.8917 0.48585 0.0
H3081 H 0.69164 0.90855 0.52426 0.0
H3082 H 0.7253 0.9071 0.52848 0.0
H3083 H 0.70417 0.89372 0.5473 0.0
H3084 H 0.72208 0.80754 0.54663 0.0
H3085 H 0.76835 0.81014 0.54537 0.0
H3086 H 0.76286 0.87677 0.51726 0.0
C3087 C 0.65964 0.86624 0.51259 0.0
C3088 C 0.64108 0.84936 0.51544 0.0
C3089 C 0.64753 0.82902 0.52587 0.0
C3090 C 0.6721 0.82517 0.533 0.0
C3091 C 0.6901 0.84181 0.52962 0.0
C3092 C 0.68438 0.86194 0.51967 0.0
C3093 C 0.70812 0.87593 0.51637 0.0
C3094 C 0.71218 0.88109 0.49225 0.0
C3095 C 0.70725 0.89761 0.52991 0.0
C3096 C 0.72795 0.85993 0.52505 0.0
C3097 C 0.71692 0.84062 0.53304 0.0
C3098 C 0.73106 0.82268 0.54069 0.0
C3099 C 0.75732 0.82426 0.53979 0.0
C3100 C 0.76918 0.84359 0.53116 0.0
C3101 C 0.75428 0.86186 0.52413 0.0
H3102 H 0.55867 0.58578 0.71171 0.0
H3103 H 0.56319 0.53588 0.66136 0.0
H3104 H 0.56836 0.50573 0.68908 0.0
H3105 H 0.60823 0.55763 0.7471 0.0
H3106 H 0.59229 0.57087 0.76942 0.0
H3107 H 0.59266 0.58391 0.74302 0.0
H3108 H 0.54131 0.58404 0.74696 0.0
H3109 H 0.54404 0.56873 0.77199 0.0
H3110 H 0.52586 0.55731 0.74977 0.0
H3111 H 0.56442 0.48166 0.72491 0.0
H3112 H 0.5632 0.4677 0.76292 0.0
H3113 H 0.56884 0.53594 0.78658 0.0
C3114 C 0.56087 0.56845 0.70668 0.0
C3115 C 0.55779 0.56228 0.68512 0.0
C3116 C 0.56271 0.54006 0.67834 0.0
C3117 C 0.56622 0.52312 0.69386 0.0
C3118 C 0.56624 0.52954 0.71561 0.0
C3119 C 0.56531 0.5519 0.72167 0.0
C3120 C 0.56689 0.55524 0.74553 0.0
C3121 C 0.59144 0.56767 0.7517 0.0
C3122 C 0.54317 0.56706 0.75409 0.0
C3123 C 0.56762 0.5313 0.75242 0.0
C3124 C 0.56668 0.51642 0.73522 0.0
C3125 C 0.56542 0.49325 0.73844 0.0
C3126 C 0.56509 0.48544 0.75989 0.0
C3127 C 0.56603 0.50083 0.77736 0.0
C3128 C 0.56789 0.52386 0.77344 0.0
H3129 H 0.64443 0.15807 0.02481 0.0
H3130 H 0.64369 0.11902 0.96533 0.0
H3131 H 0.68927 0.11142 0.97014 0.0
H3132 H 0.70394 0.18405 0.01663 0.0
H3133 H 0.71292 0.18355 0.04482 0.0
H3134 H 0.68008 0.18469 0.03731 0.0
H3135 H 0.6713 0.14887 0.05987 0.0
H3136 H 0.70417 0.14759 0.06739 0.0
H3137 H 0.68907 0.12374 0.05457 0.0
H3138 H 0.73547 0.10958 0.98079 0.0
H3139 H 0.77847 0.11415 0.99596 0.0
H3140 H 0.74849 0.15452 0.04837 0.0
C3141 C 0.65374 0.14774 0.01285 0.0
C3142 C 0.64046 0.13909 0.99468 0.0
C3143 C 0.65348 0.12586 0.97934 0.0
C3144 C 0.67933 0.12139 0.98198 0.0
C3145 C 0.69186 0.13032 1.00003 0.0
C3146 C 0.67947 0.14324 0.01518 0.0
C3147 C 0.69739 0.15169 0.03263 0.0
C3148 C 0.69865 0.17753 0.03285 0.0
C3149 C 0.69004 0.14241 0.05493 0.0
C3150 C 0.7219 0.1417 0.02485 0.0
C3151 C 0.71833 0.12934 0.00609 0.0
C3152 C 0.73843 0.11915 0.99552 0.0
C3153 C 0.7628 0.1219 0.00424 0.0
C3154 C 0.76688 0.13474 0.02334 0.0
C3155 C 0.74602 0.14452 0.03383 0.0
H3156 H 0.34726 0.07613 0.54599 0.0
H3157 H 0.3038 0.12042 0.58708 0.0
H3158 H 0.287 0.13965 0.5548 0.0
H3159 H 0.36125 0.11604 0.50214 0.0
H3160 H 0.35628 0.09533 0.48115 0.0
H3161 H 0.36753 0.08683 0.50746 0.0
H3162 H 0.33026 0.0587 0.51056 0.0
H3163 H 0.3189 0.06706 0.48429 0.0
H3164 H 0.2984 0.06865 0.50742 0.0
H3165 H 0.27197 0.1516 0.51924 0.0
H3166 H 0.25752 0.1548 0.48135 0.0
H3167 H 0.30998 0.10284 0.46234 0.0
C3168 C 0.33457 0.09016 0.54804 0.0
C3169 C 0.32685 0.09706 0.5688 0.0
C3170 C 0.30977 0.115 0.57116 0.0
C3171 C 0.30033 0.1261 0.55299 0.0
C3172 C 0.308 0.11882 0.53266 0.0
C3173 C 0.32452 0.10116 0.52998 0.0
C3174 C 0.32737 0.09517 0.50626 0.0
C3175 C 0.35474 0.09856 0.49882 0.0
C3176 C 0.31818 0.07097 0.50188 0.0
C3177 C 0.30985 0.11227 0.49611 0.0
C3178 C 0.29904 0.12577 0.51172 0.0
C3179 C 0.28059 0.14149 0.50676 0.0
C3180 C 0.27251 0.14319 0.48528 0.0
C3181 C 0.28306 0.12942 0.46908 0.0
C3182 C 0.3023 0.11407 0.47443 0.0
H3183 H 0.09655 0.9965 0.6685 0.0
H3184 H 0.13664 0.05429 0.64343 0.0
H3185 H 0.14166 0.06925 0.6809 0.0
H3186 H 0.06146 0.02401 0.70696 0.0
H3187 H 0.0632 1.00231 0.72719 0.0
H3188 H 0.06576 0.99511 0.699 0.0
H3189 H 0.10872 0.97596 0.70642 0.0
H3190 H 0.10625 0.983 0.73474 0.0
H3191 H 0.13367 0.99162 0.71968 0.0
H3192 H 0.13693 0.07988 0.72068 0.0
H3193 H 0.12514 0.08421 0.75938 0.0
H3194 H 0.08926 0.01881 0.75808 0.0
C3195 C 0.10685 0.01208 0.67101 0.0
C3196 C 0.11628 0.02434 0.65325 0.0
C3197 C 0.12959 0.04465 0.65697 0.0
C3198 C 0.13241 0.05322 0.67813 0.0
C3199 C 0.1222 0.04098 0.6953 0.0
C3200 C 0.11005 0.02063 0.69194 0.0
C3201 C 0.09963 0.01119 0.7128 0.0
C3202 C 0.07081 0.00798 0.71139 0.0
C3203 C 0.11286 0.98913 0.71876 0.0
C3204 C 0.10681 0.02982 0.7284 0.0
C3205 C 0.12004 0.04679 0.71809 0.0
C3206 C 0.12711 0.06647 0.72897 0.0
C3207 C 0.12038 0.06882 0.75083 0.0
C3208 C 0.10682 0.05163 0.76148 0.0
C3209 C 0.10016 0.03186 0.75022 0.0
H3210 H 0.27876 0.03348 0.03071 0.0
H3211 H 0.25052 0.96803 0.05 0.0
H3212 H 0.29424 0.95612 0.05834 0.0
H3213 H 0.33315 0.01393 0.00439 0.0
H3214 H 0.35267 0.03742 0.01257 0.0
H3215 H 0.31911 0.04087 0.00974 0.0
H3216 H 0.31703 0.05547 0.04934 0.0
H3217 H 0.35061 0.05184 0.05222 0.0
H3218 H 0.32941 0.03841 0.07096 0.0
H3219 H 0.34203 0.95001 0.05955 0.0
H3220 H 0.38873 0.95152 0.05684 0.0
H3221 H 0.38472 0.02201 0.03992 0.0
C3222 C 0.28168 0.0168 0.0372 0.0
C3223 C 0.2612 1.00176 0.03996 0.0
C3224 C 0.26586 0.97998 0.04816 0.0
C3225 C 0.29067 0.97303 0.05278 0.0
C3226 C 0.31051 0.98817 0.0494 0.0
C3227 C 0.30617 0.00972 0.04208 0.0
C3228 C 0.33064 0.02255 0.03892 0.0
C3229 C 0.33408 0.02906 0.01499 0.0
C3230 C 0.332 0.0433 0.05376 0.0
C3231 C 0.34953 0.00494 0.04571 0.0
C3232 C 0.33767 0.98505 0.05133 0.0
C3233 C 0.35147 0.96569 0.0558 0.0
C3234 C 0.37797 0.96669 0.0543 0.0
C3235 C 0.3904 0.98702 0.04887 0.0
C3236 C 0.37587 0.00642 0.04493 0.0
H3237 H 0.26927 0.05625 0.27885 0.0
H3238 H 0.32799 0.10283 0.3001 0.0
H3239 H 0.34008 0.07689 0.32894 0.0
H3240 H 0.2519 0.03764 0.33191 0.0
H3241 H 0.24721 0.00839 0.32507 0.0
H3242 H 0.24198 0.02983 0.305 0.0
H3243 H 0.27357 0.01221 0.2788 0.0
H3244 H 0.27846 0.98965 0.29771 0.0
H3245 H 0.30502 0.00578 0.28808 0.0
H3246 H 0.34841 0.04534 0.35395 0.0
H3247 H 0.35042 0.01021 0.37527 0.0
H3248 H 0.28602 0.98368 0.33985 0.0
C3249 C 0.28474 0.06097 0.28948 0.0
C3250 C 0.29752 0.08185 0.287 0.0
C3251 C 0.3175 0.08729 0.30159 0.0
C3252 C 0.32471 0.07253 0.31806 0.0
C3253 C 0.31193 0.05217 0.31994 0.0
C3254 C 0.29226 0.04634 0.3062 0.0
C3255 C 0.28181 0.02326 0.312 0.0
C3256 C 0.25408 0.02485 0.31892 0.0
C3257 C 0.28491 0.00675 0.29302 0.0
C3258 C 0.29888 0.01706 0.33097 0.0
C3259 C 0.31628 0.03398 0.33502 0.0
C3260 C 0.33485 0.03199 0.35099 0.0
C3261 C 0.33587 0.01208 0.36303 0.0
C3262 C 0.31834 0.99452 0.35927 0.0
C3263 C 0.29939 0.99711 0.34319 0.0
H3264 H 0.5434 0.36202 0.04019 0.0
H3265 H 0.59345 0.33623 0.08994 0.0
H3266 H 0.56178 0.30739 0.09922 0.0
H3267 H 0.48354 0.34971 0.06937 0.0
H3268 H 0.46655 0.34147 0.04521 0.0
H3269 H 0.49165 0.36201 0.04367 0.0
H3270 H 0.51429 0.33793 0.01484 0.0
H3271 H 0.48858 0.31804 0.01614 0.0
H3272 H 0.52034 0.30879 0.02022 0.0
H3273 H 0.5272 0.28007 0.10187 0.0
H3274 H 0.48992 0.25562 0.09906 0.0
H3275 H 0.46129 0.29598 0.04593 0.0
C3276 C 0.54743 0.35047 0.05323 0.0
C3277 C 0.57103 0.35135 0.06437 0.0
C3278 C 0.57564 0.33589 0.08123 0.0
C3279 C 0.55774 0.31941 0.08658 0.0
C3280 C 0.53533 0.31822 0.07467 0.0
C3281 C 0.52993 0.33327 0.05833 0.0
C3282 C 0.50451 0.32741 0.04775 0.0
C3283 C 0.48543 0.34627 0.05175 0.0
C3284 C 0.50716 0.32276 0.02334 0.0
C3285 C 0.49719 0.30619 0.06017 0.0
C3286 C 0.51521 0.30164 0.07581 0.0
C3287 C 0.51292 0.28345 0.08974 0.0
C3288 C 0.49155 0.26961 0.08798 0.0
C3289 C 0.47253 0.27366 0.07225 0.0
C3290 C 0.47555 0.29222 0.05799 0.0
H3291 H 0.9637 0.26094 0.03453 0.0
H3292 H 0.96099 0.25716 0.96429 0.0
H3293 H 0.96371 0.29834 0.96235 0.0
H3294 H 0.92677 0.31447 0.03843 0.0
H3295 H 0.94527 0.32441 0.06116 0.0
H3296 H 0.94 0.29469 0.05732 0.0
H3297 H 0.98837 0.28825 0.05799 0.0
H3298 H 0.99381 0.31791 0.06157 0.0
H3299 H 0.0081 0.30332 0.03921 0.0
H3300 H 0.97193 0.3388 0.96748 0.0
H3301 H 0.98188 0.37714 0.97957 0.0
H3302 H 0.97855 0.35599 0.04654 0.0
C3303 C 0.9629 0.2688 0.01876 0.0
C3304 C 0.96201 0.25574 0.99955 0.0
C3305 C 0.96138 0.26671 0.97924 0.0
C3306 C 0.96304 0.29013 0.97795 0.0
C3307 C 0.96485 0.30241 0.99711 0.0
C3308 C 0.96433 0.29225 0.01716 0.0
C3309 C 0.96756 0.30947 0.03517 0.0
C3310 C 0.94347 0.31084 0.04883 0.0
C3311 C 0.99085 0.30443 0.04931 0.0
C3312 C 0.97124 0.33068 0.02203 0.0
C3313 C 0.96921 0.32616 1.00012 0.0
C3314 C 0.97278 0.3427 0.9846 0.0
C3315 C 0.97813 0.36454 0.99163 0.0
C3316 C 0.97994 0.36975 0.01395 0.0
C3317 C 0.97674 0.35252 0.02937 0.0
H3318 H 0.00967 0.67265 0.1006 0.0
H3319 H 0.9803 0.67206 0.16612 0.0
H3320 H 0.98923 0.71258 0.16939 0.0
H3321 H 0.06052 0.71186 0.11093 0.0
H3322 H 0.0576 0.72601 0.08528 0.0
H3323 H 0.04857 0.69688 0.08755 0.0
H3324 H 0.00412 0.70609 0.07263 0.0
H3325 H 0.01304 0.73524 0.07027 0.0
H3326 H 0.9856 0.72744 0.08571 0.0
H3327 H 0.00134 0.75256 0.16617 0.0
H3328 H 0.01603 0.79048 0.15664 0.0
H3329 H 0.03812 0.76622 0.09312 0.0
C3330 C 0.00505 0.68105 0.11562 0.0
C3331 C 0.99424 0.66907 0.13316 0.0
C3332 C 0.98859 0.68075 0.15251 0.0
C3333 C 0.99358 0.70381 0.15452 0.0
C3334 C 0.00429 0.71504 0.13706 0.0
C3335 C 0.00999 0.70416 0.11796 0.0
C3336 C 0.02168 0.7204 0.10182 0.0
C3337 C 0.0487 0.71336 0.09607 0.0
C3338 C 0.00511 0.72241 0.0814 0.0
C3339 C 0.02163 0.74203 0.11496 0.0
C3340 C 0.01146 0.73844 0.1352 0.0
C3341 C 0.00933 0.75563 0.15037 0.0
C3342 C 0.01778 0.77715 0.14477 0.0
C3343 C 0.02829 0.78144 0.12413 0.0
C3344 C 0.03022 0.76354 0.10904 0.0
H3345 H 0.5787 0.73457 0.62961 0.0
H3346 H 0.58275 0.68527 0.57009 0.0
H3347 H 0.55633 0.69742 0.58347 0.0
H3348 H 0.54655 0.7514 0.67136 0.0
H3349 H 0.5621 0.77903 0.66956 0.0
H3350 H 0.57773 0.75478 0.66455 0.0
H3351 H 0.59302 0.77785 0.63853 0.0
H3352 H 0.57017 0.79813 0.63077 0.0
H3353 H 0.58206 0.77713 0.61207 0.0
H3354 H 0.48651 0.70577 0.58122 0.0
H3355 H 0.45234 0.7306 0.56857 0.0
H3356 H 0.47596 0.78325 0.60904 0.0
C3357 C 0.59411 0.72735 0.62184 0.0
C3358 C 0.59746 0.70909 0.59914 0.0
C3359 C 0.57282 0.69709 0.58291 0.0
C3360 C 0.53904 0.70055 0.58733 0.0
C3361 C 0.52787 0.71678 0.60865 0.0
C3362 C 0.56314 0.73529 0.63128 0.0
C3363 C 0.55268 0.76399 0.63625 0.0
C3364 C 0.5589 0.7625 0.66168 0.0
C3365 C 0.57546 0.78021 0.62885 0.0
C3366 C 0.50255 0.75522 0.60993 0.0
C3367 C 0.50263 0.73064 0.60239 0.0
C3368 C 0.48505 0.72268 0.58745 0.0
C3369 C 0.46608 0.73682 0.5801 0.0
C3370 C 0.46389 0.7587 0.58811 0.0
C3371 C 0.48133 0.76757 0.60249 0.0
H3372 H 0.96723 0.78005 0.39776 0.0
H3373 H 0.9698 0.78775 0.46754 0.0
H3374 H 0.96288 0.74704 0.47177 0.0
H3375 H 0.91975 0.72797 0.40159 0.0
H3376 H 0.93354 0.71599 0.37766 0.0
H3377 H 0.93023 0.746 0.38009 0.0
H3378 H 0.97686 0.75146 0.37281 0.0
H3379 H 0.98114 0.72193 0.37042 0.0
H3380 H 1.00009 0.73821 0.3895 0.0
H3381 H 0.96419 0.7049 0.4684 0.0
H3382 H 0.97549 0.66629 0.45774 0.0
H3383 H 0.97939 0.68713 0.39131 0.0
C3384 C 0.9654 0.77325 0.41391 0.0
C3385 C 0.96932 0.78702 0.43226 0.0
C3386 C 0.96688 0.77755 0.45318 0.0
C3387 C 0.96278 0.75439 0.45578 0.0
C3388 C 0.96053 0.74099 0.43732 0.0
C3389 C 0.96111 0.75019 0.41675 0.0
C3390 C 0.96096 0.73199 0.39962 0.0
C3391 C 0.93458 0.73036 0.38913 0.0
C3392 C 0.9811 0.73604 0.38218 0.0
C3393 C 0.96572 0.71156 0.41374 0.0
C3394 C 0.96279 0.71675 0.43537 0.0
C3395 C 0.96592 0.70056 0.45145 0.0
C3396 C 0.97231 0.67857 0.44525 0.0
C3397 C 0.97685 0.67319 0.4233 0.0
C3398 C 0.97401 0.69019 0.40767 0.0
H3399 H 0.08261 0.33994 0.26292 0.0
H3400 H 0.06948 0.30618 0.32401 0.0
H3401 H 0.03155 0.32909 0.32984 0.0
H3402 H 0.06016 0.39554 0.28458 0.0
H3403 H 0.04823 0.40348 0.25855 0.0
H3404 H 0.07537 0.38498 0.26092 0.0
H3405 H 0.05045 0.35559 0.23617 0.0
H3406 H 0.0222 0.37247 0.23544 0.0
H3407 H 0.02104 0.34446 0.24591 0.0
H3408 H 0.9928 0.354 0.3276 0.0
H3409 H 0.95696 0.37813 0.31714 0.0
H3410 H 0.99566 0.39703 0.25839 0.0
C3411 C 0.07188 0.3375 0.27761 0.0
C3412 C 0.07919 0.32119 0.29298 0.0
C3413 C 0.06454 0.31866 0.31202 0.0
C3414 C 0.04285 0.33161 0.31551 0.0
C3415 C 0.03612 0.34748 0.30004 0.0
C3416 C 0.05035 0.35063 0.28164 0.0
C3417 C 0.03904 0.36891 0.26773 0.0
C3418 C 0.05675 0.38944 0.26776 0.0
C3419 C 0.03291 0.35991 0.24493 0.0
C3420 C 0.01525 0.37437 0.28006 0.0
C3421 C 0.01426 0.36222 0.29906 0.0
C3422 C 0.99373 0.36389 0.31296 0.0
C3423 C 0.97356 0.37785 0.30699 0.0
C3424 C 0.97394 0.39012 0.28737 0.0
C3425 C 0.9953 0.38859 0.27389 0.0
H3426 H 0.52663 0.67954 0.82909 0.0
H3427 H 0.52585 0.67038 0.89861 0.0
H3428 H 0.52721 0.71183 0.90381 0.0
H3429 H 0.56714 0.72786 0.82693 0.0
H3430 H 0.54945 0.74116 0.80556 0.0
H3431 H 0.54981 0.71098 0.80755 0.0
H3432 H 0.50096 0.71001 0.80885 0.0
H3433 H 0.50033 0.74016 0.80668 0.0
H3434 H 0.48481 0.72644 0.82898 0.0
H3435 H 0.53047 0.75404 0.90086 0.0
H3436 H 0.52922 0.79417 0.89037 0.0
H3437 H 0.5234 0.77485 0.82278 0.0
C3438 C 0.527 0.68637 0.84537 0.0
C3439 C 0.5267 0.67225 0.86353 0.0
C3440 C 0.52645 0.68133 0.88464 0.0
C3441 C 0.52725 0.70468 0.88768 0.0
C3442 C 0.52777 0.71832 0.86936 0.0
C3443 C 0.52715 0.70948 0.84863 0.0
C3444 C 0.52613 0.72761 0.83165 0.0
C3445 C 0.54953 0.72685 0.81707 0.0
C3446 C 0.50159 0.72595 0.81826 0.0
C3447 C 0.52643 0.74814 0.84603 0.0
C3448 C 0.52785 0.74248 0.8677 0.0
C3449 C 0.52917 0.7587 0.88397 0.0
C3450 C 0.5286 0.78134 0.87789 0.0
C3451 C 0.52614 0.78731 0.85583 0.0
C3452 C 0.52514 0.77055 0.83975 0.0
H3453 H 0.41637 0.97578 0.75331 0.0
H3454 H 0.40548 0.04465 0.77475 0.0
H3455 H 0.41378 0.05806 0.73839 0.0
H3456 H 0.46794 0.98973 0.7148 0.0
H3457 H 0.45765 0.96951 0.69476 0.0
H3458 H 0.4519 0.96438 0.72307 0.0
H3459 H 0.40422 0.95982 0.71551 0.0
H3460 H 0.41031 0.96458 0.68737 0.0
H3461 H 0.38759 0.98174 0.70144 0.0
H3462 H 0.42356 0.06419 0.7024 0.0
H3463 H 0.43156 0.06659 0.66355 0.0
H3464 H 0.43557 0.99347 0.66122 0.0
C3465 C 0.41597 0.99366 0.75023 0.0
C3466 C 0.4097 0.00909 0.76689 0.0
C3467 C 0.40937 0.03237 0.76229 0.0
C3468 C 0.41444 0.04026 0.74163 0.0
C3469 C 0.42017 0.02478 0.72559 0.0
C3470 C 0.42115 1.00205 0.72939 0.0
C3471 C 0.4272 0.98956 0.70847 0.0
C3472 C 0.4527 0.97758 0.7104 0.0
C3473 C 0.40596 0.97295 0.70285 0.0
C3474 C 0.42864 0.00899 0.69233 0.0
C3475 C 0.42504 0.02888 0.70313 0.0
C3476 C 0.42623 0.04933 0.69299 0.0
C3477 C 0.43092 0.0502 0.67088 0.0
C3478 C 0.434 0.0303 0.65859 0.0
C3479 C 0.43305 0.0092 0.66972 0.0
H3480 H 0.32236 0.3138 0.07367 0.0
H3481 H 0.28043 0.25362 0.05541 0.0
H3482 H 0.29533 0.25752 0.01795 0.0
H3483 H 0.31136 0.34377 0.02488 0.0
H3484 H 0.34236 0.35637 0.02371 0.0
H3485 H 0.3288 0.3493 0.04952 0.0
H3486 H 0.36716 0.32282 0.05959 0.0
H3487 H 0.38088 0.33363 0.03514 0.0
H3488 H 0.3781 0.30383 0.03876 0.0
H3489 H 0.31612 0.26712 0.98275 0.0
H3490 H 0.34591 0.27888 0.95419 0.0
H3491 H 0.37366 0.33272 0.9953 0.0
C3492 C 0.31678 0.30116 0.0619 0.0
C3493 C 0.30026 0.28345 0.06744 0.0
C3494 C 0.29325 0.26728 0.05158 0.0
C3495 C 0.30141 0.26946 0.03018 0.0
C3496 C 0.31704 0.28755 0.02509 0.0
C3497 C 0.32515 0.3028 0.04059 0.0
C3498 C 0.34242 0.32043 0.03103 0.0
C3499 C 0.33051 0.34386 0.03237 0.0
C3500 C 0.36866 0.32013 0.04183 0.0
C3501 C 0.34357 0.31222 0.00792 0.0
C3502 C 0.3284 0.29347 0.00469 0.0
C3503 C 0.32803 0.28178 0.98512 0.0
C3504 C 0.34498 0.28849 0.96905 0.0
C3505 C 0.36198 0.3065 0.97283 0.0
C3506 C 0.36036 0.31922 0.99195 0.0
H3507 H 0.97597 0.97719 0.273 0.0
H3508 H 0.01907 0.03443 0.24951 0.0
H3509 H 0.0205 0.05027 0.28609 0.0
H3510 H 0.93892 0.00504 0.31073 0.0
H3511 H 0.94073 0.98399 0.3316 0.0
H3512 H 0.94397 0.97601 0.30362 0.0
H3513 H 0.98717 0.9578 0.31198 0.0
H3514 H 0.98392 0.9654 0.34009 0.0
H3515 H 0.01148 0.97417 0.3253 0.0
H3516 H 0.01386 0.0621 0.32397 0.0
H3517 H 0.0048 0.06646 0.36288 0.0
H3518 H 0.9684 1.00091 0.36301 0.0
C3519 C 0.98605 0.99285 0.2756 0.0
C3520 C 0.99666 0.00484 0.25811 0.0
C3521 C 0.00985 0.02526 0.26233 0.0
C3522 C 0.01104 0.03437 0.28316 0.0
C3523 C 0.9995 0.02265 0.29982 0.0
C3524 C 0.98783 1.00208 0.29649 0.0
C3525 C 0.97719 0.99301 0.31747 0.0
C3526 C 0.9485 0.98931 0.31574 0.0
C3527 C 0.99075 0.97131 0.3241 0.0
C3528 C 0.98373 0.01223 0.33274 0.0
C3529 C 0.99666 0.0291 0.32218 0.0
C3530 C 0.00401 0.04891 0.33257 0.0
C3531 C 0.9985 0.05138 0.35458 0.0
C3532 C 0.9859 0.03408 0.36595 0.0
C3533 C 0.97827 0.01434 0.35477 0.0
H3534 H 0.23465 0.78255 0.48659 0.0
H3535 H 0.25933 0.80112 0.42298 0.0
H3536 H 0.3023 0.79726 0.43435 0.0
H3537 H 0.27123 0.8145 0.51895 0.0
H3538 H 0.27582 0.7925 0.53852 0.0
H3539 H 0.2482 0.79227 0.52179 0.0
H3540 H 0.25949 0.75183 0.50818 0.0
H3541 H 0.28738 0.75223 0.52494 0.0
H3542 H 0.28998 0.74697 0.49631 0.0
H3543 H 0.37466 0.82377 0.46804 0.0
H3544 H 0.39997 0.82222 0.49895 0.0
H3545 H 0.31706 0.78171 0.53508 0.0
C3546 C 0.24962 0.78694 0.47547 0.0
C3547 C 0.24395 0.79326 0.45433 0.0
C3548 C 0.26348 0.79755 0.43982 0.0
C3549 C 0.28854 0.79712 0.44694 0.0
C3550 C 0.29433 0.79538 0.46938 0.0
C3551 C 0.27458 0.7882 0.48269 0.0
C3552 C 0.28275 0.78223 0.50479 0.0
C3553 C 0.26872 0.79621 0.52197 0.0
C3554 C 0.27973 0.75683 0.50877 0.0
C3555 C 0.30981 0.78869 0.50338 0.0
C3556 C 0.31945 0.79769 0.4825 0.0
C3557 C 0.36474 0.81462 0.48094 0.0
C3558 C 0.38113 0.81517 0.50025 0.0
C3559 C 0.37002 0.80503 0.52048 0.0
C3560 C 0.32756 0.78972 0.52179 0.0
H3561 H 0.76503 0.48412 1.00074 0.0
H3562 H 0.77917 0.41344 0.01223 0.0
H3563 H 0.73445 0.40783 0.02191 0.0
H3564 H 0.72334 0.49396 0.04236 0.0
H3565 H 0.70182 0.51157 0.0275 0.0
H3566 H 0.73441 0.51006 0.01958 0.0
H3567 H 0.72145 0.49787 0.98069 0.0
H3568 H 0.68877 0.50016 0.98824 0.0
H3569 H 0.70035 0.47425 0.97702 0.0
H3570 H 0.68951 0.41094 0.03441 0.0
H3571 H 0.64478 0.42068 0.04139 0.0
H3572 H 0.65924 0.48861 0.01995 0.0
C3573 C 0.75853 0.46736 0.00474 0.0
C3574 C 0.7756 0.44924 0.00575 0.0
C3575 C 0.76642 0.42755 0.01112 0.0
C3576 C 0.74109 0.42423 0.01688 0.0
C3577 C 0.725 0.44265 0.01667 0.0
C3578 C 0.73311 0.46361 0.00998 0.0
C3579 C 0.71176 0.48044 0.01074 0.0
C3580 C 0.71823 0.50017 0.02596 0.0
C3581 C 0.7052 0.48867 0.98781 0.0
C3582 C 0.69072 0.46594 0.01982 0.0
C3583 C 0.69881 0.44422 0.02318 0.0
C3584 C 0.68286 0.42783 0.03164 0.0
C3585 C 0.65765 0.4335 0.03582 0.0
C3586 C 0.64845 0.4552 0.03133 0.0
C3587 C 0.66555 0.47181 0.02377 0.0
H3588 H 0.77953 0.49771 0.24791 0.0
H3589 H 0.79151 0.43366 0.27863 0.0
H3590 H 0.78372 0.45072 0.31453 0.0
H3591 H 0.78869 0.5544 0.27838 0.0
H3592 H 0.77201 0.54069 0.25668 0.0
H3593 H 0.80169 0.5303 0.26452 0.0
H3594 H 0.73397 0.52463 0.27147 0.0
H3595 H 0.73952 0.54539 0.29235 0.0
H3596 H 0.73223 0.51674 0.29945 0.0
H3597 H 0.78415 0.47379 0.35137 0.0
H3598 H 0.79694 0.51366 0.36241 0.0
H3599 H 0.78793 0.56325 0.31682 0.0
C3600 C 0.7797 0.48749 0.26237 0.0
C3601 C 0.78635 0.46467 0.261 0.0
C3602 C 0.78643 0.45122 0.27971 0.0
C3603 C 0.7816 0.46067 0.3 0.0
C3604 C 0.77587 0.48342 0.3012 0.0
C3605 C 0.77432 0.49697 0.28267 0.0
C3606 C 0.77092 0.52218 0.28748 0.0
C3607 C 0.78426 0.53777 0.27106 0.0
C3608 C 0.74252 0.52754 0.28773 0.0
C3609 C 0.78084 0.52377 0.31051 0.0
C3610 C 0.77848 0.49748 0.32003 0.0
C3611 C 0.78628 0.49134 0.3465 0.0
C3612 C 0.80066 0.52542 0.36596 0.0
C3613 C 0.79879 0.54855 0.35155 0.0
C3614 C 0.7902 0.54729 0.32489 0.0
H3615 H 0.68366 0.56888 0.56775 0.0
H3616 H 0.61418 0.56622 0.51848 0.0
H3617 H 0.63407 0.57759 0.48329 0.0
H3618 H 0.73751 0.61739 0.53518 0.0
H3619 H 0.76534 0.60139 0.53966 0.0
H3620 H 0.74 0.60098 0.5593 0.0
H3621 H 0.7366 0.55815 0.5575 0.0
H3622 H 0.76517 0.56109 0.54199 0.0
H3623 H 0.73984 0.54417 0.53196 0.0
H3624 H 0.68899 0.60116 0.44181 0.0
H3625 H 0.73589 0.62006 0.43161 0.0
H3626 H 0.78109 0.60091 0.50027 0.0
C3627 C 0.67683 0.57342 0.55204 0.0
C3628 C 0.647 0.567 0.54429 0.0
C3629 C 0.63386 0.57067 0.5204 0.0
C3630 C 0.64557 0.57825 0.49782 0.0
C3631 C 0.67452 0.58306 0.49612 0.0
C3632 C 0.69778 0.58159 0.53362 0.0
C3633 C 0.73283 0.58069 0.53025 0.0
C3634 C 0.74455 0.60132 0.54176 0.0
C3635 C 0.74425 0.55979 0.54104 0.0
C3636 C 0.74168 0.58075 0.50097 0.0
C3637 C 0.70013 0.58097 0.47575 0.0
C3638 C 0.70491 0.59781 0.45232 0.0
C3639 C 0.73433 0.61184 0.44713 0.0
C3640 C 0.76259 0.61071 0.46328 0.0
C3641 C 0.76502 0.59825 0.49015 0.0
H3642 H 0.82837 0.48353 0.68188 0.0
H3643 H 0.84623 0.5489 0.65505 0.0
H3644 H 0.85363 0.56403 0.69163 0.0
H3645 H 0.79659 0.50614 0.73106 0.0
H3646 H 0.80849 0.48415 0.74824 0.0
H3647 H 0.80247 0.47864 0.71994 0.0
H3648 H 0.84854 0.46528 0.7153 0.0
H3649 H 0.85475 0.47076 0.74352 0.0
H3650 H 0.8742 0.48371 0.72314 0.0
H3651 H 0.86209 0.57169 0.73012 0.0
H3652 H 0.8708 0.57133 0.76962 0.0
H3653 H 0.84754 0.50161 0.77261 0.0
C3654 C 0.83344 0.50106 0.68392 0.0
C3655 C 0.83625 0.51518 0.66579 0.0
C3656 C 0.84335 0.538 0.66883 0.0
C3657 C 0.84769 0.54672 0.6895 0.0
C3658 C 0.84477 0.53247 0.70707 0.0
C3659 C 0.83764 0.51019 0.70463 0.0
C3660 C 0.83665 0.49854 0.7264 0.0
C3661 C 0.80943 0.49145 0.73173 0.0
C3662 C 0.85462 0.47838 0.72712 0.0
C3663 C 0.84564 0.51744 0.74117 0.0
C3664 C 0.84978 0.53695 0.72963 0.0
C3665 C 0.85875 0.5566 0.73942 0.0
C3666 C 0.86373 0.55629 0.76169 0.0
C3667 C 0.85989 0.53649 0.77371 0.0
C3668 C 0.85058 0.51687 0.76347 0.0
H3669 H 0.44964 0.26296 0.74088 0.0
H3670 H 0.39779 0.2809 0.79195 0.0
H3671 H 0.40519 0.32118 0.78423 0.0
H3672 H 0.49398 0.301 0.75583 0.0
H3673 H 0.50517 0.30708 0.72897 0.0
H3674 H 0.49064 0.28043 0.73449 0.0
H3675 H 0.45837 0.28745 0.70351 0.0
H3676 H 0.47265 0.31446 0.69823 0.0
H3677 H 0.43937 0.31247 0.70388 0.0
H3678 H 0.42372 0.35777 0.77633 0.0
H3679 H 0.45557 0.38778 0.7721 0.0
H3680 H 0.4962 0.34676 0.72624 0.0
C3681 C 0.43913 0.27544 0.74982 0.0
C3682 C 0.42277 0.26914 0.76665 0.0
C3683 C 0.41019 0.28566 0.77884 0.0
C3684 C 0.41407 0.30846 0.77437 0.0
C3685 C 0.43072 0.31423 0.75784 0.0
C3686 C 0.44328 0.29817 0.7459 0.0
C3687 C 0.46394 0.30847 0.73228 0.0
C3688 C 0.48994 0.29867 0.73827 0.0
C3689 C 0.45822 0.30554 0.70803 0.0
C3690 C 0.46183 0.33275 0.73916 0.0
C3691 C 0.44204 0.33579 0.75344 0.0
C3692 C 0.43878 0.35582 0.76473 0.0
C3693 C 0.45693 0.3727 0.7623 0.0
C3694 C 0.47786 0.36936 0.74865 0.0
C3695 C 0.47975 0.34973 0.73614 0.0
loop_
_geom_bond_atom_site_label_1
_geom_bond_atom_site_label_2
_geom_bond_distance
_geom_bond_site_symmetry_2
_ccdc_geom_bond_type
Cu0 N1 1.999 . S
Cu0 O6 1.974 . S
Cu0 N11 1.985 . S
Cu0 O20 1.959 . S
N1 Cu0 1.999 . S
N1 C3 1.263 . S
N1 C5 1.389 . S
N2 C3 1.358 . S
N2 C4 1.400 . S
C3 N1 1.263 . S
C3 N2 1.358 . S
C3 H9 0.930 . S
C4 N2 1.400 . S
C4 C5 1.351 . S
C4 H21 0.930 . S
C5 N1 1.389 . S
C5 C4 1.351 . S
C5 H10 0.930 . S
O6 Cu0 1.974 . S
O6 C16 1.282 . S
C7 O8 1.261 . S
C7 O20 1.251 . S
O8 C7 1.261 . S
H9 C3 0.930 . S
H10 C5 0.930 . S
N11 Cu0 1.985 . S
N11 C13 1.335 . S
N11 C14 1.390 . S
N12 C13 1.345 . S
N12 C15 1.336 . S
C13 N11 1.335 . S
C13 N12 1.345 . S
C13 H18 0.930 . S
C14 N11 1.390 . S
C14 C15 1.346 . S
C14 H19 0.930 . S
C15 N12 1.336 . S
C15 C14 1.346 . S
C15 H22 0.929 . S
C16 O6 1.282 . S
C16 O17 1.216 . S
O17 C16 1.216 . S
H18 C13 0.930 . S
H19 C14 0.930 . S
O20 Cu0 1.959 . S
O20 C7 1.251 . S
H21 C4 0.930 . S
H22 C15 0.929 . S
Cu23 N24 1.999 . S
Cu23 O29 1.974 . S
Cu23 N34 1.971 1_455 S
Cu23 O43 1.959 . S
N24 Cu23 1.999 . S
N24 C26 1.263 . S
N24 C28 1.389 . S
N25 C26 1.358 . S
N25 C27 1.400 . S
C26 N24 1.263 . S
C26 N25 1.358 . S
C26 H32 0.930 . S
C27 N25 1.400 . S
C27 C28 1.351 . S
C27 H44 0.930 . S
C28 N24 1.389 . S
C28 C27 1.351 . S
C28 H33 0.930 . S
O29 Cu23 1.974 . S
O29 C39 1.282 1_455 S
C30 O31 1.261 . S
C30 O43 1.251 1_655 S
O31 C30 1.261 . S
H32 C26 0.930 . S
H33 C28 0.930 . S
N34 Cu23 1.971 1_655 S
N34 C36 1.334 1_655 S
N34 C37 1.406 . S
N35 C36 1.345 1_655 S
N35 C38 1.336 . S
C36 N34 1.334 1_455 S
C36 N35 1.345 1_455 S
C36 H41 0.929 . S
C37 N34 1.406 . S
C37 C38 1.346 . S
C37 H42 0.930 . S
C38 N35 1.336 . S
C38 C37 1.346 . S
C38 H45 0.929 . S
C39 O29 1.282 1_655 S
C39 O40 1.216 . S
O40 C39 1.216 . S
H41 C36 0.929 . S
H42 C37 0.930 . S
O43 Cu23 1.959 . S
O43 C30 1.251 1_455 S
H44 C27 0.930 . S
H45 C38 0.929 . S
Cu46 N47 1.999 . S
Cu46 O52 1.974 . S
Cu46 N57 1.985 . S
Cu46 O66 1.959 . S
N47 Cu46 1.999 . S
N47 C49 1.263 . S
N47 C51 1.389 . S
N48 C49 1.358 . S
N48 C50 1.400 . S
C49 N47 1.263 . S
C49 N48 1.358 . S
C49 H55 0.930 . S
C50 N48 1.400 . S
C50 C51 1.351 . S
C50 H67 0.930 . S
C51 N47 1.389 . S
C51 C50 1.351 . S
C51 H56 0.930 . S
O52 Cu46 1.974 . S
O52 C62 1.282 . S
C53 O54 1.261 . S
C53 O66 1.251 . S
O54 C53 1.261 . S
H55 C49 0.930 . S
H56 C51 0.930 . S
N57 Cu46 1.985 . S
N57 C59 1.335 . S
N57 C60 1.390 . S
N58 C59 1.345 . S
N58 C61 1.336 . S
C59 N57 1.335 . S
C59 N58 1.345 . S
C59 H64 0.930 . S
C60 N57 1.390 . S
C60 C61 1.346 . S
C60 H65 0.930 . S
C61 N58 1.336 . S
C61 C60 1.346 . S
C61 H68 0.929 . S
C62 O52 1.282 . S
C62 O63 1.216 . S
O63 C62 1.216 . S
H64 C59 0.930 . S
H65 C60 0.930 . S
O66 Cu46 1.959 . S
O66 C53 1.251 . S
H67 C50 0.930 . S
H68 C61 0.929 . S
Cu69 N70 1.999 . S
Cu69 O75 1.974 . S
Cu69 N80 1.985 . S
Cu69 O89 1.959 . S
N70 Cu69 1.999 . S
N70 C72 1.263 . S
N70 C74 1.389 . S
N71 C72 1.358 . S
N71 C73 1.400 . S
C72 N70 1.263 . S
C72 N71 1.358 . S
C72 H78 0.930 . S
C73 N71 1.400 . S
C73 C74 1.351 . S
C73 H90 0.930 . S
C74 N70 1.389 . S
C74 C73 1.351 . S
C74 H79 0.930 . S
O75 Cu69 1.974 . S
O75 C85 1.282 . S
C76 O77 1.261 . S
C76 O89 1.251 . S
O77 C76 1.261 . S
H78 C72 0.930 . S
H79 C74 0.930 . S
N80 Cu69 1.985 . S
N80 C82 1.335 . S
N80 C83 1.390 . S
N81 C82 1.346 1_556 S
N81 C84 1.337 1_556 S
C82 N80 1.335 . S
C82 N81 1.346 1_554 S
C82 H87 0.930 . S
C83 N80 1.390 . S
C83 C84 1.346 . S
C83 H88 0.930 . S
C84 N81 1.337 1_554 S
C84 C83 1.346 . S
C84 H91 0.929 1_554 S
C85 O75 1.282 . S
C85 O86 1.216 . S
O86 C85 1.216 . S
H87 C82 0.930 . S
H88 C83 0.930 . S
O89 Cu69 1.959 . S
O89 C76 1.251 . S
H90 C73 0.930 . S
H91 C84 0.929 1_556 S
Cu92 N93 1.999 . S
Cu92 O98 1.974 . S
Cu92 N103 1.985 . S
Cu92 O112 1.959 . S
N93 Cu92 1.999 . S
N93 C95 1.263 . S
N93 C97 1.389 . S
N94 C95 1.358 . S
N94 C96 1.400 . S
C95 N93 1.263 . S
C95 N94 1.358 . S
C95 H101 0.930 . S
C96 N94 1.400 . S
C96 C97 1.351 . S
C96 H113 0.930 . S
C97 N93 1.389 . S
C97 C96 1.351 . S
C97 H102 0.930 1_455 S
O98 Cu92 1.974 . S
O98 C108 1.282 . S
C99 O100 1.261 . S
C99 O112 1.251 . S
O100 C99 1.261 . S
H101 C95 0.930 . S
H102 C97 0.930 1_655 S
N103 Cu92 1.985 . S
N103 C105 1.335 . S
N103 C106 1.390 . S
N104 C105 1.345 . S
N104 C107 1.336 . S
C105 N103 1.335 . S
C105 N104 1.345 . S
C105 H110 0.930 1_455 S
C106 N103 1.390 . S
C106 C107 1.346 . S
C106 H111 0.930 . S
C107 N104 1.336 . S
C107 C106 1.346 . S
C107 H114 0.929 . S
C108 O98 1.282 . S
C108 O109 1.216 . S
O109 C108 1.216 . S
H110 C105 0.930 1_655 S
H111 C106 0.930 . S
O112 Cu92 1.959 . S
O112 C99 1.251 . S
H113 C96 0.930 . S
H114 C107 0.929 . S
Cu115 N116 1.999 . S
Cu115 O121 1.974 . S
Cu115 N126 1.985 . S
Cu115 O135 1.959 . S
N116 Cu115 1.999 . S
N116 C118 1.263 . S
N116 C120 1.389 . S
N117 C118 1.358 . S
N117 C119 1.400 . S
C118 N116 1.263 . S
C118 N117 1.358 . S
C118 H124 0.930 . S
C119 N117 1.400 . S
C119 C120 1.351 . S
C119 H136 0.930 . S
C120 N116 1.389 . S
C120 C119 1.351 . S
C120 H125 0.930 . S
O121 Cu115 1.974 . S
O121 C131 1.282 . S
C122 O123 1.261 . S
C122 O135 1.251 . S
O123 C122 1.261 . S
H124 C118 0.930 . S
H125 C120 0.930 . S
N126 Cu115 1.985 . S
N126 C128 1.335 . S
N126 C129 1.390 . S
N127 C128 1.345 . S
N127 C130 1.336 . S
C128 N126 1.335 . S
C128 N127 1.345 . S
C128 H133 0.930 . S
C129 N126 1.390 . S
C129 C130 1.346 . S
C129 H134 0.930 . S
C130 N127 1.336 . S
C130 C129 1.346 . S
C130 H137 0.929 . S
C131 O121 1.282 . S
C131 O132 1.216 . S
O132 C131 1.216 . S
H133 C128 0.930 . S
H134 C129 0.930 . S
O135 Cu115 1.959 . S
O135 C122 1.251 . S
H136 C119 0.930 . S
H137 C130 0.929 . S
Cu138 N139 1.999 . S
Cu138 O144 1.974 . S
Cu138 N149 1.985 . S
Cu138 O158 1.959 . S
N139 Cu138 1.999 . S
N139 C141 1.263 . S
N139 C143 1.389 . S
N140 C141 1.358 . S
N140 C142 1.400 . S
C141 N139 1.263 . S
C141 N140 1.358 . S
C141 H147 0.930 . S
C142 N140 1.400 . S
C142 C143 1.351 . S
C142 H159 0.930 . S
C143 N139 1.389 . S
C143 C142 1.351 . S
C143 H148 0.930 . S
O144 Cu138 1.974 . S
O144 C154 1.282 . S
C145 O146 1.261 . S
C145 O158 1.251 . S
O146 C145 1.261 . S
H147 C141 0.930 . S
H148 C143 0.930 . S
N149 Cu138 1.985 . S
N149 C151 1.335 . S
N149 C152 1.390 . S
N150 C151 1.345 . S
N150 C153 1.336 . S
C151 N149 1.335 . S
C151 N150 1.345 . S
C151 H156 0.930 . S
C152 N149 1.390 . S
C152 C153 1.346 . S
C152 H157 0.930 . S
C153 N150 1.336 . S
C153 C152 1.346 . S
C153 H160 0.929 . S
C154 O144 1.282 . S
C154 O155 1.216 . S
O155 C154 1.216 . S
H156 C151 0.930 . S
H157 C152 0.930 . S
O158 Cu138 1.959 . S
O158 C145 1.251 . S
H159 C142 0.930 . S
H160 C153 0.929 . S
Cu161 N162 2.010 . S
Cu161 O167 1.975 . S
Cu161 N172 1.974 1_556 S
Cu161 O181 1.959 1_556 S
N162 Cu161 2.010 . S
N162 C164 1.263 . S
N162 C166 1.389 . S
N163 C164 1.358 . S
N163 C165 1.400 . S
C164 N162 1.263 . S
C164 N163 1.358 . S
C164 H170 0.930 1_455 S
C165 N163 1.400 . S
C165 C166 1.351 . S
C165 H182 0.930 . S
C166 N162 1.389 . S
C166 C165 1.351 . S
C166 H171 0.930 . S
O167 Cu161 1.975 . S
O167 C177 1.293 . S
C168 O169 1.268 . S
C168 O181 1.251 1_655 S
O169 C168 1.268 . S
H170 C164 0.930 1_655 S
H171 C166 0.930 . S
N172 Cu161 1.974 1_554 S
N172 C174 1.335 . S
N172 C175 1.390 . S
N173 C174 1.345 . S
N173 C176 1.336 . S
C174 N172 1.335 . S
C174 N173 1.345 . S
C174 H179 0.930 . S
C175 N172 1.390 . S
C175 C176 1.346 . S
C175 H180 0.930 . S
C176 N173 1.336 . S
C176 C175 1.346 . S
C176 H183 0.929 . S
C177 O167 1.293 . S
C177 O178 1.203 1_455 S
O178 C177 1.203 1_655 S
H179 C174 0.930 . S
H180 C175 0.930 . S
O181 Cu161 1.959 1_554 S
O181 C168 1.251 1_455 S
H182 C165 0.930 . S
H183 C176 0.929 . S
Cu184 N185 1.999 . S
Cu184 O190 1.974 . S
Cu184 N195 1.985 . S
Cu184 O204 1.959 . S
N185 Cu184 1.999 . S
N185 C187 1.263 . S
N185 C189 1.389 . S
N186 C187 1.358 . S
N186 C188 1.400 . S
C187 N185 1.263 . S
C187 N186 1.358 . S
C187 H193 0.930 . S
C188 N186 1.400 . S
C188 C189 1.351 . S
C188 H205 0.930 . S
C189 N185 1.389 . S
C189 C188 1.351 . S
C189 H194 0.930 . S
O190 Cu184 1.974 . S
O190 C200 1.282 . S
C191 O192 1.261 . S
C191 O204 1.251 . S
O192 C191 1.261 . S
H193 C187 0.930 . S
H194 C189 0.930 . S
N195 Cu184 1.985 . S
N195 C197 1.335 . S
N195 C198 1.390 . S
N196 C197 1.345 . S
N196 C199 1.336 . S
C197 N195 1.335 . S
C197 N196 1.345 . S
C197 H202 0.930 . S
C198 N195 1.390 . S
C198 C199 1.346 . S
C198 H203 0.930 . S
C199 N196 1.336 . S
C199 C198 1.346 . S
C199 H206 0.929 . S
C200 O190 1.282 . S
C200 O201 1.216 . S
O201 C200 1.216 . S
H202 C197 0.930 . S
H203 C198 0.930 . S
O204 Cu184 1.959 . S
O204 C191 1.251 . S
H205 C188 0.930 . S
H206 C199 0.929 . S
Cu207 N208 1.999 . S
Cu207 O213 1.974 . S
Cu207 N218 1.985 . S
Cu207 O227 1.959 . S
N208 Cu207 1.999 . S
N208 C210 1.263 . S
N208 C212 1.389 . S
N209 C210 1.358 . S
N209 C211 1.400 . S
C210 N208 1.263 . S
C210 N209 1.358 . S
C210 H216 0.930 . S
C211 N209 1.400 . S
C211 C212 1.351 . S
C211 H228 0.930 . S
C212 N208 1.389 . S
C212 C211 1.351 . S
C212 H217 0.930 . S
O213 Cu207 1.974 . S
O213 C223 1.282 . S
C214 O215 1.261 . S
C214 O227 1.251 . S
O215 C214 1.261 . S
H216 C210 0.930 . S
H217 C212 0.930 . S
N218 Cu207 1.985 . S
N218 C220 1.335 . S
N218 C221 1.390 . S
N219 C220 1.345 . S
N219 C222 1.336 . S
C220 N218 1.335 . S
C220 N219 1.345 . S
C220 H225 0.930 . S
C221 N218 1.390 . S
C221 C222 1.346 . S
C221 H226 0.930 . S
C222 N219 1.336 . S
C222 C221 1.346 . S
C222 H229 0.929 . S
C223 O213 1.282 . S
C223 O224 1.216 . S
O224 C223 1.216 . S
H225 C220 0.930 . S
H226 C221 0.930 . S
O227 Cu207 1.959 . S
O227 C214 1.251 . S
H228 C211 0.930 . S
H229 C222 0.929 . S
Cu230 N231 1.999 . S
Cu230 O236 1.974 . S
Cu230 N241 1.985 . S
Cu230 O250 1.959 . S
N231 Cu230 1.999 . S
N231 C233 1.264 1_565 S
N231 C235 1.389 . S
N232 C233 1.358 . S
N232 C234 1.400 1_545 S
C233 N231 1.264 1_545 S
C233 N232 1.358 . S
C233 H239 0.929 . S
C234 N232 1.400 1_565 S
C234 C235 1.351 . S
C234 H251 0.930 . S
C235 N231 1.389 . S
C235 C234 1.351 . S
C235 H240 0.930 . S
O236 Cu230 1.974 . S
O236 C246 1.282 . S
C237 O238 1.286 . S
C237 O250 1.251 . S
O238 C237 1.286 . S
H239 C233 0.929 . S
H240 C235 0.930 . S
N241 Cu230 1.985 . S
N241 C243 1.335 . S
N241 C244 1.390 . S
N242 C243 1.345 . S
N242 C245 1.336 . S
C243 N241 1.335 . S
C243 N242 1.345 . S
C243 H248 0.930 . S
C244 N241 1.390 . S
C244 C245 1.346 . S
C244 H249 0.930 . S
C245 N242 1.336 . S
C245 C244 1.346 . S
C245 H252 0.929 . S
C246 O236 1.282 . S
C246 O247 1.216 1_565 S
O247 C246 1.216 1_545 S
H248 C243 0.930 . S
H249 C244 0.930 . S
O250 Cu230 1.959 . S
O250 C237 1.251 . S
H251 C234 0.930 . S
H252 C245 0.929 . S
Cu253 N254 1.997 . S
Cu253 O259 1.973 . S
Cu253 N264 2.001 1_565 S
Cu253 O273 1.959 1_565 S
N254 Cu253 1.997 . S
N254 C256 1.263 . S
N254 C258 1.389 . S
N255 C256 1.358 . S
N255 C257 1.400 . S
C256 N254 1.263 . S
C256 N255 1.358 . S
C256 H262 0.930 . S
C257 N255 1.400 . S
C257 C258 1.351 . S
C257 H274 0.930 . S
C258 N254 1.389 . S
C258 C257 1.351 . S
C258 H263 0.930 . S
O259 Cu253 1.973 . S
O259 C269 1.282 . S
C260 O261 1.261 1_545 S
C260 O273 1.251 1_554 S
O261 C260 1.261 1_565 S
H262 C256 0.930 . S
H263 C258 0.930 . S
N264 Cu253 2.001 1_545 S
N264 C266 1.334 1_556 S
N264 C267 1.382 1_556 S
N265 C266 1.344 . S
N265 C268 1.336 . S
C266 N264 1.334 1_554 S
C266 N265 1.344 . S
C266 H271 0.930 1_554 S
C267 N264 1.382 1_554 S
C267 C268 1.346 . S
C267 H272 0.930 . S
C268 N265 1.336 . S
C268 C267 1.346 . S
C268 H275 0.929 . S
C269 O259 1.282 . S
C269 O270 1.216 1_556 S
O270 C269 1.216 1_554 S
H271 C266 0.930 1_556 S
H272 C267 0.930 . S
O273 Cu253 1.959 1_545 S
O273 C260 1.251 1_556 S
H274 C257 0.930 . S
H275 C268 0.929 . S
Cu276 N277 1.999 . S
Cu276 O282 1.974 . S
Cu276 N287 1.985 . S
Cu276 O296 1.959 . S
N277 Cu276 1.999 . S
N277 C279 1.263 . S
N277 C281 1.389 . S
N278 C279 1.358 . S
N278 C280 1.400 . S
C279 N277 1.263 . S
C279 N278 1.358 . S
C279 H285 0.930 . S
C280 N278 1.400 . S
C280 C281 1.351 . S
C280 H297 0.930 . S
C281 N277 1.389 . S
C281 C280 1.351 . S
C281 H286 0.930 . S
O282 Cu276 1.974 . S
O282 C292 1.282 . S
C283 O284 1.261 . S
C283 O296 1.251 . S
O284 C283 1.261 . S
H285 C279 0.930 . S
H286 C281 0.930 . S
N287 Cu276 1.985 . S
N287 C289 1.335 . S
N287 C290 1.390 . S
N288 C289 1.345 . S
N288 C291 1.336 . S
C289 N287 1.335 . S
C289 N288 1.345 . S
C289 H294 0.930 . S
C290 N287 1.390 . S
C290 C291 1.346 . S
C290 H295 0.930 . S
C291 N288 1.336 . S
C291 C290 1.346 . S
C291 H298 0.929 . S
C292 O282 1.282 . S
C292 O293 1.216 . S
O293 C292 1.216 . S
H294 C289 0.930 . S
H295 C290 0.930 . S
O296 Cu276 1.959 . S
O296 C283 1.251 . S
H297 C280 0.930 . S
H298 C291 0.929 . S
Cu299 N300 1.999 . S
Cu299 O305 1.974 . S
Cu299 N310 1.985 . S
Cu299 O319 1.959 . S
N300 Cu299 1.999 . S
N300 C302 1.263 . S
N300 C304 1.389 . S
N301 C302 1.358 . S
N301 C303 1.400 . S
C302 N300 1.263 . S
C302 N301 1.358 . S
C302 H308 0.930 . S
C303 N301 1.400 . S
C303 C304 1.351 . S
C303 H320 0.930 . S
C304 N300 1.389 . S
C304 C303 1.351 . S
C304 H309 0.930 . S
O305 Cu299 1.974 . S
O305 C315 1.282 . S
C306 O307 1.261 . S
C306 O319 1.251 . S
O307 C306 1.261 . S
H308 C302 0.930 . S
H309 C304 0.930 . S
N310 Cu299 1.985 . S
N310 C312 1.335 . S
N310 C313 1.390 . S
N311 C312 1.345 . S
N311 C314 1.336 . S
C312 N310 1.335 . S
C312 N311 1.345 . S
C312 H317 0.930 . S
C313 N310 1.390 . S
C313 C314 1.346 . S
C313 H318 0.930 . S
C314 N311 1.336 . S
C314 C313 1.346 . S
C314 H321 0.929 . S
C315 O305 1.282 . S
C315 O316 1.216 . S
O316 C315 1.216 . S
H317 C312 0.930 . S
H318 C313 0.930 . S
O319 Cu299 1.959 . S
O319 C306 1.251 . S
H320 C303 0.930 . S
H321 C314 0.929 . S
Cu322 N323 1.999 . S
Cu322 O328 1.974 . S
Cu322 N333 1.985 . S
Cu322 O342 1.959 . S
N323 Cu322 1.999 . S
N323 C325 1.263 . S
N323 C327 1.389 . S
N324 C325 1.358 . S
N324 C326 1.400 . S
C325 N323 1.263 . S
C325 N324 1.358 . S
C325 H331 0.930 . S
C326 N324 1.400 . S
C326 C327 1.351 . S
C326 H343 0.930 . S
C327 N323 1.389 . S
C327 C326 1.351 . S
C327 H332 0.930 . S
O328 Cu322 1.974 . S
O328 C338 1.282 . S
C329 O330 1.261 . S
C329 O342 1.251 . S
O330 C329 1.261 . S
H331 C325 0.930 . S
H332 C327 0.930 . S
N333 Cu322 1.985 . S
N333 C335 1.335 . S
N333 C336 1.390 . S
N334 C335 1.345 . S
N334 C337 1.336 . S
C335 N333 1.335 . S
C335 N334 1.345 . S
C335 H340 0.930 . S
C336 N333 1.390 . S
C336 C337 1.346 . S
C336 H341 0.930 . S
C337 N334 1.336 . S
C337 C336 1.346 . S
C337 H344 0.929 . S
C338 O328 1.282 . S
C338 O339 1.216 . S
O339 C338 1.216 . S
H340 C335 0.930 . S
H341 C336 0.930 . S
O342 Cu322 1.959 . S
O342 C329 1.251 . S
H343 C326 0.930 . S
H344 C337 0.929 . S
Cu345 N346 1.985 1_545 S
Cu345 O351 1.973 1_545 S
Cu345 N356 1.999 . S
Cu345 O365 1.960 . S
N346 Cu345 1.985 1_565 S
N346 C348 1.263 . S
N346 C350 1.389 . S
N347 C348 1.358 . S
N347 C349 1.400 . S
C348 N346 1.263 . S
C348 N347 1.358 . S
C348 H354 0.920 1_554 S
C349 N347 1.400 . S
C349 C350 1.351 . S
C349 H366 0.930 . S
C350 N346 1.389 . S
C350 C349 1.351 . S
C350 H355 0.930 . S
O351 Cu345 1.973 1_565 S
O351 C361 1.282 . S
C352 O353 1.260 1_545 S
C352 O365 1.251 1_556 S
O353 C352 1.260 1_565 S
H354 C348 0.920 1_556 S
H355 C350 0.930 . S
N356 Cu345 1.999 . S
N356 C358 1.335 . S
N356 C359 1.390 . S
N357 C358 1.345 . S
N357 C360 1.336 . S
C358 N356 1.335 . S
C358 N357 1.345 . S
C358 H363 0.930 . S
C359 N356 1.390 . S
C359 C360 1.346 . S
C359 H364 0.930 . S
C360 N357 1.336 . S
C360 C359 1.346 . S
C360 H367 0.929 1_554 S
C361 O351 1.282 . S
C361 O362 1.216 1_554 S
O362 C361 1.216 1_556 S
H363 C358 0.930 . S
H364 C359 0.930 . S
O365 Cu345 1.960 . S
O365 C352 1.251 1_554 S
H366 C349 0.930 . S
H367 C360 0.929 1_556 S
Cu368 N369 1.999 . S
Cu368 O374 1.974 . S
Cu368 N379 1.985 . S
Cu368 O388 1.959 . S
N369 Cu368 1.999 . S
N369 C371 1.263 . S
N369 C373 1.389 . S
N370 C371 1.358 . S
N370 C372 1.400 . S
C371 N369 1.263 . S
C371 N370 1.358 . S
C371 H377 0.930 . S
C372 N370 1.400 . S
C372 C373 1.351 . S
C372 H389 0.930 . S
C373 N369 1.389 . S
C373 C372 1.351 . S
C373 H378 0.930 . S
O374 Cu368 1.974 . S
O374 C384 1.282 . S
C375 O376 1.261 . S
C375 O388 1.251 . S
O376 C375 1.261 . S
H377 C371 0.930 . S
H378 C373 0.930 . S
N379 Cu368 1.985 . S
N379 C381 1.335 . S
N379 C382 1.390 . S
N380 C381 1.345 . S
N380 C383 1.336 . S
C381 N379 1.335 . S
C381 N380 1.345 . S
C381 H386 0.930 . S
C382 N379 1.390 . S
C382 C383 1.346 . S
C382 H387 0.930 . S
C383 N380 1.336 . S
C383 C382 1.346 . S
C383 H390 0.929 . S
C384 O374 1.282 . S
C384 O385 1.216 . S
O385 C384 1.216 . S
H386 C381 0.930 . S
H387 C382 0.930 . S
O388 Cu368 1.959 . S
O388 C375 1.251 . S
H389 C372 0.930 . S
H390 C383 0.929 . S
Cu391 N392 1.999 . S
Cu391 O397 1.974 1_554 S
Cu391 N402 1.985 . S
Cu391 O411 1.959 . S
N392 Cu391 1.999 . S
N392 C394 1.263 1_554 S
N392 C396 1.389 . S
N393 C394 1.345 1_554 S
N393 C395 1.446 . S
C394 N392 1.263 1_556 S
C394 N393 1.345 1_556 S
C394 H400 0.930 . S
C395 N393 1.446 . S
C395 C396 1.351 . S
C395 H412 0.930 . S
C396 N392 1.389 . S
C396 C395 1.351 . S
C396 H401 0.930 . S
O397 Cu391 1.974 1_556 S
O397 C407 1.282 . S
C398 O399 1.261 1_554 S
C398 O411 1.251 . S
O399 C398 1.261 1_556 S
H400 C394 0.930 . S
H401 C396 0.930 . S
N402 Cu391 1.985 . S
N402 C404 1.335 . S
N402 C405 1.390 1_554 S
N403 C404 1.345 . S
N403 C406 1.336 1_554 S
C404 N402 1.335 . S
C404 N403 1.345 . S
C404 H409 0.930 . S
C405 N402 1.390 1_556 S
C405 C406 1.346 . S
C405 H410 0.930 . S
C406 N403 1.336 1_556 S
C406 C405 1.346 . S
C406 H413 0.929 . S
C407 O397 1.282 . S
C407 O408 1.216 . S
O408 C407 1.216 . S
H409 C404 0.930 . S
H410 C405 0.930 . S
O411 Cu391 1.959 . S
O411 C398 1.251 . S
H412 C395 0.930 . S
H413 C406 0.929 . S
Cu414 N415 1.999 . S
Cu414 O420 1.974 . S
Cu414 N425 1.985 . S
Cu414 O434 1.959 . S
N415 Cu414 1.999 . S
N415 C417 1.263 . S
N415 C419 1.389 . S
N416 C417 1.358 . S
N416 C418 1.400 . S
C417 N415 1.263 . S
C417 N416 1.358 . S
C417 H423 0.930 . S
C418 N416 1.400 . S
C418 C419 1.351 . S
C418 H435 0.930 . S
C419 N415 1.389 . S
C419 C418 1.351 . S
C419 H424 0.930 . S
O420 Cu414 1.974 . S
O420 C430 1.282 . S
C421 O422 1.261 . S
C421 O434 1.251 . S
O422 C421 1.261 . S
H423 C417 0.930 . S
H424 C419 0.930 . S
N425 Cu414 1.985 . S
N425 C427 1.335 . S
N425 C428 1.390 . S
N426 C427 1.345 . S
N426 C429 1.336 . S
C427 N425 1.335 . S
C427 N426 1.345 . S
C427 H432 0.930 . S
C428 N425 1.390 . S
C428 C429 1.346 . S
C428 H433 0.930 . S
C429 N426 1.336 . S
C429 C428 1.346 . S
C429 H436 0.929 . S
C430 O420 1.282 . S
C430 O431 1.216 . S
O431 C430 1.216 . S
H432 C427 0.930 . S
H433 C428 0.930 . S
O434 Cu414 1.959 . S
O434 C421 1.251 . S
H435 C418 0.930 . S
H436 C429 0.929 . S
Cu437 N438 1.999 . S
Cu437 O443 1.974 . S
Cu437 N448 1.985 . S
Cu437 O457 1.959 . S
N438 Cu437 1.999 . S
N438 C440 1.263 . S
N438 C442 1.389 . S
N439 C440 1.358 . S
N439 C441 1.400 . S
C440 N438 1.263 . S
C440 N439 1.358 . S
C440 H446 0.930 . S
C441 N439 1.400 . S
C441 C442 1.351 . S
C441 H458 0.930 . S
C442 N438 1.389 . S
C442 C441 1.351 . S
C442 H447 0.930 . S
O443 Cu437 1.974 . S
O443 C453 1.282 . S
C444 O445 1.261 . S
C444 O457 1.251 . S
O445 C444 1.261 . S
H446 C440 0.930 . S
H447 C442 0.930 . S
N448 Cu437 1.985 . S
N448 C450 1.335 . S
N448 C451 1.390 . S
N449 C450 1.345 . S
N449 C452 1.336 . S
C450 N448 1.335 . S
C450 N449 1.345 . S
C450 H455 0.930 . S
C451 N448 1.390 . S
C451 C452 1.346 . S
C451 H456 0.930 . S
C452 N449 1.336 . S
C452 C451 1.346 . S
C452 H459 0.929 . S
C453 O443 1.282 . S
C453 O454 1.216 . S
O454 C453 1.216 . S
H455 C450 0.930 . S
H456 C451 0.930 . S
O457 Cu437 1.959 . S
O457 C444 1.251 . S
H458 C441 0.930 . S
H459 C452 0.929 . S
Cu460 N461 1.997 1_455 S
Cu460 O466 1.992 . S
Cu460 N471 1.988 1_565 S
Cu460 O480 1.940 1_455 S
N461 Cu460 1.997 1_655 S
N461 C463 1.263 1_655 S
N461 C465 1.389 . S
N462 C463 1.358 . S
N462 C464 1.400 1_455 S
C463 N461 1.263 1_455 S
C463 N462 1.358 . S
C463 H469 0.930 . S
C464 N462 1.400 1_655 S
C464 C465 1.351 . S
C464 H481 0.930 . S
C465 N461 1.389 . S
C465 C464 1.351 . S
C465 H470 0.930 . S
O466 Cu460 1.992 . S
O466 C476 1.282 1_565 S
C467 O468 1.261 . S
C467 O480 1.251 1_545 S
O468 C467 1.261 . S
H469 C463 0.930 . S
H470 C465 0.930 . S
N471 Cu460 1.988 1_545 S
N471 C473 1.333 1_445 S
N471 C474 1.390 . S
N472 C473 1.336 1_545 S
N472 C475 1.335 1_655 S
C473 N471 1.333 1_665 S
C473 N472 1.336 1_565 S
C473 H478 0.940 . S
C474 N471 1.390 . S
C474 C475 1.346 . S
C474 H479 0.930 . S
C475 N472 1.335 1_455 S
C475 C474 1.346 . S
C475 H482 0.929 . S
C476 O466 1.282 1_545 S
C476 O477 1.216 . S
O477 C476 1.216 . S
H478 C473 0.940 . S
H479 C474 0.930 . S
O480 Cu460 1.940 1_655 S
O480 C467 1.251 1_565 S
H481 C464 0.930 . S
H482 C475 0.929 . S
Cu483 N484 1.999 . S
Cu483 O489 1.974 . S
Cu483 N494 1.985 . S
Cu483 O503 1.959 . S
N484 Cu483 1.999 . S
N484 C486 1.263 . S
N484 C488 1.389 . S
N485 C486 1.358 . S
N485 C487 1.400 . S
C486 N484 1.263 . S
C486 N485 1.358 . S
C486 H492 0.930 . S
C487 N485 1.400 . S
C487 C488 1.351 . S
C487 H504 0.930 . S
C488 N484 1.389 . S
C488 C487 1.351 . S
C488 H493 0.930 . S
O489 Cu483 1.974 . S
O489 C499 1.282 . S
C490 O491 1.261 . S
C490 O503 1.251 . S
O491 C490 1.261 . S
H492 C486 0.930 . S
H493 C488 0.930 . S
N494 Cu483 1.985 . S
N494 C496 1.335 . S
N494 C497 1.390 . S
N495 C496 1.345 . S
N495 C498 1.336 . S
C496 N494 1.335 . S
C496 N495 1.345 . S
C496 H501 0.930 . S
C497 N494 1.390 . S
C497 C498 1.346 . S
C497 H502 0.930 . S
C498 N495 1.336 . S
C498 C497 1.346 . S
C498 H505 0.929 . S
C499 O489 1.282 . S
C499 O500 1.216 . S
O500 C499 1.216 . S
H501 C496 0.930 . S
H502 C497 0.930 . S
O503 Cu483 1.959 . S
O503 C490 1.251 . S
H504 C487 0.930 . S
H505 C498 0.929 . S
Cu506 N507 1.999 . S
Cu506 O512 1.974 . S
Cu506 N517 1.985 . S
Cu506 O526 1.959 . S
N507 Cu506 1.999 . S
N507 C509 1.263 . S
N507 C511 1.389 . S
N508 C509 1.358 . S
N508 C510 1.400 . S
C509 N507 1.263 . S
C509 N508 1.358 . S
C509 H515 0.930 . S
C510 N508 1.400 . S
C510 C511 1.351 . S
C510 H527 0.930 . S
C511 N507 1.389 . S
C511 C510 1.351 . S
C511 H516 0.930 . S
O512 Cu506 1.974 . S
O512 C522 1.282 1_455 S
C513 O514 1.261 . S
C513 O526 1.251 . S
O514 C513 1.261 . S
H515 C509 0.930 . S
H516 C511 0.930 . S
N517 Cu506 1.985 . S
N517 C519 1.335 . S
N517 C520 1.390 . S
N518 C519 1.345 . S
N518 C521 1.336 . S
C519 N517 1.335 . S
C519 N518 1.345 . S
C519 H524 0.930 . S
C520 N517 1.390 . S
C520 C521 1.346 . S
C520 H525 0.930 . S
C521 N518 1.336 . S
C521 C520 1.346 . S
C521 H528 0.929 . S
C522 O512 1.282 1_655 S
C522 O523 1.216 . S
O523 C522 1.216 . S
H524 C519 0.930 . S
H525 C520 0.930 . S
O526 Cu506 1.959 . S
O526 C513 1.251 . S
H527 C510 0.930 . S
H528 C521 0.929 . S
Cu529 N530 1.999 . S
Cu529 O535 1.974 . S
Cu529 N540 1.985 . S
Cu529 O549 1.959 . S
N530 Cu529 1.999 . S
N530 C532 1.263 . S
N530 C534 1.389 . S
N531 C532 1.358 . S
N531 C533 1.400 . S
C532 N530 1.263 . S
C532 N531 1.358 . S
C532 H538 0.930 . S
C533 N531 1.400 . S
C533 C534 1.351 . S
C533 H550 0.930 . S
C534 N530 1.389 . S
C534 C533 1.351 . S
C534 H539 0.930 . S
O535 Cu529 1.974 . S
O535 C545 1.282 . S
C536 O537 1.261 . S
C536 O549 1.251 . S
O537 C536 1.261 . S
H538 C532 0.930 . S
H539 C534 0.930 . S
N540 Cu529 1.985 . S
N540 C542 1.335 . S
N540 C543 1.390 . S
N541 C542 1.345 . S
N541 C544 1.336 . S
C542 N540 1.335 . S
C542 N541 1.345 . S
C542 H547 0.930 . S
C543 N540 1.390 . S
C543 C544 1.346 . S
C543 H548 0.930 . S
C544 N541 1.336 . S
C544 C543 1.346 . S
C544 H551 0.929 . S
C545 O535 1.282 . S
C545 O546 1.216 . S
O546 C545 1.216 . S
H547 C542 0.930 . S
H548 C543 0.930 . S
O549 Cu529 1.959 . S
O549 C536 1.251 . S
H550 C533 0.930 . S
H551 C544 0.929 . S
Cu552 N553 1.999 . S
Cu552 O558 1.974 . S
Cu552 N563 1.985 . S
Cu552 O572 1.959 . S
N553 Cu552 1.999 . S
N553 C555 1.263 . S
N553 C557 1.389 . S
N554 C555 1.358 . S
N554 C556 1.400 . S
C555 N553 1.263 . S
C555 N554 1.358 . S
C555 H561 0.930 . S
C556 N554 1.400 . S
C556 C557 1.351 . S
C556 H573 0.930 . S
C557 N553 1.389 . S
C557 C556 1.351 . S
C557 H562 0.930 . S
O558 Cu552 1.974 . S
O558 C568 1.282 . S
C559 O560 1.261 . S
C559 O572 1.251 . S
O560 C559 1.261 . S
H561 C555 0.930 . S
H562 C557 0.930 . S
N563 Cu552 1.985 . S
N563 C565 1.335 . S
N563 C566 1.390 . S
N564 C565 1.345 . S
N564 C567 1.336 . S
C565 N563 1.335 . S
C565 N564 1.345 . S
C565 H570 0.930 . S
C566 N563 1.390 . S
C566 C567 1.346 . S
C566 H571 0.930 . S
C567 N564 1.336 . S
C567 C566 1.346 . S
C567 H574 0.929 . S
C568 O558 1.282 . S
C568 O569 1.216 . S
O569 C568 1.216 . S
H570 C565 0.930 . S
H571 C566 0.930 . S
O572 Cu552 1.959 . S
O572 C559 1.251 . S
H573 C556 0.930 . S
H574 C567 0.929 . S
Cu575 N576 1.999 . S
Cu575 O581 1.974 . S
Cu575 N586 1.985 . S
Cu575 O595 1.959 . S
N576 Cu575 1.999 . S
N576 C578 1.263 . S
N576 C580 1.389 . S
N577 C578 1.358 . S
N577 C579 1.400 . S
C578 N576 1.263 . S
C578 N577 1.358 . S
C578 H584 0.930 . S
C579 N577 1.400 . S
C579 C580 1.351 . S
C579 H596 0.930 . S
C580 N576 1.389 . S
C580 C579 1.351 . S
C580 H585 0.930 . S
O581 Cu575 1.974 . S
O581 C591 1.282 . S
C582 O583 1.261 . S
C582 O595 1.251 . S
O583 C582 1.261 . S
H584 C578 0.930 . S
H585 C580 0.930 . S
N586 Cu575 1.985 . S
N586 C588 1.335 1_554 S
N586 C589 1.390 . S
N587 C588 1.345 . S
N587 C590 1.336 . S
C588 N586 1.335 1_556 S
C588 N587 1.345 . S
C588 H593 0.930 . S
C589 N586 1.390 . S
C589 C590 1.346 1_554 S
C589 H594 0.930 . S
C590 N587 1.336 . S
C590 C589 1.346 1_556 S
C590 H597 0.929 . S
C591 O581 1.282 . S
C591 O592 1.216 . S
O592 C591 1.216 . S
H593 C588 0.930 . S
H594 C589 0.930 . S
O595 Cu575 1.959 . S
O595 C582 1.251 . S
H596 C579 0.930 . S
H597 C590 0.929 . S
Cu598 N599 1.999 . S
Cu598 O604 1.974 . S
Cu598 N609 1.985 . S
Cu598 O618 1.959 . S
N599 Cu598 1.999 . S
N599 C601 1.263 . S
N599 C603 1.389 . S
N600 C601 1.358 . S
N600 C602 1.400 . S
C601 N599 1.263 . S
C601 N600 1.358 . S
C601 H607 0.930 . S
C602 N600 1.400 . S
C602 C603 1.351 . S
C602 H619 0.930 . S
C603 N599 1.389 . S
C603 C602 1.351 . S
C603 H608 0.930 . S
O604 Cu598 1.974 . S
O604 C614 1.282 . S
C605 O606 1.261 . S
C605 O618 1.251 . S
O606 C605 1.261 . S
H607 C601 0.930 . S
H608 C603 0.930 . S
N609 Cu598 1.985 . S
N609 C611 1.335 . S
N609 C612 1.390 . S
N610 C611 1.345 . S
N610 C613 1.336 . S
C611 N609 1.335 . S
C611 N610 1.345 . S
C611 H616 0.930 . S
C612 N609 1.390 . S
C612 C613 1.346 . S
C612 H617 0.930 . S
C613 N610 1.336 . S
C613 C612 1.346 . S
C613 H620 0.929 . S
C614 O604 1.282 . S
C614 O615 1.216 . S
O615 C614 1.216 . S
H616 C611 0.930 . S
H617 C612 0.930 . S
O618 Cu598 1.959 . S
O618 C605 1.251 . S
H619 C602 0.930 . S
H620 C613 0.929 . S
Cu621 N622 1.999 . S
Cu621 O627 1.974 . S
Cu621 N632 1.985 1_655 S
Cu621 O641 1.959 . S
N622 Cu621 1.999 . S
N622 C624 1.263 . S
N622 C626 1.389 . S
N623 C624 1.358 . S
N623 C625 1.400 . S
C624 N622 1.263 . S
C624 N623 1.358 . S
C624 H630 0.930 . S
C625 N623 1.400 . S
C625 C626 1.351 . S
C625 H642 0.930 . S
C626 N622 1.389 . S
C626 C625 1.351 . S
C626 H631 0.930 . S
O627 Cu621 1.974 . S
O627 C637 1.282 . S
C628 O629 1.261 . S
C628 O641 1.251 1_455 S
O629 C628 1.261 . S
H630 C624 0.930 . S
H631 C626 0.930 . S
N632 Cu621 1.985 1_455 S
N632 C634 1.335 . S
N632 C635 1.390 . S
N633 C634 1.345 . S
N633 C636 1.336 . S
C634 N632 1.335 . S
C634 N633 1.345 . S
C634 H639 0.930 . S
C635 N632 1.390 . S
C635 C636 1.346 . S
C635 H640 0.930 . S
C636 N633 1.336 . S
C636 C635 1.346 . S
C636 H643 0.929 . S
C637 O627 1.282 . S
C637 O638 1.216 1_655 S
O638 C637 1.216 1_455 S
H639 C634 0.930 . S
H640 C635 0.930 . S
O641 Cu621 1.959 . S
O641 C628 1.251 1_655 S
H642 C625 0.930 . S
H643 C636 0.929 . S
Cu644 N645 1.999 . S
Cu644 O650 1.974 . S
Cu644 N655 1.985 . S
Cu644 O664 1.959 . S
N645 Cu644 1.999 . S
N645 C647 1.263 . S
N645 C649 1.389 . S
N646 C647 1.358 . S
N646 C648 1.400 . S
C647 N645 1.263 . S
C647 N646 1.358 . S
C647 H653 0.930 . S
C648 N646 1.400 . S
C648 C649 1.351 . S
C648 H665 0.930 . S
C649 N645 1.389 . S
C649 C648 1.351 . S
C649 H654 0.930 . S
O650 Cu644 1.974 . S
O650 C660 1.282 . S
C651 O652 1.261 . S
C651 O664 1.251 . S
O652 C651 1.261 . S
H653 C647 0.930 . S
H654 C649 0.930 . S
N655 Cu644 1.985 . S
N655 C657 1.335 . S
N655 C658 1.390 . S
N656 C657 1.345 . S
N656 C659 1.336 . S
C657 N655 1.335 . S
C657 N656 1.345 . S
C657 H662 0.930 . S
C658 N655 1.390 . S
C658 C659 1.346 . S
C658 H663 0.930 . S
C659 N656 1.336 . S
C659 C658 1.346 . S
C659 H666 0.929 . S
C660 O650 1.282 . S
C660 O661 1.216 . S
O661 C660 1.216 . S
H662 C657 0.930 . S
H663 C658 0.930 . S
O664 Cu644 1.959 . S
O664 C651 1.251 . S
H665 C648 0.930 . S
H666 C659 0.929 . S
Cu667 N668 1.999 1_554 S
Cu667 O673 1.974 1_554 S
Cu667 N678 1.985 . S
Cu667 O687 1.959 . S
N668 Cu667 1.999 1_556 S
N668 C670 1.263 . S
N668 C672 1.389 . S
N669 C670 1.358 . S
N669 C671 1.400 . S
C670 N668 1.263 . S
C670 N669 1.358 . S
C670 H676 0.930 . S
C671 N669 1.400 . S
C671 C672 1.351 . S
C671 H688 0.930 . S
C672 N668 1.389 . S
C672 C671 1.351 . S
C672 H677 0.930 . S
O673 Cu667 1.974 1_556 S
O673 C683 1.282 . S
C674 O675 1.261 1_554 S
C674 O687 1.251 1_455 S
O675 C674 1.261 1_556 S
H676 C670 0.930 . S
H677 C672 0.930 . S
N678 Cu667 1.985 . S
N678 C680 1.336 . S
N678 C681 1.390 1_655 S
N679 C680 1.335 1_455 S
N679 C682 1.336 . S
C680 N678 1.336 . S
C680 N679 1.335 1_655 S
C680 H685 0.939 . S
C681 N678 1.390 1_455 S
C681 C682 1.346 . S
C681 H686 0.930 . S
C682 N679 1.336 . S
C682 C681 1.346 . S
C682 H689 0.929 . S
C683 O673 1.282 . S
C683 O684 1.216 1_655 S
O684 C683 1.216 1_455 S
H685 C680 0.939 . S
H686 C681 0.930 . S
O687 Cu667 1.959 . S
O687 C674 1.251 1_655 S
H688 C671 0.930 . S
H689 C682 0.929 . S
Cu690 N691 1.999 . S
Cu690 O696 1.974 1_455 S
Cu690 N701 1.985 . S
Cu690 O710 1.959 . S
N691 Cu690 1.999 . S
N691 C693 1.263 1_455 S
N691 C695 1.389 . S
N692 C693 1.358 . S
N692 C694 1.402 1_655 S
C693 N691 1.263 1_655 S
C693 N692 1.358 . S
C693 H699 0.930 . S
C694 N692 1.402 1_455 S
C694 C695 1.351 . S
C694 H711 0.930 . S
C695 N691 1.389 . S
C695 C694 1.351 . S
C695 H700 0.930 . S
O696 Cu690 1.974 1_655 S
O696 C706 1.282 . S
C697 O698 1.261 1_455 S
C697 O710 1.251 . S
O698 C697 1.261 1_655 S
H699 C693 0.930 . S
H700 C695 0.930 . S
N701 Cu690 1.985 . S
N701 C703 1.335 . S
N701 C704 1.390 1_455 S
N702 C703 1.345 . S
N702 C705 1.336 1_455 S
C703 N701 1.335 . S
C703 N702 1.345 . S
C703 H708 0.930 . S
C704 N701 1.390 1_655 S
C704 C705 1.346 . S
C704 H709 0.930 . S
C705 N702 1.336 1_655 S
C705 C704 1.346 . S
C705 H712 0.929 . S
C706 O696 1.282 . S
C706 O707 1.216 . S
O707 C706 1.216 . S
H708 C703 0.930 . S
H709 C704 0.930 . S
O710 Cu690 1.959 . S
O710 C697 1.251 . S
H711 C694 0.930 . S
H712 C705 0.929 . S
Cu713 N714 1.999 . S
Cu713 O719 1.974 . S
Cu713 N724 1.985 . S
Cu713 O733 1.959 . S
N714 Cu713 1.999 . S
N714 C716 1.263 . S
N714 C718 1.389 . S
N715 C716 1.358 . S
N715 C717 1.400 . S
C716 N714 1.263 . S
C716 N715 1.358 . S
C716 H722 0.930 . S
C717 N715 1.400 . S
C717 C718 1.351 . S
C717 H734 0.930 . S
C718 N714 1.389 . S
C718 C717 1.351 . S
C718 H723 0.930 . S
O719 Cu713 1.974 . S
O719 C729 1.282 . S
C720 O721 1.261 . S
C720 O733 1.251 . S
O721 C720 1.261 . S
H722 C716 0.930 . S
H723 C718 0.930 . S
N724 Cu713 1.985 . S
N724 C726 1.335 . S
N724 C727 1.390 . S
N725 C726 1.345 . S
N725 C728 1.336 . S
C726 N724 1.335 . S
C726 N725 1.345 . S
C726 H731 0.930 . S
C727 N724 1.390 . S
C727 C728 1.346 . S
C727 H732 0.930 . S
C728 N725 1.336 . S
C728 C727 1.346 . S
C728 H735 0.929 . S
C729 O719 1.282 . S
C729 O730 1.216 . S
O730 C729 1.216 . S
H731 C726 0.930 . S
H732 C727 0.930 . S
O733 Cu713 1.959 . S
O733 C720 1.251 . S
H734 C717 0.930 . S
H735 C728 0.929 . S
Cu736 N737 1.999 . S
Cu736 O742 1.974 . S
Cu736 N747 1.985 . S
Cu736 O756 1.959 . S
N737 Cu736 1.999 . S
N737 C739 1.263 . S
N737 C741 1.389 . S
N738 C739 1.358 . S
N738 C740 1.400 . S
C739 N737 1.263 . S
C739 N738 1.358 . S
C739 H745 0.930 . S
C740 N738 1.400 . S
C740 C741 1.351 . S
C740 H757 0.930 . S
C741 N737 1.389 . S
C741 C740 1.351 . S
C741 H746 0.930 . S
O742 Cu736 1.974 . S
O742 C752 1.282 . S
C743 O744 1.261 . S
C743 O756 1.251 . S
O744 C743 1.261 . S
H745 C739 0.930 . S
H746 C741 0.930 . S
N747 Cu736 1.985 . S
N747 C749 1.335 . S
N747 C750 1.390 . S
N748 C749 1.345 . S
N748 C751 1.336 . S
C749 N747 1.335 . S
C749 N748 1.345 . S
C749 H754 0.930 . S
C750 N747 1.390 . S
C750 C751 1.346 . S
C750 H755 0.930 . S
C751 N748 1.336 . S
C751 C750 1.346 . S
C751 H758 0.929 . S
C752 O742 1.282 . S
C752 O753 1.216 . S
O753 C752 1.216 . S
H754 C749 0.930 . S
H755 C750 0.930 . S
O756 Cu736 1.959 . S
O756 C743 1.251 . S
H757 C740 0.930 . S
H758 C751 0.929 . S
Cu759 N760 1.999 . S
Cu759 O765 1.974 . S
Cu759 N770 1.985 1_556 S
Cu759 O779 1.959 . S
N760 Cu759 1.999 . S
N760 C762 1.263 . S
N760 C764 1.389 . S
N761 C762 1.358 . S
N761 C763 1.400 . S
C762 N760 1.263 . S
C762 N761 1.358 . S
C762 H768 0.930 . S
C763 N761 1.400 . S
C763 C764 1.351 . S
C763 H780 0.930 . S
C764 N760 1.389 . S
C764 C763 1.351 . S
C764 H769 0.930 . S
O765 Cu759 1.974 . S
O765 C775 1.282 . S
C766 O767 1.261 . S
C766 O779 1.251 1_554 S
O767 C766 1.261 . S
H768 C762 0.930 . S
H769 C764 0.930 . S
N770 Cu759 1.985 1_554 S
N770 C772 1.335 . S
N770 C773 1.390 . S
N771 C772 1.345 . S
N771 C774 1.336 . S
C772 N770 1.335 . S
C772 N771 1.345 . S
C772 H777 0.930 . S
C773 N770 1.390 . S
C773 C774 1.346 . S
C773 H778 0.930 . S
C774 N771 1.336 . S
C774 C773 1.346 . S
C774 H781 0.929 . S
C775 O765 1.282 . S
C775 O776 1.216 1_556 S
O776 C775 1.216 1_554 S
H777 C772 0.930 . S
H778 C773 0.930 . S
O779 Cu759 1.959 . S
O779 C766 1.251 1_556 S
H780 C763 0.930 . S
H781 C774 0.929 . S
Cu782 N783 1.999 . S
Cu782 O788 1.974 . S
Cu782 N793 1.985 . S
Cu782 O802 1.959 . S
N783 Cu782 1.999 . S
N783 C785 1.263 . S
N783 C787 1.389 . S
N784 C785 1.358 . S
N784 C786 1.400 . S
C785 N783 1.263 . S
C785 N784 1.358 . S
C785 H791 0.930 . S
C786 N784 1.400 . S
C786 C787 1.351 . S
C786 H803 0.930 . S
C787 N783 1.389 . S
C787 C786 1.351 . S
C787 H792 0.930 . S
O788 Cu782 1.974 . S
O788 C798 1.282 . S
C789 O790 1.261 . S
C789 O802 1.251 . S
O790 C789 1.261 . S
H791 C785 0.930 . S
H792 C787 0.930 . S
N793 Cu782 1.985 . S
N793 C795 1.335 . S
N793 C796 1.390 . S
N794 C795 1.345 . S
N794 C797 1.336 . S
C795 N793 1.335 . S
C795 N794 1.345 . S
C795 H800 0.930 . S
C796 N793 1.390 . S
C796 C797 1.346 . S
C796 H801 0.930 . S
C797 N794 1.336 . S
C797 C796 1.346 . S
C797 H804 0.929 . S
C798 O788 1.282 . S
C798 O799 1.216 . S
O799 C798 1.216 . S
H800 C795 0.930 . S
H801 C796 0.930 . S
O802 Cu782 1.959 . S
O802 C789 1.251 . S
H803 C786 0.930 . S
H804 C797 0.929 . S
Cu805 N806 1.999 . S
Cu805 O811 1.974 . S
Cu805 N816 1.985 . S
Cu805 O825 1.959 . S
N806 Cu805 1.999 . S
N806 C808 1.263 . S
N806 C810 1.389 . S
N807 C808 1.358 . S
N807 C809 1.400 . S
C808 N806 1.263 . S
C808 N807 1.358 . S
C808 H814 0.930 . S
C809 N807 1.400 . S
C809 C810 1.351 . S
C809 H826 0.930 . S
C810 N806 1.389 . S
C810 C809 1.351 . S
C810 H815 0.930 . S
O811 Cu805 1.974 . S
O811 C821 1.282 . S
C812 O813 1.261 . S
C812 O825 1.251 . S
O813 C812 1.261 . S
H814 C808 0.930 . S
H815 C810 0.930 . S
N816 Cu805 1.985 . S
N816 C818 1.335 . S
N816 C819 1.390 . S
N817 C818 1.345 . S
N817 C820 1.336 . S
C818 N816 1.335 . S
C818 N817 1.345 . S
C818 H823 0.930 . S
C819 N816 1.390 . S
C819 C820 1.346 . S
C819 H824 0.930 . S
C820 N817 1.336 . S
C820 C819 1.346 . S
C820 H827 0.929 . S
C821 O811 1.282 . S
C821 O822 1.216 . S
O822 C821 1.216 . S
H823 C818 0.930 . S
H824 C819 0.930 . S
O825 Cu805 1.959 . S
O825 C812 1.251 . S
H826 C809 0.930 . S
H827 C820 0.929 . S
Cu828 N829 1.999 . S
Cu828 O834 1.974 . S
Cu828 N839 1.985 . S
Cu828 O848 1.959 . S
N829 Cu828 1.999 . S
N829 C831 1.263 . S
N829 C833 1.389 . S
N830 C831 1.358 . S
N830 C832 1.400 . S
C831 N829 1.263 . S
C831 N830 1.358 . S
C831 H837 0.930 . S
C832 N830 1.400 . S
C832 C833 1.351 . S
C832 H849 0.930 . S
C833 N829 1.389 . S
C833 C832 1.351 . S
C833 H838 0.930 . S
O834 Cu828 1.974 . S
O834 C844 1.282 . S
C835 O836 1.261 . S
C835 O848 1.251 . S
O836 C835 1.261 . S
H837 C831 0.930 . S
H838 C833 0.930 . S
N839 Cu828 1.985 . S
N839 C841 1.335 . S
N839 C842 1.390 . S
N840 C841 1.345 . S
N840 C843 1.336 . S
C841 N839 1.335 . S
C841 N840 1.345 . S
C841 H846 0.930 . S
C842 N839 1.390 . S
C842 C843 1.346 . S
C842 H847 0.930 . S
C843 N840 1.336 . S
C843 C842 1.346 . S
C843 H850 0.929 . S
C844 O834 1.282 . S
C844 O845 1.216 . S
O845 C844 1.216 . S
H846 C841 0.930 . S
H847 C842 0.930 . S
O848 Cu828 1.959 . S
O848 C835 1.251 . S
H849 C832 0.930 . S
H850 C843 0.929 . S
Cu851 N852 1.999 . S
Cu851 O857 1.974 . S
Cu851 N862 1.985 1_554 S
Cu851 O871 1.959 . S
N852 Cu851 1.999 . S
N852 C854 1.263 . S
N852 C856 1.389 . S
N853 C854 1.358 . S
N853 C855 1.400 . S
C854 N852 1.263 . S
C854 N853 1.358 . S
C854 H860 0.930 . S
C855 N853 1.400 . S
C855 C856 1.351 . S
C855 H872 0.930 . S
C856 N852 1.389 . S
C856 C855 1.351 . S
C856 H861 0.930 . S
O857 Cu851 1.974 . S
O857 C867 1.285 . S
C858 O859 1.261 . S
C858 O871 1.251 1_556 S
O859 C858 1.261 . S
H860 C854 0.930 . S
H861 C856 0.930 . S
N862 Cu851 1.985 1_556 S
N862 C864 1.335 . S
N862 C865 1.390 . S
N863 C864 1.345 . S
N863 C866 1.336 . S
C864 N862 1.335 . S
C864 N863 1.345 . S
C864 H869 0.930 1_556 S
C865 N862 1.390 . S
C865 C866 1.346 . S
C865 H870 0.930 . S
C866 N863 1.336 . S
C866 C865 1.346 . S
C866 H873 0.929 . S
C867 O857 1.285 . S
C867 O868 1.211 1_554 S
O868 C867 1.211 1_556 S
H869 C864 0.930 1_554 S
H870 C865 0.930 . S
O871 Cu851 1.959 . S
O871 C858 1.251 1_554 S
H872 C855 0.930 . S
H873 C866 0.929 . S
Cu874 N875 1.999 . S
Cu874 O880 1.974 . S
Cu874 N885 1.985 . S
Cu874 O894 1.959 . S
N875 Cu874 1.999 . S
N875 C877 1.263 . S
N875 C879 1.389 . S
N876 C877 1.358 . S
N876 C878 1.400 . S
C877 N875 1.263 . S
C877 N876 1.358 . S
C877 H883 0.930 . S
C878 N876 1.400 . S
C878 C879 1.351 . S
C878 H895 0.930 . S
C879 N875 1.389 . S
C879 C878 1.351 . S
C879 H884 0.930 . S
O880 Cu874 1.974 . S
O880 C890 1.282 . S
C881 O882 1.261 . S
C881 O894 1.251 . S
O882 C881 1.261 . S
H883 C877 0.930 . S
H884 C879 0.930 . S
N885 Cu874 1.985 . S
N885 C887 1.335 . S
N885 C888 1.390 . S
N886 C887 1.345 . S
N886 C889 1.336 . S
C887 N885 1.335 . S
C887 N886 1.345 . S
C887 H892 0.930 . S
C888 N885 1.390 . S
C888 C889 1.346 . S
C888 H893 0.930 . S
C889 N886 1.336 . S
C889 C888 1.346 . S
C889 H896 0.929 . S
C890 O880 1.282 . S
C890 O891 1.216 . S
O891 C890 1.216 . S
H892 C887 0.930 . S
H893 C888 0.930 . S
O894 Cu874 1.959 . S
O894 C881 1.251 . S
H895 C878 0.930 . S
H896 C889 0.929 . S
Cu897 N898 1.999 . S
Cu897 O903 1.974 . S
Cu897 N908 1.985 . S
Cu897 O917 1.959 . S
N898 Cu897 1.999 . S
N898 C900 1.263 . S
N898 C902 1.389 . S
N899 C900 1.358 . S
N899 C901 1.400 . S
C900 N898 1.263 . S
C900 N899 1.358 . S
C900 H906 0.930 . S
C901 N899 1.400 . S
C901 C902 1.351 . S
C901 H918 0.930 . S
C902 N898 1.389 . S
C902 C901 1.351 . S
C902 H907 0.930 . S
O903 Cu897 1.974 . S
O903 C913 1.282 . S
C904 O905 1.261 . S
C904 O917 1.251 . S
O905 C904 1.261 . S
H906 C900 0.930 . S
H907 C902 0.930 . S
N908 Cu897 1.985 . S
N908 C910 1.335 . S
N908 C911 1.390 . S
N909 C910 1.345 . S
N909 C912 1.336 . S
C910 N908 1.335 . S
C910 N909 1.345 . S
C910 H915 0.930 . S
C911 N908 1.390 . S
C911 C912 1.346 . S
C911 H916 0.930 . S
C912 N909 1.336 . S
C912 C911 1.346 . S
C912 H919 0.929 . S
C913 O903 1.282 . S
C913 O914 1.216 . S
O914 C913 1.216 . S
H915 C910 0.930 . S
H916 C911 0.930 . S
O917 Cu897 1.959 . S
O917 C904 1.251 . S
H918 C901 0.930 . S
H919 C912 0.929 . S
Cu920 N921 1.999 . S
Cu920 O926 1.974 . S
Cu920 N931 1.985 . S
Cu920 O940 1.959 . S
N921 Cu920 1.999 . S
N921 C923 1.263 . S
N921 C925 1.389 . S
N922 C923 1.358 . S
N922 C924 1.400 . S
C923 N921 1.263 . S
C923 N922 1.358 . S
C923 H929 0.930 . S
C924 N922 1.400 . S
C924 C925 1.351 . S
C924 H941 0.930 . S
C925 N921 1.389 . S
C925 C924 1.351 . S
C925 H930 0.930 . S
O926 Cu920 1.974 . S
O926 C936 1.282 . S
C927 O928 1.261 . S
C927 O940 1.251 . S
O928 C927 1.261 . S
H929 C923 0.930 . S
H930 C925 0.930 . S
N931 Cu920 1.985 . S
N931 C933 1.335 . S
N931 C934 1.390 . S
N932 C933 1.345 . S
N932 C935 1.336 . S
C933 N931 1.335 . S
C933 N932 1.345 . S
C933 H938 0.930 . S
C934 N931 1.390 . S
C934 C935 1.346 . S
C934 H939 0.930 . S
C935 N932 1.336 . S
C935 C934 1.346 . S
C935 H942 0.929 . S
C936 O926 1.282 . S
C936 O937 1.216 . S
O937 C936 1.216 . S
H938 C933 0.930 . S
H939 C934 0.930 . S
O940 Cu920 1.959 . S
O940 C927 1.251 . S
H941 C924 0.930 . S
H942 C935 0.929 . S
Cu943 N944 1.999 . S
Cu943 O949 1.974 . S
Cu943 N954 1.985 . S
Cu943 O963 1.959 . S
N944 Cu943 1.999 . S
N944 C946 1.263 . S
N944 C948 1.389 . S
N945 C946 1.358 . S
N945 C947 1.400 . S
C946 N944 1.263 . S
C946 N945 1.358 . S
C946 H952 0.930 . S
C947 N945 1.400 . S
C947 C948 1.351 . S
C947 H964 0.930 . S
C948 N944 1.389 . S
C948 C947 1.351 . S
C948 H953 0.930 . S
O949 Cu943 1.974 . S
O949 C959 1.282 . S
C950 O951 1.261 . S
C950 O963 1.251 . S
O951 C950 1.261 . S
H952 C946 0.930 . S
H953 C948 0.930 . S
N954 Cu943 1.985 . S
N954 C956 1.335 . S
N954 C957 1.390 . S
N955 C956 1.345 . S
N955 C958 1.336 . S
C956 N954 1.335 . S
C956 N955 1.345 . S
C956 H961 0.930 . S
C957 N954 1.390 . S
C957 C958 1.346 . S
C957 H962 0.930 . S
C958 N955 1.336 . S
C958 C957 1.346 . S
C958 H965 0.929 . S
C959 O949 1.282 . S
C959 O960 1.216 . S
O960 C959 1.216 . S
H961 C956 0.930 . S
H962 C957 0.930 . S
O963 Cu943 1.959 . S
O963 C950 1.251 . S
H964 C947 0.930 . S
H965 C958 0.929 . S
Cu966 N967 1.999 . S
Cu966 O972 1.974 . S
Cu966 N977 1.978 1_545 S
Cu966 O986 1.953 1_545 S
N967 Cu966 1.999 . S
N967 C969 1.263 . S
N967 C971 1.389 . S
N968 C969 1.358 . S
N968 C970 1.400 . S
C969 N967 1.263 . S
C969 N968 1.358 . S
C969 H975 0.930 . S
C970 N968 1.400 . S
C970 C971 1.351 . S
C970 H987 0.930 . S
C971 N967 1.389 . S
C971 C970 1.351 . S
C971 H976 0.930 . S
O972 Cu966 1.974 . S
O972 C982 1.282 . S
C973 O974 1.261 . S
C973 O986 1.271 . S
O974 C973 1.261 . S
H975 C969 0.930 . S
H976 C971 0.930 . S
N977 Cu966 1.978 1_565 S
N977 C979 1.338 . S
N977 C980 1.393 . S
N978 C979 1.345 . S
N978 C981 1.336 . S
C979 N977 1.338 . S
C979 N978 1.345 . S
C979 H984 0.937 . S
C980 N977 1.393 . S
C980 C981 1.346 . S
C980 H985 0.930 . S
C981 N978 1.336 . S
C981 C980 1.346 . S
C981 H988 0.929 . S
C982 O972 1.282 . S
C982 O983 1.216 1_545 S
O983 C982 1.216 1_565 S
H984 C979 0.937 . S
H985 C980 0.930 . S
O986 Cu966 1.953 1_565 S
O986 C973 1.271 . S
H987 C970 0.930 . S
H988 C981 0.929 . S
Cu989 N990 1.999 . S
Cu989 O995 1.974 . S
Cu989 N1000 1.985 . S
Cu989 O1009 1.959 . S
N990 Cu989 1.999 . S
N990 C992 1.263 . S
N990 C994 1.389 . S
N991 C992 1.358 . S
N991 C993 1.400 . S
C992 N990 1.263 . S
C992 N991 1.358 . S
C992 H998 0.930 . S
C993 N991 1.400 . S
C993 C994 1.351 . S
C993 H1010 0.930 . S
C994 N990 1.389 . S
C994 C993 1.351 . S
C994 H999 0.930 . S
O995 Cu989 1.974 . S
O995 C1005 1.282 . S
C996 O997 1.261 . S
C996 O1009 1.251 . S
O997 C996 1.261 . S
H998 C992 0.930 . S
H999 C994 0.930 . S
N1000 Cu989 1.985 . S
N1000 C1002 1.335 . S
N1000 C1003 1.390 . S
N1001 C1002 1.345 . S
N1001 C1004 1.336 . S
C1002 N1000 1.335 . S
C1002 N1001 1.345 . S
C1002 H1007 0.930 . S
C1003 N1000 1.390 . S
C1003 C1004 1.346 . S
C1003 H1008 0.930 . S
C1004 N1001 1.336 . S
C1004 C1003 1.346 . S
C1004 H1011 0.929 . S
C1005 O995 1.282 . S
C1005 O1006 1.216 . S
O1006 C1005 1.216 . S
H1007 C1002 0.930 . S
H1008 C1003 0.930 . S
O1009 Cu989 1.959 . S
O1009 C996 1.251 . S
H1010 C993 0.930 . S
H1011 C1004 0.929 . S
Cu1012 N1013 1.999 . S
Cu1012 O1018 1.974 . S
Cu1012 N1023 1.985 . S
Cu1012 O1032 1.959 . S
N1013 Cu1012 1.999 . S
N1013 C1015 1.263 . S
N1013 C1017 1.389 . S
N1014 C1015 1.358 . S
N1014 C1016 1.400 . S
C1015 N1013 1.263 . S
C1015 N1014 1.358 . S
C1015 H1021 0.930 . S
C1016 N1014 1.400 . S
C1016 C1017 1.351 . S
C1016 H1033 0.930 . S
C1017 N1013 1.389 . S
C1017 C1016 1.351 . S
C1017 H1022 0.930 . S
O1018 Cu1012 1.974 . S
O1018 C1028 1.282 . S
C1019 O1020 1.261 . S
C1019 O1032 1.251 . S
O1020 C1019 1.261 . S
H1021 C1015 0.930 . S
H1022 C1017 0.930 . S
N1023 Cu1012 1.985 . S
N1023 C1025 1.335 . S
N1023 C1026 1.390 . S
N1024 C1025 1.345 . S
N1024 C1027 1.336 . S
C1025 N1023 1.335 . S
C1025 N1024 1.345 . S
C1025 H1030 0.930 . S
C1026 N1023 1.390 . S
C1026 C1027 1.346 . S
C1026 H1031 0.930 . S
C1027 N1024 1.336 . S
C1027 C1026 1.346 . S
C1027 H1034 0.929 . S
C1028 O1018 1.282 . S
C1028 O1029 1.216 . S
O1029 C1028 1.216 . S
H1030 C1025 0.930 . S
H1031 C1026 0.930 . S
O1032 Cu1012 1.959 . S
O1032 C1019 1.251 . S
H1033 C1016 0.930 . S
H1034 C1027 0.929 . S
Cu1035 N1036 1.999 . S
Cu1035 O1041 1.974 . S
Cu1035 N1046 1.985 . S
Cu1035 O1055 1.959 . S
N1036 Cu1035 1.999 . S
N1036 C1038 1.263 . S
N1036 C1040 1.389 . S
N1037 C1038 1.358 . S
N1037 C1039 1.400 . S
C1038 N1036 1.263 . S
C1038 N1037 1.358 . S
C1038 H1044 0.930 . S
C1039 N1037 1.400 . S
C1039 C1040 1.351 . S
C1039 H1056 0.930 . S
C1040 N1036 1.389 . S
C1040 C1039 1.351 . S
C1040 H1045 0.930 1_554 S
O1041 Cu1035 1.974 . S
O1041 C1051 1.282 . S
C1042 O1043 1.261 . S
C1042 O1055 1.251 . S
O1043 C1042 1.261 . S
H1044 C1038 0.930 . S
H1045 C1040 0.930 1_556 S
N1046 Cu1035 1.985 . S
N1046 C1048 1.335 . S
N1046 C1049 1.390 . S
N1047 C1048 1.345 . S
N1047 C1050 1.336 . S
C1048 N1046 1.335 . S
C1048 N1047 1.345 . S
C1048 H1053 0.930 1_554 S
C1049 N1046 1.390 . S
C1049 C1050 1.346 . S
C1049 H1054 0.930 . S
C1050 N1047 1.336 . S
C1050 C1049 1.346 . S
C1050 H1057 0.929 . S
C1051 O1041 1.282 . S
C1051 O1052 1.216 . S
O1052 C1051 1.216 . S
H1053 C1048 0.930 1_556 S
H1054 C1049 0.930 . S
O1055 Cu1035 1.959 . S
O1055 C1042 1.251 . S
H1056 C1039 0.930 . S
H1057 C1050 0.929 . S
Cu1058 N1059 1.999 . S
Cu1058 O1064 1.974 . S
Cu1058 N1069 1.986 . S
Cu1058 O1078 1.959 . S
N1059 Cu1058 1.999 . S
N1059 C1061 1.263 . S
N1059 C1063 1.389 . S
N1060 C1061 1.358 . S
N1060 C1062 1.400 . S
C1061 N1059 1.263 . S
C1061 N1060 1.358 . S
C1061 H1067 0.930 . S
C1062 N1060 1.400 . S
C1062 C1063 1.351 . S
C1062 H1079 0.930 . S
C1063 N1059 1.389 . S
C1063 C1062 1.351 . S
C1063 H1068 0.930 . S
O1064 Cu1058 1.974 . S
O1064 C1074 1.288 . S
C1065 O1066 1.261 . S
C1065 O1078 1.251 1_545 S
O1066 C1065 1.261 . S
H1067 C1061 0.930 . S
H1068 C1063 0.930 . S
N1069 Cu1058 1.986 . S
N1069 C1071 1.335 . S
N1069 C1072 1.389 1_565 S
N1070 C1071 1.333 1_545 S
N1070 C1073 1.336 . S
C1071 N1069 1.335 . S
C1071 N1070 1.333 1_565 S
C1071 H1076 0.941 . S
C1072 N1069 1.389 1_545 S
C1072 C1073 1.346 . S
C1072 H1077 0.930 . S
C1073 N1070 1.336 . S
C1073 C1072 1.346 . S
C1073 H1080 0.929 . S
C1074 O1064 1.288 . S
C1074 O1075 1.208 1_565 S
O1075 C1074 1.208 1_545 S
H1076 C1071 0.941 . S
H1077 C1072 0.930 . S
O1078 Cu1058 1.959 . S
O1078 C1065 1.251 1_565 S
H1079 C1062 0.930 . S
H1080 C1073 0.929 . S
Cu1081 N1082 1.999 . S
Cu1081 O1087 1.974 1_655 S
Cu1081 N1092 1.985 1_645 S
Cu1081 O1101 1.959 . S
N1082 Cu1081 1.999 . S
N1082 C1084 1.263 1_655 S
N1082 C1086 1.389 . S
N1083 C1084 1.358 . S
N1083 C1085 1.400 1_455 S
C1084 N1082 1.263 1_455 S
C1084 N1083 1.358 . S
C1084 H1090 0.930 . S
C1085 N1083 1.400 1_655 S
C1085 C1086 1.351 . S
C1085 H1102 0.930 . S
C1086 N1082 1.389 . S
C1086 C1085 1.351 . S
C1086 H1091 0.930 . S
O1087 Cu1081 1.974 1_455 S
O1087 C1097 1.282 . S
C1088 O1089 1.261 . S
C1088 O1101 1.251 1_565 S
O1089 C1088 1.261 . S
H1090 C1084 0.930 . S
H1091 C1086 0.930 . S
N1092 Cu1081 1.985 1_465 S
N1092 C1094 1.335 1_455 S
N1092 C1095 1.390 . S
N1093 C1094 1.345 . S
N1093 C1096 1.336 1_655 S
C1094 N1092 1.335 1_655 S
C1094 N1093 1.345 . S
C1094 H1099 0.930 1_565 S
C1095 N1092 1.390 . S
C1095 C1096 1.346 . S
C1095 H1100 0.930 . S
C1096 N1093 1.336 1_455 S
C1096 C1095 1.346 . S
C1096 H1103 0.929 . S
C1097 O1087 1.282 . S
C1097 O1098 1.216 1_545 S
O1098 C1097 1.216 1_565 S
H1099 C1094 0.930 1_545 S
H1100 C1095 0.930 . S
O1101 Cu1081 1.959 . S
O1101 C1088 1.251 1_545 S
H1102 C1085 0.930 . S
H1103 C1096 0.929 . S
H1104 C1116 0.930 . S
H1105 C1118 0.899 1_655 S
H1106 C1119 0.930 . S
H1107 C1123 0.959 . S
H1108 C1123 0.959 . S
H1109 C1123 0.961 . S
H1110 C1124 0.960 . S
H1111 C1124 0.961 . S
H1112 C1124 0.959 . S
H1113 C1127 0.929 . S
H1114 C1128 0.931 . S
H1115 C1130 0.930 . S
C1116 H1104 0.930 . S
C1116 C1117 1.399 . S
C1116 C1121 1.399 . S
C1117 C1116 1.399 . S
C1117 C1118 1.376 . S
C1118 H1105 0.899 1_455 S
C1118 C1117 1.376 . S
C1118 C1119 1.388 . S
C1119 H1106 0.930 . S
C1119 C1118 1.388 . S
C1119 C1120 1.390 . S
C1120 C1119 1.390 . S
C1120 C1121 1.394 . S
C1120 C1126 1.465 . S
C1121 C1116 1.399 . S
C1121 C1120 1.394 . S
C1121 C1122 1.516 . S
C1122 C1121 1.516 . S
C1122 C1123 1.502 . S
C1122 C1124 1.561 . S
C1122 C1125 1.526 . S
C1123 H1107 0.959 . S
C1123 H1108 0.959 . S
C1123 H1109 0.961 . S
C1123 C1122 1.502 . S
C1124 H1110 0.960 . S
C1124 H1111 0.961 . S
C1124 H1112 0.959 . S
C1124 C1122 1.561 . S
C1125 C1122 1.526 . S
C1125 C1126 1.396 . S
C1125 C1130 1.390 . S
C1126 C1120 1.465 . S
C1126 C1125 1.396 . S
C1126 C1127 1.399 . S
C1127 H1113 0.929 . S
C1127 C1126 1.399 . S
C1127 C1128 1.385 . S
C1128 H1114 0.931 . S
C1128 C1127 1.385 . S
C1128 C1129 1.389 . S
C1129 C1128 1.389 . S
C1129 C1130 1.387 . S
C1130 H1115 0.930 . S
C1130 C1125 1.390 . S
C1130 C1129 1.387 . S
H1131 C1143 0.930 . S
H1132 C1145 0.930 . S
H1133 C1146 0.930 . S
H1134 C1150 0.959 . S
H1135 C1150 0.959 . S
H1136 C1150 0.961 . S
H1137 C1151 0.960 . S
H1138 C1151 0.961 . S
H1139 C1151 0.959 1_655 S
H1140 C1154 0.929 . S
H1141 C1155 0.931 . S
H1142 C1157 0.930 . S
C1143 H1131 0.930 . S
C1143 C1144 1.399 1_455 S
C1143 C1148 1.399 . S
C1144 C1143 1.399 1_655 S
C1144 C1145 1.376 . S
C1145 H1132 0.930 . S
C1145 C1144 1.376 . S
C1145 C1146 1.388 . S
C1146 H1133 0.930 . S
C1146 C1145 1.388 . S
C1146 C1147 1.390 . S
C1147 C1146 1.390 . S
C1147 C1148 1.394 1_655 S
C1147 C1153 1.465 . S
C1148 C1143 1.399 . S
C1148 C1147 1.394 1_455 S
C1148 C1149 1.516 . S
C1149 C1148 1.516 . S
C1149 C1150 1.502 . S
C1149 C1151 1.561 . S
C1149 C1152 1.526 . S
C1150 H1134 0.959 . S
C1150 H1135 0.959 . S
C1150 H1136 0.961 . S
C1150 C1149 1.502 . S
C1151 H1137 0.960 . S
C1151 H1138 0.961 . S
C1151 H1139 0.959 1_455 S
C1151 C1149 1.561 . S
C1152 C1149 1.526 . S
C1152 C1153 1.396 1_455 S
C1152 C1157 1.390 . S
C1153 C1147 1.465 . S
C1153 C1152 1.396 1_655 S
C1153 C1154 1.399 . S
C1154 H1140 0.929 . S
C1154 C1153 1.399 . S
C1154 C1155 1.385 . S
C1155 H1141 0.931 . S
C1155 C1154 1.385 . S
C1155 C1156 1.389 1_655 S
C1156 C1155 1.389 1_455 S
C1156 C1157 1.387 . S
C1157 H1142 0.930 . S
C1157 C1152 1.390 . S
C1157 C1156 1.387 . S
H1158 C1170 0.930 . S
H1159 C1172 0.930 . S
H1160 C1173 0.930 . S
H1161 C1177 0.959 . S
H1162 C1177 0.959 . S
H1163 C1177 0.961 . S
H1164 C1178 0.960 . S
H1165 C1178 0.961 . S
H1166 C1178 0.959 . S
H1167 C1181 0.929 . S
H1168 C1182 0.931 . S
H1169 C1184 0.930 . S
C1170 H1158 0.930 . S
C1170 C1171 1.399 . S
C1170 C1175 1.399 . S
C1171 C1170 1.399 . S
C1171 C1172 1.376 . S
C1172 H1159 0.930 . S
C1172 C1171 1.376 . S
C1172 C1173 1.388 . S
C1173 H1160 0.930 . S
C1173 C1172 1.388 . S
C1173 C1174 1.390 . S
C1174 C1173 1.390 . S
C1174 C1175 1.394 . S
C1174 C1180 1.465 . S
C1175 C1170 1.399 . S
C1175 C1174 1.394 . S
C1175 C1176 1.516 . S
C1176 C1175 1.516 . S
C1176 C1177 1.502 . S
C1176 C1178 1.561 . S
C1176 C1179 1.526 . S
C1177 H1161 0.959 . S
C1177 H1162 0.959 . S
C1177 H1163 0.961 . S
C1177 C1176 1.502 . S
C1178 H1164 0.960 . S
C1178 H1165 0.961 . S
C1178 H1166 0.959 . S
C1178 C1176 1.561 . S
C1179 C1176 1.526 . S
C1179 C1180 1.396 . S
C1179 C1184 1.390 . S
C1180 C1174 1.465 . S
C1180 C1179 1.396 . S
C1180 C1181 1.399 . S
C1181 H1167 0.929 . S
C1181 C1180 1.399 . S
C1181 C1182 1.385 . S
C1182 H1168 0.931 . S
C1182 C1181 1.385 . S
C1182 C1183 1.389 . S
C1183 C1182 1.389 . S
C1183 C1184 1.387 . S
C1184 H1169 0.930 . S
C1184 C1179 1.390 . S
C1184 C1183 1.387 . S
H1185 C1197 0.930 . S
H1186 C1199 0.930 . S
H1187 C1200 0.930 . S
H1188 C1204 0.959 . S
H1189 C1204 0.959 . S
H1190 C1204 0.961 . S
H1191 C1205 0.960 . S
H1192 C1205 0.961 . S
H1193 C1205 0.959 . S
H1194 C1208 0.929 . S
H1195 C1209 0.931 . S
H1196 C1211 0.930 . S
C1197 H1185 0.930 . S
C1197 C1198 1.399 . S
C1197 C1202 1.399 . S
C1198 C1197 1.399 . S
C1198 C1199 1.376 . S
C1199 H1186 0.930 . S
C1199 C1198 1.376 . S
C1199 C1200 1.388 . S
C1200 H1187 0.930 . S
C1200 C1199 1.388 . S
C1200 C1201 1.390 . S
C1201 C1200 1.390 . S
C1201 C1202 1.394 . S
C1201 C1207 1.465 . S
C1202 C1197 1.399 . S
C1202 C1201 1.394 . S
C1202 C1203 1.516 . S
C1203 C1202 1.516 . S
C1203 C1204 1.502 . S
C1203 C1205 1.561 . S
C1203 C1206 1.526 . S
C1204 H1188 0.959 . S
C1204 H1189 0.959 . S
C1204 H1190 0.961 . S
C1204 C1203 1.502 . S
C1205 H1191 0.960 . S
C1205 H1192 0.961 . S
C1205 H1193 0.959 . S
C1205 C1203 1.561 . S
C1206 C1203 1.526 . S
C1206 C1207 1.396 . S
C1206 C1211 1.390 . S
C1207 C1201 1.465 . S
C1207 C1206 1.396 . S
C1207 C1208 1.399 . S
C1208 H1194 0.929 . S
C1208 C1207 1.399 . S
C1208 C1209 1.385 . S
C1209 H1195 0.931 . S
C1209 C1208 1.385 . S
C1209 C1210 1.389 . S
C1210 C1209 1.389 . S
C1210 C1211 1.387 . S
C1211 H1196 0.930 . S
C1211 C1206 1.390 . S
C1211 C1210 1.387 . S
H1212 C1224 0.930 . S
H1213 C1226 0.930 . S
H1214 C1227 0.930 . S
H1215 C1231 0.959 . S
H1216 C1231 0.959 . S
H1217 C1231 0.961 . S
H1218 C1232 0.960 . S
H1219 C1232 0.961 . S
H1220 C1232 0.959 . S
H1221 C1235 0.929 . S
H1222 C1236 0.931 . S
H1223 C1238 0.930 . S
C1224 H1212 0.930 . S
C1224 C1225 1.399 . S
C1224 C1229 1.399 . S
C1225 C1224 1.399 . S
C1225 C1226 1.376 . S
C1226 H1213 0.930 . S
C1226 C1225 1.376 . S
C1226 C1227 1.388 . S
C1227 H1214 0.930 . S
C1227 C1226 1.388 . S
C1227 C1228 1.390 . S
C1228 C1227 1.390 . S
C1228 C1229 1.394 . S
C1228 C1234 1.465 . S
C1229 C1224 1.399 . S
C1229 C1228 1.394 . S
C1229 C1230 1.516 . S
C1230 C1229 1.516 . S
C1230 C1231 1.502 . S
C1230 C1232 1.561 . S
C1230 C1233 1.526 . S
C1231 H1215 0.959 . S
C1231 H1216 0.959 . S
C1231 H1217 0.961 . S
C1231 C1230 1.502 . S
C1232 H1218 0.960 . S
C1232 H1219 0.961 . S
C1232 H1220 0.959 . S
C1232 C1230 1.561 . S
C1233 C1230 1.526 . S
C1233 C1234 1.396 . S
C1233 C1238 1.390 . S
C1234 C1228 1.465 . S
C1234 C1233 1.396 . S
C1234 C1235 1.399 . S
C1235 H1221 0.929 . S
C1235 C1234 1.399 . S
C1235 C1236 1.385 . S
C1236 H1222 0.931 . S
C1236 C1235 1.385 . S
C1236 C1237 1.389 . S
C1237 C1236 1.389 . S
C1237 C1238 1.387 . S
C1238 H1223 0.930 . S
C1238 C1233 1.390 . S
C1238 C1237 1.387 . S
H1239 C1251 0.930 . S
H1240 C1253 0.930 . S
H1241 C1254 0.930 . S
H1242 C1258 0.959 . S
H1243 C1258 0.959 . S
H1244 C1258 0.961 . S
H1245 C1259 0.960 . S
H1246 C1259 0.961 . S
H1247 C1259 0.959 . S
H1248 C1262 0.929 . S
H1249 C1263 0.931 . S
H1250 C1265 0.930 . S
C1251 H1239 0.930 . S
C1251 C1252 1.399 . S
C1251 C1256 1.399 1_545 S
C1252 C1251 1.399 . S
C1252 C1253 1.376 . S
C1253 H1240 0.930 . S
C1253 C1252 1.376 . S
C1253 C1254 1.388 1_545 S
C1254 H1241 0.930 . S
C1254 C1253 1.388 1_565 S
C1254 C1255 1.390 . S
C1255 C1254 1.390 . S
C1255 C1256 1.394 . S
C1255 C1261 1.465 . S
C1256 C1251 1.399 1_565 S
C1256 C1255 1.394 . S
C1256 C1257 1.516 . S
C1257 C1256 1.516 . S
C1257 C1258 1.502 . S
C1257 C1259 1.561 . S
C1257 C1260 1.526 . S
C1258 H1242 0.959 . S
C1258 H1243 0.959 . S
C1258 H1244 0.961 . S
C1258 C1257 1.502 . S
C1259 H1245 0.960 . S
C1259 H1246 0.961 . S
C1259 H1247 0.959 . S
C1259 C1257 1.561 . S
C1260 C1257 1.526 . S
C1260 C1261 1.396 . S
C1260 C1265 1.390 . S
C1261 C1255 1.465 . S
C1261 C1260 1.396 . S
C1261 C1262 1.399 . S
C1262 H1248 0.929 . S
C1262 C1261 1.399 . S
C1262 C1263 1.385 . S
C1263 H1249 0.931 . S
C1263 C1262 1.385 . S
C1263 C1264 1.389 . S
C1264 C1263 1.389 . S
C1264 C1265 1.387 . S
C1265 H1250 0.930 . S
C1265 C1260 1.390 . S
C1265 C1264 1.387 . S
H1266 C1278 0.930 . S
H1267 C1280 0.930 . S
H1268 C1281 0.930 . S
H1269 C1285 0.959 . S
H1270 C1285 0.959 . S
H1271 C1285 0.961 . S
H1272 C1286 0.960 . S
H1273 C1286 0.961 . S
H1274 C1286 0.959 . S
H1275 C1289 0.929 . S
H1276 C1290 0.931 . S
H1277 C1292 0.930 . S
C1278 H1266 0.930 . S
C1278 C1279 1.399 1_565 S
C1278 C1283 1.399 . S
C1279 C1278 1.399 1_545 S
C1279 C1280 1.376 . S
C1280 H1267 0.930 . S
C1280 C1279 1.376 . S
C1280 C1281 1.388 . S
C1281 H1268 0.930 . S
C1281 C1280 1.388 . S
C1281 C1282 1.390 . S
C1282 C1281 1.390 . S
C1282 C1283 1.394 1_545 S
C1282 C1288 1.465 . S
C1283 C1278 1.399 . S
C1283 C1282 1.394 1_565 S
C1283 C1284 1.516 . S
C1284 C1283 1.516 . S
C1284 C1285 1.502 . S
C1284 C1286 1.561 . S
C1284 C1287 1.526 . S
C1285 H1269 0.959 . S
C1285 H1270 0.959 . S
C1285 H1271 0.961 . S
C1285 C1284 1.502 . S
C1286 H1272 0.960 . S
C1286 H1273 0.961 . S
C1286 H1274 0.959 . S
C1286 C1284 1.561 . S
C1287 C1284 1.526 . S
C1287 C1288 1.396 1_565 S
C1287 C1292 1.390 . S
C1288 C1282 1.465 . S
C1288 C1287 1.396 1_545 S
C1288 C1289 1.399 . S
C1289 H1275 0.929 . S
C1289 C1288 1.399 . S
C1289 C1290 1.385 . S
C1290 H1276 0.931 . S
C1290 C1289 1.385 . S
C1290 C1291 1.389 . S
C1291 C1290 1.389 . S
C1291 C1292 1.387 1_545 S
C1292 H1277 0.930 . S
C1292 C1287 1.390 . S
C1292 C1291 1.387 1_565 S
H1293 C1305 0.930 . S
H1294 C1307 0.916 1_554 S
H1295 C1308 0.930 . S
H1296 C1312 0.959 . S
H1297 C1312 0.959 . S
H1298 C1312 0.961 . S
H1299 C1313 0.960 1_554 S
H1300 C1313 0.961 . S
H1301 C1313 0.959 1_554 S
H1302 C1316 0.929 . S
H1303 C1317 0.931 . S
H1304 C1319 0.930 . S
C1305 H1293 0.930 . S
C1305 C1306 1.392 1_556 S
C1305 C1310 1.399 . S
C1306 C1305 1.392 1_554 S
C1306 C1307 1.373 1_554 S
C1307 H1294 0.916 1_556 S
C1307 C1306 1.373 1_556 S
C1307 C1308 1.407 . S
C1308 H1295 0.930 . S
C1308 C1307 1.407 . S
C1308 C1309 1.390 . S
C1309 C1308 1.390 . S
C1309 C1310 1.394 . S
C1309 C1315 1.465 . S
C1310 C1305 1.399 . S
C1310 C1309 1.394 . S
C1310 C1311 1.516 . S
C1311 C1310 1.516 . S
C1311 C1312 1.502 . S
C1311 C1313 1.561 . S
C1311 C1314 1.526 . S
C1312 H1296 0.959 . S
C1312 H1297 0.959 . S
C1312 H1298 0.961 . S
C1312 C1311 1.502 . S
C1313 H1299 0.960 1_556 S
C1313 H1300 0.961 . S
C1313 H1301 0.959 1_556 S
C1313 C1311 1.561 . S
C1314 C1311 1.526 . S
C1314 C1315 1.396 . S
C1314 C1319 1.390 . S
C1315 C1309 1.465 . S
C1315 C1314 1.396 . S
C1315 C1316 1.399 . S
C1316 H1302 0.929 . S
C1316 C1315 1.399 . S
C1316 C1317 1.385 . S
C1317 H1303 0.931 . S
C1317 C1316 1.385 . S
C1317 C1318 1.389 . S
C1318 C1317 1.389 . S
C1318 C1319 1.387 . S
C1319 H1304 0.930 . S
C1319 C1314 1.390 . S
C1319 C1318 1.387 . S
H1320 C1332 0.930 . S
H1321 C1334 0.930 . S
H1322 C1335 0.930 . S
H1323 C1339 0.959 . S
H1324 C1339 0.959 . S
H1325 C1339 0.961 . S
H1326 C1340 0.960 . S
H1327 C1340 0.961 . S
H1328 C1340 0.959 . S
H1329 C1343 0.929 . S
H1330 C1344 0.931 . S
H1331 C1346 0.930 . S
C1332 H1320 0.930 . S
C1332 C1333 1.399 . S
C1332 C1337 1.399 . S
C1333 C1332 1.399 . S
C1333 C1334 1.376 . S
C1334 H1321 0.930 . S
C1334 C1333 1.376 . S
C1334 C1335 1.388 . S
C1335 H1322 0.930 . S
C1335 C1334 1.388 . S
C1335 C1336 1.390 . S
C1336 C1335 1.390 . S
C1336 C1337 1.394 . S
C1336 C1342 1.465 . S
C1337 C1332 1.399 . S
C1337 C1336 1.394 . S
C1337 C1338 1.516 . S
C1338 C1337 1.516 . S
C1338 C1339 1.502 . S
C1338 C1340 1.561 . S
C1338 C1341 1.526 . S
C1339 H1323 0.959 . S
C1339 H1324 0.959 . S
C1339 H1325 0.961 . S
C1339 C1338 1.502 . S
C1340 H1326 0.960 . S
C1340 H1327 0.961 . S
C1340 H1328 0.959 . S
C1340 C1338 1.561 . S
C1341 C1338 1.526 . S
C1341 C1342 1.396 . S
C1341 C1346 1.390 . S
C1342 C1336 1.465 . S
C1342 C1341 1.396 . S
C1342 C1343 1.399 . S
C1343 H1329 0.929 . S
C1343 C1342 1.399 . S
C1343 C1344 1.385 1_565 S
C1344 H1330 0.931 . S
C1344 C1343 1.385 1_545 S
C1344 C1345 1.389 1_545 S
C1345 C1344 1.389 1_565 S
C1345 C1346 1.387 . S
C1346 H1331 0.930 . S
C1346 C1341 1.390 . S
C1346 C1345 1.387 . S
H1347 C1359 0.930 . S
H1348 C1361 0.930 . S
H1349 C1362 0.930 . S
H1350 C1366 0.959 . S
H1351 C1366 0.959 . S
H1352 C1366 0.961 . S
H1353 C1367 0.960 . S
H1354 C1367 0.961 . S
H1355 C1367 0.959 . S
H1356 C1370 0.929 . S
H1357 C1371 0.931 . S
H1358 C1373 0.930 . S
C1359 H1347 0.930 . S
C1359 C1360 1.399 . S
C1359 C1364 1.399 . S
C1360 C1359 1.399 . S
C1360 C1361 1.376 . S
C1361 H1348 0.930 . S
C1361 C1360 1.376 . S
C1361 C1362 1.388 . S
C1362 H1349 0.930 . S
C1362 C1361 1.388 . S
C1362 C1363 1.390 . S
C1363 C1362 1.390 . S
C1363 C1364 1.394 . S
C1363 C1369 1.465 . S
C1364 C1359 1.399 . S
C1364 C1363 1.394 . S
C1364 C1365 1.516 . S
C1365 C1364 1.516 . S
C1365 C1366 1.502 . S
C1365 C1367 1.561 . S
C1365 C1368 1.526 . S
C1366 H1350 0.959 . S
C1366 H1351 0.959 . S
C1366 H1352 0.961 . S
C1366 C1365 1.502 . S
C1367 H1353 0.960 . S
C1367 H1354 0.961 . S
C1367 H1355 0.959 . S
C1367 C1365 1.561 . S
C1368 C1365 1.526 . S
C1368 C1369 1.396 . S
C1368 C1373 1.390 . S
C1369 C1363 1.465 . S
C1369 C1368 1.396 . S
C1369 C1370 1.399 . S
C1370 H1356 0.929 . S
C1370 C1369 1.399 . S
C1370 C1371 1.385 . S
C1371 H1357 0.931 . S
C1371 C1370 1.385 . S
C1371 C1372 1.389 . S
C1372 C1371 1.389 . S
C1372 C1373 1.387 . S
C1373 H1358 0.930 . S
C1373 C1368 1.390 . S
C1373 C1372 1.387 . S
H1374 C1386 0.930 . S
H1375 C1388 0.930 . S
H1376 C1389 0.926 1_565 S
H1377 C1393 0.959 . S
H1378 C1393 0.959 . S
H1379 C1393 0.961 . S
H1380 C1394 0.960 . S
H1381 C1394 0.961 . S
H1382 C1394 0.959 . S
H1383 C1397 0.929 . S
H1384 C1398 0.931 . S
H1385 C1400 0.930 . S
C1386 H1374 0.930 . S
C1386 C1387 1.418 . S
C1386 C1391 1.399 . S
C1387 C1386 1.418 . S
C1387 C1388 1.368 1_545 S
C1388 H1375 0.930 . S
C1388 C1387 1.368 1_565 S
C1388 C1389 1.385 1_565 S
C1389 H1376 0.926 1_545 S
C1389 C1388 1.385 1_545 S
C1389 C1390 1.397 . S
C1390 C1389 1.397 . S
C1390 C1391 1.394 . S
C1390 C1396 1.465 . S
C1391 C1386 1.399 . S
C1391 C1390 1.394 . S
C1391 C1392 1.516 . S
C1392 C1391 1.516 . S
C1392 C1393 1.502 . S
C1392 C1394 1.561 . S
C1392 C1395 1.526 . S
C1393 H1377 0.959 . S
C1393 H1378 0.959 . S
C1393 H1379 0.961 . S
C1393 C1392 1.502 . S
C1394 H1380 0.960 . S
C1394 H1381 0.961 . S
C1394 H1382 0.959 . S
C1394 C1392 1.561 . S
C1395 C1392 1.526 . S
C1395 C1396 1.396 . S
C1395 C1400 1.390 . S
C1396 C1390 1.465 . S
C1396 C1395 1.396 . S
C1396 C1397 1.399 . S
C1397 H1383 0.929 . S
C1397 C1396 1.399 . S
C1397 C1398 1.385 . S
C1398 H1384 0.931 . S
C1398 C1397 1.385 . S
C1398 C1399 1.389 . S
C1399 C1398 1.389 . S
C1399 C1400 1.387 . S
C1400 H1385 0.930 . S
C1400 C1395 1.390 . S
C1400 C1399 1.387 . S
H1401 C1413 0.930 1_556 S
H1402 C1415 0.930 . S
H1403 C1416 0.930 . S
H1404 C1420 0.959 . S
H1405 C1420 0.959 . S
H1406 C1420 0.961 1_556 S
H1407 C1421 0.960 . S
H1408 C1421 0.961 . S
H1409 C1421 0.959 . S
H1410 C1424 0.929 . S
H1411 C1425 0.931 . S
H1412 C1427 0.930 . S
C1413 H1401 0.930 1_554 S
C1413 C1414 1.399 . S
C1413 C1418 1.399 . S
C1414 C1413 1.399 . S
C1414 C1415 1.376 . S
C1415 H1402 0.930 . S
C1415 C1414 1.376 . S
C1415 C1416 1.388 . S
C1416 H1403 0.930 . S
C1416 C1415 1.388 . S
C1416 C1417 1.390 . S
C1417 C1416 1.390 . S
C1417 C1418 1.394 . S
C1417 C1423 1.465 . S
C1418 C1413 1.399 . S
C1418 C1417 1.394 . S
C1418 C1419 1.516 . S
C1419 C1418 1.516 . S
C1419 C1420 1.502 . S
C1419 C1421 1.561 . S
C1419 C1422 1.526 . S
C1420 H1404 0.959 . S
C1420 H1405 0.959 . S
C1420 H1406 0.961 1_554 S
C1420 C1419 1.502 . S
C1421 H1407 0.960 . S
C1421 H1408 0.961 . S
C1421 H1409 0.959 . S
C1421 C1419 1.561 . S
C1422 C1419 1.526 . S
C1422 C1423 1.396 . S
C1422 C1427 1.390 . S
C1423 C1417 1.465 . S
C1423 C1422 1.396 . S
C1423 C1424 1.399 . S
C1424 H1410 0.929 . S
C1424 C1423 1.399 . S
C1424 C1425 1.385 . S
C1425 H1411 0.931 . S
C1425 C1424 1.385 . S
C1425 C1426 1.389 . S
C1426 C1425 1.389 . S
C1426 C1427 1.387 . S
C1427 H1412 0.930 . S
C1427 C1422 1.390 . S
C1427 C1426 1.387 . S
H1428 C1440 0.930 . S
H1429 C1442 0.962 . S
H1430 C1443 0.930 . S
H1431 C1447 0.959 . S
H1432 C1447 0.959 . S
H1433 C1447 0.961 . S
H1434 C1448 0.960 . S
H1435 C1448 0.961 . S
H1436 C1448 0.959 . S
H1437 C1451 0.929 . S
H1438 C1452 0.931 . S
H1439 C1454 0.930 . S
C1440 H1428 0.930 . S
C1440 C1441 1.399 . S
C1440 C1445 1.399 . S
C1441 C1440 1.399 . S
C1441 C1442 1.335 1_554 S
C1442 H1429 0.962 . S
C1442 C1441 1.335 1_556 S
C1442 C1443 1.400 . S
C1443 H1430 0.930 . S
C1443 C1442 1.400 . S
C1443 C1444 1.390 1_556 S
C1444 C1443 1.390 1_554 S
C1444 C1445 1.394 . S
C1444 C1450 1.465 . S
C1445 C1440 1.399 . S
C1445 C1444 1.394 . S
C1445 C1446 1.516 . S
C1446 C1445 1.516 . S
C1446 C1447 1.502 . S
C1446 C1448 1.561 . S
C1446 C1449 1.526 . S
C1447 H1431 0.959 . S
C1447 H1432 0.959 . S
C1447 H1433 0.961 . S
C1447 C1446 1.502 . S
C1448 H1434 0.960 . S
C1448 H1435 0.961 . S
C1448 H1436 0.959 . S
C1448 C1446 1.561 . S
C1449 C1446 1.526 . S
C1449 C1450 1.396 . S
C1449 C1454 1.390 . S
C1450 C1444 1.465 . S
C1450 C1449 1.396 . S
C1450 C1451 1.399 1_554 S
C1451 H1437 0.929 . S
C1451 C1450 1.399 1_556 S
C1451 C1452 1.385 . S
C1452 H1438 0.931 . S
C1452 C1451 1.385 . S
C1452 C1453 1.389 1_556 S
C1453 C1452 1.389 1_554 S
C1453 C1454 1.387 . S
C1454 H1439 0.930 . S
C1454 C1449 1.390 . S
C1454 C1453 1.387 . S
H1455 C1467 0.930 1_455 S
H1456 C1469 0.930 1_455 S
H1457 C1470 0.930 . S
H1458 C1474 0.959 . S
H1459 C1474 0.959 . S
H1460 C1474 0.961 . S
H1461 C1475 0.960 . S
H1462 C1475 0.961 . S
H1463 C1475 0.959 . S
H1464 C1478 0.929 . S
H1465 C1479 0.931 . S
H1466 C1481 0.930 . S
C1467 H1455 0.930 1_655 S
C1467 C1468 1.399 1_655 S
C1467 C1472 1.399 . S
C1468 C1467 1.399 1_455 S
C1468 C1469 1.376 1_455 S
C1469 H1456 0.930 1_655 S
C1469 C1468 1.376 1_655 S
C1469 C1470 1.388 . S
C1470 H1457 0.930 . S
C1470 C1469 1.388 . S
C1470 C1471 1.390 . S
C1471 C1470 1.390 . S
C1471 C1472 1.394 . S
C1471 C1477 1.465 . S
C1472 C1467 1.399 . S
C1472 C1471 1.394 . S
C1472 C1473 1.516 . S
C1473 C1472 1.516 . S
C1473 C1474 1.502 . S
C1473 C1475 1.561 . S
C1473 C1476 1.526 . S
C1474 H1458 0.959 . S
C1474 H1459 0.959 . S
C1474 H1460 0.961 . S
C1474 C1473 1.502 . S
C1475 H1461 0.960 . S
C1475 H1462 0.961 . S
C1475 H1463 0.959 . S
C1475 C1473 1.561 . S
C1476 C1473 1.526 . S
C1476 C1477 1.396 . S
C1476 C1481 1.390 . S
C1477 C1471 1.465 . S
C1477 C1476 1.396 . S
C1477 C1478 1.399 . S
C1478 H1464 0.929 . S
C1478 C1477 1.399 . S
C1478 C1479 1.385 . S
C1479 H1465 0.931 . S
C1479 C1478 1.385 . S
C1479 C1480 1.389 . S
C1480 C1479 1.389 . S
C1480 C1481 1.387 . S
C1481 H1466 0.930 . S
C1481 C1476 1.390 . S
C1481 C1480 1.387 . S
H1482 C1494 0.930 . S
H1483 C1496 0.930 . S
H1484 C1497 0.930 . S
H1485 C1501 0.959 . S
H1486 C1501 0.959 . S
H1487 C1501 0.961 . S
H1488 C1502 0.960 . S
H1489 C1502 0.961 . S
H1490 C1502 0.959 . S
H1491 C1505 0.929 . S
H1492 C1506 0.931 . S
H1493 C1508 0.930 . S
C1494 H1482 0.930 . S
C1494 C1495 1.399 . S
C1494 C1499 1.399 . S
C1495 C1494 1.399 . S
C1495 C1496 1.376 . S
C1496 H1483 0.930 . S
C1496 C1495 1.376 . S
C1496 C1497 1.388 . S
C1497 H1484 0.930 . S
C1497 C1496 1.388 . S
C1497 C1498 1.390 . S
C1498 C1497 1.390 . S
C1498 C1499 1.394 . S
C1498 C1504 1.465 . S
C1499 C1494 1.399 . S
C1499 C1498 1.394 . S
C1499 C1500 1.516 . S
C1500 C1499 1.516 . S
C1500 C1501 1.502 . S
C1500 C1502 1.561 . S
C1500 C1503 1.526 . S
C1501 H1485 0.959 . S
C1501 H1486 0.959 . S
C1501 H1487 0.961 . S
C1501 C1500 1.502 . S
C1502 H1488 0.960 . S
C1502 H1489 0.961 . S
C1502 H1490 0.959 . S
C1502 C1500 1.561 . S
C1503 C1500 1.526 . S
C1503 C1504 1.396 . S
C1503 C1508 1.390 . S
C1504 C1498 1.465 . S
C1504 C1503 1.396 . S
C1504 C1505 1.399 . S
C1505 H1491 0.929 . S
C1505 C1504 1.399 . S
C1505 C1506 1.385 . S
C1506 H1492 0.931 . S
C1506 C1505 1.385 . S
C1506 C1507 1.389 . S
C1507 C1506 1.389 . S
C1507 C1508 1.387 . S
C1508 H1493 0.930 . S
C1508 C1503 1.390 . S
C1508 C1507 1.387 . S
H1509 C1521 0.930 . S
H1510 C1523 0.930 . S
H1511 C1524 0.930 . S
H1512 C1528 0.959 . S
H1513 C1528 0.959 . S
H1514 C1528 0.961 . S
H1515 C1529 0.960 . S
H1516 C1529 0.961 . S
H1517 C1529 0.959 . S
H1518 C1532 0.929 . S
H1519 C1533 0.931 . S
H1520 C1535 0.930 . S
C1521 H1509 0.930 . S
C1521 C1522 1.399 . S
C1521 C1526 1.399 . S
C1522 C1521 1.399 . S
C1522 C1523 1.376 . S
C1523 H1510 0.930 . S
C1523 C1522 1.376 . S
C1523 C1524 1.388 . S
C1524 H1511 0.930 . S
C1524 C1523 1.388 . S
C1524 C1525 1.390 . S
C1525 C1524 1.390 . S
C1525 C1526 1.394 . S
C1525 C1531 1.465 . S
C1526 C1521 1.399 . S
C1526 C1525 1.394 . S
C1526 C1527 1.516 . S
C1527 C1526 1.516 . S
C1527 C1528 1.502 . S
C1527 C1529 1.561 . S
C1527 C1530 1.526 . S
C1528 H1512 0.959 . S
C1528 H1513 0.959 . S
C1528 H1514 0.961 . S
C1528 C1527 1.502 . S
C1529 H1515 0.960 . S
C1529 H1516 0.961 . S
C1529 H1517 0.959 . S
C1529 C1527 1.561 . S
C1530 C1527 1.526 . S
C1530 C1531 1.396 . S
C1530 C1535 1.390 . S
C1531 C1525 1.465 . S
C1531 C1530 1.396 . S
C1531 C1532 1.399 . S
C1532 H1518 0.929 . S
C1532 C1531 1.399 . S
C1532 C1533 1.385 . S
C1533 H1519 0.931 . S
C1533 C1532 1.385 . S
C1533 C1534 1.389 . S
C1534 C1533 1.389 . S
C1534 C1535 1.387 . S
C1535 H1520 0.930 . S
C1535 C1530 1.390 . S
C1535 C1534 1.387 . S
H1536 C1548 0.930 . S
H1537 C1550 0.930 . S
H1538 C1551 0.930 . S
H1539 C1555 0.959 . S
H1540 C1555 0.959 . S
H1541 C1555 0.961 . S
H1542 C1556 0.960 . S
H1543 C1556 0.961 . S
H1544 C1556 0.959 . S
H1545 C1559 0.929 . S
H1546 C1560 0.931 . S
H1547 C1562 0.930 . S
C1548 H1536 0.930 . S
C1548 C1549 1.399 . S
C1548 C1553 1.399 . S
C1549 C1548 1.399 . S
C1549 C1550 1.376 . S
C1550 H1537 0.930 . S
C1550 C1549 1.376 . S
C1550 C1551 1.388 . S
C1551 H1538 0.930 . S
C1551 C1550 1.388 . S
C1551 C1552 1.390 . S
C1552 C1551 1.390 . S
C1552 C1553 1.394 . S
C1552 C1558 1.465 . S
C1553 C1548 1.399 . S
C1553 C1552 1.394 . S
C1553 C1554 1.516 . S
C1554 C1553 1.516 . S
C1554 C1555 1.502 . S
C1554 C1556 1.561 . S
C1554 C1557 1.526 . S
C1555 H1539 0.959 . S
C1555 H1540 0.959 . S
C1555 H1541 0.961 . S
C1555 C1554 1.502 . S
C1556 H1542 0.960 . S
C1556 H1543 0.961 . S
C1556 H1544 0.959 . S
C1556 C1554 1.561 . S
C1557 C1554 1.526 . S
C1557 C1558 1.396 . S
C1557 C1562 1.390 . S
C1558 C1552 1.465 . S
C1558 C1557 1.396 . S
C1558 C1559 1.399 . S
C1559 H1545 0.929 . S
C1559 C1558 1.399 . S
C1559 C1560 1.385 . S
C1560 H1546 0.931 . S
C1560 C1559 1.385 . S
C1560 C1561 1.389 . S
C1561 C1560 1.389 . S
C1561 C1562 1.387 . S
C1562 H1547 0.930 . S
C1562 C1557 1.390 . S
C1562 C1561 1.387 . S
H1563 C1575 0.930 . S
H1564 C1577 0.930 . S
H1565 C1578 0.930 . S
H1566 C1582 0.959 . S
H1567 C1582 0.959 . S
H1568 C1582 0.961 . S
H1569 C1583 0.960 . S
H1570 C1583 0.961 . S
H1571 C1583 0.959 . S
H1572 C1586 0.929 . S
H1573 C1587 0.931 . S
H1574 C1589 0.930 . S
C1575 H1563 0.930 . S
C1575 C1576 1.399 . S
C1575 C1580 1.399 . S
C1576 C1575 1.399 . S
C1576 C1577 1.376 . S
C1577 H1564 0.930 . S
C1577 C1576 1.376 . S
C1577 C1578 1.388 . S
C1578 H1565 0.930 . S
C1578 C1577 1.388 . S
C1578 C1579 1.390 . S
C1579 C1578 1.390 . S
C1579 C1580 1.394 . S
C1579 C1585 1.465 . S
C1580 C1575 1.399 . S
C1580 C1579 1.394 . S
C1580 C1581 1.516 . S
C1581 C1580 1.516 . S
C1581 C1582 1.502 . S
C1581 C1583 1.561 . S
C1581 C1584 1.526 . S
C1582 H1566 0.959 . S
C1582 H1567 0.959 . S
C1582 H1568 0.961 . S
C1582 C1581 1.502 . S
C1583 H1569 0.960 . S
C1583 H1570 0.961 . S
C1583 H1571 0.959 . S
C1583 C1581 1.561 . S
C1584 C1581 1.526 . S
C1584 C1585 1.396 . S
C1584 C1589 1.390 . S
C1585 C1579 1.465 . S
C1585 C1584 1.396 . S
C1585 C1586 1.399 . S
C1586 H1572 0.929 . S
C1586 C1585 1.399 . S
C1586 C1587 1.385 . S
C1587 H1573 0.931 . S
C1587 C1586 1.385 . S
C1587 C1588 1.389 . S
C1588 C1587 1.389 . S
C1588 C1589 1.387 . S
C1589 H1574 0.930 . S
C1589 C1584 1.390 . S
C1589 C1588 1.387 . S
H1590 C1602 0.930 . S
H1591 C1604 0.930 . S
H1592 C1605 0.930 . S
H1593 C1609 0.959 . S
H1594 C1609 0.959 . S
H1595 C1609 0.961 . S
H1596 C1610 0.960 . S
H1597 C1610 0.961 . S
H1598 C1610 0.959 . S
H1599 C1613 0.929 . S
H1600 C1614 0.931 . S
H1601 C1616 0.930 . S
C1602 H1590 0.930 . S
C1602 C1603 1.399 . S
C1602 C1607 1.399 . S
C1603 C1602 1.399 . S
C1603 C1604 1.376 . S
C1604 H1591 0.930 . S
C1604 C1603 1.376 . S
C1604 C1605 1.388 . S
C1605 H1592 0.930 . S
C1605 C1604 1.388 . S
C1605 C1606 1.390 . S
C1606 C1605 1.390 . S
C1606 C1607 1.394 . S
C1606 C1612 1.465 . S
C1607 C1602 1.399 . S
C1607 C1606 1.394 . S
C1607 C1608 1.516 . S
C1608 C1607 1.516 . S
C1608 C1609 1.502 . S
C1608 C1610 1.561 . S
C1608 C1611 1.526 . S
C1609 H1593 0.959 . S
C1609 H1594 0.959 . S
C1609 H1595 0.961 . S
C1609 C1608 1.502 . S
C1610 H1596 0.960 . S
C1610 H1597 0.961 . S
C1610 H1598 0.959 . S
C1610 C1608 1.561 . S
C1611 C1608 1.526 . S
C1611 C1612 1.396 . S
C1611 C1616 1.390 . S
C1612 C1606 1.465 . S
C1612 C1611 1.396 . S
C1612 C1613 1.399 . S
C1613 H1599 0.929 . S
C1613 C1612 1.399 . S
C1613 C1614 1.385 . S
C1614 H1600 0.931 . S
C1614 C1613 1.385 . S
C1614 C1615 1.389 . S
C1615 C1614 1.389 . S
C1615 C1616 1.387 . S
C1616 H1601 0.930 . S
C1616 C1611 1.390 . S
C1616 C1615 1.387 . S
H1617 C1629 0.930 1_455 S
H1618 C1631 0.930 . S
H1619 C1632 0.930 . S
H1620 C1636 0.932 1_455 S
H1621 C1636 0.973 . S
H1622 C1636 0.940 1_455 S
H1623 C1637 0.960 . S
H1624 C1637 0.961 . S
H1625 C1637 0.959 . S
H1626 C1640 0.929 . S
H1627 C1641 0.931 . S
H1628 C1643 0.930 . S
C1629 H1617 0.930 1_655 S
C1629 C1630 1.399 . S
C1629 C1634 1.399 . S
C1630 C1629 1.399 . S
C1630 C1631 1.376 . S
C1631 H1618 0.930 . S
C1631 C1630 1.376 . S
C1631 C1632 1.388 . S
C1632 H1619 0.930 . S
C1632 C1631 1.388 . S
C1632 C1633 1.390 . S
C1633 C1632 1.390 . S
C1633 C1634 1.394 . S
C1633 C1639 1.465 . S
C1634 C1629 1.399 . S
C1634 C1633 1.394 . S
C1634 C1635 1.516 . S
C1635 C1634 1.516 . S
C1635 C1636 1.538 . S
C1635 C1637 1.561 . S
C1635 C1638 1.526 . S
C1636 H1620 0.932 1_655 S
C1636 H1621 0.973 . S
C1636 H1622 0.940 1_655 S
C1636 C1635 1.538 . S
C1637 H1623 0.960 . S
C1637 H1624 0.961 . S
C1637 H1625 0.959 . S
C1637 C1635 1.561 . S
C1638 C1635 1.526 . S
C1638 C1639 1.396 . S
C1638 C1643 1.390 . S
C1639 C1633 1.465 . S
C1639 C1638 1.396 . S
C1639 C1640 1.399 . S
C1640 H1626 0.929 . S
C1640 C1639 1.399 . S
C1640 C1641 1.385 . S
C1641 H1627 0.931 . S
C1641 C1640 1.385 . S
C1641 C1642 1.389 . S
C1642 C1641 1.389 . S
C1642 C1643 1.387 . S
C1643 H1628 0.930 . S
C1643 C1638 1.390 . S
C1643 C1642 1.387 . S
H1644 C1656 0.930 . S
H1645 C1658 0.930 . S
H1646 C1659 0.930 . S
H1647 C1663 0.959 . S
H1648 C1663 0.959 . S
H1649 C1663 0.961 . S
H1650 C1664 0.960 . S
H1651 C1664 0.961 . S
H1652 C1664 0.959 . S
H1653 C1667 0.929 . S
H1654 C1668 0.931 . S
H1655 C1670 0.930 . S
C1656 H1644 0.930 . S
C1656 C1657 1.399 . S
C1656 C1661 1.399 . S
C1657 C1656 1.399 . S
C1657 C1658 1.376 . S
C1658 H1645 0.930 . S
C1658 C1657 1.376 . S
C1658 C1659 1.388 . S
C1659 H1646 0.930 . S
C1659 C1658 1.388 . S
C1659 C1660 1.390 . S
C1660 C1659 1.390 . S
C1660 C1661 1.394 . S
C1660 C1666 1.465 . S
C1661 C1656 1.399 . S
C1661 C1660 1.394 . S
C1661 C1662 1.516 . S
C1662 C1661 1.516 . S
C1662 C1663 1.502 1_455 S
C1662 C1664 1.561 . S
C1662 C1665 1.526 . S
C1663 H1647 0.959 . S
C1663 H1648 0.959 . S
C1663 H1649 0.961 . S
C1663 C1662 1.502 1_655 S
C1664 H1650 0.960 . S
C1664 H1651 0.961 . S
C1664 H1652 0.959 . S
C1664 C1662 1.561 . S
C1665 C1662 1.526 . S
C1665 C1666 1.396 . S
C1665 C1670 1.390 . S
C1666 C1660 1.465 . S
C1666 C1665 1.396 . S
C1666 C1667 1.399 . S
C1667 H1653 0.929 . S
C1667 C1666 1.399 . S
C1667 C1668 1.385 . S
C1668 H1654 0.931 . S
C1668 C1667 1.385 . S
C1668 C1669 1.389 . S
C1669 C1668 1.389 . S
C1669 C1670 1.387 . S
C1670 H1655 0.930 . S
C1670 C1665 1.390 . S
C1670 C1669 1.387 . S
H1671 C1683 0.930 . S
H1672 C1685 0.930 . S
H1673 C1686 0.930 . S
H1674 C1690 0.959 . S
H1675 C1690 0.959 . S
H1676 C1690 0.961 . S
H1677 C1691 0.960 . S
H1678 C1691 0.961 . S
H1679 C1691 0.959 . S
H1680 C1694 0.929 . S
H1681 C1695 0.931 . S
H1682 C1697 0.930 . S
C1683 H1671 0.930 . S
C1683 C1684 1.399 . S
C1683 C1688 1.399 . S
C1684 C1683 1.399 . S
C1684 C1685 1.376 . S
C1685 H1672 0.930 . S
C1685 C1684 1.376 . S
C1685 C1686 1.388 . S
C1686 H1673 0.930 . S
C1686 C1685 1.388 . S
C1686 C1687 1.390 . S
C1687 C1686 1.390 . S
C1687 C1688 1.394 . S
C1687 C1693 1.465 . S
C1688 C1683 1.399 . S
C1688 C1687 1.394 . S
C1688 C1689 1.516 . S
C1689 C1688 1.516 . S
C1689 C1690 1.502 . S
C1689 C1691 1.561 . S
C1689 C1692 1.526 . S
C1690 H1674 0.959 . S
C1690 H1675 0.959 . S
C1690 H1676 0.961 . S
C1690 C1689 1.502 . S
C1691 H1677 0.960 . S
C1691 H1678 0.961 . S
C1691 H1679 0.959 . S
C1691 C1689 1.561 . S
C1692 C1689 1.526 . S
C1692 C1693 1.396 . S
C1692 C1697 1.390 . S
C1693 C1687 1.465 . S
C1693 C1692 1.396 . S
C1693 C1694 1.399 . S
C1694 H1680 0.929 . S
C1694 C1693 1.399 . S
C1694 C1695 1.385 . S
C1695 H1681 0.931 . S
C1695 C1694 1.385 . S
C1695 C1696 1.389 . S
C1696 C1695 1.389 . S
C1696 C1697 1.387 . S
C1697 H1682 0.930 . S
C1697 C1692 1.390 . S
C1697 C1696 1.387 . S
H1698 C1710 0.930 . S
H1699 C1712 0.930 . S
H1700 C1713 0.930 . S
H1701 C1717 0.959 . S
H1702 C1717 0.959 . S
H1703 C1717 0.961 . S
H1704 C1718 0.960 . S
H1705 C1718 0.961 . S
H1706 C1718 0.959 . S
H1707 C1721 0.929 . S
H1708 C1722 0.931 . S
H1709 C1724 0.930 . S
C1710 H1698 0.930 . S
C1710 C1711 1.399 . S
C1710 C1715 1.399 . S
C1711 C1710 1.399 . S
C1711 C1712 1.376 1_556 S
C1712 H1699 0.930 . S
C1712 C1711 1.376 1_554 S
C1712 C1713 1.388 . S
C1713 H1700 0.930 . S
C1713 C1712 1.388 . S
C1713 C1714 1.390 . S
C1714 C1713 1.390 . S
C1714 C1715 1.394 1_554 S
C1714 C1720 1.465 . S
C1715 C1710 1.399 . S
C1715 C1714 1.394 1_556 S
C1715 C1716 1.516 . S
C1716 C1715 1.516 . S
C1716 C1717 1.502 . S
C1716 C1718 1.561 . S
C1716 C1719 1.526 . S
C1717 H1701 0.959 . S
C1717 H1702 0.959 . S
C1717 H1703 0.961 . S
C1717 C1716 1.502 . S
C1718 H1704 0.960 . S
C1718 H1705 0.961 . S
C1718 H1706 0.959 . S
C1718 C1716 1.561 . S
C1719 C1716 1.526 . S
C1719 C1720 1.396 1_556 S
C1719 C1724 1.390 . S
C1720 C1714 1.465 . S
C1720 C1719 1.396 1_554 S
C1720 C1721 1.399 . S
C1721 H1707 0.929 . S
C1721 C1720 1.399 . S
C1721 C1722 1.385 . S
C1722 H1708 0.931 . S
C1722 C1721 1.385 . S
C1722 C1723 1.389 . S
C1723 C1722 1.389 . S
C1723 C1724 1.387 1_554 S
C1724 H1709 0.930 . S
C1724 C1719 1.390 . S
C1724 C1723 1.387 1_556 S
H1725 C1737 0.930 . S
H1726 C1739 0.930 . S
H1727 C1740 0.930 . S
H1728 C1744 0.959 . S
H1729 C1744 0.959 . S
H1730 C1744 0.961 . S
H1731 C1745 0.960 . S
H1732 C1745 0.961 . S
H1733 C1745 0.959 . S
H1734 C1748 0.929 . S
H1735 C1749 0.931 . S
H1736 C1751 0.930 . S
C1737 H1725 0.930 . S
C1737 C1738 1.399 . S
C1737 C1742 1.399 . S
C1738 C1737 1.399 . S
C1738 C1739 1.376 . S
C1739 H1726 0.930 . S
C1739 C1738 1.376 . S
C1739 C1740 1.388 . S
C1740 H1727 0.930 . S
C1740 C1739 1.388 . S
C1740 C1741 1.390 . S
C1741 C1740 1.390 . S
C1741 C1742 1.394 . S
C1741 C1747 1.465 . S
C1742 C1737 1.399 . S
C1742 C1741 1.394 . S
C1742 C1743 1.516 . S
C1743 C1742 1.516 . S
C1743 C1744 1.502 . S
C1743 C1745 1.561 . S
C1743 C1746 1.526 . S
C1744 H1728 0.959 . S
C1744 H1729 0.959 . S
C1744 H1730 0.961 . S
C1744 C1743 1.502 . S
C1745 H1731 0.960 . S
C1745 H1732 0.961 . S
C1745 H1733 0.959 . S
C1745 C1743 1.561 . S
C1746 C1743 1.526 . S
C1746 C1747 1.396 . S
C1746 C1751 1.390 . S
C1747 C1741 1.465 . S
C1747 C1746 1.396 . S
C1747 C1748 1.399 . S
C1748 H1734 0.929 . S
C1748 C1747 1.399 . S
C1748 C1749 1.385 . S
C1749 H1735 0.931 . S
C1749 C1748 1.385 . S
C1749 C1750 1.389 . S
C1750 C1749 1.389 . S
C1750 C1751 1.387 . S
C1751 H1736 0.930 . S
C1751 C1746 1.390 . S
C1751 C1750 1.387 . S
H1752 C1764 0.930 . S
H1753 C1766 0.930 1_565 S
H1754 C1767 0.930 . S
H1755 C1771 0.959 . S
H1756 C1771 0.959 . S
H1757 C1771 0.961 . S
H1758 C1772 0.960 . S
H1759 C1772 0.961 . S
H1760 C1772 0.959 . S
H1761 C1775 0.929 . S
H1762 C1776 0.931 . S
H1763 C1778 0.930 . S
C1764 H1752 0.930 . S
C1764 C1765 1.399 . S
C1764 C1769 1.399 . S
C1765 C1764 1.399 . S
C1765 C1766 1.376 . S
C1766 H1753 0.930 1_545 S
C1766 C1765 1.376 . S
C1766 C1767 1.388 . S
C1767 H1754 0.930 . S
C1767 C1766 1.388 . S
C1767 C1768 1.390 . S
C1768 C1767 1.390 . S
C1768 C1769 1.394 . S
C1768 C1774 1.465 . S
C1769 C1764 1.399 . S
C1769 C1768 1.394 . S
C1769 C1770 1.516 . S
C1770 C1769 1.516 . S
C1770 C1771 1.502 . S
C1770 C1772 1.561 . S
C1770 C1773 1.526 . S
C1771 H1755 0.959 . S
C1771 H1756 0.959 . S
C1771 H1757 0.961 . S
C1771 C1770 1.502 . S
C1772 H1758 0.960 . S
C1772 H1759 0.961 . S
C1772 H1760 0.959 . S
C1772 C1770 1.561 . S
C1773 C1770 1.526 . S
C1773 C1774 1.396 . S
C1773 C1778 1.390 . S
C1774 C1768 1.465 . S
C1774 C1773 1.396 . S
C1774 C1775 1.399 . S
C1775 H1761 0.929 . S
C1775 C1774 1.399 . S
C1775 C1776 1.385 . S
C1776 H1762 0.931 . S
C1776 C1775 1.385 . S
C1776 C1777 1.389 . S
C1777 C1776 1.389 . S
C1777 C1778 1.387 . S
C1778 H1763 0.930 . S
C1778 C1773 1.390 . S
C1778 C1777 1.387 . S
H1779 C1791 0.930 . S
H1780 C1793 0.930 . S
H1781 C1794 0.930 . S
H1782 C1798 0.959 . S
H1783 C1798 0.959 . S
H1784 C1798 0.961 . S
H1785 C1799 0.960 . S
H1786 C1799 0.961 . S
H1787 C1799 0.959 . S
H1788 C1802 0.929 . S
H1789 C1803 0.931 . S
H1790 C1805 0.930 . S
C1791 H1779 0.930 . S
C1791 C1792 1.399 . S
C1791 C1796 1.399 . S
C1792 C1791 1.399 . S
C1792 C1793 1.376 . S
C1793 H1780 0.930 . S
C1793 C1792 1.376 . S
C1793 C1794 1.388 . S
C1794 H1781 0.930 . S
C1794 C1793 1.388 . S
C1794 C1795 1.390 . S
C1795 C1794 1.390 . S
C1795 C1796 1.394 . S
C1795 C1801 1.465 . S
C1796 C1791 1.399 . S
C1796 C1795 1.394 . S
C1796 C1797 1.516 . S
C1797 C1796 1.516 . S
C1797 C1798 1.502 . S
C1797 C1799 1.561 . S
C1797 C1800 1.526 . S
C1798 H1782 0.959 . S
C1798 H1783 0.959 . S
C1798 H1784 0.961 . S
C1798 C1797 1.502 . S
C1799 H1785 0.960 . S
C1799 H1786 0.961 . S
C1799 H1787 0.959 . S
C1799 C1797 1.561 . S
C1800 C1797 1.526 . S
C1800 C1801 1.396 . S
C1800 C1805 1.390 . S
C1801 C1795 1.465 . S
C1801 C1800 1.396 . S
C1801 C1802 1.399 . S
C1802 H1788 0.929 . S
C1802 C1801 1.399 . S
C1802 C1803 1.385 . S
C1803 H1789 0.931 . S
C1803 C1802 1.385 . S
C1803 C1804 1.389 . S
C1804 C1803 1.389 . S
C1804 C1805 1.387 . S
C1805 H1790 0.930 . S
C1805 C1800 1.390 . S
C1805 C1804 1.387 . S
H1806 C1818 0.930 . S
H1807 C1820 0.930 . S
H1808 C1821 0.930 . S
H1809 C1825 0.959 . S
H1810 C1825 0.959 . S
H1811 C1825 0.961 . S
H1812 C1826 0.960 . S
H1813 C1826 0.961 . S
H1814 C1826 0.959 . S
H1815 C1829 0.929 . S
H1816 C1830 0.931 . S
H1817 C1832 0.930 . S
C1818 H1806 0.930 . S
C1818 C1819 1.399 . S
C1818 C1823 1.399 . S
C1819 C1818 1.399 . S
C1819 C1820 1.376 . S
C1820 H1807 0.930 . S
C1820 C1819 1.376 . S
C1820 C1821 1.388 . S
C1821 H1808 0.930 . S
C1821 C1820 1.388 . S
C1821 C1822 1.390 . S
C1822 C1821 1.390 . S
C1822 C1823 1.394 . S
C1822 C1828 1.465 . S
C1823 C1818 1.399 . S
C1823 C1822 1.394 . S
C1823 C1824 1.516 . S
C1824 C1823 1.516 . S
C1824 C1825 1.502 . S
C1824 C1826 1.561 . S
C1824 C1827 1.526 . S
C1825 H1809 0.959 . S
C1825 H1810 0.959 . S
C1825 H1811 0.961 . S
C1825 C1824 1.502 . S
C1826 H1812 0.960 . S
C1826 H1813 0.961 . S
C1826 H1814 0.959 . S
C1826 C1824 1.561 . S
C1827 C1824 1.526 . S
C1827 C1828 1.396 . S
C1827 C1832 1.390 . S
C1828 C1822 1.465 . S
C1828 C1827 1.396 . S
C1828 C1829 1.399 . S
C1829 H1815 0.929 . S
C1829 C1828 1.399 . S
C1829 C1830 1.385 . S
C1830 H1816 0.931 . S
C1830 C1829 1.385 . S
C1830 C1831 1.389 . S
C1831 C1830 1.389 . S
C1831 C1832 1.387 . S
C1832 H1817 0.930 . S
C1832 C1827 1.390 . S
C1832 C1831 1.387 . S
H1833 C1845 0.930 . S
H1834 C1847 0.930 . S
H1835 C1848 0.930 . S
H1836 C1852 0.959 . S
H1837 C1852 0.959 . S
H1838 C1852 0.961 . S
H1839 C1853 0.960 . S
H1840 C1853 0.961 . S
H1841 C1853 0.959 . S
H1842 C1856 0.929 . S
H1843 C1857 0.931 . S
H1844 C1859 0.930 . S
C1845 H1833 0.930 . S
C1845 C1846 1.399 . S
C1845 C1850 1.399 . S
C1846 C1845 1.399 . S
C1846 C1847 1.376 . S
C1847 H1834 0.930 . S
C1847 C1846 1.376 . S
C1847 C1848 1.388 . S
C1848 H1835 0.930 . S
C1848 C1847 1.388 . S
C1848 C1849 1.390 . S
C1849 C1848 1.390 . S
C1849 C1850 1.394 . S
C1849 C1855 1.465 . S
C1850 C1845 1.399 . S
C1850 C1849 1.394 . S
C1850 C1851 1.516 . S
C1851 C1850 1.516 . S
C1851 C1852 1.502 . S
C1851 C1853 1.561 . S
C1851 C1854 1.526 . S
C1852 H1836 0.959 . S
C1852 H1837 0.959 . S
C1852 H1838 0.961 . S
C1852 C1851 1.502 . S
C1853 H1839 0.960 . S
C1853 H1840 0.961 . S
C1853 H1841 0.959 . S
C1853 C1851 1.561 . S
C1854 C1851 1.526 . S
C1854 C1855 1.396 . S
C1854 C1859 1.390 . S
C1855 C1849 1.465 . S
C1855 C1854 1.396 . S
C1855 C1856 1.399 . S
C1856 H1842 0.929 . S
C1856 C1855 1.399 . S
C1856 C1857 1.385 . S
C1857 H1843 0.931 . S
C1857 C1856 1.385 . S
C1857 C1858 1.389 . S
C1858 C1857 1.389 . S
C1858 C1859 1.387 . S
C1859 H1844 0.930 . S
C1859 C1854 1.390 . S
C1859 C1858 1.387 . S
H1860 C1872 0.930 . S
H1861 C1874 0.930 . S
H1862 C1875 0.930 . S
H1863 C1879 0.959 . S
H1864 C1879 0.959 . S
H1865 C1879 0.961 . S
H1866 C1880 0.960 . S
H1867 C1880 0.961 . S
H1868 C1880 0.959 . S
H1869 C1883 0.929 . S
H1870 C1884 0.931 . S
H1871 C1886 0.930 . S
C1872 H1860 0.930 . S
C1872 C1873 1.399 . S
C1872 C1877 1.399 . S
C1873 C1872 1.399 . S
C1873 C1874 1.376 . S
C1874 H1861 0.930 . S
C1874 C1873 1.376 . S
C1874 C1875 1.388 . S
C1875 H1862 0.930 . S
C1875 C1874 1.388 . S
C1875 C1876 1.390 . S
C1876 C1875 1.390 . S
C1876 C1877 1.394 . S
C1876 C1882 1.465 . S
C1877 C1872 1.399 . S
C1877 C1876 1.394 . S
C1877 C1878 1.516 . S
C1878 C1877 1.516 . S
C1878 C1879 1.502 . S
C1878 C1880 1.561 . S
C1878 C1881 1.526 . S
C1879 H1863 0.959 . S
C1879 H1864 0.959 . S
C1879 H1865 0.961 . S
C1879 C1878 1.502 . S
C1880 H1866 0.960 . S
C1880 H1867 0.961 . S
C1880 H1868 0.959 . S
C1880 C1878 1.561 . S
C1881 C1878 1.526 . S
C1881 C1882 1.396 . S
C1881 C1886 1.390 . S
C1882 C1876 1.465 . S
C1882 C1881 1.396 . S
C1882 C1883 1.399 . S
C1883 H1869 0.929 . S
C1883 C1882 1.399 . S
C1883 C1884 1.385 . S
C1884 H1870 0.931 . S
C1884 C1883 1.385 . S
C1884 C1885 1.389 . S
C1885 C1884 1.389 . S
C1885 C1886 1.387 . S
C1886 H1871 0.930 . S
C1886 C1881 1.390 . S
C1886 C1885 1.387 . S
H1887 C1899 0.930 . S
H1888 C1901 0.930 . S
H1889 C1902 0.930 . S
H1890 C1906 0.959 . S
H1891 C1906 0.959 . S
H1892 C1906 0.961 . S
H1893 C1907 0.960 . S
H1894 C1907 0.961 . S
H1895 C1907 0.959 . S
H1896 C1910 0.929 . S
H1897 C1911 0.931 . S
H1898 C1913 0.930 . S
C1899 H1887 0.930 . S
C1899 C1900 1.399 . S
C1899 C1904 1.399 . S
C1900 C1899 1.399 . S
C1900 C1901 1.376 . S
C1901 H1888 0.930 . S
C1901 C1900 1.376 . S
C1901 C1902 1.388 . S
C1902 H1889 0.930 . S
C1902 C1901 1.388 . S
C1902 C1903 1.390 . S
C1903 C1902 1.390 . S
C1903 C1904 1.394 . S
C1903 C1909 1.465 . S
C1904 C1899 1.399 . S
C1904 C1903 1.394 . S
C1904 C1905 1.516 . S
C1905 C1904 1.516 . S
C1905 C1906 1.502 . S
C1905 C1907 1.561 . S
C1905 C1908 1.526 . S
C1906 H1890 0.959 . S
C1906 H1891 0.959 . S
C1906 H1892 0.961 . S
C1906 C1905 1.502 . S
C1907 H1893 0.960 . S
C1907 H1894 0.961 . S
C1907 H1895 0.959 . S
C1907 C1905 1.561 . S
C1908 C1905 1.526 . S
C1908 C1909 1.396 . S
C1908 C1913 1.390 . S
C1909 C1903 1.465 . S
C1909 C1908 1.396 . S
C1909 C1910 1.399 . S
C1910 H1896 0.929 . S
C1910 C1909 1.399 . S
C1910 C1911 1.385 . S
C1911 H1897 0.931 . S
C1911 C1910 1.385 . S
C1911 C1912 1.389 . S
C1912 C1911 1.389 . S
C1912 C1913 1.387 . S
C1913 H1898 0.930 . S
C1913 C1908 1.390 . S
C1913 C1912 1.387 . S
H1914 C1926 0.930 . S
H1915 C1928 0.930 . S
H1916 C1929 0.930 . S
H1917 C1933 0.959 . S
H1918 C1933 0.959 . S
H1919 C1933 0.961 . S
H1920 C1934 0.960 . S
H1921 C1934 0.961 . S
H1922 C1934 0.959 . S
H1923 C1937 0.929 . S
H1924 C1938 0.931 . S
H1925 C1940 0.930 . S
C1926 H1914 0.930 . S
C1926 C1927 1.399 . S
C1926 C1931 1.399 . S
C1927 C1926 1.399 . S
C1927 C1928 1.376 . S
C1928 H1915 0.930 . S
C1928 C1927 1.376 . S
C1928 C1929 1.388 . S
C1929 H1916 0.930 . S
C1929 C1928 1.388 . S
C1929 C1930 1.390 . S
C1930 C1929 1.390 . S
C1930 C1931 1.394 . S
C1930 C1936 1.465 . S
C1931 C1926 1.399 . S
C1931 C1930 1.394 . S
C1931 C1932 1.516 . S
C1932 C1931 1.516 . S
C1932 C1933 1.502 . S
C1932 C1934 1.561 . S
C1932 C1935 1.526 . S
C1933 H1917 0.959 . S
C1933 H1918 0.959 . S
C1933 H1919 0.961 . S
C1933 C1932 1.502 . S
C1934 H1920 0.960 . S
C1934 H1921 0.961 . S
C1934 H1922 0.959 . S
C1934 C1932 1.561 . S
C1935 C1932 1.526 . S
C1935 C1936 1.396 . S
C1935 C1940 1.390 . S
C1936 C1930 1.465 . S
C1936 C1935 1.396 . S
C1936 C1937 1.399 . S
C1937 H1923 0.929 . S
C1937 C1936 1.399 . S
C1937 C1938 1.385 . S
C1938 H1924 0.931 . S
C1938 C1937 1.385 . S
C1938 C1939 1.389 . S
C1939 C1938 1.389 . S
C1939 C1940 1.387 . S
C1940 H1925 0.930 . S
C1940 C1935 1.390 . S
C1940 C1939 1.387 . S
H1941 C1953 0.930 . S
H1942 C1955 0.930 . S
H1943 C1956 0.930 . S
H1944 C1960 0.959 . S
H1945 C1960 0.959 . S
H1946 C1960 0.961 . S
H1947 C1961 0.960 . S
H1948 C1961 0.961 . S
H1949 C1961 0.959 . S
H1950 C1964 0.929 . S
H1951 C1965 0.931 . S
H1952 C1967 0.930 . S
C1953 H1941 0.930 . S
C1953 C1954 1.399 . S
C1953 C1958 1.399 . S
C1954 C1953 1.399 . S
C1954 C1955 1.376 . S
C1955 H1942 0.930 . S
C1955 C1954 1.376 . S
C1955 C1956 1.388 . S
C1956 H1943 0.930 . S
C1956 C1955 1.388 . S
C1956 C1957 1.390 . S
C1957 C1956 1.390 . S
C1957 C1958 1.394 . S
C1957 C1963 1.465 . S
C1958 C1953 1.399 . S
C1958 C1957 1.394 . S
C1958 C1959 1.516 . S
C1959 C1958 1.516 . S
C1959 C1960 1.502 . S
C1959 C1961 1.561 . S
C1959 C1962 1.526 . S
C1960 H1944 0.959 . S
C1960 H1945 0.959 . S
C1960 H1946 0.961 . S
C1960 C1959 1.502 . S
C1961 H1947 0.960 . S
C1961 H1948 0.961 . S
C1961 H1949 0.959 . S
C1961 C1959 1.561 . S
C1962 C1959 1.526 . S
C1962 C1963 1.396 . S
C1962 C1967 1.390 . S
C1963 C1957 1.465 . S
C1963 C1962 1.396 . S
C1963 C1964 1.399 . S
C1964 H1950 0.929 . S
C1964 C1963 1.399 . S
C1964 C1965 1.385 . S
C1965 H1951 0.931 . S
C1965 C1964 1.385 . S
C1965 C1966 1.389 . S
C1966 C1965 1.389 . S
C1966 C1967 1.387 . S
C1967 H1952 0.930 . S
C1967 C1962 1.390 . S
C1967 C1966 1.387 . S
H1968 C1980 0.930 . S
H1969 C1982 0.930 . S
H1970 C1983 0.930 . S
H1971 C1987 0.959 . S
H1972 C1987 0.959 . S
H1973 C1987 0.961 . S
H1974 C1988 0.960 . S
H1975 C1988 0.961 . S
H1976 C1988 0.959 . S
H1977 C1991 0.929 . S
H1978 C1992 0.931 . S
H1979 C1994 0.930 . S
C1980 H1968 0.930 . S
C1980 C1981 1.399 . S
C1980 C1985 1.399 . S
C1981 C1980 1.399 . S
C1981 C1982 1.376 . S
C1982 H1969 0.930 . S
C1982 C1981 1.376 . S
C1982 C1983 1.388 . S
C1983 H1970 0.930 . S
C1983 C1982 1.388 . S
C1983 C1984 1.390 . S
C1984 C1983 1.390 . S
C1984 C1985 1.394 . S
C1984 C1990 1.465 . S
C1985 C1980 1.399 . S
C1985 C1984 1.394 . S
C1985 C1986 1.516 . S
C1986 C1985 1.516 . S
C1986 C1987 1.502 . S
C1986 C1988 1.561 . S
C1986 C1989 1.526 . S
C1987 H1971 0.959 . S
C1987 H1972 0.959 . S
C1987 H1973 0.961 . S
C1987 C1986 1.502 . S
C1988 H1974 0.960 . S
C1988 H1975 0.961 . S
C1988 H1976 0.959 . S
C1988 C1986 1.561 . S
C1989 C1986 1.526 . S
C1989 C1990 1.396 . S
C1989 C1994 1.390 . S
C1990 C1984 1.465 . S
C1990 C1989 1.396 . S
C1990 C1991 1.399 . S
C1991 H1977 0.929 . S
C1991 C1990 1.399 . S
C1991 C1992 1.385 . S
C1992 H1978 0.931 . S
C1992 C1991 1.385 . S
C1992 C1993 1.389 . S
C1993 C1992 1.389 . S
C1993 C1994 1.387 . S
C1994 H1979 0.930 . S
C1994 C1989 1.390 . S
C1994 C1993 1.387 . S
H1995 C2007 0.930 . S
H1996 C2009 0.930 . S
H1997 C2010 0.930 . S
H1998 C2014 0.959 . S
H1999 C2014 0.959 . S
H2000 C2014 0.961 . S
H2001 C2015 0.960 . S
H2002 C2015 0.961 . S
H2003 C2015 0.959 . S
H2004 C2018 0.929 . S
H2005 C2019 0.931 . S
H2006 C2021 0.930 . S
C2007 H1995 0.930 . S
C2007 C2008 1.399 . S
C2007 C2012 1.399 . S
C2008 C2007 1.399 . S
C2008 C2009 1.376 . S
C2009 H1996 0.930 . S
C2009 C2008 1.376 . S
C2009 C2010 1.388 . S
C2010 H1997 0.930 . S
C2010 C2009 1.388 . S
C2010 C2011 1.390 . S
C2011 C2010 1.390 . S
C2011 C2012 1.394 . S
C2011 C2017 1.465 . S
C2012 C2007 1.399 . S
C2012 C2011 1.394 . S
C2012 C2013 1.516 . S
C2013 C2012 1.516 . S
C2013 C2014 1.502 . S
C2013 C2015 1.561 . S
C2013 C2016 1.526 . S
C2014 H1998 0.959 . S
C2014 H1999 0.959 . S
C2014 H2000 0.961 . S
C2014 C2013 1.502 . S
C2015 H2001 0.960 . S
C2015 H2002 0.961 . S
C2015 H2003 0.959 . S
C2015 C2013 1.561 . S
C2016 C2013 1.526 . S
C2016 C2017 1.396 . S
C2016 C2021 1.390 . S
C2017 C2011 1.465 . S
C2017 C2016 1.396 . S
C2017 C2018 1.399 . S
C2018 H2004 0.929 . S
C2018 C2017 1.399 . S
C2018 C2019 1.385 . S
C2019 H2005 0.931 . S
C2019 C2018 1.385 . S
C2019 C2020 1.389 . S
C2020 C2019 1.389 . S
C2020 C2021 1.387 . S
C2021 H2006 0.930 . S
C2021 C2016 1.390 . S
C2021 C2020 1.387 . S
H2022 C2034 0.930 . S
H2023 C2036 0.930 . S
H2024 C2037 0.930 . S
H2025 C2041 0.959 . S
H2026 C2041 0.959 . S
H2027 C2041 0.961 . S
H2028 C2042 0.960 . S
H2029 C2042 0.961 . S
H2030 C2042 0.959 . S
H2031 C2045 0.929 . S
H2032 C2046 0.931 . S
H2033 C2048 0.930 . S
C2034 H2022 0.930 . S
C2034 C2035 1.399 . S
C2034 C2039 1.399 . S
C2035 C2034 1.399 . S
C2035 C2036 1.376 . S
C2036 H2023 0.930 . S
C2036 C2035 1.376 . S
C2036 C2037 1.388 . S
C2037 H2024 0.930 . S
C2037 C2036 1.388 . S
C2037 C2038 1.390 . S
C2038 C2037 1.390 . S
C2038 C2039 1.394 . S
C2038 C2044 1.465 . S
C2039 C2034 1.399 . S
C2039 C2038 1.394 . S
C2039 C2040 1.516 . S
C2040 C2039 1.516 . S
C2040 C2041 1.502 . S
C2040 C2042 1.561 . S
C2040 C2043 1.526 . S
C2041 H2025 0.959 . S
C2041 H2026 0.959 . S
C2041 H2027 0.961 . S
C2041 C2040 1.502 . S
C2042 H2028 0.960 . S
C2042 H2029 0.961 . S
C2042 H2030 0.959 . S
C2042 C2040 1.561 . S
C2043 C2040 1.526 . S
C2043 C2044 1.396 . S
C2043 C2048 1.390 . S
C2044 C2038 1.465 . S
C2044 C2043 1.396 . S
C2044 C2045 1.399 . S
C2045 H2031 0.929 . S
C2045 C2044 1.399 . S
C2045 C2046 1.385 . S
C2046 H2032 0.931 . S
C2046 C2045 1.385 . S
C2046 C2047 1.389 . S
C2047 C2046 1.389 . S
C2047 C2048 1.387 . S
C2048 H2033 0.930 . S
C2048 C2043 1.390 . S
C2048 C2047 1.387 . S
H2049 C2061 0.930 . S
H2050 C2063 0.930 . S
H2051 C2064 0.930 . S
H2052 C2068 0.959 . S
H2053 C2068 0.959 . S
H2054 C2068 0.961 . S
H2055 C2069 0.960 . S
H2056 C2069 0.961 . S
H2057 C2069 0.959 . S
H2058 C2072 0.929 . S
H2059 C2073 0.931 . S
H2060 C2075 0.916 1_655 S
C2061 H2049 0.930 . S
C2061 C2062 1.399 . S
C2061 C2066 1.399 . S
C2062 C2061 1.399 . S
C2062 C2063 1.376 . S
C2063 H2050 0.930 . S
C2063 C2062 1.376 . S
C2063 C2064 1.388 . S
C2064 H2051 0.930 . S
C2064 C2063 1.388 . S
C2064 C2065 1.390 . S
C2065 C2064 1.390 . S
C2065 C2066 1.394 . S
C2065 C2071 1.465 . S
C2066 C2061 1.399 . S
C2066 C2065 1.394 . S
C2066 C2067 1.516 . S
C2067 C2066 1.516 . S
C2067 C2068 1.502 1_455 S
C2067 C2069 1.561 . S
C2067 C2070 1.526 . S
C2068 H2052 0.959 . S
C2068 H2053 0.959 . S
C2068 H2054 0.961 . S
C2068 C2067 1.502 1_655 S
C2069 H2055 0.960 . S
C2069 H2056 0.961 . S
C2069 H2057 0.959 . S
C2069 C2067 1.561 . S
C2070 C2067 1.526 . S
C2070 C2071 1.396 . S
C2070 C2075 1.390 . S
C2071 C2065 1.465 . S
C2071 C2070 1.396 . S
C2071 C2072 1.399 . S
C2072 H2058 0.929 . S
C2072 C2071 1.399 . S
C2072 C2073 1.385 . S
C2073 H2059 0.931 . S
C2073 C2072 1.385 . S
C2073 C2074 1.389 . S
C2074 C2073 1.389 . S
C2074 C2075 1.387 . S
C2075 H2060 0.916 1_455 S
C2075 C2070 1.390 . S
C2075 C2074 1.387 . S
H2076 C2088 0.930 . S
H2077 C2090 0.930 . S
H2078 C2091 0.930 . S
H2079 C2095 0.959 . S
H2080 C2095 0.959 . S
H2081 C2095 0.961 . S
H2082 C2096 0.960 . S
H2083 C2096 0.961 . S
H2084 C2096 0.959 . S
H2085 C2099 0.929 . S
H2086 C2100 0.931 . S
H2087 C2102 0.930 . S
C2088 H2076 0.930 . S
C2088 C2089 1.399 . S
C2088 C2093 1.399 . S
C2089 C2088 1.399 . S
C2089 C2090 1.376 . S
C2090 H2077 0.930 . S
C2090 C2089 1.376 . S
C2090 C2091 1.388 . S
C2091 H2078 0.930 . S
C2091 C2090 1.388 . S
C2091 C2092 1.390 . S
C2092 C2091 1.390 . S
C2092 C2093 1.394 . S
C2092 C2098 1.465 . S
C2093 C2088 1.399 . S
C2093 C2092 1.394 . S
C2093 C2094 1.516 . S
C2094 C2093 1.516 . S
C2094 C2095 1.502 . S
C2094 C2096 1.561 . S
C2094 C2097 1.526 . S
C2095 H2079 0.959 . S
C2095 H2080 0.959 . S
C2095 H2081 0.961 . S
C2095 C2094 1.502 . S
C2096 H2082 0.960 . S
C2096 H2083 0.961 . S
C2096 H2084 0.959 . S
C2096 C2094 1.561 . S
C2097 C2094 1.526 . S
C2097 C2098 1.396 . S
C2097 C2102 1.390 . S
C2098 C2092 1.465 . S
C2098 C2097 1.396 . S
C2098 C2099 1.399 . S
C2099 H2085 0.929 . S
C2099 C2098 1.399 . S
C2099 C2100 1.385 . S
C2100 H2086 0.931 . S
C2100 C2099 1.385 . S
C2100 C2101 1.389 . S
C2101 C2100 1.389 . S
C2101 C2102 1.387 . S
C2102 H2087 0.930 . S
C2102 C2097 1.390 . S
C2102 C2101 1.387 . S
H2103 C2115 0.930 . S
H2104 C2117 0.930 . S
H2105 C2118 0.930 . S
H2106 C2122 0.959 . S
H2107 C2122 0.959 . S
H2108 C2122 0.961 . S
H2109 C2123 0.960 1_545 S
H2110 C2123 0.961 . S
H2111 C2123 0.959 . S
H2112 C2126 0.929 . S
H2113 C2127 0.931 . S
H2114 C2129 0.930 1_655 S
C2115 H2103 0.930 . S
C2115 C2116 1.399 . S
C2115 C2120 1.399 . S
C2116 C2115 1.399 . S
C2116 C2117 1.376 . S
C2117 H2104 0.930 . S
C2117 C2116 1.376 . S
C2117 C2118 1.388 . S
C2118 H2105 0.930 . S
C2118 C2117 1.388 . S
C2118 C2119 1.390 . S
C2119 C2118 1.390 . S
C2119 C2120 1.394 . S
C2119 C2125 1.465 . S
C2120 C2115 1.399 . S
C2120 C2119 1.394 . S
C2120 C2121 1.516 . S
C2121 C2120 1.516 . S
C2121 C2122 1.502 1_455 S
C2121 C2123 1.561 . S
C2121 C2124 1.526 . S
C2122 H2106 0.959 . S
C2122 H2107 0.959 . S
C2122 H2108 0.961 . S
C2122 C2121 1.502 1_655 S
C2123 H2109 0.960 1_565 S
C2123 H2110 0.961 . S
C2123 H2111 0.959 . S
C2123 C2121 1.561 . S
C2124 C2121 1.526 . S
C2124 C2125 1.396 . S
C2124 C2129 1.390 . S
C2125 C2119 1.465 . S
C2125 C2124 1.396 . S
C2125 C2126 1.399 . S
C2126 H2112 0.929 . S
C2126 C2125 1.399 . S
C2126 C2127 1.385 . S
C2127 H2113 0.931 . S
C2127 C2126 1.385 . S
C2127 C2128 1.389 . S
C2128 C2127 1.389 . S
C2128 C2129 1.387 . S
C2129 H2114 0.930 1_455 S
C2129 C2124 1.390 . S
C2129 C2128 1.387 . S
H2130 C2142 0.930 . S
H2131 C2144 0.930 . S
H2132 C2145 0.930 . S
H2133 C2149 0.959 . S
H2134 C2149 0.959 . S
H2135 C2149 0.961 . S
H2136 C2150 0.960 . S
H2137 C2150 0.961 . S
H2138 C2150 0.959 . S
H2139 C2153 0.929 . S
H2140 C2154 0.931 . S
H2141 C2156 0.930 . S
C2142 H2130 0.930 . S
C2142 C2143 1.399 . S
C2142 C2147 1.399 . S
C2143 C2142 1.399 . S
C2143 C2144 1.376 . S
C2144 H2131 0.930 . S
C2144 C2143 1.376 . S
C2144 C2145 1.388 . S
C2145 H2132 0.930 . S
C2145 C2144 1.388 . S
C2145 C2146 1.390 . S
C2146 C2145 1.390 . S
C2146 C2147 1.394 . S
C2146 C2152 1.465 . S
C2147 C2142 1.399 . S
C2147 C2146 1.394 . S
C2147 C2148 1.516 . S
C2148 C2147 1.516 . S
C2148 C2149 1.502 . S
C2148 C2150 1.561 . S
C2148 C2151 1.526 . S
C2149 H2133 0.959 . S
C2149 H2134 0.959 . S
C2149 H2135 0.961 . S
C2149 C2148 1.502 . S
C2150 H2136 0.960 . S
C2150 H2137 0.961 . S
C2150 H2138 0.959 . S
C2150 C2148 1.561 . S
C2151 C2148 1.526 . S
C2151 C2152 1.396 . S
C2151 C2156 1.390 . S
C2152 C2146 1.465 . S
C2152 C2151 1.396 . S
C2152 C2153 1.399 . S
C2153 H2139 0.929 . S
C2153 C2152 1.399 . S
C2153 C2154 1.385 . S
C2154 H2140 0.931 . S
C2154 C2153 1.385 . S
C2154 C2155 1.389 . S
C2155 C2154 1.389 . S
C2155 C2156 1.387 . S
C2156 H2141 0.930 . S
C2156 C2151 1.390 . S
C2156 C2155 1.387 . S
H2157 C2169 0.930 . S
H2158 C2171 0.930 . S
H2159 C2172 0.930 . S
H2160 C2176 0.959 . S
H2161 C2176 0.959 . S
H2162 C2176 0.961 . S
H2163 C2177 0.960 . S
H2164 C2177 0.961 . S
H2165 C2177 0.959 . S
H2166 C2180 0.929 . S
H2167 C2181 0.931 . S
H2168 C2183 0.930 . S
C2169 H2157 0.930 . S
C2169 C2170 1.399 . S
C2169 C2174 1.399 . S
C2170 C2169 1.399 . S
C2170 C2171 1.376 . S
C2171 H2158 0.930 . S
C2171 C2170 1.376 . S
C2171 C2172 1.388 . S
C2172 H2159 0.930 . S
C2172 C2171 1.388 . S
C2172 C2173 1.390 . S
C2173 C2172 1.390 . S
C2173 C2174 1.394 . S
C2173 C2179 1.465 . S
C2174 C2169 1.399 . S
C2174 C2173 1.394 . S
C2174 C2175 1.516 . S
C2175 C2174 1.516 . S
C2175 C2176 1.502 . S
C2175 C2177 1.561 . S
C2175 C2178 1.526 . S
C2176 H2160 0.959 . S
C2176 H2161 0.959 . S
C2176 H2162 0.961 . S
C2176 C2175 1.502 . S
C2177 H2163 0.960 . S
C2177 H2164 0.961 . S
C2177 H2165 0.959 . S
C2177 C2175 1.561 . S
C2178 C2175 1.526 . S
C2178 C2179 1.396 . S
C2178 C2183 1.390 . S
C2179 C2173 1.465 . S
C2179 C2178 1.396 . S
C2179 C2180 1.399 . S
C2180 H2166 0.929 . S
C2180 C2179 1.399 . S
C2180 C2181 1.385 . S
C2181 H2167 0.931 . S
C2181 C2180 1.385 . S
C2181 C2182 1.389 . S
C2182 C2181 1.389 . S
C2182 C2183 1.387 . S
C2183 H2168 0.930 . S
C2183 C2178 1.390 . S
C2183 C2182 1.387 . S
H2184 C2196 0.930 . S
H2185 C2198 0.930 . S
H2186 C2199 0.930 . S
H2187 C2203 0.959 . S
H2188 C2203 0.959 . S
H2189 C2203 0.961 . S
H2190 C2204 0.960 . S
H2191 C2204 0.961 . S
H2192 C2204 0.959 . S
H2193 C2207 0.929 . S
H2194 C2208 0.931 . S
H2195 C2210 0.930 . S
C2196 H2184 0.930 . S
C2196 C2197 1.399 . S
C2196 C2201 1.399 . S
C2197 C2196 1.399 . S
C2197 C2198 1.376 1_455 S
C2198 H2185 0.930 . S
C2198 C2197 1.376 1_655 S
C2198 C2199 1.388 1_655 S
C2199 H2186 0.930 . S
C2199 C2198 1.388 1_455 S
C2199 C2200 1.390 . S
C2200 C2199 1.390 . S
C2200 C2201 1.394 . S
C2200 C2206 1.465 . S
C2201 C2196 1.399 . S
C2201 C2200 1.394 . S
C2201 C2202 1.516 . S
C2202 C2201 1.516 . S
C2202 C2203 1.502 . S
C2202 C2204 1.561 . S
C2202 C2205 1.526 . S
C2203 H2187 0.959 . S
C2203 H2188 0.959 . S
C2203 H2189 0.961 . S
C2203 C2202 1.502 . S
C2204 H2190 0.960 . S
C2204 H2191 0.961 . S
C2204 H2192 0.959 . S
C2204 C2202 1.561 . S
C2205 C2202 1.526 . S
C2205 C2206 1.396 . S
C2205 C2210 1.390 . S
C2206 C2200 1.465 . S
C2206 C2205 1.396 . S
C2206 C2207 1.399 . S
C2207 H2193 0.929 . S
C2207 C2206 1.399 . S
C2207 C2208 1.385 . S
C2208 H2194 0.931 . S
C2208 C2207 1.385 . S
C2208 C2209 1.389 . S
C2209 C2208 1.389 . S
C2209 C2210 1.387 . S
C2210 H2195 0.930 . S
C2210 C2205 1.390 . S
C2210 C2209 1.387 . S
H2211 C2223 0.930 . S
H2212 C2225 0.930 . S
H2213 C2226 0.930 . S
H2214 C2230 0.959 . S
H2215 C2230 0.959 . S
H2216 C2230 0.961 . S
H2217 C2231 0.960 . S
H2218 C2231 0.961 . S
H2219 C2231 0.959 . S
H2220 C2234 0.929 . S
H2221 C2235 0.931 . S
H2222 C2237 0.930 . S
C2223 H2211 0.930 . S
C2223 C2224 1.399 . S
C2223 C2228 1.399 . S
C2224 C2223 1.399 . S
C2224 C2225 1.376 . S
C2225 H2212 0.930 . S
C2225 C2224 1.376 . S
C2225 C2226 1.388 . S
C2226 H2213 0.930 . S
C2226 C2225 1.388 . S
C2226 C2227 1.390 . S
C2227 C2226 1.390 . S
C2227 C2228 1.394 . S
C2227 C2233 1.465 . S
C2228 C2223 1.399 . S
C2228 C2227 1.394 . S
C2228 C2229 1.516 . S
C2229 C2228 1.516 . S
C2229 C2230 1.502 . S
C2229 C2231 1.561 . S
C2229 C2232 1.526 . S
C2230 H2214 0.959 . S
C2230 H2215 0.959 . S
C2230 H2216 0.961 . S
C2230 C2229 1.502 . S
C2231 H2217 0.960 . S
C2231 H2218 0.961 . S
C2231 H2219 0.959 . S
C2231 C2229 1.561 . S
C2232 C2229 1.526 . S
C2232 C2233 1.396 . S
C2232 C2237 1.390 . S
C2233 C2227 1.465 . S
C2233 C2232 1.396 . S
C2233 C2234 1.399 . S
C2234 H2220 0.929 . S
C2234 C2233 1.399 . S
C2234 C2235 1.385 . S
C2235 H2221 0.931 . S
C2235 C2234 1.385 . S
C2235 C2236 1.389 . S
C2236 C2235 1.389 . S
C2236 C2237 1.387 . S
C2237 H2222 0.930 . S
C2237 C2232 1.390 . S
C2237 C2236 1.387 . S
H2238 C2250 0.930 . S
H2239 C2252 0.930 . S
H2240 C2253 0.930 . S
H2241 C2257 0.959 . S
H2242 C2257 0.959 . S
H2243 C2257 0.961 . S
H2244 C2258 0.960 . S
H2245 C2258 0.961 . S
H2246 C2258 0.959 . S
H2247 C2261 0.929 . S
H2248 C2262 0.931 . S
H2249 C2264 0.930 . S
C2250 H2238 0.930 . S
C2250 C2251 1.399 . S
C2250 C2255 1.399 . S
C2251 C2250 1.399 . S
C2251 C2252 1.376 . S
C2252 H2239 0.930 . S
C2252 C2251 1.376 . S
C2252 C2253 1.388 . S
C2253 H2240 0.930 . S
C2253 C2252 1.388 . S
C2253 C2254 1.390 . S
C2254 C2253 1.390 . S
C2254 C2255 1.394 . S
C2254 C2260 1.465 . S
C2255 C2250 1.399 . S
C2255 C2254 1.394 . S
C2255 C2256 1.516 . S
C2256 C2255 1.516 . S
C2256 C2257 1.502 . S
C2256 C2258 1.561 . S
C2256 C2259 1.526 . S
C2257 H2241 0.959 . S
C2257 H2242 0.959 . S
C2257 H2243 0.961 . S
C2257 C2256 1.502 . S
C2258 H2244 0.960 . S
C2258 H2245 0.961 . S
C2258 H2246 0.959 . S
C2258 C2256 1.561 . S
C2259 C2256 1.526 . S
C2259 C2260 1.396 . S
C2259 C2264 1.390 . S
C2260 C2254 1.465 . S
C2260 C2259 1.396 . S
C2260 C2261 1.399 . S
C2261 H2247 0.929 . S
C2261 C2260 1.399 . S
C2261 C2262 1.385 . S
C2262 H2248 0.931 . S
C2262 C2261 1.385 . S
C2262 C2263 1.389 . S
C2263 C2262 1.389 . S
C2263 C2264 1.387 . S
C2264 H2249 0.930 . S
C2264 C2259 1.390 . S
C2264 C2263 1.387 . S
H2265 C2277 0.930 . S
H2266 C2279 0.930 . S
H2267 C2280 0.930 . S
H2268 C2284 0.959 . S
H2269 C2284 0.959 . S
H2270 C2284 0.961 . S
H2271 C2285 0.960 . S
H2272 C2285 0.961 . S
H2273 C2285 0.959 . S
H2274 C2288 0.929 . S
H2275 C2289 0.931 . S
H2276 C2291 0.930 . S
C2277 H2265 0.930 . S
C2277 C2278 1.399 . S
C2277 C2282 1.399 . S
C2278 C2277 1.399 . S
C2278 C2279 1.376 . S
C2279 H2266 0.930 . S
C2279 C2278 1.376 . S
C2279 C2280 1.388 . S
C2280 H2267 0.930 . S
C2280 C2279 1.388 . S
C2280 C2281 1.390 . S
C2281 C2280 1.390 . S
C2281 C2282 1.394 . S
C2281 C2287 1.465 . S
C2282 C2277 1.399 . S
C2282 C2281 1.394 . S
C2282 C2283 1.516 . S
C2283 C2282 1.516 . S
C2283 C2284 1.502 . S
C2283 C2285 1.561 . S
C2283 C2286 1.526 . S
C2284 H2268 0.959 . S
C2284 H2269 0.959 . S
C2284 H2270 0.961 . S
C2284 C2283 1.502 . S
C2285 H2271 0.960 . S
C2285 H2272 0.961 . S
C2285 H2273 0.959 . S
C2285 C2283 1.561 . S
C2286 C2283 1.526 . S
C2286 C2287 1.396 . S
C2286 C2291 1.390 . S
C2287 C2281 1.465 . S
C2287 C2286 1.396 . S
C2287 C2288 1.399 . S
C2288 H2274 0.929 . S
C2288 C2287 1.399 . S
C2288 C2289 1.385 . S
C2289 H2275 0.931 . S
C2289 C2288 1.385 . S
C2289 C2290 1.389 . S
C2290 C2289 1.389 . S
C2290 C2291 1.387 . S
C2291 H2276 0.930 . S
C2291 C2286 1.390 . S
C2291 C2290 1.387 . S
H2292 C2304 0.930 . S
H2293 C2306 0.930 . S
H2294 C2307 0.930 . S
H2295 C2311 0.959 . S
H2296 C2311 0.959 . S
H2297 C2311 0.961 . S
H2298 C2312 0.960 . S
H2299 C2312 0.961 . S
H2300 C2312 0.959 . S
H2301 C2315 0.929 . S
H2302 C2316 0.931 . S
H2303 C2318 0.930 . S
C2304 H2292 0.930 . S
C2304 C2305 1.399 . S
C2304 C2309 1.399 . S
C2305 C2304 1.399 . S
C2305 C2306 1.376 . S
C2306 H2293 0.930 . S
C2306 C2305 1.376 . S
C2306 C2307 1.388 . S
C2307 H2294 0.930 . S
C2307 C2306 1.388 . S
C2307 C2308 1.390 . S
C2308 C2307 1.390 . S
C2308 C2309 1.394 . S
C2308 C2314 1.465 . S
C2309 C2304 1.399 . S
C2309 C2308 1.394 . S
C2309 C2310 1.516 . S
C2310 C2309 1.516 . S
C2310 C2311 1.502 . S
C2310 C2312 1.561 . S
C2310 C2313 1.526 . S
C2311 H2295 0.959 . S
C2311 H2296 0.959 . S
C2311 H2297 0.961 . S
C2311 C2310 1.502 . S
C2312 H2298 0.960 . S
C2312 H2299 0.961 . S
C2312 H2300 0.959 . S
C2312 C2310 1.561 . S
C2313 C2310 1.526 . S
C2313 C2314 1.396 . S
C2313 C2318 1.390 . S
C2314 C2308 1.465 . S
C2314 C2313 1.396 . S
C2314 C2315 1.399 . S
C2315 H2301 0.929 . S
C2315 C2314 1.399 . S
C2315 C2316 1.385 . S
C2316 H2302 0.931 . S
C2316 C2315 1.385 . S
C2316 C2317 1.389 . S
C2317 C2316 1.389 . S
C2317 C2318 1.387 . S
C2318 H2303 0.930 . S
C2318 C2313 1.390 . S
C2318 C2317 1.387 . S
H2319 C2331 0.930 . S
H2320 C2333 0.930 . S
H2321 C2334 0.930 . S
H2322 C2338 0.959 . S
H2323 C2338 0.959 . S
H2324 C2338 0.961 . S
H2325 C2339 0.960 . S
H2326 C2339 0.961 . S
H2327 C2339 0.959 . S
H2328 C2342 0.929 . S
H2329 C2343 0.931 . S
H2330 C2345 0.930 . S
C2331 H2319 0.930 . S
C2331 C2332 1.399 . S
C2331 C2336 1.399 . S
C2332 C2331 1.399 . S
C2332 C2333 1.376 . S
C2333 H2320 0.930 . S
C2333 C2332 1.376 . S
C2333 C2334 1.388 . S
C2334 H2321 0.930 . S
C2334 C2333 1.388 . S
C2334 C2335 1.390 . S
C2335 C2334 1.390 . S
C2335 C2336 1.394 . S
C2335 C2341 1.465 . S
C2336 C2331 1.399 . S
C2336 C2335 1.394 . S
C2336 C2337 1.516 . S
C2337 C2336 1.516 . S
C2337 C2338 1.502 . S
C2337 C2339 1.561 . S
C2337 C2340 1.526 . S
C2338 H2322 0.959 . S
C2338 H2323 0.959 . S
C2338 H2324 0.961 . S
C2338 C2337 1.502 . S
C2339 H2325 0.960 . S
C2339 H2326 0.961 . S
C2339 H2327 0.959 . S
C2339 C2337 1.561 . S
C2340 C2337 1.526 . S
C2340 C2341 1.396 . S
C2340 C2345 1.390 . S
C2341 C2335 1.465 . S
C2341 C2340 1.396 . S
C2341 C2342 1.399 . S
C2342 H2328 0.929 . S
C2342 C2341 1.399 . S
C2342 C2343 1.385 . S
C2343 H2329 0.931 . S
C2343 C2342 1.385 . S
C2343 C2344 1.389 . S
C2344 C2343 1.389 . S
C2344 C2345 1.387 . S
C2345 H2330 0.930 . S
C2345 C2340 1.390 . S
C2345 C2344 1.387 . S
H2346 C2358 0.930 . S
H2347 C2360 0.931 1_455 S
H2348 C2361 0.930 . S
H2349 C2365 0.929 1_554 S
H2350 C2365 0.959 . S
H2351 C2365 0.961 . S
H2352 C2366 0.960 . S
H2353 C2366 0.961 . S
H2354 C2366 0.959 . S
H2355 C2369 0.929 . S
H2356 C2370 0.931 . S
H2357 C2372 0.930 . S
C2358 H2346 0.930 . S
C2358 C2359 1.399 . S
C2358 C2363 1.399 . S
C2359 C2358 1.399 . S
C2359 C2360 1.376 . S
C2360 H2347 0.931 1_655 S
C2360 C2359 1.376 . S
C2360 C2361 1.388 . S
C2361 H2348 0.930 . S
C2361 C2360 1.388 . S
C2361 C2362 1.390 . S
C2362 C2361 1.390 . S
C2362 C2363 1.394 . S
C2362 C2368 1.465 . S
C2363 C2358 1.399 . S
C2363 C2362 1.394 . S
C2363 C2364 1.516 1_554 S
C2364 C2363 1.516 1_556 S
C2364 C2365 1.502 . S
C2364 C2366 1.561 . S
C2364 C2367 1.526 1_556 S
C2365 H2349 0.929 1_556 S
C2365 H2350 0.959 . S
C2365 H2351 0.961 . S
C2365 C2364 1.502 . S
C2366 H2352 0.960 . S
C2366 H2353 0.961 . S
C2366 H2354 0.959 . S
C2366 C2364 1.561 . S
C2367 C2364 1.526 1_554 S
C2367 C2368 1.396 . S
C2367 C2372 1.390 1_554 S
C2368 C2362 1.465 . S
C2368 C2367 1.396 . S
C2368 C2369 1.399 . S
C2369 H2355 0.929 . S
C2369 C2368 1.399 . S
C2369 C2370 1.385 . S
C2370 H2356 0.931 . S
C2370 C2369 1.385 . S
C2370 C2371 1.389 . S
C2371 C2370 1.389 . S
C2371 C2372 1.387 1_554 S
C2372 H2357 0.930 . S
C2372 C2367 1.390 1_556 S
C2372 C2371 1.387 1_556 S
H2373 C2385 0.930 . S
H2374 C2387 0.930 . S
H2375 C2388 0.930 . S
H2376 C2392 0.959 . S
H2377 C2392 0.959 . S
H2378 C2392 0.961 . S
H2379 C2393 0.960 . S
H2380 C2393 0.961 . S
H2381 C2393 0.959 . S
H2382 C2396 0.929 . S
H2383 C2397 0.931 . S
H2384 C2399 0.930 . S
C2385 H2373 0.930 . S
C2385 C2386 1.399 . S
C2385 C2390 1.399 . S
C2386 C2385 1.399 . S
C2386 C2387 1.376 . S
C2387 H2374 0.930 . S
C2387 C2386 1.376 . S
C2387 C2388 1.388 . S
C2388 H2375 0.930 . S
C2388 C2387 1.388 . S
C2388 C2389 1.390 . S
C2389 C2388 1.390 . S
C2389 C2390 1.394 . S
C2389 C2395 1.465 . S
C2390 C2385 1.399 . S
C2390 C2389 1.394 . S
C2390 C2391 1.516 . S
C2391 C2390 1.516 . S
C2391 C2392 1.502 . S
C2391 C2393 1.561 . S
C2391 C2394 1.526 . S
C2392 H2376 0.959 . S
C2392 H2377 0.959 . S
C2392 H2378 0.961 . S
C2392 C2391 1.502 . S
C2393 H2379 0.960 . S
C2393 H2380 0.961 . S
C2393 H2381 0.959 . S
C2393 C2391 1.561 . S
C2394 C2391 1.526 . S
C2394 C2395 1.396 . S
C2394 C2399 1.390 . S
C2395 C2389 1.465 . S
C2395 C2394 1.396 . S
C2395 C2396 1.399 . S
C2396 H2382 0.929 . S
C2396 C2395 1.399 . S
C2396 C2397 1.385 . S
C2397 H2383 0.931 . S
C2397 C2396 1.385 . S
C2397 C2398 1.389 . S
C2398 C2397 1.389 . S
C2398 C2399 1.387 . S
C2399 H2384 0.930 . S
C2399 C2394 1.390 . S
C2399 C2398 1.387 . S
H2400 C2412 0.930 . S
H2401 C2414 0.930 . S
H2402 C2415 0.930 . S
H2403 C2419 0.959 . S
H2404 C2419 0.959 . S
H2405 C2419 0.961 . S
H2406 C2420 0.960 . S
H2407 C2420 0.961 . S
H2408 C2420 0.959 . S
H2409 C2423 0.929 . S
H2410 C2424 0.931 . S
H2411 C2426 0.930 . S
C2412 H2400 0.930 . S
C2412 C2413 1.399 . S
C2412 C2417 1.399 . S
C2413 C2412 1.399 . S
C2413 C2414 1.376 . S
C2414 H2401 0.930 . S
C2414 C2413 1.376 . S
C2414 C2415 1.388 . S
C2415 H2402 0.930 . S
C2415 C2414 1.388 . S
C2415 C2416 1.390 . S
C2416 C2415 1.390 . S
C2416 C2417 1.394 . S
C2416 C2422 1.465 . S
C2417 C2412 1.399 . S
C2417 C2416 1.394 . S
C2417 C2418 1.516 . S
C2418 C2417 1.516 . S
C2418 C2419 1.502 . S
C2418 C2420 1.561 . S
C2418 C2421 1.526 . S
C2419 H2403 0.959 . S
C2419 H2404 0.959 . S
C2419 H2405 0.961 . S
C2419 C2418 1.502 . S
C2420 H2406 0.960 . S
C2420 H2407 0.961 . S
C2420 H2408 0.959 . S
C2420 C2418 1.561 . S
C2421 C2418 1.526 . S
C2421 C2422 1.396 . S
C2421 C2426 1.390 . S
C2422 C2416 1.465 . S
C2422 C2421 1.396 . S
C2422 C2423 1.399 . S
C2423 H2409 0.929 . S
C2423 C2422 1.399 . S
C2423 C2424 1.385 . S
C2424 H2410 0.931 . S
C2424 C2423 1.385 . S
C2424 C2425 1.389 . S
C2425 C2424 1.389 . S
C2425 C2426 1.387 . S
C2426 H2411 0.930 . S
C2426 C2421 1.390 . S
C2426 C2425 1.387 . S
H2427 C2439 0.930 1_554 S
H2428 C2441 0.930 . S
H2429 C2442 0.930 . S
H2430 C2446 0.959 . S
H2431 C2446 0.959 . S
H2432 C2446 0.961 . S
H2433 C2447 0.960 . S
H2434 C2447 0.961 . S
H2435 C2447 0.959 . S
H2436 C2450 0.929 . S
H2437 C2451 0.931 1_565 S
H2438 C2453 0.930 . S
C2439 H2427 0.930 1_556 S
C2439 C2440 1.399 . S
C2439 C2444 1.399 . S
C2440 C2439 1.399 . S
C2440 C2441 1.376 . S
C2441 H2428 0.930 . S
C2441 C2440 1.376 . S
C2441 C2442 1.388 . S
C2442 H2429 0.930 . S
C2442 C2441 1.388 . S
C2442 C2443 1.390 . S
C2443 C2442 1.390 . S
C2443 C2444 1.394 . S
C2443 C2449 1.465 . S
C2444 C2439 1.399 . S
C2444 C2443 1.394 . S
C2444 C2445 1.516 . S
C2445 C2444 1.516 . S
C2445 C2446 1.502 1_556 S
C2445 C2447 1.561 . S
C2445 C2448 1.526 . S
C2446 H2430 0.959 . S
C2446 H2431 0.959 . S
C2446 H2432 0.961 . S
C2446 C2445 1.502 1_554 S
C2447 H2433 0.960 . S
C2447 H2434 0.961 . S
C2447 H2435 0.959 . S
C2447 C2445 1.561 . S
C2448 C2445 1.526 . S
C2448 C2449 1.396 . S
C2448 C2453 1.390 . S
C2449 C2443 1.465 . S
C2449 C2448 1.396 . S
C2449 C2450 1.399 . S
C2450 H2436 0.929 . S
C2450 C2449 1.399 . S
C2450 C2451 1.385 . S
C2451 H2437 0.931 1_545 S
C2451 C2450 1.385 . S
C2451 C2452 1.389 . S
C2452 C2451 1.389 . S
C2452 C2453 1.387 . S
C2453 H2438 0.930 . S
C2453 C2448 1.390 . S
C2453 C2452 1.387 . S
H2454 C2466 0.930 . S
H2455 C2468 0.930 . S
H2456 C2469 0.930 . S
H2457 C2473 0.959 . S
H2458 C2473 0.959 . S
H2459 C2473 0.961 . S
H2460 C2474 0.960 . S
H2461 C2474 0.961 . S
H2462 C2474 0.959 . S
H2463 C2477 0.929 . S
H2464 C2478 0.931 . S
H2465 C2480 0.930 . S
C2466 H2454 0.930 . S
C2466 C2467 1.399 . S
C2466 C2471 1.399 . S
C2467 C2466 1.399 . S
C2467 C2468 1.376 . S
C2468 H2455 0.930 . S
C2468 C2467 1.376 . S
C2468 C2469 1.388 . S
C2469 H2456 0.930 . S
C2469 C2468 1.388 . S
C2469 C2470 1.390 . S
C2470 C2469 1.390 . S
C2470 C2471 1.394 . S
C2470 C2476 1.465 . S
C2471 C2466 1.399 . S
C2471 C2470 1.394 . S
C2471 C2472 1.516 . S
C2472 C2471 1.516 . S
C2472 C2473 1.502 . S
C2472 C2474 1.561 . S
C2472 C2475 1.526 . S
C2473 H2457 0.959 . S
C2473 H2458 0.959 . S
C2473 H2459 0.961 . S
C2473 C2472 1.502 . S
C2474 H2460 0.960 . S
C2474 H2461 0.961 . S
C2474 H2462 0.959 . S
C2474 C2472 1.561 . S
C2475 C2472 1.526 . S
C2475 C2476 1.396 . S
C2475 C2480 1.390 . S
C2476 C2470 1.465 . S
C2476 C2475 1.396 . S
C2476 C2477 1.399 . S
C2477 H2463 0.929 . S
C2477 C2476 1.399 . S
C2477 C2478 1.385 . S
C2478 H2464 0.931 . S
C2478 C2477 1.385 . S
C2478 C2479 1.389 . S
C2479 C2478 1.389 . S
C2479 C2480 1.387 . S
C2480 H2465 0.930 . S
C2480 C2475 1.390 . S
C2480 C2479 1.387 . S
H2481 C2493 0.930 . S
H2482 C2495 0.930 . S
H2483 C2496 0.930 . S
H2484 C2500 0.959 . S
H2485 C2500 0.972 . S
H2486 C2500 0.961 . S
H2487 C2501 0.960 . S
H2488 C2501 0.961 . S
H2489 C2501 0.959 . S
H2490 C2504 0.929 . S
H2491 C2505 0.931 . S
H2492 C2507 0.930 . S
C2493 H2481 0.930 . S
C2493 C2494 1.399 . S
C2493 C2498 1.399 . S
C2494 C2493 1.399 . S
C2494 C2495 1.376 . S
C2495 H2482 0.930 . S
C2495 C2494 1.376 . S
C2495 C2496 1.388 . S
C2496 H2483 0.930 . S
C2496 C2495 1.388 . S
C2496 C2497 1.390 . S
C2497 C2496 1.390 . S
C2497 C2498 1.394 . S
C2497 C2503 1.465 . S
C2498 C2493 1.399 . S
C2498 C2497 1.394 . S
C2498 C2499 1.516 . S
C2499 C2498 1.516 . S
C2499 C2500 1.502 . S
C2499 C2501 1.561 . S
C2499 C2502 1.526 . S
C2500 H2484 0.959 . S
C2500 H2485 0.972 . S
C2500 H2486 0.961 . S
C2500 C2499 1.502 . S
C2501 H2487 0.960 . S
C2501 H2488 0.961 . S
C2501 H2489 0.959 . S
C2501 C2499 1.561 . S
C2502 C2499 1.526 . S
C2502 C2503 1.396 . S
C2502 C2507 1.390 . S
C2503 C2497 1.465 . S
C2503 C2502 1.396 . S
C2503 C2504 1.399 . S
C2504 H2490 0.929 . S
C2504 C2503 1.399 . S
C2504 C2505 1.385 . S
C2505 H2491 0.931 . S
C2505 C2504 1.385 . S
C2505 C2506 1.389 . S
C2506 C2505 1.389 . S
C2506 C2507 1.387 . S
C2507 H2492 0.930 . S
C2507 C2502 1.390 . S
C2507 C2506 1.387 . S
H2508 C2520 0.930 . S
H2509 C2522 0.930 . S
H2510 C2523 0.930 . S
H2511 C2527 0.959 . S
H2512 C2527 0.959 . S
H2513 C2527 0.961 . S
H2514 C2528 0.960 . S
H2515 C2528 0.961 . S
H2516 C2528 0.959 . S
H2517 C2531 0.929 . S
H2518 C2532 0.931 . S
H2519 C2534 0.930 . S
C2520 H2508 0.930 . S
C2520 C2521 1.399 . S
C2520 C2525 1.399 . S
C2521 C2520 1.399 . S
C2521 C2522 1.376 . S
C2522 H2509 0.930 . S
C2522 C2521 1.376 . S
C2522 C2523 1.388 . S
C2523 H2510 0.930 . S
C2523 C2522 1.388 . S
C2523 C2524 1.390 . S
C2524 C2523 1.390 . S
C2524 C2525 1.394 . S
C2524 C2530 1.465 . S
C2525 C2520 1.399 . S
C2525 C2524 1.394 . S
C2525 C2526 1.516 . S
C2526 C2525 1.516 . S
C2526 C2527 1.502 . S
C2526 C2528 1.561 . S
C2526 C2529 1.526 . S
C2527 H2511 0.959 . S
C2527 H2512 0.959 . S
C2527 H2513 0.961 . S
C2527 C2526 1.502 . S
C2528 H2514 0.960 . S
C2528 H2515 0.961 . S
C2528 H2516 0.959 . S
C2528 C2526 1.561 . S
C2529 C2526 1.526 . S
C2529 C2530 1.396 . S
C2529 C2534 1.390 . S
C2530 C2524 1.465 . S
C2530 C2529 1.396 . S
C2530 C2531 1.399 . S
C2531 H2517 0.929 . S
C2531 C2530 1.399 . S
C2531 C2532 1.385 . S
C2532 H2518 0.931 . S
C2532 C2531 1.385 . S
C2532 C2533 1.389 . S
C2533 C2532 1.389 . S
C2533 C2534 1.387 . S
C2534 H2519 0.930 . S
C2534 C2529 1.390 . S
C2534 C2533 1.387 . S
H2535 C2547 0.930 . S
H2536 C2549 0.930 . S
H2537 C2550 0.930 . S
H2538 C2554 0.959 . S
H2539 C2554 0.959 . S
H2540 C2554 0.961 . S
H2541 C2555 0.960 . S
H2542 C2555 0.961 . S
H2543 C2555 0.959 . S
H2544 C2558 0.947 . S
H2545 C2559 0.931 . S
H2546 C2561 0.930 . S
C2547 H2535 0.930 . S
C2547 C2548 1.399 . S
C2547 C2552 1.399 . S
C2548 C2547 1.399 . S
C2548 C2549 1.376 . S
C2549 H2536 0.930 . S
C2549 C2548 1.376 . S
C2549 C2550 1.388 . S
C2550 H2537 0.930 . S
C2550 C2549 1.388 . S
C2550 C2551 1.390 . S
C2551 C2550 1.390 . S
C2551 C2552 1.394 . S
C2551 C2557 1.465 . S
C2552 C2547 1.399 . S
C2552 C2551 1.394 . S
C2552 C2553 1.516 . S
C2553 C2552 1.516 . S
C2553 C2554 1.502 . S
C2553 C2555 1.561 . S
C2553 C2556 1.526 . S
C2554 H2538 0.959 . S
C2554 H2539 0.959 . S
C2554 H2540 0.961 . S
C2554 C2553 1.502 . S
C2555 H2541 0.960 . S
C2555 H2542 0.961 . S
C2555 H2543 0.959 . S
C2555 C2553 1.561 . S
C2556 C2553 1.526 . S
C2556 C2557 1.396 . S
C2556 C2561 1.390 . S
C2557 C2551 1.465 . S
C2557 C2556 1.396 . S
C2557 C2558 1.380 1_545 S
C2558 H2544 0.947 . S
C2558 C2557 1.380 1_565 S
C2558 C2559 1.387 . S
C2559 H2545 0.931 . S
C2559 C2558 1.387 . S
C2559 C2560 1.389 1_565 S
C2560 C2559 1.389 1_545 S
C2560 C2561 1.387 . S
C2561 H2546 0.930 . S
C2561 C2556 1.390 . S
C2561 C2560 1.387 . S
H2562 C2574 0.930 . S
H2563 C2576 0.930 . S
H2564 C2577 0.930 . S
H2565 C2581 0.959 . S
H2566 C2581 0.959 . S
H2567 C2581 0.961 . S
H2568 C2582 0.960 . S
H2569 C2582 0.961 . S
H2570 C2582 0.959 . S
H2571 C2585 0.929 . S
H2572 C2586 0.931 . S
H2573 C2588 0.930 . S
C2574 H2562 0.930 . S
C2574 C2575 1.399 . S
C2574 C2579 1.399 . S
C2575 C2574 1.399 . S
C2575 C2576 1.376 . S
C2576 H2563 0.930 . S
C2576 C2575 1.376 . S
C2576 C2577 1.388 . S
C2577 H2564 0.930 . S
C2577 C2576 1.388 . S
C2577 C2578 1.390 . S
C2578 C2577 1.390 . S
C2578 C2579 1.394 . S
C2578 C2584 1.465 . S
C2579 C2574 1.399 . S
C2579 C2578 1.394 . S
C2579 C2580 1.516 . S
C2580 C2579 1.516 . S
C2580 C2581 1.502 . S
C2580 C2582 1.561 . S
C2580 C2583 1.526 . S
C2581 H2565 0.959 . S
C2581 H2566 0.959 . S
C2581 H2567 0.961 . S
C2581 C2580 1.502 . S
C2582 H2568 0.960 . S
C2582 H2569 0.961 . S
C2582 H2570 0.959 . S
C2582 C2580 1.561 . S
C2583 C2580 1.526 . S
C2583 C2584 1.396 . S
C2583 C2588 1.390 . S
C2584 C2578 1.465 . S
C2584 C2583 1.396 . S
C2584 C2585 1.399 . S
C2585 H2571 0.929 . S
C2585 C2584 1.399 . S
C2585 C2586 1.385 . S
C2586 H2572 0.931 . S
C2586 C2585 1.385 . S
C2586 C2587 1.389 . S
C2587 C2586 1.389 . S
C2587 C2588 1.387 . S
C2588 H2573 0.930 . S
C2588 C2583 1.390 . S
C2588 C2587 1.387 . S
H2589 C2601 0.930 . S
H2590 C2603 0.930 . S
H2591 C2604 0.930 . S
H2592 C2608 0.959 . S
H2593 C2608 0.959 . S
H2594 C2608 0.961 . S
H2595 C2609 0.960 . S
H2596 C2609 0.961 . S
H2597 C2609 0.959 . S
H2598 C2612 0.915 1_545 S
H2599 C2613 0.904 1_545 S
H2600 C2615 0.930 . S
C2601 H2589 0.930 . S
C2601 C2602 1.399 . S
C2601 C2606 1.399 . S
C2602 C2601 1.399 . S
C2602 C2603 1.376 . S
C2603 H2590 0.930 . S
C2603 C2602 1.376 . S
C2603 C2604 1.388 . S
C2604 H2591 0.930 . S
C2604 C2603 1.388 . S
C2604 C2605 1.390 . S
C2605 C2604 1.390 . S
C2605 C2606 1.394 . S
C2605 C2611 1.465 . S
C2606 C2601 1.399 . S
C2606 C2605 1.394 . S
C2606 C2607 1.516 . S
C2607 C2606 1.516 . S
C2607 C2608 1.502 . S
C2607 C2609 1.561 . S
C2607 C2610 1.526 . S
C2608 H2592 0.959 . S
C2608 H2593 0.959 . S
C2608 H2594 0.961 . S
C2608 C2607 1.502 . S
C2609 H2595 0.960 . S
C2609 H2596 0.961 . S
C2609 H2597 0.959 . S
C2609 C2607 1.561 . S
C2610 C2607 1.526 . S
C2610 C2611 1.396 . S
C2610 C2615 1.390 . S
C2611 C2605 1.465 . S
C2611 C2610 1.396 . S
C2611 C2612 1.399 . S
C2612 H2598 0.915 1_565 S
C2612 C2611 1.399 . S
C2612 C2613 1.395 . S
C2613 H2599 0.904 1_565 S
C2613 C2612 1.395 . S
C2613 C2614 1.406 . S
C2614 C2613 1.406 . S
C2614 C2615 1.387 . S
C2615 H2600 0.930 . S
C2615 C2610 1.390 . S
C2615 C2614 1.387 . S
H2616 C2628 0.930 . S
H2617 C2630 0.930 . S
H2618 C2631 0.930 . S
H2619 C2635 0.959 . S
H2620 C2635 0.959 . S
H2621 C2635 0.961 . S
H2622 C2636 0.960 . S
H2623 C2636 0.961 . S
H2624 C2636 0.959 . S
H2625 C2639 0.929 . S
H2626 C2640 0.931 . S
H2627 C2642 0.930 . S
C2628 H2616 0.930 . S
C2628 C2629 1.399 . S
C2628 C2633 1.399 . S
C2629 C2628 1.399 . S
C2629 C2630 1.376 . S
C2630 H2617 0.930 . S
C2630 C2629 1.376 . S
C2630 C2631 1.388 . S
C2631 H2618 0.930 . S
C2631 C2630 1.388 . S
C2631 C2632 1.390 . S
C2632 C2631 1.390 . S
C2632 C2633 1.394 . S
C2632 C2638 1.465 . S
C2633 C2628 1.399 . S
C2633 C2632 1.394 . S
C2633 C2634 1.516 . S
C2634 C2633 1.516 . S
C2634 C2635 1.502 . S
C2634 C2636 1.561 . S
C2634 C2637 1.526 . S
C2635 H2619 0.959 . S
C2635 H2620 0.959 . S
C2635 H2621 0.961 . S
C2635 C2634 1.502 . S
C2636 H2622 0.960 . S
C2636 H2623 0.961 . S
C2636 H2624 0.959 . S
C2636 C2634 1.561 . S
C2637 C2634 1.526 . S
C2637 C2638 1.396 . S
C2637 C2642 1.390 . S
C2638 C2632 1.465 . S
C2638 C2637 1.396 . S
C2638 C2639 1.399 . S
C2639 H2625 0.929 . S
C2639 C2638 1.399 . S
C2639 C2640 1.385 . S
C2640 H2626 0.931 . S
C2640 C2639 1.385 . S
C2640 C2641 1.389 . S
C2641 C2640 1.389 . S
C2641 C2642 1.387 . S
C2642 H2627 0.930 . S
C2642 C2637 1.390 . S
C2642 C2641 1.387 . S
H2643 C2655 0.930 . S
H2644 C2657 0.930 . S
H2645 C2658 0.930 . S
H2646 C2662 0.959 . S
H2647 C2662 0.959 1_455 S
H2648 C2662 0.961 . S
H2649 C2663 0.960 . S
H2650 C2663 0.961 1_455 S
H2651 C2663 0.959 . S
H2652 C2666 0.929 . S
H2653 C2667 0.931 . S
H2654 C2669 0.930 1_455 S
C2655 H2643 0.930 . S
C2655 C2656 1.399 . S
C2655 C2660 1.399 . S
C2656 C2655 1.399 . S
C2656 C2657 1.376 . S
C2657 H2644 0.930 . S
C2657 C2656 1.376 . S
C2657 C2658 1.388 . S
C2658 H2645 0.930 . S
C2658 C2657 1.388 . S
C2658 C2659 1.390 . S
C2659 C2658 1.390 . S
C2659 C2660 1.394 . S
C2659 C2665 1.465 . S
C2660 C2655 1.399 . S
C2660 C2659 1.394 . S
C2660 C2661 1.516 . S
C2661 C2660 1.516 . S
C2661 C2662 1.502 . S
C2661 C2663 1.561 . S
C2661 C2664 1.526 . S
C2662 H2646 0.959 . S
C2662 H2647 0.959 1_655 S
C2662 H2648 0.961 . S
C2662 C2661 1.502 . S
C2663 H2649 0.960 . S
C2663 H2650 0.961 1_655 S
C2663 H2651 0.959 . S
C2663 C2661 1.561 . S
C2664 C2661 1.526 . S
C2664 C2665 1.396 . S
C2664 C2669 1.390 . S
C2665 C2659 1.465 . S
C2665 C2664 1.396 . S
C2665 C2666 1.399 . S
C2666 H2652 0.929 . S
C2666 C2665 1.399 . S
C2666 C2667 1.385 . S
C2667 H2653 0.931 . S
C2667 C2666 1.385 . S
C2667 C2668 1.389 . S
C2668 C2667 1.389 . S
C2668 C2669 1.387 . S
C2669 H2654 0.930 1_655 S
C2669 C2664 1.390 . S
C2669 C2668 1.387 . S
H2670 C2682 0.930 . S
H2671 C2684 0.930 . S
H2672 C2685 0.930 . S
H2673 C2689 0.959 . S
H2674 C2689 0.959 . S
H2675 C2689 0.961 . S
H2676 C2690 0.960 . S
H2677 C2690 0.961 . S
H2678 C2690 0.959 . S
H2679 C2693 0.929 . S
H2680 C2694 0.931 . S
H2681 C2696 0.930 . S
C2682 H2670 0.930 . S
C2682 C2683 1.399 . S
C2682 C2687 1.399 . S
C2683 C2682 1.399 . S
C2683 C2684 1.376 . S
C2684 H2671 0.930 . S
C2684 C2683 1.376 . S
C2684 C2685 1.388 . S
C2685 H2672 0.930 . S
C2685 C2684 1.388 . S
C2685 C2686 1.390 . S
C2686 C2685 1.390 . S
C2686 C2687 1.394 . S
C2686 C2692 1.465 . S
C2687 C2682 1.399 . S
C2687 C2686 1.394 . S
C2687 C2688 1.516 . S
C2688 C2687 1.516 . S
C2688 C2689 1.502 . S
C2688 C2690 1.561 . S
C2688 C2691 1.526 . S
C2689 H2673 0.959 . S
C2689 H2674 0.959 . S
C2689 H2675 0.961 . S
C2689 C2688 1.502 . S
C2690 H2676 0.960 . S
C2690 H2677 0.961 . S
C2690 H2678 0.959 . S
C2690 C2688 1.561 . S
C2691 C2688 1.526 . S
C2691 C2692 1.396 . S
C2691 C2696 1.390 . S
C2692 C2686 1.465 . S
C2692 C2691 1.396 . S
C2692 C2693 1.399 . S
C2693 H2679 0.929 . S
C2693 C2692 1.399 . S
C2693 C2694 1.385 . S
C2694 H2680 0.931 . S
C2694 C2693 1.385 . S
C2694 C2695 1.389 . S
C2695 C2694 1.389 . S
C2695 C2696 1.387 . S
C2696 H2681 0.930 . S
C2696 C2691 1.390 . S
C2696 C2695 1.387 . S
H2697 C2709 0.930 . S
H2698 C2711 0.930 . S
H2699 C2712 0.930 . S
H2700 C2716 0.959 . S
H2701 C2716 0.959 . S
H2702 C2716 0.961 . S
H2703 C2717 0.960 . S
H2704 C2717 0.961 . S
H2705 C2717 0.959 . S
H2706 C2720 0.929 . S
H2707 C2721 0.931 . S
H2708 C2723 0.930 . S
C2709 H2697 0.930 . S
C2709 C2710 1.399 . S
C2709 C2714 1.399 . S
C2710 C2709 1.399 . S
C2710 C2711 1.376 . S
C2711 H2698 0.930 . S
C2711 C2710 1.376 . S
C2711 C2712 1.388 . S
C2712 H2699 0.930 . S
C2712 C2711 1.388 . S
C2712 C2713 1.390 . S
C2713 C2712 1.390 . S
C2713 C2714 1.394 . S
C2713 C2719 1.465 . S
C2714 C2709 1.399 . S
C2714 C2713 1.394 . S
C2714 C2715 1.516 . S
C2715 C2714 1.516 . S
C2715 C2716 1.502 . S
C2715 C2717 1.561 . S
C2715 C2718 1.526 . S
C2716 H2700 0.959 . S
C2716 H2701 0.959 . S
C2716 H2702 0.961 . S
C2716 C2715 1.502 . S
C2717 H2703 0.960 . S
C2717 H2704 0.961 . S
C2717 H2705 0.959 . S
C2717 C2715 1.561 . S
C2718 C2715 1.526 . S
C2718 C2719 1.396 . S
C2718 C2723 1.390 . S
C2719 C2713 1.465 . S
C2719 C2718 1.396 . S
C2719 C2720 1.399 . S
C2720 H2706 0.929 . S
C2720 C2719 1.399 . S
C2720 C2721 1.385 . S
C2721 H2707 0.931 . S
C2721 C2720 1.385 . S
C2721 C2722 1.389 . S
C2722 C2721 1.389 . S
C2722 C2723 1.387 . S
C2723 H2708 0.930 . S
C2723 C2718 1.390 . S
C2723 C2722 1.387 . S
H2724 C2736 0.930 . S
H2725 C2738 0.930 . S
H2726 C2739 0.930 . S
H2727 C2743 0.959 . S
H2728 C2743 0.959 . S
H2729 C2743 0.961 . S
H2730 C2744 0.960 . S
H2731 C2744 0.961 . S
H2732 C2744 0.959 . S
H2733 C2747 0.929 . S
H2734 C2748 0.931 . S
H2735 C2750 0.930 . S
C2736 H2724 0.930 . S
C2736 C2737 1.399 . S
C2736 C2741 1.399 . S
C2737 C2736 1.399 . S
C2737 C2738 1.376 . S
C2738 H2725 0.930 . S
C2738 C2737 1.376 . S
C2738 C2739 1.388 . S
C2739 H2726 0.930 . S
C2739 C2738 1.388 . S
C2739 C2740 1.390 . S
C2740 C2739 1.390 . S
C2740 C2741 1.394 . S
C2740 C2746 1.465 . S
C2741 C2736 1.399 . S
C2741 C2740 1.394 . S
C2741 C2742 1.516 . S
C2742 C2741 1.516 . S
C2742 C2743 1.502 . S
C2742 C2744 1.561 . S
C2742 C2745 1.526 . S
C2743 H2727 0.959 . S
C2743 H2728 0.959 . S
C2743 H2729 0.961 . S
C2743 C2742 1.502 . S
C2744 H2730 0.960 . S
C2744 H2731 0.961 . S
C2744 H2732 0.959 . S
C2744 C2742 1.561 . S
C2745 C2742 1.526 . S
C2745 C2746 1.396 . S
C2745 C2750 1.390 . S
C2746 C2740 1.465 . S
C2746 C2745 1.396 . S
C2746 C2747 1.399 . S
C2747 H2733 0.929 . S
C2747 C2746 1.399 . S
C2747 C2748 1.385 . S
C2748 H2734 0.931 . S
C2748 C2747 1.385 . S
C2748 C2749 1.389 . S
C2749 C2748 1.389 . S
C2749 C2750 1.387 . S
C2750 H2735 0.930 . S
C2750 C2745 1.390 . S
C2750 C2749 1.387 . S
H2751 C2763 0.930 . S
H2752 C2765 0.930 . S
H2753 C2766 0.930 . S
H2754 C2770 0.959 . S
H2755 C2770 0.959 . S
H2756 C2770 0.961 . S
H2757 C2771 0.960 . S
H2758 C2771 0.961 . S
H2759 C2771 0.959 . S
H2760 C2774 0.929 . S
H2761 C2775 0.931 . S
H2762 C2777 0.930 . S
C2763 H2751 0.930 . S
C2763 C2764 1.399 . S
C2763 C2768 1.399 . S
C2764 C2763 1.399 . S
C2764 C2765 1.376 . S
C2765 H2752 0.930 . S
C2765 C2764 1.376 . S
C2765 C2766 1.388 . S
C2766 H2753 0.930 . S
C2766 C2765 1.388 . S
C2766 C2767 1.390 . S
C2767 C2766 1.390 . S
C2767 C2768 1.394 . S
C2767 C2773 1.465 . S
C2768 C2763 1.399 . S
C2768 C2767 1.394 . S
C2768 C2769 1.516 . S
C2769 C2768 1.516 . S
C2769 C2770 1.502 . S
C2769 C2771 1.561 . S
C2769 C2772 1.526 . S
C2770 H2754 0.959 . S
C2770 H2755 0.959 . S
C2770 H2756 0.961 . S
C2770 C2769 1.502 . S
C2771 H2757 0.960 . S
C2771 H2758 0.961 . S
C2771 H2759 0.959 . S
C2771 C2769 1.561 . S
C2772 C2769 1.526 . S
C2772 C2773 1.396 . S
C2772 C2777 1.390 . S
C2773 C2767 1.465 . S
C2773 C2772 1.396 . S
C2773 C2774 1.399 . S
C2774 H2760 0.929 . S
C2774 C2773 1.399 . S
C2774 C2775 1.385 . S
C2775 H2761 0.931 . S
C2775 C2774 1.385 . S
C2775 C2776 1.389 . S
C2776 C2775 1.389 . S
C2776 C2777 1.387 . S
C2777 H2762 0.930 . S
C2777 C2772 1.390 . S
C2777 C2776 1.387 . S
H2778 C2790 0.930 . S
H2779 C2792 0.930 . S
H2780 C2793 0.930 . S
H2781 C2797 0.959 . S
H2782 C2797 0.959 . S
H2783 C2797 0.961 . S
H2784 C2798 0.960 . S
H2785 C2798 0.961 . S
H2786 C2798 0.959 . S
H2787 C2801 0.929 . S
H2788 C2802 0.931 . S
H2789 C2804 0.930 . S
C2790 H2778 0.930 . S
C2790 C2791 1.399 . S
C2790 C2795 1.399 . S
C2791 C2790 1.399 . S
C2791 C2792 1.376 . S
C2792 H2779 0.930 . S
C2792 C2791 1.376 . S
C2792 C2793 1.388 . S
C2793 H2780 0.930 . S
C2793 C2792 1.388 . S
C2793 C2794 1.390 . S
C2794 C2793 1.390 . S
C2794 C2795 1.394 . S
C2794 C2800 1.465 . S
C2795 C2790 1.399 . S
C2795 C2794 1.394 . S
C2795 C2796 1.516 . S
C2796 C2795 1.516 . S
C2796 C2797 1.502 . S
C2796 C2798 1.561 . S
C2796 C2799 1.526 . S
C2797 H2781 0.959 . S
C2797 H2782 0.959 . S
C2797 H2783 0.961 . S
C2797 C2796 1.502 . S
C2798 H2784 0.960 . S
C2798 H2785 0.961 . S
C2798 H2786 0.959 . S
C2798 C2796 1.561 . S
C2799 C2796 1.526 . S
C2799 C2800 1.396 . S
C2799 C2804 1.390 . S
C2800 C2794 1.465 . S
C2800 C2799 1.396 . S
C2800 C2801 1.399 . S
C2801 H2787 0.929 . S
C2801 C2800 1.399 . S
C2801 C2802 1.385 . S
C2802 H2788 0.931 . S
C2802 C2801 1.385 . S
C2802 C2803 1.389 . S
C2803 C2802 1.389 . S
C2803 C2804 1.387 . S
C2804 H2789 0.930 . S
C2804 C2799 1.390 . S
C2804 C2803 1.387 . S
H2805 C2817 0.930 . S
H2806 C2819 0.930 . S
H2807 C2820 0.930 . S
H2808 C2824 0.959 . S
H2809 C2824 0.959 . S
H2810 C2824 0.961 . S
H2811 C2825 0.960 . S
H2812 C2825 0.961 . S
H2813 C2825 0.959 . S
H2814 C2828 0.929 . S
H2815 C2829 0.931 . S
H2816 C2831 0.930 . S
C2817 H2805 0.930 . S
C2817 C2818 1.399 . S
C2817 C2822 1.399 . S
C2818 C2817 1.399 . S
C2818 C2819 1.376 . S
C2819 H2806 0.930 . S
C2819 C2818 1.376 . S
C2819 C2820 1.388 . S
C2820 H2807 0.930 . S
C2820 C2819 1.388 . S
C2820 C2821 1.390 . S
C2821 C2820 1.390 . S
C2821 C2822 1.394 . S
C2821 C2827 1.465 . S
C2822 C2817 1.399 . S
C2822 C2821 1.394 . S
C2822 C2823 1.516 . S
C2823 C2822 1.516 . S
C2823 C2824 1.502 . S
C2823 C2825 1.561 . S
C2823 C2826 1.526 . S
C2824 H2808 0.959 . S
C2824 H2809 0.959 . S
C2824 H2810 0.961 . S
C2824 C2823 1.502 . S
C2825 H2811 0.960 . S
C2825 H2812 0.961 . S
C2825 H2813 0.959 . S
C2825 C2823 1.561 . S
C2826 C2823 1.526 . S
C2826 C2827 1.396 . S
C2826 C2831 1.390 . S
C2827 C2821 1.465 . S
C2827 C2826 1.396 . S
C2827 C2828 1.399 . S
C2828 H2814 0.929 . S
C2828 C2827 1.399 . S
C2828 C2829 1.385 . S
C2829 H2815 0.931 . S
C2829 C2828 1.385 . S
C2829 C2830 1.389 . S
C2830 C2829 1.389 . S
C2830 C2831 1.387 . S
C2831 H2816 0.930 . S
C2831 C2826 1.390 . S
C2831 C2830 1.387 . S
H2832 C2844 0.930 . S
H2833 C2846 0.930 . S
H2834 C2847 0.930 . S
H2835 C2851 0.959 . S
H2836 C2851 0.959 . S
H2837 C2851 0.961 . S
H2838 C2852 0.960 . S
H2839 C2852 0.961 . S
H2840 C2852 0.959 . S
H2841 C2855 0.929 . S
H2842 C2856 0.931 . S
H2843 C2858 0.930 . S
C2844 H2832 0.930 . S
C2844 C2845 1.399 . S
C2844 C2849 1.399 . S
C2845 C2844 1.399 . S
C2845 C2846 1.376 . S
C2846 H2833 0.930 . S
C2846 C2845 1.376 . S
C2846 C2847 1.388 . S
C2847 H2834 0.930 . S
C2847 C2846 1.388 . S
C2847 C2848 1.390 . S
C2848 C2847 1.390 . S
C2848 C2849 1.394 . S
C2848 C2854 1.465 . S
C2849 C2844 1.399 . S
C2849 C2848 1.394 . S
C2849 C2850 1.516 . S
C2850 C2849 1.516 . S
C2850 C2851 1.502 . S
C2850 C2852 1.561 . S
C2850 C2853 1.526 . S
C2851 H2835 0.959 . S
C2851 H2836 0.959 . S
C2851 H2837 0.961 . S
C2851 C2850 1.502 . S
C2852 H2838 0.960 . S
C2852 H2839 0.961 . S
C2852 H2840 0.959 . S
C2852 C2850 1.561 . S
C2853 C2850 1.526 . S
C2853 C2854 1.396 . S
C2853 C2858 1.390 . S
C2854 C2848 1.465 . S
C2854 C2853 1.396 . S
C2854 C2855 1.399 . S
C2855 H2841 0.929 . S
C2855 C2854 1.399 . S
C2855 C2856 1.385 . S
C2856 H2842 0.931 . S
C2856 C2855 1.385 . S
C2856 C2857 1.389 . S
C2857 C2856 1.389 . S
C2857 C2858 1.387 . S
C2858 H2843 0.930 . S
C2858 C2853 1.390 . S
C2858 C2857 1.387 . S
H2859 C2871 0.930 . S
H2860 C2873 0.930 . S
H2861 C2874 0.930 . S
H2862 C2878 0.959 . S
H2863 C2878 0.959 . S
H2864 C2878 0.961 . S
H2865 C2879 0.960 . S
H2866 C2879 0.961 . S
H2867 C2879 0.959 . S
H2868 C2882 0.929 . S
H2869 C2883 0.931 . S
H2870 C2885 0.930 . S
C2871 H2859 0.930 . S
C2871 C2872 1.399 . S
C2871 C2876 1.399 . S
C2872 C2871 1.399 . S
C2872 C2873 1.376 . S
C2873 H2860 0.930 . S
C2873 C2872 1.376 . S
C2873 C2874 1.388 . S
C2874 H2861 0.930 . S
C2874 C2873 1.388 . S
C2874 C2875 1.390 . S
C2875 C2874 1.390 . S
C2875 C2876 1.394 . S
C2875 C2881 1.465 . S
C2876 C2871 1.399 . S
C2876 C2875 1.394 . S
C2876 C2877 1.516 . S
C2877 C2876 1.516 . S
C2877 C2878 1.502 . S
C2877 C2879 1.561 . S
C2877 C2880 1.526 . S
C2878 H2862 0.959 . S
C2878 H2863 0.959 . S
C2878 H2864 0.961 . S
C2878 C2877 1.502 . S
C2879 H2865 0.960 . S
C2879 H2866 0.961 . S
C2879 H2867 0.959 . S
C2879 C2877 1.561 . S
C2880 C2877 1.526 . S
C2880 C2881 1.396 . S
C2880 C2885 1.390 . S
C2881 C2875 1.465 . S
C2881 C2880 1.396 . S
C2881 C2882 1.399 . S
C2882 H2868 0.929 . S
C2882 C2881 1.399 . S
C2882 C2883 1.385 . S
C2883 H2869 0.931 . S
C2883 C2882 1.385 . S
C2883 C2884 1.389 . S
C2884 C2883 1.389 . S
C2884 C2885 1.387 . S
C2885 H2870 0.930 . S
C2885 C2880 1.390 . S
C2885 C2884 1.387 . S
H2886 C2898 0.930 . S
H2887 C2900 0.930 . S
H2888 C2901 0.930 . S
H2889 C2905 0.959 . S
H2890 C2905 0.959 . S
H2891 C2905 0.961 . S
H2892 C2906 0.960 . S
H2893 C2906 0.961 . S
H2894 C2906 0.959 . S
H2895 C2909 0.929 1_554 S
H2896 C2910 0.931 1_554 S
H2897 C2912 0.930 . S
C2898 H2886 0.930 . S
C2898 C2899 1.399 . S
C2898 C2903 1.399 . S
C2899 C2898 1.399 . S
C2899 C2900 1.376 . S
C2900 H2887 0.930 . S
C2900 C2899 1.376 . S
C2900 C2901 1.388 . S
C2901 H2888 0.930 . S
C2901 C2900 1.388 . S
C2901 C2902 1.390 . S
C2902 C2901 1.390 . S
C2902 C2903 1.394 . S
C2902 C2908 1.465 . S
C2903 C2898 1.399 . S
C2903 C2902 1.394 . S
C2903 C2904 1.516 . S
C2904 C2903 1.516 . S
C2904 C2905 1.502 . S
C2904 C2906 1.561 . S
C2904 C2907 1.526 . S
C2905 H2889 0.959 . S
C2905 H2890 0.959 . S
C2905 H2891 0.961 . S
C2905 C2904 1.502 . S
C2906 H2892 0.960 . S
C2906 H2893 0.961 . S
C2906 H2894 0.959 . S
C2906 C2904 1.561 . S
C2907 C2904 1.526 . S
C2907 C2908 1.396 . S
C2907 C2912 1.390 . S
C2908 C2902 1.465 . S
C2908 C2907 1.396 . S
C2908 C2909 1.399 . S
C2909 H2895 0.929 1_556 S
C2909 C2908 1.399 . S
C2909 C2910 1.385 . S
C2910 H2896 0.931 1_556 S
C2910 C2909 1.385 . S
C2910 C2911 1.389 . S
C2911 C2910 1.389 . S
C2911 C2912 1.387 . S
C2912 H2897 0.930 . S
C2912 C2907 1.390 . S
C2912 C2911 1.387 . S
H2913 C2925 0.930 . S
H2914 C2927 0.930 . S
H2915 C2928 0.930 . S
H2916 C2932 0.959 . S
H2917 C2932 0.959 . S
H2918 C2932 0.961 . S
H2919 C2933 0.960 . S
H2920 C2933 0.961 . S
H2921 C2933 0.959 . S
H2922 C2936 0.929 . S
H2923 C2937 0.931 . S
H2924 C2939 0.930 . S
C2925 H2913 0.930 . S
C2925 C2926 1.399 . S
C2925 C2930 1.399 . S
C2926 C2925 1.399 . S
C2926 C2927 1.376 . S
C2927 H2914 0.930 . S
C2927 C2926 1.376 . S
C2927 C2928 1.388 . S
C2928 H2915 0.930 . S
C2928 C2927 1.388 . S
C2928 C2929 1.390 . S
C2929 C2928 1.390 . S
C2929 C2930 1.394 . S
C2929 C2935 1.465 . S
C2930 C2925 1.399 . S
C2930 C2929 1.394 . S
C2930 C2931 1.516 . S
C2931 C2930 1.516 . S
C2931 C2932 1.502 . S
C2931 C2933 1.561 . S
C2931 C2934 1.526 . S
C2932 H2916 0.959 . S
C2932 H2917 0.959 . S
C2932 H2918 0.961 . S
C2932 C2931 1.502 . S
C2933 H2919 0.960 . S
C2933 H2920 0.961 . S
C2933 H2921 0.959 . S
C2933 C2931 1.561 . S
C2934 C2931 1.526 . S
C2934 C2935 1.396 . S
C2934 C2939 1.390 . S
C2935 C2929 1.465 . S
C2935 C2934 1.396 . S
C2935 C2936 1.399 . S
C2936 H2922 0.929 . S
C2936 C2935 1.399 . S
C2936 C2937 1.385 . S
C2937 H2923 0.931 . S
C2937 C2936 1.385 . S
C2937 C2938 1.389 . S
C2938 C2937 1.389 . S
C2938 C2939 1.387 . S
C2939 H2924 0.930 . S
C2939 C2934 1.390 . S
C2939 C2938 1.387 . S
H2940 C2952 0.930 . S
H2941 C2954 0.930 . S
H2942 C2955 0.930 . S
H2943 C2959 0.959 . S
H2944 C2959 0.959 . S
H2945 C2959 0.961 . S
H2946 C2960 0.960 . S
H2947 C2960 0.961 1_554 S
H2948 C2960 0.959 . S
H2949 C2963 0.929 . S
H2950 C2964 0.931 . S
H2951 C2966 0.972 . S
C2952 H2940 0.930 . S
C2952 C2953 1.399 . S
C2952 C2957 1.399 . S
C2953 C2952 1.399 . S
C2953 C2954 1.376 . S
C2954 H2941 0.930 . S
C2954 C2953 1.376 . S
C2954 C2955 1.388 . S
C2955 H2942 0.930 . S
C2955 C2954 1.388 . S
C2955 C2956 1.390 . S
C2956 C2955 1.390 . S
C2956 C2957 1.394 . S
C2956 C2962 1.465 . S
C2957 C2952 1.399 . S
C2957 C2956 1.394 . S
C2957 C2958 1.516 . S
C2958 C2957 1.516 . S
C2958 C2959 1.502 . S
C2958 C2960 1.561 . S
C2958 C2961 1.526 . S
C2959 H2943 0.959 . S
C2959 H2944 0.959 . S
C2959 H2945 0.961 . S
C2959 C2958 1.502 . S
C2960 H2946 0.960 . S
C2960 H2947 0.961 1_556 S
C2960 H2948 0.959 . S
C2960 C2958 1.561 . S
C2961 C2958 1.526 . S
C2961 C2962 1.396 . S
C2961 C2966 1.390 . S
C2962 C2956 1.465 . S
C2962 C2961 1.396 . S
C2962 C2963 1.399 . S
C2963 H2949 0.929 . S
C2963 C2962 1.399 . S
C2963 C2964 1.385 . S
C2964 H2950 0.931 . S
C2964 C2963 1.385 . S
C2964 C2965 1.389 . S
C2965 C2964 1.389 . S
C2965 C2966 1.387 . S
C2966 H2951 0.972 . S
C2966 C2961 1.390 . S
C2966 C2965 1.387 . S
H2967 C2979 0.930 . S
H2968 C2981 0.930 . S
H2969 C2982 0.930 . S
H2970 C2986 0.959 . S
H2971 C2986 0.959 . S
H2972 C2986 0.961 . S
H2973 C2987 0.960 . S
H2974 C2987 0.961 . S
H2975 C2987 0.959 . S
H2976 C2990 0.929 . S
H2977 C2991 0.931 . S
H2978 C2993 0.930 . S
C2979 H2967 0.930 . S
C2979 C2980 1.399 . S
C2979 C2984 1.399 . S
C2980 C2979 1.399 . S
C2980 C2981 1.376 . S
C2981 H2968 0.930 . S
C2981 C2980 1.376 . S
C2981 C2982 1.388 . S
C2982 H2969 0.930 . S
C2982 C2981 1.388 . S
C2982 C2983 1.390 . S
C2983 C2982 1.390 . S
C2983 C2984 1.394 . S
C2983 C2989 1.465 . S
C2984 C2979 1.399 . S
C2984 C2983 1.394 . S
C2984 C2985 1.516 . S
C2985 C2984 1.516 . S
C2985 C2986 1.502 . S
C2985 C2987 1.561 . S
C2985 C2988 1.526 . S
C2986 H2970 0.959 . S
C2986 H2971 0.959 . S
C2986 H2972 0.961 . S
C2986 C2985 1.502 . S
C2987 H2973 0.960 . S
C2987 H2974 0.961 . S
C2987 H2975 0.959 . S
C2987 C2985 1.561 . S
C2988 C2985 1.526 . S
C2988 C2989 1.396 . S
C2988 C2993 1.390 . S
C2989 C2983 1.465 . S
C2989 C2988 1.396 . S
C2989 C2990 1.399 . S
C2990 H2976 0.929 . S
C2990 C2989 1.399 . S
C2990 C2991 1.385 . S
C2991 H2977 0.931 . S
C2991 C2990 1.385 . S
C2991 C2992 1.389 . S
C2992 C2991 1.389 . S
C2992 C2993 1.387 . S
C2993 H2978 0.930 . S
C2993 C2988 1.390 . S
C2993 C2992 1.387 . S
H2994 C3006 0.930 . S
H2995 C3008 0.930 . S
H2996 C3009 0.930 . S
H2997 C3013 0.959 . S
H2998 C3013 0.959 . S
H2999 C3013 0.961 . S
H3000 C3014 0.960 . S
H3001 C3014 0.961 . S
H3002 C3014 0.959 . S
H3003 C3017 0.929 . S
H3004 C3018 0.931 . S
H3005 C3020 0.930 . S
C3006 H2994 0.930 . S
C3006 C3007 1.399 . S
C3006 C3011 1.399 . S
C3007 C3006 1.399 . S
C3007 C3008 1.376 . S
C3008 H2995 0.930 . S
C3008 C3007 1.376 . S
C3008 C3009 1.388 . S
C3009 H2996 0.930 . S
C3009 C3008 1.388 . S
C3009 C3010 1.390 . S
C3010 C3009 1.390 . S
C3010 C3011 1.394 . S
C3010 C3016 1.465 . S
C3011 C3006 1.399 . S
C3011 C3010 1.394 . S
C3011 C3012 1.516 . S
C3012 C3011 1.516 . S
C3012 C3013 1.502 . S
C3012 C3014 1.561 . S
C3012 C3015 1.526 . S
C3013 H2997 0.959 . S
C3013 H2998 0.959 . S
C3013 H2999 0.961 . S
C3013 C3012 1.502 . S
C3014 H3000 0.960 . S
C3014 H3001 0.961 . S
C3014 H3002 0.959 . S
C3014 C3012 1.561 . S
C3015 C3012 1.526 . S
C3015 C3016 1.396 . S
C3015 C3020 1.390 . S
C3016 C3010 1.465 . S
C3016 C3015 1.396 . S
C3016 C3017 1.399 . S
C3017 H3003 0.929 . S
C3017 C3016 1.399 . S
C3017 C3018 1.385 . S
C3018 H3004 0.931 . S
C3018 C3017 1.385 . S
C3018 C3019 1.389 . S
C3019 C3018 1.389 . S
C3019 C3020 1.387 . S
C3020 H3005 0.930 . S
C3020 C3015 1.390 . S
C3020 C3019 1.387 . S
H3021 C3033 0.930 . S
H3022 C3035 0.930 . S
H3023 C3036 0.950 . S
H3024 C3040 0.959 . S
H3025 C3040 0.959 . S
H3026 C3040 0.961 . S
H3027 C3041 0.960 . S
H3028 C3041 0.961 . S
H3029 C3041 0.959 . S
H3030 C3044 0.950 . S
H3031 C3045 0.931 . S
H3032 C3047 0.930 . S
C3033 H3021 0.930 . S
C3033 C3034 1.399 . S
C3033 C3038 1.399 . S
C3034 C3033 1.399 . S
C3034 C3035 1.376 . S
C3035 H3022 0.930 . S
C3035 C3034 1.376 . S
C3035 C3036 1.388 . S
C3036 H3023 0.950 . S
C3036 C3035 1.388 . S
C3036 C3037 1.390 . S
C3037 C3036 1.390 . S
C3037 C3038 1.394 . S
C3037 C3043 1.465 . S
C3038 C3033 1.399 . S
C3038 C3037 1.394 . S
C3038 C3039 1.516 . S
C3039 C3038 1.516 . S
C3039 C3040 1.502 . S
C3039 C3041 1.561 . S
C3039 C3042 1.526 . S
C3040 H3024 0.959 . S
C3040 H3025 0.959 . S
C3040 H3026 0.961 . S
C3040 C3039 1.502 . S
C3041 H3027 0.960 . S
C3041 H3028 0.961 . S
C3041 H3029 0.959 . S
C3041 C3039 1.561 . S
C3042 C3039 1.526 . S
C3042 C3043 1.396 . S
C3042 C3047 1.390 . S
C3043 C3037 1.465 . S
C3043 C3042 1.396 . S
C3043 C3044 1.375 1_554 S
C3044 H3030 0.950 . S
C3044 C3043 1.375 1_556 S
C3044 C3045 1.389 . S
C3045 H3031 0.931 . S
C3045 C3044 1.389 . S
C3045 C3046 1.389 1_556 S
C3046 C3045 1.389 1_554 S
C3046 C3047 1.387 . S
C3047 H3032 0.930 . S
C3047 C3042 1.390 . S
C3047 C3046 1.387 . S
H3048 C3060 0.930 . S
H3049 C3062 0.930 . S
H3050 C3063 0.930 . S
H3051 C3067 0.959 . S
H3052 C3067 0.959 . S
H3053 C3067 0.961 . S
H3054 C3068 0.960 . S
H3055 C3068 0.961 . S
H3056 C3068 0.959 . S
H3057 C3071 0.929 . S
H3058 C3072 0.931 . S
H3059 C3074 0.930 . S
C3060 H3048 0.930 . S
C3060 C3061 1.399 . S
C3060 C3065 1.399 . S
C3061 C3060 1.399 . S
C3061 C3062 1.376 . S
C3062 H3049 0.930 . S
C3062 C3061 1.376 . S
C3062 C3063 1.388 . S
C3063 H3050 0.930 . S
C3063 C3062 1.388 . S
C3063 C3064 1.390 . S
C3064 C3063 1.390 . S
C3064 C3065 1.394 . S
C3064 C3070 1.465 . S
C3065 C3060 1.399 . S
C3065 C3064 1.394 . S
C3065 C3066 1.516 . S
C3066 C3065 1.516 . S
C3066 C3067 1.502 . S
C3066 C3068 1.561 . S
C3066 C3069 1.526 . S
C3067 H3051 0.959 . S
C3067 H3052 0.959 . S
C3067 H3053 0.961 . S
C3067 C3066 1.502 . S
C3068 H3054 0.960 . S
C3068 H3055 0.961 . S
C3068 H3056 0.959 . S
C3068 C3066 1.561 . S
C3069 C3066 1.526 . S
C3069 C3070 1.396 . S
C3069 C3074 1.390 . S
C3070 C3064 1.465 . S
C3070 C3069 1.396 . S
C3070 C3071 1.399 . S
C3071 H3057 0.929 . S
C3071 C3070 1.399 . S
C3071 C3072 1.385 . S
C3072 H3058 0.931 . S
C3072 C3071 1.385 . S
C3072 C3073 1.389 . S
C3073 C3072 1.389 . S
C3073 C3074 1.387 . S
C3074 H3059 0.930 . S
C3074 C3069 1.390 . S
C3074 C3073 1.387 . S
H3075 C3087 0.930 . S
H3076 C3089 0.930 . S
H3077 C3090 0.930 . S
H3078 C3094 0.959 . S
H3079 C3094 0.959 . S
H3080 C3094 0.961 . S
H3081 C3095 0.960 . S
H3082 C3095 0.961 . S
H3083 C3095 0.959 . S
H3084 C3098 0.929 . S
H3085 C3099 0.931 . S
H3086 C3101 0.930 . S
C3087 H3075 0.930 . S
C3087 C3088 1.399 . S
C3087 C3092 1.399 . S
C3088 C3087 1.399 . S
C3088 C3089 1.376 . S
C3089 H3076 0.930 . S
C3089 C3088 1.376 . S
C3089 C3090 1.388 . S
C3090 H3077 0.930 . S
C3090 C3089 1.388 . S
C3090 C3091 1.390 . S
C3091 C3090 1.390 . S
C3091 C3092 1.394 . S
C3091 C3097 1.465 . S
C3092 C3087 1.399 . S
C3092 C3091 1.394 . S
C3092 C3093 1.516 . S
C3093 C3092 1.516 . S
C3093 C3094 1.502 . S
C3093 C3095 1.561 . S
C3093 C3096 1.526 . S
C3094 H3078 0.959 . S
C3094 H3079 0.959 . S
C3094 H3080 0.961 . S
C3094 C3093 1.502 . S
C3095 H3081 0.960 . S
C3095 H3082 0.961 . S
C3095 H3083 0.959 . S
C3095 C3093 1.561 . S
C3096 C3093 1.526 . S
C3096 C3097 1.396 . S
C3096 C3101 1.390 . S
C3097 C3091 1.465 . S
C3097 C3096 1.396 . S
C3097 C3098 1.399 . S
C3098 H3084 0.929 . S
C3098 C3097 1.399 . S
C3098 C3099 1.385 . S
C3099 H3085 0.931 . S
C3099 C3098 1.385 . S
C3099 C3100 1.389 . S
C3100 C3099 1.389 . S
C3100 C3101 1.387 . S
C3101 H3086 0.930 . S
C3101 C3096 1.390 . S
C3101 C3100 1.387 . S
H3102 C3114 0.930 . S
H3103 C3116 0.930 . S
H3104 C3117 0.930 . S
H3105 C3121 0.959 . S
H3106 C3121 0.959 . S
H3107 C3121 0.961 . S
H3108 C3122 0.960 . S
H3109 C3122 0.961 . S
H3110 C3122 0.959 . S
H3111 C3125 0.929 . S
H3112 C3126 0.931 . S
H3113 C3128 0.930 . S
C3114 H3102 0.930 . S
C3114 C3115 1.399 . S
C3114 C3119 1.399 . S
C3115 C3114 1.399 . S
C3115 C3116 1.376 . S
C3116 H3103 0.930 . S
C3116 C3115 1.376 . S
C3116 C3117 1.388 . S
C3117 H3104 0.930 . S
C3117 C3116 1.388 . S
C3117 C3118 1.390 . S
C3118 C3117 1.390 . S
C3118 C3119 1.394 . S
C3118 C3124 1.465 . S
C3119 C3114 1.399 . S
C3119 C3118 1.394 . S
C3119 C3120 1.516 . S
C3120 C3119 1.516 . S
C3120 C3121 1.502 . S
C3120 C3122 1.561 . S
C3120 C3123 1.526 . S
C3121 H3105 0.959 . S
C3121 H3106 0.959 . S
C3121 H3107 0.961 . S
C3121 C3120 1.502 . S
C3122 H3108 0.960 . S
C3122 H3109 0.961 . S
C3122 H3110 0.959 . S
C3122 C3120 1.561 . S
C3123 C3120 1.526 . S
C3123 C3124 1.396 . S
C3123 C3128 1.390 . S
C3124 C3118 1.465 . S
C3124 C3123 1.396 . S
C3124 C3125 1.399 . S
C3125 H3111 0.929 . S
C3125 C3124 1.399 . S
C3125 C3126 1.385 . S
C3126 H3112 0.931 . S
C3126 C3125 1.385 . S
C3126 C3127 1.389 . S
C3127 C3126 1.389 . S
C3127 C3128 1.387 . S
C3128 H3113 0.930 . S
C3128 C3123 1.390 . S
C3128 C3127 1.387 . S
H3129 C3141 0.930 . S
H3130 C3143 0.930 . S
H3131 C3144 0.930 . S
H3132 C3148 0.959 . S
H3133 C3148 0.959 . S
H3134 C3148 0.961 . S
H3135 C3149 0.960 . S
H3136 C3149 0.961 . S
H3137 C3149 0.959 . S
H3138 C3152 0.929 . S
H3139 C3153 0.931 . S
H3140 C3155 0.930 . S
C3141 H3129 0.930 . S
C3141 C3142 1.399 . S
C3141 C3146 1.399 . S
C3142 C3141 1.399 . S
C3142 C3143 1.376 1_554 S
C3143 H3130 0.930 . S
C3143 C3142 1.376 1_556 S
C3143 C3144 1.388 . S
C3144 H3131 0.930 . S
C3144 C3143 1.388 . S
C3144 C3145 1.390 1_556 S
C3145 C3144 1.390 1_554 S
C3145 C3146 1.394 . S
C3145 C3151 1.465 . S
C3146 C3141 1.399 . S
C3146 C3145 1.394 . S
C3146 C3147 1.516 . S
C3147 C3146 1.516 . S
C3147 C3148 1.502 . S
C3147 C3149 1.561 . S
C3147 C3150 1.526 . S
C3148 H3132 0.959 . S
C3148 H3133 0.959 . S
C3148 H3134 0.961 . S
C3148 C3147 1.502 . S
C3149 H3135 0.960 . S
C3149 H3136 0.961 . S
C3149 H3137 0.959 . S
C3149 C3147 1.561 . S
C3150 C3147 1.526 . S
C3150 C3151 1.396 . S
C3150 C3155 1.390 . S
C3151 C3145 1.465 . S
C3151 C3150 1.396 . S
C3151 C3152 1.399 1_554 S
C3152 H3138 0.929 . S
C3152 C3151 1.399 1_556 S
C3152 C3153 1.385 . S
C3153 H3139 0.931 . S
C3153 C3152 1.385 . S
C3153 C3154 1.389 1_556 S
C3154 C3153 1.389 1_554 S
C3154 C3155 1.387 . S
C3155 H3140 0.930 . S
C3155 C3150 1.390 . S
C3155 C3154 1.387 . S
H3156 C3168 0.930 . S
H3157 C3170 0.930 . S
H3158 C3171 0.930 . S
H3159 C3175 0.959 . S
H3160 C3175 0.959 . S
H3161 C3175 0.961 . S
H3162 C3176 0.960 . S
H3163 C3176 0.961 . S
H3164 C3176 0.959 . S
H3165 C3179 0.929 . S
H3166 C3180 0.931 . S
H3167 C3182 0.930 . S
C3168 H3156 0.930 . S
C3168 C3169 1.399 . S
C3168 C3173 1.399 . S
C3169 C3168 1.399 . S
C3169 C3170 1.376 . S
C3170 H3157 0.930 . S
C3170 C3169 1.376 . S
C3170 C3171 1.388 . S
C3171 H3158 0.930 . S
C3171 C3170 1.388 . S
C3171 C3172 1.390 . S
C3172 C3171 1.390 . S
C3172 C3173 1.394 . S
C3172 C3178 1.465 . S
C3173 C3168 1.399 . S
C3173 C3172 1.394 . S
C3173 C3174 1.516 . S
C3174 C3173 1.516 . S
C3174 C3175 1.502 . S
C3174 C3176 1.561 . S
C3174 C3177 1.526 . S
C3175 H3159 0.959 . S
C3175 H3160 0.959 . S
C3175 H3161 0.961 . S
C3175 C3174 1.502 . S
C3176 H3162 0.960 . S
C3176 H3163 0.961 . S
C3176 H3164 0.959 . S
C3176 C3174 1.561 . S
C3177 C3174 1.526 . S
C3177 C3178 1.396 . S
C3177 C3182 1.390 . S
C3178 C3172 1.465 . S
C3178 C3177 1.396 . S
C3178 C3179 1.399 . S
C3179 H3165 0.929 . S
C3179 C3178 1.399 . S
C3179 C3180 1.385 . S
C3180 H3166 0.931 . S
C3180 C3179 1.385 . S
C3180 C3181 1.389 . S
C3181 C3180 1.389 . S
C3181 C3182 1.387 . S
C3182 H3167 0.930 . S
C3182 C3177 1.390 . S
C3182 C3181 1.387 . S
H3183 C3195 0.930 1_565 S
H3184 C3197 0.930 . S
H3185 C3198 0.930 . S
H3186 C3202 0.959 . S
H3187 C3202 0.959 . S
H3188 C3202 0.961 . S
H3189 C3203 0.960 . S
H3190 C3203 0.961 . S
H3191 C3203 0.959 . S
H3192 C3206 0.929 . S
H3193 C3207 0.931 . S
H3194 C3209 0.943 . S
C3195 H3183 0.930 1_545 S
C3195 C3196 1.399 . S
C3195 C3200 1.399 . S
C3196 C3195 1.399 . S
C3196 C3197 1.376 . S
C3197 H3184 0.930 . S
C3197 C3196 1.376 . S
C3197 C3198 1.388 . S
C3198 H3185 0.930 . S
C3198 C3197 1.388 . S
C3198 C3199 1.390 . S
C3199 C3198 1.390 . S
C3199 C3200 1.394 . S
C3199 C3205 1.465 . S
C3200 C3195 1.399 . S
C3200 C3199 1.394 . S
C3200 C3201 1.516 1_545 S
C3201 C3200 1.516 1_565 S
C3201 C3202 1.502 . S
C3201 C3203 1.561 . S
C3201 C3204 1.526 1_565 S
C3202 H3186 0.959 . S
C3202 H3187 0.959 . S
C3202 H3188 0.961 . S
C3202 C3201 1.502 . S
C3203 H3189 0.960 . S
C3203 H3190 0.961 . S
C3203 H3191 0.959 . S
C3203 C3201 1.561 . S
C3204 C3201 1.526 1_545 S
C3204 C3205 1.396 . S
C3204 C3209 1.390 . S
C3205 C3199 1.465 . S
C3205 C3204 1.396 . S
C3205 C3206 1.399 . S
C3206 H3192 0.929 . S
C3206 C3205 1.399 . S
C3206 C3207 1.385 . S
C3207 H3193 0.931 . S
C3207 C3206 1.385 . S
C3207 C3208 1.389 . S
C3208 C3207 1.389 . S
C3208 C3209 1.387 . S
C3209 H3194 0.943 . S
C3209 C3204 1.390 . S
C3209 C3208 1.387 . S
H3210 C3222 0.930 . S
H3211 C3224 0.930 . S
H3212 C3225 0.930 . S
H3213 C3229 0.959 . S
H3214 C3229 0.959 . S
H3215 C3229 0.961 . S
H3216 C3230 0.960 . S
H3217 C3230 0.961 . S
H3218 C3230 0.959 . S
H3219 C3233 0.929 . S
H3220 C3234 0.931 . S
H3221 C3236 0.930 . S
C3222 H3210 0.930 . S
C3222 C3223 1.399 . S
C3222 C3227 1.399 . S
C3223 C3222 1.399 . S
C3223 C3224 1.376 1_545 S
C3224 H3211 0.930 . S
C3224 C3223 1.376 1_565 S
C3224 C3225 1.388 1_556 S
C3225 H3212 0.930 . S
C3225 C3224 1.388 1_554 S
C3225 C3226 1.390 . S
C3226 C3225 1.390 . S
C3226 C3227 1.394 1_564 S
C3226 C3232 1.465 . S
C3227 C3222 1.399 . S
C3227 C3226 1.394 1_546 S
C3227 C3228 1.516 . S
C3228 C3227 1.516 . S
C3228 C3229 1.502 . S
C3228 C3230 1.561 1_556 S
C3228 C3231 1.526 1_556 S
C3229 H3213 0.959 . S
C3229 H3214 0.959 . S
C3229 H3215 0.961 . S
C3229 C3228 1.502 . S
C3230 H3216 0.960 . S
C3230 H3217 0.961 . S
C3230 H3218 0.959 . S
C3230 C3228 1.561 1_554 S
C3231 C3228 1.526 1_554 S
C3231 C3232 1.396 1_545 S
C3231 C3236 1.390 . S
C3232 C3226 1.465 . S
C3232 C3231 1.396 1_565 S
C3232 C3233 1.399 . S
C3233 H3219 0.929 . S
C3233 C3232 1.399 . S
C3233 C3234 1.385 . S
C3234 H3220 0.931 . S
C3234 C3233 1.385 . S
C3234 C3235 1.389 1_565 S
C3235 C3234 1.389 1_545 S
C3235 C3236 1.387 . S
C3236 H3221 0.930 . S
C3236 C3231 1.390 . S
C3236 C3235 1.387 . S
H3237 C3249 0.930 . S
H3238 C3251 0.930 . S
H3239 C3252 0.930 . S
H3240 C3256 0.959 . S
H3241 C3256 0.959 1_565 S
H3242 C3256 0.961 . S
H3243 C3257 0.960 . S
H3244 C3257 0.961 . S
H3245 C3257 0.959 . S
H3246 C3260 0.929 . S
H3247 C3261 0.933 . S
H3248 C3263 0.930 . S
C3249 H3237 0.930 . S
C3249 C3250 1.399 . S
C3249 C3254 1.399 . S
C3250 C3249 1.399 . S
C3250 C3251 1.376 . S
C3251 H3238 0.930 . S
C3251 C3250 1.376 . S
C3251 C3252 1.388 . S
C3252 H3239 0.930 . S
C3252 C3251 1.388 . S
C3252 C3253 1.390 . S
C3253 C3252 1.390 . S
C3253 C3254 1.394 . S
C3253 C3259 1.465 . S
C3254 C3249 1.399 . S
C3254 C3253 1.394 . S
C3254 C3255 1.516 . S
C3255 C3254 1.516 . S
C3255 C3256 1.502 . S
C3255 C3257 1.561 1_545 S
C3255 C3258 1.526 . S
C3256 H3240 0.959 . S
C3256 H3241 0.959 1_545 S
C3256 H3242 0.961 . S
C3256 C3255 1.502 . S
C3257 H3243 0.960 . S
C3257 H3244 0.961 . S
C3257 H3245 0.959 . S
C3257 C3255 1.561 1_565 S
C3258 C3255 1.526 . S
C3258 C3259 1.396 . S
C3258 C3263 1.390 1_545 S
C3259 C3253 1.465 . S
C3259 C3258 1.396 . S
C3259 C3260 1.399 . S
C3260 H3246 0.929 . S
C3260 C3259 1.399 . S
C3260 C3261 1.369 1_545 S
C3261 H3247 0.933 . S
C3261 C3260 1.369 1_565 S
C3261 C3262 1.404 . S
C3262 C3261 1.404 . S
C3262 C3263 1.387 . S
C3263 H3248 0.930 . S
C3263 C3258 1.390 1_565 S
C3263 C3262 1.387 . S
H3264 C3276 0.930 . S
H3265 C3278 0.930 . S
H3266 C3279 0.930 . S
H3267 C3283 0.959 . S
H3268 C3283 0.959 . S
H3269 C3283 0.944 1_556 S
H3270 C3284 0.960 . S
H3271 C3284 0.961 . S
H3272 C3284 0.959 . S
H3273 C3287 0.929 . S
H3274 C3288 0.931 . S
H3275 C3290 0.930 . S
C3276 H3264 0.930 . S
C3276 C3277 1.399 . S
C3276 C3281 1.399 . S
C3277 C3276 1.399 . S
C3277 C3278 1.376 . S
C3278 H3265 0.930 . S
C3278 C3277 1.376 . S
C3278 C3279 1.388 . S
C3279 H3266 0.930 . S
C3279 C3278 1.388 . S
C3279 C3280 1.390 . S
C3280 C3279 1.390 . S
C3280 C3281 1.394 . S
C3280 C3286 1.465 . S
C3281 C3276 1.399 . S
C3281 C3280 1.394 . S
C3281 C3282 1.516 . S
C3282 C3281 1.516 . S
C3282 C3283 1.502 . S
C3282 C3284 1.561 . S
C3282 C3285 1.526 . S
C3283 H3267 0.959 . S
C3283 H3268 0.959 . S
C3283 H3269 0.944 1_554 S
C3283 C3282 1.502 . S
C3284 H3270 0.960 . S
C3284 H3271 0.961 . S
C3284 H3272 0.959 . S
C3284 C3282 1.561 . S
C3285 C3282 1.526 . S
C3285 C3286 1.396 . S
C3285 C3290 1.390 . S
C3286 C3280 1.465 . S
C3286 C3285 1.396 . S
C3286 C3287 1.399 . S
C3287 H3273 0.929 . S
C3287 C3286 1.399 . S
C3287 C3288 1.385 . S
C3288 H3274 0.931 . S
C3288 C3287 1.385 . S
C3288 C3289 1.389 . S
C3289 C3288 1.389 . S
C3289 C3290 1.387 . S
C3290 H3275 0.930 . S
C3290 C3285 1.390 . S
C3290 C3289 1.387 . S
H3291 C3303 0.930 . S
H3292 C3305 0.930 1_455 S
H3293 C3306 0.930 . S
H3294 C3310 0.959 . S
H3295 C3310 0.959 . S
H3296 C3310 0.961 . S
H3297 C3311 0.960 . S
H3298 C3311 0.961 . S
H3299 C3311 0.959 . S
H3300 C3314 0.929 . S
H3301 C3315 0.931 . S
H3302 C3317 0.930 . S
C3303 H3291 0.930 . S
C3303 C3304 1.399 . S
C3303 C3308 1.399 . S
C3304 C3303 1.399 . S
C3304 C3305 1.379 1_554 S
C3305 H3292 0.930 1_655 S
C3305 C3304 1.379 1_556 S
C3305 C3306 1.386 1_655 S
C3306 H3293 0.930 . S
C3306 C3305 1.386 1_455 S
C3306 C3307 1.390 . S
C3307 C3306 1.390 . S
C3307 C3308 1.394 1_456 S
C3307 C3313 1.465 . S
C3308 C3303 1.399 . S
C3308 C3307 1.394 1_654 S
C3308 C3309 1.516 . S
C3309 C3308 1.516 . S
C3309 C3310 1.502 . S
C3309 C3311 1.561 1_655 S
C3309 C3312 1.526 1_655 S
C3310 H3294 0.959 . S
C3310 H3295 0.959 . S
C3310 H3296 0.961 . S
C3310 C3309 1.502 . S
C3311 H3297 0.960 . S
C3311 H3298 0.961 . S
C3311 H3299 0.959 . S
C3311 C3309 1.561 1_455 S
C3312 C3309 1.526 1_455 S
C3312 C3313 1.396 1_554 S
C3312 C3317 1.390 . S
C3313 C3307 1.465 . S
C3313 C3312 1.396 1_556 S
C3313 C3314 1.399 . S
C3314 H3300 0.929 . S
C3314 C3313 1.399 . S
C3314 C3315 1.385 . S
C3315 H3301 0.931 . S
C3315 C3314 1.385 . S
C3315 C3316 1.389 1_556 S
C3316 C3315 1.389 1_554 S
C3316 C3317 1.387 . S
C3317 H3302 0.930 . S
C3317 C3312 1.390 . S
C3317 C3316 1.387 . S
H3318 C3330 0.930 . S
H3319 C3332 0.930 1_655 S
H3320 C3333 0.939 . S
H3321 C3337 0.959 . S
H3322 C3337 0.959 . S
H3323 C3337 0.961 . S
H3324 C3338 0.960 . S
H3325 C3338 0.961 . S
H3326 C3338 0.959 1_655 S
H3327 C3341 0.921 1_655 S
H3328 C3342 0.922 1_655 S
H3329 C3344 0.930 . S
C3330 H3318 0.930 . S
C3330 C3331 1.399 . S
C3330 C3335 1.399 . S
C3331 C3330 1.399 . S
C3331 C3332 1.376 . S
C3332 H3319 0.930 1_455 S
C3332 C3331 1.376 . S
C3332 C3333 1.386 1_455 S
C3333 H3320 0.939 . S
C3333 C3332 1.386 1_655 S
C3333 C3334 1.383 1_655 S
C3334 C3333 1.383 1_455 S
C3334 C3335 1.394 . S
C3334 C3340 1.465 . S
C3335 C3330 1.399 . S
C3335 C3334 1.394 . S
C3335 C3336 1.516 . S
C3336 C3335 1.516 . S
C3336 C3337 1.502 . S
C3336 C3338 1.561 . S
C3336 C3339 1.526 . S
C3337 H3321 0.959 . S
C3337 H3322 0.959 . S
C3337 H3323 0.961 . S
C3337 C3336 1.502 . S
C3338 H3324 0.960 . S
C3338 H3325 0.961 . S
C3338 H3326 0.959 1_455 S
C3338 C3336 1.561 . S
C3339 C3336 1.526 . S
C3339 C3340 1.396 . S
C3339 C3344 1.390 . S
C3340 C3334 1.465 . S
C3340 C3339 1.396 . S
C3340 C3341 1.405 . S
C3341 H3327 0.921 1_455 S
C3341 C3340 1.405 . S
C3341 C3342 1.388 . S
C3342 H3328 0.922 1_455 S
C3342 C3341 1.388 . S
C3342 C3343 1.389 . S
C3343 C3342 1.389 . S
C3343 C3344 1.387 . S
C3344 H3329 0.930 . S
C3344 C3339 1.390 . S
C3344 C3343 1.387 . S
H3345 C3357 0.930 . S
H3346 C3359 0.930 . S
H3347 C3360 0.930 . S
H3348 C3364 0.959 . S
H3349 C3364 0.959 . S
H3350 C3364 0.961 . S
H3351 C3365 0.960 . S
H3352 C3365 0.961 . S
H3353 C3365 0.959 . S
H3354 C3368 0.929 . S
H3355 C3369 0.931 . S
H3356 C3371 0.930 . S
C3357 H3345 0.930 . S
C3357 C3358 1.399 . S
C3357 C3362 1.399 . S
C3358 C3357 1.399 . S
C3358 C3359 1.376 . S
C3359 H3346 0.930 . S
C3359 C3358 1.376 . S
C3359 C3360 1.388 . S
C3360 H3347 0.930 . S
C3360 C3359 1.388 . S
C3360 C3361 1.390 . S
C3361 C3360 1.390 . S
C3361 C3362 1.394 . S
C3361 C3367 1.465 . S
C3362 C3357 1.399 . S
C3362 C3361 1.394 . S
C3362 C3363 1.516 . S
C3363 C3362 1.516 . S
C3363 C3364 1.502 . S
C3363 C3365 1.561 . S
C3363 C3366 1.526 . S
C3364 H3348 0.959 . S
C3364 H3349 0.959 . S
C3364 H3350 0.961 . S
C3364 C3363 1.502 . S
C3365 H3351 0.960 . S
C3365 H3352 0.961 . S
C3365 H3353 0.959 . S
C3365 C3363 1.561 . S
C3366 C3363 1.526 . S
C3366 C3367 1.396 . S
C3366 C3371 1.390 . S
C3367 C3361 1.465 . S
C3367 C3366 1.396 . S
C3367 C3368 1.399 . S
C3368 H3354 0.929 . S
C3368 C3367 1.399 . S
C3368 C3369 1.385 . S
C3369 H3355 0.931 . S
C3369 C3368 1.385 . S
C3369 C3370 1.389 . S
C3370 C3369 1.389 . S
C3370 C3371 1.387 . S
C3371 H3356 0.930 . S
C3371 C3366 1.390 . S
C3371 C3370 1.387 . S
H3372 C3384 0.930 . S
H3373 C3386 0.930 . S
H3374 C3387 0.930 . S
H3375 C3391 0.959 . S
H3376 C3391 0.959 . S
H3377 C3391 0.961 . S
H3378 C3392 0.960 . S
H3379 C3392 0.961 . S
H3380 C3392 0.959 . S
H3381 C3395 0.929 . S
H3382 C3396 0.931 . S
H3383 C3398 0.930 . S
C3384 H3372 0.930 . S
C3384 C3385 1.399 . S
C3384 C3389 1.399 . S
C3385 C3384 1.399 . S
C3385 C3386 1.376 1_655 S
C3386 H3373 0.930 . S
C3386 C3385 1.376 1_455 S
C3386 C3387 1.388 . S
C3387 H3374 0.930 . S
C3387 C3386 1.388 . S
C3387 C3388 1.390 . S
C3388 C3387 1.390 . S
C3388 C3389 1.394 1_455 S
C3388 C3394 1.465 . S
C3389 C3384 1.399 . S
C3389 C3388 1.394 1_655 S
C3389 C3390 1.516 . S
C3390 C3389 1.516 . S
C3390 C3391 1.502 . S
C3390 C3392 1.561 1_655 S
C3390 C3393 1.526 1_655 S
C3391 H3375 0.959 . S
C3391 H3376 0.959 . S
C3391 H3377 0.961 . S
C3391 C3390 1.502 . S
C3392 H3378 0.960 . S
C3392 H3379 0.961 . S
C3392 H3380 0.959 . S
C3392 C3390 1.561 1_455 S
C3393 C3390 1.526 1_455 S
C3393 C3394 1.396 . S
C3393 C3398 1.390 . S
C3394 C3388 1.465 . S
C3394 C3393 1.396 . S
C3394 C3395 1.399 . S
C3395 H3381 0.929 . S
C3395 C3394 1.399 . S
C3395 C3396 1.385 . S
C3396 H3382 0.931 . S
C3396 C3395 1.385 . S
C3396 C3397 1.389 . S
C3397 C3396 1.389 . S
C3397 C3398 1.387 . S
C3398 H3383 0.930 . S
C3398 C3393 1.390 . S
C3398 C3397 1.387 . S
H3399 C3411 0.930 . S
H3400 C3413 0.930 . S
H3401 C3414 0.930 . S
H3402 C3418 0.959 . S
H3403 C3418 0.959 . S
H3404 C3418 0.961 . S
H3405 C3419 0.960 . S
H3406 C3419 0.961 . S
H3407 C3419 0.959 . S
H3408 C3422 0.929 1_455 S
H3409 C3423 0.931 . S
H3410 C3425 0.930 . S
C3411 H3399 0.930 . S
C3411 C3412 1.399 . S
C3411 C3416 1.399 . S
C3412 C3411 1.399 . S
C3412 C3413 1.376 . S
C3413 H3400 0.930 . S
C3413 C3412 1.376 . S
C3413 C3414 1.388 . S
C3414 H3401 0.930 . S
C3414 C3413 1.388 . S
C3414 C3415 1.390 . S
C3415 C3414 1.390 . S
C3415 C3416 1.394 . S
C3415 C3421 1.465 . S
C3416 C3411 1.399 . S
C3416 C3415 1.394 . S
C3416 C3417 1.516 . S
C3417 C3416 1.516 . S
C3417 C3418 1.502 . S
C3417 C3419 1.561 . S
C3417 C3420 1.526 . S
C3418 H3402 0.959 . S
C3418 H3403 0.959 . S
C3418 H3404 0.961 . S
C3418 C3417 1.502 . S
C3419 H3405 0.960 . S
C3419 H3406 0.961 . S
C3419 H3407 0.959 . S
C3419 C3417 1.561 . S
C3420 C3417 1.526 . S
C3420 C3421 1.396 . S
C3420 C3425 1.390 1_455 S
C3421 C3415 1.465 . S
C3421 C3420 1.396 . S
C3421 C3422 1.399 1_455 S
C3422 H3408 0.929 1_655 S
C3422 C3421 1.399 1_655 S
C3422 C3423 1.385 . S
C3423 H3409 0.931 . S
C3423 C3422 1.385 . S
C3423 C3424 1.389 . S
C3424 C3423 1.389 . S
C3424 C3425 1.387 . S
C3425 H3410 0.930 . S
C3425 C3420 1.390 1_655 S
C3425 C3424 1.387 . S
H3426 C3438 0.930 . S
H3427 C3440 0.930 . S
H3428 C3441 0.930 . S
H3429 C3445 0.959 . S
H3430 C3445 0.959 . S
H3431 C3445 0.961 . S
H3432 C3446 0.960 . S
H3433 C3446 0.961 . S
H3434 C3446 0.959 . S
H3435 C3449 0.929 . S
H3436 C3450 0.931 . S
H3437 C3452 0.930 . S
C3438 H3426 0.930 . S
C3438 C3439 1.399 . S
C3438 C3443 1.399 . S
C3439 C3438 1.399 . S
C3439 C3440 1.376 . S
C3440 H3427 0.930 . S
C3440 C3439 1.376 . S
C3440 C3441 1.388 . S
C3441 H3428 0.930 . S
C3441 C3440 1.388 . S
C3441 C3442 1.390 . S
C3442 C3441 1.390 . S
C3442 C3443 1.394 . S
C3442 C3448 1.465 . S
C3443 C3438 1.399 . S
C3443 C3442 1.394 . S
C3443 C3444 1.516 . S
C3444 C3443 1.516 . S
C3444 C3445 1.502 . S
C3444 C3446 1.561 . S
C3444 C3447 1.526 . S
C3445 H3429 0.959 . S
C3445 H3430 0.959 . S
C3445 H3431 0.961 . S
C3445 C3444 1.502 . S
C3446 H3432 0.960 . S
C3446 H3433 0.961 . S
C3446 H3434 0.959 . S
C3446 C3444 1.561 . S
C3447 C3444 1.526 . S
C3447 C3448 1.396 . S
C3447 C3452 1.390 . S
C3448 C3442 1.465 . S
C3448 C3447 1.396 . S
C3448 C3449 1.399 . S
C3449 H3435 0.929 . S
C3449 C3448 1.399 . S
C3449 C3450 1.385 . S
C3450 H3436 0.931 . S
C3450 C3449 1.385 . S
C3450 C3451 1.389 . S
C3451 C3450 1.389 . S
C3451 C3452 1.387 . S
C3452 H3437 0.930 . S
C3452 C3447 1.390 . S
C3452 C3451 1.387 . S
H3453 C3465 0.930 . S
H3454 C3467 0.930 . S
H3455 C3468 0.930 . S
H3456 C3472 0.959 . S
H3457 C3472 0.959 . S
H3458 C3472 0.961 . S
H3459 C3473 0.960 . S
H3460 C3473 0.961 . S
H3461 C3473 0.959 . S
H3462 C3476 0.929 . S
H3463 C3477 0.931 . S
H3464 C3479 0.957 . S
C3465 H3453 0.930 . S
C3465 C3466 1.399 . S
C3465 C3470 1.399 . S
C3466 C3465 1.399 . S
C3466 C3467 1.376 1_565 S
C3467 H3454 0.930 . S
C3467 C3466 1.376 1_545 S
C3467 C3468 1.388 . S
C3468 H3455 0.930 . S
C3468 C3467 1.388 . S
C3468 C3469 1.390 . S
C3469 C3468 1.390 . S
C3469 C3470 1.394 1_545 S
C3469 C3475 1.465 . S
C3470 C3465 1.399 . S
C3470 C3469 1.394 1_565 S
C3470 C3471 1.516 . S
C3471 C3470 1.516 . S
C3471 C3472 1.502 . S
C3471 C3473 1.561 . S
C3471 C3474 1.526 . S
C3472 H3456 0.959 . S
C3472 H3457 0.959 . S
C3472 H3458 0.961 . S
C3472 C3471 1.502 . S
C3473 H3459 0.960 . S
C3473 H3460 0.961 . S
C3473 H3461 0.959 . S
C3473 C3471 1.561 . S
C3474 C3471 1.526 . S
C3474 C3475 1.396 1_565 S
C3474 C3479 1.394 . S
C3475 C3469 1.465 . S
C3475 C3474 1.396 1_545 S
C3475 C3476 1.399 . S
C3476 H3462 0.929 . S
C3476 C3475 1.399 . S
C3476 C3477 1.385 . S
C3477 H3463 0.931 . S
C3477 C3476 1.385 . S
C3477 C3478 1.389 . S
C3478 C3477 1.389 . S
C3478 C3479 1.356 1_545 S
C3479 H3464 0.957 . S
C3479 C3474 1.394 . S
C3479 C3478 1.356 1_565 S
H3480 C3492 0.930 . S
H3481 C3494 0.930 . S
H3482 C3495 0.930 . S
H3483 C3499 0.959 . S
H3484 C3499 0.959 . S
H3485 C3499 0.961 . S
H3486 C3500 0.960 . S
H3487 C3500 0.961 . S
H3488 C3500 0.959 . S
H3489 C3503 0.929 . S
H3490 C3504 0.931 . S
H3491 C3506 0.933 . S
C3492 H3480 0.930 . S
C3492 C3493 1.399 . S
C3492 C3497 1.399 . S
C3493 C3492 1.399 . S
C3493 C3494 1.376 . S
C3494 H3481 0.930 . S
C3494 C3493 1.376 . S
C3494 C3495 1.388 . S
C3495 H3482 0.930 . S
C3495 C3494 1.388 . S
C3495 C3496 1.390 . S
C3496 C3495 1.390 . S
C3496 C3497 1.394 . S
C3496 C3502 1.465 . S
C3497 C3492 1.399 . S
C3497 C3496 1.394 . S
C3497 C3498 1.516 . S
C3498 C3497 1.516 . S
C3498 C3499 1.502 . S
C3498 C3500 1.561 . S
C3498 C3501 1.526 . S
C3499 H3483 0.959 . S
C3499 H3484 0.959 . S
C3499 H3485 0.961 . S
C3499 C3498 1.502 . S
C3500 H3486 0.960 . S
C3500 H3487 0.961 . S
C3500 H3488 0.959 . S
C3500 C3498 1.561 . S
C3501 C3498 1.526 . S
C3501 C3502 1.396 . S
C3501 C3506 1.390 1_554 S
C3502 C3496 1.465 . S
C3502 C3501 1.396 . S
C3502 C3503 1.399 1_554 S
C3503 H3489 0.929 . S
C3503 C3502 1.399 1_556 S
C3503 C3504 1.385 . S
C3504 H3490 0.931 . S
C3504 C3503 1.385 . S
C3504 C3505 1.389 . S
C3505 C3504 1.389 . S
C3505 C3506 1.387 . S
C3506 H3491 0.933 . S
C3506 C3501 1.390 1_556 S
C3506 C3505 1.387 . S
H3507 C3519 0.930 . S
H3508 C3521 0.930 . S
H3509 C3522 0.930 . S
H3510 C3526 0.959 . S
H3511 C3526 0.959 . S
H3512 C3526 0.961 . S
H3513 C3527 0.960 . S
H3514 C3527 0.961 . S
H3515 C3527 0.959 . S
H3516 C3530 0.929 . S
H3517 C3531 0.931 . S
H3518 C3533 0.930 1_665 S
C3519 H3507 0.930 . S
C3519 C3520 1.399 1_655 S
C3519 C3524 1.399 1_655 S
C3520 C3519 1.399 1_455 S
C3520 C3521 1.376 1_565 S
C3521 H3508 0.930 . S
C3521 C3520 1.376 1_545 S
C3521 C3522 1.388 . S
C3522 H3509 0.930 . S
C3522 C3521 1.388 . S
C3522 C3523 1.390 . S
C3523 C3522 1.390 . S
C3523 C3524 1.394 1_545 S
C3523 C3529 1.465 . S
C3524 C3519 1.399 1_455 S
C3524 C3523 1.394 1_565 S
C3524 C3525 1.516 1_455 S
C3525 C3524 1.516 1_655 S
C3525 C3526 1.502 . S
C3525 C3527 1.561 1_655 S
C3525 C3528 1.526 1_655 S
C3526 H3510 0.959 . S
C3526 H3511 0.959 . S
C3526 H3512 0.961 . S
C3526 C3525 1.502 . S
C3527 H3513 0.960 . S
C3527 H3514 0.961 . S
C3527 H3515 0.959 . S
C3527 C3525 1.561 1_455 S
C3528 C3525 1.526 1_455 S
C3528 C3529 1.396 1_565 S
C3528 C3533 1.390 1_565 S
C3529 C3523 1.465 . S
C3529 C3528 1.396 1_545 S
C3529 C3530 1.399 . S
C3530 H3516 0.929 . S
C3530 C3529 1.399 . S
C3530 C3531 1.385 . S
C3531 H3517 0.931 . S
C3531 C3530 1.385 . S
C3531 C3532 1.389 . S
C3532 C3531 1.389 . S
C3532 C3533 1.387 . S
C3533 H3518 0.930 1_445 S
C3533 C3528 1.390 1_545 S
C3533 C3532 1.387 . S
H3534 C3546 0.930 . S
H3535 C3548 0.930 . S
H3536 C3549 0.930 . S
H3537 C3553 0.959 . S
H3538 C3553 0.959 . S
H3539 C3553 0.961 . S
H3540 C3554 0.960 . S
H3541 C3554 0.961 . S
H3542 C3554 0.959 . S
H3543 C3557 0.929 . S
H3544 C3558 0.931 . S
H3545 C3560 0.930 . S
C3546 H3534 0.930 . S
C3546 C3547 1.399 . S
C3546 C3551 1.399 . S
C3547 C3546 1.399 . S
C3547 C3548 1.376 . S
C3548 H3535 0.930 . S
C3548 C3547 1.376 . S
C3548 C3549 1.388 . S
C3549 H3536 0.930 . S
C3549 C3548 1.388 . S
C3549 C3550 1.390 . S
C3550 C3549 1.390 . S
C3550 C3551 1.394 . S
C3550 C3556 1.465 . S
C3551 C3546 1.399 . S
C3551 C3550 1.394 . S
C3551 C3552 1.516 . S
C3552 C3551 1.516 . S
C3552 C3553 1.502 . S
C3552 C3554 1.561 . S
C3552 C3555 1.526 . S
C3553 H3537 0.959 . S
C3553 H3538 0.959 . S
C3553 H3539 0.961 . S
C3553 C3552 1.502 . S
C3554 H3540 0.960 . S
C3554 H3541 0.961 . S
C3554 H3542 0.959 . S
C3554 C3552 1.561 . S
C3555 C3552 1.526 . S
C3555 C3556 1.396 . S
C3555 C3560 1.390 . S
C3556 C3550 1.465 . S
C3556 C3555 1.396 . S
C3556 C3557 1.399 . S
C3557 H3543 0.929 . S
C3557 C3556 1.399 . S
C3557 C3558 1.385 . S
C3558 H3544 0.931 . S
C3558 C3557 1.385 . S
C3558 C3559 1.389 . S
C3559 C3558 1.389 . S
C3559 C3560 1.387 . S
C3560 H3545 0.930 . S
C3560 C3555 1.390 . S
C3560 C3559 1.387 . S
H3561 C3573 0.930 . S
H3562 C3575 0.930 . S
H3563 C3576 0.930 . S
H3564 C3580 0.959 . S
H3565 C3580 0.959 . S
H3566 C3580 0.961 . S
H3567 C3581 0.960 . S
H3568 C3581 0.961 . S
H3569 C3581 0.959 . S
H3570 C3584 0.929 . S
H3571 C3585 0.931 . S
H3572 C3587 0.930 . S
C3573 H3561 0.930 . S
C3573 C3574 1.399 . S
C3573 C3578 1.399 . S
C3574 C3573 1.399 . S
C3574 C3575 1.376 . S
C3575 H3562 0.930 . S
C3575 C3574 1.376 . S
C3575 C3576 1.388 . S
C3576 H3563 0.930 . S
C3576 C3575 1.388 . S
C3576 C3577 1.390 . S
C3577 C3576 1.390 . S
C3577 C3578 1.394 . S
C3577 C3583 1.465 1_556 S
C3578 C3573 1.399 . S
C3578 C3577 1.394 . S
C3578 C3579 1.516 . S
C3579 C3578 1.516 . S
C3579 C3580 1.502 1_556 S
C3579 C3581 1.561 . S
C3579 C3582 1.526 1_556 S
C3580 H3564 0.959 . S
C3580 H3565 0.959 . S
C3580 H3566 0.961 . S
C3580 C3579 1.502 1_554 S
C3581 H3567 0.960 . S
C3581 H3568 0.961 . S
C3581 H3569 0.959 . S
C3581 C3579 1.561 . S
C3582 C3579 1.526 1_554 S
C3582 C3583 1.396 . S
C3582 C3587 1.390 . S
C3583 C3577 1.465 1_554 S
C3583 C3582 1.396 . S
C3583 C3584 1.399 . S
C3584 H3570 0.929 . S
C3584 C3583 1.399 . S
C3584 C3585 1.385 . S
C3585 H3571 0.931 . S
C3585 C3584 1.385 . S
C3585 C3586 1.389 . S
C3586 C3585 1.389 . S
C3586 C3587 1.387 . S
C3587 H3572 0.930 . S
C3587 C3582 1.390 . S
C3587 C3586 1.387 . S
H3588 C3600 0.930 . S
H3589 C3602 0.930 . S
H3590 C3603 0.930 . S
H3591 C3607 0.959 . S
H3592 C3607 0.959 . S
H3593 C3607 0.961 . S
H3594 C3608 0.960 . S
H3595 C3608 0.961 . S
H3596 C3608 0.959 . S
H3597 C3611 0.929 . S
H3598 C3612 0.931 . S
H3599 C3614 0.930 . S
C3600 H3588 0.930 . S
C3600 C3601 1.399 . S
C3600 C3605 1.399 . S
C3601 C3600 1.399 . S
C3601 C3602 1.376 . S
C3602 H3589 0.930 . S
C3602 C3601 1.376 . S
C3602 C3603 1.388 . S
C3603 H3590 0.930 . S
C3603 C3602 1.388 . S
C3603 C3604 1.390 . S
C3604 C3603 1.390 . S
C3604 C3605 1.394 . S
C3604 C3610 1.465 . S
C3605 C3600 1.399 . S
C3605 C3604 1.394 . S
C3605 C3606 1.516 . S
C3606 C3605 1.516 . S
C3606 C3607 1.502 . S
C3606 C3608 1.561 . S
C3606 C3609 1.526 . S
C3607 H3591 0.959 . S
C3607 H3592 0.959 . S
C3607 H3593 0.961 . S
C3607 C3606 1.502 . S
C3608 H3594 0.960 . S
C3608 H3595 0.961 . S
C3608 H3596 0.959 . S
C3608 C3606 1.561 . S
C3609 C3606 1.526 . S
C3609 C3610 1.396 . S
C3609 C3614 1.390 . S
C3610 C3604 1.465 . S
C3610 C3609 1.396 . S
C3610 C3611 1.399 . S
C3611 H3597 0.929 . S
C3611 C3610 1.399 . S
C3611 C3612 1.385 . S
C3612 H3598 0.931 . S
C3612 C3611 1.385 . S
C3612 C3613 1.389 . S
C3613 C3612 1.389 . S
C3613 C3614 1.387 . S
C3614 H3599 0.930 . S
C3614 C3609 1.390 . S
C3614 C3613 1.387 . S
H3615 C3627 0.930 . S
H3616 C3629 0.930 . S
H3617 C3630 0.930 . S
H3618 C3634 0.959 . S
H3619 C3634 0.959 . S
H3620 C3634 0.961 . S
H3621 C3635 0.960 . S
H3622 C3635 0.961 . S
H3623 C3635 0.959 . S
H3624 C3638 0.929 . S
H3625 C3639 0.931 . S
H3626 C3641 0.930 . S
C3627 H3615 0.930 . S
C3627 C3628 1.399 . S
C3627 C3632 1.399 . S
C3628 C3627 1.399 . S
C3628 C3629 1.376 . S
C3629 H3616 0.930 . S
C3629 C3628 1.376 . S
C3629 C3630 1.388 . S
C3630 H3617 0.930 . S
C3630 C3629 1.388 . S
C3630 C3631 1.390 . S
C3631 C3630 1.390 . S
C3631 C3632 1.394 . S
C3631 C3637 1.465 . S
C3632 C3627 1.399 . S
C3632 C3631 1.394 . S
C3632 C3633 1.516 . S
C3633 C3632 1.516 . S
C3633 C3634 1.502 . S
C3633 C3635 1.561 . S
C3633 C3636 1.526 . S
C3634 H3618 0.959 . S
C3634 H3619 0.959 . S
C3634 H3620 0.961 . S
C3634 C3633 1.502 . S
C3635 H3621 0.960 . S
C3635 H3622 0.961 . S
C3635 H3623 0.959 . S
C3635 C3633 1.561 . S
C3636 C3633 1.526 . S
C3636 C3637 1.396 . S
C3636 C3641 1.390 . S
C3637 C3631 1.465 . S
C3637 C3636 1.396 . S
C3637 C3638 1.399 . S
C3638 H3624 0.929 . S
C3638 C3637 1.399 . S
C3638 C3639 1.385 . S
C3639 H3625 0.931 . S
C3639 C3638 1.385 . S
C3639 C3640 1.389 . S
C3640 C3639 1.389 . S
C3640 C3641 1.387 . S
C3641 H3626 0.930 . S
C3641 C3636 1.390 . S
C3641 C3640 1.387 . S
H3642 C3654 0.930 . S
H3643 C3656 0.930 . S
H3644 C3657 0.930 . S
H3645 C3661 0.959 . S
H3646 C3661 0.959 . S
H3647 C3661 0.961 . S
H3648 C3662 0.960 . S
H3649 C3662 0.961 . S
H3650 C3662 0.959 . S
H3651 C3665 0.929 . S
H3652 C3666 0.931 . S
H3653 C3668 0.930 . S
C3654 H3642 0.930 . S
C3654 C3655 1.399 . S
C3654 C3659 1.399 . S
C3655 C3654 1.399 . S
C3655 C3656 1.376 . S
C3656 H3643 0.930 . S
C3656 C3655 1.376 . S
C3656 C3657 1.388 . S
C3657 H3644 0.930 . S
C3657 C3656 1.388 . S
C3657 C3658 1.390 . S
C3658 C3657 1.390 . S
C3658 C3659 1.394 . S
C3658 C3664 1.465 . S
C3659 C3654 1.399 . S
C3659 C3658 1.394 . S
C3659 C3660 1.516 . S
C3660 C3659 1.516 . S
C3660 C3661 1.502 . S
C3660 C3662 1.561 . S
C3660 C3663 1.526 . S
C3661 H3645 0.959 . S
C3661 H3646 0.959 . S
C3661 H3647 0.961 . S
C3661 C3660 1.502 . S
C3662 H3648 0.960 . S
C3662 H3649 0.961 . S
C3662 H3650 0.959 . S
C3662 C3660 1.561 . S
C3663 C3660 1.526 . S
C3663 C3664 1.396 . S
C3663 C3668 1.390 . S
C3664 C3658 1.465 . S
C3664 C3663 1.396 . S
C3664 C3665 1.399 . S
C3665 H3651 0.929 . S
C3665 C3664 1.399 . S
C3665 C3666 1.385 . S
C3666 H3652 0.931 . S
C3666 C3665 1.385 . S
C3666 C3667 1.389 . S
C3667 C3666 1.389 . S
C3667 C3668 1.387 . S
C3668 H3653 0.930 . S
C3668 C3663 1.390 . S
C3668 C3667 1.387 . S
H3669 C3681 0.930 . S
H3670 C3683 0.930 . S
H3671 C3684 0.930 . S
H3672 C3688 0.959 . S
H3673 C3688 0.959 . S
H3674 C3688 0.961 . S
H3675 C3689 0.960 . S
H3676 C3689 0.961 . S
H3677 C3689 0.959 . S
H3678 C3692 0.929 . S
H3679 C3693 0.931 . S
H3680 C3695 0.930 . S
C3681 H3669 0.930 . S
C3681 C3682 1.399 . S
C3681 C3686 1.399 . S
C3682 C3681 1.399 . S
C3682 C3683 1.376 . S
C3683 H3670 0.930 . S
C3683 C3682 1.376 . S
C3683 C3684 1.388 . S
C3684 H3671 0.930 . S
C3684 C3683 1.388 . S
C3684 C3685 1.390 . S
C3685 C3684 1.390 . S
C3685 C3686 1.394 . S
C3685 C3691 1.465 . S
C3686 C3681 1.399 . S
C3686 C3685 1.394 . S
C3686 C3687 1.516 . S
C3687 C3686 1.516 . S
C3687 C3688 1.502 . S
C3687 C3689 1.561 . S
C3687 C3690 1.526 . S
C3688 H3672 0.959 . S
C3688 H3673 0.959 . S
C3688 H3674 0.961 . S
C3688 C3687 1.502 . S
C3689 H3675 0.960 . S
C3689 H3676 0.961 . S
C3689 H3677 0.959 . S
C3689 C3687 1.561 . S
C3690 C3687 1.526 . S
C3690 C3691 1.396 . S
C3690 C3695 1.390 . S
C3691 C3685 1.465 . S
C3691 C3690 1.396 . S
C3691 C3692 1.399 . S
C3692 H3678 0.929 . S
C3692 C3691 1.399 . S
C3692 C3693 1.385 . S
C3693 H3679 0.931 . S
C3693 C3692 1.385 . S
C3693 C3694 1.389 . S
C3694 C3693 1.389 . S
C3694 C3695 1.387 . S
C3695 H3680 0.930 . S
C3695 C3690 1.390 . S
C3695 C3694 1.387 . S
C1117 N173 2.020 . S
C1129 N12 1.990 . S
C1144 N35 1.885 . S
C1156 N104 1.820 . S
C1171 N58 1.772 . S
C1183 N127 1.867 . S
C1198 N150 1.515 . S
C1210 N81 1.506 . S
C1225 C476 1.984 . S
C1237 C200 2.089 . S
C1252 N219 1.520 . S
C1264 N955 1.545 . S
C1279 C982 1.817 . S
C1291 C246 1.845 1_545 S
C1306 N265 1.945 . S
C1318 N1001 1.970 . S
C1333 C292 1.982 . S
C1345 C1097 1.927 1_565 S
C1360 N311 1.555 1_565 S
C1372 N495 1.579 . S
C1387 C1074 1.915 1_545 S
C1399 C338 1.992 . S
C1414 N357 1.902 . S
C1426 N380 1.934 . S
C1441 N771 1.870 . S
C1453 N403 1.846 . S
C1468 C430 1.640 . S
C1480 C798 1.655 . S
C1495 N449 1.782 . S
C1507 N817 1.871 . S
C1522 C890 1.714 . S
C1534 C522 1.706 . S
C1549 C844 1.938 . S
C1561 C545 1.932 . S
C1576 N564 1.685 . S
C1588 N725 1.750 . S
C1603 N587 1.606 . S
C1615 N656 1.612 . S
C1630 N679 1.981 1_655 S
C1642 N610 2.050 . S
C1657 N633 1.808 . S
C1669 N702 1.765 . S
C1684 C752 1.823 . S
C1696 C1028 1.841 . S
C1711 N863 1.889 . S
C1723 N1047 1.841 . S
C1738 N932 1.706 . S
C1750 N909 1.761 . S
C1765 C467 1.516 . S
C1777 C1051 1.605 . S
C1792 N945 0.605 . S
C1804 N518 0.785 . S
C1819 C973 1.533 . S
C1831 C936 1.352 . S
C1846 N991 0.642 . S
C1858 N541 0.760 . S
C1873 C1088 1.554 . S
C1885 C453 1.401 . S
C1900 N485 0.430 . S
C1912 N1024 0.521 . S
C1927 C1065 1.570 . S
C1939 C407 1.456 . S
C1954 N370 0.980 . S
C1966 N426 0.876 . S
C1981 N347 1.229 . S
C1993 C108 1.131 . S
C2008 C283 1.535 . S
C2020 C131 1.534 . S
C2035 N301 1.085 . S
C2047 C154 1.141 . S
C2062 C329 1.786 . S
C2074 C177 1.858 . S
C2089 N209 1.313 . S
C2101 C16 1.388 . S
C2116 C237 1.722 . S
C2128 C39 1.772 1_455 S
C2143 N255 1.182 . S
C2155 C62 1.024 . S
C2170 C191 1.472 . S
C2182 C85 1.593 . S
C2197 N163 0.939 . S
C2209 N334 0.843 . S
C2224 N577 0.692 . S
C2236 N794 0.822 . S
C2251 N600 0.972 . S
C2263 C821 1.150 . S
C2278 N623 0.704 . S
C2290 N748 0.840 . S
C2305 N2 1.247 . S
C2317 C223 1.107 . S
C2332 N117 0.555 . S
C2344 N288 0.700 . S
C2359 N692 1.427 . S
C2371 C867 1.500 . S
C2386 N646 0.882 . S
C2398 C913 1.002 . S
C2413 C1019 1.340 . S
C2425 C499 1.396 . S
C2440 N393 1.135 1_556 S
C2452 N1070 1.094 . S
C2467 C421 1.462 . S
C2479 C384 1.630 . S
C2494 N439 1.100 . S
C2506 N1093 1.073 . S
C2521 C536 1.370 . S
C2533 C1005 1.428 . S
C2548 N1037 1.214 . S
C2560 N472 1.256 . S
C2575 C513 1.345 . S
C2587 C959 1.427 . S
C2602 N922 1.134 . S
C2614 N978 1.088 . S
C2629 N899 1.128 . S
C2641 C660 0.946 . S
C2656 C835 1.816 . S
C2668 C683 1.867 . S
C2683 N853 1.034 . S
C2695 C706 1.002 . S
C2710 C881 1.345 . S
C2722 C729 1.401 . S
C2737 N761 0.908 . S
C2749 C568 1.083 . S
C2764 C789 1.370 . S
C2776 C591 1.329 . S
C2791 N807 1.060 . S
C2803 C614 1.176 . S
C2818 C743 1.835 . S
C2830 C637 1.862 . S
C2845 N715 0.783 . S
C2857 N886 0.530 . S
C2872 N25 0.860 . S
C2884 N242 0.570 . S
C2899 N48 1.619 . S
C2911 C269 1.542 . S
C2926 N71 0.774 . S
C2938 N196 0.990 . S
C2953 N554 1.485 . S
C2965 C775 1.507 . S
C2980 N669 0.729 . S
C2992 N840 0.981 . S
C3007 N140 1.055 . S
C3019 C315 0.845 . S
C3034 N94 1.619 . S
C3046 C361 1.513 . S
C3061 N508 1.396 . S
C3073 N416 1.501 . S
C3088 C927 1.785 . S
C3100 C444 1.831 . S
C3115 N1014 1.409 . S
C3127 N531 1.463 . S
C3142 C398 1.836 . S
C3154 C1042 1.871 . S
C3169 C306 1.542 . S
C3181 C214 1.521 . S
C3196 N232 1.660 . S
C3208 N324 1.586 . S
C3223 C352 2.013 . S
C3235 C260 2.010 . S
C3250 N186 1.512 . S
C3262 N278 1.537 . S
C3277 C582 1.647 . S
C3289 C76 1.658 . S
C3304 C168 1.959 . S
C3316 C674 1.950 . S
C3331 C697 1.840 . S
C3343 C99 1.871 . S
C3358 C720 1.484 . S
C3370 C122 1.491 . S
C3385 C30 1.836 . S
C3397 C628 1.832 . S
C3412 C7 1.704 . S
C3424 C605 1.733 . S
C3439 C559 1.863 . S
C3451 C53 1.841 . S
C3466 N1060 1.992 . S
C3478 N968 1.973 . S
C3493 C375 1.628 . S
C3505 C996 1.642 . S
C3520 N462 2.098 . S
C3532 N1083 2.066 . S
C3547 C950 1.607 . S
C3559 C490 1.625 . S
C3574 C858 1.953 . S
C3586 C766 1.923 . S
C3601 N784 1.468 . S
C3613 N876 1.513 . S
C3628 C904 1.455 . S
C3640 C812 1.460 . S
C3655 N738 1.634 . S
C3667 N830 1.705 . S
C3682 C145 1.502 . S
C3694 C651 1.517 . S
