# Generated by pormake.
# Topology uku, (4)-cn, num edge types: 1
# Building blocks:
#     Node 0, Type 0, BuildingBlock: ICAMEG_clean_sbu_1, # of connection points: 4
#     Node 1, Type 0, BuildingBlock: ICAMEG_clean_sbu_1, # of connection points: 4
#     Node 2, Type 0, BuildingBlock: ICAMEG_clean_sbu_1, # of connection points: 4
#     Node 3, Type 0, BuildingBlock: ICAMEG_clean_sbu_1, # of connection points: 4
#     Node 4, Type 0, BuildingBlock: ICAMEG_clean_sbu_1, # of connection points: 4
#     Node 5, Type 0, BuildingBlock: ICAMEG_clean_sbu_1, # of connection points: 4
#     Node 6, Type 0, BuildingBlock: ICAMEG_clean_sbu_1, # of connection points: 4
#     Node 7, Type 0, BuildingBlock: ICAMEG_clean_sbu_1, # of connection points: 4
#     Node 8, Type 0, BuildingBlock: ICAMEG_clean_sbu_1, # of connection points: 4
#     Node 9, Type 0, BuildingBlock: ICAMEG_clean_sbu_1, # of connection points: 4
#     Node 10, Type 0, BuildingBlock: ICAMEG_clean_sbu_1, # of connection points: 4
#     Node 11, Type 0, BuildingBlock: ICAMEG_clean_sbu_1, # of connection points: 4
#     Edge 12, Type (0, 0), BuildingBlock: MIFKUJ_clean_linker_0, # of connection points: 2
#     Edge 13, Type (0, 0), BuildingBlock: MIFKUJ_clean_linker_0, # of connection points: 2
#     Edge 14, Type (0, 0), BuildingBlock: MIFKUJ_clean_linker_0, # of connection points: 2
#     Edge 15, Type (0, 0), BuildingBlock: MIFKUJ_clean_linker_0, # of connection points: 2
#     Edge 16, Type (0, 0), BuildingBlock: MIFKUJ_clean_linker_0, # of connection points: 2
#     Edge 17, Type (0, 0), BuildingBlock: MIFKUJ_clean_linker_0, # of connection points: 2
#     Edge 18, Type (0, 0), BuildingBlock: MIFKUJ_clean_linker_0, # of connection points: 2
#     Edge 19, Type (0, 0), BuildingBlock: MIFKUJ_clean_linker_0, # of connection points: 2
#     Edge 20, Type (0, 0), BuildingBlock: MIFKUJ_clean_linker_0, # of connection points: 2
#     Edge 21, Type (0, 0), BuildingBlock: MIFKUJ_clean_linker_0, # of connection points: 2
#     Edge 22, Type (0, 0), BuildingBlock: MIFKUJ_clean_linker_0, # of connection points: 2
#     Edge 23, Type (0, 0), BuildingBlock: MIFKUJ_clean_linker_0, # of connection points: 2
#     Edge 24, Type (0, 0), BuildingBlock: MIFKUJ_clean_linker_0, # of connection points: 2
#     Edge 25, Type (0, 0), BuildingBlock: MIFKUJ_clean_linker_0, # of connection points: 2
#     Edge 26, Type (0, 0), BuildingBlock: MIFKUJ_clean_linker_0, # of connection points: 2
#     Edge 27, Type (0, 0), BuildingBlock: MIFKUJ_clean_linker_0, # of connection points: 2
#     Edge 28, Type (0, 0), BuildingBlock: MIFKUJ_clean_linker_0, # of connection points: 2
#     Edge 29, Type (0, 0), BuildingBlock: MIFKUJ_clean_linker_0, # of connection points: 2
#     Edge 30, Type (0, 0), BuildingBlock: MIFKUJ_clean_linker_0, # of connection points: 2
#     Edge 31, Type (0, 0), BuildingBlock: MIFKUJ_clean_linker_0, # of connection points: 2
#     Edge 32, Type (0, 0), BuildingBlock: MIFKUJ_clean_linker_0, # of connection points: 2
#     Edge 33, Type (0, 0), BuildingBlock: MIFKUJ_clean_linker_0, # of connection points: 2
#     Edge 34, Type (0, 0), BuildingBlock: MIFKUJ_clean_linker_0, # of connection points: 2
#     Edge 35, Type (0, 0), BuildingBlock: MIFKUJ_clean_linker_0, # of connection points: 2
# Relax obj value: 0.337
# Max RMSD: 0.223
# Mean RMSD: 0.223
data_MOF--net-uku--node1-ICAMEG_clean_sbu_1--edge1-MIFKUJ_clean_linker_0
_symmetry_space_group_name_H-M    P1
_symmetry_Int_Tables_number       1
_symmetry_cell_setting            triclinic
loop_
_symmetry_equiv_pos_as_xyz
'x, y, z'
_cell_length_a     55.37315
_cell_length_b     55.375241
_cell_length_c     55.368282
_cell_angle_alpha  89.994122
_cell_angle_beta   90.039972
_cell_angle_gamma 90.010115
loop_
_atom_site_label
_atom_site_type_symbol
_atom_site_fract_x
_atom_site_fract_y
_atom_site_fract_z
_atom_type_partial_charge
Co0 Co 0.0739 0.14328 0.66564 0.0
Co1 Co 0.10945 0.17023 0.62179 0.0
O2 O 0.08191 0.15072 0.6321 0.0
C3 C 0.07812 0.09569 0.64131 0.0
O4 O 0.09673 0.10396 0.62921 0.0
C5 C 0.06697 0.19573 0.60218 0.0
O6 O 0.05697 0.19357 0.62356 0.0
O7 O 0.10285 0.1953 0.64691 0.0
O8 O 0.07995 0.17727 0.67517 0.0
H9 H 0.18454 0.21967 0.63384 0.0
H10 H 0.04002 0.13053 0.62613 0.0
O11 O 0.06742 0.10891 0.65677 0.0
H12 H 0.99437 0.18515 0.67957 0.0
H13 H 0.02547 0.10353 0.73155 0.0
H14 H 0.09437 0.15689 0.71322 0.0
H15 H 0.03626 0.17365 0.68942 0.0
H16 H 0.03585 0.11337 0.68936 0.0
O17 O 0.08821 0.18777 0.59849 0.0
H18 H 0.15018 0.19447 0.64674 0.0
H19 H 0.1269 0.18772 0.57394 0.0
H20 H 0.0845 0.1477 0.75565 0.0
H21 H 0.99811 0.14134 0.61571 0.0
H22 H 0.04981 0.12083 0.76504 0.0
H23 H 0.97501 0.16894 0.64247 0.0
O24 O 0.10819 0.13503 0.67329 0.0
H25 H 0.08749 0.11299 0.55484 0.0
H26 H 0.1536 0.14372 0.60605 0.0
H27 H 0.16212 0.11204 0.57593 0.0
H28 H 0.12892 0.09648 0.55005 0.0
H29 H 0.07974 0.1445 0.58533 0.0
H30 H 0.16113 0.21274 0.56025 0.0
H31 H 0.1903 0.22883 0.59033 0.0
O32 O 0.13099 0.15291 0.6447 0.0
C33 C 0.0913 0.19545 0.66685 0.0
C34 C 0.17207 0.21262 0.62056 0.0
C35 C 0.15887 0.2088 0.57927 0.0
N36 N 0.13663 0.18955 0.61109 0.0
C37 C 0.15257 0.19835 0.62775 0.0
C38 C 0.1395 0.19469 0.58712 0.0
C39 C 0.17524 0.21781 0.59615 0.0
C40 C 0.03003 0.14236 0.63799 0.0
N41 N 0.04058 0.15141 0.6584 0.0
C42 C 0.00632 0.1485 0.63194 0.0
C43 C 0.99339 0.164 0.64695 0.0
C44 C 0.00425 0.17312 0.66776 0.0
C45 C 0.028 0.16661 0.67321 0.0
C46 C 0.04061 0.11527 0.72769 0.0
C47 C 0.0792 0.14526 0.71716 0.0
C48 C 0.04663 0.12084 0.70383 0.0
N49 N 0.06565 0.13576 0.69884 0.0
C50 C 0.07372 0.14008 0.74122 0.0
C51 C 0.05427 0.12499 0.74647 0.0
C52 C 0.12852 0.14021 0.66372 0.0
C53 C 0.10212 0.11967 0.56596 0.0
C54 C 0.13905 0.13698 0.59491 0.0
C55 C 0.14399 0.11909 0.57784 0.0
C56 C 0.12536 0.11039 0.56331 0.0
N57 N 0.11621 0.14599 0.59741 0.0
C58 C 0.09786 0.13759 0.58319 0.0
Co59 Co 0.92733 0.84906 0.65796 0.0
Co60 Co 0.89137 0.81343 0.62095 0.0
O61 O 0.91961 0.83406 0.62683 0.0
C62 C 0.93159 0.88947 0.62142 0.0
O63 O 0.92043 0.87711 0.6046 0.0
C64 C 0.93316 0.78284 0.60846 0.0
O65 O 0.94354 0.79017 0.62848 0.0
O66 O 0.89667 0.7949 0.6514 0.0
O67 O 0.91948 0.81857 0.67515 0.0
H68 H 0.81346 0.77231 0.64279 0.0
H69 H 0.96281 0.85026 0.61773 0.0
O70 O 0.93545 0.88051 0.64224 0.0
H71 H 0.00475 0.8096 0.68493 0.0
H72 H 0.97613 0.90115 0.71441 0.0
H73 H 0.9047 0.84849 0.7065 0.0
H74 H 0.96292 0.82404 0.68979 0.0
H75 H 0.96643 0.88184 0.67547 0.0
O76 O 0.91198 0.78994 0.60308 0.0
H77 H 0.84924 0.7978 0.65016 0.0
H78 H 0.8737 0.78531 0.57853 0.0
H79 H 0.91387 0.86728 0.74585 0.0
H80 H 0.00469 0.83636 0.61216 0.0
H81 H 0.9498 0.89383 0.74997 0.0
H82 H 0.02596 0.81583 0.64591 0.0
O83 O 0.89341 0.86042 0.66199 0.0
H84 H 0.91549 0.84945 0.54118 0.0
H85 H 0.84864 0.83769 0.59877 0.0
H86 H 0.8414 0.86042 0.56117 0.0
H87 H 0.87496 0.86634 0.53201 0.0
H88 H 0.92205 0.82725 0.57921 0.0
H89 H 0.83831 0.75945 0.57051 0.0
H90 H 0.80784 0.75291 0.60275 0.0
O91 O 0.87042 0.83646 0.6386 0.0
C92 C 0.9076 0.79929 0.6712 0.0
C93 C 0.8266 0.77506 0.6286 0.0
C94 C 0.84056 0.76782 0.58803 0.0
N95 N 0.86348 0.79315 0.61475 0.0
C96 C 0.84686 0.78953 0.63263 0.0
C97 C 0.8606 0.78242 0.5927 0.0
C98 C 0.82346 0.76417 0.60613 0.0
C99 C 0.97197 0.84157 0.63259 0.0
N100 N 0.96044 0.83815 0.65413 0.0
C101 C 0.99567 0.83362 0.62929 0.0
C102 C 0.00758 0.82207 0.64821 0.0
C103 C 0.99569 0.81855 0.6701 0.0
C104 C 0.97196 0.8267 0.67273 0.0
C105 C 0.96045 0.88958 0.71285 0.0
C106 C 0.92046 0.85989 0.7082 0.0
C107 C 0.95483 0.87864 0.69083 0.0
N108 N 0.93511 0.8639 0.68876 0.0
C109 C 0.92552 0.87054 0.7305 0.0
C110 C 0.94567 0.88546 0.7328 0.0
C111 C 0.873 0.85364 0.65366 0.0
C112 C 0.90072 0.84697 0.55373 0.0
C113 C 0.8634 0.84042 0.58632 0.0
C114 C 0.85916 0.85319 0.56498 0.0
C115 C 0.87798 0.85647 0.54861 0.0
N116 N 0.88576 0.83117 0.59124 0.0
C117 C 0.90429 0.83429 0.57524 0.0
Co118 Co 0.06742 0.84769 0.33984 0.0
Co119 Co 0.10546 0.82057 0.38136 0.0
O120 O 0.07597 0.83812 0.37276 0.0
C121 C 0.06275 0.89317 0.36849 0.0
O122 O 0.08073 0.88654 0.38243 0.0
C123 C 0.06665 0.78921 0.39988 0.0
O124 O 0.05666 0.79043 0.3784 0.0
O125 O 0.10041 0.79643 0.35506 0.0
O126 O 0.07882 0.81621 0.32704 0.0
H127 H 0.18455 0.77922 0.36506 0.0
H128 H 0.03131 0.85105 0.3791 0.0
O129 O 0.05549 0.87969 0.35136 0.0
H130 H 0.99578 0.7954 0.31933 0.0
H131 H 0.01445 0.88561 0.27631 0.0
H132 H 0.09112 0.8431 0.29207 0.0
H133 H 0.03542 0.8143 0.31194 0.0
H134 H 0.02533 0.87309 0.31766 0.0
O135 O 0.0865 0.80001 0.40404 0.0
H136 H 0.14746 0.8014 0.35425 0.0
H137 H 0.12566 0.80216 0.42778 0.0
H138 H 0.08085 0.85511 0.25042 0.0
H139 H 0.9915 0.83285 0.38707 0.0
H140 H 0.04227 0.87653 0.24233 0.0
H141 H 0.97352 0.80466 0.35717 0.0
O142 O 0.10009 0.86191 0.33452 0.0
H143 H 0.08088 0.87082 0.45283 0.0
H144 H 0.14738 0.85052 0.39723 0.0
H145 H 0.15406 0.88075 0.42924 0.0
H146 H 0.12067 0.89103 0.45736 0.0
H147 H 0.07488 0.84094 0.42036 0.0
H148 H 0.16243 0.77982 0.43937 0.0
H149 H 0.19222 0.76829 0.4079 0.0
O150 O 0.1248 0.84084 0.35893 0.0
C151 C 0.09053 0.79781 0.33429 0.0
C152 C 0.17174 0.78421 0.37895 0.0
C153 C 0.15931 0.78452 0.42065 0.0
N154 N 0.13451 0.80321 0.39038 0.0
C155 C 0.15074 0.79682 0.37294 0.0
C156 C 0.13849 0.79711 0.41397 0.0
C157 C 0.17602 0.77806 0.40299 0.0
C158 C 0.02351 0.83902 0.36586 0.0
N159 N 0.03567 0.83381 0.34504 0.0
C160 C 0.001 0.82866 0.37054 0.0
C161 C 0.99094 0.81284 0.35375 0.0
C162 C 0.00342 0.80763 0.33253 0.0
C163 C 0.0259 0.81833 0.32846 0.0
C164 C 0.03129 0.87625 0.2796 0.0
C165 C 0.07423 0.85229 0.28867 0.0
C166 C 0.03758 0.86916 0.30298 0.0
N167 N 0.05876 0.85722 0.30725 0.0
C168 C 0.06854 0.8591 0.26506 0.0
C169 C 0.04691 0.87114 0.26054 0.0
C170 C 0.12107 0.85645 0.34242 0.0
C171 C 0.09558 0.86645 0.44072 0.0
C172 C 0.13271 0.85501 0.40928 0.0
C173 C 0.13663 0.87207 0.42744 0.0
C174 C 0.1179 0.87781 0.44323 0.0
N175 N 0.11077 0.84395 0.40693 0.0
C176 C 0.09233 0.84946 0.42237 0.0
Co177 Co 0.9236 0.15663 0.33522 0.0
Co178 Co 0.88374 0.18056 0.37709 0.0
O179 O 0.91408 0.16489 0.36812 0.0
C180 C 0.92659 0.11058 0.36261 0.0
O181 O 0.90711 0.11683 0.37455 0.0
C182 C 0.92206 0.21295 0.39446 0.0
O183 O 0.93149 0.21145 0.37278 0.0
O184 O 0.8865 0.20458 0.35026 0.0
O185 O 0.91252 0.18861 0.32343 0.0
H186 H 0.80152 0.21597 0.36224 0.0
H187 H 0.95853 0.15256 0.37577 0.0
O188 O 0.93523 0.12431 0.34632 0.0
H189 H 0.9956 0.20942 0.31813 0.0
H190 H 0.97825 0.12031 0.27227 0.0
H191 H 0.90183 0.16364 0.28679 0.0
H192 H 0.95635 0.1904 0.30909 0.0
H193 H 0.96608 0.13146 0.31364 0.0
O194 O 0.90205 0.2026 0.39904 0.0
H195 H 0.83973 0.19611 0.35082 0.0
H196 H 0.86372 0.19867 0.42365 0.0
H197 H 0.91338 0.15301 0.24511 0.0
H198 H 0.99791 0.1711 0.38543 0.0
H199 H 0.95184 0.13117 0.23765 0.0
H200 H 0.01663 0.19978 0.35659 0.0
O201 O 0.89107 0.14264 0.32819 0.0
H202 H 0.91369 0.13241 0.44804 0.0
H203 H 0.84414 0.14869 0.39481 0.0
H204 H 0.84034 0.11834 0.4272 0.0
H205 H 0.87529 0.11007 0.45411 0.0
H206 H 0.91683 0.16235 0.41523 0.0
H207 H 0.82586 0.21872 0.43584 0.0
H208 H 0.7944 0.22741 0.40503 0.0
O209 O 0.86534 0.15857 0.35543 0.0
C210 C 0.89828 0.20522 0.33046 0.0
C211 C 0.81506 0.21223 0.37584 0.0
C212 C 0.82874 0.2138 0.41714 0.0
N213 N 0.85386 0.19613 0.38657 0.0
C214 C 0.8367 0.20094 0.36949 0.0
C215 C 0.85017 0.20251 0.41012 0.0
C216 C 0.81109 0.21866 0.39985 0.0
C217 C 0.96667 0.16487 0.363 0.0
N218 N 0.95516 0.17036 0.34186 0.0
C219 C 0.98892 0.17535 0.36862 0.0
C220 C 0.99941 0.1915 0.35243 0.0
C221 C 0.98762 0.19693 0.33087 0.0
C222 C 0.96537 0.18615 0.32587 0.0
C223 C 0.96145 0.12983 0.27529 0.0
C224 C 0.91863 0.15422 0.28368 0.0
C225 C 0.95443 0.13612 0.29868 0.0
N226 N 0.93329 0.14825 0.30262 0.0
C227 C 0.92506 0.14821 0.26004 0.0
C228 C 0.94663 0.13594 0.25587 0.0
C229 C 0.87003 0.14514 0.33732 0.0
C230 C 0.89834 0.13588 0.43645 0.0
C231 C 0.85946 0.14508 0.40635 0.0
C232 C 0.85718 0.12794 0.42471 0.0
C233 C 0.87679 0.12333 0.43982 0.0
N234 N 0.88066 0.1573 0.40313 0.0
C235 C 0.89996 0.1529 0.4179 0.0
Co236 Co 0.64994 0.0721 0.15005 0.0
Co237 Co 0.61473 0.11625 0.17665 0.0
O238 O 0.61904 0.08562 0.15988 0.0
C239 C 0.62338 0.07445 0.10341 0.0
O240 O 0.61997 0.09766 0.10678 0.0
C241 C 0.59252 0.07993 0.20847 0.0
O242 O 0.61279 0.06774 0.20695 0.0
O243 O 0.64132 0.10882 0.19993 0.0
O244 O 0.66499 0.0815 0.18131 0.0
H245 H 0.64165 0.19431 0.21431 0.0
H246 H 0.60516 0.0427 0.14824 0.0
O247 O 0.63514 0.06198 0.11872 0.0
H248 H 0.66057 0.99817 0.20192 0.0
H249 H 0.70278 0.01041 0.10925 0.0
H250 H 0.70117 0.08723 0.15427 0.0
H251 H 0.6735 0.03609 0.18244 0.0
H252 H 0.66419 0.02752 0.12337 0.0
O253 O 0.59064 0.10048 0.19834 0.0
H254 H 0.64717 0.1557 0.19281 0.0
H255 H 0.57182 0.14189 0.19664 0.0
H256 H 0.7402 0.07059 0.14075 0.0
H257 H 0.59152 0.0048 0.16724 0.0
H258 H 0.74116 0.03193 0.11801 0.0
H259 H 0.61928 0.98231 0.19438 0.0
O260 O 0.66039 0.10369 0.13579 0.0
H261 H 0.54031 0.0981 0.12787 0.0
H262 H 0.60188 0.15946 0.1472 0.0
H263 H 0.57005 0.16895 0.1175 0.0
H264 H 0.53893 0.13815 0.10771 0.0
H265 H 0.57261 0.0893 0.15725 0.0
H266 H 0.56549 0.18028 0.21834 0.0
H267 H 0.60056 0.20682 0.22724 0.0
O268 O 0.63846 0.13212 0.15496 0.0
C269 C 0.66006 0.09541 0.19896 0.0
C270 C 0.62622 0.18292 0.2105 0.0
C271 C 0.58348 0.17503 0.2128 0.0
N272 N 0.60984 0.1466 0.19343 0.0
C273 C 0.62923 0.16106 0.1983 0.0
C274 C 0.58719 0.15328 0.20058 0.0
C275 C 0.60317 0.18992 0.21777 0.0
C276 C 0.61742 0.03291 0.15987 0.0
N277 N 0.64012 0.0416 0.16423 0.0
C278 C 0.60957 0.0115 0.17063 0.0
C279 C 0.62514 0.99891 0.18589 0.0
C280 C 0.6483 0.00781 0.19014 0.0
C281 C 0.65551 0.02932 0.17912 0.0
C282 C 0.7026 0.02724 0.11917 0.0
C283 C 0.70146 0.0703 0.14455 0.0
C284 C 0.6808 0.03707 0.12716 0.0
N285 N 0.68044 0.05831 0.13973 0.0
C286 C 0.72361 0.06101 0.13688 0.0
C287 C 0.72413 0.03933 0.1241 0.0
C288 C 0.65479 0.12569 0.14007 0.0
C289 C 0.55375 0.11168 0.132 0.0
C290 C 0.58851 0.14592 0.1429 0.0
C291 C 0.57047 0.15142 0.12614 0.0
C292 C 0.553 0.13414 0.12067 0.0
N293 N 0.58912 0.12386 0.15394 0.0
C294 C 0.57206 0.10683 0.14867 0.0
Co295 Co 0.33637 0.92718 0.14271 0.0
Co296 Co 0.37566 0.89441 0.17868 0.0
O297 O 0.3679 0.92163 0.15752 0.0
C298 C 0.37139 0.92849 0.10189 0.0
O299 O 0.38502 0.91261 0.11297 0.0
C300 C 0.38573 0.93756 0.20792 0.0
O301 O 0.3643 0.94547 0.20158 0.0
O302 O 0.34541 0.89879 0.19773 0.0
O303 O 0.31975 0.91846 0.17329 0.0
H304 H 0.35838 0.81844 0.22509 0.0
H305 H 0.37405 0.96517 0.14016 0.0
O306 O 0.35188 0.93605 0.11137 0.0
H307 H 0.30575 0.00261 0.18325 0.0
H308 H 0.27691 0.97198 0.09044 0.0
H309 H 0.28928 0.90168 0.14372 0.0
H310 H 0.30295 0.96065 0.16857 0.0
H311 H 0.31647 0.9648 0.10964 0.0
O312 O 0.39294 0.9169 0.20092 0.0
H313 H 0.34891 0.8519 0.19726 0.0
H314 H 0.41983 0.87989 0.20581 0.0
H315 H 0.24937 0.90829 0.12505 0.0
H316 H 0.37748 0.00726 0.15431 0.0
H317 H 0.24299 0.94365 0.09818 0.0
H318 H 0.34324 0.0262 0.17612 0.0
O319 O 0.33442 0.89298 0.13181 0.0
H320 H 0.45242 0.922 0.13889 0.0
H321 H 0.3998 0.85212 0.15563 0.0
H322 H 0.43696 0.84635 0.13178 0.0
H323 H 0.4636 0.88144 0.12333 0.0
H324 H 0.41493 0.92702 0.16233 0.0
H325 H 0.43015 0.84649 0.23345 0.0
H326 H 0.39929 0.81542 0.2432 0.0
O327 O 0.35852 0.87161 0.15668 0.0
C328 C 0.32476 0.90786 0.19307 0.0
C329 C 0.37204 0.83169 0.22077 0.0
C330 C 0.4123 0.84751 0.22555 0.0
N331 N 0.38386 0.86771 0.19979 0.0
C332 C 0.36679 0.8507 0.20504 0.0
C333 C 0.40635 0.86638 0.2099 0.0
C334 C 0.39498 0.83008 0.23101 0.0
C335 C 0.35894 0.97337 0.14938 0.0
N336 N 0.33825 0.96051 0.15336 0.0
C337 C 0.36105 0.99717 0.15746 0.0
C338 C 0.34183 0.00778 0.16973 0.0
C339 C 0.3208 0.99455 0.17375 0.0
C340 C 0.31933 0.97078 0.16542 0.0
C341 C 0.27945 0.95652 0.10214 0.0
C342 C 0.2866 0.91718 0.13215 0.0
C343 C 0.30182 0.95233 0.11302 0.0
N344 N 0.30513 0.93291 0.1279 0.0
C345 C 0.26399 0.9208 0.12158 0.0
C346 C 0.26043 0.94063 0.10649 0.0
C347 C 0.34346 0.87312 0.13929 0.0
C348 C 0.44099 0.90655 0.14249 0.0
C349 C 0.41119 0.8675 0.15185 0.0
C350 C 0.43227 0.86411 0.13843 0.0
C351 C 0.44722 0.8838 0.13373 0.0
N352 N 0.40518 0.88987 0.16036 0.0
C353 C 0.41979 0.90926 0.15586 0.0
Co354 Co 0.65818 0.92488 0.84797 0.0
Co355 Co 0.618 0.88849 0.81762 0.0
O356 O 0.62635 0.91825 0.83454 0.0
C357 C 0.62607 0.93453 0.88992 0.0
O358 O 0.6165 0.913 0.88726 0.0
C359 C 0.60576 0.92699 0.78338 0.0
O360 O 0.62799 0.93472 0.78626 0.0
O361 O 0.6469 0.89102 0.79639 0.0
O362 O 0.67436 0.90876 0.82031 0.0
H363 H 0.63414 0.80675 0.78178 0.0
H364 H 0.62299 0.96481 0.84138 0.0
O365 O 0.64281 0.94166 0.8759 0.0
H366 H 0.69357 0.98712 0.79188 0.0
H367 H 0.7202 0.97642 0.89006 0.0
H368 H 0.70358 0.89696 0.85342 0.0
H369 H 0.6938 0.94972 0.81602 0.0
H370 H 0.6803 0.96757 0.87231 0.0
O371 O 0.59876 0.90785 0.79403 0.0
H372 H 0.64458 0.84425 0.80339 0.0
H373 H 0.57278 0.86994 0.79501 0.0
H374 H 0.74376 0.90511 0.87081 0.0
H375 H 0.62214 0.00253 0.81768 0.0
H376 H 0.75229 0.94509 0.88929 0.0
H377 H 0.65754 0.01384 0.79265 0.0
O378 O 0.65807 0.89353 0.86576 0.0
H379 H 0.54415 0.91982 0.85994 0.0
H380 H 0.59641 0.84887 0.84707 0.0
H381 H 0.56131 0.84557 0.87429 0.0
H382 H 0.53488 0.88121 0.88084 0.0
H383 H 0.57951 0.92237 0.83304 0.0
H384 H 0.56159 0.83277 0.7731 0.0
H385 H 0.59236 0.80082 0.76645 0.0
O386 O 0.63715 0.86901 0.84099 0.0
C387 C 0.66842 0.89777 0.801 0.0
C388 C 0.62054 0.8205 0.78462 0.0
C389 C 0.57983 0.83512 0.77972 0.0
N390 N 0.60924 0.85916 0.80062 0.0
C391 C 0.62632 0.84174 0.79691 0.0
C392 C 0.58627 0.85615 0.79209 0.0
C393 C 0.59711 0.8172 0.77601 0.0
C394 C 0.63861 0.96976 0.83077 0.0
N395 N 0.65848 0.95512 0.8302 0.0
C396 C 0.63797 0.99109 0.81732 0.0
C397 C 0.65783 0.9974 0.80322 0.0
C398 C 0.67804 0.98242 0.80277 0.0
C399 C 0.67804 0.96122 0.81645 0.0
C400 C 0.71671 0.95894 0.88203 0.0
C401 C 0.70717 0.91444 0.86134 0.0
C402 C 0.69414 0.9538 0.872 0.0
N403 N 0.68965 0.93181 0.86172 0.0
C404 C 0.72995 0.91893 0.8712 0.0
C405 C 0.73471 0.94136 0.88158 0.0
C406 C 0.65079 0.87261 0.85923 0.0
C407 C 0.55549 0.90414 0.85719 0.0
C408 C 0.58503 0.86447 0.84988 0.0
C409 C 0.56515 0.86248 0.86527 0.0
C410 C 0.55032 0.88248 0.86893 0.0
N411 N 0.58993 0.88575 0.83838 0.0
C412 C 0.57549 0.90545 0.84191 0.0
Co413 Co 0.3457 0.0775 0.84563 0.0
Co414 Co 0.38972 0.1167 0.82484 0.0
O415 O 0.37914 0.0858 0.83826 0.0
C416 C 0.37195 0.06961 0.89153 0.0
O417 O 0.38301 0.09026 0.88787 0.0
C418 C 0.40763 0.08006 0.79078 0.0
O419 O 0.38578 0.07086 0.79083 0.0
O420 O 0.36405 0.11593 0.79952 0.0
O421 O 0.33451 0.09268 0.81512 0.0
H422 H 0.37877 0.20113 0.79339 0.0
H423 H 0.38335 0.03938 0.84653 0.0
O424 O 0.35632 0.06198 0.87646 0.0
H425 H 0.32446 0.01316 0.78502 0.0
H426 H 0.27962 0.02308 0.87627 0.0
H427 H 0.29864 0.10271 0.84124 0.0
H428 H 0.31812 0.05089 0.80776 0.0
H429 H 0.32163 0.03392 0.86619 0.0
O430 O 0.4122 0.09908 0.80286 0.0
H431 H 0.36535 0.16219 0.8104 0.0
H432 H 0.43761 0.13642 0.8102 0.0
H433 H 0.2564 0.09266 0.85112 0.0
H434 H 0.39032 0.00142 0.82429 0.0
H435 H 0.24666 0.05257 0.86872 0.0
H436 H 0.36079 0.98813 0.79323 0.0
O437 O 0.34067 0.10868 0.86287 0.0
H438 H 0.45688 0.08186 0.87503 0.0
H439 H 0.40717 0.15408 0.85949 0.0
H440 H 0.43798 0.15518 0.89167 0.0
H441 H 0.46311 0.11887 0.8996 0.0
H442 H 0.42571 0.08149 0.84321 0.0
H443 H 0.45175 0.17499 0.79296 0.0
H444 H 0.42223 0.20771 0.78455 0.0
O445 O 0.36752 0.13461 0.84671 0.0
C446 C 0.3431 0.10642 0.79884 0.0
C447 C 0.3918 0.18703 0.79704 0.0
C448 C 0.43276 0.17235 0.79677 0.0
N449 N 0.40071 0.14712 0.81144 0.0
C450 C 0.38433 0.16497 0.80673 0.0
C451 C 0.42464 0.15053 0.80646 0.0
C452 C 0.41619 0.1907 0.79206 0.0
C453 C 0.37029 0.03358 0.83322 0.0
N454 N 0.35028 0.04725 0.82857 0.0
C455 C 0.37438 0.01212 0.82061 0.0
C456 C 0.35782 0.0047 0.80316 0.0
C457 C 0.33745 0.01873 0.79853 0.0
C458 C 0.33397 0.0401 0.81145 0.0
C459 C 0.28363 0.04062 0.86863 0.0
C460 C 0.29455 0.08524 0.84892 0.0
C461 C 0.3074 0.04688 0.86294 0.0
N462 N 0.31258 0.06894 0.85315 0.0
C463 C 0.2706 0.07967 0.85452 0.0
C464 C 0.26515 0.05717 0.86439 0.0
C465 C 0.34984 0.12972 0.86063 0.0
C466 C 0.44608 0.09781 0.87173 0.0
C467 C 0.41794 0.13819 0.86292 0.0
C468 C 0.43542 0.13894 0.88111 0.0
C469 C 0.44953 0.11857 0.88553 0.0
N470 N 0.41464 0.11776 0.84948 0.0
C471 C 0.42846 0.09774 0.85366 0.0
Co472 Co 0.15225 0.64998 0.08195 0.0
Co473 Co 0.18708 0.61366 0.11826 0.0
O474 O 0.16703 0.61904 0.08982 0.0
C475 C 0.10888 0.61808 0.0796 0.0
O476 O 0.11198 0.61228 0.10239 0.0
C477 C 0.21792 0.59832 0.07791 0.0
O478 O 0.2142 0.61971 0.06839 0.0
O479 O 0.20727 0.64239 0.1108 0.0
O480 O 0.18094 0.66818 0.09398 0.0
H481 H 0.23094 0.63772 0.194 0.0
H482 H 0.15621 0.61166 0.04474 0.0
O483 O 0.12331 0.63256 0.06913 0.0
H484 H 0.20097 0.68126 0.01182 0.0
H485 H 0.10295 0.70617 0.03015 0.0
H486 H 0.14789 0.69735 0.10657 0.0
H487 H 0.18052 0.68414 0.05127 0.0
H488 H 0.12327 0.66782 0.04016 0.0
O489 O 0.20888 0.59304 0.09839 0.0
H490 H 0.20528 0.64439 0.15819 0.0
H491 H 0.21258 0.57068 0.13828 0.0
H492 H 0.128 0.73608 0.09718 0.0
H493 H 0.17631 0.60803 0.00518 0.0
H494 H 0.10529 0.74065 0.05874 0.0
H495 H 0.19894 0.64299 0.9885 0.0
O496 O 0.13755 0.65207 0.11479 0.0
H497 H 0.14339 0.53629 0.09935 0.0
H498 H 0.16279 0.59566 0.16275 0.0
H499 H 0.1371 0.56067 0.1726 0.0
H500 H 0.12732 0.53064 0.14075 0.0
H501 H 0.16879 0.57176 0.0901 0.0
H502 H 0.23852 0.56324 0.17377 0.0
H503 H 0.24776 0.59689 0.20197 0.0
O504 O 0.16543 0.63414 0.13831 0.0
C505 C 0.20154 0.66328 0.10304 0.0
C506 C 0.22699 0.62289 0.18188 0.0
C507 C 0.23127 0.5811 0.17051 0.0
N508 N 0.20729 0.60789 0.14628 0.0
C509 C 0.21241 0.62654 0.16162 0.0
C510 C 0.21662 0.58542 0.15042 0.0
C511 C 0.23644 0.59999 0.18633 0.0
C512 C 0.16579 0.62704 0.03748 0.0
N513 N 0.16706 0.64813 0.05024 0.0
C514 C 0.17722 0.62484 0.01511 0.0
C515 C 0.18996 0.64445 0.00579 0.0
C516 C 0.19111 0.66592 0.01887 0.0
C517 C 0.17951 0.66744 0.04121 0.0
C518 C 0.11284 0.70442 0.04692 0.0
C519 C 0.13821 0.69926 0.08972 0.0
C520 C 0.12435 0.68274 0.05272 0.0
N521 N 0.13692 0.68042 0.07385 0.0
C522 C 0.12691 0.72121 0.08454 0.0
C523 C 0.11416 0.72376 0.06297 0.0
C524 C 0.14631 0.64667 0.13547 0.0
C525 C 0.14757 0.54927 0.11332 0.0
C526 C 0.15849 0.58277 0.14875 0.0
C527 C 0.144 0.56294 0.15446 0.0
C528 C 0.13853 0.5461 0.13658 0.0
N529 N 0.16735 0.58573 0.1259 0.0
C530 C 0.16199 0.56933 0.10825 0.0
Co531 Co 0.14771 0.34067 0.92137 0.0
Co532 Co 0.18234 0.38025 0.88781 0.0
O533 O 0.1609 0.37273 0.91488 0.0
C534 C 0.10495 0.37332 0.92195 0.0
O535 O 0.11433 0.38577 0.90411 0.0
C536 C 0.20925 0.39553 0.93079 0.0
O537 O 0.20441 0.37415 0.93981 0.0
O538 O 0.20358 0.35226 0.89527 0.0
O539 O 0.17896 0.32513 0.9126 0.0
H540 H 0.23206 0.36162 0.81426 0.0
H541 H 0.14448 0.37908 0.95849 0.0
O542 O 0.11597 0.35511 0.93062 0.0
H543 H 0.19057 0.31323 0.99683 0.0
H544 H 0.09891 0.27986 0.96819 0.0
H545 H 0.15011 0.2933 0.89659 0.0
H546 H 0.17506 0.30885 0.95531 0.0
H547 H 0.11628 0.32005 0.96 0.0
O548 O 0.20213 0.40104 0.90964 0.0
H549 H 0.20474 0.35213 0.84812 0.0
H550 H 0.20624 0.42537 0.87082 0.0
H551 H 0.13326 0.25276 0.90419 0.0
H552 H 0.15946 0.38416 0.00014 0.0
H553 H 0.10746 0.24585 0.94022 0.0
H554 H 0.18278 0.35111 0.01955 0.0
O555 O 0.13637 0.33765 0.88736 0.0
H556 H 0.13479 0.45503 0.9074 0.0
H557 H 0.15874 0.39846 0.84293 0.0
H558 H 0.13184 0.43261 0.83323 0.0
H559 H 0.11974 0.46122 0.86559 0.0
H560 H 0.16141 0.42047 0.91638 0.0
H561 H 0.23374 0.43564 0.83731 0.0
H562 H 0.24674 0.40365 0.80869 0.0
O563 O 0.16295 0.35946 0.86572 0.0
C564 C 0.19928 0.33131 0.90375 0.0
C565 C 0.22645 0.37574 0.82655 0.0
C566 C 0.22741 0.41727 0.83951 0.0
N567 N 0.20371 0.38822 0.86126 0.0
C568 C 0.21092 0.37049 0.84571 0.0
C569 C 0.21187 0.41135 0.85847 0.0
C570 C 0.2347 0.39932 0.82345 0.0
C571 C 0.15438 0.36452 0.9669 0.0
N572 N 0.15883 0.34366 0.95449 0.0
C573 C 0.1629 0.36754 0.99046 0.0
C574 C 0.17603 0.34901 0.00132 0.0
C575 C 0.18043 0.32776 0.98858 0.0
C576 C 0.17166 0.3254 0.96504 0.0
C577 C 0.11016 0.28263 0.95245 0.0
C578 C 0.13901 0.29039 0.91238 0.0
C579 C 0.12001 0.30536 0.9477 0.0
N580 N 0.13434 0.30896 0.92793 0.0
C581 C 0.12947 0.26742 0.91656 0.0
C582 C 0.11497 0.26356 0.93676 0.0
C583 C 0.14529 0.34474 0.86731 0.0
C584 C 0.14 0.44273 0.89313 0.0
C585 C 0.15346 0.41076 0.85714 0.0
C586 C 0.13829 0.43011 0.85152 0.0
C587 C 0.13153 0.44617 0.86968 0.0
N588 N 0.1617 0.40751 0.88018 0.0
C589 C 0.15517 0.4232 0.89808 0.0
Co590 Co 0.85033 0.66123 0.93464 0.0
Co591 Co 0.82367 0.62357 0.89264 0.0
O592 O 0.83915 0.62966 0.92374 0.0
C593 C 0.89482 0.63152 0.93992 0.0
O594 O 0.89274 0.62501 0.91721 0.0
C595 C 0.78846 0.60577 0.92832 0.0
O596 O 0.7902 0.62689 0.93896 0.0
O597 O 0.80118 0.6515 0.89683 0.0
O598 O 0.82154 0.67731 0.92053 0.0
H599 H 0.79097 0.6463 0.81111 0.0
H600 H 0.84647 0.62062 0.96937 0.0
O601 O 0.87946 0.64575 0.94939 0.0
H602 H 0.79207 0.68376 0.0007 0.0
H603 H 0.88839 0.71835 0.99431 0.0
H604 H 0.8515 0.71053 0.91361 0.0
H605 H 0.81592 0.69075 0.96376 0.0
H606 H 0.87361 0.67888 0.97991 0.0
O607 O 0.80007 0.60168 0.90892 0.0
H608 H 0.81065 0.65372 0.85039 0.0
H609 H 0.80317 0.57967 0.86899 0.0
H610 H 0.86589 0.75036 0.92735 0.0
H611 H 0.82307 0.61292 0.00646 0.0
H612 H 0.8845 0.75446 0.96798 0.0
H613 H 0.79557 0.6446 0.02231 0.0
O614 O 0.86803 0.66676 0.90367 0.0
H615 H 0.8682 0.54904 0.91912 0.0
H616 H 0.85433 0.60594 0.85205 0.0
H617 H 0.88301 0.57229 0.84666 0.0
H618 H 0.89007 0.54352 0.88036 0.0
H619 H 0.83987 0.58308 0.92379 0.0
H620 H 0.78317 0.57149 0.83 0.0
H621 H 0.77706 0.60492 0.80071 0.0
O622 O 0.84728 0.64503 0.87614 0.0
C623 C 0.80363 0.67197 0.90712 0.0
C624 C 0.79359 0.63156 0.82369 0.0
C625 C 0.78918 0.58958 0.83431 0.0
N626 N 0.8082 0.61712 0.86188 0.0
C627 C 0.80478 0.63564 0.84593 0.0
C628 C 0.80044 0.59434 0.85639 0.0
C629 C 0.78577 0.60835 0.81788 0.0
C630 C 0.83475 0.63459 0.9763 0.0
N631 N 0.83268 0.65616 0.96448 0.0
C632 C 0.82147 0.63009 0.99726 0.0
C633 C 0.80601 0.64786 0.00612 0.0
C634 C 0.80403 0.66983 0.994 0.0
C635 C 0.81756 0.67368 0.97307 0.0
C636 C 0.88034 0.71679 0.97656 0.0
C637 C 0.85956 0.71216 0.93131 0.0
C638 C 0.87201 0.69447 0.96827 0.0
N639 N 0.86172 0.69239 0.94592 0.0
C640 C 0.86769 0.73477 0.93899 0.0
C641 C 0.87814 0.73705 0.96178 0.0
C642 C 0.86376 0.66005 0.88198 0.0
C643 C 0.86528 0.56145 0.9043 0.0
C644 C 0.85746 0.59361 0.86683 0.0
C645 C 0.87364 0.57453 0.86365 0.0
C646 C 0.87756 0.55838 0.88256 0.0
N647 N 0.84551 0.59653 0.88821 0.0
C648 C 0.84922 0.58073 0.90682 0.0
Co649 Co 0.85539 0.34032 0.07484 0.0
Co650 Co 0.81932 0.38093 0.1042 0.0
O651 O 0.84007 0.37207 0.07694 0.0
C652 C 0.89557 0.37426 0.06343 0.0
O653 O 0.88895 0.38804 0.08153 0.0
C654 C 0.79086 0.39509 0.06111 0.0
O655 O 0.79582 0.37399 0.05152 0.0
O656 O 0.79863 0.35196 0.0985 0.0
O657 O 0.82717 0.32445 0.09059 0.0
H658 H 0.77207 0.36502 0.17999 0.0
H659 H 0.85098 0.37017 0.03065 0.0
O660 O 0.88412 0.35491 0.0587 0.0
H661 H 0.8071 0.2948 0.01256 0.0
H662 H 0.90404 0.27477 0.03469 0.0
H663 H 0.86035 0.29887 0.10841 0.0
H664 H 0.82711 0.30044 0.05195 0.0
H665 H 0.88399 0.31447 0.03711 0.0
O666 O 0.79864 0.40046 0.08206 0.0
H667 H 0.79884 0.35449 0.14601 0.0
H668 H 0.79452 0.42631 0.11939 0.0
H669 H 0.87993 0.25896 0.10667 0.0
H670 H 0.83143 0.36517 0.99092 0.0
H671 H 0.902 0.24667 0.0696 0.0
H672 H 0.80923 0.32729 0.9817 0.0
O673 O 0.87058 0.34521 0.10696 0.0
H674 H 0.86971 0.45224 0.0793 0.0
H675 H 0.84132 0.40335 0.14794 0.0
H676 H 0.86894 0.43745 0.1553 0.0
H677 H 0.88337 0.46214 0.12074 0.0
H678 H 0.8412 0.41853 0.07277 0.0
H679 H 0.76751 0.43756 0.15296 0.0
H680 H 0.75621 0.40682 0.18362 0.0
O681 O 0.8398 0.36204 0.12721 0.0
C682 C 0.80562 0.33012 0.09626 0.0
C683 C 0.77692 0.37859 0.16678 0.0
C684 C 0.77433 0.41929 0.15159 0.0
N685 N 0.79836 0.3898 0.13082 0.0
C686 C 0.79212 0.37275 0.14753 0.0
C687 C 0.78957 0.4128 0.13258 0.0
C688 C 0.768 0.40204 0.16879 0.0
C689 C 0.84157 0.35353 0.02667 0.0
N690 N 0.84028 0.33559 0.04357 0.0
C691 C 0.83045 0.35085 0.00418 0.0
C692 C 0.81796 0.32961 0.99904 0.0
C693 C 0.81674 0.31138 0.01636 0.0
C694 C 0.82805 0.31471 0.03866 0.0
C695 C 0.89448 0.27992 0.05093 0.0
C696 C 0.86983 0.29365 0.09217 0.0
C697 C 0.88316 0.30241 0.05244 0.0
N698 N 0.87095 0.30898 0.07285 0.0
C699 C 0.88093 0.27102 0.09132 0.0
C700 C 0.89331 0.26415 0.07052 0.0
C701 C 0.86031 0.35154 0.12657 0.0
C702 C 0.86317 0.44185 0.09447 0.0
C703 C 0.84731 0.41413 0.13284 0.0
C704 C 0.86296 0.43343 0.13712 0.0
C705 C 0.87101 0.44729 0.11775 0.0
N706 N 0.83964 0.40892 0.10995 0.0
C707 C 0.84712 0.4227 0.09091 0.0
H708 H 0.97031 0.22322 0.39466 0.0
H709 H 0.9958 0.22888 0.43026 0.0
H710 H 0.93271 0.22816 0.47588 0.0
H711 H 0.90704 0.22243 0.44042 0.0
H712 H 0.96966 0.25994 0.49242 0.0
H713 H 0.95796 0.1779 0.46685 0.0
H714 H 0.9579 0.14408 0.4379 0.0
H715 H 0.03422 0.1525 0.42732 0.0
H716 H 0.03466 0.18679 0.4558 0.0
H717 H 0.01914 0.20853 0.6011 0.0
H718 H 0.9953 0.21973 0.56554 0.0
H719 H 0.05914 0.21518 0.52116 0.0
H720 H 0.08302 0.20392 0.55639 0.0
H721 H 0.02233 0.18827 0.50359 0.0
H722 H 0.03364 0.2692 0.53277 0.0
H723 H 0.03229 0.30199 0.56286 0.0
H724 H 0.95536 0.29416 0.56851 0.0
H725 H 0.95627 0.26108 0.53869 0.0
C726 C 0.96178 0.22497 0.41217 0.0
C727 C 0.93671 0.22198 0.41481 0.0
C728 C 0.97637 0.22818 0.43248 0.0
C729 C 0.9661 0.22857 0.45564 0.0
C730 C 0.94093 0.22786 0.45813 0.0
C731 C 0.92633 0.22446 0.43786 0.0
C732 C 0.9816 0.2262 0.47724 0.0
C733 C 0.98113 0.24427 0.49499 0.0
C734 C 0.99652 0.20572 0.48043 0.0
C735 C 0.9963 0.18512 0.46325 0.0
C736 C 0.97469 0.17273 0.45816 0.0
C737 C 0.97459 0.15343 0.44188 0.0
C738 C 0.99604 0.14612 0.43083 0.0
C739 C 0.01763 0.15816 0.43595 0.0
C740 C 0.01781 0.17756 0.45212 0.0
C741 C 0.02817 0.21032 0.58384 0.0
C742 C 0.05293 0.20519 0.58154 0.0
C743 C 0.01454 0.21679 0.56357 0.0
C744 C 0.0255 0.21832 0.54075 0.0
C745 C 0.05036 0.21406 0.53861 0.0
C746 C 0.06396 0.20762 0.55879 0.0
C747 C 0.01081 0.22221 0.51875 0.0
C748 C 0.01119 0.20418 0.50096 0.0
C749 C 0.99566 0.24258 0.51574 0.0
C750 C 0.99506 0.2625 0.53365 0.0
C751 C 0.01645 0.27432 0.54058 0.0
C752 C 0.01576 0.29299 0.55756 0.0
C753 C 0.99376 0.30011 0.56763 0.0
C754 C 0.97239 0.28861 0.56071 0.0
C755 C 0.97298 0.26991 0.54375 0.0
H756 H 0.99327 0.31458 0.58077 0.0
H757 H 0.99592 0.13117 0.41823 0.0
H758 H 0.02327 0.76528 0.39887 0.0
H759 H 0.00014 0.75073 0.43363 0.0
H760 H 0.05763 0.77301 0.48134 0.0
H761 H 0.08106 0.78684 0.44687 0.0
H762 H 0.03702 0.73289 0.49816 0.0
H763 H 0.01021 0.81073 0.46771 0.0
H764 H 0.99438 0.83851 0.43667 0.0
H765 H 0.93113 0.79432 0.42877 0.0
H766 H 0.94676 0.76609 0.45957 0.0
H767 H 0.98226 0.78041 0.60385 0.0
H768 H 0.00449 0.76787 0.56787 0.0
H769 H 0.93797 0.7443 0.53474 0.0
H770 H 0.91561 0.75723 0.57043 0.0
H771 H 0.95965 0.77689 0.508 0.0
H772 H 0.98403 0.70407 0.54654 0.0
H773 H 0.00046 0.6786 0.57916 0.0
H774 H 0.06872 0.71499 0.5738 0.0
H775 H 0.05261 0.74093 0.54138 0.0
C776 C 0.03116 0.76664 0.41672 0.0
C777 C 0.05382 0.77755 0.42015 0.0
C778 C 0.01793 0.75833 0.43656 0.0
C779 C 0.02701 0.76117 0.4601 0.0
C780 C 0.05026 0.77063 0.46336 0.0
C781 C 0.06356 0.77871 0.44359 0.0
C782 C 0.0115 0.75708 0.4815 0.0
C783 C 0.02006 0.74243 0.50037 0.0
C784 C 0.98917 0.7692 0.48416 0.0
C785 C 0.97977 0.78617 0.46569 0.0
C786 C 0.99301 0.80686 0.45922 0.0
C787 C 0.98406 0.8227 0.44171 0.0
C788 C 0.96179 0.81815 0.43073 0.0
C789 C 0.9484 0.79778 0.43726 0.0
C790 C 0.95729 0.78187 0.45474 0.0
C791 C 0.97249 0.77183 0.58923 0.0
C792 C 0.94719 0.77009 0.58978 0.0
C793 C 0.98522 0.76458 0.56868 0.0
C794 C 0.97286 0.75518 0.54858 0.0
C795 C 0.94784 0.75158 0.55 0.0
C796 C 0.9351 0.759 0.57039 0.0
C797 C 0.98528 0.75297 0.52499 0.0
C798 C 0.97621 0.76667 0.50567 0.0
C799 C 0.00721 0.7402 0.52214 0.0
C800 C 0.01704 0.72455 0.54159 0.0
C801 C 0.00249 0.70677 0.55242 0.0
C802 C 0.01176 0.69222 0.57086 0.0
C803 C 0.03561 0.6952 0.57857 0.0
C804 C 0.05025 0.7127 0.56781 0.0
C805 C 0.04107 0.72731 0.54937 0.0
H806 H 0.04275 0.68392 0.59285 0.0
H807 H 0.95487 0.83045 0.41719 0.0
H808 H 0.38243 0.98657 0.21288 0.0
H809 H 0.41535 0.01416 0.22318 0.0
H810 H 0.46187 0.95349 0.23809 0.0
H811 H 0.42909 0.92578 0.22799 0.0
H812 H 0.47169 0.99327 0.26789 0.0
H813 H 0.46168 0.97355 0.184 0.0
H814 H 0.43857 0.96923 0.14617 0.0
H815 H 0.4242 0.04542 0.14581 0.0
H816 H 0.44683 0.05012 0.18395 0.0
H817 H 0.58771 0.03408 0.22649 0.0
H818 H 0.54997 0.01318 0.23607 0.0
H819 H 0.50992 0.07833 0.22133 0.0
H820 H 0.54741 0.0994 0.21183 0.0
H821 H 0.49493 0.03902 0.19439 0.0
H822 H 0.51173 0.05783 0.27733 0.0
H823 H 0.53648 0.05935 0.31433 0.0
H824 H 0.54094 0.98194 0.31502 0.0
H825 H 0.5165 0.97996 0.27781 0.0
C826 C 0.39942 0.9791 0.21907 0.0
C827 C 0.40334 0.95403 0.21923 0.0
C828 C 0.4182 0.99488 0.22494 0.0
C829 C 0.44108 0.98579 0.23103 0.0
C830 C 0.44433 0.96082 0.23341 0.0
C831 C 0.42563 0.94503 0.22746 0.0
C832 C 0.46239 0.00185 0.23111 0.0
C833 C 0.47685 0.00331 0.25188 0.0
C834 C 0.46901 0.01482 0.21013 0.0
C835 C 0.45571 0.01215 0.18698 0.0
C836 C 0.45343 0.98936 0.17596 0.0
C837 C 0.44044 0.98684 0.15445 0.0
C838 C 0.42992 0.00703 0.14359 0.0
C839 C 0.43236 0.02979 0.15423 0.0
C840 C 0.44525 0.0324 0.17581 0.0
C841 C 0.57094 0.04413 0.22585 0.0
C842 C 0.57055 0.06834 0.21822 0.0
C843 C 0.5494 0.03217 0.23138 0.0
C844 C 0.52721 0.04425 0.22938 0.0
C845 C 0.52689 0.06873 0.22295 0.0
C846 C 0.54836 0.08071 0.21756 0.0
C847 C 0.50425 0.03075 0.23128 0.0
C848 C 0.48957 0.02949 0.21065 0.0
C849 C 0.49778 0.01764 0.25223 0.0
C850 C 0.51243 0.01877 0.27466 0.0
C851 C 0.51815 0.04114 0.28525 0.0
C852 C 0.5321 0.04208 0.30629 0.0
C853 C 0.54032 0.02076 0.31699 0.0
C854 C 0.53457 0.99844 0.3067 0.0
C855 C 0.52064 0.9974 0.28566 0.0
H856 H 0.55112 0.02152 0.33328 0.0
H857 H 0.41985 0.00501 0.12695 0.0
H858 H 0.61067 0.9743 0.7703 0.0
H859 H 0.57799 0.00228 0.76048 0.0
H860 H 0.52703 0.94339 0.76104 0.0
H861 H 0.55953 0.91525 0.77093 0.0
H862 H 0.51584 0.98109 0.72662 0.0
H863 H 0.53481 0.96877 0.81097 0.0
H864 H 0.56271 0.96666 0.84564 0.0
H865 H 0.58194 0.04104 0.83516 0.0
H866 H 0.55445 0.04345 0.80009 0.0
H867 H 0.40765 0.03361 0.77382 0.0
H868 H 0.44288 0.00966 0.76227 0.0
H869 H 0.48862 0.07202 0.77181 0.0
H870 H 0.45363 0.09599 0.78366 0.0
H871 H 0.50431 0.03459 0.79762 0.0
H872 H 0.47934 0.04762 0.71583 0.0
H873 H 0.45092 0.04805 0.68154 0.0
H874 H 0.4415 0.97134 0.68782 0.0
H875 H 0.46961 0.97048 0.72238 0.0
C876 C 0.59266 0.96716 0.76761 0.0
C877 C 0.58756 0.94267 0.77186 0.0
C878 C 0.57403 0.98317 0.76195 0.0
C879 C 0.55014 0.97487 0.76037 0.0
C880 C 0.54538 0.95008 0.76219 0.0
C881 C 0.56395 0.93408 0.76802 0.0
C882 C 0.52989 0.99218 0.76113 0.0
C883 C 0.51319 0.99281 0.74209 0.0
C884 C 0.52667 0.00745 0.78134 0.0
C885 C 0.54278 0.00622 0.80275 0.0
C886 C 0.54511 0.98463 0.81595 0.0
C887 C 0.56083 0.98338 0.83568 0.0
C888 C 0.5741 0.0037 0.84259 0.0
C889 C 0.57164 0.02532 0.82979 0.0
C890 C 0.556 0.02664 0.80998 0.0
C891 C 0.42512 0.04237 0.77291 0.0
C892 C 0.4279 0.06663 0.77985 0.0
C893 C 0.44524 0.02867 0.76623 0.0
C894 C 0.46837 0.03909 0.76616 0.0
C895 C 0.47094 0.06363 0.77181 0.0
C896 C 0.45091 0.07729 0.77857 0.0
C897 C 0.49011 0.02385 0.76294 0.0
C898 C 0.50706 0.02334 0.78181 0.0
C899 C 0.49332 0.00859 0.74268 0.0
C900 C 0.47645 0.00902 0.72184 0.0
C901 C 0.47107 0.03086 0.71003 0.0
C902 C 0.45504 0.03118 0.69051 0.0
C903 C 0.44437 0.00975 0.68254 0.0
C904 C 0.44976 0.98794 0.69403 0.0
C905 C 0.46577 0.98752 0.71356 0.0
H906 H 0.43197 0.01003 0.66742 0.0
H907 H 0.5863 0.00268 0.85784 0.0
H908 H 0.22942 0.43805 0.91635 0.0
H909 H 0.2411 0.47206 0.94204 0.0
H910 H 0.22406 0.43017 0.00545 0.0
H911 H 0.21261 0.39595 0.97994 0.0
H912 H 0.19848 0.47459 0.0003 0.0
H913 H 0.27977 0.44406 0.99722 0.0
H914 H 0.31682 0.42977 0.97712 0.0
H915 H 0.32447 0.49827 0.9416 0.0
H916 H 0.28724 0.51287 0.96122 0.0
H917 H 0.22744 0.55227 0.09221 0.0
H918 H 0.23647 0.51802 0.0662 0.0
H919 H 0.24221 0.56555 0.00482 0.0
H920 H 0.23279 0.6002 0.0307 0.0
H921 H 0.27585 0.51935 0.00791 0.0
H922 H 0.19384 0.54854 0.00552 0.0
H923 H 0.15661 0.5645 0.02396 0.0
H924 H 0.14949 0.4999 0.06627 0.0
H925 H 0.18708 0.48381 0.0485 0.0
C926 C 0.22866 0.43591 0.93578 0.0
C927 C 0.21992 0.41445 0.94617 0.0
C928 C 0.23545 0.45529 0.9504 0.0
C929 C 0.23342 0.45353 0.97556 0.0
C930 C 0.2258 0.43175 0.98602 0.0
C931 C 0.21931 0.41224 0.97144 0.0
C932 C 0.23619 0.47528 0.99069 0.0
C933 C 0.21549 0.48414 0.00223 0.0
C934 C 0.25818 0.48821 0.99232 0.0
C935 C 0.28057 0.47947 0.98051 0.0
C936 C 0.28921 0.456 0.98494 0.0
C937 C 0.31028 0.44786 0.97368 0.0
C938 C 0.32295 0.46308 0.95804 0.0
C939 C 0.31461 0.48649 0.95369 0.0
C940 C 0.29355 0.49472 0.9649 0.0
C941 C 0.23125 0.55563 0.07331 0.0
C942 C 0.2289 0.57889 0.06339 0.0
C943 C 0.23658 0.53603 0.05854 0.0
C944 C 0.23982 0.53936 0.03368 0.0
C945 C 0.23989 0.56277 0.02405 0.0
C946 C 0.23435 0.58248 0.03883 0.0
C947 C 0.23824 0.51823 0.01764 0.0
C948 C 0.25895 0.50964 0.00591 0.0
C949 C 0.21616 0.50567 0.01532 0.0
C950 C 0.19342 0.51511 0.02591 0.0
C951 C 0.18449 0.53786 0.01897 0.0
C952 C 0.16331 0.54692 0.02926 0.0
C953 C 0.1507 0.53323 0.04628 0.0
C954 C 0.15929 0.51048 0.05308 0.0
C955 C 0.18055 0.50139 0.04293 0.0
H956 H 0.13425 0.54024 0.05416 0.0
H957 H 0.33926 0.45674 0.94934 0.0
H958 H 0.78166 0.5601 0.91113 0.0
H959 H 0.76918 0.52472 0.93401 0.0
H960 H 0.75541 0.56956 0.99622 0.0
H961 H 0.76841 0.60514 0.97354 0.0
H962 H 0.78631 0.53518 0.00648 0.0
H963 H 0.70949 0.53715 0.96824 0.0
H964 H 0.68057 0.53993 0.93449 0.0
H965 H 0.70936 0.47479 0.90387 0.0
H966 H 0.73871 0.47178 0.93724 0.0
H967 H 0.76757 0.43467 0.07827 0.0
H968 H 0.75483 0.47009 0.05541 0.0
H969 H 0.77507 0.4348 0.989 0.0
H970 H 0.78751 0.39891 0.01184 0.0
H971 H 0.73478 0.46557 0.98336 0.0
H972 H 0.81614 0.46936 0.01448 0.0
H973 H 0.84775 0.46681 0.04559 0.0
H974 H 0.81159 0.52122 0.08743 0.0
H975 H 0.77973 0.52413 0.05631 0.0
C976 C 0.77544 0.56257 0.92951 0.0
C977 C 0.77634 0.58541 0.94062 0.0
C978 C 0.76807 0.54229 0.94252 0.0
C979 C 0.76125 0.54446 0.96682 0.0
C980 C 0.76056 0.56749 0.97746 0.0
C981 C 0.76799 0.58781 0.96447 0.0
C982 C 0.75885 0.52248 0.98196 0.0
C983 C 0.77445 0.52029 0.00178 0.0
C984 C 0.74409 0.50264 0.97533 0.0
C985 C 0.72643 0.50433 0.95521 0.0
C986 C 0.7098 0.52351 0.95422 0.0
C987 C 0.6933 0.52511 0.93517 0.0
C988 C 0.69315 0.50757 0.91703 0.0
C989 C 0.70949 0.48837 0.91793 0.0
C990 C 0.72604 0.48668 0.93694 0.0
C991 C 0.76881 0.4342 0.05875 0.0
C992 C 0.7789 0.41419 0.04684 0.0
C993 C 0.76146 0.45444 0.04572 0.0
C994 C 0.76441 0.45522 0.02058 0.0
C995 C 0.77266 0.43454 0.00841 0.0
C996 C 0.77982 0.41409 0.02148 0.0
C997 C 0.76222 0.47855 0.00765 0.0
C998 C 0.74604 0.48083 0.98827 0.0
C999 C 0.77658 0.49856 0.01441 0.0
C1000 C 0.79547 0.49675 0.03327 0.0
C1001 C 0.81485 0.48063 0.03042 0.0
C1002 C 0.83283 0.47916 0.04804 0.0
C1003 C 0.83163 0.49374 0.06862 0.0
C1004 C 0.81247 0.5099 0.07152 0.0
C1005 C 0.79448 0.51152 0.05386 0.0
H1006 H 0.8456 0.49263 0.08225 0.0
H1007 H 0.68036 0.50884 0.9023 0.0
H1008 H 0.1391 0.1438 0.71153 0.0
H1009 H 0.17862 0.13718 0.73063 0.0
H1010 H 0.20737 0.11241 0.66266 0.0
H1011 H 0.16831 0.12024 0.64322 0.0
H1012 H 0.21227 0.08718 0.72306 0.0
H1013 H 0.23294 0.14756 0.65935 0.0
H1014 H 0.22525 0.18543 0.63724 0.0
H1015 H 0.225 0.22476 0.70399 0.0
H1016 H 0.23161 0.18686 0.72665 0.0
H1017 H 0.33368 0.079 0.75951 0.0
H1018 H 0.29977 0.08428 0.73138 0.0
H1019 H 0.2804 0.15061 0.76744 0.0
H1020 H 0.31493 0.14578 0.79482 0.0
H1021 H 0.27171 0.15427 0.72015 0.0
H1022 H 0.25578 0.09628 0.78345 0.0
H1023 H 0.26472 0.05944 0.80687 0.0
H1024 H 0.25675 0.01633 0.74297 0.0
H1025 H 0.24822 0.05295 0.71902 0.0
C1026 C 0.1538 0.13666 0.7008 0.0
C1027 C 0.15081 0.13256 0.67595 0.0
C1028 C 0.17632 0.13303 0.71165 0.0
C1029 C 0.19592 0.12481 0.69787 0.0
C1030 C 0.19255 0.11931 0.6734 0.0
C1031 C 0.17027 0.1236 0.66239 0.0
C1032 C 0.22003 0.12257 0.70902 0.0
C1033 C 0.22547 0.10163 0.72213 0.0
C1034 C 0.23692 0.14168 0.70816 0.0
C1035 C 0.23206 0.16428 0.69471 0.0
C1036 C 0.23055 0.16416 0.66937 0.0
C1037 C 0.22649 0.18564 0.65675 0.0
C1038 C 0.2244 0.20744 0.66926 0.0
C1039 C 0.22631 0.20779 0.69441 0.0
C1040 C 0.23011 0.18631 0.70714 0.0
C1041 C 0.32267 0.09514 0.76069 0.0
C1042 C 0.32691 0.11224 0.77884 0.0
C1043 C 0.30321 0.09803 0.74487 0.0
C1044 C 0.28735 0.11766 0.74758 0.0
C1045 C 0.29248 0.13543 0.76495 0.0
C1046 C 0.31216 0.13272 0.7805 0.0
C1047 C 0.26428 0.11866 0.734 0.0
C1048 C 0.25879 0.13955 0.72075 0.0
C1049 C 0.24733 0.09947 0.73481 0.0
C1050 C 0.25158 0.07738 0.74939 0.0
C1051 C 0.25602 0.07895 0.77437 0.0
C1052 C 0.26104 0.05813 0.78774 0.0
C1053 C 0.26136 0.03559 0.77642 0.0
C1054 C 0.25653 0.03381 0.75171 0.0
C1055 C 0.2516 0.05459 0.73822 0.0
H1056 H 0.26532 0.01951 0.78681 0.0
H1057 H 0.22156 0.22412 0.65947 0.0
H1058 H 0.71597 0.90983 0.80495 0.0
H1059 H 0.7477 0.90447 0.77527 0.0
H1060 H 0.69723 0.87025 0.72678 0.0
H1061 H 0.6649 0.87547 0.75667 0.0
H1062 H 0.74234 0.84652 0.7304 0.0
H1063 H 0.71214 0.92607 0.71559 0.0
H1064 H 0.69873 0.96681 0.7275 0.0
H1065 H 0.76969 0.98276 0.75442 0.0
H1066 H 0.78343 0.94194 0.74308 0.0
H1067 H 0.82692 0.84793 0.63704 0.0
H1068 H 0.78974 0.85928 0.65746 0.0
H1069 H 0.83088 0.8948 0.71326 0.0
H1070 H 0.86844 0.88369 0.69283 0.0
H1071 H 0.78728 0.91871 0.70175 0.0
H1072 H 0.81593 0.83908 0.72217 0.0
H1073 H 0.83051 0.79816 0.71236 0.0
H1074 H 0.76343 0.78238 0.67677 0.0
H1075 H 0.7486 0.8234 0.68601 0.0
C1076 C 0.71142 0.90116 0.78802 0.0
C1077 C 0.68772 0.89337 0.78308 0.0
C1078 C 0.72965 0.89816 0.77104 0.0
C1079 C 0.72466 0.8874 0.74872 0.0
C1080 C 0.7013 0.87881 0.74389 0.0
C1081 C 0.68289 0.88186 0.76094 0.0
C1082 C 0.74411 0.88537 0.7306 0.0
C1083 C 0.75182 0.86229 0.72367 0.0
C1084 C 0.75678 0.90602 0.72238 0.0
C1085 C 0.74878 0.93086 0.7286 0.0
C1086 C 0.72486 0.93821 0.72416 0.0
C1087 C 0.7172 0.96132 0.73082 0.0
C1088 C 0.73334 0.97735 0.74175 0.0
C1089 C 0.75721 0.97032 0.74596 0.0
C1090 C 0.76495 0.9472 0.73939 0.0
C1091 C 0.82818 0.8586 0.65338 0.0
C1092 C 0.85073 0.86455 0.66352 0.0
C1093 C 0.80685 0.86507 0.665 0.0
C1094 C 0.80765 0.87746 0.68703 0.0
C1095 C 0.82997 0.88515 0.69626 0.0
C1096 C 0.8514 0.87873 0.68459 0.0
C1097 C 0.78555 0.87988 0.70173 0.0
C1098 C 0.77747 0.90298 0.7081 0.0
C1099 C 0.77263 0.85926 0.70962 0.0
C1100 C 0.78124 0.83438 0.70457 0.0
C1101 C 0.80434 0.82693 0.71212 0.0
C1102 C 0.81265 0.80373 0.70668 0.0
C1103 C 0.79791 0.78769 0.69394 0.0
C1104 C 0.77482 0.79483 0.68664 0.0
C1105 C 0.76645 0.81805 0.69198 0.0
H1106 H 0.80437 0.76973 0.68975 0.0
H1107 H 0.72735 0.99522 0.74693 0.0
H1108 H 0.32631 0.88546 0.23737 0.0
H1109 H 0.293 0.88016 0.26589 0.0
H1110 H 0.24552 0.91918 0.21796 0.0
H1111 H 0.27859 0.925 0.18968 0.0
H1112 H 0.23743 0.93249 0.26297 0.0
H1113 H 0.24434 0.8569 0.22065 0.0
H1114 H 0.26341 0.8196 0.20555 0.0
H1115 H 0.28051 0.79842 0.27819 0.0
H1116 H 0.26154 0.83564 0.29372 0.0
H1117 H 0.12287 0.88596 0.30249 0.0
H1118 H 0.15902 0.89895 0.28063 0.0
H1119 H 0.20398 0.8642 0.33392 0.0
H1120 H 0.16825 0.85109 0.35578 0.0
H1121 H 0.21445 0.84974 0.28835 0.0
H1122 H 0.20268 0.92461 0.33025 0.0
H1123 H 0.1797 0.96023 0.34383 0.0
H1124 H 0.1693 0.98216 0.27017 0.0
H1125 H 0.19193 0.94646 0.25611 0.0
C1126 C 0.30883 0.89309 0.23298 0.0
C1127 C 0.30517 0.90559 0.21116 0.0
C1128 C 0.28978 0.88993 0.24925 0.0
C1129 C 0.26669 0.89903 0.24391 0.0
C1130 C 0.26317 0.91202 0.22247 0.0
C1131 C 0.28215 0.91525 0.20626 0.0
C1132 C 0.24598 0.8946 0.26029 0.0
C1133 C 0.23229 0.91438 0.26839 0.0
C1134 C 0.23948 0.87102 0.26767 0.0
C1135 C 0.25177 0.84916 0.25832 0.0
C1136 C 0.25241 0.84442 0.23338 0.0
C1137 C 0.2631 0.82324 0.22475 0.0
C1138 C 0.2732 0.80667 0.24091 0.0
C1139 C 0.27269 0.81128 0.26571 0.0
C1140 C 0.26194 0.83238 0.27443 0.0
C1141 C 0.14044 0.88147 0.30981 0.0
C1142 C 0.14259 0.86731 0.33081 0.0
C1143 C 0.16109 0.88896 0.29732 0.0
C1144 C 0.18416 0.88251 0.30568 0.0
C1145 C 0.18634 0.8693 0.32714 0.0
C1146 C 0.16582 0.86185 0.33962 0.0
C1147 C 0.20593 0.88758 0.29103 0.0
C1148 C 0.21976 0.86788 0.28318 0.0
C1149 C 0.21234 0.91118 0.28371 0.0
C1150 C 0.19883 0.93273 0.29212 0.0
C1151 C 0.19533 0.93691 0.31693 0.0
C1152 C 0.1824 0.95714 0.32472 0.0
C1153 C 0.173 0.97342 0.30787 0.0
C1154 C 0.17657 0.96952 0.2832 0.0
C1155 C 0.18947 0.94931 0.27531 0.0
H1156 H 0.16299 0.98906 0.31394 0.0
H1157 H 0.28133 0.79021 0.23424 0.0
H1158 H 0.68671 0.05874 0.21787 0.0
H1159 H 0.72031 0.06187 0.24628 0.0
H1160 H 0.70911 0.13894 0.25072 0.0
H1161 H 0.6746 0.13552 0.22345 0.0
H1162 H 0.7605 0.0809 0.24148 0.0
H1163 H 0.73137 0.16334 0.30053 0.0
H1164 H 0.69424 0.1798 0.31879 0.0
H1165 H 0.66182 0.10937 0.31742 0.0
H1166 H 0.69885 0.09241 0.29946 0.0
H1167 H 0.86268 0.13934 0.2891 0.0
H1168 H 0.8257 0.1259 0.26923 0.0
H1169 H 0.79398 0.11034 0.33878 0.0
H1170 H 0.83046 0.12531 0.35865 0.0
H1171 H 0.76277 0.1318 0.31509 0.0
H1172 H 0.81217 0.06476 0.29586 0.0
H1173 H 0.84822 0.04303 0.28136 0.0
H1174 H 0.83785 0.07243 0.21034 0.0
H1175 H 0.80192 0.0946 0.22449 0.0
C1176 C 0.69113 0.07625 0.22535 0.0
C1177 C 0.67804 0.09688 0.21856 0.0
C1178 C 0.71042 0.07806 0.2415 0.0
C1179 C 0.71733 0.10063 0.25082 0.0
C1180 C 0.70388 0.12121 0.24436 0.0
C1181 C 0.68417 0.11928 0.22868 0.0
C1182 C 0.73953 0.10286 0.26587 0.0
C1183 C 0.76091 0.09187 0.2577 0.0
C1184 C 0.74011 0.11662 0.28741 0.0
C1185 C 0.71784 0.12665 0.29846 0.0
C1186 C 0.71636 0.15134 0.30423 0.0
C1187 C 0.69532 0.16076 0.3145 0.0
C1188 C 0.67566 0.14566 0.3192 0.0
C1189 C 0.67703 0.12107 0.31369 0.0
C1190 C 0.69803 0.11155 0.30344 0.0
C1191 C 0.84796 0.13263 0.30009 0.0
C1192 C 0.84939 0.13332 0.32538 0.0
C1193 C 0.82681 0.12484 0.28873 0.0
C1194 C 0.80699 0.11678 0.30244 0.0
C1195 C 0.80888 0.11656 0.32775 0.0
C1196 C 0.82977 0.12499 0.33911 0.0
C1197 C 0.78381 0.11018 0.29046 0.0
C1198 C 0.76228 0.12048 0.29911 0.0
C1199 C 0.7829 0.09491 0.26997 0.0
C1200 C 0.80442 0.08147 0.26129 0.0
C1201 C 0.81765 0.0667 0.27718 0.0
C1202 C 0.83806 0.0543 0.26902 0.0
C1203 C 0.84535 0.05638 0.24496 0.0
C1204 C 0.83219 0.07083 0.22898 0.0
C1205 C 0.81178 0.0833 0.23705 0.0
H1206 H 0.86116 0.04677 0.23868 0.0
H1207 H 0.65938 0.15299 0.32713 0.0
H1208 H 0.63975 0.17135 0.12992 0.0
H1209 H 0.66475 0.20584 0.11889 0.0
H1210 H 0.72714 0.15943 0.11464 0.0
H1211 H 0.70205 0.12458 0.12556 0.0
H1212 H 0.73259 0.19906 0.14586 0.0
H1213 H 0.70686 0.18396 0.06468 0.0
H1214 H 0.67733 0.17652 0.03219 0.0
H1215 H 0.64434 0.24534 0.04582 0.0
H1216 H 0.67346 0.25306 0.07867 0.0
H1217 H 0.81664 0.28243 0.10052 0.0
H1218 H 0.78946 0.24873 0.10694 0.0
H1219 H 0.72875 0.29746 0.10848 0.0
H1220 H 0.75615 0.33186 0.10217 0.0
H1221 H 0.72141 0.25737 0.07874 0.0
H1222 H 0.74583 0.2729 0.15952 0.0
H1223 H 0.77242 0.27991 0.19454 0.0
H1224 H 0.80586 0.21084 0.18357 0.0
H1225 H 0.77969 0.20353 0.14824 0.0
C1226 C 0.65868 0.16834 0.12614 0.0
C1227 C 0.66896 0.14527 0.12877 0.0
C1228 C 0.67293 0.18809 0.11975 0.0
C1229 C 0.69777 0.18518 0.116 0.0
C1230 C 0.70795 0.16199 0.11746 0.0
C1231 C 0.69359 0.1421 0.12355 0.0
C1232 C 0.71332 0.20673 0.11298 0.0
C1233 C 0.73052 0.21158 0.13093 0.0
C1234 C 0.70973 0.22354 0.09409 0.0
C1235 C 0.69222 0.21899 0.0743 0.0
C1236 C 0.69317 0.19742 0.06091 0.0
C1237 C 0.67653 0.19317 0.04239 0.0
C1238 C 0.65893 0.21042 0.03698 0.0
C1239 C 0.65797 0.23198 0.05005 0.0
C1240 C 0.67456 0.23632 0.0686 0.0
C1241 C 0.79754 0.2862 0.10231 0.0
C1242 C 0.7886 0.30997 0.1008 0.0
C1243 C 0.78202 0.26681 0.10611 0.0
C1244 C 0.75714 0.2706 0.10838 0.0
C1245 C 0.74797 0.29422 0.10684 0.0
C1246 C 0.76362 0.31382 0.10329 0.0
C1247 C 0.74093 0.24955 0.11149 0.0
C1248 C 0.72356 0.24481 0.09363 0.0
C1249 C 0.74421 0.23289 0.1306 0.0
C1250 C 0.76087 0.23774 0.15109 0.0
C1251 C 0.75904 0.25932 0.16437 0.0
C1252 C 0.77393 0.26328 0.18439 0.0
C1253 C 0.79068 0.24575 0.19138 0.0
C1254 C 0.79274 0.22432 0.17823 0.0
C1255 C 0.7779 0.22027 0.1582 0.0
H1256 H 0.80221 0.24886 0.20687 0.0
H1257 H 0.64606 0.20709 0.02264 0.0
H1258 H 0.1946 0.71097 0.09261 0.0
H1259 H 0.2239 0.74359 0.09475 0.0
H1260 H 0.27864 0.69338 0.1183 0.0
H1261 H 0.24915 0.66046 0.11676 0.0
H1262 H 0.27977 0.73353 0.14458 0.0
H1263 H 0.27864 0.71557 0.06058 0.0
H1264 H 0.25981 0.70742 0.02105 0.0
H1265 H 0.22923 0.77866 0.02045 0.0
H1266 H 0.24751 0.78711 0.06019 0.0
H1267 H 0.36453 0.82841 0.14094 0.0
H1268 H 0.34638 0.78994 0.12922 0.0
H1269 H 0.28318 0.82758 0.10344 0.0
H1270 H 0.30162 0.8661 0.11407 0.0
H1271 H 0.29188 0.78974 0.07584 0.0
H1272 H 0.29154 0.8058 0.16221 0.0
H1273 H 0.31096 0.81279 0.20167 0.0
H1274 H 0.34417 0.74285 0.19828 0.0
H1275 H 0.32621 0.73601 0.1581 0.0
C1276 C 0.21287 0.70673 0.09818 0.0
C1277 C 0.21953 0.683 0.10438 0.0
C1278 C 0.22966 0.72544 0.09926 0.0
C1279 C 0.25358 0.72084 0.10621 0.0
C1280 C 0.26029 0.69727 0.11271 0.0
C1281 C 0.24342 0.67849 0.1118 0.0
C1282 C 0.27123 0.74094 0.10738 0.0
C1283 C 0.28284 0.74555 0.12941 0.0
C1284 C 0.27499 0.75673 0.08763 0.0
C1285 C 0.26436 0.75192 0.06346 0.0
C1286 C 0.2678 0.72946 0.05209 0.0
C1287 C 0.25722 0.72479 0.02964 0.0
C1288 C 0.24331 0.7425 0.01826 0.0
C1289 C 0.24001 0.76496 0.02929 0.0
C1290 C 0.2505 0.76971 0.05177 0.0
C1291 C 0.34698 0.82853 0.13232 0.0
C1292 C 0.33437 0.8503 0.12877 0.0
C1293 C 0.3366 0.80652 0.12569 0.0
C1294 C 0.31315 0.80584 0.11606 0.0
C1295 C 0.30124 0.82764 0.11099 0.0
C1296 C 0.31179 0.84968 0.11716 0.0
C1297 C 0.30001 0.78265 0.11322 0.0
C1298 C 0.28918 0.77748 0.09089 0.0
C1299 C 0.29706 0.76626 0.1327 0.0
C1300 C 0.30775 0.77051 0.15695 0.0
C1301 C 0.30323 0.79203 0.1697 0.0
C1302 C 0.31401 0.79598 0.1922 0.0
C1303 C 0.3286 0.77819 0.20255 0.0
C1304 C 0.33283 0.75659 0.19025 0.0
C1305 C 0.32252 0.75275 0.16753 0.0
H1306 H 0.33658 0.78106 0.22016 0.0
H1307 H 0.23511 0.73884 0.00089 0.0
H1308 H 0.80293 0.71717 0.9267 0.0
H1309 H 0.77329 0.74881 0.92073 0.0
H1310 H 0.7325 0.70235 0.87334 0.0
H1311 H 0.7626 0.67025 0.87888 0.0
H1312 H 0.73651 0.74825 0.85541 0.0
H1313 H 0.71301 0.71218 0.93012 0.0
H1314 H 0.7193 0.69611 0.97117 0.0
H1315 H 0.742 0.76613 0.99557 0.0
H1316 H 0.73622 0.78255 0.95456 0.0
H1317 H 0.63703 0.82571 0.85279 0.0
H1318 H 0.65925 0.78975 0.86477 0.0
H1319 H 0.70984 0.83374 0.90437 0.0
H1320 H 0.68775 0.87014 0.89238 0.0
H1321 H 0.69792 0.7871 0.92646 0.0
H1322 H 0.72477 0.82186 0.85098 0.0
H1323 H 0.71713 0.83853 0.81037 0.0
H1324 H 0.68715 0.77067 0.78776 0.0
H1325 H 0.69421 0.75373 0.82842 0.0
C1326 C 0.78768 0.71345 0.91503 0.0
C1327 C 0.78508 0.69095 0.90346 0.0
C1328 C 0.77066 0.73165 0.91172 0.0
C1329 C 0.75046 0.72781 0.89695 0.0
C1330 C 0.7479 0.70559 0.88497 0.0
C1331 C 0.76505 0.68725 0.88824 0.0
C1332 C 0.7323 0.74728 0.8941 0.0
C1333 C 0.72773 0.75641 0.8709 0.0
C1334 C 0.7212 0.75827 0.91439 0.0
C1335 C 0.72433 0.74856 0.9392 0.0
C1336 C 0.71948 0.72413 0.9442 0.0
C1337 C 0.72295 0.71495 0.96746 0.0
C1338 C 0.73109 0.73007 0.98595 0.0
C1339 C 0.7357 0.75443 0.98122 0.0
C1340 C 0.73231 0.76369 0.95797 0.0
C1341 C 0.65255 0.82784 0.8645 0.0
C1342 C 0.66086 0.85093 0.87124 0.0
C1343 C 0.66521 0.8072 0.87133 0.0
C1344 C 0.68636 0.80919 0.88507 0.0
C1345 C 0.69356 0.83192 0.89367 0.0
C1346 C 0.68091 0.85269 0.88677 0.0
C1347 C 0.70235 0.78801 0.88789 0.0
C1348 C 0.70654 0.77868 0.91102 0.0
C1349 C 0.71308 0.77681 0.86757 0.0
C1350 C 0.70982 0.78659 0.8428 0.0
C1351 C 0.71645 0.81052 0.83738 0.0
C1352 C 0.71222 0.82002 0.81436 0.0
C1353 C 0.70161 0.80568 0.79652 0.0
C1354 C 0.69534 0.78176 0.80162 0.0
C1355 C 0.69947 0.77219 0.82464 0.0
H1356 H 0.69828 0.81309 0.77873 0.0
H1357 H 0.73378 0.72293 0.00395 0.0
H1358 H 0.30263 0.13328 0.87435 0.0
H1359 H 0.28133 0.17009 0.88623 0.0
H1360 H 0.34855 0.20934 0.88636 0.0
H1361 H 0.36995 0.17284 0.87362 0.0
H1362 H 0.30652 0.21667 0.92815 0.0
H1363 H 0.32979 0.22223 0.84282 0.0
H1364 H 0.33355 0.20539 0.80176 0.0
H1365 H 0.25722 0.19195 0.79978 0.0
H1366 H 0.25309 0.20832 0.84109 0.0
H1367 H 0.24239 0.33325 0.87939 0.0
H1368 H 0.27291 0.30138 0.87634 0.0
H1369 H 0.23032 0.25584 0.92297 0.0
H1370 H 0.19971 0.28723 0.92596 0.0
H1371 H 0.26535 0.25486 0.85817 0.0
H1372 H 0.2697 0.22247 0.95767 0.0
H1373 H 0.26595 0.23961 0.99862 0.0
H1374 H 0.28847 0.30892 0.97214 0.0
H1375 H 0.29271 0.29214 0.93113 0.0
C1376 C 0.31299 0.14957 0.87742 0.0
C1377 C 0.33794 0.15023 0.87278 0.0
C1378 C 0.30079 0.17055 0.8842 0.0
C1379 C 0.31345 0.19229 0.88698 0.0
C1380 C 0.33857 0.19263 0.88427 0.0
C1381 C 0.35072 0.1718 0.87695 0.0
C1382 C 0.30005 0.21507 0.88987 0.0
C1383 C 0.29756 0.22515 0.91293 0.0
C1384 C 0.28877 0.22615 0.86985 0.0
C1385 C 0.29119 0.21624 0.8451 0.0
C1386 C 0.31386 0.21541 0.83374 0.0
C1387 C 0.31605 0.20602 0.81042 0.0
C1388 C 0.29564 0.19763 0.79818 0.0
C1389 C 0.27301 0.19848 0.80929 0.0
C1390 C 0.27073 0.20781 0.83266 0.0
C1391 C 0.23962 0.31655 0.88921 0.0
C1392 C 0.21859 0.31285 0.90297 0.0
C1393 C 0.25705 0.29838 0.88739 0.0
C1394 C 0.25391 0.2764 0.8996 0.0
C1395 C 0.2332 0.27281 0.91368 0.0
C1396 C 0.21569 0.29081 0.91529 0.0
C1397 C 0.27147 0.25652 0.89659 0.0
C1398 C 0.27456 0.24673 0.87344 0.0
C1399 C 0.28341 0.24589 0.91656 0.0
C1400 C 0.28133 0.25606 0.94127 0.0
C1401 C 0.27397 0.24134 0.96061 0.0
C1402 C 0.27174 0.251 0.98383 0.0
C1403 C 0.2769 0.27535 0.98797 0.0
C1404 C 0.28439 0.29008 0.9689 0.0
C1405 C 0.28668 0.28051 0.94565 0.0
H1406 H 0.27513 0.2828 0.00595 0.0
H1407 H 0.29737 0.19058 0.78004 0.0
H1408 H 0.06652 0.79141 0.29175 0.0
H1409 H 0.07287 0.7603 0.26159 0.0
H1410 H 0.12713 0.72721 0.30665 0.0
H1411 H 0.12085 0.75855 0.33735 0.0
H1412 H 0.14256 0.73462 0.26005 0.0
H1413 H 0.07465 0.69888 0.29864 0.0
H1414 H 0.03386 0.69739 0.31637 0.0
H1415 H 0.00281 0.71525 0.24757 0.0
H1416 H 0.04345 0.71722 0.22948 0.0
H1417 H 0.15828 0.63677 0.18223 0.0
H1418 H 0.14475 0.65766 0.21832 0.0
H1419 H 0.09574 0.70052 0.17561 0.0
H1420 H 0.10924 0.67965 0.13894 0.0
H1421 H 0.07756 0.68498 0.22315 0.0
H1422 H 0.14567 0.72459 0.18598 0.0
H1423 H 0.18634 0.72525 0.16788 0.0
H1424 H 0.21684 0.6998 0.23451 0.0
H1425 H 0.17624 0.69855 0.25287 0.0
C1426 C 0.07957 0.77738 0.29558 0.0
C1427 C 0.09314 0.7775 0.31709 0.0
C1428 C 0.0831 0.75951 0.27826 0.0
C1429 C 0.10029 0.74133 0.28198 0.0
C1430 C 0.11367 0.74106 0.30353 0.0
C1431 C 0.11001 0.75892 0.32107 0.0
C1432 C 0.10525 0.72378 0.26243 0.0
C1433 C 0.12847 0.72339 0.25233 0.0
C1434 C 0.08667 0.70963 0.25197 0.0
C1435 C 0.06214 0.70838 0.26274 0.0
C1436 C 0.05914 0.70269 0.28732 0.0
C1437 C 0.03604 0.70172 0.29743 0.0
C1438 C 0.01576 0.70627 0.28312 0.0
C1439 C 0.01854 0.71174 0.25864 0.0
C1440 C 0.04161 0.71276 0.24844 0.0
C1441 C 0.14431 0.65032 0.18037 0.0
C1442 C 0.13509 0.65676 0.15754 0.0
C1443 C 0.13659 0.66221 0.20112 0.0
C1444 C 0.11951 0.68077 0.19952 0.0
C1445 C 0.10898 0.6862 0.1771 0.0
C1446 C 0.11677 0.67431 0.1562 0.0
C1447 C 0.11473 0.69604 0.22085 0.0
C1448 C 0.09163 0.69605 0.23114 0.0
C1449 C 0.13338 0.70989 0.23151 0.0
C1450 C 0.15789 0.71123 0.22072 0.0
C1451 C 0.16103 0.71897 0.19672 0.0
C1452 C 0.18407 0.71946 0.18642 0.0
C1453 C 0.20416 0.71251 0.20002 0.0
C1454 C 0.20125 0.70514 0.22399 0.0
C1455 C 0.17823 0.70454 0.23436 0.0
H1456 H 0.22198 0.71289 0.192 0.0
H1457 H 0.99788 0.70551 0.29098 0.0
H1458 H 0.12615 0.23051 0.66764 0.0
H1459 H 0.13204 0.2611 0.69904 0.0
H1460 H 0.0653 0.23948 0.73285 0.0
H1461 H 0.05934 0.20891 0.70174 0.0
H1462 H 0.07285 0.28871 0.73629 0.0
H1463 H 0.11353 0.21484 0.75046 0.0
H1464 H 0.14038 0.18035 0.74237 0.0
H1465 H 0.20156 0.22794 0.74074 0.0
H1466 H 0.17492 0.26292 0.74754 0.0
H1467 H 0.10476 0.31678 0.86086 0.0
H1468 H 0.09209 0.29621 0.82372 0.0
H1469 H 0.15239 0.32739 0.78567 0.0
H1470 H 0.16493 0.34837 0.82224 0.0
H1471 H 0.14714 0.27416 0.78434 0.0
H1472 H 0.1025 0.34851 0.77161 0.0
H1473 H 0.07341 0.38001 0.78359 0.0
H1474 H 0.01727 0.32677 0.78875 0.0
H1475 H 0.04613 0.29487 0.77715 0.0
C1476 C 0.11242 0.23271 0.68138 0.0
C1477 C 0.09246 0.21707 0.68243 0.0
C1478 C 0.11584 0.25013 0.69934 0.0
C1479 C 0.09925 0.25226 0.71841 0.0
C1480 C 0.07831 0.23807 0.71832 0.0
C1481 C 0.07503 0.22051 0.70058 0.0
C1482 C 0.10503 0.26711 0.73985 0.0
C1483 C 0.08906 0.28551 0.74683 0.0
C1484 C 0.12602 0.26262 0.75377 0.0
C1485 C 0.14211 0.24164 0.74904 0.0
C1486 C 0.13263 0.21806 0.74783 0.0
C1487 C 0.14783 0.1984 0.74344 0.0
C1488 C 0.17265 0.20197 0.74073 0.0
C1489 C 0.1823 0.22522 0.74243 0.0
C1490 C 0.16714 0.245 0.74647 0.0
C1491 C 0.11513 0.31954 0.84451 0.0
C1492 C 0.13594 0.33413 0.84461 0.0
C1493 C 0.10784 0.30781 0.82334 0.0
C1494 C 0.12138 0.31032 0.80209 0.0
C1495 C 0.14176 0.32527 0.80196 0.0
C1496 C 0.14884 0.33727 0.82292 0.0
C1497 C 0.11535 0.29612 0.78034 0.0
C1498 C 0.13115 0.27758 0.77353 0.0
C1499 C 0.09394 0.30007 0.76702 0.0
C1500 C 0.07654 0.31927 0.77374 0.0
C1501 C 0.08401 0.34348 0.7755 0.0
C1502 C 0.06755 0.36142 0.78218 0.0
C1503 C 0.04352 0.35539 0.78699 0.0
C1504 C 0.03589 0.33141 0.78505 0.0
C1505 C 0.05229 0.3134 0.7784 0.0
H1506 H 0.03081 0.3693 0.79217 0.0
H1507 H 0.1844 0.18669 0.73753 0.0
H1508 H 0.87899 0.70688 0.87919 0.0
H1509 H 0.89057 0.72841 0.84231 0.0
H1510 H 0.8888 0.66153 0.8025 0.0
H1511 H 0.87677 0.64002 0.83908 0.0
H1512 H 0.92743 0.69512 0.78898 0.0
H1513 H 0.84115 0.68956 0.80051 0.0
H1514 H 0.80403 0.69395 0.8247 0.0
H1515 H 0.81653 0.77024 0.83069 0.0
H1516 H 0.85401 0.76622 0.80689 0.0
H1517 H 0.87416 0.76318 0.67724 0.0
H1518 H 0.86963 0.73647 0.71229 0.0
H1519 H 0.93188 0.76938 0.74562 0.0
H1520 H 0.93649 0.79608 0.71099 0.0
H1521 H 0.86209 0.74966 0.76062 0.0
H1522 H 0.96268 0.72499 0.77579 0.0
H1523 H 0.99965 0.71888 0.7517 0.0
H1524 H 0.95674 0.69968 0.69 0.0
H1525 H 0.91955 0.70532 0.71379 0.0
C1526 C 0.88175 0.69667 0.86276 0.0
C1527 C 0.87667 0.67183 0.86191 0.0
C1528 C 0.88828 0.70899 0.84171 0.0
C1529 C 0.89022 0.69653 0.81972 0.0
C1530 C 0.88733 0.67141 0.81932 0.0
C1531 C 0.88037 0.65919 0.84021 0.0
C1532 C 0.89235 0.70989 0.79674 0.0
C1533 C 0.91325 0.70714 0.78278 0.0
C1534 C 0.87345 0.72496 0.78846 0.0
C1535 C 0.85053 0.72755 0.80213 0.0
C1536 C 0.83608 0.70725 0.80712 0.0
C1537 C 0.81497 0.70966 0.82076 0.0
C1538 C 0.80797 0.73234 0.8293 0.0
C1539 C 0.822 0.75267 0.8241 0.0
C1540 C 0.84318 0.75034 0.81053 0.0
C1541 C 0.88707 0.76451 0.6919 0.0
C1542 C 0.90577 0.78169 0.69124 0.0
C1543 C 0.88435 0.74936 0.71196 0.0
C1544 C 0.90051 0.75089 0.73144 0.0
C1545 C 0.91937 0.76775 0.73065 0.0
C1546 C 0.92194 0.78303 0.71081 0.0
C1547 C 0.89749 0.73538 0.75301 0.0
C1548 C 0.87633 0.73768 0.76675 0.0
C1549 C 0.91604 0.71965 0.76091 0.0
C1550 C 0.93833 0.7158 0.74654 0.0
C1551 C 0.96114 0.71935 0.75712 0.0
C1552 C 0.98214 0.71599 0.74351 0.0
C1553 C 0.98054 0.70897 0.71932 0.0
C1554 C 0.95795 0.70521 0.70871 0.0
C1555 C 0.93691 0.70852 0.72224 0.0
H1556 H 0.99681 0.7064 0.70881 0.0
H1557 H 0.79164 0.73417 0.8399 0.0
H1558 H 0.93291 0.22724 0.30384 0.0
H1559 H 0.92732 0.25802 0.2727 0.0
H1560 H 0.85105 0.26014 0.28824 0.0
H1561 H 0.85665 0.22949 0.31994 0.0
H1562 H 0.86523 0.25182 0.2373 0.0
H1563 H 0.87861 0.30625 0.30355 0.0
H1564 H 0.90024 0.32188 0.33921 0.0
H1565 H 0.96339 0.33432 0.29599 0.0
H1566 H 0.94225 0.31841 0.26013 0.0
H1567 H 0.84855 0.36753 0.17169 0.0
H1568 H 0.85894 0.34855 0.20999 0.0
H1569 H 0.90533 0.29835 0.17279 0.0
H1570 H 0.89553 0.31758 0.13426 0.0
H1571 H 0.90311 0.33315 0.23643 0.0
H1572 H 0.88215 0.24232 0.19179 0.0
H1573 H 0.86337 0.22783 0.15403 0.0
H1574 H 0.81581 0.28905 0.15366 0.0
H1575 H 0.83353 0.30329 0.19191 0.0
C1576 C 0.91501 0.2345 0.30085 0.0
C1577 C 0.89519 0.226 0.31419 0.0
C1578 C 0.91187 0.25209 0.28313 0.0
C1579 C 0.88879 0.26122 0.27821 0.0
C1580 C 0.86899 0.25323 0.29187 0.0
C1581 C 0.87222 0.23592 0.31001 0.0
C1582 C 0.88543 0.27805 0.25781 0.0
C1583 C 0.8733 0.26968 0.23719 0.0
C1584 C 0.89618 0.30123 0.25769 0.0
C1585 C 0.9089 0.31095 0.27919 0.0
C1586 C 0.89718 0.31212 0.30169 0.0
C1587 C 0.90934 0.32107 0.32193 0.0
C1588 C 0.93319 0.32904 0.31988 0.0
C1589 C 0.94491 0.32813 0.29756 0.0
C1590 C 0.93284 0.31917 0.27726 0.0
C1591 C 0.86158 0.35297 0.17164 0.0
C1592 C 0.87084 0.34376 0.14983 0.0
C1593 C 0.86759 0.34225 0.19362 0.0
C1594 C 0.8826 0.32193 0.19407 0.0
C1595 C 0.89361 0.31401 0.17267 0.0
C1596 C 0.88789 0.32496 0.15067 0.0
C1597 C 0.8833 0.30673 0.21592 0.0
C1598 C 0.8949 0.31537 0.23669 0.0
C1599 C 0.87203 0.28379 0.21621 0.0
C1600 C 0.85946 0.27406 0.19456 0.0
C1601 C 0.86746 0.2525 0.18383 0.0
C1602 C 0.857 0.24434 0.16232 0.0
C1603 C 0.83856 0.25761 0.15133 0.0
C1604 C 0.83025 0.27888 0.16205 0.0
C1605 C 0.84038 0.28691 0.18374 0.0
H1606 H 0.83061 0.25132 0.13463 0.0
H1607 H 0.94257 0.33596 0.33558 0.0
H1608 H 0.08168 0.06987 0.59919 0.0
H1609 H 0.05965 0.03273 0.58879 0.0
H1610 H 0.02887 0.03103 0.66032 0.0
H1611 H 0.05049 0.06796 0.6707 0.0
H1612 H 0.04366 0.98562 0.6441 0.0
H1613 H 0.99788 0.05537 0.61637 0.0
H1614 H 0.99262 0.09255 0.59241 0.0
H1615 H 0.00488 0.05262 0.52707 0.0
H1616 H 0.01063 0.01525 0.55073 0.0
H1617 H 0.9368 0.92674 0.65224 0.0
H1618 H 0.9634 0.96147 0.64758 0.0
H1619 H 0.97976 0.93954 0.57466 0.0
H1620 H 0.95249 0.90465 0.5791 0.0
H1621 H 0.97772 0.99273 0.58362 0.0
H1622 H 0.01686 0.92107 0.61243 0.0
H1623 H 0.01867 0.88449 0.63776 0.0
H1624 H 0.01778 0.92825 0.70175 0.0
H1625 H 0.01549 0.9651 0.67681 0.0
C1626 C 0.07055 0.06128 0.61279 0.0
C1627 C 0.0677 0.07181 0.63572 0.0
C1628 C 0.05792 0.04018 0.6068 0.0
C1629 C 0.04256 0.02926 0.62377 0.0
C1630 C 0.04067 0.03915 0.64699 0.0
C1631 C 0.05296 0.06031 0.65286 0.0
C1632 C 0.02708 0.00843 0.61729 0.0
C1633 C 0.02939 0.9871 0.63074 0.0
C1634 C 0.00873 0.01023 0.59953 0.0
C1635 C 0.005 0.0326 0.58532 0.0
C1636 C 0.99966 0.05456 0.59691 0.0
C1637 C 0.99656 0.07566 0.58339 0.0
C1638 C 0.99849 0.07496 0.55823 0.0
C1639 C 0.00345 0.05314 0.54655 0.0
C1640 C 0.00664 0.032 0.56001 0.0
C1641 C 0.9455 0.92969 0.63495 0.0
C1642 C 0.94285 0.91295 0.6161 0.0
C1643 C 0.96067 0.94951 0.63232 0.0
C1644 C 0.97386 0.95274 0.61095 0.0
C1645 C 0.96974 0.93725 0.59129 0.0
C1646 C 0.95418 0.91741 0.59384 0.0
C1647 C 0.99401 0.97028 0.61088 0.0
C1648 C 0.99253 0.99095 0.59634 0.0
C1649 C 0.01319 0.96791 0.62763 0.0
C1650 C 0.01595 0.94587 0.64272 0.0
C1651 C 0.01703 0.9229 0.63191 0.0
C1652 C 0.01809 0.90211 0.64619 0.0
C1653 C 0.01833 0.90404 0.67134 0.0
C1654 C 0.01763 0.92678 0.68226 0.0
C1655 C 0.01649 0.94764 0.66805 0.0
H1656 H 0.01904 0.88791 0.68237 0.0
H1657 H 0.99608 0.09131 0.54779 0.0
H1658 H 0.95667 0.08579 0.33295 0.0
H1659 H 0.97791 0.0481 0.34132 0.0
H1660 H 0.94685 0.04591 0.41265 0.0
H1661 H 0.92491 0.08369 0.40424 0.0
H1662 H 0.00412 0.03761 0.40351 0.0
H1663 H 0.9232 0.00931 0.38549 0.0
H1664 H 0.88566 0.00913 0.3615 0.0
H1665 H 0.92563 0.98866 0.29831 0.0
H1666 H 0.96348 0.98911 0.32186 0.0
H1667 H 0.05488 0.91725 0.41113 0.0
H1668 H 0.03001 0.95357 0.41691 0.0
H1669 H 0.01837 0.95761 0.33986 0.0
H1670 H 0.04195 0.921 0.3343 0.0
H1671 H 0.97804 0.96355 0.36037 0.0
H1672 H 0.05803 0.9964 0.3737 0.0
H1673 H 0.09765 0.99959 0.39386 0.0
H1674 H 0.06255 0.01386 0.46151 0.0
H1675 H 0.02271 0.01047 0.44177 0.0
C1676 C 0.95431 0.07735 0.35045 0.0
C1677 C 0.93904 0.08761 0.36792 0.0
C1678 C 0.96649 0.05586 0.35519 0.0
C1679 C 0.96394 0.04438 0.37758 0.0
C1680 C 0.94902 0.05465 0.39529 0.0
C1681 C 0.93642 0.07605 0.39039 0.0
C1682 C 0.97647 0.0212 0.38168 0.0
C1683 C 0.99823 0.02116 0.39464 0.0
C1684 C 0.96897 0.00011 0.36951 0.0
C1685 C 0.94618 0.99941 0.35541 0.0
C1686 C 0.92401 0.00495 0.36644 0.0
C1687 C 0.90267 0.00477 0.35293 0.0
C1688 C 0.90326 0.99893 0.32839 0.0
C1689 C 0.9252 0.99319 0.31732 0.0
C1690 C 0.94659 0.99337 0.33075 0.0
C1691 C 0.04715 0.92613 0.3955 0.0
C1692 C 0.05021 0.91634 0.3723 0.0
C1693 C 0.03298 0.94687 0.39878 0.0
C1694 C 0.02226 0.95842 0.37881 0.0
C1695 C 0.02613 0.94895 0.35561 0.0
C1696 C 0.03973 0.92807 0.35242 0.0
C1697 C 0.00637 0.9799 0.38162 0.0
C1698 C 0.98386 0.97968 0.36985 0.0
C1699 C 0.01349 0.00086 0.39449 0.0
C1700 C 0.03741 0.00286 0.40634 0.0
C1701 C 0.05877 2e-05 0.39291 0.0
C1702 C 0.08126 0.0019 0.40425 0.0
C1703 C 0.08261 0.00683 0.42896 0.0
C1704 C 0.06148 0.00997 0.44238 0.0
C1705 C 0.03894 0.00808 0.43113 0.0
H1706 H 0.10004 0.00829 0.43771 0.0
H1707 H 0.88673 0.99882 0.31795 0.0
H1708 H 0.60136 0.92268 0.93129 0.0
H1709 H 0.59402 0.94879 0.9663 0.0
H1710 H 0.6266 0.00868 0.92854 0.0
H1711 H 0.63439 0.98272 0.89391 0.0
H1712 H 0.64598 0.00434 0.97122 0.0
H1713 H 0.56544 0.00627 0.94045 0.0
H1714 H 0.52693 0.98962 0.92552 0.0
H1715 H 0.51532 0.95438 0.99361 0.0
H1716 H 0.55397 0.97051 0.00884 0.0
H1717 H 0.61929 0.09408 0.05831 0.0
H1718 H 0.61241 0.07209 0.02039 0.0
H1719 H 0.60199 0.00609 0.06037 0.0
H1720 H 0.60956 0.02774 0.09817 0.0
H1721 H 0.56928 0.01527 0.01624 0.0
H1722 H 0.65255 0.00992 0.04422 0.0
H1723 H 0.69037 0.02799 0.05931 0.0
H1724 H 0.69579 0.07106 0.99503 0.0
H1725 H 0.65769 0.05357 0.9798 0.0
C1726 C 0.60661 0.9415 0.93036 0.0
C1727 C 0.61871 0.95056 0.90998 0.0
C1728 C 0.60234 0.95644 0.95033 0.0
C1729 C 0.60977 0.98073 0.95006 0.0
C1730 C 0.62086 0.98998 0.92926 0.0
C1731 C 0.6253 0.97508 0.90946 0.0
C1732 C 0.6079 0.99606 0.97201 0.0
C1733 C 0.62907 0.007 0.98074 0.0
C1734 C 0.58597 0.99921 0.98482 0.0
C1735 C 0.56274 0.98941 0.97571 0.0
C1736 C 0.55479 0.99479 0.95217 0.0
C1737 C 0.53291 0.98548 0.94367 0.0
C1738 C 0.51872 0.9709 0.95858 0.0
C1739 C 0.52635 0.96565 0.98206 0.0
C1740 C 0.54824 0.97488 0.99065 0.0
C1741 C 0.61497 0.07501 0.059 0.0
C1742 C 0.61517 0.06253 0.08107 0.0
C1743 C 0.61102 0.06251 0.0374 0.0
C1744 C 0.6067 0.03751 0.03769 0.0
C1745 C 0.60514 0.02539 0.05984 0.0
C1746 C 0.60964 0.03774 0.08135 0.0
C1747 C 0.60724 0.02345 0.01501 0.0
C1748 C 0.586 0.01269 0.00637 0.0
C1749 C 0.62903 0.02048 0.00212 0.0
C1750 C 0.65214 0.03068 0.01102 0.0
C1751 C 0.66169 0.02342 0.03342 0.0
C1752 C 0.68319 0.03352 0.04198 0.0
C1753 C 0.69544 0.05072 0.02817 0.0
C1754 C 0.68625 0.05778 0.00573 0.0
C1755 C 0.66471 0.04778 0.99713 0.0
H1756 H 0.71209 0.05852 0.03482 0.0
H1757 H 0.50177 0.96373 0.95197 0.0
H1758 H 0.41638 0.94276 0.08736 0.0
H1759 H 0.42636 0.96484 0.04998 0.0
H1760 H 0.35233 0.95853 0.02656 0.0
H1761 H 0.34216 0.93747 0.064 0.0
H1762 H 0.39237 0.94896 0.98968 0.0
H1763 H 0.3622 0.00582 0.05153 0.0
H1764 H 0.36506 0.02453 0.09186 0.0
H1765 H 0.43738 0.04784 0.07637 0.0
H1766 H 0.43506 0.02884 0.03606 0.0
H1767 H 0.34648 0.03138 0.90878 0.0
H1768 H 0.35597 0.00591 0.94323 0.0
H1769 H 0.4203 0.04772 0.95698 0.0
H1770 H 0.41047 0.07396 0.92256 0.0
H1771 H 0.39803 0.03804 0.99815 0.0
H1772 H 0.42459 0.99069 0.93257 0.0
H1773 H 0.42311 0.97164 0.89236 0.0
H1774 H 0.36189 0.92935 0.91414 0.0
H1775 H 0.36273 0.94842 0.95437 0.0
C1776 C 0.40244 0.94575 0.07395 0.0
C1777 C 0.37854 0.93851 0.07839 0.0
C1778 C 0.40812 0.95834 0.05274 0.0
C1779 C 0.39005 0.96318 0.03561 0.0
C1780 C 0.3665 0.9548 0.03954 0.0
C1781 C 0.36071 0.94288 0.06091 0.0
C1782 C 0.39468 0.97874 0.01446 0.0
C1783 C 0.39378 0.96842 0.9914 0.0
C1784 C 0.39734 0.00399 0.01691 0.0
C1785 C 0.39856 0.01569 0.04094 0.0
C1786 C 0.37878 0.01475 0.05681 0.0
C1787 C 0.38028 0.02544 0.07964 0.0
C1788 C 0.40139 0.03736 0.08667 0.0
C1789 C 0.42104 0.03859 0.07089 0.0
C1790 C 0.41965 0.02787 0.04806 0.0
C1791 C 0.3627 0.0352 0.91904 0.0
C1792 C 0.37779 0.05463 0.91285 0.0
C1793 C 0.3682 0.02048 0.93869 0.0
C1794 C 0.38918 0.0245 0.95237 0.0
C1795 C 0.40413 0.04416 0.94655 0.0
C1796 C 0.39848 0.05913 0.92692 0.0
C1797 C 0.39471 0.00837 0.97309 0.0
C1798 C 0.39746 0.01856 0.99616 0.0
C1799 C 0.39415 0.9829 0.9706 0.0
C1800 C 0.39369 0.97107 0.94651 0.0
C1801 C 0.41073 0.97742 0.92876 0.0
C1802 C 0.41001 0.96661 0.90596 0.0
C1803 C 0.39241 0.94931 0.9007 0.0
C1804 C 0.37553 0.94274 0.91825 0.0
C1805 C 0.37615 0.95352 0.94108 0.0
H1806 H 0.39187 0.94098 0.88302 0.0
H1807 H 0.40249 0.04568 0.10431 0.0
H1808 H 0.93808 0.61288 0.92445 0.0
H1809 H 0.97367 0.60388 0.94916 0.0
H1810 H 0.93383 0.62257 0.01347 0.0
H1811 H 0.89864 0.63232 0.98889 0.0
H1812 H 0.97465 0.64427 0.01453 0.0
H1813 H 0.95065 0.56283 0.99877 0.0
H1814 H 0.93905 0.52765 0.97406 0.0
H1815 H 0.00781 0.52962 0.9383 0.0
H1816 H 0.0197 0.56504 0.96257 0.0
H1817 H 0.06418 0.60782 0.09788 0.0
H1818 H 0.02668 0.60278 0.07475 0.0
H1819 H 0.06703 0.60594 0.00826 0.0
H1820 H 0.10443 0.61153 0.03119 0.0
H1821 H 0.02574 0.57081 0.00973 0.0
H1822 H 0.04718 0.65481 0.02343 0.0
H1823 H 0.0589 0.68903 0.0494 0.0
H1824 H 0.99359 0.68076 0.09035 0.0
H1825 H 0.98169 0.64617 0.06484 0.0
C1826 C 0.93685 0.61476 0.94388 0.0
C1827 C 0.91562 0.62348 0.95469 0.0
C1828 C 0.95718 0.6095 0.95802 0.0
C1829 C 0.95646 0.61242 0.98326 0.0
C1830 C 0.93493 0.62029 0.99407 0.0
C1831 C 0.91479 0.62584 0.97996 0.0
C1832 C 0.9785 0.60903 0.99832 0.0
C1833 C 0.98548 0.62797 0.01372 0.0
C1834 C 0.99308 0.58802 0.99701 0.0
C1835 C 0.98597 0.56675 0.98234 0.0
C1836 C 0.96322 0.55589 0.9855 0.0
C1837 C 0.95661 0.53588 0.97159 0.0
C1838 C 0.97266 0.52644 0.95458 0.0
C1839 C 0.99538 0.53697 0.95147 0.0
C1840 C 0.00208 0.557 0.96531 0.0
C1841 C 0.0651 0.6068 0.07837 0.0
C1842 C 0.08712 0.61027 0.0663 0.0
C1843 C 0.04371 0.60395 0.06519 0.0
C1844 C 0.04415 0.60409 0.03982 0.0
C1845 C 0.06636 0.60569 0.02781 0.0
C1846 C 0.08765 0.60901 0.04093 0.0
C1847 C 0.02142 0.60588 0.02585 0.0
C1848 C 0.01454 0.58686 0.0106 0.0
C1849 C 0.00677 0.6267 0.02735 0.0
C1850 C 0.01369 0.64773 0.04243 0.0
C1851 C 0.03543 0.66015 0.03811 0.0
C1852 C 0.04209 0.67963 0.05272 0.0
C1853 C 0.02704 0.68702 0.07156 0.0
C1854 C 0.00525 0.67498 0.07578 0.0
C1855 C 0.99854 0.65544 0.06125 0.0
H1856 H 0.03222 0.70211 0.08286 0.0
H1857 H 0.96751 0.51094 0.94384 0.0
H1858 H 0.07323 0.34385 0.94454 0.0
H1859 H 0.03563 0.35486 0.96462 0.0
H1860 H 0.04643 0.42941 0.94491 0.0
H1861 H 0.0842 0.41836 0.92404 0.0
H1862 H 0.03492 0.41398 0.99947 0.0
H1863 H 0.0054 0.4127 0.91806 0.0
H1864 H 0.00177 0.39612 0.87689 0.0
H1865 H 0.97146 0.33072 0.90544 0.0
H1866 H 0.97526 0.34675 0.94683 0.0
H1867 H 0.91805 0.41842 0.05867 0.0
H1868 H 0.95147 0.42858 0.03124 0.0
H1869 H 0.95332 0.35469 0.00646 0.0
H1870 H 0.91996 0.34472 0.03299 0.0
H1871 H 0.95625 0.38337 0.96943 0.0
H1872 H 0.99439 0.37909 0.0489 0.0
H1873 H 0.00043 0.39183 0.09117 0.0
H1874 H 0.01609 0.46403 0.06757 0.0
H1875 H 0.00988 0.45174 0.02515 0.0
C1876 C 0.06758 0.36259 0.94431 0.0
C1877 C 0.0816 0.38027 0.93272 0.0
C1878 C 0.04611 0.36883 0.95577 0.0
C1879 C 0.03837 0.3929 0.95622 0.0
C1880 C 0.05222 0.41072 0.94469 0.0
C1881 C 0.07361 0.40438 0.9327 0.0
C1882 C 0.01583 0.39878 0.96921 0.0
C1883 C 0.0175 0.40804 0.99273 0.0
C1884 C 0.99335 0.39055 0.96046 0.0
C1885 C 0.99072 0.38091 0.93557 0.0
C1886 C 0.99812 0.39472 0.91558 0.0
C1887 C 0.996 0.38543 0.8922 0.0
C1888 C 0.98642 0.36237 0.88855 0.0
C1889 C 0.97887 0.34858 0.90829 0.0
C1890 C 0.98096 0.35778 0.93171 0.0
C1891 C 0.9257 0.4044 0.04738 0.0
C1892 C 0.91634 0.38079 0.04796 0.0
C1893 C 0.94476 0.41021 0.03172 0.0
C1894 C 0.95492 0.3924 0.01673 0.0
C1895 C 0.94565 0.36884 0.01759 0.0
C1896 C 0.92658 0.36313 0.0329 0.0
C1897 C 0.97543 0.39757 0.00022 0.0
C1898 C 0.97339 0.39025 0.976 0.0
C1899 C 0.99763 0.40724 0.00849 0.0
C1900 C 0.00135 0.41459 0.03393 0.0
C1901 C 0.99894 0.39772 0.05276 0.0
C1902 C 0.00242 0.40485 0.07673 0.0
C1903 C 0.00855 0.42875 0.08206 0.0
C1904 C 0.01128 0.44555 0.06342 0.0
C1905 C 0.00778 0.43851 0.03942 0.0
H1906 H 0.01125 0.43423 0.10063 0.0
H1907 H 0.98481 0.35521 0.87044 0.0
loop_
_geom_bond_atom_site_label_1
_geom_bond_atom_site_label_2
_geom_bond_distance
_geom_bond_site_symmetry_2
_ccdc_geom_bond_type
Co0 O2 2.143 . S
Co0 O8 2.074 . S
Co0 O11 2.093 . S
Co0 O24 2.097 . S
Co0 N41 2.151 . S
Co0 N49 2.214 . S
Co1 O2 2.160 . S
Co1 O7 2.058 . S
Co1 O17 2.057 . S
Co1 O32 2.037 . S
Co1 N36 2.145 . S
Co1 N57 2.257 . S
O2 Co0 2.143 . S
O2 Co1 2.160 . S
C3 O4 1.278 . S
C3 O11 1.224 . S
O4 C3 1.278 . S
C5 O6 1.245 . S
C5 O17 1.232 . S
O6 C5 1.245 . S
O7 Co1 2.058 . S
O7 C33 1.269 . S
O8 Co0 2.074 . S
O8 C33 1.257 . S
H9 C34 0.930 . S
H10 C40 0.930 . S
O11 Co0 2.093 . S
O11 C3 1.224 . S
H12 C44 0.929 . S
H13 C46 0.930 . S
H14 C47 0.930 . S
H15 C45 0.929 . S
H16 C48 0.928 . S
O17 Co1 2.057 . S
O17 C5 1.232 . S
H18 C37 0.929 . S
H19 C38 0.929 . S
H20 C50 0.931 . S
H21 C42 0.929 . S
H22 C51 0.930 . S
H23 C43 0.931 . S
O24 Co0 2.097 . S
O24 C52 1.214 . S
H25 C53 0.929 . S
H26 C54 0.929 . S
H27 C55 0.930 . S
H28 C56 0.929 . S
H29 C58 0.930 . S
H30 C35 0.930 . S
H31 C39 0.930 . S
O32 Co1 2.037 . S
O32 C52 1.234 . S
C33 O7 1.269 . S
C33 O8 1.257 . S
C34 H9 0.930 . S
C34 C37 1.388 . S
C34 C39 1.418 . S
C35 H30 0.930 . S
C35 C38 1.404 . S
C35 C39 1.353 . S
N36 Co1 2.145 . S
N36 C37 1.397 . S
N36 C38 1.334 . S
C37 H18 0.929 . S
C37 C34 1.388 . S
C37 N36 1.397 . S
C38 H19 0.929 . S
C38 C35 1.404 . S
C38 N36 1.334 . S
C39 H31 0.930 . S
C39 C34 1.418 . S
C39 C35 1.353 . S
C40 H10 0.930 . S
C40 N41 1.330 . S
C40 C42 1.446 1_455 S
N41 Co0 2.151 . S
N41 C40 1.330 . S
N41 C45 1.418 . S
C42 H21 0.929 . S
C42 C40 1.446 1_655 S
C42 C43 1.332 . S
C43 H23 0.931 . S
C43 C42 1.332 . S
C43 C44 1.267 1_655 S
C44 H12 0.929 . S
C44 C43 1.267 1_455 S
C44 C45 1.251 . S
C45 H15 0.929 . S
C45 N41 1.418 . S
C45 C44 1.251 . S
C46 H13 0.930 . S
C46 C48 1.406 . S
C46 C51 1.261 . S
C47 H14 0.930 . S
C47 N49 1.325 . S
C47 C50 1.357 . S
C48 H16 0.928 . S
C48 C46 1.406 . S
C48 N49 1.261 . S
N49 Co0 2.214 . S
N49 C47 1.325 . S
N49 C48 1.261 . S
C50 H20 0.931 . S
C50 C47 1.357 . S
C50 C51 1.312 . S
C51 H22 0.930 . S
C51 C46 1.261 . S
C51 C50 1.312 . S
C52 O24 1.214 . S
C52 O32 1.234 . S
C53 H25 0.929 . S
C53 C56 1.391 . S
C53 C58 1.391 . S
C54 H26 0.929 . S
C54 C55 1.390 . S
C54 N57 1.391 . S
C55 H27 0.930 . S
C55 C54 1.390 . S
C55 C56 1.392 . S
C56 H28 0.929 . S
C56 C53 1.391 . S
C56 C55 1.392 . S
N57 Co1 2.257 . S
N57 C54 1.391 . S
N57 C58 1.388 . S
C58 H29 0.930 . S
C58 C53 1.391 . S
C58 N57 1.388 . S
Co59 O61 2.143 . S
Co59 O67 2.074 . S
Co59 O70 2.093 . S
Co59 O83 2.097 . S
Co59 N100 2.151 . S
Co59 N108 2.214 . S
Co60 O61 2.160 . S
Co60 O66 2.058 . S
Co60 O76 2.057 . S
Co60 O91 2.037 . S
Co60 N95 2.145 . S
Co60 N116 2.257 . S
O61 Co59 2.143 . S
O61 Co60 2.160 . S
C62 O63 1.278 . S
C62 O70 1.224 . S
O63 C62 1.278 . S
C64 O65 1.245 . S
C64 O76 1.232 . S
O65 C64 1.245 . S
O66 Co60 2.058 . S
O66 C92 1.269 . S
O67 Co59 2.074 . S
O67 C92 1.257 . S
H68 C93 0.930 . S
H69 C99 0.930 . S
O70 Co59 2.093 . S
O70 C62 1.224 . S
H71 C103 0.929 . S
H72 C105 0.930 . S
H73 C106 0.930 . S
H74 C104 0.929 . S
H75 C107 0.928 . S
O76 Co60 2.057 . S
O76 C64 1.232 . S
H77 C96 0.929 . S
H78 C97 0.929 . S
H79 C109 0.931 . S
H80 C101 0.929 . S
H81 C110 0.930 . S
H82 C102 0.931 . S
O83 Co59 2.097 . S
O83 C111 1.214 . S
H84 C112 0.929 . S
H85 C113 0.929 . S
H86 C114 0.930 . S
H87 C115 0.929 . S
H88 C117 0.930 . S
H89 C94 0.930 . S
H90 C98 0.930 . S
O91 Co60 2.037 . S
O91 C111 1.234 . S
C92 O66 1.269 . S
C92 O67 1.257 . S
C93 H68 0.930 . S
C93 C96 1.388 . S
C93 C98 1.418 . S
C94 H89 0.930 . S
C94 C97 1.404 . S
C94 C98 1.353 . S
N95 Co60 2.145 . S
N95 C96 1.397 . S
N95 C97 1.334 . S
C96 H77 0.929 . S
C96 C93 1.388 . S
C96 N95 1.397 . S
C97 H78 0.929 . S
C97 C94 1.404 . S
C97 N95 1.334 . S
C98 H90 0.930 . S
C98 C93 1.418 . S
C98 C94 1.353 . S
C99 H69 0.930 . S
C99 N100 1.330 . S
C99 C101 1.446 1_655 S
N100 Co59 2.151 . S
N100 C99 1.330 . S
N100 C104 1.418 . S
C101 H80 0.929 . S
C101 C99 1.446 1_455 S
C101 C102 1.332 . S
C102 H82 0.931 . S
C102 C101 1.332 . S
C102 C103 1.267 1_455 S
C103 H71 0.929 . S
C103 C102 1.267 1_655 S
C103 C104 1.251 . S
C104 H74 0.929 . S
C104 N100 1.418 . S
C104 C103 1.251 . S
C105 H72 0.930 . S
C105 C107 1.406 . S
C105 C110 1.261 . S
C106 H73 0.930 . S
C106 N108 1.325 . S
C106 C109 1.357 . S
C107 H75 0.928 . S
C107 C105 1.406 . S
C107 N108 1.261 . S
N108 Co59 2.214 . S
N108 C106 1.325 . S
N108 C107 1.261 . S
C109 H79 0.931 . S
C109 C106 1.357 . S
C109 C110 1.312 . S
C110 H81 0.930 . S
C110 C105 1.261 . S
C110 C109 1.312 . S
C111 O83 1.214 . S
C111 O91 1.234 . S
C112 H84 0.929 . S
C112 C115 1.391 . S
C112 C117 1.391 . S
C113 H85 0.929 . S
C113 C114 1.390 . S
C113 N116 1.391 . S
C114 H86 0.930 . S
C114 C113 1.390 . S
C114 C115 1.392 . S
C115 H87 0.929 . S
C115 C112 1.391 . S
C115 C114 1.392 . S
N116 Co60 2.257 . S
N116 C113 1.391 . S
N116 C117 1.388 . S
C117 H88 0.930 . S
C117 C112 1.391 . S
C117 N116 1.388 . S
Co118 O120 2.143 . S
Co118 O126 2.074 . S
Co118 O129 2.093 . S
Co118 O142 2.097 . S
Co118 N159 2.151 . S
Co118 N167 2.214 . S
Co119 O120 2.160 . S
Co119 O125 2.058 . S
Co119 O135 2.057 . S
Co119 O150 2.037 . S
Co119 N154 2.145 . S
Co119 N175 2.257 . S
O120 Co118 2.143 . S
O120 Co119 2.160 . S
C121 O122 1.278 . S
C121 O129 1.224 . S
O122 C121 1.278 . S
C123 O124 1.245 . S
C123 O135 1.232 . S
O124 C123 1.245 . S
O125 Co119 2.058 . S
O125 C151 1.269 . S
O126 Co118 2.074 . S
O126 C151 1.257 . S
H127 C152 0.930 . S
H128 C158 0.930 . S
O129 Co118 2.093 . S
O129 C121 1.224 . S
H130 C162 0.929 . S
H131 C164 0.930 . S
H132 C165 0.930 . S
H133 C163 0.929 . S
H134 C166 0.928 . S
O135 Co119 2.057 . S
O135 C123 1.232 . S
H136 C155 0.929 . S
H137 C156 0.929 . S
H138 C168 0.931 . S
H139 C160 0.929 . S
H140 C169 0.930 . S
H141 C161 0.931 . S
O142 Co118 2.097 . S
O142 C170 1.214 . S
H143 C171 0.929 . S
H144 C172 0.929 . S
H145 C173 0.930 . S
H146 C174 0.929 . S
H147 C176 0.930 . S
H148 C153 0.930 . S
H149 C157 0.930 . S
O150 Co119 2.037 . S
O150 C170 1.234 . S
C151 O125 1.269 . S
C151 O126 1.257 . S
C152 H127 0.930 . S
C152 C155 1.388 . S
C152 C157 1.418 . S
C153 H148 0.930 . S
C153 C156 1.404 . S
C153 C157 1.353 . S
N154 Co119 2.145 . S
N154 C155 1.397 . S
N154 C156 1.334 . S
C155 H136 0.929 . S
C155 C152 1.388 . S
C155 N154 1.397 . S
C156 H137 0.929 . S
C156 C153 1.404 . S
C156 N154 1.334 . S
C157 H149 0.930 . S
C157 C152 1.418 . S
C157 C153 1.353 . S
C158 H128 0.930 . S
C158 N159 1.330 . S
C158 C160 1.446 1_455 S
N159 Co118 2.151 . S
N159 C158 1.330 . S
N159 C163 1.418 . S
C160 H139 0.929 . S
C160 C158 1.446 1_655 S
C160 C161 1.332 . S
C161 H141 0.931 . S
C161 C160 1.332 . S
C161 C162 1.267 1_655 S
C162 H130 0.929 . S
C162 C161 1.267 1_455 S
C162 C163 1.251 . S
C163 H133 0.929 . S
C163 N159 1.418 . S
C163 C162 1.251 . S
C164 H131 0.930 . S
C164 C166 1.406 . S
C164 C169 1.261 . S
C165 H132 0.930 . S
C165 N167 1.325 . S
C165 C168 1.357 . S
C166 H134 0.928 . S
C166 C164 1.406 . S
C166 N167 1.261 . S
N167 Co118 2.214 . S
N167 C165 1.325 . S
N167 C166 1.261 . S
C168 H138 0.931 . S
C168 C165 1.357 . S
C168 C169 1.312 . S
C169 H140 0.930 . S
C169 C164 1.261 . S
C169 C168 1.312 . S
C170 O142 1.214 . S
C170 O150 1.234 . S
C171 H143 0.929 . S
C171 C174 1.391 . S
C171 C176 1.391 . S
C172 H144 0.929 . S
C172 C173 1.390 . S
C172 N175 1.391 . S
C173 H145 0.930 . S
C173 C172 1.390 . S
C173 C174 1.392 . S
C174 H146 0.929 . S
C174 C171 1.391 . S
C174 C173 1.392 . S
N175 Co119 2.257 . S
N175 C172 1.391 . S
N175 C176 1.388 . S
C176 H147 0.930 . S
C176 C171 1.391 . S
C176 N175 1.388 . S
Co177 O179 2.143 . S
Co177 O185 2.074 . S
Co177 O188 2.093 . S
Co177 O201 2.097 . S
Co177 N218 2.151 . S
Co177 N226 2.214 . S
Co178 O179 2.160 . S
Co178 O184 2.058 . S
Co178 O194 2.057 . S
Co178 O209 2.037 . S
Co178 N213 2.145 . S
Co178 N234 2.257 . S
O179 Co177 2.143 . S
O179 Co178 2.160 . S
C180 O181 1.278 . S
C180 O188 1.224 . S
O181 C180 1.278 . S
C182 O183 1.245 . S
C182 O194 1.232 . S
O183 C182 1.245 . S
O184 Co178 2.058 . S
O184 C210 1.269 . S
O185 Co177 2.074 . S
O185 C210 1.257 . S
H186 C211 0.930 . S
H187 C217 0.930 . S
O188 Co177 2.093 . S
O188 C180 1.224 . S
H189 C221 0.929 . S
H190 C223 0.930 . S
H191 C224 0.930 . S
H192 C222 0.929 . S
H193 C225 0.928 . S
O194 Co178 2.057 . S
O194 C182 1.232 . S
H195 C214 0.929 . S
H196 C215 0.929 . S
H197 C227 0.931 . S
H198 C219 0.929 . S
H199 C228 0.930 . S
H200 C220 0.931 . S
O201 Co177 2.097 . S
O201 C229 1.214 . S
H202 C230 0.929 . S
H203 C231 0.929 . S
H204 C232 0.930 . S
H205 C233 0.929 . S
H206 C235 0.930 . S
H207 C212 0.930 . S
H208 C216 0.930 . S
O209 Co178 2.037 . S
O209 C229 1.234 . S
C210 O184 1.269 . S
C210 O185 1.257 . S
C211 H186 0.930 . S
C211 C214 1.388 . S
C211 C216 1.418 . S
C212 H207 0.930 . S
C212 C215 1.404 . S
C212 C216 1.353 . S
N213 Co178 2.145 . S
N213 C214 1.397 . S
N213 C215 1.334 . S
C214 H195 0.929 . S
C214 C211 1.388 . S
C214 N213 1.397 . S
C215 H196 0.929 . S
C215 C212 1.404 . S
C215 N213 1.334 . S
C216 H208 0.930 . S
C216 C211 1.418 . S
C216 C212 1.353 . S
C217 H187 0.930 . S
C217 N218 1.330 . S
C217 C219 1.446 1_655 S
N218 Co177 2.151 . S
N218 C217 1.330 . S
N218 C222 1.418 . S
C219 H198 0.929 . S
C219 C217 1.446 1_455 S
C219 C220 1.332 . S
C220 H200 0.931 . S
C220 C219 1.332 . S
C220 C221 1.267 1_455 S
C221 H189 0.929 . S
C221 C220 1.267 1_655 S
C221 C222 1.251 . S
C222 H192 0.929 . S
C222 N218 1.418 . S
C222 C221 1.251 . S
C223 H190 0.930 . S
C223 C225 1.406 . S
C223 C228 1.261 . S
C224 H191 0.930 . S
C224 N226 1.325 . S
C224 C227 1.357 . S
C225 H193 0.928 . S
C225 C223 1.406 . S
C225 N226 1.261 . S
N226 Co177 2.214 . S
N226 C224 1.325 . S
N226 C225 1.261 . S
C227 H197 0.931 . S
C227 C224 1.357 . S
C227 C228 1.312 . S
C228 H199 0.930 . S
C228 C223 1.261 . S
C228 C227 1.312 . S
C229 O201 1.214 . S
C229 O209 1.234 . S
C230 H202 0.929 . S
C230 C233 1.391 . S
C230 C235 1.391 . S
C231 H203 0.929 . S
C231 C232 1.390 . S
C231 N234 1.391 . S
C232 H204 0.930 . S
C232 C231 1.390 . S
C232 C233 1.392 . S
C233 H205 0.929 . S
C233 C230 1.391 . S
C233 C232 1.392 . S
N234 Co178 2.257 . S
N234 C231 1.391 . S
N234 C235 1.388 . S
C235 H206 0.930 . S
C235 C230 1.391 . S
C235 N234 1.388 . S
Co236 O238 2.143 . S
Co236 O244 2.074 . S
Co236 O247 2.093 . S
Co236 O260 2.097 . S
Co236 N277 2.151 . S
Co236 N285 2.214 . S
Co237 O238 2.160 . S
Co237 O243 2.058 . S
Co237 O253 2.057 . S
Co237 O268 2.037 . S
Co237 N272 2.145 . S
Co237 N293 2.257 . S
O238 Co236 2.143 . S
O238 Co237 2.160 . S
C239 O240 1.278 . S
C239 O247 1.224 . S
O240 C239 1.278 . S
C241 O242 1.245 . S
C241 O253 1.232 . S
O242 C241 1.245 . S
O243 Co237 2.058 . S
O243 C269 1.269 . S
O244 Co236 2.074 . S
O244 C269 1.257 . S
H245 C270 0.930 . S
H246 C276 0.930 . S
O247 Co236 2.093 . S
O247 C239 1.224 . S
H248 C280 0.929 . S
H249 C282 0.930 . S
H250 C283 0.930 . S
H251 C281 0.929 . S
H252 C284 0.928 . S
O253 Co237 2.057 . S
O253 C241 1.232 . S
H254 C273 0.929 . S
H255 C274 0.929 . S
H256 C286 0.931 . S
H257 C278 0.929 . S
H258 C287 0.930 . S
H259 C279 0.931 . S
O260 Co236 2.097 . S
O260 C288 1.214 . S
H261 C289 0.929 . S
H262 C290 0.929 . S
H263 C291 0.930 . S
H264 C292 0.929 . S
H265 C294 0.930 . S
H266 C271 0.930 . S
H267 C275 0.930 . S
O268 Co237 2.037 . S
O268 C288 1.234 . S
C269 O243 1.269 . S
C269 O244 1.257 . S
C270 H245 0.930 . S
C270 C273 1.388 . S
C270 C275 1.418 . S
C271 H266 0.930 . S
C271 C274 1.404 . S
C271 C275 1.353 . S
N272 Co237 2.145 . S
N272 C273 1.397 . S
N272 C274 1.334 . S
C273 H254 0.929 . S
C273 C270 1.388 . S
C273 N272 1.397 . S
C274 H255 0.929 . S
C274 C271 1.404 . S
C274 N272 1.334 . S
C275 H267 0.930 . S
C275 C270 1.418 . S
C275 C271 1.353 . S
C276 H246 0.930 . S
C276 N277 1.330 . S
C276 C278 1.446 1_545 S
N277 Co236 2.151 . S
N277 C276 1.330 . S
N277 C281 1.418 . S
C278 H257 0.929 . S
C278 C276 1.446 1_565 S
C278 C279 1.332 . S
C279 H259 0.931 . S
C279 C278 1.332 . S
C279 C280 1.267 1_565 S
C280 H248 0.929 . S
C280 C279 1.267 1_545 S
C280 C281 1.251 . S
C281 H251 0.929 . S
C281 N277 1.418 . S
C281 C280 1.251 . S
C282 H249 0.930 . S
C282 C284 1.406 . S
C282 C287 1.261 . S
C283 H250 0.930 . S
C283 N285 1.325 . S
C283 C286 1.357 . S
C284 H252 0.928 . S
C284 C282 1.406 . S
C284 N285 1.261 . S
N285 Co236 2.214 . S
N285 C283 1.325 . S
N285 C284 1.261 . S
C286 H256 0.931 . S
C286 C283 1.357 . S
C286 C287 1.312 . S
C287 H258 0.930 . S
C287 C282 1.261 . S
C287 C286 1.312 . S
C288 O260 1.214 . S
C288 O268 1.234 . S
C289 H261 0.929 . S
C289 C292 1.391 . S
C289 C294 1.391 . S
C290 H262 0.929 . S
C290 C291 1.390 . S
C290 N293 1.391 . S
C291 H263 0.930 . S
C291 C290 1.390 . S
C291 C292 1.392 . S
C292 H264 0.929 . S
C292 C289 1.391 . S
C292 C291 1.392 . S
N293 Co237 2.257 . S
N293 C290 1.391 . S
N293 C294 1.388 . S
C294 H265 0.930 . S
C294 C289 1.391 . S
C294 N293 1.388 . S
Co295 O297 2.143 . S
Co295 O303 2.074 . S
Co295 O306 2.093 . S
Co295 O319 2.097 . S
Co295 N336 2.151 . S
Co295 N344 2.214 . S
Co296 O297 2.160 . S
Co296 O302 2.058 . S
Co296 O312 2.057 . S
Co296 O327 2.037 . S
Co296 N331 2.145 . S
Co296 N352 2.257 . S
O297 Co295 2.143 . S
O297 Co296 2.160 . S
C298 O299 1.278 . S
C298 O306 1.224 . S
O299 C298 1.278 . S
C300 O301 1.245 . S
C300 O312 1.232 . S
O301 C300 1.245 . S
O302 Co296 2.058 . S
O302 C328 1.269 . S
O303 Co295 2.074 . S
O303 C328 1.257 . S
H304 C329 0.930 . S
H305 C335 0.930 . S
O306 Co295 2.093 . S
O306 C298 1.224 . S
H307 C339 0.929 . S
H308 C341 0.930 . S
H309 C342 0.930 . S
H310 C340 0.929 . S
H311 C343 0.928 . S
O312 Co296 2.057 . S
O312 C300 1.232 . S
H313 C332 0.929 . S
H314 C333 0.929 . S
H315 C345 0.931 . S
H316 C337 0.929 . S
H317 C346 0.930 . S
H318 C338 0.931 . S
O319 Co295 2.097 . S
O319 C347 1.214 . S
H320 C348 0.929 . S
H321 C349 0.929 . S
H322 C350 0.930 . S
H323 C351 0.929 . S
H324 C353 0.930 . S
H325 C330 0.930 . S
H326 C334 0.930 . S
O327 Co296 2.037 . S
O327 C347 1.234 . S
C328 O302 1.269 . S
C328 O303 1.257 . S
C329 H304 0.930 . S
C329 C332 1.388 . S
C329 C334 1.418 . S
C330 H325 0.930 . S
C330 C333 1.404 . S
C330 C334 1.353 . S
N331 Co296 2.145 . S
N331 C332 1.397 . S
N331 C333 1.334 . S
C332 H313 0.929 . S
C332 C329 1.388 . S
C332 N331 1.397 . S
C333 H314 0.929 . S
C333 C330 1.404 . S
C333 N331 1.334 . S
C334 H326 0.930 . S
C334 C329 1.418 . S
C334 C330 1.353 . S
C335 H305 0.930 . S
C335 N336 1.330 . S
C335 C337 1.446 1_565 S
N336 Co295 2.151 . S
N336 C335 1.330 . S
N336 C340 1.418 . S
C337 H316 0.929 . S
C337 C335 1.446 1_545 S
C337 C338 1.332 . S
C338 H318 0.931 . S
C338 C337 1.332 . S
C338 C339 1.267 1_545 S
C339 H307 0.929 . S
C339 C338 1.267 1_565 S
C339 C340 1.251 . S
C340 H310 0.929 . S
C340 N336 1.418 . S
C340 C339 1.251 . S
C341 H308 0.930 . S
C341 C343 1.406 . S
C341 C346 1.261 . S
C342 H309 0.930 . S
C342 N344 1.325 . S
C342 C345 1.357 . S
C343 H311 0.928 . S
C343 C341 1.406 . S
C343 N344 1.261 . S
N344 Co295 2.214 . S
N344 C342 1.325 . S
N344 C343 1.261 . S
C345 H315 0.931 . S
C345 C342 1.357 . S
C345 C346 1.312 . S
C346 H317 0.930 . S
C346 C341 1.261 . S
C346 C345 1.312 . S
C347 O319 1.214 . S
C347 O327 1.234 . S
C348 H320 0.929 . S
C348 C351 1.391 . S
C348 C353 1.391 . S
C349 H321 0.929 . S
C349 C350 1.390 . S
C349 N352 1.391 . S
C350 H322 0.930 . S
C350 C349 1.390 . S
C350 C351 1.392 . S
C351 H323 0.929 . S
C351 C348 1.391 . S
C351 C350 1.392 . S
N352 Co296 2.257 . S
N352 C349 1.391 . S
N352 C353 1.388 . S
C353 H324 0.930 . S
C353 C348 1.391 . S
C353 N352 1.388 . S
Co354 O356 2.143 . S
Co354 O362 2.074 . S
Co354 O365 2.093 . S
Co354 O378 2.097 . S
Co354 N395 2.151 . S
Co354 N403 2.214 . S
Co355 O356 2.160 . S
Co355 O361 2.058 . S
Co355 O371 2.057 . S
Co355 O386 2.037 . S
Co355 N390 2.145 . S
Co355 N411 2.257 . S
O356 Co354 2.143 . S
O356 Co355 2.160 . S
C357 O358 1.278 . S
C357 O365 1.224 . S
O358 C357 1.278 . S
C359 O360 1.245 . S
C359 O371 1.232 . S
O360 C359 1.245 . S
O361 Co355 2.058 . S
O361 C387 1.269 . S
O362 Co354 2.074 . S
O362 C387 1.257 . S
H363 C388 0.930 . S
H364 C394 0.930 . S
O365 Co354 2.093 . S
O365 C357 1.224 . S
H366 C398 0.929 . S
H367 C400 0.930 . S
H368 C401 0.930 . S
H369 C399 0.929 . S
H370 C402 0.928 . S
O371 Co355 2.057 . S
O371 C359 1.232 . S
H372 C391 0.929 . S
H373 C392 0.929 . S
H374 C404 0.931 . S
H375 C396 0.929 . S
H376 C405 0.930 . S
H377 C397 0.931 . S
O378 Co354 2.097 . S
O378 C406 1.214 . S
H379 C407 0.929 . S
H380 C408 0.929 . S
H381 C409 0.930 . S
H382 C410 0.929 . S
H383 C412 0.930 . S
H384 C389 0.930 . S
H385 C393 0.930 . S
O386 Co355 2.037 . S
O386 C406 1.234 . S
C387 O361 1.269 . S
C387 O362 1.257 . S
C388 H363 0.930 . S
C388 C391 1.388 . S
C388 C393 1.418 . S
C389 H384 0.930 . S
C389 C392 1.404 . S
C389 C393 1.353 . S
N390 Co355 2.145 . S
N390 C391 1.397 . S
N390 C392 1.334 . S
C391 H372 0.929 . S
C391 C388 1.388 . S
C391 N390 1.397 . S
C392 H373 0.929 . S
C392 C389 1.404 . S
C392 N390 1.334 . S
C393 H385 0.930 . S
C393 C388 1.418 . S
C393 C389 1.353 . S
C394 H364 0.930 . S
C394 N395 1.330 . S
C394 C396 1.446 1_565 S
N395 Co354 2.151 . S
N395 C394 1.330 . S
N395 C399 1.418 . S
C396 H375 0.929 . S
C396 C394 1.446 1_545 S
C396 C397 1.332 . S
C397 H377 0.931 . S
C397 C396 1.332 . S
C397 C398 1.267 1_545 S
C398 H366 0.929 . S
C398 C397 1.267 1_565 S
C398 C399 1.251 . S
C399 H369 0.929 . S
C399 N395 1.418 . S
C399 C398 1.251 . S
C400 H367 0.930 . S
C400 C402 1.406 . S
C400 C405 1.261 . S
C401 H368 0.930 . S
C401 N403 1.325 . S
C401 C404 1.357 . S
C402 H370 0.928 . S
C402 C400 1.406 . S
C402 N403 1.261 . S
N403 Co354 2.214 . S
N403 C401 1.325 . S
N403 C402 1.261 . S
C404 H374 0.931 . S
C404 C401 1.357 . S
C404 C405 1.312 . S
C405 H376 0.930 . S
C405 C400 1.261 . S
C405 C404 1.312 . S
C406 O378 1.214 . S
C406 O386 1.234 . S
C407 H379 0.929 . S
C407 C410 1.391 . S
C407 C412 1.391 . S
C408 H380 0.929 . S
C408 C409 1.390 . S
C408 N411 1.391 . S
C409 H381 0.930 . S
C409 C408 1.390 . S
C409 C410 1.392 . S
C410 H382 0.929 . S
C410 C407 1.391 . S
C410 C409 1.392 . S
N411 Co355 2.257 . S
N411 C408 1.391 . S
N411 C412 1.388 . S
C412 H383 0.930 . S
C412 C407 1.391 . S
C412 N411 1.388 . S
Co413 O415 2.143 . S
Co413 O421 2.074 . S
Co413 O424 2.093 . S
Co413 O437 2.097 . S
Co413 N454 2.151 . S
Co413 N462 2.214 . S
Co414 O415 2.160 . S
Co414 O420 2.058 . S
Co414 O430 2.057 . S
Co414 O445 2.037 . S
Co414 N449 2.145 . S
Co414 N470 2.257 . S
O415 Co413 2.143 . S
O415 Co414 2.160 . S
C416 O417 1.278 . S
C416 O424 1.224 . S
O417 C416 1.278 . S
C418 O419 1.245 . S
C418 O430 1.232 . S
O419 C418 1.245 . S
O420 Co414 2.058 . S
O420 C446 1.269 . S
O421 Co413 2.074 . S
O421 C446 1.257 . S
H422 C447 0.930 . S
H423 C453 0.930 . S
O424 Co413 2.093 . S
O424 C416 1.224 . S
H425 C457 0.929 . S
H426 C459 0.930 . S
H427 C460 0.930 . S
H428 C458 0.929 . S
H429 C461 0.928 . S
O430 Co414 2.057 . S
O430 C418 1.232 . S
H431 C450 0.929 . S
H432 C451 0.929 . S
H433 C463 0.931 . S
H434 C455 0.929 . S
H435 C464 0.930 . S
H436 C456 0.931 . S
O437 Co413 2.097 . S
O437 C465 1.214 . S
H438 C466 0.929 . S
H439 C467 0.929 . S
H440 C468 0.930 . S
H441 C469 0.929 . S
H442 C471 0.930 . S
H443 C448 0.930 . S
H444 C452 0.930 . S
O445 Co414 2.037 . S
O445 C465 1.234 . S
C446 O420 1.269 . S
C446 O421 1.257 . S
C447 H422 0.930 . S
C447 C450 1.388 . S
C447 C452 1.418 . S
C448 H443 0.930 . S
C448 C451 1.404 . S
C448 C452 1.353 . S
N449 Co414 2.145 . S
N449 C450 1.397 . S
N449 C451 1.334 . S
C450 H431 0.929 . S
C450 C447 1.388 . S
C450 N449 1.397 . S
C451 H432 0.929 . S
C451 C448 1.404 . S
C451 N449 1.334 . S
C452 H444 0.930 . S
C452 C447 1.418 . S
C452 C448 1.353 . S
C453 H423 0.930 . S
C453 N454 1.330 . S
C453 C455 1.446 1_545 S
N454 Co413 2.151 . S
N454 C453 1.330 . S
N454 C458 1.418 . S
C455 H434 0.929 . S
C455 C453 1.446 1_565 S
C455 C456 1.332 . S
C456 H436 0.931 . S
C456 C455 1.332 . S
C456 C457 1.267 1_565 S
C457 H425 0.929 . S
C457 C456 1.267 1_545 S
C457 C458 1.251 . S
C458 H428 0.929 . S
C458 N454 1.418 . S
C458 C457 1.251 . S
C459 H426 0.930 . S
C459 C461 1.406 . S
C459 C464 1.261 . S
C460 H427 0.930 . S
C460 N462 1.325 . S
C460 C463 1.357 . S
C461 H429 0.928 . S
C461 C459 1.406 . S
C461 N462 1.261 . S
N462 Co413 2.214 . S
N462 C460 1.325 . S
N462 C461 1.261 . S
C463 H433 0.931 . S
C463 C460 1.357 . S
C463 C464 1.312 . S
C464 H435 0.930 . S
C464 C459 1.261 . S
C464 C463 1.312 . S
C465 O437 1.214 . S
C465 O445 1.234 . S
C466 H438 0.929 . S
C466 C469 1.391 . S
C466 C471 1.391 . S
C467 H439 0.929 . S
C467 C468 1.390 . S
C467 N470 1.391 . S
C468 H440 0.930 . S
C468 C467 1.390 . S
C468 C469 1.392 . S
C469 H441 0.929 . S
C469 C466 1.391 . S
C469 C468 1.392 . S
N470 Co414 2.257 . S
N470 C467 1.391 . S
N470 C471 1.388 . S
C471 H442 0.930 . S
C471 C466 1.391 . S
C471 N470 1.388 . S
Co472 O474 2.143 . S
Co472 O480 2.074 . S
Co472 O483 2.093 . S
Co472 O496 2.097 . S
Co472 N513 2.151 . S
Co472 N521 2.214 . S
Co473 O474 2.160 . S
Co473 O479 2.058 . S
Co473 O489 2.057 . S
Co473 O504 2.037 . S
Co473 N508 2.145 . S
Co473 N529 2.257 . S
O474 Co472 2.143 . S
O474 Co473 2.160 . S
C475 O476 1.278 . S
C475 O483 1.224 . S
O476 C475 1.278 . S
C477 O478 1.245 . S
C477 O489 1.232 . S
O478 C477 1.245 . S
O479 Co473 2.058 . S
O479 C505 1.269 . S
O480 Co472 2.074 . S
O480 C505 1.257 . S
H481 C506 0.930 . S
H482 C512 0.930 . S
O483 Co472 2.093 . S
O483 C475 1.224 . S
H484 C516 0.929 . S
H485 C518 0.930 . S
H486 C519 0.930 . S
H487 C517 0.929 . S
H488 C520 0.928 . S
O489 Co473 2.057 . S
O489 C477 1.232 . S
H490 C509 0.929 . S
H491 C510 0.929 . S
H492 C522 0.931 . S
H493 C514 0.929 . S
H494 C523 0.930 . S
H495 C515 0.931 . S
O496 Co472 2.097 . S
O496 C524 1.214 . S
H497 C525 0.929 . S
H498 C526 0.929 . S
H499 C527 0.930 . S
H500 C528 0.929 . S
H501 C530 0.930 . S
H502 C507 0.930 . S
H503 C511 0.930 . S
O504 Co473 2.037 . S
O504 C524 1.234 . S
C505 O479 1.269 . S
C505 O480 1.257 . S
C506 H481 0.930 . S
C506 C509 1.388 . S
C506 C511 1.418 . S
C507 H502 0.930 . S
C507 C510 1.404 . S
C507 C511 1.353 . S
N508 Co473 2.145 . S
N508 C509 1.397 . S
N508 C510 1.334 . S
C509 H490 0.929 . S
C509 C506 1.388 . S
C509 N508 1.397 . S
C510 H491 0.929 . S
C510 C507 1.404 . S
C510 N508 1.334 . S
C511 H503 0.930 . S
C511 C506 1.418 . S
C511 C507 1.353 . S
C512 H482 0.930 . S
C512 N513 1.330 . S
C512 C514 1.446 1_554 S
N513 Co472 2.151 . S
N513 C512 1.330 . S
N513 C517 1.418 . S
C514 H493 0.929 . S
C514 C512 1.446 1_556 S
C514 C515 1.332 . S
C515 H495 0.931 . S
C515 C514 1.332 . S
C515 C516 1.267 1_556 S
C516 H484 0.929 . S
C516 C515 1.267 1_554 S
C516 C517 1.251 . S
C517 H487 0.929 . S
C517 N513 1.418 . S
C517 C516 1.251 . S
C518 H485 0.930 . S
C518 C520 1.406 . S
C518 C523 1.261 . S
C519 H486 0.930 . S
C519 N521 1.325 . S
C519 C522 1.357 . S
C520 H488 0.928 . S
C520 C518 1.406 . S
C520 N521 1.261 . S
N521 Co472 2.214 . S
N521 C519 1.325 . S
N521 C520 1.261 . S
C522 H492 0.931 . S
C522 C519 1.357 . S
C522 C523 1.312 . S
C523 H494 0.930 . S
C523 C518 1.261 . S
C523 C522 1.312 . S
C524 O496 1.214 . S
C524 O504 1.234 . S
C525 H497 0.929 . S
C525 C528 1.391 . S
C525 C530 1.391 . S
C526 H498 0.929 . S
C526 C527 1.390 . S
C526 N529 1.391 . S
C527 H499 0.930 . S
C527 C526 1.390 . S
C527 C528 1.392 . S
C528 H500 0.929 . S
C528 C525 1.391 . S
C528 C527 1.392 . S
N529 Co473 2.257 . S
N529 C526 1.391 . S
N529 C530 1.388 . S
C530 H501 0.930 . S
C530 C525 1.391 . S
C530 N529 1.388 . S
Co531 O533 2.143 . S
Co531 O539 2.074 . S
Co531 O542 2.093 . S
Co531 O555 2.097 . S
Co531 N572 2.151 . S
Co531 N580 2.214 . S
Co532 O533 2.160 . S
Co532 O538 2.058 . S
Co532 O548 2.057 . S
Co532 O563 2.037 . S
Co532 N567 2.145 . S
Co532 N588 2.257 . S
O533 Co531 2.143 . S
O533 Co532 2.160 . S
C534 O535 1.278 . S
C534 O542 1.224 . S
O535 C534 1.278 . S
C536 O537 1.245 . S
C536 O548 1.232 . S
O537 C536 1.245 . S
O538 Co532 2.058 . S
O538 C564 1.269 . S
O539 Co531 2.074 . S
O539 C564 1.257 . S
H540 C565 0.930 . S
H541 C571 0.930 . S
O542 Co531 2.093 . S
O542 C534 1.224 . S
H543 C575 0.929 . S
H544 C577 0.930 . S
H545 C578 0.930 . S
H546 C576 0.929 . S
H547 C579 0.928 . S
O548 Co532 2.057 . S
O548 C536 1.232 . S
H549 C568 0.929 . S
H550 C569 0.929 . S
H551 C581 0.931 . S
H552 C573 0.929 . S
H553 C582 0.930 . S
H554 C574 0.931 . S
O555 Co531 2.097 . S
O555 C583 1.214 . S
H556 C584 0.929 . S
H557 C585 0.929 . S
H558 C586 0.930 . S
H559 C587 0.929 . S
H560 C589 0.930 . S
H561 C566 0.930 . S
H562 C570 0.930 . S
O563 Co532 2.037 . S
O563 C583 1.234 . S
C564 O538 1.269 . S
C564 O539 1.257 . S
C565 H540 0.930 . S
C565 C568 1.388 . S
C565 C570 1.418 . S
C566 H561 0.930 . S
C566 C569 1.404 . S
C566 C570 1.353 . S
N567 Co532 2.145 . S
N567 C568 1.397 . S
N567 C569 1.334 . S
C568 H549 0.929 . S
C568 C565 1.388 . S
C568 N567 1.397 . S
C569 H550 0.929 . S
C569 C566 1.404 . S
C569 N567 1.334 . S
C570 H562 0.930 . S
C570 C565 1.418 . S
C570 C566 1.353 . S
C571 H541 0.930 . S
C571 N572 1.330 . S
C571 C573 1.446 1_556 S
N572 Co531 2.151 . S
N572 C571 1.330 . S
N572 C576 1.418 . S
C573 H552 0.929 . S
C573 C571 1.446 1_554 S
C573 C574 1.332 . S
C574 H554 0.931 . S
C574 C573 1.332 . S
C574 C575 1.267 1_554 S
C575 H543 0.929 . S
C575 C574 1.267 1_556 S
C575 C576 1.251 . S
C576 H546 0.929 . S
C576 N572 1.418 . S
C576 C575 1.251 . S
C577 H544 0.930 . S
C577 C579 1.406 . S
C577 C582 1.261 . S
C578 H545 0.930 . S
C578 N580 1.325 . S
C578 C581 1.357 . S
C579 H547 0.928 . S
C579 C577 1.406 . S
C579 N580 1.261 . S
N580 Co531 2.214 . S
N580 C578 1.325 . S
N580 C579 1.261 . S
C581 H551 0.931 . S
C581 C578 1.357 . S
C581 C582 1.312 . S
C582 H553 0.930 . S
C582 C577 1.261 . S
C582 C581 1.312 . S
C583 O555 1.214 . S
C583 O563 1.234 . S
C584 H556 0.929 . S
C584 C587 1.391 . S
C584 C589 1.391 . S
C585 H557 0.929 . S
C585 C586 1.390 . S
C585 N588 1.391 . S
C586 H558 0.930 . S
C586 C585 1.390 . S
C586 C587 1.392 . S
C587 H559 0.929 . S
C587 C584 1.391 . S
C587 C586 1.392 . S
N588 Co532 2.257 . S
N588 C585 1.391 . S
N588 C589 1.388 . S
C589 H560 0.930 . S
C589 C584 1.391 . S
C589 N588 1.388 . S
Co590 O592 2.143 . S
Co590 O598 2.074 . S
Co590 O601 2.093 . S
Co590 O614 2.097 . S
Co590 N631 2.151 . S
Co590 N639 2.214 . S
Co591 O592 2.160 . S
Co591 O597 2.058 . S
Co591 O607 2.057 . S
Co591 O622 2.037 . S
Co591 N626 2.145 . S
Co591 N647 2.257 . S
O592 Co590 2.143 . S
O592 Co591 2.160 . S
C593 O594 1.278 . S
C593 O601 1.224 . S
O594 C593 1.278 . S
C595 O596 1.245 . S
C595 O607 1.232 . S
O596 C595 1.245 . S
O597 Co591 2.058 . S
O597 C623 1.269 . S
O598 Co590 2.074 . S
O598 C623 1.257 . S
H599 C624 0.930 . S
H600 C630 0.930 . S
O601 Co590 2.093 . S
O601 C593 1.224 . S
H602 C634 0.929 . S
H603 C636 0.930 . S
H604 C637 0.930 . S
H605 C635 0.929 . S
H606 C638 0.928 . S
O607 Co591 2.057 . S
O607 C595 1.232 . S
H608 C627 0.929 . S
H609 C628 0.929 . S
H610 C640 0.931 . S
H611 C632 0.929 . S
H612 C641 0.930 . S
H613 C633 0.931 . S
O614 Co590 2.097 . S
O614 C642 1.214 . S
H615 C643 0.929 . S
H616 C644 0.929 . S
H617 C645 0.930 . S
H618 C646 0.929 . S
H619 C648 0.930 . S
H620 C625 0.930 . S
H621 C629 0.930 . S
O622 Co591 2.037 . S
O622 C642 1.234 . S
C623 O597 1.269 . S
C623 O598 1.257 . S
C624 H599 0.930 . S
C624 C627 1.388 . S
C624 C629 1.418 . S
C625 H620 0.930 . S
C625 C628 1.404 . S
C625 C629 1.353 . S
N626 Co591 2.145 . S
N626 C627 1.397 . S
N626 C628 1.334 . S
C627 H608 0.929 . S
C627 C624 1.388 . S
C627 N626 1.397 . S
C628 H609 0.929 . S
C628 C625 1.404 . S
C628 N626 1.334 . S
C629 H621 0.930 . S
C629 C624 1.418 . S
C629 C625 1.353 . S
C630 H600 0.930 . S
C630 N631 1.330 . S
C630 C632 1.446 1_556 S
N631 Co590 2.151 . S
N631 C630 1.330 . S
N631 C635 1.418 . S
C632 H611 0.929 . S
C632 C630 1.446 1_554 S
C632 C633 1.332 . S
C633 H613 0.931 . S
C633 C632 1.332 . S
C633 C634 1.267 1_554 S
C634 H602 0.929 . S
C634 C633 1.267 1_556 S
C634 C635 1.251 . S
C635 H605 0.929 . S
C635 N631 1.418 . S
C635 C634 1.251 . S
C636 H603 0.930 . S
C636 C638 1.406 . S
C636 C641 1.261 . S
C637 H604 0.930 . S
C637 N639 1.325 . S
C637 C640 1.357 . S
C638 H606 0.928 . S
C638 C636 1.406 . S
C638 N639 1.261 . S
N639 Co590 2.214 . S
N639 C637 1.325 . S
N639 C638 1.261 . S
C640 H610 0.931 . S
C640 C637 1.357 . S
C640 C641 1.312 . S
C641 H612 0.930 . S
C641 C636 1.261 . S
C641 C640 1.312 . S
C642 O614 1.214 . S
C642 O622 1.234 . S
C643 H615 0.929 . S
C643 C646 1.391 . S
C643 C648 1.391 . S
C644 H616 0.929 . S
C644 C645 1.390 . S
C644 N647 1.391 . S
C645 H617 0.930 . S
C645 C644 1.390 . S
C645 C646 1.392 . S
C646 H618 0.929 . S
C646 C643 1.391 . S
C646 C645 1.392 . S
N647 Co591 2.257 . S
N647 C644 1.391 . S
N647 C648 1.388 . S
C648 H619 0.930 . S
C648 C643 1.391 . S
C648 N647 1.388 . S
Co649 O651 2.143 . S
Co649 O657 2.074 . S
Co649 O660 2.093 . S
Co649 O673 2.097 . S
Co649 N690 2.151 . S
Co649 N698 2.214 . S
Co650 O651 2.160 . S
Co650 O656 2.058 . S
Co650 O666 2.057 . S
Co650 O681 2.037 . S
Co650 N685 2.145 . S
Co650 N706 2.257 . S
O651 Co649 2.143 . S
O651 Co650 2.160 . S
C652 O653 1.278 . S
C652 O660 1.224 . S
O653 C652 1.278 . S
C654 O655 1.245 . S
C654 O666 1.232 . S
O655 C654 1.245 . S
O656 Co650 2.058 . S
O656 C682 1.269 . S
O657 Co649 2.074 . S
O657 C682 1.257 . S
H658 C683 0.930 . S
H659 C689 0.930 . S
O660 Co649 2.093 . S
O660 C652 1.224 . S
H661 C693 0.929 . S
H662 C695 0.930 . S
H663 C696 0.930 . S
H664 C694 0.929 . S
H665 C697 0.928 . S
O666 Co650 2.057 . S
O666 C654 1.232 . S
H667 C686 0.929 . S
H668 C687 0.929 . S
H669 C699 0.931 . S
H670 C691 0.929 . S
H671 C700 0.930 . S
H672 C692 0.931 . S
O673 Co649 2.097 . S
O673 C701 1.214 . S
H674 C702 0.929 . S
H675 C703 0.929 . S
H676 C704 0.930 . S
H677 C705 0.929 . S
H678 C707 0.930 . S
H679 C684 0.930 . S
H680 C688 0.930 . S
O681 Co650 2.037 . S
O681 C701 1.234 . S
C682 O656 1.269 . S
C682 O657 1.257 . S
C683 H658 0.930 . S
C683 C686 1.388 . S
C683 C688 1.418 . S
C684 H679 0.930 . S
C684 C687 1.404 . S
C684 C688 1.353 . S
N685 Co650 2.145 . S
N685 C686 1.397 . S
N685 C687 1.334 . S
C686 H667 0.929 . S
C686 C683 1.388 . S
C686 N685 1.397 . S
C687 H668 0.929 . S
C687 C684 1.404 . S
C687 N685 1.334 . S
C688 H680 0.930 . S
C688 C683 1.418 . S
C688 C684 1.353 . S
C689 H659 0.930 . S
C689 N690 1.330 . S
C689 C691 1.446 1_554 S
N690 Co649 2.151 . S
N690 C689 1.330 . S
N690 C694 1.418 . S
C691 H670 0.929 . S
C691 C689 1.446 1_556 S
C691 C692 1.332 . S
C692 H672 0.931 . S
C692 C691 1.332 . S
C692 C693 1.267 1_556 S
C693 H661 0.929 . S
C693 C692 1.267 1_554 S
C693 C694 1.251 . S
C694 H664 0.929 . S
C694 N690 1.418 . S
C694 C693 1.251 . S
C695 H662 0.930 . S
C695 C697 1.406 . S
C695 C700 1.261 . S
C696 H663 0.930 . S
C696 N698 1.325 . S
C696 C699 1.357 . S
C697 H665 0.928 . S
C697 C695 1.406 . S
C697 N698 1.261 . S
N698 Co649 2.214 . S
N698 C696 1.325 . S
N698 C697 1.261 . S
C699 H669 0.931 . S
C699 C696 1.357 . S
C699 C700 1.312 . S
C700 H671 0.930 . S
C700 C695 1.261 . S
C700 C699 1.312 . S
C701 O673 1.214 . S
C701 O681 1.234 . S
C702 H674 0.929 . S
C702 C705 1.391 . S
C702 C707 1.391 . S
C703 H675 0.929 . S
C703 C704 1.390 . S
C703 N706 1.391 . S
C704 H676 0.930 . S
C704 C703 1.390 . S
C704 C705 1.392 . S
C705 H677 0.929 . S
C705 C702 1.391 . S
C705 C704 1.392 . S
N706 Co650 2.257 . S
N706 C703 1.391 . S
N706 C707 1.388 . S
C707 H678 0.930 . S
C707 C702 1.391 . S
C707 N706 1.388 . S
H708 C726 0.951 . S
H709 C728 0.951 . S
H710 C730 0.950 . S
H711 C731 0.950 . S
H712 C733 0.950 . S
H713 C736 0.950 . S
H714 C737 0.950 . S
H715 C739 0.950 . S
H716 C740 0.950 1_455 S
H717 C741 0.951 . S
H718 C743 0.951 . S
H719 C745 0.950 . S
H720 C746 0.950 . S
H721 C748 0.950 . S
H722 C751 0.950 . S
H723 C752 0.950 . S
H724 C754 0.950 . S
H725 C755 0.950 1_655 S
C726 H708 0.951 . S
C726 C727 1.366 . S
C726 C728 1.388 . S
C727 C726 1.366 . S
C727 C731 1.385 . S
C728 H709 0.951 . S
C728 C726 1.388 . S
C728 C729 1.366 . S
C729 C728 1.366 . S
C729 C730 1.414 . S
C729 C732 1.499 . S
C730 H710 0.950 . S
C730 C729 1.414 . S
C730 C731 1.374 . S
C731 H711 0.950 . S
C731 C727 1.385 . S
C731 C730 1.374 . S
C732 C729 1.499 . S
C732 C733 1.373 . S
C732 C734 1.389 . S
C733 H712 0.950 . S
C733 C732 1.373 . S
C733 C749 1.377 1_655 S
C734 C732 1.389 . S
C734 C735 1.524 . S
C734 C748 1.377 1_655 S
C735 C734 1.524 . S
C735 C736 1.397 . S
C735 C740 1.363 . S
C736 H713 0.950 . S
C736 C735 1.397 . S
C736 C737 1.334 . S
C737 H714 0.950 . S
C737 C736 1.334 . S
C737 C738 1.287 . S
C738 C737 1.287 . S
C738 C739 1.524 . S
C738 H757 0.913 . S
C739 H715 0.950 . S
C739 C738 1.524 . S
C739 C740 1.415 . S
C740 H716 0.950 1_655 S
C740 C735 1.363 . S
C740 C739 1.415 . S
C741 H717 0.951 . S
C741 C742 1.366 . S
C741 C743 1.388 . S
C742 C741 1.366 . S
C742 C746 1.385 . S
C743 H718 0.951 . S
C743 C741 1.388 . S
C743 C744 1.366 . S
C744 C743 1.366 . S
C744 C745 1.414 . S
C744 C747 1.499 . S
C745 H719 0.950 . S
C745 C744 1.414 . S
C745 C746 1.374 . S
C746 H720 0.950 . S
C746 C742 1.385 . S
C746 C745 1.374 . S
C747 C744 1.499 . S
C747 C748 1.373 . S
C747 C749 1.389 . S
C748 H721 0.950 . S
C748 C734 1.377 1_455 S
C748 C747 1.373 . S
C749 C733 1.377 1_455 S
C749 C747 1.389 . S
C749 C750 1.524 . S
C750 C749 1.524 . S
C750 C751 1.397 . S
C750 C755 1.363 . S
C751 H722 0.950 . S
C751 C750 1.397 . S
C751 C752 1.334 . S
C752 H723 0.950 . S
C752 C751 1.334 . S
C752 C753 1.287 . S
C753 C752 1.287 . S
C753 C754 1.524 . S
C753 H756 0.999 . S
C754 H724 0.950 . S
C754 C753 1.524 . S
C754 C755 1.415 . S
C755 H725 0.950 1_455 S
C755 C750 1.363 . S
C755 C754 1.415 . S
H756 C753 0.999 . S
H757 C738 0.913 . S
H758 C776 0.951 . S
H759 C778 0.951 . S
H760 C780 0.950 . S
H761 C781 0.950 . S
H762 C783 0.950 . S
H763 C786 0.950 . S
H764 C787 0.950 . S
H765 C789 0.950 . S
H766 C790 0.950 . S
H767 C791 0.951 . S
H768 C793 0.951 . S
H769 C795 0.950 . S
H770 C796 0.950 . S
H771 C798 0.950 . S
H772 C801 0.950 . S
H773 C802 0.950 . S
H774 C804 0.950 . S
H775 C805 0.950 . S
C776 H758 0.951 . S
C776 C777 1.366 . S
C776 C778 1.388 . S
C777 C776 1.366 . S
C777 C781 1.385 . S
C778 H759 0.951 . S
C778 C776 1.388 . S
C778 C779 1.366 . S
C779 C778 1.366 . S
C779 C780 1.414 . S
C779 C782 1.499 . S
C780 H760 0.950 . S
C780 C779 1.414 . S
C780 C781 1.374 . S
C781 H761 0.950 . S
C781 C777 1.385 . S
C781 C780 1.374 . S
C782 C779 1.499 . S
C782 C783 1.373 . S
C782 C784 1.389 1_455 S
C783 H762 0.950 . S
C783 C782 1.373 . S
C783 C799 1.377 . S
C784 C782 1.389 1_655 S
C784 C785 1.524 . S
C784 C798 1.377 . S
C785 C784 1.524 . S
C785 C786 1.397 . S
C785 C790 1.363 . S
C786 H763 0.950 . S
C786 C785 1.397 . S
C786 C787 1.334 . S
C787 H764 0.950 . S
C787 C786 1.334 . S
C787 C788 1.287 . S
C788 C787 1.287 . S
C788 C789 1.524 . S
C788 H807 0.913 . S
C789 H765 0.950 . S
C789 C788 1.524 . S
C789 C790 1.415 . S
C790 H766 0.950 . S
C790 C785 1.363 . S
C790 C789 1.415 . S
C791 H767 0.951 . S
C791 C792 1.366 . S
C791 C793 1.388 . S
C792 C791 1.366 . S
C792 C796 1.385 . S
C793 H768 0.951 . S
C793 C791 1.388 . S
C793 C794 1.366 . S
C794 C793 1.366 . S
C794 C795 1.414 . S
C794 C797 1.499 . S
C795 H769 0.950 . S
C795 C794 1.414 . S
C795 C796 1.374 . S
C796 H770 0.950 . S
C796 C792 1.385 . S
C796 C795 1.374 . S
C797 C794 1.499 . S
C797 C798 1.373 . S
C797 C799 1.389 1_655 S
C798 H771 0.950 . S
C798 C784 1.377 . S
C798 C797 1.373 . S
C799 C783 1.377 . S
C799 C797 1.389 1_455 S
C799 C800 1.524 . S
C800 C799 1.524 . S
C800 C801 1.397 . S
C800 C805 1.363 . S
C801 H772 0.950 . S
C801 C800 1.397 . S
C801 C802 1.334 . S
C802 H773 0.950 . S
C802 C801 1.334 . S
C802 C803 1.287 . S
C803 C802 1.287 . S
C803 C804 1.524 . S
C803 H806 0.999 . S
C804 H774 0.950 . S
C804 C803 1.524 . S
C804 C805 1.415 . S
C805 H775 0.950 . S
C805 C800 1.363 . S
C805 C804 1.415 . S
H806 C803 0.999 . S
H807 C788 0.913 . S
H808 C826 0.951 . S
H809 C828 0.951 . S
H810 C830 0.950 . S
H811 C831 0.950 . S
H812 C833 0.950 . S
H813 C836 0.950 . S
H814 C837 0.950 . S
H815 C839 0.950 . S
H816 C840 0.950 . S
H817 C841 0.951 . S
H818 C843 0.951 . S
H819 C845 0.950 . S
H820 C846 0.950 . S
H821 C848 0.950 . S
H822 C851 0.950 . S
H823 C852 0.950 . S
H824 C854 0.950 . S
H825 C855 0.950 . S
C826 H808 0.951 . S
C826 C827 1.366 . S
C826 C828 1.388 . S
C827 C826 1.366 . S
C827 C831 1.385 . S
C828 H809 0.951 . S
C828 C826 1.388 . S
C828 C829 1.366 . S
C829 C828 1.366 . S
C829 C830 1.414 . S
C829 C832 1.499 . S
C830 H810 0.950 . S
C830 C829 1.414 . S
C830 C831 1.374 . S
C831 H811 0.950 . S
C831 C827 1.385 . S
C831 C830 1.374 . S
C832 C829 1.499 . S
C832 C833 1.373 . S
C832 C834 1.389 . S
C833 H812 0.950 . S
C833 C832 1.373 . S
C833 C849 1.377 1_565 S
C834 C832 1.389 . S
C834 C835 1.524 . S
C834 C848 1.377 1_565 S
C835 C834 1.524 . S
C835 C836 1.397 . S
C835 C840 1.363 1_565 S
C836 H813 0.950 . S
C836 C835 1.397 . S
C836 C837 1.334 . S
C837 H814 0.950 . S
C837 C836 1.334 . S
C837 C838 1.287 . S
C838 C837 1.287 . S
C838 C839 1.524 1_565 S
C838 H857 0.913 . S
C839 H815 0.950 . S
C839 C838 1.524 1_545 S
C839 C840 1.415 . S
C840 H816 0.950 . S
C840 C835 1.363 1_545 S
C840 C839 1.415 . S
C841 H817 0.951 . S
C841 C842 1.366 . S
C841 C843 1.388 . S
C842 C841 1.366 . S
C842 C846 1.385 . S
C843 H818 0.951 . S
C843 C841 1.388 . S
C843 C844 1.366 . S
C844 C843 1.366 . S
C844 C845 1.414 . S
C844 C847 1.499 . S
C845 H819 0.950 . S
C845 C844 1.414 . S
C845 C846 1.374 . S
C846 H820 0.950 . S
C846 C842 1.385 . S
C846 C845 1.374 . S
C847 C844 1.499 . S
C847 C848 1.373 . S
C847 C849 1.389 . S
C848 H821 0.950 . S
C848 C834 1.377 1_545 S
C848 C847 1.373 . S
C849 C833 1.377 1_545 S
C849 C847 1.389 . S
C849 C850 1.524 . S
C850 C849 1.524 . S
C850 C851 1.397 . S
C850 C855 1.363 1_545 S
C851 H822 0.950 . S
C851 C850 1.397 . S
C851 C852 1.334 . S
C852 H823 0.950 . S
C852 C851 1.334 . S
C852 C853 1.287 . S
C853 C852 1.287 . S
C853 C854 1.524 1_545 S
C853 H856 0.999 . S
C854 H824 0.950 . S
C854 C853 1.524 1_565 S
C854 C855 1.415 . S
C855 H825 0.950 . S
C855 C850 1.363 1_565 S
C855 C854 1.415 . S
H856 C853 0.999 . S
H857 C838 0.913 . S
H858 C876 0.951 . S
H859 C878 0.951 . S
H860 C880 0.950 . S
H861 C881 0.950 . S
H862 C883 0.950 . S
H863 C886 0.950 . S
H864 C887 0.950 . S
H865 C889 0.950 . S
H866 C890 0.950 . S
H867 C891 0.951 . S
H868 C893 0.951 . S
H869 C895 0.950 . S
H870 C896 0.950 . S
H871 C898 0.950 . S
H872 C901 0.950 . S
H873 C902 0.950 . S
H874 C904 0.950 . S
H875 C905 0.950 . S
C876 H858 0.951 . S
C876 C877 1.366 . S
C876 C878 1.388 . S
C877 C876 1.366 . S
C877 C881 1.385 . S
C878 H859 0.951 . S
C878 C876 1.388 . S
C878 C879 1.366 . S
C879 C878 1.366 . S
C879 C880 1.414 . S
C879 C882 1.499 . S
C880 H860 0.950 . S
C880 C879 1.414 . S
C880 C881 1.374 . S
C881 H861 0.950 . S
C881 C877 1.385 . S
C881 C880 1.374 . S
C882 C879 1.499 . S
C882 C883 1.373 . S
C882 C884 1.393 . S
C883 H862 0.950 . S
C883 C882 1.373 . S
C883 C899 1.373 1_565 S
C884 C882 1.393 . S
C884 C885 1.524 . S
C884 C898 1.373 1_565 S
C885 C884 1.524 . S
C885 C886 1.419 . S
C885 C890 1.341 1_565 S
C886 H863 0.950 . S
C886 C885 1.419 . S
C886 C887 1.334 . S
C887 H864 0.950 . S
C887 C886 1.334 . S
C887 C888 1.287 . S
C888 C887 1.287 . S
C888 C889 1.524 1_565 S
C888 H907 0.913 . S
C889 H865 0.950 . S
C889 C888 1.524 1_545 S
C889 C890 1.415 . S
C890 H866 0.950 . S
C890 C885 1.341 1_545 S
C890 C889 1.415 . S
C891 H867 0.951 . S
C891 C892 1.366 . S
C891 C893 1.388 . S
C892 C891 1.366 . S
C892 C896 1.385 . S
C893 H868 0.951 . S
C893 C891 1.388 . S
C893 C894 1.366 . S
C894 C893 1.366 . S
C894 C895 1.414 . S
C894 C897 1.499 . S
C895 H869 0.950 . S
C895 C894 1.414 . S
C895 C896 1.374 . S
C896 H870 0.950 . S
C896 C892 1.385 . S
C896 C895 1.374 . S
C897 C894 1.499 . S
C897 C898 1.373 . S
C897 C899 1.393 . S
C898 H871 0.950 . S
C898 C884 1.373 1_545 S
C898 C897 1.373 . S
C899 C883 1.373 1_545 S
C899 C897 1.393 . S
C899 C900 1.524 . S
C900 C899 1.524 . S
C900 C901 1.419 . S
C900 C905 1.341 1_545 S
C901 H872 0.950 . S
C901 C900 1.419 . S
C901 C902 1.334 . S
C902 H873 0.950 . S
C902 C901 1.334 . S
C902 C903 1.287 . S
C903 C902 1.287 . S
C903 C904 1.524 1_545 S
C903 H906 0.999 . S
C904 H874 0.950 . S
C904 C903 1.524 1_565 S
C904 C905 1.415 . S
C905 H875 0.950 . S
C905 C900 1.341 1_565 S
C905 C904 1.415 . S
H906 C903 0.999 . S
H907 C888 0.913 . S
H908 C926 0.951 . S
H909 C928 0.951 . S
H910 C930 0.950 . S
H911 C931 0.950 . S
H912 C933 0.950 . S
H913 C936 0.950 1_554 S
H914 C937 0.950 . S
H915 C939 0.950 . S
H916 C940 0.950 . S
H917 C941 0.951 . S
H918 C943 0.951 . S
H919 C945 0.950 . S
H920 C946 0.950 . S
H921 C948 0.950 . S
H922 C951 0.950 1_556 S
H923 C952 0.950 . S
H924 C954 0.950 . S
H925 C955 0.950 . S
C926 H908 0.951 . S
C926 C927 1.366 . S
C926 C928 1.388 . S
C927 C926 1.366 . S
C927 C931 1.385 . S
C928 H909 0.951 . S
C928 C926 1.388 . S
C928 C929 1.366 . S
C929 C928 1.366 . S
C929 C930 1.414 . S
C929 C932 1.499 . S
C930 H910 0.950 . S
C930 C929 1.414 . S
C930 C931 1.374 . S
C931 H911 0.950 . S
C931 C927 1.385 . S
C931 C930 1.374 . S
C932 C929 1.499 . S
C932 C933 1.373 . S
C932 C934 1.389 . S
C933 H912 0.950 . S
C933 C932 1.373 . S
C933 C949 1.377 1_556 S
C934 C932 1.389 . S
C934 C935 1.524 . S
C934 C948 1.377 1_556 S
C935 C934 1.524 . S
C935 C936 1.397 . S
C935 C940 1.363 . S
C936 H913 0.950 1_556 S
C936 C935 1.397 . S
C936 C937 1.334 . S
C937 H914 0.950 . S
C937 C936 1.334 . S
C937 C938 1.287 . S
C938 C937 1.287 . S
C938 C939 1.524 . S
C938 H957 0.913 . S
C939 H915 0.950 . S
C939 C938 1.524 . S
C939 C940 1.415 . S
C940 H916 0.950 . S
C940 C935 1.363 . S
C940 C939 1.415 . S
C941 H917 0.951 . S
C941 C942 1.366 . S
C941 C943 1.388 . S
C942 C941 1.366 . S
C942 C946 1.385 . S
C943 H918 0.951 . S
C943 C941 1.388 . S
C943 C944 1.366 . S
C944 C943 1.366 . S
C944 C945 1.414 . S
C944 C947 1.499 . S
C945 H919 0.950 . S
C945 C944 1.414 . S
C945 C946 1.374 . S
C946 H920 0.950 . S
C946 C942 1.385 . S
C946 C945 1.374 . S
C947 C944 1.499 . S
C947 C948 1.373 . S
C947 C949 1.389 . S
C948 H921 0.950 . S
C948 C934 1.377 1_554 S
C948 C947 1.373 . S
C949 C933 1.377 1_554 S
C949 C947 1.389 . S
C949 C950 1.524 . S
C950 C949 1.524 . S
C950 C951 1.397 . S
C950 C955 1.363 . S
C951 H922 0.950 1_554 S
C951 C950 1.397 . S
C951 C952 1.334 . S
C952 H923 0.950 . S
C952 C951 1.334 . S
C952 C953 1.287 . S
C953 C952 1.287 . S
C953 C954 1.524 . S
C953 H956 0.999 . S
C954 H924 0.950 . S
C954 C953 1.524 . S
C954 C955 1.415 . S
C955 H925 0.950 . S
C955 C950 1.363 . S
C955 C954 1.415 . S
H956 C953 0.999 . S
H957 C938 0.913 . S
H958 C976 0.951 . S
H959 C978 0.951 . S
H960 C980 0.950 . S
H961 C981 0.950 . S
H962 C983 0.950 . S
H963 C986 0.950 . S
H964 C987 0.950 . S
H965 C989 0.950 . S
H966 C990 0.950 . S
H967 C991 0.951 . S
H968 C993 0.951 . S
H969 C995 0.950 . S
H970 C996 0.950 . S
H971 C998 0.950 . S
H972 C1001 0.950 . S
H973 C1002 0.950 . S
H974 C1004 0.950 . S
H975 C1005 0.950 . S
C976 H958 0.951 . S
C976 C977 1.366 . S
C976 C978 1.388 . S
C977 C976 1.366 . S
C977 C981 1.385 . S
C978 H959 0.951 . S
C978 C976 1.388 . S
C978 C979 1.366 . S
C979 C978 1.366 . S
C979 C980 1.414 . S
C979 C982 1.499 . S
C980 H960 0.950 . S
C980 C979 1.414 . S
C980 C981 1.374 . S
C981 H961 0.950 . S
C981 C977 1.385 . S
C981 C980 1.374 . S
C982 C979 1.499 . S
C982 C983 1.373 1_556 S
C982 C984 1.389 . S
C983 H962 0.950 . S
C983 C982 1.373 1_554 S
C983 C999 1.377 . S
C984 C982 1.389 . S
C984 C985 1.524 . S
C984 C998 1.377 . S
C985 C984 1.524 . S
C985 C986 1.397 . S
C985 C990 1.363 . S
C986 H963 0.950 . S
C986 C985 1.397 . S
C986 C987 1.334 . S
C987 H964 0.950 . S
C987 C986 1.334 . S
C987 C988 1.287 . S
C988 C987 1.287 . S
C988 C989 1.524 . S
C988 H1007 0.913 . S
C989 H965 0.950 . S
C989 C988 1.524 . S
C989 C990 1.415 . S
C990 H966 0.950 . S
C990 C985 1.363 . S
C990 C989 1.415 . S
C991 H967 0.951 . S
C991 C992 1.366 . S
C991 C993 1.388 . S
C992 C991 1.366 . S
C992 C996 1.385 . S
C993 H968 0.951 . S
C993 C991 1.388 . S
C993 C994 1.366 . S
C994 C993 1.366 . S
C994 C995 1.414 . S
C994 C997 1.499 . S
C995 H969 0.950 . S
C995 C994 1.414 . S
C995 C996 1.374 . S
C996 H970 0.950 . S
C996 C992 1.385 . S
C996 C995 1.374 . S
C997 C994 1.499 . S
C997 C998 1.373 1_554 S
C997 C999 1.389 . S
C998 H971 0.950 . S
C998 C984 1.377 . S
C998 C997 1.373 1_556 S
C999 C983 1.377 . S
C999 C997 1.389 . S
C999 C1000 1.524 . S
C1000 C999 1.524 . S
C1000 C1001 1.397 . S
C1000 C1005 1.363 . S
C1001 H972 0.950 . S
C1001 C1000 1.397 . S
C1001 C1002 1.334 . S
C1002 H973 0.950 . S
C1002 C1001 1.334 . S
C1002 C1003 1.287 . S
C1003 C1002 1.287 . S
C1003 C1004 1.524 . S
C1003 H1006 0.999 . S
C1004 H974 0.950 . S
C1004 C1003 1.524 . S
C1004 C1005 1.415 . S
C1005 H975 0.950 . S
C1005 C1000 1.363 . S
C1005 C1004 1.415 . S
H1006 C1003 0.999 . S
H1007 C988 0.913 . S
H1008 C1026 0.951 . S
H1009 C1028 0.951 . S
H1010 C1030 0.950 . S
H1011 C1031 0.950 . S
H1012 C1033 0.950 . S
H1013 C1036 0.950 . S
H1014 C1037 0.950 . S
H1015 C1039 0.950 . S
H1016 C1040 0.950 . S
H1017 C1041 0.951 . S
H1018 C1043 0.951 . S
H1019 C1045 0.950 . S
H1020 C1046 0.950 . S
H1021 C1048 0.950 . S
H1022 C1051 0.950 . S
H1023 C1052 0.950 . S
H1024 C1054 0.950 . S
H1025 C1055 0.950 . S
C1026 H1008 0.951 . S
C1026 C1027 1.366 . S
C1026 C1028 1.388 . S
C1027 C1026 1.366 . S
C1027 C1031 1.385 . S
C1028 H1009 0.951 . S
C1028 C1026 1.388 . S
C1028 C1029 1.366 . S
C1029 C1028 1.366 . S
C1029 C1030 1.414 . S
C1029 C1032 1.499 . S
C1030 H1010 0.950 . S
C1030 C1029 1.414 . S
C1030 C1031 1.374 . S
C1031 H1011 0.950 . S
C1031 C1027 1.385 . S
C1031 C1030 1.374 . S
C1032 C1029 1.499 . S
C1032 C1033 1.373 . S
C1032 C1034 1.389 . S
C1033 H1012 0.950 . S
C1033 C1032 1.373 . S
C1033 C1049 1.377 . S
C1034 C1032 1.389 . S
C1034 C1035 1.524 . S
C1034 C1048 1.377 . S
C1035 C1034 1.524 . S
C1035 C1036 1.397 . S
C1035 C1040 1.363 . S
C1036 H1013 0.950 . S
C1036 C1035 1.397 . S
C1036 C1037 1.334 . S
C1037 H1014 0.950 . S
C1037 C1036 1.334 . S
C1037 C1038 1.287 . S
C1038 C1037 1.287 . S
C1038 C1039 1.524 . S
C1038 H1057 0.913 . S
C1039 H1015 0.950 . S
C1039 C1038 1.524 . S
C1039 C1040 1.415 . S
C1040 H1016 0.950 . S
C1040 C1035 1.363 . S
C1040 C1039 1.415 . S
C1041 H1017 0.951 . S
C1041 C1042 1.366 . S
C1041 C1043 1.388 . S
C1042 C1041 1.366 . S
C1042 C1046 1.385 . S
C1043 H1018 0.951 . S
C1043 C1041 1.388 . S
C1043 C1044 1.366 . S
C1044 C1043 1.366 . S
C1044 C1045 1.414 . S
C1044 C1047 1.499 . S
C1045 H1019 0.950 . S
C1045 C1044 1.414 . S
C1045 C1046 1.374 . S
C1046 H1020 0.950 . S
C1046 C1042 1.385 . S
C1046 C1045 1.374 . S
C1047 C1044 1.499 . S
C1047 C1048 1.373 . S
C1047 C1049 1.389 . S
C1048 H1021 0.950 . S
C1048 C1034 1.377 . S
C1048 C1047 1.373 . S
C1049 C1033 1.377 . S
C1049 C1047 1.389 . S
C1049 C1050 1.524 . S
C1050 C1049 1.524 . S
C1050 C1051 1.397 . S
C1050 C1055 1.363 . S
C1051 H1022 0.950 . S
C1051 C1050 1.397 . S
C1051 C1052 1.334 . S
C1052 H1023 0.950 . S
C1052 C1051 1.334 . S
C1052 C1053 1.287 . S
C1053 C1052 1.287 . S
C1053 C1054 1.524 . S
C1053 H1056 0.999 . S
C1054 H1024 0.950 . S
C1054 C1053 1.524 . S
C1054 C1055 1.415 . S
C1055 H1025 0.950 . S
C1055 C1050 1.363 . S
C1055 C1054 1.415 . S
H1056 C1053 0.999 . S
H1057 C1038 0.913 . S
H1058 C1076 0.951 . S
H1059 C1078 0.951 . S
H1060 C1080 0.950 . S
H1061 C1081 0.950 . S
H1062 C1083 0.950 . S
H1063 C1086 0.950 . S
H1064 C1087 0.950 . S
H1065 C1089 0.950 . S
H1066 C1090 0.950 . S
H1067 C1091 0.951 . S
H1068 C1093 0.951 . S
H1069 C1095 0.950 . S
H1070 C1096 0.950 . S
H1071 C1098 0.950 . S
H1072 C1101 0.950 . S
H1073 C1102 0.950 . S
H1074 C1104 0.950 . S
H1075 C1105 0.950 . S
C1076 H1058 0.951 . S
C1076 C1077 1.366 . S
C1076 C1078 1.388 . S
C1077 C1076 1.366 . S
C1077 C1081 1.385 . S
C1078 H1059 0.951 . S
C1078 C1076 1.388 . S
C1078 C1079 1.366 . S
C1079 C1078 1.366 . S
C1079 C1080 1.414 . S
C1079 C1082 1.499 . S
C1080 H1060 0.950 . S
C1080 C1079 1.414 . S
C1080 C1081 1.374 . S
C1081 H1061 0.950 . S
C1081 C1077 1.385 . S
C1081 C1080 1.374 . S
C1082 C1079 1.499 . S
C1082 C1083 1.373 . S
C1082 C1084 1.389 . S
C1083 H1062 0.950 . S
C1083 C1082 1.373 . S
C1083 C1099 1.377 . S
C1084 C1082 1.389 . S
C1084 C1085 1.524 . S
C1084 C1098 1.377 . S
C1085 C1084 1.524 . S
C1085 C1086 1.397 . S
C1085 C1090 1.363 . S
C1086 H1063 0.950 . S
C1086 C1085 1.397 . S
C1086 C1087 1.334 . S
C1087 H1064 0.950 . S
C1087 C1086 1.334 . S
C1087 C1088 1.287 . S
C1088 C1087 1.287 . S
C1088 C1089 1.524 . S
C1088 H1107 0.913 . S
C1089 H1065 0.950 . S
C1089 C1088 1.524 . S
C1089 C1090 1.415 . S
C1090 H1066 0.950 . S
C1090 C1085 1.363 . S
C1090 C1089 1.415 . S
C1091 H1067 0.951 . S
C1091 C1092 1.366 . S
C1091 C1093 1.388 . S
C1092 C1091 1.366 . S
C1092 C1096 1.385 . S
C1093 H1068 0.951 . S
C1093 C1091 1.388 . S
C1093 C1094 1.366 . S
C1094 C1093 1.366 . S
C1094 C1095 1.414 . S
C1094 C1097 1.499 . S
C1095 H1069 0.950 . S
C1095 C1094 1.414 . S
C1095 C1096 1.374 . S
C1096 H1070 0.950 . S
C1096 C1092 1.385 . S
C1096 C1095 1.374 . S
C1097 C1094 1.499 . S
C1097 C1098 1.373 . S
C1097 C1099 1.389 . S
C1098 H1071 0.950 . S
C1098 C1084 1.377 . S
C1098 C1097 1.373 . S
C1099 C1083 1.377 . S
C1099 C1097 1.389 . S
C1099 C1100 1.524 . S
C1100 C1099 1.524 . S
C1100 C1101 1.397 . S
C1100 C1105 1.363 . S
C1101 H1072 0.950 . S
C1101 C1100 1.397 . S
C1101 C1102 1.334 . S
C1102 H1073 0.950 . S
C1102 C1101 1.334 . S
C1102 C1103 1.287 . S
C1103 C1102 1.287 . S
C1103 C1104 1.524 . S
C1103 H1106 0.999 . S
C1104 H1074 0.950 . S
C1104 C1103 1.524 . S
C1104 C1105 1.415 . S
C1105 H1075 0.950 . S
C1105 C1100 1.363 . S
C1105 C1104 1.415 . S
H1106 C1103 0.999 . S
H1107 C1088 0.913 . S
H1108 C1126 0.951 . S
H1109 C1128 0.951 . S
H1110 C1130 0.950 . S
H1111 C1131 0.950 . S
H1112 C1133 0.950 . S
H1113 C1136 0.950 . S
H1114 C1137 0.950 . S
H1115 C1139 0.950 . S
H1116 C1140 0.950 . S
H1117 C1141 0.951 . S
H1118 C1143 0.951 . S
H1119 C1145 0.950 . S
H1120 C1146 0.950 . S
H1121 C1148 0.950 . S
H1122 C1151 0.950 . S
H1123 C1152 0.950 . S
H1124 C1154 0.950 . S
H1125 C1155 0.950 . S
C1126 H1108 0.951 . S
C1126 C1127 1.366 . S
C1126 C1128 1.388 . S
C1127 C1126 1.366 . S
C1127 C1131 1.385 . S
C1128 H1109 0.951 . S
C1128 C1126 1.388 . S
C1128 C1129 1.366 . S
C1129 C1128 1.366 . S
C1129 C1130 1.414 . S
C1129 C1132 1.499 . S
C1130 H1110 0.950 . S
C1130 C1129 1.414 . S
C1130 C1131 1.374 . S
C1131 H1111 0.950 . S
C1131 C1127 1.385 . S
C1131 C1130 1.374 . S
C1132 C1129 1.499 . S
C1132 C1133 1.373 . S
C1132 C1134 1.389 . S
C1133 H1112 0.950 . S
C1133 C1132 1.373 . S
C1133 C1149 1.377 . S
C1134 C1132 1.389 . S
C1134 C1135 1.524 . S
C1134 C1148 1.377 . S
C1135 C1134 1.524 . S
C1135 C1136 1.397 . S
C1135 C1140 1.363 . S
C1136 H1113 0.950 . S
C1136 C1135 1.397 . S
C1136 C1137 1.334 . S
C1137 H1114 0.950 . S
C1137 C1136 1.334 . S
C1137 C1138 1.287 . S
C1138 C1137 1.287 . S
C1138 C1139 1.524 . S
C1138 H1157 0.913 . S
C1139 H1115 0.950 . S
C1139 C1138 1.524 . S
C1139 C1140 1.415 . S
C1140 H1116 0.950 . S
C1140 C1135 1.363 . S
C1140 C1139 1.415 . S
C1141 H1117 0.951 . S
C1141 C1142 1.366 . S
C1141 C1143 1.388 . S
C1142 C1141 1.366 . S
C1142 C1146 1.385 . S
C1143 H1118 0.951 . S
C1143 C1141 1.388 . S
C1143 C1144 1.366 . S
C1144 C1143 1.366 . S
C1144 C1145 1.414 . S
C1144 C1147 1.499 . S
C1145 H1119 0.950 . S
C1145 C1144 1.414 . S
C1145 C1146 1.374 . S
C1146 H1120 0.950 . S
C1146 C1142 1.385 . S
C1146 C1145 1.374 . S
C1147 C1144 1.499 . S
C1147 C1148 1.373 . S
C1147 C1149 1.389 . S
C1148 H1121 0.950 . S
C1148 C1134 1.377 . S
C1148 C1147 1.373 . S
C1149 C1133 1.377 . S
C1149 C1147 1.389 . S
C1149 C1150 1.524 . S
C1150 C1149 1.524 . S
C1150 C1151 1.397 . S
C1150 C1155 1.363 . S
C1151 H1122 0.950 . S
C1151 C1150 1.397 . S
C1151 C1152 1.334 . S
C1152 H1123 0.950 . S
C1152 C1151 1.334 . S
C1152 C1153 1.287 . S
C1153 C1152 1.287 . S
C1153 C1154 1.524 . S
C1153 H1156 0.999 . S
C1154 H1124 0.950 . S
C1154 C1153 1.524 . S
C1154 C1155 1.415 . S
C1155 H1125 0.950 . S
C1155 C1150 1.363 . S
C1155 C1154 1.415 . S
H1156 C1153 0.999 . S
H1157 C1138 0.913 . S
H1158 C1176 0.951 . S
H1159 C1178 0.951 . S
H1160 C1180 0.950 . S
H1161 C1181 0.950 . S
H1162 C1183 0.950 . S
H1163 C1186 0.950 . S
H1164 C1187 0.950 . S
H1165 C1189 0.950 . S
H1166 C1190 0.950 . S
H1167 C1191 0.951 . S
H1168 C1193 0.951 . S
H1169 C1195 0.950 . S
H1170 C1196 0.950 . S
H1171 C1198 0.950 . S
H1172 C1201 0.950 . S
H1173 C1202 0.950 . S
H1174 C1204 0.950 . S
H1175 C1205 0.950 . S
C1176 H1158 0.951 . S
C1176 C1177 1.366 . S
C1176 C1178 1.388 . S
C1177 C1176 1.366 . S
C1177 C1181 1.385 . S
C1178 H1159 0.951 . S
C1178 C1176 1.388 . S
C1178 C1179 1.366 . S
C1179 C1178 1.366 . S
C1179 C1180 1.414 . S
C1179 C1182 1.499 . S
C1180 H1160 0.950 . S
C1180 C1179 1.414 . S
C1180 C1181 1.374 . S
C1181 H1161 0.950 . S
C1181 C1177 1.385 . S
C1181 C1180 1.374 . S
C1182 C1179 1.499 . S
C1182 C1183 1.373 . S
C1182 C1184 1.389 . S
C1183 H1162 0.950 . S
C1183 C1182 1.373 . S
C1183 C1199 1.377 . S
C1184 C1182 1.389 . S
C1184 C1185 1.524 . S
C1184 C1198 1.377 . S
C1185 C1184 1.524 . S
C1185 C1186 1.397 . S
C1185 C1190 1.363 . S
C1186 H1163 0.950 . S
C1186 C1185 1.397 . S
C1186 C1187 1.334 . S
C1187 H1164 0.950 . S
C1187 C1186 1.334 . S
C1187 C1188 1.287 . S
C1188 C1187 1.287 . S
C1188 C1189 1.524 . S
C1188 H1207 0.913 . S
C1189 H1165 0.950 . S
C1189 C1188 1.524 . S
C1189 C1190 1.415 . S
C1190 H1166 0.950 . S
C1190 C1185 1.363 . S
C1190 C1189 1.415 . S
C1191 H1167 0.951 . S
C1191 C1192 1.366 . S
C1191 C1193 1.388 . S
C1192 C1191 1.366 . S
C1192 C1196 1.385 . S
C1193 H1168 0.951 . S
C1193 C1191 1.388 . S
C1193 C1194 1.366 . S
C1194 C1193 1.366 . S
C1194 C1195 1.414 . S
C1194 C1197 1.499 . S
C1195 H1169 0.950 . S
C1195 C1194 1.414 . S
C1195 C1196 1.374 . S
C1196 H1170 0.950 . S
C1196 C1192 1.385 . S
C1196 C1195 1.374 . S
C1197 C1194 1.499 . S
C1197 C1198 1.373 . S
C1197 C1199 1.389 . S
C1198 H1171 0.950 . S
C1198 C1184 1.377 . S
C1198 C1197 1.373 . S
C1199 C1183 1.377 . S
C1199 C1197 1.389 . S
C1199 C1200 1.524 . S
C1200 C1199 1.524 . S
C1200 C1201 1.397 . S
C1200 C1205 1.363 . S
C1201 H1172 0.950 . S
C1201 C1200 1.397 . S
C1201 C1202 1.334 . S
C1202 H1173 0.950 . S
C1202 C1201 1.334 . S
C1202 C1203 1.287 . S
C1203 C1202 1.287 . S
C1203 C1204 1.524 . S
C1203 H1206 0.999 . S
C1204 H1174 0.950 . S
C1204 C1203 1.524 . S
C1204 C1205 1.415 . S
C1205 H1175 0.950 . S
C1205 C1200 1.363 . S
C1205 C1204 1.415 . S
H1206 C1203 0.999 . S
H1207 C1188 0.913 . S
H1208 C1226 0.951 . S
H1209 C1228 0.951 . S
H1210 C1230 0.950 . S
H1211 C1231 0.950 . S
H1212 C1233 0.950 . S
H1213 C1236 0.950 . S
H1214 C1237 0.950 . S
H1215 C1239 0.950 . S
H1216 C1240 0.950 . S
H1217 C1241 0.951 . S
H1218 C1243 0.951 . S
H1219 C1245 0.950 . S
H1220 C1246 0.950 . S
H1221 C1248 0.950 . S
H1222 C1251 0.950 . S
H1223 C1252 0.950 . S
H1224 C1254 0.950 . S
H1225 C1255 0.950 . S
C1226 H1208 0.951 . S
C1226 C1227 1.366 . S
C1226 C1228 1.388 . S
C1227 C1226 1.366 . S
C1227 C1231 1.385 . S
C1228 H1209 0.951 . S
C1228 C1226 1.388 . S
C1228 C1229 1.366 . S
C1229 C1228 1.366 . S
C1229 C1230 1.414 . S
C1229 C1232 1.499 . S
C1230 H1210 0.950 . S
C1230 C1229 1.414 . S
C1230 C1231 1.374 . S
C1231 H1211 0.950 . S
C1231 C1227 1.385 . S
C1231 C1230 1.374 . S
C1232 C1229 1.499 . S
C1232 C1233 1.373 . S
C1232 C1234 1.389 . S
C1233 H1212 0.950 . S
C1233 C1232 1.373 . S
C1233 C1249 1.377 . S
C1234 C1232 1.389 . S
C1234 C1235 1.524 . S
C1234 C1248 1.377 . S
C1235 C1234 1.524 . S
C1235 C1236 1.397 . S
C1235 C1240 1.363 . S
C1236 H1213 0.950 . S
C1236 C1235 1.397 . S
C1236 C1237 1.334 . S
C1237 H1214 0.950 . S
C1237 C1236 1.334 . S
C1237 C1238 1.287 . S
C1238 C1237 1.287 . S
C1238 C1239 1.524 . S
C1238 H1257 0.913 . S
C1239 H1215 0.950 . S
C1239 C1238 1.524 . S
C1239 C1240 1.415 . S
C1240 H1216 0.950 . S
C1240 C1235 1.363 . S
C1240 C1239 1.415 . S
C1241 H1217 0.951 . S
C1241 C1242 1.366 . S
C1241 C1243 1.388 . S
C1242 C1241 1.366 . S
C1242 C1246 1.385 . S
C1243 H1218 0.951 . S
C1243 C1241 1.388 . S
C1243 C1244 1.366 . S
C1244 C1243 1.366 . S
C1244 C1245 1.414 . S
C1244 C1247 1.499 . S
C1245 H1219 0.950 . S
C1245 C1244 1.414 . S
C1245 C1246 1.374 . S
C1246 H1220 0.950 . S
C1246 C1242 1.385 . S
C1246 C1245 1.374 . S
C1247 C1244 1.499 . S
C1247 C1248 1.373 . S
C1247 C1249 1.389 . S
C1248 H1221 0.950 . S
C1248 C1234 1.377 . S
C1248 C1247 1.373 . S
C1249 C1233 1.377 . S
C1249 C1247 1.389 . S
C1249 C1250 1.524 . S
C1250 C1249 1.524 . S
C1250 C1251 1.397 . S
C1250 C1255 1.363 . S
C1251 H1222 0.950 . S
C1251 C1250 1.397 . S
C1251 C1252 1.334 . S
C1252 H1223 0.950 . S
C1252 C1251 1.334 . S
C1252 C1253 1.287 . S
C1253 C1252 1.287 . S
C1253 C1254 1.524 . S
C1253 H1256 0.999 . S
C1254 H1224 0.950 . S
C1254 C1253 1.524 . S
C1254 C1255 1.415 . S
C1255 H1225 0.950 . S
C1255 C1250 1.363 . S
C1255 C1254 1.415 . S
H1256 C1253 0.999 . S
H1257 C1238 0.913 . S
H1258 C1276 0.951 . S
H1259 C1278 0.951 . S
H1260 C1280 0.950 . S
H1261 C1281 0.950 . S
H1262 C1283 0.950 . S
H1263 C1286 0.950 . S
H1264 C1287 0.950 . S
H1265 C1289 0.950 . S
H1266 C1290 0.950 . S
H1267 C1291 0.951 . S
H1268 C1293 0.951 . S
H1269 C1295 0.950 . S
H1270 C1296 0.950 . S
H1271 C1298 0.950 . S
H1272 C1301 0.950 . S
H1273 C1302 0.950 . S
H1274 C1304 0.950 . S
H1275 C1305 0.950 . S
C1276 H1258 0.951 . S
C1276 C1277 1.366 . S
C1276 C1278 1.388 . S
C1277 C1276 1.366 . S
C1277 C1281 1.385 . S
C1278 H1259 0.951 . S
C1278 C1276 1.388 . S
C1278 C1279 1.366 . S
C1279 C1278 1.366 . S
C1279 C1280 1.414 . S
C1279 C1282 1.499 . S
C1280 H1260 0.950 . S
C1280 C1279 1.414 . S
C1280 C1281 1.374 . S
C1281 H1261 0.950 . S
C1281 C1277 1.385 . S
C1281 C1280 1.374 . S
C1282 C1279 1.499 . S
C1282 C1283 1.373 . S
C1282 C1284 1.389 . S
C1283 H1262 0.950 . S
C1283 C1282 1.373 . S
C1283 C1299 1.377 . S
C1284 C1282 1.389 . S
C1284 C1285 1.524 . S
C1284 C1298 1.377 . S
C1285 C1284 1.524 . S
C1285 C1286 1.397 . S
C1285 C1290 1.363 . S
C1286 H1263 0.950 . S
C1286 C1285 1.397 . S
C1286 C1287 1.334 . S
C1287 H1264 0.950 . S
C1287 C1286 1.334 . S
C1287 C1288 1.287 . S
C1288 C1287 1.287 . S
C1288 C1289 1.524 . S
C1288 H1307 0.913 . S
C1289 H1265 0.950 . S
C1289 C1288 1.524 . S
C1289 C1290 1.415 . S
C1290 H1266 0.950 . S
C1290 C1285 1.363 . S
C1290 C1289 1.415 . S
C1291 H1267 0.951 . S
C1291 C1292 1.366 . S
C1291 C1293 1.388 . S
C1292 C1291 1.366 . S
C1292 C1296 1.385 . S
C1293 H1268 0.951 . S
C1293 C1291 1.388 . S
C1293 C1294 1.366 . S
C1294 C1293 1.366 . S
C1294 C1295 1.414 . S
C1294 C1297 1.499 . S
C1295 H1269 0.950 . S
C1295 C1294 1.414 . S
C1295 C1296 1.374 . S
C1296 H1270 0.950 . S
C1296 C1292 1.385 . S
C1296 C1295 1.374 . S
C1297 C1294 1.499 . S
C1297 C1298 1.373 . S
C1297 C1299 1.389 . S
C1298 H1271 0.950 . S
C1298 C1284 1.377 . S
C1298 C1297 1.373 . S
C1299 C1283 1.377 . S
C1299 C1297 1.389 . S
C1299 C1300 1.524 . S
C1300 C1299 1.524 . S
C1300 C1301 1.397 . S
C1300 C1305 1.363 . S
C1301 H1272 0.950 . S
C1301 C1300 1.397 . S
C1301 C1302 1.334 . S
C1302 H1273 0.950 . S
C1302 C1301 1.334 . S
C1302 C1303 1.287 . S
C1303 C1302 1.287 . S
C1303 C1304 1.524 . S
C1303 H1306 0.999 . S
C1304 H1274 0.950 . S
C1304 C1303 1.524 . S
C1304 C1305 1.415 . S
C1305 H1275 0.950 . S
C1305 C1300 1.363 . S
C1305 C1304 1.415 . S
H1306 C1303 0.999 . S
H1307 C1288 0.913 . S
H1308 C1326 0.951 . S
H1309 C1328 0.951 . S
H1310 C1330 0.950 . S
H1311 C1331 0.950 . S
H1312 C1333 0.950 . S
H1313 C1336 0.950 . S
H1314 C1337 0.950 . S
H1315 C1339 0.950 . S
H1316 C1340 0.950 . S
H1317 C1341 0.951 . S
H1318 C1343 0.951 . S
H1319 C1345 0.950 . S
H1320 C1346 0.950 . S
H1321 C1348 0.950 . S
H1322 C1351 0.950 . S
H1323 C1352 0.950 . S
H1324 C1354 0.950 . S
H1325 C1355 0.950 . S
C1326 H1308 0.951 . S
C1326 C1327 1.366 . S
C1326 C1328 1.388 . S
C1327 C1326 1.366 . S
C1327 C1331 1.385 . S
C1328 H1309 0.951 . S
C1328 C1326 1.388 . S
C1328 C1329 1.366 . S
C1329 C1328 1.366 . S
C1329 C1330 1.414 . S
C1329 C1332 1.499 . S
C1330 H1310 0.950 . S
C1330 C1329 1.414 . S
C1330 C1331 1.374 . S
C1331 H1311 0.950 . S
C1331 C1327 1.385 . S
C1331 C1330 1.374 . S
C1332 C1329 1.499 . S
C1332 C1333 1.373 . S
C1332 C1334 1.389 . S
C1333 H1312 0.950 . S
C1333 C1332 1.373 . S
C1333 C1349 1.377 . S
C1334 C1332 1.389 . S
C1334 C1335 1.524 . S
C1334 C1348 1.377 . S
C1335 C1334 1.524 . S
C1335 C1336 1.397 . S
C1335 C1340 1.363 . S
C1336 H1313 0.950 . S
C1336 C1335 1.397 . S
C1336 C1337 1.334 . S
C1337 H1314 0.950 . S
C1337 C1336 1.334 . S
C1337 C1338 1.287 . S
C1338 C1337 1.287 . S
C1338 C1339 1.524 . S
C1338 H1357 0.913 . S
C1339 H1315 0.950 . S
C1339 C1338 1.524 . S
C1339 C1340 1.415 . S
C1340 H1316 0.950 . S
C1340 C1335 1.363 . S
C1340 C1339 1.415 . S
C1341 H1317 0.951 . S
C1341 C1342 1.366 . S
C1341 C1343 1.388 . S
C1342 C1341 1.366 . S
C1342 C1346 1.385 . S
C1343 H1318 0.951 . S
C1343 C1341 1.388 . S
C1343 C1344 1.366 . S
C1344 C1343 1.366 . S
C1344 C1345 1.414 . S
C1344 C1347 1.499 . S
C1345 H1319 0.950 . S
C1345 C1344 1.414 . S
C1345 C1346 1.374 . S
C1346 H1320 0.950 . S
C1346 C1342 1.385 . S
C1346 C1345 1.374 . S
C1347 C1344 1.499 . S
C1347 C1348 1.373 . S
C1347 C1349 1.389 . S
C1348 H1321 0.950 . S
C1348 C1334 1.377 . S
C1348 C1347 1.373 . S
C1349 C1333 1.377 . S
C1349 C1347 1.389 . S
C1349 C1350 1.524 . S
C1350 C1349 1.524 . S
C1350 C1351 1.397 . S
C1350 C1355 1.363 . S
C1351 H1322 0.950 . S
C1351 C1350 1.397 . S
C1351 C1352 1.334 . S
C1352 H1323 0.950 . S
C1352 C1351 1.334 . S
C1352 C1353 1.287 . S
C1353 C1352 1.287 . S
C1353 C1354 1.524 . S
C1353 H1356 0.999 . S
C1354 H1324 0.950 . S
C1354 C1353 1.524 . S
C1354 C1355 1.415 . S
C1355 H1325 0.950 . S
C1355 C1350 1.363 . S
C1355 C1354 1.415 . S
H1356 C1353 0.999 . S
H1357 C1338 0.913 . S
H1358 C1376 0.951 . S
H1359 C1378 0.951 . S
H1360 C1380 0.950 . S
H1361 C1381 0.950 . S
H1362 C1383 0.950 . S
H1363 C1386 0.950 . S
H1364 C1387 0.950 . S
H1365 C1389 0.950 . S
H1366 C1390 0.950 . S
H1367 C1391 0.951 . S
H1368 C1393 0.951 . S
H1369 C1395 0.950 . S
H1370 C1396 0.950 . S
H1371 C1398 0.950 . S
H1372 C1401 0.950 . S
H1373 C1402 0.950 . S
H1374 C1404 0.950 . S
H1375 C1405 0.950 . S
C1376 H1358 0.951 . S
C1376 C1377 1.366 . S
C1376 C1378 1.388 . S
C1377 C1376 1.366 . S
C1377 C1381 1.385 . S
C1378 H1359 0.951 . S
C1378 C1376 1.388 . S
C1378 C1379 1.366 . S
C1379 C1378 1.366 . S
C1379 C1380 1.414 . S
C1379 C1382 1.499 . S
C1380 H1360 0.950 . S
C1380 C1379 1.414 . S
C1380 C1381 1.374 . S
C1381 H1361 0.950 . S
C1381 C1377 1.385 . S
C1381 C1380 1.374 . S
C1382 C1379 1.499 . S
C1382 C1383 1.373 . S
C1382 C1384 1.389 . S
C1383 H1362 0.950 . S
C1383 C1382 1.373 . S
C1383 C1399 1.377 . S
C1384 C1382 1.389 . S
C1384 C1385 1.524 . S
C1384 C1398 1.377 . S
C1385 C1384 1.524 . S
C1385 C1386 1.397 . S
C1385 C1390 1.363 . S
C1386 H1363 0.950 . S
C1386 C1385 1.397 . S
C1386 C1387 1.334 . S
C1387 H1364 0.950 . S
C1387 C1386 1.334 . S
C1387 C1388 1.287 . S
C1388 C1387 1.287 . S
C1388 C1389 1.524 . S
C1388 H1407 0.913 . S
C1389 H1365 0.950 . S
C1389 C1388 1.524 . S
C1389 C1390 1.415 . S
C1390 H1366 0.950 . S
C1390 C1385 1.363 . S
C1390 C1389 1.415 . S
C1391 H1367 0.951 . S
C1391 C1392 1.366 . S
C1391 C1393 1.388 . S
C1392 C1391 1.366 . S
C1392 C1396 1.385 . S
C1393 H1368 0.951 . S
C1393 C1391 1.388 . S
C1393 C1394 1.366 . S
C1394 C1393 1.366 . S
C1394 C1395 1.414 . S
C1394 C1397 1.499 . S
C1395 H1369 0.950 . S
C1395 C1394 1.414 . S
C1395 C1396 1.374 . S
C1396 H1370 0.950 . S
C1396 C1392 1.385 . S
C1396 C1395 1.374 . S
C1397 C1394 1.499 . S
C1397 C1398 1.373 . S
C1397 C1399 1.389 . S
C1398 H1371 0.950 . S
C1398 C1384 1.377 . S
C1398 C1397 1.373 . S
C1399 C1383 1.377 . S
C1399 C1397 1.389 . S
C1399 C1400 1.524 . S
C1400 C1399 1.524 . S
C1400 C1401 1.397 . S
C1400 C1405 1.363 . S
C1401 H1372 0.950 . S
C1401 C1400 1.397 . S
C1401 C1402 1.334 . S
C1402 H1373 0.950 . S
C1402 C1401 1.334 . S
C1402 C1403 1.287 . S
C1403 C1402 1.287 . S
C1403 C1404 1.524 . S
C1403 H1406 0.999 . S
C1404 H1374 0.950 . S
C1404 C1403 1.524 . S
C1404 C1405 1.415 . S
C1405 H1375 0.950 . S
C1405 C1400 1.363 . S
C1405 C1404 1.415 . S
H1406 C1403 0.999 . S
H1407 C1388 0.913 . S
H1408 C1426 0.951 . S
H1409 C1428 0.951 . S
H1410 C1430 0.950 . S
H1411 C1431 0.950 . S
H1412 C1433 0.950 . S
H1413 C1436 0.950 . S
H1414 C1437 0.950 . S
H1415 C1439 0.950 . S
H1416 C1440 0.950 . S
H1417 C1441 0.951 . S
H1418 C1443 0.951 . S
H1419 C1445 0.950 . S
H1420 C1446 0.950 . S
H1421 C1448 0.950 . S
H1422 C1451 0.950 . S
H1423 C1452 0.950 . S
H1424 C1454 0.950 . S
H1425 C1455 0.950 . S
C1426 H1408 0.951 . S
C1426 C1427 1.366 . S
C1426 C1428 1.388 . S
C1427 C1426 1.366 . S
C1427 C1431 1.385 . S
C1428 H1409 0.951 . S
C1428 C1426 1.388 . S
C1428 C1429 1.366 . S
C1429 C1428 1.366 . S
C1429 C1430 1.414 . S
C1429 C1432 1.499 . S
C1430 H1410 0.950 . S
C1430 C1429 1.414 . S
C1430 C1431 1.374 . S
C1431 H1411 0.950 . S
C1431 C1427 1.385 . S
C1431 C1430 1.374 . S
C1432 C1429 1.499 . S
C1432 C1433 1.373 . S
C1432 C1434 1.389 . S
C1433 H1412 0.950 . S
C1433 C1432 1.373 . S
C1433 C1449 1.377 . S
C1434 C1432 1.389 . S
C1434 C1435 1.524 . S
C1434 C1448 1.377 . S
C1435 C1434 1.524 . S
C1435 C1436 1.397 . S
C1435 C1440 1.363 . S
C1436 H1413 0.950 . S
C1436 C1435 1.397 . S
C1436 C1437 1.334 . S
C1437 H1414 0.950 . S
C1437 C1436 1.334 . S
C1437 C1438 1.287 . S
C1438 C1437 1.287 . S
C1438 C1439 1.524 . S
C1438 H1457 0.913 . S
C1439 H1415 0.950 . S
C1439 C1438 1.524 . S
C1439 C1440 1.415 . S
C1440 H1416 0.950 . S
C1440 C1435 1.363 . S
C1440 C1439 1.415 . S
C1441 H1417 0.951 . S
C1441 C1442 1.366 . S
C1441 C1443 1.388 . S
C1442 C1441 1.366 . S
C1442 C1446 1.385 . S
C1443 H1418 0.951 . S
C1443 C1441 1.388 . S
C1443 C1444 1.366 . S
C1444 C1443 1.366 . S
C1444 C1445 1.414 . S
C1444 C1447 1.499 . S
C1445 H1419 0.950 . S
C1445 C1444 1.414 . S
C1445 C1446 1.374 . S
C1446 H1420 0.950 . S
C1446 C1442 1.385 . S
C1446 C1445 1.374 . S
C1447 C1444 1.499 . S
C1447 C1448 1.373 . S
C1447 C1449 1.389 . S
C1448 H1421 0.950 . S
C1448 C1434 1.377 . S
C1448 C1447 1.373 . S
C1449 C1433 1.377 . S
C1449 C1447 1.389 . S
C1449 C1450 1.524 . S
C1450 C1449 1.524 . S
C1450 C1451 1.397 . S
C1450 C1455 1.363 . S
C1451 H1422 0.950 . S
C1451 C1450 1.397 . S
C1451 C1452 1.334 . S
C1452 H1423 0.950 . S
C1452 C1451 1.334 . S
C1452 C1453 1.287 . S
C1453 C1452 1.287 . S
C1453 C1454 1.524 . S
C1453 H1456 0.999 . S
C1454 H1424 0.950 . S
C1454 C1453 1.524 . S
C1454 C1455 1.415 . S
C1455 H1425 0.950 . S
C1455 C1450 1.363 . S
C1455 C1454 1.415 . S
H1456 C1453 0.999 . S
H1457 C1438 0.913 . S
H1458 C1476 0.951 . S
H1459 C1478 0.951 . S
H1460 C1480 0.950 . S
H1461 C1481 0.950 . S
H1462 C1483 0.950 . S
H1463 C1486 0.950 . S
H1464 C1487 0.950 . S
H1465 C1489 0.950 . S
H1466 C1490 0.950 . S
H1467 C1491 0.951 . S
H1468 C1493 0.951 . S
H1469 C1495 0.950 . S
H1470 C1496 0.950 . S
H1471 C1498 0.950 . S
H1472 C1501 0.950 . S
H1473 C1502 0.950 . S
H1474 C1504 0.950 . S
H1475 C1505 0.950 . S
C1476 H1458 0.951 . S
C1476 C1477 1.366 . S
C1476 C1478 1.388 . S
C1477 C1476 1.366 . S
C1477 C1481 1.385 . S
C1478 H1459 0.951 . S
C1478 C1476 1.388 . S
C1478 C1479 1.366 . S
C1479 C1478 1.366 . S
C1479 C1480 1.414 . S
C1479 C1482 1.499 . S
C1480 H1460 0.950 . S
C1480 C1479 1.414 . S
C1480 C1481 1.374 . S
C1481 H1461 0.950 . S
C1481 C1477 1.385 . S
C1481 C1480 1.374 . S
C1482 C1479 1.499 . S
C1482 C1483 1.373 . S
C1482 C1484 1.389 . S
C1483 H1462 0.950 . S
C1483 C1482 1.373 . S
C1483 C1499 1.377 . S
C1484 C1482 1.389 . S
C1484 C1485 1.524 . S
C1484 C1498 1.377 . S
C1485 C1484 1.524 . S
C1485 C1486 1.397 . S
C1485 C1490 1.363 . S
C1486 H1463 0.950 . S
C1486 C1485 1.397 . S
C1486 C1487 1.334 . S
C1487 H1464 0.950 . S
C1487 C1486 1.334 . S
C1487 C1488 1.287 . S
C1488 C1487 1.287 . S
C1488 C1489 1.524 . S
C1488 H1507 0.913 . S
C1489 H1465 0.950 . S
C1489 C1488 1.524 . S
C1489 C1490 1.415 . S
C1490 H1466 0.950 . S
C1490 C1485 1.363 . S
C1490 C1489 1.415 . S
C1491 H1467 0.951 . S
C1491 C1492 1.366 . S
C1491 C1493 1.388 . S
C1492 C1491 1.366 . S
C1492 C1496 1.385 . S
C1493 H1468 0.951 . S
C1493 C1491 1.388 . S
C1493 C1494 1.366 . S
C1494 C1493 1.366 . S
C1494 C1495 1.414 . S
C1494 C1497 1.499 . S
C1495 H1469 0.950 . S
C1495 C1494 1.414 . S
C1495 C1496 1.374 . S
C1496 H1470 0.950 . S
C1496 C1492 1.385 . S
C1496 C1495 1.374 . S
C1497 C1494 1.499 . S
C1497 C1498 1.373 . S
C1497 C1499 1.389 . S
C1498 H1471 0.950 . S
C1498 C1484 1.377 . S
C1498 C1497 1.373 . S
C1499 C1483 1.377 . S
C1499 C1497 1.389 . S
C1499 C1500 1.524 . S
C1500 C1499 1.524 . S
C1500 C1501 1.397 . S
C1500 C1505 1.363 . S
C1501 H1472 0.950 . S
C1501 C1500 1.397 . S
C1501 C1502 1.334 . S
C1502 H1473 0.950 . S
C1502 C1501 1.334 . S
C1502 C1503 1.287 . S
C1503 C1502 1.287 . S
C1503 C1504 1.524 . S
C1503 H1506 0.999 . S
C1504 H1474 0.950 . S
C1504 C1503 1.524 . S
C1504 C1505 1.415 . S
C1505 H1475 0.950 . S
C1505 C1500 1.363 . S
C1505 C1504 1.415 . S
H1506 C1503 0.999 . S
H1507 C1488 0.913 . S
H1508 C1526 0.951 . S
H1509 C1528 0.951 . S
H1510 C1530 0.950 . S
H1511 C1531 0.950 . S
H1512 C1533 0.950 . S
H1513 C1536 0.950 . S
H1514 C1537 0.950 . S
H1515 C1539 0.950 . S
H1516 C1540 0.950 . S
H1517 C1541 0.951 . S
H1518 C1543 0.951 . S
H1519 C1545 0.950 . S
H1520 C1546 0.950 . S
H1521 C1548 0.950 . S
H1522 C1551 0.950 . S
H1523 C1552 0.950 . S
H1524 C1554 0.950 . S
H1525 C1555 0.950 . S
C1526 H1508 0.951 . S
C1526 C1527 1.366 . S
C1526 C1528 1.388 . S
C1527 C1526 1.366 . S
C1527 C1531 1.385 . S
C1528 H1509 0.951 . S
C1528 C1526 1.388 . S
C1528 C1529 1.366 . S
C1529 C1528 1.366 . S
C1529 C1530 1.414 . S
C1529 C1532 1.499 . S
C1530 H1510 0.950 . S
C1530 C1529 1.414 . S
C1530 C1531 1.374 . S
C1531 H1511 0.950 . S
C1531 C1527 1.385 . S
C1531 C1530 1.374 . S
C1532 C1529 1.499 . S
C1532 C1533 1.373 . S
C1532 C1534 1.389 . S
C1533 H1512 0.950 . S
C1533 C1532 1.373 . S
C1533 C1549 1.377 . S
C1534 C1532 1.389 . S
C1534 C1535 1.524 . S
C1534 C1548 1.377 . S
C1535 C1534 1.524 . S
C1535 C1536 1.397 . S
C1535 C1540 1.363 . S
C1536 H1513 0.950 . S
C1536 C1535 1.397 . S
C1536 C1537 1.334 . S
C1537 H1514 0.950 . S
C1537 C1536 1.334 . S
C1537 C1538 1.287 . S
C1538 C1537 1.287 . S
C1538 C1539 1.524 . S
C1538 H1557 0.913 . S
C1539 H1515 0.950 . S
C1539 C1538 1.524 . S
C1539 C1540 1.415 . S
C1540 H1516 0.950 . S
C1540 C1535 1.363 . S
C1540 C1539 1.415 . S
C1541 H1517 0.951 . S
C1541 C1542 1.366 . S
C1541 C1543 1.388 . S
C1542 C1541 1.366 . S
C1542 C1546 1.385 . S
C1543 H1518 0.951 . S
C1543 C1541 1.388 . S
C1543 C1544 1.366 . S
C1544 C1543 1.366 . S
C1544 C1545 1.414 . S
C1544 C1547 1.499 . S
C1545 H1519 0.950 . S
C1545 C1544 1.414 . S
C1545 C1546 1.374 . S
C1546 H1520 0.950 . S
C1546 C1542 1.385 . S
C1546 C1545 1.374 . S
C1547 C1544 1.499 . S
C1547 C1548 1.373 . S
C1547 C1549 1.389 . S
C1548 H1521 0.950 . S
C1548 C1534 1.377 . S
C1548 C1547 1.373 . S
C1549 C1533 1.377 . S
C1549 C1547 1.389 . S
C1549 C1550 1.524 . S
C1550 C1549 1.524 . S
C1550 C1551 1.397 . S
C1550 C1555 1.363 . S
C1551 H1522 0.950 . S
C1551 C1550 1.397 . S
C1551 C1552 1.334 . S
C1552 H1523 0.950 . S
C1552 C1551 1.334 . S
C1552 C1553 1.287 . S
C1553 C1552 1.287 . S
C1553 C1554 1.524 . S
C1553 H1556 0.999 . S
C1554 H1524 0.950 . S
C1554 C1553 1.524 . S
C1554 C1555 1.415 . S
C1555 H1525 0.950 . S
C1555 C1550 1.363 . S
C1555 C1554 1.415 . S
H1556 C1553 0.999 . S
H1557 C1538 0.913 . S
H1558 C1576 0.951 . S
H1559 C1578 0.951 . S
H1560 C1580 0.950 . S
H1561 C1581 0.950 . S
H1562 C1583 0.950 . S
H1563 C1586 0.950 . S
H1564 C1587 0.950 . S
H1565 C1589 0.950 . S
H1566 C1590 0.950 . S
H1567 C1591 0.951 . S
H1568 C1593 0.951 . S
H1569 C1595 0.950 . S
H1570 C1596 0.950 . S
H1571 C1598 0.950 . S
H1572 C1601 0.950 . S
H1573 C1602 0.950 . S
H1574 C1604 0.950 . S
H1575 C1605 0.950 . S
C1576 H1558 0.951 . S
C1576 C1577 1.366 . S
C1576 C1578 1.388 . S
C1577 C1576 1.366 . S
C1577 C1581 1.385 . S
C1578 H1559 0.951 . S
C1578 C1576 1.388 . S
C1578 C1579 1.366 . S
C1579 C1578 1.366 . S
C1579 C1580 1.414 . S
C1579 C1582 1.499 . S
C1580 H1560 0.950 . S
C1580 C1579 1.414 . S
C1580 C1581 1.374 . S
C1581 H1561 0.950 . S
C1581 C1577 1.385 . S
C1581 C1580 1.374 . S
C1582 C1579 1.499 . S
C1582 C1583 1.373 . S
C1582 C1584 1.389 . S
C1583 H1562 0.950 . S
C1583 C1582 1.373 . S
C1583 C1599 1.377 . S
C1584 C1582 1.389 . S
C1584 C1585 1.524 . S
C1584 C1598 1.377 . S
C1585 C1584 1.524 . S
C1585 C1586 1.397 . S
C1585 C1590 1.363 . S
C1586 H1563 0.950 . S
C1586 C1585 1.397 . S
C1586 C1587 1.334 . S
C1587 H1564 0.950 . S
C1587 C1586 1.334 . S
C1587 C1588 1.287 . S
C1588 C1587 1.287 . S
C1588 C1589 1.524 . S
C1588 H1607 0.913 . S
C1589 H1565 0.950 . S
C1589 C1588 1.524 . S
C1589 C1590 1.415 . S
C1590 H1566 0.950 . S
C1590 C1585 1.363 . S
C1590 C1589 1.415 . S
C1591 H1567 0.951 . S
C1591 C1592 1.366 . S
C1591 C1593 1.388 . S
C1592 C1591 1.366 . S
C1592 C1596 1.385 . S
C1593 H1568 0.951 . S
C1593 C1591 1.388 . S
C1593 C1594 1.366 . S
C1594 C1593 1.366 . S
C1594 C1595 1.414 . S
C1594 C1597 1.499 . S
C1595 H1569 0.950 . S
C1595 C1594 1.414 . S
C1595 C1596 1.374 . S
C1596 H1570 0.950 . S
C1596 C1592 1.385 . S
C1596 C1595 1.374 . S
C1597 C1594 1.499 . S
C1597 C1598 1.373 . S
C1597 C1599 1.389 . S
C1598 H1571 0.950 . S
C1598 C1584 1.377 . S
C1598 C1597 1.373 . S
C1599 C1583 1.377 . S
C1599 C1597 1.389 . S
C1599 C1600 1.524 . S
C1600 C1599 1.524 . S
C1600 C1601 1.397 . S
C1600 C1605 1.363 . S
C1601 H1572 0.950 . S
C1601 C1600 1.397 . S
C1601 C1602 1.334 . S
C1602 H1573 0.950 . S
C1602 C1601 1.334 . S
C1602 C1603 1.287 . S
C1603 C1602 1.287 . S
C1603 C1604 1.524 . S
C1603 H1606 0.999 . S
C1604 H1574 0.950 . S
C1604 C1603 1.524 . S
C1604 C1605 1.415 . S
C1605 H1575 0.950 . S
C1605 C1600 1.363 . S
C1605 C1604 1.415 . S
H1606 C1603 0.999 . S
H1607 C1588 0.913 . S
H1608 C1626 0.951 . S
H1609 C1628 0.951 . S
H1610 C1630 0.950 . S
H1611 C1631 0.950 . S
H1612 C1633 0.950 . S
H1613 C1636 0.950 . S
H1614 C1637 0.950 . S
H1615 C1639 0.950 . S
H1616 C1640 0.950 . S
H1617 C1641 0.951 . S
H1618 C1643 0.951 . S
H1619 C1645 0.950 . S
H1620 C1646 0.950 . S
H1621 C1648 0.950 . S
H1622 C1651 0.950 . S
H1623 C1652 0.950 . S
H1624 C1654 0.950 . S
H1625 C1655 0.950 . S
C1626 H1608 0.951 . S
C1626 C1627 1.366 . S
C1626 C1628 1.388 . S
C1627 C1626 1.366 . S
C1627 C1631 1.385 . S
C1628 H1609 0.951 . S
C1628 C1626 1.388 . S
C1628 C1629 1.366 . S
C1629 C1628 1.366 . S
C1629 C1630 1.414 . S
C1629 C1632 1.499 . S
C1630 H1610 0.950 . S
C1630 C1629 1.414 . S
C1630 C1631 1.374 . S
C1631 H1611 0.950 . S
C1631 C1627 1.385 . S
C1631 C1630 1.374 . S
C1632 C1629 1.499 . S
C1632 C1633 1.373 . S
C1632 C1634 1.389 1_455 S
C1633 H1612 0.950 . S
C1633 C1632 1.373 . S
C1633 C1649 1.377 1_545 S
C1634 C1632 1.389 1_655 S
C1634 C1635 1.524 . S
C1634 C1648 1.377 1_545 S
C1635 C1634 1.524 . S
C1635 C1636 1.397 . S
C1635 C1640 1.363 . S
C1636 H1613 0.950 . S
C1636 C1635 1.397 . S
C1636 C1637 1.334 . S
C1637 H1614 0.950 . S
C1637 C1636 1.334 . S
C1637 C1638 1.287 . S
C1638 C1637 1.287 . S
C1638 C1639 1.524 . S
C1638 H1657 0.913 . S
C1639 H1615 0.950 . S
C1639 C1638 1.524 . S
C1639 C1640 1.415 . S
C1640 H1616 0.950 . S
C1640 C1635 1.363 . S
C1640 C1639 1.415 . S
C1641 H1617 0.951 . S
C1641 C1642 1.366 . S
C1641 C1643 1.388 . S
C1642 C1641 1.366 . S
C1642 C1646 1.385 . S
C1643 H1618 0.951 . S
C1643 C1641 1.388 . S
C1643 C1644 1.366 . S
C1644 C1643 1.366 . S
C1644 C1645 1.414 . S
C1644 C1647 1.499 . S
C1645 H1619 0.950 . S
C1645 C1644 1.414 . S
C1645 C1646 1.374 . S
C1646 H1620 0.950 . S
C1646 C1642 1.385 . S
C1646 C1645 1.374 . S
C1647 C1644 1.499 . S
C1647 C1648 1.373 . S
C1647 C1649 1.389 1_655 S
C1648 H1621 0.950 . S
C1648 C1634 1.377 1_565 S
C1648 C1647 1.373 . S
C1649 C1633 1.377 1_565 S
C1649 C1647 1.389 1_455 S
C1649 C1650 1.524 . S
C1650 C1649 1.524 . S
C1650 C1651 1.397 . S
C1650 C1655 1.363 . S
C1651 H1622 0.950 . S
C1651 C1650 1.397 . S
C1651 C1652 1.334 . S
C1652 H1623 0.950 . S
C1652 C1651 1.334 . S
C1652 C1653 1.287 . S
C1653 C1652 1.287 . S
C1653 C1654 1.524 . S
C1653 H1656 0.999 . S
C1654 H1624 0.950 . S
C1654 C1653 1.524 . S
C1654 C1655 1.415 . S
C1655 H1625 0.950 . S
C1655 C1650 1.363 . S
C1655 C1654 1.415 . S
H1656 C1653 0.999 . S
H1657 C1638 0.913 . S
H1658 C1676 0.951 . S
H1659 C1678 0.951 . S
H1660 C1680 0.950 . S
H1661 C1681 0.950 . S
H1662 C1683 0.950 . S
H1663 C1686 0.950 . S
H1664 C1687 0.950 . S
H1665 C1689 0.950 . S
H1666 C1690 0.948 1_565 S
H1667 C1691 0.951 . S
H1668 C1693 0.951 . S
H1669 C1695 0.950 . S
H1670 C1696 0.950 . S
H1671 C1698 0.950 . S
H1672 C1701 0.950 . S
H1673 C1702 0.950 . S
H1674 C1704 0.950 . S
H1675 C1705 0.948 1_545 S
C1676 H1658 0.951 . S
C1676 C1677 1.366 . S
C1676 C1678 1.388 . S
C1677 C1676 1.366 . S
C1677 C1681 1.385 . S
C1678 H1659 0.951 . S
C1678 C1676 1.388 . S
C1678 C1679 1.366 . S
C1679 C1678 1.366 . S
C1679 C1680 1.414 . S
C1679 C1682 1.499 . S
C1680 H1660 0.950 . S
C1680 C1679 1.414 . S
C1680 C1681 1.374 . S
C1681 H1661 0.950 . S
C1681 C1677 1.385 . S
C1681 C1680 1.374 . S
C1682 C1679 1.499 . S
C1682 C1683 1.373 1_655 S
C1682 C1684 1.389 . S
C1683 H1662 0.950 . S
C1683 C1682 1.373 1_455 S
C1683 C1699 1.377 1_545 S
C1684 C1682 1.389 . S
C1684 C1685 1.524 . S
C1684 C1698 1.377 1_545 S
C1685 C1684 1.524 . S
C1685 C1686 1.397 . S
C1685 C1690 1.363 . S
C1686 H1663 0.950 . S
C1686 C1685 1.397 . S
C1686 C1687 1.334 . S
C1687 H1664 0.950 . S
C1687 C1686 1.334 . S
C1687 C1688 1.287 . S
C1688 C1687 1.287 . S
C1688 C1689 1.524 . S
C1688 H1707 0.913 . S
C1689 H1665 0.950 . S
C1689 C1688 1.524 . S
C1689 C1690 1.415 . S
C1690 H1666 0.948 1_545 S
C1690 C1685 1.363 . S
C1690 C1689 1.415 . S
C1691 H1667 0.951 . S
C1691 C1692 1.366 . S
C1691 C1693 1.388 . S
C1692 C1691 1.366 . S
C1692 C1696 1.385 . S
C1693 H1668 0.951 . S
C1693 C1691 1.388 . S
C1693 C1694 1.366 . S
C1694 C1693 1.366 . S
C1694 C1695 1.414 . S
C1694 C1697 1.499 . S
C1695 H1669 0.950 . S
C1695 C1694 1.414 . S
C1695 C1696 1.374 . S
C1696 H1670 0.950 . S
C1696 C1692 1.385 . S
C1696 C1695 1.374 . S
C1697 C1694 1.499 . S
C1697 C1698 1.373 1_455 S
C1697 C1699 1.389 . S
C1698 H1671 0.950 . S
C1698 C1684 1.377 1_565 S
C1698 C1697 1.373 1_655 S
C1699 C1683 1.377 1_565 S
C1699 C1697 1.389 . S
C1699 C1700 1.524 . S
C1700 C1699 1.524 . S
C1700 C1701 1.397 . S
C1700 C1705 1.363 . S
C1701 H1672 0.950 . S
C1701 C1700 1.397 . S
C1701 C1702 1.334 . S
C1702 H1673 0.950 . S
C1702 C1701 1.334 . S
C1702 C1703 1.287 . S
C1703 C1702 1.287 . S
C1703 C1704 1.524 . S
C1703 H1706 0.999 . S
C1704 H1674 0.950 . S
C1704 C1703 1.524 . S
C1704 C1705 1.415 . S
C1705 H1675 0.948 1_565 S
C1705 C1700 1.363 . S
C1705 C1704 1.415 . S
H1706 C1703 0.999 . S
H1707 C1688 0.913 . S
H1708 C1726 0.951 . S
H1709 C1728 0.951 . S
H1710 C1730 0.950 . S
H1711 C1731 0.950 . S
H1712 C1733 0.950 . S
H1713 C1736 0.950 . S
H1714 C1737 0.950 . S
H1715 C1739 0.950 . S
H1716 C1740 0.950 1_554 S
H1717 C1741 0.951 . S
H1718 C1743 0.951 . S
H1719 C1745 0.950 . S
H1720 C1746 0.950 . S
H1721 C1748 0.950 . S
H1722 C1751 0.950 . S
H1723 C1752 0.950 . S
H1724 C1754 0.950 . S
H1725 C1755 0.950 1_556 S
C1726 H1708 0.951 . S
C1726 C1727 1.366 . S
C1726 C1728 1.388 . S
C1727 C1726 1.366 . S
C1727 C1731 1.385 . S
C1728 H1709 0.951 . S
C1728 C1726 1.388 . S
C1728 C1729 1.366 . S
C1729 C1728 1.366 . S
C1729 C1730 1.414 . S
C1729 C1732 1.499 . S
C1730 H1710 0.950 . S
C1730 C1729 1.414 . S
C1730 C1731 1.374 . S
C1731 H1711 0.950 . S
C1731 C1727 1.385 . S
C1731 C1730 1.374 . S
C1732 C1729 1.499 . S
C1732 C1733 1.373 . S
C1732 C1734 1.389 . S
C1733 H1712 0.950 . S
C1733 C1732 1.373 . S
C1733 C1749 1.377 1_566 S
C1734 C1732 1.389 . S
C1734 C1735 1.524 . S
C1734 C1748 1.377 1_566 S
C1735 C1734 1.524 . S
C1735 C1736 1.397 1_565 S
C1735 C1740 1.363 . S
C1736 H1713 0.950 . S
C1736 C1735 1.397 1_545 S
C1736 C1737 1.334 . S
C1737 H1714 0.950 . S
C1737 C1736 1.334 . S
C1737 C1738 1.287 1_545 S
C1738 C1737 1.287 1_565 S
C1738 C1739 1.524 . S
C1738 H1757 0.913 . S
C1739 H1715 0.950 . S
C1739 C1738 1.524 . S
C1739 C1740 1.415 . S
C1740 H1716 0.950 1_556 S
C1740 C1735 1.363 . S
C1740 C1739 1.415 . S
C1741 H1717 0.951 . S
C1741 C1742 1.366 . S
C1741 C1743 1.388 . S
C1742 C1741 1.366 . S
C1742 C1746 1.385 . S
C1743 H1718 0.951 . S
C1743 C1741 1.388 . S
C1743 C1744 1.366 . S
C1744 C1743 1.366 . S
C1744 C1745 1.414 . S
C1744 C1747 1.499 . S
C1745 H1719 0.950 . S
C1745 C1744 1.414 . S
C1745 C1746 1.374 . S
C1746 H1720 0.950 . S
C1746 C1742 1.385 . S
C1746 C1745 1.374 . S
C1747 C1744 1.499 . S
C1747 C1748 1.373 . S
C1747 C1749 1.389 . S
C1748 H1721 0.950 . S
C1748 C1734 1.377 1_544 S
C1748 C1747 1.373 . S
C1749 C1733 1.377 1_544 S
C1749 C1747 1.389 . S
C1749 C1750 1.524 . S
C1750 C1749 1.524 . S
C1750 C1751 1.397 1_545 S
C1750 C1755 1.363 . S
C1751 H1722 0.950 . S
C1751 C1750 1.397 1_565 S
C1751 C1752 1.334 . S
C1752 H1723 0.950 . S
C1752 C1751 1.334 . S
C1752 C1753 1.287 1_565 S
C1753 C1752 1.287 1_545 S
C1753 C1754 1.524 . S
C1753 H1756 0.999 . S
C1754 H1724 0.950 . S
C1754 C1753 1.524 . S
C1754 C1755 1.415 . S
C1755 H1725 0.950 1_554 S
C1755 C1750 1.363 . S
C1755 C1754 1.415 . S
H1756 C1753 0.999 . S
H1757 C1738 0.913 . S
H1758 C1776 0.951 . S
H1759 C1778 0.951 . S
H1760 C1780 0.950 . S
H1761 C1781 0.950 . S
H1762 C1783 0.950 . S
H1763 C1786 0.950 . S
H1764 C1787 0.950 . S
H1765 C1789 0.950 . S
H1766 C1790 0.950 . S
H1767 C1791 0.951 . S
H1768 C1793 0.951 . S
H1769 C1795 0.950 . S
H1770 C1796 0.950 . S
H1771 C1798 0.950 . S
H1772 C1801 0.950 . S
H1773 C1802 0.950 . S
H1774 C1804 0.950 . S
H1775 C1805 0.950 . S
C1776 H1758 0.951 . S
C1776 C1777 1.366 . S
C1776 C1778 1.388 . S
C1777 C1776 1.366 . S
C1777 C1781 1.385 . S
C1778 H1759 0.951 . S
C1778 C1776 1.388 . S
C1778 C1779 1.366 . S
C1779 C1778 1.366 . S
C1779 C1780 1.414 . S
C1779 C1782 1.499 . S
C1780 H1760 0.950 . S
C1780 C1779 1.414 . S
C1780 C1781 1.374 . S
C1781 H1761 0.950 . S
C1781 C1777 1.385 . S
C1781 C1780 1.374 . S
C1782 C1779 1.499 . S
C1782 C1783 1.373 . S
C1782 C1784 1.389 1_565 S
C1783 H1762 0.950 . S
C1783 C1782 1.373 . S
C1783 C1799 1.377 1_554 S
C1784 C1782 1.389 1_545 S
C1784 C1785 1.524 . S
C1784 C1798 1.377 1_554 S
C1785 C1784 1.524 . S
C1785 C1786 1.397 . S
C1785 C1790 1.363 . S
C1786 H1763 0.950 . S
C1786 C1785 1.397 . S
C1786 C1787 1.334 . S
C1787 H1764 0.950 . S
C1787 C1786 1.334 . S
C1787 C1788 1.287 . S
C1788 C1787 1.287 . S
C1788 C1789 1.524 . S
C1788 H1807 0.913 . S
C1789 H1765 0.950 . S
C1789 C1788 1.524 . S
C1789 C1790 1.415 . S
C1790 H1766 0.950 . S
C1790 C1785 1.363 . S
C1790 C1789 1.415 . S
C1791 H1767 0.951 . S
C1791 C1792 1.366 . S
C1791 C1793 1.388 . S
C1792 C1791 1.366 . S
C1792 C1796 1.385 . S
C1793 H1768 0.951 . S
C1793 C1791 1.388 . S
C1793 C1794 1.366 . S
C1794 C1793 1.366 . S
C1794 C1795 1.414 . S
C1794 C1797 1.499 . S
C1795 H1769 0.950 . S
C1795 C1794 1.414 . S
C1795 C1796 1.374 . S
C1796 H1770 0.950 . S
C1796 C1792 1.385 . S
C1796 C1795 1.374 . S
C1797 C1794 1.499 . S
C1797 C1798 1.373 . S
C1797 C1799 1.389 1_545 S
C1798 H1771 0.950 . S
C1798 C1784 1.377 1_556 S
C1798 C1797 1.373 . S
C1799 C1783 1.377 1_556 S
C1799 C1797 1.389 1_565 S
C1799 C1800 1.524 . S
C1800 C1799 1.524 . S
C1800 C1801 1.397 . S
C1800 C1805 1.363 . S
C1801 H1772 0.950 . S
C1801 C1800 1.397 . S
C1801 C1802 1.334 . S
C1802 H1773 0.950 . S
C1802 C1801 1.334 . S
C1802 C1803 1.287 . S
C1803 C1802 1.287 . S
C1803 C1804 1.524 . S
C1803 H1806 0.999 . S
C1804 H1774 0.950 . S
C1804 C1803 1.524 . S
C1804 C1805 1.415 . S
C1805 H1775 0.950 . S
C1805 C1800 1.363 . S
C1805 C1804 1.415 . S
H1806 C1803 0.999 . S
H1807 C1788 0.913 . S
H1808 C1826 0.951 . S
H1809 C1828 0.951 . S
H1810 C1830 0.950 1_554 S
H1811 C1831 0.950 . S
H1812 C1833 0.950 . S
H1813 C1836 0.950 . S
H1814 C1837 0.950 . S
H1815 C1839 0.961 . S
H1816 C1840 0.950 . S
H1817 C1841 0.951 . S
H1818 C1843 0.951 . S
H1819 C1845 0.950 1_556 S
H1820 C1846 0.950 . S
H1821 C1848 0.950 . S
H1822 C1851 0.950 . S
H1823 C1852 0.950 . S
H1824 C1854 0.961 . S
H1825 C1855 0.950 . S
C1826 H1808 0.951 . S
C1826 C1827 1.366 . S
C1826 C1828 1.388 . S
C1827 C1826 1.366 . S
C1827 C1831 1.385 . S
C1828 H1809 0.951 . S
C1828 C1826 1.388 . S
C1828 C1829 1.366 . S
C1829 C1828 1.366 . S
C1829 C1830 1.414 . S
C1829 C1832 1.499 . S
C1830 H1810 0.950 1_556 S
C1830 C1829 1.414 . S
C1830 C1831 1.374 . S
C1831 H1811 0.950 . S
C1831 C1827 1.385 . S
C1831 C1830 1.374 . S
C1832 C1829 1.499 . S
C1832 C1833 1.373 1_556 S
C1832 C1834 1.389 . S
C1833 H1812 0.950 . S
C1833 C1832 1.373 1_554 S
C1833 C1849 1.377 1_655 S
C1834 C1832 1.389 . S
C1834 C1835 1.524 . S
C1834 C1848 1.377 1_655 S
C1835 C1834 1.524 . S
C1835 C1836 1.397 . S
C1835 C1840 1.363 1_655 S
C1836 H1813 0.950 . S
C1836 C1835 1.397 . S
C1836 C1837 1.334 . S
C1837 H1814 0.950 . S
C1837 C1836 1.334 . S
C1837 C1838 1.287 . S
C1838 C1837 1.287 . S
C1838 C1839 1.508 1_655 S
C1838 H1857 0.913 . S
C1839 H1815 0.961 . S
C1839 C1838 1.508 1_455 S
C1839 C1840 1.418 . S
C1840 H1816 0.950 . S
C1840 C1835 1.363 1_455 S
C1840 C1839 1.418 . S
C1841 H1817 0.951 . S
C1841 C1842 1.366 . S
C1841 C1843 1.388 . S
C1842 C1841 1.366 . S
C1842 C1846 1.385 . S
C1843 H1818 0.951 . S
C1843 C1841 1.388 . S
C1843 C1844 1.366 . S
C1844 C1843 1.366 . S
C1844 C1845 1.414 . S
C1844 C1847 1.499 . S
C1845 H1819 0.950 1_554 S
C1845 C1844 1.414 . S
C1845 C1846 1.374 . S
C1846 H1820 0.950 . S
C1846 C1842 1.385 . S
C1846 C1845 1.374 . S
C1847 C1844 1.499 . S
C1847 C1848 1.373 1_554 S
C1847 C1849 1.389 . S
C1848 H1821 0.950 . S
C1848 C1834 1.377 1_455 S
C1848 C1847 1.373 1_556 S
C1849 C1833 1.377 1_455 S
C1849 C1847 1.389 . S
C1849 C1850 1.524 . S
C1850 C1849 1.524 . S
C1850 C1851 1.397 . S
C1850 C1855 1.363 1_455 S
C1851 H1822 0.950 . S
C1851 C1850 1.397 . S
C1851 C1852 1.334 . S
C1852 H1823 0.950 . S
C1852 C1851 1.334 . S
C1852 C1853 1.287 . S
C1853 C1852 1.287 . S
C1853 C1854 1.508 1_455 S
C1853 H1856 0.999 . S
C1854 H1824 0.961 . S
C1854 C1853 1.508 1_655 S
C1854 C1855 1.418 . S
C1855 H1825 0.950 . S
C1855 C1850 1.363 1_655 S
C1855 C1854 1.418 . S
H1856 C1853 0.999 . S
H1857 C1838 0.913 . S
H1858 C1876 0.951 . S
H1859 C1878 0.951 . S
H1860 C1880 0.950 . S
H1861 C1881 0.950 . S
H1862 C1883 0.950 . S
H1863 C1886 0.950 . S
H1864 C1887 0.950 . S
H1865 C1889 0.950 . S
H1866 C1890 0.950 . S
H1867 C1891 0.951 . S
H1868 C1893 0.951 . S
H1869 C1895 0.950 . S
H1870 C1896 0.950 . S
H1871 C1898 0.950 . S
H1872 C1901 0.950 . S
H1873 C1902 0.950 . S
H1874 C1904 0.950 . S
H1875 C1905 0.950 . S
C1876 H1858 0.951 . S
C1876 C1877 1.366 . S
C1876 C1878 1.388 . S
C1877 C1876 1.366 . S
C1877 C1881 1.385 . S
C1878 H1859 0.951 . S
C1878 C1876 1.388 . S
C1878 C1879 1.366 . S
C1879 C1878 1.366 . S
C1879 C1880 1.414 . S
C1879 C1882 1.499 . S
C1880 H1860 0.950 . S
C1880 C1879 1.414 . S
C1880 C1881 1.374 . S
C1881 H1861 0.950 . S
C1881 C1877 1.385 . S
C1881 C1880 1.374 . S
C1882 C1879 1.499 . S
C1882 C1883 1.373 1_556 S
C1882 C1884 1.389 . S
C1883 H1862 0.950 . S
C1883 C1882 1.373 1_554 S
C1883 C1899 1.377 1_455 S
C1884 C1882 1.389 . S
C1884 C1885 1.524 . S
C1884 C1898 1.377 1_455 S
C1885 C1884 1.524 . S
C1885 C1886 1.397 . S
C1885 C1890 1.363 1_455 S
C1886 H1863 0.950 . S
C1886 C1885 1.397 . S
C1886 C1887 1.334 . S
C1887 H1864 0.950 . S
C1887 C1886 1.334 . S
C1887 C1888 1.287 1_455 S
C1888 C1887 1.287 1_655 S
C1888 C1889 1.524 . S
C1888 H1907 0.915 . S
C1889 H1865 0.950 . S
C1889 C1888 1.524 . S
C1889 C1890 1.415 . S
C1890 H1866 0.950 . S
C1890 C1885 1.363 1_655 S
C1890 C1889 1.415 . S
C1891 H1867 0.951 . S
C1891 C1892 1.366 . S
C1891 C1893 1.388 . S
C1892 C1891 1.366 . S
C1892 C1896 1.385 . S
C1893 H1868 0.951 . S
C1893 C1891 1.388 . S
C1893 C1894 1.366 . S
C1894 C1893 1.366 . S
C1894 C1895 1.414 . S
C1894 C1897 1.499 . S
C1895 H1869 0.950 . S
C1895 C1894 1.414 . S
C1895 C1896 1.374 . S
C1896 H1870 0.950 . S
C1896 C1892 1.385 . S
C1896 C1895 1.374 . S
C1897 C1894 1.499 . S
C1897 C1898 1.373 1_554 S
C1897 C1899 1.389 . S
C1898 H1871 0.950 . S
C1898 C1884 1.377 1_655 S
C1898 C1897 1.373 1_556 S
C1899 C1883 1.377 1_655 S
C1899 C1897 1.389 . S
C1899 C1900 1.524 . S
C1900 C1899 1.524 . S
C1900 C1901 1.397 . S
C1900 C1905 1.363 1_655 S
C1901 H1872 0.950 . S
C1901 C1900 1.397 . S
C1901 C1902 1.334 . S
C1902 H1873 0.950 . S
C1902 C1901 1.334 . S
C1902 C1903 1.287 1_655 S
C1903 C1902 1.287 1_455 S
C1903 C1904 1.524 . S
C1903 H1906 0.999 . S
C1904 H1874 0.950 . S
C1904 C1903 1.524 . S
C1904 C1905 1.415 . S
C1905 H1875 0.950 . S
C1905 C1900 1.363 1_455 S
C1905 C1904 1.415 . S
H1906 C1903 0.999 . S
H1907 C1888 0.915 . S
C727 C182 0.702 . S
C742 C5 0.701 . S
C777 C123 0.703 . S
C792 C64 0.702 . S
C827 C300 0.702 . S
C842 C241 0.701 . S
C877 C359 0.703 . S
C892 C418 0.701 . S
C927 C536 0.701 . S
C942 C477 0.703 . S
C977 C595 0.701 . S
C992 C654 0.703 . S
C1027 C52 1.045 . S
C1042 C446 1.018 . S
C1077 C387 1.018 . S
C1092 C111 1.045 . S
C1127 C328 1.019 . S
C1142 C170 1.045 . S
C1177 C269 1.018 . S
C1192 C229 1.045 . S
C1227 C288 1.045 . S
C1242 C682 1.018 . S
C1277 C505 1.018 . S
C1292 C347 1.045 . S
C1327 C623 1.018 . S
C1342 C406 1.045 . S
C1377 C465 1.045 . S
C1392 C564 1.018 . S
C1427 C151 1.018 . S
C1442 C524 1.045 . S
C1477 C33 1.019 . S
C1492 C583 1.045 . S
C1527 C642 1.045 . S
C1542 C92 1.018 . S
C1577 C210 1.018 . S
C1592 C701 1.045 . S
C1627 C3 1.230 . S
C1642 C62 1.231 . S
C1677 C180 1.231 . S
C1692 C121 1.231 . S
C1727 C357 1.230 . S
C1742 C239 1.231 . S
C1777 C298 1.231 . S
C1792 C416 1.230 . S
C1827 C593 1.231 . S
C1842 C475 1.231 . S
C1877 C534 1.231 . S
C1892 C652 1.231 . S
