# Generated by pormake.
# Topology acs-i, (5)-cn, num edge types: 1
# Building blocks:
#     Node 0, Type 0, BuildingBlock: XOMCOT_clean_sbu_1, # of connection points: 5
#     Node 1, Type 0, BuildingBlock: XOMCOT_clean_sbu_1, # of connection points: 5
#     Node 2, Type 0, BuildingBlock: XOMCOT_clean_sbu_1, # of connection points: 5
#     Node 3, Type 0, BuildingBlock: XOMCOT_clean_sbu_1, # of connection points: 5
#     Node 4, Type 0, BuildingBlock: XOMCOT_clean_sbu_1, # of connection points: 5
#     Node 5, Type 0, BuildingBlock: XOMCOT_clean_sbu_1, # of connection points: 5
#     Node 6, Type 0, BuildingBlock: XOMCOT_clean_sbu_1, # of connection points: 5
#     Node 7, Type 0, BuildingBlock: XOMCOT_clean_sbu_1, # of connection points: 5
#     Node 8, Type 0, BuildingBlock: XOMCOT_clean_sbu_1, # of connection points: 5
#     Node 9, Type 0, BuildingBlock: XOMCOT_clean_sbu_1, # of connection points: 5
#     Node 10, Type 0, BuildingBlock: XOMCOT_clean_sbu_1, # of connection points: 5
#     Node 11, Type 0, BuildingBlock: XOMCOT_clean_sbu_1, # of connection points: 5
#     Edge 12, Type (0, 0), BuildingBlock: UVAHIK_clean_linker_0, # of connection points: 2
#     Edge 13, Type (0, 0), BuildingBlock: UVAHIK_clean_linker_0, # of connection points: 2
#     Edge 14, Type (0, 0), BuildingBlock: UVAHIK_clean_linker_0, # of connection points: 2
#     Edge 15, Type (0, 0), BuildingBlock: UVAHIK_clean_linker_0, # of connection points: 2
#     Edge 16, Type (0, 0), BuildingBlock: UVAHIK_clean_linker_0, # of connection points: 2
#     Edge 17, Type (0, 0), BuildingBlock: UVAHIK_clean_linker_0, # of connection points: 2
#     Edge 18, Type (0, 0), BuildingBlock: UVAHIK_clean_linker_0, # of connection points: 2
#     Edge 19, Type (0, 0), BuildingBlock: UVAHIK_clean_linker_0, # of connection points: 2
#     Edge 20, Type (0, 0), BuildingBlock: UVAHIK_clean_linker_0, # of connection points: 2
#     Edge 21, Type (0, 0), BuildingBlock: UVAHIK_clean_linker_0, # of connection points: 2
#     Edge 22, Type (0, 0), BuildingBlock: UVAHIK_clean_linker_0, # of connection points: 2
#     Edge 23, Type (0, 0), BuildingBlock: UVAHIK_clean_linker_0, # of connection points: 2
#     Edge 24, Type (0, 0), BuildingBlock: UVAHIK_clean_linker_0, # of connection points: 2
#     Edge 25, Type (0, 0), BuildingBlock: UVAHIK_clean_linker_0, # of connection points: 2
#     Edge 26, Type (0, 0), BuildingBlock: UVAHIK_clean_linker_0, # of connection points: 2
#     Edge 27, Type (0, 0), BuildingBlock: UVAHIK_clean_linker_0, # of connection points: 2
#     Edge 28, Type (0, 0), BuildingBlock: UVAHIK_clean_linker_0, # of connection points: 2
#     Edge 29, Type (0, 0), BuildingBlock: UVAHIK_clean_linker_0, # of connection points: 2
#     Edge 30, Type (0, 0), BuildingBlock: UVAHIK_clean_linker_0, # of connection points: 2
#     Edge 31, Type (0, 0), BuildingBlock: UVAHIK_clean_linker_0, # of connection points: 2
#     Edge 32, Type (0, 0), BuildingBlock: UVAHIK_clean_linker_0, # of connection points: 2
#     Edge 33, Type (0, 0), BuildingBlock: UVAHIK_clean_linker_0, # of connection points: 2
#     Edge 34, Type (0, 0), BuildingBlock: UVAHIK_clean_linker_0, # of connection points: 2
#     Edge 35, Type (0, 0), BuildingBlock: UVAHIK_clean_linker_0, # of connection points: 2
#     Edge 36, Type (0, 0), BuildingBlock: UVAHIK_clean_linker_0, # of connection points: 2
#     Edge 37, Type (0, 0), BuildingBlock: UVAHIK_clean_linker_0, # of connection points: 2
#     Edge 38, Type (0, 0), BuildingBlock: UVAHIK_clean_linker_0, # of connection points: 2
#     Edge 39, Type (0, 0), BuildingBlock: UVAHIK_clean_linker_0, # of connection points: 2
#     Edge 40, Type (0, 0), BuildingBlock: UVAHIK_clean_linker_0, # of connection points: 2
#     Edge 41, Type (0, 0), BuildingBlock: UVAHIK_clean_linker_0, # of connection points: 2
# Relax obj value: 0.851
# Max RMSD: 0.195
# Mean RMSD: 0.195
data_MOF--net-acs-i--node1-XOMCOT_clean_sbu_1--edge1-UVAHIK_clean_linker_0
_symmetry_space_group_name_H-M    P1
_symmetry_Int_Tables_number       1
_symmetry_cell_setting            triclinic
loop_
_symmetry_equiv_pos_as_xyz
'x, y, z'
_cell_length_a     55.400619
_cell_length_b     55.390948
_cell_length_c     58.670613
_cell_angle_alpha  89.999435
_cell_angle_beta   89.942493
_cell_angle_gamma 119.98684
loop_
_atom_site_label
_atom_site_type_symbol
_atom_site_fract_x
_atom_site_fract_y
_atom_site_fract_z
_atom_type_partial_charge
C0 C 0.31565 0.49912 0.08805 0.0
C1 C 0.33305 0.52744 0.08575 0.0
N2 N 0.34577 0.53761 0.10589 0.0
N3 N 0.31749 0.49151 0.1095 0.0
C4 C 0.33583 0.51545 0.11998 0.0
H5 H 0.30331 0.48477 0.07471 0.0
Co6 Co 0.30111 0.45487 0.11961 0.0
C7 C 0.31217 0.4591 0.16909 0.0
O8 O 0.2876 0.43759 0.17369 0.0
N9 N 0.28447 0.41758 0.12919 0.0
C10 C 0.27798 0.3774 0.14307 0.0
C11 C 0.29746 0.40357 0.1357 0.0
C12 C 0.25712 0.39932 0.13247 0.0
N13 N 0.25255 0.37482 0.14123 0.0
O14 O 0.27108 0.45843 0.13142 0.0
H15 H 0.3198 0.41221 0.13613 0.0
H16 H 0.24095 0.40455 0.13009 0.0
O17 O 0.31951 0.46717 0.14863 0.0
C18 C 0.25264 0.45712 0.11779 0.0
O19 O 0.25203 0.44836 0.09686 0.0
N20 N 0.33094 0.4528 0.10724 0.0
C21 C 0.37411 0.45534 0.08146 0.0
C22 C 0.37988 0.47133 0.10125 0.0
C23 C 0.35789 0.46961 0.11409 0.0
C24 C 0.32497 0.43657 0.08833 0.0
C25 C 0.34633 0.43721 0.07532 0.0
H26 H 0.36276 0.48307 0.12871 0.0
H27 H 0.30356 0.42396 0.08286 0.0
H28 H 0.34328 0.51649 0.13713 0.0
H29 H 0.33657 0.53947 0.07032 0.0
H30 H 0.2824 0.36206 0.15029 0.0
H31 H 0.40117 0.48572 0.10627 0.0
H32 H 0.34123 0.42493 0.05985 0.0
C33 C 0.80271 0.30149 0.59271 0.0
C34 C 0.78858 0.31611 0.59165 0.0
N35 N 0.79093 0.32822 0.61206 0.0
N36 N 0.81445 0.30515 0.6135 0.0
C37 C 0.80653 0.32117 0.62492 0.0
H38 H 0.80491 0.28958 0.57908 0.0
Co39 Co 0.83696 0.29193 0.62504 0.0
C40 C 0.88156 0.34896 0.64405 0.0
O41 O 0.9028 0.35467 0.63071 0.0
N42 N 0.85916 0.27825 0.63701 0.0
C43 C 0.89376 0.27095 0.64707 0.0
C44 C 0.88715 0.28954 0.63732 0.0
C45 C 0.84934 0.25277 0.64627 0.0
N46 N 0.86982 0.24774 0.65256 0.0
O47 O 0.81279 0.27822 0.65066 0.0
H48 H 0.9019 0.30959 0.63032 0.0
H49 H 0.82745 0.23819 0.64868 0.0
O50 O 0.85839 0.32645 0.64153 0.0
C51 C 0.78991 0.25583 0.64721 0.0
O52 O 0.78716 0.24178 0.6284 0.0
N53 N 0.85907 0.30429 0.59893 0.0
C54 C 0.88075 0.31405 0.5549 0.0
C55 C 0.88009 0.33539 0.56734 0.0
C56 C 0.86892 0.33 0.58935 0.0
C57 C 0.8597 0.28345 0.58713 0.0
C58 C 0.8709 0.28801 0.56531 0.0
H59 H 0.86655 0.34587 0.59809 0.0
H60 H 0.85046 0.26275 0.59436 0.0
H61 H 0.81274 0.32827 0.64222 0.0
H62 H 0.7777 0.31794 0.57703 0.0
H63 H 0.9145 0.27415 0.64964 0.0
H64 H 0.88693 0.35563 0.55978 0.0
H65 H 0.87128 0.27101 0.55652 0.0
C66 C 0.50074 0.84905 0.10656 0.0
C67 C 0.47218 0.8359 0.10907 0.0
N68 N 0.46616 0.83095 0.13144 0.0
N69 N 0.51247 0.85244 0.12729 0.0
C70 C 0.49086 0.84062 0.14197 0.0
H71 H 0.51229 0.85679 0.09083 0.0
Co72 Co 0.55018 0.8717 0.13435 0.0
C73 C 0.54714 0.89854 0.1778 0.0
O74 O 0.56652 0.92358 0.1714 0.0
N75 N 0.5884 0.88996 0.14107 0.0
C76 C 0.63296 0.90204 0.13697 0.0
C77 C 0.60819 0.8935 0.12588 0.0
C78 C 0.60155 0.89555 0.16142 0.0
N79 N 0.6288 0.9032 0.15946 0.0
O80 O 0.54692 0.83748 0.14396 0.0
H81 H 0.60437 0.88769 0.10811 0.0
H82 H 0.59084 0.89176 0.1775 0.0
O83 O 0.54088 0.8776 0.16501 0.0
C84 C 0.54817 0.82246 0.12814 0.0
O85 O 0.55566 0.8333 0.10766 0.0
N86 N 0.55219 0.90495 0.12358 0.0
C87 C 0.54556 0.94395 0.09833 0.0
C88 C 0.52888 0.93125 0.11742 0.0
C89 C 0.53245 0.91175 0.12979 0.0
C90 C 0.56913 0.91794 0.10541 0.0
C91 C 0.56657 0.93789 0.09287 0.0
H92 H 0.51758 0.9004 0.14309 0.0
H93 H 0.58303 0.91127 0.09907 0.0
H94 H 0.49311 0.83965 0.16018 0.0
H95 H 0.45719 0.8317 0.09565 0.0
H96 H 0.65175 0.90442 0.12919 0.0
H97 H 0.51204 0.93499 0.12187 0.0
H98 H 0.57922 0.94651 0.07771 0.0
C99 C 0.67275 0.52819 0.61015 0.0
C100 C 0.65406 0.50136 0.60334 0.0
N101 N 0.64322 0.4856 0.62216 0.0
N102 N 0.67308 0.52927 0.63312 0.0
C103 C 0.65538 0.50293 0.63988 0.0
H104 H 0.68445 0.546 0.59914 0.0
Co105 Co 0.69181 0.56025 0.65195 0.0
C106 C 0.64182 0.54279 0.68368 0.0
O107 O 0.63587 0.56216 0.67807 0.0
N108 N 0.71118 0.59133 0.67086 0.0
C109 C 0.7247 0.62935 0.69194 0.0
C110 C 0.70231 0.60681 0.68202 0.0
C111 C 0.73901 0.60512 0.674 0.0
N112 N 0.7478 0.62829 0.68674 0.0
O113 O 0.71031 0.54262 0.66548 0.0
H114 H 0.68125 0.60293 0.68219 0.0
H115 H 0.75267 0.59827 0.66711 0.0
O116 O 0.66242 0.54219 0.67453 0.0
C117 C 0.72945 0.54377 0.65272 0.0
O118 O 0.73636 0.55949 0.63437 0.0
N119 N 0.67465 0.57748 0.63689 0.0
C120 C 0.65739 0.59847 0.60141 0.0
C121 C 0.63819 0.57396 0.61264 0.0
C122 C 0.64732 0.56365 0.63034 0.0
C123 C 0.69301 0.60236 0.62716 0.0
C124 C 0.68467 0.61353 0.60974 0.0
H125 H 0.63313 0.54316 0.63702 0.0
H126 H 0.71489 0.61251 0.63145 0.0
H127 H 0.65051 0.49673 0.65752 0.0
H128 H 0.64846 0.49415 0.58596 0.0
H129 H 0.72407 0.64549 0.70187 0.0
H130 H 0.61706 0.56146 0.60642 0.0
H131 H 0.70007 0.63262 0.60156 0.0
C132 C 0.1745 0.70394 0.12347 0.0
C133 C 0.18607 0.68777 0.11774 0.0
N134 N 0.18178 0.67018 0.13515 0.0
N135 N 0.16295 0.69648 0.14434 0.0
C136 C 0.16816 0.67626 0.15116 0.0
H137 H 0.17346 0.71927 0.11274 0.0
Co138 Co 0.1416 0.70945 0.15857 0.0
C139 C 0.10556 0.65917 0.18836 0.0
O140 O 0.08122 0.6547 0.18123 0.0
N141 N 0.12025 0.72318 0.17291 0.0
C142 C 0.08623 0.73044 0.1852 0.0
C143 C 0.09239 0.71314 0.17271 0.0
C144 C 0.13039 0.74673 0.1854 0.0
N145 N 0.1103 0.75168 0.19305 0.0
O146 O 0.17205 0.73012 0.17853 0.0
H147 H 0.07731 0.69458 0.16385 0.0
H148 H 0.15214 0.75988 0.18942 0.0
O149 O 0.12797 0.67913 0.18014 0.0
C150 C 0.19166 0.75288 0.1706 0.0
O151 O 0.18736 0.76271 0.15158 0.0
N152 N 0.11345 0.68958 0.13742 0.0
C153 C 0.08953 0.66818 0.09519 0.0
C154 C 0.09184 0.65102 0.11159 0.0
C155 C 0.104 0.66216 0.13262 0.0
C156 C 0.10968 0.70607 0.12231 0.0
C157 C 0.09732 0.69565 0.10122 0.0
H158 H 0.10855 0.64952 0.14384 0.0
H159 H 0.11834 0.72802 0.12591 0.0
H160 H 0.16147 0.6656 0.16733 0.0
H161 H 0.19557 0.68799 0.10156 0.0
H162 H 0.06571 0.72765 0.18817 0.0
H163 H 0.08664 0.62988 0.10757 0.0
H164 H 0.09554 0.70953 0.08922 0.0
C165 C 0.48951 0.20234 0.6066 0.0
C166 C 0.51805 0.21763 0.60922 0.0
N167 N 0.52512 0.20686 0.62689 0.0
N168 N 0.47879 0.18206 0.62249 0.0
C169 C 0.501 0.18524 0.6344 0.0
H170 H 0.47726 0.20626 0.59439 0.0
Co171 Co 0.44127 0.15814 0.62834 0.0
C172 C 0.44103 0.12223 0.66646 0.0
O173 O 0.41881 0.1 0.6587 0.0
N174 N 0.40277 0.13419 0.63444 0.0
C175 C 0.35819 0.10003 0.63589 0.0
C176 C 0.38368 0.1093 0.62543 0.0
C177 C 0.38819 0.13932 0.65027 0.0
N178 N 0.36124 0.11931 0.65123 0.0
O179 O 0.44156 0.18756 0.64506 0.0
H180 H 0.38781 0.09801 0.61246 0.0
H181 H 0.39712 0.15709 0.66157 0.0
O182 O 0.4507 0.14536 0.65589 0.0
C183 C 0.43461 0.20262 0.63362 0.0
O184 O 0.42246 0.19332 0.61378 0.0
N185 N 0.44288 0.13161 0.61003 0.0
C186 C 0.45498 0.10626 0.57435 0.0
C187 C 0.46442 0.10603 0.59646 0.0
C188 C 0.45854 0.11928 0.61408 0.0
C189 C 0.4332 0.1316 0.58872 0.0
C190 C 0.43864 0.11871 0.57069 0.0
H191 H 0.46842 0.12132 0.63033 0.0
H192 H 0.42214 0.14276 0.58558 0.0
H193 H 0.49968 0.17198 0.64838 0.0
H194 H 0.5323 0.23572 0.59935 0.0
H195 H 0.33901 0.08082 0.63245 0.0
H196 H 0.47765 0.09721 0.59984 0.0
H197 H 0.4308 0.1192 0.55389 0.0
C198 C 0.55026 0.70321 0.36206 0.0
C199 C 0.52419 0.69302 0.37156 0.0
N200 N 0.50501 0.67722 0.35583 0.0
N201 N 0.54747 0.69352 0.3406 0.0
C202 C 0.51972 0.67811 0.33719 0.0
H203 H 0.57002 0.71653 0.37031 0.0
Co204 Co 0.57613 0.70081 0.32031 0.0
C205 C 0.54934 0.64296 0.29952 0.0
O206 O 0.56871 0.63729 0.30588 0.0
N207 N 0.60534 0.70963 0.29986 0.0
C208 C 0.63383 0.71393 0.27142 0.0
C209 C 0.60945 0.69598 0.28255 0.0
C210 C 0.62743 0.73568 0.29879 0.0
N211 N 0.6451 0.73897 0.28169 0.0
O212 O 0.56277 0.7194 0.30142 0.0
H213 H 0.5952 0.67502 0.27713 0.0
H214 H 0.62962 0.75245 0.30962 0.0
O215 O 0.55166 0.66655 0.30413 0.0
C216 C 0.56843 0.74369 0.30754 0.0
O217 O 0.58727 0.75639 0.32347 0.0
N218 N 0.58903 0.68311 0.34012 0.0
C219 C 0.60629 0.6641 0.37713 0.0
C220 C 0.57921 0.64829 0.36859 0.0
C221 C 0.57087 0.65836 0.35031 0.0
C222 C 0.61574 0.69837 0.34784 0.0
C223 C 0.62491 0.68908 0.36619 0.0
H224 H 0.54922 0.64702 0.34531 0.0
H225 H 0.6296 0.71872 0.34085 0.0
H226 H 0.51045 0.66719 0.32149 0.0
H227 H 0.51974 0.69695 0.38869 0.0
H228 H 0.64179 0.70929 0.25619 0.0
H229 H 0.56393 0.62931 0.37697 0.0
H230 H 0.64595 0.70201 0.37245 0.0
C231 C 0.86475 0.49187 0.8995 0.0
C232 C 0.85734 0.46423 0.90083 0.0
N233 N 0.84932 0.45281 0.87994 0.0
N234 N 0.86163 0.49791 0.87785 0.0
C235 C 0.85194 0.4737 0.86638 0.0
H236 H 0.87193 0.5067 0.91338 0.0
Co237 Co 0.86867 0.53256 0.86786 0.0
C238 C 0.8939 0.53311 0.82232 0.0
O239 O 0.91719 0.55636 0.82668 0.0
N240 N 0.87447 0.56755 0.85891 0.0
C241 C 0.87443 0.60748 0.86305 0.0
C242 C 0.86946 0.58332 0.87358 0.0
C243 C 0.88134 0.58215 0.8392 0.0
N244 N 0.88202 0.60676 0.8414 0.0
O245 O 0.82999 0.51706 0.86157 0.0
H246 H 0.86267 0.57756 0.89101 0.0
H247 H 0.88411 0.57446 0.82312 0.0
O248 O 0.87409 0.52317 0.8369 0.0
C249 C 0.81409 0.5143 0.87823 0.0
O250 O 0.82515 0.52273 0.89852 0.0
N251 N 0.90688 0.54758 0.87506 0.0
C252 C 0.96082 0.56721 0.89114 0.0
C253 C 0.94797 0.54329 0.8776 0.0
C254 C 0.92094 0.53384 0.86964 0.0
C255 C 0.91914 0.57051 0.88877 0.0
C256 C 0.94629 0.58107 0.89647 0.0
H257 H 0.91096 0.51488 0.85972 0.0
H258 H 0.90764 0.58008 0.89491 0.0
H259 H 0.84711 0.47152 0.8484 0.0
H260 H 0.85738 0.45333 0.91612 0.0
H261 H 0.87228 0.62409 0.87069 0.0
H262 H 0.95838 0.53162 0.8738 0.0
H263 H 0.9552 0.59891 0.90781 0.0
C264 C 0.3327 0.80761 0.3975 0.0
C265 C 0.35013 0.79696 0.39375 0.0
N266 N 0.36639 0.81012 0.37557 0.0
N267 N 0.33785 0.82725 0.38171 0.0
C268 C 0.35872 0.82861 0.36886 0.0
H269 H 0.31669 0.80083 0.41043 0.0
Co270 Co 0.31816 0.84583 0.3774 0.0
C271 C 0.33012 0.86506 0.32845 0.0
O272 O 0.32449 0.88531 0.33092 0.0
N273 N 0.29774 0.86429 0.37326 0.0
C274 C 0.27892 0.89159 0.37614 0.0
C275 C 0.30027 0.88743 0.38332 0.0
C276 C 0.27476 0.85488 0.36017 0.0
N277 N 0.26278 0.87083 0.36176 0.0
O278 O 0.28588 0.81102 0.371 0.0
H279 H 0.31615 0.9003 0.39548 0.0
H280 H 0.26696 0.83662 0.34943 0.0
O281 O 0.32801 0.84973 0.34541 0.0
C282 C 0.2683 0.79995 0.38709 0.0
O283 O 0.2724 0.814 0.40613 0.0
N284 N 0.34995 0.87897 0.38543 0.0
C285 C 0.39574 0.92385 0.40578 0.0
C286 C 0.39495 0.92001 0.38211 0.0
C287 C 0.3719 0.89715 0.37222 0.0
C288 C 0.3507 0.8821 0.40845 0.0
C289 C 0.37321 0.90449 0.41897 0.0
H290 H 0.37237 0.89403 0.35419 0.0
H291 H 0.33342 0.86705 0.41865 0.0
H292 H 0.36797 0.84278 0.35469 0.0
H293 H 0.35 0.7801 0.40316 0.0
H294 H 0.2751 0.90805 0.3816 0.0
H295 H 0.41214 0.93427 0.37139 0.0
H296 H 0.37269 0.90682 0.43726 0.0
C297 C 0.47825 0.31601 0.90124 0.0
C298 C 0.50627 0.33334 0.90491 0.0
N299 N 0.5184 0.34488 0.88482 0.0
N300 N 0.47269 0.3166 0.87899 0.0
C301 C 0.49756 0.3343 0.86937 0.0
H302 H 0.46277 0.3039 0.914 0.0
Co303 Co 0.43707 0.29707 0.86705 0.0
C304 C 0.44139 0.31719 0.81956 0.0
O305 O 0.41642 0.31435 0.82092 0.0
N306 N 0.40039 0.27617 0.85563 0.0
C307 C 0.35437 0.25379 0.8504 0.0
C308 C 0.37626 0.27458 0.86234 0.0
C309 C 0.39242 0.25608 0.8396 0.0
N310 N 0.36459 0.24201 0.83622 0.0
O311 O 0.44269 0.26649 0.86182 0.0
H312 H 0.37406 0.28696 0.87544 0.0
H313 H 0.40692 0.25187 0.83054 0.0
O314 O 0.45137 0.31076 0.83662 0.0
C315 C 0.43607 0.24808 0.87719 0.0
O316 O 0.42342 0.24952 0.89566 0.0
N317 N 0.43286 0.32783 0.87372 0.0
C318 C 0.43578 0.37452 0.8942 0.0
C319 C 0.44979 0.37712 0.87374 0.0
C320 C 0.44826 0.35352 0.86382 0.0
C321 C 0.41944 0.32517 0.89382 0.0
C322 C 0.41995 0.34811 0.90405 0.0
H323 H 0.46159 0.35672 0.84943 0.0
H324 H 0.40958 0.30536 0.90263 0.0
H325 H 0.50028 0.33997 0.85154 0.0
H326 H 0.51688 0.33699 0.9211 0.0
H327 H 0.33255 0.24729 0.85259 0.0
H328 H 0.46304 0.39742 0.86618 0.0
H329 H 0.40981 0.34557 0.92038 0.0
C330 C 0.1406 0.46698 0.40037 0.0
C331 C 0.13939 0.49021 0.40696 0.0
N332 N 0.1505 0.50942 0.3902 0.0
N333 N 0.15216 0.47144 0.37948 0.0
C334 C 0.15828 0.49749 0.37388 0.0
H335 H 0.13317 0.4479 0.41 0.0
Co336 Co 0.15814 0.447 0.36198 0.0
C337 C 0.13567 0.45456 0.31691 0.0
O338 O 0.11759 0.42805 0.31399 0.0
N339 N 0.16493 0.42225 0.3447 0.0
C340 C 0.18694 0.40137 0.33021 0.0
C341 C 0.18935 0.42234 0.34417 0.0
C342 C 0.14781 0.40036 0.33136 0.0
N343 N 0.16073 0.38753 0.3221 0.0
O344 O 0.19662 0.47488 0.35959 0.0
H345 H 0.20798 0.43673 0.35328 0.0
H346 H 0.12595 0.39314 0.32905 0.0
O347 O 0.15142 0.46264 0.33443 0.0
C348 C 0.21249 0.48194 0.37694 0.0
O349 O 0.20221 0.46936 0.39648 0.0
N350 N 0.12038 0.42 0.36536 0.0
C351 C 0.06582 0.38218 0.37855 0.0
C352 C 0.07232 0.40745 0.36794 0.0
C353 C 0.09967 0.42606 0.36156 0.0
C354 C 0.11455 0.39554 0.37552 0.0
C355 C 0.0873 0.37601 0.38167 0.0
H356 H 0.10448 0.44618 0.35493 0.0
H357 H 0.13126 0.39146 0.37941 0.0
H358 H 0.16874 0.50759 0.35823 0.0
H359 H 0.13069 0.49249 0.42278 0.0
H360 H 0.20355 0.39728 0.32585 0.0
H361 H 0.05687 0.41379 0.36589 0.0
H362 H 0.08341 0.35675 0.38963 0.0
C363 C 0.65486 0.13418 0.88996 0.0
C364 C 0.63704 0.14326 0.89698 0.0
N365 N 0.62089 0.14144 0.87916 0.0
N366 N 0.64988 0.12665 0.86788 0.0
C367 C 0.62917 0.13142 0.86174 0.0
H368 H 0.67 0.13245 0.90041 0.0
Co369 Co 0.66671 0.1102 0.85204 0.0
C370 C 0.63857 0.0948 0.80681 0.0
O371 O 0.64098 0.07243 0.80533 0.0
N372 N 0.68472 0.09372 0.83647 0.0
C373 C 0.70371 0.06796 0.82655 0.0
C374 C 0.68396 0.06918 0.83998 0.0
C375 C 0.70476 0.10663 0.82051 0.0
N376 N 0.71702 0.09177 0.81455 0.0
O377 O 0.69605 0.1464 0.84423 0.0
H378 H 0.6707 0.0533 0.85196 0.0
H379 H 0.71064 0.1269 0.81355 0.0
O380 O 0.64781 0.11047 0.82432 0.0
C381 C 0.71735 0.15927 0.85691 0.0
O382 O 0.72004 0.14632 0.87465 0.0
N383 N 0.63755 0.07557 0.86145 0.0
C384 C 0.59523 0.03628 0.88898 0.0
C385 C 0.58883 0.04476 0.86851 0.0
C386 C 0.61033 0.06457 0.85496 0.0
C387 C 0.64405 0.06672 0.88093 0.0
C388 C 0.62324 0.04663 0.89473 0.0
H389 H 0.60457 0.07288 0.84073 0.0
H390 H 0.66548 0.07686 0.88663 0.0
H391 H 0.61938 0.12646 0.84515 0.0
H392 H 0.63591 0.15043 0.9139 0.0
H393 H 0.70874 0.05143 0.82648 0.0
H394 H 0.56738 0.03762 0.86386 0.0
H395 H 0.62897 0.04118 0.91077 0.0
C396 C 0.41856 0.40162 0.91572 0.0
C397 C 0.44098 0.39934 0.90725 0.0
C398 C 0.42308 0.42161 0.93216 0.0
C399 C 0.43945 0.46943 0.96542 0.0
H400 H 0.46772 0.44807 0.01753 0.0
C401 C 0.39886 0.43706 0.05797 0.0
C402 C 0.39663 0.45979 0.06569 0.0
C403 C 0.41653 0.44035 0.03984 0.0
C404 C 0.46048 0.45489 0.00308 0.0
H405 H 0.48578 0.4169 0.90804 0.0
H406 H 0.49362 0.4515 0.93743 0.0
H407 H 0.47566 0.43655 0.97912 0.0
H408 H 0.41186 0.50398 0.06164 0.0
H409 H 0.44227 0.50955 0.02927 0.0
H410 H 0.42242 0.48585 0.98952 0.0
C411 C 0.47271 0.43821 0.93103 0.0
C412 C 0.46512 0.44845 0.98112 0.0
C413 C 0.46822 0.41853 0.91425 0.0
C414 C 0.41351 0.48623 0.05599 0.0
C415 C 0.4308 0.48942 0.03753 0.0
C416 C 0.43516 0.47623 0.98738 0.0
C417 C 0.45004 0.43922 0.94068 0.0
C418 C 0.45322 0.45422 0.96224 0.0
C419 C 0.43177 0.4663 0.0289 0.0
C420 C 0.44424 0.46753 0.0064 0.0
H421 H 0.39741 0.38693 0.91055 0.0
H422 H 0.4052 0.4217 0.93955 0.0
H423 H 0.43016 0.47412 0.95109 0.0
H424 H 0.38594 0.41652 0.06524 0.0
H425 H 0.41662 0.42211 0.03328 0.0
C426 C 0.9145 0.34355 0.52442 0.0
C427 C 0.89096 0.31842 0.53104 0.0
C428 C 0.9255 0.34653 0.50251 0.0
C429 C 0.93347 0.30491 0.45944 0.0
H430 H 0.96507 0.37297 0.42382 0.0
C431 C 0.01392 0.36334 0.37949 0.0
C432 C 0.03785 0.36454 0.38899 0.0
C433 C 0.98899 0.35174 0.3918 0.0
C434 C 0.95582 0.35357 0.43327 0.0
H435 H 0.85924 0.27753 0.51922 0.0
H436 H 0.87913 0.28251 0.48125 0.0
H437 H 0.93371 0.36649 0.45555 0.0
H438 H 0.05334 0.35234 0.41831 0.0
H439 H 0.00977 0.33118 0.43904 0.0
H440 H 0.95713 0.29287 0.43817 0.0
C441 C 0.88907 0.29976 0.4931 0.0
C442 C 0.93814 0.35001 0.45151 0.0
C443 C 0.87788 0.29687 0.5149 0.0
C444 C 0.03546 0.35156 0.41015 0.0
C445 C 0.01042 0.33946 0.42217 0.0
C446 C 0.95145 0.30865 0.44142 0.0
C447 C 0.91328 0.32439 0.48688 0.0
C448 C 0.92756 0.32605 0.46518 0.0
C449 C 0.98735 0.34044 0.41351 0.0
C450 C 0.96348 0.33341 0.42868 0.0
H451 H 0.92515 0.36047 0.53645 0.0
H452 H 0.94442 0.36565 0.49819 0.0
H453 H 0.9257 0.28631 0.46982 0.0
H454 H 0.01474 0.37246 0.36298 0.0
H455 H 0.97133 0.35252 0.38475 0.0
C456 C 0.57272 0.99869 0.91819 0.0
C457 C 0.57349 0.02101 0.9063 0.0
C458 C 0.55674 0.98853 0.93796 0.0
C459 C 0.53891 0.01689 0.98543 0.0
H460 H 0.50367 0.94067 0.00719 0.0
C461 C 0.51082 0.94622 0.07286 0.0
C462 C 0.53806 0.95905 0.08161 0.0
C463 C 0.50524 0.95594 0.05272 0.0
C464 C 0.51278 0.96203 0.00137 0.0
H465 H 0.55701 0.04919 0.9048 0.0
H466 H 0.5293 0.03161 0.93963 0.0
H467 H 0.50998 0.94995 0.96636 0.0
H468 H 0.58005 0.99372 0.07777 0.0
H469 H 0.57035 0.01089 0.04269 0.0
H470 H 0.54364 0.02906 0.02055 0.0
C471 C 0.54082 0.02183 0.93353 0.0
C472 C 0.51656 0.9673 0.97801 0.0
C473 C 0.55651 0.03173 0.91356 0.0
C474 C 0.55892 0.98345 0.07128 0.0
C475 C 0.55328 0.99334 0.05128 0.0
C476 C 0.53538 0.01163 0.00883 0.0
C477 C 0.5416 0.00083 0.94632 0.0
C478 C 0.53079 0.99481 0.96992 0.0
C479 C 0.52675 0.97878 0.04118 0.0
C480 C 0.52343 0.98421 0.01703 0.0
H481 H 0.58571 0.99019 0.9129 0.0
H482 H 0.55797 0.97252 0.94762 0.0
H483 H 0.5501 0.03833 0.97966 0.0
H484 H 0.49439 0.92723 0.08042 0.0
H485 H 0.48459 0.94447 0.04534 0.0
C486 C 0.62499 0.60401 0.57472 0.0
C487 C 0.65068 0.60555 0.5789 0.0
C488 C 0.61844 0.60886 0.55279 0.0
C489 C 0.63667 0.60763 0.49271 0.0
H490 H 0.60851 0.6583 0.48278 0.0
C491 C 0.60497 0.62838 0.40409 0.0
C492 C 0.61356 0.65635 0.39911 0.0
C493 C 0.60858 0.62073 0.42593 0.0
C494 C 0.61644 0.64416 0.48533 0.0
H495 H 0.68935 0.61273 0.5634 0.0
H496 H 0.67817 0.62167 0.52553 0.0
H497 H 0.61552 0.64727 0.52167 0.0
H498 H 0.63314 0.69828 0.4129 0.0
H499 H 0.64001 0.68499 0.45084 0.0
H500 H 0.6383 0.60506 0.45641 0.0
C501 C 0.66306 0.61666 0.53905 0.0
C502 C 0.62012 0.63762 0.50755 0.0
C503 C 0.66963 0.612 0.56085 0.0
C504 C 0.62665 0.67662 0.41614 0.0
C505 C 0.63017 0.66896 0.43795 0.0
C506 C 0.63289 0.61408 0.47051 0.0
C507 C 0.63735 0.61492 0.53475 0.0
C508 C 0.63075 0.6197 0.5114 0.0
C509 C 0.62071 0.6409 0.44316 0.0
C510 C 0.62321 0.63278 0.46663 0.0
H511 H 0.60999 0.59896 0.58834 0.0
H512 H 0.59843 0.60734 0.54983 0.0
H513 H 0.64459 0.59348 0.49526 0.0
H514 H 0.59491 0.61237 0.39122 0.0
H515 H 0.60108 0.59893 0.42952 0.0
C516 C 0.09696 0.67695 0.05319 0.0
C517 C 0.08243 0.65861 0.07124 0.0
C518 C 0.09156 0.66781 0.03066 0.0
C519 C 0.06239 0.60551 0.99454 0.0
H520 H 0.04275 0.64818 0.95399 0.0
C521 C 0.98768 0.55793 0.91998 0.0
C522 C 0.98715 0.5755 0.90306 0.0
C523 C 0.00826 0.56866 0.93674 0.0
C524 C 0.049 0.63633 0.96468 0.0
H525 H 0.05086 0.61622 0.07964 0.0
H526 H 0.04162 0.60022 0.04014 0.0
H527 H 0.06057 0.66605 0.99162 0.0
H528 H 0.00918 0.61681 0.88837 0.0
H529 H 0.04625 0.63532 0.91685 0.0
H530 H 0.05042 0.57552 0.9677 0.0
C531 C 0.05735 0.62162 0.04361 0.0
C532 C 0.059 0.64655 0.9864 0.0
C533 C 0.06255 0.63082 0.06618 0.0
C534 C 0.00925 0.60299 0.90141 0.0
C535 C 0.03021 0.61359 0.91787 0.0
C536 C 0.05276 0.59542 0.97262 0.0
C537 C 0.07176 0.64007 0.02567 0.0
C538 C 0.06489 0.63082 0.00176 0.0
C539 C 0.02883 0.59708 0.93662 0.0
C540 C 0.04497 0.61024 0.95771 0.0
H541 H 0.11299 0.69828 0.05644 0.0
H542 H 0.10305 0.68238 0.01711 0.0
H543 H 0.06727 0.59323 0.00602 0.0
H544 H 0.97061 0.5367 0.92162 0.0
H545 H 0.00632 0.55524 0.95087 0.0
C546 C 0.42866 0.94572 0.43836 0.0
C547 C 0.41907 0.94845 0.4169 0.0
C548 C 0.44585 0.96923 0.45129 0.0
C549 C 0.45475 0.03841 0.45832 0.0
H550 H 0.49927 0.03992 0.50985 0.0
C551 C 0.47123 0.10942 0.5341 0.0
C552 C 0.46314 0.09486 0.55488 0.0
C553 C 0.47664 0.09775 0.5151 0.0
C554 C 0.48707 0.03992 0.49543 0.0
H555 H 0.42267 0.97798 0.39098 0.0
H556 H 0.45348 0.01918 0.41329 0.0
H557 H 0.4915 0.00839 0.47802 0.0
H558 H 0.45592 0.0574 0.57245 0.0
H559 H 0.46503 0.03676 0.53913 0.0
H560 H 0.44928 0.06895 0.47605 0.0
C561 C 0.44698 0.9988 0.42043 0.0
C562 C 0.48261 0.02189 0.47721 0.0
C563 C 0.42953 0.9752 0.40755 0.0
C564 C 0.46212 0.06909 0.55665 0.0
C565 C 0.46751 0.05737 0.53761 0.0
C566 C 0.45942 0.05655 0.47638 0.0
C567 C 0.45406 0.99604 0.44293 0.0
C568 C 0.46527 0.01998 0.45896 0.0
C569 C 0.47409 0.07127 0.51649 0.0
C570 C 0.47458 0.0566 0.49556 0.0
H571 H 0.42152 0.92532 0.44575 0.0
H572 H 0.45076 0.96616 0.46852 0.0
H573 H 0.44099 0.03736 0.44478 0.0
H574 H 0.47293 0.12969 0.53241 0.0
H575 H 0.48203 0.10908 0.49912 0.0
C576 C 0.24364 0.48799 0.14328 0.0
C577 C 0.23699 0.47147 0.12355 0.0
C578 C 0.23339 0.50627 0.14631 0.0
C579 C 0.21071 0.54602 0.11121 0.0
H580 H 0.19392 0.56737 0.16945 0.0
C581 C 0.17051 0.62332 0.14852 0.0
C582 C 0.18728 0.64735 0.1355 0.0
C583 C 0.17494 0.60062 0.14804 0.0
C584 C 0.19834 0.5615 0.15302 0.0
H585 H 0.21237 0.45929 0.09258 0.0
H586 H 0.19404 0.49074 0.0981 0.0
H587 H 0.20133 0.5275 0.16734 0.0
H588 H 0.22235 0.66658 0.11227 0.0
H589 H 0.23022 0.62702 0.11148 0.0
H590 H 0.20753 0.57978 0.09683 0.0
C591 C 0.2078 0.49016 0.11091 0.0
C592 C 0.20278 0.53879 0.15185 0.0
C593 C 0.21813 0.47197 0.10784 0.0
C594 C 0.20885 0.64827 0.12224 0.0
C595 C 0.2133 0.62557 0.12177 0.0
C596 C 0.20627 0.56867 0.11238 0.0
C597 C 0.21618 0.50829 0.12972 0.0
C598 C 0.20922 0.53092 0.13094 0.0
C599 C 0.19623 0.60138 0.1345 0.0
C600 C 0.20031 0.57686 0.13332 0.0
H601 H 0.25811 0.4881 0.15575 0.0
H602 H 0.24036 0.52 0.16095 0.0
H603 H 0.21605 0.54083 0.09488 0.0
H604 H 0.15337 0.62162 0.15862 0.0
H605 H 0.16119 0.58219 0.15781 0.0
C606 C 0.57639 0.23095 0.62285 0.0
C607 C 0.55241 0.2164 0.63637 0.0
C608 C 0.60263 0.23847 0.63168 0.0
C609 C 0.63511 0.21596 0.67436 0.0
H610 H 0.70179 0.28402 0.65645 0.0
C611 C 0.76342 0.27198 0.67118 0.0
C612 C 0.76468 0.2502 0.65996 0.0
C613 C 0.73765 0.2691 0.67703 0.0
C614 C 0.6834 0.26518 0.66211 0.0
H615 H 0.53751 0.19995 0.67033 0.0
H616 H 0.58318 0.21265 0.68552 0.0
H617 H 0.65618 0.27864 0.64866 0.0
H618 H 0.74053 0.20732 0.64872 0.0
H619 H 0.69573 0.20216 0.65911 0.0
H620 H 0.66238 0.20207 0.687 0.0
C621 C 0.58161 0.21789 0.66799 0.0
C622 C 0.65728 0.26197 0.65735 0.0
C623 C 0.55541 0.21047 0.6592 0.0
C624 C 0.74013 0.22451 0.65716 0.0
C625 C 0.71444 0.22153 0.66324 0.0
C626 C 0.66126 0.21913 0.67904 0.0
C627 C 0.60545 0.23161 0.65424 0.0
C628 C 0.63289 0.23694 0.66268 0.0
C629 C 0.71284 0.24428 0.67207 0.0
C630 C 0.68565 0.24337 0.67223 0.0
H631 H 0.57481 0.23565 0.6052 0.0
H632 H 0.62059 0.24869 0.62054 0.0
H633 H 0.61669 0.1964 0.67865 0.0
H634 H 0.78204 0.29202 0.67366 0.0
H635 H 0.73702 0.28684 0.68411 0.0
C636 C 0.52031 0.77891 0.15117 0.0
C637 C 0.53501 0.79192 0.13112 0.0
C638 C 0.50326 0.74992 0.1521 0.0
C639 C 0.4841 0.68399 0.1207 0.0
H640 H 0.41055 0.66016 0.14533 0.0
C641 C 0.38662 0.58193 0.0937 0.0
C642 C 0.36783 0.56548 0.11083 0.0
C643 C 0.4088 0.60845 0.09873 0.0
C644 C 0.43109 0.66639 0.13866 0.0
H645 H 0.54498 0.78453 0.09699 0.0
H646 H 0.51511 0.73433 0.09847 0.0
H647 H 0.44763 0.7082 0.15052 0.0
H648 H 0.3573 0.56409 0.14657 0.0
H649 H 0.396 0.61061 0.15535 0.0
H650 H 0.46706 0.64234 0.10805 0.0
C651 C 0.51678 0.7463 0.11358 0.0
C652 C 0.45244 0.69392 0.14173 0.0
C653 C 0.53385 0.77521 0.11267 0.0
C654 C 0.37154 0.57624 0.13306 0.0
C655 C 0.39359 0.60289 0.13805 0.0
C656 C 0.46269 0.65653 0.11748 0.0
C657 C 0.50055 0.73335 0.13302 0.0
C658 C 0.47907 0.70322 0.1324 0.0
C659 C 0.41254 0.6192 0.12096 0.0
C660 C 0.43583 0.6476 0.12606 0.0
H661 H 0.52084 0.79118 0.16574 0.0
H662 H 0.49147 0.74057 0.16751 0.0
H663 H 0.50447 0.69028 0.11365 0.0
H664 H 0.38453 0.5741 0.07649 0.0
H665 H 0.42288 0.62068 0.08515 0.0
C666 C 0.72766 0.50192 0.67118 0.0
C667 C 0.73996 0.52412 0.65557 0.0
C668 C 0.73465 0.48084 0.67087 0.0
C669 C 0.78538 0.46225 0.64546 0.0
H670 H 0.72341 0.38652 0.64977 0.0
C671 C 0.78549 0.36869 0.60335 0.0
C672 C 0.78189 0.34748 0.61841 0.0
C673 C 0.78018 0.38962 0.61057 0.0
C674 C 0.74089 0.40759 0.64872 0.0
H675 H 0.77032 0.54241 0.6283 0.0
H676 H 0.78185 0.50575 0.62732 0.0
H677 H 0.71624 0.42553 0.65908 0.0
H678 H 0.76872 0.33054 0.65233 0.0
H679 H 0.75839 0.36679 0.66478 0.0
H680 H 0.80949 0.44416 0.6338 0.0
C681 C 0.7672 0.50455 0.64012 0.0
C682 C 0.73692 0.42995 0.65422 0.0
C683 C 0.76039 0.52559 0.64055 0.0
C684 C 0.77169 0.3468 0.64049 0.0
C685 C 0.76578 0.3674 0.64756 0.0
C686 C 0.78915 0.43996 0.63955 0.0
C687 C 0.75398 0.48154 0.65489 0.0
C688 C 0.759 0.45763 0.65218 0.0
C689 C 0.77062 0.38931 0.63281 0.0
C690 C 0.76683 0.41252 0.64073 0.0
H691 H 0.71183 0.50021 0.68299 0.0
H692 H 0.72439 0.46369 0.68276 0.0
H693 H 0.80305 0.48317 0.64426 0.0
H694 H 0.79359 0.36975 0.58635 0.0
H695 H 0.78388 0.40628 0.5989 0.0
C696 C 0.41486 0.80232 0.13118 0.0
C697 C 0.43958 0.82127 0.14229 0.0
C698 C 0.38903 0.79408 0.14127 0.0
C699 C 0.35541 0.81889 0.18087 0.0
H700 H 0.29351 0.74343 0.17477 0.0
C701 C 0.22763 0.74775 0.19234 0.0
C702 C 0.22036 0.76438 0.1792 0.0
C703 C 0.25564 0.7557 0.19552 0.0
C704 C 0.31065 0.76448 0.17709 0.0
H705 H 0.45664 0.84649 0.17272 0.0
H706 H 0.41157 0.83197 0.19036 0.0
H707 H 0.34039 0.75365 0.16482 0.0
H708 H 0.23652 0.80362 0.16118 0.0
H709 H 0.28526 0.81753 0.16678 0.0
H710 H 0.32542 0.82989 0.19234 0.0
C711 C 0.41216 0.82343 0.17389 0.0
C712 C 0.33744 0.77038 0.1711 0.0
C713 C 0.43797 0.83152 0.16387 0.0
C714 C 0.24152 0.7903 0.17124 0.0
C715 C 0.26947 0.79835 0.17457 0.0
C716 C 0.32855 0.81302 0.18673 0.0
C717 C 0.38742 0.80479 0.16261 0.0
C718 C 0.35993 0.79779 0.17224 0.0
C719 C 0.27679 0.78052 0.18582 0.0
C720 C 0.30578 0.78591 0.18424 0.0
H721 H 0.41551 0.79404 0.11463 0.0
H722 H 0.3703 0.77997 0.13202 0.0
H723 H 0.37235 0.84024 0.1819 0.0
H724 H 0.21177 0.72766 0.19875 0.0
H725 H 0.26072 0.74174 0.20451 0.0
C726 C 0.59907 0.44673 0.6076 0.0
C727 C 0.62071 0.45728 0.62366 0.0
C728 C 0.5759 0.42014 0.61034 0.0
C729 C 0.53842 0.36496 0.6539 0.0
H730 H 0.50619 0.31785 0.6009 0.0
C731 C 0.46825 0.24494 0.65555 0.0
C732 C 0.44736 0.23263 0.63885 0.0
C733 C 0.48554 0.27388 0.65629 0.0
C734 C 0.51461 0.33093 0.61583 0.0
H735 H 0.63563 0.44801 0.65471 0.0
H736 H 0.59561 0.40135 0.65923 0.0
H737 H 0.54521 0.36483 0.59608 0.0
H738 H 0.42618 0.24108 0.61159 0.0
H739 H 0.45625 0.29152 0.61302 0.0
H740 H 0.50829 0.33036 0.67367 0.0
C741 C 0.59604 0.41385 0.64487 0.0
C742 C 0.53703 0.35788 0.61307 0.0
C743 C 0.61907 0.44049 0.64221 0.0
C744 C 0.44232 0.24991 0.62446 0.0
C745 C 0.45962 0.27878 0.62518 0.0
C746 C 0.51609 0.33783 0.65667 0.0
C747 C 0.57402 0.40344 0.6291 0.0
C748 C 0.54939 0.37516 0.63207 0.0
C749 C 0.48219 0.29093 0.64037 0.0
C750 C 0.50409 0.32051 0.63766 0.0
H751 H 0.59957 0.45939 0.59336 0.0
H752 H 0.55917 0.41294 0.59801 0.0
H753 H 0.54712 0.3779 0.66887 0.0
H754 H 0.47264 0.23222 0.66693 0.0
H755 H 0.50278 0.28267 0.66819 0.0
C756 C 0.39783 0.79039 0.37628 0.0
C757 C 0.38616 0.8042 0.36449 0.0
C758 C 0.41629 0.78393 0.36535 0.0
C759 C 0.46534 0.80422 0.31756 0.0
H760 H 0.45842 0.73194 0.32837 0.0
C761 C 0.52117 0.73422 0.29562 0.0
C762 C 0.54843 0.75332 0.30272 0.0
C763 C 0.50014 0.74108 0.29718 0.0
C764 C 0.46039 0.75205 0.32482 0.0
H765 H 0.38489 0.82183 0.33171 0.0
H766 H 0.41736 0.81088 0.31289 0.0
H767 H 0.42372 0.74208 0.34404 0.0
H768 H 0.57563 0.79545 0.31469 0.0
H769 H 0.53902 0.80748 0.31723 0.0
H770 H 0.50247 0.81437 0.29878 0.0
C771 C 0.41229 0.80526 0.33064 0.0
C772 C 0.44072 0.75797 0.33408 0.0
C773 C 0.3937 0.81161 0.34153 0.0
C774 C 0.55479 0.78027 0.30921 0.0
C775 C 0.53381 0.78719 0.3106 0.0
C776 C 0.48519 0.79836 0.30843 0.0
C777 C 0.42365 0.79122 0.34241 0.0
C778 C 0.44329 0.78429 0.33094 0.0
C779 C 0.50604 0.76722 0.30563 0.0
C780 C 0.48316 0.77236 0.3123 0.0
H781 H 0.39292 0.78475 0.39402 0.0
H782 H 0.42512 0.7735 0.37497 0.0
H783 H 0.46786 0.82471 0.31489 0.0
H784 H 0.51556 0.71326 0.29053 0.0
H785 H 0.47897 0.72541 0.29293 0.0
C786 C 0.76658 0.49921 0.89362 0.0
C787 C 0.78352 0.50055 0.87527 0.0
C788 C 0.73763 0.48505 0.89147 0.0
C789 C 0.68066 0.42887 0.85906 0.0
H790 H 0.63644 0.45634 0.88862 0.0
C791 C 0.55984 0.36648 0.85958 0.0
C792 C 0.54744 0.36473 0.88091 0.0
C793 C 0.58826 0.38511 0.85616 0.0
C794 C 0.6485 0.44834 0.88034 0.0
H795 H 0.78333 0.48852 0.84005 0.0
H796 H 0.73255 0.46374 0.83628 0.0
H797 H 0.68703 0.48557 0.8873 0.0
H798 H 0.55503 0.38191 0.91507 0.0
H799 H 0.60447 0.41394 0.90925 0.0
H800 H 0.64212 0.39137 0.85255 0.0
C801 C 0.74177 0.47352 0.8524 0.0
C802 C 0.67747 0.46508 0.87958 0.0
C803 C 0.77084 0.48783 0.85453 0.0
C804 C 0.56396 0.38241 0.89855 0.0
C805 C 0.59227 0.40107 0.89511 0.0
C806 C 0.65164 0.4121 0.85981 0.0
C807 C 0.72484 0.47182 0.87092 0.0
C808 C 0.69394 0.45531 0.86938 0.0
C809 C 0.60482 0.40252 0.87394 0.0
C810 C 0.63528 0.42141 0.87091 0.0
H811 H 0.77565 0.50877 0.90984 0.0
H812 H 0.72522 0.4838 0.90618 0.0
H813 H 0.69275 0.42061 0.85126 0.0
H814 H 0.54774 0.35306 0.84567 0.0
H815 H 0.59728 0.38588 0.8396 0.0
C816 C 0.1599 0.55214 0.36929 0.0
C817 C 0.15412 0.53712 0.38985 0.0
C818 C 0.16554 0.57967 0.36915 0.0
C819 C 0.19058 0.64009 0.40767 0.0
H820 H 0.17491 0.67349 0.35579 0.0
C821 C 0.22999 0.75706 0.4052 0.0
C822 C 0.24628 0.77036 0.38588 0.0
C823 C 0.2125 0.7282 0.4055 0.0
C824 C 0.1793 0.66437 0.37041 0.0
H825 H 0.14833 0.53925 0.42627 0.0
H826 H 0.15701 0.58672 0.42585 0.0
H827 H 0.15518 0.62296 0.35727 0.0
H828 H 0.25535 0.76414 0.35109 0.0
H829 H 0.22471 0.71364 0.35165 0.0
H830 H 0.21487 0.68145 0.42069 0.0
C831 C 0.15805 0.57744 0.4099 0.0
C832 C 0.16815 0.63548 0.37124 0.0
C833 C 0.15275 0.54999 0.41009 0.0
C834 C 0.24319 0.75446 0.36629 0.0
C835 C 0.22554 0.72557 0.36655 0.0
C836 C 0.2014 0.66884 0.40696 0.0
C837 C 0.16517 0.59285 0.38951 0.0
C838 C 0.17416 0.62305 0.38967 0.0
C839 C 0.21079 0.7121 0.38644 0.0
C840 C 0.19633 0.68133 0.38814 0.0
H841 H 0.16048 0.54289 0.35323 0.0
H842 H 0.17115 0.59088 0.35312 0.0
H843 H 0.19616 0.63144 0.42192 0.0
H844 H 0.23169 0.76873 0.42051 0.0
H845 H 0.20106 0.71834 0.42094 0.0
C846 C 0.59169 0.1565 0.85883 0.0
C847 C 0.59846 0.14746 0.87895 0.0
C848 C 0.57005 0.16252 0.85862 0.0
C849 C 0.5296 0.18147 0.8972 0.0
H850 H 0.48246 0.16624 0.8441 0.0
C851 C 0.44521 0.21245 0.89509 0.0
C852 C 0.44668 0.22838 0.87595 0.0
C853 C 0.45923 0.19736 0.89522 0.0
C854 C 0.49547 0.17058 0.85904 0.0
H855 H 0.58727 0.13672 0.9144 0.0
H856 H 0.5493 0.14697 0.91405 0.0
H857 H 0.51617 0.15005 0.84509 0.0
H858 H 0.46228 0.23938 0.84135 0.0
H859 H 0.48675 0.21307 0.84162 0.0
H860 H 0.50922 0.20232 0.91101 0.0
C861 C 0.5611 0.15 0.89854 0.0
C862 C 0.51485 0.16144 0.85959 0.0
C863 C 0.58287 0.14416 0.89877 0.0
C864 C 0.46089 0.22743 0.85641 0.0
C865 C 0.47478 0.21224 0.85651 0.0
C866 C 0.51015 0.19045 0.8967 0.0
C867 C 0.55456 0.15945 0.8785 0.0
C868 C 0.53245 0.16718 0.87853 0.0
C869 C 0.47482 0.19777 0.87617 0.0
C870 C 0.49318 0.18548 0.87749 0.0
H871 H 0.60353 0.15951 0.84336 0.0
H872 H 0.56592 0.17023 0.843 0.0
H873 H 0.5431 0.18666 0.9119 0.0
H874 H 0.43429 0.2126 0.91036 0.0
H875 H 0.45857 0.18605 0.91049 0.0
C876 C 0.45739 0.65397 0.33974 0.0
C877 C 0.47521 0.66094 0.35867 0.0
C878 C 0.42866 0.6364 0.3422 0.0
C879 C 0.37758 0.58138 0.37982 0.0
H880 H 0.32372 0.59331 0.34698 0.0
C881 C 0.25944 0.51191 0.39444 0.0
C882 C 0.2422 0.50372 0.3751 0.0
C883 C 0.28758 0.53219 0.39275 0.0
C884 C 0.33852 0.58955 0.35609 0.0
H885 H 0.47662 0.65542 0.39513 0.0
H886 H 0.42647 0.62516 0.39951 0.0
H887 H 0.37334 0.6273 0.34365 0.0
H888 H 0.24096 0.51057 0.33882 0.0
H889 H 0.29019 0.54572 0.33582 0.0
H890 H 0.34292 0.54354 0.39208 0.0
C891 C 0.43479 0.633 0.38269 0.0
C892 C 0.36693 0.60904 0.35421 0.0
C893 C 0.46351 0.65061 0.38024 0.0
C894 C 0.25368 0.51643 0.35406 0.0
C895 C 0.28186 0.53671 0.35236 0.0
C896 C 0.34922 0.5619 0.38168 0.0
C897 C 0.41707 0.62537 0.36366 0.0
C898 C 0.38679 0.60515 0.36604 0.0
C899 C 0.29918 0.54473 0.37168 0.0
C900 C 0.32933 0.56571 0.36982 0.0
H901 H 0.46568 0.6619 0.32295 0.0
H902 H 0.41562 0.63083 0.32717 0.0
H903 H 0.39236 0.57748 0.38882 0.0
H904 H 0.25123 0.50266 0.41095 0.0
H905 H 0.30022 0.53817 0.40803 0.0
C906 C 0.73192 0.20388 0.83596 0.0
C907 C 0.73653 0.18948 0.85361 0.0
C908 C 0.74751 0.23294 0.83475 0.0
C909 C 0.81047 0.29537 0.85706 0.0
H910 H 0.76569 0.33072 0.84955 0.0
C911 C 0.84709 0.40764 0.88659 0.0
C912 C 0.83967 0.42426 0.87358 0.0
C913 C 0.83696 0.37971 0.88098 0.0
C914 C 0.77865 0.32129 0.85126 0.0
H915 H 0.76223 0.1942 0.88302 0.0
H916 H 0.78926 0.24487 0.88099 0.0
H917 H 0.74429 0.28056 0.84478 0.0
H918 H 0.81604 0.42442 0.84415 0.0
H919 H 0.79883 0.37587 0.83413 0.0
H920 H 0.84471 0.33614 0.86403 0.0
C921 C 0.77371 0.23372 0.86801 0.0
C922 C 0.76637 0.29249 0.84851 0.0
C923 C 0.7581 0.20465 0.86925 0.0
C924 C 0.82235 0.41237 0.85449 0.0
C925 C 0.81224 0.38442 0.84887 0.0
C926 C 0.82279 0.32422 0.85977 0.0
C927 C 0.76808 0.24823 0.85112 0.0
C928 C 0.78201 0.27913 0.85174 0.0
C929 C 0.81919 0.36767 0.86219 0.0
C930 C 0.80689 0.33745 0.85729 0.0
H931 H 0.7156 0.1928 0.82352 0.0
H932 H 0.743 0.24349 0.8213 0.0
H933 H 0.82316 0.28573 0.85936 0.0
H934 H 0.86072 0.41617 0.90117 0.0
H935 H 0.84251 0.36736 0.89177 0.0
C936 C 0.12864 0.36286 0.29011 0.0
C937 C 0.15014 0.36617 0.30481 0.0
C938 C 0.1225 0.34652 0.27049 0.0
C939 C 0.13947 0.34105 0.22308 0.0
H940 H 0.16079 0.28499 0.21356 0.0
C941 C 0.22822 0.34015 0.17161 0.0
C942 C 0.22714 0.35408 0.15195 0.0
C943 C 0.20485 0.32606 0.18557 0.0
C944 C 0.15437 0.30037 0.21581 0.0
H945 H 0.17925 0.35181 0.31206 0.0
H946 H 0.16959 0.32454 0.27755 0.0
H947 H 0.14265 0.28852 0.25059 0.0
H948 H 0.19956 0.3603 0.12965 0.0
H949 H 0.15865 0.33567 0.1541 0.0
H950 H 0.15319 0.35451 0.18917 0.0
C951 C 0.15723 0.33429 0.28106 0.0
C952 C 0.14402 0.30243 0.23704 0.0
C953 C 0.16321 0.35042 0.30073 0.0
C954 C 0.20126 0.35054 0.14507 0.0
C955 C 0.1778 0.33632 0.15903 0.0
C956 C 0.14976 0.33899 0.20193 0.0
C957 C 0.13788 0.33337 0.26507 0.0
C958 C 0.13844 0.32415 0.24137 0.0
C959 C 0.17985 0.32551 0.18017 0.0
C960 C 0.1593 0.32001 0.19861 0.0
H961 H 0.11791 0.37443 0.29276 0.0
H962 H 0.10705 0.34579 0.25876 0.0
H963 H 0.1354 0.35805 0.22565 0.0
H964 H 0.24768 0.34226 0.17746 0.0
H965 H 0.20739 0.31814 0.20173 0.0
C966 C 0.76019 0.12963 0.79781 0.0
C967 C 0.74124 0.10103 0.80027 0.0
C968 C 0.78298 0.13896 0.78328 0.0
C969 C 0.80422 0.11802 0.73146 0.0
H970 H 0.8675 0.19204 0.74026 0.0
C971 C 0.84099 0.19815 0.66263 0.0
C972 C 0.86617 0.22345 0.66458 0.0
C973 C 0.8345 0.17645 0.67784 0.0
C974 C 0.85061 0.17102 0.7374 0.0
H975 H 0.73218 0.05968 0.7902 0.0
H976 H 0.77248 0.07604 0.76485 0.0
H977 H 0.83993 0.16609 0.77273 0.0
H978 H 0.90597 0.24441 0.68198 0.0
H979 H 0.89515 0.20606 0.70807 0.0
H980 H 0.81494 0.12291 0.69611 0.0
C981 C 0.76938 0.09124 0.77401 0.0
C982 C 0.83442 0.15626 0.75612 0.0
C983 C 0.74636 0.08186 0.78859 0.0
C984 C 0.88619 0.22533 0.68026 0.0
C985 C 0.87984 0.20339 0.69537 0.0
C986 C 0.82085 0.1325 0.71278 0.0
C987 C 0.78772 0.11996 0.77091 0.0
C988 C 0.80975 0.13065 0.75306 0.0
C989 C 0.85323 0.17933 0.69525 0.0
C990 C 0.84281 0.16014 0.71524 0.0
H991 H 0.75735 0.14498 0.80697 0.0
H992 H 0.79622 0.16124 0.78109 0.0
H993 H 0.78566 0.0981 0.72846 0.0
H994 H 0.82552 0.19564 0.65018 0.0
H995 H 0.81377 0.15846 0.67698 0.0
C996 C 0.67617 0.91628 0.17314 0.0
C997 C 0.64751 0.90516 0.17746 0.0
C998 C 0.69318 0.91293 0.18895 0.0
C999 C 0.7103 0.8751 0.21255 0.0
H1000 H 0.68852 0.85929 0.27594 0.0
C1001 C 0.67048 0.76982 0.24948 0.0
C1002 C 0.66674 0.7653 0.27306 0.0
C1003 C 0.68567 0.79684 0.24086 0.0
C1004 C 0.69584 0.86409 0.25851 0.0
H1005 H 0.61527 0.88448 0.20321 0.0
H1006 H 0.64439 0.87865 0.23022 0.0
H1007 H 0.6826 0.89421 0.25605 0.0
H1008 H 0.67946 0.78497 0.30615 0.0
H1009 H 0.70648 0.8323 0.29113 0.0
H1010 H 0.72264 0.84426 0.21479 0.0
C1011 C 0.654 0.89006 0.21472 0.0
C1012 C 0.69208 0.88401 0.24701 0.0
C1013 C 0.63704 0.89327 0.19895 0.0
C1014 C 0.6814 0.788 0.28787 0.0
C1015 C 0.69687 0.81508 0.27925 0.0
C1016 C 0.71454 0.85552 0.22417 0.0
C1017 C 0.68193 0.89864 0.20949 0.0
C1018 C 0.69685 0.88779 0.22341 0.0
C1019 C 0.69766 0.81996 0.25565 0.0
C1020 C 0.70491 0.84794 0.24667 0.0
H1021 H 0.68523 0.92642 0.15711 0.0
H1022 H 0.71474 0.92023 0.18457 0.0
H1023 H 0.71469 0.87779 0.19445 0.0
H1024 H 0.65951 0.75283 0.23759 0.0
H1025 H 0.68553 0.79951 0.22259 0.0
C1026 C 0.78009 0.65895 0.71633 0.0
C1027 C 0.77569 0.64629 0.69485 0.0
C1028 C 0.80641 0.67142 0.72635 0.0
C1029 C 0.86199 0.65589 0.72686 0.0
H1030 H 0.88435 0.7057 0.77877 0.0
C1031 C 0.90321 0.62889 0.80456 0.0
C1032 C 0.88673 0.62652 0.82359 0.0
C1033 C 0.90453 0.64512 0.78585 0.0
C1034 C 0.87873 0.69198 0.76416 0.0
H1035 H 0.7961 0.64028 0.66564 0.0
H1036 H 0.84215 0.66195 0.68321 0.0
H1037 H 0.85793 0.71112 0.74788 0.0
H1038 H 0.86053 0.64105 0.83864 0.0
H1039 H 0.86219 0.6686 0.80611 0.0
H1040 H 0.88035 0.63509 0.74383 0.0
C1041 C 0.82512 0.66168 0.69252 0.0
C1042 C 0.86365 0.69512 0.74647 0.0
C1043 C 0.79873 0.64907 0.68254 0.0
C1044 C 0.87343 0.64243 0.82429 0.0
C1045 C 0.87462 0.6585 0.8056 0.0
C1046 C 0.87695 0.65271 0.74453 0.0
C1047 C 0.82888 0.67153 0.71504 0.0
C1048 C 0.85334 0.67575 0.72851 0.0
C1049 C 0.88922 0.65912 0.78577 0.0
C1050 C 0.8836 0.66937 0.76416 0.0
H1051 H 0.7628 0.65724 0.72621 0.0
H1052 H 0.80839 0.67856 0.74379 0.0
H1053 H 0.85449 0.64058 0.71331 0.0
H1054 H 0.91431 0.61745 0.80382 0.0
H1055 H 0.91634 0.64553 0.77098 0.0
C1056 C 0.23373 0.88774 0.3434 0.0
C1057 C 0.23747 0.86567 0.35072 0.0
C1058 C 0.21051 0.88239 0.33018 0.0
C1059 C 0.14361 0.82351 0.30705 0.0
H1060 H 0.16698 0.86721 0.25158 0.0
C1061 C 0.09387 0.76973 0.22449 0.0
C1062 C 0.1143 0.77374 0.20833 0.0
C1063 C 0.10024 0.78879 0.24232 0.0
C1064 C 0.15997 0.85477 0.26696 0.0
H1065 H 0.21872 0.82075 0.35182 0.0
H1066 H 0.17918 0.8114 0.32841 0.0
H1067 H 0.19523 0.88503 0.28564 0.0
H1068 H 0.15594 0.80276 0.19632 0.0
H1069 H 0.16763 0.8348 0.22764 0.0
H1070 H 0.11041 0.79173 0.28783 0.0
C1071 C 0.19368 0.83286 0.33285 0.0
C1072 C 0.17601 0.86524 0.28669 0.0
C1073 C 0.21673 0.83821 0.34596 0.0
C1074 C 0.14008 0.79857 0.20896 0.0
C1075 C 0.14657 0.81734 0.22683 0.0
C1076 C 0.128 0.81273 0.2872 0.0
C1077 C 0.1906 0.85487 0.3242 0.0
C1078 C 0.16909 0.84876 0.30648 0.0
C1079 C 0.12725 0.81201 0.24445 0.0
C1080 C 0.1372 0.82735 0.26647 0.0
H1081 H 0.24939 0.90912 0.34694 0.0
H1082 H 0.20867 0.89982 0.32399 0.0
H1083 H 0.13704 0.81079 0.3223 0.0
H1084 H 0.07365 0.75099 0.2243 0.0
H1085 H 0.08451 0.78436 0.25516 0.0
C1086 C 0.32408 0.096 0.68001 0.0
C1087 C 0.34096 0.11931 0.66642 0.0
C1088 C 0.30966 0.09859 0.69863 0.0
C1089 C 0.29632 0.15065 0.72913 0.0
H1090 H 0.32018 0.1259 0.78182 0.0
C1091 C 0.32304 0.21252 0.81252 0.0
C1092 C 0.34921 0.2187 0.82113 0.0
C1093 C 0.30921 0.19113 0.79658 0.0
C1094 C 0.31321 0.1329 0.76732 0.0
H1095 H 0.35365 0.16238 0.65971 0.0
H1096 H 0.32914 0.16723 0.69194 0.0
H1097 H 0.31672 0.10435 0.7451 0.0
H1098 H 0.38025 0.20575 0.821 0.0
H1099 H 0.35714 0.16975 0.79269 0.0
H1100 H 0.296 0.18141 0.75081 0.0
C1101 C 0.32656 0.14685 0.68858 0.0
C1102 C 0.31074 0.12017 0.74625 0.0
C1103 C 0.34094 0.14426 0.67019 0.0
C1104 C 0.36052 0.20211 0.81432 0.0
C1105 C 0.34685 0.18093 0.79837 0.0
C1106 C 0.2993 0.16374 0.75012 0.0
C1107 C 0.31188 0.12449 0.70376 0.0
C1108 C 0.30419 0.13026 0.72659 0.0
C1109 C 0.32129 0.1755 0.78889 0.0
C1110 C 0.30965 0.15626 0.76909 0.0
H1111 H 0.32382 0.07654 0.6773 0.0
H1112 H 0.29823 0.08084 0.70979 0.0
H1113 H 0.29031 0.1583 0.71446 0.0
H1114 H 0.31368 0.22484 0.81744 0.0
H1115 H 0.28944 0.18736 0.78983 0.0
C1116 C 0.51668 0.59334 0.28846 0.0
C1117 C 0.52368 0.62146 0.28834 0.0
C1118 C 0.49154 0.57293 0.27896 0.0
C1119 C 0.42241 0.56139 0.26 0.0
H1120 H 0.42078 0.50186 0.22402 0.0
C1121 C 0.34404 0.50347 0.18855 0.0
C1122 C 0.33169 0.4744 0.18754 0.0
C1123 C 0.36465 0.51864 0.2046 0.0
C1124 C 0.42084 0.5181 0.23435 0.0
H1125 H 0.51017 0.65037 0.27775 0.0
H1126 H 0.46701 0.61512 0.26056 0.0
H1127 H 0.46327 0.53418 0.2443 0.0
H1128 H 0.33028 0.43805 0.2026 0.0
H1129 H 0.36723 0.46487 0.23058 0.0
H1130 H 0.3804 0.5461 0.2489 0.0
C1131 C 0.48038 0.60855 0.26858 0.0
C1132 C 0.44514 0.53662 0.24599 0.0
C1133 C 0.5053 0.62884 0.27825 0.0
C1134 C 0.33959 0.46052 0.20322 0.0
C1135 C 0.36069 0.47578 0.21906 0.0
C1136 C 0.39829 0.54313 0.24811 0.0
C1137 C 0.47303 0.5803 0.26899 0.0
C1138 C 0.44642 0.55888 0.25853 0.0
C1139 C 0.37355 0.505 0.21969 0.0
C1140 C 0.3975 0.52169 0.23484 0.0
H1141 H 0.53033 0.58699 0.29629 0.0
H1142 H 0.48643 0.55136 0.27977 0.0
H1143 H 0.42239 0.57782 0.26998 0.0
H1144 H 0.33789 0.51449 0.17681 0.0
H1145 H 0.37438 0.54116 0.20466 0.0
C1146 C 0.86714 0.49158 0.7971 0.0
C1147 C 0.89167 0.51686 0.8016 0.0
C1148 C 0.86602 0.47471 0.77897 0.0
C1149 C 0.90023 0.47372 0.72516 0.0
H1150 H 0.86819 0.39517 0.73921 0.0
C1151 C 0.90766 0.39546 0.6637 0.0
C1152 C 0.8837 0.36904 0.66173 0.0
C1153 C 0.90909 0.41435 0.68026 0.0
C1154 C 0.87691 0.41698 0.73488 0.0
H1155 H 0.93383 0.54487 0.78985 0.0
H1156 H 0.93179 0.51538 0.75817 0.0
H1157 H 0.86892 0.42685 0.76825 0.0
H1158 H 0.84254 0.34171 0.67583 0.0
H1159 H 0.84481 0.37465 0.70412 0.0
H1160 H 0.90812 0.46372 0.69169 0.0
C1161 C 0.91345 0.50864 0.7687 0.0
C1162 C 0.87731 0.43513 0.75154 0.0
C1163 C 0.91462 0.52549 0.78691 0.0
C1164 C 0.86129 0.36191 0.67672 0.0
C1165 C 0.86268 0.38074 0.69315 0.0
C1166 C 0.89974 0.45548 0.7084 0.0
C1167 C 0.88933 0.48279 0.76484 0.0
C1168 C 0.88885 0.46368 0.74686 0.0
C1169 C 0.88661 0.40716 0.69521 0.0
C1170 C 0.88794 0.42686 0.71305 0.0
H1171 H 0.84894 0.48447 0.80785 0.0
H1172 H 0.84695 0.45515 0.77616 0.0
H1173 H 0.90911 0.49559 0.721 0.0
H1174 H 0.92529 0.4016 0.65244 0.0
H1175 H 0.92794 0.43443 0.68156 0.0
C1176 C 0.52317 0.91731 0.20201 0.0
C1177 C 0.52743 0.89513 0.19617 0.0
C1178 C 0.50067 0.91268 0.21581 0.0
C1179 C 0.44999 0.86507 0.2576 0.0
H1180 H 0.4036 0.89406 0.23511 0.0
C1181 C 0.34993 0.84166 0.30475 0.0
C1182 C 0.34616 0.86464 0.30844 0.0
C1183 C 0.3695 0.84322 0.28893 0.0
C1184 C 0.41643 0.88601 0.24172 0.0
H1185 H 0.51258 0.85113 0.20129 0.0
H1186 H 0.47361 0.8432 0.22579 0.0
H1187 H 0.44472 0.90224 0.2135 0.0
H1188 H 0.35863 0.90661 0.29733 0.0
H1189 H 0.39302 0.90951 0.26994 0.0
H1190 H 0.4223 0.84946 0.28609 0.0
C1191 C 0.48749 0.86407 0.21953 0.0
C1192 C 0.43999 0.89073 0.22936 0.0
C1193 C 0.50979 0.86862 0.20552 0.0
C1194 C 0.36097 0.88851 0.29484 0.0
C1195 C 0.38071 0.89015 0.27911 0.0
C1196 C 0.42659 0.86054 0.27006 0.0
C1197 C 0.48227 0.88589 0.22427 0.0
C1198 C 0.45712 0.88052 0.23729 0.0
C1199 C 0.38587 0.86786 0.27652 0.0
C1200 C 0.4096 0.87111 0.26235 0.0
H1201 H 0.53626 0.93792 0.19494 0.0
H1202 H 0.49733 0.92995 0.2195 0.0
H1203 H 0.46291 0.85707 0.26416 0.0
H1204 H 0.33858 0.82284 0.3148 0.0
H1205 H 0.37243 0.82541 0.28695 0.0
C1206 C 0.48713 0.33726 0.7991 0.0
C1207 C 0.46044 0.33417 0.80101 0.0
C1208 C 0.50678 0.35686 0.78411 0.0
C1209 C 0.51554 0.40497 0.73616 0.0
H1210 H 0.58987 0.44915 0.76124 0.0
C1211 C 0.59509 0.51392 0.70202 0.0
C1212 C 0.62219 0.5189 0.69789 0.0
C1213 C 0.57571 0.48989 0.71355 0.0
C1214 C 0.56928 0.43682 0.75392 0.0
H1215 H 0.43296 0.34816 0.78774 0.0
H1216 H 0.46722 0.38259 0.76203 0.0
H1217 H 0.555 0.40852 0.78204 0.0
H1218 H 0.65044 0.50293 0.70318 0.0
H1219 H 0.61666 0.46121 0.72369 0.0
H1220 H 0.52975 0.43406 0.70843 0.0
C1221 C 0.473 0.36969 0.77183 0.0
C1222 C 0.54931 0.41341 0.76575 0.0
C1223 C 0.45331 0.34996 0.78668 0.0
C1224 C 0.62972 0.49971 0.7061 0.0
C1225 C 0.61043 0.47585 0.71786 0.0
C1226 C 0.53544 0.42856 0.72447 0.0
C1227 C 0.50022 0.37392 0.77079 0.0
C1228 C 0.52207 0.39734 0.75715 0.0
C1229 C 0.58313 0.47053 0.72144 0.0
C1230 C 0.5624 0.44487 0.73336 0.0
H1231 H 0.49317 0.32515 0.80971 0.0
H1232 H 0.52733 0.35909 0.78337 0.0
H1233 H 0.49496 0.39282 0.72881 0.0
H1234 H 0.58858 0.52821 0.69584 0.0
H1235 H 0.55489 0.48645 0.71634 0.0
C1236 C 0.08517 0.61156 0.20574 0.0
C1237 C 0.10758 0.63888 0.20344 0.0
C1238 C 0.08829 0.59173 0.21817 0.0
C1239 C 0.14327 0.57803 0.24028 0.0
H1240 H 0.08214 0.52063 0.27533 0.0
C1241 C 0.1547 0.50386 0.30363 0.0
C1242 C 0.13433 0.4755 0.30212 0.0
C1243 C 0.152 0.52384 0.29106 0.0
C1244 C 0.09932 0.53645 0.26547 0.0
H1245 H 0.15047 0.66718 0.21312 0.0
H1246 H 0.1556 0.63304 0.23541 0.0
H1247 H 0.07587 0.55578 0.25546 0.0
H1248 H 0.09545 0.44585 0.28586 0.0
H1249 H 0.09073 0.48079 0.26412 0.0
H1250 H 0.16684 0.55891 0.25086 0.0
C1251 C 0.13587 0.62653 0.22706 0.0
C1252 C 0.09573 0.55655 0.25401 0.0
C1253 C 0.13285 0.64622 0.21444 0.0
C1254 C 0.11155 0.46751 0.28741 0.0
C1255 C 0.1087 0.4875 0.27507 0.0
C1256 C 0.14695 0.55814 0.25199 0.0
C1257 C 0.11381 0.5989 0.22878 0.0
C1258 C 0.11764 0.57759 0.24121 0.0
C1259 C 0.12874 0.51587 0.27695 0.0
C1260 C 0.12498 0.5371 0.26462 0.0
H1261 H 0.06552 0.60522 0.19729 0.0
H1262 H 0.07093 0.57059 0.21887 0.0
H1263 H 0.16044 0.59352 0.23022 0.0
H1264 H 0.17253 0.51069 0.31476 0.0
H1265 H 0.1677 0.54561 0.29288 0.0
C1266 C 0.62042 0.12438 0.79041 0.0
C1267 C 0.62053 0.09904 0.79065 0.0
C1268 C 0.60141 0.1275 0.77686 0.0
C1269 C 0.53223 0.08705 0.75207 0.0
H1270 H 0.55395 0.1514 0.71333 0.0
C1271 C 0.45564 0.09319 0.68883 0.0
C1272 C 0.45866 0.11939 0.68398 0.0
C1273 C 0.47491 0.09099 0.70277 0.0
C1274 C 0.54739 0.13352 0.72437 0.0
H1275 H 0.60117 0.05733 0.77646 0.0
H1276 H 0.56776 0.06274 0.753 0.0
H1277 H 0.58935 0.1474 0.73499 0.0
H1278 H 0.48333 0.16367 0.69095 0.0
H1279 H 0.51634 0.15978 0.71587 0.0
H1280 H 0.49026 0.07337 0.74206 0.0
C1281 C 0.58242 0.08014 0.76332 0.0
C1282 C 0.56775 0.13118 0.73664 0.0
C1283 C 0.60169 0.07714 0.77661 0.0
C1284 C 0.48056 0.14319 0.69423 0.0
C1285 C 0.49967 0.14097 0.70835 0.0
C1286 C 0.51181 0.08954 0.74007 0.0
C1287 C 0.58188 0.10523 0.76352 0.0
C1288 C 0.56038 0.10783 0.75048 0.0
C1289 C 0.49747 0.1149 0.71241 0.0
C1290 C 0.5191 0.11273 0.72593 0.0
H1291 H 0.63469 0.14166 0.80102 0.0
H1292 H 0.60136 0.14702 0.77741 0.0
H1293 H 0.52593 0.06903 0.76291 0.0
H1294 H 0.43915 0.07447 0.68104 0.0
H1295 H 0.47266 0.07059 0.70522 0.0
loop_
_geom_bond_atom_site_label_1
_geom_bond_atom_site_label_2
_geom_bond_distance
_geom_bond_site_symmetry_2
_ccdc_geom_bond_type
C0 C1 1.351 . S
C0 N3 1.368 . S
C0 H5 0.931 . S
C1 C0 1.351 . S
C1 N2 1.373 . S
C1 H29 0.930 . S
N2 C1 1.373 . S
N2 C4 1.340 . S
N3 C0 1.368 . S
N3 C4 1.321 . S
N3 Co6 2.135 . S
C4 N2 1.340 . S
C4 N3 1.321 . S
C4 H28 0.930 . S
H5 C0 0.931 . S
Co6 N3 2.135 . S
Co6 N9 2.121 . S
Co6 O14 2.055 . S
Co6 O17 2.039 . S
Co6 N20 2.140 . S
C7 O8 1.227 . S
C7 O17 1.265 . S
O8 C7 1.227 . S
N9 Co6 2.121 . S
N9 C11 1.375 . S
N9 C12 1.313 . S
C10 C11 1.338 . S
C10 N13 1.377 . S
C10 H30 0.930 . S
C11 N9 1.375 . S
C11 C10 1.338 . S
C11 H15 0.931 . S
C12 N9 1.313 . S
C12 N13 1.344 . S
C12 H16 0.930 . S
N13 C10 1.377 . S
N13 C12 1.344 . S
O14 Co6 2.055 . S
O14 C18 1.253 . S
H15 C11 0.931 . S
H16 C12 0.930 . S
O17 Co6 2.039 . S
O17 C7 1.265 . S
C18 O14 1.253 . S
C18 O19 1.227 . S
O19 C18 1.227 . S
N20 Co6 2.140 . S
N20 C23 1.346 . S
N20 C24 1.345 . S
C21 C22 1.387 . S
C21 C25 1.391 . S
C22 C21 1.387 . S
C22 C23 1.369 . S
C22 H31 0.929 . S
C23 N20 1.346 . S
C23 C22 1.369 . S
C23 H26 0.928 . S
C24 N20 1.345 . S
C24 C25 1.371 . S
C24 H27 0.931 . S
C25 C21 1.391 . S
C25 C24 1.371 . S
C25 H32 0.930 . S
H26 C23 0.928 . S
H27 C24 0.931 . S
H28 C4 0.930 . S
H29 C1 0.930 . S
H30 C10 0.930 . S
H31 C22 0.929 . S
H32 C25 0.930 . S
C33 C34 1.351 . S
C33 N36 1.368 . S
C33 H38 0.931 . S
C34 C33 1.351 . S
C34 N35 1.373 . S
C34 H62 0.930 . S
N35 C34 1.373 . S
N35 C37 1.340 . S
N36 C33 1.368 . S
N36 C37 1.321 . S
N36 Co39 2.135 . S
C37 N35 1.340 . S
C37 N36 1.321 . S
C37 H61 0.930 . S
H38 C33 0.931 . S
Co39 N36 2.135 . S
Co39 N42 2.121 . S
Co39 O47 2.055 . S
Co39 O50 2.039 . S
Co39 N53 2.140 . S
C40 O41 1.227 . S
C40 O50 1.265 . S
O41 C40 1.227 . S
N42 Co39 2.121 . S
N42 C44 1.375 . S
N42 C45 1.313 . S
C43 C44 1.338 . S
C43 N46 1.377 . S
C43 H63 0.930 . S
C44 N42 1.375 . S
C44 C43 1.338 . S
C44 H48 0.931 . S
C45 N42 1.313 . S
C45 N46 1.344 . S
C45 H49 0.930 . S
N46 C43 1.377 . S
N46 C45 1.344 . S
O47 Co39 2.055 . S
O47 C51 1.253 . S
H48 C44 0.931 . S
H49 C45 0.930 . S
O50 Co39 2.039 . S
O50 C40 1.265 . S
C51 O47 1.253 . S
C51 O52 1.227 . S
O52 C51 1.227 . S
N53 Co39 2.140 . S
N53 C56 1.346 . S
N53 C57 1.345 . S
C54 C55 1.387 . S
C54 C58 1.391 . S
C55 C54 1.387 . S
C55 C56 1.369 . S
C55 H64 0.929 . S
C56 N53 1.346 . S
C56 C55 1.369 . S
C56 H59 0.928 . S
C57 N53 1.345 . S
C57 C58 1.371 . S
C57 H60 0.931 . S
C58 C54 1.391 . S
C58 C57 1.371 . S
C58 H65 0.930 . S
H59 C56 0.928 . S
H60 C57 0.931 . S
H61 C37 0.930 . S
H62 C34 0.930 . S
H63 C43 0.930 . S
H64 C55 0.929 . S
H65 C58 0.930 . S
C66 C67 1.351 . S
C66 N69 1.368 . S
C66 H71 0.931 . S
C67 C66 1.351 . S
C67 N68 1.373 . S
C67 H95 0.930 . S
N68 C67 1.373 . S
N68 C70 1.340 . S
N69 C66 1.368 . S
N69 C70 1.321 . S
N69 Co72 2.135 . S
C70 N68 1.340 . S
C70 N69 1.321 . S
C70 H94 0.930 . S
H71 C66 0.931 . S
Co72 N69 2.135 . S
Co72 N75 2.121 . S
Co72 O80 2.055 . S
Co72 O83 2.039 . S
Co72 N86 2.140 . S
C73 O74 1.227 . S
C73 O83 1.265 . S
O74 C73 1.227 . S
N75 Co72 2.121 . S
N75 C77 1.375 . S
N75 C78 1.313 . S
C76 C77 1.338 . S
C76 N79 1.377 . S
C76 H96 0.930 . S
C77 N75 1.375 . S
C77 C76 1.338 . S
C77 H81 0.931 . S
C78 N75 1.313 . S
C78 N79 1.344 . S
C78 H82 0.930 . S
N79 C76 1.377 . S
N79 C78 1.344 . S
O80 Co72 2.055 . S
O80 C84 1.253 . S
H81 C77 0.931 . S
H82 C78 0.930 . S
O83 Co72 2.039 . S
O83 C73 1.265 . S
C84 O80 1.253 . S
C84 O85 1.227 . S
O85 C84 1.227 . S
N86 Co72 2.140 . S
N86 C89 1.346 . S
N86 C90 1.345 . S
C87 C88 1.387 . S
C87 C91 1.391 . S
C88 C87 1.387 . S
C88 C89 1.369 . S
C88 H97 0.929 . S
C89 N86 1.346 . S
C89 C88 1.369 . S
C89 H92 0.928 . S
C90 N86 1.345 . S
C90 C91 1.371 . S
C90 H93 0.931 . S
C91 C87 1.391 . S
C91 C90 1.371 . S
C91 H98 0.930 . S
H92 C89 0.928 . S
H93 C90 0.931 . S
H94 C70 0.930 . S
H95 C67 0.930 . S
H96 C76 0.930 . S
H97 C88 0.929 . S
H98 C91 0.930 . S
C99 C100 1.351 . S
C99 N102 1.368 . S
C99 H104 0.931 . S
C100 C99 1.351 . S
C100 N101 1.373 . S
C100 H128 0.930 . S
N101 C100 1.373 . S
N101 C103 1.340 . S
N102 C99 1.368 . S
N102 C103 1.321 . S
N102 Co105 2.135 . S
C103 N101 1.340 . S
C103 N102 1.321 . S
C103 H127 0.930 . S
H104 C99 0.931 . S
Co105 N102 2.135 . S
Co105 N108 2.121 . S
Co105 O113 2.055 . S
Co105 O116 2.039 . S
Co105 N119 2.140 . S
C106 O107 1.227 . S
C106 O116 1.265 . S
O107 C106 1.227 . S
N108 Co105 2.121 . S
N108 C110 1.375 . S
N108 C111 1.313 . S
C109 C110 1.338 . S
C109 N112 1.377 . S
C109 H129 0.930 . S
C110 N108 1.375 . S
C110 C109 1.338 . S
C110 H114 0.931 . S
C111 N108 1.313 . S
C111 N112 1.344 . S
C111 H115 0.930 . S
N112 C109 1.377 . S
N112 C111 1.344 . S
O113 Co105 2.055 . S
O113 C117 1.253 . S
H114 C110 0.931 . S
H115 C111 0.930 . S
O116 Co105 2.039 . S
O116 C106 1.265 . S
C117 O113 1.253 . S
C117 O118 1.227 . S
O118 C117 1.227 . S
N119 Co105 2.140 . S
N119 C122 1.346 . S
N119 C123 1.345 . S
C120 C121 1.387 . S
C120 C124 1.391 . S
C121 C120 1.387 . S
C121 C122 1.369 . S
C121 H130 0.929 . S
C122 N119 1.346 . S
C122 C121 1.369 . S
C122 H125 0.928 . S
C123 N119 1.345 . S
C123 C124 1.371 . S
C123 H126 0.931 . S
C124 C120 1.391 . S
C124 C123 1.371 . S
C124 H131 0.930 . S
H125 C122 0.928 . S
H126 C123 0.931 . S
H127 C103 0.930 . S
H128 C100 0.930 . S
H129 C109 0.930 . S
H130 C121 0.929 . S
H131 C124 0.930 . S
C132 C133 1.351 . S
C132 N135 1.368 . S
C132 H137 0.931 . S
C133 C132 1.351 . S
C133 N134 1.373 . S
C133 H161 0.930 . S
N134 C133 1.373 . S
N134 C136 1.340 . S
N135 C132 1.368 . S
N135 C136 1.321 . S
N135 Co138 2.135 . S
C136 N134 1.340 . S
C136 N135 1.321 . S
C136 H160 0.930 . S
H137 C132 0.931 . S
Co138 N135 2.135 . S
Co138 N141 2.121 . S
Co138 O146 2.055 . S
Co138 O149 2.039 . S
Co138 N152 2.140 . S
C139 O140 1.227 . S
C139 O149 1.265 . S
O140 C139 1.227 . S
N141 Co138 2.121 . S
N141 C143 1.375 . S
N141 C144 1.313 . S
C142 C143 1.338 . S
C142 N145 1.377 . S
C142 H162 0.930 . S
C143 N141 1.375 . S
C143 C142 1.338 . S
C143 H147 0.931 . S
C144 N141 1.313 . S
C144 N145 1.344 . S
C144 H148 0.930 . S
N145 C142 1.377 . S
N145 C144 1.344 . S
O146 Co138 2.055 . S
O146 C150 1.253 . S
H147 C143 0.931 . S
H148 C144 0.930 . S
O149 Co138 2.039 . S
O149 C139 1.265 . S
C150 O146 1.253 . S
C150 O151 1.227 . S
O151 C150 1.227 . S
N152 Co138 2.140 . S
N152 C155 1.346 . S
N152 C156 1.345 . S
C153 C154 1.387 . S
C153 C157 1.391 . S
C154 C153 1.387 . S
C154 C155 1.369 . S
C154 H163 0.929 . S
C155 N152 1.346 . S
C155 C154 1.369 . S
C155 H158 0.928 . S
C156 N152 1.345 . S
C156 C157 1.371 . S
C156 H159 0.931 . S
C157 C153 1.391 . S
C157 C156 1.371 . S
C157 H164 0.930 . S
H158 C155 0.928 . S
H159 C156 0.931 . S
H160 C136 0.930 . S
H161 C133 0.930 . S
H162 C142 0.930 . S
H163 C154 0.929 . S
H164 C157 0.930 . S
C165 C166 1.351 . S
C165 N168 1.368 . S
C165 H170 0.931 . S
C166 C165 1.351 . S
C166 N167 1.373 . S
C166 H194 0.930 . S
N167 C166 1.373 . S
N167 C169 1.340 . S
N168 C165 1.368 . S
N168 C169 1.321 . S
N168 Co171 2.135 . S
C169 N167 1.340 . S
C169 N168 1.321 . S
C169 H193 0.930 . S
H170 C165 0.931 . S
Co171 N168 2.135 . S
Co171 N174 2.121 . S
Co171 O179 2.055 . S
Co171 O182 2.039 . S
Co171 N185 2.140 . S
C172 O173 1.227 . S
C172 O182 1.265 . S
O173 C172 1.227 . S
N174 Co171 2.121 . S
N174 C176 1.375 . S
N174 C177 1.313 . S
C175 C176 1.338 . S
C175 N178 1.377 . S
C175 H195 0.930 . S
C176 N174 1.375 . S
C176 C175 1.338 . S
C176 H180 0.931 . S
C177 N174 1.313 . S
C177 N178 1.344 . S
C177 H181 0.930 . S
N178 C175 1.377 . S
N178 C177 1.344 . S
O179 Co171 2.055 . S
O179 C183 1.253 . S
H180 C176 0.931 . S
H181 C177 0.930 . S
O182 Co171 2.039 . S
O182 C172 1.265 . S
C183 O179 1.253 . S
C183 O184 1.227 . S
O184 C183 1.227 . S
N185 Co171 2.140 . S
N185 C188 1.346 . S
N185 C189 1.345 . S
C186 C187 1.387 . S
C186 C190 1.391 . S
C187 C186 1.387 . S
C187 C188 1.369 . S
C187 H196 0.929 . S
C188 N185 1.346 . S
C188 C187 1.369 . S
C188 H191 0.928 . S
C189 N185 1.345 . S
C189 C190 1.371 . S
C189 H192 0.931 . S
C190 C186 1.391 . S
C190 C189 1.371 . S
C190 H197 0.930 . S
H191 C188 0.928 . S
H192 C189 0.931 . S
H193 C169 0.930 . S
H194 C166 0.930 . S
H195 C175 0.930 . S
H196 C187 0.929 . S
H197 C190 0.930 . S
C198 C199 1.351 . S
C198 N201 1.368 . S
C198 H203 0.931 . S
C199 C198 1.351 . S
C199 N200 1.373 . S
C199 H227 0.930 . S
N200 C199 1.373 . S
N200 C202 1.340 . S
N201 C198 1.368 . S
N201 C202 1.321 . S
N201 Co204 2.135 . S
C202 N200 1.340 . S
C202 N201 1.321 . S
C202 H226 0.930 . S
H203 C198 0.931 . S
Co204 N201 2.135 . S
Co204 N207 2.121 . S
Co204 O212 2.055 . S
Co204 O215 2.039 . S
Co204 N218 2.140 . S
C205 O206 1.227 . S
C205 O215 1.265 . S
O206 C205 1.227 . S
N207 Co204 2.121 . S
N207 C209 1.375 . S
N207 C210 1.313 . S
C208 C209 1.338 . S
C208 N211 1.377 . S
C208 H228 0.930 . S
C209 N207 1.375 . S
C209 C208 1.338 . S
C209 H213 0.931 . S
C210 N207 1.313 . S
C210 N211 1.344 . S
C210 H214 0.930 . S
N211 C208 1.377 . S
N211 C210 1.344 . S
O212 Co204 2.055 . S
O212 C216 1.253 . S
H213 C209 0.931 . S
H214 C210 0.930 . S
O215 Co204 2.039 . S
O215 C205 1.265 . S
C216 O212 1.253 . S
C216 O217 1.227 . S
O217 C216 1.227 . S
N218 Co204 2.140 . S
N218 C221 1.346 . S
N218 C222 1.345 . S
C219 C220 1.387 . S
C219 C223 1.391 . S
C220 C219 1.387 . S
C220 C221 1.369 . S
C220 H229 0.929 . S
C221 N218 1.346 . S
C221 C220 1.369 . S
C221 H224 0.928 . S
C222 N218 1.345 . S
C222 C223 1.371 . S
C222 H225 0.931 . S
C223 C219 1.391 . S
C223 C222 1.371 . S
C223 H230 0.930 . S
H224 C221 0.928 . S
H225 C222 0.931 . S
H226 C202 0.930 . S
H227 C199 0.930 . S
H228 C208 0.930 . S
H229 C220 0.929 . S
H230 C223 0.930 . S
C231 C232 1.351 . S
C231 N234 1.368 . S
C231 H236 0.931 . S
C232 C231 1.351 . S
C232 N233 1.373 . S
C232 H260 0.930 . S
N233 C232 1.373 . S
N233 C235 1.340 . S
N234 C231 1.368 . S
N234 C235 1.321 . S
N234 Co237 2.135 . S
C235 N233 1.340 . S
C235 N234 1.321 . S
C235 H259 0.930 . S
H236 C231 0.931 . S
Co237 N234 2.135 . S
Co237 N240 2.121 . S
Co237 O245 2.055 . S
Co237 O248 2.039 . S
Co237 N251 2.140 . S
C238 O239 1.227 . S
C238 O248 1.265 . S
O239 C238 1.227 . S
N240 Co237 2.121 . S
N240 C242 1.375 . S
N240 C243 1.313 . S
C241 C242 1.338 . S
C241 N244 1.377 . S
C241 H261 0.930 . S
C242 N240 1.375 . S
C242 C241 1.338 . S
C242 H246 0.931 . S
C243 N240 1.313 . S
C243 N244 1.344 . S
C243 H247 0.930 . S
N244 C241 1.377 . S
N244 C243 1.344 . S
O245 Co237 2.055 . S
O245 C249 1.253 . S
H246 C242 0.931 . S
H247 C243 0.930 . S
O248 Co237 2.039 . S
O248 C238 1.265 . S
C249 O245 1.253 . S
C249 O250 1.227 . S
O250 C249 1.227 . S
N251 Co237 2.140 . S
N251 C254 1.346 . S
N251 C255 1.345 . S
C252 C253 1.387 . S
C252 C256 1.391 . S
C253 C252 1.387 . S
C253 C254 1.369 . S
C253 H262 0.929 . S
C254 N251 1.346 . S
C254 C253 1.369 . S
C254 H257 0.928 . S
C255 N251 1.345 . S
C255 C256 1.371 . S
C255 H258 0.931 . S
C256 C252 1.391 . S
C256 C255 1.371 . S
C256 H263 0.930 . S
H257 C254 0.928 . S
H258 C255 0.931 . S
H259 C235 0.930 . S
H260 C232 0.930 . S
H261 C241 0.930 . S
H262 C253 0.929 . S
H263 C256 0.930 . S
C264 C265 1.351 . S
C264 N267 1.368 . S
C264 H269 0.931 . S
C265 C264 1.351 . S
C265 N266 1.373 . S
C265 H293 0.930 . S
N266 C265 1.373 . S
N266 C268 1.340 . S
N267 C264 1.368 . S
N267 C268 1.321 . S
N267 Co270 2.135 . S
C268 N266 1.340 . S
C268 N267 1.321 . S
C268 H292 0.930 . S
H269 C264 0.931 . S
Co270 N267 2.135 . S
Co270 N273 2.121 . S
Co270 O278 2.055 . S
Co270 O281 2.039 . S
Co270 N284 2.140 . S
C271 O272 1.227 . S
C271 O281 1.265 . S
O272 C271 1.227 . S
N273 Co270 2.121 . S
N273 C275 1.375 . S
N273 C276 1.313 . S
C274 C275 1.338 . S
C274 N277 1.377 . S
C274 H294 0.930 . S
C275 N273 1.375 . S
C275 C274 1.338 . S
C275 H279 0.931 . S
C276 N273 1.313 . S
C276 N277 1.344 . S
C276 H280 0.930 . S
N277 C274 1.377 . S
N277 C276 1.344 . S
O278 Co270 2.055 . S
O278 C282 1.253 . S
H279 C275 0.931 . S
H280 C276 0.930 . S
O281 Co270 2.039 . S
O281 C271 1.265 . S
C282 O278 1.253 . S
C282 O283 1.227 . S
O283 C282 1.227 . S
N284 Co270 2.140 . S
N284 C287 1.346 . S
N284 C288 1.345 . S
C285 C286 1.387 . S
C285 C289 1.391 . S
C286 C285 1.387 . S
C286 C287 1.369 . S
C286 H295 0.929 . S
C287 N284 1.346 . S
C287 C286 1.369 . S
C287 H290 0.928 . S
C288 N284 1.345 . S
C288 C289 1.371 . S
C288 H291 0.931 . S
C289 C285 1.391 . S
C289 C288 1.371 . S
C289 H296 0.930 . S
H290 C287 0.928 . S
H291 C288 0.931 . S
H292 C268 0.930 . S
H293 C265 0.930 . S
H294 C274 0.930 . S
H295 C286 0.929 . S
H296 C289 0.930 . S
C297 C298 1.351 . S
C297 N300 1.368 . S
C297 H302 0.931 . S
C298 C297 1.351 . S
C298 N299 1.373 . S
C298 H326 0.930 . S
N299 C298 1.373 . S
N299 C301 1.340 . S
N300 C297 1.368 . S
N300 C301 1.321 . S
N300 Co303 2.135 . S
C301 N299 1.340 . S
C301 N300 1.321 . S
C301 H325 0.930 . S
H302 C297 0.931 . S
Co303 N300 2.135 . S
Co303 N306 2.121 . S
Co303 O311 2.055 . S
Co303 O314 2.039 . S
Co303 N317 2.140 . S
C304 O305 1.227 . S
C304 O314 1.265 . S
O305 C304 1.227 . S
N306 Co303 2.121 . S
N306 C308 1.375 . S
N306 C309 1.313 . S
C307 C308 1.338 . S
C307 N310 1.377 . S
C307 H327 0.930 . S
C308 N306 1.375 . S
C308 C307 1.338 . S
C308 H312 0.931 . S
C309 N306 1.313 . S
C309 N310 1.344 . S
C309 H313 0.930 . S
N310 C307 1.377 . S
N310 C309 1.344 . S
O311 Co303 2.055 . S
O311 C315 1.253 . S
H312 C308 0.931 . S
H313 C309 0.930 . S
O314 Co303 2.039 . S
O314 C304 1.265 . S
C315 O311 1.253 . S
C315 O316 1.227 . S
O316 C315 1.227 . S
N317 Co303 2.140 . S
N317 C320 1.346 . S
N317 C321 1.345 . S
C318 C319 1.387 . S
C318 C322 1.391 . S
C319 C318 1.387 . S
C319 C320 1.369 . S
C319 H328 0.929 . S
C320 N317 1.346 . S
C320 C319 1.369 . S
C320 H323 0.928 . S
C321 N317 1.345 . S
C321 C322 1.371 . S
C321 H324 0.931 . S
C322 C318 1.391 . S
C322 C321 1.371 . S
C322 H329 0.930 . S
H323 C320 0.928 . S
H324 C321 0.931 . S
H325 C301 0.930 . S
H326 C298 0.930 . S
H327 C307 0.930 . S
H328 C319 0.929 . S
H329 C322 0.930 . S
C330 C331 1.351 . S
C330 N333 1.368 . S
C330 H335 0.931 . S
C331 C330 1.351 . S
C331 N332 1.373 . S
C331 H359 0.930 . S
N332 C331 1.373 . S
N332 C334 1.340 . S
N333 C330 1.368 . S
N333 C334 1.321 . S
N333 Co336 2.135 . S
C334 N332 1.340 . S
C334 N333 1.321 . S
C334 H358 0.930 . S
H335 C330 0.931 . S
Co336 N333 2.135 . S
Co336 N339 2.121 . S
Co336 O344 2.055 . S
Co336 O347 2.039 . S
Co336 N350 2.140 . S
C337 O338 1.227 . S
C337 O347 1.265 . S
O338 C337 1.227 . S
N339 Co336 2.121 . S
N339 C341 1.375 . S
N339 C342 1.313 . S
C340 C341 1.338 . S
C340 N343 1.377 . S
C340 H360 0.930 . S
C341 N339 1.375 . S
C341 C340 1.338 . S
C341 H345 0.931 . S
C342 N339 1.313 . S
C342 N343 1.344 . S
C342 H346 0.930 . S
N343 C340 1.377 . S
N343 C342 1.344 . S
O344 Co336 2.055 . S
O344 C348 1.253 . S
H345 C341 0.931 . S
H346 C342 0.930 . S
O347 Co336 2.039 . S
O347 C337 1.265 . S
C348 O344 1.253 . S
C348 O349 1.227 . S
O349 C348 1.227 . S
N350 Co336 2.140 . S
N350 C353 1.346 . S
N350 C354 1.345 . S
C351 C352 1.387 . S
C351 C355 1.391 . S
C352 C351 1.387 . S
C352 C353 1.369 . S
C352 H361 0.929 . S
C353 N350 1.346 . S
C353 C352 1.369 . S
C353 H356 0.928 . S
C354 N350 1.345 . S
C354 C355 1.371 . S
C354 H357 0.931 . S
C355 C351 1.391 . S
C355 C354 1.371 . S
C355 H362 0.930 . S
H356 C353 0.928 . S
H357 C354 0.931 . S
H358 C334 0.930 . S
H359 C331 0.930 . S
H360 C340 0.930 . S
H361 C352 0.929 . S
H362 C355 0.930 . S
C363 C364 1.351 . S
C363 N366 1.368 . S
C363 H368 0.931 . S
C364 C363 1.351 . S
C364 N365 1.373 . S
C364 H392 0.930 . S
N365 C364 1.373 . S
N365 C367 1.340 . S
N366 C363 1.368 . S
N366 C367 1.321 . S
N366 Co369 2.135 . S
C367 N365 1.340 . S
C367 N366 1.321 . S
C367 H391 0.930 . S
H368 C363 0.931 . S
Co369 N366 2.135 . S
Co369 N372 2.121 . S
Co369 O377 2.055 . S
Co369 O380 2.039 . S
Co369 N383 2.140 . S
C370 O371 1.227 . S
C370 O380 1.265 . S
O371 C370 1.227 . S
N372 Co369 2.121 . S
N372 C374 1.375 . S
N372 C375 1.313 . S
C373 C374 1.338 . S
C373 N376 1.377 . S
C373 H393 0.930 . S
C374 N372 1.375 . S
C374 C373 1.338 . S
C374 H378 0.931 . S
C375 N372 1.313 . S
C375 N376 1.344 . S
C375 H379 0.930 . S
N376 C373 1.377 . S
N376 C375 1.344 . S
O377 Co369 2.055 . S
O377 C381 1.253 . S
H378 C374 0.931 . S
H379 C375 0.930 . S
O380 Co369 2.039 . S
O380 C370 1.265 . S
C381 O377 1.253 . S
C381 O382 1.227 . S
O382 C381 1.227 . S
N383 Co369 2.140 . S
N383 C386 1.346 . S
N383 C387 1.345 . S
C384 C385 1.387 . S
C384 C388 1.391 . S
C385 C384 1.387 . S
C385 C386 1.369 . S
C385 H394 0.929 . S
C386 N383 1.346 . S
C386 C385 1.369 . S
C386 H389 0.928 . S
C387 N383 1.345 . S
C387 C388 1.371 . S
C387 H390 0.931 . S
C388 C384 1.391 . S
C388 C387 1.371 . S
C388 H395 0.930 . S
H389 C386 0.928 . S
H390 C387 0.931 . S
H391 C367 0.930 . S
H392 C364 0.930 . S
H393 C373 0.930 . S
H394 C385 0.929 . S
H395 C388 0.930 . S
C396 C397 1.349 . S
C396 C398 1.327 . S
C396 H421 0.950 . S
C397 C396 1.349 . S
C397 C413 1.349 . S
C398 C396 1.327 . S
C398 C417 1.429 . S
C398 H422 0.950 . S
C399 C416 1.560 1_556 S
C399 C418 1.368 . S
C399 H423 0.949 . S
H400 C404 0.949 . S
C401 C402 1.349 . S
C401 C403 1.327 . S
C401 H424 0.950 . S
C402 C401 1.349 . S
C402 C414 1.349 . S
C403 C401 1.327 . S
C403 C419 1.429 . S
C403 H425 0.950 . S
C404 H400 0.949 . S
C404 C412 1.560 1_554 S
C404 C420 1.368 . S
H405 C413 0.950 . S
H406 C411 0.950 . S
H407 C412 0.950 . S
H408 C414 0.950 . S
H409 C415 0.950 . S
H410 C416 0.950 . S
C411 H406 0.950 . S
C411 C413 1.327 . S
C411 C417 1.429 . S
C412 C404 1.560 1_556 S
C412 H407 0.950 . S
C412 C418 1.381 . S
C413 C397 1.349 . S
C413 H405 0.950 . S
C413 C411 1.327 . S
C414 C402 1.349 . S
C414 H408 0.950 . S
C414 C415 1.327 . S
C415 H409 0.950 . S
C415 C414 1.327 . S
C415 C419 1.429 . S
C416 C399 1.560 1_554 S
C416 H410 0.950 . S
C416 C420 1.381 . S
C417 C398 1.429 . S
C417 C411 1.429 . S
C417 C418 1.523 . S
C418 C399 1.368 . S
C418 C412 1.381 . S
C418 C417 1.523 . S
C419 C403 1.429 . S
C419 C415 1.429 . S
C419 C420 1.523 . S
C420 C404 1.368 . S
C420 C416 1.381 . S
C420 C419 1.523 . S
H421 C396 0.950 . S
H422 C398 0.950 . S
H423 C399 0.949 . S
H424 C401 0.950 . S
H425 C403 0.950 . S
C426 C427 1.349 . S
C426 C428 1.327 . S
C426 H451 0.950 . S
C427 C426 1.349 . S
C427 C443 1.349 . S
C428 C426 1.327 . S
C428 C447 1.429 . S
C428 H452 0.981 . S
C429 C446 1.574 . S
C429 C448 1.368 . S
C429 H453 0.949 . S
H430 C434 0.949 . S
C431 C432 1.349 . S
C431 C433 1.327 . S
C431 H454 0.950 . S
C432 C431 1.349 . S
C432 C444 1.349 . S
C433 C431 1.327 . S
C433 C449 1.429 . S
C433 H455 0.982 . S
C434 H430 0.949 . S
C434 C442 1.574 . S
C434 C450 1.368 . S
H435 C443 0.950 . S
H436 C441 0.950 . S
H437 C442 0.949 . S
H438 C444 0.950 . S
H439 C445 0.950 . S
H440 C446 0.949 . S
C441 H436 0.950 . S
C441 C443 1.327 . S
C441 C447 1.429 . S
C442 C434 1.574 . S
C442 H437 0.949 . S
C442 C448 1.368 1_455 S
C443 C427 1.349 . S
C443 H435 0.950 . S
C443 C441 1.327 . S
C444 C432 1.349 . S
C444 H438 0.950 . S
C444 C445 1.327 . S
C445 H439 0.950 . S
C445 C444 1.327 . S
C445 C449 1.429 . S
C446 C429 1.574 . S
C446 H440 0.949 . S
C446 C450 1.368 1_655 S
C447 C428 1.429 . S
C447 C441 1.429 . S
C447 C448 1.523 . S
C448 C429 1.368 . S
C448 C442 1.368 1_655 S
C448 C447 1.523 . S
C449 C433 1.429 . S
C449 C445 1.429 . S
C449 C450 1.523 . S
C450 C434 1.368 . S
C450 C446 1.368 1_455 S
C450 C449 1.523 . S
H451 C426 0.950 . S
H452 C428 0.981 . S
H453 C429 0.949 . S
H454 C431 0.950 . S
H455 C433 0.982 . S
C456 C457 1.349 . S
C456 C458 1.327 . S
C456 H481 0.950 . S
C457 C456 1.349 . S
C457 C473 1.349 . S
C458 C456 1.327 . S
C458 C477 1.429 . S
C458 H482 0.950 . S
C459 C476 1.574 1_546 S
C459 C478 1.368 . S
C459 H483 0.949 . S
H460 C464 0.949 . S
C461 C462 1.349 . S
C461 C463 1.327 . S
C461 H484 0.950 . S
C462 C461 1.349 . S
C462 C474 1.349 . S
C463 C461 1.327 . S
C463 C479 1.429 . S
C463 H485 0.950 . S
C464 H460 0.949 . S
C464 C472 1.574 1_564 S
C464 C480 1.368 . S
H465 C473 0.950 . S
H466 C471 0.950 . S
H467 C472 0.949 . S
H468 C474 0.950 . S
H469 C475 0.950 . S
H470 C476 0.949 . S
C471 H466 0.950 . S
C471 C473 1.327 . S
C471 C477 1.429 . S
C472 C464 1.574 1_546 S
C472 H467 0.949 . S
C472 C478 1.368 . S
C473 C457 1.349 . S
C473 H465 0.950 . S
C473 C471 1.327 . S
C474 C462 1.349 . S
C474 H468 0.950 . S
C474 C475 1.327 . S
C475 H469 0.950 . S
C475 C474 1.327 . S
C475 C479 1.429 . S
C476 C459 1.574 1_564 S
C476 H470 0.949 . S
C476 C480 1.368 . S
C477 C458 1.429 . S
C477 C471 1.429 . S
C477 C478 1.523 . S
C478 C459 1.368 . S
C478 C472 1.368 . S
C478 C477 1.523 . S
C479 C463 1.429 . S
C479 C475 1.429 . S
C479 C480 1.523 . S
C480 C464 1.368 . S
C480 C476 1.368 . S
C480 C479 1.523 . S
H481 C456 0.950 . S
H482 C458 0.950 . S
H483 C459 0.949 . S
H484 C461 0.950 . S
H485 C463 0.950 . S
C486 C487 1.349 . S
C486 C488 1.327 . S
C486 H511 0.950 . S
C487 C486 1.349 . S
C487 C503 1.349 . S
C488 C486 1.327 . S
C488 C507 1.429 . S
C488 H512 0.950 . S
C489 C506 1.574 . S
C489 C508 1.368 . S
C489 H513 0.949 . S
H490 C494 0.949 . S
C491 C492 1.349 . S
C491 C493 1.327 . S
C491 H514 0.950 . S
C492 C491 1.349 . S
C492 C504 1.349 . S
C493 C491 1.327 . S
C493 C509 1.429 . S
C493 H515 0.950 . S
C494 H490 0.949 . S
C494 C502 1.574 . S
C494 C510 1.368 . S
H495 C503 0.950 . S
H496 C501 0.950 . S
H497 C502 0.949 . S
H498 C504 0.950 . S
H499 C505 0.950 . S
H500 C506 0.949 . S
C501 H496 0.950 . S
C501 C503 1.327 . S
C501 C507 1.429 . S
C502 C494 1.574 . S
C502 H497 0.949 . S
C502 C508 1.368 . S
C503 C487 1.349 . S
C503 H495 0.950 . S
C503 C501 1.327 . S
C504 C492 1.349 . S
C504 H498 0.950 . S
C504 C505 1.327 . S
C505 H499 0.950 . S
C505 C504 1.327 . S
C505 C509 1.429 . S
C506 C489 1.574 . S
C506 H500 0.949 . S
C506 C510 1.368 . S
C507 C488 1.429 . S
C507 C501 1.429 . S
C507 C508 1.523 . S
C508 C489 1.368 . S
C508 C502 1.368 . S
C508 C507 1.523 . S
C509 C493 1.429 . S
C509 C505 1.429 . S
C509 C510 1.523 . S
C510 C494 1.368 . S
C510 C506 1.368 . S
C510 C509 1.523 . S
H511 C486 0.950 . S
H512 C488 0.950 . S
H513 C489 0.949 . S
H514 C491 0.950 . S
H515 C493 0.950 . S
C516 C517 1.349 . S
C516 C518 1.327 . S
C516 H541 0.950 . S
C517 C516 1.349 . S
C517 C533 1.349 . S
C518 C516 1.327 . S
C518 C537 1.429 . S
C518 H542 0.950 . S
C519 C536 1.574 1_554 S
C519 C538 1.368 1_655 S
C519 H543 0.949 . S
H520 C524 0.949 . S
C521 C522 1.349 . S
C521 C523 1.327 . S
C521 H544 0.950 . S
C522 C521 1.349 . S
C522 C534 1.349 . S
C523 C521 1.327 . S
C523 C539 1.429 . S
C523 H545 0.950 . S
C524 H520 0.949 . S
C524 C532 1.574 1_556 S
C524 C540 1.368 1_455 S
H525 C533 0.950 . S
H526 C531 0.950 . S
H527 C532 0.949 . S
H528 C534 0.950 . S
H529 C535 0.950 . S
H530 C536 0.949 . S
C531 H526 0.950 . S
C531 C533 1.327 . S
C531 C537 1.429 . S
C532 C524 1.574 1_554 S
C532 H527 0.949 . S
C532 C538 1.368 . S
C533 C517 1.349 . S
C533 H525 0.950 . S
C533 C531 1.327 . S
C534 C522 1.349 . S
C534 H528 0.950 . S
C534 C535 1.327 . S
C535 H529 0.950 . S
C535 C534 1.327 . S
C535 C539 1.429 . S
C536 C519 1.574 1_556 S
C536 H530 0.949 . S
C536 C540 1.368 . S
C537 C518 1.429 . S
C537 C531 1.429 . S
C537 C538 1.523 . S
C538 C519 1.368 1_455 S
C538 C532 1.368 . S
C538 C537 1.523 . S
C539 C523 1.429 . S
C539 C535 1.429 . S
C539 C540 1.523 . S
C540 C524 1.368 1_655 S
C540 C536 1.368 . S
C540 C539 1.523 . S
H541 C516 0.950 . S
H542 C518 0.950 . S
H543 C519 0.949 . S
H544 C521 0.950 . S
H545 C523 0.950 . S
C546 C547 1.349 . S
C546 C548 1.327 . S
C546 H571 0.950 . S
C547 C546 1.349 . S
C547 C563 1.349 . S
C548 C546 1.327 . S
C548 C567 1.429 . S
C548 H572 0.950 . S
C549 C566 1.574 . S
C549 C568 1.368 1_545 S
C549 H573 0.949 . S
H550 C554 0.949 . S
C551 C552 1.349 . S
C551 C553 1.327 . S
C551 H574 0.950 . S
C552 C551 1.349 . S
C552 C564 1.349 . S
C553 C551 1.327 . S
C553 C569 1.429 . S
C553 H575 0.950 . S
C554 H550 0.949 . S
C554 C562 1.574 . S
C554 C570 1.368 1_565 S
H555 C563 0.950 . S
H556 C561 0.950 . S
H557 C562 0.949 . S
H558 C564 0.950 . S
H559 C565 0.950 . S
H560 C566 0.949 . S
C561 H556 0.950 . S
C561 C563 1.327 . S
C561 C567 1.429 . S
C562 C554 1.574 . S
C562 H557 0.949 . S
C562 C568 1.368 . S
C563 C547 1.349 . S
C563 H555 0.950 . S
C563 C561 1.327 . S
C564 C552 1.349 . S
C564 H558 0.950 . S
C564 C565 1.327 . S
C565 H559 0.950 . S
C565 C564 1.327 . S
C565 C569 1.429 . S
C566 C549 1.574 . S
C566 H560 0.949 . S
C566 C570 1.368 . S
C567 C548 1.429 . S
C567 C561 1.429 . S
C567 C568 1.523 . S
C568 C549 1.368 1_565 S
C568 C562 1.368 . S
C568 C567 1.523 . S
C569 C553 1.429 . S
C569 C565 1.429 . S
C569 C570 1.523 . S
C570 C554 1.368 1_545 S
C570 C566 1.368 . S
C570 C569 1.523 . S
H571 C546 0.950 . S
H572 C548 0.950 . S
H573 C549 0.949 . S
H574 C551 0.950 . S
H575 C553 0.950 . S
C576 C577 1.349 . S
C576 C578 1.327 . S
C576 H601 0.950 . S
C577 C576 1.349 . S
C577 C593 1.349 . S
C578 C576 1.327 . S
C578 C597 1.429 . S
C578 H602 0.950 . S
C579 C596 1.574 . S
C579 C598 1.368 . S
C579 H603 0.949 . S
H580 C584 0.949 . S
C581 C582 1.349 . S
C581 C583 1.327 . S
C581 H604 0.950 . S
C582 C581 1.349 . S
C582 C594 1.349 . S
C583 C581 1.327 . S
C583 C599 1.429 . S
C583 H605 0.950 . S
C584 H580 0.949 . S
C584 C592 1.574 . S
C584 C600 1.368 . S
H585 C593 0.950 . S
H586 C591 0.950 . S
H587 C592 0.949 . S
H588 C594 0.950 . S
H589 C595 0.950 . S
H590 C596 0.949 . S
C591 H586 0.950 . S
C591 C593 1.327 . S
C591 C597 1.429 . S
C592 C584 1.574 . S
C592 H587 0.949 . S
C592 C598 1.368 . S
C593 C577 1.349 . S
C593 H585 0.950 . S
C593 C591 1.327 . S
C594 C582 1.349 . S
C594 H588 0.950 . S
C594 C595 1.327 . S
C595 H589 0.950 . S
C595 C594 1.327 . S
C595 C599 1.429 . S
C596 C579 1.574 . S
C596 H590 0.949 . S
C596 C600 1.368 . S
C597 C578 1.429 . S
C597 C591 1.429 . S
C597 C598 1.523 . S
C598 C579 1.368 . S
C598 C592 1.368 . S
C598 C597 1.523 . S
C599 C583 1.429 . S
C599 C595 1.429 . S
C599 C600 1.523 . S
C600 C584 1.368 . S
C600 C596 1.368 . S
C600 C599 1.523 . S
H601 C576 0.950 . S
H602 C578 0.950 . S
H603 C579 0.949 . S
H604 C581 0.950 . S
H605 C583 0.950 . S
C606 C607 1.349 . S
C606 C608 1.327 . S
C606 H631 0.950 . S
C607 C606 1.349 . S
C607 C623 1.349 . S
C608 C606 1.327 . S
C608 C627 1.429 . S
C608 H632 0.950 . S
C609 C626 1.574 . S
C609 C628 1.368 . S
C609 H633 0.949 . S
H610 C614 0.949 . S
C611 C612 1.349 . S
C611 C613 1.327 . S
C611 H634 0.950 . S
C612 C611 1.349 . S
C612 C624 1.349 . S
C613 C611 1.327 . S
C613 C629 1.429 . S
C613 H635 0.950 . S
C614 H610 0.949 . S
C614 C622 1.574 . S
C614 C630 1.368 . S
H615 C623 0.950 . S
H616 C621 0.950 . S
H617 C622 0.949 . S
H618 C624 0.950 . S
H619 C625 0.950 . S
H620 C626 0.949 . S
C621 H616 0.950 . S
C621 C623 1.327 . S
C621 C627 1.429 . S
C622 C614 1.574 . S
C622 H617 0.949 . S
C622 C628 1.368 . S
C623 C607 1.349 . S
C623 H615 0.950 . S
C623 C621 1.327 . S
C624 C612 1.349 . S
C624 H618 0.950 . S
C624 C625 1.327 . S
C625 H619 0.950 . S
C625 C624 1.327 . S
C625 C629 1.429 . S
C626 C609 1.574 . S
C626 H620 0.949 . S
C626 C630 1.368 . S
C627 C608 1.429 . S
C627 C621 1.429 . S
C627 C628 1.523 . S
C628 C609 1.368 . S
C628 C622 1.368 . S
C628 C627 1.523 . S
C629 C613 1.429 . S
C629 C625 1.429 . S
C629 C630 1.523 . S
C630 C614 1.368 . S
C630 C626 1.368 . S
C630 C629 1.523 . S
H631 C606 0.950 . S
H632 C608 0.950 . S
H633 C609 0.949 . S
H634 C611 0.950 . S
H635 C613 0.950 . S
C636 C637 1.349 . S
C636 C638 1.327 . S
C636 H661 0.950 . S
C637 C636 1.349 . S
C637 C653 1.349 . S
C638 C636 1.327 . S
C638 C657 1.429 . S
C638 H662 0.950 . S
C639 C656 1.574 . S
C639 C658 1.368 . S
C639 H663 0.949 . S
H640 C644 0.949 . S
C641 C642 1.349 . S
C641 C643 1.327 . S
C641 H664 0.950 . S
C642 C641 1.349 . S
C642 C654 1.349 . S
C643 C641 1.327 . S
C643 C659 1.429 . S
C643 H665 0.950 . S
C644 H640 0.949 . S
C644 C652 1.574 . S
C644 C660 1.368 . S
H645 C653 0.950 . S
H646 C651 0.950 . S
H647 C652 0.949 . S
H648 C654 0.950 . S
H649 C655 0.950 . S
H650 C656 0.949 . S
C651 H646 0.950 . S
C651 C653 1.327 . S
C651 C657 1.429 . S
C652 C644 1.574 . S
C652 H647 0.949 . S
C652 C658 1.368 . S
C653 C637 1.349 . S
C653 H645 0.950 . S
C653 C651 1.327 . S
C654 C642 1.349 . S
C654 H648 0.950 . S
C654 C655 1.327 . S
C655 H649 0.950 . S
C655 C654 1.327 . S
C655 C659 1.429 . S
C656 C639 1.574 . S
C656 H650 0.949 . S
C656 C660 1.368 . S
C657 C638 1.429 . S
C657 C651 1.429 . S
C657 C658 1.523 . S
C658 C639 1.368 . S
C658 C652 1.368 . S
C658 C657 1.523 . S
C659 C643 1.429 . S
C659 C655 1.429 . S
C659 C660 1.523 . S
C660 C644 1.368 . S
C660 C656 1.368 . S
C660 C659 1.523 . S
H661 C636 0.950 . S
H662 C638 0.950 . S
H663 C639 0.949 . S
H664 C641 0.950 . S
H665 C643 0.950 . S
C666 C667 1.349 . S
C666 C668 1.327 . S
C666 H691 0.950 . S
C667 C666 1.349 . S
C667 C683 1.349 . S
C668 C666 1.327 . S
C668 C687 1.429 . S
C668 H692 0.950 . S
C669 C686 1.574 . S
C669 C688 1.368 . S
C669 H693 0.949 . S
H670 C674 0.949 . S
C671 C672 1.349 . S
C671 C673 1.327 . S
C671 H694 0.950 . S
C672 C671 1.349 . S
C672 C684 1.349 . S
C673 C671 1.327 . S
C673 C689 1.429 . S
C673 H695 0.950 . S
C674 H670 0.949 . S
C674 C682 1.574 . S
C674 C690 1.368 . S
H675 C683 0.950 . S
H676 C681 0.950 . S
H677 C682 0.949 . S
H678 C684 0.950 . S
H679 C685 0.950 . S
H680 C686 0.949 . S
C681 H676 0.950 . S
C681 C683 1.327 . S
C681 C687 1.429 . S
C682 C674 1.574 . S
C682 H677 0.949 . S
C682 C688 1.368 . S
C683 C667 1.349 . S
C683 H675 0.950 . S
C683 C681 1.327 . S
C684 C672 1.349 . S
C684 H678 0.950 . S
C684 C685 1.327 . S
C685 H679 0.950 . S
C685 C684 1.327 . S
C685 C689 1.429 . S
C686 C669 1.574 . S
C686 H680 0.949 . S
C686 C690 1.368 . S
C687 C668 1.429 . S
C687 C681 1.429 . S
C687 C688 1.523 . S
C688 C669 1.368 . S
C688 C682 1.368 . S
C688 C687 1.523 . S
C689 C673 1.429 . S
C689 C685 1.429 . S
C689 C690 1.523 . S
C690 C674 1.368 . S
C690 C686 1.368 . S
C690 C689 1.523 . S
H691 C666 0.950 . S
H692 C668 0.950 . S
H693 C669 0.949 . S
H694 C671 0.950 . S
H695 C673 0.950 . S
C696 C697 1.349 . S
C696 C698 1.327 . S
C696 H721 0.950 . S
C697 C696 1.349 . S
C697 C713 1.349 . S
C698 C696 1.327 . S
C698 C717 1.429 . S
C698 H722 0.950 . S
C699 C716 1.574 . S
C699 C718 1.368 . S
C699 H723 0.949 . S
H700 C704 0.949 . S
C701 C702 1.349 . S
C701 C703 1.327 . S
C701 H724 0.950 . S
C702 C701 1.349 . S
C702 C714 1.349 . S
C703 C701 1.327 . S
C703 C719 1.429 . S
C703 H725 0.950 . S
C704 H700 0.949 . S
C704 C712 1.574 . S
C704 C720 1.368 . S
H705 C713 0.950 . S
H706 C711 0.950 . S
H707 C712 0.949 . S
H708 C714 0.950 . S
H709 C715 0.950 . S
H710 C716 0.949 . S
C711 H706 0.950 . S
C711 C713 1.327 . S
C711 C717 1.429 . S
C712 C704 1.574 . S
C712 H707 0.949 . S
C712 C718 1.368 . S
C713 C697 1.349 . S
C713 H705 0.950 . S
C713 C711 1.327 . S
C714 C702 1.349 . S
C714 H708 0.950 . S
C714 C715 1.327 . S
C715 H709 0.950 . S
C715 C714 1.327 . S
C715 C719 1.429 . S
C716 C699 1.574 . S
C716 H710 0.949 . S
C716 C720 1.368 . S
C717 C698 1.429 . S
C717 C711 1.429 . S
C717 C718 1.523 . S
C718 C699 1.368 . S
C718 C712 1.368 . S
C718 C717 1.523 . S
C719 C703 1.429 . S
C719 C715 1.429 . S
C719 C720 1.523 . S
C720 C704 1.368 . S
C720 C716 1.368 . S
C720 C719 1.523 . S
H721 C696 0.950 . S
H722 C698 0.950 . S
H723 C699 0.949 . S
H724 C701 0.950 . S
H725 C703 0.950 . S
C726 C727 1.349 . S
C726 C728 1.327 . S
C726 H751 0.950 . S
C727 C726 1.349 . S
C727 C743 1.349 . S
C728 C726 1.327 . S
C728 C747 1.429 . S
C728 H752 0.950 . S
C729 C746 1.574 . S
C729 C748 1.368 . S
C729 H753 0.949 . S
H730 C734 0.949 . S
C731 C732 1.349 . S
C731 C733 1.327 . S
C731 H754 0.950 . S
C732 C731 1.349 . S
C732 C744 1.349 . S
C733 C731 1.327 . S
C733 C749 1.429 . S
C733 H755 0.950 . S
C734 H730 0.949 . S
C734 C742 1.574 . S
C734 C750 1.368 . S
H735 C743 0.950 . S
H736 C741 0.950 . S
H737 C742 0.949 . S
H738 C744 0.950 . S
H739 C745 0.950 . S
H740 C746 0.949 . S
C741 H736 0.950 . S
C741 C743 1.327 . S
C741 C747 1.429 . S
C742 C734 1.574 . S
C742 H737 0.949 . S
C742 C748 1.368 . S
C743 C727 1.349 . S
C743 H735 0.950 . S
C743 C741 1.327 . S
C744 C732 1.349 . S
C744 H738 0.950 . S
C744 C745 1.327 . S
C745 H739 0.950 . S
C745 C744 1.327 . S
C745 C749 1.429 . S
C746 C729 1.574 . S
C746 H740 0.949 . S
C746 C750 1.368 . S
C747 C728 1.429 . S
C747 C741 1.429 . S
C747 C748 1.523 . S
C748 C729 1.368 . S
C748 C742 1.368 . S
C748 C747 1.523 . S
C749 C733 1.429 . S
C749 C745 1.429 . S
C749 C750 1.523 . S
C750 C734 1.368 . S
C750 C746 1.368 . S
C750 C749 1.523 . S
H751 C726 0.950 . S
H752 C728 0.950 . S
H753 C729 0.949 . S
H754 C731 0.950 . S
H755 C733 0.950 . S
C756 C757 1.349 . S
C756 C758 1.327 . S
C756 H781 0.950 . S
C757 C756 1.349 . S
C757 C773 1.349 . S
C758 C756 1.327 . S
C758 C777 1.429 . S
C758 H782 0.950 . S
C759 C776 1.574 . S
C759 C778 1.368 . S
C759 H783 0.949 . S
H760 C764 0.949 . S
C761 C762 1.349 . S
C761 C763 1.327 . S
C761 H784 0.950 . S
C762 C761 1.349 . S
C762 C774 1.349 . S
C763 C761 1.327 . S
C763 C779 1.429 . S
C763 H785 0.950 . S
C764 H760 0.949 . S
C764 C772 1.574 . S
C764 C780 1.368 . S
H765 C773 0.950 . S
H766 C771 0.950 . S
H767 C772 0.949 . S
H768 C774 0.950 . S
H769 C775 0.950 . S
H770 C776 0.949 . S
C771 H766 0.950 . S
C771 C773 1.327 . S
C771 C777 1.429 . S
C772 C764 1.574 . S
C772 H767 0.949 . S
C772 C778 1.368 . S
C773 C757 1.349 . S
C773 H765 0.950 . S
C773 C771 1.327 . S
C774 C762 1.349 . S
C774 H768 0.950 . S
C774 C775 1.327 . S
C775 H769 0.950 . S
C775 C774 1.327 . S
C775 C779 1.429 . S
C776 C759 1.574 . S
C776 H770 0.949 . S
C776 C780 1.368 . S
C777 C758 1.429 . S
C777 C771 1.429 . S
C777 C778 1.523 . S
C778 C759 1.368 . S
C778 C772 1.368 . S
C778 C777 1.523 . S
C779 C763 1.429 . S
C779 C775 1.429 . S
C779 C780 1.523 . S
C780 C764 1.368 . S
C780 C776 1.368 . S
C780 C779 1.523 . S
H781 C756 0.950 . S
H782 C758 0.950 . S
H783 C759 0.949 . S
H784 C761 0.950 . S
H785 C763 0.950 . S
C786 C787 1.349 . S
C786 C788 1.327 . S
C786 H811 0.950 . S
C787 C786 1.349 . S
C787 C803 1.349 . S
C788 C786 1.327 . S
C788 C807 1.429 . S
C788 H812 0.950 . S
C789 C806 1.574 . S
C789 C808 1.368 . S
C789 H813 0.949 . S
H790 C794 0.949 . S
C791 C792 1.349 . S
C791 C793 1.327 . S
C791 H814 0.950 . S
C792 C791 1.349 . S
C792 C804 1.349 . S
C793 C791 1.327 . S
C793 C809 1.429 . S
C793 H815 0.950 . S
C794 H790 0.949 . S
C794 C802 1.574 . S
C794 C810 1.368 . S
H795 C803 0.950 . S
H796 C801 0.950 . S
H797 C802 0.949 . S
H798 C804 0.950 . S
H799 C805 0.950 . S
H800 C806 0.949 . S
C801 H796 0.950 . S
C801 C803 1.327 . S
C801 C807 1.429 . S
C802 C794 1.574 . S
C802 H797 0.949 . S
C802 C808 1.368 . S
C803 C787 1.349 . S
C803 H795 0.950 . S
C803 C801 1.327 . S
C804 C792 1.349 . S
C804 H798 0.950 . S
C804 C805 1.327 . S
C805 H799 0.950 . S
C805 C804 1.327 . S
C805 C809 1.429 . S
C806 C789 1.574 . S
C806 H800 0.949 . S
C806 C810 1.368 . S
C807 C788 1.429 . S
C807 C801 1.429 . S
C807 C808 1.523 . S
C808 C789 1.368 . S
C808 C802 1.368 . S
C808 C807 1.523 . S
C809 C793 1.429 . S
C809 C805 1.429 . S
C809 C810 1.523 . S
C810 C794 1.368 . S
C810 C806 1.368 . S
C810 C809 1.523 . S
H811 C786 0.950 . S
H812 C788 0.950 . S
H813 C789 0.949 . S
H814 C791 0.950 . S
H815 C793 0.950 . S
C816 C817 1.349 . S
C816 C818 1.327 . S
C816 H841 0.950 . S
C817 C816 1.349 . S
C817 C833 1.349 . S
C818 C816 1.327 . S
C818 C837 1.429 . S
C818 H842 0.950 . S
C819 C836 1.574 . S
C819 C838 1.368 . S
C819 H843 0.949 . S
H820 C824 0.949 . S
C821 C822 1.349 . S
C821 C823 1.327 . S
C821 H844 0.950 . S
C822 C821 1.349 . S
C822 C834 1.349 . S
C823 C821 1.327 . S
C823 C839 1.429 . S
C823 H845 0.950 . S
C824 H820 0.949 . S
C824 C832 1.574 . S
C824 C840 1.368 . S
H825 C833 0.950 . S
H826 C831 0.950 . S
H827 C832 0.949 . S
H828 C834 0.950 . S
H829 C835 0.950 . S
H830 C836 0.949 . S
C831 H826 0.950 . S
C831 C833 1.327 . S
C831 C837 1.429 . S
C832 C824 1.574 . S
C832 H827 0.949 . S
C832 C838 1.368 . S
C833 C817 1.349 . S
C833 H825 0.950 . S
C833 C831 1.327 . S
C834 C822 1.349 . S
C834 H828 0.950 . S
C834 C835 1.327 . S
C835 H829 0.950 . S
C835 C834 1.327 . S
C835 C839 1.429 . S
C836 C819 1.574 . S
C836 H830 0.949 . S
C836 C840 1.368 . S
C837 C818 1.429 . S
C837 C831 1.429 . S
C837 C838 1.523 . S
C838 C819 1.368 . S
C838 C832 1.368 . S
C838 C837 1.523 . S
C839 C823 1.429 . S
C839 C835 1.429 . S
C839 C840 1.523 . S
C840 C824 1.368 . S
C840 C836 1.368 . S
C840 C839 1.523 . S
H841 C816 0.950 . S
H842 C818 0.950 . S
H843 C819 0.949 . S
H844 C821 0.950 . S
H845 C823 0.950 . S
C846 C847 1.349 . S
C846 C848 1.327 . S
C846 H871 0.950 . S
C847 C846 1.349 . S
C847 C863 1.349 . S
C848 C846 1.327 . S
C848 C867 1.429 . S
C848 H872 0.950 . S
C849 C866 1.574 . S
C849 C868 1.368 . S
C849 H873 0.949 . S
H850 C854 0.949 . S
C851 C852 1.349 . S
C851 C853 1.327 . S
C851 H874 0.950 . S
C852 C851 1.349 . S
C852 C864 1.349 . S
C853 C851 1.327 . S
C853 C869 1.429 . S
C853 H875 0.950 . S
C854 H850 0.949 . S
C854 C862 1.574 . S
C854 C870 1.368 . S
H855 C863 0.950 . S
H856 C861 0.950 . S
H857 C862 0.949 . S
H858 C864 0.950 . S
H859 C865 0.950 . S
H860 C866 0.949 . S
C861 H856 0.950 . S
C861 C863 1.327 . S
C861 C867 1.429 . S
C862 C854 1.574 . S
C862 H857 0.949 . S
C862 C868 1.368 . S
C863 C847 1.349 . S
C863 H855 0.950 . S
C863 C861 1.327 . S
C864 C852 1.349 . S
C864 H858 0.950 . S
C864 C865 1.327 . S
C865 H859 0.950 . S
C865 C864 1.327 . S
C865 C869 1.429 . S
C866 C849 1.574 . S
C866 H860 0.949 . S
C866 C870 1.368 . S
C867 C848 1.429 . S
C867 C861 1.429 . S
C867 C868 1.523 . S
C868 C849 1.368 . S
C868 C862 1.368 . S
C868 C867 1.523 . S
C869 C853 1.429 . S
C869 C865 1.429 . S
C869 C870 1.523 . S
C870 C854 1.368 . S
C870 C866 1.368 . S
C870 C869 1.523 . S
H871 C846 0.950 . S
H872 C848 0.950 . S
H873 C849 0.949 . S
H874 C851 0.950 . S
H875 C853 0.950 . S
C876 C877 1.349 . S
C876 C878 1.327 . S
C876 H901 0.950 . S
C877 C876 1.349 . S
C877 C893 1.349 . S
C878 C876 1.327 . S
C878 C897 1.429 . S
C878 H902 0.950 . S
C879 C896 1.574 . S
C879 C898 1.368 . S
C879 H903 0.949 . S
H880 C884 0.949 . S
C881 C882 1.349 . S
C881 C883 1.327 . S
C881 H904 0.950 . S
C882 C881 1.349 . S
C882 C894 1.349 . S
C883 C881 1.327 . S
C883 C899 1.429 . S
C883 H905 0.950 . S
C884 H880 0.949 . S
C884 C892 1.574 . S
C884 C900 1.368 . S
H885 C893 0.950 . S
H886 C891 0.950 . S
H887 C892 0.949 . S
H888 C894 0.950 . S
H889 C895 0.950 . S
H890 C896 0.949 . S
C891 H886 0.950 . S
C891 C893 1.327 . S
C891 C897 1.429 . S
C892 C884 1.574 . S
C892 H887 0.949 . S
C892 C898 1.368 . S
C893 C877 1.349 . S
C893 H885 0.950 . S
C893 C891 1.327 . S
C894 C882 1.349 . S
C894 H888 0.950 . S
C894 C895 1.327 . S
C895 H889 0.950 . S
C895 C894 1.327 . S
C895 C899 1.429 . S
C896 C879 1.574 . S
C896 H890 0.949 . S
C896 C900 1.368 . S
C897 C878 1.429 . S
C897 C891 1.429 . S
C897 C898 1.523 . S
C898 C879 1.368 . S
C898 C892 1.368 . S
C898 C897 1.523 . S
C899 C883 1.429 . S
C899 C895 1.429 . S
C899 C900 1.523 . S
C900 C884 1.368 . S
C900 C896 1.368 . S
C900 C899 1.523 . S
H901 C876 0.950 . S
H902 C878 0.950 . S
H903 C879 0.949 . S
H904 C881 0.950 . S
H905 C883 0.950 . S
C906 C907 1.349 . S
C906 C908 1.327 . S
C906 H931 0.950 . S
C907 C906 1.349 . S
C907 C923 1.349 . S
C908 C906 1.327 . S
C908 C927 1.429 . S
C908 H932 0.950 . S
C909 C926 1.574 . S
C909 C928 1.368 . S
C909 H933 0.949 . S
H910 C914 0.949 . S
C911 C912 1.349 . S
C911 C913 1.327 . S
C911 H934 0.950 . S
C912 C911 1.349 . S
C912 C924 1.349 . S
C913 C911 1.327 . S
C913 C929 1.429 . S
C913 H935 0.950 . S
C914 H910 0.949 . S
C914 C922 1.574 . S
C914 C930 1.368 . S
H915 C923 0.950 . S
H916 C921 0.950 . S
H917 C922 0.949 . S
H918 C924 0.950 . S
H919 C925 0.950 . S
H920 C926 0.949 . S
C921 H916 0.950 . S
C921 C923 1.327 . S
C921 C927 1.429 . S
C922 C914 1.574 . S
C922 H917 0.949 . S
C922 C928 1.368 . S
C923 C907 1.349 . S
C923 H915 0.950 . S
C923 C921 1.327 . S
C924 C912 1.349 . S
C924 H918 0.950 . S
C924 C925 1.327 . S
C925 H919 0.950 . S
C925 C924 1.327 . S
C925 C929 1.429 . S
C926 C909 1.574 . S
C926 H920 0.949 . S
C926 C930 1.368 . S
C927 C908 1.429 . S
C927 C921 1.429 . S
C927 C928 1.523 . S
C928 C909 1.368 . S
C928 C922 1.368 . S
C928 C927 1.523 . S
C929 C913 1.429 . S
C929 C925 1.429 . S
C929 C930 1.523 . S
C930 C914 1.368 . S
C930 C926 1.368 . S
C930 C929 1.523 . S
H931 C906 0.950 . S
H932 C908 0.950 . S
H933 C909 0.949 . S
H934 C911 0.950 . S
H935 C913 0.950 . S
C936 C937 1.349 . S
C936 C938 1.327 . S
C936 H961 0.950 . S
C937 C936 1.349 . S
C937 C953 1.349 . S
C938 C936 1.327 . S
C938 C957 1.429 . S
C938 H962 0.950 . S
C939 C956 1.574 . S
C939 C958 1.368 . S
C939 H963 0.949 . S
H940 C944 0.949 . S
C941 C942 1.349 . S
C941 C943 1.327 . S
C941 H964 0.950 . S
C942 C941 1.349 . S
C942 C954 1.349 . S
C943 C941 1.327 . S
C943 C959 1.429 . S
C943 H965 0.950 . S
C944 H940 0.949 . S
C944 C952 1.574 . S
C944 C960 1.368 . S
H945 C953 0.950 . S
H946 C951 0.950 . S
H947 C952 0.949 . S
H948 C954 0.950 . S
H949 C955 0.950 . S
H950 C956 0.949 . S
C951 H946 0.950 . S
C951 C953 1.327 . S
C951 C957 1.429 . S
C952 C944 1.574 . S
C952 H947 0.949 . S
C952 C958 1.368 . S
C953 C937 1.349 . S
C953 H945 0.950 . S
C953 C951 1.327 . S
C954 C942 1.349 . S
C954 H948 0.950 . S
C954 C955 1.327 . S
C955 H949 0.950 . S
C955 C954 1.327 . S
C955 C959 1.429 . S
C956 C939 1.574 . S
C956 H950 0.949 . S
C956 C960 1.368 . S
C957 C938 1.429 . S
C957 C951 1.429 . S
C957 C958 1.523 . S
C958 C939 1.368 . S
C958 C952 1.368 . S
C958 C957 1.523 . S
C959 C943 1.429 . S
C959 C955 1.429 . S
C959 C960 1.523 . S
C960 C944 1.368 . S
C960 C956 1.368 . S
C960 C959 1.523 . S
H961 C936 0.950 . S
H962 C938 0.950 . S
H963 C939 0.949 . S
H964 C941 0.950 . S
H965 C943 0.950 . S
C966 C967 1.349 . S
C966 C968 1.327 . S
C966 H991 0.950 . S
C967 C966 1.349 . S
C967 C983 1.349 . S
C968 C966 1.327 . S
C968 C987 1.429 . S
C968 H992 0.950 . S
C969 C986 1.574 . S
C969 C988 1.368 . S
C969 H993 0.949 . S
H970 C974 0.949 . S
C971 C972 1.349 . S
C971 C973 1.327 . S
C971 H994 0.950 . S
C972 C971 1.349 . S
C972 C984 1.349 . S
C973 C971 1.327 . S
C973 C989 1.429 . S
C973 H995 0.950 . S
C974 H970 0.949 . S
C974 C982 1.574 . S
C974 C990 1.368 . S
H975 C983 0.950 . S
H976 C981 0.950 . S
H977 C982 0.949 . S
H978 C984 0.950 . S
H979 C985 0.950 . S
H980 C986 0.949 . S
C981 H976 0.950 . S
C981 C983 1.327 . S
C981 C987 1.429 . S
C982 C974 1.574 . S
C982 H977 0.949 . S
C982 C988 1.368 . S
C983 C967 1.349 . S
C983 H975 0.950 . S
C983 C981 1.327 . S
C984 C972 1.349 . S
C984 H978 0.950 . S
C984 C985 1.327 . S
C985 H979 0.950 . S
C985 C984 1.327 . S
C985 C989 1.429 . S
C986 C969 1.574 . S
C986 H980 0.949 . S
C986 C990 1.368 . S
C987 C968 1.429 . S
C987 C981 1.429 . S
C987 C988 1.523 . S
C988 C969 1.368 . S
C988 C982 1.368 . S
C988 C987 1.523 . S
C989 C973 1.429 . S
C989 C985 1.429 . S
C989 C990 1.523 . S
C990 C974 1.368 . S
C990 C986 1.368 . S
C990 C989 1.523 . S
H991 C966 0.950 . S
H992 C968 0.950 . S
H993 C969 0.949 . S
H994 C971 0.950 . S
H995 C973 0.950 . S
C996 C997 1.349 . S
C996 C998 1.327 . S
C996 H1021 0.950 . S
C997 C996 1.349 . S
C997 C1013 1.349 . S
C998 C996 1.327 . S
C998 C1017 1.429 . S
C998 H1022 0.950 . S
C999 C1016 1.574 . S
C999 C1018 1.368 . S
C999 H1023 0.949 . S
H1000 C1004 0.949 . S
C1001 C1002 1.349 . S
C1001 C1003 1.327 . S
C1001 H1024 0.950 . S
C1002 C1001 1.349 . S
C1002 C1014 1.349 . S
C1003 C1001 1.327 . S
C1003 C1019 1.429 . S
C1003 H1025 0.950 . S
C1004 H1000 0.949 . S
C1004 C1012 1.574 . S
C1004 C1020 1.368 . S
H1005 C1013 0.950 . S
H1006 C1011 0.950 . S
H1007 C1012 0.949 . S
H1008 C1014 0.950 . S
H1009 C1015 0.950 . S
H1010 C1016 0.949 . S
C1011 H1006 0.950 . S
C1011 C1013 1.327 . S
C1011 C1017 1.429 . S
C1012 C1004 1.574 . S
C1012 H1007 0.949 . S
C1012 C1018 1.368 . S
C1013 C997 1.349 . S
C1013 H1005 0.950 . S
C1013 C1011 1.327 . S
C1014 C1002 1.349 . S
C1014 H1008 0.950 . S
C1014 C1015 1.327 . S
C1015 H1009 0.950 . S
C1015 C1014 1.327 . S
C1015 C1019 1.429 . S
C1016 C999 1.574 . S
C1016 H1010 0.949 . S
C1016 C1020 1.368 . S
C1017 C998 1.429 . S
C1017 C1011 1.429 . S
C1017 C1018 1.523 . S
C1018 C999 1.368 . S
C1018 C1012 1.368 . S
C1018 C1017 1.523 . S
C1019 C1003 1.429 . S
C1019 C1015 1.429 . S
C1019 C1020 1.523 . S
C1020 C1004 1.368 . S
C1020 C1016 1.368 . S
C1020 C1019 1.523 . S
H1021 C996 0.950 . S
H1022 C998 0.950 . S
H1023 C999 0.949 . S
H1024 C1001 0.950 . S
H1025 C1003 0.950 . S
C1026 C1027 1.349 . S
C1026 C1028 1.327 . S
C1026 H1051 0.950 . S
C1027 C1026 1.349 . S
C1027 C1043 1.349 . S
C1028 C1026 1.327 . S
C1028 C1047 1.429 . S
C1028 H1052 0.950 . S
C1029 C1046 1.574 . S
C1029 C1048 1.368 . S
C1029 H1053 0.949 . S
H1030 C1034 0.949 . S
C1031 C1032 1.349 . S
C1031 C1033 1.327 . S
C1031 H1054 0.950 . S
C1032 C1031 1.349 . S
C1032 C1044 1.349 . S
C1033 C1031 1.327 . S
C1033 C1049 1.429 . S
C1033 H1055 0.950 . S
C1034 H1030 0.949 . S
C1034 C1042 1.574 . S
C1034 C1050 1.368 . S
H1035 C1043 0.950 . S
H1036 C1041 0.950 . S
H1037 C1042 0.949 . S
H1038 C1044 0.950 . S
H1039 C1045 0.950 . S
H1040 C1046 0.949 . S
C1041 H1036 0.950 . S
C1041 C1043 1.327 . S
C1041 C1047 1.429 . S
C1042 C1034 1.574 . S
C1042 H1037 0.949 . S
C1042 C1048 1.368 . S
C1043 C1027 1.349 . S
C1043 H1035 0.950 . S
C1043 C1041 1.327 . S
C1044 C1032 1.349 . S
C1044 H1038 0.950 . S
C1044 C1045 1.327 . S
C1045 H1039 0.950 . S
C1045 C1044 1.327 . S
C1045 C1049 1.429 . S
C1046 C1029 1.574 . S
C1046 H1040 0.949 . S
C1046 C1050 1.368 . S
C1047 C1028 1.429 . S
C1047 C1041 1.429 . S
C1047 C1048 1.523 . S
C1048 C1029 1.368 . S
C1048 C1042 1.368 . S
C1048 C1047 1.523 . S
C1049 C1033 1.429 . S
C1049 C1045 1.429 . S
C1049 C1050 1.523 . S
C1050 C1034 1.368 . S
C1050 C1046 1.368 . S
C1050 C1049 1.523 . S
H1051 C1026 0.950 . S
H1052 C1028 0.950 . S
H1053 C1029 0.949 . S
H1054 C1031 0.950 . S
H1055 C1033 0.950 . S
C1056 C1057 1.349 . S
C1056 C1058 1.327 . S
C1056 H1081 0.950 . S
C1057 C1056 1.349 . S
C1057 C1073 1.349 . S
C1058 C1056 1.327 . S
C1058 C1077 1.429 . S
C1058 H1082 0.950 . S
C1059 C1076 1.574 . S
C1059 C1078 1.368 . S
C1059 H1083 0.949 . S
H1060 C1064 0.949 . S
C1061 C1062 1.349 . S
C1061 C1063 1.327 . S
C1061 H1084 0.950 . S
C1062 C1061 1.349 . S
C1062 C1074 1.349 . S
C1063 C1061 1.327 . S
C1063 C1079 1.429 . S
C1063 H1085 0.950 . S
C1064 H1060 0.949 . S
C1064 C1072 1.574 . S
C1064 C1080 1.368 . S
H1065 C1073 0.950 . S
H1066 C1071 0.950 . S
H1067 C1072 0.949 . S
H1068 C1074 0.950 . S
H1069 C1075 0.950 . S
H1070 C1076 0.949 . S
C1071 H1066 0.950 . S
C1071 C1073 1.327 . S
C1071 C1077 1.429 . S
C1072 C1064 1.574 . S
C1072 H1067 0.949 . S
C1072 C1078 1.368 . S
C1073 C1057 1.349 . S
C1073 H1065 0.950 . S
C1073 C1071 1.327 . S
C1074 C1062 1.349 . S
C1074 H1068 0.950 . S
C1074 C1075 1.327 . S
C1075 H1069 0.950 . S
C1075 C1074 1.327 . S
C1075 C1079 1.429 . S
C1076 C1059 1.574 . S
C1076 H1070 0.949 . S
C1076 C1080 1.368 . S
C1077 C1058 1.429 . S
C1077 C1071 1.429 . S
C1077 C1078 1.523 . S
C1078 C1059 1.368 . S
C1078 C1072 1.368 . S
C1078 C1077 1.523 . S
C1079 C1063 1.429 . S
C1079 C1075 1.429 . S
C1079 C1080 1.523 . S
C1080 C1064 1.368 . S
C1080 C1076 1.368 . S
C1080 C1079 1.523 . S
H1081 C1056 0.950 . S
H1082 C1058 0.950 . S
H1083 C1059 0.949 . S
H1084 C1061 0.950 . S
H1085 C1063 0.950 . S
C1086 C1087 1.349 . S
C1086 C1088 1.327 . S
C1086 H1111 0.950 . S
C1087 C1086 1.349 . S
C1087 C1103 1.349 . S
C1088 C1086 1.327 . S
C1088 C1107 1.429 . S
C1088 H1112 0.950 . S
C1089 C1106 1.574 . S
C1089 C1108 1.368 . S
C1089 H1113 0.949 . S
H1090 C1094 0.949 . S
C1091 C1092 1.349 . S
C1091 C1093 1.327 . S
C1091 H1114 0.950 . S
C1092 C1091 1.349 . S
C1092 C1104 1.349 . S
C1093 C1091 1.327 . S
C1093 C1109 1.429 . S
C1093 H1115 0.950 . S
C1094 H1090 0.949 . S
C1094 C1102 1.574 . S
C1094 C1110 1.368 . S
H1095 C1103 0.950 . S
H1096 C1101 0.950 . S
H1097 C1102 0.949 . S
H1098 C1104 0.950 . S
H1099 C1105 0.950 . S
H1100 C1106 0.949 . S
C1101 H1096 0.950 . S
C1101 C1103 1.327 . S
C1101 C1107 1.429 . S
C1102 C1094 1.574 . S
C1102 H1097 0.949 . S
C1102 C1108 1.368 . S
C1103 C1087 1.349 . S
C1103 H1095 0.950 . S
C1103 C1101 1.327 . S
C1104 C1092 1.349 . S
C1104 H1098 0.950 . S
C1104 C1105 1.327 . S
C1105 H1099 0.950 . S
C1105 C1104 1.327 . S
C1105 C1109 1.429 . S
C1106 C1089 1.574 . S
C1106 H1100 0.949 . S
C1106 C1110 1.368 . S
C1107 C1088 1.429 . S
C1107 C1101 1.429 . S
C1107 C1108 1.523 . S
C1108 C1089 1.368 . S
C1108 C1102 1.368 . S
C1108 C1107 1.523 . S
C1109 C1093 1.429 . S
C1109 C1105 1.429 . S
C1109 C1110 1.523 . S
C1110 C1094 1.368 . S
C1110 C1106 1.368 . S
C1110 C1109 1.523 . S
H1111 C1086 0.950 . S
H1112 C1088 0.950 . S
H1113 C1089 0.949 . S
H1114 C1091 0.950 . S
H1115 C1093 0.950 . S
C1116 C1117 1.349 . S
C1116 C1118 1.327 . S
C1116 H1141 0.950 . S
C1117 C1116 1.349 . S
C1117 C1133 1.349 . S
C1118 C1116 1.327 . S
C1118 C1137 1.429 . S
C1118 H1142 0.950 . S
C1119 C1136 1.574 . S
C1119 C1138 1.368 . S
C1119 H1143 0.949 . S
H1120 C1124 0.949 . S
C1121 C1122 1.349 . S
C1121 C1123 1.327 . S
C1121 H1144 0.950 . S
C1122 C1121 1.349 . S
C1122 C1134 1.349 . S
C1123 C1121 1.327 . S
C1123 C1139 1.429 . S
C1123 H1145 0.950 . S
C1124 H1120 0.949 . S
C1124 C1132 1.574 . S
C1124 C1140 1.368 . S
H1125 C1133 0.950 . S
H1126 C1131 0.950 . S
H1127 C1132 0.949 . S
H1128 C1134 0.950 . S
H1129 C1135 0.950 . S
H1130 C1136 0.949 . S
C1131 H1126 0.950 . S
C1131 C1133 1.327 . S
C1131 C1137 1.429 . S
C1132 C1124 1.574 . S
C1132 H1127 0.949 . S
C1132 C1138 1.368 . S
C1133 C1117 1.349 . S
C1133 H1125 0.950 . S
C1133 C1131 1.327 . S
C1134 C1122 1.349 . S
C1134 H1128 0.950 . S
C1134 C1135 1.327 . S
C1135 H1129 0.950 . S
C1135 C1134 1.327 . S
C1135 C1139 1.429 . S
C1136 C1119 1.574 . S
C1136 H1130 0.949 . S
C1136 C1140 1.368 . S
C1137 C1118 1.429 . S
C1137 C1131 1.429 . S
C1137 C1138 1.523 . S
C1138 C1119 1.368 . S
C1138 C1132 1.368 . S
C1138 C1137 1.523 . S
C1139 C1123 1.429 . S
C1139 C1135 1.429 . S
C1139 C1140 1.523 . S
C1140 C1124 1.368 . S
C1140 C1136 1.368 . S
C1140 C1139 1.523 . S
H1141 C1116 0.950 . S
H1142 C1118 0.950 . S
H1143 C1119 0.949 . S
H1144 C1121 0.950 . S
H1145 C1123 0.950 . S
C1146 C1147 1.349 . S
C1146 C1148 1.327 . S
C1146 H1171 0.950 . S
C1147 C1146 1.349 . S
C1147 C1163 1.349 . S
C1148 C1146 1.327 . S
C1148 C1167 1.429 . S
C1148 H1172 0.950 . S
C1149 C1166 1.574 . S
C1149 C1168 1.368 . S
C1149 H1173 0.949 . S
H1150 C1154 0.949 . S
C1151 C1152 1.349 . S
C1151 C1153 1.327 . S
C1151 H1174 0.950 . S
C1152 C1151 1.349 . S
C1152 C1164 1.349 . S
C1153 C1151 1.327 . S
C1153 C1169 1.429 . S
C1153 H1175 0.950 . S
C1154 H1150 0.949 . S
C1154 C1162 1.574 . S
C1154 C1170 1.368 . S
H1155 C1163 0.950 . S
H1156 C1161 0.950 . S
H1157 C1162 0.949 . S
H1158 C1164 0.950 . S
H1159 C1165 0.950 . S
H1160 C1166 0.949 . S
C1161 H1156 0.950 . S
C1161 C1163 1.327 . S
C1161 C1167 1.429 . S
C1162 C1154 1.574 . S
C1162 H1157 0.949 . S
C1162 C1168 1.368 . S
C1163 C1147 1.349 . S
C1163 H1155 0.950 . S
C1163 C1161 1.327 . S
C1164 C1152 1.349 . S
C1164 H1158 0.950 . S
C1164 C1165 1.327 . S
C1165 H1159 0.950 . S
C1165 C1164 1.327 . S
C1165 C1169 1.429 . S
C1166 C1149 1.574 . S
C1166 H1160 0.949 . S
C1166 C1170 1.368 . S
C1167 C1148 1.429 . S
C1167 C1161 1.429 . S
C1167 C1168 1.523 . S
C1168 C1149 1.368 . S
C1168 C1162 1.368 . S
C1168 C1167 1.523 . S
C1169 C1153 1.429 . S
C1169 C1165 1.429 . S
C1169 C1170 1.523 . S
C1170 C1154 1.368 . S
C1170 C1166 1.368 . S
C1170 C1169 1.523 . S
H1171 C1146 0.950 . S
H1172 C1148 0.950 . S
H1173 C1149 0.949 . S
H1174 C1151 0.950 . S
H1175 C1153 0.950 . S
C1176 C1177 1.349 . S
C1176 C1178 1.327 . S
C1176 H1201 0.950 . S
C1177 C1176 1.349 . S
C1177 C1193 1.349 . S
C1178 C1176 1.327 . S
C1178 C1197 1.429 . S
C1178 H1202 0.950 . S
C1179 C1196 1.574 . S
C1179 C1198 1.368 . S
C1179 H1203 0.949 . S
H1180 C1184 0.949 . S
C1181 C1182 1.349 . S
C1181 C1183 1.327 . S
C1181 H1204 0.950 . S
C1182 C1181 1.349 . S
C1182 C1194 1.349 . S
C1183 C1181 1.327 . S
C1183 C1199 1.429 . S
C1183 H1205 0.950 . S
C1184 H1180 0.949 . S
C1184 C1192 1.574 . S
C1184 C1200 1.368 . S
H1185 C1193 0.950 . S
H1186 C1191 0.950 . S
H1187 C1192 0.949 . S
H1188 C1194 0.950 . S
H1189 C1195 0.950 . S
H1190 C1196 0.949 . S
C1191 H1186 0.950 . S
C1191 C1193 1.327 . S
C1191 C1197 1.429 . S
C1192 C1184 1.574 . S
C1192 H1187 0.949 . S
C1192 C1198 1.368 . S
C1193 C1177 1.349 . S
C1193 H1185 0.950 . S
C1193 C1191 1.327 . S
C1194 C1182 1.349 . S
C1194 H1188 0.950 . S
C1194 C1195 1.327 . S
C1195 H1189 0.950 . S
C1195 C1194 1.327 . S
C1195 C1199 1.429 . S
C1196 C1179 1.574 . S
C1196 H1190 0.949 . S
C1196 C1200 1.368 . S
C1197 C1178 1.429 . S
C1197 C1191 1.429 . S
C1197 C1198 1.523 . S
C1198 C1179 1.368 . S
C1198 C1192 1.368 . S
C1198 C1197 1.523 . S
C1199 C1183 1.429 . S
C1199 C1195 1.429 . S
C1199 C1200 1.523 . S
C1200 C1184 1.368 . S
C1200 C1196 1.368 . S
C1200 C1199 1.523 . S
H1201 C1176 0.950 . S
H1202 C1178 0.950 . S
H1203 C1179 0.949 . S
H1204 C1181 0.950 . S
H1205 C1183 0.950 . S
C1206 C1207 1.349 . S
C1206 C1208 1.327 . S
C1206 H1231 0.950 . S
C1207 C1206 1.349 . S
C1207 C1223 1.349 . S
C1208 C1206 1.327 . S
C1208 C1227 1.429 . S
C1208 H1232 0.950 . S
C1209 C1226 1.574 . S
C1209 C1228 1.368 . S
C1209 H1233 0.949 . S
H1210 C1214 0.949 . S
C1211 C1212 1.349 . S
C1211 C1213 1.327 . S
C1211 H1234 0.950 . S
C1212 C1211 1.349 . S
C1212 C1224 1.349 . S
C1213 C1211 1.327 . S
C1213 C1229 1.429 . S
C1213 H1235 0.950 . S
C1214 H1210 0.949 . S
C1214 C1222 1.574 . S
C1214 C1230 1.368 . S
H1215 C1223 0.950 . S
H1216 C1221 0.950 . S
H1217 C1222 0.949 . S
H1218 C1224 0.950 . S
H1219 C1225 0.950 . S
H1220 C1226 0.949 . S
C1221 H1216 0.950 . S
C1221 C1223 1.327 . S
C1221 C1227 1.429 . S
C1222 C1214 1.574 . S
C1222 H1217 0.949 . S
C1222 C1228 1.368 . S
C1223 C1207 1.349 . S
C1223 H1215 0.950 . S
C1223 C1221 1.327 . S
C1224 C1212 1.349 . S
C1224 H1218 0.950 . S
C1224 C1225 1.327 . S
C1225 H1219 0.950 . S
C1225 C1224 1.327 . S
C1225 C1229 1.429 . S
C1226 C1209 1.574 . S
C1226 H1220 0.949 . S
C1226 C1230 1.368 . S
C1227 C1208 1.429 . S
C1227 C1221 1.429 . S
C1227 C1228 1.523 . S
C1228 C1209 1.368 . S
C1228 C1222 1.368 . S
C1228 C1227 1.523 . S
C1229 C1213 1.429 . S
C1229 C1225 1.429 . S
C1229 C1230 1.523 . S
C1230 C1214 1.368 . S
C1230 C1226 1.368 . S
C1230 C1229 1.523 . S
H1231 C1206 0.950 . S
H1232 C1208 0.950 . S
H1233 C1209 0.949 . S
H1234 C1211 0.950 . S
H1235 C1213 0.950 . S
C1236 C1237 1.349 . S
C1236 C1238 1.327 . S
C1236 H1261 0.950 . S
C1237 C1236 1.349 . S
C1237 C1253 1.349 . S
C1238 C1236 1.327 . S
C1238 C1257 1.429 . S
C1238 H1262 0.950 . S
C1239 C1256 1.574 . S
C1239 C1258 1.368 . S
C1239 H1263 0.949 . S
H1240 C1244 0.949 . S
C1241 C1242 1.349 . S
C1241 C1243 1.327 . S
C1241 H1264 0.950 . S
C1242 C1241 1.349 . S
C1242 C1254 1.349 . S
C1243 C1241 1.327 . S
C1243 C1259 1.429 . S
C1243 H1265 0.950 . S
C1244 H1240 0.949 . S
C1244 C1252 1.574 . S
C1244 C1260 1.368 . S
H1245 C1253 0.950 . S
H1246 C1251 0.950 . S
H1247 C1252 0.949 . S
H1248 C1254 0.950 . S
H1249 C1255 0.950 . S
H1250 C1256 0.949 . S
C1251 H1246 0.950 . S
C1251 C1253 1.327 . S
C1251 C1257 1.429 . S
C1252 C1244 1.574 . S
C1252 H1247 0.949 . S
C1252 C1258 1.368 . S
C1253 C1237 1.349 . S
C1253 H1245 0.950 . S
C1253 C1251 1.327 . S
C1254 C1242 1.349 . S
C1254 H1248 0.950 . S
C1254 C1255 1.327 . S
C1255 H1249 0.950 . S
C1255 C1254 1.327 . S
C1255 C1259 1.429 . S
C1256 C1239 1.574 . S
C1256 H1250 0.949 . S
C1256 C1260 1.368 . S
C1257 C1238 1.429 . S
C1257 C1251 1.429 . S
C1257 C1258 1.523 . S
C1258 C1239 1.368 . S
C1258 C1252 1.368 . S
C1258 C1257 1.523 . S
C1259 C1243 1.429 . S
C1259 C1255 1.429 . S
C1259 C1260 1.523 . S
C1260 C1244 1.368 . S
C1260 C1256 1.368 . S
C1260 C1259 1.523 . S
H1261 C1236 0.950 . S
H1262 C1238 0.950 . S
H1263 C1239 0.949 . S
H1264 C1241 0.950 . S
H1265 C1243 0.950 . S
C1266 C1267 1.349 . S
C1266 C1268 1.327 . S
C1266 H1291 0.950 . S
C1267 C1266 1.349 . S
C1267 C1283 1.349 . S
C1268 C1266 1.327 . S
C1268 C1287 1.429 . S
C1268 H1292 0.950 . S
C1269 C1286 1.574 . S
C1269 C1288 1.368 . S
C1269 H1293 0.949 . S
H1270 C1274 0.949 . S
C1271 C1272 1.349 . S
C1271 C1273 1.327 . S
C1271 H1294 0.950 . S
C1272 C1271 1.349 . S
C1272 C1284 1.349 . S
C1273 C1271 1.327 . S
C1273 C1289 1.429 . S
C1273 H1295 0.950 . S
C1274 H1270 0.949 . S
C1274 C1282 1.574 . S
C1274 C1290 1.368 . S
H1275 C1283 0.950 . S
H1276 C1281 0.950 . S
H1277 C1282 0.949 . S
H1278 C1284 0.950 . S
H1279 C1285 0.950 . S
H1280 C1286 0.949 . S
C1281 H1276 0.950 . S
C1281 C1283 1.327 . S
C1281 C1287 1.429 . S
C1282 C1274 1.574 . S
C1282 H1277 0.949 . S
C1282 C1288 1.368 . S
C1283 C1267 1.349 . S
C1283 H1275 0.950 . S
C1283 C1281 1.327 . S
C1284 C1272 1.349 . S
C1284 H1278 0.950 . S
C1284 C1285 1.327 . S
C1285 H1279 0.950 . S
C1285 C1284 1.327 . S
C1285 C1289 1.429 . S
C1286 C1269 1.574 . S
C1286 H1280 0.949 . S
C1286 C1290 1.368 . S
C1287 C1268 1.429 . S
C1287 C1281 1.429 . S
C1287 C1288 1.523 . S
C1288 C1269 1.368 . S
C1288 C1282 1.368 . S
C1288 C1287 1.523 . S
C1289 C1273 1.429 . S
C1289 C1285 1.429 . S
C1289 C1290 1.523 . S
C1290 C1274 1.368 . S
C1290 C1286 1.368 . S
C1290 C1289 1.523 . S
H1291 C1266 0.950 . S
H1292 C1268 0.950 . S
H1293 C1269 0.949 . S
H1294 C1271 0.950 . S
H1295 C1273 0.950 . S
C397 C318 0.505 . S
C402 C21 0.505 . S
C427 C54 0.505 . S
C432 C351 0.505 . S
C457 C384 0.505 . S
C462 C87 0.505 . S
C487 C120 0.505 . S
C492 C219 0.505 . S
C517 C153 0.505 . S
C522 C252 0.505 . S
C547 C285 0.505 . S
C552 C186 0.505 . S
C577 C18 1.099 . S
C582 N134 1.009 . S
C607 N167 1.009 . S
C612 C51 1.099 . S
C637 C84 1.099 . S
C642 N2 1.009 . S
C667 C117 1.099 . S
C672 N35 1.009 . S
C697 N68 1.009 . S
C702 C150 1.099 . S
C727 N101 1.009 . S
C732 C183 1.099 . S
C757 N266 1.009 . S
C762 C216 1.099 . S
C787 C249 1.099 . S
C792 N299 1.009 . S
C817 N332 1.009 . S
C822 C282 1.099 . S
C847 N365 1.009 . S
C852 C315 1.099 . S
C877 N200 1.009 . S
C882 C348 1.099 . S
C907 C381 1.099 . S
C912 N233 1.009 . S
C937 N343 0.619 . S
C942 N13 0.619 . S
C967 N376 0.619 . S
C972 N46 0.619 . S
C997 N79 0.619 . S
C1002 N211 0.619 . S
C1027 N112 0.619 . S
C1032 N244 0.619 . S
C1057 N277 0.619 . S
C1062 N145 0.619 . S
C1087 N178 0.619 . S
C1092 N310 0.619 . S
C1117 C205 0.734 . S
C1122 C7 0.734 . S
C1147 C238 0.734 . S
C1152 C40 0.734 . S
C1177 C73 0.734 . S
C1182 C271 0.734 . S
C1207 C304 0.734 . S
C1212 C106 0.734 . S
C1237 C139 0.734 . S
C1242 C337 0.734 . S
C1267 C370 0.734 . S
C1272 C172 0.734 . S
