# Generated by pormake.
# Topology ana-e, (6)-cn, num edge types: 1
# Building blocks:
#     Node 0, Type 0, BuildingBlock: JUFBIX_clean_sbu_0, # of connection points: 6
#     Node 1, Type 0, BuildingBlock: JUFBIX_clean_sbu_0, # of connection points: 6
#     Node 2, Type 0, BuildingBlock: JUFBIX_clean_sbu_0, # of connection points: 6
#     Node 3, Type 0, BuildingBlock: JUFBIX_clean_sbu_0, # of connection points: 6
#     Node 4, Type 0, BuildingBlock: JUFBIX_clean_sbu_0, # of connection points: 6
#     Node 5, Type 0, BuildingBlock: JUFBIX_clean_sbu_0, # of connection points: 6
#     Node 6, Type 0, BuildingBlock: JUFBIX_clean_sbu_0, # of connection points: 6
#     Node 7, Type 0, BuildingBlock: JUFBIX_clean_sbu_0, # of connection points: 6
#     Node 8, Type 0, BuildingBlock: JUFBIX_clean_sbu_0, # of connection points: 6
#     Node 9, Type 0, BuildingBlock: JUFBIX_clean_sbu_0, # of connection points: 6
#     Node 10, Type 0, BuildingBlock: JUFBIX_clean_sbu_0, # of connection points: 6
#     Node 11, Type 0, BuildingBlock: JUFBIX_clean_sbu_0, # of connection points: 6
#     Node 12, Type 0, BuildingBlock: JUFBIX_clean_sbu_0, # of connection points: 6
#     Node 13, Type 0, BuildingBlock: JUFBIX_clean_sbu_0, # of connection points: 6
#     Node 14, Type 0, BuildingBlock: JUFBIX_clean_sbu_0, # of connection points: 6
#     Node 15, Type 0, BuildingBlock: JUFBIX_clean_sbu_0, # of connection points: 6
#     Node 16, Type 0, BuildingBlock: JUFBIX_clean_sbu_0, # of connection points: 6
#     Node 17, Type 0, BuildingBlock: JUFBIX_clean_sbu_0, # of connection points: 6
#     Node 18, Type 0, BuildingBlock: JUFBIX_clean_sbu_0, # of connection points: 6
#     Node 19, Type 0, BuildingBlock: JUFBIX_clean_sbu_0, # of connection points: 6
#     Node 20, Type 0, BuildingBlock: JUFBIX_clean_sbu_0, # of connection points: 6
#     Node 21, Type 0, BuildingBlock: JUFBIX_clean_sbu_0, # of connection points: 6
#     Node 22, Type 0, BuildingBlock: JUFBIX_clean_sbu_0, # of connection points: 6
#     Node 23, Type 0, BuildingBlock: JUFBIX_clean_sbu_0, # of connection points: 6
#     Node 24, Type 0, BuildingBlock: JUFBIX_clean_sbu_0, # of connection points: 6
#     Node 25, Type 0, BuildingBlock: JUFBIX_clean_sbu_0, # of connection points: 6
#     Node 26, Type 0, BuildingBlock: JUFBIX_clean_sbu_0, # of connection points: 6
#     Node 27, Type 0, BuildingBlock: JUFBIX_clean_sbu_0, # of connection points: 6
#     Node 28, Type 0, BuildingBlock: JUFBIX_clean_sbu_0, # of connection points: 6
#     Node 29, Type 0, BuildingBlock: JUFBIX_clean_sbu_0, # of connection points: 6
#     Node 30, Type 0, BuildingBlock: JUFBIX_clean_sbu_0, # of connection points: 6
#     Node 31, Type 0, BuildingBlock: JUFBIX_clean_sbu_0, # of connection points: 6
#     Node 32, Type 0, BuildingBlock: JUFBIX_clean_sbu_0, # of connection points: 6
#     Node 33, Type 0, BuildingBlock: JUFBIX_clean_sbu_0, # of connection points: 6
#     Node 34, Type 0, BuildingBlock: JUFBIX_clean_sbu_0, # of connection points: 6
#     Node 35, Type 0, BuildingBlock: JUFBIX_clean_sbu_0, # of connection points: 6
#     Node 36, Type 0, BuildingBlock: JUFBIX_clean_sbu_0, # of connection points: 6
#     Node 37, Type 0, BuildingBlock: JUFBIX_clean_sbu_0, # of connection points: 6
#     Node 38, Type 0, BuildingBlock: JUFBIX_clean_sbu_0, # of connection points: 6
#     Node 39, Type 0, BuildingBlock: JUFBIX_clean_sbu_0, # of connection points: 6
#     Node 40, Type 0, BuildingBlock: JUFBIX_clean_sbu_0, # of connection points: 6
#     Node 41, Type 0, BuildingBlock: JUFBIX_clean_sbu_0, # of connection points: 6
#     Node 42, Type 0, BuildingBlock: JUFBIX_clean_sbu_0, # of connection points: 6
#     Node 43, Type 0, BuildingBlock: JUFBIX_clean_sbu_0, # of connection points: 6
#     Node 44, Type 0, BuildingBlock: JUFBIX_clean_sbu_0, # of connection points: 6
#     Node 45, Type 0, BuildingBlock: JUFBIX_clean_sbu_0, # of connection points: 6
#     Node 46, Type 0, BuildingBlock: JUFBIX_clean_sbu_0, # of connection points: 6
#     Node 47, Type 0, BuildingBlock: JUFBIX_clean_sbu_0, # of connection points: 6
#     Node 48, Type 0, BuildingBlock: JUFBIX_clean_sbu_0, # of connection points: 6
#     Node 49, Type 0, BuildingBlock: JUFBIX_clean_sbu_0, # of connection points: 6
#     Node 50, Type 0, BuildingBlock: JUFBIX_clean_sbu_0, # of connection points: 6
#     Node 51, Type 0, BuildingBlock: JUFBIX_clean_sbu_0, # of connection points: 6
#     Node 52, Type 0, BuildingBlock: JUFBIX_clean_sbu_0, # of connection points: 6
#     Node 53, Type 0, BuildingBlock: JUFBIX_clean_sbu_0, # of connection points: 6
#     Node 54, Type 0, BuildingBlock: JUFBIX_clean_sbu_0, # of connection points: 6
#     Node 55, Type 0, BuildingBlock: JUFBIX_clean_sbu_0, # of connection points: 6
#     Node 56, Type 0, BuildingBlock: JUFBIX_clean_sbu_0, # of connection points: 6
#     Node 57, Type 0, BuildingBlock: JUFBIX_clean_sbu_0, # of connection points: 6
#     Node 58, Type 0, BuildingBlock: JUFBIX_clean_sbu_0, # of connection points: 6
#     Node 59, Type 0, BuildingBlock: JUFBIX_clean_sbu_0, # of connection points: 6
#     Node 60, Type 0, BuildingBlock: JUFBIX_clean_sbu_0, # of connection points: 6
#     Node 61, Type 0, BuildingBlock: JUFBIX_clean_sbu_0, # of connection points: 6
#     Node 62, Type 0, BuildingBlock: JUFBIX_clean_sbu_0, # of connection points: 6
#     Node 63, Type 0, BuildingBlock: JUFBIX_clean_sbu_0, # of connection points: 6
#     Node 64, Type 0, BuildingBlock: JUFBIX_clean_sbu_0, # of connection points: 6
#     Node 65, Type 0, BuildingBlock: JUFBIX_clean_sbu_0, # of connection points: 6
#     Node 66, Type 0, BuildingBlock: JUFBIX_clean_sbu_0, # of connection points: 6
#     Node 67, Type 0, BuildingBlock: JUFBIX_clean_sbu_0, # of connection points: 6
#     Node 68, Type 0, BuildingBlock: JUFBIX_clean_sbu_0, # of connection points: 6
#     Node 69, Type 0, BuildingBlock: JUFBIX_clean_sbu_0, # of connection points: 6
#     Node 70, Type 0, BuildingBlock: JUFBIX_clean_sbu_0, # of connection points: 6
#     Node 71, Type 0, BuildingBlock: JUFBIX_clean_sbu_0, # of connection points: 6
#     Node 72, Type 0, BuildingBlock: JUFBIX_clean_sbu_0, # of connection points: 6
#     Node 73, Type 0, BuildingBlock: JUFBIX_clean_sbu_0, # of connection points: 6
#     Node 74, Type 0, BuildingBlock: JUFBIX_clean_sbu_0, # of connection points: 6
#     Node 75, Type 0, BuildingBlock: JUFBIX_clean_sbu_0, # of connection points: 6
#     Node 76, Type 0, BuildingBlock: JUFBIX_clean_sbu_0, # of connection points: 6
#     Node 77, Type 0, BuildingBlock: JUFBIX_clean_sbu_0, # of connection points: 6
#     Node 78, Type 0, BuildingBlock: JUFBIX_clean_sbu_0, # of connection points: 6
#     Node 79, Type 0, BuildingBlock: JUFBIX_clean_sbu_0, # of connection points: 6
#     Node 80, Type 0, BuildingBlock: JUFBIX_clean_sbu_0, # of connection points: 6
#     Node 81, Type 0, BuildingBlock: JUFBIX_clean_sbu_0, # of connection points: 6
#     Node 82, Type 0, BuildingBlock: JUFBIX_clean_sbu_0, # of connection points: 6
#     Node 83, Type 0, BuildingBlock: JUFBIX_clean_sbu_0, # of connection points: 6
#     Node 84, Type 0, BuildingBlock: JUFBIX_clean_sbu_0, # of connection points: 6
#     Node 85, Type 0, BuildingBlock: JUFBIX_clean_sbu_0, # of connection points: 6
#     Node 86, Type 0, BuildingBlock: JUFBIX_clean_sbu_0, # of connection points: 6
#     Node 87, Type 0, BuildingBlock: JUFBIX_clean_sbu_0, # of connection points: 6
#     Node 88, Type 0, BuildingBlock: JUFBIX_clean_sbu_0, # of connection points: 6
#     Node 89, Type 0, BuildingBlock: JUFBIX_clean_sbu_0, # of connection points: 6
#     Node 90, Type 0, BuildingBlock: JUFBIX_clean_sbu_0, # of connection points: 6
#     Node 91, Type 0, BuildingBlock: JUFBIX_clean_sbu_0, # of connection points: 6
#     Node 92, Type 0, BuildingBlock: JUFBIX_clean_sbu_0, # of connection points: 6
#     Node 93, Type 0, BuildingBlock: JUFBIX_clean_sbu_0, # of connection points: 6
#     Node 94, Type 0, BuildingBlock: JUFBIX_clean_sbu_0, # of connection points: 6
#     Node 95, Type 0, BuildingBlock: JUFBIX_clean_sbu_0, # of connection points: 6
#     Edge 96, Type (0, 0), None
#     Edge 97, Type (0, 0), None
#     Edge 98, Type (0, 0), None
#     Edge 99, Type (0, 0), None
#     Edge 100, Type (0, 0), None
#     Edge 101, Type (0, 0), None
#     Edge 102, Type (0, 0), None
#     Edge 103, Type (0, 0), None
#     Edge 104, Type (0, 0), None
#     Edge 105, Type (0, 0), None
#     Edge 106, Type (0, 0), None
#     Edge 107, Type (0, 0), None
#     Edge 108, Type (0, 0), None
#     Edge 109, Type (0, 0), None
#     Edge 110, Type (0, 0), None
#     Edge 111, Type (0, 0), None
#     Edge 112, Type (0, 0), None
#     Edge 113, Type (0, 0), None
#     Edge 114, Type (0, 0), None
#     Edge 115, Type (0, 0), None
#     Edge 116, Type (0, 0), None
#     Edge 117, Type (0, 0), None
#     Edge 118, Type (0, 0), None
#     Edge 119, Type (0, 0), None
#     Edge 120, Type (0, 0), None
#     Edge 121, Type (0, 0), None
#     Edge 122, Type (0, 0), None
#     Edge 123, Type (0, 0), None
#     Edge 124, Type (0, 0), None
#     Edge 125, Type (0, 0), None
#     Edge 126, Type (0, 0), None
#     Edge 127, Type (0, 0), None
#     Edge 128, Type (0, 0), None
#     Edge 129, Type (0, 0), None
#     Edge 130, Type (0, 0), None
#     Edge 131, Type (0, 0), None
#     Edge 132, Type (0, 0), None
#     Edge 133, Type (0, 0), None
#     Edge 134, Type (0, 0), None
#     Edge 135, Type (0, 0), None
#     Edge 136, Type (0, 0), None
#     Edge 137, Type (0, 0), None
#     Edge 138, Type (0, 0), None
#     Edge 139, Type (0, 0), None
#     Edge 140, Type (0, 0), None
#     Edge 141, Type (0, 0), None
#     Edge 142, Type (0, 0), None
#     Edge 143, Type (0, 0), None
#     Edge 144, Type (0, 0), None
#     Edge 145, Type (0, 0), None
#     Edge 146, Type (0, 0), None
#     Edge 147, Type (0, 0), None
#     Edge 148, Type (0, 0), None
#     Edge 149, Type (0, 0), None
#     Edge 150, Type (0, 0), None
#     Edge 151, Type (0, 0), None
#     Edge 152, Type (0, 0), None
#     Edge 153, Type (0, 0), None
#     Edge 154, Type (0, 0), None
#     Edge 155, Type (0, 0), None
#     Edge 156, Type (0, 0), None
#     Edge 157, Type (0, 0), None
#     Edge 158, Type (0, 0), None
#     Edge 159, Type (0, 0), None
#     Edge 160, Type (0, 0), None
#     Edge 161, Type (0, 0), None
#     Edge 162, Type (0, 0), None
#     Edge 163, Type (0, 0), None
#     Edge 164, Type (0, 0), None
#     Edge 165, Type (0, 0), None
#     Edge 166, Type (0, 0), None
#     Edge 167, Type (0, 0), None
#     Edge 168, Type (0, 0), None
#     Edge 169, Type (0, 0), None
#     Edge 170, Type (0, 0), None
#     Edge 171, Type (0, 0), None
#     Edge 172, Type (0, 0), None
#     Edge 173, Type (0, 0), None
#     Edge 174, Type (0, 0), None
#     Edge 175, Type (0, 0), None
#     Edge 176, Type (0, 0), None
#     Edge 177, Type (0, 0), None
#     Edge 178, Type (0, 0), None
#     Edge 179, Type (0, 0), None
#     Edge 180, Type (0, 0), None
#     Edge 181, Type (0, 0), None
#     Edge 182, Type (0, 0), None
#     Edge 183, Type (0, 0), None
#     Edge 184, Type (0, 0), None
#     Edge 185, Type (0, 0), None
#     Edge 186, Type (0, 0), None
#     Edge 187, Type (0, 0), None
#     Edge 188, Type (0, 0), None
#     Edge 189, Type (0, 0), None
#     Edge 190, Type (0, 0), None
#     Edge 191, Type (0, 0), None
#     Edge 192, Type (0, 0), None
#     Edge 193, Type (0, 0), None
#     Edge 194, Type (0, 0), None
#     Edge 195, Type (0, 0), None
#     Edge 196, Type (0, 0), None
#     Edge 197, Type (0, 0), None
#     Edge 198, Type (0, 0), None
#     Edge 199, Type (0, 0), None
#     Edge 200, Type (0, 0), None
#     Edge 201, Type (0, 0), None
#     Edge 202, Type (0, 0), None
#     Edge 203, Type (0, 0), None
#     Edge 204, Type (0, 0), None
#     Edge 205, Type (0, 0), None
#     Edge 206, Type (0, 0), None
#     Edge 207, Type (0, 0), None
#     Edge 208, Type (0, 0), None
#     Edge 209, Type (0, 0), None
#     Edge 210, Type (0, 0), None
#     Edge 211, Type (0, 0), None
#     Edge 212, Type (0, 0), None
#     Edge 213, Type (0, 0), None
#     Edge 214, Type (0, 0), None
#     Edge 215, Type (0, 0), None
#     Edge 216, Type (0, 0), None
#     Edge 217, Type (0, 0), None
#     Edge 218, Type (0, 0), None
#     Edge 219, Type (0, 0), None
#     Edge 220, Type (0, 0), None
#     Edge 221, Type (0, 0), None
#     Edge 222, Type (0, 0), None
#     Edge 223, Type (0, 0), None
#     Edge 224, Type (0, 0), None
#     Edge 225, Type (0, 0), None
#     Edge 226, Type (0, 0), None
#     Edge 227, Type (0, 0), None
#     Edge 228, Type (0, 0), None
#     Edge 229, Type (0, 0), None
#     Edge 230, Type (0, 0), None
#     Edge 231, Type (0, 0), None
#     Edge 232, Type (0, 0), None
#     Edge 233, Type (0, 0), None
#     Edge 234, Type (0, 0), None
#     Edge 235, Type (0, 0), None
#     Edge 236, Type (0, 0), None
#     Edge 237, Type (0, 0), None
#     Edge 238, Type (0, 0), None
#     Edge 239, Type (0, 0), None
#     Edge 240, Type (0, 0), None
#     Edge 241, Type (0, 0), None
#     Edge 242, Type (0, 0), None
#     Edge 243, Type (0, 0), None
#     Edge 244, Type (0, 0), None
#     Edge 245, Type (0, 0), None
#     Edge 246, Type (0, 0), None
#     Edge 247, Type (0, 0), None
#     Edge 248, Type (0, 0), None
#     Edge 249, Type (0, 0), None
#     Edge 250, Type (0, 0), None
#     Edge 251, Type (0, 0), None
#     Edge 252, Type (0, 0), None
#     Edge 253, Type (0, 0), None
#     Edge 254, Type (0, 0), None
#     Edge 255, Type (0, 0), None
#     Edge 256, Type (0, 0), None
#     Edge 257, Type (0, 0), None
#     Edge 258, Type (0, 0), None
#     Edge 259, Type (0, 0), None
#     Edge 260, Type (0, 0), None
#     Edge 261, Type (0, 0), None
#     Edge 262, Type (0, 0), None
#     Edge 263, Type (0, 0), None
#     Edge 264, Type (0, 0), None
#     Edge 265, Type (0, 0), None
#     Edge 266, Type (0, 0), None
#     Edge 267, Type (0, 0), None
#     Edge 268, Type (0, 0), None
#     Edge 269, Type (0, 0), None
#     Edge 270, Type (0, 0), None
#     Edge 271, Type (0, 0), None
#     Edge 272, Type (0, 0), None
#     Edge 273, Type (0, 0), None
#     Edge 274, Type (0, 0), None
#     Edge 275, Type (0, 0), None
#     Edge 276, Type (0, 0), None
#     Edge 277, Type (0, 0), None
#     Edge 278, Type (0, 0), None
#     Edge 279, Type (0, 0), None
#     Edge 280, Type (0, 0), None
#     Edge 281, Type (0, 0), None
#     Edge 282, Type (0, 0), None
#     Edge 283, Type (0, 0), None
#     Edge 284, Type (0, 0), None
#     Edge 285, Type (0, 0), None
#     Edge 286, Type (0, 0), None
#     Edge 287, Type (0, 0), None
#     Edge 288, Type (0, 0), None
#     Edge 289, Type (0, 0), None
#     Edge 290, Type (0, 0), None
#     Edge 291, Type (0, 0), None
#     Edge 292, Type (0, 0), None
#     Edge 293, Type (0, 0), None
#     Edge 294, Type (0, 0), None
#     Edge 295, Type (0, 0), None
#     Edge 296, Type (0, 0), None
#     Edge 297, Type (0, 0), None
#     Edge 298, Type (0, 0), None
#     Edge 299, Type (0, 0), None
#     Edge 300, Type (0, 0), None
#     Edge 301, Type (0, 0), None
#     Edge 302, Type (0, 0), None
#     Edge 303, Type (0, 0), None
#     Edge 304, Type (0, 0), None
#     Edge 305, Type (0, 0), None
#     Edge 306, Type (0, 0), None
#     Edge 307, Type (0, 0), None
#     Edge 308, Type (0, 0), None
#     Edge 309, Type (0, 0), None
#     Edge 310, Type (0, 0), None
#     Edge 311, Type (0, 0), None
#     Edge 312, Type (0, 0), None
#     Edge 313, Type (0, 0), None
#     Edge 314, Type (0, 0), None
#     Edge 315, Type (0, 0), None
#     Edge 316, Type (0, 0), None
#     Edge 317, Type (0, 0), None
#     Edge 318, Type (0, 0), None
#     Edge 319, Type (0, 0), None
#     Edge 320, Type (0, 0), None
#     Edge 321, Type (0, 0), None
#     Edge 322, Type (0, 0), None
#     Edge 323, Type (0, 0), None
#     Edge 324, Type (0, 0), None
#     Edge 325, Type (0, 0), None
#     Edge 326, Type (0, 0), None
#     Edge 327, Type (0, 0), None
#     Edge 328, Type (0, 0), None
#     Edge 329, Type (0, 0), None
#     Edge 330, Type (0, 0), None
#     Edge 331, Type (0, 0), None
#     Edge 332, Type (0, 0), None
#     Edge 333, Type (0, 0), None
#     Edge 334, Type (0, 0), None
#     Edge 335, Type (0, 0), None
#     Edge 336, Type (0, 0), None
#     Edge 337, Type (0, 0), None
#     Edge 338, Type (0, 0), None
#     Edge 339, Type (0, 0), None
#     Edge 340, Type (0, 0), None
#     Edge 341, Type (0, 0), None
#     Edge 342, Type (0, 0), None
#     Edge 343, Type (0, 0), None
#     Edge 344, Type (0, 0), None
#     Edge 345, Type (0, 0), None
#     Edge 346, Type (0, 0), None
#     Edge 347, Type (0, 0), None
#     Edge 348, Type (0, 0), None
#     Edge 349, Type (0, 0), None
#     Edge 350, Type (0, 0), None
#     Edge 351, Type (0, 0), None
#     Edge 352, Type (0, 0), None
#     Edge 353, Type (0, 0), None
#     Edge 354, Type (0, 0), None
#     Edge 355, Type (0, 0), None
#     Edge 356, Type (0, 0), None
#     Edge 357, Type (0, 0), None
#     Edge 358, Type (0, 0), None
#     Edge 359, Type (0, 0), None
#     Edge 360, Type (0, 0), None
#     Edge 361, Type (0, 0), None
#     Edge 362, Type (0, 0), None
#     Edge 363, Type (0, 0), None
#     Edge 364, Type (0, 0), None
#     Edge 365, Type (0, 0), None
#     Edge 366, Type (0, 0), None
#     Edge 367, Type (0, 0), None
#     Edge 368, Type (0, 0), None
#     Edge 369, Type (0, 0), None
#     Edge 370, Type (0, 0), None
#     Edge 371, Type (0, 0), None
#     Edge 372, Type (0, 0), None
#     Edge 373, Type (0, 0), None
#     Edge 374, Type (0, 0), None
#     Edge 375, Type (0, 0), None
#     Edge 376, Type (0, 0), None
#     Edge 377, Type (0, 0), None
#     Edge 378, Type (0, 0), None
#     Edge 379, Type (0, 0), None
#     Edge 380, Type (0, 0), None
#     Edge 381, Type (0, 0), None
#     Edge 382, Type (0, 0), None
#     Edge 383, Type (0, 0), None
# Relax obj value: 0.981
# Max RMSD: 0.386
# Mean RMSD: 0.325
data_MOF--net-ana-e--node1-JUFBIX_clean_sbu_0--edge1-none
_symmetry_space_group_name_H-M    P1
_symmetry_Int_Tables_number       1
_symmetry_cell_setting            triclinic
loop_
_symmetry_equiv_pos_as_xyz
'x, y, z'
_cell_length_a     37.580962
_cell_length_b     40.852054
_cell_length_c     38.513432
_cell_angle_alpha  92.733418
_cell_angle_beta   91.744852
_cell_angle_gamma 89.293491
loop_
_atom_site_label
_atom_site_type_symbol
_atom_site_fract_x
_atom_site_fract_y
_atom_site_fract_z
_atom_type_partial_charge
Co0 Co 0.05527 0.14398 0.3577 0.0
C1 C 0.07591 0.19451 0.40156 0.0
Co2 Co 0.05632 0.13293 0.41458 0.0
C3 C 0.02989 0.14372 0.28779 0.0
C4 C 0.08415 0.15899 0.29148 0.0
N5 N 0.05563 0.15343 0.31096 0.0
N6 N 0.04154 0.14166 0.2551 0.0
C7 C 0.07567 0.15103 0.25694 0.0
H8 H 1.00467 0.13396 0.29507 0.0
H9 H 0.11054 0.16456 0.30197 0.0
C10 C 0.03409 0.08347 0.36727 0.0
N11 N 0.05405 0.12017 0.46242 0.0
C12 C 0.06191 0.13587 0.49374 0.0
C13 C 0.04236 0.09058 0.47159 0.0
N14 N 0.05652 0.11679 0.52131 0.0
C15 C 0.04428 0.08836 0.50703 0.0
C16 C 0.99488 0.16208 0.39176 0.0
O17 O 0.0389 0.10394 0.34468 0.0
O18 O 0.04063 0.09125 0.39905 0.0
O19 O 1.01 0.14885 0.41748 0.0
O20 O 1.00885 0.16061 0.36204 0.0
O21 O 0.07231 0.17586 0.42699 0.0
H22 H 0.03362 0.07079 0.45395 0.0
H23 H 0.07376 0.15992 0.49612 0.0
O24 O 0.07128 0.18403 0.37037 0.0
O25 O 0.10145 0.12827 0.35487 0.0
O26 O 0.1032 0.11813 0.4107 0.0
C27 C 0.11819 0.11858 0.38147 0.0
H28 H 0.09378 0.14938 0.2356 0.0
H29 H 0.0387 0.06678 0.52113 0.0
Co30 Co 0.12006 0.8138 0.63051 0.0
C31 C 0.0638 0.83846 0.66418 0.0
Co32 Co 0.12386 0.80515 0.68736 0.0
C33 C 0.12949 0.78846 0.55987 0.0
C34 C 0.11372 0.83892 0.55889 0.0
N35 N 0.12009 0.81469 0.581 0.0
N36 N 0.12922 0.79529 0.52582 0.0
C37 C 0.11931 0.8271 0.52499 0.0
H38 H 0.13716 0.76484 0.56944 0.0
H39 H 0.1059 0.86366 0.56684 0.0
C40 C 0.18064 0.78033 0.65081 0.0
N41 N 0.12606 0.80389 0.73728 0.0
C42 C 0.1117 0.8263 0.76068 0.0
C43 C 0.14988 0.78709 0.75657 0.0
N44 N 0.12655 0.82475 0.79322 0.0
C45 C 0.15062 0.80003 0.79039 0.0
C46 C 0.0929 0.75119 0.65039 0.0
O47 O 0.1657 0.79748 0.6281 0.0
O48 O 0.16779 0.78039 0.68119 0.0
O49 O 0.09906 0.76346 0.68125 0.0
O50 O 0.10041 0.7685 0.62484 0.0
O51 O 0.0808 0.82813 0.69048 0.0
H52 H 0.16797 0.76856 0.74623 0.0
H53 H 0.0942 0.84614 0.7531 0.0
O54 O 0.07435 0.83168 0.63353 0.0
O55 O 0.13827 0.85885 0.63828 0.0
O56 O 0.1479 0.84715 0.69284 0.0
C57 C 0.14844 0.86809 0.66934 0.0
H58 H 0.11622 0.84084 0.50174 0.0
H59 H 0.16924 0.7931 0.81085 0.0
Co60 Co 0.47731 0.86065 0.88982 0.0
C61 C 0.44971 0.80251 0.91607 0.0
Co62 Co 0.48602 0.85849 0.94634 0.0
C63 C 0.48857 0.87361 0.81798 0.0
C64 C 0.4374 0.85305 0.82517 0.0
N65 N 0.46846 0.86091 0.8422 0.0
N66 N 0.47104 0.87427 0.78701 0.0
C67 C 0.43893 0.86133 0.79091 0.0
H68 H 0.51497 0.88337 0.8231 0.0
H69 H 0.41449 0.84319 0.83726 0.0
C70 C 0.52208 0.91251 0.91358 0.0
N71 N 0.49247 0.85881 0.995 0.0
C72 C 0.47098 0.84556 1.01813 0.0
C73 C 0.51471 0.87817 1.01471 0.0
N74 N 0.47788 0.85711 0.05118 0.0
C75 C 0.5053 0.87776 0.04894 0.0
C76 C 0.54115 0.82989 0.91239 0.0
O77 O 0.50201 0.90278 0.888 0.0
O78 O 0.51695 0.89927 0.94278 0.0
O79 O 0.52765 0.83475 0.9418 0.0
O80 O 0.52399 0.83881 0.88496 0.0
O81 O 0.45884 0.81603 0.94579 0.0
H82 H 0.53458 0.89386 1.00477 0.0
H83 H 0.44755 0.83152 1.01037 0.0
O84 O 0.45528 0.81836 0.88931 0.0
O85 O 0.42975 0.88159 0.89722 0.0
O86 O 0.44141 0.88313 0.95292 0.0
C87 C 0.41936 0.88861 0.92805 0.0
H88 H 0.41818 0.85885 0.77088 0.0
H89 H 0.51597 0.89342 0.07014 0.0
Co90 Co 0.39619 0.24726 0.12324 0.0
C91 C 0.45117 0.20731 0.15002 0.0
Co92 Co 0.39763 0.24347 0.17989 0.0
C93 C 0.39407 0.26855 0.05514 0.0
C94 C 0.40017 0.21651 0.05573 0.0
N95 N 0.39607 0.244 0.07647 0.0
N96 N 0.39741 0.25764 1.02201 0.0
C97 C 0.40106 0.22499 1.02169 0.0
H98 H 0.39124 0.29396 0.06396 0.0
H99 H 0.4036 0.19203 0.06492 0.0
C100 C 0.34724 0.291 0.1534 0.0
N101 N 0.40154 0.23958 0.22916 0.0
C102 C 0.42163 0.21682 0.2463 0.0
C103 C 0.38357 0.25558 0.25453 0.0
N104 N 0.41659 0.21757 0.28086 0.0
C105 C 0.39213 0.24183 0.28583 0.0
C106 C 0.43642 0.29303 0.15522 0.0
O107 O 0.35892 0.28058 0.12407 0.0
O108 O 0.35654 0.27523 0.18066 0.0
O109 O 0.42661 0.27945 0.18237 0.0
O110 O 0.42849 0.2811 0.12515 0.0
O111 O 0.43831 0.2163 0.17844 0.0
H112 H 0.36359 0.2743 0.25029 0.0
H113 H 0.43622 0.19697 0.2335 0.0
O114 O 0.43536 0.21605 0.12241 0.0
O115 O 0.3632 0.21432 0.11983 0.0
O116 O 0.3678 0.20536 0.17507 0.0
C117 C 0.35698 0.19626 0.14435 0.0
H118 H 0.40574 0.20903 0.999 0.0
H119 H 0.37883 0.24734 0.31003 0.0
Co120 Co 0.04576 0.92056 0.15487 0.0
C121 C 0.97348 0.94439 0.13546 0.0
Co122 Co 1.00857 0.88577 0.13693 0.0
C123 C 0.11356 0.9333 0.18898 0.0
C124 C 0.10001 0.97262 0.15623 0.0
N125 N 0.08532 0.94713 0.1713 0.0
N126 N 0.14522 0.94679 0.18284 0.0
C127 C 0.13642 0.97284 0.16377 0.0
H128 H 0.11177 0.91138 0.20349 0.0
H129 H 0.08644 0.98704 0.13694 0.0
C130 C 0.06191 0.8578 0.16788 0.0
N131 N 0.97761 0.85637 0.1203 0.0
C132 C 0.94919 0.84742 0.13726 0.0
C133 C 0.96948 0.85141 0.08601 0.0
N134 N 0.92259 0.84084 0.11474 0.0
C135 C 0.93514 0.84189 0.08254 0.0
C136 C 0.06097 0.89685 0.0864 0.0
O137 O 0.07776 0.88375 0.16144 0.0
O138 O 0.0309 0.85366 0.15677 0.0
O139 O 0.03747 0.87655 0.09406 0.0
O140 O 0.06307 0.92274 0.1064 0.0
O141 O 0.97773 0.91811 0.11714 0.0
H142 H 0.98487 0.85919 0.06474 0.0
H143 H 0.94596 0.85073 0.16501 0.0
O144 O 1.00283 0.9557 0.15077 0.0
O145 O 0.03314 0.91859 0.20069 0.0
O146 O 0.98479 0.89356 0.18177 0.0
C147 C 1.00345 0.90674 0.20702 0.0
H148 H 0.15537 0.98806 0.15156 0.0
H149 H 0.91954 0.83952 0.05843 0.0
Co150 Co 0.38748 0.81611 0.41872 0.0
C151 C 0.35093 0.76169 0.38946 0.0
Co152 Co 0.42186 0.77673 0.39975 0.0
C153 C 0.37432 0.88395 0.43347 0.0
C154 C 0.3251 0.85841 0.42747 0.0
N155 N 0.36064 0.8535 0.43081 0.0
N156 N 0.34925 0.90751 0.43017 0.0
C157 C 0.31803 0.89168 0.42682 0.0
H158 H 0.40245 0.88892 0.43277 0.0
H159 H 0.30581 0.83927 0.42218 0.0
C160 C 0.46408 0.82404 0.43207 0.0
N161 N 0.44448 0.74008 0.38492 0.0
C162 C 0.43504 0.7104 0.39485 0.0
C163 C 0.46496 0.73433 0.35735 0.0
N164 N 0.44944 0.68591 0.37585 0.0
C165 C 0.46811 0.7011 0.35184 0.0
C166 C 0.40917 0.82018 0.34811 0.0
O167 O 0.434 0.83912 0.43496 0.0
O168 O 0.46403 0.79591 0.41675 0.0
O169 O 0.42789 0.79513 0.35486 0.0
O170 O 0.39038 0.83296 0.37221 0.0
O171 O 0.38256 0.75505 0.38326 0.0
H172 H 0.47696 0.75287 0.34249 0.0
H173 H 0.41923 0.70633 0.41721 0.0
O174 O 0.34374 0.79013 0.40331 0.0
O175 O 0.3826 0.79977 0.46434 0.0
O176 O 0.41488 0.75856 0.44464 0.0
C177 C 0.39584 0.77141 0.46855 0.0
H178 H 0.29243 0.90301 0.42119 0.0
H179 H 0.48643 0.68887 0.33415 0.0
Co180 Co 0.45572 0.19219 0.62667 0.0
C181 C 0.47528 0.15754 0.68592 0.0
Co182 Co 0.46462 0.14124 0.61518 0.0
C183 C 0.41198 0.24667 0.61763 0.0
C184 C 0.43679 0.24657 0.66848 0.0
N185 N 0.44105 0.23516 0.63542 0.0
N186 N 0.38791 0.25996 0.63906 0.0
C187 C 0.40382 0.26074 0.67099 0.0
H188 H 0.4059 0.24176 0.59031 0.0
H189 H 0.45409 0.24128 0.69044 0.0
C190 C 0.44162 0.17182 0.55579 0.0
N191 N 0.47186 0.09792 0.60718 0.0
C192 C 0.49571 0.07962 0.62389 0.0
C193 C 0.45255 0.07661 0.58675 0.0
N194 N 0.4936 0.04779 0.61362 0.0
C195 C 0.46647 0.04568 0.59005 0.0
C196 C 0.39613 0.15333 0.63004 0.0
O197 O 0.43931 0.19561 0.57796 0.0
O198 O 0.45758 0.1461 0.56561 0.0
O199 O 0.41597 0.13127 0.6171 0.0
O200 O 0.40909 0.18094 0.63815 0.0
O201 O 0.46949 0.13443 0.6636 0.0
H202 H 0.43018 0.08332 0.57031 0.0
H203 H 0.51687 0.08991 0.64058 0.0
O204 O 0.47295 0.1868 0.67577 0.0
O205 O 0.50175 0.2046 0.61669 0.0
O206 O 0.51742 0.15263 0.61501 0.0
C207 C 0.52645 0.18304 0.61713 0.0
H208 H 0.3921 0.2702 0.69482 0.0
H209 H 0.45967 0.02403 0.57404 0.0
Co210 Co 0.20305 0.19287 0.95755 0.0
C211 C 0.13826 0.17925 0.93892 0.0
Co212 Co 0.19689 0.19243 0.90201 0.0
C213 C 0.21773 0.21834 1.02469 0.0
C214 C 0.19992 0.16898 1.0257 0.0
N215 N 0.21031 0.19205 1.00424 0.0
N216 N 0.2085 0.2142 0.05757 0.0
C217 C 0.1985 0.18282 0.05882 0.0
H218 H 0.22384 0.24177 1.01452 0.0
H219 H 0.18924 0.14538 1.01715 0.0
C220 C 0.25764 0.21972 0.92381 0.0
N221 N 0.18747 0.19489 0.85438 0.0
C222 C 0.15882 0.18384 0.83538 0.0
C223 C 0.20369 0.21515 0.83333 0.0
N224 N 0.15718 0.19551 0.80301 0.0
C225 C 0.18545 0.21537 0.80191 0.0
C226 C 0.1716 0.24744 0.9297 0.0
O227 O 0.24746 0.21243 0.95346 0.0
O228 O 0.24608 0.20214 0.89754 0.0
O229 O 0.18835 0.23621 0.90413 0.0
O230 O 0.17927 0.23613 0.95948 0.0
O231 O 0.148 0.18483 0.90854 0.0
H232 H 0.22714 0.22924 0.84038 0.0
H233 H 0.14079 0.1658 0.84437 0.0
O234 O 0.16069 0.17669 0.96325 0.0
O235 O 0.22079 0.14954 0.95467 0.0
O236 O 0.20381 0.14627 0.89961 0.0
C237 C 0.20971 0.13239 0.92824 0.0
H238 H 0.18549 0.17249 0.08042 0.0
H239 H 0.19387 0.22726 0.77903 0.0
Co240 Co 0.42384 0.04186 0.18259 0.0
C241 C 0.47102 0.08703 0.15455 0.0
Co242 Co 0.39348 0.07785 0.15741 0.0
C243 C 0.4297 0.97805 0.20531 0.0
C244 C 0.47634 1.006 0.21992 0.0
N245 N 0.44518 1.00725 0.20189 0.0
N246 N 0.44901 0.95934 0.22609 0.0
C247 C 0.47892 0.97622 0.23477 0.0
H248 H 0.40408 0.97076 0.19444 0.0
H249 H 0.49473 0.02608 0.22392 0.0
C250 C 0.34538 0.03305 0.17687 0.0
N251 N 0.36927 0.11254 0.13818 0.0
C252 C 0.35885 0.13996 0.15644 0.0
C253 C 0.3624 0.11884 0.10468 0.0
N254 N 0.34964 0.16433 0.13588 0.0
C255 C 0.34995 0.15063 0.10317 0.0
C256 C 0.40798 0.02251 0.11704 0.0
O257 O 0.37496 0.01908 0.18494 0.0
O258 O 0.3473 0.06292 0.16998 0.0
O259 O 0.38785 0.048 0.11558 0.0
O260 O 0.43041 0.02088 0.14154 0.0
O261 O 0.44051 0.09503 0.14146 0.0
H262 H 0.36902 0.10261 0.08277 0.0
H263 H 0.36175 0.14388 0.18427 0.0
O264 O 0.47073 0.06494 0.17724 0.0
O265 O 0.41982 0.06121 0.22716 0.0
O266 O 0.39932 0.10394 0.20163 0.0
C267 C 0.41033 0.09077 0.22924 0.0
H268 H 0.49987 0.96869 0.25265 0.0
H269 H 0.34638 0.16385 0.07956 0.0
Co270 Co 0.21731 0.12788 0.41901 0.0
C271 C 0.24197 0.07423 0.37572 0.0
Co272 Co 0.22095 0.13982 0.36542 0.0
C273 C 0.18744 0.13155 0.48513 0.0
C274 C 0.22189 0.08951 0.47808 0.0
N275 N 0.21117 0.11752 0.46346 0.0
N276 N 0.18145 0.11225 0.51127 0.0
C277 C 0.20289 0.08584 0.50719 0.0
H278 H 0.172 0.15343 0.48005 0.0
H279 H 0.24072 0.0718 0.46754 0.0
C280 C 0.19752 0.19524 0.40437 0.0
N281 N 0.22266 0.14844 0.319 0.0
C282 C 0.24668 0.13471 0.29807 0.0
C283 C 0.21046 0.17472 0.30234 0.0
N284 N 0.25847 0.1563 0.27596 0.0
C285 C 0.23209 0.17909 0.27486 0.0
C286 C 0.15635 0.11754 0.38106 0.0
O287 O 0.19764 0.17421 0.42821 0.0
O288 O 0.20848 0.18525 0.37504 0.0
O289 O 0.17259 0.13029 0.35685 0.0
O290 O 0.17245 0.11271 0.40931 0.0
O291 O 0.23341 0.09489 0.35352 0.0
H292 H 0.19163 0.19256 0.31267 0.0
H293 H 0.26332 0.11463 0.3064 0.0
O294 O 0.23767 0.08299 0.40759 0.0
O295 O 0.2606 0.14177 0.43182 0.0
O296 O 0.27305 0.14984 0.37766 0.0
C297 C 0.28278 0.14926 0.41016 0.0
H298 H 0.20459 0.06537 0.52408 0.0
H299 H 0.23408 0.20206 0.26216 0.0
Co300 Co 0.17887 0.96666 0.70453 0.0
C301 C 0.14883 0.94693 0.76898 0.0
Co302 Co 0.12093 0.96402 0.70309 0.0
C303 C 0.24157 1.00004 0.68326 0.0
C304 C 0.25493 0.94962 0.6891 0.0
N305 N 0.22949 0.9721 0.69741 0.0
N306 N 0.27237 0.99566 0.66594 0.0
C307 C 0.2812 0.96396 0.67014 0.0
H308 H 0.2259 0.02236 0.68223 0.0
H309 H 0.25271 0.92368 0.69297 0.0
C310 C 0.14559 0.983 0.64185 0.0
N311 N 0.07326 0.96968 0.7016 0.0
C312 C 0.04805 0.95195 0.71485 0.0
C313 C 0.05576 0.9922 0.6826 0.0
N314 N 0.01564 0.96016 0.70188 0.0
C315 C 0.02029 0.98584 0.68207 0.0
C316 C 0.14817 0.02582 0.72268 0.0
O317 O 0.17456 0.9839 0.65915 0.0
O318 O 0.11911 0.97139 0.65561 0.0
O319 O 0.12089 1.00949 0.71449 0.0
O320 O 0.17801 0.01109 0.72366 0.0
O321 O 0.12094 0.9548 0.75156 0.0
H322 H 0.06826 0.01016 0.66735 0.0
H323 H 0.05405 0.92977 0.72842 0.0
O324 O 0.17944 0.94904 0.75405 0.0
O325 O 0.17839 0.92039 0.68403 0.0
O326 O 0.12032 0.91786 0.69044 0.0
C327 C 0.14935 0.90392 0.68086 0.0
H328 H 0.30333 0.95124 0.65797 0.0
H329 H 1.00024 0.99627 0.66494 0.0
Co330 Co 0.31331 0.91393 0.96139 0.0
C331 C 0.34174 0.88171 1.01884 0.0
Co332 Co 0.31531 0.85918 0.95367 0.0
C333 C 0.27653 0.97618 0.94168 0.0
C334 C 0.29963 0.98036 0.99306 0.0
N335 N 0.30095 0.96111 0.96368 0.0
N336 N 0.25942 1.00266 0.95662 0.0
C337 C 0.27465 1.00533 0.9889 0.0
H338 H 0.26799 0.96589 0.91651 0.0
H339 H 0.31265 0.97449 1.01744 0.0
C340 C 0.29063 0.88876 0.8974 0.0
N341 N 0.31662 0.81406 0.9464 0.0
C342 C 0.3288 0.79562 0.91899 0.0
C343 C 0.30207 0.79258 0.96706 0.0
N344 N 0.3234 0.76322 0.92227 0.0
C345 C 0.30636 0.76157 0.95255 0.0
C346 C 0.24878 0.88151 0.97936 0.0
O347 O 0.29555 0.91406 0.91668 0.0
O348 O 0.29897 0.86123 0.90864 0.0
O349 O 0.26578 0.85564 0.96973 0.0
O350 O 0.26493 0.90864 0.97825 0.0
O351 O 0.33338 0.85669 0.99951 0.0
H352 H 0.29019 0.79898 0.99174 0.0
H353 H 0.34433 0.80553 0.89877 0.0
O354 O 0.3339 0.91075 1.00881 0.0
O355 O 0.36318 0.91757 0.94412 0.0
O356 O 0.36378 0.8634 0.93824 0.0
C357 C 0.37998 0.89058 0.93586 0.0
H358 H 0.26631 0.0226 1.00936 0.0
H359 H 0.30051 0.73913 0.96506 0.0
Co360 Co 0.34813 0.99464 0.38718 0.0
C361 C 0.39909 0.95305 0.34786 0.0
Co362 Co 0.40398 0.98857 0.40613 0.0
C363 C 0.27673 0.0238 0.38534 0.0
C364 C 0.29577 0.01291 0.33433 0.0
N365 N 0.30142 1.00484 0.36763 0.0
N366 N 0.25918 0.04546 0.36527 0.0
C367 C 0.27011 0.03753 0.33281 0.0
H368 H 0.27456 0.02493 0.4133 0.0
H369 H 0.3131 1.00551 0.31339 0.0
C370 C 0.35779 0.02084 0.4507 0.0
N371 N 0.44538 0.98693 0.43188 0.0
C372 C 0.47891 0.99179 0.42266 0.0
C373 C 0.44748 0.98398 0.46664 0.0
N374 N 0.50202 0.9907 0.4501 0.0
C375 C 0.48182 0.98773 0.47799 0.0
C376 C 0.39545 0.04505 0.36787 0.0
O377 O 0.33412 0.01945 0.42705 0.0
O378 O 0.38803 0.01094 0.44306 0.0
O379 O 0.41906 0.02938 0.38525 0.0
O380 O 0.3641 0.03378 0.36602 0.0
O381 O 0.42218 0.96331 0.37012 0.0
H382 H 0.42551 0.97805 0.48263 0.0
H383 H 0.48682 0.99182 0.39587 0.0
O384 O 0.36691 0.96556 0.34785 0.0
O385 O 0.33224 0.95623 0.40753 0.0
O386 O 0.38814 0.94915 0.425 0.0
C387 C 0.35617 0.93881 0.42221 0.0
H388 H 0.26339 0.05117 0.31004 0.0
H389 H 0.49193 0.98222 0.50373 0.0
Co390 Co 0.29593 0.11329 0.61838 0.0
C391 C 0.30211 0.1516 0.55807 0.0
Co392 Co 0.28884 0.16827 0.62745 0.0
C393 C 0.27571 0.04745 0.63382 0.0
C394 C 0.32868 0.04549 0.6152 0.0
N395 N 0.29986 0.06561 0.61693 0.0
N396 N 0.28843 0.01785 0.64334 0.0
C397 C 0.32169 0.01628 0.63105 0.0
H398 H 0.25047 0.05723 0.64246 0.0
H399 H 0.35439 0.05276 0.60651 0.0
C400 C 0.28737 0.13191 0.68554 0.0
N401 N 0.27598 0.21324 0.63958 0.0
C402 C 0.27575 0.24161 0.62251 0.0
C403 C 0.26017 0.22225 0.66991 0.0
N404 N 0.26262 0.26772 0.64196 0.0
C405 C 0.25289 0.25523 0.67171 0.0
C406 C 0.22672 0.13196 0.61858 0.0
O407 O 0.29014 0.10776 0.6646 0.0
O408 O 0.28891 0.16029 0.67434 0.0
O409 O 0.23952 0.16036 0.62389 0.0
O410 O 0.24704 0.10807 0.61102 0.0
O411 O 0.29197 0.17547 0.57841 0.0
H412 H 0.2539 0.20609 0.69017 0.0
H413 H 0.28722 0.24349 0.59725 0.0
O414 O 0.30293 0.12198 0.56909 0.0
O415 O 0.34529 0.12 0.62638 0.0
O416 O 0.33779 0.17432 0.63189 0.0
C417 C 0.35802 0.14889 0.63073 0.0
H418 H 0.34067 0.99669 0.63556 0.0
H419 H 0.24235 0.26919 0.69378 0.0
Co420 Co 0.16662 0.03961 0.90396 0.0
C421 C 0.2285 0.019 0.94574 0.0
Co422 Co 0.16152 0.04771 0.95799 0.0
C423 C 0.15831 0.05853 0.83955 0.0
C424 C 0.21208 0.04372 0.84926 0.0
N425 N 0.1781 0.03893 0.85886 0.0
N426 N 0.17847 0.07887 0.8229 0.0
C427 C 0.21239 0.06921 0.82744 0.0
H428 H 0.12965 0.0603 0.84017 0.0
H429 H 0.23576 0.03342 0.86123 0.0
C430 C 0.09281 0.06135 0.924 0.0
N431 N 0.15558 0.05436 1.00479 0.0
C432 C 0.16952 0.03538 1.02864 0.0
C433 C 0.12991 0.07174 1.0213 0.0
N434 N 0.1459 0.03083 0.05346 0.0
C435 C 0.12454 0.05761 0.05226 0.0
C436 C 0.19246 0.10048 0.9329 0.0
O437 O 0.11311 0.05951 0.89715 0.0
O438 O 0.1101 0.05893 0.95244 0.0
O439 O 0.17673 0.09338 0.96023 0.0
O440 O 0.18895 0.08103 0.90709 0.0
O441 O 0.21069 0.03559 0.9677 0.0
H442 H 0.11221 0.08934 1.00941 0.0
H443 H 0.18958 0.0172 1.02172 0.0
O444 O 0.21481 0.01642 0.91488 0.0
O445 O 0.14785 1.0023 0.89542 0.0
O446 O 0.14814 0.99736 0.95171 0.0
C447 C 0.14342 0.98475 0.92005 0.0
H448 H 0.23542 0.08043 0.81688 0.0
H449 H 0.1004 0.06089 0.06674 0.0
Co450 Co 0.24981 0.93238 0.16411 0.0
C451 C 0.21132 0.89884 0.10907 0.0
Co452 Co 0.23023 0.8811 0.17354 0.0
C453 C 0.30598 0.9836 0.17172 0.0
C454 C 0.2573 1.00478 0.1527 0.0
N455 N 0.27167 0.97561 0.16065 0.0
N456 N 0.31344 0.01624 0.17085 0.0
C457 C 0.28247 0.02929 0.15866 0.0
H458 H 0.32513 0.96565 0.18071 0.0
H459 H 0.22999 1.00827 0.14383 0.0
C460 C 0.26575 0.90944 0.22852 0.0
N461 N 0.22039 0.83527 0.18161 0.0
C462 C 0.19163 0.81585 0.17557 0.0
C463 C 0.24682 0.81307 0.18817 0.0
N464 N 0.19961 0.78305 0.17655 0.0
C465 C 0.23454 0.78132 0.18389 0.0
C466 C 0.30068 0.88558 0.1491 0.0
O467 O 0.27026 0.93332 0.2093 0.0
O468 O 0.24469 0.88688 0.21843 0.0
O469 O 0.27823 0.86582 0.16008 0.0
O470 O 0.29204 0.9153 0.14736 0.0
O471 O 0.21429 0.87528 0.12902 0.0
H472 H 0.27416 0.8192 0.19484 0.0
H473 H 0.16573 0.82553 0.16825 0.0
O474 O 0.22627 0.92685 0.1173 0.0
O475 O 0.20574 0.9501 0.17995 0.0
O476 O 0.18271 0.90067 0.18541 0.0
C477 C 0.17862 0.93233 0.18478 0.0
H478 H 0.27814 0.055 0.15403 0.0
H479 H 0.24979 0.75896 0.18713 0.0
Co480 Co 0.1635 0.33185 0.08522 0.0
C481 C 0.20816 0.36454 0.13517 0.0
Co482 Co 0.15574 0.38326 0.08539 0.0
C483 C 0.18056 0.26773 0.0647 0.0
C484 C 0.17425 0.27216 0.11968 0.0
N485 N 0.16977 0.28843 0.08995 0.0
N486 N 0.1931 0.23975 0.07745 0.0
C487 C 0.18866 0.24161 0.11188 0.0
H488 H 0.18059 0.27373 0.03767 0.0
H489 H 0.17001 0.28271 0.14554 0.0
C490 C 0.10911 0.34963 0.03741 0.0
N491 N 0.15347 0.4264 0.08035 0.0
C492 C 0.17953 0.44722 0.09039 0.0
C493 C 0.13099 0.44369 0.06036 0.0
N494 N 0.17119 0.47793 0.0829 0.0
C495 C 0.14311 0.47497 0.06014 0.0
C496 C 0.20588 0.36137 0.03615 0.0
O497 O 0.12387 0.32447 0.05036 0.0
O498 O 0.11996 0.37742 0.04878 0.0
O499 O 0.19134 0.38531 0.05183 0.0
O500 O 0.19778 0.33284 0.04566 0.0
O501 O 0.19107 0.38884 0.12356 0.0
H502 H 0.10636 0.43489 0.04849 0.0
H503 H 0.20184 0.44122 0.1074 0.0
O504 O 0.20257 0.33733 0.11909 0.0
O505 O 0.1312 0.33233 0.12355 0.0
O506 O 0.1202 0.3844 0.1192 0.0
C507 C 0.11598 0.35838 0.13525 0.0
H508 H 0.19684 0.22318 0.12983 0.0
H509 H 0.12785 0.49527 0.05009 0.0
Co510 Co 0.63724 0.18009 0.95494 0.0
C511 C 0.69019 0.14381 0.92365 0.0
Co512 Co 0.62368 0.12707 0.94859 0.0
C513 C 0.63946 0.24032 0.99707 0.0
C514 C 0.64381 0.25151 0.94367 0.0
N515 N 0.64327 0.22597 0.96464 0.0
N516 N 0.63723 0.27339 0.9971 0.0
C517 C 0.64006 0.28065 0.9635 0.0
H518 H 0.63577 0.22657 1.01998 0.0
H519 H 0.64461 0.24914 0.91561 0.0
C520 C 0.57274 0.16176 0.98422 0.0
N521 N 0.61561 0.08078 0.95296 0.0
C522 C 0.63424 0.05311 0.94382 0.0
C523 C 0.59572 0.07051 0.97906 0.0
N524 N 0.62589 0.02603 0.96184 0.0
C525 C 0.60176 0.03801 0.98421 0.0
C526 C 0.66465 0.14409 1.00959 0.0
O527 O 0.59453 0.18484 0.98154 0.0
O528 O 0.5784 0.13509 0.9674 0.0
O529 O 0.64598 0.12205 0.99417 0.0
O530 O 0.6639 0.17243 0.99742 0.0
O531 O 0.669 0.12058 0.92963 0.0
H532 H 0.57839 0.08566 0.99504 0.0
H533 H 0.65318 0.05237 0.92325 0.0
O534 O 0.6811 0.17375 0.93046 0.0
O535 O 0.61115 0.1863 0.90848 0.0
O536 O 0.60241 0.13307 0.90021 0.0
C537 C 0.59998 0.1622 0.88809 0.0
H538 H 0.63814 0.30502 0.95372 0.0
H539 H 0.58651 0.02331 1.00101 0.0
Co540 Co 0.08521 0.39023 0.23427 0.0
C541 C 0.1239 0.44309 0.21041 0.0
Co542 Co 0.14105 0.38191 0.23693 0.0
C543 C 1.01303 0.37366 0.24202 0.0
C544 C 0.01943 0.42525 0.2386 0.0
N545 N 0.03621 0.39628 0.23257 0.0
N546 N 0.98418 0.38719 0.25694 0.0
C547 C 0.98761 0.41969 0.25391 0.0
H548 H 0.01974 0.34804 0.2442 0.0
H549 H 0.03205 0.44886 0.23802 0.0
C550 C 0.10697 0.32902 0.26055 0.0
N551 N 0.18781 0.37051 0.24285 0.0
C552 C 0.20726 0.37617 0.27247 0.0
C553 C 0.20094 0.34198 0.22927 0.0
N554 N 0.23318 0.35346 0.27723 0.0
C555 C 0.22724 0.33084 0.25093 0.0
C556 C 0.1139 0.41105 0.29795 0.0
O557 O 0.08028 0.34852 0.26045 0.0
O558 O 0.13426 0.3386 0.24706 0.0
O559 O 0.14032 0.39545 0.28593 0.0
O560 O 0.08663 0.41423 0.27829 0.0
O561 O 0.14964 0.42675 0.22422 0.0
H562 H 0.19005 0.32854 0.20658 0.0
H563 H 0.20535 0.39866 0.28841 0.0
O564 O 0.09254 0.43119 0.21052 0.0
O565 O 0.08345 0.36714 0.18832 0.0
O566 O 0.14169 0.36912 0.18998 0.0
C567 C 0.11299 0.36282 0.17312 0.0
H568 H 0.97172 0.43819 0.2675 0.0
H569 H 0.24435 0.30997 0.24481 0.0
Co570 Co 0.90096 0.8695 0.47002 0.0
C571 C 0.83815 0.89199 0.44422 0.0
Co572 Co 0.89903 0.92256 0.46814 0.0
C573 C 0.90999 0.80943 0.49865 0.0
C574 C 0.88869 0.8027 0.44675 0.0
N575 N 0.90112 0.82556 0.47052 0.0
N576 N 0.90231 0.77769 0.49429 0.0
C577 C 0.88904 0.77275 0.46173 0.0
H578 H 0.91904 0.8213 0.52295 0.0
H579 H 0.87764 0.8079 0.4213 0.0
C580 C 0.95608 0.89875 0.50684 0.0
N581 N 0.89821 0.96783 0.46619 0.0
C582 C 0.8767 0.98602 0.44589 0.0
C583 C 0.92122 0.98942 0.48177 0.0
N584 N 0.88655 0.01766 0.44671 0.0
C585 C 0.91466 0.01982 0.4692 0.0
C586 C 0.86877 0.90274 0.52482 0.0
O587 O 0.94423 0.87103 0.49646 0.0
O588 O 0.94549 0.92378 0.49067 0.0
O589 O 0.87942 0.92744 0.50999 0.0
O590 O 0.87664 0.87399 0.51303 0.0
O591 O 0.85178 0.92012 0.44922 0.0
H592 H 0.94308 0.98331 0.49923 0.0
H593 H 0.85752 0.9755 0.42709 0.0
O594 O 0.85724 0.86677 0.44722 0.0
O595 O 0.92331 0.86513 0.42667 0.0
O596 O 0.9175 0.91803 0.4229 0.0
C597 C 0.9236 0.89002 0.40837 0.0
H598 H 0.87759 0.75016 0.45096 0.0
H599 H 0.93126 0.04119 0.47378 0.0
Co600 Co 0.92268 0.11385 0.20193 0.0
C601 C 0.88834 0.06933 0.15473 0.0
Co602 Co 0.8671 0.12537 0.19685 0.0
C603 C 0.99392 0.13262 0.21342 0.0
C604 C 0.98958 0.08056 0.21512 0.0
N605 N 0.97124 0.10765 0.20662 0.0
N606 N 0.02489 0.12278 0.22802 0.0
C607 C 0.02256 0.08987 0.22855 0.0
H608 H 0.9859 0.15813 0.21312 0.0
H609 H 0.97811 0.05647 0.21611 0.0
C610 C 0.90094 0.17143 0.24128 0.0
N611 N 0.81944 0.13381 0.19823 0.0
C612 C 0.79333 0.11731 0.18132 0.0
C613 C 0.80252 0.1559 0.21959 0.0
N614 N 0.76112 0.12994 0.18894 0.0
C615 C 0.76679 0.15411 0.21319 0.0
C616 C 0.8835 0.08698 0.25655 0.0
O617 O 0.92693 0.15176 0.23673 0.0
O618 O 0.87348 0.16621 0.22249 0.0
O619 O 0.85928 0.10289 0.24082 0.0
O620 O 0.91429 0.08654 0.24292 0.0
O621 O 0.86141 0.0844 0.16801 0.0
H622 H 0.8148 0.1732 0.23817 0.0
H623 H 0.79806 0.09942 0.16026 0.0
O624 O 0.91862 0.07646 0.16881 0.0
O625 O 0.93009 0.13958 0.15985 0.0
O626 O 0.87266 0.14665 0.15312 0.0
C627 C 0.90359 0.14822 0.14041 0.0
H628 H 0.04085 0.07439 0.24279 0.0
H629 H 0.7468 0.17123 0.22297 0.0
Co630 Co 0.37696 0.66324 0.53509 0.0
C631 C 0.3155 0.63881 0.56857 0.0
Co632 Co 0.37755 0.61084 0.54111 0.0
C633 C 0.39238 0.72081 0.49858 0.0
C634 C 0.36035 0.73469 0.54183 0.0
N635 N 0.37654 0.70846 0.52626 0.0
N636 N 0.38676 0.75335 0.49597 0.0
C637 C 0.36638 0.76228 0.52314 0.0
H638 H 0.40603 0.7058 0.4792 0.0
H639 H 0.34427 0.73371 0.56457 0.0
C640 C 0.43757 0.63058 0.50254 0.0
N641 N 0.38522 0.56696 0.54224 0.0
C642 C 0.37482 0.54642 0.51547 0.0
C643 C 0.41651 0.55415 0.55344 0.0
N644 N 0.39626 0.52008 0.51102 0.0
C645 C 0.42369 0.52613 0.53397 0.0
C646 C 0.33929 0.62685 0.48274 0.0
O647 O 0.42583 0.65925 0.51149 0.0
O648 O 0.42017 0.60735 0.5134 0.0
O649 O 0.34887 0.60363 0.50078 0.0
O650 O 0.35236 0.65503 0.4904 0.0
O651 O 0.33374 0.61208 0.56651 0.0
H652 H 0.43446 0.56555 0.57273 0.0
H653 H 0.34873 0.54751 0.50281 0.0
O654 O 0.32904 0.66485 0.55691 0.0
O655 O 0.3982 0.67139 0.5827 0.0
O656 O 0.40392 0.61835 0.58539 0.0
C657 C 0.40587 0.64664 0.60088 0.0
H658 H 0.35568 0.78666 0.52854 0.0
H659 H 0.44528 0.50919 0.53949 0.0
Co660 Co 0.07582 0.63884 0.28036 0.0
C661 C 0.08834 0.58789 0.32084 0.0
Co662 Co 0.13083 0.63304 0.2942 0.0
C663 C 0.01452 0.66261 0.23755 0.0
C664 C 1.00397 0.61727 0.26053 0.0
N665 N 0.0272 0.6423 0.26263 0.0
N666 N 0.98607 0.65018 0.21908 0.0
C667 C 0.97956 0.62167 0.23374 0.0
H668 H 0.0288 0.68343 0.22903 0.0
H669 H 1.0069 0.59499 0.27433 0.0
C670 C 0.11395 0.68253 0.2463 0.0
N671 N 0.17858 0.63315 0.30276 0.0
C672 C 0.20117 0.60896 0.31148 0.0
C673 C 0.19955 0.65782 0.29389 0.0
N674 N 0.23538 0.61821 0.30939 0.0
C675 C 0.23407 0.64815 0.29612 0.0
C676 C 0.11755 0.59389 0.23829 0.0
O677 O 0.08386 0.67954 0.25898 0.0
O678 O 0.13864 0.66458 0.25804 0.0
O679 O 0.13958 0.60033 0.26226 0.0
O680 O 0.08858 0.61137 0.23679 0.0
O681 O 0.11989 0.59952 0.32606 0.0
H682 H 0.1907 0.68204 0.28717 0.0
H683 H 0.19268 0.5863 0.32202 0.0
O684 O 0.06687 0.60097 0.29983 0.0
O685 O 0.06778 0.66012 0.32915 0.0
O686 O 0.12539 0.66539 0.33186 0.0
C687 C 0.09637 0.66622 0.34807 0.0
H688 H 0.96038 0.6037 0.2238 0.0
H689 H 0.25658 0.66413 0.29358 0.0
Co690 Co 0.4129 0.4017 0.80484 0.0
C691 C 0.3821 0.45852 0.83119 0.0
Co692 Co 0.35951 0.39461 0.82015 0.0
C693 C 0.46132 0.39795 0.75141 0.0
C694 C 0.48606 0.42274 0.79606 0.0
N695 N 0.4564 0.40662 0.78531 0.0
N696 N 0.49213 0.4087 0.74021 0.0
C697 C 0.50833 0.4239 0.76825 0.0
H698 H 0.4416 0.38569 0.73452 0.0
H699 H 0.4903 0.43434 0.82167 0.0
C700 C 0.38423 0.34093 0.78629 0.0
N701 N 0.31311 0.38774 0.82915 0.0
C702 C 0.29077 0.40379 0.85037 0.0
C703 C 0.29229 0.36652 0.80989 0.0
N704 N 0.25757 0.39147 0.84711 0.0
C705 C 0.25846 0.36842 0.82118 0.0
C706 C 0.36137 0.41783 0.75845 0.0
O707 O 0.41089 0.35886 0.7824 0.0
O708 O 0.3637 0.34936 0.81031 0.0
O709 O 0.3412 0.40189 0.77624 0.0
O710 O 0.39397 0.41826 0.76584 0.0
O711 O 0.35475 0.44052 0.83064 0.0
H712 H 0.30103 0.35044 0.78887 0.0
H713 H 0.29969 0.42133 0.87071 0.0
O714 O 0.41253 0.44563 0.82471 0.0
O715 O 0.43316 0.3866 0.84725 0.0
O716 O 0.37788 0.38861 0.86573 0.0
C717 C 0.41143 0.38587 0.87201 0.0
H718 H 0.53367 0.43626 0.76826 0.0
H719 H 0.2371 0.35171 0.81364 0.0
Co720 Co 0.97038 0.88683 0.6467 0.0
C721 C 0.99258 0.9363 0.69403 0.0
Co722 Co 0.97142 0.87578 0.70358 0.0
C723 C 0.96473 0.88392 0.56755 0.0
C724 C 0.98439 0.92917 0.58968 0.0
N725 N 0.97266 0.8996 0.59886 0.0
N726 N 0.97009 0.90301 0.53998 0.0
C727 C 0.98242 0.93141 0.55425 0.0
H728 H 0.95285 0.85988 0.56516 0.0
H729 H 0.99321 0.94893 0.60733 0.0
C730 C 0.9508 0.82525 0.65971 0.0
N731 N 0.97105 0.86631 0.75032 0.0
C732 C 0.99679 0.87602 0.7735 0.0
C733 C 0.94253 0.86075 0.76979 0.0
N734 N 0.98513 0.87808 0.80618 0.0
C735 C 0.951 0.86871 0.80433 0.0
C736 C 0.9085 0.90117 0.67981 0.0
O737 O 0.9544 0.8439 0.63429 0.0
O738 O 0.95543 0.83573 0.6909 0.0
O739 O 0.92524 0.89147 0.7064 0.0
O740 O 0.9235 0.90163 0.65057 0.0
O741 O 0.98777 0.91583 0.71662 0.0
H742 H 0.91615 0.85517 0.75929 0.0
H743 H 0.02201 0.8858 0.76622 0.0
O744 O 0.98607 0.92851 0.66224 0.0
O745 O 0.0167 0.87091 0.6438 0.0
O746 O 0.01786 0.85916 0.69925 0.0
C747 C 0.03182 0.85769 0.66952 0.0
H748 H 0.98804 0.95299 0.54015 0.0
H749 H 0.93288 0.87035 0.82566 0.0
Co750 Co 0.90284 0.21461 0.37392 0.0
C751 C 0.84605 0.23941 0.41046 0.0
Co752 Co 0.90663 0.20595 0.43077 0.0
C753 C 0.91497 0.19344 0.30061 0.0
C754 C 0.87683 0.23269 0.30472 0.0
N755 N 0.90063 0.21586 0.32401 0.0
N756 N 0.90007 0.19497 0.26808 0.0
C757 C 0.87606 0.21973 0.2709 0.0
H758 H 0.93247 0.1736 0.30818 0.0
H759 H 0.85877 0.25124 0.31506 0.0
C760 C 0.9629 0.1813 0.3971 0.0
N761 N 0.9066 0.20505 0.48028 0.0
C762 C 0.8972 0.23129 0.50141 0.0
C763 C 0.91297 0.18082 0.50239 0.0
N764 N 0.89747 0.22445 0.53546 0.0
C765 C 0.90738 0.19264 0.53629 0.0
C766 C 0.87825 0.15165 0.39193 0.0
O767 O 0.9459 0.19163 0.3708 0.0
O768 O 0.95234 0.18807 0.42776 0.0
O769 O 0.88842 0.16089 0.42299 0.0
O770 O 0.8788 0.1726 0.36843 0.0
O771 O 0.861 0.22226 0.43317 0.0
H772 H 0.9208 0.15609 0.49444 0.0
H773 H 0.88953 0.2549 0.49184 0.0
O774 O 0.85891 0.23936 0.38009 0.0
O775 O 0.92764 0.2563 0.38003 0.0
O776 O 0.92628 0.25126 0.43645 0.0
C777 C 0.93379 0.26856 0.41089 0.0
H778 H 0.85746 0.22669 0.25044 0.0
H779 H 0.91047 0.1789 0.55953 0.0
Co780 Co 0.54067 0.16127 0.11494 0.0
C781 C 0.50461 0.10726 0.1477 0.0
Co782 Co 0.54939 0.1591 0.17146 0.0
C783 C 0.55575 0.17417 0.04317 0.0
C784 C 0.51197 0.1416 0.04658 0.0
N785 N 0.53423 0.16095 0.06629 0.0
N786 N 0.54887 0.16257 1.01014 0.0
C787 C 0.52139 0.14199 1.01235 0.0
H788 H 0.57918 0.1882 0.05093 0.0
H789 H 0.49207 0.12595 0.05652 0.0
C790 C 0.57699 0.21725 0.14522 0.0
N791 N 0.55824 0.15885 0.21908 0.0
C792 C 0.53812 0.14616 0.24331 0.0
C793 C 0.58931 0.1667 0.23611 0.0
N794 N 0.55565 0.14549 0.27427 0.0
C795 C 0.58777 0.15841 0.27037 0.0
C796 C 0.60734 0.13113 0.13323 0.0
O797 O 0.56786 0.20372 0.11549 0.0
O798 O 0.57142 0.20139 0.17198 0.0
O799 O 0.59695 0.13816 0.16406 0.0
O800 O 0.58529 0.13662 0.10837 0.0
O801 O 0.52469 0.11697 0.17328 0.0
H802 H 0.61222 0.17654 0.22402 0.0
H803 H 0.51172 0.13641 0.23819 0.0
O804 O 0.50975 0.12048 0.1185 0.0
O805 O 0.49906 0.18501 0.11948 0.0
O806 O 0.50271 0.18095 0.17632 0.0
C807 C 0.48555 0.18987 0.14889 0.0
H808 H 0.5107 0.12634 0.99114 0.0
H809 H 0.60852 0.16089 0.2904 0.0
Co810 Co 0.62906 0.77629 0.88138 0.0
C811 C 0.67946 0.72876 0.90786 0.0
Co812 Co 0.63052 0.7725 0.93802 0.0
C813 C 0.60506 0.80294 0.81497 0.0
C814 C 0.6431 0.76417 0.80673 0.0
N815 N 0.62515 0.78017 0.8321 0.0
N816 N 0.6101 0.80219 0.78041 0.0
C817 C 0.63455 0.77793 0.77543 0.0
H818 H 0.59048 0.8228 0.82777 0.0
H819 H 0.66308 0.74545 0.81096 0.0
C820 C 0.57553 0.81245 0.91125 0.0
N821 N 0.63065 0.77577 0.98479 0.0
C822 C 0.63265 0.75122 1.00613 0.0
C823 C 0.62656 0.80326 1.00552 0.0
N824 N 0.62931 0.76214 0.03925 0.0
C825 C 0.62566 0.79479 0.03957 0.0
C826 C 0.66972 0.82349 0.9169 0.0
O827 O 0.58838 0.80346 0.88282 0.0
O828 O 0.59135 0.80371 0.93886 0.0
O829 O 0.66351 0.80544 0.94143 0.0
O830 O 0.6589 0.81439 0.88619 0.0
O831 O 0.66779 0.73918 0.93719 0.0
H832 H 0.62313 0.82774 0.99633 0.0
H833 H 0.63547 0.72581 0.99731 0.0
O834 O 0.67016 0.74453 0.88059 0.0
O835 O 0.60009 0.74031 0.8789 0.0
O836 O 0.59822 0.73866 0.93612 0.0
C837 C 0.59029 0.72673 0.90605 0.0
H838 H 0.64784 0.77241 0.75123 0.0
H839 H 0.62098 0.81075 0.06225 0.0
Co840 Co 0.01811 0.13401 0.92432 0.0
C841 C 0.96476 0.16196 0.89337 0.0
Co842 Co 0.98093 0.0992 0.90639 0.0
C843 C 0.07753 0.17228 0.924 0.0
C844 C 0.05721 0.16835 0.97524 0.0
N845 N 0.04907 0.16341 0.94095 0.0
N846 N 0.10415 0.17875 0.94652 0.0
C847 C 0.09158 0.17776 0.97872 0.0
H848 H 0.08076 0.169 0.89624 0.0
H849 H 0.04178 0.16062 0.99651 0.0
C850 C 0.05322 0.07538 0.92578 0.0
N851 N 0.94137 0.07262 0.88996 0.0
C852 C 0.91313 0.08645 0.87228 0.0
C853 C 0.92668 0.04714 0.90504 0.0
N854 N 0.88147 0.07296 0.87842 0.0
C855 C 0.89027 0.04692 0.8975 0.0
C856 C 0.02322 0.11303 0.85423 0.0
O857 O 0.04897 0.10167 0.9441 0.0
O858 O 0.02386 0.06407 0.91049 0.0
O859 O 0.99354 0.10117 0.86057 0.0
O860 O 0.04188 0.12622 0.87947 0.0
O861 O 0.94892 0.136 0.89982 0.0
H862 H 0.94025 0.03273 0.92434 0.0
H863 H 0.91492 0.10837 0.85776 0.0
O864 O 0.99577 0.16611 0.90448 0.0
O865 O 0.98922 0.14321 0.9672 0.0
O866 O 0.96362 0.09702 0.95486 0.0
C867 C 0.96572 0.12292 0.97486 0.0
H868 H 0.10718 0.18012 1.00284 0.0
H869 H 0.87132 0.03171 0.90971 0.0
Co870 Co 0.60482 0.24303 0.66152 0.0
C871 C 0.56261 0.19571 0.6292 0.0
Co872 Co 0.63921 0.20365 0.64255 0.0
C873 C 0.59164 0.30936 0.66642 0.0
C874 C 0.5617 0.28542 0.70391 0.0
N875 N 0.5822 0.27967 0.67634 0.0
N876 N 0.57722 0.33384 0.68541 0.0
C877 C 0.55854 0.31866 0.70941 0.0
H878 H 0.60745 0.31343 0.64407 0.0
H879 H 0.5497 0.26688 0.71876 0.0
C880 C 0.67576 0.25807 0.6718 0.0
N881 N 0.66605 0.16626 0.63046 0.0
C882 C 0.65236 0.13581 0.6278 0.0
C883 C 0.70159 0.16135 0.6338 0.0
N884 N 0.67743 0.11225 0.63111 0.0
C885 C 0.70866 0.12808 0.63445 0.0
C886 C 0.63084 0.24835 0.59272 0.0
O887 O 0.64412 0.26472 0.678 0.0
O888 O 0.68295 0.22963 0.65796 0.0
O889 O 0.64408 0.21999 0.59693 0.0
O890 O 0.6118 0.2612 0.61662 0.0
O891 O 0.59268 0.18064 0.62632 0.0
H892 H 0.72088 0.18049 0.63909 0.0
H893 H 0.62424 0.13084 0.6285 0.0
O894 O 0.56265 0.22384 0.64452 0.0
O895 O 0.5988 0.22463 0.70641 0.0
O896 O 0.6363 0.1868 0.68906 0.0
C897 C 0.61752 0.19958 0.71316 0.0
H898 H 0.54021 0.33088 0.72709 0.0
H899 H 0.73426 0.11675 0.64009 0.0
Co900 Co 0.56205 0.87851 0.4461 0.0
C901 C 0.58506 0.84792 0.50548 0.0
Co902 Co 0.57096 0.82756 0.43461 0.0
C903 C 0.5309 0.94012 0.43746 0.0
C904 C 0.57418 0.94315 0.4745 0.0
N905 N 0.55482 0.92183 0.45411 0.0
N906 N 0.53305 0.97193 0.44775 0.0
C907 C 0.56024 0.97409 0.47123 0.0
H908 H 0.50971 0.92983 0.42082 0.0
H909 H 0.59659 0.93644 0.49088 0.0
C910 C 0.5514 0.86221 0.37535 0.0
N911 N 0.58564 0.78459 0.42586 0.0
C912 C 0.61471 0.77307 0.44364 0.0
C913 C 0.58988 0.77316 0.3928 0.0
N914 N 0.63875 0.75975 0.42221 0.0
C915 C 0.62283 0.75896 0.39029 0.0
C916 C 0.50024 0.83671 0.44414 0.0
O917 O 0.55718 0.88532 0.39768 0.0
O918 O 0.55375 0.83295 0.3855 0.0
O919 O 0.52494 0.81515 0.44458 0.0
O920 O 0.50926 0.86712 0.44627 0.0
O921 O 0.58737 0.82414 0.48332 0.0
H922 H 0.57258 0.77846 0.37084 0.0
H923 H 0.6208 0.778 0.47096 0.0
O924 O 0.56911 0.87365 0.49567 0.0
O925 O 0.6107 0.88848 0.44417 0.0
O926 O 0.6176 0.8388 0.42313 0.0
C927 C 0.63055 0.86642 0.43123 0.0
H928 H 0.56707 0.99575 0.48721 0.0
H929 H 0.63453 0.74947 0.36645 0.0
Co930 Co 0.82983 0.82729 0.15925 0.0
C931 C 0.76905 0.80005 0.13745 0.0
Co932 Co 0.82366 0.82685 0.10372 0.0
C933 C 0.86788 0.83588 0.22588 0.0
C934 C 0.82301 0.80457 0.22794 0.0
N935 N 0.83923 0.82482 0.20689 0.0
N936 N 0.86951 0.82422 0.25826 0.0
C937 C 0.84124 0.80436 0.25937 0.0
H938 H 0.88592 0.85391 0.2169 0.0
H939 H 0.79955 0.79049 0.22089 0.0
C940 C 0.88847 0.84039 0.12235 0.0
N941 N 0.8164 0.82769 0.05703 0.0
C942 C 0.80896 0.80141 0.03657 0.0
C943 C 0.82681 0.85075 0.03557 0.0
N944 N 0.81819 0.80556 1.00369 0.0
C945 C 0.82822 0.83693 1.00245 0.0
C946 C 0.81705 0.88734 0.13303 0.0
O947 O 0.87872 0.83483 0.15273 0.0
O948 O 0.86605 0.843 0.09802 0.0
O949 O 0.80596 0.87019 0.1066 0.0
O950 O 0.82296 0.87345 0.16165 0.0
O951 O 0.77922 0.80734 0.1078 0.0
H952 H 0.83751 0.87435 0.04413 0.0
H953 H 0.80283 0.77797 0.04673 0.0
O954 O 0.78062 0.81762 0.16373 0.0
O955 O 0.83831 0.7835 0.15713 0.0
O956 O 0.8474 0.78357 0.10179 0.0
C957 C 0.85505 0.77226 0.13156 0.0
H958 H 0.83281 0.79248 0.28225 0.0
H959 H 0.84123 0.84726 0.98086 0.0
Co960 Co 0.63322 0.94191 0.90386 0.0
C961 C 0.68131 0.9867 0.88439 0.0
Co962 Co 0.60286 0.9779 0.87869 0.0
C963 C 0.66785 0.87979 0.90481 0.0
C964 C 0.66432 0.90091 0.95657 0.0
N965 N 0.65744 0.90721 0.92307 0.0
N966 N 0.67708 0.85542 0.92537 0.0
C967 C 0.67678 0.86912 0.95808 0.0
H968 H 0.66494 0.87587 0.87698 0.0
H969 H 0.65771 0.91714 0.97849 0.0
C970 C 0.55568 0.93272 0.90673 0.0
N971 N 0.58152 0.01252 0.8594 0.0
C972 C 0.59699 0.04172 0.85599 0.0
C973 C 0.55036 0.01376 0.84135 0.0
N974 N 0.57769 0.06042 0.83519 0.0
C975 C 0.54778 0.04354 0.8265 0.0
C976 C 0.61636 0.92899 0.83203 0.0
O977 O 0.58619 0.92471 0.91981 0.0
O978 O 0.55597 0.95483 0.88405 0.0
O979 O 0.60686 0.95855 0.83411 0.0
O980 O 0.62737 0.91582 0.85963 0.0
O981 O 0.65174 1.00068 0.87633 0.0
H982 H 0.53198 0.99368 0.83735 0.0
H983 H 0.62261 0.04902 0.86687 0.0
O984 O 0.67939 0.95684 0.89129 0.0
O985 O 0.63886 0.97173 0.94569 0.0
O986 O 0.5963 0.99888 0.91974 0.0
C987 C 0.61874 0.99724 0.94423 0.0
H988 H 0.68036 0.85591 0.98169 0.0
H989 H 0.52683 0.05106 0.80861 0.0
Co990 Co 0.80574 0.87993 0.69584 0.0
C991 C 0.82917 0.82452 0.65688 0.0
Co992 Co 0.80939 0.89188 0.64225 0.0
C993 C 0.78001 0.88504 0.76319 0.0
C994 C 0.81623 0.84502 0.75891 0.0
N995 N 0.80403 0.87131 0.74225 0.0
N996 N 0.76822 0.86345 0.7853 0.0
C997 C 0.7946 0.84066 0.7864 0.0
H998 H 0.76337 0.90512 0.75486 0.0
H999 H 0.83505 0.82719 0.74859 0.0
C1000 C 0.78472 0.94552 0.68554 0.0
N1001 N 0.81552 0.90225 0.5978 0.0
C1002 C 0.83926 0.88822 0.57614 0.0
C1003 C 0.80481 0.93026 0.58319 0.0
N1004 N 0.84526 0.90753 0.55 0.0
C1005 C 0.82382 0.93394 0.55409 0.0
C1006 C 0.74391 0.8705 0.6511 0.0
O1007 O 0.79328 0.92486 0.70775 0.0
O1008 O 0.78902 0.93677 0.65367 0.0
O1009 O 0.76609 0.87799 0.62943 0.0
O1010 O 0.75364 0.86991 0.6836 0.0
O1011 O 0.82906 0.84555 0.63305 0.0
H1012 H 0.78598 0.94797 0.59373 0.0
H1013 H 0.85469 0.86634 0.5812 0.0
O1014 O 0.81821 0.83451 0.68621 0.0
O1015 O 0.8541 0.88947 0.70442 0.0
O1016 O 0.85424 0.90705 0.65195 0.0
C1017 C 0.87035 0.90222 0.68021 0.0
H1018 H 0.79261 0.81769 0.7991 0.0
H1019 H 0.82212 0.95442 0.5372 0.0
Co1020 Co 0.90573 0.05571 0.35815 0.0
C1021 C 0.88106 0.03675 0.4194 0.0
Co1022 Co 0.84778 0.05311 0.35673 0.0
C1023 C 0.9786 0.06784 0.34643 0.0
C1024 C 0.97091 0.02752 0.3786 0.0
N1025 N 0.9534 0.05005 0.35962 0.0
N1026 N 1.01098 0.05964 0.35945 0.0
C1027 C 1.00638 0.03391 0.37919 0.0
H1028 H 0.97259 0.09003 0.3329 0.0
H1029 H 0.9584 1.00952 0.39382 0.0
C1030 C 0.87782 0.07284 0.29227 0.0
N1031 N 0.79716 0.04767 0.36384 0.0
C1032 C 0.78508 0.01973 0.37799 0.0
C1033 C 0.77172 0.07015 0.37216 0.0
N1034 N 0.75429 0.0241 0.39532 0.0
C1035 C 0.74546 0.05581 0.39113 0.0
C1036 C 0.87732 0.11583 0.38041 0.0
O1037 O 0.90571 0.06497 0.30968 0.0
O1038 O 0.84721 0.07071 0.3072 0.0
O1039 O 0.84826 0.09938 0.37722 0.0
O1040 O 0.90635 0.10187 0.37084 0.0
O1041 O 0.85207 0.03589 0.40212 0.0
H1042 H 0.77395 0.09609 0.36831 0.0
H1043 H 0.80075 0.9974 0.37902 0.0
O1044 O 0.90757 0.0483 0.40562 0.0
O1045 O 0.90577 0.01025 0.34671 0.0
O1046 O 0.84864 1.00866 0.33761 0.0
C1047 C 0.87848 0.99394 0.33855 0.0
H1048 H 0.02643 0.02348 0.39633 0.0
H1049 H 0.72333 0.06853 0.40331 0.0
Co1050 Co 0.71139 0.16056 0.1076 0.0
C1051 C 0.73604 0.13097 0.16387 0.0
Co1052 Co 0.71338 0.1058 0.09989 0.0
C1053 C 0.6979 0.22412 0.14229 0.0
C1054 C 0.72463 0.22716 0.09421 0.0
N1055 N 0.71008 0.20568 0.11487 0.0
N1056 N 0.7033 0.25652 0.13901 0.0
C1057 C 0.72033 0.25817 0.10873 0.0
H1058 H 0.68237 0.21421 0.1625 0.0
H1059 H 0.7365 0.22076 0.06953 0.0
C1060 C 0.68495 0.13803 0.04243 0.0
N1061 N 0.72574 0.05862 0.09759 0.0
C1062 C 0.75015 0.04355 0.11958 0.0
C1063 C 0.72706 0.03938 0.0682 0.0
N1064 N 0.76727 0.01708 0.10464 0.0
C1065 C 0.75204 0.01441 0.07236 0.0
C1066 C 0.64672 0.12916 0.12542 0.0
O1067 O 0.6933 0.16305 0.06177 0.0
O1068 O 0.6928 0.10899 0.05246 0.0
O1069 O 0.66351 0.10216 0.11715 0.0
O1070 O 0.66293 0.15634 0.12304 0.0
O1071 O 0.73112 0.10566 0.14461 0.0
H1072 H 0.71404 0.04526 0.04382 0.0
H1073 H 0.75869 0.05383 0.14476 0.0
O1074 O 0.72775 0.1585 0.15263 0.0
O1075 O 0.76091 0.1641 0.09153 0.0
O1076 O 0.76177 0.11109 0.08304 0.0
C1077 C 0.77792 0.13823 0.08191 0.0
H1078 H 0.72618 0.28061 0.09621 0.0
H1079 H 0.76038 0.99715 0.05189 0.0
Co1080 Co 0.62271 0.03119 0.65515 0.0
C1081 C 0.66888 0.99892 0.61057 0.0
Co1082 Co 0.67856 0.02512 0.67409 0.0
C1083 C 0.54778 0.02798 0.63865 0.0
C1084 C 0.57919 0.03581 0.59465 0.0
N1085 N 0.58131 0.03283 0.62942 0.0
N1086 N 0.52468 0.02911 0.61123 0.0
C1087 C 0.54484 0.0321 0.5833 0.0
H1088 H 0.53988 0.02795 0.66545 0.0
H1089 H 0.60115 0.04173 0.57865 0.0
C1090 C 0.62762 0.06671 0.71342 0.0
N1091 N 0.72527 0.01491 0.69363 0.0
C1092 C 0.74995 0.99595 0.67592 0.0
C1093 C 0.73093 1.00685 0.72693 0.0
N1094 N 0.76751 0.9743 0.69599 0.0
C1095 C 0.75659 0.98223 0.72845 0.0
C1096 C 0.67052 0.08095 0.63906 0.0
O1097 O 0.60452 0.05644 0.69116 0.0
O1098 O 0.65979 0.0542 0.71343 0.0
O1099 O 0.69445 0.06353 0.65374 0.0
O1100 O 0.63855 0.07061 0.63628 0.0
O1101 O 0.69256 1.00031 0.63422 0.0
H1102 H 0.7136 0.01425 0.74788 0.0
H1103 H 0.75212 0.99481 0.64797 0.0
O1104 O 0.63864 1.00882 0.6182 0.0
O1105 O 0.60763 0.99038 0.67602 0.0
O1106 O 0.66259 0.98598 0.69525 0.0
C1107 C 0.63124 0.97471 0.69341 0.0
H1108 H 0.5347 0.03763 0.55758 0.0
H1109 H 0.76331 0.9686 0.75122 0.0
Co1110 Co 0.73784 0.85149 0.43381 0.0
C1111 C 0.7393 0.88784 0.37572 0.0
Co1112 Co 0.73075 0.90647 0.44288 0.0
C1113 C 0.75092 0.77815 0.43875 0.0
C1114 C 0.76652 0.79752 0.39137 0.0
N1115 N 0.75071 0.80652 0.42169 0.0
N1116 N 0.76406 0.75205 0.41931 0.0
C1117 C 0.7738 0.76454 0.38956 0.0
H1118 H 0.73943 0.77627 0.464 0.0
H1119 H 0.77281 0.81369 0.37111 0.0
C1120 C 0.72457 0.86816 0.50319 0.0
N1121 N 0.7268 0.95415 0.44433 0.0
C1122 C 0.75095 0.97232 0.42744 0.0
C1123 C 0.69799 0.97427 0.44606 0.0
N1124 N 0.73822 1.00192 0.41792 0.0
C1125 C 0.70497 1.00349 0.43022 0.0
C1126 C 0.66866 0.87087 0.43054 0.0
O1127 O 0.73472 0.84429 0.48286 0.0
O1128 O 0.72375 0.89778 0.49217 0.0
O1129 O 0.68139 0.89975 0.43489 0.0
O1130 O 0.68889 0.84543 0.42938 0.0
O1131 O 0.73653 0.912 0.39666 0.0
H1132 H 0.67227 0.967 0.45476 0.0
H1133 H 0.77619 0.96254 0.41879 0.0
O1134 O 0.73777 0.85947 0.38692 0.0
O1135 O 0.78716 0.85941 0.43737 0.0
O1136 O 0.77963 0.9117 0.45024 0.0
C1137 C 0.79996 0.88781 0.44268 0.0
H1138 H 0.78435 0.75058 0.36749 0.0
H1139 H 0.68599 0.02307 0.42571 0.0
Co1140 Co 0.86517 0.97205 0.10326 0.0
C1141 C 0.93388 0.9584 0.13725 0.0
Co1142 Co 0.86007 0.98014 0.1573 0.0
C1143 C 0.85718 0.98438 0.03261 0.0
C1144 C 0.89679 0.94801 0.03996 0.0
N1145 N 0.87111 0.96539 0.05646 0.0
N1146 N 0.88081 0.98893 1.00781 0.0
C1147 C 0.90217 0.96215 1.009 0.0
H1148 H 0.83713 1.00256 0.03953 0.0
H1149 H 0.91448 0.9304 0.05184 0.0
C1150 C 0.79818 1.00074 0.11551 0.0
N1151 N 0.8486 0.98082 0.2024 0.0
C1152 C 0.86837 0.9612 0.2217 0.0
C1153 C 0.81461 0.97605 0.212 0.0
N1154 N 0.84821 0.94087 0.23835 0.0
C1155 C 0.81429 0.95055 0.23381 0.0
C1156 C 0.88323 0.03501 0.1412 0.0
O1157 O 0.816 0.98415 0.09355 0.0
O1158 O 0.81188 1.00331 0.14638 0.0
O1159 O 0.87882 0.01746 0.16582 0.0
O1160 O 0.87854 0.02239 0.10954 0.0
O1161 O 0.9136 0.96027 0.16411 0.0
H1162 H 0.79095 0.98637 0.20005 0.0
H1163 H 0.89703 0.95942 0.22108 0.0
O1164 O 0.91659 0.96083 0.10881 0.0
O1165 O 0.84998 0.92637 0.10103 0.0
O1166 O 0.83777 0.93871 0.15418 0.0
C1167 C 0.83427 0.91926 0.12837 0.0
H1168 H 0.92631 0.95887 0.99453 0.0
H1169 H 0.79125 0.93934 0.24437 0.0
Co1170 Co 0.79646 0.13865 0.88772 0.0
C1171 C 0.76094 0.11032 0.83275 0.0
Co1172 Co 0.77688 0.08737 0.89715 0.0
C1173 C 0.83506 0.20391 0.8857 0.0
C1174 C 0.77987 0.20669 0.8731 0.0
N1175 N 0.8063 0.18448 0.87966 0.0
N1176 N 0.82708 0.23671 0.88471 0.0
C1177 C 0.79215 0.23843 0.87738 0.0
H1178 H 0.86096 0.19423 0.89302 0.0
H1179 H 0.75253 0.20056 0.86643 0.0
C1180 C 0.81538 0.12091 0.9522 0.0
N1181 N 0.75502 0.04414 0.90061 0.0
C1182 C 0.72072 0.03616 0.88954 0.0
C1183 C 0.7694 0.01498 0.90856 0.0
N1184 N 0.71325 1.00352 0.89041 0.0
C1185 C 0.74423 0.99047 0.90259 0.0
C1186 C 0.84807 0.08742 0.87648 0.0
O1187 O 0.8124 0.14447 0.93225 0.0
O1188 O 0.80043 0.0929 0.94396 0.0
O1189 O 0.82095 0.06966 0.88131 0.0
O1190 O 0.84398 0.11908 0.87586 0.0
O1191 O 0.75644 0.08644 0.85196 0.0
H1192 H 0.79671 0.01148 0.91742 0.0
H1193 H 0.70156 0.05411 0.88056 0.0
O1194 O 0.78201 0.13288 0.84284 0.0
O1195 O 0.74846 0.15393 0.90118 0.0
O1196 O 0.73466 0.10445 0.9139 0.0
C1197 C 0.72601 0.13417 0.91217 0.0
H1198 H 0.7769 0.2608 0.87413 0.0
H1199 H 0.74856 0.96476 0.90723 0.0
Co1200 Co 0.87094 0.63649 0.97588 0.0
C1201 C 0.91758 0.67012 1.02386 0.0
Co1202 Co 0.86319 0.6879 0.97604 0.0
C1203 C 0.84715 0.57254 0.97088 0.0
C1204 C 0.89569 0.57606 1.0009 0.0
N1205 N 0.87321 0.59336 0.98091 0.0
N1206 N 0.85548 0.54183 0.97837 0.0
C1207 C 0.88357 0.54479 1.00113 0.0
H1208 H 0.82483 0.57854 0.95387 0.0
H1209 H 0.92033 0.58486 1.01274 0.0
C1210 C 0.81853 0.65522 0.92609 0.0
N1211 N 0.85692 0.73132 0.97131 0.0
C1212 C 0.84614 0.75202 0.99656 0.0
C1213 C 0.85244 0.7476 0.94159 0.0
N1214 N 0.83358 0.78 0.98381 0.0
C1215 C 0.83803 0.77814 0.94938 0.0
C1216 C 0.91071 0.66137 0.92602 0.0
O1217 O 0.83562 0.63092 0.9377 0.0
O1218 O 0.82412 0.68243 0.94217 0.0
O1219 O 0.89549 0.68742 0.93772 0.0
O1220 O 0.90648 0.63536 0.94207 0.0
O1221 O 0.90282 0.69528 1.01091 0.0
H1222 H 0.85669 0.73705 0.91572 0.0
H1223 H 0.8461 0.74602 1.0236 0.0
O1224 O 0.90672 0.64233 1.01249 0.0
O1225 O 0.83534 0.63445 1.00943 0.0
O1226 O 0.82891 0.68692 1.0156 0.0
C1227 C 0.8208 0.65839 1.02511 0.0
H1228 H 0.89883 0.52449 1.01118 0.0
H1229 H 0.82985 0.79658 0.93143 0.0
Co1230 Co 0.40301 0.89268 0.11267 0.0
C1231 C 0.45395 0.85798 0.07705 0.0
Co1232 Co 0.38946 0.83965 0.10633 0.0
C1233 C 0.39249 0.96665 0.11749 0.0
C1234 C 0.43091 0.94924 0.08214 0.0
N1235 N 0.41107 0.93897 0.10829 0.0
N1236 N 0.40085 0.9937 0.09946 0.0
C1237 C 0.4249 0.98175 0.07701 0.0
H1238 H 0.37359 0.96739 0.1381 0.0
H1239 H 0.44819 0.93407 0.06611 0.0
C1240 C 0.33651 0.87594 0.13762 0.0
N1241 N 0.38342 0.79378 0.09664 0.0
C1242 C 0.38723 0.77943 0.06421 0.0
C1243 C 0.38289 0.76823 0.11761 0.0
N1244 N 0.38946 0.74635 0.06418 0.0
C1245 C 0.38663 0.73909 0.09778 0.0
C1246 C 0.42671 0.85755 0.17318 0.0
O1247 O 0.3577 0.89917 0.13164 0.0
O1248 O 0.34559 0.846 0.1308 0.0
O1249 O 0.41553 0.83345 0.1528 0.0
O1250 O 0.4243 0.88668 0.16104 0.0
O1251 O 0.43218 0.83489 0.07975 0.0
H1252 H 0.38208 0.7706 0.14567 0.0
H1253 H 0.39093 0.79317 0.0413 0.0
O1254 O 0.44829 0.88467 0.09384 0.0
O1255 O 0.3807 0.89769 0.0671 0.0
O1256 O 0.36281 0.84731 0.06384 0.0
C1257 C 0.36204 0.87565 0.05168 0.0
H1258 H 0.44012 0.99645 0.06019 0.0
H1259 H 0.38855 0.71472 0.10756 0.0
Co1260 Co 0.88564 0.63785 0.82434 0.0
C1261 C 0.91971 0.69074 0.80072 0.0
Co1262 Co 0.94148 0.62953 0.827 0.0
C1263 C 0.81943 0.64358 0.7888 0.0
C1264 C 0.82575 0.67778 0.832 0.0
N1265 N 0.83888 0.64925 0.81842 0.0
N1266 N 0.7935 0.6663 0.78403 0.0
C1267 C 0.79944 0.68891 0.81034 0.0
H1268 H 0.82135 0.6211 0.77287 0.0
H1269 H 0.83664 0.69122 0.85468 0.0
C1270 C 0.90278 0.57667 0.85086 0.0
N1271 N 0.99048 0.62348 0.8287 0.0
C1272 C 0.01366 0.6461 0.81926 0.0
C1273 C 1.00726 0.59452 0.82268 0.0
N1274 N 0.04251 0.63257 0.80434 0.0
C1275 C 0.03908 0.60008 0.80738 0.0
C1276 C 0.9137 0.65693 0.88814 0.0
O1277 O 0.87705 0.59301 0.83705 0.0
O1278 O 0.93415 0.58857 0.85075 0.0
O1279 O 0.94324 0.65262 0.87294 0.0
O1280 O 0.88499 0.65064 0.87129 0.0
O1281 O 0.94641 0.67124 0.80082 0.0
H1282 H 0.99464 0.5709 0.82326 0.0
H1283 H 1.00694 0.67172 0.81708 0.0
O1284 O 0.89243 0.68116 0.81421 0.0
O1285 O 0.88637 0.62431 0.77534 0.0
O1286 O 0.94006 0.60553 0.78298 0.0
C1287 C 0.91279 0.60872 0.76331 0.0
H1288 H 0.78234 0.70979 0.81645 0.0
H1289 H 0.05498 0.58158 0.79379 0.0
Co1290 Co 0.12765 0.09722 0.59311 0.0
C1291 C 0.0706 0.12104 0.55443 0.0
Co1292 Co 0.12572 0.15029 0.59124 0.0
C1293 C 0.14995 0.03378 0.6154 0.0
C1294 C 0.10548 0.03036 0.57944 0.0
N1295 N 0.12847 0.05196 0.59506 0.0
N1296 N 0.14004 1.00215 0.61459 0.0
C1297 C 0.11199 0.99996 0.59205 0.0
H1298 H 0.16911 0.04428 0.63421 0.0
H1299 H 0.08366 0.03646 0.56194 0.0
C1300 C 0.18852 0.12778 0.61704 0.0
N1301 N 0.12557 0.19423 0.59075 0.0
C1302 C 0.11669 0.21036 0.56262 0.0
C1303 C 0.13801 0.21708 0.61452 0.0
N1304 N 0.12439 0.2421 0.56697 0.0
C1305 C 0.13767 0.24703 0.59953 0.0
C1306 C 0.10308 0.12976 0.65289 0.0
O1307 O 0.1749 0.09965 0.61204 0.0
O1308 O 0.16944 0.153 0.61404 0.0
O1309 O 0.10337 0.15465 0.63459 0.0
O1310 O 0.10918 0.10175 0.63834 0.0
O1311 O 0.08245 0.14876 0.56481 0.0
H1312 H 0.14906 0.21188 0.63996 0.0
H1313 H 0.10764 0.19849 0.53832 0.0
O1314 O 0.0812 0.096 0.57058 0.0
O1315 O 0.14727 0.09235 0.55126 0.0
O1316 O 0.15004 0.1458 0.54823 0.0
C1317 C 0.15792 0.11704 0.53644 0.0
H1318 H 0.09541 0.97859 0.58744 0.0
H1319 H 0.14914 0.26962 0.6103 0.0
Co1320 Co 0.15957 0.89442 0.8644 0.0
C1321 C 0.12573 0.84834 0.81999 0.0
Co1322 Co 0.10397 0.90592 0.85934 0.0
C1323 C 0.23331 0.90243 0.88001 0.0
C1324 C 0.22415 0.86395 0.8416 0.0
N1325 N 0.20722 0.88598 0.86301 0.0
N1326 N 0.26551 0.88976 0.87238 0.0
C1327 C 0.25988 0.86568 0.84805 0.0
H1328 H 0.22858 0.92026 0.90112 0.0
H1329 H 0.21187 0.84671 0.82294 0.0
C1330 C 0.13831 0.95043 0.90651 0.0
N1331 N 0.05542 0.9121 0.85465 0.0
C1332 C 0.03273 0.88714 0.84787 0.0
C1333 C 0.03707 0.93919 0.84615 0.0
N1334 N 1.00177 0.89696 0.83326 0.0
C1335 C 1.00409 0.92988 0.83272 0.0
C1336 C 0.12309 0.87155 0.92085 0.0
O1337 O 0.16526 0.93538 0.89324 0.0
O1338 O 0.10803 0.94331 0.89245 0.0
O1339 O 0.09659 0.88019 0.90142 0.0
O1340 O 0.15402 0.87312 0.90813 0.0
O1341 O 0.09972 0.868 0.82455 0.0
H1342 H 0.04854 0.96328 0.84515 0.0
H1343 H 0.04076 0.86162 0.84816 0.0
O1344 O 0.1532 0.85357 0.83875 0.0
O1345 O 0.16738 0.91689 0.82044 0.0
O1346 O 0.11235 0.93322 0.81833 0.0
C1347 C 0.14314 0.93279 0.8047 0.0
H1348 H 0.27988 0.84858 0.83824 0.0
H1349 H 0.9858 0.94535 0.81849 0.0
Co1350 Co 0.64914 0.40891 0.52015 0.0
C1351 C 0.58913 0.38919 0.55872 0.0
Co1352 Co 0.64973 0.35651 0.52617 0.0
C1353 C 0.65189 0.47334 0.5458 0.0
C1354 C 0.6102 0.46561 0.50782 0.0
N1355 N 0.64148 0.45279 0.51902 0.0
N1356 N 0.63045 0.49968 0.55024 0.0
C1357 C 0.60302 0.49363 0.5273 0.0
H1358 H 0.67798 0.47224 0.55845 0.0
H1359 H 0.59224 0.45421 0.48854 0.0
C1360 C 0.7112 0.38093 0.49269 0.0
N1361 N 0.65014 0.31129 0.535 0.0
C1362 C 0.6343 0.29894 0.56268 0.0
C1363 C 0.66633 0.28506 0.51944 0.0
N1364 N 0.63992 0.2664 0.5653 0.0
C1365 C 0.6603 0.25748 0.53813 0.0
C1366 C 0.62083 0.37313 0.46038 0.0
O1367 O 0.69296 0.40767 0.49475 0.0
O1368 O 0.69765 0.35489 0.50436 0.0
O1369 O 0.62849 0.34837 0.47856 0.0
O1370 O 0.62278 0.40142 0.47588 0.0
O1371 O 0.60086 0.36052 0.54977 0.0
H1372 H 0.68242 0.28604 0.4967 0.0
H1373 H 0.62065 0.31396 0.58206 0.0
O1374 O 0.60653 0.41241 0.54786 0.0
O1375 O 0.67783 0.41612 0.56049 0.0
O1376 O 0.67433 0.36472 0.57087 0.0
C1377 C 0.68741 0.3929 0.57852 0.0
H1378 H 0.58143 0.51057 0.52178 0.0
H1379 H 0.671 0.23309 0.53273 0.0
Co1380 Co 0.89586 0.38673 0.76707 0.0
C1381 C 0.91274 0.33723 0.81497 0.0
Co1382 Co 0.95087 0.38092 0.78091 0.0
C1383 C 0.82552 0.41081 0.74979 0.0
C1384 C 0.82714 0.36195 0.76739 0.0
N1385 N 0.84811 0.38662 0.75852 0.0
N1386 N 0.79131 0.40156 0.75188 0.0
C1387 C 0.79262 0.37162 0.76516 0.0
H1388 H 0.83401 0.43346 0.73924 0.0
H1389 H 0.83598 0.33773 0.77412 0.0
C1390 C 0.93836 0.43187 0.74044 0.0
N1391 N 0.99949 0.37745 0.79864 0.0
C1392 C 1.01217 0.35715 0.82373 0.0
C1393 C 0.02273 0.40249 0.80075 0.0
N1394 N 0.04062 0.36957 0.84219 0.0
C1395 C 0.04713 0.39809 0.82753 0.0
C1396 C 0.93032 0.35355 0.7132 0.0
O1397 O 0.9068 0.42025 0.73523 0.0
O1398 O 0.95983 0.41879 0.76145 0.0
O1399 O 0.95891 0.35964 0.73212 0.0
O1400 O 0.9013 0.35438 0.72941 0.0
O1401 O 0.94283 0.34022 0.8023 0.0
H1402 H 0.0198 0.42476 0.78695 0.0
H1403 H 0.99789 0.33632 0.83224 0.0
O1404 O 0.88806 0.35518 0.80323 0.0
O1405 O 0.88711 0.41943 0.79903 0.0
O1406 O 0.93812 0.40839 0.82449 0.0
C1407 C 0.90915 0.42587 0.82299 0.0
H1408 H 0.77011 0.35564 0.7677 0.0
H1409 H 0.06631 0.41605 0.83747 0.0
Co1410 Co 0.66716 0.62514 0.24111 0.0
C1411 C 0.64245 0.67881 0.27497 0.0
Co1412 Co 0.61377 0.61805 0.2564 0.0
C1413 C 0.7359 0.61596 0.21088 0.0
C1414 C 0.73438 0.65321 0.25137 0.0
N1415 N 0.71356 0.63201 0.23211 0.0
N1416 N 0.7691 0.62828 0.21414 0.0
C1417 C 0.76821 0.65132 0.24009 0.0
H1418 H 0.72698 0.59843 0.19053 0.0
H1419 H 0.72564 0.66929 0.2724 0.0
C1420 C 0.64454 0.56123 0.23004 0.0
N1421 N 0.57027 0.61313 0.27593 0.0
C1422 C 0.56535 0.62181 0.30983 0.0
C1423 C 0.54061 0.59701 0.26519 0.0
N1424 N 0.53453 0.61107 0.32104 0.0
C1425 C 0.51833 0.59586 0.29301 0.0
C1426 C 0.61525 0.6339 0.18925 0.0
O1427 O 0.6719 0.57923 0.23061 0.0
O1428 O 0.61412 0.57413 0.23652 0.0
O1429 O 0.59351 0.63317 0.214 0.0
O1430 O 0.64879 0.63115 0.19552 0.0
O1431 O 0.6158 0.66088 0.27886 0.0
H1432 H 0.53636 0.58541 0.23958 0.0
H1433 H 0.58508 0.63407 0.32673 0.0
O1434 O 0.66298 0.67039 0.25094 0.0
O1435 O 0.68546 0.61786 0.28501 0.0
O1436 O 0.63269 0.60146 0.2954 0.0
C1437 C 0.66529 0.6019 0.30279 0.0
H1438 H 0.78956 0.66803 0.24763 0.0
H1439 H 0.49299 0.58351 0.29299 0.0
Co1440 Co 0.55528 0.64401 0.85768 0.0
C1441 C 0.57592 0.69454 0.90154 0.0
Co1442 Co 0.55633 0.63296 0.91456 0.0
C1443 C 0.5299 0.64374 0.78777 0.0
C1444 C 0.58416 0.65901 0.79146 0.0
N1445 N 0.55564 0.65346 0.81094 0.0
N1446 N 0.54155 0.64167 0.75509 0.0
C1447 C 0.57568 0.65103 0.75693 0.0
H1448 H 0.50468 0.63398 0.79506 0.0
H1449 H 0.61055 0.66458 0.80195 0.0
C1450 C 0.5341 0.58349 0.86726 0.0
N1451 N 0.55405 0.62021 0.9624 0.0
C1452 C 0.56196 0.63591 0.99371 0.0
C1453 C 0.54231 0.59064 0.97159 0.0
N1454 N 0.55655 0.61685 1.02129 0.0
C1455 C 0.54425 0.58843 1.00703 0.0
C1456 C 0.49489 0.66211 0.89174 0.0
O1457 O 0.5389 0.60397 0.84467 0.0
O1458 O 0.54065 0.59128 0.89904 0.0
O1459 O 0.51001 0.64888 0.91746 0.0
O1460 O 0.50886 0.66064 0.86202 0.0
O1461 O 0.57232 0.67589 0.92697 0.0
H1462 H 0.53352 0.57087 0.95395 0.0
H1463 H 0.57385 0.65994 0.99609 0.0
O1464 O 0.5713 0.68406 0.87035 0.0
O1465 O 0.60146 0.6283 0.85485 0.0
O1466 O 0.60322 0.61817 0.91069 0.0
C1467 C 0.6182 0.61861 0.88145 0.0
H1468 H 0.59379 0.64938 0.73559 0.0
H1469 H 0.53864 0.56686 1.02113 0.0
Co1470 Co 0.62006 0.31377 0.13052 0.0
C1471 C 0.56379 0.33843 0.1642 0.0
Co1472 Co 0.62386 0.30514 0.18738 0.0
C1473 C 0.62949 0.28845 0.05988 0.0
C1474 C 0.6137 0.3389 0.05891 0.0
N1475 N 0.62008 0.31468 0.08101 0.0
N1476 N 0.6292 0.29528 1.02583 0.0
C1477 C 0.61929 0.32709 1.02501 0.0
H1478 H 0.63718 0.26483 0.06945 0.0
H1479 H 0.60587 0.36364 0.06687 0.0
C1480 C 0.68065 0.28033 0.15085 0.0
N1481 N 0.62605 0.30389 0.2373 0.0
C1482 C 0.61169 0.3263 0.2607 0.0
C1483 C 0.64986 0.28708 0.2566 0.0
N1484 N 0.62654 0.32475 0.29324 0.0
C1485 C 0.6506 0.30003 0.29041 0.0
C1486 C 0.59291 0.25117 0.15041 0.0
O1487 O 0.66568 0.29743 0.12811 0.0
O1488 O 0.66781 0.28041 0.18123 0.0
O1489 O 0.59908 0.26343 0.18127 0.0
O1490 O 0.60039 0.26848 0.12485 0.0
O1491 O 0.58078 0.32809 0.1905 0.0
H1492 H 0.66795 0.26854 0.24627 0.0
H1493 H 0.5942 0.34614 0.25312 0.0
O1494 O 0.57435 0.33167 0.13354 0.0
O1495 O 0.63829 0.35882 0.1383 0.0
O1496 O 0.64786 0.34715 0.19287 0.0
C1497 C 0.64843 0.36808 0.16936 0.0
H1498 H 0.6162 0.34084 1.00177 0.0
H1499 H 0.66921 0.2931 0.31088 0.0
Co1500 Co 0.97731 0.36064 0.38982 0.0
C1501 C 0.94972 0.30249 0.41608 0.0
Co1502 Co 0.98602 0.35848 0.44634 0.0
C1503 C 0.98855 0.37365 0.31797 0.0
C1504 C 0.93745 0.35291 0.32515 0.0
N1505 N 0.96847 0.36088 0.34219 0.0
N1506 N 0.97102 0.37425 0.287 0.0
C1507 C 0.93897 0.36119 0.29088 0.0
H1508 H 0.01492 0.38347 0.32309 0.0
H1509 H 0.91458 0.34298 0.33722 0.0
C1510 C 0.02208 0.41249 0.41357 0.0
N1511 N 0.99246 0.35882 0.495 0.0
C1512 C 0.97097 0.34557 0.51813 0.0
C1513 C 0.0147 0.37819 0.51471 0.0
N1514 N 0.97786 0.35714 0.55118 0.0
C1515 C 1.00529 0.37778 0.54894 0.0
C1516 C 0.04115 0.32988 0.41241 0.0
O1517 O 1.00201 0.40277 0.388 0.0
O1518 O 0.01695 0.39926 0.44278 0.0
O1519 O 0.02764 0.33473 0.44181 0.0
O1520 O 0.024 0.3388 0.38497 0.0
O1521 O 0.95883 0.31603 0.4458 0.0
H1522 H 0.03456 0.39388 0.50476 0.0
H1523 H 0.94755 0.33153 0.51037 0.0
O1524 O 0.95529 0.31834 0.38932 0.0
O1525 O 0.92975 0.38158 0.39721 0.0
O1526 O 0.9414 0.38313 0.4529 0.0
C1527 C 0.91935 0.38861 0.42803 0.0
H1528 H 0.91825 0.3586 0.27084 0.0
H1529 H 0.01595 0.39345 0.57013 0.0
Co1530 Co 0.89621 0.74728 0.62322 0.0
C1531 C 0.95118 0.70733 0.65001 0.0
Co1532 Co 0.89766 0.7435 0.67986 0.0
C1533 C 0.89447 0.76858 0.5551 0.0
C1534 C 0.90008 0.7165 0.55572 0.0
N1535 N 0.89614 0.74402 0.57644 0.0
N1536 N 0.8979 0.75763 0.522 0.0
C1537 C 0.9012 0.72495 0.52168 0.0
H1538 H 0.89181 0.79401 0.56391 0.0
H1539 H 0.90327 0.692 0.56492 0.0
C1540 C 0.84728 0.79103 0.65336 0.0
N1541 N 0.90154 0.73961 0.72913 0.0
C1542 C 0.92164 0.71688 0.7463 0.0
C1543 C 0.88344 0.75554 0.75446 0.0
N1544 N 0.91641 0.71754 0.78082 0.0
C1545 C 0.89191 0.74177 0.78578 0.0
C1546 C 0.93645 0.79305 0.65521 0.0
O1547 O 0.85894 0.78062 0.62403 0.0
O1548 O 0.85656 0.77525 0.68062 0.0
O1549 O 0.92664 0.77948 0.68237 0.0
O1550 O 0.92852 0.78112 0.62515 0.0
O1551 O 0.93833 0.71633 0.67843 0.0
H1552 H 0.86342 0.77422 0.75019 0.0
H1553 H 0.93636 0.69709 0.73353 0.0
O1554 O 0.93536 0.71606 0.62239 0.0
O1555 O 0.86319 0.71435 0.61979 0.0
O1556 O 0.86782 0.7054 0.67503 0.0
C1557 C 0.85698 0.6963 0.64432 0.0
H1558 H 0.90577 0.70895 0.49901 0.0
H1559 H 0.87854 0.74723 0.80994 0.0
Co1560 Co 0.54576 0.42057 0.6549 0.0
C1561 C 0.47346 0.44436 0.6355 0.0
Co1562 Co 0.50859 0.38574 0.63697 0.0
C1563 C 0.61355 0.43335 0.68902 0.0
C1564 C 0.6 0.47263 0.65624 0.0
N1565 N 0.58531 0.44717 0.67133 0.0
N1566 N 0.64521 0.44682 0.68286 0.0
C1567 C 0.63641 0.47286 0.66377 0.0
H1568 H 0.61176 0.41143 0.70355 0.0
H1569 H 0.58643 0.48704 0.63693 0.0
C1570 C 0.56197 0.35783 0.66792 0.0
N1571 N 0.47764 0.35632 0.62035 0.0
C1572 C 0.44921 0.34739 0.6373 0.0
C1573 C 0.46953 0.35133 0.58606 0.0
N1574 N 0.42262 0.3408 0.61478 0.0
C1575 C 0.43519 0.34182 0.58258 0.0
C1576 C 0.56098 0.39685 0.58643 0.0
O1577 O 0.57778 0.38379 0.66148 0.0
O1578 O 0.53096 0.35364 0.65681 0.0
O1579 O 0.53748 0.37655 0.59409 0.0
O1580 O 0.56307 0.42275 0.60643 0.0
O1581 O 0.47771 0.41806 0.6172 0.0
H1582 H 0.48494 0.35908 0.56479 0.0
H1583 H 0.44596 0.35072 0.66505 0.0
O1584 O 0.50281 0.45569 0.65079 0.0
O1585 O 0.53314 0.4186 0.70072 0.0
O1586 O 0.48482 0.39352 0.68182 0.0
C1587 C 0.50346 0.40672 0.70706 0.0
H1588 H 0.65536 0.48806 0.65154 0.0
H1589 H 0.4196 0.33943 0.55846 0.0
Co1590 Co 0.88747 0.31613 0.91871 0.0
C1591 C 0.85091 0.2617 0.88948 0.0
Co1592 Co 0.92184 0.27674 0.89974 0.0
C1593 C 0.87431 0.38397 0.93347 0.0
C1594 C 0.82509 0.35843 0.92747 0.0
N1595 N 0.86063 0.35351 0.93081 0.0
N1596 N 0.84924 0.40753 0.93017 0.0
C1597 C 0.81802 0.39169 0.92682 0.0
H1598 H 0.90244 0.38894 0.93278 0.0
H1599 H 0.8058 0.33929 0.92217 0.0
C1600 C 0.96406 0.32406 0.93205 0.0
N1601 N 0.94446 0.24009 0.88492 0.0
C1602 C 0.93504 0.21041 0.89486 0.0
C1603 C 0.965 0.23435 0.85737 0.0
N1604 N 0.94953 0.18596 0.87589 0.0
C1605 C 0.96822 0.20112 0.85189 0.0
C1606 C 0.90915 0.32019 0.8481 0.0
O1607 O 0.934 0.33913 0.93494 0.0
O1608 O 0.96402 0.29593 0.91673 0.0
O1609 O 0.92786 0.29513 0.85485 0.0
O1610 O 0.89036 0.33297 0.8722 0.0
O1611 O 0.88254 0.25505 0.88327 0.0
H1612 H 0.977 0.25291 0.84254 0.0
H1613 H 0.91923 0.20632 0.91721 0.0
O1614 O 0.84373 0.29014 0.90332 0.0
O1615 O 0.8826 0.29979 0.96434 0.0
O1616 O 0.91487 0.25857 0.94464 0.0
C1617 C 0.89584 0.27143 0.96855 0.0
H1618 H 0.79242 0.40303 0.92119 0.0
H1619 H 0.98659 0.1889 0.83424 0.0
Co1620 Co 0.95572 0.69218 0.12669 0.0
C1621 C 0.97528 0.65756 0.18598 0.0
Co1622 Co 0.96464 0.64122 0.11524 0.0
C1623 C 0.91196 0.74665 0.11764 0.0
C1624 C 0.93682 0.74661 0.16847 0.0
N1625 N 0.94104 0.73515 0.13542 0.0
N1626 N 0.88794 0.76 0.13907 0.0
C1627 C 0.90387 0.76081 0.17099 0.0
H1628 H 0.90583 0.74168 0.09034 0.0
H1629 H 0.95413 0.74133 0.19043 0.0
C1630 C 0.94163 0.67179 0.05584 0.0
N1631 N 0.97187 0.59789 0.10724 0.0
C1632 C 0.99573 0.57959 0.12394 0.0
C1633 C 0.95256 0.5766 0.0868 0.0
N1634 N 0.99361 0.54776 0.11366 0.0
C1635 C 0.96648 0.54566 0.09009 0.0
C1636 C 0.89614 0.6533 0.13008 0.0
O1637 O 0.93934 0.6956 0.07798 0.0
O1638 O 0.95757 0.64607 0.06566 0.0
O1639 O 0.916 0.63124 0.11718 0.0
O1640 O 0.90907 0.68094 0.13814 0.0
O1641 O 0.96954 0.63443 0.16367 0.0
H1642 H 0.9302 0.58331 0.07036 0.0
H1643 H 0.01689 0.58987 0.14063 0.0
O1644 O 0.9729 0.68681 0.17581 0.0
O1645 O 1.00175 0.70459 0.11674 0.0
O1646 O 0.01744 0.65261 0.11504 0.0
C1647 C 0.02646 0.68302 0.11717 0.0
H1648 H 0.89218 0.77031 0.19482 0.0
H1649 H 0.95968 0.52401 0.07407 0.0
Co1650 Co 0.70302 0.69288 0.45759 0.0
C1651 C 0.63824 0.67927 0.4389 0.0
Co1652 Co 0.69689 0.69245 0.40203 0.0
C1653 C 0.71771 0.71831 0.52474 0.0
C1654 C 0.69983 0.66898 0.52573 0.0
N1655 N 0.71025 0.69204 0.50428 0.0
N1656 N 0.70848 0.71417 0.55762 0.0
C1657 C 0.69843 0.6828 0.55885 0.0
H1658 H 0.72385 0.74174 0.51458 0.0
H1659 H 0.68912 0.64538 0.51717 0.0
C1660 C 0.75764 0.7197 0.42389 0.0
N1661 N 0.6875 0.69491 0.3544 0.0
C1662 C 0.65888 0.68381 0.33539 0.0
C1663 C 0.70371 0.71519 0.33335 0.0
N1664 N 0.6573 0.69543 0.303 0.0
C1665 C 0.68551 0.71536 0.3019 0.0
C1666 C 0.67161 0.74746 0.42973 0.0
O1667 O 0.74743 0.71243 0.45353 0.0
O1668 O 0.74608 0.70217 0.39758 0.0
O1669 O 0.68836 0.73623 0.40416 0.0
O1670 O 0.67923 0.73614 0.45951 0.0
O1671 O 0.64801 0.68486 0.40853 0.0
H1672 H 0.72713 0.72931 0.34042 0.0
H1673 H 0.64085 0.66576 0.34436 0.0
O1674 O 0.66065 0.67669 0.46325 0.0
O1675 O 0.72077 0.64956 0.4547 0.0
O1676 O 0.70382 0.6463 0.39964 0.0
C1677 C 0.70971 0.63241 0.42826 0.0
H1678 H 0.68541 0.67248 0.58044 0.0
H1679 H 0.69392 0.72726 0.27903 0.0
Co1680 Co 0.92382 0.54189 0.68259 0.0
C1681 C 0.97101 0.58705 0.65456 0.0
Co1682 Co 0.89346 0.57788 0.65742 0.0
C1683 C 0.92966 0.47809 0.70534 0.0
C1684 C 0.97631 0.50604 0.71995 0.0
N1685 N 0.94515 0.50728 0.70191 0.0
N1686 N 0.94895 0.4594 0.72617 0.0
C1687 C 0.97888 0.47627 0.73483 0.0
H1688 H 0.90405 0.47079 0.69446 0.0
H1689 H 0.99471 0.52611 0.72393 0.0
C1690 C 0.84536 0.53309 0.67687 0.0
N1691 N 0.86926 0.61258 0.63818 0.0
C1692 C 0.85886 0.64001 0.65643 0.0
C1693 C 0.86235 0.61886 0.60468 0.0
N1694 N 0.84963 0.66437 0.63587 0.0
C1695 C 0.8499 0.65066 0.60316 0.0
C1696 C 0.90797 0.52253 0.61705 0.0
O1697 O 0.87494 0.51911 0.68494 0.0
O1698 O 0.84729 0.56295 0.66997 0.0
O1699 O 0.88785 0.54803 0.61559 0.0
O1700 O 0.9304 0.5209 0.64155 0.0
O1701 O 0.9405 0.59506 0.64147 0.0
H1702 H 0.86894 0.60262 0.58277 0.0
H1703 H 0.86179 0.64394 0.68426 0.0
O1704 O 0.97071 0.56496 0.67725 0.0
O1705 O 0.9198 0.56125 0.72716 0.0
O1706 O 0.8993 0.60398 0.70164 0.0
C1707 C 0.91031 0.59081 0.72924 0.0
H1708 H 0.99983 0.46874 0.75271 0.0
H1709 H 0.84629 0.66385 0.57955 0.0
Co1710 Co 0.71732 0.6279 0.919 0.0
C1711 C 0.74197 0.57425 0.87571 0.0
Co1712 Co 0.72096 0.63984 0.86541 0.0
C1713 C 0.68747 0.63155 0.98514 0.0
C1714 C 0.72191 0.58952 0.97806 0.0
N1715 N 0.71119 0.61752 0.96345 0.0
N1716 N 0.68149 0.61224 1.01128 0.0
C1717 C 0.70293 0.58583 1.00718 0.0
H1718 H 0.67203 0.65343 0.98008 0.0
H1719 H 0.74074 0.5718 0.96751 0.0
C1720 C 0.69753 0.69525 0.90435 0.0
N1721 N 0.72269 0.64845 0.819 0.0
C1722 C 0.74676 0.63474 0.79811 0.0
C1723 C 0.71048 0.67474 0.80233 0.0
N1724 N 0.75849 0.65635 0.776 0.0
C1725 C 0.73213 0.67915 0.77486 0.0
C1726 C 0.65636 0.61756 0.88104 0.0
O1727 O 0.69765 0.67423 0.92819 0.0
O1728 O 0.70851 0.68526 0.87503 0.0
O1729 O 0.6726 0.63031 0.85683 0.0
O1730 O 0.67246 0.61273 0.9093 0.0
O1731 O 0.73341 0.59491 0.8535 0.0
H1732 H 0.69164 0.69256 0.81265 0.0
H1733 H 0.76343 0.61469 0.80647 0.0
O1734 O 0.73768 0.58301 0.90758 0.0
O1735 O 0.76061 0.64179 0.93182 0.0
O1736 O 0.77307 0.64984 0.87766 0.0
C1737 C 0.78279 0.64927 0.91016 0.0
H1738 H 0.70464 0.56535 1.02406 0.0
H1739 H 0.73414 0.70212 0.76218 0.0
Co1740 Co 0.67884 0.46665 0.20452 0.0
C1741 C 0.64881 0.44693 0.26897 0.0
Co1742 Co 0.62091 0.46401 0.20308 0.0
C1743 C 0.74155 0.50002 0.18324 0.0
C1744 C 0.75491 0.44961 0.18911 0.0
N1745 N 0.72946 0.47208 0.1974 0.0
N1746 N 0.77235 0.49564 0.16593 0.0
C1747 C 0.78118 0.46394 0.17015 0.0
H1748 H 0.72587 0.52234 0.18219 0.0
H1749 H 0.75268 0.42367 0.19299 0.0
C1750 C 0.64555 0.48298 0.14183 0.0
N1751 N 0.57323 0.46967 0.2016 0.0
C1752 C 0.54803 0.45193 0.21485 0.0
C1753 C 0.55573 0.49218 0.1826 0.0
N1754 N 0.51562 0.46013 0.20188 0.0
C1755 C 0.52026 0.48581 0.18208 0.0
C1756 C 0.64814 0.52582 0.22265 0.0
O1757 O 0.67453 0.48388 0.15913 0.0
O1758 O 0.61908 0.47137 0.1556 0.0
O1759 O 0.62086 0.50949 0.21447 0.0
O1760 O 0.67798 0.51109 0.22364 0.0
O1761 O 0.62092 0.4548 0.25156 0.0
H1762 H 0.56823 0.51015 0.16734 0.0
H1763 H 0.55404 0.42976 0.22842 0.0
O1764 O 0.67941 0.44905 0.25404 0.0
O1765 O 0.67837 0.42038 0.18402 0.0
O1766 O 0.6203 0.41785 0.19044 0.0
C1767 C 0.64933 0.40391 0.18086 0.0
H1768 H 0.80332 0.45122 0.158 0.0
H1769 H 0.5002 0.49624 0.16494 0.0
Co1770 Co 0.81331 0.41395 0.46138 0.0
C1771 C 0.84173 0.38173 0.51883 0.0
Co1772 Co 0.8153 0.35921 0.45366 0.0
C1773 C 0.77655 0.4762 0.44168 0.0
C1774 C 0.79964 0.48037 0.49306 0.0
N1775 N 0.80096 0.46114 0.46367 0.0
N1776 N 0.75942 0.50267 0.45662 0.0
C1777 C 0.77465 0.50535 0.4889 0.0
H1778 H 0.76801 0.46592 0.4165 0.0
H1779 H 0.81265 0.4745 0.51744 0.0
C1780 C 0.79062 0.38878 0.39739 0.0
N1781 N 0.8166 0.31409 0.4464 0.0
C1782 C 0.82881 0.29564 0.419 0.0
C1783 C 0.80207 0.29262 0.46709 0.0
N1784 N 0.82347 0.26325 0.42237 0.0
C1785 C 0.80641 0.26159 0.45263 0.0
C1786 C 0.74877 0.38154 0.47936 0.0
O1787 O 0.79555 0.41408 0.41667 0.0
O1788 O 0.79896 0.36125 0.40863 0.0
O1789 O 0.76576 0.35567 0.46972 0.0
O1790 O 0.76492 0.40868 0.47825 0.0
O1791 O 0.83337 0.35672 0.4995 0.0
H1792 H 0.79018 0.29903 0.49176 0.0
H1793 H 0.84433 0.30554 0.39878 0.0
O1794 O 0.8339 0.41077 0.5088 0.0
O1795 O 0.86318 0.41758 0.44411 0.0
O1796 O 0.86377 0.36341 0.43823 0.0
C1797 C 0.87997 0.39059 0.43585 0.0
H1798 H 0.76631 0.52261 0.50937 0.0
H1799 H 0.80058 0.23916 0.46516 0.0
Co1800 Co 0.84811 0.49465 0.88718 0.0
C1801 C 0.89907 0.45306 0.84787 0.0
Co1802 Co 0.90396 0.4886 0.90613 0.0
C1803 C 0.77671 0.52381 0.88533 0.0
C1804 C 0.79576 0.51292 0.83432 0.0
N1805 N 0.80141 0.50485 0.86762 0.0
N1806 N 0.75918 0.54547 0.86526 0.0
C1807 C 0.77011 0.53754 0.8328 0.0
H1808 H 0.77454 0.52494 0.91328 0.0
H1809 H 0.8131 0.50552 0.81338 0.0
C1810 C 0.85776 0.52085 0.95069 0.0
N1811 N 0.94536 0.48696 0.93188 0.0
C1812 C 0.97889 0.49182 0.92265 0.0
C1813 C 0.94747 0.48402 0.96665 0.0
N1814 N 1.00201 0.49073 0.95007 0.0
C1815 C 0.98182 0.48776 0.97798 0.0
C1816 C 0.89543 0.54506 0.86786 0.0
O1817 O 0.83409 0.51945 0.92705 0.0
O1818 O 0.88802 0.51097 0.94307 0.0
O1819 O 0.91904 0.5294 0.88526 0.0
O1820 O 0.86409 0.5338 0.86602 0.0
O1821 O 0.92216 0.46333 0.87013 0.0
H1822 H 0.92552 0.4781 0.98264 0.0
H1823 H 0.98679 0.49184 0.89585 0.0
O1824 O 0.86689 0.46558 0.84786 0.0
O1825 O 0.83223 0.45624 0.90753 0.0
O1826 O 0.88812 0.44918 0.92502 0.0
C1827 C 0.85615 0.43883 0.92222 0.0
H1828 H 0.76339 0.55118 0.81003 0.0
H1829 H 0.99194 0.48227 1.00371 0.0
Co1830 Co 0.79595 0.61325 0.1184 0.0
C1831 C 0.80212 0.65158 0.0581 0.0
Co1832 Co 0.78883 0.66824 0.12749 0.0
C1833 C 0.77571 0.54741 0.1338 0.0
C1834 C 0.82869 0.54546 0.11522 0.0
N1835 N 0.79987 0.56557 0.11693 0.0
N1836 N 0.78843 0.51781 0.14333 0.0
C1837 C 0.8217 0.51624 0.13106 0.0
H1838 H 0.75047 0.55719 0.14243 0.0
H1839 H 0.85442 0.55273 0.10655 0.0
C1840 C 0.78739 0.63185 0.18556 0.0
N1841 N 0.77599 0.71321 0.13963 0.0
C1842 C 0.77579 0.74159 0.12258 0.0
C1843 C 0.76018 0.72221 0.16996 0.0
N1844 N 0.76272 0.76769 0.14207 0.0
C1845 C 0.75294 0.7552 0.1718 0.0
C1846 C 0.72672 0.63193 0.11862 0.0
O1847 O 0.79018 0.6077 0.16462 0.0
O1848 O 0.78888 0.66024 0.17438 0.0
O1849 O 0.73952 0.66034 0.12392 0.0
O1850 O 0.74705 0.60805 0.11106 0.0
O1851 O 0.79198 0.67546 0.07845 0.0
H1852 H 0.75387 0.70604 0.1902 0.0
H1853 H 0.78726 0.74348 0.09732 0.0
O1854 O 0.80293 0.62196 0.06912 0.0
O1855 O 0.8453 0.61997 0.12639 0.0
O1856 O 0.83779 0.67428 0.13194 0.0
C1857 C 0.85803 0.64885 0.13076 0.0
H1858 H 0.84068 0.49666 0.1356 0.0
H1859 H 0.74238 0.76916 0.19386 0.0
Co1860 Co 0.66665 0.53964 0.40396 0.0
C1861 C 0.72851 0.51901 0.44575 0.0
Co1862 Co 0.66152 0.54772 0.45798 0.0
C1863 C 0.65834 0.55852 0.33952 0.0
C1864 C 0.71213 0.54378 0.34927 0.0
N1865 N 0.67814 0.53897 0.35886 0.0
N1866 N 0.67847 0.57885 0.32283 0.0
C1867 C 0.71241 0.56923 0.32741 0.0
H1868 H 0.62968 0.56028 0.34014 0.0
H1869 H 0.73581 0.53354 0.36128 0.0
C1870 C 0.59283 0.56138 0.42398 0.0
N1871 N 0.65557 0.55436 0.50478 0.0
C1872 C 0.66946 0.53531 0.52859 0.0
C1873 C 0.6299 0.57177 0.52128 0.0
N1874 N 0.64581 0.53084 0.5534 0.0
C1875 C 0.62446 0.55763 0.55223 0.0
C1876 C 0.69247 0.6005 0.43291 0.0
O1877 O 0.61313 0.55954 0.39713 0.0
O1878 O 0.61011 0.55895 0.45243 0.0
O1879 O 0.67673 0.59339 0.46024 0.0
O1880 O 0.68897 0.58105 0.4071 0.0
O1881 O 0.71069 0.5356 0.4677 0.0
H1882 H 0.61225 0.5894 0.50939 0.0
H1883 H 0.68944 0.51708 0.52164 0.0
O1884 O 0.71483 0.51645 0.41487 0.0
O1885 O 0.64788 0.50232 0.39541 0.0
O1886 O 0.64813 0.49739 0.45169 0.0
C1887 C 0.64342 0.48477 0.42003 0.0
H1888 H 0.73543 0.58049 0.31686 0.0
H1889 H 0.60031 0.5609 0.56668 0.0
Co1890 Co 0.74981 0.43241 0.66413 0.0
C1891 C 0.71131 0.39886 0.60908 0.0
Co1892 Co 0.73023 0.38112 0.67356 0.0
C1893 C 0.80596 0.48363 0.67173 0.0
C1894 C 0.75729 0.5048 0.6527 0.0
N1895 N 0.77166 0.47564 0.66065 0.0
N1896 N 0.81343 0.51627 0.67085 0.0
C1897 C 0.78246 0.52932 0.65866 0.0
H1898 H 0.82512 0.46568 0.68072 0.0
H1899 H 0.72997 0.50829 0.64382 0.0
C1900 C 0.76573 0.40949 0.72854 0.0
N1901 N 0.72038 0.33529 0.68162 0.0
C1902 C 0.69162 0.31587 0.6756 0.0
C1903 C 0.74681 0.31308 0.68817 0.0
N1904 N 0.69959 0.28306 0.67658 0.0
C1905 C 0.73452 0.28134 0.6839 0.0
C1906 C 0.80067 0.38559 0.6491 0.0
O1907 O 0.77024 0.43337 0.70933 0.0
O1908 O 0.74472 0.38689 0.71844 0.0
O1909 O 0.77821 0.36583 0.66007 0.0
O1910 O 0.79204 0.41533 0.64739 0.0
O1911 O 0.71426 0.3753 0.62904 0.0
H1912 H 0.77415 0.31921 0.69483 0.0
H1913 H 0.66571 0.32554 0.66828 0.0
O1914 O 0.72627 0.42686 0.61731 0.0
O1915 O 0.70573 0.45012 0.67996 0.0
O1916 O 0.68271 0.40071 0.68544 0.0
C1917 C 0.67861 0.43236 0.6848 0.0
H1918 H 0.77812 0.55502 0.65402 0.0
H1919 H 0.74978 0.25897 0.68713 0.0
Co1920 Co 0.66353 0.83184 0.58526 0.0
C1921 C 0.70817 0.86454 0.63518 0.0
Co1922 Co 0.65576 0.88325 0.58542 0.0
C1923 C 0.68057 0.76772 0.56475 0.0
C1924 C 0.67427 0.77214 0.61972 0.0
N1925 N 0.66979 0.78842 0.59 0.0
N1926 N 0.69311 0.73973 0.57749 0.0
C1927 C 0.68866 0.7416 0.61192 0.0
H1928 H 0.6806 0.77371 0.53771 0.0
H1929 H 0.67003 0.7827 0.64559 0.0
C1930 C 0.60913 0.8496 0.53744 0.0
N1931 N 0.65348 0.92639 0.58037 0.0
C1932 C 0.67952 0.94721 0.59042 0.0
C1933 C 0.63097 0.94368 0.56038 0.0
N1934 N 0.67113 0.9779 0.58292 0.0
C1935 C 0.64304 0.97498 0.56017 0.0
C1936 C 0.70589 0.86135 0.53618 0.0
O1937 O 0.6239 0.82444 0.5504 0.0
O1938 O 0.61997 0.8774 0.54881 0.0
O1939 O 0.69135 0.8853 0.55186 0.0
O1940 O 0.6978 0.83283 0.5457 0.0
O1941 O 0.69109 0.88884 0.62358 0.0
H1942 H 0.60633 0.93486 0.54854 0.0
H1943 H 0.70183 0.94124 0.60745 0.0
O1944 O 0.70259 0.83732 0.61913 0.0
O1945 O 0.63123 0.83232 0.62358 0.0
O1946 O 0.62022 0.88439 0.61922 0.0
C1947 C 0.616 0.85837 0.63527 0.0
H1948 H 0.69683 0.72316 0.62988 0.0
H1949 H 0.62776 0.99527 0.55014 0.0
Co1950 Co 0.13725 0.68007 0.45495 0.0
C1951 C 0.19021 0.64379 0.42366 0.0
Co1952 Co 0.1237 0.62705 0.44859 0.0
C1953 C 0.13943 0.7403 0.49707 0.0
C1954 C 0.14386 0.7515 0.44368 0.0
N1955 N 0.14328 0.72595 0.46465 0.0
N1956 N 0.13719 0.77338 0.49709 0.0
C1957 C 0.1401 0.78064 0.4635 0.0
H1958 H 0.13573 0.72657 0.51999 0.0
H1959 H 0.14473 0.74912 0.41563 0.0
C1960 C 0.07276 0.66173 0.48422 0.0
N1961 N 0.11563 0.58075 0.45296 0.0
C1962 C 0.13425 0.55308 0.44381 0.0
C1963 C 0.09575 0.57049 0.47907 0.0
N1964 N 0.12591 0.526 0.46184 0.0
C1965 C 0.10178 0.53798 0.48421 0.0
C1966 C 0.16466 0.64407 0.5096 0.0
O1967 O 0.09454 0.68481 0.48154 0.0
O1968 O 0.07841 0.63506 0.4674 0.0
O1969 O 0.146 0.62204 0.49418 0.0
O1970 O 0.16391 0.67241 0.49743 0.0
O1971 O 0.16902 0.62056 0.42964 0.0
H1972 H 0.07843 0.58564 0.49505 0.0
H1973 H 0.15319 0.55235 0.42324 0.0
O1974 O 0.18112 0.67373 0.43048 0.0
O1975 O 0.11118 0.68628 0.40848 0.0
O1976 O 0.10243 0.63305 0.40022 0.0
C1977 C 0.10002 0.66218 0.38809 0.0
H1978 H 0.13823 0.80501 0.45371 0.0
H1979 H 0.08654 0.52329 0.50102 0.0
Co1980 Co 0.58517 0.89024 0.73425 0.0
C1981 C 0.6239 0.94309 0.7104 0.0
Co1982 Co 0.64105 0.88192 0.73698 0.0
C1983 C 0.51299 0.8737 0.74199 0.0
C1984 C 0.51942 0.9253 0.73863 0.0
N1985 N 0.53618 0.89632 0.73254 0.0
N1986 N 0.48421 0.88726 0.75699 0.0
C1987 C 0.48761 0.91976 0.75397 0.0
H1988 H 0.51968 0.84807 0.74413 0.0
H1989 H 0.53206 0.9489 0.73806 0.0
C1990 C 0.60693 0.82905 0.76057 0.0
N1991 N 0.68782 0.87053 0.74287 0.0
C1992 C 0.70731 0.87625 0.77246 0.0
C1993 C 0.70094 0.84198 0.72931 0.0
N1994 N 0.73322 0.85353 0.7772 0.0
C1995 C 0.72729 0.83087 0.75095 0.0
C1996 C 0.6139 0.91108 0.79796 0.0
O1997 O 0.58021 0.84851 0.76035 0.0
O1998 O 0.63429 0.83864 0.74722 0.0
O1999 O 0.64035 0.89554 0.78593 0.0
O2000 O 0.5866 0.9142 0.7783 0.0
O2001 O 0.64963 0.92674 0.72417 0.0
H2002 H 0.69003 0.82852 0.70665 0.0
H2003 H 0.7054 0.89874 0.78838 0.0
O2004 O 0.59253 0.93123 0.71055 0.0
O2005 O 0.58342 0.86721 0.6883 0.0
O2006 O 0.64167 0.86905 0.69003 0.0
C2007 C 0.61297 0.86281 0.67315 0.0
H2008 H 0.47175 0.93825 0.76762 0.0
H2009 H 0.7444 0.81 0.74484 0.0
Co2010 Co 0.40093 0.3695 0.96999 0.0
C2011 C 0.33815 0.39202 0.94417 0.0
Co2012 Co 0.39902 0.42256 0.96815 0.0
C2013 C 0.40957 0.30948 0.99875 0.0
C2014 C 0.38877 0.30269 0.94666 0.0
N2015 N 0.40102 0.32557 0.97051 0.0
N2016 N 0.40182 0.27776 0.99436 0.0
C2017 C 0.38891 0.27276 0.96168 0.0
H2018 H 0.41847 0.32137 1.02309 0.0
H2019 H 0.378 0.30787 0.92111 0.0
C2020 C 0.45604 0.39871 1.00687 0.0
N2021 N 0.39823 0.46783 0.9662 0.0
C2022 C 0.37672 0.48603 0.94591 0.0
C2023 C 0.42128 0.48941 0.98176 0.0
N2024 N 0.3866 0.51767 0.94672 0.0
C2025 C 0.41472 0.51981 0.96919 0.0
C2026 C 0.36871 0.40276 1.02479 0.0
O2027 O 0.44416 0.37099 0.99649 0.0
O2028 O 0.44547 0.42374 0.99069 0.0
O2029 O 0.37939 0.42746 1.01 0.0
O2030 O 0.37655 0.37401 1.01298 0.0
O2031 O 0.35178 0.42015 0.94921 0.0
H2032 H 0.44315 0.48329 0.99919 0.0
H2033 H 0.35752 0.47554 0.92714 0.0
O2034 O 0.35723 0.3668 0.94715 0.0
O2035 O 0.42333 0.3651 0.92669 0.0
O2036 O 0.41751 0.41802 0.92292 0.0
C2037 C 0.42364 0.39001 0.9084 0.0
H2038 H 0.37758 0.25015 0.95082 0.0
H2039 H 0.43134 0.54117 0.97375 0.0
Co2040 Co 0.4227 0.61383 0.70193 0.0
C2041 C 0.38835 0.56931 0.65475 0.0
Co2042 Co 0.36711 0.62535 0.69685 0.0
C2043 C 0.49394 0.63261 0.71341 0.0
C2044 C 0.4896 0.58055 0.71513 0.0
N2045 N 0.47125 0.60764 0.70662 0.0
N2046 N 0.5249 0.62278 0.72802 0.0
C2047 C 0.52257 0.58987 0.72856 0.0
H2048 H 0.48591 0.65812 0.7131 0.0
H2049 H 0.47813 0.55646 0.71613 0.0
C2050 C 0.40095 0.67143 0.74126 0.0
N2051 N 0.31945 0.63379 0.69823 0.0
C2052 C 0.29335 0.61729 0.68132 0.0
C2053 C 0.30254 0.65587 0.7196 0.0
N2054 N 0.26113 0.62992 0.68895 0.0
C2055 C 0.2668 0.65408 0.7132 0.0
C2056 C 0.38352 0.58697 0.75656 0.0
O2057 O 0.42694 0.65175 0.73672 0.0
O2058 O 0.37349 0.66621 0.72248 0.0
O2059 O 0.3593 0.60289 0.74083 0.0
O2060 O 0.41431 0.58653 0.74293 0.0
O2061 O 0.36142 0.58438 0.66802 0.0
H2062 H 0.31482 0.67318 0.73818 0.0
H2063 H 0.29807 0.5994 0.66026 0.0
O2064 O 0.41863 0.57644 0.66882 0.0
O2065 O 0.4301 0.63956 0.65984 0.0
O2066 O 0.37266 0.64663 0.6531 0.0
C2067 C 0.4036 0.64819 0.6404 0.0
H2068 H 0.54087 0.5744 0.7428 0.0
H2069 H 0.24681 0.6712 0.72299 0.0
Co2070 Co 0.87696 0.16327 0.0351 0.0
C2071 C 0.81549 0.13885 0.06858 0.0
Co2072 Co 0.87755 0.11086 0.04113 0.0
C2073 C 0.89238 0.22084 0.99858 0.0
C2074 C 0.86035 0.23472 0.04183 0.0
N2075 N 0.87655 0.20849 1.02627 0.0
N2076 N 0.88676 0.25337 0.99597 0.0
C2077 C 0.86638 0.2623 1.02314 0.0
H2078 H 0.90603 0.20582 0.9792 0.0
H2079 H 0.84427 0.23374 0.06458 0.0
C2080 C 0.93755 0.13059 1.00255 0.0
N2081 N 0.88518 0.06699 0.04228 0.0
C2082 C 0.87467 0.04643 1.01556 0.0
C2083 C 0.9165 0.05416 0.05341 0.0
N2084 N 0.89613 0.02011 1.01108 0.0
C2085 C 0.92363 0.02612 0.03393 0.0
C2086 C 0.83928 0.12687 0.98275 0.0
O2087 O 0.92582 0.15926 1.0115 0.0
O2088 O 0.92016 0.10736 1.01343 0.0
O2089 O 0.84887 0.10365 1.00079 0.0
O2090 O 0.85235 0.15506 0.99041 0.0
O2091 O 0.83372 0.11211 0.06652 0.0
H2092 H 0.93451 0.06558 0.07264 0.0
H2093 H 0.84855 0.04753 1.00298 0.0
O2094 O 0.82904 0.16489 0.05691 0.0
O2095 O 0.8982 0.17141 0.08271 0.0
O2096 O 0.90391 0.11836 0.08541 0.0
C2097 C 0.90585 0.14666 0.10089 0.0
H2098 H 0.85569 0.28669 1.02854 0.0
H2099 H 0.94523 1.00918 0.03939 0.0
Co2100 Co 0.57579 0.13886 0.78037 0.0
C2101 C 0.5883 0.08793 0.82087 0.0
Co2102 Co 0.63079 0.13305 0.79421 0.0
C2103 C 0.5145 0.16261 0.73753 0.0
C2104 C 0.50397 0.11725 0.76048 0.0
N2105 N 0.52717 0.14231 0.76263 0.0
N2106 N 0.48614 0.15012 0.71899 0.0
C2107 C 0.4796 0.12161 0.73366 0.0
H2108 H 0.52875 0.18348 0.72906 0.0
H2109 H 0.5069 0.09498 0.77429 0.0
C2110 C 0.61392 0.18253 0.74628 0.0
N2111 N 0.67853 0.13318 0.80278 0.0
C2112 C 0.70113 0.10901 0.81152 0.0
C2113 C 0.69948 0.15789 0.79394 0.0
N2114 N 0.73532 0.11832 0.80948 0.0
C2115 C 0.73402 0.14826 0.79621 0.0
C2116 C 0.61753 0.09389 0.73831 0.0
O2117 O 0.58382 0.17955 0.75897 0.0
O2118 O 0.6386 0.16458 0.75803 0.0
O2119 O 0.63956 0.10033 0.76228 0.0
O2120 O 0.58856 0.11138 0.73681 0.0
O2121 O 0.61985 0.09955 0.82608 0.0
H2122 H 0.69062 0.1821 0.78722 0.0
H2123 H 0.69266 0.08634 0.82205 0.0
O2124 O 0.56683 0.101 0.79985 0.0
O2125 O 0.56773 0.16015 0.82915 0.0
O2126 O 0.62535 0.16542 0.83185 0.0
C2127 C 0.59633 0.16623 0.84806 0.0
H2128 H 0.46044 0.10364 0.7237 0.0
H2129 H 0.75652 0.16426 0.79372 0.0
Co2130 Co 0.9129 0.9017 0.30481 0.0
C2131 C 0.88208 0.95852 0.33114 0.0
Co2132 Co 0.85948 0.89462 0.32009 0.0
C2133 C 0.9613 0.89798 0.25138 0.0
C2134 C 0.98605 0.92276 0.29603 0.0
N2135 N 0.95639 0.90664 0.28528 0.0
N2136 N 0.99211 0.90874 0.24017 0.0
C2137 C 1.00832 0.92392 0.26821 0.0
H2138 H 0.94159 0.88571 0.23448 0.0
H2139 H 0.99031 0.93434 0.32164 0.0
C2140 C 0.88427 0.84093 0.28628 0.0
N2141 N 0.8131 0.88774 0.3291 0.0
C2142 C 0.79078 0.90376 0.35037 0.0
C2143 C 0.79227 0.86652 0.30984 0.0
N2144 N 0.75762 0.89138 0.34715 0.0
C2145 C 0.75845 0.86836 0.32119 0.0
C2146 C 0.86136 0.91781 0.2584 0.0
O2147 O 0.91093 0.85885 0.2824 0.0
O2148 O 0.86367 0.84938 0.31024 0.0
O2149 O 0.84117 0.9019 0.27619 0.0
O2150 O 0.89396 0.91823 0.2658 0.0
O2151 O 0.85473 0.94052 0.33059 0.0
H2152 H 0.80099 0.85046 0.28879 0.0
H2153 H 0.79971 0.92128 0.37073 0.0
O2154 O 0.9125 0.94563 0.32466 0.0
O2155 O 0.93316 0.88663 0.34722 0.0
O2156 O 0.87787 0.8886 0.36567 0.0
C2157 C 0.91141 0.88588 0.37196 0.0
H2158 H 0.03367 0.93627 0.26822 0.0
H2159 H 0.7371 0.85164 0.31368 0.0
Co2160 Co 0.47037 0.3868 0.14672 0.0
C2161 C 0.49256 0.43627 0.19403 0.0
Co2162 Co 0.47141 0.37575 0.2036 0.0
C2163 C 0.46468 0.38388 0.06757 0.0
C2164 C 0.48444 0.42911 0.08969 0.0
N2165 N 0.47265 0.39955 0.09887 0.0
N2166 N 0.47006 0.40296 0.04 0.0
C2167 C 0.48245 0.43134 0.05425 0.0
H2168 H 0.45276 0.35986 0.06519 0.0
H2169 H 0.49331 0.44885 0.10733 0.0
C2170 C 0.45079 0.32522 0.15973 0.0
N2171 N 0.47104 0.36628 0.25033 0.0
C2172 C 0.49677 0.376 0.27351 0.0
C2173 C 0.44252 0.36073 0.26981 0.0
N2174 N 0.48512 0.37807 0.30619 0.0
C2175 C 0.45099 0.3687 0.30434 0.0
C2176 C 0.40849 0.40114 0.17982 0.0
O2177 O 0.45439 0.34387 0.1343 0.0
O2178 O 0.45541 0.33569 0.19092 0.0
O2179 O 0.42523 0.39144 0.20642 0.0
O2180 O 0.42348 0.4016 0.15058 0.0
O2181 O 0.48776 0.4158 0.21663 0.0
H2182 H 0.41613 0.35516 0.25931 0.0
H2183 H 0.522 0.38577 0.26623 0.0
O2184 O 0.48605 0.42848 0.16225 0.0
O2185 O 0.51669 0.37089 0.14382 0.0
O2186 O 0.51785 0.35913 0.19927 0.0
C2187 C 0.53181 0.35766 0.16954 0.0
H2188 H 0.48811 0.4529 0.04014 0.0
H2189 H 0.43287 0.37035 0.32568 0.0
Co2190 Co 0.40284 0.71462 0.8739 0.0
C2191 C 0.34604 0.73942 0.91042 0.0
Co2192 Co 0.40664 0.70598 0.93076 0.0
C2193 C 0.41498 0.69344 0.80059 0.0
C2194 C 0.37685 0.7327 0.80469 0.0
N2195 N 0.40065 0.71587 0.82398 0.0
N2196 N 0.40009 0.69497 0.76806 0.0
C2197 C 0.37608 0.71974 0.77087 0.0
H2198 H 0.43247 0.6736 0.80816 0.0
H2199 H 0.35879 0.75126 0.81502 0.0
C2200 C 0.46291 0.68133 0.89708 0.0
N2201 N 0.40661 0.70507 0.98027 0.0
C2202 C 0.3972 0.7313 1.0014 0.0
C2203 C 0.41299 0.68084 1.00237 0.0
N2204 N 0.39749 0.72446 0.03545 0.0
C2205 C 0.4074 0.69265 0.03627 0.0
C2206 C 0.37826 0.65167 0.89191 0.0
O2207 O 0.44592 0.69166 0.87079 0.0
O2208 O 0.45234 0.68808 0.92774 0.0
O2209 O 0.38841 0.66092 0.92298 0.0
O2210 O 0.37883 0.67261 0.8684 0.0
O2211 O 0.36101 0.72231 0.93316 0.0
H2212 H 0.42082 0.6561 0.99441 0.0
H2213 H 0.38952 0.75491 0.99183 0.0
O2214 O 0.35889 0.73934 0.88004 0.0
O2215 O 0.42762 0.75632 0.88002 0.0
O2216 O 0.4263 0.75127 0.93643 0.0
C2217 C 0.43379 0.76858 0.91088 0.0
H2218 H 0.35748 0.72669 0.75041 0.0
H2219 H 0.41049 0.6789 0.05951 0.0
Co2220 Co 0.04068 0.66128 0.61494 0.0
C2221 C 1.00461 0.60727 0.64771 0.0
Co2222 Co 0.04939 0.65912 0.67146 0.0
C2223 C 0.05576 0.67415 0.54316 0.0
C2224 C 1.01198 0.64159 0.54658 0.0
N2225 N 0.03424 0.66094 0.56629 0.0
N2226 N 0.04889 0.66255 0.51013 0.0
C2227 C 0.02141 0.64196 0.51235 0.0
H2228 H 0.07918 0.68819 0.55092 0.0
H2229 H 0.99208 0.62593 0.55653 0.0
C2230 C 0.07698 0.71726 0.64521 0.0
N2231 N 0.05823 0.65887 0.71909 0.0
C2232 C 0.03814 0.64612 0.74331 0.0
C2233 C 0.08926 0.66683 0.73613 0.0
N2234 N 0.05567 0.64552 0.77429 0.0
C2235 C 0.08773 0.65856 0.7704 0.0
C2236 C 0.10734 0.63114 0.63325 0.0
O2237 O 0.06787 0.70373 0.61548 0.0
O2238 O 0.07141 0.70141 0.67197 0.0
O2239 O 0.09695 0.63817 0.66407 0.0
O2240 O 0.08529 0.63663 0.60838 0.0
O2241 O 0.02469 0.61699 0.67329 0.0
H2242 H 0.11213 0.67675 0.72406 0.0
H2243 H 1.01177 0.6363 0.73819 0.0
O2244 O 1.00975 0.6205 0.6185 0.0
O2245 O 0.99906 0.68502 0.61947 0.0
O2246 O 1.0027 0.68096 0.67631 0.0
C2247 C 0.98555 0.68988 0.64887 0.0
H2248 H 1.01072 0.62631 0.49115 0.0
H2249 H 0.10845 0.66113 0.79044 0.0
Co2250 Co 0.12904 0.27625 0.3814 0.0
C2251 C 0.17942 0.22873 0.4079 0.0
Co2252 Co 0.1305 0.27248 0.43804 0.0
C2253 C 0.10505 0.30288 0.31497 0.0
C2254 C 0.14324 0.26422 0.3068 0.0
N2255 N 0.12515 0.28015 0.33213 0.0
N2256 N 0.11027 0.30222 0.28045 0.0
C2257 C 0.13476 0.27799 0.27548 0.0
H2258 H 0.09033 0.32268 0.32774 0.0
H2259 H 0.16326 0.24553 0.31107 0.0
C2260 C 0.07552 0.31243 0.41127 0.0
N2261 N 0.13058 0.27574 0.48482 0.0
C2262 C 0.13225 0.25119 0.50617 0.0
C2263 C 0.12665 0.30327 0.50553 0.0
N2264 N 0.12882 0.26215 0.53927 0.0
C2265 C 0.12553 0.29483 0.53958 0.0
C2266 C 0.16972 0.32346 0.41693 0.0
O2267 O 0.08837 0.30343 0.38284 0.0
O2268 O 0.09135 0.3037 0.43888 0.0
O2269 O 0.16352 0.30541 0.44146 0.0
O2270 O 0.15888 0.31435 0.38622 0.0
O2271 O 0.16776 0.23914 0.43723 0.0
H2272 H 0.12346 0.32776 0.49633 0.0
H2273 H 0.1349 0.22576 0.49737 0.0
O2274 O 0.17013 0.2445 0.38063 0.0
O2275 O 0.10006 0.24028 0.3789 0.0
O2276 O 0.09819 0.23864 0.43612 0.0
C2277 C 0.09025 0.22671 0.40606 0.0
H2278 H 0.14813 0.27252 0.25132 0.0
H2279 H 0.12096 0.31083 0.56224 0.0
Co2280 Co 0.51809 0.63403 0.42428 0.0
C2281 C 0.46471 0.66193 0.39334 0.0
Co2282 Co 0.48093 0.59919 0.40636 0.0
C2283 C 0.57751 0.67231 0.42396 0.0
C2284 C 0.55716 0.66843 0.47519 0.0
N2285 N 0.54904 0.66347 0.4409 0.0
N2286 N 0.60412 0.6788 0.44649 0.0
C2287 C 0.59153 0.67783 0.47869 0.0
H2288 H 0.58076 0.669 0.39621 0.0
H2289 H 0.54171 0.66073 0.49646 0.0
C2290 C 0.55324 0.57542 0.42574 0.0
N2291 N 0.44138 0.57259 0.38993 0.0
C2292 C 0.41314 0.5864 0.37224 0.0
C2293 C 0.42669 0.54713 0.40504 0.0
N2294 N 0.38148 0.57293 0.37841 0.0
C2295 C 0.39028 0.5469 0.39751 0.0
C2296 C 0.52321 0.61305 0.35419 0.0
O2297 O 0.54899 0.60171 0.44404 0.0
O2298 O 0.52388 0.56408 0.41047 0.0
O2299 O 0.49354 0.60116 0.36054 0.0
O2300 O 0.54185 0.62626 0.37943 0.0
O2301 O 0.4489 0.63596 0.39978 0.0
H2302 H 0.44026 0.53273 0.42435 0.0
H2303 H 0.41493 0.60831 0.35771 0.0
O2304 O 0.49571 0.66613 0.40445 0.0
O2305 O 0.48921 0.64321 0.46716 0.0
O2306 O 0.46362 0.59701 0.45484 0.0
C2307 C 0.46571 0.62292 0.47483 0.0
H2308 H 0.60712 0.6802 0.50281 0.0
H2309 H 0.37133 0.53171 0.40974 0.0
Co2310 Co 0.10484 0.74302 0.16152 0.0
C2311 C 0.06262 0.6957 0.12923 0.0
Co2312 Co 0.13922 0.70363 0.14256 0.0
C2313 C 0.09164 0.80935 0.16641 0.0
C2314 C 0.06166 0.7854 0.20388 0.0
N2315 N 0.08222 0.77966 0.17634 0.0
N2316 N 0.07713 0.8338 0.18537 0.0
C2317 C 0.05843 0.81863 0.20937 0.0
H2318 H 0.10746 0.81344 0.14407 0.0
H2319 H 0.04966 0.76684 0.21871 0.0
C2320 C 0.17577 0.75806 0.17179 0.0
N2321 N 0.16605 0.66625 0.13047 0.0
C2322 C 0.15237 0.63579 0.1278 0.0
C2323 C 0.2016 0.66133 0.1338 0.0
N2324 N 0.17745 0.61223 0.1311 0.0
C2325 C 0.20867 0.62807 0.13445 0.0
C2326 C 0.13084 0.74833 0.09272 0.0
O2327 O 0.14414 0.76471 0.17799 0.0
O2328 O 0.18296 0.72962 0.15795 0.0
O2329 O 0.14408 0.71997 0.09693 0.0
O2330 O 0.11181 0.76118 0.11663 0.0
O2331 O 0.09269 0.68062 0.12634 0.0
H2332 H 0.22088 0.68047 0.1391 0.0
H2333 H 0.12425 0.63082 0.1285 0.0
O2334 O 0.06267 0.72383 0.14454 0.0
O2335 O 0.09883 0.72463 0.20642 0.0
O2336 O 0.13632 0.68679 0.18907 0.0
C2337 C 0.11754 0.69957 0.21317 0.0
H2338 H 0.04005 0.83085 0.227 0.0
H2339 H 0.23427 0.61673 0.14009 0.0
Co2340 Co 0.06203 0.37853 0.94604 0.0
C2341 C 0.08506 0.34796 1.00544 0.0
Co2342 Co 0.07097 0.32757 0.93458 0.0
C2343 C 0.03088 0.44015 0.93742 0.0
C2344 C 0.07416 0.44316 0.97445 0.0
N2345 N 0.0548 0.42186 0.95405 0.0
N2346 N 0.03303 0.47196 0.94771 0.0
C2347 C 0.06023 0.4741 0.97119 0.0
H2348 H 1.00969 0.42987 0.92077 0.0
H2349 H 0.09657 0.43645 0.99083 0.0
C2350 C 0.0514 0.3622 0.8753 0.0
N2351 N 0.08565 0.2846 0.92586 0.0
C2352 C 0.11472 0.27309 0.94363 0.0
C2353 C 0.08985 0.27312 0.89281 0.0
N2354 N 0.13872 0.2597 0.9222 0.0
C2355 C 0.12278 0.25889 0.89029 0.0
C2356 C 1.00023 0.33673 0.9441 0.0
O2357 O 0.05713 0.38533 0.89761 0.0
O2358 O 0.0538 0.33295 0.88547 0.0
O2359 O 0.02493 0.31516 0.94452 0.0
O2360 O 1.00924 0.36714 0.94624 0.0
O2361 O 0.08734 0.32415 0.9833 0.0
H2362 H 0.07253 0.27841 0.87085 0.0
H2363 H 0.12087 0.27808 0.97093 0.0
O2364 O 0.06912 0.37368 0.99561 0.0
O2365 O 0.11068 0.38852 0.94408 0.0
O2366 O 0.11761 0.33881 0.92314 0.0
C2367 C 0.13054 0.36645 0.93119 0.0
H2368 H 0.06707 0.49576 0.98718 0.0
H2369 H 0.13446 0.24937 0.86645 0.0
Co2370 Co 0.32982 0.32726 0.65923 0.0
C2371 C 0.26904 0.30006 0.63738 0.0
Co2372 Co 0.32369 0.32684 0.60368 0.0
C2373 C 0.36782 0.33591 0.72588 0.0
C2374 C 0.32299 0.30454 0.72792 0.0
N2375 N 0.33921 0.3248 0.70686 0.0
N2376 N 0.36939 0.3243 0.75827 0.0
C2377 C 0.34118 0.30437 0.75937 0.0
H2378 H 0.38585 0.35395 0.7169 0.0
H2379 H 0.29957 0.29041 0.72084 0.0
C2380 C 0.3885 0.34038 0.62236 0.0
N2381 N 0.31647 0.3277 0.55699 0.0
C2382 C 0.30898 0.30144 0.53652 0.0
C2383 C 0.3269 0.35076 0.53555 0.0
N2384 N 0.31821 0.30559 0.50364 0.0
C2385 C 0.32829 0.33695 0.50242 0.0
C2386 C 0.31705 0.38732 0.633 0.0
O2387 O 0.37872 0.3348 0.65273 0.0
O2388 O 0.36609 0.34299 0.59803 0.0
O2389 O 0.30598 0.37018 0.60656 0.0
O2390 O 0.32295 0.37343 0.66162 0.0
O2391 O 0.27925 0.30733 0.60774 0.0
H2392 H 0.33763 0.37434 0.54412 0.0
H2393 H 0.30282 0.278 0.54667 0.0
O2394 O 0.28062 0.31759 0.66368 0.0
O2395 O 0.33829 0.28347 0.65711 0.0
O2396 O 0.34743 0.28356 0.60175 0.0
C2397 C 0.35505 0.27224 0.63153 0.0
H2398 H 0.33276 0.29248 0.78225 0.0
H2399 H 0.34132 0.34727 0.48084 0.0
Co2400 Co 0.13324 0.44187 0.40385 0.0
C2401 C 0.18133 0.48667 0.3844 0.0
Co2402 Co 0.10287 0.47788 0.37869 0.0
C2403 C 0.16785 0.37975 0.40482 0.0
C2404 C 0.16437 0.40089 0.45657 0.0
N2405 N 0.15745 0.40717 0.42308 0.0
N2406 N 0.17709 0.35538 0.42538 0.0
C2407 C 0.17683 0.3691 0.45809 0.0
H2408 H 0.1649 0.37581 0.37699 0.0
H2409 H 0.15779 0.41713 0.47849 0.0
C2410 C 0.05569 0.4327 0.40672 0.0
N2411 N 0.08154 0.51249 0.35938 0.0
C2412 C 0.09703 0.54168 0.35595 0.0
C2413 C 0.05039 0.51373 0.34133 0.0
N2414 N 0.07775 0.56036 0.33512 0.0
C2415 C 0.04783 0.54349 0.32645 0.0
C2416 C 0.11638 0.42895 0.33203 0.0
O2417 O 0.0862 0.42468 0.4198 0.0
O2418 O 0.05598 0.45481 0.38404 0.0
O2419 O 0.10688 0.45851 0.33411 0.0
O2420 O 0.12739 0.41578 0.35963 0.0
O2421 O 0.15176 0.50065 0.37633 0.0
H2422 H 0.032 0.49365 0.33734 0.0
H2423 H 0.12263 0.54898 0.36685 0.0
O2424 O 0.17941 0.45681 0.39129 0.0
O2425 O 0.13886 0.47171 0.44569 0.0
O2426 O 0.09632 0.49886 0.41973 0.0
C2427 C 0.11876 0.49722 0.44423 0.0
H2428 H 0.18045 0.3559 0.4817 0.0
H2429 H 0.02688 0.55102 0.30855 0.0
Co2430 Co 0.30573 0.37992 0.19585 0.0
C2431 C 0.32916 0.3245 0.1569 0.0
Co2432 Co 0.30938 0.39186 0.14226 0.0
C2433 C 0.27993 0.38501 0.26315 0.0
C2434 C 0.31621 0.34501 0.25893 0.0
N2435 N 0.304 0.3713 0.24226 0.0
N2436 N 0.2682 0.3634 0.28526 0.0
C2437 C 0.29455 0.3406 0.2864 0.0
H2438 H 0.26326 0.40506 0.25479 0.0
H2439 H 0.33505 0.32719 0.24861 0.0
C2440 C 0.28473 0.44551 0.18556 0.0
N2441 N 0.31551 0.40224 0.09781 0.0
C2442 C 0.33923 0.38822 0.07612 0.0
C2443 C 0.30478 0.43026 0.08321 0.0
N2444 N 0.34521 0.40755 0.04999 0.0
C2445 C 0.32377 0.43396 0.0541 0.0
C2446 C 0.2439 0.37049 0.15109 0.0
O2447 O 0.29328 0.42485 0.20776 0.0
O2448 O 0.28902 0.43675 0.15369 0.0
O2449 O 0.26608 0.37797 0.12944 0.0
O2450 O 0.25362 0.36991 0.1836 0.0
O2451 O 0.32905 0.34553 0.13306 0.0
H2452 H 0.28595 0.44796 0.09377 0.0
H2453 H 0.35466 0.36634 0.08117 0.0
O2454 O 0.31818 0.33449 0.18623 0.0
O2455 O 0.35409 0.38944 0.20443 0.0
O2456 O 0.35423 0.40702 0.15197 0.0
C2457 C 0.37034 0.40219 0.18022 0.0
H2458 H 0.29255 0.31763 0.29907 0.0
H2459 H 0.32207 0.45443 0.03722 0.0
Co2460 Co 0.40576 0.55572 0.85816 0.0
C2461 C 0.3811 0.53677 0.91941 0.0
Co2462 Co 0.34781 0.55311 0.85674 0.0
C2463 C 0.47862 0.56785 0.84642 0.0
C2464 C 0.47094 0.52753 0.87861 0.0
N2465 N 0.45343 0.55007 0.85962 0.0
N2466 N 0.511 0.55966 0.85944 0.0
C2467 C 0.50641 0.53394 0.87919 0.0
H2468 H 0.4726 0.59005 0.83289 0.0
H2469 H 0.45844 0.50954 0.89383 0.0
C2470 C 0.37784 0.57284 0.79228 0.0
N2471 N 0.29719 0.54769 0.86385 0.0
C2472 C 0.2851 0.51975 0.87802 0.0
C2473 C 0.27174 0.57017 0.87215 0.0
N2474 N 0.2543 0.52413 0.89533 0.0
C2475 C 0.24547 0.55583 0.89111 0.0
C2476 C 0.37734 0.61584 0.88041 0.0
O2477 O 0.40574 0.56497 0.80969 0.0
O2478 O 0.34724 0.57071 0.80721 0.0
O2479 O 0.34829 0.59939 0.87722 0.0
O2480 O 0.40637 0.60188 0.87083 0.0
O2481 O 0.3521 0.53591 0.90214 0.0
H2482 H 0.27397 0.5961 0.86828 0.0
H2483 H 0.30077 0.49742 0.87905 0.0
O2484 O 0.4076 0.54831 0.90563 0.0
O2485 O 0.4058 0.51026 0.84673 0.0
O2486 O 0.34867 0.50867 0.83764 0.0
C2487 C 0.37851 0.49394 0.83859 0.0
H2488 H 0.52647 0.52351 0.89633 0.0
H2489 H 0.22334 0.56855 0.90327 0.0
Co2490 Co 0.2114 0.66053 0.60761 0.0
C2491 C 0.23605 0.63095 0.66388 0.0
Co2492 Co 0.21338 0.60578 0.5999 0.0
C2493 C 0.19789 0.72411 0.64227 0.0
C2494 C 0.22463 0.72712 0.59419 0.0
N2495 N 0.2101 0.70565 0.61488 0.0
N2496 N 0.20322 0.75649 0.6389 0.0
C2497 C 0.22028 0.75815 0.60865 0.0
H2498 H 0.18237 0.7142 0.6625 0.0
H2499 H 0.23651 0.72071 0.56951 0.0
C2500 C 0.18496 0.63801 0.54244 0.0
N2501 N 0.22573 0.5586 0.59759 0.0
C2502 C 0.25014 0.54352 0.61958 0.0
C2503 C 0.22705 0.53937 0.56821 0.0
N2504 N 0.26726 0.51706 0.60463 0.0
C2505 C 0.25203 0.51439 0.57236 0.0
C2506 C 0.14672 0.62915 0.62543 0.0
O2507 O 0.19331 0.66302 0.56178 0.0
O2508 O 0.1928 0.60897 0.55247 0.0
O2509 O 0.1635 0.60215 0.61716 0.0
O2510 O 0.16294 0.65633 0.62306 0.0
O2511 O 0.23113 0.60563 0.64462 0.0
H2512 H 0.21404 0.54525 0.54382 0.0
H2513 H 0.25867 0.5538 0.64476 0.0
O2514 O 0.22776 0.65848 0.65264 0.0
O2515 O 0.26093 0.66407 0.59154 0.0
O2516 O 0.26178 0.61106 0.58304 0.0
C2517 C 0.27793 0.6382 0.58191 0.0
H2518 H 0.22611 0.78059 0.59611 0.0
H2519 H 0.26038 0.49714 0.55189 0.0
Co2520 Co 0.12273 0.53116 0.15514 0.0
C2521 C 0.16891 0.49891 0.11058 0.0
Co2522 Co 0.17858 0.52511 0.17409 0.0
C2523 C 0.0478 0.52796 0.13867 0.0
C2524 C 0.0792 0.53577 0.09464 0.0
N2525 N 0.08132 0.53281 0.12941 0.0
N2526 N 0.02469 0.52908 0.11125 0.0
C2527 C 0.04483 0.53206 0.08331 0.0
H2528 H 0.03992 0.52793 0.16547 0.0
H2529 H 0.10115 0.54169 0.07864 0.0
C2530 C 0.12763 0.5667 0.21341 0.0
N2531 N 0.22528 0.5149 0.19364 0.0
C2532 C 0.24997 0.49594 0.17594 0.0
C2533 C 0.23093 0.50684 0.22694 0.0
N2534 N 0.26751 0.47429 0.196 0.0
C2535 C 0.25659 0.48222 0.22846 0.0
C2536 C 0.17053 0.58093 0.13905 0.0
O2537 O 0.10454 0.55643 0.19115 0.0
O2538 O 0.15981 0.55418 0.21342 0.0
O2539 O 0.19446 0.56352 0.15374 0.0
O2540 O 0.13857 0.57059 0.13626 0.0
O2541 O 0.19259 0.5003 0.13422 0.0
H2542 H 0.2136 0.51424 0.24789 0.0
H2543 H 0.25214 0.49481 0.14798 0.0
O2544 O 0.13866 0.50879 0.1182 0.0
O2545 O 0.10765 0.49036 0.17602 0.0
O2546 O 0.1626 0.48596 0.19525 0.0
C2547 C 0.13126 0.4747 0.19341 0.0
H2548 H 0.03469 0.53759 0.0576 0.0
H2549 H 0.26331 0.46858 0.25124 0.0
Co2550 Co 0.23785 0.35153 0.93378 0.0
C2551 C 0.23928 0.38791 0.8757 0.0
Co2552 Co 0.23073 0.40651 0.94286 0.0
C2553 C 0.25088 0.27818 0.93868 0.0
C2554 C 0.26652 0.29756 0.89131 0.0
N2555 N 0.2507 0.30655 0.92164 0.0
N2556 N 0.26396 0.25208 0.9192 0.0
C2557 C 0.27376 0.26457 0.88948 0.0
H2558 H 0.2394 0.27629 0.96394 0.0
H2559 H 0.27284 0.31373 0.87108 0.0
C2560 C 0.22456 0.36818 1.00316 0.0
N2561 N 0.22679 0.45419 0.94433 0.0
C2562 C 0.25095 0.47236 0.92746 0.0
C2563 C 0.19798 0.4743 0.94604 0.0
N2564 N 0.23823 0.50195 0.91793 0.0
C2565 C 0.20496 0.50352 0.9302 0.0
C2566 C 0.16865 0.37091 0.93051 0.0
O2567 O 0.2347 0.34431 0.98282 0.0
O2568 O 0.22374 0.3978 0.99214 0.0
O2569 O 0.18137 0.39979 0.93487 0.0
O2570 O 0.18889 0.34548 0.92933 0.0
O2571 O 0.23649 0.41206 0.89664 0.0
H2572 H 0.17225 0.46703 0.95472 0.0
H2573 H 0.27619 0.46257 0.91882 0.0
O2574 O 0.23779 0.35952 0.88689 0.0
O2575 O 0.28716 0.35943 0.93734 0.0
O2576 O 0.27963 0.41172 0.9502 0.0
C2577 C 0.29996 0.38784 0.94264 0.0
H2578 H 0.28432 0.25061 0.86742 0.0
H2579 H 0.18598 0.5231 0.92568 0.0
Co2580 Co 0.36517 0.47203 0.60327 0.0
C2581 C 0.43386 0.45837 0.63727 0.0
Co2582 Co 0.36005 0.48011 0.65731 0.0
C2583 C 0.35724 0.48445 0.53266 0.0
C2584 C 0.39679 0.44798 0.53998 0.0
N2585 N 0.37112 0.46539 0.55648 0.0
N2586 N 0.38089 0.48892 0.50786 0.0
C2587 C 0.40224 0.46213 0.50903 0.0
H2588 H 0.33726 0.50268 0.53961 0.0
H2589 H 0.41445 0.43035 0.55187 0.0
C2590 C 0.29818 0.50072 0.61551 0.0
N2591 N 0.34856 0.48079 0.7024 0.0
C2592 C 0.36835 0.46121 0.72173 0.0
C2593 C 0.31457 0.47599 0.71199 0.0
N2594 N 0.3482 0.44089 0.73842 0.0
C2595 C 0.31427 0.45053 0.73384 0.0
C2596 C 0.38323 0.53499 0.64122 0.0
O2597 O 0.31601 0.48414 0.59355 0.0
O2598 O 0.31186 0.50328 0.64638 0.0
O2599 O 0.3788 0.51744 0.66584 0.0
O2600 O 0.37854 0.52237 0.60956 0.0
O2601 O 0.41357 0.46024 0.66413 0.0
H2602 H 0.29089 0.48625 0.7 0.0
H2603 H 0.39701 0.45944 0.72111 0.0
O2604 O 0.41658 0.46081 0.60883 0.0
O2605 O 0.34998 0.42636 0.60102 0.0
O2606 O 0.33775 0.43869 0.65417 0.0
C2607 C 0.33427 0.41924 0.62836 0.0
H2608 H 0.42641 0.45886 0.49459 0.0
H2609 H 0.29125 0.43929 0.74439 0.0
Co2610 Co 0.29647 0.63864 0.38771 0.0
C2611 C 0.26097 0.61027 0.33272 0.0
Co2612 Co 0.27689 0.58734 0.39713 0.0
C2613 C 0.33507 0.70389 0.38567 0.0
C2614 C 0.27988 0.70668 0.37309 0.0
N2615 N 0.30631 0.68447 0.37965 0.0
N2616 N 0.3271 0.7367 0.38469 0.0
C2617 C 0.29216 0.73842 0.37737 0.0
H2618 H 0.36098 0.69422 0.39299 0.0
H2619 H 0.25254 0.70054 0.36644 0.0
C2620 C 0.31539 0.62089 0.45218 0.0
N2621 N 0.25503 0.54412 0.40061 0.0
C2622 C 0.22073 0.53613 0.38953 0.0
C2623 C 0.26941 0.51495 0.40856 0.0
N2624 N 0.21327 0.50349 0.39041 0.0
C2625 C 0.24424 0.49044 0.4026 0.0
C2626 C 0.34808 0.58739 0.37646 0.0
O2627 O 0.31243 0.64445 0.43223 0.0
O2628 O 0.30043 0.59289 0.44395 0.0
O2629 O 0.32096 0.56963 0.3813 0.0
O2630 O 0.34399 0.61905 0.37582 0.0
O2631 O 0.25645 0.58639 0.35194 0.0
H2632 H 0.29672 0.51146 0.41743 0.0
H2633 H 0.20157 0.55407 0.38054 0.0
O2634 O 0.28198 0.63287 0.34283 0.0
O2635 O 0.24848 0.65392 0.40119 0.0
O2636 O 0.23466 0.60443 0.41387 0.0
C2637 C 0.22602 0.63416 0.41216 0.0
H2638 H 0.27691 0.76079 0.37414 0.0
H2639 H 0.24857 0.46473 0.40724 0.0
Co2640 Co 0.37093 0.1365 0.47585 0.0
C2641 C 0.41755 0.17015 0.52383 0.0
Co2642 Co 0.36316 0.18792 0.476 0.0
C2643 C 0.34716 0.07255 0.47085 0.0
C2644 C 0.39572 0.07608 0.50087 0.0
N2645 N 0.3732 0.09337 0.48089 0.0
N2646 N 0.35554 0.04185 0.47835 0.0
C2647 C 0.38363 0.04478 0.5011 0.0
H2648 H 0.32484 0.07852 0.45382 0.0
H2649 H 0.42036 0.08489 0.5127 0.0
C2650 C 0.31852 0.15522 0.42608 0.0
N2651 N 0.3569 0.23133 0.47127 0.0
C2652 C 0.34612 0.25204 0.49651 0.0
C2653 C 0.35242 0.24761 0.44154 0.0
N2654 N 0.33358 0.28002 0.48377 0.0
C2655 C 0.33803 0.27815 0.44934 0.0
C2656 C 0.41069 0.16139 0.426 0.0
O2657 O 0.3356 0.13091 0.43768 0.0
O2658 O 0.3241 0.18244 0.44213 0.0
O2659 O 0.39547 0.18743 0.43769 0.0
O2660 O 0.40647 0.13537 0.44204 0.0
O2661 O 0.40279 0.19531 0.51087 0.0
H2662 H 0.35667 0.23705 0.41567 0.0
H2663 H 0.34609 0.24604 0.52355 0.0
O2664 O 0.40671 0.14235 0.51246 0.0
O2665 O 0.33533 0.13446 0.5094 0.0
O2666 O 0.32889 0.18693 0.51556 0.0
C2667 C 0.3208 0.15841 0.52508 0.0
H2668 H 0.39891 0.02449 0.51113 0.0
H2669 H 0.32986 0.2966 0.43138 0.0
Co2670 Co 0.90299 0.3927 0.61266 0.0
C2671 C 0.95394 0.358 0.57705 0.0
Co2672 Co 0.88944 0.33967 0.60632 0.0
C2673 C 0.89248 0.46667 0.6175 0.0
C2674 C 0.93088 0.44926 0.58213 0.0
N2675 N 0.91105 0.43899 0.60829 0.0
N2676 N 0.90083 0.49373 0.59947 0.0
C2677 C 0.92487 0.48178 0.57701 0.0
H2678 H 0.87358 0.46741 0.63812 0.0
H2679 H 0.94815 0.43409 0.5661 0.0
C2680 C 0.83649 0.37596 0.63761 0.0
N2681 N 0.88341 0.29379 0.59663 0.0
C2682 C 0.88726 0.27944 0.56421 0.0
C2683 C 0.88283 0.26825 0.6176 0.0
N2684 N 0.8895 0.24636 0.56419 0.0
C2685 C 0.88659 0.2391 0.59778 0.0
C2686 C 0.92667 0.35758 0.67318 0.0
O2687 O 0.85768 0.39919 0.63163 0.0
O2688 O 0.84557 0.34602 0.63078 0.0
O2689 O 0.9155 0.33347 0.6528 0.0
O2690 O 0.92427 0.3867 0.66104 0.0
O2691 O 0.93217 0.33492 0.57975 0.0
H2692 H 0.88196 0.27063 0.64565 0.0
H2693 H 0.89097 0.29317 0.54129 0.0
O2694 O 0.94827 0.38469 0.59384 0.0
O2695 O 0.88068 0.39771 0.56709 0.0
O2696 O 0.8628 0.34732 0.56383 0.0
C2697 C 0.86203 0.37567 0.55167 0.0
H2698 H 0.94009 0.49648 0.56019 0.0
H2699 H 0.88846 0.21474 0.60757 0.0
Co2700 Co 0.38564 0.13784 0.32429 0.0
C2701 C 0.41976 0.19071 0.3007 0.0
Co2702 Co 0.44151 0.12952 0.32702 0.0
C2703 C 0.31938 0.14351 0.2888 0.0
C2704 C 0.32574 0.17778 0.33196 0.0
N2705 N 0.33887 0.14923 0.3184 0.0
N2706 N 0.29347 0.16622 0.28406 0.0
C2707 C 0.2994 0.18888 0.31032 0.0
H2708 H 0.32129 0.12101 0.27289 0.0
H2709 H 0.33666 0.19124 0.35461 0.0
C2710 C 0.40279 0.07666 0.35087 0.0
N2711 N 0.49051 0.12344 0.32873 0.0
C2712 C 0.51369 0.14606 0.31929 0.0
C2713 C 0.50727 0.09446 0.32265 0.0
N2714 N 0.54248 0.1325 0.3043 0.0
C2715 C 0.53908 0.10001 0.30731 0.0
C2716 C 0.41372 0.15695 0.38812 0.0
O2717 O 0.37706 0.09302 0.3371 0.0
O2718 O 0.43416 0.08853 0.35072 0.0
O2719 O 0.44327 0.15255 0.37297 0.0
O2720 O 0.38502 0.15071 0.37124 0.0
O2721 O 0.44648 0.17125 0.30091 0.0
H2722 H 0.49463 0.07086 0.32321 0.0
H2723 H 0.507 0.17169 0.31715 0.0
O2724 O 0.3924 0.18112 0.31405 0.0
O2725 O 0.38633 0.12422 0.27534 0.0
O2726 O 0.44008 0.10556 0.28297 0.0
C2727 C 0.41279 0.10868 0.26331 0.0
H2728 H 0.28229 0.20976 0.31642 0.0
H2729 H 0.55494 0.08152 0.29367 0.0
Co2730 Co 0.62766 0.59722 0.0931 0.0
C2731 C 0.57064 0.62108 0.0544 0.0
Co2732 Co 0.62575 0.65029 0.09127 0.0
C2733 C 0.64993 0.53376 0.11538 0.0
C2734 C 0.60542 0.53037 0.07946 0.0
N2735 N 0.62845 0.55195 0.09505 0.0
N2736 N 0.64 0.50214 0.11458 0.0
C2737 C 0.61193 0.49997 0.09206 0.0
H2738 H 0.66912 0.54425 0.13417 0.0
H2739 H 0.58359 0.53649 0.06198 0.0
C2740 C 0.68853 0.62775 0.11709 0.0
N2741 N 0.62566 0.69421 0.09076 0.0
C2742 C 0.61712 0.71031 0.06252 0.0
C2743 C 0.63793 0.71709 0.11461 0.0
N2744 N 0.62488 0.74203 0.06691 0.0
C2745 C 0.6378 0.74702 0.09958 0.0
C2746 C 0.60303 0.62977 0.15285 0.0
O2747 O 0.6749 0.59963 0.11205 0.0
O2748 O 0.66945 0.65298 0.11411 0.0
O2749 O 0.60335 0.65468 0.13457 0.0
O2750 O 0.60917 0.60176 0.13833 0.0
O2751 O 0.58252 0.6488 0.06477 0.0
H2752 H 0.64871 0.7119 0.14016 0.0
H2753 H 0.60822 0.69842 0.03818 0.0
O2754 O 0.58122 0.59604 0.07055 0.0
O2755 O 0.6473 0.59232 0.05126 0.0
O2756 O 0.65013 0.64577 0.04828 0.0
C2757 C 0.65798 0.61702 0.03647 0.0
H2758 H 0.59532 0.47861 0.08747 0.0
H2759 H 0.64915 0.76962 0.11044 0.0
Co2760 Co 0.65956 0.39443 0.3644 0.0
C2761 C 0.62571 0.34834 0.32 0.0
Co2762 Co 0.60396 0.40594 0.35934 0.0
C2763 C 0.7333 0.40245 0.38001 0.0
C2764 C 0.72413 0.36397 0.34159 0.0
N2765 N 0.70721 0.386 0.36301 0.0
N2766 N 0.7655 0.38979 0.37238 0.0
C2767 C 0.75987 0.3657 0.34804 0.0
H2768 H 0.72857 0.42028 0.40112 0.0
H2769 H 0.71185 0.34674 0.32293 0.0
C2770 C 0.63831 0.45046 0.40649 0.0
N2771 N 0.5554 0.41212 0.35465 0.0
C2772 C 0.53272 0.38715 0.34788 0.0
C2773 C 0.53705 0.4392 0.34614 0.0
N2774 N 0.50176 0.39696 0.33327 0.0
C2775 C 0.50407 0.42988 0.33272 0.0
C2776 C 0.62308 0.37158 0.42086 0.0
O2777 O 0.66525 0.4354 0.39323 0.0
O2778 O 0.60801 0.44334 0.39244 0.0
O2779 O 0.59657 0.38022 0.40143 0.0
O2780 O 0.65401 0.37315 0.40815 0.0
O2781 O 0.59971 0.36801 0.32457 0.0
H2782 H 0.54852 0.46329 0.34513 0.0
H2783 H 0.54075 0.36163 0.34819 0.0
O2784 O 0.65319 0.35358 0.33876 0.0
O2785 O 0.66736 0.4169 0.32043 0.0
O2786 O 0.61234 0.43322 0.31832 0.0
C2787 C 0.64312 0.43279 0.30469 0.0
H2788 H 0.77987 0.34861 0.33822 0.0
H2789 H 0.48578 0.44534 0.31847 0.0
Co2790 Co 0.14915 0.90889 1.02013 0.0
C2791 C 0.08914 0.88917 0.05871 0.0
Co2792 Co 0.14973 0.85649 1.02616 0.0
C2793 C 0.15204 0.97333 0.0457 0.0
C2794 C 0.1102 0.9656 1.00785 0.0
N2795 N 0.14152 0.95277 1.01898 0.0
N2796 N 0.13058 0.99965 0.05019 0.0
C2797 C 0.10308 0.99363 1.02734 0.0
H2798 H 0.17816 0.97223 0.05828 0.0
H2799 H 0.09219 0.95418 0.98863 0.0
C2800 C 0.21121 0.8809 0.99269 0.0
N2801 N 0.15013 0.81127 0.03499 0.0
C2802 C 0.1343 0.79892 0.06268 0.0
C2803 C 0.16633 0.78504 1.01943 0.0
N2804 N 0.13991 0.76638 0.0653 0.0
C2805 C 0.1603 0.75745 0.03813 0.0
C2806 C 0.12084 0.8731 0.96037 0.0
O2807 O 0.19297 0.90763 0.99474 0.0
O2808 O 0.19765 0.85485 1.00435 0.0
O2809 O 0.12849 0.84835 0.97855 0.0
O2810 O 0.12279 0.9014 0.97586 0.0
O2811 O 0.10086 0.8605 0.04976 0.0
H2812 H 0.18241 0.78601 0.99669 0.0
H2813 H 0.12065 0.81394 0.08206 0.0
O2814 O 0.10653 0.9124 0.04784 0.0
O2815 O 0.17783 0.9161 0.06048 0.0
O2816 O 0.17434 0.8647 0.07085 0.0
C2817 C 0.18741 0.89288 0.07851 0.0
H2818 H 0.08147 0.01058 1.02188 0.0
H2819 H 0.17099 0.73307 0.03273 0.0
Co2820 Co 0.3959 0.88671 0.26707 0.0
C2821 C 0.41277 0.83723 0.31499 0.0
Co2822 Co 0.45091 0.8809 0.2809 0.0
C2823 C 0.32556 0.91076 0.24975 0.0
C2824 C 0.32721 0.86188 0.26734 0.0
N2825 N 0.34816 0.88659 0.2585 0.0
N2826 N 0.29138 0.90145 0.25179 0.0
C2827 C 0.29267 0.87151 0.26506 0.0
H2828 H 0.33403 0.93342 0.23922 0.0
H2829 H 0.33607 0.83767 0.27407 0.0
C2830 C 0.4384 0.93184 0.24041 0.0
N2831 N 0.49952 0.87744 0.29864 0.0
C2832 C 0.51219 0.85715 0.32374 0.0
C2833 C 0.52273 0.90251 0.30079 0.0
N2834 N 0.54055 0.86963 0.34228 0.0
C2835 C 0.54709 0.89814 0.32762 0.0
C2836 C 0.43036 0.85353 0.21321 0.0
O2837 O 0.40684 0.92022 0.2352 0.0
O2838 O 0.45987 0.91876 0.26143 0.0
O2839 O 0.45896 0.85961 0.23212 0.0
O2840 O 0.40134 0.85435 0.22942 0.0
O2841 O 0.44287 0.84021 0.3023 0.0
H2842 H 0.5198 0.92478 0.28698 0.0
H2843 H 0.49794 0.83628 0.33221 0.0
O2844 O 0.38809 0.85518 0.30325 0.0
O2845 O 0.38714 0.91943 0.299 0.0
O2846 O 0.43814 0.90838 0.32447 0.0
C2847 C 0.40917 0.92587 0.32297 0.0
H2848 H 0.27017 0.85551 0.26756 0.0
H2849 H 0.56625 0.91612 0.33758 0.0
Co2850 Co 0.16718 0.12514 0.74116 0.0
C2851 C 0.14242 0.17881 0.77499 0.0
Co2852 Co 0.11377 0.11805 0.75644 0.0
C2853 C 0.23588 0.116 0.71088 0.0
C2854 C 0.2344 0.15322 0.75142 0.0
N2855 N 0.21357 0.13201 0.73216 0.0
N2856 N 0.26905 0.12837 0.71411 0.0
C2857 C 0.26822 0.15139 0.74008 0.0
H2858 H 0.22695 0.09848 0.69052 0.0
H2859 H 0.22568 0.16928 0.77248 0.0
C2860 C 0.14457 0.06123 0.73009 0.0
N2861 N 0.07027 0.11311 0.77597 0.0
C2862 C 0.06536 0.12178 0.80987 0.0
C2863 C 0.04061 0.097 0.76522 0.0
N2864 N 0.03455 0.11103 0.82108 0.0
C2865 C 0.01834 0.09584 0.79304 0.0
C2866 C 0.11526 0.13389 0.68929 0.0
O2867 O 0.17193 0.07923 0.73066 0.0
O2868 O 0.11414 0.07412 0.73657 0.0
O2869 O 0.09351 0.13314 0.71403 0.0
O2870 O 0.1488 0.13116 0.69558 0.0
O2871 O 0.11575 0.16089 0.77887 0.0
H2872 H 0.03635 0.08541 0.73961 0.0
H2873 H 0.08509 0.13404 0.82676 0.0
O2874 O 0.16301 0.17038 0.75101 0.0
O2875 O 0.18549 0.11785 0.78506 0.0
O2876 O 0.1327 0.10149 0.79545 0.0
C2877 C 0.1653 0.10192 0.80285 0.0
H2878 H 0.28957 0.1681 0.7476 0.0
H2879 H 0.993 0.0835 0.79303 0.0
loop_
_geom_bond_atom_site_label_1
_geom_bond_atom_site_label_2
_geom_bond_distance
_geom_bond_site_symmetry_2
_ccdc_geom_bond_type
Co0 N5 2.057 . S
Co0 O17 2.021 . S
Co0 O20 2.062 . S
Co0 O24 2.117 . S
Co0 O25 2.020 . S
C1 O21 1.259 . S
C1 O24 1.258 . S
Co2 N11 2.057 . S
Co2 O18 2.117 . S
Co2 O19 2.020 . S
Co2 O21 2.021 . S
Co2 O26 2.062 . S
C3 N5 1.316 . S
C3 N6 1.347 . S
C3 H8 0.931 . S
C4 N5 1.375 . S
C4 C7 1.350 . S
C4 H9 0.930 . S
N5 Co0 2.057 . S
N5 C3 1.316 . S
N5 C4 1.375 . S
N6 C3 1.347 . S
N6 C7 1.373 . S
C7 C4 1.350 . S
C7 N6 1.373 . S
C7 H28 0.931 . S
H8 C3 0.931 . S
H9 C4 0.930 . S
C10 O17 1.259 . S
C10 O18 1.258 . S
N11 Co2 2.057 . S
N11 C12 1.316 . S
N11 C13 1.375 . S
C12 N11 1.316 . S
C12 N14 1.347 . S
C12 H23 0.931 . S
C13 N11 1.375 . S
C13 C15 1.350 . S
C13 H22 0.930 . S
N14 C12 1.347 . S
N14 C15 1.373 . S
C15 C13 1.350 . S
C15 N14 1.373 . S
C15 H29 0.931 . S
C16 O19 1.256 . S
C16 O20 1.255 . S
O17 Co0 2.021 . S
O17 C10 1.259 . S
O18 Co2 2.117 . S
O18 C10 1.258 . S
O19 Co2 2.020 . S
O19 C16 1.256 . S
O20 Co0 2.062 . S
O20 C16 1.255 . S
O21 C1 1.259 . S
O21 Co2 2.021 . S
H22 C13 0.930 . S
H23 C12 0.931 . S
O24 Co0 2.117 . S
O24 C1 1.258 . S
O25 Co0 2.020 . S
O25 C27 1.256 . S
O26 Co2 2.062 . S
O26 C27 1.255 . S
C27 O25 1.256 . S
C27 O26 1.255 . S
H28 C7 0.931 . S
H29 C15 0.931 . S
Co30 N35 2.057 . S
Co30 O47 2.021 . S
Co30 O50 2.062 . S
Co30 O54 2.117 . S
Co30 O55 2.020 . S
C31 O51 1.259 . S
C31 O54 1.258 . S
Co32 N41 2.057 . S
Co32 O48 2.117 . S
Co32 O49 2.020 . S
Co32 O51 2.021 . S
Co32 O56 2.062 . S
C33 N35 1.316 . S
C33 N36 1.347 . S
C33 H38 0.931 . S
C34 N35 1.375 . S
C34 C37 1.350 . S
C34 H39 0.930 . S
N35 Co30 2.057 . S
N35 C33 1.316 . S
N35 C34 1.375 . S
N36 C33 1.347 . S
N36 C37 1.373 . S
C37 C34 1.350 . S
C37 N36 1.373 . S
C37 H58 0.931 . S
H38 C33 0.931 . S
H39 C34 0.930 . S
C40 O47 1.259 . S
C40 O48 1.258 . S
N41 Co32 2.057 . S
N41 C42 1.316 . S
N41 C43 1.375 . S
C42 N41 1.316 . S
C42 N44 1.347 . S
C42 H53 0.931 . S
C43 N41 1.375 . S
C43 C45 1.350 . S
C43 H52 0.930 . S
N44 C42 1.347 . S
N44 C45 1.373 . S
C45 C43 1.350 . S
C45 N44 1.373 . S
C45 H59 0.931 . S
C46 O49 1.256 . S
C46 O50 1.255 . S
O47 Co30 2.021 . S
O47 C40 1.259 . S
O48 Co32 2.117 . S
O48 C40 1.258 . S
O49 Co32 2.020 . S
O49 C46 1.256 . S
O50 Co30 2.062 . S
O50 C46 1.255 . S
O51 C31 1.259 . S
O51 Co32 2.021 . S
H52 C43 0.930 . S
H53 C42 0.931 . S
O54 Co30 2.117 . S
O54 C31 1.258 . S
O55 Co30 2.020 . S
O55 C57 1.256 . S
O56 Co32 2.062 . S
O56 C57 1.255 . S
C57 O55 1.256 . S
C57 O56 1.255 . S
H58 C37 0.931 . S
H59 C45 0.931 . S
Co60 N65 2.057 . S
Co60 O77 2.021 . S
Co60 O80 2.062 . S
Co60 O84 2.117 . S
Co60 O85 2.020 . S
C61 O81 1.259 . S
C61 O84 1.258 . S
Co62 N71 2.057 . S
Co62 O78 2.117 . S
Co62 O79 2.020 . S
Co62 O81 2.021 . S
Co62 O86 2.062 . S
C63 N65 1.316 . S
C63 N66 1.347 . S
C63 H68 0.931 . S
C64 N65 1.375 . S
C64 C67 1.350 . S
C64 H69 0.930 . S
N65 Co60 2.057 . S
N65 C63 1.316 . S
N65 C64 1.375 . S
N66 C63 1.347 . S
N66 C67 1.373 . S
C67 C64 1.350 . S
C67 N66 1.373 . S
C67 H88 0.931 . S
H68 C63 0.931 . S
H69 C64 0.930 . S
C70 O77 1.259 . S
C70 O78 1.258 . S
N71 Co62 2.057 . S
N71 C72 1.316 . S
N71 C73 1.375 . S
C72 N71 1.316 . S
C72 N74 1.347 1_556 S
C72 H83 0.931 . S
C73 N71 1.375 . S
C73 C75 1.350 1_556 S
C73 H82 0.930 . S
N74 C72 1.347 1_554 S
N74 C75 1.373 . S
C75 C73 1.350 1_554 S
C75 N74 1.373 . S
C75 H89 0.931 . S
C76 O79 1.256 . S
C76 O80 1.255 . S
O77 Co60 2.021 . S
O77 C70 1.259 . S
O78 Co62 2.117 . S
O78 C70 1.258 . S
O79 Co62 2.020 . S
O79 C76 1.256 . S
O80 Co60 2.062 . S
O80 C76 1.255 . S
O81 C61 1.259 . S
O81 Co62 2.021 . S
H82 C73 0.930 . S
H83 C72 0.931 . S
O84 Co60 2.117 . S
O84 C61 1.258 . S
O85 Co60 2.020 . S
O85 C87 1.256 . S
O86 Co62 2.062 . S
O86 C87 1.255 . S
C87 O85 1.256 . S
C87 O86 1.255 . S
H88 C67 0.931 . S
H89 C75 0.931 . S
Co90 N95 2.057 . S
Co90 O107 2.021 . S
Co90 O110 2.062 . S
Co90 O114 2.117 . S
Co90 O115 2.020 . S
C91 O111 1.259 . S
C91 O114 1.258 . S
Co92 N101 2.057 . S
Co92 O108 2.117 . S
Co92 O109 2.020 . S
Co92 O111 2.021 . S
Co92 O116 2.062 . S
C93 N95 1.316 . S
C93 N96 1.347 1_554 S
C93 H98 0.931 . S
C94 N95 1.375 . S
C94 C97 1.350 1_554 S
C94 H99 0.930 . S
N95 Co90 2.057 . S
N95 C93 1.316 . S
N95 C94 1.375 . S
N96 C93 1.347 1_556 S
N96 C97 1.373 . S
C97 C94 1.350 1_556 S
C97 N96 1.373 . S
C97 H118 0.931 . S
H98 C93 0.931 . S
H99 C94 0.930 . S
C100 O107 1.259 . S
C100 O108 1.258 . S
N101 Co92 2.057 . S
N101 C102 1.316 . S
N101 C103 1.375 . S
C102 N101 1.316 . S
C102 N104 1.347 . S
C102 H113 0.931 . S
C103 N101 1.375 . S
C103 C105 1.350 . S
C103 H112 0.930 . S
N104 C102 1.347 . S
N104 C105 1.373 . S
C105 C103 1.350 . S
C105 N104 1.373 . S
C105 H119 0.931 . S
C106 O109 1.256 . S
C106 O110 1.255 . S
O107 Co90 2.021 . S
O107 C100 1.259 . S
O108 Co92 2.117 . S
O108 C100 1.258 . S
O109 Co92 2.020 . S
O109 C106 1.256 . S
O110 Co90 2.062 . S
O110 C106 1.255 . S
O111 C91 1.259 . S
O111 Co92 2.021 . S
H112 C103 0.930 . S
H113 C102 0.931 . S
O114 Co90 2.117 . S
O114 C91 1.258 . S
O115 Co90 2.020 . S
O115 C117 1.256 . S
O116 Co92 2.062 . S
O116 C117 1.255 . S
C117 O115 1.256 . S
C117 O116 1.255 . S
H118 C97 0.931 . S
H119 C105 0.931 . S
Co120 N125 2.057 . S
Co120 O137 2.021 . S
Co120 O140 2.062 . S
Co120 O144 2.117 . S
Co120 O145 2.020 . S
C121 O141 1.259 . S
C121 O144 1.258 1_655 S
Co122 N131 2.057 . S
Co122 O138 2.117 1_655 S
Co122 O139 2.020 1_655 S
Co122 O141 2.021 . S
Co122 O146 2.062 . S
C123 N125 1.316 . S
C123 N126 1.347 . S
C123 H128 0.931 . S
C124 N125 1.375 . S
C124 C127 1.350 . S
C124 H129 0.920 1_565 S
N125 Co120 2.057 . S
N125 C123 1.316 . S
N125 C124 1.375 . S
N126 C123 1.347 . S
N126 C127 1.373 . S
C127 C124 1.350 . S
C127 N126 1.373 . S
C127 H148 0.931 1_565 S
H128 C123 0.931 . S
H129 C124 0.920 1_545 S
C130 O137 1.259 . S
C130 O138 1.258 . S
N131 Co122 2.057 . S
N131 C132 1.316 . S
N131 C133 1.375 . S
C132 N131 1.316 . S
C132 N134 1.347 . S
C132 H143 0.931 . S
C133 N131 1.375 . S
C133 C135 1.350 . S
C133 H142 0.930 . S
N134 C132 1.347 . S
N134 C135 1.373 . S
C135 C133 1.350 . S
C135 N134 1.373 . S
C135 H149 0.931 . S
C136 O139 1.256 . S
C136 O140 1.255 . S
O137 Co120 2.021 . S
O137 C130 1.259 . S
O138 Co122 2.117 1_455 S
O138 C130 1.258 . S
O139 Co122 2.020 1_455 S
O139 C136 1.256 . S
O140 Co120 2.062 . S
O140 C136 1.255 . S
O141 C121 1.259 . S
O141 Co122 2.021 . S
H142 C133 0.930 . S
H143 C132 0.931 . S
O144 Co120 2.117 . S
O144 C121 1.258 1_455 S
O145 Co120 2.020 . S
O145 C147 1.256 . S
O146 Co122 2.062 . S
O146 C147 1.255 1_655 S
C147 O145 1.256 . S
C147 O146 1.255 1_455 S
H148 C127 0.931 1_545 S
H149 C135 0.931 . S
Co150 N155 2.057 . S
Co150 O167 2.021 . S
Co150 O170 2.062 . S
Co150 O174 2.117 . S
Co150 O175 2.020 . S
C151 O171 1.259 . S
C151 O174 1.258 . S
Co152 N161 2.057 . S
Co152 O168 2.117 . S
Co152 O169 2.020 . S
Co152 O171 2.021 . S
Co152 O176 2.062 . S
C153 N155 1.316 . S
C153 N156 1.347 . S
C153 H158 0.931 . S
C154 N155 1.375 . S
C154 C157 1.350 . S
C154 H159 0.930 . S
N155 Co150 2.057 . S
N155 C153 1.316 . S
N155 C154 1.375 . S
N156 C153 1.347 . S
N156 C157 1.373 . S
C157 C154 1.350 . S
C157 N156 1.373 . S
C157 H178 0.931 . S
H158 C153 0.931 . S
H159 C154 0.930 . S
C160 O167 1.259 . S
C160 O168 1.258 . S
N161 Co152 2.057 . S
N161 C162 1.316 . S
N161 C163 1.375 . S
C162 N161 1.316 . S
C162 N164 1.347 . S
C162 H173 0.931 . S
C163 N161 1.375 . S
C163 C165 1.350 . S
C163 H172 0.930 . S
N164 C162 1.347 . S
N164 C165 1.373 . S
C165 C163 1.350 . S
C165 N164 1.373 . S
C165 H179 0.931 . S
C166 O169 1.256 . S
C166 O170 1.255 . S
O167 Co150 2.021 . S
O167 C160 1.259 . S
O168 Co152 2.117 . S
O168 C160 1.258 . S
O169 Co152 2.020 . S
O169 C166 1.256 . S
O170 Co150 2.062 . S
O170 C166 1.255 . S
O171 C151 1.259 . S
O171 Co152 2.021 . S
H172 C163 0.930 . S
H173 C162 0.931 . S
O174 Co150 2.117 . S
O174 C151 1.258 . S
O175 Co150 2.020 . S
O175 C177 1.256 . S
O176 Co152 2.062 . S
O176 C177 1.255 . S
C177 O175 1.256 . S
C177 O176 1.255 . S
H178 C157 0.931 . S
H179 C165 0.931 . S
Co180 N185 2.057 . S
Co180 O197 2.021 . S
Co180 O200 2.062 . S
Co180 O204 2.117 . S
Co180 O205 2.020 . S
C181 O201 1.259 . S
C181 O204 1.258 . S
Co182 N191 2.057 . S
Co182 O198 2.117 . S
Co182 O199 2.020 . S
Co182 O201 2.021 . S
Co182 O206 2.062 . S
C183 N185 1.316 . S
C183 N186 1.347 . S
C183 H188 0.931 . S
C184 N185 1.375 . S
C184 C187 1.350 . S
C184 H189 0.930 . S
N185 Co180 2.057 . S
N185 C183 1.316 . S
N185 C184 1.375 . S
N186 C183 1.347 . S
N186 C187 1.373 . S
C187 C184 1.350 . S
C187 N186 1.373 . S
C187 H208 0.931 . S
H188 C183 0.931 . S
H189 C184 0.930 . S
C190 O197 1.259 . S
C190 O198 1.258 . S
N191 Co182 2.057 . S
N191 C192 1.316 . S
N191 C193 1.375 . S
C192 N191 1.316 . S
C192 N194 1.347 . S
C192 H203 0.931 . S
C193 N191 1.375 . S
C193 C195 1.350 . S
C193 H202 0.930 . S
N194 C192 1.347 . S
N194 C195 1.373 . S
C195 C193 1.350 . S
C195 N194 1.373 . S
C195 H209 0.931 . S
C196 O199 1.256 . S
C196 O200 1.255 . S
O197 Co180 2.021 . S
O197 C190 1.259 . S
O198 Co182 2.117 . S
O198 C190 1.258 . S
O199 Co182 2.020 . S
O199 C196 1.256 . S
O200 Co180 2.062 . S
O200 C196 1.255 . S
O201 C181 1.259 . S
O201 Co182 2.021 . S
H202 C193 0.930 . S
H203 C192 0.931 . S
O204 Co180 2.117 . S
O204 C181 1.258 . S
O205 Co180 2.020 . S
O205 C207 1.256 . S
O206 Co182 2.062 . S
O206 C207 1.255 . S
C207 O205 1.256 . S
C207 O206 1.255 . S
H208 C187 0.931 . S
H209 C195 0.931 . S
Co210 N215 2.057 . S
Co210 O227 2.021 . S
Co210 O230 2.062 . S
Co210 O234 2.117 . S
Co210 O235 2.020 . S
C211 O231 1.259 . S
C211 O234 1.258 . S
Co212 N221 2.057 . S
Co212 O228 2.117 . S
Co212 O229 2.020 . S
Co212 O231 2.021 . S
Co212 O236 2.062 . S
C213 N215 1.316 . S
C213 N216 1.347 1_556 S
C213 H218 0.931 . S
C214 N215 1.375 . S
C214 C217 1.350 1_556 S
C214 H219 0.930 . S
N215 Co210 2.057 . S
N215 C213 1.316 . S
N215 C214 1.375 . S
N216 C213 1.347 1_554 S
N216 C217 1.373 . S
C217 C214 1.350 1_554 S
C217 N216 1.373 . S
C217 H238 0.931 . S
H218 C213 0.931 . S
H219 C214 0.930 . S
C220 O227 1.259 . S
C220 O228 1.258 . S
N221 Co212 2.057 . S
N221 C222 1.316 . S
N221 C223 1.375 . S
C222 N221 1.316 . S
C222 N224 1.347 . S
C222 H233 0.931 . S
C223 N221 1.375 . S
C223 C225 1.350 . S
C223 H232 0.930 . S
N224 C222 1.347 . S
N224 C225 1.373 . S
C225 C223 1.350 . S
C225 N224 1.373 . S
C225 H239 0.931 . S
C226 O229 1.256 . S
C226 O230 1.255 . S
O227 Co210 2.021 . S
O227 C220 1.259 . S
O228 Co212 2.117 . S
O228 C220 1.258 . S
O229 Co212 2.020 . S
O229 C226 1.256 . S
O230 Co210 2.062 . S
O230 C226 1.255 . S
O231 C211 1.259 . S
O231 Co212 2.021 . S
H232 C223 0.930 . S
H233 C222 0.931 . S
O234 Co210 2.117 . S
O234 C211 1.258 . S
O235 Co210 2.020 . S
O235 C237 1.256 . S
O236 Co212 2.062 . S
O236 C237 1.255 . S
C237 O235 1.256 . S
C237 O236 1.255 . S
H238 C217 0.931 . S
H239 C225 0.931 . S
Co240 N245 2.057 1_545 S
Co240 O257 2.021 . S
Co240 O260 2.062 1_545 S
Co240 O264 2.117 . S
Co240 O265 2.020 . S
C241 O261 1.259 . S
C241 O264 1.258 . S
Co242 N251 2.057 . S
Co242 O258 2.117 . S
Co242 O259 2.020 . S
Co242 O261 2.021 . S
Co242 O266 2.062 . S
C243 N245 1.316 . S
C243 N246 1.347 . S
C243 H248 0.931 . S
C244 N245 1.375 . S
C244 C247 1.350 . S
C244 H249 0.930 1_565 S
N245 Co240 2.057 1_565 S
N245 C243 1.316 . S
N245 C244 1.375 . S
N246 C243 1.347 . S
N246 C247 1.373 . S
C247 C244 1.350 . S
C247 N246 1.373 . S
C247 H268 0.931 . S
H248 C243 0.931 . S
H249 C244 0.930 1_545 S
C250 O257 1.259 . S
C250 O258 1.258 . S
N251 Co242 2.057 . S
N251 C252 1.316 . S
N251 C253 1.375 . S
C252 N251 1.316 . S
C252 N254 1.347 . S
C252 H263 0.931 . S
C253 N251 1.375 . S
C253 C255 1.350 . S
C253 H262 0.930 . S
N254 C252 1.347 . S
N254 C255 1.373 . S
C255 C253 1.350 . S
C255 N254 1.373 . S
C255 H269 0.931 . S
C256 O259 1.256 . S
C256 O260 1.255 1_545 S
O257 Co240 2.021 . S
O257 C250 1.259 . S
O258 Co242 2.117 . S
O258 C250 1.258 . S
O259 Co242 2.020 . S
O259 C256 1.256 . S
O260 Co240 2.062 1_565 S
O260 C256 1.255 1_565 S
O261 C241 1.259 . S
O261 Co242 2.021 . S
H262 C253 0.930 . S
H263 C252 0.931 . S
O264 Co240 2.117 . S
O264 C241 1.258 . S
O265 Co240 2.020 . S
O265 C267 1.256 . S
O266 Co242 2.062 . S
O266 C267 1.255 . S
C267 O265 1.256 . S
C267 O266 1.255 . S
H268 C247 0.931 . S
H269 C255 0.931 . S
Co270 N275 2.057 . S
Co270 O287 2.021 . S
Co270 O290 2.062 . S
Co270 O294 2.117 . S
Co270 O295 2.020 . S
C271 O291 1.259 . S
C271 O294 1.258 . S
Co272 N281 2.057 . S
Co272 O288 2.117 . S
Co272 O289 2.020 . S
Co272 O291 2.021 . S
Co272 O296 2.062 . S
C273 N275 1.316 . S
C273 N276 1.347 . S
C273 H278 0.931 . S
C274 N275 1.375 . S
C274 C277 1.350 . S
C274 H279 0.930 . S
N275 Co270 2.057 . S
N275 C273 1.316 . S
N275 C274 1.375 . S
N276 C273 1.347 . S
N276 C277 1.373 . S
C277 C274 1.350 . S
C277 N276 1.373 . S
C277 H298 0.931 . S
H278 C273 0.931 . S
H279 C274 0.930 . S
C280 O287 1.259 . S
C280 O288 1.258 . S
N281 Co272 2.057 . S
N281 C282 1.316 . S
N281 C283 1.375 . S
C282 N281 1.316 . S
C282 N284 1.347 . S
C282 H293 0.931 . S
C283 N281 1.375 . S
C283 C285 1.350 . S
C283 H292 0.930 . S
N284 C282 1.347 . S
N284 C285 1.373 . S
C285 C283 1.350 . S
C285 N284 1.373 . S
C285 H299 0.931 . S
C286 O289 1.256 . S
C286 O290 1.255 . S
O287 Co270 2.021 . S
O287 C280 1.259 . S
O288 Co272 2.117 . S
O288 C280 1.258 . S
O289 Co272 2.020 . S
O289 C286 1.256 . S
O290 Co270 2.062 . S
O290 C286 1.255 . S
O291 C271 1.259 . S
O291 Co272 2.021 . S
H292 C283 0.930 . S
H293 C282 0.931 . S
O294 Co270 2.117 . S
O294 C271 1.258 . S
O295 Co270 2.020 . S
O295 C297 1.256 . S
O296 Co272 2.062 . S
O296 C297 1.255 . S
C297 O295 1.256 . S
C297 O296 1.255 . S
H298 C277 0.931 . S
H299 C285 0.931 . S
Co300 N305 2.057 . S
Co300 O317 2.021 . S
Co300 O320 2.062 . S
Co300 O324 2.117 . S
Co300 O325 2.020 . S
C301 O321 1.259 . S
C301 O324 1.258 . S
Co302 N311 2.057 . S
Co302 O318 2.117 . S
Co302 O319 2.020 . S
Co302 O321 2.021 . S
Co302 O326 2.062 . S
C303 N305 1.316 . S
C303 N306 1.347 . S
C303 H308 0.931 . S
C304 N305 1.375 . S
C304 C307 1.350 . S
C304 H309 0.930 . S
N305 Co300 2.057 . S
N305 C303 1.316 . S
N305 C304 1.375 . S
N306 C303 1.347 . S
N306 C307 1.373 . S
C307 C304 1.350 . S
C307 N306 1.373 . S
C307 H328 0.931 . S
H308 C303 0.931 . S
H309 C304 0.930 . S
C310 O317 1.259 . S
C310 O318 1.258 . S
N311 Co302 2.057 . S
N311 C312 1.316 . S
N311 C313 1.375 . S
C312 N311 1.316 . S
C312 N314 1.347 1_455 S
C312 H323 0.931 . S
C313 N311 1.375 . S
C313 C315 1.350 1_455 S
C313 H322 0.930 . S
N314 C312 1.347 1_655 S
N314 C315 1.373 . S
C315 C313 1.350 1_655 S
C315 N314 1.373 . S
C315 H329 0.931 . S
C316 O319 1.256 . S
C316 O320 1.255 . S
O317 Co300 2.021 . S
O317 C310 1.259 . S
O318 Co302 2.117 . S
O318 C310 1.258 . S
O319 Co302 2.020 . S
O319 C316 1.256 . S
O320 Co300 2.062 . S
O320 C316 1.255 . S
O321 C301 1.259 . S
O321 Co302 2.021 . S
H322 C313 0.930 . S
H323 C312 0.931 . S
O324 Co300 2.117 . S
O324 C301 1.258 . S
O325 Co300 2.020 . S
O325 C327 1.256 . S
O326 Co302 2.062 . S
O326 C327 1.255 . S
C327 O325 1.256 . S
C327 O326 1.255 . S
H328 C307 0.931 . S
H329 C315 0.931 . S
Co330 N335 2.057 . S
Co330 O347 2.021 . S
Co330 O350 2.062 . S
Co330 O354 2.117 . S
Co330 O355 2.020 . S
C331 O351 1.259 . S
C331 O354 1.258 . S
Co332 N341 2.057 . S
Co332 O348 2.117 . S
Co332 O349 2.020 . S
Co332 O351 2.021 . S
Co332 O356 2.062 . S
C333 N335 1.316 . S
C333 N336 1.347 1_565 S
C333 H338 0.931 . S
C334 N335 1.375 . S
C334 C337 1.350 1_565 S
C334 H339 0.930 . S
N335 Co330 2.057 . S
N335 C333 1.316 . S
N335 C334 1.375 . S
N336 C333 1.347 1_545 S
N336 C337 1.373 . S
C337 C334 1.350 1_545 S
C337 N336 1.373 . S
C337 H358 0.931 . S
H338 C333 0.931 . S
H339 C334 0.930 . S
C340 O347 1.259 . S
C340 O348 1.258 . S
N341 Co332 2.057 . S
N341 C342 1.316 . S
N341 C343 1.375 . S
C342 N341 1.316 . S
C342 N344 1.347 . S
C342 H353 0.931 . S
C343 N341 1.375 . S
C343 C345 1.350 . S
C343 H352 0.930 . S
N344 C342 1.347 . S
N344 C345 1.373 . S
C345 C343 1.350 . S
C345 N344 1.373 . S
C345 H359 0.931 . S
C346 O349 1.256 . S
C346 O350 1.255 . S
O347 Co330 2.021 . S
O347 C340 1.259 . S
O348 Co332 2.117 . S
O348 C340 1.258 . S
O349 Co332 2.020 . S
O349 C346 1.256 . S
O350 Co330 2.062 . S
O350 C346 1.255 . S
O351 C331 1.259 . S
O351 Co332 2.021 . S
H352 C343 0.930 . S
H353 C342 0.931 . S
O354 Co330 2.117 . S
O354 C331 1.258 . S
O355 Co330 2.020 . S
O355 C357 1.256 . S
O356 Co332 2.062 . S
O356 C357 1.255 . S
C357 O355 1.256 . S
C357 O356 1.255 . S
H358 C337 0.931 . S
H359 C345 0.931 . S
Co360 N365 2.057 . S
Co360 O377 2.021 1_565 S
Co360 O380 2.062 1_565 S
Co360 O384 2.117 . S
Co360 O385 2.020 . S
C361 O381 1.259 . S
C361 O384 1.258 . S
Co362 N371 2.057 . S
Co362 O378 2.117 . S
Co362 O379 2.020 1_565 S
Co362 O381 2.021 . S
Co362 O386 2.062 . S
C363 N365 1.316 1_545 S
C363 N366 1.347 . S
C363 H368 0.931 . S
C364 N365 1.375 . S
C364 C367 1.350 . S
C364 H369 0.930 . S
N365 Co360 2.057 . S
N365 C363 1.316 1_565 S
N365 C364 1.375 . S
N366 C363 1.347 . S
N366 C367 1.373 1_545 S
C367 C364 1.350 . S
C367 N366 1.373 1_565 S
C367 H388 0.931 . S
H368 C363 0.931 . S
H369 C364 0.930 . S
C370 O377 1.259 . S
C370 O378 1.258 1_545 S
N371 Co362 2.057 . S
N371 C372 1.316 . S
N371 C373 1.375 . S
C372 N371 1.316 . S
C372 N374 1.347 . S
C372 H383 0.931 . S
C373 N371 1.375 . S
C373 C375 1.350 . S
C373 H382 0.930 . S
N374 C372 1.347 . S
N374 C375 1.373 . S
C375 C373 1.350 . S
C375 N374 1.373 . S
C375 H389 0.931 . S
C376 O379 1.256 . S
C376 O380 1.255 . S
O377 Co360 2.021 1_545 S
O377 C370 1.259 . S
O378 Co362 2.117 . S
O378 C370 1.258 1_565 S
O379 Co362 2.020 1_545 S
O379 C376 1.256 . S
O380 Co360 2.062 1_545 S
O380 C376 1.255 . S
O381 C361 1.259 . S
O381 Co362 2.021 . S
H382 C373 0.930 . S
H383 C372 0.931 . S
O384 Co360 2.117 . S
O384 C361 1.258 . S
O385 Co360 2.020 . S
O385 C387 1.256 . S
O386 Co362 2.062 . S
O386 C387 1.255 . S
C387 O385 1.256 . S
C387 O386 1.255 . S
H388 C367 0.931 . S
H389 C375 0.931 . S
Co390 N395 2.057 . S
Co390 O407 2.021 . S
Co390 O410 2.062 . S
Co390 O414 2.117 . S
Co390 O415 2.020 . S
C391 O411 1.259 . S
C391 O414 1.258 . S
Co392 N401 2.057 . S
Co392 O408 2.117 . S
Co392 O409 2.020 . S
Co392 O411 2.021 . S
Co392 O416 2.062 . S
C393 N395 1.316 . S
C393 N396 1.347 1_545 S
C393 H398 0.931 . S
C394 N395 1.375 . S
C394 C397 1.373 . S
C394 H399 0.930 . S
N395 Co390 2.057 . S
N395 C393 1.316 . S
N395 C394 1.375 . S
N396 C393 1.347 1_565 S
N396 C397 1.370 1_565 S
C397 C394 1.373 . S
C397 N396 1.370 1_545 S
C397 H418 0.915 1_545 S
H398 C393 0.931 . S
H399 C394 0.930 . S
C400 O407 1.259 . S
C400 O408 1.258 . S
N401 Co392 2.057 . S
N401 C402 1.316 . S
N401 C403 1.375 . S
C402 N401 1.316 . S
C402 N404 1.347 . S
C402 H413 0.931 . S
C403 N401 1.375 . S
C403 C405 1.350 . S
C403 H412 0.930 . S
N404 C402 1.347 . S
N404 C405 1.373 . S
C405 C403 1.350 . S
C405 N404 1.373 . S
C405 H419 0.931 . S
C406 O409 1.256 . S
C406 O410 1.255 . S
O407 Co390 2.021 . S
O407 C400 1.259 . S
O408 Co392 2.117 . S
O408 C400 1.258 . S
O409 Co392 2.020 . S
O409 C406 1.256 . S
O410 Co390 2.062 . S
O410 C406 1.255 . S
O411 C391 1.259 . S
O411 Co392 2.021 . S
H412 C403 0.930 . S
H413 C402 0.931 . S
O414 Co390 2.117 . S
O414 C391 1.258 . S
O415 Co390 2.020 . S
O415 C417 1.256 . S
O416 Co392 2.062 . S
O416 C417 1.255 . S
C417 O415 1.256 . S
C417 O416 1.255 . S
H418 C397 0.915 1_565 S
H419 C405 0.931 . S
Co420 N425 2.057 . S
Co420 O437 2.021 . S
Co420 O440 2.062 . S
Co420 O444 2.117 . S
Co420 O445 2.020 . S
C421 O441 1.259 . S
C421 O444 1.258 . S
Co422 N431 2.057 . S
Co422 O438 2.117 . S
Co422 O439 2.020 . S
Co422 O441 2.021 . S
Co422 O446 2.062 1_545 S
C423 N425 1.316 . S
C423 N426 1.347 . S
C423 H428 0.931 . S
C424 N425 1.375 . S
C424 C427 1.350 . S
C424 H429 0.930 . S
N425 Co420 2.057 . S
N425 C423 1.316 . S
N425 C424 1.375 . S
N426 C423 1.347 . S
N426 C427 1.373 . S
C427 C424 1.350 . S
C427 N426 1.373 . S
C427 H448 0.931 . S
H428 C423 0.931 . S
H429 C424 0.930 . S
C430 O437 1.259 . S
C430 O438 1.258 . S
N431 Co422 2.057 . S
N431 C432 1.316 1_545 S
N431 C433 1.375 . S
C432 N431 1.316 1_565 S
C432 N434 1.347 1_556 S
C432 H443 0.931 . S
C433 N431 1.375 . S
C433 C435 1.366 . S
C433 H442 0.930 . S
N434 C432 1.347 1_554 S
N434 C435 1.372 1_564 S
C435 C433 1.366 . S
C435 N434 1.372 1_546 S
C435 H449 0.918 1_556 S
C436 O439 1.256 . S
C436 O440 1.255 . S
O437 Co420 2.021 . S
O437 C430 1.259 . S
O438 Co422 2.117 . S
O438 C430 1.258 . S
O439 Co422 2.020 . S
O439 C436 1.256 . S
O440 Co420 2.062 . S
O440 C436 1.255 . S
O441 C421 1.259 . S
O441 Co422 2.021 . S
H442 C433 0.930 . S
H443 C432 0.931 . S
O444 Co420 2.117 . S
O444 C421 1.258 . S
O445 Co420 2.020 . S
O445 C447 1.256 1_545 S
O446 Co422 2.062 1_565 S
O446 C447 1.255 . S
C447 O445 1.256 1_565 S
C447 O446 1.255 . S
H448 C427 0.931 . S
H449 C435 0.918 1_554 S
Co450 N455 2.057 . S
Co450 O467 2.021 . S
Co450 O470 2.062 . S
Co450 O474 2.117 . S
Co450 O475 2.020 . S
C451 O471 1.259 . S
C451 O474 1.258 . S
Co452 N461 2.057 . S
Co452 O468 2.117 . S
Co452 O469 2.020 . S
Co452 O471 2.021 . S
Co452 O476 2.062 . S
C453 N455 1.316 . S
C453 N456 1.347 1_565 S
C453 H458 0.931 . S
C454 N455 1.375 . S
C454 C457 1.350 1_565 S
C454 H459 0.930 . S
N455 Co450 2.057 . S
N455 C453 1.316 . S
N455 C454 1.375 . S
N456 C453 1.347 1_545 S
N456 C457 1.373 . S
C457 C454 1.350 1_545 S
C457 N456 1.373 . S
C457 H478 0.931 . S
H458 C453 0.931 . S
H459 C454 0.930 . S
C460 O467 1.259 . S
C460 O468 1.258 . S
N461 Co452 2.057 . S
N461 C462 1.316 . S
N461 C463 1.375 . S
C462 N461 1.316 . S
C462 N464 1.347 . S
C462 H473 0.931 . S
C463 N461 1.375 . S
C463 C465 1.350 . S
C463 H472 0.930 . S
N464 C462 1.347 . S
N464 C465 1.373 . S
C465 C463 1.350 . S
C465 N464 1.373 . S
C465 H479 0.931 . S
C466 O469 1.256 . S
C466 O470 1.255 . S
O467 Co450 2.021 . S
O467 C460 1.259 . S
O468 Co452 2.117 . S
O468 C460 1.258 . S
O469 Co452 2.020 . S
O469 C466 1.256 . S
O470 Co450 2.062 . S
O470 C466 1.255 . S
O471 C451 1.259 . S
O471 Co452 2.021 . S
H472 C463 0.930 . S
H473 C462 0.931 . S
O474 Co450 2.117 . S
O474 C451 1.258 . S
O475 Co450 2.020 . S
O475 C477 1.256 . S
O476 Co452 2.062 . S
O476 C477 1.255 . S
C477 O475 1.256 . S
C477 O476 1.255 . S
H478 C457 0.931 . S
H479 C465 0.931 . S
Co480 N485 2.057 . S
Co480 O497 2.021 . S
Co480 O500 2.062 1_554 S
Co480 O504 2.117 . S
Co480 O505 2.020 . S
C481 O501 1.259 . S
C481 O504 1.258 . S
Co482 N491 2.057 . S
Co482 O498 2.117 . S
Co482 O499 2.020 . S
Co482 O501 2.021 . S
Co482 O506 2.062 . S
C483 N485 1.316 . S
C483 N486 1.347 . S
C483 H488 0.931 1_554 S
C484 N485 1.375 . S
C484 C487 1.350 . S
C484 H489 0.930 . S
N485 Co480 2.057 . S
N485 C483 1.316 . S
N485 C484 1.375 . S
N486 C483 1.347 . S
N486 C487 1.373 . S
C487 C484 1.350 . S
C487 N486 1.373 . S
C487 H508 0.931 . S
H488 C483 0.931 1_556 S
H489 C484 0.930 . S
C490 O497 1.259 . S
C490 O498 1.258 . S
N491 Co482 2.057 . S
N491 C492 1.316 . S
N491 C493 1.375 . S
C492 N491 1.316 . S
C492 N494 1.347 . S
C492 H503 0.931 . S
C493 N491 1.375 . S
C493 C495 1.350 . S
C493 H502 0.930 . S
N494 C492 1.347 . S
N494 C495 1.373 . S
C495 C493 1.350 . S
C495 N494 1.373 . S
C495 H509 0.931 . S
C496 O499 1.256 1_556 S
C496 O500 1.255 . S
O497 Co480 2.021 . S
O497 C490 1.259 . S
O498 Co482 2.117 . S
O498 C490 1.258 . S
O499 Co482 2.020 . S
O499 C496 1.256 1_554 S
O500 Co480 2.062 1_556 S
O500 C496 1.255 . S
O501 C481 1.259 . S
O501 Co482 2.021 . S
H502 C493 0.930 . S
H503 C492 0.931 . S
O504 Co480 2.117 . S
O504 C481 1.258 . S
O505 Co480 2.020 . S
O505 C507 1.256 . S
O506 Co482 2.062 . S
O506 C507 1.255 . S
C507 O505 1.256 . S
C507 O506 1.255 . S
H508 C487 0.931 . S
H509 C495 0.931 . S
Co510 N515 2.057 . S
Co510 O527 2.021 . S
Co510 O530 2.062 . S
Co510 O534 2.117 . S
Co510 O535 2.020 . S
C511 O531 1.259 . S
C511 O534 1.258 . S
Co512 N521 2.057 . S
Co512 O528 2.117 . S
Co512 O529 2.020 . S
Co512 O531 2.021 . S
Co512 O536 2.062 . S
C513 N515 1.316 . S
C513 N516 1.347 . S
C513 H518 0.931 . S
C514 N515 1.375 . S
C514 C517 1.350 . S
C514 H519 0.930 . S
N515 Co510 2.057 . S
N515 C513 1.316 . S
N515 C514 1.375 . S
N516 C513 1.347 . S
N516 C517 1.373 . S
C517 C514 1.350 . S
C517 N516 1.373 . S
C517 H538 0.931 . S
H518 C513 0.931 . S
H519 C514 0.930 . S
C520 O527 1.259 . S
C520 O528 1.258 . S
N521 Co512 2.057 . S
N521 C522 1.316 . S
N521 C523 1.375 . S
C522 N521 1.316 . S
C522 N524 1.347 . S
C522 H533 0.931 . S
C523 N521 1.375 . S
C523 C525 1.350 . S
C523 H532 0.930 . S
N524 C522 1.347 . S
N524 C525 1.373 . S
C525 C523 1.350 . S
C525 N524 1.373 . S
C525 H539 0.931 1_545 S
C526 O529 1.256 . S
C526 O530 1.255 . S
O527 Co510 2.021 . S
O527 C520 1.259 . S
O528 Co512 2.117 . S
O528 C520 1.258 . S
O529 Co512 2.020 . S
O529 C526 1.256 . S
O530 Co510 2.062 . S
O530 C526 1.255 . S
O531 C511 1.259 . S
O531 Co512 2.021 . S
H532 C523 0.930 . S
H533 C522 0.931 . S
O534 Co510 2.117 . S
O534 C511 1.258 . S
O535 Co510 2.020 . S
O535 C537 1.256 . S
O536 Co512 2.062 . S
O536 C537 1.255 . S
C537 O535 1.256 . S
C537 O536 1.255 . S
H538 C517 0.931 . S
H539 C525 0.931 1_565 S
Co540 N545 2.057 . S
Co540 O557 2.021 . S
Co540 O560 2.062 . S
Co540 O564 2.117 . S
Co540 O565 2.020 . S
C541 O561 1.259 . S
C541 O564 1.258 . S
Co542 N551 2.057 . S
Co542 O558 2.117 . S
Co542 O559 2.020 . S
Co542 O561 2.021 . S
Co542 O566 2.062 . S
C543 N545 1.316 1_655 S
C543 N546 1.347 . S
C543 H548 0.931 . S
C544 N545 1.375 1_655 S
C544 C547 1.350 . S
C544 H549 0.930 . S
N545 Co540 2.057 . S
N545 C543 1.316 1_455 S
N545 C544 1.375 1_455 S
N546 C543 1.347 . S
N546 C547 1.373 . S
C547 C544 1.350 . S
C547 N546 1.373 . S
C547 H568 0.931 . S
H548 C543 0.931 . S
H549 C544 0.930 . S
C550 O557 1.259 . S
C550 O558 1.258 . S
N551 Co542 2.057 . S
N551 C552 1.316 . S
N551 C553 1.375 . S
C552 N551 1.316 . S
C552 N554 1.347 . S
C552 H563 0.931 . S
C553 N551 1.375 . S
C553 C555 1.350 . S
C553 H562 0.930 . S
N554 C552 1.347 . S
N554 C555 1.373 . S
C555 C553 1.350 . S
C555 N554 1.373 . S
C555 H569 0.931 . S
C556 O559 1.256 . S
C556 O560 1.255 . S
O557 Co540 2.021 . S
O557 C550 1.259 . S
O558 Co542 2.117 . S
O558 C550 1.258 . S
O559 Co542 2.020 . S
O559 C556 1.256 . S
O560 Co540 2.062 . S
O560 C556 1.255 . S
O561 C541 1.259 . S
O561 Co542 2.021 . S
H562 C553 0.930 . S
H563 C552 0.931 . S
O564 Co540 2.117 . S
O564 C541 1.258 . S
O565 Co540 2.020 . S
O565 C567 1.256 . S
O566 Co542 2.062 . S
O566 C567 1.255 . S
C567 O565 1.256 . S
C567 O566 1.255 . S
H568 C547 0.931 . S
H569 C555 0.931 . S
Co570 N575 2.057 . S
Co570 O587 2.021 . S
Co570 O590 2.062 . S
Co570 O594 2.117 . S
Co570 O595 2.020 . S
C571 O591 1.259 . S
C571 O594 1.258 . S
Co572 N581 2.057 . S
Co572 O588 2.117 . S
Co572 O589 2.020 . S
Co572 O591 2.021 . S
Co572 O596 2.062 . S
C573 N575 1.316 . S
C573 N576 1.347 . S
C573 H578 0.931 . S
C574 N575 1.375 . S
C574 C577 1.350 . S
C574 H579 0.930 . S
N575 Co570 2.057 . S
N575 C573 1.316 . S
N575 C574 1.375 . S
N576 C573 1.347 . S
N576 C577 1.373 . S
C577 C574 1.350 . S
C577 N576 1.373 . S
C577 H598 0.931 . S
H578 C573 0.931 . S
H579 C574 0.930 . S
C580 O587 1.259 . S
C580 O588 1.258 . S
N581 Co572 2.057 . S
N581 C582 1.316 . S
N581 C583 1.375 . S
C582 N581 1.316 . S
C582 N584 1.347 1_565 S
C582 H593 0.931 . S
C583 N581 1.375 . S
C583 C585 1.350 1_565 S
C583 H592 0.930 . S
N584 C582 1.347 1_545 S
N584 C585 1.373 . S
C585 C583 1.350 1_545 S
C585 N584 1.373 . S
C585 H599 0.931 . S
C586 O589 1.256 . S
C586 O590 1.255 . S
O587 Co570 2.021 . S
O587 C580 1.259 . S
O588 Co572 2.117 . S
O588 C580 1.258 . S
O589 Co572 2.020 . S
O589 C586 1.256 . S
O590 Co570 2.062 . S
O590 C586 1.255 . S
O591 C571 1.259 . S
O591 Co572 2.021 . S
H592 C583 0.930 . S
H593 C582 0.931 . S
O594 Co570 2.117 . S
O594 C571 1.258 . S
O595 Co570 2.020 . S
O595 C597 1.256 . S
O596 Co572 2.062 . S
O596 C597 1.255 . S
C597 O595 1.256 . S
C597 O596 1.255 . S
H598 C577 0.931 . S
H599 C585 0.931 . S
Co600 N605 2.057 . S
Co600 O617 2.021 . S
Co600 O620 2.062 . S
Co600 O624 2.117 . S
Co600 O625 2.020 . S
C601 O621 1.259 . S
C601 O624 1.258 . S
Co602 N611 2.057 . S
Co602 O618 2.117 . S
Co602 O619 2.020 . S
Co602 O621 2.021 . S
Co602 O626 2.062 . S
C603 N605 1.316 . S
C603 N606 1.347 1_655 S
C603 H608 0.931 . S
C604 N605 1.375 . S
C604 C607 1.350 1_655 S
C604 H609 0.930 . S
N605 Co600 2.057 . S
N605 C603 1.316 . S
N605 C604 1.375 . S
N606 C603 1.347 1_455 S
N606 C607 1.373 . S
C607 C604 1.350 1_455 S
C607 N606 1.373 . S
C607 H628 0.931 . S
H608 C603 0.931 . S
H609 C604 0.930 . S
C610 O617 1.259 . S
C610 O618 1.258 . S
N611 Co602 2.057 . S
N611 C612 1.316 . S
N611 C613 1.375 . S
C612 N611 1.316 . S
C612 N614 1.347 . S
C612 H623 0.931 . S
C613 N611 1.375 . S
C613 C615 1.350 . S
C613 H622 0.930 . S
N614 C612 1.347 . S
N614 C615 1.373 . S
C615 C613 1.350 . S
C615 N614 1.373 . S
C615 H629 0.931 . S
C616 O619 1.256 . S
C616 O620 1.255 . S
O617 Co600 2.021 . S
O617 C610 1.259 . S
O618 Co602 2.117 . S
O618 C610 1.258 . S
O619 Co602 2.020 . S
O619 C616 1.256 . S
O620 Co600 2.062 . S
O620 C616 1.255 . S
O621 C601 1.259 . S
O621 Co602 2.021 . S
H622 C613 0.930 . S
H623 C612 0.931 . S
O624 Co600 2.117 . S
O624 C601 1.258 . S
O625 Co600 2.020 . S
O625 C627 1.256 . S
O626 Co602 2.062 . S
O626 C627 1.255 . S
C627 O625 1.256 . S
C627 O626 1.255 . S
H628 C607 0.931 . S
H629 C615 0.931 . S
Co630 N635 2.057 . S
Co630 O647 2.021 . S
Co630 O650 2.062 . S
Co630 O654 2.117 . S
Co630 O655 2.020 . S
C631 O651 1.259 . S
C631 O654 1.258 . S
Co632 N641 2.057 . S
Co632 O648 2.117 . S
Co632 O649 2.020 . S
Co632 O651 2.021 . S
Co632 O656 2.062 . S
C633 N635 1.316 . S
C633 N636 1.347 . S
C633 H638 0.931 . S
C634 N635 1.375 . S
C634 C637 1.350 . S
C634 H639 0.930 . S
N635 Co630 2.057 . S
N635 C633 1.316 . S
N635 C634 1.375 . S
N636 C633 1.347 . S
N636 C637 1.373 . S
C637 C634 1.350 . S
C637 N636 1.373 . S
C637 H658 0.931 . S
H638 C633 0.931 . S
H639 C634 0.930 . S
C640 O647 1.259 . S
C640 O648 1.258 . S
N641 Co632 2.057 . S
N641 C642 1.316 . S
N641 C643 1.375 . S
C642 N641 1.316 . S
C642 N644 1.347 . S
C642 H653 0.931 . S
C643 N641 1.375 . S
C643 C645 1.350 . S
C643 H652 0.930 . S
N644 C642 1.347 . S
N644 C645 1.373 . S
C645 C643 1.350 . S
C645 N644 1.373 . S
C645 H659 0.931 . S
C646 O649 1.256 . S
C646 O650 1.255 . S
O647 Co630 2.021 . S
O647 C640 1.259 . S
O648 Co632 2.117 . S
O648 C640 1.258 . S
O649 Co632 2.020 . S
O649 C646 1.256 . S
O650 Co630 2.062 . S
O650 C646 1.255 . S
O651 C631 1.259 . S
O651 Co632 2.021 . S
H652 C643 0.930 . S
H653 C642 0.931 . S
O654 Co630 2.117 . S
O654 C631 1.258 . S
O655 Co630 2.020 . S
O655 C657 1.256 . S
O656 Co632 2.062 . S
O656 C657 1.255 . S
C657 O655 1.256 . S
C657 O656 1.255 . S
H658 C637 0.931 . S
H659 C645 0.931 . S
Co660 N665 2.057 . S
Co660 O677 2.021 . S
Co660 O680 2.062 . S
Co660 O684 2.117 . S
Co660 O685 2.020 . S
C661 O681 1.259 . S
C661 O684 1.258 . S
Co662 N671 2.057 . S
Co662 O678 2.117 . S
Co662 O679 2.020 . S
Co662 O681 2.021 . S
Co662 O686 2.062 . S
C663 N665 1.316 1_655 S
C663 N666 1.347 . S
C663 H668 0.931 . S
C664 N665 1.375 1_655 S
C664 C667 1.350 . S
C664 H669 0.930 . S
N665 Co660 2.057 . S
N665 C663 1.316 1_455 S
N665 C664 1.375 1_455 S
N666 C663 1.347 . S
N666 C667 1.373 . S
C667 C664 1.350 . S
C667 N666 1.373 . S
C667 H688 0.931 . S
H668 C663 0.931 . S
H669 C664 0.930 . S
C670 O677 1.259 . S
C670 O678 1.258 . S
N671 Co662 2.057 . S
N671 C672 1.316 . S
N671 C673 1.375 . S
C672 N671 1.316 . S
C672 N674 1.347 . S
C672 H683 0.931 . S
C673 N671 1.375 . S
C673 C675 1.350 . S
C673 H682 0.930 . S
N674 C672 1.347 . S
N674 C675 1.373 . S
C675 C673 1.350 . S
C675 N674 1.373 . S
C675 H689 0.931 . S
C676 O679 1.256 . S
C676 O680 1.255 . S
O677 Co660 2.021 . S
O677 C670 1.259 . S
O678 Co662 2.117 . S
O678 C670 1.258 . S
O679 Co662 2.020 . S
O679 C676 1.256 . S
O680 Co660 2.062 . S
O680 C676 1.255 . S
O681 C661 1.259 . S
O681 Co662 2.021 . S
H682 C673 0.930 . S
H683 C672 0.931 . S
O684 Co660 2.117 . S
O684 C661 1.258 . S
O685 Co660 2.020 . S
O685 C687 1.256 . S
O686 Co662 2.062 . S
O686 C687 1.255 . S
C687 O685 1.256 . S
C687 O686 1.255 . S
H688 C667 0.931 . S
H689 C675 0.931 . S
Co690 N695 2.057 . S
Co690 O707 2.021 . S
Co690 O710 2.062 . S
Co690 O714 2.117 . S
Co690 O715 2.020 . S
C691 O711 1.259 . S
C691 O714 1.258 . S
Co692 N701 2.057 . S
Co692 O708 2.117 . S
Co692 O709 2.020 . S
Co692 O711 2.021 . S
Co692 O716 2.062 . S
C693 N695 1.316 . S
C693 N696 1.347 . S
C693 H698 0.931 . S
C694 N695 1.375 . S
C694 C697 1.350 . S
C694 H699 0.930 . S
N695 Co690 2.057 . S
N695 C693 1.316 . S
N695 C694 1.375 . S
N696 C693 1.347 . S
N696 C697 1.373 . S
C697 C694 1.350 . S
C697 N696 1.373 . S
C697 H718 0.931 . S
H698 C693 0.931 . S
H699 C694 0.930 . S
C700 O707 1.259 . S
C700 O708 1.258 . S
N701 Co692 2.057 . S
N701 C702 1.316 . S
N701 C703 1.375 . S
C702 N701 1.316 . S
C702 N704 1.347 . S
C702 H713 0.931 . S
C703 N701 1.375 . S
C703 C705 1.350 . S
C703 H712 0.930 . S
N704 C702 1.347 . S
N704 C705 1.373 . S
C705 C703 1.350 . S
C705 N704 1.373 . S
C705 H719 0.931 . S
C706 O709 1.256 . S
C706 O710 1.255 . S
O707 Co690 2.021 . S
O707 C700 1.259 . S
O708 Co692 2.117 . S
O708 C700 1.258 . S
O709 Co692 2.020 . S
O709 C706 1.256 . S
O710 Co690 2.062 . S
O710 C706 1.255 . S
O711 C691 1.259 . S
O711 Co692 2.021 . S
H712 C703 0.930 . S
H713 C702 0.931 . S
O714 Co690 2.117 . S
O714 C691 1.258 . S
O715 Co690 2.020 . S
O715 C717 1.256 . S
O716 Co692 2.062 . S
O716 C717 1.255 . S
C717 O715 1.256 . S
C717 O716 1.255 . S
H718 C697 0.931 . S
H719 C705 0.931 . S
Co720 N725 2.057 . S
Co720 O737 2.021 . S
Co720 O740 2.062 . S
Co720 O744 2.117 . S
Co720 O745 2.020 . S
C721 O741 1.259 . S
C721 O744 1.258 . S
Co722 N731 2.057 . S
Co722 O738 2.117 . S
Co722 O739 2.020 . S
Co722 O741 2.021 . S
Co722 O746 2.062 . S
C723 N725 1.316 . S
C723 N726 1.347 . S
C723 H728 0.931 . S
C724 N725 1.375 . S
C724 C727 1.350 . S
C724 H729 0.930 . S
N725 Co720 2.057 . S
N725 C723 1.316 . S
N725 C724 1.375 . S
N726 C723 1.347 . S
N726 C727 1.373 . S
C727 C724 1.350 . S
C727 N726 1.373 . S
C727 H748 0.931 . S
H728 C723 0.931 . S
H729 C724 0.930 . S
C730 O737 1.259 . S
C730 O738 1.258 . S
N731 Co722 2.057 . S
N731 C732 1.316 . S
N731 C733 1.375 . S
C732 N731 1.316 . S
C732 N734 1.347 . S
C732 H743 0.931 . S
C733 N731 1.375 . S
C733 C735 1.350 . S
C733 H742 0.930 . S
N734 C732 1.347 . S
N734 C735 1.373 . S
C735 C733 1.350 . S
C735 N734 1.373 . S
C735 H749 0.931 . S
C736 O739 1.256 . S
C736 O740 1.255 . S
O737 Co720 2.021 . S
O737 C730 1.259 . S
O738 Co722 2.117 . S
O738 C730 1.258 . S
O739 Co722 2.020 . S
O739 C736 1.256 . S
O740 Co720 2.062 . S
O740 C736 1.255 . S
O741 C721 1.259 . S
O741 Co722 2.021 . S
H742 C733 0.930 . S
H743 C732 0.931 . S
O744 Co720 2.117 . S
O744 C721 1.258 . S
O745 Co720 2.020 . S
O745 C747 1.256 . S
O746 Co722 2.062 . S
O746 C747 1.255 . S
C747 O745 1.256 . S
C747 O746 1.255 . S
H748 C727 0.931 . S
H749 C735 0.931 . S
Co750 N755 2.057 . S
Co750 O767 2.021 . S
Co750 O770 2.062 . S
Co750 O774 2.117 . S
Co750 O775 2.020 . S
C751 O771 1.259 . S
C751 O774 1.258 . S
Co752 N761 2.057 . S
Co752 O768 2.117 . S
Co752 O769 2.020 . S
Co752 O771 2.021 . S
Co752 O776 2.062 . S
C753 N755 1.316 . S
C753 N756 1.347 . S
C753 H758 0.931 . S
C754 N755 1.375 . S
C754 C757 1.350 . S
C754 H759 0.930 . S
N755 Co750 2.057 . S
N755 C753 1.316 . S
N755 C754 1.375 . S
N756 C753 1.347 . S
N756 C757 1.373 . S
C757 C754 1.350 . S
C757 N756 1.373 . S
C757 H778 0.931 . S
H758 C753 0.931 . S
H759 C754 0.930 . S
C760 O767 1.259 . S
C760 O768 1.258 . S
N761 Co752 2.057 . S
N761 C762 1.316 . S
N761 C763 1.375 . S
C762 N761 1.316 . S
C762 N764 1.347 . S
C762 H773 0.931 . S
C763 N761 1.375 . S
C763 C765 1.350 . S
C763 H772 0.930 . S
N764 C762 1.347 . S
N764 C765 1.373 . S
C765 C763 1.350 . S
C765 N764 1.373 . S
C765 H779 0.931 . S
C766 O769 1.256 . S
C766 O770 1.255 . S
O767 Co750 2.021 . S
O767 C760 1.259 . S
O768 Co752 2.117 . S
O768 C760 1.258 . S
O769 Co752 2.020 . S
O769 C766 1.256 . S
O770 Co750 2.062 . S
O770 C766 1.255 . S
O771 C751 1.259 . S
O771 Co752 2.021 . S
H772 C763 0.930 . S
H773 C762 0.931 . S
O774 Co750 2.117 . S
O774 C751 1.258 . S
O775 Co750 2.020 . S
O775 C777 1.256 . S
O776 Co752 2.062 . S
O776 C777 1.255 . S
C777 O775 1.256 . S
C777 O776 1.255 . S
H778 C757 0.931 . S
H779 C765 0.931 . S
Co780 N785 2.057 . S
Co780 O797 2.021 . S
Co780 O800 2.062 . S
Co780 O804 2.117 . S
Co780 O805 2.020 . S
C781 O801 1.259 . S
C781 O804 1.258 . S
Co782 N791 2.057 . S
Co782 O798 2.117 . S
Co782 O799 2.020 . S
Co782 O801 2.021 . S
Co782 O806 2.062 . S
C783 N785 1.316 . S
C783 N786 1.347 1_554 S
C783 H788 0.931 . S
C784 N785 1.375 . S
C784 C787 1.350 1_554 S
C784 H789 0.930 . S
N785 Co780 2.057 . S
N785 C783 1.316 . S
N785 C784 1.375 . S
N786 C783 1.347 1_556 S
N786 C787 1.373 . S
C787 C784 1.350 1_556 S
C787 N786 1.373 . S
C787 H808 0.931 . S
H788 C783 0.931 . S
H789 C784 0.930 . S
C790 O797 1.259 . S
C790 O798 1.258 . S
N791 Co782 2.057 . S
N791 C792 1.316 . S
N791 C793 1.375 . S
C792 N791 1.316 . S
C792 N794 1.347 . S
C792 H803 0.931 . S
C793 N791 1.375 . S
C793 C795 1.350 . S
C793 H802 0.930 . S
N794 C792 1.347 . S
N794 C795 1.373 . S
C795 C793 1.350 . S
C795 N794 1.373 . S
C795 H809 0.931 . S
C796 O799 1.256 . S
C796 O800 1.255 . S
O797 Co780 2.021 . S
O797 C790 1.259 . S
O798 Co782 2.117 . S
O798 C790 1.258 . S
O799 Co782 2.020 . S
O799 C796 1.256 . S
O800 Co780 2.062 . S
O800 C796 1.255 . S
O801 C781 1.259 . S
O801 Co782 2.021 . S
H802 C793 0.930 . S
H803 C792 0.931 . S
O804 Co780 2.117 . S
O804 C781 1.258 . S
O805 Co780 2.020 . S
O805 C807 1.256 . S
O806 Co782 2.062 . S
O806 C807 1.255 . S
C807 O805 1.256 . S
C807 O806 1.255 . S
H808 C787 0.931 . S
H809 C795 0.931 . S
Co810 N815 2.057 . S
Co810 O827 2.021 . S
Co810 O830 2.062 . S
Co810 O834 2.117 . S
Co810 O835 2.020 . S
C811 O831 1.259 . S
C811 O834 1.258 . S
Co812 N821 2.057 . S
Co812 O828 2.117 . S
Co812 O829 2.020 . S
Co812 O831 2.021 . S
Co812 O836 2.062 . S
C813 N815 1.316 . S
C813 N816 1.347 . S
C813 H818 0.931 . S
C814 N815 1.375 . S
C814 C817 1.350 . S
C814 H819 0.930 . S
N815 Co810 2.057 . S
N815 C813 1.316 . S
N815 C814 1.375 . S
N816 C813 1.347 . S
N816 C817 1.373 . S
C817 C814 1.350 . S
C817 N816 1.373 . S
C817 H838 0.931 . S
H818 C813 0.931 . S
H819 C814 0.930 . S
C820 O827 1.259 . S
C820 O828 1.258 . S
N821 Co812 2.057 . S
N821 C822 1.316 . S
N821 C823 1.375 . S
C822 N821 1.316 . S
C822 N824 1.347 1_556 S
C822 H833 0.931 . S
C823 N821 1.375 . S
C823 C825 1.350 1_556 S
C823 H832 0.930 . S
N824 C822 1.347 1_554 S
N824 C825 1.373 . S
C825 C823 1.350 1_554 S
C825 N824 1.373 . S
C825 H839 0.931 . S
C826 O829 1.256 . S
C826 O830 1.255 . S
O827 Co810 2.021 . S
O827 C820 1.259 . S
O828 Co812 2.117 . S
O828 C820 1.258 . S
O829 Co812 2.020 . S
O829 C826 1.256 . S
O830 Co810 2.062 . S
O830 C826 1.255 . S
O831 C811 1.259 . S
O831 Co812 2.021 . S
H832 C823 0.930 . S
H833 C822 0.931 . S
O834 Co810 2.117 . S
O834 C811 1.258 . S
O835 Co810 2.020 . S
O835 C837 1.256 . S
O836 Co812 2.062 . S
O836 C837 1.255 . S
C837 O835 1.256 . S
C837 O836 1.255 . S
H838 C817 0.931 . S
H839 C825 0.931 . S
Co840 N845 2.057 . S
Co840 O857 2.021 . S
Co840 O860 2.062 . S
Co840 O864 2.117 1_455 S
Co840 O865 2.020 1_455 S
C841 O861 1.259 . S
C841 O864 1.258 . S
Co842 N851 2.057 . S
Co842 O858 2.117 . S
Co842 O859 2.020 . S
Co842 O861 2.021 . S
Co842 O866 2.062 . S
C843 N845 1.316 . S
C843 N846 1.347 . S
C843 H848 0.931 . S
C844 N845 1.375 . S
C844 C847 1.350 . S
C844 H849 0.930 . S
N845 Co840 2.057 . S
N845 C843 1.316 . S
N845 C844 1.375 . S
N846 C843 1.347 . S
N846 C847 1.373 . S
C847 C844 1.350 . S
C847 N846 1.373 . S
C847 H868 0.931 . S
H848 C843 0.931 . S
H849 C844 0.930 . S
C850 O857 1.259 . S
C850 O858 1.258 1_455 S
N851 Co842 2.057 . S
N851 C852 1.316 . S
N851 C853 1.375 . S
C852 N851 1.316 . S
C852 N854 1.347 . S
C852 H863 0.931 . S
C853 N851 1.375 . S
C853 C855 1.350 . S
C853 H862 0.920 1_545 S
N854 C852 1.347 . S
N854 C855 1.373 . S
C855 C853 1.350 . S
C855 N854 1.373 . S
C855 H869 0.931 1_545 S
C856 O859 1.256 . S
C856 O860 1.255 1_655 S
O857 Co840 2.021 . S
O857 C850 1.259 . S
O858 Co842 2.117 . S
O858 C850 1.258 1_655 S
O859 Co842 2.020 . S
O859 C856 1.256 . S
O860 Co840 2.062 . S
O860 C856 1.255 1_455 S
O861 C841 1.259 . S
O861 Co842 2.021 . S
H862 C853 0.920 1_565 S
H863 C852 0.931 . S
O864 Co840 2.117 1_655 S
O864 C841 1.258 . S
O865 Co840 2.020 1_655 S
O865 C867 1.256 . S
O866 Co842 2.062 . S
O866 C867 1.255 . S
C867 O865 1.256 . S
C867 O866 1.255 . S
H868 C847 0.931 . S
H869 C855 0.931 1_565 S
Co870 N875 2.057 . S
Co870 O887 2.021 . S
Co870 O890 2.062 . S
Co870 O894 2.117 . S
Co870 O895 2.020 . S
C871 O891 1.259 . S
C871 O894 1.258 . S
Co872 N881 2.057 . S
Co872 O888 2.117 . S
Co872 O889 2.020 . S
Co872 O891 2.021 . S
Co872 O896 2.062 . S
C873 N875 1.316 . S
C873 N876 1.347 . S
C873 H878 0.931 . S
C874 N875 1.375 . S
C874 C877 1.350 . S
C874 H879 0.930 . S
N875 Co870 2.057 . S
N875 C873 1.316 . S
N875 C874 1.375 . S
N876 C873 1.347 . S
N876 C877 1.373 . S
C877 C874 1.350 . S
C877 N876 1.373 . S
C877 H898 0.931 . S
H878 C873 0.931 . S
H879 C874 0.930 . S
C880 O887 1.259 . S
C880 O888 1.258 . S
N881 Co872 2.057 . S
N881 C882 1.316 . S
N881 C883 1.375 . S
C882 N881 1.316 . S
C882 N884 1.347 . S
C882 H893 0.931 . S
C883 N881 1.375 . S
C883 C885 1.350 . S
C883 H892 0.930 . S
N884 C882 1.347 . S
N884 C885 1.373 . S
C885 C883 1.350 . S
C885 N884 1.373 . S
C885 H899 0.931 . S
C886 O889 1.256 . S
C886 O890 1.255 . S
O887 Co870 2.021 . S
O887 C880 1.259 . S
O888 Co872 2.117 . S
O888 C880 1.258 . S
O889 Co872 2.020 . S
O889 C886 1.256 . S
O890 Co870 2.062 . S
O890 C886 1.255 . S
O891 C871 1.259 . S
O891 Co872 2.021 . S
H892 C883 0.930 . S
H893 C882 0.931 . S
O894 Co870 2.117 . S
O894 C871 1.258 . S
O895 Co870 2.020 . S
O895 C897 1.256 . S
O896 Co872 2.062 . S
O896 C897 1.255 . S
C897 O895 1.256 . S
C897 O896 1.255 . S
H898 C877 0.931 . S
H899 C885 0.931 . S
Co900 N905 2.057 . S
Co900 O917 2.021 . S
Co900 O920 2.062 . S
Co900 O924 2.117 . S
Co900 O925 2.020 . S
C901 O921 1.259 . S
C901 O924 1.258 . S
Co902 N911 2.057 . S
Co902 O918 2.117 . S
Co902 O919 2.020 . S
Co902 O921 2.021 . S
Co902 O926 2.062 . S
C903 N905 1.316 . S
C903 N906 1.347 . S
C903 H908 0.931 . S
C904 N905 1.375 . S
C904 C907 1.350 . S
C904 H909 0.930 . S
N905 Co900 2.057 . S
N905 C903 1.316 . S
N905 C904 1.375 . S
N906 C903 1.347 . S
N906 C907 1.373 . S
C907 C904 1.350 . S
C907 N906 1.373 . S
C907 H928 0.931 . S
H908 C903 0.931 . S
H909 C904 0.930 . S
C910 O917 1.259 . S
C910 O918 1.258 . S
N911 Co902 2.057 . S
N911 C912 1.316 . S
N911 C913 1.375 . S
C912 N911 1.316 . S
C912 N914 1.347 . S
C912 H923 0.931 . S
C913 N911 1.375 . S
C913 C915 1.350 . S
C913 H922 0.930 . S
N914 C912 1.347 . S
N914 C915 1.373 . S
C915 C913 1.350 . S
C915 N914 1.373 . S
C915 H929 0.931 . S
C916 O919 1.256 . S
C916 O920 1.255 . S
O917 Co900 2.021 . S
O917 C910 1.259 . S
O918 Co902 2.117 . S
O918 C910 1.258 . S
O919 Co902 2.020 . S
O919 C916 1.256 . S
O920 Co900 2.062 . S
O920 C916 1.255 . S
O921 C901 1.259 . S
O921 Co902 2.021 . S
H922 C913 0.930 . S
H923 C912 0.931 . S
O924 Co900 2.117 . S
O924 C901 1.258 . S
O925 Co900 2.020 . S
O925 C927 1.256 . S
O926 Co902 2.062 . S
O926 C927 1.255 . S
C927 O925 1.256 . S
C927 O926 1.255 . S
H928 C907 0.931 . S
H929 C915 0.931 . S
Co930 N935 2.057 . S
Co930 O947 2.021 . S
Co930 O950 2.062 . S
Co930 O954 2.117 . S
Co930 O955 2.020 . S
C931 O951 1.259 . S
C931 O954 1.258 . S
Co932 N941 2.057 . S
Co932 O948 2.117 . S
Co932 O949 2.020 . S
Co932 O951 2.021 . S
Co932 O956 2.062 . S
C933 N935 1.316 . S
C933 N936 1.347 . S
C933 H938 0.931 . S
C934 N935 1.375 . S
C934 C937 1.350 . S
C934 H939 0.930 . S
N935 Co930 2.057 . S
N935 C933 1.316 . S
N935 C934 1.375 . S
N936 C933 1.347 . S
N936 C937 1.373 . S
C937 C934 1.350 . S
C937 N936 1.373 . S
C937 H958 0.931 . S
H938 C933 0.931 . S
H939 C934 0.930 . S
C940 O947 1.259 . S
C940 O948 1.258 . S
N941 Co932 2.057 . S
N941 C942 1.316 . S
N941 C943 1.375 . S
C942 N941 1.316 . S
C942 N944 1.347 1_554 S
C942 H953 0.931 . S
C943 N941 1.375 . S
C943 C945 1.350 1_554 S
C943 H952 0.930 . S
N944 C942 1.347 1_556 S
N944 C945 1.373 . S
C945 C943 1.350 1_556 S
C945 N944 1.373 . S
C945 H959 0.931 . S
C946 O949 1.256 . S
C946 O950 1.255 . S
O947 Co930 2.021 . S
O947 C940 1.259 . S
O948 Co932 2.117 . S
O948 C940 1.258 . S
O949 Co932 2.020 . S
O949 C946 1.256 . S
O950 Co930 2.062 . S
O950 C946 1.255 . S
O951 C931 1.259 . S
O951 Co932 2.021 . S
H952 C943 0.930 . S
H953 C942 0.931 . S
O954 Co930 2.117 . S
O954 C931 1.258 . S
O955 Co930 2.020 . S
O955 C957 1.256 . S
O956 Co932 2.062 . S
O956 C957 1.255 . S
C957 O955 1.256 . S
C957 O956 1.255 . S
H958 C937 0.931 . S
H959 C945 0.931 . S
Co960 N965 2.057 . S
Co960 O977 2.021 . S
Co960 O980 2.062 . S
Co960 O984 2.117 . S
Co960 O985 2.020 . S
C961 O981 1.259 . S
C961 O984 1.258 . S
Co962 N971 2.057 1_565 S
Co962 O978 2.117 . S
Co962 O979 2.020 . S
Co962 O981 2.021 . S
Co962 O986 2.062 1_565 S
C963 N965 1.316 . S
C963 N966 1.347 . S
C963 H968 0.931 . S
C964 N965 1.375 . S
C964 C967 1.350 . S
C964 H969 0.930 . S
N965 Co960 2.057 . S
N965 C963 1.316 . S
N965 C964 1.375 . S
N966 C963 1.347 . S
N966 C967 1.373 . S
C967 C964 1.350 . S
C967 N966 1.373 . S
C967 H988 0.931 . S
H968 C963 0.931 . S
H969 C964 0.930 . S
C970 O977 1.259 . S
C970 O978 1.258 . S
N971 Co962 2.057 1_545 S
N971 C972 1.316 . S
N971 C973 1.375 . S
C972 N971 1.316 . S
C972 N974 1.347 . S
C972 H983 0.931 . S
C973 N971 1.375 . S
C973 C975 1.350 . S
C973 H982 0.930 1_545 S
N974 C972 1.347 . S
N974 C975 1.373 . S
C975 C973 1.350 . S
C975 N974 1.373 . S
C975 H989 0.931 . S
C976 O979 1.256 . S
C976 O980 1.255 . S
O977 Co960 2.021 . S
O977 C970 1.259 . S
O978 Co962 2.117 . S
O978 C970 1.258 . S
O979 Co962 2.020 . S
O979 C976 1.256 . S
O980 Co960 2.062 . S
O980 C976 1.255 . S
O981 C961 1.259 . S
O981 Co962 2.021 . S
H982 C973 0.930 1_565 S
H983 C972 0.931 . S
O984 Co960 2.117 . S
O984 C961 1.258 . S
O985 Co960 2.020 . S
O985 C987 1.256 . S
O986 Co962 2.062 1_545 S
O986 C987 1.255 1_545 S
C987 O985 1.256 . S
C987 O986 1.255 1_565 S
H988 C967 0.931 . S
H989 C975 0.931 . S
Co990 N995 2.057 . S
Co990 O1007 2.021 . S
Co990 O1010 2.062 . S
Co990 O1014 2.117 . S
Co990 O1015 2.020 . S
C991 O1011 1.259 . S
C991 O1014 1.258 . S
Co992 N1001 2.057 . S
Co992 O1008 2.117 . S
Co992 O1009 2.020 . S
Co992 O1011 2.021 . S
Co992 O1016 2.062 . S
C993 N995 1.316 . S
C993 N996 1.347 . S
C993 H998 0.931 . S
C994 N995 1.375 . S
C994 C997 1.350 . S
C994 H999 0.930 . S
N995 Co990 2.057 . S
N995 C993 1.316 . S
N995 C994 1.375 . S
N996 C993 1.347 . S
N996 C997 1.373 . S
C997 C994 1.350 . S
C997 N996 1.373 . S
C997 H1018 0.931 . S
H998 C993 0.931 . S
H999 C994 0.930 . S
C1000 O1007 1.259 . S
C1000 O1008 1.258 . S
N1001 Co992 2.057 . S
N1001 C1002 1.316 . S
N1001 C1003 1.375 . S
C1002 N1001 1.316 . S
C1002 N1004 1.347 . S
C1002 H1013 0.931 . S
C1003 N1001 1.375 . S
C1003 C1005 1.350 . S
C1003 H1012 0.930 . S
N1004 C1002 1.347 . S
N1004 C1005 1.373 . S
C1005 C1003 1.350 . S
C1005 N1004 1.373 . S
C1005 H1019 0.931 . S
C1006 O1009 1.256 . S
C1006 O1010 1.255 . S
O1007 Co990 2.021 . S
O1007 C1000 1.259 . S
O1008 Co992 2.117 . S
O1008 C1000 1.258 . S
O1009 Co992 2.020 . S
O1009 C1006 1.256 . S
O1010 Co990 2.062 . S
O1010 C1006 1.255 . S
O1011 C991 1.259 . S
O1011 Co992 2.021 . S
H1012 C1003 0.930 . S
H1013 C1002 0.931 . S
O1014 Co990 2.117 . S
O1014 C991 1.258 . S
O1015 Co990 2.020 . S
O1015 C1017 1.256 . S
O1016 Co992 2.062 . S
O1016 C1017 1.255 . S
C1017 O1015 1.256 . S
C1017 O1016 1.255 . S
H1018 C997 0.931 . S
H1019 C1005 0.931 . S
Co1020 N1025 2.057 . S
Co1020 O1037 2.021 . S
Co1020 O1040 2.062 . S
Co1020 O1044 2.117 . S
Co1020 O1045 2.020 . S
C1021 O1041 1.259 . S
C1021 O1044 1.258 . S
Co1022 N1031 2.057 . S
Co1022 O1038 2.117 . S
Co1022 O1039 2.020 . S
Co1022 O1041 2.021 . S
Co1022 O1046 2.062 . S
C1023 N1025 1.316 . S
C1023 N1026 1.347 1_655 S
C1023 H1028 0.931 . S
C1024 N1025 1.375 . S
C1024 C1027 1.350 1_655 S
C1024 H1029 0.930 . S
N1025 Co1020 2.057 . S
N1025 C1023 1.316 . S
N1025 C1024 1.375 . S
N1026 C1023 1.347 1_455 S
N1026 C1027 1.373 . S
C1027 C1024 1.350 1_455 S
C1027 N1026 1.373 . S
C1027 H1048 0.931 . S
H1028 C1023 0.931 . S
H1029 C1024 0.930 . S
C1030 O1037 1.259 . S
C1030 O1038 1.258 . S
N1031 Co1022 2.057 . S
N1031 C1032 1.316 . S
N1031 C1033 1.375 . S
C1032 N1031 1.316 . S
C1032 N1034 1.347 . S
C1032 H1043 0.931 . S
C1033 N1031 1.375 . S
C1033 C1035 1.350 . S
C1033 H1042 0.930 . S
N1034 C1032 1.347 . S
N1034 C1035 1.373 . S
C1035 C1033 1.350 . S
C1035 N1034 1.373 . S
C1035 H1049 0.931 . S
C1036 O1039 1.256 . S
C1036 O1040 1.255 . S
O1037 Co1020 2.021 . S
O1037 C1030 1.259 . S
O1038 Co1022 2.117 . S
O1038 C1030 1.258 . S
O1039 Co1022 2.020 . S
O1039 C1036 1.256 . S
O1040 Co1020 2.062 . S
O1040 C1036 1.255 . S
O1041 C1021 1.259 . S
O1041 Co1022 2.021 . S
H1042 C1033 0.930 . S
H1043 C1032 0.931 . S
O1044 Co1020 2.117 . S
O1044 C1021 1.258 . S
O1045 Co1020 2.020 . S
O1045 C1047 1.256 . S
O1046 Co1022 2.062 . S
O1046 C1047 1.255 . S
C1047 O1045 1.256 . S
C1047 O1046 1.255 . S
H1048 C1027 0.931 . S
H1049 C1035 0.931 . S
Co1050 N1055 2.057 . S
Co1050 O1067 2.021 . S
Co1050 O1070 2.062 . S
Co1050 O1074 2.117 . S
Co1050 O1075 2.020 . S
C1051 O1071 1.259 . S
C1051 O1074 1.258 . S
Co1052 N1061 2.057 . S
Co1052 O1068 2.117 . S
Co1052 O1069 2.020 . S
Co1052 O1071 2.021 . S
Co1052 O1076 2.062 . S
C1053 N1055 1.316 . S
C1053 N1056 1.347 . S
C1053 H1058 0.931 . S
C1054 N1055 1.375 . S
C1054 C1057 1.350 . S
C1054 H1059 0.930 . S
N1055 Co1050 2.057 . S
N1055 C1053 1.316 . S
N1055 C1054 1.375 . S
N1056 C1053 1.347 . S
N1056 C1057 1.373 . S
C1057 C1054 1.350 . S
C1057 N1056 1.373 . S
C1057 H1078 0.931 . S
H1058 C1053 0.931 . S
H1059 C1054 0.930 . S
C1060 O1067 1.259 . S
C1060 O1068 1.258 . S
N1061 Co1052 2.057 . S
N1061 C1062 1.316 . S
N1061 C1063 1.375 . S
C1062 N1061 1.316 . S
C1062 N1064 1.347 1_545 S
C1062 H1073 0.931 . S
C1063 N1061 1.375 . S
C1063 C1065 1.350 1_545 S
C1063 H1072 0.930 . S
N1064 C1062 1.347 1_565 S
N1064 C1065 1.373 . S
C1065 C1063 1.350 1_565 S
C1065 N1064 1.373 . S
C1065 H1079 0.931 . S
C1066 O1069 1.256 . S
C1066 O1070 1.255 . S
O1067 Co1050 2.021 . S
O1067 C1060 1.259 . S
O1068 Co1052 2.117 . S
O1068 C1060 1.258 . S
O1069 Co1052 2.020 . S
O1069 C1066 1.256 . S
O1070 Co1050 2.062 . S
O1070 C1066 1.255 . S
O1071 C1051 1.259 . S
O1071 Co1052 2.021 . S
H1072 C1063 0.930 . S
H1073 C1062 0.931 . S
O1074 Co1050 2.117 . S
O1074 C1051 1.258 . S
O1075 Co1050 2.020 . S
O1075 C1077 1.256 . S
O1076 Co1052 2.062 . S
O1076 C1077 1.255 . S
C1077 O1075 1.256 . S
C1077 O1076 1.255 . S
H1078 C1057 0.931 . S
H1079 C1065 0.931 . S
Co1080 N1085 2.057 . S
Co1080 O1097 2.021 . S
Co1080 O1100 2.062 . S
Co1080 O1104 2.117 . S
Co1080 O1105 2.020 1_545 S
C1081 O1101 1.259 . S
C1081 O1104 1.258 1_565 S
Co1082 N1091 2.057 . S
Co1082 O1098 2.117 . S
Co1082 O1099 2.020 . S
Co1082 O1101 2.021 1_545 S
Co1082 O1106 2.062 1_545 S
C1083 N1085 1.316 . S
C1083 N1086 1.347 . S
C1083 H1088 0.931 . S
C1084 N1085 1.375 . S
C1084 C1087 1.350 . S
C1084 H1089 0.930 . S
N1085 Co1080 2.057 . S
N1085 C1083 1.316 . S
N1085 C1084 1.375 . S
N1086 C1083 1.347 . S
N1086 C1087 1.373 . S
C1087 C1084 1.350 . S
C1087 N1086 1.373 . S
C1087 H1108 0.931 . S
H1088 C1083 0.931 . S
H1089 C1084 0.930 . S
C1090 O1097 1.259 . S
C1090 O1098 1.258 . S
N1091 Co1082 2.057 . S
N1091 C1092 1.316 1_545 S
N1091 C1093 1.375 . S
C1092 N1091 1.316 1_565 S
C1092 N1094 1.347 . S
C1092 H1103 0.931 . S
C1093 N1091 1.375 . S
C1093 C1095 1.350 . S
C1093 H1102 0.930 . S
N1094 C1092 1.347 . S
N1094 C1095 1.373 1_565 S
C1095 C1093 1.350 . S
C1095 N1094 1.373 1_545 S
C1095 H1109 0.931 . S
C1096 O1099 1.256 . S
C1096 O1100 1.255 . S
O1097 Co1080 2.021 . S
O1097 C1090 1.259 . S
O1098 Co1082 2.117 . S
O1098 C1090 1.258 . S
O1099 Co1082 2.020 . S
O1099 C1096 1.256 . S
O1100 Co1080 2.062 . S
O1100 C1096 1.255 . S
O1101 C1081 1.259 . S
O1101 Co1082 2.021 1_565 S
H1102 C1093 0.930 . S
H1103 C1092 0.931 . S
O1104 Co1080 2.117 . S
O1104 C1081 1.258 1_545 S
O1105 Co1080 2.020 1_565 S
O1105 C1107 1.256 . S
O1106 Co1082 2.062 1_565 S
O1106 C1107 1.255 . S
C1107 O1105 1.256 . S
C1107 O1106 1.255 . S
H1108 C1087 0.931 . S
H1109 C1095 0.931 . S
Co1110 N1115 2.057 . S
Co1110 O1127 2.021 . S
Co1110 O1130 2.062 . S
Co1110 O1134 2.117 . S
Co1110 O1135 2.020 . S
C1111 O1131 1.259 . S
C1111 O1134 1.258 . S
Co1112 N1121 2.057 . S
Co1112 O1128 2.117 . S
Co1112 O1129 2.020 . S
Co1112 O1131 2.021 . S
Co1112 O1136 2.062 . S
C1113 N1115 1.316 . S
C1113 N1116 1.347 . S
C1113 H1118 0.931 . S
C1114 N1115 1.375 . S
C1114 C1117 1.350 . S
C1114 H1119 0.930 . S
N1115 Co1110 2.057 . S
N1115 C1113 1.316 . S
N1115 C1114 1.375 . S
N1116 C1113 1.347 . S
N1116 C1117 1.373 . S
C1117 C1114 1.350 . S
C1117 N1116 1.373 . S
C1117 H1138 0.931 . S
H1118 C1113 0.931 . S
H1119 C1114 0.930 . S
C1120 O1127 1.259 . S
C1120 O1128 1.258 . S
N1121 Co1112 2.057 . S
N1121 C1122 1.316 . S
N1121 C1123 1.375 . S
C1122 N1121 1.316 . S
C1122 N1124 1.347 1_565 S
C1122 H1133 0.931 . S
C1123 N1121 1.375 . S
C1123 C1125 1.373 . S
C1123 H1132 0.930 . S
N1124 C1122 1.347 1_545 S
N1124 C1125 1.370 1_545 S
C1125 C1123 1.373 . S
C1125 N1124 1.370 1_565 S
C1125 H1139 0.915 1_565 S
C1126 O1129 1.256 . S
C1126 O1130 1.255 . S
O1127 Co1110 2.021 . S
O1127 C1120 1.259 . S
O1128 Co1112 2.117 . S
O1128 C1120 1.258 . S
O1129 Co1112 2.020 . S
O1129 C1126 1.256 . S
O1130 Co1110 2.062 . S
O1130 C1126 1.255 . S
O1131 C1111 1.259 . S
O1131 Co1112 2.021 . S
H1132 C1123 0.930 . S
H1133 C1122 0.931 . S
O1134 Co1110 2.117 . S
O1134 C1111 1.258 . S
O1135 Co1110 2.020 . S
O1135 C1137 1.256 . S
O1136 Co1112 2.062 . S
O1136 C1137 1.255 . S
C1137 O1135 1.256 . S
C1137 O1136 1.255 . S
H1138 C1117 0.931 . S
H1139 C1125 0.915 1_545 S
Co1140 N1145 2.057 . S
Co1140 O1157 2.021 . S
Co1140 O1160 2.062 1_565 S
Co1140 O1164 2.117 . S
Co1140 O1165 2.020 . S
C1141 O1161 1.259 . S
C1141 O1164 1.258 . S
Co1142 N1151 2.057 . S
Co1142 O1158 2.117 . S
Co1142 O1159 2.020 . S
Co1142 O1161 2.021 . S
Co1142 O1166 2.062 . S
C1143 N1145 1.316 1_545 S
C1143 N1146 1.347 1_554 S
C1143 H1148 0.931 . S
C1144 N1145 1.375 . S
C1144 C1147 1.366 . S
C1144 H1149 0.930 . S
N1145 Co1140 2.057 . S
N1145 C1143 1.316 1_565 S
N1145 C1144 1.375 . S
N1146 C1143 1.347 1_556 S
N1146 C1147 1.372 1_546 S
C1147 C1144 1.366 . S
C1147 N1146 1.372 1_564 S
C1147 H1168 0.918 1_554 S
H1148 C1143 0.931 . S
H1149 C1144 0.930 . S
C1150 O1157 1.259 . S
C1150 O1158 1.258 . S
N1151 Co1142 2.057 . S
N1151 C1152 1.316 . S
N1151 C1153 1.375 . S
C1152 N1151 1.316 . S
C1152 N1154 1.347 . S
C1152 H1163 0.931 . S
C1153 N1151 1.375 . S
C1153 C1155 1.350 . S
C1153 H1162 0.930 . S
N1154 C1152 1.347 . S
N1154 C1155 1.373 . S
C1155 C1153 1.350 . S
C1155 N1154 1.373 . S
C1155 H1169 0.931 . S
C1156 O1159 1.256 1_545 S
C1156 O1160 1.255 . S
O1157 Co1140 2.021 . S
O1157 C1150 1.259 . S
O1158 Co1142 2.117 . S
O1158 C1150 1.258 . S
O1159 Co1142 2.020 . S
O1159 C1156 1.256 1_565 S
O1160 Co1140 2.062 1_545 S
O1160 C1156 1.255 . S
O1161 C1141 1.259 . S
O1161 Co1142 2.021 . S
H1162 C1153 0.930 . S
H1163 C1152 0.931 . S
O1164 Co1140 2.117 . S
O1164 C1141 1.258 . S
O1165 Co1140 2.020 . S
O1165 C1167 1.256 . S
O1166 Co1142 2.062 . S
O1166 C1167 1.255 . S
C1167 O1165 1.256 . S
C1167 O1166 1.255 . S
H1168 C1147 0.918 1_556 S
H1169 C1155 0.931 . S
Co1170 N1175 2.057 . S
Co1170 O1187 2.021 . S
Co1170 O1190 2.062 . S
Co1170 O1194 2.117 . S
Co1170 O1195 2.020 . S
C1171 O1191 1.259 . S
C1171 O1194 1.258 . S
Co1172 N1181 2.057 . S
Co1172 O1188 2.117 . S
Co1172 O1189 2.020 . S
Co1172 O1191 2.021 . S
Co1172 O1196 2.062 . S
C1173 N1175 1.316 . S
C1173 N1176 1.347 . S
C1173 H1178 0.931 . S
C1174 N1175 1.375 . S
C1174 C1177 1.350 . S
C1174 H1179 0.930 . S
N1175 Co1170 2.057 . S
N1175 C1173 1.316 . S
N1175 C1174 1.375 . S
N1176 C1173 1.347 . S
N1176 C1177 1.373 . S
C1177 C1174 1.350 . S
C1177 N1176 1.373 . S
C1177 H1198 0.931 . S
H1178 C1173 0.931 . S
H1179 C1174 0.930 . S
C1180 O1187 1.259 . S
C1180 O1188 1.258 . S
N1181 Co1172 2.057 . S
N1181 C1182 1.316 . S
N1181 C1183 1.375 . S
C1182 N1181 1.316 . S
C1182 N1184 1.347 1_545 S
C1182 H1193 0.931 . S
C1183 N1181 1.375 . S
C1183 C1185 1.350 1_545 S
C1183 H1192 0.930 . S
N1184 C1182 1.347 1_565 S
N1184 C1185 1.373 . S
C1185 C1183 1.350 1_565 S
C1185 N1184 1.373 . S
C1185 H1199 0.931 . S
C1186 O1189 1.256 . S
C1186 O1190 1.255 . S
O1187 Co1170 2.021 . S
O1187 C1180 1.259 . S
O1188 Co1172 2.117 . S
O1188 C1180 1.258 . S
O1189 Co1172 2.020 . S
O1189 C1186 1.256 . S
O1190 Co1170 2.062 . S
O1190 C1186 1.255 . S
O1191 C1171 1.259 . S
O1191 Co1172 2.021 . S
H1192 C1183 0.930 . S
H1193 C1182 0.931 . S
O1194 Co1170 2.117 . S
O1194 C1171 1.258 . S
O1195 Co1170 2.020 . S
O1195 C1197 1.256 . S
O1196 Co1172 2.062 . S
O1196 C1197 1.255 . S
C1197 O1195 1.256 . S
C1197 O1196 1.255 . S
H1198 C1177 0.931 . S
H1199 C1185 0.931 . S
Co1200 N1205 2.057 . S
Co1200 O1217 2.021 . S
Co1200 O1220 2.062 . S
Co1200 O1224 2.117 . S
Co1200 O1225 2.020 . S
C1201 O1221 1.259 . S
C1201 O1224 1.258 . S
Co1202 N1211 2.057 . S
Co1202 O1218 2.117 . S
Co1202 O1219 2.020 . S
Co1202 O1221 2.021 . S
Co1202 O1226 2.062 1_556 S
C1203 N1205 1.316 . S
C1203 N1206 1.347 . S
C1203 H1208 0.931 . S
C1204 N1205 1.375 . S
C1204 C1207 1.350 . S
C1204 H1209 0.930 . S
N1205 Co1200 2.057 . S
N1205 C1203 1.316 . S
N1205 C1204 1.375 . S
N1206 C1203 1.347 . S
N1206 C1207 1.373 . S
C1207 C1204 1.350 . S
C1207 N1206 1.373 . S
C1207 H1228 0.931 . S
H1208 C1203 0.931 . S
H1209 C1204 0.930 . S
C1210 O1217 1.259 . S
C1210 O1218 1.258 . S
N1211 Co1202 2.057 . S
N1211 C1212 1.316 . S
N1211 C1213 1.375 . S
C1212 N1211 1.316 . S
C1212 N1214 1.347 . S
C1212 H1223 0.931 1_556 S
C1213 N1211 1.375 . S
C1213 C1215 1.350 . S
C1213 H1222 0.930 . S
N1214 C1212 1.347 . S
N1214 C1215 1.373 . S
C1215 C1213 1.350 . S
C1215 N1214 1.373 . S
C1215 H1229 0.931 . S
C1216 O1219 1.256 . S
C1216 O1220 1.255 . S
O1217 Co1200 2.021 . S
O1217 C1210 1.259 . S
O1218 Co1202 2.117 . S
O1218 C1210 1.258 . S
O1219 Co1202 2.020 . S
O1219 C1216 1.256 . S
O1220 Co1200 2.062 . S
O1220 C1216 1.255 . S
O1221 C1201 1.259 . S
O1221 Co1202 2.021 . S
H1222 C1213 0.930 . S
H1223 C1212 0.931 1_554 S
O1224 Co1200 2.117 . S
O1224 C1201 1.258 . S
O1225 Co1200 2.020 . S
O1225 C1227 1.256 1_556 S
O1226 Co1202 2.062 1_554 S
O1226 C1227 1.255 . S
C1227 O1225 1.256 1_554 S
C1227 O1226 1.255 . S
H1228 C1207 0.931 . S
H1229 C1215 0.931 . S
Co1230 N1235 2.057 . S
Co1230 O1247 2.021 . S
Co1230 O1250 2.062 . S
Co1230 O1254 2.117 . S
Co1230 O1255 2.020 . S
C1231 O1251 1.259 . S
C1231 O1254 1.258 . S
Co1232 N1241 2.057 . S
Co1232 O1248 2.117 . S
Co1232 O1249 2.020 . S
Co1232 O1251 2.021 . S
Co1232 O1256 2.062 . S
C1233 N1235 1.316 . S
C1233 N1236 1.347 . S
C1233 H1238 0.931 . S
C1234 N1235 1.375 . S
C1234 C1237 1.350 . S
C1234 H1239 0.930 . S
N1235 Co1230 2.057 . S
N1235 C1233 1.316 . S
N1235 C1234 1.375 . S
N1236 C1233 1.347 . S
N1236 C1237 1.373 . S
C1237 C1234 1.350 . S
C1237 N1236 1.373 . S
C1237 H1258 0.931 1_565 S
H1238 C1233 0.931 . S
H1239 C1234 0.930 . S
C1240 O1247 1.259 . S
C1240 O1248 1.258 . S
N1241 Co1232 2.057 . S
N1241 C1242 1.316 . S
N1241 C1243 1.375 . S
C1242 N1241 1.316 . S
C1242 N1244 1.347 . S
C1242 H1253 0.931 . S
C1243 N1241 1.375 . S
C1243 C1245 1.350 . S
C1243 H1252 0.930 . S
N1244 C1242 1.347 . S
N1244 C1245 1.373 . S
C1245 C1243 1.350 . S
C1245 N1244 1.373 . S
C1245 H1259 0.931 . S
C1246 O1249 1.256 . S
C1246 O1250 1.255 . S
O1247 Co1230 2.021 . S
O1247 C1240 1.259 . S
O1248 Co1232 2.117 . S
O1248 C1240 1.258 . S
O1249 Co1232 2.020 . S
O1249 C1246 1.256 . S
O1250 Co1230 2.062 . S
O1250 C1246 1.255 . S
O1251 C1231 1.259 . S
O1251 Co1232 2.021 . S
H1252 C1243 0.930 . S
H1253 C1242 0.931 . S
O1254 Co1230 2.117 . S
O1254 C1231 1.258 . S
O1255 Co1230 2.020 . S
O1255 C1257 1.256 . S
O1256 Co1232 2.062 . S
O1256 C1257 1.255 . S
C1257 O1255 1.256 . S
C1257 O1256 1.255 . S
H1258 C1237 0.931 1_545 S
H1259 C1245 0.931 . S
Co1260 N1265 2.057 . S
Co1260 O1277 2.021 . S
Co1260 O1280 2.062 . S
Co1260 O1284 2.117 . S
Co1260 O1285 2.020 . S
C1261 O1281 1.259 . S
C1261 O1284 1.258 . S
Co1262 N1271 2.057 . S
Co1262 O1278 2.117 . S
Co1262 O1279 2.020 . S
Co1262 O1281 2.021 . S
Co1262 O1286 2.062 . S
C1263 N1265 1.316 . S
C1263 N1266 1.347 . S
C1263 H1268 0.931 . S
C1264 N1265 1.375 . S
C1264 C1267 1.350 . S
C1264 H1269 0.930 . S
N1265 Co1260 2.057 . S
N1265 C1263 1.316 . S
N1265 C1264 1.375 . S
N1266 C1263 1.347 . S
N1266 C1267 1.373 . S
C1267 C1264 1.350 . S
C1267 N1266 1.373 . S
C1267 H1288 0.931 . S
H1268 C1263 0.931 . S
H1269 C1264 0.930 . S
C1270 O1277 1.259 . S
C1270 O1278 1.258 . S
N1271 Co1262 2.057 . S
N1271 C1272 1.316 1_655 S
N1271 C1273 1.375 1_655 S
C1272 N1271 1.316 1_455 S
C1272 N1274 1.347 . S
C1272 H1283 0.931 . S
C1273 N1271 1.375 1_455 S
C1273 C1275 1.350 . S
C1273 H1282 0.930 . S
N1274 C1272 1.347 . S
N1274 C1275 1.373 . S
C1275 C1273 1.350 . S
C1275 N1274 1.373 . S
C1275 H1289 0.931 . S
C1276 O1279 1.256 . S
C1276 O1280 1.255 . S
O1277 Co1260 2.021 . S
O1277 C1270 1.259 . S
O1278 Co1262 2.117 . S
O1278 C1270 1.258 . S
O1279 Co1262 2.020 . S
O1279 C1276 1.256 . S
O1280 Co1260 2.062 . S
O1280 C1276 1.255 . S
O1281 C1261 1.259 . S
O1281 Co1262 2.021 . S
H1282 C1273 0.930 . S
H1283 C1272 0.931 . S
O1284 Co1260 2.117 . S
O1284 C1261 1.258 . S
O1285 Co1260 2.020 . S
O1285 C1287 1.256 . S
O1286 Co1262 2.062 . S
O1286 C1287 1.255 . S
C1287 O1285 1.256 . S
C1287 O1286 1.255 . S
H1288 C1267 0.931 . S
H1289 C1275 0.931 . S
Co1290 N1295 2.057 . S
Co1290 O1307 2.021 . S
Co1290 O1310 2.062 . S
Co1290 O1314 2.117 . S
Co1290 O1315 2.020 . S
C1291 O1311 1.259 . S
C1291 O1314 1.258 . S
Co1292 N1301 2.057 . S
Co1292 O1308 2.117 . S
Co1292 O1309 2.020 . S
Co1292 O1311 2.021 . S
Co1292 O1316 2.062 . S
C1293 N1295 1.316 . S
C1293 N1296 1.347 1_545 S
C1293 H1298 0.931 . S
C1294 N1295 1.375 . S
C1294 C1297 1.350 1_545 S
C1294 H1299 0.930 . S
N1295 Co1290 2.057 . S
N1295 C1293 1.316 . S
N1295 C1294 1.375 . S
N1296 C1293 1.347 1_565 S
N1296 C1297 1.373 . S
C1297 C1294 1.350 1_565 S
C1297 N1296 1.373 . S
C1297 H1318 0.931 . S
H1298 C1293 0.931 . S
H1299 C1294 0.930 . S
C1300 O1307 1.259 . S
C1300 O1308 1.258 . S
N1301 Co1292 2.057 . S
N1301 C1302 1.316 . S
N1301 C1303 1.375 . S
C1302 N1301 1.316 . S
C1302 N1304 1.347 . S
C1302 H1313 0.931 . S
C1303 N1301 1.375 . S
C1303 C1305 1.350 . S
C1303 H1312 0.930 . S
N1304 C1302 1.347 . S
N1304 C1305 1.373 . S
C1305 C1303 1.350 . S
C1305 N1304 1.373 . S
C1305 H1319 0.931 . S
C1306 O1309 1.256 . S
C1306 O1310 1.255 . S
O1307 Co1290 2.021 . S
O1307 C1300 1.259 . S
O1308 Co1292 2.117 . S
O1308 C1300 1.258 . S
O1309 Co1292 2.020 . S
O1309 C1306 1.256 . S
O1310 Co1290 2.062 . S
O1310 C1306 1.255 . S
O1311 C1291 1.259 . S
O1311 Co1292 2.021 . S
H1312 C1303 0.930 . S
H1313 C1302 0.931 . S
O1314 Co1290 2.117 . S
O1314 C1291 1.258 . S
O1315 Co1290 2.020 . S
O1315 C1317 1.256 . S
O1316 Co1292 2.062 . S
O1316 C1317 1.255 . S
C1317 O1315 1.256 . S
C1317 O1316 1.255 . S
H1318 C1297 0.931 . S
H1319 C1305 0.931 . S
Co1320 N1325 2.057 . S
Co1320 O1337 2.021 . S
Co1320 O1340 2.062 . S
Co1320 O1344 2.117 . S
Co1320 O1345 2.020 . S
C1321 O1341 1.259 . S
C1321 O1344 1.258 . S
Co1322 N1331 2.057 . S
Co1322 O1338 2.117 . S
Co1322 O1339 2.020 . S
Co1322 O1341 2.021 . S
Co1322 O1346 2.062 . S
C1323 N1325 1.316 . S
C1323 N1326 1.347 . S
C1323 H1328 0.931 . S
C1324 N1325 1.375 . S
C1324 C1327 1.350 . S
C1324 H1329 0.930 . S
N1325 Co1320 2.057 . S
N1325 C1323 1.316 . S
N1325 C1324 1.375 . S
N1326 C1323 1.347 . S
N1326 C1327 1.373 . S
C1327 C1324 1.350 . S
C1327 N1326 1.373 . S
C1327 H1348 0.931 . S
H1328 C1323 0.931 . S
H1329 C1324 0.930 . S
C1330 O1337 1.259 . S
C1330 O1338 1.258 . S
N1331 Co1322 2.057 . S
N1331 C1332 1.316 . S
N1331 C1333 1.375 . S
C1332 N1331 1.316 . S
C1332 N1334 1.347 1_455 S
C1332 H1343 0.931 . S
C1333 N1331 1.375 . S
C1333 C1335 1.350 1_455 S
C1333 H1342 0.930 . S
N1334 C1332 1.347 1_655 S
N1334 C1335 1.373 . S
C1335 C1333 1.350 1_655 S
C1335 N1334 1.373 . S
C1335 H1349 0.931 . S
C1336 O1339 1.256 . S
C1336 O1340 1.255 . S
O1337 Co1320 2.021 . S
O1337 C1330 1.259 . S
O1338 Co1322 2.117 . S
O1338 C1330 1.258 . S
O1339 Co1322 2.020 . S
O1339 C1336 1.256 . S
O1340 Co1320 2.062 . S
O1340 C1336 1.255 . S
O1341 C1321 1.259 . S
O1341 Co1322 2.021 . S
H1342 C1333 0.930 . S
H1343 C1332 0.931 . S
O1344 Co1320 2.117 . S
O1344 C1321 1.258 . S
O1345 Co1320 2.020 . S
O1345 C1347 1.256 . S
O1346 Co1322 2.062 . S
O1346 C1347 1.255 . S
C1347 O1345 1.256 . S
C1347 O1346 1.255 . S
H1348 C1327 0.931 . S
H1349 C1335 0.931 . S
Co1350 N1355 2.057 . S
Co1350 O1367 2.021 . S
Co1350 O1370 2.062 . S
Co1350 O1374 2.117 . S
Co1350 O1375 2.020 . S
C1351 O1371 1.259 . S
C1351 O1374 1.258 . S
Co1352 N1361 2.057 . S
Co1352 O1368 2.117 . S
Co1352 O1369 2.020 . S
Co1352 O1371 2.021 . S
Co1352 O1376 2.062 . S
C1353 N1355 1.316 . S
C1353 N1356 1.347 . S
C1353 H1358 0.931 . S
C1354 N1355 1.375 . S
C1354 C1357 1.350 . S
C1354 H1359 0.930 . S
N1355 Co1350 2.057 . S
N1355 C1353 1.316 . S
N1355 C1354 1.375 . S
N1356 C1353 1.347 . S
N1356 C1357 1.373 . S
C1357 C1354 1.350 . S
C1357 N1356 1.373 . S
C1357 H1378 0.931 . S
H1358 C1353 0.931 . S
H1359 C1354 0.930 . S
C1360 O1367 1.259 . S
C1360 O1368 1.258 . S
N1361 Co1352 2.057 . S
N1361 C1362 1.316 . S
N1361 C1363 1.375 . S
C1362 N1361 1.316 . S
C1362 N1364 1.347 . S
C1362 H1373 0.931 . S
C1363 N1361 1.375 . S
C1363 C1365 1.350 . S
C1363 H1372 0.930 . S
N1364 C1362 1.347 . S
N1364 C1365 1.373 . S
C1365 C1363 1.350 . S
C1365 N1364 1.373 . S
C1365 H1379 0.931 . S
C1366 O1369 1.256 . S
C1366 O1370 1.255 . S
O1367 Co1350 2.021 . S
O1367 C1360 1.259 . S
O1368 Co1352 2.117 . S
O1368 C1360 1.258 . S
O1369 Co1352 2.020 . S
O1369 C1366 1.256 . S
O1370 Co1350 2.062 . S
O1370 C1366 1.255 . S
O1371 C1351 1.259 . S
O1371 Co1352 2.021 . S
H1372 C1363 0.930 . S
H1373 C1362 0.931 . S
O1374 Co1350 2.117 . S
O1374 C1351 1.258 . S
O1375 Co1350 2.020 . S
O1375 C1377 1.256 . S
O1376 Co1352 2.062 . S
O1376 C1377 1.255 . S
C1377 O1375 1.256 . S
C1377 O1376 1.255 . S
H1378 C1357 0.931 . S
H1379 C1365 0.931 . S
Co1380 N1385 2.057 . S
Co1380 O1397 2.021 . S
Co1380 O1400 2.062 . S
Co1380 O1404 2.117 . S
Co1380 O1405 2.020 . S
C1381 O1401 1.259 . S
C1381 O1404 1.258 . S
Co1382 N1391 2.057 . S
Co1382 O1398 2.117 . S
Co1382 O1399 2.020 . S
Co1382 O1401 2.021 . S
Co1382 O1406 2.062 . S
C1383 N1385 1.316 . S
C1383 N1386 1.347 . S
C1383 H1388 0.931 . S
C1384 N1385 1.375 . S
C1384 C1387 1.350 . S
C1384 H1389 0.930 . S
N1385 Co1380 2.057 . S
N1385 C1383 1.316 . S
N1385 C1384 1.375 . S
N1386 C1383 1.347 . S
N1386 C1387 1.373 . S
C1387 C1384 1.350 . S
C1387 N1386 1.373 . S
C1387 H1408 0.931 . S
H1388 C1383 0.931 . S
H1389 C1384 0.930 . S
C1390 O1397 1.259 . S
C1390 O1398 1.258 . S
N1391 Co1382 2.057 . S
N1391 C1392 1.316 1_655 S
N1391 C1393 1.375 1_655 S
C1392 N1391 1.316 1_455 S
C1392 N1394 1.347 . S
C1392 H1403 0.931 . S
C1393 N1391 1.375 1_455 S
C1393 C1395 1.350 . S
C1393 H1402 0.930 . S
N1394 C1392 1.347 . S
N1394 C1395 1.373 . S
C1395 C1393 1.350 . S
C1395 N1394 1.373 . S
C1395 H1409 0.931 . S
C1396 O1399 1.256 . S
C1396 O1400 1.255 . S
O1397 Co1380 2.021 . S
O1397 C1390 1.259 . S
O1398 Co1382 2.117 . S
O1398 C1390 1.258 . S
O1399 Co1382 2.020 . S
O1399 C1396 1.256 . S
O1400 Co1380 2.062 . S
O1400 C1396 1.255 . S
O1401 C1381 1.259 . S
O1401 Co1382 2.021 . S
H1402 C1393 0.930 . S
H1403 C1392 0.931 . S
O1404 Co1380 2.117 . S
O1404 C1381 1.258 . S
O1405 Co1380 2.020 . S
O1405 C1407 1.256 . S
O1406 Co1382 2.062 . S
O1406 C1407 1.255 . S
C1407 O1405 1.256 . S
C1407 O1406 1.255 . S
H1408 C1387 0.931 . S
H1409 C1395 0.931 . S
Co1410 N1415 2.057 . S
Co1410 O1427 2.021 . S
Co1410 O1430 2.062 . S
Co1410 O1434 2.117 . S
Co1410 O1435 2.020 . S
C1411 O1431 1.259 . S
C1411 O1434 1.258 . S
Co1412 N1421 2.057 . S
Co1412 O1428 2.117 . S
Co1412 O1429 2.020 . S
Co1412 O1431 2.021 . S
Co1412 O1436 2.062 . S
C1413 N1415 1.316 . S
C1413 N1416 1.347 . S
C1413 H1418 0.931 . S
C1414 N1415 1.375 . S
C1414 C1417 1.350 . S
C1414 H1419 0.930 . S
N1415 Co1410 2.057 . S
N1415 C1413 1.316 . S
N1415 C1414 1.375 . S
N1416 C1413 1.347 . S
N1416 C1417 1.373 . S
C1417 C1414 1.350 . S
C1417 N1416 1.373 . S
C1417 H1438 0.931 . S
H1418 C1413 0.931 . S
H1419 C1414 0.930 . S
C1420 O1427 1.259 . S
C1420 O1428 1.258 . S
N1421 Co1412 2.057 . S
N1421 C1422 1.316 . S
N1421 C1423 1.375 . S
C1422 N1421 1.316 . S
C1422 N1424 1.347 . S
C1422 H1433 0.931 . S
C1423 N1421 1.375 . S
C1423 C1425 1.350 . S
C1423 H1432 0.930 . S
N1424 C1422 1.347 . S
N1424 C1425 1.373 . S
C1425 C1423 1.350 . S
C1425 N1424 1.373 . S
C1425 H1439 0.931 . S
C1426 O1429 1.256 . S
C1426 O1430 1.255 . S
O1427 Co1410 2.021 . S
O1427 C1420 1.259 . S
O1428 Co1412 2.117 . S
O1428 C1420 1.258 . S
O1429 Co1412 2.020 . S
O1429 C1426 1.256 . S
O1430 Co1410 2.062 . S
O1430 C1426 1.255 . S
O1431 C1411 1.259 . S
O1431 Co1412 2.021 . S
H1432 C1423 0.930 . S
H1433 C1422 0.931 . S
O1434 Co1410 2.117 . S
O1434 C1411 1.258 . S
O1435 Co1410 2.020 . S
O1435 C1437 1.256 . S
O1436 Co1412 2.062 . S
O1436 C1437 1.255 . S
C1437 O1435 1.256 . S
C1437 O1436 1.255 . S
H1438 C1417 0.931 . S
H1439 C1425 0.931 . S
Co1440 N1445 2.057 . S
Co1440 O1457 2.021 . S
Co1440 O1460 2.062 . S
Co1440 O1464 2.117 . S
Co1440 O1465 2.020 . S
C1441 O1461 1.259 . S
C1441 O1464 1.258 . S
Co1442 N1451 2.057 . S
Co1442 O1458 2.117 . S
Co1442 O1459 2.020 . S
Co1442 O1461 2.021 . S
Co1442 O1466 2.062 . S
C1443 N1445 1.316 . S
C1443 N1446 1.347 . S
C1443 H1448 0.931 . S
C1444 N1445 1.375 . S
C1444 C1447 1.350 . S
C1444 H1449 0.930 . S
N1445 Co1440 2.057 . S
N1445 C1443 1.316 . S
N1445 C1444 1.375 . S
N1446 C1443 1.347 . S
N1446 C1447 1.373 . S
C1447 C1444 1.350 . S
C1447 N1446 1.373 . S
C1447 H1468 0.931 . S
H1448 C1443 0.931 . S
H1449 C1444 0.930 . S
C1450 O1457 1.259 . S
C1450 O1458 1.258 . S
N1451 Co1442 2.057 . S
N1451 C1452 1.316 . S
N1451 C1453 1.375 . S
C1452 N1451 1.316 . S
C1452 N1454 1.347 1_556 S
C1452 H1463 0.931 . S
C1453 N1451 1.375 . S
C1453 C1455 1.350 1_556 S
C1453 H1462 0.930 . S
N1454 C1452 1.347 1_554 S
N1454 C1455 1.373 . S
C1455 C1453 1.350 1_554 S
C1455 N1454 1.373 . S
C1455 H1469 0.931 . S
C1456 O1459 1.256 . S
C1456 O1460 1.255 . S
O1457 Co1440 2.021 . S
O1457 C1450 1.259 . S
O1458 Co1442 2.117 . S
O1458 C1450 1.258 . S
O1459 Co1442 2.020 . S
O1459 C1456 1.256 . S
O1460 Co1440 2.062 . S
O1460 C1456 1.255 . S
O1461 C1441 1.259 . S
O1461 Co1442 2.021 . S
H1462 C1453 0.930 . S
H1463 C1452 0.931 . S
O1464 Co1440 2.117 . S
O1464 C1441 1.258 . S
O1465 Co1440 2.020 . S
O1465 C1467 1.256 . S
O1466 Co1442 2.062 . S
O1466 C1467 1.255 . S
C1467 O1465 1.256 . S
C1467 O1466 1.255 . S
H1468 C1447 0.931 . S
H1469 C1455 0.931 . S
Co1470 N1475 2.057 . S
Co1470 O1487 2.021 . S
Co1470 O1490 2.062 . S
Co1470 O1494 2.117 . S
Co1470 O1495 2.020 . S
C1471 O1491 1.259 . S
C1471 O1494 1.258 . S
Co1472 N1481 2.057 . S
Co1472 O1488 2.117 . S
Co1472 O1489 2.020 . S
Co1472 O1491 2.021 . S
Co1472 O1496 2.062 . S
C1473 N1475 1.316 . S
C1473 N1476 1.347 1_554 S
C1473 H1478 0.931 . S
C1474 N1475 1.375 . S
C1474 C1477 1.350 1_554 S
C1474 H1479 0.930 . S
N1475 Co1470 2.057 . S
N1475 C1473 1.316 . S
N1475 C1474 1.375 . S
N1476 C1473 1.347 1_556 S
N1476 C1477 1.373 . S
C1477 C1474 1.350 1_556 S
C1477 N1476 1.373 . S
C1477 H1498 0.931 . S
H1478 C1473 0.931 . S
H1479 C1474 0.930 . S
C1480 O1487 1.259 . S
C1480 O1488 1.258 . S
N1481 Co1472 2.057 . S
N1481 C1482 1.316 . S
N1481 C1483 1.375 . S
C1482 N1481 1.316 . S
C1482 N1484 1.347 . S
C1482 H1493 0.931 . S
C1483 N1481 1.375 . S
C1483 C1485 1.350 . S
C1483 H1492 0.930 . S
N1484 C1482 1.347 . S
N1484 C1485 1.373 . S
C1485 C1483 1.350 . S
C1485 N1484 1.373 . S
C1485 H1499 0.931 . S
C1486 O1489 1.256 . S
C1486 O1490 1.255 . S
O1487 Co1470 2.021 . S
O1487 C1480 1.259 . S
O1488 Co1472 2.117 . S
O1488 C1480 1.258 . S
O1489 Co1472 2.020 . S
O1489 C1486 1.256 . S
O1490 Co1470 2.062 . S
O1490 C1486 1.255 . S
O1491 C1471 1.259 . S
O1491 Co1472 2.021 . S
H1492 C1483 0.930 . S
H1493 C1482 0.931 . S
O1494 Co1470 2.117 . S
O1494 C1471 1.258 . S
O1495 Co1470 2.020 . S
O1495 C1497 1.256 . S
O1496 Co1472 2.062 . S
O1496 C1497 1.255 . S
C1497 O1495 1.256 . S
C1497 O1496 1.255 . S
H1498 C1477 0.931 . S
H1499 C1485 0.931 . S
Co1500 N1505 2.057 . S
Co1500 O1517 2.021 . S
Co1500 O1520 2.062 1_655 S
Co1500 O1524 2.117 . S
Co1500 O1525 2.020 . S
C1501 O1521 1.259 . S
C1501 O1524 1.258 . S
Co1502 N1511 2.057 . S
Co1502 O1518 2.117 . S
Co1502 O1519 2.034 . S
Co1502 O1521 2.021 . S
Co1502 O1526 2.062 . S
C1503 N1505 1.316 . S
C1503 N1506 1.347 . S
C1503 H1508 0.931 . S
C1504 N1505 1.375 . S
C1504 C1507 1.350 . S
C1504 H1509 0.930 . S
N1505 Co1500 2.057 . S
N1505 C1503 1.316 . S
N1505 C1504 1.375 . S
N1506 C1503 1.347 . S
N1506 C1507 1.373 . S
C1507 C1504 1.350 . S
C1507 N1506 1.373 . S
C1507 H1528 0.931 . S
H1508 C1503 0.931 . S
H1509 C1504 0.930 . S
C1510 O1517 1.259 . S
C1510 O1518 1.258 . S
N1511 Co1502 2.057 . S
N1511 C1512 1.316 . S
N1511 C1513 1.375 . S
C1512 N1511 1.316 . S
C1512 N1514 1.347 . S
C1512 H1523 0.931 . S
C1513 N1511 1.375 . S
C1513 C1515 1.350 . S
C1513 H1522 0.930 . S
N1514 C1512 1.347 . S
N1514 C1515 1.373 . S
C1515 C1513 1.350 . S
C1515 N1514 1.373 . S
C1515 H1529 0.931 . S
C1516 O1519 1.247 1_455 S
C1516 O1520 1.255 . S
O1517 Co1500 2.021 . S
O1517 C1510 1.259 . S
O1518 Co1502 2.117 . S
O1518 C1510 1.258 . S
O1519 Co1502 2.034 . S
O1519 C1516 1.247 1_655 S
O1520 Co1500 2.062 1_455 S
O1520 C1516 1.255 . S
O1521 C1501 1.259 . S
O1521 Co1502 2.021 . S
H1522 C1513 0.930 . S
H1523 C1512 0.931 . S
O1524 Co1500 2.117 . S
O1524 C1501 1.258 . S
O1525 Co1500 2.020 . S
O1525 C1527 1.256 . S
O1526 Co1502 2.062 . S
O1526 C1527 1.255 . S
C1527 O1525 1.256 . S
C1527 O1526 1.255 . S
H1528 C1507 0.931 . S
H1529 C1515 0.931 . S
Co1530 N1535 2.057 . S
Co1530 O1547 2.021 . S
Co1530 O1550 2.062 . S
Co1530 O1554 2.117 . S
Co1530 O1555 2.020 . S
C1531 O1551 1.259 . S
C1531 O1554 1.258 . S
Co1532 N1541 2.057 . S
Co1532 O1548 2.117 . S
Co1532 O1549 2.020 . S
Co1532 O1551 2.021 . S
Co1532 O1556 2.062 . S
C1533 N1535 1.316 . S
C1533 N1536 1.347 . S
C1533 H1538 0.931 . S
C1534 N1535 1.375 . S
C1534 C1537 1.350 . S
C1534 H1539 0.930 . S
N1535 Co1530 2.057 . S
N1535 C1533 1.316 . S
N1535 C1534 1.375 . S
N1536 C1533 1.347 . S
N1536 C1537 1.373 . S
C1537 C1534 1.350 . S
C1537 N1536 1.373 . S
C1537 H1558 0.931 . S
H1538 C1533 0.931 . S
H1539 C1534 0.930 . S
C1540 O1547 1.259 . S
C1540 O1548 1.258 . S
N1541 Co1532 2.057 . S
N1541 C1542 1.316 . S
N1541 C1543 1.375 . S
C1542 N1541 1.316 . S
C1542 N1544 1.347 . S
C1542 H1553 0.931 . S
C1543 N1541 1.375 . S
C1543 C1545 1.350 . S
C1543 H1552 0.930 . S
N1544 C1542 1.347 . S
N1544 C1545 1.373 . S
C1545 C1543 1.350 . S
C1545 N1544 1.373 . S
C1545 H1559 0.931 . S
C1546 O1549 1.256 . S
C1546 O1550 1.255 . S
O1547 Co1530 2.021 . S
O1547 C1540 1.259 . S
O1548 Co1532 2.117 . S
O1548 C1540 1.258 . S
O1549 Co1532 2.020 . S
O1549 C1546 1.256 . S
O1550 Co1530 2.062 . S
O1550 C1546 1.255 . S
O1551 C1531 1.259 . S
O1551 Co1532 2.021 . S
H1552 C1543 0.930 . S
H1553 C1542 0.931 . S
O1554 Co1530 2.117 . S
O1554 C1531 1.258 . S
O1555 Co1530 2.020 . S
O1555 C1557 1.256 . S
O1556 Co1532 2.062 . S
O1556 C1557 1.255 . S
C1557 O1555 1.256 . S
C1557 O1556 1.255 . S
H1558 C1537 0.931 . S
H1559 C1545 0.931 . S
Co1560 N1565 2.057 . S
Co1560 O1577 2.021 . S
Co1560 O1580 2.062 . S
Co1560 O1584 2.117 . S
Co1560 O1585 2.020 . S
C1561 O1581 1.259 . S
C1561 O1584 1.258 . S
Co1562 N1571 2.057 . S
Co1562 O1578 2.117 . S
Co1562 O1579 2.020 . S
Co1562 O1581 2.021 . S
Co1562 O1586 2.062 . S
C1563 N1565 1.316 . S
C1563 N1566 1.347 . S
C1563 H1568 0.931 . S
C1564 N1565 1.375 . S
C1564 C1567 1.350 . S
C1564 H1569 0.930 . S
N1565 Co1560 2.057 . S
N1565 C1563 1.316 . S
N1565 C1564 1.375 . S
N1566 C1563 1.347 . S
N1566 C1567 1.373 . S
C1567 C1564 1.350 . S
C1567 N1566 1.373 . S
C1567 H1588 0.931 . S
H1568 C1563 0.931 . S
H1569 C1564 0.930 . S
C1570 O1577 1.259 . S
C1570 O1578 1.258 . S
N1571 Co1562 2.057 . S
N1571 C1572 1.316 . S
N1571 C1573 1.375 . S
C1572 N1571 1.316 . S
C1572 N1574 1.347 . S
C1572 H1583 0.931 . S
C1573 N1571 1.375 . S
C1573 C1575 1.350 . S
C1573 H1582 0.930 . S
N1574 C1572 1.347 . S
N1574 C1575 1.373 . S
C1575 C1573 1.350 . S
C1575 N1574 1.373 . S
C1575 H1589 0.931 . S
C1576 O1579 1.256 . S
C1576 O1580 1.255 . S
O1577 Co1560 2.021 . S
O1577 C1570 1.259 . S
O1578 Co1562 2.117 . S
O1578 C1570 1.258 . S
O1579 Co1562 2.020 . S
O1579 C1576 1.256 . S
O1580 Co1560 2.062 . S
O1580 C1576 1.255 . S
O1581 C1561 1.259 . S
O1581 Co1562 2.021 . S
H1582 C1573 0.930 . S
H1583 C1572 0.931 . S
O1584 Co1560 2.117 . S
O1584 C1561 1.258 . S
O1585 Co1560 2.020 . S
O1585 C1587 1.256 . S
O1586 Co1562 2.062 . S
O1586 C1587 1.255 . S
C1587 O1585 1.256 . S
C1587 O1586 1.255 . S
H1588 C1567 0.931 . S
H1589 C1575 0.931 . S
Co1590 N1595 2.057 . S
Co1590 O1607 2.021 . S
Co1590 O1610 2.062 . S
Co1590 O1614 2.117 . S
Co1590 O1615 2.020 . S
C1591 O1611 1.259 . S
C1591 O1614 1.258 . S
Co1592 N1601 2.057 . S
Co1592 O1608 2.117 . S
Co1592 O1609 2.020 . S
Co1592 O1611 2.021 . S
Co1592 O1616 2.062 . S
C1593 N1595 1.316 . S
C1593 N1596 1.347 . S
C1593 H1598 0.931 . S
C1594 N1595 1.375 . S
C1594 C1597 1.350 . S
C1594 H1599 0.930 . S
N1595 Co1590 2.057 . S
N1595 C1593 1.316 . S
N1595 C1594 1.375 . S
N1596 C1593 1.347 . S
N1596 C1597 1.373 . S
C1597 C1594 1.350 . S
C1597 N1596 1.373 . S
C1597 H1618 0.931 . S
H1598 C1593 0.931 . S
H1599 C1594 0.930 . S
C1600 O1607 1.259 . S
C1600 O1608 1.258 . S
N1601 Co1592 2.057 . S
N1601 C1602 1.316 . S
N1601 C1603 1.375 . S
C1602 N1601 1.316 . S
C1602 N1604 1.347 . S
C1602 H1613 0.931 . S
C1603 N1601 1.375 . S
C1603 C1605 1.350 . S
C1603 H1612 0.930 . S
N1604 C1602 1.347 . S
N1604 C1605 1.373 . S
C1605 C1603 1.350 . S
C1605 N1604 1.373 . S
C1605 H1619 0.931 1_655 S
C1606 O1609 1.256 . S
C1606 O1610 1.255 . S
O1607 Co1590 2.021 . S
O1607 C1600 1.259 . S
O1608 Co1592 2.117 . S
O1608 C1600 1.258 . S
O1609 Co1592 2.020 . S
O1609 C1606 1.256 . S
O1610 Co1590 2.062 . S
O1610 C1606 1.255 . S
O1611 C1591 1.259 . S
O1611 Co1592 2.021 . S
H1612 C1603 0.930 . S
H1613 C1602 0.931 . S
O1614 Co1590 2.117 . S
O1614 C1591 1.258 . S
O1615 Co1590 2.020 . S
O1615 C1617 1.256 . S
O1616 Co1592 2.062 . S
O1616 C1617 1.255 . S
C1617 O1615 1.256 . S
C1617 O1616 1.255 . S
H1618 C1597 0.931 . S
H1619 C1605 0.931 1_455 S
Co1620 N1625 2.057 . S
Co1620 O1637 2.021 . S
Co1620 O1640 2.062 . S
Co1620 O1644 2.117 . S
Co1620 O1645 2.020 . S
C1621 O1641 1.259 . S
C1621 O1644 1.258 . S
Co1622 N1631 2.057 . S
Co1622 O1638 2.117 . S
Co1622 O1639 2.020 . S
Co1622 O1641 2.021 . S
Co1622 O1646 2.062 . S
C1623 N1625 1.316 . S
C1623 N1626 1.347 . S
C1623 H1628 0.931 . S
C1624 N1625 1.375 . S
C1624 C1627 1.350 . S
C1624 H1629 0.930 . S
N1625 Co1620 2.057 . S
N1625 C1623 1.316 . S
N1625 C1624 1.375 . S
N1626 C1623 1.347 . S
N1626 C1627 1.373 . S
C1627 C1624 1.350 . S
C1627 N1626 1.373 . S
C1627 H1648 0.931 . S
H1628 C1623 0.931 . S
H1629 C1624 0.930 . S
C1630 O1637 1.259 . S
C1630 O1638 1.258 . S
N1631 Co1622 2.057 . S
N1631 C1632 1.316 . S
N1631 C1633 1.375 . S
C1632 N1631 1.316 . S
C1632 N1634 1.347 1_655 S
C1632 H1643 0.932 . S
C1633 N1631 1.375 . S
C1633 C1635 1.350 . S
C1633 H1642 0.930 . S
N1634 C1632 1.347 1_455 S
N1634 C1635 1.373 1_455 S
C1635 C1633 1.350 . S
C1635 N1634 1.373 1_655 S
C1635 H1649 0.931 . S
C1636 O1639 1.256 . S
C1636 O1640 1.255 . S
O1637 Co1620 2.021 . S
O1637 C1630 1.259 . S
O1638 Co1622 2.117 . S
O1638 C1630 1.258 . S
O1639 Co1622 2.020 . S
O1639 C1636 1.256 . S
O1640 Co1620 2.062 . S
O1640 C1636 1.255 . S
O1641 C1621 1.259 . S
O1641 Co1622 2.021 . S
H1642 C1633 0.930 . S
H1643 C1632 0.932 . S
O1644 Co1620 2.117 . S
O1644 C1621 1.258 . S
O1645 Co1620 2.020 . S
O1645 C1647 1.256 . S
O1646 Co1622 2.062 . S
O1646 C1647 1.255 . S
C1647 O1645 1.256 . S
C1647 O1646 1.255 . S
H1648 C1627 0.931 . S
H1649 C1635 0.931 . S
Co1650 N1655 2.057 . S
Co1650 O1667 2.021 . S
Co1650 O1670 2.062 . S
Co1650 O1674 2.117 . S
Co1650 O1675 2.020 . S
C1651 O1671 1.259 . S
C1651 O1674 1.258 . S
Co1652 N1661 2.057 . S
Co1652 O1668 2.117 . S
Co1652 O1669 2.020 . S
Co1652 O1671 2.021 . S
Co1652 O1676 2.062 . S
C1653 N1655 1.316 . S
C1653 N1656 1.347 . S
C1653 H1658 0.931 . S
C1654 N1655 1.375 . S
C1654 C1657 1.350 . S
C1654 H1659 0.930 . S
N1655 Co1650 2.057 . S
N1655 C1653 1.316 . S
N1655 C1654 1.375 . S
N1656 C1653 1.347 . S
N1656 C1657 1.373 . S
C1657 C1654 1.350 . S
C1657 N1656 1.373 . S
C1657 H1678 0.931 . S
H1658 C1653 0.931 . S
H1659 C1654 0.930 . S
C1660 O1667 1.259 . S
C1660 O1668 1.258 . S
N1661 Co1652 2.057 . S
N1661 C1662 1.316 . S
N1661 C1663 1.375 . S
C1662 N1661 1.316 . S
C1662 N1664 1.347 . S
C1662 H1673 0.931 . S
C1663 N1661 1.375 . S
C1663 C1665 1.350 . S
C1663 H1672 0.930 . S
N1664 C1662 1.347 . S
N1664 C1665 1.373 . S
C1665 C1663 1.350 . S
C1665 N1664 1.373 . S
C1665 H1679 0.931 . S
C1666 O1669 1.256 . S
C1666 O1670 1.255 . S
O1667 Co1650 2.021 . S
O1667 C1660 1.259 . S
O1668 Co1652 2.117 . S
O1668 C1660 1.258 . S
O1669 Co1652 2.020 . S
O1669 C1666 1.256 . S
O1670 Co1650 2.062 . S
O1670 C1666 1.255 . S
O1671 C1651 1.259 . S
O1671 Co1652 2.021 . S
H1672 C1663 0.930 . S
H1673 C1662 0.931 . S
O1674 Co1650 2.117 . S
O1674 C1651 1.258 . S
O1675 Co1650 2.020 . S
O1675 C1677 1.256 . S
O1676 Co1652 2.062 . S
O1676 C1677 1.255 . S
C1677 O1675 1.256 . S
C1677 O1676 1.255 . S
H1678 C1657 0.931 . S
H1679 C1665 0.931 . S
Co1680 N1685 2.057 . S
Co1680 O1697 2.021 . S
Co1680 O1700 2.062 . S
Co1680 O1704 2.117 . S
Co1680 O1705 2.020 . S
C1681 O1701 1.259 . S
C1681 O1704 1.258 . S
Co1682 N1691 2.057 . S
Co1682 O1698 2.117 . S
Co1682 O1699 2.020 . S
Co1682 O1701 2.021 . S
Co1682 O1706 2.062 . S
C1683 N1685 1.316 . S
C1683 N1686 1.347 . S
C1683 H1688 0.931 . S
C1684 N1685 1.375 . S
C1684 C1687 1.350 . S
C1684 H1689 0.930 . S
N1685 Co1680 2.057 . S
N1685 C1683 1.316 . S
N1685 C1684 1.375 . S
N1686 C1683 1.347 . S
N1686 C1687 1.373 . S
C1687 C1684 1.350 . S
C1687 N1686 1.373 . S
C1687 H1708 0.931 1_655 S
H1688 C1683 0.931 . S
H1689 C1684 0.930 . S
C1690 O1697 1.259 . S
C1690 O1698 1.258 . S
N1691 Co1682 2.057 . S
N1691 C1692 1.316 . S
N1691 C1693 1.375 . S
C1692 N1691 1.316 . S
C1692 N1694 1.347 . S
C1692 H1703 0.931 . S
C1693 N1691 1.375 . S
C1693 C1695 1.350 . S
C1693 H1702 0.930 . S
N1694 C1692 1.347 . S
N1694 C1695 1.373 . S
C1695 C1693 1.350 . S
C1695 N1694 1.373 . S
C1695 H1709 0.931 . S
C1696 O1699 1.256 . S
C1696 O1700 1.255 . S
O1697 Co1680 2.021 . S
O1697 C1690 1.259 . S
O1698 Co1682 2.117 . S
O1698 C1690 1.258 . S
O1699 Co1682 2.020 . S
O1699 C1696 1.256 . S
O1700 Co1680 2.062 . S
O1700 C1696 1.255 . S
O1701 C1681 1.259 . S
O1701 Co1682 2.021 . S
H1702 C1693 0.930 . S
H1703 C1692 0.931 . S
O1704 Co1680 2.117 . S
O1704 C1681 1.258 . S
O1705 Co1680 2.020 . S
O1705 C1707 1.256 . S
O1706 Co1682 2.062 . S
O1706 C1707 1.255 . S
C1707 O1705 1.256 . S
C1707 O1706 1.255 . S
H1708 C1687 0.931 1_455 S
H1709 C1695 0.931 . S
Co1710 N1715 2.057 . S
Co1710 O1727 2.021 . S
Co1710 O1730 2.062 . S
Co1710 O1734 2.117 . S
Co1710 O1735 2.020 . S
C1711 O1731 1.259 . S
C1711 O1734 1.258 . S
Co1712 N1721 2.057 . S
Co1712 O1728 2.117 . S
Co1712 O1729 2.020 . S
Co1712 O1731 2.021 . S
Co1712 O1736 2.062 . S
C1713 N1715 1.316 . S
C1713 N1716 1.347 1_556 S
C1713 H1718 0.931 . S
C1714 N1715 1.375 . S
C1714 C1717 1.350 1_556 S
C1714 H1719 0.930 . S
N1715 Co1710 2.057 . S
N1715 C1713 1.316 . S
N1715 C1714 1.375 . S
N1716 C1713 1.347 1_554 S
N1716 C1717 1.373 . S
C1717 C1714 1.350 1_554 S
C1717 N1716 1.373 . S
C1717 H1738 0.931 . S
H1718 C1713 0.931 . S
H1719 C1714 0.930 . S
C1720 O1727 1.259 . S
C1720 O1728 1.258 . S
N1721 Co1712 2.057 . S
N1721 C1722 1.316 . S
N1721 C1723 1.375 . S
C1722 N1721 1.316 . S
C1722 N1724 1.347 . S
C1722 H1733 0.931 . S
C1723 N1721 1.375 . S
C1723 C1725 1.350 . S
C1723 H1732 0.930 . S
N1724 C1722 1.347 . S
N1724 C1725 1.373 . S
C1725 C1723 1.350 . S
C1725 N1724 1.373 . S
C1725 H1739 0.931 . S
C1726 O1729 1.256 . S
C1726 O1730 1.255 . S
O1727 Co1710 2.021 . S
O1727 C1720 1.259 . S
O1728 Co1712 2.117 . S
O1728 C1720 1.258 . S
O1729 Co1712 2.020 . S
O1729 C1726 1.256 . S
O1730 Co1710 2.062 . S
O1730 C1726 1.255 . S
O1731 C1711 1.259 . S
O1731 Co1712 2.021 . S
H1732 C1723 0.930 . S
H1733 C1722 0.931 . S
O1734 Co1710 2.117 . S
O1734 C1711 1.258 . S
O1735 Co1710 2.020 . S
O1735 C1737 1.256 . S
O1736 Co1712 2.062 . S
O1736 C1737 1.255 . S
C1737 O1735 1.256 . S
C1737 O1736 1.255 . S
H1738 C1717 0.931 . S
H1739 C1725 0.931 . S
Co1740 N1745 2.057 . S
Co1740 O1757 2.021 . S
Co1740 O1760 2.062 . S
Co1740 O1764 2.117 . S
Co1740 O1765 2.020 . S
C1741 O1761 1.259 . S
C1741 O1764 1.258 . S
Co1742 N1751 2.057 . S
Co1742 O1758 2.117 . S
Co1742 O1759 2.020 . S
Co1742 O1761 2.021 . S
Co1742 O1766 2.062 . S
C1743 N1745 1.316 . S
C1743 N1746 1.347 . S
C1743 H1748 0.931 . S
C1744 N1745 1.375 . S
C1744 C1747 1.350 . S
C1744 H1749 0.930 . S
N1745 Co1740 2.057 . S
N1745 C1743 1.316 . S
N1745 C1744 1.375 . S
N1746 C1743 1.347 . S
N1746 C1747 1.373 . S
C1747 C1744 1.350 . S
C1747 N1746 1.373 . S
C1747 H1768 0.931 . S
H1748 C1743 0.931 . S
H1749 C1744 0.930 . S
C1750 O1757 1.259 . S
C1750 O1758 1.258 . S
N1751 Co1742 2.057 . S
N1751 C1752 1.316 . S
N1751 C1753 1.375 . S
C1752 N1751 1.316 . S
C1752 N1754 1.347 . S
C1752 H1763 0.931 . S
C1753 N1751 1.375 . S
C1753 C1755 1.350 . S
C1753 H1762 0.930 . S
N1754 C1752 1.347 . S
N1754 C1755 1.373 . S
C1755 C1753 1.350 . S
C1755 N1754 1.373 . S
C1755 H1769 0.931 . S
C1756 O1759 1.256 . S
C1756 O1760 1.255 . S
O1757 Co1740 2.021 . S
O1757 C1750 1.259 . S
O1758 Co1742 2.117 . S
O1758 C1750 1.258 . S
O1759 Co1742 2.020 . S
O1759 C1756 1.256 . S
O1760 Co1740 2.062 . S
O1760 C1756 1.255 . S
O1761 C1741 1.259 . S
O1761 Co1742 2.021 . S
H1762 C1753 0.930 . S
H1763 C1752 0.931 . S
O1764 Co1740 2.117 . S
O1764 C1741 1.258 . S
O1765 Co1740 2.020 . S
O1765 C1767 1.256 . S
O1766 Co1742 2.062 . S
O1766 C1767 1.255 . S
C1767 O1765 1.256 . S
C1767 O1766 1.255 . S
H1768 C1747 0.931 . S
H1769 C1755 0.931 . S
Co1770 N1775 2.057 . S
Co1770 O1787 2.021 . S
Co1770 O1790 2.062 . S
Co1770 O1794 2.117 . S
Co1770 O1795 2.020 . S
C1771 O1791 1.259 . S
C1771 O1794 1.258 . S
Co1772 N1781 2.057 . S
Co1772 O1788 2.117 . S
Co1772 O1789 2.020 . S
Co1772 O1791 2.021 . S
Co1772 O1796 2.062 . S
C1773 N1775 1.316 . S
C1773 N1776 1.347 . S
C1773 H1778 0.931 . S
C1774 N1775 1.375 . S
C1774 C1777 1.350 . S
C1774 H1779 0.930 . S
N1775 Co1770 2.057 . S
N1775 C1773 1.316 . S
N1775 C1774 1.375 . S
N1776 C1773 1.347 . S
N1776 C1777 1.373 . S
C1777 C1774 1.350 . S
C1777 N1776 1.373 . S
C1777 H1798 0.931 . S
H1778 C1773 0.931 . S
H1779 C1774 0.930 . S
C1780 O1787 1.259 . S
C1780 O1788 1.258 . S
N1781 Co1772 2.057 . S
N1781 C1782 1.316 . S
N1781 C1783 1.375 . S
C1782 N1781 1.316 . S
C1782 N1784 1.347 . S
C1782 H1793 0.931 . S
C1783 N1781 1.375 . S
C1783 C1785 1.350 . S
C1783 H1792 0.930 . S
N1784 C1782 1.347 . S
N1784 C1785 1.373 . S
C1785 C1783 1.350 . S
C1785 N1784 1.373 . S
C1785 H1799 0.931 . S
C1786 O1789 1.256 . S
C1786 O1790 1.255 . S
O1787 Co1770 2.021 . S
O1787 C1780 1.259 . S
O1788 Co1772 2.117 . S
O1788 C1780 1.258 . S
O1789 Co1772 2.020 . S
O1789 C1786 1.256 . S
O1790 Co1770 2.062 . S
O1790 C1786 1.255 . S
O1791 C1771 1.259 . S
O1791 Co1772 2.021 . S
H1792 C1783 0.930 . S
H1793 C1782 0.931 . S
O1794 Co1770 2.117 . S
O1794 C1771 1.258 . S
O1795 Co1770 2.020 . S
O1795 C1797 1.256 . S
O1796 Co1772 2.062 . S
O1796 C1797 1.255 . S
C1797 O1795 1.256 . S
C1797 O1796 1.255 . S
H1798 C1777 0.931 . S
H1799 C1785 0.931 . S
Co1800 N1805 2.057 . S
Co1800 O1817 2.021 . S
Co1800 O1820 2.062 . S
Co1800 O1824 2.117 . S
Co1800 O1825 2.020 . S
C1801 O1821 1.259 . S
C1801 O1824 1.258 . S
Co1802 N1811 2.057 . S
Co1802 O1818 2.117 . S
Co1802 O1819 2.020 . S
Co1802 O1821 2.021 . S
Co1802 O1826 2.062 . S
C1803 N1805 1.316 . S
C1803 N1806 1.347 . S
C1803 H1808 0.931 . S
C1804 N1805 1.375 . S
C1804 C1807 1.350 . S
C1804 H1809 0.930 . S
N1805 Co1800 2.057 . S
N1805 C1803 1.316 . S
N1805 C1804 1.375 . S
N1806 C1803 1.347 . S
N1806 C1807 1.373 . S
C1807 C1804 1.350 . S
C1807 N1806 1.373 . S
C1807 H1828 0.931 . S
H1808 C1803 0.931 . S
H1809 C1804 0.930 . S
C1810 O1817 1.259 . S
C1810 O1818 1.258 . S
N1811 Co1802 2.057 . S
N1811 C1812 1.316 . S
N1811 C1813 1.375 . S
C1812 N1811 1.316 . S
C1812 N1814 1.347 . S
C1812 H1823 0.931 . S
C1813 N1811 1.375 . S
C1813 C1815 1.350 . S
C1813 H1822 0.930 . S
N1814 C1812 1.347 . S
N1814 C1815 1.373 . S
C1815 C1813 1.350 . S
C1815 N1814 1.373 . S
C1815 H1829 0.931 . S
C1816 O1819 1.256 . S
C1816 O1820 1.255 . S
O1817 Co1800 2.021 . S
O1817 C1810 1.259 . S
O1818 Co1802 2.117 . S
O1818 C1810 1.258 . S
O1819 Co1802 2.020 . S
O1819 C1816 1.256 . S
O1820 Co1800 2.062 . S
O1820 C1816 1.255 . S
O1821 C1801 1.259 . S
O1821 Co1802 2.021 . S
H1822 C1813 0.930 . S
H1823 C1812 0.931 . S
O1824 Co1800 2.117 . S
O1824 C1801 1.258 . S
O1825 Co1800 2.020 . S
O1825 C1827 1.256 . S
O1826 Co1802 2.062 . S
O1826 C1827 1.255 . S
C1827 O1825 1.256 . S
C1827 O1826 1.255 . S
H1828 C1807 0.931 . S
H1829 C1815 0.931 . S
Co1830 N1835 2.057 . S
Co1830 O1847 2.021 . S
Co1830 O1850 2.062 . S
Co1830 O1854 2.117 . S
Co1830 O1855 2.020 . S
C1831 O1851 1.259 . S
C1831 O1854 1.258 . S
Co1832 N1841 2.057 . S
Co1832 O1848 2.117 . S
Co1832 O1849 2.020 . S
Co1832 O1851 2.021 . S
Co1832 O1856 2.062 . S
C1833 N1835 1.316 . S
C1833 N1836 1.347 . S
C1833 H1838 0.931 . S
C1834 N1835 1.375 . S
C1834 C1837 1.350 . S
C1834 H1839 0.930 . S
N1835 Co1830 2.057 . S
N1835 C1833 1.316 . S
N1835 C1834 1.375 . S
N1836 C1833 1.347 . S
N1836 C1837 1.373 . S
C1837 C1834 1.350 . S
C1837 N1836 1.373 . S
C1837 H1858 0.931 . S
H1838 C1833 0.931 . S
H1839 C1834 0.930 . S
C1840 O1847 1.259 . S
C1840 O1848 1.258 . S
N1841 Co1832 2.057 . S
N1841 C1842 1.316 . S
N1841 C1843 1.375 . S
C1842 N1841 1.316 . S
C1842 N1844 1.347 . S
C1842 H1853 0.931 . S
C1843 N1841 1.375 . S
C1843 C1845 1.350 . S
C1843 H1852 0.930 . S
N1844 C1842 1.347 . S
N1844 C1845 1.373 . S
C1845 C1843 1.350 . S
C1845 N1844 1.373 . S
C1845 H1859 0.931 . S
C1846 O1849 1.256 . S
C1846 O1850 1.255 . S
O1847 Co1830 2.021 . S
O1847 C1840 1.259 . S
O1848 Co1832 2.117 . S
O1848 C1840 1.258 . S
O1849 Co1832 2.020 . S
O1849 C1846 1.256 . S
O1850 Co1830 2.062 . S
O1850 C1846 1.255 . S
O1851 C1831 1.259 . S
O1851 Co1832 2.021 . S
H1852 C1843 0.930 . S
H1853 C1842 0.931 . S
O1854 Co1830 2.117 . S
O1854 C1831 1.258 . S
O1855 Co1830 2.020 . S
O1855 C1857 1.256 . S
O1856 Co1832 2.062 . S
O1856 C1857 1.255 . S
C1857 O1855 1.256 . S
C1857 O1856 1.255 . S
H1858 C1837 0.931 . S
H1859 C1845 0.931 . S
Co1860 N1865 2.057 . S
Co1860 O1877 2.021 . S
Co1860 O1880 2.062 . S
Co1860 O1884 2.117 . S
Co1860 O1885 2.020 . S
C1861 O1881 1.259 . S
C1861 O1884 1.258 . S
Co1862 N1871 2.057 . S
Co1862 O1878 2.117 . S
Co1862 O1879 2.020 . S
Co1862 O1881 2.021 . S
Co1862 O1886 2.062 . S
C1863 N1865 1.316 . S
C1863 N1866 1.347 . S
C1863 H1868 0.931 . S
C1864 N1865 1.375 . S
C1864 C1867 1.350 . S
C1864 H1869 0.930 . S
N1865 Co1860 2.057 . S
N1865 C1863 1.316 . S
N1865 C1864 1.375 . S
N1866 C1863 1.347 . S
N1866 C1867 1.373 . S
C1867 C1864 1.350 . S
C1867 N1866 1.373 . S
C1867 H1888 0.931 . S
H1868 C1863 0.931 . S
H1869 C1864 0.930 . S
C1870 O1877 1.259 . S
C1870 O1878 1.258 . S
N1871 Co1862 2.057 . S
N1871 C1872 1.316 . S
N1871 C1873 1.375 . S
C1872 N1871 1.316 . S
C1872 N1874 1.347 . S
C1872 H1883 0.931 . S
C1873 N1871 1.375 . S
C1873 C1875 1.350 . S
C1873 H1882 0.930 . S
N1874 C1872 1.347 . S
N1874 C1875 1.373 . S
C1875 C1873 1.350 . S
C1875 N1874 1.373 . S
C1875 H1889 0.931 . S
C1876 O1879 1.256 . S
C1876 O1880 1.255 . S
O1877 Co1860 2.021 . S
O1877 C1870 1.259 . S
O1878 Co1862 2.117 . S
O1878 C1870 1.258 . S
O1879 Co1862 2.020 . S
O1879 C1876 1.256 . S
O1880 Co1860 2.062 . S
O1880 C1876 1.255 . S
O1881 C1861 1.259 . S
O1881 Co1862 2.021 . S
H1882 C1873 0.930 . S
H1883 C1872 0.931 . S
O1884 Co1860 2.117 . S
O1884 C1861 1.258 . S
O1885 Co1860 2.020 . S
O1885 C1887 1.256 . S
O1886 Co1862 2.062 . S
O1886 C1887 1.255 . S
C1887 O1885 1.256 . S
C1887 O1886 1.255 . S
H1888 C1867 0.931 . S
H1889 C1875 0.931 . S
Co1890 N1895 2.057 . S
Co1890 O1907 2.021 . S
Co1890 O1910 2.062 . S
Co1890 O1914 2.117 . S
Co1890 O1915 2.020 . S
C1891 O1911 1.259 . S
C1891 O1914 1.258 . S
Co1892 N1901 2.057 . S
Co1892 O1908 2.117 . S
Co1892 O1909 2.020 . S
Co1892 O1911 2.021 . S
Co1892 O1916 2.062 . S
C1893 N1895 1.316 . S
C1893 N1896 1.347 . S
C1893 H1898 0.931 . S
C1894 N1895 1.375 . S
C1894 C1897 1.350 . S
C1894 H1899 0.930 . S
N1895 Co1890 2.057 . S
N1895 C1893 1.316 . S
N1895 C1894 1.375 . S
N1896 C1893 1.347 . S
N1896 C1897 1.373 . S
C1897 C1894 1.350 . S
C1897 N1896 1.373 . S
C1897 H1918 0.931 . S
H1898 C1893 0.931 . S
H1899 C1894 0.930 . S
C1900 O1907 1.259 . S
C1900 O1908 1.258 . S
N1901 Co1892 2.057 . S
N1901 C1902 1.316 . S
N1901 C1903 1.375 . S
C1902 N1901 1.316 . S
C1902 N1904 1.347 . S
C1902 H1913 0.931 . S
C1903 N1901 1.375 . S
C1903 C1905 1.350 . S
C1903 H1912 0.930 . S
N1904 C1902 1.347 . S
N1904 C1905 1.373 . S
C1905 C1903 1.350 . S
C1905 N1904 1.373 . S
C1905 H1919 0.931 . S
C1906 O1909 1.256 . S
C1906 O1910 1.255 . S
O1907 Co1890 2.021 . S
O1907 C1900 1.259 . S
O1908 Co1892 2.117 . S
O1908 C1900 1.258 . S
O1909 Co1892 2.020 . S
O1909 C1906 1.256 . S
O1910 Co1890 2.062 . S
O1910 C1906 1.255 . S
O1911 C1891 1.259 . S
O1911 Co1892 2.021 . S
H1912 C1903 0.930 . S
H1913 C1902 0.931 . S
O1914 Co1890 2.117 . S
O1914 C1891 1.258 . S
O1915 Co1890 2.020 . S
O1915 C1917 1.256 . S
O1916 Co1892 2.062 . S
O1916 C1917 1.255 . S
C1917 O1915 1.256 . S
C1917 O1916 1.255 . S
H1918 C1897 0.931 . S
H1919 C1905 0.931 . S
Co1920 N1925 2.057 . S
Co1920 O1937 2.021 . S
Co1920 O1940 2.062 . S
Co1920 O1944 2.117 . S
Co1920 O1945 2.020 . S
C1921 O1941 1.259 . S
C1921 O1944 1.258 . S
Co1922 N1931 2.057 . S
Co1922 O1938 2.117 . S
Co1922 O1939 2.020 . S
Co1922 O1941 2.021 . S
Co1922 O1946 2.062 . S
C1923 N1925 1.316 . S
C1923 N1926 1.347 . S
C1923 H1928 0.931 . S
C1924 N1925 1.375 . S
C1924 C1927 1.350 . S
C1924 H1929 0.930 . S
N1925 Co1920 2.057 . S
N1925 C1923 1.316 . S
N1925 C1924 1.375 . S
N1926 C1923 1.347 . S
N1926 C1927 1.373 . S
C1927 C1924 1.350 . S
C1927 N1926 1.373 . S
C1927 H1948 0.931 . S
H1928 C1923 0.931 . S
H1929 C1924 0.930 . S
C1930 O1937 1.259 . S
C1930 O1938 1.258 . S
N1931 Co1922 2.057 . S
N1931 C1932 1.316 . S
N1931 C1933 1.375 . S
C1932 N1931 1.316 . S
C1932 N1934 1.347 . S
C1932 H1943 0.931 . S
C1933 N1931 1.375 . S
C1933 C1935 1.350 . S
C1933 H1942 0.930 . S
N1934 C1932 1.347 . S
N1934 C1935 1.373 . S
C1935 C1933 1.350 . S
C1935 N1934 1.373 . S
C1935 H1949 0.931 1_565 S
C1936 O1939 1.256 . S
C1936 O1940 1.255 . S
O1937 Co1920 2.021 . S
O1937 C1930 1.259 . S
O1938 Co1922 2.117 . S
O1938 C1930 1.258 . S
O1939 Co1922 2.020 . S
O1939 C1936 1.256 . S
O1940 Co1920 2.062 . S
O1940 C1936 1.255 . S
O1941 C1921 1.259 . S
O1941 Co1922 2.021 . S
H1942 C1933 0.930 . S
H1943 C1932 0.931 . S
O1944 Co1920 2.117 . S
O1944 C1921 1.258 . S
O1945 Co1920 2.020 . S
O1945 C1947 1.256 . S
O1946 Co1922 2.062 . S
O1946 C1947 1.255 . S
C1947 O1945 1.256 . S
C1947 O1946 1.255 . S
H1948 C1927 0.931 . S
H1949 C1935 0.931 1_545 S
Co1950 N1955 2.057 . S
Co1950 O1967 2.021 . S
Co1950 O1970 2.062 . S
Co1950 O1974 2.117 . S
Co1950 O1975 2.020 . S
C1951 O1971 1.259 . S
C1951 O1974 1.258 . S
Co1952 N1961 2.057 . S
Co1952 O1968 2.117 . S
Co1952 O1969 2.020 . S
Co1952 O1971 2.021 . S
Co1952 O1976 2.062 . S
C1953 N1955 1.316 . S
C1953 N1956 1.347 . S
C1953 H1958 0.931 . S
C1954 N1955 1.375 . S
C1954 C1957 1.350 . S
C1954 H1959 0.930 . S
N1955 Co1950 2.057 . S
N1955 C1953 1.316 . S
N1955 C1954 1.375 . S
N1956 C1953 1.347 . S
N1956 C1957 1.373 . S
C1957 C1954 1.350 . S
C1957 N1956 1.373 . S
C1957 H1978 0.931 . S
H1958 C1953 0.931 . S
H1959 C1954 0.930 . S
C1960 O1967 1.259 . S
C1960 O1968 1.258 . S
N1961 Co1952 2.057 . S
N1961 C1962 1.316 . S
N1961 C1963 1.375 . S
C1962 N1961 1.316 . S
C1962 N1964 1.347 . S
C1962 H1973 0.931 . S
C1963 N1961 1.375 . S
C1963 C1965 1.350 . S
C1963 H1972 0.930 . S
N1964 C1962 1.347 . S
N1964 C1965 1.373 . S
C1965 C1963 1.350 . S
C1965 N1964 1.373 . S
C1965 H1979 0.931 . S
C1966 O1969 1.256 . S
C1966 O1970 1.255 . S
O1967 Co1950 2.021 . S
O1967 C1960 1.259 . S
O1968 Co1952 2.117 . S
O1968 C1960 1.258 . S
O1969 Co1952 2.020 . S
O1969 C1966 1.256 . S
O1970 Co1950 2.062 . S
O1970 C1966 1.255 . S
O1971 C1951 1.259 . S
O1971 Co1952 2.021 . S
H1972 C1963 0.930 . S
H1973 C1962 0.931 . S
O1974 Co1950 2.117 . S
O1974 C1951 1.258 . S
O1975 Co1950 2.020 . S
O1975 C1977 1.256 . S
O1976 Co1952 2.062 . S
O1976 C1977 1.255 . S
C1977 O1975 1.256 . S
C1977 O1976 1.255 . S
H1978 C1957 0.931 . S
H1979 C1965 0.931 . S
Co1980 N1985 2.057 . S
Co1980 O1997 2.021 . S
Co1980 O2000 2.062 . S
Co1980 O2004 2.117 . S
Co1980 O2005 2.020 . S
C1981 O2001 1.259 . S
C1981 O2004 1.258 . S
Co1982 N1991 2.057 . S
Co1982 O1998 2.117 . S
Co1982 O1999 2.020 . S
Co1982 O2001 2.021 . S
Co1982 O2006 2.062 . S
C1983 N1985 1.316 . S
C1983 N1986 1.347 . S
C1983 H1988 0.931 . S
C1984 N1985 1.375 . S
C1984 C1987 1.350 . S
C1984 H1989 0.930 . S
N1985 Co1980 2.057 . S
N1985 C1983 1.316 . S
N1985 C1984 1.375 . S
N1986 C1983 1.347 . S
N1986 C1987 1.373 . S
C1987 C1984 1.350 . S
C1987 N1986 1.373 . S
C1987 H2008 0.931 . S
H1988 C1983 0.931 . S
H1989 C1984 0.930 . S
C1990 O1997 1.259 . S
C1990 O1998 1.258 . S
N1991 Co1982 2.057 . S
N1991 C1992 1.316 . S
N1991 C1993 1.375 . S
C1992 N1991 1.316 . S
C1992 N1994 1.347 . S
C1992 H2003 0.931 . S
C1993 N1991 1.375 . S
C1993 C1995 1.350 . S
C1993 H2002 0.930 . S
N1994 C1992 1.347 . S
N1994 C1995 1.373 . S
C1995 C1993 1.350 . S
C1995 N1994 1.373 . S
C1995 H2009 0.931 . S
C1996 O1999 1.256 . S
C1996 O2000 1.255 . S
O1997 Co1980 2.021 . S
O1997 C1990 1.259 . S
O1998 Co1982 2.117 . S
O1998 C1990 1.258 . S
O1999 Co1982 2.020 . S
O1999 C1996 1.256 . S
O2000 Co1980 2.062 . S
O2000 C1996 1.255 . S
O2001 C1981 1.259 . S
O2001 Co1982 2.021 . S
H2002 C1993 0.930 . S
H2003 C1992 0.931 . S
O2004 Co1980 2.117 . S
O2004 C1981 1.258 . S
O2005 Co1980 2.020 . S
O2005 C2007 1.256 . S
O2006 Co1982 2.062 . S
O2006 C2007 1.255 . S
C2007 O2005 1.256 . S
C2007 O2006 1.255 . S
H2008 C1987 0.931 . S
H2009 C1995 0.931 . S
Co2010 N2015 2.057 . S
Co2010 O2027 2.021 . S
Co2010 O2030 2.062 . S
Co2010 O2034 2.117 . S
Co2010 O2035 2.020 . S
C2011 O2031 1.259 . S
C2011 O2034 1.258 . S
Co2012 N2021 2.057 . S
Co2012 O2028 2.117 . S
Co2012 O2029 2.020 . S
Co2012 O2031 2.021 . S
Co2012 O2036 2.062 . S
C2013 N2015 1.316 . S
C2013 N2016 1.347 . S
C2013 H2018 0.931 . S
C2014 N2015 1.375 . S
C2014 C2017 1.350 . S
C2014 H2019 0.930 . S
N2015 Co2010 2.057 . S
N2015 C2013 1.316 . S
N2015 C2014 1.375 . S
N2016 C2013 1.347 . S
N2016 C2017 1.373 . S
C2017 C2014 1.350 . S
C2017 N2016 1.373 . S
C2017 H2038 0.931 . S
H2018 C2013 0.931 . S
H2019 C2014 0.930 . S
C2020 O2027 1.259 . S
C2020 O2028 1.258 . S
N2021 Co2012 2.057 . S
N2021 C2022 1.316 . S
N2021 C2023 1.375 . S
C2022 N2021 1.316 . S
C2022 N2024 1.347 . S
C2022 H2033 0.931 . S
C2023 N2021 1.375 . S
C2023 C2025 1.350 . S
C2023 H2032 0.930 . S
N2024 C2022 1.347 . S
N2024 C2025 1.373 . S
C2025 C2023 1.350 . S
C2025 N2024 1.373 . S
C2025 H2039 0.931 . S
C2026 O2029 1.256 . S
C2026 O2030 1.255 . S
O2027 Co2010 2.021 . S
O2027 C2020 1.259 . S
O2028 Co2012 2.117 . S
O2028 C2020 1.258 . S
O2029 Co2012 2.020 . S
O2029 C2026 1.256 . S
O2030 Co2010 2.062 . S
O2030 C2026 1.255 . S
O2031 C2011 1.259 . S
O2031 Co2012 2.021 . S
H2032 C2023 0.930 . S
H2033 C2022 0.931 . S
O2034 Co2010 2.117 . S
O2034 C2011 1.258 . S
O2035 Co2010 2.020 . S
O2035 C2037 1.256 . S
O2036 Co2012 2.062 . S
O2036 C2037 1.255 . S
C2037 O2035 1.256 . S
C2037 O2036 1.255 . S
H2038 C2017 0.931 . S
H2039 C2025 0.931 . S
Co2040 N2045 2.057 . S
Co2040 O2057 2.021 . S
Co2040 O2060 2.062 . S
Co2040 O2064 2.117 . S
Co2040 O2065 2.020 . S
C2041 O2061 1.259 . S
C2041 O2064 1.258 . S
Co2042 N2051 2.057 . S
Co2042 O2058 2.117 . S
Co2042 O2059 2.020 . S
Co2042 O2061 2.021 . S
Co2042 O2066 2.062 . S
C2043 N2045 1.316 . S
C2043 N2046 1.347 . S
C2043 H2048 0.931 . S
C2044 N2045 1.375 . S
C2044 C2047 1.350 . S
C2044 H2049 0.930 . S
N2045 Co2040 2.057 . S
N2045 C2043 1.316 . S
N2045 C2044 1.375 . S
N2046 C2043 1.347 . S
N2046 C2047 1.373 . S
C2047 C2044 1.350 . S
C2047 N2046 1.373 . S
C2047 H2068 0.931 . S
H2048 C2043 0.931 . S
H2049 C2044 0.930 . S
C2050 O2057 1.259 . S
C2050 O2058 1.258 . S
N2051 Co2042 2.057 . S
N2051 C2052 1.316 . S
N2051 C2053 1.375 . S
C2052 N2051 1.316 . S
C2052 N2054 1.347 . S
C2052 H2063 0.931 . S
C2053 N2051 1.375 . S
C2053 C2055 1.350 . S
C2053 H2062 0.930 . S
N2054 C2052 1.347 . S
N2054 C2055 1.373 . S
C2055 C2053 1.350 . S
C2055 N2054 1.373 . S
C2055 H2069 0.931 . S
C2056 O2059 1.256 . S
C2056 O2060 1.255 . S
O2057 Co2040 2.021 . S
O2057 C2050 1.259 . S
O2058 Co2042 2.117 . S
O2058 C2050 1.258 . S
O2059 Co2042 2.020 . S
O2059 C2056 1.256 . S
O2060 Co2040 2.062 . S
O2060 C2056 1.255 . S
O2061 C2041 1.259 . S
O2061 Co2042 2.021 . S
H2062 C2053 0.930 . S
H2063 C2052 0.931 . S
O2064 Co2040 2.117 . S
O2064 C2041 1.258 . S
O2065 Co2040 2.020 . S
O2065 C2067 1.256 . S
O2066 Co2042 2.062 . S
O2066 C2067 1.255 . S
C2067 O2065 1.256 . S
C2067 O2066 1.255 . S
H2068 C2047 0.931 . S
H2069 C2055 0.931 . S
Co2070 N2075 2.058 . S
Co2070 O2087 2.024 . S
Co2070 O2090 2.067 . S
Co2070 O2094 2.113 1_556 S
Co2070 O2095 2.014 1_556 S
C2071 O2091 1.259 . S
C2071 O2094 1.258 . S
Co2072 N2081 2.057 . S
Co2072 O2088 2.117 1_554 S
Co2072 O2089 2.020 1_554 S
Co2072 O2091 2.021 . S
Co2072 O2096 2.062 . S
C2073 N2075 1.316 . S
C2073 N2076 1.347 . S
C2073 H2078 0.931 . S
C2074 N2075 1.366 1_554 S
C2074 C2077 1.338 1_554 S
C2074 H2079 0.948 . S
N2075 Co2070 2.058 . S
N2075 C2073 1.316 . S
N2075 C2074 1.366 1_556 S
N2076 C2073 1.347 . S
N2076 C2077 1.373 . S
C2077 C2074 1.338 1_556 S
C2077 N2076 1.373 . S
C2077 H2098 0.931 . S
H2078 C2073 0.931 . S
H2079 C2074 0.948 . S
C2080 O2087 1.259 . S
C2080 O2088 1.258 . S
N2081 Co2072 2.057 . S
N2081 C2082 1.316 . S
N2081 C2083 1.375 . S
C2082 N2081 1.316 . S
C2082 N2084 1.347 . S
C2082 H2093 0.931 . S
C2083 N2081 1.375 . S
C2083 C2085 1.350 . S
C2083 H2092 0.929 . S
N2084 C2082 1.347 . S
N2084 C2085 1.373 . S
C2085 C2083 1.350 . S
C2085 N2084 1.373 . S
C2085 H2099 0.931 . S
C2086 O2089 1.256 . S
C2086 O2090 1.255 . S
O2087 Co2070 2.024 . S
O2087 C2080 1.259 . S
O2088 Co2072 2.117 1_556 S
O2088 C2080 1.258 . S
O2089 Co2072 2.020 1_556 S
O2089 C2086 1.256 . S
O2090 Co2070 2.067 . S
O2090 C2086 1.255 . S
O2091 C2071 1.259 . S
O2091 Co2072 2.021 . S
H2092 C2083 0.929 . S
H2093 C2082 0.931 . S
O2094 Co2070 2.113 1_554 S
O2094 C2071 1.258 . S
O2095 Co2070 2.014 1_554 S
O2095 C2097 1.256 . S
O2096 Co2072 2.062 . S
O2096 C2097 1.255 . S
C2097 O2095 1.256 . S
C2097 O2096 1.255 . S
H2098 C2077 0.931 . S
H2099 C2085 0.931 . S
Co2100 N2105 2.057 . S
Co2100 O2117 2.021 . S
Co2100 O2120 2.062 . S
Co2100 O2124 2.117 . S
Co2100 O2125 2.020 . S
C2101 O2121 1.259 . S
C2101 O2124 1.258 . S
Co2102 N2111 2.057 . S
Co2102 O2118 2.117 . S
Co2102 O2119 2.020 . S
Co2102 O2121 2.021 . S
Co2102 O2126 2.062 . S
C2103 N2105 1.316 . S
C2103 N2106 1.347 . S
C2103 H2108 0.931 . S
C2104 N2105 1.375 . S
C2104 C2107 1.350 . S
C2104 H2109 0.930 . S
N2105 Co2100 2.057 . S
N2105 C2103 1.316 . S
N2105 C2104 1.375 . S
N2106 C2103 1.347 . S
N2106 C2107 1.373 . S
C2107 C2104 1.350 . S
C2107 N2106 1.373 . S
C2107 H2128 0.931 . S
H2108 C2103 0.931 . S
H2109 C2104 0.930 . S
C2110 O2117 1.259 . S
C2110 O2118 1.258 . S
N2111 Co2102 2.057 . S
N2111 C2112 1.316 . S
N2111 C2113 1.375 . S
C2112 N2111 1.316 . S
C2112 N2114 1.347 . S
C2112 H2123 0.931 . S
C2113 N2111 1.375 . S
C2113 C2115 1.350 . S
C2113 H2122 0.930 . S
N2114 C2112 1.347 . S
N2114 C2115 1.373 . S
C2115 C2113 1.350 . S
C2115 N2114 1.373 . S
C2115 H2129 0.931 . S
C2116 O2119 1.256 . S
C2116 O2120 1.255 . S
O2117 Co2100 2.021 . S
O2117 C2110 1.259 . S
O2118 Co2102 2.117 . S
O2118 C2110 1.258 . S
O2119 Co2102 2.020 . S
O2119 C2116 1.256 . S
O2120 Co2100 2.062 . S
O2120 C2116 1.255 . S
O2121 C2101 1.259 . S
O2121 Co2102 2.021 . S
H2122 C2113 0.930 . S
H2123 C2112 0.931 . S
O2124 Co2100 2.117 . S
O2124 C2101 1.258 . S
O2125 Co2100 2.020 . S
O2125 C2127 1.256 . S
O2126 Co2102 2.062 . S
O2126 C2127 1.255 . S
C2127 O2125 1.256 . S
C2127 O2126 1.255 . S
H2128 C2107 0.931 . S
H2129 C2115 0.931 . S
Co2130 N2135 2.057 . S
Co2130 O2147 2.021 . S
Co2130 O2150 2.062 . S
Co2130 O2154 2.117 . S
Co2130 O2155 2.020 . S
C2131 O2151 1.259 . S
C2131 O2154 1.258 . S
Co2132 N2141 2.057 . S
Co2132 O2148 2.117 . S
Co2132 O2149 2.020 . S
Co2132 O2151 2.021 . S
Co2132 O2156 2.062 . S
C2133 N2135 1.316 1_455 S
C2133 N2136 1.347 . S
C2133 H2138 0.931 1_455 S
C2134 N2135 1.375 1_455 S
C2134 C2137 1.350 . S
C2134 H2139 0.930 1_455 S
N2135 Co2130 2.057 . S
N2135 C2133 1.316 1_655 S
N2135 C2134 1.375 1_655 S
N2136 C2133 1.347 . S
N2136 C2137 1.373 . S
C2137 C2134 1.350 . S
C2137 N2136 1.373 . S
C2137 H2158 0.931 . S
H2138 C2133 0.931 1_655 S
H2139 C2134 0.930 1_655 S
C2140 O2147 1.259 . S
C2140 O2148 1.258 . S
N2141 Co2132 2.057 . S
N2141 C2142 1.316 . S
N2141 C2143 1.375 . S
C2142 N2141 1.316 . S
C2142 N2144 1.347 . S
C2142 H2153 0.931 . S
C2143 N2141 1.375 . S
C2143 C2145 1.350 . S
C2143 H2152 0.930 . S
N2144 C2142 1.347 . S
N2144 C2145 1.373 . S
C2145 C2143 1.350 . S
C2145 N2144 1.373 . S
C2145 H2159 0.931 . S
C2146 O2149 1.256 . S
C2146 O2150 1.255 . S
O2147 Co2130 2.021 . S
O2147 C2140 1.259 . S
O2148 Co2132 2.117 . S
O2148 C2140 1.258 . S
O2149 Co2132 2.020 . S
O2149 C2146 1.256 . S
O2150 Co2130 2.062 . S
O2150 C2146 1.255 . S
O2151 C2131 1.259 . S
O2151 Co2132 2.021 . S
H2152 C2143 0.930 . S
H2153 C2142 0.931 . S
O2154 Co2130 2.117 . S
O2154 C2131 1.258 . S
O2155 Co2130 2.020 . S
O2155 C2157 1.256 . S
O2156 Co2132 2.062 . S
O2156 C2157 1.255 . S
C2157 O2155 1.256 . S
C2157 O2156 1.255 . S
H2158 C2137 0.931 . S
H2159 C2145 0.931 . S
Co2160 N2165 2.057 . S
Co2160 O2177 2.021 . S
Co2160 O2180 2.062 . S
Co2160 O2184 2.117 . S
Co2160 O2185 2.020 . S
C2161 O2181 1.259 . S
C2161 O2184 1.258 . S
Co2162 N2171 2.057 . S
Co2162 O2178 2.117 . S
Co2162 O2179 2.020 . S
Co2162 O2181 2.021 . S
Co2162 O2186 2.062 . S
C2163 N2165 1.316 . S
C2163 N2166 1.347 1_554 S
C2163 H2168 0.931 . S
C2164 N2165 1.375 . S
C2164 C2167 1.350 1_554 S
C2164 H2169 0.930 . S
N2165 Co2160 2.057 . S
N2165 C2163 1.316 . S
N2165 C2164 1.375 . S
N2166 C2163 1.347 1_556 S
N2166 C2167 1.373 . S
C2167 C2164 1.350 1_556 S
C2167 N2166 1.373 . S
C2167 H2188 0.931 . S
H2168 C2163 0.931 . S
H2169 C2164 0.930 . S
C2170 O2177 1.259 . S
C2170 O2178 1.258 . S
N2171 Co2162 2.057 . S
N2171 C2172 1.316 . S
N2171 C2173 1.375 . S
C2172 N2171 1.316 . S
C2172 N2174 1.347 . S
C2172 H2183 0.931 . S
C2173 N2171 1.375 . S
C2173 C2175 1.350 . S
C2173 H2182 0.930 . S
N2174 C2172 1.347 . S
N2174 C2175 1.373 . S
C2175 C2173 1.350 . S
C2175 N2174 1.373 . S
C2175 H2189 0.931 . S
C2176 O2179 1.256 . S
C2176 O2180 1.255 . S
O2177 Co2160 2.021 . S
O2177 C2170 1.259 . S
O2178 Co2162 2.117 . S
O2178 C2170 1.258 . S
O2179 Co2162 2.020 . S
O2179 C2176 1.256 . S
O2180 Co2160 2.062 . S
O2180 C2176 1.255 . S
O2181 C2161 1.259 . S
O2181 Co2162 2.021 . S
H2182 C2173 0.930 . S
H2183 C2172 0.931 . S
O2184 Co2160 2.117 . S
O2184 C2161 1.258 . S
O2185 Co2160 2.020 . S
O2185 C2187 1.256 . S
O2186 Co2162 2.062 . S
O2186 C2187 1.255 . S
C2187 O2185 1.256 . S
C2187 O2186 1.255 . S
H2188 C2167 0.931 . S
H2189 C2175 0.931 . S
Co2190 N2195 2.057 . S
Co2190 O2207 2.021 . S
Co2190 O2210 2.062 . S
Co2190 O2214 2.117 . S
Co2190 O2215 2.020 . S
C2191 O2211 1.259 . S
C2191 O2214 1.258 . S
Co2192 N2201 2.057 . S
Co2192 O2208 2.117 . S
Co2192 O2209 2.020 . S
Co2192 O2211 2.021 . S
Co2192 O2216 2.062 . S
C2193 N2195 1.316 . S
C2193 N2196 1.347 . S
C2193 H2198 0.931 . S
C2194 N2195 1.375 . S
C2194 C2197 1.350 . S
C2194 H2199 0.930 . S
N2195 Co2190 2.057 . S
N2195 C2193 1.316 . S
N2195 C2194 1.375 . S
N2196 C2193 1.347 . S
N2196 C2197 1.373 . S
C2197 C2194 1.350 . S
C2197 N2196 1.373 . S
C2197 H2218 0.931 . S
H2198 C2193 0.931 . S
H2199 C2194 0.930 . S
C2200 O2207 1.259 . S
C2200 O2208 1.258 . S
N2201 Co2192 2.057 . S
N2201 C2202 1.316 . S
N2201 C2203 1.375 . S
C2202 N2201 1.316 . S
C2202 N2204 1.347 1_556 S
C2202 H2213 0.931 . S
C2203 N2201 1.375 . S
C2203 C2205 1.350 1_556 S
C2203 H2212 0.930 . S
N2204 C2202 1.347 1_554 S
N2204 C2205 1.373 . S
C2205 C2203 1.350 1_554 S
C2205 N2204 1.373 . S
C2205 H2219 0.931 . S
C2206 O2209 1.256 . S
C2206 O2210 1.255 . S
O2207 Co2190 2.021 . S
O2207 C2200 1.259 . S
O2208 Co2192 2.117 . S
O2208 C2200 1.258 . S
O2209 Co2192 2.020 . S
O2209 C2206 1.256 . S
O2210 Co2190 2.062 . S
O2210 C2206 1.255 . S
O2211 C2191 1.259 . S
O2211 Co2192 2.021 . S
H2212 C2203 0.930 . S
H2213 C2202 0.931 . S
O2214 Co2190 2.117 . S
O2214 C2191 1.258 . S
O2215 Co2190 2.020 . S
O2215 C2217 1.256 . S
O2216 Co2192 2.062 . S
O2216 C2217 1.255 . S
C2217 O2215 1.256 . S
C2217 O2216 1.255 . S
H2218 C2197 0.931 . S
H2219 C2205 0.931 . S
Co2220 N2225 2.057 . S
Co2220 O2237 2.021 . S
Co2220 O2240 2.062 . S
Co2220 O2244 2.117 . S
Co2220 O2245 2.034 . S
C2221 O2241 1.259 . S
C2221 O2244 1.258 . S
Co2222 N2231 2.057 . S
Co2222 O2238 2.117 . S
Co2222 O2239 2.020 . S
Co2222 O2241 2.021 . S
Co2222 O2246 2.062 1_455 S
C2223 N2225 1.316 . S
C2223 N2226 1.347 . S
C2223 H2228 0.931 . S
C2224 N2225 1.375 . S
C2224 C2227 1.350 . S
C2224 H2229 0.930 . S
N2225 Co2220 2.057 . S
N2225 C2223 1.316 . S
N2225 C2224 1.375 . S
N2226 C2223 1.347 . S
N2226 C2227 1.373 . S
C2227 C2224 1.350 . S
C2227 N2226 1.373 . S
C2227 H2248 0.931 . S
H2228 C2223 0.931 . S
H2229 C2224 0.930 . S
C2230 O2237 1.259 . S
C2230 O2238 1.258 . S
N2231 Co2222 2.057 . S
N2231 C2232 1.316 . S
N2231 C2233 1.375 . S
C2232 N2231 1.316 . S
C2232 N2234 1.347 . S
C2232 H2243 0.931 . S
C2233 N2231 1.375 . S
C2233 C2235 1.350 . S
C2233 H2242 0.930 . S
N2234 C2232 1.347 . S
N2234 C2235 1.373 . S
C2235 C2233 1.350 . S
C2235 N2234 1.373 . S
C2235 H2249 0.931 . S
C2236 O2239 1.256 . S
C2236 O2240 1.255 . S
O2237 Co2220 2.021 . S
O2237 C2230 1.259 . S
O2238 Co2222 2.117 . S
O2238 C2230 1.258 . S
O2239 Co2222 2.020 . S
O2239 C2236 1.256 . S
O2240 Co2220 2.062 . S
O2240 C2236 1.255 . S
O2241 C2221 1.259 . S
O2241 Co2222 2.021 . S
H2242 C2233 0.930 . S
H2243 C2232 0.931 . S
O2244 Co2220 2.117 . S
O2244 C2221 1.258 . S
O2245 Co2220 2.034 . S
O2245 C2247 1.247 1_455 S
O2246 Co2222 2.062 1_655 S
O2246 C2247 1.255 . S
C2247 O2245 1.247 1_655 S
C2247 O2246 1.255 . S
H2248 C2227 0.931 . S
H2249 C2235 0.931 . S
Co2250 N2255 2.057 . S
Co2250 O2267 2.021 . S
Co2250 O2270 2.062 . S
Co2250 O2274 2.117 . S
Co2250 O2275 2.020 . S
C2251 O2271 1.259 . S
C2251 O2274 1.258 . S
Co2252 N2261 2.057 . S
Co2252 O2268 2.117 . S
Co2252 O2269 2.020 . S
Co2252 O2271 2.021 . S
Co2252 O2276 2.062 . S
C2253 N2255 1.316 . S
C2253 N2256 1.347 . S
C2253 H2258 0.931 . S
C2254 N2255 1.375 . S
C2254 C2257 1.350 . S
C2254 H2259 0.930 . S
N2255 Co2250 2.057 . S
N2255 C2253 1.316 . S
N2255 C2254 1.375 . S
N2256 C2253 1.347 . S
N2256 C2257 1.373 . S
C2257 C2254 1.350 . S
C2257 N2256 1.373 . S
C2257 H2278 0.931 . S
H2258 C2253 0.931 . S
H2259 C2254 0.930 . S
C2260 O2267 1.259 . S
C2260 O2268 1.258 . S
N2261 Co2252 2.057 . S
N2261 C2262 1.316 . S
N2261 C2263 1.375 . S
C2262 N2261 1.316 . S
C2262 N2264 1.347 . S
C2262 H2273 0.931 . S
C2263 N2261 1.375 . S
C2263 C2265 1.350 . S
C2263 H2272 0.930 . S
N2264 C2262 1.347 . S
N2264 C2265 1.373 . S
C2265 C2263 1.350 . S
C2265 N2264 1.373 . S
C2265 H2279 0.931 . S
C2266 O2269 1.256 . S
C2266 O2270 1.255 . S
O2267 Co2250 2.021 . S
O2267 C2260 1.259 . S
O2268 Co2252 2.117 . S
O2268 C2260 1.258 . S
O2269 Co2252 2.020 . S
O2269 C2266 1.256 . S
O2270 Co2250 2.062 . S
O2270 C2266 1.255 . S
O2271 C2251 1.259 . S
O2271 Co2252 2.021 . S
H2272 C2263 0.930 . S
H2273 C2262 0.931 . S
O2274 Co2250 2.117 . S
O2274 C2251 1.258 . S
O2275 Co2250 2.020 . S
O2275 C2277 1.256 . S
O2276 Co2252 2.062 . S
O2276 C2277 1.255 . S
C2277 O2275 1.256 . S
C2277 O2276 1.255 . S
H2278 C2257 0.931 . S
H2279 C2265 0.931 . S
Co2280 N2285 2.057 . S
Co2280 O2297 2.021 . S
Co2280 O2300 2.062 . S
Co2280 O2304 2.117 . S
Co2280 O2305 2.020 . S
C2281 O2301 1.259 . S
C2281 O2304 1.258 . S
Co2282 N2291 2.057 . S
Co2282 O2298 2.117 . S
Co2282 O2299 2.020 . S
Co2282 O2301 2.021 . S
Co2282 O2306 2.062 . S
C2283 N2285 1.316 . S
C2283 N2286 1.347 . S
C2283 H2288 0.931 . S
C2284 N2285 1.375 . S
C2284 C2287 1.350 . S
C2284 H2289 0.930 . S
N2285 Co2280 2.057 . S
N2285 C2283 1.316 . S
N2285 C2284 1.375 . S
N2286 C2283 1.347 . S
N2286 C2287 1.373 . S
C2287 C2284 1.350 . S
C2287 N2286 1.373 . S
C2287 H2308 0.931 . S
H2288 C2283 0.931 . S
H2289 C2284 0.930 . S
C2290 O2297 1.259 . S
C2290 O2298 1.258 . S
N2291 Co2282 2.057 . S
N2291 C2292 1.316 . S
N2291 C2293 1.375 . S
C2292 N2291 1.316 . S
C2292 N2294 1.347 . S
C2292 H2303 0.931 . S
C2293 N2291 1.375 . S
C2293 C2295 1.350 . S
C2293 H2302 0.930 . S
N2294 C2292 1.347 . S
N2294 C2295 1.373 . S
C2295 C2293 1.350 . S
C2295 N2294 1.373 . S
C2295 H2309 0.931 . S
C2296 O2299 1.256 . S
C2296 O2300 1.255 . S
O2297 Co2280 2.021 . S
O2297 C2290 1.259 . S
O2298 Co2282 2.117 . S
O2298 C2290 1.258 . S
O2299 Co2282 2.020 . S
O2299 C2296 1.256 . S
O2300 Co2280 2.062 . S
O2300 C2296 1.255 . S
O2301 C2281 1.259 . S
O2301 Co2282 2.021 . S
H2302 C2293 0.930 . S
H2303 C2292 0.931 . S
O2304 Co2280 2.117 . S
O2304 C2281 1.258 . S
O2305 Co2280 2.020 . S
O2305 C2307 1.256 . S
O2306 Co2282 2.062 . S
O2306 C2307 1.255 . S
C2307 O2305 1.256 . S
C2307 O2306 1.255 . S
H2308 C2287 0.931 . S
H2309 C2295 0.931 . S
Co2310 N2315 2.057 . S
Co2310 O2327 2.021 . S
Co2310 O2330 2.062 . S
Co2310 O2334 2.117 . S
Co2310 O2335 2.020 . S
C2311 O2331 1.259 . S
C2311 O2334 1.258 . S
Co2312 N2321 2.057 . S
Co2312 O2328 2.117 . S
Co2312 O2329 2.020 . S
Co2312 O2331 2.021 . S
Co2312 O2336 2.062 . S
C2313 N2315 1.316 . S
C2313 N2316 1.347 . S
C2313 H2318 0.931 . S
C2314 N2315 1.375 . S
C2314 C2317 1.350 . S
C2314 H2319 0.930 . S
N2315 Co2310 2.057 . S
N2315 C2313 1.316 . S
N2315 C2314 1.375 . S
N2316 C2313 1.347 . S
N2316 C2317 1.373 . S
C2317 C2314 1.350 . S
C2317 N2316 1.373 . S
C2317 H2338 0.931 1_455 S
H2318 C2313 0.931 . S
H2319 C2314 0.930 . S
C2320 O2327 1.259 . S
C2320 O2328 1.258 . S
N2321 Co2312 2.057 . S
N2321 C2322 1.316 . S
N2321 C2323 1.375 . S
C2322 N2321 1.316 . S
C2322 N2324 1.347 . S
C2322 H2333 0.931 . S
C2323 N2321 1.375 . S
C2323 C2325 1.350 . S
C2323 H2332 0.930 . S
N2324 C2322 1.347 . S
N2324 C2325 1.373 . S
C2325 C2323 1.350 . S
C2325 N2324 1.373 . S
C2325 H2339 0.931 . S
C2326 O2329 1.256 . S
C2326 O2330 1.255 . S
O2327 Co2310 2.021 . S
O2327 C2320 1.259 . S
O2328 Co2312 2.117 . S
O2328 C2320 1.258 . S
O2329 Co2312 2.020 . S
O2329 C2326 1.256 . S
O2330 Co2310 2.062 . S
O2330 C2326 1.255 . S
O2331 C2311 1.259 . S
O2331 Co2312 2.021 . S
H2332 C2323 0.930 . S
H2333 C2322 0.931 . S
O2334 Co2310 2.117 . S
O2334 C2311 1.258 . S
O2335 Co2310 2.020 . S
O2335 C2337 1.256 . S
O2336 Co2312 2.062 . S
O2336 C2337 1.255 . S
C2337 O2335 1.256 . S
C2337 O2336 1.255 . S
H2338 C2317 0.931 1_655 S
H2339 C2325 0.931 . S
Co2340 N2345 2.057 . S
Co2340 O2357 2.021 . S
Co2340 O2360 2.062 . S
Co2340 O2364 2.117 . S
Co2340 O2365 2.020 . S
C2341 O2361 1.259 . S
C2341 O2364 1.258 . S
Co2342 N2351 2.057 . S
Co2342 O2358 2.117 . S
Co2342 O2359 2.020 . S
Co2342 O2361 2.021 . S
Co2342 O2366 2.062 . S
C2343 N2345 1.316 . S
C2343 N2346 1.347 1_455 S
C2343 H2348 0.932 . S
C2344 N2345 1.375 . S
C2344 C2347 1.350 . S
C2344 H2349 0.930 . S
N2345 Co2340 2.057 . S
N2345 C2343 1.316 . S
N2345 C2344 1.375 . S
N2346 C2343 1.347 1_655 S
N2346 C2347 1.373 1_655 S
C2347 C2344 1.350 . S
C2347 N2346 1.373 1_455 S
C2347 H2368 0.931 . S
H2348 C2343 0.932 . S
H2349 C2344 0.930 . S
C2350 O2357 1.259 . S
C2350 O2358 1.258 . S
N2351 Co2342 2.057 . S
N2351 C2352 1.316 . S
N2351 C2353 1.375 . S
C2352 N2351 1.316 . S
C2352 N2354 1.347 . S
C2352 H2363 0.931 . S
C2353 N2351 1.375 . S
C2353 C2355 1.350 . S
C2353 H2362 0.930 . S
N2354 C2352 1.347 . S
N2354 C2355 1.373 . S
C2355 C2353 1.350 . S
C2355 N2354 1.373 . S
C2355 H2369 0.931 . S
C2356 O2359 1.256 . S
C2356 O2360 1.255 . S
O2357 Co2340 2.021 . S
O2357 C2350 1.259 . S
O2358 Co2342 2.117 . S
O2358 C2350 1.258 . S
O2359 Co2342 2.020 . S
O2359 C2356 1.256 . S
O2360 Co2340 2.062 . S
O2360 C2356 1.255 . S
O2361 C2341 1.259 . S
O2361 Co2342 2.021 . S
H2362 C2353 0.930 . S
H2363 C2352 0.931 . S
O2364 Co2340 2.117 . S
O2364 C2341 1.258 . S
O2365 Co2340 2.020 . S
O2365 C2367 1.256 . S
O2366 Co2342 2.062 . S
O2366 C2367 1.255 . S
C2367 O2365 1.256 . S
C2367 O2366 1.255 . S
H2368 C2347 0.931 . S
H2369 C2355 0.931 . S
Co2370 N2375 2.057 . S
Co2370 O2387 2.021 . S
Co2370 O2390 2.062 . S
Co2370 O2394 2.117 . S
Co2370 O2395 2.020 . S
C2371 O2391 1.259 . S
C2371 O2394 1.258 . S
Co2372 N2381 2.057 . S
Co2372 O2388 2.117 . S
Co2372 O2389 2.020 . S
Co2372 O2391 2.021 . S
Co2372 O2396 2.062 . S
C2373 N2375 1.316 . S
C2373 N2376 1.347 . S
C2373 H2378 0.931 . S
C2374 N2375 1.375 . S
C2374 C2377 1.350 . S
C2374 H2379 0.930 . S
N2375 Co2370 2.057 . S
N2375 C2373 1.316 . S
N2375 C2374 1.375 . S
N2376 C2373 1.347 . S
N2376 C2377 1.373 . S
C2377 C2374 1.350 . S
C2377 N2376 1.373 . S
C2377 H2398 0.931 . S
H2378 C2373 0.931 . S
H2379 C2374 0.930 . S
C2380 O2387 1.259 . S
C2380 O2388 1.258 . S
N2381 Co2372 2.057 . S
N2381 C2382 1.316 . S
N2381 C2383 1.375 . S
C2382 N2381 1.316 . S
C2382 N2384 1.347 . S
C2382 H2393 0.931 . S
C2383 N2381 1.375 . S
C2383 C2385 1.350 . S
C2383 H2392 0.930 . S
N2384 C2382 1.347 . S
N2384 C2385 1.373 . S
C2385 C2383 1.350 . S
C2385 N2384 1.373 . S
C2385 H2399 0.931 . S
C2386 O2389 1.256 . S
C2386 O2390 1.255 . S
O2387 Co2370 2.021 . S
O2387 C2380 1.259 . S
O2388 Co2372 2.117 . S
O2388 C2380 1.258 . S
O2389 Co2372 2.020 . S
O2389 C2386 1.256 . S
O2390 Co2370 2.062 . S
O2390 C2386 1.255 . S
O2391 C2371 1.259 . S
O2391 Co2372 2.021 . S
H2392 C2383 0.930 . S
H2393 C2382 0.931 . S
O2394 Co2370 2.117 . S
O2394 C2371 1.258 . S
O2395 Co2370 2.020 . S
O2395 C2397 1.256 . S
O2396 Co2372 2.062 . S
O2396 C2397 1.255 . S
C2397 O2395 1.256 . S
C2397 O2396 1.255 . S
H2398 C2377 0.931 . S
H2399 C2385 0.931 . S
Co2400 N2405 2.057 . S
Co2400 O2417 2.021 . S
Co2400 O2420 2.062 . S
Co2400 O2424 2.117 . S
Co2400 O2425 2.020 . S
C2401 O2421 1.259 . S
C2401 O2424 1.258 . S
Co2402 N2411 2.057 . S
Co2402 O2418 2.117 . S
Co2402 O2419 2.020 . S
Co2402 O2421 2.021 . S
Co2402 O2426 2.062 . S
C2403 N2405 1.316 . S
C2403 N2406 1.347 . S
C2403 H2408 0.931 . S
C2404 N2405 1.375 . S
C2404 C2407 1.350 . S
C2404 H2409 0.930 . S
N2405 Co2400 2.057 . S
N2405 C2403 1.316 . S
N2405 C2404 1.375 . S
N2406 C2403 1.347 . S
N2406 C2407 1.373 . S
C2407 C2404 1.350 . S
C2407 N2406 1.373 . S
C2407 H2428 0.931 . S
H2408 C2403 0.931 . S
H2409 C2404 0.930 . S
C2410 O2417 1.259 . S
C2410 O2418 1.258 . S
N2411 Co2402 2.057 . S
N2411 C2412 1.316 . S
N2411 C2413 1.375 . S
C2412 N2411 1.316 . S
C2412 N2414 1.347 . S
C2412 H2423 0.931 . S
C2413 N2411 1.375 . S
C2413 C2415 1.350 . S
C2413 H2422 0.930 . S
N2414 C2412 1.347 . S
N2414 C2415 1.373 . S
C2415 C2413 1.350 . S
C2415 N2414 1.373 . S
C2415 H2429 0.931 1_455 S
C2416 O2419 1.256 . S
C2416 O2420 1.255 . S
O2417 Co2400 2.021 . S
O2417 C2410 1.259 . S
O2418 Co2402 2.117 . S
O2418 C2410 1.258 . S
O2419 Co2402 2.020 . S
O2419 C2416 1.256 . S
O2420 Co2400 2.062 . S
O2420 C2416 1.255 . S
O2421 C2401 1.259 . S
O2421 Co2402 2.021 . S
H2422 C2413 0.930 . S
H2423 C2412 0.931 . S
O2424 Co2400 2.117 . S
O2424 C2401 1.258 . S
O2425 Co2400 2.020 . S
O2425 C2427 1.256 . S
O2426 Co2402 2.062 . S
O2426 C2427 1.255 . S
C2427 O2425 1.256 . S
C2427 O2426 1.255 . S
H2428 C2407 0.931 . S
H2429 C2415 0.931 1_655 S
Co2430 N2435 2.057 . S
Co2430 O2447 2.021 . S
Co2430 O2450 2.062 . S
Co2430 O2454 2.117 . S
Co2430 O2455 2.020 . S
C2431 O2451 1.259 . S
C2431 O2454 1.258 . S
Co2432 N2441 2.057 . S
Co2432 O2448 2.117 . S
Co2432 O2449 2.020 . S
Co2432 O2451 2.021 . S
Co2432 O2456 2.062 . S
C2433 N2435 1.316 . S
C2433 N2436 1.347 . S
C2433 H2438 0.931 . S
C2434 N2435 1.375 . S
C2434 C2437 1.350 . S
C2434 H2439 0.930 . S
N2435 Co2430 2.057 . S
N2435 C2433 1.316 . S
N2435 C2434 1.375 . S
N2436 C2433 1.347 . S
N2436 C2437 1.373 . S
C2437 C2434 1.350 . S
C2437 N2436 1.373 . S
C2437 H2458 0.931 . S
H2438 C2433 0.931 . S
H2439 C2434 0.930 . S
C2440 O2447 1.259 . S
C2440 O2448 1.258 . S
N2441 Co2432 2.057 . S
N2441 C2442 1.316 . S
N2441 C2443 1.375 . S
C2442 N2441 1.316 . S
C2442 N2444 1.347 1_554 S
C2442 H2453 0.931 . S
C2443 N2441 1.375 . S
C2443 C2445 1.350 1_554 S
C2443 H2452 0.930 . S
N2444 C2442 1.347 1_556 S
N2444 C2445 1.373 . S
C2445 C2443 1.350 1_556 S
C2445 N2444 1.373 . S
C2445 H2459 0.931 . S
C2446 O2449 1.256 . S
C2446 O2450 1.255 . S
O2447 Co2430 2.021 . S
O2447 C2440 1.259 . S
O2448 Co2432 2.117 . S
O2448 C2440 1.258 . S
O2449 Co2432 2.020 . S
O2449 C2446 1.256 . S
O2450 Co2430 2.062 . S
O2450 C2446 1.255 . S
O2451 C2431 1.259 . S
O2451 Co2432 2.021 . S
H2452 C2443 0.930 . S
H2453 C2442 0.931 . S
O2454 Co2430 2.117 . S
O2454 C2431 1.258 . S
O2455 Co2430 2.020 . S
O2455 C2457 1.256 . S
O2456 Co2432 2.062 . S
O2456 C2457 1.255 . S
C2457 O2455 1.256 . S
C2457 O2456 1.255 . S
H2458 C2437 0.931 . S
H2459 C2445 0.931 . S
Co2460 N2465 2.057 . S
Co2460 O2477 2.021 . S
Co2460 O2480 2.062 . S
Co2460 O2484 2.117 . S
Co2460 O2485 2.020 . S
C2461 O2481 1.259 . S
C2461 O2484 1.258 . S
Co2462 N2471 2.057 . S
Co2462 O2478 2.117 . S
Co2462 O2479 2.020 . S
Co2462 O2481 2.021 . S
Co2462 O2486 2.062 . S
C2463 N2465 1.316 . S
C2463 N2466 1.347 . S
C2463 H2468 0.931 . S
C2464 N2465 1.375 . S
C2464 C2467 1.350 . S
C2464 H2469 0.930 . S
N2465 Co2460 2.057 . S
N2465 C2463 1.316 . S
N2465 C2464 1.375 . S
N2466 C2463 1.347 . S
N2466 C2467 1.373 . S
C2467 C2464 1.350 . S
C2467 N2466 1.373 . S
C2467 H2488 0.931 . S
H2468 C2463 0.931 . S
H2469 C2464 0.930 . S
C2470 O2477 1.259 . S
C2470 O2478 1.258 . S
N2471 Co2462 2.057 . S
N2471 C2472 1.316 . S
N2471 C2473 1.375 . S
C2472 N2471 1.316 . S
C2472 N2474 1.347 . S
C2472 H2483 0.931 . S
C2473 N2471 1.375 . S
C2473 C2475 1.350 . S
C2473 H2482 0.930 . S
N2474 C2472 1.347 . S
N2474 C2475 1.373 . S
C2475 C2473 1.350 . S
C2475 N2474 1.373 . S
C2475 H2489 0.931 . S
C2476 O2479 1.256 . S
C2476 O2480 1.255 . S
O2477 Co2460 2.021 . S
O2477 C2470 1.259 . S
O2478 Co2462 2.117 . S
O2478 C2470 1.258 . S
O2479 Co2462 2.020 . S
O2479 C2476 1.256 . S
O2480 Co2460 2.062 . S
O2480 C2476 1.255 . S
O2481 C2461 1.259 . S
O2481 Co2462 2.021 . S
H2482 C2473 0.930 . S
H2483 C2472 0.931 . S
O2484 Co2460 2.117 . S
O2484 C2461 1.258 . S
O2485 Co2460 2.020 . S
O2485 C2487 1.256 . S
O2486 Co2462 2.062 . S
O2486 C2487 1.255 . S
C2487 O2485 1.256 . S
C2487 O2486 1.255 . S
H2488 C2467 0.931 . S
H2489 C2475 0.931 . S
Co2490 N2495 2.057 . S
Co2490 O2507 2.021 . S
Co2490 O2510 2.062 . S
Co2490 O2514 2.117 . S
Co2490 O2515 2.020 . S
C2491 O2511 1.259 . S
C2491 O2514 1.258 . S
Co2492 N2501 2.057 . S
Co2492 O2508 2.117 . S
Co2492 O2509 2.020 . S
Co2492 O2511 2.021 . S
Co2492 O2516 2.062 . S
C2493 N2495 1.316 . S
C2493 N2496 1.347 . S
C2493 H2498 0.931 . S
C2494 N2495 1.375 . S
C2494 C2497 1.350 . S
C2494 H2499 0.930 . S
N2495 Co2490 2.057 . S
N2495 C2493 1.316 . S
N2495 C2494 1.375 . S
N2496 C2493 1.347 . S
N2496 C2497 1.373 . S
C2497 C2494 1.350 . S
C2497 N2496 1.373 . S
C2497 H2518 0.931 . S
H2498 C2493 0.931 . S
H2499 C2494 0.930 . S
C2500 O2507 1.259 . S
C2500 O2508 1.258 . S
N2501 Co2492 2.057 . S
N2501 C2502 1.316 . S
N2501 C2503 1.375 . S
C2502 N2501 1.316 . S
C2502 N2504 1.347 . S
C2502 H2513 0.931 . S
C2503 N2501 1.375 . S
C2503 C2505 1.350 . S
C2503 H2512 0.930 . S
N2504 C2502 1.347 . S
N2504 C2505 1.373 . S
C2505 C2503 1.350 . S
C2505 N2504 1.373 . S
C2505 H2519 0.931 . S
C2506 O2509 1.256 . S
C2506 O2510 1.255 . S
O2507 Co2490 2.021 . S
O2507 C2500 1.259 . S
O2508 Co2492 2.117 . S
O2508 C2500 1.258 . S
O2509 Co2492 2.020 . S
O2509 C2506 1.256 . S
O2510 Co2490 2.062 . S
O2510 C2506 1.255 . S
O2511 C2491 1.259 . S
O2511 Co2492 2.021 . S
H2512 C2503 0.930 . S
H2513 C2502 0.931 . S
O2514 Co2490 2.117 . S
O2514 C2491 1.258 . S
O2515 Co2490 2.020 . S
O2515 C2517 1.256 . S
O2516 Co2492 2.062 . S
O2516 C2517 1.255 . S
C2517 O2515 1.256 . S
C2517 O2516 1.255 . S
H2518 C2497 0.931 . S
H2519 C2505 0.931 . S
Co2520 N2525 2.057 . S
Co2520 O2537 2.021 . S
Co2520 O2540 2.062 . S
Co2520 O2544 2.117 . S
Co2520 O2545 2.020 . S
C2521 O2541 1.259 . S
C2521 O2544 1.258 . S
Co2522 N2531 2.057 . S
Co2522 O2538 2.117 . S
Co2522 O2539 2.020 . S
Co2522 O2541 2.021 . S
Co2522 O2546 2.062 . S
C2523 N2525 1.316 . S
C2523 N2526 1.347 . S
C2523 H2528 0.931 . S
C2524 N2525 1.375 . S
C2524 C2527 1.350 . S
C2524 H2529 0.930 . S
N2525 Co2520 2.057 . S
N2525 C2523 1.316 . S
N2525 C2524 1.375 . S
N2526 C2523 1.347 . S
N2526 C2527 1.373 . S
C2527 C2524 1.350 . S
C2527 N2526 1.373 . S
C2527 H2548 0.931 . S
H2528 C2523 0.931 . S
H2529 C2524 0.930 . S
C2530 O2537 1.259 . S
C2530 O2538 1.258 . S
N2531 Co2522 2.057 . S
N2531 C2532 1.316 . S
N2531 C2533 1.375 . S
C2532 N2531 1.316 . S
C2532 N2534 1.347 . S
C2532 H2543 0.931 . S
C2533 N2531 1.375 . S
C2533 C2535 1.350 . S
C2533 H2542 0.930 . S
N2534 C2532 1.347 . S
N2534 C2535 1.373 . S
C2535 C2533 1.350 . S
C2535 N2534 1.373 . S
C2535 H2549 0.931 . S
C2536 O2539 1.256 . S
C2536 O2540 1.255 . S
O2537 Co2520 2.021 . S
O2537 C2530 1.259 . S
O2538 Co2522 2.117 . S
O2538 C2530 1.258 . S
O2539 Co2522 2.020 . S
O2539 C2536 1.256 . S
O2540 Co2520 2.062 . S
O2540 C2536 1.255 . S
O2541 C2521 1.259 . S
O2541 Co2522 2.021 . S
H2542 C2533 0.930 . S
H2543 C2532 0.931 . S
O2544 Co2520 2.117 . S
O2544 C2521 1.258 . S
O2545 Co2520 2.020 . S
O2545 C2547 1.256 . S
O2546 Co2522 2.062 . S
O2546 C2547 1.255 . S
C2547 O2545 1.256 . S
C2547 O2546 1.255 . S
H2548 C2527 0.931 . S
H2549 C2535 0.931 . S
Co2550 N2555 2.057 . S
Co2550 O2567 2.021 . S
Co2550 O2570 2.062 . S
Co2550 O2574 2.117 . S
Co2550 O2575 2.020 . S
C2551 O2571 1.259 . S
C2551 O2574 1.258 . S
Co2552 N2561 2.057 . S
Co2552 O2568 2.117 . S
Co2552 O2569 2.020 . S
Co2552 O2571 2.021 . S
Co2552 O2576 2.062 . S
C2553 N2555 1.316 . S
C2553 N2556 1.347 . S
C2553 H2558 0.931 . S
C2554 N2555 1.375 . S
C2554 C2557 1.350 . S
C2554 H2559 0.930 . S
N2555 Co2550 2.057 . S
N2555 C2553 1.316 . S
N2555 C2554 1.375 . S
N2556 C2553 1.347 . S
N2556 C2557 1.373 . S
C2557 C2554 1.350 . S
C2557 N2556 1.373 . S
C2557 H2578 0.931 . S
H2558 C2553 0.931 . S
H2559 C2554 0.930 . S
C2560 O2567 1.259 . S
C2560 O2568 1.258 . S
N2561 Co2552 2.057 . S
N2561 C2562 1.316 . S
N2561 C2563 1.375 . S
C2562 N2561 1.316 . S
C2562 N2564 1.347 . S
C2562 H2573 0.931 . S
C2563 N2561 1.375 . S
C2563 C2565 1.350 . S
C2563 H2572 0.930 . S
N2564 C2562 1.347 . S
N2564 C2565 1.373 . S
C2565 C2563 1.350 . S
C2565 N2564 1.373 . S
C2565 H2579 0.931 . S
C2566 O2569 1.256 . S
C2566 O2570 1.255 . S
O2567 Co2550 2.021 . S
O2567 C2560 1.259 . S
O2568 Co2552 2.117 . S
O2568 C2560 1.258 . S
O2569 Co2552 2.020 . S
O2569 C2566 1.256 . S
O2570 Co2550 2.062 . S
O2570 C2566 1.255 . S
O2571 C2551 1.259 . S
O2571 Co2552 2.021 . S
H2572 C2563 0.930 . S
H2573 C2562 0.931 . S
O2574 Co2550 2.117 . S
O2574 C2551 1.258 . S
O2575 Co2550 2.020 . S
O2575 C2577 1.256 . S
O2576 Co2552 2.062 . S
O2576 C2577 1.255 . S
C2577 O2575 1.256 . S
C2577 O2576 1.255 . S
H2578 C2557 0.931 . S
H2579 C2565 0.931 . S
Co2580 N2585 2.057 . S
Co2580 O2597 2.021 . S
Co2580 O2600 2.062 . S
Co2580 O2604 2.117 . S
Co2580 O2605 2.020 . S
C2581 O2601 1.259 . S
C2581 O2604 1.258 . S
Co2582 N2591 2.057 . S
Co2582 O2598 2.117 . S
Co2582 O2599 2.020 . S
Co2582 O2601 2.021 . S
Co2582 O2606 2.062 . S
C2583 N2585 1.316 . S
C2583 N2586 1.347 . S
C2583 H2588 0.931 . S
C2584 N2585 1.375 . S
C2584 C2587 1.350 . S
C2584 H2589 0.930 . S
N2585 Co2580 2.057 . S
N2585 C2583 1.316 . S
N2585 C2584 1.375 . S
N2586 C2583 1.347 . S
N2586 C2587 1.373 . S
C2587 C2584 1.350 . S
C2587 N2586 1.373 . S
C2587 H2608 0.931 . S
H2588 C2583 0.931 . S
H2589 C2584 0.930 . S
C2590 O2597 1.259 . S
C2590 O2598 1.258 . S
N2591 Co2582 2.057 . S
N2591 C2592 1.316 . S
N2591 C2593 1.375 . S
C2592 N2591 1.316 . S
C2592 N2594 1.347 . S
C2592 H2603 0.931 . S
C2593 N2591 1.375 . S
C2593 C2595 1.350 . S
C2593 H2602 0.930 . S
N2594 C2592 1.347 . S
N2594 C2595 1.373 . S
C2595 C2593 1.350 . S
C2595 N2594 1.373 . S
C2595 H2609 0.931 . S
C2596 O2599 1.256 . S
C2596 O2600 1.255 . S
O2597 Co2580 2.021 . S
O2597 C2590 1.259 . S
O2598 Co2582 2.117 . S
O2598 C2590 1.258 . S
O2599 Co2582 2.020 . S
O2599 C2596 1.256 . S
O2600 Co2580 2.062 . S
O2600 C2596 1.255 . S
O2601 C2581 1.259 . S
O2601 Co2582 2.021 . S
H2602 C2593 0.930 . S
H2603 C2592 0.931 . S
O2604 Co2580 2.117 . S
O2604 C2581 1.258 . S
O2605 Co2580 2.020 . S
O2605 C2607 1.256 . S
O2606 Co2582 2.062 . S
O2606 C2607 1.255 . S
C2607 O2605 1.256 . S
C2607 O2606 1.255 . S
H2608 C2587 0.931 . S
H2609 C2595 0.931 . S
Co2610 N2615 2.057 . S
Co2610 O2627 2.021 . S
Co2610 O2630 2.062 . S
Co2610 O2634 2.117 . S
Co2610 O2635 2.020 . S
C2611 O2631 1.259 . S
C2611 O2634 1.258 . S
Co2612 N2621 2.057 . S
Co2612 O2628 2.117 . S
Co2612 O2629 2.020 . S
Co2612 O2631 2.021 . S
Co2612 O2636 2.062 . S
C2613 N2615 1.316 . S
C2613 N2616 1.347 . S
C2613 H2618 0.931 . S
C2614 N2615 1.375 . S
C2614 C2617 1.350 . S
C2614 H2619 0.930 . S
N2615 Co2610 2.057 . S
N2615 C2613 1.316 . S
N2615 C2614 1.375 . S
N2616 C2613 1.347 . S
N2616 C2617 1.373 . S
C2617 C2614 1.350 . S
C2617 N2616 1.373 . S
C2617 H2638 0.931 . S
H2618 C2613 0.931 . S
H2619 C2614 0.930 . S
C2620 O2627 1.259 . S
C2620 O2628 1.258 . S
N2621 Co2612 2.057 . S
N2621 C2622 1.316 . S
N2621 C2623 1.375 . S
C2622 N2621 1.316 . S
C2622 N2624 1.347 . S
C2622 H2633 0.931 . S
C2623 N2621 1.375 . S
C2623 C2625 1.350 . S
C2623 H2632 0.930 . S
N2624 C2622 1.347 . S
N2624 C2625 1.373 . S
C2625 C2623 1.350 . S
C2625 N2624 1.373 . S
C2625 H2639 0.931 . S
C2626 O2629 1.256 . S
C2626 O2630 1.255 . S
O2627 Co2610 2.021 . S
O2627 C2620 1.259 . S
O2628 Co2612 2.117 . S
O2628 C2620 1.258 . S
O2629 Co2612 2.020 . S
O2629 C2626 1.256 . S
O2630 Co2610 2.062 . S
O2630 C2626 1.255 . S
O2631 C2611 1.259 . S
O2631 Co2612 2.021 . S
H2632 C2623 0.930 . S
H2633 C2622 0.931 . S
O2634 Co2610 2.117 . S
O2634 C2611 1.258 . S
O2635 Co2610 2.020 . S
O2635 C2637 1.256 . S
O2636 Co2612 2.062 . S
O2636 C2637 1.255 . S
C2637 O2635 1.256 . S
C2637 O2636 1.255 . S
H2638 C2617 0.931 . S
H2639 C2625 0.931 . S
Co2640 N2645 2.057 . S
Co2640 O2657 2.021 . S
Co2640 O2660 2.062 . S
Co2640 O2664 2.117 . S
Co2640 O2665 2.020 . S
C2641 O2661 1.259 . S
C2641 O2664 1.258 . S
Co2642 N2651 2.057 . S
Co2642 O2658 2.117 . S
Co2642 O2659 2.020 . S
Co2642 O2661 2.021 . S
Co2642 O2666 2.062 . S
C2643 N2645 1.316 . S
C2643 N2646 1.347 . S
C2643 H2648 0.931 . S
C2644 N2645 1.375 . S
C2644 C2647 1.350 . S
C2644 H2649 0.930 . S
N2645 Co2640 2.057 . S
N2645 C2643 1.316 . S
N2645 C2644 1.375 . S
N2646 C2643 1.347 . S
N2646 C2647 1.373 . S
C2647 C2644 1.350 . S
C2647 N2646 1.373 . S
C2647 H2668 0.931 1_545 S
H2648 C2643 0.931 . S
H2649 C2644 0.930 . S
C2650 O2657 1.259 . S
C2650 O2658 1.258 . S
N2651 Co2642 2.057 . S
N2651 C2652 1.316 . S
N2651 C2653 1.375 . S
C2652 N2651 1.316 . S
C2652 N2654 1.347 . S
C2652 H2663 0.931 . S
C2653 N2651 1.375 . S
C2653 C2655 1.350 . S
C2653 H2662 0.930 . S
N2654 C2652 1.347 . S
N2654 C2655 1.373 . S
C2655 C2653 1.350 . S
C2655 N2654 1.373 . S
C2655 H2669 0.931 . S
C2656 O2659 1.256 . S
C2656 O2660 1.255 . S
O2657 Co2640 2.021 . S
O2657 C2650 1.259 . S
O2658 Co2642 2.117 . S
O2658 C2650 1.258 . S
O2659 Co2642 2.020 . S
O2659 C2656 1.256 . S
O2660 Co2640 2.062 . S
O2660 C2656 1.255 . S
O2661 C2641 1.259 . S
O2661 Co2642 2.021 . S
H2662 C2653 0.930 . S
H2663 C2652 0.931 . S
O2664 Co2640 2.117 . S
O2664 C2641 1.258 . S
O2665 Co2640 2.020 . S
O2665 C2667 1.256 . S
O2666 Co2642 2.062 . S
O2666 C2667 1.255 . S
C2667 O2665 1.256 . S
C2667 O2666 1.255 . S
H2668 C2647 0.931 1_565 S
H2669 C2655 0.931 . S
Co2670 N2675 2.057 . S
Co2670 O2687 2.021 . S
Co2670 O2690 2.062 . S
Co2670 O2694 2.117 . S
Co2670 O2695 2.020 . S
C2671 O2691 1.259 . S
C2671 O2694 1.258 . S
Co2672 N2681 2.057 . S
Co2672 O2688 2.117 . S
Co2672 O2689 2.020 . S
Co2672 O2691 2.021 . S
Co2672 O2696 2.062 . S
C2673 N2675 1.316 . S
C2673 N2676 1.347 . S
C2673 H2678 0.931 . S
C2674 N2675 1.375 . S
C2674 C2677 1.350 . S
C2674 H2679 0.930 . S
N2675 Co2670 2.057 . S
N2675 C2673 1.316 . S
N2675 C2674 1.375 . S
N2676 C2673 1.347 . S
N2676 C2677 1.373 . S
C2677 C2674 1.350 . S
C2677 N2676 1.373 . S
C2677 H2698 0.931 . S
H2678 C2673 0.931 . S
H2679 C2674 0.930 . S
C2680 O2687 1.259 . S
C2680 O2688 1.258 . S
N2681 Co2672 2.057 . S
N2681 C2682 1.316 . S
N2681 C2683 1.375 . S
C2682 N2681 1.316 . S
C2682 N2684 1.347 . S
C2682 H2693 0.931 . S
C2683 N2681 1.375 . S
C2683 C2685 1.350 . S
C2683 H2692 0.930 . S
N2684 C2682 1.347 . S
N2684 C2685 1.373 . S
C2685 C2683 1.350 . S
C2685 N2684 1.373 . S
C2685 H2699 0.931 . S
C2686 O2689 1.256 . S
C2686 O2690 1.255 . S
O2687 Co2670 2.021 . S
O2687 C2680 1.259 . S
O2688 Co2672 2.117 . S
O2688 C2680 1.258 . S
O2689 Co2672 2.020 . S
O2689 C2686 1.256 . S
O2690 Co2670 2.062 . S
O2690 C2686 1.255 . S
O2691 C2671 1.259 . S
O2691 Co2672 2.021 . S
H2692 C2683 0.930 . S
H2693 C2682 0.931 . S
O2694 Co2670 2.117 . S
O2694 C2671 1.258 . S
O2695 Co2670 2.020 . S
O2695 C2697 1.256 . S
O2696 Co2672 2.062 . S
O2696 C2697 1.255 . S
C2697 O2695 1.256 . S
C2697 O2696 1.255 . S
H2698 C2677 0.931 . S
H2699 C2685 0.931 . S
Co2700 N2705 2.057 . S
Co2700 O2717 2.021 . S
Co2700 O2720 2.062 . S
Co2700 O2724 2.117 . S
Co2700 O2725 2.020 . S
C2701 O2721 1.259 . S
C2701 O2724 1.258 . S
Co2702 N2711 2.057 . S
Co2702 O2718 2.117 . S
Co2702 O2719 2.020 . S
Co2702 O2721 2.021 . S
Co2702 O2726 2.062 . S
C2703 N2705 1.316 . S
C2703 N2706 1.347 . S
C2703 H2708 0.931 . S
C2704 N2705 1.375 . S
C2704 C2707 1.350 . S
C2704 H2709 0.930 . S
N2705 Co2700 2.057 . S
N2705 C2703 1.316 . S
N2705 C2704 1.375 . S
N2706 C2703 1.347 . S
N2706 C2707 1.373 . S
C2707 C2704 1.350 . S
C2707 N2706 1.373 . S
C2707 H2728 0.931 . S
H2708 C2703 0.931 . S
H2709 C2704 0.930 . S
C2710 O2717 1.259 . S
C2710 O2718 1.258 . S
N2711 Co2702 2.057 . S
N2711 C2712 1.316 . S
N2711 C2713 1.375 . S
C2712 N2711 1.316 . S
C2712 N2714 1.347 . S
C2712 H2723 0.931 . S
C2713 N2711 1.375 . S
C2713 C2715 1.350 . S
C2713 H2722 0.930 . S
N2714 C2712 1.347 . S
N2714 C2715 1.373 . S
C2715 C2713 1.350 . S
C2715 N2714 1.373 . S
C2715 H2729 0.931 . S
C2716 O2719 1.256 . S
C2716 O2720 1.255 . S
O2717 Co2700 2.021 . S
O2717 C2710 1.259 . S
O2718 Co2702 2.117 . S
O2718 C2710 1.258 . S
O2719 Co2702 2.020 . S
O2719 C2716 1.256 . S
O2720 Co2700 2.062 . S
O2720 C2716 1.255 . S
O2721 C2701 1.259 . S
O2721 Co2702 2.021 . S
H2722 C2713 0.930 . S
H2723 C2712 0.931 . S
O2724 Co2700 2.117 . S
O2724 C2701 1.258 . S
O2725 Co2700 2.020 . S
O2725 C2727 1.256 . S
O2726 Co2702 2.062 . S
O2726 C2727 1.255 . S
C2727 O2725 1.256 . S
C2727 O2726 1.255 . S
H2728 C2707 0.931 . S
H2729 C2715 0.931 . S
Co2730 N2735 2.057 . S
Co2730 O2747 2.021 . S
Co2730 O2750 2.062 . S
Co2730 O2754 2.117 . S
Co2730 O2755 2.020 . S
C2731 O2751 1.259 . S
C2731 O2754 1.258 . S
Co2732 N2741 2.057 . S
Co2732 O2748 2.117 . S
Co2732 O2749 2.020 . S
Co2732 O2751 2.021 . S
Co2732 O2756 2.062 . S
C2733 N2735 1.316 . S
C2733 N2736 1.347 . S
C2733 H2738 0.931 . S
C2734 N2735 1.375 . S
C2734 C2737 1.350 . S
C2734 H2739 0.930 . S
N2735 Co2730 2.057 . S
N2735 C2733 1.316 . S
N2735 C2734 1.375 . S
N2736 C2733 1.347 . S
N2736 C2737 1.373 . S
C2737 C2734 1.350 . S
C2737 N2736 1.373 . S
C2737 H2758 0.931 . S
H2738 C2733 0.931 . S
H2739 C2734 0.930 . S
C2740 O2747 1.259 . S
C2740 O2748 1.258 . S
N2741 Co2732 2.057 . S
N2741 C2742 1.316 . S
N2741 C2743 1.375 . S
C2742 N2741 1.316 . S
C2742 N2744 1.347 . S
C2742 H2753 0.931 . S
C2743 N2741 1.375 . S
C2743 C2745 1.350 . S
C2743 H2752 0.930 . S
N2744 C2742 1.347 . S
N2744 C2745 1.373 . S
C2745 C2743 1.350 . S
C2745 N2744 1.373 . S
C2745 H2759 0.931 . S
C2746 O2749 1.256 . S
C2746 O2750 1.255 . S
O2747 Co2730 2.021 . S
O2747 C2740 1.259 . S
O2748 Co2732 2.117 . S
O2748 C2740 1.258 . S
O2749 Co2732 2.020 . S
O2749 C2746 1.256 . S
O2750 Co2730 2.062 . S
O2750 C2746 1.255 . S
O2751 C2731 1.259 . S
O2751 Co2732 2.021 . S
H2752 C2743 0.930 . S
H2753 C2742 0.931 . S
O2754 Co2730 2.117 . S
O2754 C2731 1.258 . S
O2755 Co2730 2.020 . S
O2755 C2757 1.256 . S
O2756 Co2732 2.062 . S
O2756 C2757 1.255 . S
C2757 O2755 1.256 . S
C2757 O2756 1.255 . S
H2758 C2737 0.931 . S
H2759 C2745 0.931 . S
Co2760 N2765 2.057 . S
Co2760 O2777 2.021 . S
Co2760 O2780 2.062 . S
Co2760 O2784 2.117 . S
Co2760 O2785 2.020 . S
C2761 O2781 1.259 . S
C2761 O2784 1.258 . S
Co2762 N2771 2.057 . S
Co2762 O2778 2.117 . S
Co2762 O2779 2.020 . S
Co2762 O2781 2.021 . S
Co2762 O2786 2.062 . S
C2763 N2765 1.316 . S
C2763 N2766 1.347 . S
C2763 H2768 0.931 . S
C2764 N2765 1.375 . S
C2764 C2767 1.350 . S
C2764 H2769 0.930 . S
N2765 Co2760 2.057 . S
N2765 C2763 1.316 . S
N2765 C2764 1.375 . S
N2766 C2763 1.347 . S
N2766 C2767 1.373 . S
C2767 C2764 1.350 . S
C2767 N2766 1.373 . S
C2767 H2788 0.931 . S
H2768 C2763 0.931 . S
H2769 C2764 0.930 . S
C2770 O2777 1.259 . S
C2770 O2778 1.258 . S
N2771 Co2762 2.057 . S
N2771 C2772 1.316 . S
N2771 C2773 1.375 . S
C2772 N2771 1.316 . S
C2772 N2774 1.347 . S
C2772 H2783 0.931 . S
C2773 N2771 1.375 . S
C2773 C2775 1.350 . S
C2773 H2782 0.930 . S
N2774 C2772 1.347 . S
N2774 C2775 1.373 . S
C2775 C2773 1.350 . S
C2775 N2774 1.373 . S
C2775 H2789 0.931 . S
C2776 O2779 1.256 . S
C2776 O2780 1.255 . S
O2777 Co2760 2.021 . S
O2777 C2770 1.259 . S
O2778 Co2762 2.117 . S
O2778 C2770 1.258 . S
O2779 Co2762 2.020 . S
O2779 C2776 1.256 . S
O2780 Co2760 2.062 . S
O2780 C2776 1.255 . S
O2781 C2761 1.259 . S
O2781 Co2762 2.021 . S
H2782 C2773 0.930 . S
H2783 C2772 0.931 . S
O2784 Co2760 2.117 . S
O2784 C2761 1.258 . S
O2785 Co2760 2.020 . S
O2785 C2787 1.256 . S
O2786 Co2762 2.062 . S
O2786 C2787 1.255 . S
C2787 O2785 1.256 . S
C2787 O2786 1.255 . S
H2788 C2767 0.931 . S
H2789 C2775 0.931 . S
Co2790 N2795 2.057 . S
Co2790 O2807 2.021 . S
Co2790 O2810 2.062 . S
Co2790 O2814 2.117 1_556 S
Co2790 O2815 2.020 1_556 S
C2791 O2811 1.259 . S
C2791 O2814 1.258 . S
Co2792 N2801 2.058 . S
Co2792 O2808 2.113 1_554 S
Co2792 O2809 2.014 1_554 S
Co2792 O2811 2.024 . S
Co2792 O2816 2.067 . S
C2793 N2795 1.316 . S
C2793 N2796 1.347 . S
C2793 H2798 0.931 . S
C2794 N2795 1.375 . S
C2794 C2797 1.350 . S
C2794 H2799 0.929 . S
N2795 Co2790 2.057 . S
N2795 C2793 1.316 . S
N2795 C2794 1.375 . S
N2796 C2793 1.347 . S
N2796 C2797 1.373 . S
C2797 C2794 1.350 . S
C2797 N2796 1.373 . S
C2797 H2818 0.931 . S
H2798 C2793 0.931 . S
H2799 C2794 0.929 . S
C2800 O2807 1.259 . S
C2800 O2808 1.258 . S
N2801 Co2792 2.058 . S
N2801 C2802 1.316 . S
N2801 C2803 1.366 1_554 S
C2802 N2801 1.316 . S
C2802 N2804 1.347 . S
C2802 H2813 0.931 . S
C2803 N2801 1.366 1_556 S
C2803 C2805 1.338 1_556 S
C2803 H2812 0.948 . S
N2804 C2802 1.347 . S
N2804 C2805 1.373 . S
C2805 C2803 1.338 1_554 S
C2805 N2804 1.373 . S
C2805 H2819 0.931 . S
C2806 O2809 1.256 . S
C2806 O2810 1.255 . S
O2807 Co2790 2.021 . S
O2807 C2800 1.259 . S
O2808 Co2792 2.113 1_556 S
O2808 C2800 1.258 . S
O2809 Co2792 2.014 1_556 S
O2809 C2806 1.256 . S
O2810 Co2790 2.062 . S
O2810 C2806 1.255 . S
O2811 C2791 1.259 . S
O2811 Co2792 2.024 . S
H2812 C2803 0.948 . S
H2813 C2802 0.931 . S
O2814 Co2790 2.117 1_554 S
O2814 C2791 1.258 . S
O2815 Co2790 2.020 1_554 S
O2815 C2817 1.256 . S
O2816 Co2792 2.067 . S
O2816 C2817 1.255 . S
C2817 O2815 1.256 . S
C2817 O2816 1.255 . S
H2818 C2797 0.931 . S
H2819 C2805 0.931 . S
Co2820 N2825 2.057 . S
Co2820 O2837 2.021 . S
Co2820 O2840 2.062 . S
Co2820 O2844 2.117 . S
Co2820 O2845 2.020 . S
C2821 O2841 1.259 . S
C2821 O2844 1.258 . S
Co2822 N2831 2.057 . S
Co2822 O2838 2.117 . S
Co2822 O2839 2.020 . S
Co2822 O2841 2.021 . S
Co2822 O2846 2.062 . S
C2823 N2825 1.316 . S
C2823 N2826 1.347 . S
C2823 H2828 0.931 . S
C2824 N2825 1.375 . S
C2824 C2827 1.350 . S
C2824 H2829 0.930 . S
N2825 Co2820 2.057 . S
N2825 C2823 1.316 . S
N2825 C2824 1.375 . S
N2826 C2823 1.347 . S
N2826 C2827 1.373 . S
C2827 C2824 1.350 . S
C2827 N2826 1.373 . S
C2827 H2848 0.931 . S
H2828 C2823 0.931 . S
H2829 C2824 0.930 . S
C2830 O2837 1.259 . S
C2830 O2838 1.258 . S
N2831 Co2822 2.057 . S
N2831 C2832 1.316 . S
N2831 C2833 1.375 . S
C2832 N2831 1.316 . S
C2832 N2834 1.347 . S
C2832 H2843 0.931 . S
C2833 N2831 1.375 . S
C2833 C2835 1.350 . S
C2833 H2842 0.930 . S
N2834 C2832 1.347 . S
N2834 C2835 1.373 . S
C2835 C2833 1.350 . S
C2835 N2834 1.373 . S
C2835 H2849 0.931 . S
C2836 O2839 1.256 . S
C2836 O2840 1.255 . S
O2837 Co2820 2.021 . S
O2837 C2830 1.259 . S
O2838 Co2822 2.117 . S
O2838 C2830 1.258 . S
O2839 Co2822 2.020 . S
O2839 C2836 1.256 . S
O2840 Co2820 2.062 . S
O2840 C2836 1.255 . S
O2841 C2821 1.259 . S
O2841 Co2822 2.021 . S
H2842 C2833 0.930 . S
H2843 C2832 0.931 . S
O2844 Co2820 2.117 . S
O2844 C2821 1.258 . S
O2845 Co2820 2.020 . S
O2845 C2847 1.256 . S
O2846 Co2822 2.062 . S
O2846 C2847 1.255 . S
C2847 O2845 1.256 . S
C2847 O2846 1.255 . S
H2848 C2827 0.931 . S
H2849 C2835 0.931 . S
Co2850 N2855 2.057 . S
Co2850 O2867 2.021 . S
Co2850 O2870 2.062 . S
Co2850 O2874 2.117 . S
Co2850 O2875 2.020 . S
C2851 O2871 1.259 . S
C2851 O2874 1.258 . S
Co2852 N2861 2.057 . S
Co2852 O2868 2.117 . S
Co2852 O2869 2.020 . S
Co2852 O2871 2.021 . S
Co2852 O2876 2.062 . S
C2853 N2855 1.316 . S
C2853 N2856 1.347 . S
C2853 H2858 0.931 . S
C2854 N2855 1.375 . S
C2854 C2857 1.350 . S
C2854 H2859 0.930 . S
N2855 Co2850 2.057 . S
N2855 C2853 1.316 . S
N2855 C2854 1.375 . S
N2856 C2853 1.347 . S
N2856 C2857 1.373 . S
C2857 C2854 1.350 . S
C2857 N2856 1.373 . S
C2857 H2878 0.931 . S
H2858 C2853 0.931 . S
H2859 C2854 0.930 . S
C2860 O2867 1.259 . S
C2860 O2868 1.258 . S
N2861 Co2852 2.057 . S
N2861 C2862 1.316 1_455 S
N2861 C2863 1.375 1_455 S
C2862 N2861 1.316 1_655 S
C2862 N2864 1.347 . S
C2862 H2873 0.931 1_655 S
C2863 N2861 1.375 1_655 S
C2863 C2865 1.350 . S
C2863 H2872 0.930 1_655 S
N2864 C2862 1.347 . S
N2864 C2865 1.373 . S
C2865 C2863 1.350 . S
C2865 N2864 1.373 . S
C2865 H2879 0.931 . S
C2866 O2869 1.256 . S
C2866 O2870 1.255 . S
O2867 Co2850 2.021 . S
O2867 C2860 1.259 . S
O2868 Co2852 2.117 . S
O2868 C2860 1.258 . S
O2869 Co2852 2.020 . S
O2869 C2866 1.256 . S
O2870 Co2850 2.062 . S
O2870 C2866 1.255 . S
O2871 C2851 1.259 . S
O2871 Co2852 2.021 . S
H2872 C2863 0.930 1_455 S
H2873 C2862 0.931 1_455 S
O2874 Co2850 2.117 . S
O2874 C2851 1.258 . S
O2875 Co2850 2.020 . S
O2875 C2877 1.256 . S
O2876 Co2852 2.062 . S
O2876 C2877 1.255 . S
C2877 O2875 1.256 . S
C2877 O2876 1.255 . S
H2878 C2857 0.931 . S
H2879 C2865 0.931 . S
C2277 C1 1.606 . S
C747 C31 2.165 1_655 S
C61 C2217 2.536 . S
C91 C807 2.522 . S
C130 N2316 1.807 . S
C916 C160 2.544 . S
N186 C2397 0.827 . S
C211 N846 1.093 . S
C267 C2727 2.016 . S
C1317 N276 1.892 . S
C1347 C301 2.755 . S
C1257 C331 2.140 1_554 S
C361 C2847 2.838 . S
C391 C2667 2.644 . S
C2877 N426 1.745 . S
C451 C2817 2.158 . S
C481 C2446 2.339 . S
C1197 C511 1.631 . S
C2547 C541 3.155 . S
C571 C1137 2.441 . S
C601 C1156 2.180 . S
C631 C2517 2.705 . S
C661 N2414 1.986 . S
C2487 C691 2.693 . S
C730 C1546 1.606 . S
C760 C16 2.165 1_655 S
C790 C1486 2.536 . S
C76 C820 2.522 . S
N1604 C841 1.807 . S
C871 C207 2.544 . S
C1666 N914 0.827 . S
C940 N134 1.093 . S
C976 C1996 2.016 . S
N1004 C586 1.892 . S
C1030 C616 2.755 . S
C526 C1060 2.140 1_556 S
C2116 C1090 2.838 . S
C1120 C1936 2.644 . S
N1154 C2146 1.745 . S
C2086 C1180 2.158 . S
C1210 C1737 2.339 . S
C1240 C466 1.631 . S
C1816 C1270 3.155 . S
C1300 C406 2.441 . S
C1330 C447 2.180 . S
C1786 C1360 2.705 . S
N1686 C1390 1.986 . S
C1756 C1420 2.693 . S
C1441 C837 1.607 . S
C2187 C1471 2.165 . S
C777 C1501 2.536 . S
C2247 C1531 2.522 . S
C1570 N876 1.807 . S
C1600 C2356 2.544 1_655 S
C957 N1626 0.827 . S
N2286 C1651 1.093 . S
C1287 C1707 2.016 . S
N1716 C2757 1.892 . S
C1741 C2787 2.755 . S
C2697 C1771 2.140 . S
C1407 C1801 2.838 . S
C1227 C1831 2.644 . S
C1437 N1866 1.745 . S
C1377 C1891 2.157 . S
C1006 C1921 2.339 . S
C2637 C1951 1.631 . S
C1981 C1107 3.155 . S
C2577 C2011 2.441 . S
C2596 C2041 2.180 . S
C2071 C1077 2.705 . S
C2101 N974 1.985 . S
C2131 C1047 2.693 1_565 S
C2170 C106 1.607 . S
C1456 C2200 2.165 . S
C2230 C46 2.536 . S
C2260 C1516 2.522 . S
C2281 N164 1.807 . S
C1647 C2311 2.544 1_655 S
C226 N2354 0.827 . S
C2380 N1574 1.093 . S
C556 C2416 2.016 . S
C2026 N2444 1.892 . S
C2470 C2056 2.755 . S
C2500 C1966 2.140 . S
C2530 C676 2.838 . S
C2560 C496 2.644 . S
N2594 C706 1.745 . S
C646 C2620 2.157 . S
C297 C2650 2.339 . S
C2680 C1906 1.631 . S
C2710 C376 3.155 . S
C2740 C1846 2.441 . S
C1887 C2770 2.180 . S
C346 C2800 2.705 . S
N246 C2830 1.985 . S
C2860 C316 2.693 1_545 S
N6 N606 1.700 . S
N1956 N36 1.695 . S
N66 N1986 1.866 . S
N96 N2016 1.426 . S
C147 N2136 3.058 . S
C177 N636 1.635 . S
N2106 C181 1.657 . S
N486 N216 1.330 . S
C250 N456 2.543 . S
N366 C271 3.141 . S
N306 N396 2.400 . S
N336 C421 3.103 . S
N516 N1476 1.695 . S
N546 N1506 1.866 . S
N576 N1536 1.425 . S
N666 C1621 1.657 . S
C1587 N696 3.058 . S
N734 N1334 1.700 . S
N764 N2684 1.695 . S
N2714 N794 1.866 . S
N2744 N824 1.426 . S
C856 N2864 3.058 . S
C886 N1364 1.635 . S
N2834 C910 1.657 . S
N944 N1214 1.330 . S
N1184 C961 2.543 . S
N1094 C1000 3.141 . S
N1124 N1034 2.400 . S
N1064 C1150 3.103 . S
N1244 N2204 1.695 . S
N2234 N1274 1.866 . S
N2264 N1304 1.425 . S
N1394 C2350 1.657 . S
C2296 N1424 3.058 . S
N2046 N1446 1.699 . S
N2076 C1617 1.634 . S
N1926 N1656 1.331 . S
C1690 N1896 2.543 . S
C1711 N1806 3.140 . S
N1836 N1746 2.400 . S
C1861 N1776 3.103 . S
N2174 N2774 1.699 . S
N2804 C2326 1.634 . S
N2384 N2654 1.331 . S
C2401 N2624 2.543 . S
N2534 C2440 3.140 . S
N2564 N2474 2.400 . S
N2504 C2590 3.103 . S
N14 C1291 2.201 . S
C1321 N44 1.440 . S
C1231 N74 1.104 . S
C2701 N104 1.606 . S
C136 C2791 3.075 . S
C2821 C166 2.020 . S
C190 C2641 2.439 . S
C2851 N224 2.669 . S
C781 C241 2.772 . S
C2251 C280 3.224 . S
N314 C721 1.685 . S
C2191 N344 1.634 . S
N374 N906 2.081 . S
N404 C2371 2.627 . S
C430 C850 2.991 . S
N464 C2320 1.123 . S
N494 C2521 1.411 . S
C987 N524 1.437 1_565 S
N2436 N554 2.340 . S
N584 C1021 1.896 . S
N614 C1051 0.822 . S
N644 N2586 2.362 . S
N674 C2611 1.460 . S
N704 C2551 2.134 . S
C580 N726 2.201 . S
N756 C610 1.440 . S
C520 N786 1.104 . S
N816 C1990 1.606 . S
C867 C2080 3.075 . S
C2110 C897 2.020 . S
C1930 C901 2.439 . S
N936 C2140 2.669 . S
C70 C970 2.772 . S
C991 C1540 3.224 . S
N1026 C10 1.685 . S
C1480 N1056 1.634 . S
N194 N1086 2.081 . S
N1116 C1660 2.627 . S
C1141 C121 2.991 . S
C1591 N1176 1.123 . S
N1206 C1810 1.411 . S
N1236 C256 1.437 1_565 S
N1724 N1266 2.340 . S
N1296 C310 1.896 . S
C340 N1326 0.822 . S
N1356 N1874 2.362 . S
C1900 N1386 1.460 . S
C1840 N1416 2.134 . S
C2731 N1454 2.201 . S
C2761 N1484 1.440 . S
N1514 C2671 1.104 . S
N1544 C1261 1.606 . S
C1576 C1351 3.076 . S
C1606 C1381 2.020 . S
C1201 C1630 2.439 1_556 S
C1411 N1664 2.669 . S
C1681 C2221 2.772 1_655 S
C1720 C811 3.224 . S
N1754 C2161 1.685 . S
N1784 C751 1.634 . S
N1814 N2346 2.080 . S
N1844 C931 2.627 . S
C1870 C2290 2.991 . S
N1904 C880 1.123 . S
C1081 N1934 1.411 . S
C2427 N1964 1.437 . S
N996 N1994 2.340 . S
C2461 N2024 1.896 . S
N2054 C2491 0.822 . S
N2084 N1146 2.361 1_554 S
N2114 C1171 1.461 . S
N2144 C1111 2.134 . S
C2020 N2166 2.201 . S
C2050 N2196 1.440 . S
N2226 C1960 1.104 . S
N2256 C550 1.606 . S
C640 C2307 3.076 . S
C2337 C670 2.020 . S
C490 C2341 2.439 1_554 S
C700 N2376 2.669 . S
C2410 C1510 2.772 1_455 S
C2431 C100 3.224 . S
N2466 C1450 1.685 . S
N2496 C40 1.634 . S
N1634 N2526 2.080 . S
C220 N2556 2.627 . S
C1561 C2581 2.991 . S
N2616 C151 1.123 . S
C370 N2646 1.411 . S
N2676 C1696 1.437 . S
N2706 N284 2.340 . S
C1750 N2736 1.896 . S
N2766 C1780 0.822 . S
N2796 N434 2.361 1_556 S
C460 N2826 1.461 . S
N2856 C400 2.134 . S
C27 C286 0.668 . S
C327 C57 0.908 . S
C87 C357 1.564 . S
N254 C117 1.008 . S
C477 N126 2.890 . S
C387 N156 0.971 . S
C196 C417 1.484 . S
C237 C436 2.331 . S
C507 C567 2.076 . S
C2127 C537 2.170 . S
C597 C2157 0.464 . S
C2097 C627 2.528 . S
C2067 C657 2.528 . S
C687 C1977 2.170 . S
C717 C2037 0.464 . S
C1017 C736 0.668 . S
C766 C1036 0.908 . S
C796 C1066 1.564 . S
N966 C826 1.008 . S
C1186 N854 2.890 . S
C1096 N884 0.971 . S
C1126 C927 1.484 . S
C1167 C946 2.331 . S
C1276 C1216 2.076 . S
C1246 C2836 2.170 . S
C1306 C2866 0.464 . S
C1336 C2806 2.528 . S
C2776 C1366 2.528 . S
C2686 C1396 2.170 . S
C2746 C1426 0.464 . S
C1467 C1726 0.668 . S
C1497 C1767 0.908 . S
C1527 C1797 1.565 . S
C1557 N1694 1.007 . S
C1917 N1566 2.891 . S
N1596 C1827 0.971 . S
C1857 C1636 1.484 . S
C1876 C1677 2.331 . S
C2007 C1947 2.076 . S
C2176 C2457 0.668 . S
C2476 C2206 0.908 . S
C2236 C2506 1.565 . S
N2406 C2266 1.007 . S
N2294 C2626 2.891 . S
C2536 N2324 0.971 . S
C2367 C2566 1.484 . S
C2386 C2607 2.331 . S
C2656 C2716 2.076 . S
