# Generated by pormake.
# Topology nfb, (4)-cn, num edge types: 1
# Building blocks:
#     Node 0, Type 0, BuildingBlock: ICAMEG_clean_sbu_1, # of connection points: 4
#     Node 1, Type 0, BuildingBlock: ICAMEG_clean_sbu_1, # of connection points: 4
#     Node 2, Type 0, BuildingBlock: ICAMEG_clean_sbu_1, # of connection points: 4
#     Node 3, Type 0, BuildingBlock: ICAMEG_clean_sbu_1, # of connection points: 4
#     Node 4, Type 0, BuildingBlock: ICAMEG_clean_sbu_1, # of connection points: 4
#     Node 5, Type 0, BuildingBlock: ICAMEG_clean_sbu_1, # of connection points: 4
#     Node 6, Type 0, BuildingBlock: ICAMEG_clean_sbu_1, # of connection points: 4
#     Node 7, Type 0, BuildingBlock: ICAMEG_clean_sbu_1, # of connection points: 4
#     Node 8, Type 0, BuildingBlock: ICAMEG_clean_sbu_1, # of connection points: 4
#     Node 9, Type 0, BuildingBlock: ICAMEG_clean_sbu_1, # of connection points: 4
#     Node 10, Type 0, BuildingBlock: ICAMEG_clean_sbu_1, # of connection points: 4
#     Node 11, Type 0, BuildingBlock: ICAMEG_clean_sbu_1, # of connection points: 4
#     Node 12, Type 0, BuildingBlock: ICAMEG_clean_sbu_1, # of connection points: 4
#     Node 13, Type 0, BuildingBlock: ICAMEG_clean_sbu_1, # of connection points: 4
#     Node 14, Type 0, BuildingBlock: ICAMEG_clean_sbu_1, # of connection points: 4
#     Node 15, Type 0, BuildingBlock: ICAMEG_clean_sbu_1, # of connection points: 4
#     Node 16, Type 0, BuildingBlock: ICAMEG_clean_sbu_1, # of connection points: 4
#     Node 17, Type 0, BuildingBlock: ICAMEG_clean_sbu_1, # of connection points: 4
#     Node 18, Type 0, BuildingBlock: ICAMEG_clean_sbu_1, # of connection points: 4
#     Node 19, Type 0, BuildingBlock: ICAMEG_clean_sbu_1, # of connection points: 4
#     Node 20, Type 0, BuildingBlock: ICAMEG_clean_sbu_1, # of connection points: 4
#     Node 21, Type 0, BuildingBlock: ICAMEG_clean_sbu_1, # of connection points: 4
#     Node 22, Type 0, BuildingBlock: ICAMEG_clean_sbu_1, # of connection points: 4
#     Node 23, Type 0, BuildingBlock: ICAMEG_clean_sbu_1, # of connection points: 4
#     Node 24, Type 0, BuildingBlock: ICAMEG_clean_sbu_1, # of connection points: 4
#     Node 25, Type 0, BuildingBlock: ICAMEG_clean_sbu_1, # of connection points: 4
#     Node 26, Type 0, BuildingBlock: ICAMEG_clean_sbu_1, # of connection points: 4
#     Node 27, Type 0, BuildingBlock: ICAMEG_clean_sbu_1, # of connection points: 4
#     Node 28, Type 0, BuildingBlock: ICAMEG_clean_sbu_1, # of connection points: 4
#     Node 29, Type 0, BuildingBlock: ICAMEG_clean_sbu_1, # of connection points: 4
#     Node 30, Type 0, BuildingBlock: ICAMEG_clean_sbu_1, # of connection points: 4
#     Node 31, Type 0, BuildingBlock: ICAMEG_clean_sbu_1, # of connection points: 4
#     Node 32, Type 0, BuildingBlock: ICAMEG_clean_sbu_1, # of connection points: 4
#     Node 33, Type 0, BuildingBlock: ICAMEG_clean_sbu_1, # of connection points: 4
#     Node 34, Type 0, BuildingBlock: ICAMEG_clean_sbu_1, # of connection points: 4
#     Node 35, Type 0, BuildingBlock: ICAMEG_clean_sbu_1, # of connection points: 4
#     Node 36, Type 0, BuildingBlock: ICAMEG_clean_sbu_1, # of connection points: 4
#     Node 37, Type 0, BuildingBlock: ICAMEG_clean_sbu_1, # of connection points: 4
#     Node 38, Type 0, BuildingBlock: ICAMEG_clean_sbu_1, # of connection points: 4
#     Node 39, Type 0, BuildingBlock: ICAMEG_clean_sbu_1, # of connection points: 4
#     Node 40, Type 0, BuildingBlock: ICAMEG_clean_sbu_1, # of connection points: 4
#     Node 41, Type 0, BuildingBlock: ICAMEG_clean_sbu_1, # of connection points: 4
#     Node 42, Type 0, BuildingBlock: ICAMEG_clean_sbu_1, # of connection points: 4
#     Node 43, Type 0, BuildingBlock: ICAMEG_clean_sbu_1, # of connection points: 4
#     Node 44, Type 0, BuildingBlock: ICAMEG_clean_sbu_1, # of connection points: 4
#     Node 45, Type 0, BuildingBlock: ICAMEG_clean_sbu_1, # of connection points: 4
#     Node 46, Type 0, BuildingBlock: ICAMEG_clean_sbu_1, # of connection points: 4
#     Node 47, Type 0, BuildingBlock: ICAMEG_clean_sbu_1, # of connection points: 4
#     Edge 48, Type (0, 0), BuildingBlock: CIFDUS_clean_linker_0, # of connection points: 2
#     Edge 49, Type (0, 0), BuildingBlock: CIFDUS_clean_linker_0, # of connection points: 2
#     Edge 50, Type (0, 0), BuildingBlock: CIFDUS_clean_linker_0, # of connection points: 2
#     Edge 51, Type (0, 0), BuildingBlock: CIFDUS_clean_linker_0, # of connection points: 2
#     Edge 52, Type (0, 0), BuildingBlock: CIFDUS_clean_linker_0, # of connection points: 2
#     Edge 53, Type (0, 0), BuildingBlock: CIFDUS_clean_linker_0, # of connection points: 2
#     Edge 54, Type (0, 0), BuildingBlock: CIFDUS_clean_linker_0, # of connection points: 2
#     Edge 55, Type (0, 0), BuildingBlock: CIFDUS_clean_linker_0, # of connection points: 2
#     Edge 56, Type (0, 0), BuildingBlock: CIFDUS_clean_linker_0, # of connection points: 2
#     Edge 57, Type (0, 0), BuildingBlock: CIFDUS_clean_linker_0, # of connection points: 2
#     Edge 58, Type (0, 0), BuildingBlock: CIFDUS_clean_linker_0, # of connection points: 2
#     Edge 59, Type (0, 0), BuildingBlock: CIFDUS_clean_linker_0, # of connection points: 2
#     Edge 60, Type (0, 0), BuildingBlock: CIFDUS_clean_linker_0, # of connection points: 2
#     Edge 61, Type (0, 0), BuildingBlock: CIFDUS_clean_linker_0, # of connection points: 2
#     Edge 62, Type (0, 0), BuildingBlock: CIFDUS_clean_linker_0, # of connection points: 2
#     Edge 63, Type (0, 0), BuildingBlock: CIFDUS_clean_linker_0, # of connection points: 2
#     Edge 64, Type (0, 0), BuildingBlock: CIFDUS_clean_linker_0, # of connection points: 2
#     Edge 65, Type (0, 0), BuildingBlock: CIFDUS_clean_linker_0, # of connection points: 2
#     Edge 66, Type (0, 0), BuildingBlock: CIFDUS_clean_linker_0, # of connection points: 2
#     Edge 67, Type (0, 0), BuildingBlock: CIFDUS_clean_linker_0, # of connection points: 2
#     Edge 68, Type (0, 0), BuildingBlock: CIFDUS_clean_linker_0, # of connection points: 2
#     Edge 69, Type (0, 0), BuildingBlock: CIFDUS_clean_linker_0, # of connection points: 2
#     Edge 70, Type (0, 0), BuildingBlock: CIFDUS_clean_linker_0, # of connection points: 2
#     Edge 71, Type (0, 0), BuildingBlock: CIFDUS_clean_linker_0, # of connection points: 2
#     Edge 72, Type (0, 0), BuildingBlock: CIFDUS_clean_linker_0, # of connection points: 2
#     Edge 73, Type (0, 0), BuildingBlock: CIFDUS_clean_linker_0, # of connection points: 2
#     Edge 74, Type (0, 0), BuildingBlock: CIFDUS_clean_linker_0, # of connection points: 2
#     Edge 75, Type (0, 0), BuildingBlock: CIFDUS_clean_linker_0, # of connection points: 2
#     Edge 76, Type (0, 0), BuildingBlock: CIFDUS_clean_linker_0, # of connection points: 2
#     Edge 77, Type (0, 0), BuildingBlock: CIFDUS_clean_linker_0, # of connection points: 2
#     Edge 78, Type (0, 0), BuildingBlock: CIFDUS_clean_linker_0, # of connection points: 2
#     Edge 79, Type (0, 0), BuildingBlock: CIFDUS_clean_linker_0, # of connection points: 2
#     Edge 80, Type (0, 0), BuildingBlock: CIFDUS_clean_linker_0, # of connection points: 2
#     Edge 81, Type (0, 0), BuildingBlock: CIFDUS_clean_linker_0, # of connection points: 2
#     Edge 82, Type (0, 0), BuildingBlock: CIFDUS_clean_linker_0, # of connection points: 2
#     Edge 83, Type (0, 0), BuildingBlock: CIFDUS_clean_linker_0, # of connection points: 2
#     Edge 84, Type (0, 0), BuildingBlock: CIFDUS_clean_linker_0, # of connection points: 2
#     Edge 85, Type (0, 0), BuildingBlock: CIFDUS_clean_linker_0, # of connection points: 2
#     Edge 86, Type (0, 0), BuildingBlock: CIFDUS_clean_linker_0, # of connection points: 2
#     Edge 87, Type (0, 0), BuildingBlock: CIFDUS_clean_linker_0, # of connection points: 2
#     Edge 88, Type (0, 0), BuildingBlock: CIFDUS_clean_linker_0, # of connection points: 2
#     Edge 89, Type (0, 0), BuildingBlock: CIFDUS_clean_linker_0, # of connection points: 2
#     Edge 90, Type (0, 0), BuildingBlock: CIFDUS_clean_linker_0, # of connection points: 2
#     Edge 91, Type (0, 0), BuildingBlock: CIFDUS_clean_linker_0, # of connection points: 2
#     Edge 92, Type (0, 0), BuildingBlock: CIFDUS_clean_linker_0, # of connection points: 2
#     Edge 93, Type (0, 0), BuildingBlock: CIFDUS_clean_linker_0, # of connection points: 2
#     Edge 94, Type (0, 0), BuildingBlock: CIFDUS_clean_linker_0, # of connection points: 2
#     Edge 95, Type (0, 0), BuildingBlock: CIFDUS_clean_linker_0, # of connection points: 2
#     Edge 96, Type (0, 0), BuildingBlock: CIFDUS_clean_linker_0, # of connection points: 2
#     Edge 97, Type (0, 0), BuildingBlock: CIFDUS_clean_linker_0, # of connection points: 2
#     Edge 98, Type (0, 0), BuildingBlock: CIFDUS_clean_linker_0, # of connection points: 2
#     Edge 99, Type (0, 0), BuildingBlock: CIFDUS_clean_linker_0, # of connection points: 2
#     Edge 100, Type (0, 0), BuildingBlock: CIFDUS_clean_linker_0, # of connection points: 2
#     Edge 101, Type (0, 0), BuildingBlock: CIFDUS_clean_linker_0, # of connection points: 2
#     Edge 102, Type (0, 0), BuildingBlock: CIFDUS_clean_linker_0, # of connection points: 2
#     Edge 103, Type (0, 0), BuildingBlock: CIFDUS_clean_linker_0, # of connection points: 2
#     Edge 104, Type (0, 0), BuildingBlock: CIFDUS_clean_linker_0, # of connection points: 2
#     Edge 105, Type (0, 0), BuildingBlock: CIFDUS_clean_linker_0, # of connection points: 2
#     Edge 106, Type (0, 0), BuildingBlock: CIFDUS_clean_linker_0, # of connection points: 2
#     Edge 107, Type (0, 0), BuildingBlock: CIFDUS_clean_linker_0, # of connection points: 2
#     Edge 108, Type (0, 0), BuildingBlock: CIFDUS_clean_linker_0, # of connection points: 2
#     Edge 109, Type (0, 0), BuildingBlock: CIFDUS_clean_linker_0, # of connection points: 2
#     Edge 110, Type (0, 0), BuildingBlock: CIFDUS_clean_linker_0, # of connection points: 2
#     Edge 111, Type (0, 0), BuildingBlock: CIFDUS_clean_linker_0, # of connection points: 2
#     Edge 112, Type (0, 0), BuildingBlock: CIFDUS_clean_linker_0, # of connection points: 2
#     Edge 113, Type (0, 0), BuildingBlock: CIFDUS_clean_linker_0, # of connection points: 2
#     Edge 114, Type (0, 0), BuildingBlock: CIFDUS_clean_linker_0, # of connection points: 2
#     Edge 115, Type (0, 0), BuildingBlock: CIFDUS_clean_linker_0, # of connection points: 2
#     Edge 116, Type (0, 0), BuildingBlock: CIFDUS_clean_linker_0, # of connection points: 2
#     Edge 117, Type (0, 0), BuildingBlock: CIFDUS_clean_linker_0, # of connection points: 2
#     Edge 118, Type (0, 0), BuildingBlock: CIFDUS_clean_linker_0, # of connection points: 2
#     Edge 119, Type (0, 0), BuildingBlock: CIFDUS_clean_linker_0, # of connection points: 2
#     Edge 120, Type (0, 0), BuildingBlock: CIFDUS_clean_linker_0, # of connection points: 2
#     Edge 121, Type (0, 0), BuildingBlock: CIFDUS_clean_linker_0, # of connection points: 2
#     Edge 122, Type (0, 0), BuildingBlock: CIFDUS_clean_linker_0, # of connection points: 2
#     Edge 123, Type (0, 0), BuildingBlock: CIFDUS_clean_linker_0, # of connection points: 2
#     Edge 124, Type (0, 0), BuildingBlock: CIFDUS_clean_linker_0, # of connection points: 2
#     Edge 125, Type (0, 0), BuildingBlock: CIFDUS_clean_linker_0, # of connection points: 2
#     Edge 126, Type (0, 0), BuildingBlock: CIFDUS_clean_linker_0, # of connection points: 2
#     Edge 127, Type (0, 0), BuildingBlock: CIFDUS_clean_linker_0, # of connection points: 2
#     Edge 128, Type (0, 0), BuildingBlock: CIFDUS_clean_linker_0, # of connection points: 2
#     Edge 129, Type (0, 0), BuildingBlock: CIFDUS_clean_linker_0, # of connection points: 2
#     Edge 130, Type (0, 0), BuildingBlock: CIFDUS_clean_linker_0, # of connection points: 2
#     Edge 131, Type (0, 0), BuildingBlock: CIFDUS_clean_linker_0, # of connection points: 2
#     Edge 132, Type (0, 0), BuildingBlock: CIFDUS_clean_linker_0, # of connection points: 2
#     Edge 133, Type (0, 0), BuildingBlock: CIFDUS_clean_linker_0, # of connection points: 2
#     Edge 134, Type (0, 0), BuildingBlock: CIFDUS_clean_linker_0, # of connection points: 2
#     Edge 135, Type (0, 0), BuildingBlock: CIFDUS_clean_linker_0, # of connection points: 2
#     Edge 136, Type (0, 0), BuildingBlock: CIFDUS_clean_linker_0, # of connection points: 2
#     Edge 137, Type (0, 0), BuildingBlock: CIFDUS_clean_linker_0, # of connection points: 2
#     Edge 138, Type (0, 0), BuildingBlock: CIFDUS_clean_linker_0, # of connection points: 2
#     Edge 139, Type (0, 0), BuildingBlock: CIFDUS_clean_linker_0, # of connection points: 2
#     Edge 140, Type (0, 0), BuildingBlock: CIFDUS_clean_linker_0, # of connection points: 2
#     Edge 141, Type (0, 0), BuildingBlock: CIFDUS_clean_linker_0, # of connection points: 2
#     Edge 142, Type (0, 0), BuildingBlock: CIFDUS_clean_linker_0, # of connection points: 2
#     Edge 143, Type (0, 0), BuildingBlock: CIFDUS_clean_linker_0, # of connection points: 2
# Relax obj value: 0.319
# Max RMSD: 0.135
# Mean RMSD: 0.107
data_MOF--net-nfb--node1-ICAMEG_clean_sbu_1--edge1-CIFDUS_clean_linker_0
_symmetry_space_group_name_H-M    P1
_symmetry_Int_Tables_number       1
_symmetry_cell_setting            triclinic
loop_
_symmetry_equiv_pos_as_xyz
'x, y, z'
_cell_length_a     55.217899
_cell_length_b     55.352195
_cell_length_c     55.206208
_cell_angle_alpha  90.542254
_cell_angle_beta   91.707117
_cell_angle_gamma 93.101079
loop_
_atom_site_label
_atom_site_type_symbol
_atom_site_fract_x
_atom_site_fract_y
_atom_site_fract_z
_atom_type_partial_charge
Co0 Co 0.121 0.10452 0.39717 0.0
Co1 Co 0.11476 0.1532 0.43507 0.0
O2 O 0.13032 0.13698 0.40902 0.0
C3 C 0.174 0.10572 0.41036 0.0
O4 O 0.16753 0.11508 0.43095 0.0
C5 C 0.11279 0.18706 0.39451 0.0
O6 O 0.10383 0.16884 0.38106 0.0
O7 O 0.0824 0.14587 0.4194 0.0
O8 O 0.08448 0.1102 0.40002 0.0
H9 H 0.04864 0.16555 0.49344 0.0
H10 H 0.15453 0.13619 0.36884 0.0
O11 O 0.15742 0.09882 0.39448 0.0
H12 H 0.08324 0.11786 0.31456 0.0
H13 H 0.1248 0.03441 0.33908 0.0
H14 H 0.08536 0.06564 0.41104 0.0
H15 H 0.08517 0.10075 0.35559 0.0
H16 H 0.13836 0.07403 0.35716 0.0
O17 O 0.11805 0.18404 0.41683 0.0
H18 H 0.07121 0.14259 0.46404 0.0
H19 H 0.12447 0.20064 0.46048 0.0
H20 H 0.07179 0.0256 0.39409 0.0
H21 H 0.15347 0.15344 0.32784 0.0
H22 H 0.09116 0.01002 0.35753 0.0
H23 H 0.11759 0.14437 0.30041 0.0
O24 O 0.12181 0.09134 0.43066 0.0
H25 H 0.20247 0.1829 0.43743 0.0
H26 H 0.13563 0.14704 0.48496 0.0
H27 H 0.17599 0.15507 0.50451 0.0
H28 H 0.20973 0.17322 0.48079 0.0
H29 H 0.16196 0.17406 0.41837 0.0
H30 H 0.10339 0.22348 0.49131 0.0
H31 H 0.06507 0.20595 0.50797 0.0
O32 O 0.11105 0.1226 0.45371 0.0
C33 C 0.07226 0.12759 0.40814 0.0
C34 C 0.0656 0.17313 0.48685 0.0
C35 C 0.0962 0.20573 0.48543 0.0
N36 N 0.09919 0.1702 0.46065 0.0
C37 C 0.07837 0.16028 0.47002 0.0
C38 C 0.10812 0.19266 0.46808 0.0
C39 C 0.07472 0.19589 0.49478 0.0
C40 C 0.13898 0.13191 0.35692 0.0
N41 N 0.12001 0.11733 0.36457 0.0
C42 C 0.13843 0.14184 0.33376 0.0
C43 C 0.11827 0.13678 0.3184 0.0
C44 C 0.09898 0.12193 0.32633 0.0
C45 C 0.10015 0.11235 0.34962 0.0
C46 C 0.11616 0.04106 0.35498 0.0
C47 C 0.09419 0.05875 0.3954 0.0
C48 C 0.12381 0.06341 0.36532 0.0
N49 N 0.11244 0.0722 0.38492 0.0
C50 C 0.08638 0.03612 0.38584 0.0
C51 C 0.0973 0.02737 0.36534 0.0
C52 C 0.11547 0.10043 0.45065 0.0
C53 C 0.18788 0.17509 0.44801 0.0
C54 C 0.15025 0.15477 0.47442 0.0
C55 C 0.17304 0.15938 0.48565 0.0
C56 C 0.19196 0.1696 0.47232 0.0
N57 N 0.14641 0.16015 0.45055 0.0
C58 C 0.16487 0.17015 0.43734 0.0
Co59 Co 0.37525 0.66701 0.92953 0.0
Co60 Co 0.38355 0.64816 0.87124 0.0
O61 O 0.38961 0.64614 0.90599 0.0
C62 C 0.42525 0.65599 0.94953 0.0
O63 O 0.4307 0.64473 0.92961 0.0
C64 C 0.37178 0.59464 0.85952 0.0
O65 O 0.35355 0.60019 0.84517 0.0
O66 O 0.34793 0.6447 0.87619 0.0
O67 O 0.34431 0.6673 0.90968 0.0
H68 H 0.34125 0.67637 0.79575 0.0
H69 H 0.39303 0.61816 0.94202 0.0
O70 O 0.40565 0.6671 0.95069 0.0
H71 H 0.30969 0.61821 0.97141 0.0
H72 H 0.36695 0.70213 0.01263 0.0
H73 H 0.34291 0.70837 0.92647 0.0
H74 H 0.3278 0.65404 0.95133 0.0
H75 H 0.37856 0.67171 0.98345 0.0
O76 O 0.38495 0.61143 0.87039 0.0
H77 H 0.34985 0.67442 0.83981 0.0
H78 H 0.40385 0.62415 0.82819 0.0
H79 H 0.32835 0.73767 0.9558 0.0
H80 H 0.3757 0.58212 0.96215 0.0
H81 H 0.3406 0.73492 0.99934 0.0
H82 H 0.33358 0.58182 0.97679 0.0
O83 O 0.38818 0.69599 0.91241 0.0
H84 H 0.46997 0.62454 0.88194 0.0
H85 H 0.41598 0.68226 0.84394 0.0
H86 H 0.46003 0.68705 0.83807 0.0
H87 H 0.48737 0.65798 0.85708 0.0
H88 H 0.42588 0.62071 0.88772 0.0
H89 H 0.39587 0.62552 0.78401 0.0
H90 H 0.36436 0.65179 0.76754 0.0
O91 O 0.38264 0.68524 0.87307 0.0
C92 C 0.33517 0.65578 0.89119 0.0
C93 C 0.35503 0.66487 0.80271 0.0
C94 C 0.38569 0.63633 0.79612 0.0
N95 N 0.37734 0.64923 0.83651 0.0
C96 C 0.35998 0.66371 0.82761 0.0
C97 C 0.39014 0.63563 0.82113 0.0
C98 C 0.36801 0.65107 0.78689 0.0
C99 C 0.375 0.61859 0.94885 0.0
N100 N 0.36184 0.63865 0.94611 0.0
C101 C 0.36515 0.59794 0.96006 0.0
C102 C 0.34153 0.59777 0.96826 0.0
C103 C 0.32811 0.61816 0.96524 0.0
C104 C 0.33855 0.63847 0.95394 0.0
C105 C 0.36079 0.70323 0.99397 0.0
C106 C 0.34755 0.70645 0.94548 0.0
C107 C 0.36783 0.68628 0.97714 0.0
N108 N 0.36171 0.68834 0.95311 0.0
C109 C 0.33943 0.72328 0.96198 0.0
C110 C 0.34631 0.72173 0.98639 0.0
C111 C 0.3866 0.70134 0.89 0.0
C112 C 0.45826 0.63738 0.87364 0.0
C113 C 0.42777 0.66985 0.85268 0.0
C114 C 0.4527 0.6725 0.8491 0.0
C115 C 0.46802 0.65616 0.85971 0.0
N116 N 0.41832 0.6515 0.86653 0.0
C117 C 0.43323 0.63528 0.87681 0.0
Co118 Co 0.89343 0.92157 0.40451 0.0
Co119 Co 0.91368 0.87736 0.44087 0.0
O120 O 0.89068 0.88849 0.41634 0.0
C121 C 0.8406 0.9133 0.41497 0.0
O122 O 0.84772 0.90313 0.43513 0.0
C123 C 0.91154 0.8384 0.40369 0.0
O124 O 0.91679 0.85497 0.38751 0.0
O125 O 0.94131 0.88621 0.41976 0.0
O126 O 0.93047 0.92285 0.40842 0.0
H127 H 0.9928 0.87955 0.4883 0.0
H128 H 0.86526 0.88447 0.37497 0.0
O129 O 0.85652 0.92163 0.40029 0.0
H130 H 0.93106 0.91453 0.32283 0.0
H131 H 0.87772 0.98835 0.3462 0.0
H132 H 0.92123 0.96609 0.4212 0.0
H133 H 0.92729 0.93139 0.36396 0.0
H134 H 0.87098 0.94777 0.36338 0.0
O135 O 0.91012 0.84427 0.42591 0.0
H136 H 0.96105 0.89637 0.46211 0.0
H137 H 0.91592 0.83249 0.47006 0.0
H138 H 0.92731 1.0075 0.40554 0.0
H139 H 0.86818 0.8673 0.33382 0.0
H140 H 0.90586 0.01876 0.36756 0.0
H141 H 0.90132 0.8823 0.30747 0.0
O142 O 0.89062 0.93365 0.43815 0.0
H143 H 0.83083 0.84128 0.4594 0.0
H144 H 0.90369 0.88686 0.49271 0.0
H145 H 0.86856 0.87967 0.51839 0.0
H146 H 0.83176 0.85643 0.50193 0.0
H147 H 0.86602 0.85012 0.4338 0.0
H148 H 0.94694 0.81525 0.49684 0.0
H149 H 0.98596 0.83855 0.50557 0.0
O150 O 0.9173 0.91037 0.45681 0.0
C151 C 0.94664 0.90727 0.41172 0.0
C152 C 0.97593 0.86914 0.48447 0.0
C153 C 0.95018 0.83306 0.48929 0.0
N154 N 0.93668 0.86542 0.46451 0.0
C155 C 0.95783 0.87863 0.46976 0.0
C156 C 0.93264 0.84299 0.47423 0.0
C157 C 0.97208 0.84615 0.49418 0.0
C158 C 0.87956 0.89127 0.3635 0.0
N159 N 0.89597 0.90901 0.3718 0.0
C160 C 0.8812 0.8814 0.34027 0.0
C161 C 0.89982 0.8898 0.32551 0.0
C162 C 0.91653 0.90786 0.33413 0.0
C163 C 0.91435 0.91728 0.35747 0.0
C164 C 0.88689 0.9839 0.363 0.0
C165 C 0.91133 0.97108 0.405 0.0
C166 C 0.88328 0.96085 0.3727 0.0
N167 N 0.89593 0.95453 0.39308 0.0
C168 C 0.91492 0.99451 0.39616 0.0
C169 C 0.90279 1.00084 0.37487 0.0
C170 C 0.90366 0.92832 0.45653 0.0
C171 C 0.84676 0.8513 0.46684 0.0
C172 C 0.88771 0.87701 0.48524 0.0
C173 C 0.8679 0.87277 0.49999 0.0
C174 C 0.84729 0.85981 0.49071 0.0
N175 N 0.88685 0.86911 0.46168 0.0
C176 C 0.86681 0.8562 0.45249 0.0
Co177 Co 0.66477 0.36519 0.92228 0.0
Co178 Co 0.66386 0.38549 0.86355 0.0
O179 O 0.65277 0.3862 0.89686 0.0
C180 C 0.61134 0.37064 0.93182 0.0
O181 O 0.60788 0.38419 0.91282 0.0
C182 C 0.66971 0.43745 0.87912 0.0
O183 O 0.68125 0.42933 0.89824 0.0
O184 O 0.69847 0.38921 0.87528 0.0
O185 O 0.69802 0.36705 0.9091 0.0
H186 H 0.71574 0.35896 0.7961 0.0
H187 H 0.64054 0.41058 0.93562 0.0
O188 O 0.63192 0.36213 0.93659 0.0
H189 H 0.7206 0.41687 0.97758 0.0
H190 H 0.66902 0.33227 1.00695 0.0
H191 H 0.69723 0.32434 0.92355 0.0
H192 H 0.70867 0.38145 0.95176 0.0
H193 H 0.65652 0.36059 0.97538 0.0
O194 O 0.6621 0.42246 0.86239 0.0
H195 H 0.70113 0.35946 0.83791 0.0
H196 H 0.65053 0.4116 0.81854 0.0
H197 H 0.71027 0.29566 0.95453 0.0
H198 H 0.65136 0.44576 0.96195 0.0
H199 H 0.69585 0.29921 0.99637 0.0
H200 H 0.69176 0.44925 0.98304 0.0
O201 O 0.65627 0.33618 0.90192 0.0
H202 H 0.57652 0.40694 0.85892 0.0
H203 H 0.63633 0.35168 0.82903 0.0
H204 H 0.59366 0.34636 0.81469 0.0
H205 H 0.56342 0.37416 0.82959 0.0
H206 H 0.61931 0.41138 0.87308 0.0
H207 H 0.66468 0.4118 0.77656 0.0
H208 H 0.69746 0.38526 0.7651 0.0
O209 O 0.66517 0.34838 0.86424 0.0
C210 C 0.70921 0.3784 0.89249 0.0
C211 C 0.70139 0.37054 0.80085 0.0
C212 C 0.67276 0.40023 0.78989 0.0
N213 N 0.67489 0.3854 0.83057 0.0
C214 C 0.69301 0.37085 0.82447 0.0
C215 C 0.66486 0.40008 0.8137 0.0
C216 C 0.69115 0.38533 0.78347 0.0
C217 C 0.65784 0.41147 0.94516 0.0
N218 N 0.67363 0.39353 0.94248 0.0
C219 C 0.66402 0.43168 0.95986 0.0
C220 C 0.68671 0.43368 0.97162 0.0
C221 C 0.7029 0.41553 0.96855 0.0
C222 C 0.69603 0.39551 0.95385 0.0
C223 C 0.67535 0.33041 0.9887 0.0
C224 C 0.69111 0.32619 0.9418 0.0
C225 C 0.66829 0.34637 0.97071 0.0
N226 N 0.6761 0.34406 0.94757 0.0
C227 C 0.69852 0.30989 0.95928 0.0
C228 C 0.69046 0.31197 0.98282 0.0
C229 C 0.6602 0.33172 0.87976 0.0
C230 C 0.58952 0.39471 0.85229 0.0
C231 C 0.62325 0.3637 0.83582 0.0
C232 C 0.59913 0.36067 0.82752 0.0
C233 C 0.58218 0.37629 0.83586 0.0
N234 N 0.6303 0.38174 0.85202 0.0
C235 C 0.61381 0.39718 0.86019 0.0
Co236 Co 0.14073 0.87947 0.6613 0.0
Co237 Co 0.15322 0.86463 0.60269 0.0
O238 O 0.13768 0.88385 0.62654 0.0
C239 C 0.08766 0.87287 0.67222 0.0
O240 O 0.09234 0.85389 0.68531 0.0
C241 C 0.16898 0.91446 0.5875 0.0
O242 O 0.18089 0.91859 0.60818 0.0
O243 O 0.18532 0.871 0.61949 0.0
O244 O 0.17678 0.87414 0.65915 0.0
H245 H 0.20704 0.80052 0.57443 0.0
H246 H 0.11939 0.92328 0.64079 0.0
O247 O 0.10492 0.88514 0.66236 0.0
H248 H 0.18892 0.95371 0.6926 0.0
H249 H 0.12347 0.89984 0.74797 0.0
H250 H 0.16516 0.84547 0.6937 0.0
H251 H 0.17845 0.90991 0.68893 0.0
H252 H 0.12089 0.90493 0.70361 0.0
O253 O 0.15805 0.89408 0.58272 0.0
H254 H 0.18896 0.82669 0.60453 0.0
H255 H 0.15127 0.86267 0.54855 0.0
H256 H 0.16832 0.83976 0.73795 0.0
H257 H 0.12902 0.96722 0.64416 0.0
H258 H 0.14736 0.86708 0.76539 0.0
H259 H 0.16403 0.98271 0.67018 0.0
O260 O 0.13298 0.8438 0.6578 0.0
H261 H 0.07259 0.88689 0.56724 0.0
H262 H 0.12602 0.81999 0.58364 0.0
H263 H 0.08612 0.81133 0.56324 0.0
H264 H 0.05914 0.84494 0.55481 0.0
H265 H 0.11259 0.89476 0.58771 0.0
H266 H 0.16889 0.83682 0.51781 0.0
H267 H 0.19656 0.80502 0.53085 0.0
O268 O 0.14845 0.83495 0.62191 0.0
C269 C 0.1918 0.87234 0.64191 0.0
C270 C 0.19485 0.81413 0.56858 0.0
C271 C 0.17349 0.83455 0.53679 0.0
N272 N 0.16881 0.84592 0.57835 0.0
C273 C 0.18455 0.82899 0.58554 0.0
C274 C 0.16362 0.84917 0.55428 0.0
C275 C 0.18904 0.81678 0.54408 0.0
C276 C 0.13457 0.92986 0.65227 0.0
N277 N 0.14833 0.91402 0.66469 0.0
C278 C 0.13997 0.95477 0.65405 0.0
C279 C 0.15964 0.96345 0.66862 0.0
C280 C 0.17362 0.94719 0.68119 0.0
C281 C 0.16768 0.9224 0.67896 0.0
C282 C 0.1327 0.88784 0.73621 0.0
C283 C 0.15607 0.85746 0.70556 0.0
C284 C 0.13129 0.89062 0.7111 0.0
N285 N 0.14294 0.87555 0.69615 0.0
C286 C 0.15789 0.85412 0.73058 0.0
C287 C 0.14611 0.86945 0.74597 0.0
C288 C 0.13938 0.82871 0.64192 0.0
C289 C 0.08422 0.87211 0.57073 0.0
C290 C 0.11435 0.83471 0.58015 0.0
C291 C 0.09179 0.8297 0.56853 0.0
C292 C 0.07667 0.84856 0.56379 0.0
N293 N 0.12174 0.8579 0.58669 0.0
C294 C 0.10692 0.87646 0.58227 0.0
Co295 Co 0.65397 0.60834 0.08371 0.0
Co296 Co 0.60413 0.6277 0.11112 0.0
O297 O 0.63867 0.63139 0.10462 0.0
C298 C 0.68948 0.61249 0.12556 0.0
O299 O 0.67213 0.60527 0.14001 0.0
C300 C 0.61098 0.6795 0.09687 0.0
O301 O 0.62253 0.67174 0.07813 0.0
O302 O 0.59622 0.62776 0.07585 0.0
O303 O 0.62339 0.60204 0.06347 0.0
H304 H 0.51963 0.59126 0.09761 0.0
H305 H 0.67784 0.65738 0.09128 0.0
O306 O 0.68514 0.61439 0.10291 0.0
H307 H 0.65974 0.64994 1.00346 0.0
H308 H 0.72386 0.57754 0.03821 0.0
H309 H 0.63974 0.55975 0.06292 0.0
H310 H 0.65025 0.61593 0.03041 0.0
H311 H 0.70251 0.60756 0.06159 0.0
O312 O 0.6024 0.66426 0.11213 0.0
H313 H 0.56357 0.59585 0.09119 0.0
H314 H 0.57075 0.6528 0.14343 0.0
H315 H 0.66053 0.52911 0.03985 0.0
H316 H 0.68864 0.69166 0.06472 0.0
H317 H 0.70297 0.53786 0.02748 0.0
H318 H 0.67939 0.68819 0.02051 0.0
O319 O 0.64343 0.58125 0.10516 0.0
H320 H 0.64776 0.65841 0.18732 0.0
H321 H 0.58887 0.59654 0.15236 0.0
H322 H 0.59957 0.5958 0.19605 0.0
H323 H 0.62918 0.62693 0.2138 0.0
H324 H 0.63664 0.65838 0.14368 0.0
H325 H 0.52673 0.64904 0.15022 0.0
H326 H 0.50092 0.6179 0.12711 0.0
O327 O 0.60501 0.59095 0.11024 0.0
C328 C 0.604 0.61329 0.06023 0.0
C329 C 0.53071 0.60477 0.1078 0.0
C330 C 0.53468 0.63722 0.13731 0.0
N331 N 0.56973 0.6244 0.11711 0.0
C332 C 0.55562 0.6074 0.10432 0.0
C333 C 0.55958 0.6393 0.13337 0.0
C334 C 0.52022 0.61979 0.1244 0.0
C335 C 0.67425 0.65555 0.07198 0.0
N336 N 0.66347 0.63465 0.06242 0.0
C337 C 0.68025 0.67508 0.05705 0.0
C338 C 0.67503 0.67313 0.03223 0.0
C339 C 0.66409 0.65171 0.02264 0.0
C340 C 0.65856 0.63251 0.03806 0.0
C341 C 0.7054 0.57348 0.04358 0.0
C342 C 0.65815 0.56376 0.05751 0.0
C343 C 0.6932 0.59043 0.05678 0.0
N344 N 0.66989 0.58542 0.06364 0.0
C345 C 0.66986 0.5463 0.04451 0.0
C346 C 0.69368 0.55122 0.03759 0.0
C347 C 0.62145 0.5754 0.11007 0.0
C348 C 0.63478 0.6448 0.17982 0.0
C349 C 0.60181 0.61011 0.15996 0.0
C350 C 0.60776 0.60963 0.18471 0.0
C351 C 0.62437 0.62711 0.19466 0.0
N352 N 0.61203 0.62758 0.14555 0.0
C353 C 0.62836 0.64474 0.15515 0.0
Co354 Co 0.87494 0.11926 0.65256 0.0
Co355 Co 0.85583 0.13456 0.59529 0.0
O356 O 0.87503 0.11616 0.6176 0.0
C357 C 0.92907 0.12973 0.66232 0.0
O358 O 0.92422 0.14729 0.67729 0.0
C359 C 0.83204 0.09493 0.56537 0.0
O360 O 0.81112 0.10154 0.57315 0.0
O361 O 0.82597 0.1252 0.61277 0.0
O362 O 0.83789 0.12116 0.65194 0.0
H363 H 0.79181 0.19147 0.57049 0.0
H364 H 0.8985 0.07826 0.62941 0.0
O365 O 0.91167 0.11689 0.65193 0.0
H366 H 0.83642 0.04067 0.68161 0.0
H367 H 0.90226 0.09847 0.73732 0.0
H368 H 0.85071 0.14993 0.68755 0.0
H369 H 0.84224 0.08508 0.67943 0.0
H370 H 0.90104 0.09476 0.69269 0.0
O371 O 0.85171 0.10496 0.57421 0.0
H372 H 0.81715 0.16955 0.59954 0.0
H373 H 0.85352 0.13785 0.54154 0.0
H374 H 0.85129 0.15423 0.73213 0.0
H375 H 0.8935 0.03378 0.63129 0.0
H376 H 0.87722 0.12837 0.7573 0.0
H377 H 0.86227 0.0147 0.65753 0.0
O378 O 0.87927 0.15535 0.65071 0.0
H379 H 0.93497 0.11991 0.55631 0.0
H380 H 0.87777 0.18149 0.57785 0.0
H381 H 0.91513 0.19384 0.5568 0.0
H382 H 0.94396 0.16292 0.54573 0.0
H383 H 0.8975 0.10836 0.57755 0.0
H384 H 0.8288 0.15914 0.51206 0.0
H385 H 0.79736 0.18623 0.52631 0.0
O386 O 0.85989 0.1642 0.61585 0.0
C387 C 0.82129 0.12222 0.63507 0.0
C388 C 0.80529 0.17971 0.56399 0.0
C389 C 0.82596 0.16163 0.53114 0.0
N390 N 0.83662 0.15228 0.57226 0.0
C391 C 0.81967 0.16725 0.58035 0.0
C392 C 0.83996 0.14951 0.54799 0.0
C393 C 0.80845 0.17679 0.5392 0.0
C394 C 0.88496 0.07011 0.64099 0.0
N395 N 0.87075 0.08428 0.65438 0.0
C396 C 0.88217 0.04491 0.64192 0.0
C397 C 0.86462 0.03421 0.65662 0.0
C398 C 0.8501 0.04877 0.67012 0.0
C399 C 0.8534 0.07391 0.66874 0.0
C400 C 0.89087 0.10983 0.72655 0.0
C401 C 0.86197 0.13859 0.69843 0.0
C402 C 0.89013 0.10781 0.7013 0.0
N403 N 0.87577 0.12209 0.68761 0.0
C404 C 0.86225 0.14112 0.72364 0.0
C405 C 0.87682 0.12661 0.73775 0.0
C406 C 0.87037 0.17039 0.63596 0.0
C407 C 0.9225 0.13354 0.56094 0.0
C408 C 0.89029 0.16794 0.57325 0.0
C409 C 0.91139 0.17504 0.56126 0.0
C410 C 0.92755 0.15768 0.55505 0.0
N411 N 0.88534 0.14418 0.57876 0.0
C412 C 0.90121 0.1271 0.57292 0.0
Co413 Co 0.35353 0.37555 0.07417 0.0
Co414 Co 0.39842 0.3675 0.1176 0.0
O415 O 0.36644 0.3605 0.10275 0.0
C416 C 0.31806 0.3855 0.11148 0.0
O417 O 0.33598 0.39437 0.12561 0.0
C418 C 0.39584 0.3157 0.10199 0.0
O419 O 0.38872 0.32459 0.08122 0.0
O420 O 0.41477 0.36806 0.08571 0.0
O421 O 0.38491 0.37389 0.05796 0.0
H422 H 0.4778 0.41439 0.13368 0.0
H423 H 0.32541 0.33324 0.09389 0.0
O424 O 0.32195 0.37771 0.09027 0.0
H425 H 0.34532 0.30919 0.01092 0.0
H426 H 0.28842 0.38761 0.01068 0.0
H427 H 0.37168 0.41244 0.0391 0.0
H428 H 0.35962 0.34912 0.02757 0.0
H429 H 0.30593 0.37032 0.04775 0.0
O430 O 0.40205 0.33048 0.11955 0.0
H431 H 0.43959 0.40343 0.11085 0.0
H432 H 0.42483 0.3449 0.15831 0.0
H433 H 0.35474 0.43038 1.00196 0.0
H434 H 0.30985 0.29362 0.07756 0.0
H435 H 0.31286 0.4174 0.98736 0.0
H436 H 0.31987 0.28133 0.03582 0.0
O437 O 0.36439 0.40827 0.08677 0.0
H438 H 0.34229 0.33426 0.18073 0.0
H439 H 0.40036 0.40117 0.16004 0.0
H440 H 0.38004 0.40207 0.1992 0.0
H441 H 0.35081 0.36841 0.20978 0.0
H442 H 0.36284 0.33418 0.14168 0.0
H443 H 0.46308 0.35492 0.18139 0.0
H444 H 0.48944 0.39036 0.16955 0.0
O445 O 0.39451 0.40433 0.11473 0.0
C446 C 0.40703 0.37141 0.06407 0.0
C447 C 0.46628 0.39909 0.13919 0.0
C448 C 0.45807 0.36566 0.16593 0.0
N449 N 0.42991 0.37374 0.13345 0.0
C450 C 0.44468 0.39278 0.12631 0.0
C451 C 0.43656 0.35994 0.15267 0.0
C452 C 0.47283 0.38558 0.15931 0.0
C453 C 0.32956 0.32821 0.07558 0.0
N454 N 0.34315 0.34365 0.06159 0.0
C455 C 0.32074 0.3057 0.06646 0.0
C456 C 0.32642 0.29879 0.04305 0.0
C457 C 0.34073 0.31441 0.02908 0.0
C458 C 0.34893 0.33693 0.03867 0.0
C459 C 0.30666 0.39326 0.01686 0.0
C460 C 0.35338 0.40706 0.033 0.0
C461 C 0.31666 0.38361 0.03789 0.0
N462 N 0.33983 0.39035 0.04558 0.0
C463 C 0.34389 0.41726 0.01196 0.0
C464 C 0.32043 0.41009 1.00379 0.0
C465 C 0.3807 0.41745 0.10161 0.0
C466 C 0.35506 0.34898 0.17636 0.0
C467 C 0.38762 0.38648 0.16449 0.0
C468 C 0.37621 0.38707 0.18671 0.0
C469 C 0.35982 0.36817 0.19264 0.0
N470 N 0.38293 0.36755 0.14867 0.0
C471 C 0.36684 0.34898 0.15432 0.0
Co472 Co 0.42351 0.0976 0.1488 0.0
Co473 Co 0.38691 0.11979 0.10441 0.0
O474 O 0.40036 0.12033 0.13726 0.0
C475 C 0.38708 0.09935 0.1869 0.0
O476 O 0.36987 0.09593 0.17009 0.0
C477 C 0.40705 0.17059 0.11276 0.0
O478 O 0.42693 0.16029 0.11961 0.0
O479 O 0.41995 0.12041 0.09077 0.0
O480 O 0.43834 0.09553 0.1164 0.0
H481 H 0.37445 0.08907 0.01877 0.0
H482 H 0.41876 0.14254 0.17735 0.0
O483 O 0.40929 0.09904 0.18145 0.0
H484 H 0.50073 0.15009 0.14457 0.0
H485 H 0.48284 0.06599 0.2101 0.0
H486 H 0.44249 0.05216 0.1299 0.0
H487 H 0.47532 0.11228 0.13841 0.0
H488 H 0.45391 0.09475 0.19405 0.0
O489 O 0.38863 0.15711 0.10512 0.0
H490 H 0.39405 0.09125 0.0596 0.0
H491 H 0.35029 0.14866 0.07918 0.0
H492 H 0.47131 0.02299 0.14524 0.0
H493 H 0.44426 0.17962 0.18536 0.0
H494 H 0.49158 0.02974 0.18568 0.0
H495 H 0.48493 0.18404 0.1679 0.0
O496 O 0.40083 0.06984 0.13938 0.0
H497 H 0.32309 0.14765 0.15969 0.0
H498 H 0.34132 0.08923 0.09564 0.0
H499 H 0.30062 0.08758 0.11302 0.0
H500 H 0.29129 0.11699 0.14525 0.0
H501 H 0.36361 0.14848 0.14199 0.0
H502 H 0.33039 0.14728 0.03856 0.0
H503 H 0.34185 0.11681 1.0084 0.0
O504 O 0.38563 0.08239 0.10363 0.0
C505 C 0.43719 0.10697 0.09653 0.0
C506 C 0.36908 0.10223 0.03191 0.0
C507 C 0.34437 0.13494 0.043 0.0
N508 N 0.37308 0.11985 0.07179 0.0
C509 C 0.3801 0.10353 0.05503 0.0
C510 C 0.35579 0.13573 0.06591 0.0
C511 C 0.35089 0.11787 0.02604 0.0
C512 C 0.43704 0.14361 0.17086 0.0
N513 N 0.44551 0.12509 0.15751 0.0
C514 C 0.45129 0.16485 0.17522 0.0
C515 C 0.47423 0.16726 0.16552 0.0
C516 C 0.48301 0.14819 0.15234 0.0
C517 C 0.46843 0.12695 0.14875 0.0
C518 C 0.47405 0.06282 0.19249 0.0
C519 C 0.45135 0.05531 0.14746 0.0
C520 C 0.45767 0.07904 0.1833 0.0
N521 N 0.44657 0.07517 0.16104 0.0
C522 C 0.46761 0.0387 0.15606 0.0
C523 C 0.47897 0.04249 0.17876 0.0
C524 C 0.39008 0.06548 0.11888 0.0
C525 C 0.32691 0.1348 0.1456 0.0
C526 C 0.33742 0.10201 0.10973 0.0
C527 C 0.31432 0.10104 0.11945 0.0
C528 C 0.30909 0.11756 0.13752 0.0
N529 N 0.35477 0.11901 0.11772 0.0
C530 C 0.34979 0.13526 0.13542 0.0
Co531 Co 0.38904 0.85867 0.64119 0.0
Co532 Co 0.37157 0.91674 0.65103 0.0
O533 O 0.38995 0.89307 0.63438 0.0
C534 C 0.44226 0.85239 0.65159 0.0
O535 O 0.43637 0.83925 0.67042 0.0
C536 C 0.34549 0.93632 0.60814 0.0
O537 O 0.32489 0.9278 0.61684 0.0
O538 O 0.34154 0.89587 0.647 0.0
O539 O 0.35231 0.85729 0.64394 0.0
H540 H 0.31064 0.94479 0.70948 0.0
H541 H 0.41377 0.877 0.5975 0.0
O542 O 0.42564 0.86089 0.63803 0.0
H543 H 0.35004 0.81758 0.56704 0.0
H544 H 0.4137 0.77325 0.62851 0.0
H545 H 0.36445 0.82669 0.67653 0.0
H546 H 0.35518 0.82642 0.61079 0.0
H547 H 0.41367 0.81696 0.62006 0.0
O548 O 0.36549 0.93192 0.61889 0.0
H549 H 0.33623 0.91527 0.69046 0.0
H550 H 0.36665 0.97 0.64537 0.0
H551 H 0.36392 0.78308 0.68561 0.0
H552 H 0.40984 0.86817 0.55382 0.0
H553 H 0.38868 0.75606 0.66149 0.0
H554 H 0.37764 0.83821 0.53821 0.0
O555 O 0.39332 0.86543 0.67665 0.0
H556 H 0.44871 0.95924 0.62387 0.0
H557 H 0.39561 0.94376 0.69292 0.0
H558 H 0.43327 0.9694 0.69892 0.0
H559 H 0.45998 0.97752 0.66419 0.0
H560 H 0.41118 0.93324 0.61879 0.0
H561 H 0.34022 0.99975 0.66291 0.0
H562 H 0.31245 0.98739 0.69555 0.0
O563 O 0.37795 0.90168 0.68302 0.0
C564 C 0.33634 0.87323 0.64545 0.0
C565 C 0.32286 0.95048 0.6954 0.0
C566 C 0.3396 0.98136 0.66935 0.0
N567 N 0.35292 0.94084 0.66681 0.0
C568 C 0.33749 0.93385 0.68464 0.0
C569 C 0.35432 0.96435 0.65934 0.0
C570 C 0.32388 0.97436 0.68758 0.0
C571 C 0.39987 0.86386 0.59094 0.0
N572 N 0.38484 0.85213 0.60671 0.0
C573 C 0.39761 0.85901 0.5661 0.0
C574 C 0.37959 0.84225 0.5574 0.0
C575 C 0.36408 0.83064 0.57357 0.0
C576 C 0.36699 0.83583 0.59832 0.0
C577 C 0.40282 0.78483 0.63912 0.0
C578 C 0.37522 0.81501 0.66594 0.0
C579 C 0.40272 0.80957 0.63441 0.0
N580 N 0.389 0.8243 0.64775 0.0
C581 C 0.37487 0.79035 0.67117 0.0
C582 C 0.38878 0.7752 0.65764 0.0
C583 C 0.38709 0.88239 0.69061 0.0
C584 C 0.43717 0.95592 0.63913 0.0
C585 C 0.40726 0.94699 0.67776 0.0
C586 C 0.42851 0.96161 0.68125 0.0
C587 C 0.44349 0.96616 0.66175 0.0
N588 N 0.40111 0.93711 0.65549 0.0
C589 C 0.41584 0.94129 0.63634 0.0
Co590 Co 0.59217 0.89672 0.13891 0.0
Co591 Co 0.61636 0.87694 0.08658 0.0
O592 O 0.61286 0.87515 0.12173 0.0
C593 C 0.63382 0.88744 0.17449 0.0
O594 O 0.64458 0.87344 0.15934 0.0
C595 C 0.60422 0.82455 0.09528 0.0
O596 O 0.58608 0.83157 0.10796 0.0
O597 O 0.58057 0.87323 0.08117 0.0
O598 O 0.56915 0.89795 0.11045 0.0
H599 H 0.5958 0.90498 1.0025 0.0
H600 H 0.6046 0.84955 0.1608 0.0
O601 O 0.61417 0.89721 0.1685 0.0
H602 H 0.5154 0.84666 0.15463 0.0
H603 H 0.54803 0.92642 0.21103 0.0
H604 H 0.56698 0.941 0.12551 0.0
H605 H 0.53941 0.88266 0.14115 0.0
H606 H 0.57402 0.8992 0.18923 0.0
O607 O 0.61815 0.84039 0.0851 0.0
H608 H 0.5931 0.90424 0.04703 0.0
H609 H 0.6464 0.85181 0.05135 0.0
H610 H 0.54079 0.96855 0.14658 0.0
H611 H 0.58142 0.81364 0.17488 0.0
H612 H 0.53113 0.96132 0.18965 0.0
H613 H 0.53659 0.81185 0.17168 0.0
O614 O 0.61105 0.9251 0.12637 0.0
H615 H 0.69682 0.8549 0.12241 0.0
H616 H 0.65524 0.91104 0.06853 0.0
H617 H 0.6996 0.9161 0.07518 0.0
H618 H 0.72069 0.88787 0.10226 0.0
H619 H 0.65246 0.85063 0.1154 0.0
H620 H 0.64943 0.85168 1.00698 0.0
H621 H 0.62396 0.87845 0.98214 0.0
O622 O 0.61465 0.91371 0.08753 0.0
C623 C 0.56505 0.88622 0.09071 0.0
C624 C 0.60704 0.89332 0.01309 0.0
C625 C 0.63712 0.86342 0.01555 0.0
N626 N 0.61969 0.87811 0.05177 0.0
C627 C 0.60566 0.89289 0.03831 0.0
C628 C 0.63529 0.8635 0.04071 0.0
C629 C 0.62286 0.87842 1.00168 0.0
C630 C 0.58512 0.84944 0.15997 0.0
N631 N 0.57349 0.86863 0.15071 0.0
C632 C 0.57204 0.82882 0.16774 0.0
C633 C 0.54683 0.82781 0.16587 0.0
C634 C 0.535 0.84733 0.15629 0.0
C635 C 0.5487 0.86767 0.1487 0.0
C636 C 0.55209 0.92975 0.19226 0.0
C637 C 0.56282 0.93767 0.14422 0.0
C638 C 0.56685 0.91443 0.17983 0.0
N639 N 0.57189 0.91839 0.15605 0.0
C640 C 0.548 0.95337 0.15608 0.0
C641 C 0.54261 0.94932 0.18025 0.0
C642 C 0.61494 0.93007 0.10425 0.0
C643 C 0.68784 0.86732 0.11057 0.0
C644 C 0.66426 0.8988 0.08049 0.0
C645 C 0.68939 0.9017 0.0841 0.0
C646 C 0.70122 0.88583 0.09928 0.0
N647 N 0.65127 0.88061 0.09165 0.0
C648 C 0.66273 0.86496 0.10651 0.0
Co649 Co 0.62395 0.13495 0.63542 0.0
Co650 Co 0.63683 0.07763 0.65418 0.0
O651 O 0.61828 0.09996 0.63498 0.0
C652 C 0.5721 0.12633 0.64767 0.0
O653 O 0.58024 0.11093 0.66347 0.0
C654 C 0.63664 0.05868 0.60355 0.0
O655 O 0.64108 0.08067 0.59558 0.0
O656 O 0.66816 0.09252 0.64306 0.0
O657 O 0.66061 0.13152 0.63587 0.0
H658 H 0.70244 0.05292 0.71258 0.0
H659 H 0.5908 0.11168 0.59783 0.0
O660 O 0.58728 0.13857 0.6349 0.0
H661 H 0.65612 0.15373 0.55291 0.0
H662 H 0.60662 0.21965 0.6105 0.0
H663 H 0.6584 0.16961 0.66158 0.0
H664 H 0.6559 0.15614 0.59756 0.0
H665 H 0.60038 0.17516 0.61005 0.0
O666 O 0.63516 0.05451 0.62611 0.0
H667 H 0.67952 0.08178 0.68841 0.0
H668 H 0.63281 0.02429 0.66004 0.0
H669 H 0.66541 0.21404 0.66246 0.0
H670 H 0.59004 0.10913 0.5532 0.0
H671 H 0.6394 0.23935 0.63678 0.0
H672 H 0.62297 0.13003 0.53046 0.0
O673 O 0.6246 0.13597 0.67158 0.0
H674 H 0.55126 0.04228 0.64384 0.0
H675 H 0.61796 0.06432 0.70266 0.0
H676 H 0.57926 0.04644 0.71723 0.0
H677 H 0.54561 0.03519 0.68771 0.0
H678 H 0.5901 0.06056 0.63012 0.0
H679 H 0.6547 0.99494 0.68417 0.0
H680 H 0.69005 0.00908 0.71058 0.0
O681 O 0.6387 0.10018 0.68253 0.0
C682 C 0.67522 0.11428 0.63832 0.0
C683 C 0.68718 0.04648 0.70109 0.0
C684 C 0.66052 0.01389 0.68507 0.0
N685 N 0.65488 0.05473 0.67283 0.0
C686 C 0.67417 0.06274 0.68735 0.0
C687 C 0.64813 0.03063 0.67143 0.0
C688 C 0.68024 0.02188 0.69994 0.0
C689 C 0.605 0.12115 0.58805 0.0
N690 N 0.62337 0.13406 0.60028 0.0
C691 C 0.60455 0.11953 0.56278 0.0
C692 C 0.62305 0.13126 0.55003 0.0
C693 C 0.64166 0.14452 0.56262 0.0
C694 C 0.64152 0.14573 0.5879 0.0
C695 C 0.6181 0.20881 0.62173 0.0
C696 C 0.64712 0.18053 0.65025 0.0
C697 C 0.61462 0.18363 0.6216 0.0
N698 N 0.62914 0.16984 0.63565 0.0
C699 C 0.65112 0.20566 0.65087 0.0
C700 C 0.6365 0.21986 0.63648 0.0
C701 C 0.63248 0.12148 0.68745 0.0
C702 C 0.56583 0.047 0.65687 0.0
C703 C 0.60337 0.05959 0.6897 0.0
C704 C 0.58152 0.0494 0.69806 0.0
C705 C 0.56265 0.04307 0.68149 0.0
N706 N 0.60639 0.06327 0.6655 0.0
C707 C 0.58793 0.05721 0.64918 0.0
Co708 Co 0.44167 0.8808 0.87003 0.0
Co709 Co 0.3857 0.89996 0.88619 0.0
O710 O 0.42106 0.90156 0.88824 0.0
C711 C 0.45929 0.87791 0.92161 0.0
O712 O 0.43703 0.87806 0.92922 0.0
C713 C 0.40051 0.95035 0.87255 0.0
O714 O 0.41485 0.93972 0.85773 0.0
O715 O 0.3855 0.8991 0.85002 0.0
O716 O 0.42023 0.8824 0.84059 0.0
H717 H 0.30339 0.86735 0.85643 0.0
H718 H 0.46376 0.92442 0.89551 0.0
O719 O 0.46372 0.8787 0.89913 0.0
H720 H 0.47905 0.93732 0.80896 0.0
H721 H 0.52237 0.85149 0.84614 0.0
H722 H 0.43358 0.84013 0.83458 0.0
H723 H 0.45833 0.89946 0.82247 0.0
H724 H 0.49517 0.87721 0.86817 0.0
O725 O 0.38637 0.93712 0.88557 0.0
H726 H 0.34816 0.86925 0.85932 0.0
H727 H 0.34791 0.92836 0.90888 0.0
H728 H 0.46009 0.81399 0.81207 0.0
H729 H 0.48537 0.96213 0.88291 0.0
H730 H 0.50487 0.81962 0.81777 0.0
H731 H 0.49276 0.96896 0.83929 0.0
O732 O 0.42283 0.85125 0.88007 0.0
H733 H 0.41164 0.93199 0.96898 0.0
H734 H 0.36019 0.8705 0.92353 0.0
H735 H 0.36043 0.87077 0.96823 0.0
H736 H 0.38624 0.90173 0.99125 0.0
H737 H 0.41109 0.93085 0.92428 0.0
H738 H 0.30316 0.92725 0.90641 0.0
H739 H 0.28061 0.89651 0.88009 0.0
O740 O 0.38501 0.86294 0.88684 0.0
C741 C 0.39973 0.89048 0.83475 0.0
C742 C 0.31301 0.88078 0.86802 0.0
C743 C 0.31288 0.91442 0.89604 0.0
N744 N 0.35057 0.89877 0.88439 0.0
C745 C 0.33833 0.88189 0.86978 0.0
C746 C 0.3382 0.915 0.89733 0.0
C747 C 0.30024 0.89716 0.88128 0.0
C748 C 0.46749 0.92696 0.87659 0.0
N749 N 0.45993 0.90966 0.8598 0.0
C750 C 0.47954 0.94845 0.86953 0.0
C751 C 0.4836 0.95231 0.84505 0.0
C752 C 0.47588 0.93458 0.82802 0.0
C753 C 0.46414 0.91318 0.83578 0.0
C754 C 0.50291 0.8489 0.84341 0.0
C755 C 0.45301 0.84279 0.83702 0.0
C756 C 0.4874 0.86344 0.85583 0.0
N757 N 0.46279 0.86041 0.85242 0.0
C758 C 0.46795 0.82789 0.82428 0.0
C759 C 0.49307 0.83104 0.8275 0.0
C760 C 0.40058 0.84658 0.88468 0.0
C761 C 0.40026 0.91846 0.95915 0.0
C762 C 0.37157 0.88394 0.93343 0.0
C763 C 0.37157 0.88405 0.95873 0.0
C764 C 0.38604 0.90145 0.97164 0.0
N765 N 0.38556 0.90069 0.92132 0.0
C766 C 0.39979 0.9178 0.93384 0.0
Co767 Co 0.64163 0.89929 0.40391 0.0
Co768 Co 0.62745 0.93982 0.36078 0.0
O769 O 0.64857 0.9155 0.37339 0.0
C770 C 0.69439 0.91517 0.40754 0.0
O771 O 0.6877 0.93649 0.40071 0.0
C772 C 0.63704 0.91088 0.31633 0.0
O773 O 0.63431 0.89069 0.32849 0.0
O774 O 0.60013 0.91523 0.35998 0.0
O775 O 0.60467 0.90003 0.39727 0.0
H776 H 0.54851 0.9804 0.35141 0.0
H777 H 0.67439 0.87718 0.36945 0.0
O778 O 0.67816 0.89813 0.41074 0.0
H779 H 0.60763 0.81582 0.3805 0.0
H780 H 0.65641 0.839 0.46968 0.0
H781 H 0.60666 0.90569 0.44289 0.0
H782 H 0.60834 0.855 0.40223 0.0
H783 H 0.66373 0.85904 0.43063 0.0
O784 O 0.63551 0.93123 0.32688 0.0
H785 H 0.5774 0.95366 0.37087 0.0
H786 H 0.63178 0.97702 0.32219 0.0
H787 H 0.59856 0.88603 0.48196 0.0
H788 H 0.67454 0.83814 0.34755 0.0
H789 H 0.62356 0.85244 0.4956 0.0
H790 H 0.64095 0.80716 0.35298 0.0
O791 O 0.64175 0.93125 0.42095 0.0
H792 H 0.71425 0.96802 0.35012 0.0
H793 H 0.63532 0.99022 0.38064 0.0
H794 H 0.67137 0.01778 0.38792 0.0
H795 H 0.7114 1.00629 0.37329 0.0
H796 H 0.67792 0.94048 0.34415 0.0
H797 H 0.60373 1.00462 0.30273 0.0
H798 H 0.56155 1.00594 0.31689 0.0
O799 O 0.61826 0.94978 0.39404 0.0
C800 C 0.59138 0.90445 0.37838 0.0
C801 C 0.56676 0.97977 0.34489 0.0
C802 C 0.59776 0.99339 0.31759 0.0
N803 N 0.60617 0.9635 0.3475 0.0
C804 C 0.58322 0.96468 0.35587 0.0
C805 C 0.6136 0.97781 0.32877 0.0
C806 C 0.57409 0.99411 0.32553 0.0
C807 C 0.65983 0.86371 0.37207 0.0
N808 N 0.64145 0.86832 0.38718 0.0
C809 C 0.65996 0.84167 0.35955 0.0
C810 C 0.64109 0.82431 0.36257 0.0
C811 C 0.62238 0.82916 0.378 0.0
C812 C 0.62284 0.85141 0.3902 0.0
C813 C 0.64538 0.8536 0.46392 0.0
C814 C 0.6175 0.89099 0.44863 0.0
C815 C 0.64947 0.86505 0.44186 0.0
N816 N 0.63552 0.8834 0.43444 0.0
C817 C 0.61288 0.87997 0.4708 0.0
C818 C 0.62693 0.86114 0.47845 0.0
C819 C 0.62798 0.94811 0.41511 0.0
C820 C 0.69698 0.97305 0.35682 0.0
C821 C 0.65259 0.98523 0.37399 0.0
C822 C 0.67295 1.00094 0.37812 0.0
C823 C 0.69534 0.99457 0.36978 0.0
N824 N 0.65461 0.96356 0.36234 0.0
C825 C 0.67629 0.95766 0.35326 0.0
Co826 Co 0.61347 0.14833 0.87052 0.0
Co827 Co 0.67323 0.13434 0.87984 0.0
O828 O 0.6389 0.13104 0.88701 0.0
C829 C 0.59017 0.17052 0.91239 0.0
O830 O 0.59594 0.19193 0.90348 0.0
C831 C 0.65964 0.08156 0.87312 0.0
O832 O 0.64081 0.08885 0.8607 0.0
O833 O 0.66586 0.13085 0.84442 0.0
O834 O 0.62863 0.1447 0.83848 0.0
H835 H 0.74597 0.16752 0.83602 0.0
H836 H 0.60013 0.10648 0.90172 0.0
O837 O 0.59797 0.15167 0.90253 0.0
H838 H 0.56446 0.08525 0.82086 0.0
H839 H 0.52662 0.16931 0.85514 0.0
H840 H 0.61168 0.1863 0.833 0.0
H841 H 0.58795 0.12399 0.82774 0.0
H842 H 0.55944 0.14692 0.87417 0.0
O843 O 0.67526 0.09744 0.88211 0.0
H844 H 0.70255 0.16353 0.84555 0.0
H845 H 0.71721 0.111 0.89881 0.0
H846 H 0.57936 0.20886 0.81325 0.0
H847 H 0.57659 0.06766 0.89565 0.0
H848 H 0.53647 0.20046 0.82437 0.0
H849 H 0.55857 0.05682 0.85498 0.0
O850 O 0.63219 0.17981 0.87554 0.0
H851 H 0.66618 0.11117 0.96722 0.0
H852 H 0.70444 0.16884 0.91049 0.0
H853 H 0.71342 0.17361 0.95437 0.0
H854 H 0.69433 0.14457 0.98305 0.0
H855 H 0.6575 0.10726 0.92321 0.0
H856 H 0.76075 0.11425 0.88974 0.0
H857 H 0.77538 0.14275 0.8582 0.0
O858 O 0.67159 0.17115 0.87755 0.0
C859 C 0.64825 0.13683 0.83066 0.0
C860 C 0.73983 0.1551 0.84986 0.0
C861 C 0.74812 0.12517 0.87998 0.0
N862 N 0.70743 0.13721 0.87284 0.0
C863 C 0.71529 0.15282 0.85538 0.0
C864 C 0.72345 0.12336 0.885 0.0
C865 C 0.75632 0.14118 0.86229 0.0
C866 C 0.5922 0.102 0.884 0.0
N867 N 0.59528 0.11761 0.86516 0.0
C868 C 0.57896 0.07994 0.88066 0.0
C869 C 0.56889 0.07385 0.85783 0.0
C870 C 0.57223 0.08977 0.83866 0.0
C871 C 0.58562 0.11166 0.84266 0.0
C872 C 0.54523 0.17311 0.85013 0.0
C873 C 0.59306 0.18248 0.83786 0.0
C874 C 0.56392 0.16055 0.8609 0.0
N875 N 0.58752 0.1654 0.85482 0.0
C876 C 0.57483 0.19532 0.82663 0.0
C877 C 0.55077 0.1906 0.83288 0.0
C878 C 0.65472 0.18634 0.87658 0.0
C879 C 0.67466 0.12391 0.95491 0.0
C880 C 0.69593 0.15624 0.92288 0.0
C881 C 0.70114 0.15898 0.94769 0.0
C882 C 0.69043 0.14267 0.96378 0.0
N883 N 0.68053 0.13774 0.91431 0.0
C884 C 0.66987 0.12174 0.92997 0.0
Co885 Co 0.37367 0.12938 0.41586 0.0
Co886 Co 0.39569 0.09361 0.37221 0.0
O887 O 0.37203 0.11628 0.38273 0.0
C888 C 0.3209 0.11307 0.40758 0.0
O889 O 0.32867 0.09313 0.39829 0.0
C890 C 0.38333 0.12303 0.3279 0.0
O891 O 0.36747 0.13558 0.33907 0.0
O892 O 0.42216 0.11789 0.38035 0.0
O893 O 0.41124 0.12907 0.41728 0.0
H894 H 0.4736 0.05091 0.37991 0.0
H895 H 0.34569 0.1553 0.37871 0.0
O896 O 0.33642 0.12971 0.41544 0.0
H897 H 0.40995 0.21437 0.4087 0.0
H898 H 0.34941 0.18426 0.48307 0.0
H899 H 0.40254 0.11942 0.46044 0.0
H900 H 0.4066 0.17322 0.42546 0.0
H901 H 0.347 0.16666 0.44178 0.0
O902 O 0.39465 0.10653 0.33853 0.0
H903 H 0.44189 0.07705 0.3936 0.0
H904 H 0.40106 0.06299 0.32806 0.0
H905 H 0.40619 0.1371 0.50163 0.0
H906 H 0.34823 0.19634 0.36157 0.0
H907 H 0.37945 0.16975 0.5132 0.0
H908 H 0.3806 0.22617 0.37655 0.0
O909 O 0.37098 0.09605 0.4287 0.0
H910 H 0.31326 0.06515 0.33829 0.0
H911 H 0.3872 0.04098 0.38179 0.0
H912 H 0.35309 0.01103 0.37477 0.0
H913 H 0.31555 0.02328 0.35306 0.0
H914 H 0.34741 0.09461 0.34633 0.0
H915 H 0.43242 0.0367 0.31364 0.0
H916 H 0.4691 0.03069 0.33955 0.0
O917 O 0.3985 0.07983 0.40552 0.0
C918 C 0.42758 0.12647 0.40137 0.0
C919 C 0.45773 0.05344 0.36842 0.0
C920 C 0.43464 0.04552 0.33121 0.0
N921 N 0.41963 0.07162 0.36165 0.0
C922 C 0.43965 0.06819 0.37611 0.0
C923 C 0.41694 0.06043 0.33948 0.0
C924 C 0.45521 0.04214 0.34576 0.0
C925 C 0.35975 0.16823 0.38537 0.0
N926 N 0.37601 0.16186 0.40298 0.0
C927 C 0.36113 0.19142 0.37558 0.0
C928 C 0.37931 0.20814 0.38397 0.0
C929 C 0.3958 0.20152 0.40199 0.0
C930 C 0.39387 0.17815 0.41134 0.0
C931 C 0.36117 0.17007 0.47824 0.0
C932 C 0.39097 0.13373 0.46528 0.0
C933 C 0.35978 0.15994 0.45495 0.0
N934 N 0.37476 0.14219 0.44868 0.0
C935 C 0.39304 0.14361 0.48866 0.0
C936 C 0.37804 0.16193 0.49514 0.0
C937 C 0.38473 0.07915 0.42362 0.0
C938 C 0.32951 0.05965 0.34769 0.0
C939 C 0.37108 0.04638 0.37216 0.0
C940 C 0.35181 0.02929 0.36819 0.0
C941 C 0.33084 0.03609 0.35598 0.0
N942 N 0.36951 0.06963 0.36433 0.0
C943 C 0.3491 0.07625 0.35207 0.0
Co944 Co 0.14243 0.42683 0.09937 0.0
Co945 Co 0.09167 0.39293 0.1134 0.0
O946 O 0.12485 0.40514 0.12078 0.0
C947 C 0.17641 0.38861 0.1086 0.0
O948 O 0.15883 0.37278 0.10202 0.0
C949 C 0.0933 0.41056 0.16515 0.0
O950 O 0.10463 0.43022 0.15719 0.0
O951 O 0.08098 0.42655 0.11017 0.0
O952 O 0.11219 0.44281 0.08954 0.0
H953 H 0.01167 0.3877 0.06739 0.0
H954 H 0.16103 0.42372 0.15023 0.0
O955 O 0.17291 0.41113 0.10865 0.0
H956 H 0.14185 0.50897 0.13918 0.0
H957 H 0.21559 0.47717 0.0736 0.0
H958 H 0.13334 0.44477 0.04964 0.0
H959 H 0.13554 0.47956 0.10551 0.0
H960 H 0.19079 0.45358 0.10242 0.0
O961 O 0.08554 0.39399 0.1499 0.0
H962 H 0.05348 0.40377 0.07682 0.0
H963 H 0.05868 0.35623 0.13644 0.0
H964 H 0.15737 0.4685 0.02041 0.0
H965 H 0.16804 0.45265 0.1843 0.0
H966 H 0.19902 0.48439 0.03212 0.0
H967 H 0.15836 0.49558 0.17892 0.0
O968 O 0.13656 0.40351 0.07234 0.0
H969 H 0.13613 0.32654 0.1536 0.0
H970 H 0.08491 0.34796 0.08318 0.0
H971 H 0.09921 0.30663 0.08623 0.0
H972 H 0.12496 0.29567 0.12168 0.0
H973 H 0.12171 0.36774 0.14967 0.0
H974 H 0.01727 0.33906 0.12719 0.0
H975 H 0.99337 0.35495 0.09253 0.0
O976 O 0.09744 0.39166 0.0765 0.0
C977 C 0.09044 0.44284 0.0967 0.0
C978 C 0.02187 0.38064 0.08255 0.0
C979 C 0.02495 0.35343 0.11618 0.0
N980 N 0.05852 0.38079 0.10703 0.0
C981 C 0.04553 0.38969 0.08798 0.0
C982 C 0.04841 0.36318 0.12131 0.0
C983 C 0.0116 0.3623 0.09669 0.0
C984 C 0.15711 0.44245 0.14764 0.0
N985 N 0.14801 0.44995 0.12585 0.0
C986 C 0.16098 0.45873 0.16704 0.0
C987 C 0.15548 0.48281 0.16402 0.0
C988 C 0.14623 0.49033 0.14174 0.0
C989 C 0.14261 0.47356 0.12275 0.0
C990 C 0.19752 0.47018 0.06823 0.0
C991 C 0.15124 0.45209 0.05509 0.0
C992 C 0.18337 0.45688 0.08449 0.0
N993 N 0.16062 0.44784 0.07774 0.0
C994 C 0.16482 0.46537 0.03839 0.0
C995 C 0.18821 0.47424 0.04497 0.0
C996 C 0.11655 0.39414 0.0637 0.0
C997 C 0.12485 0.33107 0.13811 0.0
C998 C 0.09621 0.34338 0.0986 0.0
C999 C 0.10419 0.31992 0.10027 0.0
C1000 C 0.11861 0.31377 0.12018 0.0
N1001 N 0.10236 0.36023 0.1163 0.0
C1002 C 0.11652 0.35435 0.13585 0.0
Co1003 Co 0.15235 0.58785 0.85571 0.0
Co1004 Co 0.14373 0.64608 0.87595 0.0
O1005 O 0.1371 0.61102 0.87649 0.0
C1006 C 0.09929 0.57085 0.85766 0.0
O1007 O 0.09361 0.59007 0.86982 0.0
C1008 C 0.15536 0.6314 0.92648 0.0
O1009 O 0.16873 0.61579 0.91584 0.0
O1010 O 0.1797 0.64262 0.87629 0.0
O1011 O 0.18417 0.60625 0.85932 0.0
H1012 H 0.18334 0.7238 0.84669 0.0
H1013 H 0.12576 0.57132 0.89951 0.0
O1014 O 0.12094 0.56826 0.85104 0.0
H1015 H 0.20814 0.54243 0.91042 0.0
H1016 H 0.16801 0.50472 0.82385 0.0
H1017 H 0.18756 0.59223 0.81645 0.0
H1018 H 0.19706 0.5654 0.87409 0.0
H1019 H 0.149 0.53392 0.85029 0.0
O1020 O 0.14437 0.64653 0.91325 0.0
H1021 H 0.17474 0.67958 0.84715 0.0
H1022 H 0.12655 0.68712 0.90493 0.0
H1023 H 0.20714 0.56368 0.78982 0.0
H1024 H 0.13596 0.54818 0.93583 0.0
H1025 H 0.1976 0.51974 0.79348 0.0
H1026 H 0.17748 0.53368 0.94162 0.0
O1027 O 0.14437 0.60664 0.82638 0.0
H1028 H 0.05895 0.63226 0.90583 0.0
H1029 H 0.10983 0.67388 0.84548 0.0
H1030 H 0.06575 0.67907 0.84457 0.0
H1031 H 0.03999 0.65825 0.87498 0.0
H1032 H 0.10302 0.62715 0.90575 0.0
H1033 H 0.13474 0.7314 0.90524 0.0
H1034 H 0.16325 0.75001 0.8759 0.0
O1035 O 0.14277 0.6455 0.8387 0.0
C1036 C 0.19285 0.62641 0.86787 0.0
C1037 C 0.17082 0.71591 0.85951 0.0
C1038 C 0.14357 0.72017 0.8924 0.0
N1039 N 0.15004 0.68085 0.87592 0.0
C1040 C 0.16583 0.69091 0.8598 0.0
C1041 C 0.13905 0.6951 0.89217 0.0
C1042 C 0.15956 0.7306 0.87592 0.0
C1043 C 0.14368 0.56469 0.9015 0.0
N1044 N 0.16058 0.56935 0.88432 0.0
C1045 C 0.14944 0.55174 0.92228 0.0
C1046 C 0.17275 0.54366 0.92555 0.0
C1047 C 0.18996 0.54859 0.90807 0.0
C1048 C 0.18355 0.56161 0.88752 0.0
C1049 C 0.17244 0.52389 0.82212 0.0
C1050 C 0.18329 0.57306 0.8182 0.0
C1051 C 0.16166 0.54053 0.83699 0.0
N1052 N 0.16729 0.56477 0.83501 0.0
C1053 C 0.19441 0.55699 0.80304 0.0
C1054 C 0.18897 0.53227 0.8051 0.0
C1055 C 0.14254 0.62905 0.82196 0.0
C1056 C 0.06997 0.64143 0.89249 0.0
C1057 C 0.09872 0.66447 0.85854 0.0
C1058 C 0.07378 0.66762 0.85805 0.0
C1059 C 0.05934 0.65598 0.87514 0.0
N1060 N 0.109 0.65007 0.87553 0.0
C1061 C 0.09498 0.6387 0.89242 0.0
Co1062 Co 0.93896 0.66218 0.37842 0.0
Co1063 Co 0.88293 0.64299 0.39896 0.0
O1064 O 0.91812 0.64225 0.39898 0.0
C1065 C 0.95526 0.61199 0.37205 0.0
O1066 O 0.93277 0.60306 0.3704 0.0
C1067 C 0.8742 0.65114 0.45249 0.0
O1068 O 0.85841 0.66709 0.44634 0.0
O1069 O 0.88516 0.67907 0.4026 0.0
O1070 O 0.91845 0.69028 0.38219 0.0
H1071 H 0.80198 0.67365 0.3744 0.0
H1072 H 0.96001 0.63709 0.42076 0.0
O1073 O 0.96026 0.63459 0.37449 0.0
H1074 H 0.98314 0.7236 0.43396 0.0
H1075 H 0.01988 0.69254 0.34809 0.0
H1076 H 0.93124 0.69804 0.33962 0.0
H1077 H 0.95834 0.71008 0.39799 0.0
H1078 H 0.99255 0.66787 0.37346 0.0
O1079 O 0.88529 0.64005 0.43593 0.0
H1080 H 0.84661 0.67242 0.3745 0.0
H1081 H 0.84398 0.61457 0.42447 0.0
H1082 H 0.95796 0.72321 0.31385 0.0
H1083 H 0.98505 0.6498 0.45685 0.0
H1084 H 1.00262 0.72071 0.31808 0.0
H1085 H 0.99687 0.69333 0.46358 0.0
O1086 O 0.91945 0.65174 0.3489 0.0
H1087 H 0.90518 0.55872 0.42024 0.0
H1088 H 0.8547 0.60752 0.3666 0.0
H1089 H 0.85257 0.56311 0.36182 0.0
H1090 H 0.87782 0.53837 0.38888 0.0
H1091 H 0.90706 0.60321 0.42409 0.0
H1092 H 0.79934 0.61513 0.42493 0.0
H1093 H 0.77806 0.64484 0.39976 0.0
O1094 O 0.88122 0.64572 0.36185 0.0
C1095 C 0.89936 0.69514 0.39322 0.0
C1096 C 0.81104 0.66062 0.38544 0.0
C1097 C 0.80956 0.62777 0.4138 0.0
N1098 N 0.84784 0.64345 0.39945 0.0
C1099 C 0.83629 0.65985 0.38556 0.0
C1100 C 0.83482 0.62753 0.41346 0.0
C1101 C 0.79763 0.64445 0.39967 0.0
C1102 C 0.96514 0.65605 0.42351 0.0
N1103 N 0.95791 0.67277 0.40715 0.0
C1104 C 0.97928 0.66315 0.44402 0.0
C1105 C 0.98587 0.68758 0.44781 0.0
C1106 C 0.97817 0.70457 0.4312 0.0
C1107 C 0.96405 0.6968 0.4109 0.0
C1108 C 1.00046 0.69387 0.34602 0.0
C1109 C 0.95065 0.69681 0.34152 0.0
C1110 C 0.98486 0.67985 0.36031 0.0
N1111 N 0.96029 0.68155 0.35806 0.0
C1112 C 0.9657 0.71109 0.32687 0.0
C1113 C 0.99077 0.70963 0.32922 0.0
C1114 C 0.89667 0.6479 0.3448 0.0
C1115 C 0.89403 0.56929 0.40838 0.0
C1116 C 0.86597 0.59692 0.37823 0.0
C1117 C 0.86457 0.57176 0.37554 0.0
C1118 C 0.87872 0.55789 0.39075 0.0
N1119 N 0.88098 0.60797 0.3956 0.0
C1120 C 0.89494 0.59449 0.41055 0.0
Co1121 Co 0.89843 0.43698 0.89411 0.0
Co1122 Co 0.89842 0.37695 0.91036 0.0
O1123 O 0.91038 0.41057 0.91311 0.0
C1124 C 0.94361 0.45796 0.87339 0.0
O1125 O 0.93538 0.45041 0.85191 0.0
C1126 C 0.88973 0.3916 0.96133 0.0
O1127 O 0.87916 0.40998 0.95159 0.0
O1128 O 0.86372 0.38579 0.90906 0.0
O1129 O 0.86434 0.42389 0.8956 0.0
H1130 H 0.8474 0.30653 0.87525 0.0
H1131 H 0.93095 0.44872 0.93686 0.0
O1132 O 0.93267 0.4507 0.89224 0.0
H1133 H 0.85284 0.48206 0.95636 0.0
H1134 H 0.89648 0.52439 0.8697 0.0
H1135 H 0.86293 0.44131 0.85322 0.0
H1136 H 0.85825 0.4627 0.91659 0.0
H1137 H 0.90884 0.4906 0.89521 0.0
O1138 O 0.89788 0.37546 0.94739 0.0
H1139 H 0.86273 0.34919 0.87833 0.0
H1140 H 0.90911 0.33257 0.93791 0.0
H1141 H 0.84938 0.47468 0.82781 0.0
H1142 H 0.9267 0.46923 0.97615 0.0
H1143 H 0.8664 0.51648 0.8358 0.0
H1144 H 0.88732 0.48585 0.98623 0.0
O1145 O 0.90148 0.41814 0.86353 0.0
H1146 H 0.98417 0.37935 0.94375 0.0
H1147 H 0.92718 0.34412 0.88085 0.0
H1148 H 0.96969 0.33238 0.88209 0.0
H1149 H 0.99843 0.34995 0.9139 0.0
H1150 H 0.94158 0.39063 0.94179 0.0
H1151 H 0.89418 0.28974 0.93559 0.0
H1152 H 0.86316 0.27648 0.90403 0.0
O1153 O 0.89917 0.37861 0.87346 0.0
C1154 C 0.85304 0.40437 0.90168 0.0
C1155 C 0.86098 0.31207 0.88902 0.0
C1156 C 0.8872 0.30266 0.92292 0.0
N1157 N 0.88691 0.34328 0.90816 0.0
C1158 C 0.86978 0.33618 0.89081 0.0
C1159 C 0.89555 0.32692 0.92418 0.0
C1160 C 0.86981 0.29523 0.9052 0.0
C1161 C 0.91397 0.45656 0.94073 0.0
N1162 N 0.89497 0.45474 0.92423 0.0
C1163 C 0.91161 0.46794 0.96315 0.0
C1164 C 0.88951 0.47724 0.96881 0.0
C1165 C 0.87017 0.47518 0.95201 0.0
C1166 C 0.8733 0.46403 0.92958 0.0
C1167 C 0.88888 0.50624 0.86607 0.0
C1168 C 0.87029 0.45949 0.85694 0.0
C1169 C 0.89594 0.487 0.88034 0.0
N1170 N 0.887 0.4639 0.8754 0.0
C1171 C 0.86253 0.47832 0.8425 0.0
C1172 C 0.87205 0.50181 0.84704 0.0
C1173 C 0.90057 0.39568 0.85779 0.0
C1174 C 0.97179 0.37152 0.92989 0.0
C1175 C 0.93965 0.35195 0.89459 0.0
C1176 C 0.96367 0.3452 0.89524 0.0
C1177 C 0.9798 0.35506 0.91307 0.0
N1178 N 0.93188 0.36792 0.91132 0.0
C1179 C 0.94763 0.37779 0.92873 0.0
Co1180 Co 0.06963 0.35898 0.3689 0.0
Co1181 Co 0.10731 0.41029 0.36458 0.0
O1182 O 0.09677 0.37722 0.35548 0.0
C1183 C 0.11033 0.32748 0.37797 0.0
O1184 O 0.12295 0.3462 0.38748 0.0
C1185 C 0.09327 0.4104 0.31189 0.0
O1186 O 0.07315 0.39918 0.31876 0.0
O1187 O 0.07361 0.42149 0.36435 0.0
O1188 O 0.04983 0.38773 0.36889 0.0
H1189 H 0.10772 0.48793 0.4124 0.0
H1190 H 0.09249 0.33959 0.32534 0.0
O1191 O 0.08889 0.32965 0.36955 0.0
H1192 H 0.00772 0.35185 0.30004 0.0
H1193 H 0.01392 0.28486 0.37888 0.0
H1194 H 0.03444 0.36853 0.4068 0.0
H1195 H 0.02233 0.36119 0.34206 0.0
H1196 H 0.04724 0.30914 0.36048 0.0
O1197 O 0.10933 0.41766 0.32814 0.0
H1198 H 0.09382 0.44604 0.40146 0.0
H1199 H 0.14444 0.44515 0.34508 0.0
H1200 H 1.00118 0.345 0.42563 0.0
H1201 H 0.07865 0.32965 0.28337 0.0
H1202 H 0.99055 0.30281 0.4117 0.0
H1203 H 0.03599 0.33587 0.27047 0.0
O1204 O 0.08142 0.36775 0.40232 0.0
H1205 H 0.17823 0.36832 0.33203 0.0
H1206 H 0.14897 0.41623 0.3999 0.0
H1207 H 0.19081 0.40266 0.40166 0.0
H1208 H 0.20569 0.37857 0.36752 0.0
H1209 H 0.13647 0.38208 0.33111 0.0
H1210 H 0.15866 0.48712 0.35513 0.0
H1211 H 0.14034 0.50874 0.38927 0.0
O1212 O 0.10457 0.4025 0.40096 0.0
C1213 C 0.0531 0.41053 0.36719 0.0
C1214 C 0.1159 0.47868 0.39762 0.0
C1215 C 0.14448 0.47827 0.36547 0.0
N1216 N 0.11849 0.44315 0.3728 0.0
C1217 C 0.10818 0.45494 0.3914 0.0
C1218 C 0.13632 0.45452 0.35979 0.0
C1219 C 0.1342 0.49037 0.38457 0.0
C1220 C 0.0738 0.34197 0.31998 0.0
N1221 N 0.05809 0.35067 0.33619 0.0
C1222 C 0.0661 0.33643 0.29615 0.0
C1223 C 0.04217 0.33996 0.28892 0.0
C1224 C 0.0263 0.34896 0.30551 0.0
C1225 C 0.03463 0.35423 0.32922 0.0
C1226 C 0.0183 0.30322 0.3851 0.0
C1227 C 0.02988 0.35028 0.40044 0.0
C1228 C 0.03713 0.31706 0.37473 0.0
N1229 N 0.04269 0.34028 0.38246 0.0
C1230 C 0.011 0.33699 0.41124 0.0
C1231 C 1.00519 0.3133 0.40349 0.0
C1232 C 0.0938 0.38524 0.41282 0.0
C1233 C 0.17198 0.37887 0.34698 0.0
C1234 C 0.1553 0.4057 0.38501 0.0
C1235 C 0.17902 0.39811 0.38609 0.0
C1236 C 0.18737 0.3846 0.36692 0.0
N1237 N 0.14035 0.40007 0.36537 0.0
C1238 C 0.14838 0.3868 0.34652 0.0
Co1239 Co 0.8697 0.60116 0.16407 0.0
Co1240 Co 0.88265 0.66006 0.14584 0.0
O1241 O 0.8879 0.62538 0.14524 0.0
C1242 C 0.90992 0.57929 0.19132 0.0
O1243 O 0.9011 0.58783 0.2113 0.0
C1244 C 0.87693 0.64515 0.09331 0.0
O1245 O 0.86528 0.62547 0.10082 0.0
O1246 O 0.84659 0.65381 0.14211 0.0
O1247 O 0.83871 0.61683 0.15736 0.0
H1248 H 0.84323 0.7347 0.1736 0.0
H1249 H 0.90148 0.58475 0.1254 0.0
O1250 O 0.90063 0.58477 0.1708 0.0
H1251 H 0.81939 0.55121 0.10235 0.0
H1252 H 0.84646 0.51629 0.19055 0.0
H1253 H 0.83149 0.60281 0.20034 0.0
H1254 H 0.82628 0.5761 0.13943 0.0
H1255 H 0.87003 0.5472 0.16786 0.0
O1256 O 0.88476 0.66131 0.10883 0.0
H1257 H 0.85036 0.69105 0.17263 0.0
H1258 H 0.90385 0.70274 0.11968 0.0
H1259 H 0.80746 0.57254 0.22326 0.0
H1260 H 0.8954 0.55974 0.0883 0.0
H1261 H 0.81455 0.52906 0.21816 0.0
H1262 H 0.85411 0.54276 0.07657 0.0
O1263 O 0.87487 0.62098 0.19415 0.0
H1264 H 0.96916 0.64861 0.12455 0.0
H1265 H 0.91552 0.69167 0.17802 0.0
H1266 H 0.95989 0.69899 0.18272 0.0
H1267 H 0.98703 0.67742 0.15578 0.0
H1268 H 0.92469 0.64164 0.12068 0.0
H1269 H 0.89718 0.74646 0.1199 0.0
H1270 H 0.86675 0.76271 0.14708 0.0
O1271 O 0.88115 0.65966 0.18288 0.0
C1272 C 0.8319 0.63646 0.14825 0.0
C1273 C 0.85659 0.72785 0.16173 0.0
C1274 C 0.88685 0.73445 0.13156 0.0
N1275 N 0.8776 0.69443 0.14626 0.0
C1276 C 0.86075 0.70318 0.16116 0.0
C1277 C 0.8905 0.70967 0.13147 0.0
C1278 C 0.86978 0.74355 0.14683 0.0
C1279 C 0.88348 0.57729 0.12053 0.0
N1280 N 0.8643 0.58178 0.13468 0.0
C1281 C 0.88014 0.56322 0.09944 0.0
C1282 C 0.85696 0.55374 0.09283 0.0
C1283 C 0.83746 0.5585 0.10728 0.0
C1284 C 0.84147 0.57269 0.12821 0.0
C1285 C 0.84309 0.53525 0.19284 0.0
C1286 C 0.83484 0.58387 0.19814 0.0
C1287 C 0.85641 0.55283 0.18008 0.0
N1288 N 0.85201 0.57679 0.18265 0.0
C1289 C 0.82119 0.56682 0.21118 0.0
C1290 C 0.82527 0.54237 0.20836 0.0
C1291 C 0.8787 0.64335 0.19922 0.0
C1292 C 0.95752 0.65814 0.13637 0.0
C1293 C 0.92722 0.68209 0.16637 0.0
C1294 C 0.95233 0.68638 0.16904 0.0
C1295 C 0.96754 0.67429 0.15391 0.0
N1296 N 0.91753 0.66625 0.14909 0.0
C1297 C 0.93233 0.65431 0.13422 0.0
Co1298 Co 0.91107 0.35467 0.63323 0.0
Co1299 Co 0.88019 0.39844 0.66003 0.0
O1300 O 0.89003 0.36505 0.65885 0.0
C1301 C 0.87372 0.31394 0.63408 0.0
O1302 O 0.85676 0.32938 0.63047 0.0
C1303 C 0.89548 0.38834 0.71174 0.0
O1304 O 0.9137 0.37687 0.70339 0.0
O1305 O 0.91491 0.41008 0.66166 0.0
O1306 O 0.92716 0.38781 0.63081 0.0
H1307 H 0.88369 0.48598 0.63635 0.0
H1308 H 0.90969 0.32656 0.67886 0.0
O1309 O 0.89596 0.32119 0.63519 0.0
H1310 H 0.99463 0.35732 0.67196 0.0
H1311 H 0.96332 0.296 0.59177 0.0
H1312 H 0.9277 0.37564 0.58679 0.0
H1313 H 0.96436 0.36511 0.63997 0.0
H1314 H 0.93814 0.31032 0.62457 0.0
O1315 O 0.88038 0.39763 0.69693 0.0
H1316 H 0.89498 0.44347 0.63439 0.0
H1317 H 0.84552 0.42475 0.68949 0.0
H1318 H 0.95275 0.36203 0.55366 0.0
H1319 H 0.93983 0.31708 0.71077 0.0
H1320 H 0.9706 0.32186 0.5559 0.0
H1321 H 0.9826 0.33274 0.70766 0.0
O1322 O 0.88663 0.36371 0.60828 0.0
H1323 H 0.80919 0.34442 0.68412 0.0
H1324 H 0.83638 0.41072 0.63061 0.0
H1325 H 0.79369 0.39505 0.62805 0.0
H1326 H 0.77984 0.3617 0.65498 0.0
H1327 H 0.85178 0.36054 0.68594 0.0
H1328 H 0.83387 0.46705 0.69222 0.0
H1329 H 0.85294 0.49794 0.6655 0.0
O1330 O 0.87966 0.40047 0.62296 0.0
C1331 C 0.93028 0.40543 0.64578 0.0
C1332 C 0.8752 0.47264 0.64805 0.0
C1333 C 0.84725 0.46203 0.67943 0.0
N1334 N 0.87079 0.43164 0.66166 0.0
C1335 C 0.88146 0.44855 0.64696 0.0
C1336 C 0.85396 0.43812 0.67784 0.0
C1337 C 0.85796 0.47936 0.66441 0.0
C1338 C 0.9284 0.33295 0.67709 0.0
N1339 N 0.9352 0.34652 0.65764 0.0
C1340 C 0.94535 0.32767 0.6953 0.0
C1341 C 0.96935 0.33648 0.69355 0.0
C1342 C 0.97615 0.35017 0.67356 0.0
C1343 C 0.95881 0.35478 0.65557 0.0
C1344 C 0.95555 0.3135 0.59054 0.0
C1345 C 0.93548 0.35819 0.58802 0.0
C1346 C 0.94123 0.32169 0.60903 0.0
N1347 N 0.9314 0.3438 0.60763 0.0
C1348 C 0.94965 0.35057 0.56916 0.0
C1349 C 0.95968 0.32804 0.57044 0.0
C1350 C 0.87993 0.3852 0.60524 0.0
C1351 C 0.81498 0.35901 0.67234 0.0
C1352 C 0.8305 0.39615 0.64234 0.0
C1353 C 0.8063 0.38739 0.64084 0.0
C1354 C 0.79853 0.36869 0.65597 0.0
N1355 N 0.84649 0.38661 0.65851 0.0
C1356 C 0.83904 0.36825 0.67335 0.0
Co1357 Co 0.08938 0.64695 0.64172 0.0
Co1358 Co 0.14666 0.63545 0.62248 0.0
O1359 O 0.11146 0.63003 0.62125 0.0
C1360 C 0.07061 0.5946 0.63951 0.0
O1361 O 0.09145 0.58726 0.63243 0.0
C1362 C 0.13134 0.64742 0.57203 0.0
O1363 O 0.11707 0.66186 0.58308 0.0
O1364 O 0.14459 0.6712 0.62284 0.0
O1365 O 0.1098 0.67755 0.64091 0.0
H1366 H 0.22637 0.67276 0.65443 0.0
H1367 H 0.06965 0.62097 0.59734 0.0
O1368 O 0.06768 0.6169 0.64379 0.0
H1369 H 0.05413 0.70675 0.58419 0.0
H1370 H 1.00693 0.66869 0.66822 0.0
H1371 H 0.09512 0.68167 0.68312 0.0
H1372 H 0.07254 0.69375 0.62279 0.0
H1373 H 0.03553 0.64761 0.64327 0.0
O1374 O 0.14607 0.63543 0.58504 0.0
H1375 H 0.18186 0.66542 0.65306 0.0
H1376 H 0.18651 0.61721 0.59329 0.0
H1377 H 0.06711 0.70319 0.70853 0.0
H1378 H 0.04996 0.63298 0.55907 0.0
H1379 H 0.02268 0.6969 0.70109 0.0
H1380 H 0.0425 0.67623 0.55207 0.0
O1381 O 0.10771 0.63764 0.67142 0.0
H1382 H 0.13412 0.55085 0.5886 0.0
H1383 H 0.17458 0.60227 0.65275 0.0
H1384 H 0.18276 0.55906 0.65061 0.0
H1385 H 0.16352 0.53337 0.61775 0.0
H1386 H 0.12606 0.59423 0.59171 0.0
H1387 H 0.23104 0.62419 0.59385 0.0
H1388 H 0.25126 0.65207 0.62466 0.0
O1389 O 0.14654 0.63534 0.65979 0.0
C1390 C 0.12991 0.6851 0.63247 0.0
C1391 C 0.21778 0.66051 0.64098 0.0
C1392 C 0.2204 0.63329 0.60694 0.0
N1393 N 0.18166 0.64077 0.62324 0.0
C1394 C 0.19261 0.65622 0.64017 0.0
C1395 C 0.19518 0.62946 0.60666 0.0
C1396 C 0.23173 0.64892 0.62425 0.0
C1397 C 0.06568 0.63966 0.59487 0.0
N1398 N 0.07201 0.65652 0.6125 0.0
C1399 C 0.0548 0.64642 0.57299 0.0
C1400 C 0.05073 0.67071 0.56903 0.0
C1401 C 0.05731 0.68784 0.58702 0.0
C1402 C 0.06774 0.68035 0.60886 0.0
C1403 C 0.02623 0.67162 0.6717 0.0
C1404 C 0.0758 0.67871 0.67987 0.0
C1405 C 0.04255 0.65965 0.65766 0.0
N1406 N 0.06701 0.66336 0.66178 0.0
C1407 C 0.06002 0.69097 0.69429 0.0
C1408 C 0.03507 0.68741 0.69011 0.0
C1409 C 0.13031 0.63554 0.67622 0.0
C1410 C 0.1429 0.562 0.60286 0.0
C1411 C 0.16523 0.59098 0.63899 0.0
C1412 C 0.17015 0.56656 0.63773 0.0
C1413 C 0.15917 0.55211 0.61932 0.0
N1414 N 0.14988 0.60077 0.62235 0.0
C1415 C 0.13843 0.58655 0.60469 0.0
Co1416 Co 0.88991 0.88064 0.66357 0.0
Co1417 Co 0.91666 0.88193 0.60887 0.0
O1418 O 0.89164 0.89223 0.63029 0.0
C1419 C 0.83737 0.86424 0.66307 0.0
O1420 O 0.84431 0.84275 0.66914 0.0
C1421 C 0.90675 0.93318 0.59223 0.0
O1422 O 0.88853 0.93609 0.60652 0.0
O1423 O 0.94178 0.89455 0.63262 0.0
O1424 O 0.92677 0.87946 0.66692 0.0
H1425 H 0.99564 0.84562 0.59023 0.0
H1426 H 0.86491 0.92487 0.65013 0.0
O1427 O 0.85325 0.88166 0.66031 0.0
H1428 H 0.92343 0.95042 0.71585 0.0
H1429 H 0.85675 0.87818 0.74755 0.0
H1430 H 0.91348 0.8426 0.69172 0.0
H1431 H 0.91991 0.90795 0.70166 0.0
H1432 H 0.86048 0.8933 0.70584 0.0
O1433 O 0.91823 0.91388 0.59248 0.0
H1434 H 0.96161 0.85517 0.61594 0.0
H1435 H 0.92673 0.88891 0.5566 0.0
H1436 H 0.91042 0.82698 0.73328 0.0
H1437 H 0.86768 0.96747 0.66389 0.0
H1438 H 0.88188 0.84481 0.76151 0.0
H1439 H 0.89714 0.98051 0.69694 0.0
O1440 O 0.88793 0.8467 0.65137 0.0
H1441 H 0.83562 0.88018 0.56402 0.0
H1442 H 0.91021 0.83694 0.57895 0.0
H1443 H 0.87764 0.81837 0.55241 0.0
H1444 H 0.8398 0.8398 0.54512 0.0
H1445 H 0.86855 0.89809 0.59035 0.0
H1446 H 0.96072 0.88075 0.5307 0.0
H1447 H 0.99553 0.85865 0.5473 0.0
O1448 O 0.91681 0.84936 0.62393 0.0
C1449 C 0.94462 0.88758 0.65439 0.0
C1450 C 0.98055 0.85508 0.5827 0.0
C1451 C 0.96098 0.87467 0.54923 0.0
N1452 N 0.94214 0.87252 0.58781 0.0
C1453 C 0.96116 0.86043 0.59715 0.0
C1454 C 0.9418 0.87944 0.5641 0.0
C1455 C 0.98047 0.86238 0.55861 0.0
C1456 C 0.87767 0.93037 0.66462 0.0
N1457 N 0.89219 0.91393 0.67511 0.0
C1458 C 0.8792 0.95453 0.67229 0.0
C1459 C 0.89576 0.96184 0.69083 0.0
C1460 C 0.91052 0.94497 0.70142 0.0
C1461 C 0.9085 0.92096 0.69326 0.0
C1462 C 0.86929 0.8703 0.73544 0.0
C1463 C 0.90113 0.85053 0.70394 0.0
C1464 C 0.87148 0.87878 0.71182 0.0
N1465 N 0.88731 0.86895 0.69645 0.0
C1466 C 0.89943 0.84158 0.72744 0.0
C1467 C 0.8834 0.85158 0.74326 0.0
C1468 C 0.90248 0.83702 0.63722 0.0
C1469 C 0.85204 0.87068 0.56703 0.0
C1470 C 0.89409 0.84674 0.57544 0.0
C1471 C 0.87561 0.836 0.56051 0.0
C1472 C 0.85438 0.84801 0.55645 0.0
N1473 N 0.89171 0.86899 0.58585 0.0
C1474 C 0.87097 0.88092 0.58175 0.0
Co1475 Co 0.66454 0.35835 0.09169 0.0
Co1476 Co 0.6134 0.37795 0.11765 0.0
O1477 O 0.64806 0.38014 0.11259 0.0
C1478 C 0.69047 0.35703 0.13858 0.0
O1479 O 0.66927 0.35448 0.14862 0.0
C1480 C 0.60231 0.43009 0.10798 0.0
O1481 O 0.58286 0.42275 0.0951 0.0
O1482 O 0.60662 0.3781 0.082 0.0
O1483 O 0.63684 0.35681 0.06775 0.0
H1484 H 0.52784 0.34621 0.10093 0.0
H1485 H 0.6895 0.40474 0.10818 0.0
O1486 O 0.69212 0.35908 0.11575 0.0
H1487 H 0.68723 0.40745 0.01888 0.0
H1488 H 0.73882 0.326 0.05538 0.0
H1489 H 0.65012 0.31443 0.06215 0.0
H1490 H 0.67003 0.37182 0.04004 0.0
H1491 H 0.71598 0.3555 0.07792 0.0
O1492 O 0.6155 0.41466 0.11826 0.0
H1493 H 0.57208 0.34871 0.09598 0.0
H1494 H 0.58041 0.40425 0.14966 0.0
H1495 H 0.67225 0.28436 0.03965 0.0
H1496 H 0.70709 0.44077 0.08771 0.0
H1497 H 0.71701 0.28985 0.03653 0.0
H1498 H 0.706 0.44228 0.04271 0.0
O1499 O 0.64971 0.32997 0.10794 0.0
H1500 H 0.65497 0.40753 0.19551 0.0
H1501 H 0.59548 0.34753 0.15838 0.0
H1502 H 0.60439 0.34648 0.20237 0.0
H1503 H 0.63428 0.37669 0.22123 0.0
H1504 H 0.64581 0.40772 0.15155 0.0
H1505 H 0.53606 0.4024 0.15516 0.0
H1506 H 0.50963 0.37312 0.13047 0.0
O1507 O 0.61238 0.34096 0.11713 0.0
C1508 C 0.61632 0.36615 0.06537 0.0
C1509 C 0.53923 0.35898 0.11172 0.0
C1510 C 0.54386 0.39053 0.14217 0.0
N1511 N 0.57876 0.37658 0.12254 0.0
C1512 C 0.56428 0.36047 0.10903 0.0
C1513 C 0.56891 0.39151 0.13899 0.0
C1514 C 0.52901 0.37414 0.12838 0.0
C1515 C 0.68912 0.40523 0.0886 0.0
N1516 N 0.67888 0.38618 0.07532 0.0
C1517 C 0.69904 0.42569 0.07711 0.0
C1518 C 0.6984 0.42654 0.05186 0.0
C1519 C 0.68788 0.40703 0.03847 0.0
C1520 C 0.67812 0.3869 0.05056 0.0
C1521 C 0.71935 0.32332 0.05678 0.0
C1522 C 0.66953 0.3171 0.0606 0.0
C1523 C 0.70632 0.33997 0.06948 0.0
N1524 N 0.68175 0.33659 0.07149 0.0
C1525 C 0.68199 0.29995 0.04795 0.0
C1526 C 0.7071 0.30305 0.0462 0.0
C1527 C 0.62816 0.32491 0.11454 0.0
C1528 C 0.64184 0.39434 0.18752 0.0
C1529 C 0.60862 0.36064 0.16641 0.0
C1530 C 0.61352 0.36002 0.19135 0.0
C1531 C 0.63027 0.37699 0.20193 0.0
N1532 N 0.62003 0.37772 0.15238 0.0
C1533 C 0.63646 0.39444 0.16264 0.0
Co1534 Co 0.12795 0.12664 0.66106 0.0
Co1535 Co 0.10489 0.12421 0.60272 0.0
O1536 O 0.12716 0.1137 0.62804 0.0
C1537 C 0.17978 0.13517 0.64676 0.0
O1538 O 0.17146 0.14643 0.62768 0.0
C1539 C 0.08389 0.07871 0.58083 0.0
O1540 O 0.06275 0.08407 0.58908 0.0
O1541 O 0.07675 0.11638 0.62362 0.0
O1542 O 0.09105 0.1278 0.66071 0.0
H1543 H 0.02982 0.16248 0.57193 0.0
H1544 H 0.15319 0.082 0.65047 0.0
O1545 O 0.16485 0.12592 0.66193 0.0
H1546 H 0.09292 0.05862 0.71133 0.0
H1547 H 0.15888 0.13247 0.74771 0.0
H1548 H 0.10282 0.16501 0.68654 0.0
H1549 H 0.09682 0.1006 0.69671 0.0
H1550 H 0.15653 0.11601 0.70595 0.0
O1551 O 0.10299 0.09046 0.5889 0.0
H1552 H 0.06104 0.15258 0.60245 0.0
H1553 H 0.10088 0.11843 0.54843 0.0
H1554 H 0.10446 0.1819 0.7281 0.0
H1555 H 0.15006 0.03985 0.66475 0.0
H1556 H 0.13264 0.16561 0.75902 0.0
H1557 H 0.11973 0.02794 0.69537 0.0
O1558 O 0.13052 0.16036 0.64912 0.0
H1559 H 0.18483 0.10811 0.56637 0.0
H1560 H 0.12123 0.16677 0.57296 0.0
H1561 H 0.15752 0.17731 0.5495 0.0
H1562 H 0.1898 0.14795 0.54638 0.0
H1563 H 0.14841 0.09844 0.5899 0.0
H1564 H 0.06998 0.12778 0.51734 0.0
H1565 H 0.03366 0.14935 0.52927 0.0
O1566 O 0.10684 0.15813 0.61541 0.0
C1567 C 0.07341 0.12187 0.64572 0.0
C1568 C 0.04536 0.15279 0.56661 0.0
C1569 C 0.06791 0.13337 0.53597 0.0
N1570 N 0.0825 0.13438 0.57739 0.0
C1571 C 0.06311 0.1471 0.58382 0.0
C1572 C 0.08536 0.12809 0.55368 0.0
C1573 C 0.04763 0.14554 0.54261 0.0
C1574 C 0.14005 0.07697 0.66391 0.0
N1575 N 0.12528 0.09374 0.67283 0.0
C1576 C 0.13832 0.05307 0.67188 0.0
C1577 C 0.12128 0.04639 0.68904 0.0
C1578 C 0.10622 0.0636 0.698 0.0
C1579 C 0.10846 0.08732 0.6896 0.0
C1580 C 0.14648 0.13968 0.73442 0.0
C1581 C 0.115 0.15771 0.69994 0.0
C1582 C 0.1451 0.13046 0.71075 0.0
N1583 N 0.12939 0.1394 0.69392 0.0
C1584 C 0.11591 0.1674 0.72342 0.0
C1585 C 0.13175 0.15827 0.74075 0.0
C1586 C 0.1191 0.17018 0.63177 0.0
C1587 C 0.17093 0.12108 0.56769 0.0
C1588 C 0.13516 0.15392 0.57169 0.0
C1589 C 0.15565 0.15995 0.5583 0.0
C1590 C 0.1737 0.14344 0.55645 0.0
N1591 N 0.13266 0.13202 0.58285 0.0
C1592 C 0.1502 0.11566 0.5809 0.0
Co1593 Co 0.35386 0.63075 0.09259 0.0
Co1594 Co 0.39998 0.61533 0.13165 0.0
O1595 O 0.36772 0.60979 0.1168 0.0
C1596 C 0.31708 0.62732 0.12979 0.0
O1597 O 0.33453 0.63056 0.14633 0.0
C1598 C 0.39799 0.56408 0.11324 0.0
O1599 O 0.39064 0.57324 0.09262 0.0
O1600 O 0.41506 0.61858 0.09921 0.0
O1601 O 0.38586 0.63648 0.0776 0.0
H1602 H 0.48004 0.6608 0.14815 0.0
H1603 H 0.33 0.58216 0.09986 0.0
O1604 O 0.32162 0.62619 0.1074 0.0
H1605 H 0.35814 0.58147 0.01597 0.0
H1606 H 0.28758 0.65503 0.03485 0.0
H1607 H 0.36757 0.6789 0.07234 0.0
H1608 H 0.36375 0.61839 0.04124 0.0
H1609 H 0.30849 0.62712 0.0619 0.0
O1610 O 0.40376 0.57853 0.13107 0.0
H1611 H 0.44085 0.65187 0.12647 0.0
H1612 H 0.42782 0.58955 0.16947 0.0
H1613 H 0.346 0.70834 0.04776 0.0
H1614 H 0.32316 0.54511 0.07484 0.0
H1615 H 0.30619 0.69617 0.02794 0.0
H1616 H 0.33745 0.54457 0.0326 0.0
O1617 O 0.36105 0.65984 0.11341 0.0
H1618 H 0.34592 0.57662 0.19365 0.0
H1619 H 0.40346 0.64525 0.1769 0.0
H1620 H 0.38455 0.64262 0.21676 0.0
H1621 H 0.3556 0.60807 0.22537 0.0
H1622 H 0.36502 0.5801 0.15394 0.0
H1623 H 0.46733 0.59727 0.19096 0.0
H1624 H 0.49347 0.63342 0.18073 0.0
O1625 O 0.39634 0.65202 0.13227 0.0
C1626 C 0.4075 0.62997 0.0807 0.0
C1627 C 0.46873 0.64508 0.1529 0.0
C1628 C 0.46163 0.60937 0.17687 0.0
N1629 N 0.43196 0.62035 0.14687 0.0
C1630 C 0.44651 0.63993 0.14069 0.0
C1631 C 0.43939 0.60497 0.16448 0.0
C1632 C 0.47627 0.62969 0.17115 0.0
C1633 C 0.33578 0.58222 0.08132 0.0
N1634 N 0.34715 0.60244 0.072 0.0
C1635 C 0.332 0.56114 0.0673 0.0
C1636 C 0.34005 0.56084 0.04361 0.0
C1637 C 0.3516 0.58156 0.03423 0.0
C1638 C 0.35488 0.60236 0.0487 0.0
C1639 C 0.3051 0.66044 0.04306 0.0
C1640 C 0.35001 0.67361 0.06423 0.0
C1641 C 0.31714 0.64463 0.05821 0.0
N1642 N 0.33928 0.65135 0.06865 0.0
C1643 C 0.33799 0.69028 0.05011 0.0
C1644 C 0.31553 0.68351 0.0392 0.0
C1645 C 0.38017 0.66674 0.12559 0.0
C1646 C 0.35858 0.5917 0.19015 0.0
C1647 C 0.39081 0.63021 0.18047 0.0
C1648 C 0.38021 0.62879 0.2031 0.0
C1649 C 0.36399 0.60939 0.20792 0.0
N1650 N 0.38546 0.61277 0.16315 0.0
C1651 C 0.36956 0.5937 0.16774 0.0
Co1652 Co 0.87312 0.1077 0.38192 0.0
Co1653 Co 0.86237 0.15644 0.41895 0.0
O1654 O 0.87998 0.14073 0.39372 0.0
C1655 C 0.92528 0.11091 0.39811 0.0
O1656 O 0.91728 0.12126 0.41757 0.0
C1657 C 0.85609 0.18695 0.3764 0.0
O1658 O 0.85199 0.16721 0.36328 0.0
O1659 O 0.83057 0.14522 0.40443 0.0
O1660 O 0.83652 0.11196 0.3823 0.0
H1661 H 0.795 0.16426 0.47705 0.0
H1662 H 0.90737 0.1403 0.35551 0.0
O1663 O 0.90988 0.10306 0.38157 0.0
H1664 H 0.84039 0.11883 0.29685 0.0
H1665 H 0.88152 0.03838 0.32392 0.0
H1666 H 0.83766 0.06797 0.39382 0.0
H1667 H 0.84018 0.10216 0.33811 0.0
H1668 H 0.8943 0.07735 0.34384 0.0
O1669 O 0.86135 0.18605 0.39896 0.0
H1670 H 0.82103 0.1422 0.44991 0.0
H1671 H 0.86617 0.20586 0.44088 0.0
H1672 H 0.82448 0.02882 0.3747 0.0
H1673 H 0.90841 0.15718 0.31436 0.0
H1674 H 0.84565 0.01444 0.33875 0.0
H1675 H 0.87472 0.14652 0.28473 0.0
O1676 O 0.87212 0.09495 0.41565 0.0
H1677 H 0.94702 0.19467 0.4187 0.0
H1678 H 0.8841 0.15554 0.46892 0.0
H1679 H 0.9238 0.16863 0.48773 0.0
H1680 H 0.95559 0.18836 0.46254 0.0
H1681 H 0.90714 0.18105 0.40059 0.0
H1682 H 0.84136 0.22829 0.46889 0.0
H1683 H 0.80515 0.20764 0.4867 0.0
O1684 O 0.86243 0.12674 0.43878 0.0
C1685 C 0.82257 0.12722 0.39156 0.0
C1686 C 0.81072 0.17348 0.46935 0.0
C1687 C 0.83675 0.2094 0.46482 0.0
N1688 N 0.84503 0.17275 0.44376 0.0
C1689 C 0.82558 0.16105 0.45408 0.0
C1690 C 0.85082 0.19657 0.4491 0.0
C1691 C 0.81643 0.1978 0.47479 0.0
C1692 C 0.89279 0.13532 0.34263 0.0
N1693 N 0.87385 0.12009 0.34916 0.0
C1694 C 0.89341 0.14505 0.31939 0.0
C1695 C 0.87448 0.1391 0.30279 0.0
C1696 C 0.8552 0.12358 0.30959 0.0
C1697 C 0.85515 0.11425 0.333 0.0
C1698 C 0.87187 0.0447 0.33933 0.0
C1699 C 0.84748 0.06142 0.37866 0.0
C1700 C 0.87916 0.06661 0.35079 0.0
N1701 N 0.86645 0.07506 0.36966 0.0
C1702 C 0.83986 0.03931 0.36784 0.0
C1703 C 0.85184 0.0312 0.34773 0.0
C1704 C 0.86661 0.1045 0.43575 0.0
C1705 C 0.93329 0.18617 0.42987 0.0
C1706 C 0.89787 0.16406 0.45784 0.0
C1707 C 0.92029 0.17148 0.4686 0.0
C1708 C 0.9381 0.18258 0.45447 0.0
N1709 N 0.89331 0.16761 0.4337 0.0
C1710 C 0.91066 0.1785 0.41973 0.0
Co1711 Co 0.37628 0.41892 0.91401 0.0
Co1712 Co 0.38137 0.39613 0.85625 0.0
O1713 O 0.38967 0.39696 0.89079 0.0
C1714 C 0.42331 0.40576 0.9357 0.0
O1715 O 0.4212 0.38573 0.9227 0.0
C1716 C 0.36729 0.34216 0.86075 0.0
O1717 O 0.34462 0.34731 0.86352 0.0
O1718 O 0.34643 0.39349 0.86313 0.0
O1719 O 0.34339 0.41552 0.89721 0.0
H1720 H 0.33467 0.41764 0.7807 0.0
H1721 H 0.35432 0.36905 0.90563 0.0
O1722 O 0.4088 0.42256 0.93153 0.0
H1723 H 0.37162 0.37533 0.99353 0.0
H1724 H 0.37926 0.49546 0.9637 0.0
H1725 H 0.32933 0.42216 0.9395 0.0
H1726 H 0.38029 0.41015 0.9672 0.0
H1727 H 0.39555 0.46466 0.93711 0.0
O1728 O 0.38354 0.3592 0.85724 0.0
H1729 H 0.34606 0.4201 0.82423 0.0
H1730 H 0.39834 0.36756 0.8147 0.0
H1731 H 0.31165 0.45356 0.96458 0.0
H1732 H 0.34456 0.33399 0.93136 0.0
H1733 H 0.33688 0.49013 0.97738 0.0
H1734 H 0.35331 0.33696 0.97572 0.0
O1735 O 0.38523 0.44685 0.89332 0.0
H1736 H 0.46886 0.37631 0.86623 0.0
H1737 H 0.41124 0.42772 0.82401 0.0
H1738 H 0.45486 0.43272 0.81568 0.0
H1739 H 0.48399 0.40684 0.83682 0.0
H1740 H 0.42513 0.37205 0.87414 0.0
H1741 H 0.38742 0.36441 0.77107 0.0
H1742 H 0.35542 0.38963 0.7538 0.0
O1743 O 0.37931 0.43294 0.85514 0.0
C1744 C 0.33397 0.404 0.87873 0.0
C1745 C 0.34872 0.40663 0.78798 0.0
C1746 C 0.37829 0.37672 0.78259 0.0
N1747 N 0.37301 0.39417 0.82192 0.0
C1748 C 0.3553 0.40801 0.8126 0.0
C1749 C 0.38438 0.37856 0.8073 0.0
C1750 C 0.36034 0.39089 0.77291 0.0
C1751 C 0.35772 0.37067 0.92488 0.0
N1752 N 0.36756 0.39179 0.93481 0.0
C1753 C 0.3523 0.35069 0.9394 0.0
C1754 C 0.35722 0.35235 0.96428 0.0
C1755 C 0.36739 0.37389 0.9743 0.0
C1756 C 0.37229 0.39356 0.95925 0.0
C1757 C 0.36813 0.47947 0.95842 0.0
C1758 C 0.34021 0.43835 0.94448 0.0
C1759 C 0.37733 0.46184 0.94353 0.0
N1760 N 0.3634 0.44161 0.93671 0.0
C1761 C 0.33021 0.45591 0.95892 0.0
C1762 C 0.34435 0.47649 0.96605 0.0
C1763 C 0.38266 0.45038 0.87065 0.0
C1764 C 0.45634 0.38767 0.85688 0.0
C1765 C 0.42382 0.41649 0.83338 0.0
C1766 C 0.44849 0.41935 0.82853 0.0
C1767 C 0.46482 0.40482 0.84039 0.0
N1768 N 0.41564 0.39958 0.84951 0.0
C1769 C 0.43155 0.3853 0.86125 0.0
Co1770 Co 0.14504 0.9136 0.40218 0.0
Co1771 Co 0.16458 0.86726 0.43786 0.0
O1772 O 0.143 0.88034 0.41338 0.0
C1773 C 0.09268 0.92647 0.4087 0.0
O1774 O 0.1003 0.94774 0.41754 0.0
C1775 C 0.1695 0.83754 0.39453 0.0
O1776 O 0.17182 0.85786 0.38259 0.0
O1777 O 0.19345 0.88138 0.42229 0.0
O1778 O 0.18225 0.9147 0.40292 0.0
H1779 H 0.23502 0.8702 0.49775 0.0
H1780 H 0.11442 0.87679 0.37402 0.0
O1781 O 0.10803 0.91163 0.40148 0.0
H1782 H 0.17544 0.90829 0.31724 0.0
H1783 H 0.12348 0.98166 0.34699 0.0
H1784 H 0.17422 0.95776 0.41678 0.0
H1785 H 0.17524 0.92406 0.35913 0.0
H1786 H 0.11881 0.94042 0.3635 0.0
O1787 O 0.16645 0.83764 0.4173 0.0
H1788 H 0.20517 0.88748 0.46975 0.0
H1789 H 0.17076 0.8178 0.45713 0.0
H1790 H 0.1791 0.99931 0.40126 0.0
H1791 H 0.11359 0.861 0.33211 0.0
H1792 H 0.1542 0.01125 0.36578 0.0
H1793 H 0.14436 0.87662 0.30343 0.0
O1794 O 0.14521 0.92591 0.43629 0.0
H1795 H 0.08402 0.8207 0.44118 0.0
H1796 H 0.14852 0.86636 0.48877 0.0
H1797 H 0.11278 0.84894 0.50949 0.0
H1798 H 0.0802 0.82591 0.48564 0.0
H1799 H 0.12015 0.83842 0.42121 0.0
H1800 H 0.20097 0.79961 0.4841 0.0
H1801 H 0.2334 0.82588 0.50465 0.0
O1802 O 0.16314 0.89707 0.45797 0.0
C1803 C 0.19848 0.9005 0.41054 0.0
C1804 C 0.22099 0.85856 0.4889 0.0
C1805 C 0.20193 0.81894 0.48117 0.0
N1806 N 0.18619 0.85368 0.46183 0.0
C1807 C 0.20385 0.86828 0.47322 0.0
C1808 C 0.18488 0.82934 0.4659 0.0
C1809 C 0.22011 0.83369 0.4927 0.0
C1810 C 0.12765 0.88399 0.36158 0.0
N1811 N 0.14477 0.90146 0.36903 0.0
C1812 C 0.12717 0.87486 0.33788 0.0
C1813 C 0.14447 0.88359 0.32182 0.0
C1814 C 0.16194 0.90133 0.32957 0.0
C1815 C 0.16181 0.91009 0.35337 0.0
C1816 C 0.1345 0.97665 0.36248 0.0
C1817 C 0.16288 0.96302 0.40164 0.0
C1818 C 0.13194 0.95334 0.37187 0.0
N1819 N 0.14637 0.94669 0.39094 0.0
C1820 C 0.16578 0.98653 0.3929 0.0
C1821 C 0.15167 0.99326 0.37302 0.0
C1822 C 0.15466 0.91795 0.4558 0.0
C1823 C 0.09813 0.83064 0.45177 0.0
C1824 C 0.13443 0.85634 0.47828 0.0
C1825 C 0.11423 0.84652 0.49011 0.0
C1826 C 0.09598 0.83359 0.47672 0.0
N1827 N 0.13646 0.85325 0.45384 0.0
C1828 C 0.11863 0.84066 0.44057 0.0
Co1829 Co 0.64929 0.61359 0.91829 0.0
Co1830 Co 0.65411 0.63411 0.86061 0.0
O1831 O 0.64023 0.63566 0.89269 0.0
C1832 C 0.59638 0.6235 0.92728 0.0
O1833 O 0.5942 0.63867 0.90931 0.0
C1834 C 0.66249 0.68702 0.87386 0.0
O1835 O 0.67426 0.68003 0.89336 0.0
O1836 O 0.68748 0.63754 0.87514 0.0
O1837 O 0.68289 0.6126 0.9065 0.0
H1838 H 0.71126 0.60601 0.79841 0.0
H1839 H 0.62948 0.66161 0.92994 0.0
O1840 O 0.61609 0.61316 0.93146 0.0
H1841 H 0.70863 0.66141 0.97338 0.0
H1842 H 0.64647 0.57898 1.00231 0.0
H1843 H 0.67733 0.56939 0.92008 0.0
H1844 H 0.69288 0.62555 0.94998 0.0
H1845 H 0.6391 0.60952 0.97108 0.0
O1846 O 0.65328 0.67104 0.85872 0.0
H1847 H 0.69318 0.60724 0.83871 0.0
H1848 H 0.64499 0.65974 0.81432 0.0
H1849 H 0.68527 0.53862 0.95078 0.0
H1850 H 0.6442 0.69747 0.95362 0.0
H1851 H 0.66926 0.54292 0.99193 0.0
H1852 H 0.68431 0.6978 0.97517 0.0
O1853 O 0.63897 0.58558 0.89714 0.0
H1854 H 0.5675 0.65619 0.84888 0.0
H1855 H 0.62914 0.60028 0.8244 0.0
H1856 H 0.58761 0.59528 0.80669 0.0
H1857 H 0.55647 0.6234 0.81888 0.0
H1858 H 0.6092 0.66038 0.8663 0.0
H1859 H 0.66267 0.65923 0.77379 0.0
H1860 H 0.69598 0.63214 0.76562 0.0
O1861 O 0.65533 0.59694 0.86209 0.0
C1862 C 0.6961 0.62494 0.89217 0.0
C1863 C 0.69669 0.61783 0.80173 0.0
C1864 C 0.66944 0.64773 0.78792 0.0
N1865 N 0.66793 0.63339 0.82877 0.0
C1866 C 0.68634 0.61855 0.82448 0.0
C1867 C 0.65954 0.64798 0.8109 0.0
C1868 C 0.68813 0.63251 0.78334 0.0
C1869 C 0.64649 0.66111 0.93987 0.0
N1870 N 0.65997 0.64116 0.93884 0.0
C1871 C 0.65492 0.68169 0.95305 0.0
C1872 C 0.67746 0.6819 0.96508 0.0
C1873 C 0.69112 0.6615 0.96405 0.0
C1874 C 0.68202 0.64119 0.95083 0.0
C1875 C 0.65345 0.57684 0.98434 0.0
C1876 C 0.67076 0.57174 0.93813 0.0
C1877 C 0.6493 0.59405 0.96656 0.0
N1878 N 0.6577 0.59121 0.94369 0.0
C1879 C 0.67524 0.55419 0.95543 0.0
C1880 C 0.66632 0.55669 0.97859 0.0
C1881 C 0.64714 0.5804 0.87648 0.0
C1882 C 0.58091 0.64383 0.84341 0.0
C1883 C 0.61564 0.61247 0.82994 0.0
C1884 C 0.59218 0.60961 0.81977 0.0
C1885 C 0.57473 0.62541 0.8266 0.0
N1886 N 0.62156 0.63058 0.84641 0.0
C1887 C 0.60456 0.64615 0.85318 0.0
Co1888 Co 0.60517 0.89354 0.8706 0.0
Co1889 Co 0.66606 0.88617 0.88199 0.0
O1890 O 0.63164 0.878 0.88726 0.0
C1891 C 0.59119 0.88988 0.92307 0.0
O1892 O 0.61322 0.88507 0.93024 0.0
C1893 C 0.65897 0.83307 0.87074 0.0
O1894 O 0.64113 0.83914 0.85618 0.0
O1895 O 0.66122 0.88392 0.84626 0.0
O1896 O 0.6229 0.89407 0.83976 0.0
H1897 H 0.73737 0.92995 0.84439 0.0
H1898 H 0.59563 0.84744 0.8967 0.0
O1899 O 0.58592 0.89349 0.90081 0.0
H1900 H 0.5657 0.83125 0.8128 0.0
H1901 H 0.51795 0.90855 0.84871 0.0
H1902 H 0.60347 0.93377 0.83596 0.0
H1903 H 0.58413 0.87135 0.82461 0.0
H1904 H 0.55079 0.88804 0.87015 0.0
O1905 O 0.67169 0.84977 0.88242 0.0
H1906 H 0.6939 0.92049 0.85104 0.0
H1907 H 0.7116 0.86682 0.90208 0.0
H1908 H 0.57122 0.95433 0.81393 0.0
H1909 H 0.57709 0.80719 0.88575 0.0
H1910 H 0.52816 0.94159 0.82004 0.0
H1911 H 0.56196 0.79887 0.84351 0.0
O1912 O 0.61989 0.92564 0.87983 0.0
H1913 H 0.66315 0.85434 0.96669 0.0
H1914 H 0.68936 0.92324 0.91611 0.0
H1915 H 0.69703 0.92557 0.96032 0.0
H1916 H 0.68404 0.89086 0.98598 0.0
H1917 H 0.65462 0.85335 0.92278 0.0
H1918 H 0.75526 0.87555 0.89587 0.0
H1919 H 0.76838 0.90739 0.86691 0.0
O1920 O 0.66034 0.92285 0.88103 0.0
C1921 C 0.64355 0.88889 0.83223 0.0
C1922 C 0.73188 0.91611 0.85713 0.0
C1923 C 0.74193 0.88554 0.886 0.0
N1924 N 0.70027 0.89331 0.87711 0.0
C1925 C 0.70731 0.91074 0.86103 0.0
C1926 C 0.71719 0.88066 0.88942 0.0
C1927 C 0.74927 0.90342 0.86975 0.0
C1928 C 0.58879 0.84411 0.87839 0.0
N1929 N 0.5906 0.86191 0.86147 0.0
C1930 C 0.57846 0.8212 0.87224 0.0
C1931 C 0.57003 0.81652 0.84853 0.0
C1932 C 0.57215 0.83468 0.83129 0.0
C1933 C 0.58261 0.85736 0.83809 0.0
C1934 C 0.53667 0.91406 0.84577 0.0
C1935 C 0.58475 0.928 0.83868 0.0
C1936 C 0.55534 0.90261 0.85791 0.0
N1937 N 0.57906 0.90949 0.85408 0.0
C1938 C 0.56657 0.93979 0.82621 0.0
C1939 C 0.54238 0.93266 0.82973 0.0
C1940 C 0.64132 0.93541 0.88121 0.0
C1941 C 0.66874 0.86969 0.95583 0.0
C1942 C 0.68313 0.90831 0.9272 0.0
C1943 C 0.68773 0.90964 0.95221 0.0
C1944 C 0.6805 0.89015 0.96659 0.0
N1945 N 0.67144 0.88822 0.91684 0.0
C1946 C 0.66416 0.86912 0.93085 0.0
Co1947 Co 0.62542 0.13161 0.41346 0.0
Co1948 Co 0.63829 0.09434 0.36631 0.0
O1949 O 0.61892 0.11865 0.38089 0.0
C1950 C 0.57247 0.11659 0.41178 0.0
O1951 O 0.57935 0.09537 0.4048 0.0
C1952 C 0.63627 0.13253 0.33021 0.0
O1953 O 0.64077 0.14805 0.34807 0.0
O1954 O 0.66823 0.11487 0.37243 0.0
O1955 O 0.66232 0.1302 0.40951 0.0
H1956 H 0.71229 0.04682 0.35695 0.0
H1957 H 0.59387 0.15803 0.3795 0.0
O1958 O 0.58866 0.13342 0.41718 0.0
H1959 H 0.66242 0.21562 0.40153 0.0
H1960 H 0.61117 0.18709 0.48372 0.0
H1961 H 0.65917 0.1208 0.45426 0.0
H1962 H 0.66009 0.17465 0.41878 0.0
H1963 H 0.6037 0.17 0.44256 0.0
O1964 O 0.63404 0.10992 0.33414 0.0
H1965 H 0.68519 0.07297 0.37857 0.0
H1966 H 0.63249 0.06458 0.32109 0.0
H1967 H 0.66738 0.13748 0.49551 0.0
H1968 H 0.59533 0.19891 0.36208 0.0
H1969 H 0.64342 0.17103 0.51035 0.0
H1970 H 0.62984 0.228 0.37301 0.0
O1971 O 0.62433 0.09823 0.42702 0.0
H1972 H 0.55113 0.0774 0.33969 0.0
H1973 H 0.62353 0.04317 0.37741 0.0
H1974 H 0.58499 0.01885 0.37543 0.0
H1975 H 0.5484 0.03575 0.35611 0.0
H1976 H 0.58977 0.1019 0.34377 0.0
H1977 H 0.65805 0.03644 0.29991 0.0
H1978 H 0.6985 0.02774 0.31764 0.0
O1979 O 0.64372 0.07856 0.39819 0.0
C1980 C 0.67627 0.125 0.39207 0.0
C1981 C 0.69462 0.05024 0.34914 0.0
C1982 C 0.66423 0.04451 0.31709 0.0
N1983 N 0.65739 0.07046 0.35102 0.0
C1984 C 0.67927 0.06518 0.36123 0.0
C1985 C 0.64975 0.0603 0.32926 0.0
C1986 C 0.68692 0.03966 0.32703 0.0
C1987 C 0.60878 0.17068 0.3846 0.0
N1988 N 0.62681 0.16399 0.40024 0.0
C1989 C 0.60958 0.19376 0.37456 0.0
C1990 C 0.62898 0.21006 0.38066 0.0
C1991 C 0.64728 0.20311 0.39664 0.0
C1992 C 0.6459 0.17986 0.40629 0.0
C1993 C 0.62181 0.17256 0.4774 0.0
C1994 C 0.64869 0.1354 0.46063 0.0
C1995 C 0.6176 0.16275 0.45415 0.0
N1996 N 0.63113 0.14457 0.44599 0.0
C1997 C 0.65339 0.14474 0.48399 0.0
C1998 C 0.63991 0.16353 0.49234 0.0
C1999 C 0.63562 0.08024 0.41948 0.0
C2000 C 0.56694 0.06979 0.34803 0.0
C2001 C 0.60769 0.05087 0.3693 0.0
C2002 C 0.58591 0.03689 0.36803 0.0
C2003 C 0.56541 0.04643 0.35728 0.0
N2004 N 0.60887 0.07403 0.36086 0.0
C2005 C 0.58893 0.08348 0.35015 0.0
Co2006 Co 0.43277 0.13722 0.86976 0.0
Co2007 Co 0.37353 0.14577 0.88487 0.0
O2008 O 0.40836 0.15334 0.88757 0.0
C2009 C 0.46284 0.1198 0.91089 0.0
O2010 O 0.45732 0.0975 0.90347 0.0
C2011 C 0.38042 0.19792 0.87115 0.0
O2012 O 0.39833 0.19117 0.85801 0.0
O2013 O 0.37409 0.14422 0.84892 0.0
O2014 O 0.4126 0.13763 0.83926 0.0
H2015 H 0.29724 0.09994 0.85501 0.0
H2016 H 0.4464 0.18209 0.89808 0.0
O2017 O 0.45315 0.13737 0.90031 0.0
H2018 H 0.46885 0.20017 0.81413 0.0
H2019 H 0.51872 0.12136 0.84855 0.0
H2020 H 0.43223 0.09717 0.83364 0.0
H2021 H 0.45046 0.16014 0.82445 0.0
H2022 H 0.48692 0.1427 0.86914 0.0
O2023 O 0.36809 0.18199 0.8831 0.0
H2024 H 0.34145 0.10909 0.85836 0.0
H2025 H 0.33098 0.16778 0.90631 0.0
H2026 H 0.46343 0.07558 0.81241 0.0
H2027 H 0.46498 0.22227 0.8886 0.0
H2028 H 0.50704 0.0876 0.81991 0.0
H2029 H 0.4763 0.23154 0.84635 0.0
O2030 O 0.41756 0.10481 0.87744 0.0
H2031 H 0.39367 0.18234 0.96711 0.0
H2032 H 0.35273 0.1133 0.92254 0.0
H2033 H 0.35325 0.11382 0.96713 0.0
H2034 H 0.37377 0.14868 0.98979 0.0
H2035 H 0.39319 0.18077 0.92243 0.0
H2036 H 0.28664 0.15939 0.90337 0.0
H2037 H 0.26951 0.1252 0.87763 0.0
O2038 O 0.37859 0.10956 0.88617 0.0
C2039 C 0.39041 0.14066 0.83363 0.0
C2040 C 0.30448 0.11485 0.86632 0.0
C2041 C 0.29853 0.14824 0.89344 0.0
N2042 N 0.33876 0.13886 0.8826 0.0
C2043 C 0.3295 0.12008 0.86833 0.0
C2044 C 0.32364 0.15294 0.89499 0.0
C2045 C 0.28894 0.12905 0.87901 0.0
C2046 C 0.45146 0.1859 0.87969 0.0
N2047 N 0.44745 0.16872 0.86187 0.0
C2048 C 0.46188 0.20873 0.87441 0.0
C2049 C 0.4682 0.21393 0.8507 0.0
C2050 C 0.464 0.19635 0.83261 0.0
C2051 C 0.4535 0.17374 0.83855 0.0
C2052 C 0.49978 0.11602 0.84508 0.0
C2053 C 0.45115 0.10264 0.83683 0.0
C2054 C 0.48169 0.12799 0.85672 0.0
N2055 N 0.45772 0.12119 0.85258 0.0
C2056 C 0.46875 0.09031 0.82481 0.0
C2057 C 0.49321 0.09706 0.82903 0.0
C2058 C 0.39652 0.09617 0.88282 0.0
C2059 C 0.38461 0.16714 0.95747 0.0
C2060 C 0.36177 0.12844 0.93224 0.0
C2061 C 0.36192 0.1287 0.95753 0.0
C2062 C 0.37343 0.14822 0.97019 0.0
N2063 N 0.37282 0.14704 0.91991 0.0
C2064 C 0.38417 0.16621 0.93217 0.0
Co2065 Co 0.39616 0.89138 0.41083 0.0
Co2066 Co 0.37732 0.92346 0.36142 0.0
O2067 O 0.3968 0.89912 0.37651 0.0
C2068 C 0.44812 0.90251 0.40054 0.0
O2069 O 0.44037 0.92144 0.38917 0.0
C2070 C 0.35415 0.89446 0.32102 0.0
O2071 O 0.33301 0.90125 0.32805 0.0
O2072 O 0.34752 0.90803 0.37456 0.0
O2073 O 0.35946 0.89465 0.41108 0.0
H2074 H 0.3094 0.97994 0.35645 0.0
H2075 H 0.41913 0.8586 0.37668 0.0
O2076 O 0.43287 0.88818 0.41106 0.0
H2077 H 0.35403 0.80859 0.41408 0.0
H2078 H 0.42162 0.84662 0.48542 0.0
H2079 H 0.37126 0.91052 0.45307 0.0
H2080 H 0.36145 0.85154 0.42575 0.0
H2081 H 0.42112 0.85601 0.44178 0.0
O2082 O 0.37363 0.9019 0.33232 0.0
H2083 H 0.33702 0.95267 0.37684 0.0
H2084 H 0.37558 0.94506 0.31204 0.0
H2085 H 0.37105 0.9016 0.49676 0.0
H2086 H 0.41247 0.81566 0.3646 0.0
H2087 H 0.39645 0.86959 0.51307 0.0
H2088 H 0.37969 0.79036 0.38335 0.0
O2089 O 0.40158 0.92609 0.41996 0.0
H2090 H 0.45671 0.92478 0.31896 0.0
H2091 H 0.39903 0.97396 0.36146 0.0
H2092 H 0.43686 0.99337 0.34677 0.0
H2093 H 0.46599 0.96885 0.32519 0.0
H2094 H 0.41892 0.90586 0.33457 0.0
H2095 H 0.34922 0.97348 0.29127 0.0
H2096 H 0.31564 0.99092 0.31342 0.0
O2097 O 0.38067 0.94486 0.39074 0.0
C2098 C 0.34284 0.90001 0.39551 0.0
C2099 C 0.32407 0.97266 0.34661 0.0
C2100 C 0.34638 0.96896 0.31004 0.0
N2101 N 0.3578 0.94719 0.34562 0.0
C2102 C 0.33972 0.95711 0.35806 0.0
C2103 C 0.36133 0.95301 0.32193 0.0
C2104 C 0.32753 0.97872 0.32247 0.0
C2105 C 0.40495 0.84765 0.38502 0.0
N2106 N 0.39079 0.8575 0.40199 0.0
C2107 C 0.40121 0.82337 0.37807 0.0
C2108 C 0.3828 0.8092 0.38857 0.0
C2109 C 0.36838 0.81941 0.40581 0.0
C2110 C 0.37263 0.84376 0.4123 0.0
C2111 C 0.41047 0.86063 0.47844 0.0
C2112 C 0.38218 0.89638 0.46007 0.0
C2113 C 0.41015 0.86605 0.4538 0.0
N2114 N 0.39604 0.88366 0.44493 0.0
C2115 C 0.38204 0.89147 0.4848 0.0
C2116 C 0.39631 0.87348 0.49398 0.0
C2117 C 0.39177 0.94454 0.41131 0.0
C2118 C 0.44412 0.9357 0.32822 0.0
C2119 C 0.41167 0.96305 0.35229 0.0
C2120 C 0.43303 0.97421 0.34387 0.0
C2121 C 0.44934 0.96042 0.33177 0.0
N2122 N 0.40671 0.93878 0.34883 0.0
C2123 C 0.4226 0.92512 0.33696 0.0
Co2124 Co 0.58492 0.14538 0.1525 0.0
Co2125 Co 0.62182 0.12736 0.10752 0.0
O2126 O 0.60966 0.12523 0.14018 0.0
C2127 C 0.62488 0.14994 0.18906 0.0
O2128 O 0.64017 0.15218 0.17139 0.0
C2129 C 0.61517 0.07482 0.09241 0.0
O2130 O 0.60535 0.0814 0.0717 0.0
O2131 O 0.58803 0.12418 0.09344 0.0
O2132 O 0.56726 0.14459 0.12063 0.0
H2133 H 0.62393 0.15644 0.02168 0.0
H2134 H 0.59721 0.10139 0.17949 0.0
O2135 O 0.60219 0.14701 0.18468 0.0
H2136 H 0.5106 0.08875 0.15582 0.0
H2137 H 0.53194 0.17535 0.2176 0.0
H2138 H 0.55822 0.18678 0.1337 0.0
H2139 H 0.53373 0.12627 0.14492 0.0
H2140 H 0.55943 0.14719 0.19921 0.0
O2141 O 0.6229 0.09085 0.10803 0.0
H2142 H 0.60901 0.15432 0.06336 0.0
H2143 H 0.66086 0.10312 0.08182 0.0
H2144 H 0.53077 0.2154 0.1514 0.0
H2145 H 0.5748 0.06367 0.19094 0.0
H2146 H 0.51798 0.21013 0.19387 0.0
H2147 H 0.53124 0.05715 0.17906 0.0
O2148 O 0.60343 0.17498 0.14263 0.0
H2149 H 0.69029 0.10446 0.16332 0.0
H2150 H 0.66507 0.16078 0.09988 0.0
H2151 H 0.70644 0.16547 0.11798 0.0
H2152 H 0.71932 0.13712 0.14989 0.0
H2153 H 0.64899 0.10065 0.14501 0.0
H2154 H 0.67633 0.10462 0.04032 0.0
H2155 H 0.65778 0.13143 0.00996 0.0
O2156 O 0.62061 0.16413 0.1079 0.0
C2157 C 0.56925 0.13468 0.09994 0.0
C2158 C 0.63216 0.1447 0.03477 0.0
C2159 C 0.66156 0.11561 0.04523 0.0
N2160 N 0.6341 0.12866 0.07497 0.0
C2161 C 0.62381 0.14345 0.05838 0.0
C2162 C 0.65274 0.11483 0.06867 0.0
C2163 C 0.65116 0.13066 0.02819 0.0
C2164 C 0.57815 0.09883 0.17452 0.0
N2165 N 0.56666 0.11619 0.16188 0.0
C2166 C 0.56559 0.07738 0.18096 0.0
C2167 C 0.54113 0.07373 0.17426 0.0
C2168 C 0.52955 0.09146 0.16124 0.0
C2169 C 0.54271 0.11268 0.15514 0.0
C2170 C 0.53763 0.17799 0.19918 0.0
C2171 C 0.55237 0.18411 0.15204 0.0
C2172 C 0.55312 0.16207 0.18864 0.0
N2173 N 0.5606 0.16548 0.16548 0.0
C2174 C 0.53695 0.20046 0.16201 0.0
C2175 C 0.52982 0.19752 0.18586 0.0
C2176 C 0.61445 0.18017 0.12325 0.0
C2177 C 0.68492 0.11687 0.14937 0.0
C2178 C 0.67046 0.1485 0.11389 0.0
C2179 C 0.69396 0.15117 0.12399 0.0
C2180 C 0.70118 0.13524 0.14187 0.0
N2181 N 0.65461 0.13046 0.12134 0.0
C2182 C 0.66159 0.11473 0.13883 0.0
Co2183 Co 0.37814 0.13932 0.63825 0.0
Co2184 Co 0.38111 0.08166 0.66037 0.0
O2185 O 0.36765 0.10535 0.63934 0.0
C2186 C 0.32618 0.13686 0.65134 0.0
O2187 O 0.3331 0.12219 0.6684 0.0
C2188 C 0.3865 0.06195 0.61076 0.0
O2189 O 0.39784 0.08219 0.60424 0.0
O2190 O 0.41452 0.09306 0.65243 0.0
O2191 O 0.41404 0.13141 0.6393 0.0
H2192 H 0.43722 0.0521 0.72571 0.0
H2193 H 0.34223 0.11803 0.60207 0.0
O2194 O 0.3422 0.14686 0.63767 0.0
H2195 H 0.41216 0.14724 0.55492 0.0
H2196 H 0.37094 0.22425 0.60848 0.0
H2197 H 0.41676 0.17128 0.66223 0.0
H2198 H 0.4122 0.15361 0.59928 0.0
H2199 H 0.3594 0.18063 0.61081 0.0
O2200 O 0.37987 0.05863 0.63243 0.0
H2201 H 0.41953 0.08265 0.69925 0.0
H2202 H 0.37265 0.02846 0.6652 0.0
H2203 H 0.42905 0.21474 0.66036 0.0
H2204 H 0.3414 0.11143 0.55789 0.0
H2205 H 0.40605 0.24153 0.63333 0.0
H2206 H 0.37664 0.12556 0.53413 0.0
O2207 O 0.37954 0.14249 0.67429 0.0
H2208 H 0.29374 0.05629 0.64145 0.0
H2209 H 0.35639 0.06985 0.7064 0.0
H2210 H 0.31477 0.05633 0.71695 0.0
H2211 H 0.28311 0.04942 0.68433 0.0
H2212 H 0.33553 0.07 0.63175 0.0
H2213 H 0.38974 0.99726 0.69131 0.0
H2214 H 0.42226 0.00906 0.72186 0.0
O2215 O 0.38207 0.10456 0.68833 0.0
C2216 C 0.4254 0.11257 0.64539 0.0
C2217 C 0.42298 0.04674 0.71254 0.0
C2218 C 0.39638 0.01595 0.69319 0.0
N2219 N 0.39481 0.05734 0.68096 0.0
C2220 C 0.41282 0.06397 0.69758 0.0
C2221 C 0.38674 0.03366 0.67848 0.0
C2222 C 0.41461 0.02259 0.71034 0.0
C2223 C 0.35748 0.12476 0.5918 0.0
N2224 N 0.3772 0.1363 0.60323 0.0
C2225 C 0.35695 0.12083 0.56679 0.0
C2226 C 0.37676 0.12884 0.55345 0.0
C2227 C 0.3967 0.14089 0.56515 0.0
C2228 C 0.39662 0.14445 0.59024 0.0
C2229 C 0.38112 0.21276 0.6203 0.0
C2230 C 0.40677 0.18281 0.65033 0.0
C2231 C 0.37465 0.18808 0.62172 0.0
N2232 N 0.38752 0.17346 0.6365 0.0
C2233 C 0.41376 0.20741 0.64939 0.0
C2234 C 0.40083 0.22244 0.63424 0.0
C2235 C 0.38143 0.12735 0.69142 0.0
C2236 C 0.3074 0.05914 0.65582 0.0
C2237 C 0.34272 0.0669 0.69212 0.0
C2238 C 0.31918 0.05921 0.69819 0.0
C2239 C 0.30144 0.05532 0.67988 0.0
N2240 N 0.34844 0.07051 0.66846 0.0
C2241 C 0.33112 0.06679 0.65042 0.0
Co2242 Co 0.4277 0.84804 0.15491 0.0
Co2243 Co 0.38277 0.86631 0.11628 0.0
O2244 O 0.40122 0.86848 0.14676 0.0
C2245 C 0.39543 0.84358 0.19591 0.0
O2246 O 0.37774 0.83857 0.17994 0.0
C2247 C 0.38576 0.91975 0.10222 0.0
O2248 O 0.39073 0.91351 0.07998 0.0
O2249 O 0.41344 0.86962 0.09801 0.0
O2250 O 0.43845 0.84788 0.12088 0.0
H2251 H 0.36439 0.83797 0.03073 0.0
H2252 H 0.42233 0.89308 0.18337 0.0
O2253 O 0.41707 0.84762 0.18906 0.0
H2254 H 0.50274 0.90302 0.1471 0.0
H2255 H 0.49353 0.81843 0.21019 0.0
H2256 H 0.44893 0.80564 0.13202 0.0
H2257 H 0.47719 0.86546 0.14025 0.0
H2258 H 0.46243 0.84633 0.19709 0.0
O2259 O 0.3819 0.9033 0.11813 0.0
H2260 H 0.38688 0.8396 0.0701 0.0
H2261 H 0.33923 0.89045 0.09708 0.0
H2262 H 0.47995 0.77742 0.14433 0.0
H2263 H 0.44756 0.93066 0.19114 0.0
H2264 H 0.50204 0.78338 0.18394 0.0
H2265 H 0.48804 0.93581 0.17286 0.0
O2266 O 0.40686 0.81869 0.14768 0.0
H2267 H 0.3267 0.8885 0.18203 0.0
H2268 H 0.33853 0.83285 0.11363 0.0
H2269 H 0.30146 0.82787 0.13732 0.0
H2270 H 0.29535 0.85585 0.17179 0.0
H2271 H 0.36359 0.8927 0.15802 0.0
H2272 H 0.31618 0.88939 0.05803 0.0
H2273 H 0.3288 0.86304 0.02451 0.0
O2274 O 0.3838 0.829 0.11547 0.0
C2275 C 0.43288 0.85849 0.1013 0.0
C2276 C 0.35871 0.84951 0.0452 0.0
C2277 C 0.33165 0.87838 0.06052 0.0
N2278 N 0.36433 0.86508 0.08581 0.0
C2279 C 0.37135 0.85049 0.06751 0.0
C2280 C 0.34474 0.8789 0.08258 0.0
C2281 C 0.33874 0.86359 0.04172 0.0
C2282 C 0.44008 0.89503 0.17565 0.0
N2283 N 0.44836 0.87698 0.16158 0.0
C2284 C 0.45424 0.9164 0.18002 0.0
C2285 C 0.47695 0.91929 0.16974 0.0
C2286 C 0.48523 0.90085 0.15532 0.0
C2287 C 0.47063 0.87967 0.15146 0.0
C2288 C 0.48384 0.81552 0.19299 0.0
C2289 C 0.45882 0.80866 0.14906 0.0
C2290 C 0.46625 0.83127 0.18546 0.0
N2291 N 0.45384 0.82757 0.16384 0.0
C2292 C 0.47627 0.79253 0.15599 0.0
C2293 C 0.48865 0.79588 0.17823 0.0
C2294 C 0.39235 0.81306 0.12992 0.0
C2295 C 0.3291 0.87628 0.16699 0.0
C2296 C 0.33603 0.84506 0.12863 0.0
C2297 C 0.31497 0.84219 0.14194 0.0
C2298 C 0.31155 0.85791 0.16126 0.0
N2299 N 0.35316 0.86314 0.13433 0.0
C2300 C 0.34991 0.87864 0.15323 0.0
Co2301 Co 0.63959 0.85003 0.64707 0.0
Co2302 Co 0.62376 0.90848 0.64007 0.0
O2303 O 0.64315 0.88143 0.63178 0.0
C2304 C 0.69187 0.86436 0.65415 0.0
O2305 O 0.68461 0.88515 0.66193 0.0
C2306 C 0.60904 0.92742 0.59222 0.0
O2307 O 0.58627 0.92367 0.59811 0.0
O2308 O 0.59331 0.88832 0.6327 0.0
O2309 O 0.60303 0.85219 0.64741 0.0
H2310 H 0.55379 0.94875 0.67672 0.0
H2311 H 0.66751 0.85509 0.60222 0.0
O2312 O 0.67614 0.84768 0.64726 0.0
H2313 H 0.60062 0.79484 0.58239 0.0
H2314 H 0.65943 0.76333 0.65993 0.0
H2315 H 0.61 0.82963 0.68668 0.0
H2316 H 0.60503 0.81328 0.62326 0.0
H2317 H 0.66294 0.80325 0.64043 0.0
O2318 O 0.62568 0.91885 0.60552 0.0
H2319 H 0.57885 0.91456 0.66721 0.0
H2320 H 0.62776 0.96161 0.62965 0.0
H2321 H 0.60575 0.78995 0.70655 0.0
H2322 H 0.6639 0.83697 0.56116 0.0
H2323 H 0.63059 0.75646 0.69317 0.0
H2324 H 0.63023 0.80664 0.55103 0.0
O2325 O 0.64258 0.86523 0.67979 0.0
H2326 H 0.70844 0.94137 0.62408 0.0
H2327 H 0.64253 0.9389 0.68247 0.0
H2328 H 0.68147 0.96071 0.69332 0.0
H2329 H 0.7146 0.96243 0.66388 0.0
H2330 H 0.66976 0.9186 0.61445 0.0
H2331 H 0.60298 0.99617 0.63836 0.0
H2332 H 0.56578 0.9899 0.66221 0.0
O2333 O 0.62192 0.89867 0.67472 0.0
C2334 C 0.58736 0.86699 0.63997 0.0
C2335 C 0.56998 0.95172 0.66633 0.0
C2336 C 0.59763 0.97835 0.64489 0.0
N2337 N 0.60467 0.93597 0.64771 0.0
C2338 C 0.58424 0.93241 0.66087 0.0
C2339 C 0.61154 0.95866 0.63994 0.0
C2340 C 0.57672 0.97481 0.65821 0.0
C2341 C 0.65292 0.84178 0.59798 0.0
N2342 N 0.63659 0.83515 0.61512 0.0
C2343 C 0.65092 0.83163 0.57469 0.0
C2344 C 0.63201 0.81464 0.56901 0.0
C2345 C 0.61538 0.80802 0.58659 0.0
C2346 C 0.61794 0.81856 0.60968 0.0
C2347 C 0.64847 0.77776 0.66588 0.0
C2348 C 0.62073 0.81508 0.68066 0.0
C2349 C 0.65041 0.8004 0.65494 0.0
N2350 N 0.63651 0.81865 0.66228 0.0
C2351 C 0.61831 0.79269 0.69202 0.0
C2352 C 0.63227 0.77391 0.68452 0.0
C2353 C 0.63218 0.88338 0.68813 0.0
C2354 C 0.69405 0.94095 0.63698 0.0
C2355 C 0.65695 0.93919 0.66965 0.0
C2356 C 0.67892 0.95175 0.67585 0.0
C2357 C 0.69752 0.9527 0.65933 0.0
N2358 N 0.65372 0.92751 0.64776 0.0
C2359 C 0.67197 0.92827 0.63152 0.0
Co2360 Co 0.87573 0.594 0.90774 0.0
Co2361 Co 0.89122 0.65406 0.8984 0.0
O2362 O 0.89377 0.61978 0.8919 0.0
C2363 C 0.9269 0.58091 0.914 0.0
O2364 O 0.93278 0.60236 0.92341 0.0
C2365 C 0.87478 0.64556 0.84733 0.0
O2366 O 0.86039 0.62905 0.85708 0.0
O2367 O 0.85518 0.65127 0.89859 0.0
O2368 O 0.84609 0.61264 0.90803 0.0
H2369 H 0.86282 0.72772 0.94062 0.0
H2370 H 0.90151 0.58361 0.86272 0.0
O2371 O 0.9051 0.57465 0.90759 0.0
H2372 H 0.81519 0.56225 0.84348 0.0
H2373 H 0.84641 0.50745 0.9185 0.0
H2374 H 0.84246 0.59107 0.94901 0.0
H2375 H 0.82833 0.57651 0.88448 0.0
H2376 H 0.87131 0.54062 0.90083 0.0
O2377 O 0.8892 0.65882 0.86134 0.0
H2378 H 0.86551 0.6839 0.93327 0.0
H2379 H 0.9126 0.69801 0.87506 0.0
H2380 H 0.81814 0.55821 0.96819 0.0
H2381 H 0.88915 0.56925 0.82156 0.0
H2382 H 0.81982 0.51603 0.95276 0.0
H2383 H 0.84568 0.55874 0.81164 0.0
O2384 O 0.88573 0.608 0.93984 0.0
H2385 H 0.97346 0.64084 0.86552 0.0
H2386 H 0.92914 0.67734 0.93164 0.0
H2387 H 0.97391 0.68091 0.93252 0.0
H2388 H 0.99635 0.6626 0.89926 0.0
H2389 H 0.92873 0.63756 0.86547 0.0
H2390 H 0.91029 0.74201 0.88161 0.0
H2391 H 0.88533 0.75709 0.91466 0.0
O2392 O 0.89231 0.64832 0.93538 0.0
C2393 C 0.84004 0.63404 0.90364 0.0
C2394 C 0.87383 0.72137 0.92622 0.0
C2395 C 0.90044 0.72939 0.89307 0.0
N2396 N 0.88936 0.68849 0.9039 0.0
C2397 C 0.87548 0.6966 0.92203 0.0
C2398 C 0.90165 0.70449 0.88941 0.0
C2399 C 0.88644 0.73784 0.91163 0.0
C2400 C 0.88262 0.57864 0.85869 0.0
N2401 N 0.86571 0.58078 0.87606 0.0
C2402 C 0.8757 0.57071 0.83529 0.0
C2403 C 0.85129 0.56487 0.82972 0.0
C2404 C 0.83418 0.56682 0.84758 0.0
C2405 C 0.84174 0.5749 0.87077 0.0
C2406 C 0.84573 0.52564 0.92565 0.0
C2407 C 0.84359 0.5727 0.9425 0.0
C2408 C 0.85971 0.54451 0.91559 0.0
N2409 N 0.8581 0.56775 0.92367 0.0
C2410 C 0.82972 0.55418 0.95338 0.0
C2411 C 0.83071 0.53052 0.94474 0.0
C2412 C 0.89028 0.62925 0.94869 0.0
C2413 C 0.96388 0.64895 0.88008 0.0
C2414 C 0.9388 0.66929 0.91714 0.0
C2415 C 0.96413 0.6714 0.91771 0.0
C2416 C 0.97672 0.66114 0.89903 0.0
N2417 N 0.92635 0.65737 0.89846 0.0
C2418 C 0.93855 0.64724 0.8801 0.0
Co2419 Co 0.85819 0.42911 0.17565 0.0
Co2420 Co 0.90453 0.39472 0.15688 0.0
O2421 O 0.8715 0.40545 0.15418 0.0
C2422 C 0.82543 0.38607 0.17829 0.0
O2423 O 0.84487 0.37367 0.18118 0.0
C2424 C 0.89818 0.41244 0.10673 0.0
O2425 O 0.89095 0.43181 0.11768 0.0
O2426 O 0.91834 0.42882 0.15835 0.0
O2427 O 0.88917 0.44907 0.17614 0.0
H2428 H 0.9893 0.39317 0.19218 0.0
H2429 H 0.83135 0.41473 0.12991 0.0
O2430 O 0.82721 0.40893 0.17573 0.0
H2431 H 0.84844 0.5029 0.12454 0.0
H2432 H 0.79101 0.4763 0.20884 0.0
H2433 H 0.877 0.45753 0.21865 0.0
H2434 H 0.86135 0.48069 0.16079 0.0
H2435 H 0.80978 0.45005 0.17913 0.0
O2436 O 0.90559 0.39507 0.11973 0.0
H2437 H 0.94781 0.4075 0.18835 0.0
H2438 H 0.93154 0.35885 0.12946 0.0
H2439 H 0.85905 0.484 0.2486 0.0
H2440 H 0.81802 0.43625 0.0933 0.0
H2441 H 0.81557 0.4929 0.24422 0.0
H2442 H 0.82663 0.48064 0.09045 0.0
O2443 O 0.86955 0.41201 0.20445 0.0
H2444 H 0.85098 0.32541 0.12298 0.0
H2445 H 0.91196 0.35084 0.18653 0.0
H2446 H 0.89471 0.30879 0.1856 0.0
H2447 H 0.86405 0.29582 0.15359 0.0
H2448 H 0.86837 0.36739 0.12483 0.0
H2449 H 0.97261 0.34363 0.13293 0.0
H2450 H 1.00188 0.36088 0.16452 0.0
O2451 O 0.90351 0.39439 0.19405 0.0
C2452 C 0.91054 0.44763 0.16833 0.0
C2453 C 0.97674 0.38552 0.17838 0.0
C2454 C 0.96744 0.35779 0.14505 0.0
N2455 N 0.93727 0.38386 0.15883 0.0
C2456 C 0.95324 0.39355 0.17613 0.0
C2457 C 0.94419 0.36645 0.14317 0.0
C2458 C 0.9838 0.36743 0.16279 0.0
C2459 C 0.83494 0.43408 0.12886 0.0
N2460 N 0.847 0.44646 0.14748 0.0
C2461 C 0.82744 0.44616 0.10807 0.0
C2462 C 0.83231 0.47106 0.10646 0.0
C2463 C 0.84456 0.48356 0.12557 0.0
C2464 C 0.85184 0.47088 0.14605 0.0
C2465 C 0.80992 0.47233 0.21107 0.0
C2466 C 0.85823 0.46186 0.21623 0.0
C2467 C 0.82065 0.45753 0.19429 0.0
N2468 N 0.84444 0.45224 0.19718 0.0
C2469 C 0.84812 0.4767 0.23337 0.0
C2470 C 0.82373 0.48169 0.23089 0.0
C2471 C 0.88845 0.40092 0.20993 0.0
C2472 C 0.86439 0.33083 0.13696 0.0
C2473 C 0.89851 0.34538 0.17264 0.0
C2474 C 0.88888 0.32152 0.17215 0.0
C2475 C 0.8717 0.31424 0.15417 0.0
N2476 N 0.89128 0.36153 0.15567 0.0
C2477 C 0.8744 0.35455 0.13802 0.0
Co2478 Co 0.08428 0.34975 0.62934 0.0
Co2479 Co 0.1163 0.40199 0.61225 0.0
O2480 O 0.10842 0.36715 0.60978 0.0
C2481 C 0.11378 0.31184 0.65037 0.0
O2482 O 0.11011 0.32132 0.67174 0.0
C2483 C 0.10117 0.39399 0.55996 0.0
O2484 O 0.08239 0.38146 0.56825 0.0
O2485 O 0.08136 0.40923 0.61106 0.0
O2486 O 0.06247 0.37707 0.62825 0.0
H2487 H 0.10434 0.48575 0.64289 0.0
H2488 H 0.10234 0.32572 0.58566 0.0
O2489 O 0.10588 0.32183 0.63116 0.0
H2490 H 0.01422 0.33013 0.57079 0.0
H2491 H 0.03527 0.27541 0.65496 0.0
H2492 H 0.05442 0.36221 0.67101 0.0
H2493 H 0.0335 0.34558 0.6091 0.0
H2494 H 0.06342 0.2988 0.62909 0.0
O2495 O 0.11681 0.40393 0.57512 0.0
H2496 H 0.09917 0.44125 0.64269 0.0
H2497 H 0.14904 0.43684 0.58592 0.0
H2498 H 0.02737 0.33921 0.69819 0.0
H2499 H 0.08369 0.30974 0.5472 0.0
H2500 H 0.01718 0.29559 0.68996 0.0
H2501 H 0.03932 0.312 0.53952 0.0
O2502 O 0.0995 0.36399 0.65946 0.0
H2503 H 0.19024 0.36189 0.58454 0.0
H2504 H 0.15886 0.41903 0.64345 0.0
H2505 H 0.20225 0.41044 0.64536 0.0
H2506 H 0.21821 0.38173 0.61569 0.0
H2507 H 0.14692 0.37086 0.58345 0.0
H2508 H 0.15459 0.48142 0.58534 0.0
H2509 H 0.13124 0.50604 0.6134 0.0
O2510 O 0.11625 0.40038 0.64939 0.0
C2511 C 0.06287 0.39849 0.6201 0.0
C2512 C 0.11439 0.47515 0.63048 0.0
C2513 C 0.14257 0.47271 0.59814 0.0
N2514 N 0.12382 0.43651 0.61434 0.0
C2515 C 0.11167 0.44996 0.63039 0.0
C2516 C 0.13938 0.44751 0.59855 0.0
C2517 C 0.12968 0.48655 0.61401 0.0
C2518 C 0.08297 0.32647 0.58258 0.0
N2519 N 0.06902 0.33645 0.59966 0.0
C2520 C 0.07253 0.3175 0.56072 0.0
C2521 C 0.04765 0.31882 0.55641 0.0
C2522 C 0.03354 0.32899 0.57393 0.0
C2523 C 0.04459 0.33778 0.59557 0.0
C2524 C 0.03946 0.29443 0.65868 0.0
C2525 C 0.05043 0.34315 0.66754 0.0
C2526 C 0.05531 0.3078 0.64404 0.0
N2527 N 0.06072 0.33183 0.64865 0.0
C2528 C 0.03496 0.33024 0.6829 0.0
C2529 C 0.02933 0.30575 0.67832 0.0
C2530 C 0.11003 0.38436 0.66517 0.0
C2531 C 0.18351 0.37445 0.59754 0.0
C2532 C 0.16566 0.40641 0.63058 0.0
C2533 C 0.19025 0.40168 0.6317 0.0
C2534 C 0.19919 0.38558 0.61504 0.0
N2535 N 0.15042 0.39547 0.61334 0.0
C2536 C 0.15903 0.37964 0.59698 0.0
Co2537 Co 0.13842 0.59146 0.10832 0.0
Co2538 Co 0.1253 0.65016 0.12288 0.0
O2539 O 0.11975 0.61502 0.12505 0.0
C2540 C 0.08559 0.57498 0.10027 0.0
O2541 O 0.07794 0.5946 0.11031 0.0
C2542 C 0.13463 0.63828 0.17511 0.0
O2543 O 0.14687 0.62037 0.16706 0.0
O2544 O 0.16113 0.64841 0.12548 0.0
O2545 O 0.16906 0.60976 0.11799 0.0
H2546 H 0.16322 0.72791 0.09168 0.0
H2547 H 0.1037 0.57608 0.14647 0.0
O2548 O 0.10817 0.57199 0.09814 0.0
H2549 H 0.18248 0.54639 0.17339 0.0
H2550 H 0.15958 0.50823 0.0808 0.0
H2551 H 0.1808 0.59572 0.07701 0.0
H2552 H 0.17863 0.56845 0.13503 0.0
H2553 H 0.1358 0.53741 0.10283 0.0
O2554 O 0.12465 0.65243 0.1599 0.0
H2555 H 0.15652 0.68356 0.09401 0.0
H2556 H 0.10494 0.69155 0.14866 0.0
H2557 H 0.20521 0.56718 0.05512 0.0
H2558 H 0.10665 0.55375 0.18464 0.0
H2559 H 0.19479 0.52324 0.05702 0.0
H2560 H 0.14631 0.53888 0.19849 0.0
O2561 O 0.1362 0.60977 0.07762 0.0
H2562 H 0.03955 0.63472 0.1494 0.0
H2563 H 0.09171 0.67443 0.08887 0.0
H2564 H 0.04739 0.6779 0.08563 0.0
H2565 H 0.021 0.65807 0.11614 0.0
H2566 H 0.08391 0.63132 0.15169 0.0
H2567 H 0.11121 0.73599 0.14707 0.0
H2568 H 0.14047 0.75443 0.11835 0.0
O2569 O 0.12676 0.64793 0.08588 0.0
C2570 C 0.17564 0.63147 0.12366 0.0
C2571 C 0.15036 0.72009 0.10421 0.0
C2572 C 0.12119 0.72462 0.13533 0.0
N2573 N 0.13021 0.68503 0.12131 0.0
C2574 C 0.14644 0.695 0.10555 0.0
C2575 C 0.11775 0.69946 0.13618 0.0
C2576 C 0.13761 0.73496 0.1192 0.0
C2577 C 0.1209 0.56927 0.15198 0.0
N2578 N 0.14084 0.57326 0.13819 0.0
C2579 C 0.12252 0.5568 0.1738 0.0
C2580 C 0.14479 0.54852 0.18159 0.0
C2581 C 0.16508 0.55274 0.16753 0.0
C2582 C 0.16277 0.56523 0.1458 0.0
C2583 C 0.16441 0.52739 0.08001 0.0
C2584 C 0.17622 0.57654 0.07811 0.0
C2585 C 0.15097 0.544 0.09236 0.0
N2586 N 0.15709 0.56824 0.09143 0.0
C2587 C 0.19005 0.56049 0.06559 0.0
C2588 C 0.18411 0.53577 0.06663 0.0
C2589 C 0.13184 0.63112 0.07088 0.0
C2590 C 0.05086 0.64348 0.13603 0.0
C2591 C 0.08033 0.66549 0.10203 0.0
C2592 C 0.05525 0.66764 0.10019 0.0
C2593 C 0.04046 0.65654 0.11733 0.0
N2594 N 0.0904 0.65264 0.12042 0.0
C2595 C 0.07601 0.64173 0.1373 0.0
Co2596 Co 0.92897 0.65449 0.63242 0.0
Co2597 Co 0.87103 0.64367 0.652 0.0
O2598 O 0.90559 0.63879 0.65348 0.0
C2599 C 0.94003 0.60227 0.63116 0.0
O2600 O 0.91685 0.59567 0.62995 0.0
C2601 C 0.88726 0.6581 0.70211 0.0
O2602 O 0.90359 0.67174 0.69111 0.0
O2603 O 0.87654 0.67929 0.65169 0.0
O2604 O 0.9115 0.6851 0.63244 0.0
H2605 H 0.79443 0.67904 0.62067 0.0
H2606 H 0.9458 0.63129 0.67766 0.0
O2607 O 0.94732 0.62447 0.63202 0.0
H2608 H 0.97219 0.71746 0.68693 0.0
H2609 H 0.01334 0.67409 0.60511 0.0
H2610 H 0.92655 0.68589 0.58905 0.0
H2611 H 0.95168 0.70226 0.64909 0.0
H2612 H 0.98259 0.65506 0.63084 0.0
O2613 O 0.87168 0.64506 0.68923 0.0
H2614 H 0.83839 0.67294 0.62204 0.0
H2615 H 0.82966 0.62442 0.68063 0.0
H2616 H 0.95691 0.70534 0.56249 0.0
H2617 H 0.96665 0.64563 0.71562 0.0
H2618 H 1.00076 0.69956 0.57044 0.0
H2619 H 0.97954 0.6891 0.72064 0.0
O2620 O 0.90968 0.64304 0.60315 0.0
H2621 H 0.88275 0.55972 0.68253 0.0
H2622 H 0.84061 0.60839 0.62173 0.0
H2623 H 0.83388 0.56396 0.62094 0.0
H2624 H 0.85506 0.53936 0.65146 0.0
H2625 H 0.88917 0.6042 0.68247 0.0
H2626 H 0.78562 0.63013 0.68007 0.0
H2627 H 0.76774 0.65755 0.64985 0.0
O2628 O 0.87085 0.64318 0.61477 0.0
C2629 C 0.89257 0.69294 0.64179 0.0
C2630 C 0.80199 0.66698 0.63386 0.0
C2631 C 0.79705 0.63955 0.66723 0.0
N2632 N 0.83648 0.64815 0.65122 0.0
C2633 C 0.82684 0.66339 0.63465 0.0
C2634 C 0.82198 0.63642 0.66749 0.0
C2635 C 0.78703 0.65493 0.65026 0.0
C2636 C 0.95191 0.6501 0.67944 0.0
N2637 N 0.94754 0.66587 0.66113 0.0
C2638 C 0.96351 0.65816 0.70108 0.0
C2639 C 0.97067 0.68257 0.70391 0.0
C2640 C 0.96652 0.6985 0.68501 0.0
C2641 C 0.95491 0.68978 0.66361 0.0
C2642 C 0.99442 0.67685 0.60129 0.0
C2643 C 0.9456 0.68337 0.5926 0.0
C2644 C 0.97687 0.66607 0.61589 0.0
N2645 N 0.95283 0.66957 0.61159 0.0
C2646 C 0.9627 0.69438 0.57749 0.0
C2647 C 0.98729 0.69111 0.58195 0.0
C2648 C 0.88688 0.64196 0.59829 0.0
C2649 C 0.87338 0.57027 0.66916 0.0
C2650 C 0.84994 0.59778 0.63504 0.0
C2651 C 0.846 0.57264 0.63455 0.0
C2652 C 0.85786 0.55885 0.65172 0.0
N2653 N 0.86522 0.60884 0.65217 0.0
C2654 C 0.87686 0.59546 0.66912 0.0
Co2655 Co 0.15054 0.42143 0.84472 0.0
Co2656 Co 0.10129 0.38716 0.86389 0.0
O2657 O 0.13545 0.39872 0.86747 0.0
C2658 C 0.19523 0.39639 0.83433 0.0
O2659 O 0.18774 0.39485 0.81154 0.0
C2660 C 0.11227 0.39449 0.9183 0.0
O2661 O 0.13331 0.4049 0.91317 0.0
O2662 O 0.09131 0.42121 0.86355 0.0
O2663 O 0.11944 0.43756 0.83912 0.0
H2664 H 0.01716 0.3865 0.82657 0.0
H2665 H 0.17596 0.41759 0.89277 0.0
O2666 O 0.18194 0.40546 0.85018 0.0
H2667 H 0.15509 0.50287 0.88653 0.0
H2668 H 0.22012 0.47243 0.81182 0.0
H2669 H 0.1353 0.44201 0.79755 0.0
H2670 H 0.1442 0.47397 0.8533 0.0
H2671 H 0.19875 0.44872 0.84304 0.0
O2672 O 0.09762 0.3867 0.90107 0.0
H2673 H 0.06023 0.40037 0.83179 0.0
H2674 H 0.06961 0.35026 0.88864 0.0
H2675 H 0.15589 0.46576 0.76596 0.0
H2676 H 0.18758 0.44604 0.92627 0.0
H2677 H 0.19891 0.48032 0.77259 0.0
H2678 H 0.17704 0.48897 0.92335 0.0
O2679 O 0.14138 0.39894 0.81759 0.0
H2680 H 0.14894 0.31805 0.89441 0.0
H2681 H 0.08896 0.34345 0.83316 0.0
H2682 H 0.10186 0.30152 0.83251 0.0
H2683 H 0.13197 0.28852 0.86338 0.0
H2684 H 0.13577 0.35984 0.8942 0.0
H2685 H 0.02676 0.33557 0.88377 0.0
H2686 H 1.00018 0.35383 0.85263 0.0
O2687 O 0.10332 0.38719 0.82671 0.0
C2688 C 0.09907 0.43776 0.8494 0.0
C2689 C 0.02854 0.37843 0.84022 0.0
C2690 C 0.0339 0.34992 0.8724 0.0
N2691 N 0.06744 0.37605 0.8604 0.0
C2692 C 0.05295 0.3862 0.84325 0.0
C2693 C 0.05815 0.3583 0.87506 0.0
C2694 C 0.01902 0.36012 0.85488 0.0
C2695 C 0.1714 0.43627 0.89128 0.0
N2696 N 0.15916 0.44397 0.87118 0.0
C2697 C 0.17798 0.45229 0.91035 0.0
C2698 C 0.17204 0.47639 0.9087 0.0
C2699 C 0.1597 0.48418 0.88808 0.0
C2700 C 0.15341 0.46764 0.86938 0.0
C2701 C 0.2015 0.46578 0.80854 0.0
C2702 C 0.15384 0.44874 0.80084 0.0
C2703 C 0.18929 0.4524 0.82617 0.0
N2704 N 0.16597 0.44344 0.82189 0.0
C2705 C 0.16544 0.4621 0.78282 0.0
C2706 C 0.18957 0.47028 0.78657 0.0
C2707 C 0.1203 0.39028 0.81136 0.0
C2708 C 0.13568 0.32344 0.88096 0.0
C2709 C 0.10208 0.33797 0.84665 0.0
C2710 C 0.1093 0.31418 0.8462 0.0
C2711 C 0.12618 0.3069 0.86353 0.0
N2712 N 0.11127 0.35404 0.86398 0.0
C2713 C 0.12802 0.34709 0.88086 0.0
Co2714 Co 0.10463 0.66693 0.35594 0.0
Co2715 Co 0.13977 0.62075 0.3743 0.0
O2716 O 0.12844 0.65328 0.3778 0.0
C2717 C 0.14648 0.70145 0.35685 0.0
O2718 O 0.15989 0.68291 0.35362 0.0
C2719 C 0.12584 0.6256 0.4262 0.0
O2720 O 0.10546 0.6336 0.41742 0.0
O2721 O 0.10562 0.60665 0.37357 0.0
O2722 O 0.08589 0.63525 0.3533 0.0
H2723 H 0.14399 0.53829 0.33627 0.0
H2724 H 0.11679 0.69151 0.40315 0.0
O2725 O 0.12353 0.69855 0.3581 0.0
H2726 H 0.02892 0.67018 0.40421 0.0
H2727 H 0.05399 0.7335 0.32466 0.0
H2728 H 0.07759 0.6499 0.31117 0.0
H2729 H 0.05261 0.66038 0.36858 0.0
H2730 H 0.08181 0.71446 0.35364 0.0
O2731 O 0.14153 0.6184 0.41143 0.0
H2732 H 0.12708 0.57827 0.34219 0.0
H2733 H 0.17721 0.59385 0.40082 0.0
H2734 H 0.0493 0.66802 0.28208 0.0
H2735 H 0.09374 0.70181 0.43911 0.0
H2736 H 0.03757 0.71022 0.28856 0.0
H2737 H 0.04948 0.69106 0.43978 0.0
O2738 O 0.12303 0.65831 0.32742 0.0
H2739 H 0.21 0.67414 0.40707 0.0
H2740 H 0.18241 0.61528 0.34314 0.0
H2741 H 0.22427 0.63319 0.34312 0.0
H2742 H 0.23834 0.66278 0.37531 0.0
H2743 H 0.16816 0.65613 0.40618 0.0
H2744 H 0.1945 0.55405 0.39567 0.0
H2745 H 0.17846 0.52637 0.36273 0.0
O2746 O 0.13833 0.62281 0.33704 0.0
C2747 C 0.08713 0.61404 0.36194 0.0
C2748 C 0.15136 0.55038 0.35049 0.0
C2749 C 0.17968 0.55919 0.38388 0.0
N2750 N 0.15137 0.58845 0.37161 0.0
C2751 C 0.14185 0.573 0.35394 0.0
C2752 C 0.16971 0.58163 0.3868 0.0
C2753 C 0.17062 0.54364 0.3654 0.0
C2754 C 0.0975 0.687 0.40324 0.0
N2755 N 0.08606 0.67544 0.38377 0.0
C2756 C 0.08456 0.69279 0.42368 0.0
C2757 C 0.05973 0.68671 0.42406 0.0
C2758 C 0.04818 0.67498 0.40411 0.0
C2759 C 0.06172 0.66943 0.38401 0.0
C2760 C 0.05904 0.71512 0.3216 0.0
C2761 C 0.07222 0.66811 0.31438 0.0
C2762 C 0.07477 0.70425 0.33794 0.0
N2763 N 0.08124 0.68106 0.33415 0.0
C2764 C 0.05632 0.67833 0.29775 0.0
C2765 C 0.04979 0.70203 0.30137 0.0
C2766 C 0.13284 0.63898 0.32146 0.0
C2767 C 0.20411 0.66119 0.39301 0.0
C2768 C 0.18832 0.62826 0.35712 0.0
C2769 C 0.21209 0.63828 0.35706 0.0
C2770 C 0.21998 0.65485 0.37515 0.0
N2771 N 0.17286 0.63455 0.37471 0.0
C2772 C 0.18047 0.65081 0.39249 0.0
Co2773 Co 0.91132 0.35507 0.39048 0.0
Co2774 Co 0.87418 0.39994 0.40777 0.0
O2775 O 0.8843 0.36679 0.40792 0.0
C2776 C 0.86918 0.32508 0.37192 0.0
O2777 O 0.85661 0.34452 0.37135 0.0
C2778 C 0.87863 0.41056 0.46173 0.0
O2779 O 0.88939 0.4317 0.45719 0.0
O2780 O 0.90827 0.41352 0.41282 0.0
O2781 O 0.93171 0.38404 0.40034 0.0
H2782 H 0.8774 0.48761 0.38473 0.0
H2783 H 0.88621 0.32295 0.42549 0.0
O2784 O 0.89111 0.32596 0.37973 0.0
H2785 H 0.97095 0.33282 0.45626 0.0
H2786 H 0.96436 0.29094 0.35993 0.0
H2787 H 0.94783 0.37757 0.35838 0.0
H2788 H 0.95809 0.35272 0.41846 0.0
H2789 H 0.93193 0.3067 0.38446 0.0
O2790 O 0.87093 0.39661 0.44421 0.0
H2791 H 0.89038 0.44564 0.38424 0.0
H2792 H 0.83509 0.42462 0.43282 0.0
H2793 H 0.98002 0.36265 0.33342 0.0
H2794 H 0.8983 0.30257 0.46317 0.0
H2795 H 0.98871 0.31895 0.33417 0.0
H2796 H 0.94096 0.30749 0.47877 0.0
O2797 O 0.90104 0.37157 0.36061 0.0
H2798 H 0.80188 0.34373 0.42358 0.0
H2799 H 0.8337 0.41079 0.3734 0.0
H2800 H 0.79194 0.39379 0.36566 0.0
H2801 H 0.77577 0.36004 0.39088 0.0
H2802 H 0.84357 0.3611 0.43058 0.0
H2803 H 0.82153 0.46639 0.4339 0.0
H2804 H 0.84277 0.49821 0.40972 0.0
O2805 O 0.87796 0.40208 0.37117 0.0
C2806 C 0.92879 0.4052 0.40848 0.0
C2807 C 0.868 0.47391 0.39533 0.0
C2808 C 0.83664 0.462 0.42294 0.0
N2809 N 0.86347 0.43274 0.40845 0.0
C2810 C 0.87524 0.45012 0.3951 0.0
C2811 C 0.8444 0.4384 0.42227 0.0
C2812 C 0.84856 0.47984 0.40936 0.0
C2813 C 0.90486 0.32499 0.43206 0.0
N2814 N 0.92151 0.33882 0.41971 0.0
C2815 C 0.91158 0.31348 0.45344 0.0
C2816 C 0.93551 0.31627 0.4622 0.0
C2817 C 0.95235 0.33049 0.44956 0.0
C2818 C 0.94498 0.34172 0.42822 0.0
C2819 C 0.96089 0.30999 0.35954 0.0
C2820 C 0.95158 0.35862 0.359 0.0
C2821 C 0.94262 0.31902 0.37344 0.0
N2822 N 0.93815 0.34306 0.37298 0.0
C2823 C 0.96986 0.35022 0.34478 0.0
C2824 C 0.97457 0.32574 0.34511 0.0
C2825 C 0.88876 0.38969 0.35527 0.0
C2826 C 0.80868 0.35851 0.41254 0.0
C2827 C 0.8268 0.39608 0.38443 0.0
C2828 C 0.80313 0.38656 0.37999 0.0
C2829 C 0.79406 0.36763 0.39416 0.0
N2830 N 0.84102 0.38707 0.40253 0.0
C2831 C 0.83225 0.36851 0.4165 0.0
H2832 H 0.09608 0.28865 0.3503 0.0
H2833 H 0.14366 0.31124 0.41068 0.0
H2834 H 0.15083 0.26895 0.41957 0.0
H2835 H 0.13891 0.22587 0.41353 0.0
H2836 H 0.09082 0.20348 0.35341 0.0
H2837 H 0.08867 0.24553 0.34089 0.0
C2838 C 0.10837 0.28431 0.36516 0.0
C2839 C 0.11901 0.3029 0.38011 0.0
C2840 C 0.11205 0.26007 0.37035 0.0
C2841 C 0.13521 0.29718 0.39899 0.0
C2842 C 0.13915 0.27302 0.40418 0.0
C2843 C 0.12819 0.23018 0.3975 0.0
C2844 C 0.11461 0.21172 0.38469 0.0
C2845 C 0.12692 0.25435 0.39053 0.0
C2846 C 0.10124 0.21742 0.36369 0.0
C2847 C 0.09995 0.24145 0.35657 0.0
H2848 H 0.30686 0.62541 0.86166 0.0
H2849 H 0.30304 0.68412 0.9132 0.0
H2850 H 0.25888 0.68121 0.9097 0.0
H2851 H 0.22101 0.66077 0.89339 0.0
H2852 H 0.22527 0.60086 0.84327 0.0
H2853 H 0.26926 0.6056 0.84484 0.0
C2854 C 0.29641 0.63773 0.87196 0.0
C2855 C 0.30837 0.65492 0.88766 0.0
C2856 C 0.27092 0.6357 0.87024 0.0
C2857 C 0.29441 0.67061 0.90101 0.0
C2858 C 0.26908 0.66898 0.89904 0.0
C2859 C 0.23155 0.64888 0.88268 0.0
C2860 C 0.21968 0.63048 0.86829 0.0
C2861 C 0.25709 0.6514 0.88393 0.0
C2862 C 0.23375 0.61515 0.85463 0.0
C2863 C 0.25902 0.61782 0.85547 0.0
H2864 H 0.88886 0.80224 0.42879 0.0
H2865 H 0.92619 0.81671 0.36243 0.0
H2866 H 0.92357 0.77355 0.35233 0.0
H2867 H 0.91358 0.73171 0.3639 0.0
H2868 H 0.87585 0.71687 0.42989 0.0
H2869 H 0.87524 0.76036 0.43838 0.0
C2870 C 0.8963 0.79595 0.41204 0.0
C2871 C 0.90804 0.81261 0.39653 0.0
C2872 C 0.89459 0.77114 0.40629 0.0
C2873 C 0.91719 0.80426 0.37471 0.0
C2874 C 0.91573 0.77959 0.36895 0.0
C2875 C 0.90497 0.73797 0.38002 0.0
C2876 C 0.89502 0.72109 0.3964 0.0
C2877 C 0.90488 0.76287 0.38483 0.0
C2878 C 0.88358 0.7295 0.41699 0.0
C2879 C 0.88343 0.75434 0.42194 0.0
H2880 H 0.82098 0.36698 0.91279 0.0
H2881 H 0.82443 0.43932 0.88387 0.0
H2882 H 0.78069 0.43711 0.87695 0.0
H2883 H 0.74101 0.41487 0.87931 0.0
H2884 H 0.73734 0.34343 0.90993 0.0
H2885 H 0.78137 0.34503 0.91571 0.0
C2886 C 0.81219 0.38231 0.90508 0.0
C2887 C 0.82616 0.40323 0.8989 0.0
C2888 C 0.78686 0.38107 0.90123 0.0
C2889 C 0.8143 0.42292 0.88889 0.0
C2890 C 0.78919 0.4217 0.88481 0.0
C2891 C 0.74993 0.39959 0.88697 0.0
C2892 C 0.73599 0.37905 0.89405 0.0
C2893 C 0.77527 0.40085 0.89083 0.0
C2894 C 0.7477 0.3595 0.90437 0.0
C2895 C 0.77289 0.36039 0.90772 0.0
H2896 H 0.10708 0.71933 0.65769 0.0
H2897 H 0.16669 0.71014 0.61001 0.0
H2898 H 0.17568 0.75376 0.61047 0.0
H2899 H 0.16552 0.79416 0.62266 0.0
H2900 H 0.10616 0.8042 0.67016 0.0
H2901 H 0.09845 0.76015 0.67199 0.0
C2902 C 0.1221 0.7268 0.64744 0.0
C2903 C 0.13604 0.71143 0.63361 0.0
C2904 C 0.12725 0.7519 0.64786 0.0
C2905 C 0.1556 0.72149 0.6207 0.0
C2906 C 0.16076 0.74642 0.62095 0.0
C2907 C 0.15091 0.7868 0.63349 0.0
C2908 C 0.13619 0.80242 0.64598 0.0
C2909 C 0.14653 0.76174 0.63421 0.0
C2910 C 0.11771 0.79253 0.66038 0.0
C2911 C 0.11322 0.76741 0.66127 0.0
H2912 H 0.72501 0.64112 0.10577 0.0
H2913 H 0.71055 0.59463 0.16655 0.0
H2914 H 0.75325 0.59928 0.1798 0.0
H2915 H 0.79508 0.61416 0.17242 0.0
H2916 H 0.80946 0.66184 0.11255 0.0
H2917 H 0.76626 0.65941 0.10081 0.0
C2918 C 0.73118 0.63216 0.12203 0.0
C2919 C 0.71469 0.6173 0.13501 0.0
C2920 C 0.75569 0.63513 0.12967 0.0
C2921 C 0.72286 0.60612 0.15623 0.0
C2922 C 0.74729 0.60871 0.16376 0.0
C2923 C 0.78874 0.62425 0.15695 0.0
C2924 C 0.80551 0.63801 0.14324 0.0
C2925 C 0.76392 0.62282 0.15038 0.0
C2926 C 0.79694 0.6512 0.12344 0.0
C2927 C 0.77227 0.64967 0.11663 0.0
H2928 H 0.8394 0.20416 0.62213 0.0
H2929 H 0.90661 0.19541 0.66212 0.0
H2930 H 0.91286 0.23946 0.66624 0.0
H2931 H 0.90077 0.28024 0.65543 0.0
H2932 H 0.83298 0.28877 0.61631 0.0
H2933 H 0.82528 0.24481 0.61497 0.0
C2934 C 0.85533 0.21188 0.63193 0.0
C2935 C 0.87271 0.19659 0.64154 0.0
C2936 C 0.85872 0.23709 0.63423 0.0
C2937 C 0.89301 0.20681 0.65457 0.0
C2938 C 0.89663 0.23197 0.65679 0.0
C2939 C 0.88421 0.27248 0.64678 0.0
C2940 C 0.86759 0.28769 0.63568 0.0
C2941 C 0.87987 0.24725 0.64622 0.0
C2942 C 0.84604 0.27744 0.62491 0.0
C2943 C 0.8417 0.25232 0.62407 0.0
H2944 H 0.28128 0.35381 0.09847 0.0
H2945 H 0.29843 0.41866 0.14087 0.0
H2946 H 0.25512 0.42376 0.14634 0.0
H2947 H 0.21276 0.41271 0.13412 0.0
H2948 H 0.19583 0.34765 0.09187 0.0
H2949 H 0.23885 0.33939 0.09162 0.0
C2950 C 0.27549 0.36883 0.10925 0.0
C2951 C 0.29279 0.38611 0.11891 0.0
C2952 C 0.25073 0.37164 0.11218 0.0
C2953 C 0.2853 0.40523 0.13322 0.0
C2954 C 0.2606 0.40821 0.1362 0.0
C2955 C 0.21849 0.39651 0.12522 0.0
C2956 C 0.20132 0.38103 0.11263 0.0
C2957 C 0.24319 0.39199 0.12502 0.0
C2958 C 0.20879 0.35987 0.10156 0.0
C2959 C 0.23337 0.35523 0.10128 0.0
H2960 H 0.41882 0.11445 0.22261 0.0
H2961 H 0.34237 0.09871 0.2077 0.0
H2962 H 0.33383 0.10826 0.24997 0.0
H2963 H 0.34884 0.118 0.29199 0.0
H2964 H 0.4256 0.13142 0.30605 0.0
H2965 H 0.4333 0.12641 0.26302 0.0
C2966 C 0.40022 0.11307 0.22849 0.0
C2967 C 0.38129 0.10547 0.21212 0.0
C2968 C 0.39553 0.1185 0.25261 0.0
C2969 C 0.3573 0.10424 0.22004 0.0
C2970 C 0.35242 0.10978 0.24416 0.0
C2971 C 0.36709 0.12052 0.28536 0.0
C2972 C 0.38665 0.12544 0.30183 0.0
C2973 C 0.37145 0.11663 0.2607 0.0
C2974 C 0.41035 0.12797 0.29344 0.0
C2975 C 0.41475 0.12488 0.26896 0.0
H2976 H 0.3663 0.90752 0.72635 0.0
H2977 H 0.41617 0.85139 0.71448 0.0
H2978 H 0.42379 0.84857 0.75809 0.0
H2979 H 0.41745 0.86298 0.79925 0.0
H2980 H 0.36672 0.91816 0.81156 0.0
H2981 H 0.35809 0.92024 0.76791 0.0
C2982 C 0.37881 0.89463 0.73326 0.0
C2983 C 0.39083 0.87985 0.71709 0.0
C2984 C 0.38292 0.89291 0.75837 0.0
C2985 C 0.40672 0.86302 0.72645 0.0
C2986 C 0.41112 0.86142 0.75139 0.0
C2987 C 0.40443 0.87542 0.79246 0.0
C2988 C 0.3929 0.89054 0.80864 0.0
C2989 C 0.39949 0.87642 0.76747 0.0
C2990 C 0.37583 0.90631 0.7995 0.0
C2991 C 0.37097 0.90758 0.77455 0.0
H2992 H 0.6317 0.92605 0.20373 0.0
H2993 H 0.65203 0.85201 0.20302 0.0
H2994 H 0.65597 0.85269 0.24747 0.0
H2995 H 0.64943 0.8735 0.28672 0.0
H2996 H 0.6298 0.94803 0.28583 0.0
H2997 H 0.62982 0.94794 0.24197 0.0
C2998 C 0.63749 0.91022 0.21332 0.0
C2999 C 0.6415 0.88903 0.20028 0.0
C3000 C 0.63949 0.91072 0.23864 0.0
C3001 C 0.64907 0.86863 0.21276 0.0
C3002 C 0.65104 0.86894 0.23816 0.0
C3003 C 0.64537 0.88973 0.27689 0.0
C3004 C 0.63934 0.91062 0.28966 0.0
C3005 C 0.64561 0.88972 0.25135 0.0
C3006 C 0.63443 0.93164 0.27662 0.0
C3007 C 0.6344 0.93166 0.25144 0.0
H3008 H 0.62183 0.15774 0.79498 0.0
H3009 H 0.67857 0.10805 0.80688 0.0
H3010 H 0.67919 0.09972 0.76343 0.0
H3011 H 0.66226 0.10491 0.72253 0.0
H3012 H 0.60636 0.1553 0.71006 0.0
H3013 H 0.60691 0.16517 0.75342 0.0
C3014 C 0.63442 0.14518 0.78807 0.0
C3015 C 0.64999 0.13337 0.80419 0.0
C3016 C 0.6348 0.14057 0.76304 0.0
C3017 C 0.66641 0.11739 0.79489 0.0
C3018 C 0.66672 0.11254 0.77006 0.0
C3019 C 0.65023 0.11813 0.72926 0.0
C3020 C 0.63409 0.12916 0.71317 0.0
C3021 C 0.65077 0.12378 0.75405 0.0
C3022 C 0.61894 0.14656 0.7221 0.0
C3023 C 0.61919 0.15212 0.74688 0.0
H3024 H 0.87174 0.80297 0.65742 0.0
H3025 H 0.93565 0.81119 0.61422 0.0
H3026 H 0.93754 0.7676 0.61127 0.0
H3027 H 0.92161 0.72728 0.62097 0.0
H3028 H 0.85771 0.71808 0.66395 0.0
H3029 H 0.8552 0.76196 0.66666 0.0
C3030 C 0.8861 0.79523 0.64742 0.0
C3031 C 0.90351 0.81042 0.63614 0.0
C3032 C 0.88707 0.76998 0.6456 0.0
C3033 C 0.92194 0.80003 0.62312 0.0
C3034 C 0.92308 0.77504 0.62137 0.0
C3035 C 0.90705 0.73477 0.63092 0.0
C3036 C 0.88995 0.71936 0.64231 0.0
C3037 C 0.90577 0.75988 0.63252 0.0
C3038 C 0.87115 0.7295 0.65497 0.0
C3039 C 0.86973 0.7546 0.65661 0.0
H3040 H 0.78268 0.39979 0.19431 0.0
H3041 H 0.81539 0.34457 0.15274 0.0
H3042 H 0.77528 0.32849 0.13856 0.0
H3043 H 0.73159 0.33426 0.13345 0.0
H3044 H 0.69853 0.38804 0.17651 0.0
H3045 H 0.73815 0.40051 0.19515 0.0
C3046 C 0.78087 0.3839 0.18259 0.0
C3047 C 0.80168 0.37349 0.17419 0.0
C3048 C 0.75784 0.37471 0.17475 0.0
C3049 C 0.79945 0.35278 0.15932 0.0
C3050 C 0.77659 0.34372 0.15111 0.0
C3051 C 0.73311 0.34826 0.1474 0.0
C3052 C 0.71259 0.36048 0.15359 0.0
C3053 C 0.75576 0.35511 0.15803 0.0
C3054 C 0.71432 0.37846 0.17169 0.0
C3055 C 0.73691 0.38567 0.18214 0.0
H3056 H 0.13681 0.20309 0.66592 0.0
H3057 H 0.10194 0.19743 0.59478 0.0
H3058 H 0.10074 0.24112 0.59299 0.0
H3059 H 0.10624 0.28056 0.61271 0.0
H3060 H 0.13779 0.2867 0.68512 0.0
H3061 H 0.144 0.24325 0.68511 0.0
C3062 C 0.12916 0.21142 0.64993 0.0
C3063 C 0.11954 0.19688 0.63053 0.0
C3064 C 0.12792 0.23667 0.64921 0.0
C3065 C 0.10957 0.20804 0.61 0.0
C3066 C 0.10883 0.2331 0.60893 0.0
C3067 C 0.11494 0.27253 0.62833 0.0
C3068 C 0.12153 0.2868 0.64889 0.0
C3069 C 0.11756 0.24754 0.62856 0.0
C3070 C 0.13252 0.27604 0.66907 0.0
C3071 C 0.13595 0.25121 0.66913 0.0
H3072 H 0.20736 0.60428 0.14752 0.0
H3073 H 0.2019 0.67117 0.10882 0.0
H3074 H 0.24618 0.67711 0.10961 0.0
H3075 H 0.2861 0.66047 0.11685 0.0
H3076 H 0.29183 0.59435 0.15659 0.0
H3077 H 0.24753 0.5908 0.16016 0.0
C3078 C 0.21595 0.62029 0.13957 0.0
C3079 C 0.20167 0.63709 0.12776 0.0
C3080 C 0.24126 0.62357 0.14023 0.0
C3081 C 0.21271 0.65804 0.11793 0.0
C3082 C 0.23794 0.66134 0.11827 0.0
C3083 C 0.27755 0.64564 0.12678 0.0
C3084 C 0.29174 0.6276 0.13639 0.0
C3085 C 0.25234 0.64386 0.12872 0.0
C3086 C 0.28094 0.6084 0.14923 0.0
C3087 C 0.25573 0.60634 0.15109 0.0
H3088 H 0.82606 0.22152 0.38691 0.0
H3089 H 0.88573 0.2051 0.34218 0.0
H3090 H 0.89256 0.24811 0.33284 0.0
H3091 H 0.88642 0.29028 0.34442 0.0
H3092 H 0.82659 0.30671 0.38901 0.0
H3093 H 0.81427 0.2636 0.391 0.0
C3094 C 0.83996 0.22742 0.37444 0.0
C3095 C 0.85557 0.21066 0.36531 0.0
C3096 C 0.84377 0.25201 0.36939 0.0
C3097 C 0.87357 0.21801 0.34921 0.0
C3098 C 0.87755 0.24251 0.34408 0.0
C3099 C 0.87019 0.28436 0.35382 0.0
C3100 C 0.8575 0.30123 0.36681 0.0
C3101 C 0.8635 0.2597 0.35505 0.0
C3102 C 0.83647 0.29379 0.37888 0.0
C3103 C 0.82962 0.26921 0.3802 0.0
H3104 H 0.22043 0.41191 0.87496 0.0
H3105 H 0.22775 0.37256 0.8079 0.0
H3106 H 0.27129 0.37043 0.81643 0.0
H3107 H 0.30742 0.38201 0.84156 0.0
H3108 H 0.30009 0.42336 0.90748 0.0
H3109 H 0.25631 0.42234 0.90069 0.0
C3110 C 0.23144 0.40251 0.86235 0.0
C3111 C 0.22084 0.39237 0.84082 0.0
C3112 C 0.25648 0.4019 0.86705 0.0
C3113 C 0.23546 0.38052 0.82459 0.0
C3114 C 0.26036 0.37937 0.82942 0.0
C3115 C 0.29631 0.39069 0.85458 0.0
C3116 C 0.30721 0.40269 0.87509 0.0
C3117 C 0.27111 0.3904 0.85037 0.0
C3118 C 0.29236 0.41387 0.89163 0.0
C3119 C 0.26725 0.41335 0.88774 0.0
H3120 H 0.18964 0.79613 0.4071 0.0
H3121 H 0.14392 0.82778 0.35275 0.0
H3122 H 0.13416 0.78787 0.33448 0.0
H3123 H 0.13496 0.7436 0.33728 0.0
H3124 H 0.18277 0.71207 0.3898 0.0
H3125 H 0.19587 0.75241 0.40544 0.0
C3126 C 0.17792 0.7942 0.39098 0.0
C3127 C 0.16719 0.8145 0.38134 0.0
C3128 C 0.17278 0.77135 0.38042 0.0
C3129 C 0.15229 0.8122 0.36035 0.0
C3130 C 0.14664 0.78944 0.35002 0.0
C3131 C 0.14867 0.74574 0.35176 0.0
C3132 C 0.15786 0.72527 0.36262 0.0
C3133 C 0.15623 0.76885 0.36035 0.0
C3134 C 0.17566 0.72784 0.38123 0.0
C3135 C 0.18297 0.7508 0.39025 0.0
H3136 H 0.80382 0.60425 0.91929 0.0
H3137 H 0.81742 0.67232 0.88325 0.0
H3138 H 0.77374 0.67551 0.87592 0.0
H3139 H 0.73169 0.65781 0.87847 0.0
H3140 H 0.71967 0.58942 0.91449 0.0
H3141 H 0.76287 0.58739 0.9227 0.0
C3142 C 0.79733 0.6199 0.90991 0.0
C3143 C 0.81385 0.63792 0.90171 0.0
C3144 C 0.77247 0.62141 0.90546 0.0
C3145 C 0.80504 0.65819 0.88984 0.0
C3146 C 0.7801 0.65993 0.88547 0.0
C3147 C 0.73863 0.64244 0.88795 0.0
C3148 C 0.72252 0.62379 0.89577 0.0
C3149 C 0.76366 0.64143 0.89288 0.0
C3150 C 0.73165 0.60408 0.90832 0.0
C3151 C 0.75637 0.60287 0.91308 0.0
H3152 H 0.61505 0.90792 0.79746 0.0
H3153 H 0.67808 0.86582 0.80752 0.0
H3154 H 0.68005 0.86015 0.76363 0.0
H3155 H 0.6629 0.86609 0.7225 0.0
H3156 H 0.6005 0.90924 0.71308 0.0
H3157 H 0.59921 0.91542 0.75676 0.0
C3158 C 0.62931 0.89758 0.7901 0.0
C3159 C 0.6463 0.8872 0.80575 0.0
C3160 C 0.63034 0.89443 0.76499 0.0
C3161 C 0.66481 0.87407 0.79586 0.0
C3162 C 0.66586 0.87071 0.77079 0.0
C3163 C 0.649 0.87678 0.73004 0.0
C3164 C 0.63171 0.88702 0.7146 0.0
C3165 C 0.64854 0.88058 0.7552 0.0
C3166 C 0.61401 0.90114 0.72457 0.0
C3167 C 0.61324 0.9047 0.74954 0.0
H3168 H 0.60688 0.17138 0.22787 0.0
H3169 H 0.66176 0.12379 0.2062 0.0
H3170 H 0.67077 0.11448 0.24877 0.0
H3171 H 0.66002 0.11711 0.29175 0.0
H3172 H 0.60746 0.16716 0.31358 0.0
H3173 H 0.6004 0.17851 0.2712 0.0
C3174 C 0.62114 0.15936 0.23262 0.0
C3175 C 0.63361 0.14811 0.21423 0.0
C3176 C 0.62633 0.1544 0.25697 0.0
C3177 C 0.65213 0.1327 0.22026 0.0
C3178 C 0.65709 0.12724 0.2445 0.0
C3179 C 0.64724 0.13068 0.2871 0.0
C3180 C 0.63394 0.14111 0.30534 0.0
C3181 C 0.64385 0.13751 0.26292 0.0
C3182 C 0.61772 0.15893 0.29955 0.0
C3183 C 0.6137 0.16535 0.27544 0.0
H3184 H 0.35389 0.11225 0.72812 0.0
H3185 H 0.41325 0.16201 0.71038 0.0
H3186 H 0.42085 0.17162 0.75351 0.0
H3187 H 0.41276 0.16269 0.79633 0.0
H3188 H 0.35178 0.11473 0.81372 0.0
H3189 H 0.34237 0.10759 0.77056 0.0
C3190 C 0.36821 0.12548 0.7338 0.0
C3191 C 0.38317 0.13632 0.71646 0.0
C3192 C 0.37222 0.13101 0.75843 0.0
C3193 C 0.40152 0.15361 0.72365 0.0
C3194 C 0.40595 0.15894 0.74823 0.0
C3195 C 0.39729 0.1509 0.79054 0.0
C3196 C 0.38313 0.13895 0.80791 0.0
C3197 C 0.39178 0.14726 0.76578 0.0
C3198 C 0.36287 0.12405 0.80049 0.0
C3199 C 0.35757 0.1199 0.77589 0.0
H3200 H 0.35187 0.85239 0.21486 0.0
H3201 H 0.42728 0.8441 0.2343 0.0
H3202 H 0.42017 0.85652 0.27583 0.0
H3203 H 0.39385 0.87372 0.30515 0.0
H3204 H 0.31889 0.88437 0.28577 0.0
H3205 H 0.32441 0.86659 0.24568 0.0
C3206 C 0.36661 0.85289 0.22831 0.0
C3207 C 0.3901 0.84759 0.22153 0.0
C3208 C 0.36254 0.86062 0.25204 0.0
C3209 C 0.40909 0.84836 0.23907 0.0
C3210 C 0.40506 0.85546 0.26279 0.0
C3211 C 0.37861 0.87198 0.29227 0.0
C3212 C 0.35611 0.88069 0.29825 0.0
C3213 C 0.38205 0.86231 0.26925 0.0
C3214 C 0.33645 0.87791 0.28152 0.0
C3215 C 0.33962 0.86785 0.25858 0.0
H3216 H 0.12401 0.0673 0.55659 0.0
H3217 H 0.04606 0.06813 0.54854 0.0
H3218 H 0.04919 0.07041 0.50473 0.0
H3219 H 0.07446 0.08322 0.4706 0.0
H3220 H 0.15229 0.08528 0.47899 0.0
H3221 H 0.14898 0.07113 0.52075 0.0
C3222 C 0.10764 0.06704 0.5452 0.0
C3223 C 0.08491 0.06855 0.55593 0.0
C3224 C 0.10965 0.06964 0.52007 0.0
C3225 C 0.06385 0.06748 0.54089 0.0
C3226 C 0.06563 0.06913 0.51577 0.0
C3227 C 0.0906 0.07954 0.48136 0.0
C3228 C 0.11356 0.08509 0.47202 0.0
C3229 C 0.08848 0.07197 0.50542 0.0
C3230 C 0.13448 0.08076 0.48594 0.0
C3231 C 0.13256 0.07287 0.50981 0.0
H3232 H 0.43462 0.68391 0.98936 0.0
H3233 H 0.43784 0.61096 0.96225 0.0
H3234 H 0.43834 0.59565 1.00358 0.0
H3235 H 0.42699 0.60259 0.04606 0.0
H3236 H 0.42296 0.67564 0.07252 0.0
H3237 H 0.43434 0.69145 0.03314 0.0
C3238 C 0.43663 0.6648 0.99262 0.0
C3239 C 0.43586 0.64857 0.97292 0.0
C3240 C 0.43639 0.65612 0.01639 0.0
C3241 C 0.43846 0.62383 0.97719 0.0
C3242 C 0.43841 0.61502 1.00085 0.0
C3243 C 0.42998 0.62191 0.04347 0.0
C3244 C 0.42425 0.638 0.06196 0.0
C3245 C 0.43585 0.63087 0.02048 0.0
C3246 C 0.42756 0.66303 0.05845 0.0
C3247 C 0.43375 0.67206 0.03586 0.0
H3248 H 0.93873 0.9436 0.48912 0.0
H3249 H 0.86133 0.93998 0.47601 0.0
H3250 H 0.85501 0.94837 0.51886 0.0
H3251 H 0.87156 0.94664 0.56078 0.0
H3252 H 0.94902 0.94943 0.57348 0.0
H3253 H 0.95539 0.95269 0.53012 0.0
C3254 C 0.92056 0.94562 0.49556 0.0
C3255 C 0.90052 0.94093 0.4797 0.0
C3256 C 0.9171 0.95026 0.5202 0.0
C3257 C 0.87702 0.94361 0.48801 0.0
C3258 C 0.8734 0.94821 0.51254 0.0
C3259 C 0.88978 0.94943 0.55413 0.0
C3260 C 0.9098 0.94755 0.57016 0.0
C3261 C 0.89328 0.95026 0.52901 0.0
C3262 C 0.93336 0.95086 0.56136 0.0
C3263 C 0.93701 0.95229 0.53653 0.0
H3264 H 0.59704 0.33388 0.95986 0.0
H3265 H 0.59254 0.41068 0.95116 0.0
H3266 H 0.58793 0.41579 0.99478 0.0
H3267 H 0.59763 0.39964 0.03546 0.0
H3268 H 0.60713 0.32329 0.04305 0.0
H3269 H 0.59717 0.31655 1.00014 0.0
C3270 C 0.59367 0.35151 0.96745 0.0
C3271 C 0.59552 0.37188 0.95262 0.0
C3272 C 0.59283 0.35442 0.99258 0.0
C3273 C 0.59114 0.39471 0.96235 0.0
C3274 C 0.58905 0.39769 0.98739 0.0
C3275 C 0.59653 0.38149 0.02777 0.0
C3276 C 0.60343 0.36201 0.042 0.0
C3277 C 0.59179 0.37791 1.00278 0.0
C3278 C 0.60216 0.33851 0.03212 0.0
C3279 C 0.5965 0.33467 1.00763 0.0
H3280 H 0.13315 0.93323 0.56141 0.0
H3281 H 0.21084 0.93022 0.56715 0.0
H3282 H 0.21382 0.93803 0.5238 0.0
H3283 H 0.19307 0.9328 0.48391 0.0
H3284 H 0.11516 0.93315 0.47808 0.0
H3285 H 0.11328 0.93997 0.52183 0.0
C3286 C 0.15078 0.93571 0.55332 0.0
C3287 C 0.17173 0.93093 0.56709 0.0
C3288 C 0.15214 0.9391 0.52828 0.0
C3289 C 0.19454 0.93398 0.55675 0.0
C3290 C 0.19617 0.93802 0.5319 0.0
C3291 C 0.17584 0.93563 0.49217 0.0
C3292 C 0.15426 0.93224 0.47819 0.0
C3293 C 0.17495 0.93872 0.51733 0.0
C3294 C 0.13194 0.93581 0.4887 0.0
C3295 C 0.13088 0.93939 0.51371 0.0
H3296 H 0.58145 0.58559 0.95343 0.0
H3297 H 0.578 0.66289 0.94873 0.0
H3298 H 0.57432 0.66585 0.99267 0.0
H3299 H 0.58472 0.64772 0.03216 0.0
H3300 H 0.59534 0.57122 0.03561 0.0
H3301 H 0.58383 0.56647 0.99277 0.0
C3302 C 0.57855 0.6029 0.96199 0.0
C3303 C 0.58046 0.624 0.94811 0.0
C3304 C 0.57884 0.60461 0.98728 0.0
C3305 C 0.5766 0.64638 0.9591 0.0
C3306 C 0.57511 0.64811 0.98433 0.0
C3307 C 0.58358 0.62993 0.02363 0.0
C3308 C 0.59105 0.60986 0.03673 0.0
C3309 C 0.57818 0.62758 0.99865 0.0
C3310 C 0.58985 0.5869 0.02565 0.0
C3311 C 0.58329 0.5842 1.0012 0.0
H3312 H 0.82497 0.08875 0.45469 0.0
H3313 H 0.90252 0.08899 0.46521 0.0
H3314 H 0.89777 0.07875 0.50795 0.0
H3315 H 0.87203 0.0802 0.5432 0.0
H3316 H 0.79453 0.08421 0.53283 0.0
H3317 H 0.79856 0.08113 0.48911 0.0
C3318 C 0.8407 0.08535 0.46618 0.0
C3319 C 0.86401 0.08942 0.45715 0.0
C3320 C 0.83777 0.08061 0.49082 0.0
C3321 C 0.88444 0.08555 0.47195 0.0
C3322 C 0.88169 0.08001 0.49639 0.0
C3323 C 0.85591 0.07958 0.53143 0.0
C3324 C 0.83312 0.08334 0.5412 0.0
C3325 C 0.8585 0.07903 0.50626 0.0
C3326 C 0.81236 0.08184 0.52579 0.0
C3327 C 0.81467 0.08031 0.50072 0.0
H3328 H 0.4377 0.36604 0.95952 0.0
H3329 H 0.43269 0.44322 0.96784 0.0
H3330 H 0.43401 0.43921 0.01179 0.0
H3331 H 0.42491 0.41282 0.04617 0.0
H3332 H 0.42449 0.33552 0.03708 0.0
H3333 H 0.43735 0.34034 0.99524 0.0
C3334 C 0.43789 0.38213 0.9709 0.0
C3335 C 0.43435 0.40482 0.96041 0.0
C3336 C 0.4372 0.3795 0.99611 0.0
C3337 C 0.43497 0.42549 0.97546 0.0
C3338 C 0.43548 0.42318 1.00062 0.0
C3339 C 0.42893 0.39716 0.03531 0.0
C3340 C 0.42411 0.3739 0.04445 0.0
C3341 C 0.43487 0.40013 0.01099 0.0
C3342 C 0.42859 0.35356 0.03033 0.0
C3343 C 0.43558 0.35636 1.00636 0.0
H3344 H 0.54453 0.09454 0.08307 0.0
H3345 H 0.54389 0.17226 0.08484 0.0
H3346 H 0.50024 0.17017 0.07602 0.0
H3347 H 0.46194 0.14624 0.07984 0.0
H3348 H 0.46251 0.06862 0.08372 0.0
H3349 H 0.50614 0.07037 0.07746 0.0
C3350 C 0.53495 0.11094 0.08017 0.0
C3351 C 0.54713 0.13348 0.08457 0.0
C3352 C 0.50962 0.10951 0.07663 0.0
C3353 C 0.53467 0.15472 0.08137 0.0
C3354 C 0.50969 0.15351 0.07664 0.0
C3355 C 0.47147 0.12971 0.07797 0.0
C3356 C 0.45928 0.10738 0.08236 0.0
C3357 C 0.49679 0.131 0.07594 0.0
C3358 C 0.47172 0.08601 0.08037 0.0
C3359 C 0.4967 0.08703 0.0771 0.0
H3360 H 0.38387 0.95635 0.58465 0.0
H3361 H 0.30811 0.96529 0.59723 0.0
H3362 H 0.31397 0.00863 0.59083 0.0
H3363 H 0.34287 0.0436 0.596 0.0
H3364 H 0.41932 0.0347 0.5893 0.0
H3365 H 0.41118 0.99195 0.57866 0.0
C3366 C 0.36844 0.96767 0.58498 0.0
C3367 C 0.34588 0.95789 0.59259 0.0
C3368 C 0.37233 0.99276 0.58295 0.0
C3369 C 0.32583 0.97247 0.59206 0.0
C3370 C 0.32924 0.99736 0.58871 0.0
C3371 C 0.35755 0.03249 0.59096 0.0
C3372 C 0.3816 0.04185 0.59367 0.0
C3373 C 0.35277 1.00778 0.58633 0.0
C3374 C 0.40067 0.02766 0.58719 0.0
C3375 C 0.396 1.00317 0.58146 0.0
H3376 H 0.45553 0.89969 0.08727 0.0
H3377 H 0.45507 0.82227 0.07936 0.0
H3378 H 0.49771 0.82493 0.06858 0.0
H3379 H 0.53682 0.84818 0.07311 0.0
H3380 H 0.53767 0.92502 0.08663 0.0
H3381 H 0.49349 0.92398 0.08315 0.0
C3382 C 0.46448 0.88361 0.08179 0.0
C3383 C 0.45241 0.86087 0.08399 0.0
C3384 C 0.48941 0.8852 0.0774 0.0
C3385 C 0.46414 0.83998 0.0775 0.0
C3386 C 0.48862 0.84149 0.07176 0.0
C3387 C 0.5273 0.86479 0.07418 0.0
C3388 C 0.54025 0.88656 0.08037 0.0
C3389 C 0.50181 0.86383 0.07338 0.0
C3390 C 0.52787 0.90801 0.08206 0.0
C3391 C 0.50263 0.90741 0.08019 0.0
H3392 H 0.6635 0.02438 0.58461 0.0
H3393 H 0.59076 0.04826 0.58749 0.0
H3394 H 0.57426 1.00759 0.57675 0.0
H3395 H 0.58101 0.96418 0.57809 0.0
H3396 H 0.65399 0.94028 0.57568 0.0
H3397 H 0.66991 0.98203 0.57329 0.0
C3398 C 0.64412 0.02088 0.58156 0.0
C3399 C 0.62828 0.03895 0.587 0.0
C3400 C 0.63481 0.99735 0.5758 0.0
C3401 C 0.60319 0.03441 0.58337 0.0
C3402 C 0.59377 0.01112 0.57743 0.0
C3403 C 0.60028 0.96798 0.57585 0.0
C3404 C 0.61638 0.94925 0.57831 0.0
C3405 C 0.60941 0.99214 0.57526 0.0
C3406 C 0.64125 0.95448 0.57467 0.0
C3407 C 0.65043 0.9784 0.57356 0.0
H3408 H 0.49083 0.84586 0.93768 0.0
H3409 H 0.47522 0.92115 0.94016 0.0
H3410 H 0.5182 0.93248 0.9474 0.0
H3411 H 0.55995 0.92101 0.94032 0.0
H3412 H 0.57561 0.84572 0.93803 0.0
H3413 H 0.53296 0.83409 0.94426 0.0
C3414 C 0.49675 0.86459 0.94135 0.0
C3415 C 0.48018 0.88271 0.9382 0.0
C3416 C 0.52156 0.87092 0.94499 0.0
C3417 C 0.48783 0.90697 0.94262 0.0
C3418 C 0.51244 0.91346 0.9464 0.0
C3419 C 0.55417 0.90214 0.94264 0.0
C3420 C 0.57058 0.8842 0.93848 0.0
C3421 C 0.52956 0.89566 0.94579 0.0
C3422 C 0.56314 0.85977 0.94128 0.0
C3423 C 0.5387 0.85313 0.9445 0.0
H3424 H 0.66347 0.97727 0.43572 0.0
H3425 H 0.58585 0.96614 0.42833 0.0
H3426 H 0.58094 0.0089 0.43685 0.0
H3427 H 0.59927 0.05009 0.43389 0.0
H3428 H 0.67701 0.06135 0.43556 0.0
H3429 H 0.68155 0.01832 0.44258 0.0
C3430 C 0.64551 0.98402 0.43747 0.0
C3431 C 0.62506 0.9688 0.43139 0.0
C3432 C 0.64295 0.00895 0.44079 0.0
C3433 C 0.60181 0.97768 0.43308 0.0
C3434 C 0.59903 1.0022 0.43759 0.0
C3435 C 0.6171 0.04324 0.43724 0.0
C3436 C 0.63777 0.05865 0.43438 0.0
C3437 C 0.61952 0.01823 0.43968 0.0
C3438 C 0.66089 0.04967 0.438 0.0
C3439 C 0.66347 0.02502 0.44167 0.0
H3440 H 0.48123 0.16402 0.92613 0.0
H3441 H 0.49593 0.0882 0.92754 0.0
H3442 H 0.53874 0.09867 0.9364 0.0
H3443 H 0.57231 0.12874 0.93203 0.0
H3444 H 0.55764 0.20414 0.92426 0.0
H3445 H 0.51471 0.1946 0.93059 0.0
C3446 C 0.49365 0.14973 0.9291 0.0
C3447 C 0.48557 0.12538 0.92521 0.0
C3448 C 0.51843 0.1559 0.93273 0.0
C3449 C 0.50173 0.10711 0.92988 0.0
C3450 C 0.5263 0.1131 0.93478 0.0
C3451 C 0.55986 0.14323 0.9325 0.0
C3452 C 0.56799 0.16696 0.92662 0.0
C3453 C 0.535 0.13738 0.93444 0.0
C3454 C 0.55182 0.18562 0.92817 0.0
C3455 C 0.52716 0.18013 0.93152 0.0
H3456 H 0.35579 0.97214 0.42431 0.0
H3457 H 0.43351 0.96816 0.42721 0.0
H3458 H 0.43828 0.01109 0.43854 0.0
H3459 H 0.42032 0.05071 0.43784 0.0
H3460 H 0.34259 0.05469 0.43391 0.0
H3461 H 0.3376 0.01058 0.43393 0.0
C3462 C 0.37368 0.98059 0.42833 0.0
C3463 C 0.39432 0.96746 0.42473 0.0
C3464 C 0.37619 1.00517 0.43462 0.0
C3465 C 0.41747 0.97817 0.42996 0.0
C3466 C 0.42016 1.00267 0.43627 0.0
C3467 C 0.40232 0.04184 0.43827 0.0
C3468 C 0.38185 0.05568 0.43553 0.0
C3469 C 0.39968 0.01656 0.43737 0.0
C3470 C 0.35857 0.04429 0.43613 0.0
C3471 C 0.35573 0.01907 0.43568 0.0
H3472 H 0.06446 0.47077 0.12582 0.0
H3473 H 0.08766 0.46262 0.05248 0.0
H3474 H 0.08025 0.5048 0.04436 0.0
H3475 H 0.07918 0.54536 0.06186 0.0
H3476 H 0.05905 0.55454 0.13593 0.0
H3477 H 0.05233 0.51076 0.13995 0.0
C3478 C 0.06669 0.47801 0.10778 0.0
C3479 C 0.07699 0.46399 0.08988 0.0
C3480 C 0.06333 0.50263 0.10355 0.0
C3481 C 0.08001 0.47338 0.06657 0.0
C3482 C 0.07593 0.49751 0.06196 0.0
C3483 C 0.07196 0.53775 0.07838 0.0
C3484 C 0.06987 0.55284 0.09862 0.0
C3485 C 0.06932 0.51263 0.08083 0.0
C3486 C 0.06066 0.54311 0.12008 0.0
C3487 C 0.05726 0.51804 0.1225 0.0
H3488 H 0.08674 0.54175 0.8199 0.0
H3489 H 0.07908 0.54971 0.89685 0.0
H3490 H 0.07157 0.50597 0.9006 0.0
H3491 H 0.07937 0.46582 0.88336 0.0
H3492 H 0.08988 0.45876 0.80664 0.0
H3493 H 0.08331 0.50154 0.80113 0.0
C3494 C 0.08209 0.53394 0.83723 0.0
C3495 C 0.08367 0.54862 0.85807 0.0
C3496 C 0.07884 0.5088 0.83931 0.0
C3497 C 0.0778 0.5386 0.88055 0.0
C3498 C 0.07392 0.51354 0.88274 0.0
C3499 C 0.07896 0.47348 0.86535 0.0
C3500 C 0.08547 0.45949 0.84547 0.0
C3501 C 0.07616 0.4984 0.86248 0.0
C3502 C 0.08512 0.46944 0.82217 0.0
C3503 C 0.08156 0.49392 0.81905 0.0
H3504 H 0.05988 0.59556 0.39782 0.0
H3505 H 0.06365 0.60056 0.32024 0.0
H3506 H 0.01986 0.5926 0.31587 0.0
H3507 H 0.98071 0.5967 0.33488 0.0
H3508 H 0.97671 0.5953 0.41253 0.0
H3509 H 0.02006 0.58869 0.41633 0.0
C3510 C 0.05119 0.59349 0.37997 0.0
C3511 C 0.06471 0.5987 0.35938 0.0
C3512 C 0.0258 0.59013 0.37772 0.0
C3513 C 0.0534 0.59652 0.33629 0.0
C3514 C 0.02834 0.59227 0.33381 0.0
C3515 C 0.98914 0.59347 0.35248 0.0
C3516 C 0.9758 0.5964 0.37338 0.0
C3517 C 0.01425 0.59082 0.35448 0.0
C3518 C 0.98678 0.59282 0.39622 0.0
C3519 C 0.01163 0.58941 0.39839 0.0
H3520 H 0.94383 0.56611 0.87188 0.0
H3521 H 0.9485 0.55472 0.94883 0.0
H3522 H 0.96354 0.51448 0.94209 0.0
H3523 H 0.96317 0.4797 0.91436 0.0
H3524 H 0.95383 0.49036 0.83739 0.0
H3525 H 0.9545 0.53392 0.84384 0.0
C3526 C 0.94939 0.55522 0.8871 0.0
C3527 C 0.94509 0.56302 0.91075 0.0
C3528 C 0.95696 0.53183 0.88298 0.0
C3529 C 0.95195 0.54895 0.9305 0.0
C3530 C 0.96027 0.52588 0.9266 0.0
C3531 C 0.96235 0.49162 0.8989 0.0
C3532 C 0.95712 0.48178 0.87559 0.0
C3533 C 0.96112 0.51657 0.9029 0.0
C3534 C 0.95709 0.49739 0.85564 0.0
C3535 C 0.95712 0.52237 0.85934 0.0
H3536 H 0.0373 0.42079 0.41074 0.0
H3537 H 0.02122 0.42857 0.33456 0.0
H3538 H 0.97905 0.4364 0.34313 0.0
H3539 H 0.94573 0.42936 0.37091 0.0
H3540 H 0.96122 0.41384 0.44582 0.0
H3541 H 1.00465 0.42172 0.43976 0.0
C3542 C 0.02473 0.42545 0.39623 0.0
C3543 C 0.03205 0.42442 0.37214 0.0
C3544 C 1.00033 0.42826 0.40126 0.0
C3545 C 0.01582 0.42973 0.35322 0.0
C3546 C 0.99171 0.43388 0.35815 0.0
C3547 C 0.95862 0.42916 0.38614 0.0
C3548 C 0.95058 0.42133 0.40879 0.0
C3549 C 0.98351 0.43163 0.38192 0.0
C3550 C 0.96717 0.42031 0.42839 0.0
C3551 C 0.99198 0.42434 0.42476 0.0
H3552 H 0.92483 0.47256 0.20831 0.0
H3553 H 0.92768 0.47348 0.1305 0.0
H3554 H 0.93498 0.5175 0.13151 0.0
H3555 H 0.92872 0.55508 0.15375 0.0
H3556 H 0.92225 0.55362 0.23149 0.0
H3557 H 0.92928 0.51061 0.2315 0.0
C3558 C 0.92834 0.48239 0.19174 0.0
C3559 C 0.92559 0.47016 0.16938 0.0
C3560 C 0.93137 0.50764 0.19247 0.0
C3561 C 0.92994 0.48272 0.14789 0.0
C3562 C 0.93373 0.50789 0.14848 0.0
C3563 C 0.92971 0.54555 0.1708 0.0
C3564 C 0.92391 0.55729 0.19246 0.0
C3565 C 0.9327 0.52057 0.17055 0.0
C3566 C 0.92602 0.54491 0.21447 0.0
C3567 C 0.92986 0.52021 0.21448 0.0
H3568 H 0.95527 0.42109 0.6075 0.0
H3569 H 0.95971 0.4151 0.68523 0.0
H3570 H 1.004 0.41684 0.68427 0.0
H3571 H 0.03989 0.40961 0.66033 0.0
H3572 H 0.03529 0.41391 0.5825 0.0
H3573 H 0.99253 0.42348 0.58425 0.0
C3574 C 0.96606 0.4214 0.62427 0.0
C3575 C 0.95449 0.41772 0.64636 0.0
C3576 C 0.99136 0.42141 0.62341 0.0
C3577 C 0.96835 0.41812 0.66807 0.0
C3578 C 0.99365 0.41864 0.66745 0.0
C3579 C 0.02964 0.41355 0.64389 0.0
C3580 C 0.04028 0.41095 0.62132 0.0
C3581 C 1.00515 0.41869 0.64511 0.0
C3582 C 0.02722 0.41597 0.6 0.0
C3583 C 1.00282 0.42126 0.60103 0.0
H3584 H 0.03783 0.58135 0.67259 0.0
H3585 H 0.05282 0.57637 0.5967 0.0
H3586 H 0.00944 0.57146 0.58667 0.0
H3587 H 0.96858 0.58145 0.59921 0.0
H3588 H 0.95381 0.58669 0.67512 0.0
H3589 H 0.9956 0.57777 0.68568 0.0
C3590 C 0.03157 0.5777 0.65403 0.0
C3591 C 0.04823 0.57949 0.63536 0.0
C3592 C 1.0066 0.57543 0.64843 0.0
C3593 C 0.04017 0.57496 0.61133 0.0
C3594 C 0.01534 0.57252 0.60557 0.0
C3595 C 0.9742 0.5791 0.61801 0.0
C3596 C 0.95844 0.58486 0.63641 0.0
C3597 C 0.99845 0.57456 0.62387 0.0
C3598 C 0.96577 0.58219 0.66073 0.0
C3599 C 0.98976 0.57744 0.66676 0.0
H3600 H 0.95972 0.14161 0.41861 0.0
H3601 H 0.95198 0.07903 0.37158 0.0
H3602 H 0.99655 0.07798 0.37014 0.0
H3603 H 0.03849 0.09486 0.38358 0.0
H3604 H 0.04311 0.15947 0.42865 0.0
H3605 H 0.99963 0.15947 0.42936 0.0
C3606 C 0.96765 0.12767 0.40795 0.0
C3607 C 0.9523 0.1103 0.39543 0.0
C3608 C 0.99312 0.12748 0.40689 0.0
C3609 C 0.9632 0.09268 0.38145 0.0
C3610 C 0.98878 0.09206 0.3807 0.0
C3611 C 0.03 0.10898 0.39345 0.0
C3612 C 0.04478 0.12695 0.40627 0.0
C3613 C 1.0041 0.10935 0.39353 0.0
C3614 C 0.03292 0.14514 0.41871 0.0
C3615 C 0.00772 0.14528 0.41919 0.0
H3616 H 0.39966 0.49095 0.89553 0.0
H3617 H 0.36241 0.46838 0.82866 0.0
H3618 H 0.35565 0.51076 0.81919 0.0
H3619 H 0.35848 0.55445 0.83109 0.0
H3620 H 0.39706 0.57619 0.89757 0.0
H3621 H 0.40488 0.5341 0.90597 0.0
C3622 C 0.39024 0.4952 0.87872 0.0
C3623 C 0.3815 0.47623 0.8629 0.0
C3624 C 0.3864 0.51962 0.87342 0.0
C3625 C 0.36951 0.48241 0.84115 0.0
C3626 C 0.36546 0.50671 0.83582 0.0
C3627 C 0.36864 0.54998 0.84738 0.0
C3628 C 0.377 0.56868 0.86373 0.0
C3629 C 0.37348 0.5255 0.852 0.0
C3630 C 0.3904 0.5624 0.88461 0.0
C3631 C 0.39488 0.53823 0.88947 0.0
H3632 H 0.05384 0.95563 0.40772 0.0
H3633 H 0.07151 0.88067 0.40774 0.0
H3634 H 0.0284 0.86814 0.40814 0.0
H3635 H 0.98545 0.87829 0.40968 0.0
H3636 H 0.96748 0.95316 0.40747 0.0
H3637 H 0.01057 0.96572 0.4065 0.0
C3638 C 0.04826 0.93655 0.40775 0.0
C3639 C 0.0661 0.91917 0.40784 0.0
C3640 C 0.02322 0.92938 0.40753 0.0
C3641 C 0.05836 0.89451 0.4076 0.0
C3642 C 0.03361 0.8873 0.40789 0.0
C3643 C 0.99088 0.89737 0.40879 0.0
C3644 C 0.97296 0.91469 0.40873 0.0
C3645 C 0.01584 0.90454 0.40799 0.0
C3646 C 0.98062 0.93932 0.40745 0.0
C3647 C 1.00538 0.94657 0.40701 0.0
H3648 H 0.67307 0.4734 0.84403 0.0
H3649 H 0.6489 0.45904 0.91628 0.0
H3650 H 0.63802 0.50084 0.92087 0.0
H3651 H 0.63686 0.54184 0.90562 0.0
H3652 H 0.66391 0.55881 0.83493 0.0
H3653 H 0.67167 0.51596 0.82835 0.0
C3654 C 0.66517 0.47944 0.86062 0.0
C3655 C 0.66181 0.46292 0.87984 0.0
C3656 C 0.65945 0.5041 0.86345 0.0
C3657 C 0.65185 0.47123 0.90131 0.0
C3658 C 0.64555 0.49522 0.90393 0.0
C3659 C 0.64434 0.53637 0.88861 0.0
C3660 C 0.64974 0.55394 0.87083 0.0
C3661 C 0.64952 0.51189 0.8853 0.0
C3662 C 0.65944 0.54596 0.849 0.0
C3663 C 0.664 0.52136 0.84527 0.0
H3664 H 0.98592 0.90761 0.63545 0.0
H3665 H 0.96088 0.86247 0.69394 0.0
H3666 H 1.00287 0.85426 0.70506 0.0
H3667 H 0.04678 0.85776 0.69637 0.0
H3668 H 0.07103 0.90338 0.63786 0.0
H3669 H 0.02937 0.91331 0.62857 0.0
C3670 C 0.98956 0.8962 0.65086 0.0
C3671 C 0.97008 0.88564 0.66375 0.0
C3672 C 0.01372 0.89137 0.657 0.0
C3673 C 0.97538 0.87098 0.68371 0.0
C3674 C 0.99944 0.86611 0.68997 0.0
C3675 C 0.04296 0.86997 0.68168 0.0
C3676 C 0.06215 0.87968 0.6678 0.0
C3677 C 0.01877 0.87583 0.67645 0.0
C3678 C 0.05677 0.89563 0.64892 0.0
C3679 C 0.03287 0.90133 0.64354 0.0
H3680 H 0.57312 0.46856 0.10594 0.0
H3681 H 0.6479 0.45088 0.11522 0.0
H3682 H 0.66048 0.4939 0.1175 0.0
H3683 H 0.65044 0.53682 0.11558 0.0
H3684 H 0.57534 0.55441 0.10869 0.0
H3685 H 0.56284 0.51149 0.1071 0.0
C3686 C 0.59216 0.47414 0.1085 0.0
C3687 C 0.60953 0.45642 0.11021 0.0
C3688 C 0.59927 0.49903 0.11035 0.0
C3689 C 0.63411 0.46404 0.11387 0.0
C3690 C 0.64134 0.4887 0.11514 0.0
C3691 C 0.63131 0.53132 0.114 0.0
C3692 C 0.61395 0.5491 0.11219 0.0
C3693 C 0.62411 0.50641 0.11329 0.0
C3694 C 0.58922 0.54137 0.11021 0.0
C3695 C 0.582 0.51671 0.10915 0.0
H3696 H 0.97077 0.14357 0.68869 0.0
H3697 H 0.94569 0.10554 0.62332 0.0
H3698 H 0.98757 0.09921 0.61288 0.0
H3699 H 0.03148 0.10538 0.62149 0.0
H3700 H 0.05694 0.14197 0.68755 0.0
H3701 H 0.01501 0.14766 0.69851 0.0
C3702 C 0.97444 0.13383 0.67219 0.0
C3703 C 0.95488 0.12515 0.6568 0.0
C3704 C 0.99877 0.1299 0.66639 0.0
C3705 C 0.96018 0.11238 0.6356 0.0
C3706 C 0.98422 0.10879 0.62956 0.0
C3707 C 0.02798 0.11443 0.63842 0.0
C3708 C 0.04767 0.12324 0.65359 0.0
C3709 C 1.0037 0.11756 0.64473 0.0
C3710 C 0.0424 0.13487 0.67547 0.0
C3711 C 0.01832 0.13825 0.68173 0.0
H3712 H 0.3798 0.53007 0.08082 0.0
H3713 H 0.41581 0.53642 0.15107 0.0
H3714 H 0.41475 0.492 0.15403 0.0
H3715 H 0.40275 0.45048 0.13633 0.0
H3716 H 0.36532 0.44708 0.06635 0.0
H3717 H 0.36798 0.4905 0.06387 0.0
C3718 C 0.38759 0.52192 0.09684 0.0
C3719 C 0.39801 0.53692 0.1156 0.0
C3720 C 0.38663 0.49644 0.09854 0.0
C3721 C 0.4077 0.52557 0.13622 0.0
C3722 C 0.40708 0.50004 0.13792 0.0
C3723 C 0.39526 0.45924 0.12054 0.0
C3724 C 0.38375 0.44484 0.10161 0.0
C3725 C 0.39649 0.4851 0.11916 0.0
C3726 C 0.37416 0.45702 0.0814 0.0
C3727 C 0.37567 0.48217 0.07983 0.0
H3728 H 0.39009 0.02583 0.14838 0.0
H3729 H 0.38001 0.04543 0.07345 0.0
H3730 H 0.37775 1.00255 0.06167 0.0
H3731 H 0.38067 0.95914 0.07243 0.0
H3732 H 0.38937 0.94006 0.14766 0.0
H3733 H 0.39021 0.98279 0.15934 0.0
C3734 C 0.38711 0.02083 0.12944 0.0
C3735 C 0.38526 0.03921 0.11188 0.0
C3736 C 0.38582 0.99602 0.12277 0.0
C3737 C 0.38135 0.03199 0.08748 0.0
C3738 C 0.38023 1.00734 0.08069 0.0
C3739 C 0.38267 0.9643 0.0914 0.0
C3740 C 0.3851 0.94611 0.10909 0.0
C3741 C 0.38279 0.98915 0.09812 0.0
C3742 C 0.38742 0.95339 0.13359 0.0
C3743 C 0.38795 0.97794 0.14031 0.0
H3744 H 0.48133 0.82699 0.66567 0.0
H3745 H 0.4619 0.88962 0.62506 0.0
H3746 H 0.50468 0.89935 0.61724 0.0
H3747 H 0.54792 0.89082 0.62297 0.0
H3748 H 0.56702 0.82703 0.66208 0.0
H3749 H 0.52431 0.81704 0.66916 0.0
C3750 C 0.48644 0.84276 0.65507 0.0
C3751 C 0.46833 0.85762 0.64613 0.0
C3752 C 0.51114 0.84806 0.65028 0.0
C3753 C 0.47536 0.87781 0.63217 0.0
C3754 C 0.49989 0.88343 0.62771 0.0
C3755 C 0.54279 0.8746 0.63286 0.0
C3756 C 0.56096 0.85981 0.64201 0.0
C3757 C 0.51799 0.86876 0.63679 0.0
C3758 C 0.55368 0.83883 0.65473 0.0
C3759 C 0.52915 0.8331 0.65891 0.0
H3760 H 0.61252 0.03593 0.06093 0.0
H3761 H 0.62206 0.05473 0.13681 0.0
H3762 H 0.62388 0.01206 0.14693 0.0
H3763 H 0.62148 0.96929 0.13464 0.0
H3764 H 0.61313 0.94997 0.0588 0.0
H3765 H 0.61247 0.99279 0.04836 0.0
C3766 C 0.61504 0.03069 0.07968 0.0
C3767 C 0.61701 0.04865 0.09807 0.0
C3768 C 0.61639 1.00595 0.08542 0.0
C3769 C 0.62052 0.04144 0.12223 0.0
C3770 C 0.62153 0.01696 0.12807 0.0
C3771 C 0.61972 0.97435 0.11576 0.0
C3772 C 0.61728 0.9562 0.09758 0.0
C3773 C 0.61936 0.99905 0.10986 0.0
C3774 C 0.61513 0.96337 0.07324 0.0
C3775 C 0.61461 0.98793 0.06724 0.0
H3776 H 0.53689 0.094 0.66147 0.0
H3777 H 0.5466 0.16261 0.62587 0.0
H3778 H 0.50227 0.16503 0.62173 0.0
H3779 H 0.46006 0.1474 0.62907 0.0
H3780 H 0.45308 0.07743 0.66327 0.0
H3781 H 0.49649 0.07606 0.66693 0.0
C3782 C 0.52944 0.10959 0.65281 0.0
C3783 C 0.54523 0.12818 0.64424 0.0
C3784 C 0.50408 0.11066 0.65019 0.0
C3785 C 0.53498 0.148 0.63274 0.0
C3786 C 0.50956 0.1494 0.63039 0.0
C3787 C 0.46804 0.13184 0.63722 0.0
C3788 C 0.45273 0.11265 0.64591 0.0
C3789 C 0.49378 0.13081 0.63915 0.0
C3790 C 0.46381 0.09263 0.65634 0.0
C3791 C 0.48892 0.09172 0.65854 0.0
H3792 H 0.42803 0.06275 0.86917 0.0
H3793 H 0.35707 0.06791 0.89878 0.0
H3794 H 0.35198 0.02351 0.89937 0.0
H3795 H 0.36775 0.98258 0.89048 0.0
H3796 H 0.4382 0.9797 0.85894 0.0
H3797 H 0.44325 0.02343 0.86027 0.0
C3798 C 0.4114 0.05436 0.87592 0.0
C3799 C 0.39304 0.06902 0.88404 0.0
C3800 C 0.40845 0.0289 0.87583 0.0
C3801 C 0.37162 0.05735 0.89244 0.0
C3802 C 0.36869 0.03185 0.89277 0.0
C3803 C 0.38422 0.99155 0.88402 0.0
C3804 C 0.40256 0.97749 0.87462 0.0
C3805 C 0.38698 0.01731 0.88439 0.0
C3806 C 0.42368 0.98969 0.8662 0.0
C3807 C 0.42666 0.01488 0.86695 0.0
H3808 H 0.56148 0.88929 0.41587 0.0
H3809 H 0.55946 0.9112 0.34089 0.0
H3810 H 0.51573 0.91208 0.34129 0.0
H3811 H 0.47788 0.90966 0.36314 0.0
H3812 H 0.47763 0.88509 0.43688 0.0
H3813 H 0.52196 0.88204 0.43666 0.0
C3814 C 0.55146 0.89383 0.39951 0.0
C3815 C 0.56422 0.90052 0.3785 0.0
C3816 C 0.52572 0.89406 0.39963 0.0
C3817 C 0.55058 0.90621 0.35749 0.0
C3818 C 0.52536 0.9068 0.35763 0.0
C3819 C 0.48749 0.90344 0.37913 0.0
C3820 C 0.47448 0.89789 0.40008 0.0
C3821 C 0.51278 0.9013 0.37868 0.0
C3822 C 0.48719 0.88949 0.4205 0.0
C3823 C 0.51258 0.88784 0.42038 0.0
H3824 H 0.62301 0.04722 0.8725 0.0
H3825 H 0.70061 0.05556 0.88265 0.0
H3826 H 0.70265 0.01133 0.88628 0.0
H3827 H 0.68174 0.96935 0.88519 0.0
H3828 H 0.60335 0.96438 0.87726 0.0
H3829 H 0.60261 1.0075 0.87421 0.0
C3830 C 0.64046 0.03949 0.87554 0.0
C3831 C 0.66161 0.05488 0.87703 0.0
C3832 C 0.64143 0.01422 0.87797 0.0
C3833 C 0.68396 0.04428 0.88139 0.0
C3834 C 0.68512 0.01889 0.88339 0.0
C3835 C 0.66452 0.9777 0.88296 0.0
C3836 C 0.64271 0.96285 0.88127 0.0
C3837 C 0.66391 1.00347 0.88153 0.0
C3838 C 0.62065 0.97457 0.87851 0.0
C3839 C 0.62004 0.99959 0.87672 0.0
H3840 H 0.46538 0.12482 0.37088 0.0
H3841 H 0.45051 0.13517 0.44643 0.0
H3842 H 0.49416 0.13491 0.45656 0.0
H3843 H 0.53689 0.12845 0.44397 0.0
H3844 H 0.54972 0.11655 0.36828 0.0
H3845 H 0.50682 0.12056 0.35832 0.0
C3846 C 0.47151 0.12732 0.38963 0.0
C3847 C 0.4543 0.12999 0.40782 0.0
C3848 C 0.49654 0.12662 0.39534 0.0
C3849 C 0.46307 0.1332 0.43193 0.0
C3850 C 0.48814 0.13289 0.43775 0.0
C3851 C 0.53027 0.12715 0.4253 0.0
C3852 C 0.54661 0.12222 0.40683 0.0
C3853 C 0.50511 0.12916 0.41966 0.0
C3854 C 0.53762 0.12025 0.38279 0.0
C3855 C 0.51303 0.12256 0.37708 0.0
H3856 H 0.14361 0.38288 0.95425 0.0
H3857 H 0.06872 0.39811 0.94146 0.0
H3858 H 0.06215 0.39726 0.98541 0.0
H3859 H 0.07924 0.39578 0.02828 0.0
H3860 H 0.15415 0.37864 0.03896 0.0
H3861 H 0.15891 0.3763 0.99548 0.0
C3862 C 0.12573 0.38576 0.96102 0.0
C3863 C 0.10677 0.39081 0.9445 0.0
C3864 C 0.12207 0.38492 0.98619 0.0
C3865 C 0.08367 0.39416 0.95368 0.0
C3866 C 0.07995 0.39377 0.97889 0.0
C3867 C 0.09638 0.3909 0.02107 0.0
C3868 C 0.11637 0.3876 0.0372 0.0
C3869 C 0.09918 0.3896 0.99549 0.0
C3870 C 0.13848 0.38151 0.02726 0.0
C3871 C 0.14131 0.38023 1.00225 0.0
H3872 H 0.13446 0.66297 0.95915 0.0
H3873 H 0.1689 0.59481 0.95502 0.0
H3874 H 0.16429 0.58906 0.99801 0.0
H3875 H 0.15095 0.60248 0.03695 0.0
H3876 H 0.11774 0.67083 0.04405 0.0
H3877 H 0.12149 0.67729 1.00019 0.0
C3878 C 0.14096 0.64691 0.96769 0.0
C3879 C 0.15209 0.6294 0.95341 0.0
C3880 C 0.13851 0.64364 0.99313 0.0
C3881 C 0.16039 0.60875 0.9651 0.0
C3882 C 0.15773 0.60533 0.9899 0.0
C3883 C 0.14438 0.61888 0.02913 0.0
C3884 C 0.13387 0.63603 0.04414 0.0
C3885 C 0.14686 0.62257 1.00409 0.0
C3886 C 0.12585 0.6572 0.0332 0.0
C3887 C 0.128 0.66088 1.00801 0.0
H3888 H 0.84512 0.65854 0.49122 0.0
H3889 H 0.91463 0.63241 0.47329 0.0
H3890 H 0.92409 0.62619 0.51628 0.0
H3891 H 0.91351 0.62977 0.55924 0.0
H3892 H 0.84331 0.65413 0.57739 0.0
H3893 H 0.8332 0.65903 0.53429 0.0
C3894 C 0.86232 0.65141 0.49669 0.0
C3895 C 0.87922 0.64618 0.47882 0.0
C3896 C 0.86751 0.64744 0.52161 0.0
C3897 C 0.90126 0.63664 0.48643 0.0
C3898 C 0.9067 0.6331 0.51111 0.0
C3899 C 0.89584 0.6359 0.55385 0.0
C3900 C 0.87926 0.64163 0.57187 0.0
C3901 C 0.89008 0.63862 0.52891 0.0
C3902 C 0.85645 0.64943 0.5642 0.0
C3903 C 0.85071 0.65241 0.53945 0.0
H3904 H 0.87932 0.42621 0.99405 0.0
H3905 H 0.90802 0.35544 0.9899 0.0
H3906 H 0.91353 0.35523 0.03425 0.0
H3907 H 0.90993 0.37554 0.07482 0.0
H3908 H 0.88148 0.44675 0.07682 0.0
H3909 H 0.87634 0.44624 0.03314 0.0
C3910 C 0.88673 0.41061 1.00271 0.0
C3911 C 0.89307 0.3908 0.98841 0.0
C3912 C 0.89001 0.4107 0.02813 0.0
C3913 C 0.90285 0.37095 1.00027 0.0
C3914 C 0.90603 0.37084 0.02573 0.0
C3915 C 0.90269 0.39095 0.06568 0.0
C3916 C 0.89619 0.41117 0.07951 0.0
C3917 C 0.89967 0.39067 0.03996 0.0
C3918 C 0.88678 0.4309 0.06707 0.0
C3919 C 0.88373 0.43067 0.04188 0.0
H3920 H 0.07652 0.36748 0.52467 0.0
H3921 H 0.13211 0.42474 0.53404 0.0
H3922 H 0.1351 0.4278 0.48976 0.0
H3923 H 0.12122 0.41406 0.44752 0.0
H3924 H 0.0663 0.35537 0.44093 0.0
H3925 H 0.06394 0.35337 0.48427 0.0
C3926 C 0.08933 0.38073 0.51718 0.0
C3927 C 0.10393 0.39594 0.53296 0.0
C3928 C 0.09112 0.38222 0.49177 0.0
C3929 C 0.12057 0.41274 0.52254 0.0
C3930 C 0.12226 0.41452 0.49709 0.0
C3931 C 0.10879 0.40083 0.45556 0.0
C3932 C 0.09399 0.38498 0.44027 0.0
C3933 C 0.10753 0.39936 0.48135 0.0
C3934 C 0.07808 0.36795 0.45154 0.0
C3935 C 0.0766 0.36668 0.47666 0.0
H3936 H 0.88795 0.66907 0.98066 0.0
H3937 H 0.89627 0.59182 0.97918 0.0
H3938 H 0.8928 0.5902 0.02259 0.0
H3939 H 0.88502 0.60939 0.06129 0.0
H3940 H 0.87967 0.68659 0.06558 0.0
H3941 H 0.88444 0.68944 0.02145 0.0
C3942 C 0.88941 0.65198 0.98986 0.0
C3943 C 0.89198 0.63057 0.97605 0.0
C3944 C 0.88766 0.65099 0.01561 0.0
C3945 C 0.89389 0.60867 0.98875 0.0
C3946 C 0.8919 0.60759 0.01384 0.0
C3947 C 0.88499 0.62691 0.05263 0.0
C3948 C 0.88165 0.64768 0.0668 0.0
C3949 C 0.88829 0.62845 0.02742 0.0
C3950 C 0.88212 0.67025 0.05519 0.0
C3951 C 0.88481 0.67186 0.02987 0.0
H3952 H 0.87894 0.43803 0.50348 0.0
H3953 H 0.87343 0.36407 0.47768 0.0
H3954 H 0.87216 0.34974 0.51937 0.0
H3955 H 0.87439 0.35799 0.5634 0.0
H3956 H 0.87816 0.43194 0.58934 0.0
H3957 H 0.87797 0.4463 0.54764 0.0
C3958 C 0.87734 0.41878 0.50697 0.0
C3959 C 0.87642 0.4022 0.48732 0.0
C3960 C 0.87622 0.41058 0.53115 0.0
C3961 C 0.8741 0.37731 0.49231 0.0
C3962 C 0.87343 0.36905 0.51623 0.0
C3963 C 0.87486 0.37727 0.56 0.0
C3964 C 0.87635 0.39378 0.57976 0.0
C3965 C 0.87467 0.38549 0.53583 0.0
C3966 C 0.8769 0.4187 0.57473 0.0
C3967 C 0.87695 0.42698 0.55078 0.0
H3968 H 0.15859 0.62208 0.53879 0.0
H3969 H 0.09728 0.66709 0.54326 0.0
H3970 H 0.09012 0.6637 0.49996 0.0
H3971 H 0.1006 0.64862 0.46027 0.0
H3972 H 0.16246 0.6051 0.45332 0.0
H3973 H 0.16992 0.60736 0.49745 0.0
C3974 C 0.1437 0.63115 0.53028 0.0
C3975 C 0.12851 0.64478 0.54482 0.0
C3976 C 0.13965 0.62945 0.50462 0.0
C3977 C 0.10937 0.6564 0.53307 0.0
C3978 C 0.10516 0.65452 0.50804 0.0
C3979 C 0.11571 0.63946 0.46828 0.0
C3980 C 0.13077 0.62652 0.45321 0.0
C3981 C 0.12009 0.64113 0.4936 0.0
C3982 C 0.15042 0.61514 0.46426 0.0
C3983 C 0.15471 0.61645 0.48962 0.0
H3984 H 0.28335 0.0876 0.3831 0.0
H3985 H 0.29754 0.14392 0.43703 0.0
H3986 H 0.25391 0.14628 0.44256 0.0
H3987 H 0.21168 0.13173 0.43304 0.0
H3988 H 0.19678 0.07731 0.37742 0.0
H3989 H 0.24053 0.07482 0.37165 0.0
C3990 C 0.27693 0.10048 0.39603 0.0
C3991 C 0.29401 0.11549 0.40975 0.0
C3992 C 0.25158 0.102 0.39888 0.0
C3993 C 0.28509 0.13217 0.42619 0.0
C3994 C 0.26004 0.13347 0.42942 0.0
C3995 C 0.21789 0.11932 0.41957 0.0
C3996 C 0.20068 0.10456 0.40582 0.0
C3997 C 0.24311 0.11837 0.41603 0.0
C3998 C 0.20937 0.08885 0.3883 0.0
C3999 C 0.23449 0.08742 0.38504 0.0
H4000 H 0.37455 0.73957 0.91798 0.0
H4001 H 0.40355 0.72297 0.84847 0.0
H4002 H 0.40982 0.76632 0.8405 0.0
H4003 H 0.40873 0.80908 0.85424 0.0
H4004 H 0.37601 0.82541 0.92194 0.0
H4005 H 0.36895 0.78199 0.92948 0.0
C4006 C 0.38198 0.74529 0.90093 0.0
C4007 C 0.3888 0.72774 0.88398 0.0
C4008 C 0.38475 0.77028 0.89615 0.0
C4009 C 0.39825 0.73583 0.86194 0.0
C4010 C 0.40184 0.7607 0.85738 0.0
C4011 C 0.3998 0.80313 0.87051 0.0
C4012 C 0.39301 0.82052 0.8876 0.0
C4013 C 0.3954 0.7781 0.87447 0.0
C4014 C 0.38124 0.81249 0.90846 0.0
C4015 C 0.37739 0.78764 0.91283 0.0
H4016 H 0.73269 0.94036 0.38756 0.0
H4017 H 0.71591 0.88056 0.43481 0.0
H4018 H 0.75932 0.87473 0.44124 0.0
H4019 H 0.80229 0.88712 0.43407 0.0
H4020 H 0.81886 0.94523 0.38469 0.0
H4021 H 0.77549 0.95109 0.3784 0.0
C4022 C 0.73849 0.92604 0.39929 0.0
C4023 C 0.72089 0.91107 0.41089 0.0
C4024 C 0.76356 0.92246 0.4025 0.0
C4025 C 0.7289 0.89238 0.4257 0.0
C4026 C 0.75379 0.88907 0.4294 0.0
C4027 C 0.79644 0.90105 0.42186 0.0
C4028 C 0.81401 0.91583 0.40999 0.0
C4029 C 0.77132 0.90406 0.418 0.0
C4030 C 0.80591 0.93355 0.39404 0.0
C4031 C 0.78104 0.93697 0.3905 0.0
H4032 H 0.62773 0.22229 0.85797 0.0
H4033 H 0.69604 0.21108 0.89497 0.0
H4034 H 0.70469 0.25498 0.89745 0.0
H4035 H 0.69164 0.29682 0.89124 0.0
H4036 H 0.62404 0.30776 0.85307 0.0
H4037 H 0.61658 0.26382 0.84835 0.0
C4038 C 0.64463 0.22934 0.86645 0.0
C4039 C 0.66108 0.21312 0.87652 0.0
C4040 C 0.64968 0.25468 0.86741 0.0
C4041 C 0.68299 0.22289 0.88712 0.0
C4042 C 0.68793 0.24808 0.88856 0.0
C4043 C 0.67547 0.28958 0.88155 0.0
C4044 C 0.65846 0.30565 0.87236 0.0
C4045 C 0.67128 0.26419 0.87904 0.0
C4046 C 0.63759 0.29591 0.8599 0.0
C4047 C 0.63322 0.27074 0.85746 0.0
H4048 H 0.30217 0.88911 0.67485 0.0
H4049 H 0.31144 0.84203 0.61362 0.0
H4050 H 0.26722 0.83711 0.60741 0.0
H4051 H 0.22621 0.84933 0.61732 0.0
H4052 H 0.21713 0.89462 0.68006 0.0
H4053 H 0.26103 0.89724 0.68774 0.0
C4054 C 0.29449 0.87741 0.66042 0.0
C4055 C 0.31006 0.86596 0.64468 0.0
C4056 C 0.26912 0.87467 0.65705 0.0
C4057 C 0.29987 0.85078 0.62613 0.0
C4058 C 0.27459 0.8482 0.62244 0.0
C4059 C 0.23377 0.85959 0.63282 0.0
C4060 C 0.21828 0.87205 0.64792 0.0
C4061 C 0.25907 0.86055 0.63744 0.0
C4062 C 0.22849 0.88495 0.6681 0.0
C4063 C 0.25365 0.88647 0.67248 0.0
H4064 H 0.63227 0.71714 0.07197 0.0
H4065 H 0.5819 0.70158 0.12878 0.0
H4066 H 0.57533 0.74471 0.13319 0.0
H4067 H 0.58348 0.78698 0.12068 0.0
H4068 H 0.63469 0.80265 0.06464 0.0
H4069 H 0.64128 0.75952 0.06025 0.0
C4070 C 0.61984 0.72314 0.08534 0.0
C4071 C 0.60753 0.70595 0.09995 0.0
C4072 C 0.61625 0.74809 0.08792 0.0
C4073 C 0.59165 0.71425 0.11728 0.0
C4074 C 0.58784 0.73898 0.11979 0.0
C4075 C 0.59607 0.781 0.10746 0.0
C4076 C 0.60845 0.7982 0.09291 0.0
C4077 C 0.59996 0.75608 0.10516 0.0
C4078 C 0.62487 0.78997 0.07608 0.0
C4079 C 0.62864 0.76523 0.07353 0.0
H4080 H 0.78397 0.14456 0.61298 0.0
H4081 H 0.79894 0.09424 0.66991 0.0
H4082 H 0.75522 0.08711 0.67566 0.0
H4083 H 0.71261 0.09389 0.66307 0.0
H4084 H 0.6982 0.14692 0.60851 0.0
H4085 H 0.74183 0.15429 0.60324 0.0
C4086 C 0.77779 0.13221 0.62686 0.0
C4087 C 0.79494 0.11987 0.64091 0.0
C4088 C 0.75264 0.12857 0.63032 0.0
C4089 C 0.78634 0.10408 0.65891 0.0
C4090 C 0.76128 0.0999 0.66207 0.0
C4091 C 0.71897 0.10714 0.65008 0.0
C4092 C 0.70193 0.11964 0.63599 0.0
C4093 C 0.74423 0.1118 0.64766 0.0
C4094 C 0.7107 0.137 0.61954 0.0
C4095 C 0.73572 0.14119 0.61651 0.0
H4096 H 0.37558 0.20162 0.09068 0.0
H4097 H 0.4381 0.20125 0.1393 0.0
H4098 H 0.43945 0.24525 0.14234 0.0
H4099 H 0.42398 0.28498 0.12981 0.0
H4100 H 0.3636 0.28481 0.07857 0.0
H4101 H 0.36028 0.24091 0.07823 0.0
C4102 C 0.3894 0.21112 0.10208 0.0
C4103 C 0.40663 0.19776 0.11475 0.0
C4104 C 0.39051 0.23682 0.10335 0.0
C4105 C 0.42451 0.21074 0.12923 0.0
C4106 C 0.42534 0.23611 0.13103 0.0
C4107 C 0.40993 0.27533 0.11884 0.0
C4108 C 0.39388 0.28857 0.10442 0.0
C4109 C 0.40858 0.24952 0.11802 0.0
C4110 C 0.37611 0.27542 0.09002 0.0
C4111 C 0.37422 0.2501 0.0897 0.0
H4112 H 0.11888 0.4346 0.20234 0.0
H4113 H 0.06162 0.37956 0.18872 0.0
H4114 H 0.05662 0.37507 0.23242 0.0
H4115 H 0.0681 0.38695 0.27451 0.0
H4116 H 0.12685 0.44022 0.28866 0.0
H4117 H 0.13165 0.44521 0.24487 0.0
C4118 C 0.10524 0.42164 0.20888 0.0
C4119 C 0.09047 0.40757 0.19199 0.0
C4120 C 0.10274 0.41884 0.23422 0.0
C4121 C 0.0732 0.39066 0.20105 0.0
C4122 C 0.07032 0.38811 0.22613 0.0
C4123 C 0.08202 0.39968 0.26813 0.0
C4124 C 0.097 0.41332 0.28515 0.0
C4125 C 0.08493 0.40213 0.24288 0.0
C4126 C 0.11503 0.4295 0.27622 0.0
C4127 C 0.11774 0.43237 0.2511 0.0
H4128 H 0.1117 0.65866 0.71493 0.0
H4129 H 0.16515 0.60795 0.69708 0.0
H4130 H 0.17399 0.60201 0.74038 0.0
H4131 H 0.1649 0.60966 0.78337 0.0
H4132 H 0.11386 0.66283 0.80117 0.0
H4133 H 0.10588 0.66962 0.75787 0.0
C4134 C 0.12546 0.64645 0.72042 0.0
C4135 C 0.13758 0.6336 0.70253 0.0
C4136 C 0.13084 0.64359 0.74542 0.0
C4137 C 0.15555 0.6181 0.71024 0.0
C4138 C 0.16053 0.61464 0.73507 0.0
C4139 C 0.1522 0.62294 0.77785 0.0
C4140 C 0.13987 0.6356 0.79573 0.0
C4141 C 0.14807 0.62706 0.75284 0.0
C4142 C 0.12369 0.65291 0.78802 0.0
C4143 C 0.11903 0.65667 0.76318 0.0
H4144 H 0.8567 0.62156 0.23783 0.0
H4145 H 0.9086 0.67933 0.22044 0.0
H4146 H 0.91844 0.6859 0.26363 0.0
H4147 H 0.91424 0.67348 0.30632 0.0
H4148 H 0.86014 0.61796 0.32412 0.0
H4149 H 0.84922 0.61229 0.28098 0.0
C4150 C 0.86994 0.63584 0.24347 0.0
C4151 C 0.88194 0.64989 0.22564 0.0
C4152 C 0.87526 0.63977 0.26851 0.0
C4153 C 0.89892 0.66836 0.2335 0.0
C4154 C 0.90469 0.672 0.2583 0.0
C4155 C 0.89989 0.66028 0.30085 0.0
C4156 C 0.8882 0.64602 0.31869 0.0
C4157 C 0.89329 0.65755 0.27596 0.0
C4158 C 0.86945 0.62922 0.31103 0.0
C4159 C 0.86326 0.62592 0.28626 0.0
H4160 H 0.88257 0.42175 0.82049 0.0
H4161 H 0.91848 0.356 0.83518 0.0
H4162 H 0.9203 0.34789 0.79146 0.0
H4163 H 0.91254 0.36027 0.74873 0.0
H4164 H 0.87367 0.42456 0.73506 0.0
H4165 H 0.87207 0.43236 0.77859 0.0
C4166 C 0.89074 0.40557 0.81423 0.0
C4167 C 0.90058 0.38963 0.83128 0.0
C4168 C 0.8912 0.40078 0.78912 0.0
C4169 C 0.91077 0.3686 0.82261 0.0
C4170 C 0.91187 0.36401 0.79755 0.0
C4171 C 0.90363 0.37593 0.7553 0.0
C4172 C 0.89337 0.3919 0.73848 0.0
C4173 C 0.90229 0.38007 0.78058 0.0
C4174 C 0.88167 0.41194 0.74742 0.0
C4175 C 0.88082 0.41646 0.77238 0.0
H4176 H 0.72955 0.89829 0.65755 0.0
H4177 H 0.7138 0.82127 0.65061 0.0
H4178 H 0.75724 0.81451 0.6526 0.0
H4179 H 0.79976 0.83037 0.65739 0.0
H4180 H 0.81549 0.90748 0.66281 0.0
H4181 H 0.77209 0.91425 0.66028 0.0
C4182 C 0.73559 0.88 0.65644 0.0
C4183 C 0.71833 0.8603 0.65411 0.0
C4184 C 0.76065 0.87625 0.65736 0.0
C4185 C 0.7266 0.83678 0.6524 0.0
C4186 C 0.75147 0.83289 0.65361 0.0
C4187 C 0.79372 0.84868 0.658 0.0
C4188 C 0.81097 0.86838 0.66047 0.0
C4189 C 0.76867 0.85247 0.65627 0.0
C4190 C 0.80272 0.89197 0.66092 0.0
C4191 C 0.77786 0.89586 0.65953 0.0
H4192 H 0.59152 0.21841 0.14168 0.0
H4193 H 0.64874 0.2011 0.09386 0.0
H4194 H 0.65799 0.24426 0.08753 0.0
H4195 H 0.65048 0.2865 0.09633 0.0
H4196 H 0.59096 0.3042 0.14099 0.0
H4197 H 0.58186 0.26094 0.14784 0.0
C4198 C 0.60596 0.22397 0.12975 0.0
C4199 C 0.61958 0.20636 0.11843 0.0
C4200 C 0.61074 0.24881 0.12571 0.0
C4201 C 0.63805 0.2141 0.10289 0.0
C4202 C 0.64334 0.23881 0.09929 0.0
C4203 C 0.63536 0.28107 0.10743 0.0
C4204 C 0.62151 0.29877 0.11825 0.0
C4205 C 0.6299 0.25627 0.11072 0.0
C4206 C 0.60195 0.2911 0.13249 0.0
C4207 C 0.59679 0.26635 0.13642 0.0
H4208 H 0.21679 0.15608 0.62046 0.0
H4209 H 0.20347 0.11028 0.68206 0.0
H4210 H 0.24709 0.10721 0.68884 0.0
H4211 H 0.28901 0.1172 0.67744 0.0
H4212 H 0.30304 0.16321 0.61619 0.0
H4213 H 0.25926 0.16659 0.60929 0.0
C4214 C 0.22338 0.14542 0.6354 0.0
C4215 C 0.20661 0.13341 0.65072 0.0
C4216 C 0.2487 0.14383 0.63934 0.0
C4217 C 0.21572 0.11975 0.66997 0.0
C4218 C 0.24076 0.11798 0.67388 0.0
C4219 C 0.28263 0.12812 0.6626 0.0
C4220 C 0.29955 0.14003 0.64742 0.0
C4221 C 0.25742 0.12994 0.65872 0.0
C4222 C 0.29063 0.15394 0.62827 0.0
C4223 C 0.26552 0.15581 0.62427 0.0
H4224 H 0.41508 0.77553 0.15076 0.0
H4225 H 0.35594 0.79003 0.10102 0.0
H4226 H 0.34621 0.74633 0.0966 0.0
H4227 H 0.35458 0.70408 0.10693 0.0
H4228 H 0.41569 0.69018 0.15449 0.0
H4229 H 0.42422 0.73373 0.15997 0.0
C4230 C 0.4 0.76934 0.13886 0.0
C4231 C 0.38622 0.78642 0.12628 0.0
C4232 C 0.39476 0.74421 0.13618 0.0
C4233 C 0.36691 0.77759 0.11093 0.0
C4234 C 0.36131 0.75253 0.10846 0.0
C4235 C 0.36983 0.71043 0.1185 0.0
C4236 C 0.38446 0.69347 0.13029 0.0
C4237 C 0.3751 0.73566 0.12103 0.0
C4238 C 0.40403 0.70248 0.14523 0.0
C4239 C 0.40898 0.72748 0.1483 0.0
H4240 H 0.71091 0.10755 0.36307 0.0
H4241 H 0.70309 0.15102 0.42746 0.0
H4242 H 0.74737 0.15578 0.43238 0.0
H4243 H 0.78806 0.14714 0.41875 0.0
H4244 H 0.79579 0.10058 0.3566 0.0
H4245 H 0.75151 0.0971 0.35075 0.0
C4246 C 0.7187 0.11798 0.37835 0.0
C4247 C 0.70333 0.1289 0.39492 0.0
C4248 C 0.74418 0.11994 0.38152 0.0
C4249 C 0.7142 0.14244 0.4144 0.0
C4250 C 0.73958 0.1451 0.41724 0.0
C4251 C 0.78022 0.13615 0.40389 0.0
C4252 C 0.79553 0.12423 0.38803 0.0
C4253 C 0.75473 0.13384 0.40097 0.0
C4254 C 0.78468 0.10996 0.36907 0.0
C4255 C 0.75931 0.10804 0.3657 0.0
H4256 H 0.34019 0.30332 0.87767 0.0
H4257 H 0.40919 0.32235 0.8463 0.0
H4258 H 0.41925 0.2798 0.84686 0.0
H4259 H 0.40822 0.23692 0.85557 0.0
H4260 H 0.33979 0.21813 0.8882 0.0
H4261 H 0.32986 0.2607 0.88787 0.0
C4262 C 0.35745 0.29822 0.8709 0.0
C4263 C 0.3738 0.31621 0.86174 0.0
C4264 C 0.36324 0.27364 0.8715 0.0
C4265 C 0.39619 0.30908 0.8534 0.0
C4266 C 0.40195 0.28466 0.85369 0.0
C4267 C 0.3911 0.24208 0.86262 0.0
C4268 C 0.3747 0.22409 0.87175 0.0
C4269 C 0.38557 0.26674 0.86258 0.0
C4270 C 0.35277 0.23138 0.88105 0.0
C4271 C 0.34705 0.2558 0.88081 0.0
H4272 H 0.237 0.8839 0.43576 0.0
H4273 H 0.21936 0.92749 0.37395 0.0
H4274 H 0.2624 0.93065 0.36379 0.0
H4275 H 0.30447 0.91932 0.37147 0.0
H4276 H 0.32205 0.87722 0.43447 0.0
H4277 H 0.27921 0.87484 0.44493 0.0
C4278 C 0.24244 0.89426 0.4201 0.0
C4279 C 0.22473 0.90529 0.40551 0.0
C4280 C 0.26714 0.89597 0.41444 0.0
C4281 C 0.23243 0.91885 0.38551 0.0
C4282 C 0.25705 0.9205 0.37963 0.0
C4283 C 0.2991 0.90967 0.38759 0.0
C4284 C 0.31671 0.8983 0.40207 0.0
C4285 C 0.27449 0.90883 0.39378 0.0
C4286 C 0.30909 0.88602 0.4229 0.0
C4287 C 0.28456 0.88471 0.42892 0.0
H4288 H 0.68468 0.72571 0.89907 0.0
H4289 H 0.63406 0.70854 0.83953 0.0
H4290 H 0.62878 0.75167 0.83337 0.0
H4291 H 0.63802 0.79439 0.84504 0.0
H4292 H 0.68936 0.8119 0.90387 0.0
H4293 H 0.69486 0.76871 0.91001 0.0
C4294 C 0.6725 0.73133 0.88469 0.0
C4295 C 0.65975 0.71359 0.86981 0.0
C4296 C 0.66968 0.75636 0.88108 0.0
C4297 C 0.64416 0.72153 0.85126 0.0
C4298 C 0.6411 0.74629 0.84774 0.0
C4299 C 0.65052 0.78886 0.85919 0.0
C4300 C 0.66326 0.80667 0.87397 0.0
C4301 C 0.65371 0.7639 0.86255 0.0
C4302 C 0.67936 0.79884 0.89214 0.0
C4303 C 0.68247 0.77405 0.89569 0.0
H4304 H 0.90607 0.67056 0.81638 0.0
H4305 H 0.841 0.62365 0.81658 0.0
H4306 H 0.83893 0.62301 0.77269 0.0
H4307 H 0.85553 0.63504 0.73334 0.0
H4308 H 0.92058 0.68183 0.73259 0.0
H4309 H 0.92251 0.68308 0.77668 0.0
C4310 C 0.89135 0.66039 0.80683 0.0
C4311 C 0.87378 0.64725 0.82017 0.0
C4312 C 0.89018 0.65988 0.78107 0.0
C4313 C 0.85494 0.63401 0.80716 0.0
C4314 C 0.85366 0.63354 0.78183 0.0
C4315 C 0.87012 0.64552 0.74279 0.0
C4316 C 0.8878 0.65829 0.72933 0.0
C4317 C 0.87121 0.64627 0.76848 0.0
C4318 C 0.90656 0.67177 0.74218 0.0
C4319 C 0.90775 0.67255 0.76759 0.0
H4320 H 0.91494 0.37207 0.3183 0.0
H4321 H 0.85828 0.42072 0.33257 0.0
H4322 H 0.85366 0.42823 0.28911 0.0
H4323 H 0.8646 0.42006 0.24742 0.0
H4324 H 0.92177 0.37223 0.23259 0.0
H4325 H 0.92717 0.36523 0.27624 0.0
C4326 C 0.90156 0.38439 0.31203 0.0
C4327 C 0.88681 0.39569 0.32894 0.0
C4328 C 0.89901 0.38864 0.28696 0.0
C4329 C 0.86984 0.41175 0.32021 0.0
C4330 C 0.86715 0.41598 0.2953 0.0
C4331 C 0.87835 0.40807 0.25351 0.0
C4332 C 0.89266 0.39653 0.23642 0.0
C4333 C 0.88146 0.40435 0.27855 0.0
C4334 C 0.91043 0.38128 0.2451 0.0
C4335 C 0.9135 0.3773 0.2701 0.0
H4336 H 0.14731 0.40669 0.77338 0.0
H4337 H 0.08169 0.36442 0.78887 0.0
H4338 H 0.07307 0.3589 0.74527 0.0
H4339 H 0.08408 0.36628 0.70291 0.0
H4340 H 0.147 0.41255 0.68758 0.0
H4341 H 0.15638 0.41697 0.73118 0.0
C4342 C 0.13091 0.39648 0.76741 0.0
C4343 C 0.11515 0.38602 0.78474 0.0
C4344 C 0.1255 0.39432 0.74231 0.0
C4345 C 0.09421 0.37264 0.77621 0.0
C4346 C 0.08923 0.36956 0.75122 0.0
C4347 C 0.09977 0.37752 0.70898 0.0
C4348 C 0.11486 0.38901 0.69172 0.0
C4349 C 0.1047 0.3804 0.73411 0.0
C4350 C 0.13501 0.40359 0.70024 0.0
C4351 C 0.14044 0.40597 0.72522 0.0
H4352 H 0.1186 0.66788 0.28445 0.0
H4353 H 0.15446 0.60166 0.29782 0.0
H4354 H 0.1582 0.59573 0.25396 0.0
H4355 H 0.15076 0.60923 0.2117 0.0
H4356 H 0.11395 0.67507 0.19926 0.0
H4357 H 0.11099 0.68106 0.24296 0.0
C4358 C 0.12738 0.65209 0.278 0.0
C4359 C 0.13635 0.63527 0.29479 0.0
C4360 C 0.12917 0.64868 0.2528 0.0
C4361 C 0.14747 0.61498 0.2856 0.0
C4362 C 0.14955 0.61157 0.26044 0.0
C4363 C 0.14211 0.62495 0.21849 0.0
C4364 C 0.13264 0.64175 0.20194 0.0
C4365 C 0.14039 0.62827 0.24383 0.0
C4366 C 0.12141 0.66186 0.21132 0.0
C4367 C 0.11974 0.66531 0.23639 0.0
loop_
_geom_bond_atom_site_label_1
_geom_bond_atom_site_label_2
_geom_bond_distance
_geom_bond_site_symmetry_2
_ccdc_geom_bond_type
Co0 O2 2.143 . S
Co0 O8 2.074 . S
Co0 O11 2.093 . S
Co0 O24 2.097 . S
Co0 N41 2.151 . S
Co0 N49 2.214 . S
Co1 O2 2.160 . S
Co1 O7 2.058 . S
Co1 O17 2.057 . S
Co1 O32 2.037 . S
Co1 N36 2.145 . S
Co1 N57 2.257 . S
O2 Co0 2.143 . S
O2 Co1 2.160 . S
C3 O4 1.278 . S
C3 O11 1.224 . S
O4 C3 1.278 . S
C5 O6 1.245 . S
C5 O17 1.232 . S
O6 C5 1.245 . S
O7 Co1 2.058 . S
O7 C33 1.269 . S
O8 Co0 2.074 . S
O8 C33 1.257 . S
H9 C34 0.930 . S
H10 C40 0.930 . S
O11 Co0 2.093 . S
O11 C3 1.224 . S
H12 C44 0.929 . S
H13 C46 0.928 1_565 S
H14 C47 0.930 . S
H15 C45 0.929 . S
H16 C48 0.928 . S
O17 Co1 2.057 . S
O17 C5 1.232 . S
H18 C37 0.929 . S
H19 C38 0.929 . S
H20 C50 0.931 . S
H21 C42 0.929 . S
H22 C51 0.930 1_565 S
H23 C43 0.931 . S
O24 Co0 2.097 . S
O24 C52 1.214 . S
H25 C53 0.929 . S
H26 C54 0.929 . S
H27 C55 0.930 . S
H28 C56 0.929 . S
H29 C58 0.930 . S
H30 C35 0.930 . S
H31 C39 0.930 . S
O32 Co1 2.037 . S
O32 C52 1.234 . S
C33 O7 1.269 . S
C33 O8 1.257 . S
C34 H9 0.930 . S
C34 C37 1.388 . S
C34 C39 1.418 . S
C35 H30 0.930 . S
C35 C38 1.404 . S
C35 C39 1.353 . S
N36 Co1 2.145 . S
N36 C37 1.397 . S
N36 C38 1.334 . S
C37 H18 0.929 . S
C37 C34 1.388 . S
C37 N36 1.397 . S
C38 H19 0.929 . S
C38 C35 1.404 . S
C38 N36 1.334 . S
C39 H31 0.930 . S
C39 C34 1.418 . S
C39 C35 1.353 . S
C40 H10 0.930 . S
C40 N41 1.330 . S
C40 C42 1.446 . S
N41 Co0 2.151 . S
N41 C40 1.330 . S
N41 C45 1.418 . S
C42 H21 0.929 . S
C42 C40 1.446 . S
C42 C43 1.332 . S
C43 H23 0.931 . S
C43 C42 1.332 . S
C43 C44 1.267 . S
C44 H12 0.929 . S
C44 C43 1.267 . S
C44 C45 1.251 . S
C45 H15 0.929 . S
C45 N41 1.418 . S
C45 C44 1.251 . S
C46 H13 0.928 1_545 S
C46 C48 1.406 . S
C46 C51 1.261 . S
C47 H14 0.930 . S
C47 N49 1.325 . S
C47 C50 1.357 . S
C48 H16 0.928 . S
C48 C46 1.406 . S
C48 N49 1.261 . S
N49 Co0 2.214 . S
N49 C47 1.325 . S
N49 C48 1.261 . S
C50 H20 0.931 . S
C50 C47 1.357 . S
C50 C51 1.312 . S
C51 H22 0.930 1_545 S
C51 C46 1.261 . S
C51 C50 1.312 . S
C52 O24 1.214 . S
C52 O32 1.234 . S
C53 H25 0.929 . S
C53 C56 1.391 . S
C53 C58 1.391 . S
C54 H26 0.929 . S
C54 C55 1.390 . S
C54 N57 1.391 . S
C55 H27 0.930 . S
C55 C54 1.390 . S
C55 C56 1.392 . S
C56 H28 0.929 . S
C56 C53 1.391 . S
C56 C55 1.392 . S
N57 Co1 2.257 . S
N57 C54 1.391 . S
N57 C58 1.388 . S
C58 H29 0.930 . S
C58 C53 1.391 . S
C58 N57 1.388 . S
Co59 O61 2.143 . S
Co59 O67 2.074 . S
Co59 O70 2.093 . S
Co59 O83 2.097 . S
Co59 N100 2.151 . S
Co59 N108 2.214 . S
Co60 O61 2.160 . S
Co60 O66 2.058 . S
Co60 O76 2.057 . S
Co60 O91 2.037 . S
Co60 N95 2.145 . S
Co60 N116 2.257 . S
O61 Co59 2.143 . S
O61 Co60 2.160 . S
C62 O63 1.278 . S
C62 O70 1.224 . S
O63 C62 1.278 . S
C64 O65 1.245 . S
C64 O76 1.232 . S
O65 C64 1.245 . S
O66 Co60 2.058 . S
O66 C92 1.269 . S
O67 Co59 2.074 . S
O67 C92 1.257 . S
H68 C93 0.930 . S
H69 C99 0.930 . S
O70 Co59 2.093 . S
O70 C62 1.224 . S
H71 C103 0.929 . S
H72 C105 0.930 . S
H73 C106 0.930 . S
H74 C104 0.929 . S
H75 C107 0.928 . S
O76 Co60 2.057 . S
O76 C64 1.232 . S
H77 C96 0.929 . S
H78 C97 0.929 . S
H79 C109 0.931 . S
H80 C101 0.929 . S
H81 C110 0.930 . S
H82 C102 0.931 . S
O83 Co59 2.097 . S
O83 C111 1.214 . S
H84 C112 0.929 . S
H85 C113 0.929 . S
H86 C114 0.930 . S
H87 C115 0.929 . S
H88 C117 0.930 . S
H89 C94 0.930 . S
H90 C98 0.930 . S
O91 Co60 2.037 . S
O91 C111 1.234 . S
C92 O66 1.269 . S
C92 O67 1.257 . S
C93 H68 0.930 . S
C93 C96 1.388 . S
C93 C98 1.418 . S
C94 H89 0.930 . S
C94 C97 1.404 . S
C94 C98 1.353 . S
N95 Co60 2.145 . S
N95 C96 1.397 . S
N95 C97 1.334 . S
C96 H77 0.929 . S
C96 C93 1.388 . S
C96 N95 1.397 . S
C97 H78 0.929 . S
C97 C94 1.404 . S
C97 N95 1.334 . S
C98 H90 0.930 . S
C98 C93 1.418 . S
C98 C94 1.353 . S
C99 H69 0.930 . S
C99 N100 1.330 . S
C99 C101 1.446 . S
N100 Co59 2.151 . S
N100 C99 1.330 . S
N100 C104 1.418 . S
C101 H80 0.929 . S
C101 C99 1.446 . S
C101 C102 1.332 . S
C102 H82 0.931 . S
C102 C101 1.332 . S
C102 C103 1.267 . S
C103 H71 0.929 . S
C103 C102 1.267 . S
C103 C104 1.251 . S
C104 H74 0.929 . S
C104 N100 1.418 . S
C104 C103 1.251 . S
C105 H72 0.930 . S
C105 C107 1.406 . S
C105 C110 1.261 . S
C106 H73 0.930 . S
C106 N108 1.325 . S
C106 C109 1.357 . S
C107 H75 0.928 . S
C107 C105 1.406 . S
C107 N108 1.261 . S
N108 Co59 2.214 . S
N108 C106 1.325 . S
N108 C107 1.261 . S
C109 H79 0.931 . S
C109 C106 1.357 . S
C109 C110 1.312 . S
C110 H81 0.930 . S
C110 C105 1.261 . S
C110 C109 1.312 . S
C111 O83 1.214 . S
C111 O91 1.234 . S
C112 H84 0.929 . S
C112 C115 1.391 . S
C112 C117 1.391 . S
C113 H85 0.929 . S
C113 C114 1.390 . S
C113 N116 1.391 . S
C114 H86 0.930 . S
C114 C113 1.390 . S
C114 C115 1.392 . S
C115 H87 0.929 . S
C115 C112 1.391 . S
C115 C114 1.392 . S
N116 Co60 2.257 . S
N116 C113 1.391 . S
N116 C117 1.388 . S
C117 H88 0.930 . S
C117 C112 1.391 . S
C117 N116 1.388 . S
Co118 O120 2.143 . S
Co118 O126 2.074 . S
Co118 O129 2.093 . S
Co118 O142 2.097 . S
Co118 N159 2.151 . S
Co118 N167 2.214 . S
Co119 O120 2.160 . S
Co119 O125 2.058 . S
Co119 O135 2.057 . S
Co119 O150 2.037 . S
Co119 N154 2.145 . S
Co119 N175 2.257 . S
O120 Co118 2.143 . S
O120 Co119 2.160 . S
C121 O122 1.278 . S
C121 O129 1.224 . S
O122 C121 1.278 . S
C123 O124 1.245 . S
C123 O135 1.232 . S
O124 C123 1.245 . S
O125 Co119 2.058 . S
O125 C151 1.269 . S
O126 Co118 2.074 . S
O126 C151 1.257 . S
H127 C152 0.930 . S
H128 C158 0.930 . S
O129 Co118 2.093 . S
O129 C121 1.224 . S
H130 C162 0.929 . S
H131 C164 0.930 . S
H132 C165 0.930 . S
H133 C163 0.929 . S
H134 C166 0.928 . S
O135 Co119 2.057 . S
O135 C123 1.232 . S
H136 C155 0.929 . S
H137 C156 0.929 . S
H138 C168 0.931 . S
H139 C160 0.929 . S
H140 C169 0.930 1_545 S
H141 C161 0.931 . S
O142 Co118 2.097 . S
O142 C170 1.214 . S
H143 C171 0.929 . S
H144 C172 0.929 . S
H145 C173 0.930 . S
H146 C174 0.929 . S
H147 C176 0.930 . S
H148 C153 0.930 . S
H149 C157 0.930 . S
O150 Co119 2.037 . S
O150 C170 1.234 . S
C151 O125 1.269 . S
C151 O126 1.257 . S
C152 H127 0.930 . S
C152 C155 1.388 . S
C152 C157 1.418 . S
C153 H148 0.930 . S
C153 C156 1.404 . S
C153 C157 1.353 . S
N154 Co119 2.145 . S
N154 C155 1.397 . S
N154 C156 1.334 . S
C155 H136 0.929 . S
C155 C152 1.388 . S
C155 N154 1.397 . S
C156 H137 0.929 . S
C156 C153 1.404 . S
C156 N154 1.334 . S
C157 H149 0.930 . S
C157 C152 1.418 . S
C157 C153 1.353 . S
C158 H128 0.930 . S
C158 N159 1.330 . S
C158 C160 1.446 . S
N159 Co118 2.151 . S
N159 C158 1.330 . S
N159 C163 1.418 . S
C160 H139 0.929 . S
C160 C158 1.446 . S
C160 C161 1.332 . S
C161 H141 0.931 . S
C161 C160 1.332 . S
C161 C162 1.267 . S
C162 H130 0.929 . S
C162 C161 1.267 . S
C162 C163 1.251 . S
C163 H133 0.929 . S
C163 N159 1.418 . S
C163 C162 1.251 . S
C164 H131 0.930 . S
C164 C166 1.406 . S
C164 C169 1.261 . S
C165 H132 0.930 . S
C165 N167 1.325 . S
C165 C168 1.357 . S
C166 H134 0.928 . S
C166 C164 1.406 . S
C166 N167 1.261 . S
N167 Co118 2.214 . S
N167 C165 1.325 . S
N167 C166 1.261 . S
C168 H138 0.931 . S
C168 C165 1.357 . S
C168 C169 1.312 . S
C169 H140 0.930 1_565 S
C169 C164 1.261 . S
C169 C168 1.312 . S
C170 O142 1.214 . S
C170 O150 1.234 . S
C171 H143 0.929 . S
C171 C174 1.391 . S
C171 C176 1.391 . S
C172 H144 0.929 . S
C172 C173 1.390 . S
C172 N175 1.391 . S
C173 H145 0.930 . S
C173 C172 1.390 . S
C173 C174 1.392 . S
C174 H146 0.929 . S
C174 C171 1.391 . S
C174 C173 1.392 . S
N175 Co119 2.257 . S
N175 C172 1.391 . S
N175 C176 1.388 . S
C176 H147 0.930 . S
C176 C171 1.391 . S
C176 N175 1.388 . S
Co177 O179 2.143 . S
Co177 O185 2.074 . S
Co177 O188 2.093 . S
Co177 O201 2.097 . S
Co177 N218 2.151 . S
Co177 N226 2.214 . S
Co178 O179 2.160 . S
Co178 O184 2.058 . S
Co178 O194 2.057 . S
Co178 O209 2.037 . S
Co178 N213 2.145 . S
Co178 N234 2.257 . S
O179 Co177 2.143 . S
O179 Co178 2.160 . S
C180 O181 1.278 . S
C180 O188 1.224 . S
O181 C180 1.278 . S
C182 O183 1.245 . S
C182 O194 1.232 . S
O183 C182 1.245 . S
O184 Co178 2.058 . S
O184 C210 1.269 . S
O185 Co177 2.074 . S
O185 C210 1.257 . S
H186 C211 0.930 . S
H187 C217 0.930 . S
O188 Co177 2.093 . S
O188 C180 1.224 . S
H189 C221 0.929 . S
H190 C223 0.930 . S
H191 C224 0.930 . S
H192 C222 0.929 . S
H193 C225 0.928 . S
O194 Co178 2.057 . S
O194 C182 1.232 . S
H195 C214 0.929 . S
H196 C215 0.929 . S
H197 C227 0.931 . S
H198 C219 0.929 . S
H199 C228 0.930 . S
H200 C220 0.931 . S
O201 Co177 2.097 . S
O201 C229 1.214 . S
H202 C230 0.929 . S
H203 C231 0.929 . S
H204 C232 0.930 . S
H205 C233 0.929 . S
H206 C235 0.930 . S
H207 C212 0.930 . S
H208 C216 0.930 . S
O209 Co178 2.037 . S
O209 C229 1.234 . S
C210 O184 1.269 . S
C210 O185 1.257 . S
C211 H186 0.930 . S
C211 C214 1.388 . S
C211 C216 1.418 . S
C212 H207 0.930 . S
C212 C215 1.404 . S
C212 C216 1.353 . S
N213 Co178 2.145 . S
N213 C214 1.397 . S
N213 C215 1.334 . S
C214 H195 0.929 . S
C214 C211 1.388 . S
C214 N213 1.397 . S
C215 H196 0.929 . S
C215 C212 1.404 . S
C215 N213 1.334 . S
C216 H208 0.930 . S
C216 C211 1.418 . S
C216 C212 1.353 . S
C217 H187 0.930 . S
C217 N218 1.330 . S
C217 C219 1.446 . S
N218 Co177 2.151 . S
N218 C217 1.330 . S
N218 C222 1.418 . S
C219 H198 0.929 . S
C219 C217 1.446 . S
C219 C220 1.332 . S
C220 H200 0.931 . S
C220 C219 1.332 . S
C220 C221 1.267 . S
C221 H189 0.929 . S
C221 C220 1.267 . S
C221 C222 1.251 . S
C222 H192 0.929 . S
C222 N218 1.418 . S
C222 C221 1.251 . S
C223 H190 0.930 . S
C223 C225 1.406 . S
C223 C228 1.261 . S
C224 H191 0.930 . S
C224 N226 1.325 . S
C224 C227 1.357 . S
C225 H193 0.928 . S
C225 C223 1.406 . S
C225 N226 1.261 . S
N226 Co177 2.214 . S
N226 C224 1.325 . S
N226 C225 1.261 . S
C227 H197 0.931 . S
C227 C224 1.357 . S
C227 C228 1.312 . S
C228 H199 0.930 . S
C228 C223 1.261 . S
C228 C227 1.312 . S
C229 O201 1.214 . S
C229 O209 1.234 . S
C230 H202 0.929 . S
C230 C233 1.391 . S
C230 C235 1.391 . S
C231 H203 0.929 . S
C231 C232 1.390 . S
C231 N234 1.391 . S
C232 H204 0.930 . S
C232 C231 1.390 . S
C232 C233 1.392 . S
C233 H205 0.929 . S
C233 C230 1.391 . S
C233 C232 1.392 . S
N234 Co178 2.257 . S
N234 C231 1.391 . S
N234 C235 1.388 . S
C235 H206 0.930 . S
C235 C230 1.391 . S
C235 N234 1.388 . S
Co236 O238 2.143 . S
Co236 O244 2.074 . S
Co236 O247 2.093 . S
Co236 O260 2.097 . S
Co236 N277 2.151 . S
Co236 N285 2.214 . S
Co237 O238 2.160 . S
Co237 O243 2.058 . S
Co237 O253 2.057 . S
Co237 O268 2.037 . S
Co237 N272 2.145 . S
Co237 N293 2.257 . S
O238 Co236 2.143 . S
O238 Co237 2.160 . S
C239 O240 1.278 . S
C239 O247 1.224 . S
O240 C239 1.278 . S
C241 O242 1.245 . S
C241 O253 1.232 . S
O242 C241 1.245 . S
O243 Co237 2.058 . S
O243 C269 1.269 . S
O244 Co236 2.074 . S
O244 C269 1.257 . S
H245 C270 0.930 . S
H246 C276 0.930 . S
O247 Co236 2.093 . S
O247 C239 1.224 . S
H248 C280 0.929 . S
H249 C282 0.930 . S
H250 C283 0.930 . S
H251 C281 0.929 . S
H252 C284 0.928 . S
O253 Co237 2.057 . S
O253 C241 1.232 . S
H254 C273 0.929 . S
H255 C274 0.929 . S
H256 C286 0.931 . S
H257 C278 0.929 . S
H258 C287 0.930 . S
H259 C279 0.931 . S
O260 Co236 2.097 . S
O260 C288 1.214 . S
H261 C289 0.929 . S
H262 C290 0.929 . S
H263 C291 0.930 . S
H264 C292 0.929 . S
H265 C294 0.930 . S
H266 C271 0.930 . S
H267 C275 0.930 . S
O268 Co237 2.037 . S
O268 C288 1.234 . S
C269 O243 1.269 . S
C269 O244 1.257 . S
C270 H245 0.930 . S
C270 C273 1.388 . S
C270 C275 1.418 . S
C271 H266 0.930 . S
C271 C274 1.404 . S
C271 C275 1.353 . S
N272 Co237 2.145 . S
N272 C273 1.397 . S
N272 C274 1.334 . S
C273 H254 0.929 . S
C273 C270 1.388 . S
C273 N272 1.397 . S
C274 H255 0.929 . S
C274 C271 1.404 . S
C274 N272 1.334 . S
C275 H267 0.930 . S
C275 C270 1.418 . S
C275 C271 1.353 . S
C276 H246 0.930 . S
C276 N277 1.330 . S
C276 C278 1.446 . S
N277 Co236 2.151 . S
N277 C276 1.330 . S
N277 C281 1.418 . S
C278 H257 0.929 . S
C278 C276 1.446 . S
C278 C279 1.332 . S
C279 H259 0.931 . S
C279 C278 1.332 . S
C279 C280 1.267 . S
C280 H248 0.929 . S
C280 C279 1.267 . S
C280 C281 1.251 . S
C281 H251 0.929 . S
C281 N277 1.418 . S
C281 C280 1.251 . S
C282 H249 0.930 . S
C282 C284 1.406 . S
C282 C287 1.261 . S
C283 H250 0.930 . S
C283 N285 1.325 . S
C283 C286 1.357 . S
C284 H252 0.928 . S
C284 C282 1.406 . S
C284 N285 1.261 . S
N285 Co236 2.214 . S
N285 C283 1.325 . S
N285 C284 1.261 . S
C286 H256 0.931 . S
C286 C283 1.357 . S
C286 C287 1.312 . S
C287 H258 0.930 . S
C287 C282 1.261 . S
C287 C286 1.312 . S
C288 O260 1.214 . S
C288 O268 1.234 . S
C289 H261 0.929 . S
C289 C292 1.391 . S
C289 C294 1.391 . S
C290 H262 0.929 . S
C290 C291 1.390 . S
C290 N293 1.391 . S
C291 H263 0.930 . S
C291 C290 1.390 . S
C291 C292 1.392 . S
C292 H264 0.929 . S
C292 C289 1.391 . S
C292 C291 1.392 . S
N293 Co237 2.257 . S
N293 C290 1.391 . S
N293 C294 1.388 . S
C294 H265 0.930 . S
C294 C289 1.391 . S
C294 N293 1.388 . S
Co295 O297 2.143 . S
Co295 O303 2.074 . S
Co295 O306 2.093 . S
Co295 O319 2.097 . S
Co295 N336 2.151 . S
Co295 N344 2.214 . S
Co296 O297 2.160 . S
Co296 O302 2.058 . S
Co296 O312 2.057 . S
Co296 O327 2.037 . S
Co296 N331 2.145 . S
Co296 N352 2.257 . S
O297 Co295 2.143 . S
O297 Co296 2.160 . S
C298 O299 1.278 . S
C298 O306 1.224 . S
O299 C298 1.278 . S
C300 O301 1.245 . S
C300 O312 1.232 . S
O301 C300 1.245 . S
O302 Co296 2.058 . S
O302 C328 1.269 . S
O303 Co295 2.074 . S
O303 C328 1.257 . S
H304 C329 0.930 . S
H305 C335 0.930 . S
O306 Co295 2.093 . S
O306 C298 1.224 . S
H307 C339 0.929 . S
H308 C341 0.930 . S
H309 C342 0.930 . S
H310 C340 0.929 . S
H311 C343 0.928 . S
O312 Co296 2.057 . S
O312 C300 1.232 . S
H313 C332 0.929 . S
H314 C333 0.929 . S
H315 C345 0.931 . S
H316 C337 0.929 . S
H317 C346 0.930 . S
H318 C338 0.931 . S
O319 Co295 2.097 . S
O319 C347 1.214 . S
H320 C348 0.929 . S
H321 C349 0.929 . S
H322 C350 0.930 . S
H323 C351 0.929 . S
H324 C353 0.930 . S
H325 C330 0.930 . S
H326 C334 0.930 . S
O327 Co296 2.037 . S
O327 C347 1.234 . S
C328 O302 1.269 . S
C328 O303 1.257 . S
C329 H304 0.930 . S
C329 C332 1.388 . S
C329 C334 1.418 . S
C330 H325 0.930 . S
C330 C333 1.404 . S
C330 C334 1.353 . S
N331 Co296 2.145 . S
N331 C332 1.397 . S
N331 C333 1.334 . S
C332 H313 0.929 . S
C332 C329 1.388 . S
C332 N331 1.397 . S
C333 H314 0.929 . S
C333 C330 1.404 . S
C333 N331 1.334 . S
C334 H326 0.930 . S
C334 C329 1.418 . S
C334 C330 1.353 . S
C335 H305 0.930 . S
C335 N336 1.330 . S
C335 C337 1.446 . S
N336 Co295 2.151 . S
N336 C335 1.330 . S
N336 C340 1.418 . S
C337 H316 0.929 . S
C337 C335 1.446 . S
C337 C338 1.332 . S
C338 H318 0.931 . S
C338 C337 1.332 . S
C338 C339 1.267 . S
C339 H307 0.929 . S
C339 C338 1.267 . S
C339 C340 1.251 . S
C340 H310 0.929 . S
C340 N336 1.418 . S
C340 C339 1.251 . S
C341 H308 0.930 . S
C341 C343 1.406 . S
C341 C346 1.261 . S
C342 H309 0.930 . S
C342 N344 1.325 . S
C342 C345 1.357 . S
C343 H311 0.928 . S
C343 C341 1.406 . S
C343 N344 1.261 . S
N344 Co295 2.214 . S
N344 C342 1.325 . S
N344 C343 1.261 . S
C345 H315 0.931 . S
C345 C342 1.357 . S
C345 C346 1.312 . S
C346 H317 0.930 . S
C346 C341 1.261 . S
C346 C345 1.312 . S
C347 O319 1.214 . S
C347 O327 1.234 . S
C348 H320 0.929 . S
C348 C351 1.391 . S
C348 C353 1.391 . S
C349 H321 0.929 . S
C349 C350 1.390 . S
C349 N352 1.391 . S
C350 H322 0.930 . S
C350 C349 1.390 . S
C350 C351 1.392 . S
C351 H323 0.929 . S
C351 C348 1.391 . S
C351 C350 1.392 . S
N352 Co296 2.257 . S
N352 C349 1.391 . S
N352 C353 1.388 . S
C353 H324 0.930 . S
C353 C348 1.391 . S
C353 N352 1.388 . S
Co354 O356 2.143 . S
Co354 O362 2.074 . S
Co354 O365 2.093 . S
Co354 O378 2.097 . S
Co354 N395 2.151 . S
Co354 N403 2.214 . S
Co355 O356 2.160 . S
Co355 O361 2.058 . S
Co355 O371 2.057 . S
Co355 O386 2.037 . S
Co355 N390 2.145 . S
Co355 N411 2.257 . S
O356 Co354 2.143 . S
O356 Co355 2.160 . S
C357 O358 1.278 . S
C357 O365 1.224 . S
O358 C357 1.278 . S
C359 O360 1.245 . S
C359 O371 1.232 . S
O360 C359 1.245 . S
O361 Co355 2.058 . S
O361 C387 1.269 . S
O362 Co354 2.074 . S
O362 C387 1.257 . S
H363 C388 0.930 . S
H364 C394 0.930 . S
O365 Co354 2.093 . S
O365 C357 1.224 . S
H366 C398 0.929 . S
H367 C400 0.930 . S
H368 C401 0.930 . S
H369 C399 0.929 . S
H370 C402 0.928 . S
O371 Co355 2.057 . S
O371 C359 1.232 . S
H372 C391 0.929 . S
H373 C392 0.929 . S
H374 C404 0.931 . S
H375 C396 0.929 . S
H376 C405 0.930 . S
H377 C397 0.931 . S
O378 Co354 2.097 . S
O378 C406 1.214 . S
H379 C407 0.929 . S
H380 C408 0.929 . S
H381 C409 0.930 . S
H382 C410 0.929 . S
H383 C412 0.930 . S
H384 C389 0.930 . S
H385 C393 0.930 . S
O386 Co355 2.037 . S
O386 C406 1.234 . S
C387 O361 1.269 . S
C387 O362 1.257 . S
C388 H363 0.930 . S
C388 C391 1.388 . S
C388 C393 1.418 . S
C389 H384 0.930 . S
C389 C392 1.404 . S
C389 C393 1.353 . S
N390 Co355 2.145 . S
N390 C391 1.397 . S
N390 C392 1.334 . S
C391 H372 0.929 . S
C391 C388 1.388 . S
C391 N390 1.397 . S
C392 H373 0.929 . S
C392 C389 1.404 . S
C392 N390 1.334 . S
C393 H385 0.930 . S
C393 C388 1.418 . S
C393 C389 1.353 . S
C394 H364 0.930 . S
C394 N395 1.330 . S
C394 C396 1.446 . S
N395 Co354 2.151 . S
N395 C394 1.330 . S
N395 C399 1.418 . S
C396 H375 0.929 . S
C396 C394 1.446 . S
C396 C397 1.332 . S
C397 H377 0.931 . S
C397 C396 1.332 . S
C397 C398 1.267 . S
C398 H366 0.929 . S
C398 C397 1.267 . S
C398 C399 1.251 . S
C399 H369 0.929 . S
C399 N395 1.418 . S
C399 C398 1.251 . S
C400 H367 0.930 . S
C400 C402 1.406 . S
C400 C405 1.261 . S
C401 H368 0.930 . S
C401 N403 1.325 . S
C401 C404 1.357 . S
C402 H370 0.928 . S
C402 C400 1.406 . S
C402 N403 1.261 . S
N403 Co354 2.214 . S
N403 C401 1.325 . S
N403 C402 1.261 . S
C404 H374 0.931 . S
C404 C401 1.357 . S
C404 C405 1.312 . S
C405 H376 0.930 . S
C405 C400 1.261 . S
C405 C404 1.312 . S
C406 O378 1.214 . S
C406 O386 1.234 . S
C407 H379 0.929 . S
C407 C410 1.391 . S
C407 C412 1.391 . S
C408 H380 0.929 . S
C408 C409 1.390 . S
C408 N411 1.391 . S
C409 H381 0.930 . S
C409 C408 1.390 . S
C409 C410 1.392 . S
C410 H382 0.929 . S
C410 C407 1.391 . S
C410 C409 1.392 . S
N411 Co355 2.257 . S
N411 C408 1.391 . S
N411 C412 1.388 . S
C412 H383 0.930 . S
C412 C407 1.391 . S
C412 N411 1.388 . S
Co413 O415 2.143 . S
Co413 O421 2.074 . S
Co413 O424 2.093 . S
Co413 O437 2.097 . S
Co413 N454 2.151 . S
Co413 N462 2.214 . S
Co414 O415 2.160 . S
Co414 O420 2.058 . S
Co414 O430 2.057 . S
Co414 O445 2.037 . S
Co414 N449 2.145 . S
Co414 N470 2.257 . S
O415 Co413 2.143 . S
O415 Co414 2.160 . S
C416 O417 1.278 . S
C416 O424 1.224 . S
O417 C416 1.278 . S
C418 O419 1.245 . S
C418 O430 1.232 . S
O419 C418 1.245 . S
O420 Co414 2.058 . S
O420 C446 1.269 . S
O421 Co413 2.074 . S
O421 C446 1.257 . S
H422 C447 0.930 . S
H423 C453 0.930 . S
O424 Co413 2.093 . S
O424 C416 1.224 . S
H425 C457 0.929 . S
H426 C459 0.930 . S
H427 C460 0.930 . S
H428 C458 0.929 . S
H429 C461 0.928 . S
O430 Co414 2.057 . S
O430 C418 1.232 . S
H431 C450 0.929 . S
H432 C451 0.929 . S
H433 C463 0.931 . S
H434 C455 0.929 . S
H435 C464 0.930 . S
H436 C456 0.931 . S
O437 Co413 2.097 . S
O437 C465 1.214 . S
H438 C466 0.929 . S
H439 C467 0.929 . S
H440 C468 0.930 . S
H441 C469 0.929 . S
H442 C471 0.930 . S
H443 C448 0.930 . S
H444 C452 0.930 . S
O445 Co414 2.037 . S
O445 C465 1.234 . S
C446 O420 1.269 . S
C446 O421 1.257 . S
C447 H422 0.930 . S
C447 C450 1.388 . S
C447 C452 1.418 . S
C448 H443 0.930 . S
C448 C451 1.404 . S
C448 C452 1.353 . S
N449 Co414 2.145 . S
N449 C450 1.397 . S
N449 C451 1.334 . S
C450 H431 0.929 . S
C450 C447 1.388 . S
C450 N449 1.397 . S
C451 H432 0.929 . S
C451 C448 1.404 . S
C451 N449 1.334 . S
C452 H444 0.930 . S
C452 C447 1.418 . S
C452 C448 1.353 . S
C453 H423 0.930 . S
C453 N454 1.330 . S
C453 C455 1.446 . S
N454 Co413 2.151 . S
N454 C453 1.330 . S
N454 C458 1.418 . S
C455 H434 0.929 . S
C455 C453 1.446 . S
C455 C456 1.332 . S
C456 H436 0.931 . S
C456 C455 1.332 . S
C456 C457 1.267 . S
C457 H425 0.929 . S
C457 C456 1.267 . S
C457 C458 1.251 . S
C458 H428 0.929 . S
C458 N454 1.418 . S
C458 C457 1.251 . S
C459 H426 0.930 . S
C459 C461 1.406 . S
C459 C464 1.261 . S
C460 H427 0.930 . S
C460 N462 1.325 . S
C460 C463 1.357 . S
C461 H429 0.928 . S
C461 C459 1.406 . S
C461 N462 1.261 . S
N462 Co413 2.214 . S
N462 C460 1.325 . S
N462 C461 1.261 . S
C463 H433 0.931 . S
C463 C460 1.357 . S
C463 C464 1.312 . S
C464 H435 0.930 . S
C464 C459 1.261 . S
C464 C463 1.312 . S
C465 O437 1.214 . S
C465 O445 1.234 . S
C466 H438 0.929 . S
C466 C469 1.391 . S
C466 C471 1.391 . S
C467 H439 0.929 . S
C467 C468 1.390 . S
C467 N470 1.391 . S
C468 H440 0.930 . S
C468 C467 1.390 . S
C468 C469 1.392 . S
C469 H441 0.929 . S
C469 C466 1.391 . S
C469 C468 1.392 . S
N470 Co414 2.257 . S
N470 C467 1.391 . S
N470 C471 1.388 . S
C471 H442 0.930 . S
C471 C466 1.391 . S
C471 N470 1.388 . S
Co472 O474 2.143 . S
Co472 O480 2.074 . S
Co472 O483 2.093 . S
Co472 O496 2.097 . S
Co472 N513 2.151 . S
Co472 N521 2.214 . S
Co473 O474 2.160 . S
Co473 O479 2.058 . S
Co473 O489 2.057 . S
Co473 O504 2.037 . S
Co473 N508 2.145 . S
Co473 N529 2.257 . S
O474 Co472 2.143 . S
O474 Co473 2.160 . S
C475 O476 1.278 . S
C475 O483 1.224 . S
O476 C475 1.278 . S
C477 O478 1.245 . S
C477 O489 1.232 . S
O478 C477 1.245 . S
O479 Co473 2.058 . S
O479 C505 1.269 . S
O480 Co472 2.074 . S
O480 C505 1.257 . S
H481 C506 0.930 . S
H482 C512 0.930 . S
O483 Co472 2.093 . S
O483 C475 1.224 . S
H484 C516 0.929 . S
H485 C518 0.930 . S
H486 C519 0.930 . S
H487 C517 0.929 . S
H488 C520 0.928 . S
O489 Co473 2.057 . S
O489 C477 1.232 . S
H490 C509 0.929 . S
H491 C510 0.929 . S
H492 C522 0.931 . S
H493 C514 0.929 . S
H494 C523 0.930 . S
H495 C515 0.931 . S
O496 Co472 2.097 . S
O496 C524 1.214 . S
H497 C525 0.929 . S
H498 C526 0.929 . S
H499 C527 0.930 . S
H500 C528 0.929 . S
H501 C530 0.930 . S
H502 C507 0.930 . S
H503 C511 0.952 . S
O504 Co473 2.037 . S
O504 C524 1.234 . S
C505 O479 1.269 . S
C505 O480 1.257 . S
C506 H481 0.930 . S
C506 C509 1.388 . S
C506 C511 1.407 1_554 S
C507 H502 0.930 . S
C507 C510 1.404 . S
C507 C511 1.342 1_554 S
N508 Co473 2.145 . S
N508 C509 1.397 . S
N508 C510 1.334 . S
C509 H490 0.929 . S
C509 C506 1.388 . S
C509 N508 1.397 . S
C510 H491 0.929 . S
C510 C507 1.404 . S
C510 N508 1.334 . S
C511 H503 0.952 . S
C511 C506 1.407 1_556 S
C511 C507 1.342 1_556 S
C512 H482 0.930 . S
C512 N513 1.330 . S
C512 C514 1.446 . S
N513 Co472 2.151 . S
N513 C512 1.330 . S
N513 C517 1.418 . S
C514 H493 0.929 . S
C514 C512 1.446 . S
C514 C515 1.332 . S
C515 H495 0.931 . S
C515 C514 1.332 . S
C515 C516 1.267 . S
C516 H484 0.929 . S
C516 C515 1.267 . S
C516 C517 1.251 . S
C517 H487 0.929 . S
C517 N513 1.418 . S
C517 C516 1.251 . S
C518 H485 0.930 . S
C518 C520 1.406 . S
C518 C523 1.261 . S
C519 H486 0.930 . S
C519 N521 1.325 . S
C519 C522 1.357 . S
C520 H488 0.928 . S
C520 C518 1.406 . S
C520 N521 1.261 . S
N521 Co472 2.214 . S
N521 C519 1.325 . S
N521 C520 1.261 . S
C522 H492 0.931 . S
C522 C519 1.357 . S
C522 C523 1.312 . S
C523 H494 0.930 . S
C523 C518 1.261 . S
C523 C522 1.312 . S
C524 O496 1.214 . S
C524 O504 1.234 . S
C525 H497 0.929 . S
C525 C528 1.391 . S
C525 C530 1.391 . S
C526 H498 0.929 . S
C526 C527 1.390 . S
C526 N529 1.391 . S
C527 H499 0.930 . S
C527 C526 1.390 . S
C527 C528 1.392 . S
C528 H500 0.929 . S
C528 C525 1.391 . S
C528 C527 1.392 . S
N529 Co473 2.257 . S
N529 C526 1.391 . S
N529 C530 1.388 . S
C530 H501 0.930 . S
C530 C525 1.391 . S
C530 N529 1.388 . S
Co531 O533 2.143 . S
Co531 O539 2.074 . S
Co531 O542 2.093 . S
Co531 O555 2.097 . S
Co531 N572 2.151 . S
Co531 N580 2.214 . S
Co532 O533 2.160 . S
Co532 O538 2.058 . S
Co532 O548 2.057 . S
Co532 O563 2.037 . S
Co532 N567 2.145 . S
Co532 N588 2.257 . S
O533 Co531 2.143 . S
O533 Co532 2.160 . S
C534 O535 1.278 . S
C534 O542 1.224 . S
O535 C534 1.278 . S
C536 O537 1.245 . S
C536 O548 1.232 . S
O537 C536 1.245 . S
O538 Co532 2.058 . S
O538 C564 1.269 . S
O539 Co531 2.074 . S
O539 C564 1.257 . S
H540 C565 0.930 . S
H541 C571 0.930 . S
O542 Co531 2.093 . S
O542 C534 1.224 . S
H543 C575 0.929 . S
H544 C577 0.930 . S
H545 C578 0.930 . S
H546 C576 0.929 . S
H547 C579 0.928 . S
O548 Co532 2.057 . S
O548 C536 1.232 . S
H549 C568 0.929 . S
H550 C569 0.929 . S
H551 C581 0.931 . S
H552 C573 0.929 . S
H553 C582 0.930 . S
H554 C574 0.931 . S
O555 Co531 2.097 . S
O555 C583 1.214 . S
H556 C584 0.929 . S
H557 C585 0.929 . S
H558 C586 0.930 . S
H559 C587 0.929 . S
H560 C589 0.930 . S
H561 C566 0.930 . S
H562 C570 0.930 . S
O563 Co532 2.037 . S
O563 C583 1.234 . S
C564 O538 1.269 . S
C564 O539 1.257 . S
C565 H540 0.930 . S
C565 C568 1.388 . S
C565 C570 1.418 . S
C566 H561 0.930 . S
C566 C569 1.404 . S
C566 C570 1.353 . S
N567 Co532 2.145 . S
N567 C568 1.397 . S
N567 C569 1.334 . S
C568 H549 0.929 . S
C568 C565 1.388 . S
C568 N567 1.397 . S
C569 H550 0.929 . S
C569 C566 1.404 . S
C569 N567 1.334 . S
C570 H562 0.930 . S
C570 C565 1.418 . S
C570 C566 1.353 . S
C571 H541 0.930 . S
C571 N572 1.330 . S
C571 C573 1.446 . S
N572 Co531 2.151 . S
N572 C571 1.330 . S
N572 C576 1.418 . S
C573 H552 0.929 . S
C573 C571 1.446 . S
C573 C574 1.332 . S
C574 H554 0.931 . S
C574 C573 1.332 . S
C574 C575 1.267 . S
C575 H543 0.929 . S
C575 C574 1.267 . S
C575 C576 1.251 . S
C576 H546 0.929 . S
C576 N572 1.418 . S
C576 C575 1.251 . S
C577 H544 0.930 . S
C577 C579 1.406 . S
C577 C582 1.261 . S
C578 H545 0.930 . S
C578 N580 1.325 . S
C578 C581 1.357 . S
C579 H547 0.928 . S
C579 C577 1.406 . S
C579 N580 1.261 . S
N580 Co531 2.214 . S
N580 C578 1.325 . S
N580 C579 1.261 . S
C581 H551 0.931 . S
C581 C578 1.357 . S
C581 C582 1.312 . S
C582 H553 0.930 . S
C582 C577 1.261 . S
C582 C581 1.312 . S
C583 O555 1.214 . S
C583 O563 1.234 . S
C584 H556 0.929 . S
C584 C587 1.391 . S
C584 C589 1.391 . S
C585 H557 0.929 . S
C585 C586 1.390 . S
C585 N588 1.391 . S
C586 H558 0.930 . S
C586 C585 1.390 . S
C586 C587 1.392 . S
C587 H559 0.929 . S
C587 C584 1.391 . S
C587 C586 1.392 . S
N588 Co532 2.257 . S
N588 C585 1.391 . S
N588 C589 1.388 . S
C589 H560 0.930 . S
C589 C584 1.391 . S
C589 N588 1.388 . S
Co590 O592 2.143 . S
Co590 O598 2.074 . S
Co590 O601 2.093 . S
Co590 O614 2.097 . S
Co590 N631 2.151 . S
Co590 N639 2.214 . S
Co591 O592 2.160 . S
Co591 O597 2.058 . S
Co591 O607 2.057 . S
Co591 O622 2.037 . S
Co591 N626 2.145 . S
Co591 N647 2.257 . S
O592 Co590 2.143 . S
O592 Co591 2.160 . S
C593 O594 1.278 . S
C593 O601 1.224 . S
O594 C593 1.278 . S
C595 O596 1.245 . S
C595 O607 1.232 . S
O596 C595 1.245 . S
O597 Co591 2.058 . S
O597 C623 1.269 . S
O598 Co590 2.074 . S
O598 C623 1.257 . S
H599 C624 0.930 . S
H600 C630 0.930 . S
O601 Co590 2.093 . S
O601 C593 1.224 . S
H602 C634 0.929 . S
H603 C636 0.930 . S
H604 C637 0.930 . S
H605 C635 0.929 . S
H606 C638 0.928 . S
O607 Co591 2.057 . S
O607 C595 1.232 . S
H608 C627 0.929 . S
H609 C628 0.929 . S
H610 C640 0.931 . S
H611 C632 0.929 . S
H612 C641 0.930 . S
H613 C633 0.931 . S
O614 Co590 2.097 . S
O614 C642 1.214 . S
H615 C643 0.929 . S
H616 C644 0.929 . S
H617 C645 0.930 . S
H618 C646 0.929 . S
H619 C648 0.930 . S
H620 C625 0.930 . S
H621 C629 0.930 1_556 S
O622 Co591 2.037 . S
O622 C642 1.234 . S
C623 O597 1.269 . S
C623 O598 1.257 . S
C624 H599 0.930 . S
C624 C627 1.388 . S
C624 C629 1.418 . S
C625 H620 0.930 . S
C625 C628 1.404 . S
C625 C629 1.353 . S
N626 Co591 2.145 . S
N626 C627 1.397 . S
N626 C628 1.334 . S
C627 H608 0.929 . S
C627 C624 1.388 . S
C627 N626 1.397 . S
C628 H609 0.929 . S
C628 C625 1.404 . S
C628 N626 1.334 . S
C629 H621 0.930 1_554 S
C629 C624 1.418 . S
C629 C625 1.353 . S
C630 H600 0.930 . S
C630 N631 1.330 . S
C630 C632 1.446 . S
N631 Co590 2.151 . S
N631 C630 1.330 . S
N631 C635 1.418 . S
C632 H611 0.929 . S
C632 C630 1.446 . S
C632 C633 1.332 . S
C633 H613 0.931 . S
C633 C632 1.332 . S
C633 C634 1.267 . S
C634 H602 0.929 . S
C634 C633 1.267 . S
C634 C635 1.251 . S
C635 H605 0.929 . S
C635 N631 1.418 . S
C635 C634 1.251 . S
C636 H603 0.930 . S
C636 C638 1.406 . S
C636 C641 1.261 . S
C637 H604 0.930 . S
C637 N639 1.325 . S
C637 C640 1.357 . S
C638 H606 0.928 . S
C638 C636 1.406 . S
C638 N639 1.261 . S
N639 Co590 2.214 . S
N639 C637 1.325 . S
N639 C638 1.261 . S
C640 H610 0.931 . S
C640 C637 1.357 . S
C640 C641 1.312 . S
C641 H612 0.930 . S
C641 C636 1.261 . S
C641 C640 1.312 . S
C642 O614 1.214 . S
C642 O622 1.234 . S
C643 H615 0.929 . S
C643 C646 1.391 . S
C643 C648 1.391 . S
C644 H616 0.929 . S
C644 C645 1.390 . S
C644 N647 1.391 . S
C645 H617 0.930 . S
C645 C644 1.390 . S
C645 C646 1.392 . S
C646 H618 0.929 . S
C646 C643 1.391 . S
C646 C645 1.392 . S
N647 Co591 2.257 . S
N647 C644 1.391 . S
N647 C648 1.388 . S
C648 H619 0.930 . S
C648 C643 1.391 . S
C648 N647 1.388 . S
Co649 O651 2.143 . S
Co649 O657 2.074 . S
Co649 O660 2.093 . S
Co649 O673 2.097 . S
Co649 N690 2.151 . S
Co649 N698 2.214 . S
Co650 O651 2.160 . S
Co650 O656 2.058 . S
Co650 O666 2.057 . S
Co650 O681 2.037 . S
Co650 N685 2.145 . S
Co650 N706 2.257 . S
O651 Co649 2.143 . S
O651 Co650 2.160 . S
C652 O653 1.278 . S
C652 O660 1.224 . S
O653 C652 1.278 . S
C654 O655 1.245 . S
C654 O666 1.232 . S
O655 C654 1.245 . S
O656 Co650 2.058 . S
O656 C682 1.269 . S
O657 Co649 2.074 . S
O657 C682 1.257 . S
H658 C683 0.930 . S
H659 C689 0.930 . S
O660 Co649 2.093 . S
O660 C652 1.224 . S
H661 C693 0.929 . S
H662 C695 0.930 . S
H663 C696 0.930 . S
H664 C694 0.929 . S
H665 C697 0.928 . S
O666 Co650 2.057 . S
O666 C654 1.232 . S
H667 C686 0.929 . S
H668 C687 0.929 . S
H669 C699 0.931 . S
H670 C691 0.929 . S
H671 C700 0.930 . S
H672 C692 0.931 . S
O673 Co649 2.097 . S
O673 C701 1.214 . S
H674 C702 0.929 . S
H675 C703 0.929 . S
H676 C704 0.930 . S
H677 C705 0.929 . S
H678 C707 0.930 . S
H679 C684 0.930 . S
H680 C688 0.930 . S
O681 Co650 2.037 . S
O681 C701 1.234 . S
C682 O656 1.269 . S
C682 O657 1.257 . S
C683 H658 0.930 . S
C683 C686 1.388 . S
C683 C688 1.418 . S
C684 H679 0.930 . S
C684 C687 1.404 . S
C684 C688 1.353 . S
N685 Co650 2.145 . S
N685 C686 1.397 . S
N685 C687 1.334 . S
C686 H667 0.929 . S
C686 C683 1.388 . S
C686 N685 1.397 . S
C687 H668 0.929 . S
C687 C684 1.404 . S
C687 N685 1.334 . S
C688 H680 0.930 . S
C688 C683 1.418 . S
C688 C684 1.353 . S
C689 H659 0.930 . S
C689 N690 1.330 . S
C689 C691 1.446 . S
N690 Co649 2.151 . S
N690 C689 1.330 . S
N690 C694 1.418 . S
C691 H670 0.929 . S
C691 C689 1.446 . S
C691 C692 1.332 . S
C692 H672 0.931 . S
C692 C691 1.332 . S
C692 C693 1.267 . S
C693 H661 0.929 . S
C693 C692 1.267 . S
C693 C694 1.251 . S
C694 H664 0.929 . S
C694 N690 1.418 . S
C694 C693 1.251 . S
C695 H662 0.930 . S
C695 C697 1.406 . S
C695 C700 1.261 . S
C696 H663 0.930 . S
C696 N698 1.325 . S
C696 C699 1.357 . S
C697 H665 0.928 . S
C697 C695 1.406 . S
C697 N698 1.261 . S
N698 Co649 2.214 . S
N698 C696 1.325 . S
N698 C697 1.261 . S
C699 H669 0.931 . S
C699 C696 1.357 . S
C699 C700 1.312 . S
C700 H671 0.930 . S
C700 C695 1.261 . S
C700 C699 1.312 . S
C701 O673 1.214 . S
C701 O681 1.234 . S
C702 H674 0.929 . S
C702 C705 1.391 . S
C702 C707 1.391 . S
C703 H675 0.929 . S
C703 C704 1.390 . S
C703 N706 1.391 . S
C704 H676 0.930 . S
C704 C703 1.390 . S
C704 C705 1.392 . S
C705 H677 0.929 . S
C705 C702 1.391 . S
C705 C704 1.392 . S
N706 Co650 2.257 . S
N706 C703 1.391 . S
N706 C707 1.388 . S
C707 H678 0.930 . S
C707 C702 1.391 . S
C707 N706 1.388 . S
Co708 O710 2.143 . S
Co708 O716 2.074 . S
Co708 O719 2.093 . S
Co708 O732 2.097 . S
Co708 N749 2.151 . S
Co708 N757 2.214 . S
Co709 O710 2.160 . S
Co709 O715 2.058 . S
Co709 O725 2.057 . S
Co709 O740 2.037 . S
Co709 N744 2.145 . S
Co709 N765 2.257 . S
O710 Co708 2.143 . S
O710 Co709 2.160 . S
C711 O712 1.278 . S
C711 O719 1.224 . S
O712 C711 1.278 . S
C713 O714 1.245 . S
C713 O725 1.232 . S
O714 C713 1.245 . S
O715 Co709 2.058 . S
O715 C741 1.269 . S
O716 Co708 2.074 . S
O716 C741 1.257 . S
H717 C742 0.930 . S
H718 C748 0.930 . S
O719 Co708 2.093 . S
O719 C711 1.224 . S
H720 C752 0.929 . S
H721 C754 0.930 . S
H722 C755 0.930 . S
H723 C753 0.929 . S
H724 C756 0.928 . S
O725 Co709 2.057 . S
O725 C713 1.232 . S
H726 C745 0.929 . S
H727 C746 0.929 . S
H728 C758 0.931 . S
H729 C750 0.929 . S
H730 C759 0.930 . S
H731 C751 0.931 . S
O732 Co708 2.097 . S
O732 C760 1.214 . S
H733 C761 0.929 . S
H734 C762 0.929 . S
H735 C763 0.930 . S
H736 C764 0.929 . S
H737 C766 0.930 . S
H738 C743 0.930 . S
H739 C747 0.930 . S
O740 Co709 2.037 . S
O740 C760 1.234 . S
C741 O715 1.269 . S
C741 O716 1.257 . S
C742 H717 0.930 . S
C742 C745 1.388 . S
C742 C747 1.418 . S
C743 H738 0.930 . S
C743 C746 1.404 . S
C743 C747 1.353 . S
N744 Co709 2.145 . S
N744 C745 1.397 . S
N744 C746 1.334 . S
C745 H726 0.929 . S
C745 C742 1.388 . S
C745 N744 1.397 . S
C746 H727 0.929 . S
C746 C743 1.404 . S
C746 N744 1.334 . S
C747 H739 0.930 . S
C747 C742 1.418 . S
C747 C743 1.353 . S
C748 H718 0.930 . S
C748 N749 1.330 . S
C748 C750 1.446 . S
N749 Co708 2.151 . S
N749 C748 1.330 . S
N749 C753 1.418 . S
C750 H729 0.929 . S
C750 C748 1.446 . S
C750 C751 1.332 . S
C751 H731 0.931 . S
C751 C750 1.332 . S
C751 C752 1.267 . S
C752 H720 0.929 . S
C752 C751 1.267 . S
C752 C753 1.251 . S
C753 H723 0.929 . S
C753 N749 1.418 . S
C753 C752 1.251 . S
C754 H721 0.930 . S
C754 C756 1.406 . S
C754 C759 1.261 . S
C755 H722 0.930 . S
C755 N757 1.325 . S
C755 C758 1.357 . S
C756 H724 0.928 . S
C756 C754 1.406 . S
C756 N757 1.261 . S
N757 Co708 2.214 . S
N757 C755 1.325 . S
N757 C756 1.261 . S
C758 H728 0.931 . S
C758 C755 1.357 . S
C758 C759 1.312 . S
C759 H730 0.930 . S
C759 C754 1.261 . S
C759 C758 1.312 . S
C760 O732 1.214 . S
C760 O740 1.234 . S
C761 H733 0.929 . S
C761 C764 1.391 . S
C761 C766 1.391 . S
C762 H734 0.929 . S
C762 C763 1.390 . S
C762 N765 1.391 . S
C763 H735 0.930 . S
C763 C762 1.390 . S
C763 C764 1.392 . S
C764 H736 0.929 . S
C764 C761 1.391 . S
C764 C763 1.392 . S
N765 Co709 2.257 . S
N765 C762 1.391 . S
N765 C766 1.388 . S
C766 H737 0.930 . S
C766 C761 1.391 . S
C766 N765 1.388 . S
Co767 O769 2.143 . S
Co767 O775 2.074 . S
Co767 O778 2.093 . S
Co767 O791 2.097 . S
Co767 N808 2.151 . S
Co767 N816 2.214 . S
Co768 O769 2.160 . S
Co768 O774 2.058 . S
Co768 O784 2.057 . S
Co768 O799 2.037 . S
Co768 N803 2.145 . S
Co768 N824 2.257 . S
O769 Co767 2.143 . S
O769 Co768 2.160 . S
C770 O771 1.278 . S
C770 O778 1.224 . S
O771 C770 1.278 . S
C772 O773 1.245 . S
C772 O784 1.232 . S
O773 C772 1.245 . S
O774 Co768 2.058 . S
O774 C800 1.269 . S
O775 Co767 2.074 . S
O775 C800 1.257 . S
H776 C801 0.930 . S
H777 C807 0.930 . S
O778 Co767 2.093 . S
O778 C770 1.224 . S
H779 C811 0.929 . S
H780 C813 0.930 . S
H781 C814 0.930 . S
H782 C812 0.929 . S
H783 C815 0.928 . S
O784 Co768 2.057 . S
O784 C772 1.232 . S
H785 C804 0.929 . S
H786 C805 0.929 . S
H787 C817 0.931 . S
H788 C809 0.929 . S
H789 C818 0.930 . S
H790 C810 0.931 . S
O791 Co767 2.097 . S
O791 C819 1.214 . S
H792 C820 0.929 . S
H793 C821 0.929 . S
H794 C822 0.930 . S
H795 C823 0.929 . S
H796 C825 0.930 . S
H797 C802 0.930 . S
H798 C806 0.930 . S
O799 Co768 2.037 . S
O799 C819 1.234 . S
C800 O774 1.269 . S
C800 O775 1.257 . S
C801 H776 0.930 . S
C801 C804 1.388 . S
C801 C806 1.418 . S
C802 H797 0.930 . S
C802 C805 1.404 . S
C802 C806 1.353 . S
N803 Co768 2.145 . S
N803 C804 1.397 . S
N803 C805 1.334 . S
C804 H785 0.929 . S
C804 C801 1.388 . S
C804 N803 1.397 . S
C805 H786 0.929 . S
C805 C802 1.404 . S
C805 N803 1.334 . S
C806 H798 0.930 . S
C806 C801 1.418 . S
C806 C802 1.353 . S
C807 H777 0.930 . S
C807 N808 1.330 . S
C807 C809 1.446 . S
N808 Co767 2.151 . S
N808 C807 1.330 . S
N808 C812 1.418 . S
C809 H788 0.929 . S
C809 C807 1.446 . S
C809 C810 1.332 . S
C810 H790 0.931 . S
C810 C809 1.332 . S
C810 C811 1.267 . S
C811 H779 0.929 . S
C811 C810 1.267 . S
C811 C812 1.251 . S
C812 H782 0.929 . S
C812 N808 1.418 . S
C812 C811 1.251 . S
C813 H780 0.930 . S
C813 C815 1.406 . S
C813 C818 1.261 . S
C814 H781 0.930 . S
C814 N816 1.325 . S
C814 C817 1.357 . S
C815 H783 0.928 . S
C815 C813 1.406 . S
C815 N816 1.261 . S
N816 Co767 2.214 . S
N816 C814 1.325 . S
N816 C815 1.261 . S
C817 H787 0.931 . S
C817 C814 1.357 . S
C817 C818 1.312 . S
C818 H789 0.930 . S
C818 C813 1.261 . S
C818 C817 1.312 . S
C819 O791 1.214 . S
C819 O799 1.234 . S
C820 H792 0.929 . S
C820 C823 1.391 . S
C820 C825 1.391 . S
C821 H793 0.929 . S
C821 C822 1.390 . S
C821 N824 1.391 . S
C822 H794 0.930 . S
C822 C821 1.390 . S
C822 C823 1.392 . S
C823 H795 0.929 . S
C823 C820 1.391 . S
C823 C822 1.392 . S
N824 Co768 2.257 . S
N824 C821 1.391 . S
N824 C825 1.388 . S
C825 H796 0.930 . S
C825 C820 1.391 . S
C825 N824 1.388 . S
Co826 O828 2.143 . S
Co826 O834 2.074 . S
Co826 O837 2.093 . S
Co826 O850 2.097 . S
Co826 N867 2.151 . S
Co826 N875 2.214 . S
Co827 O828 2.160 . S
Co827 O833 2.058 . S
Co827 O843 2.057 . S
Co827 O858 2.037 . S
Co827 N862 2.145 . S
Co827 N883 2.257 . S
O828 Co826 2.143 . S
O828 Co827 2.160 . S
C829 O830 1.278 . S
C829 O837 1.224 . S
O830 C829 1.278 . S
C831 O832 1.245 . S
C831 O843 1.232 . S
O832 C831 1.245 . S
O833 Co827 2.058 . S
O833 C859 1.269 . S
O834 Co826 2.074 . S
O834 C859 1.257 . S
H835 C860 0.930 . S
H836 C866 0.930 . S
O837 Co826 2.093 . S
O837 C829 1.224 . S
H838 C870 0.929 . S
H839 C872 0.930 . S
H840 C873 0.930 . S
H841 C871 0.929 . S
H842 C874 0.928 . S
O843 Co827 2.057 . S
O843 C831 1.232 . S
H844 C863 0.929 . S
H845 C864 0.929 . S
H846 C876 0.931 . S
H847 C868 0.929 . S
H848 C877 0.930 . S
H849 C869 0.931 . S
O850 Co826 2.097 . S
O850 C878 1.214 . S
H851 C879 0.929 . S
H852 C880 0.929 . S
H853 C881 0.930 . S
H854 C882 0.929 . S
H855 C884 0.930 . S
H856 C861 0.930 . S
H857 C865 0.930 . S
O858 Co827 2.037 . S
O858 C878 1.234 . S
C859 O833 1.269 . S
C859 O834 1.257 . S
C860 H835 0.930 . S
C860 C863 1.388 . S
C860 C865 1.418 . S
C861 H856 0.930 . S
C861 C864 1.404 . S
C861 C865 1.353 . S
N862 Co827 2.145 . S
N862 C863 1.397 . S
N862 C864 1.334 . S
C863 H844 0.929 . S
C863 C860 1.388 . S
C863 N862 1.397 . S
C864 H845 0.929 . S
C864 C861 1.404 . S
C864 N862 1.334 . S
C865 H857 0.930 . S
C865 C860 1.418 . S
C865 C861 1.353 . S
C866 H836 0.930 . S
C866 N867 1.330 . S
C866 C868 1.446 . S
N867 Co826 2.151 . S
N867 C866 1.330 . S
N867 C871 1.418 . S
C868 H847 0.929 . S
C868 C866 1.446 . S
C868 C869 1.332 . S
C869 H849 0.931 . S
C869 C868 1.332 . S
C869 C870 1.267 . S
C870 H838 0.929 . S
C870 C869 1.267 . S
C870 C871 1.251 . S
C871 H841 0.929 . S
C871 N867 1.418 . S
C871 C870 1.251 . S
C872 H839 0.930 . S
C872 C874 1.406 . S
C872 C877 1.261 . S
C873 H840 0.930 . S
C873 N875 1.325 . S
C873 C876 1.357 . S
C874 H842 0.928 . S
C874 C872 1.406 . S
C874 N875 1.261 . S
N875 Co826 2.214 . S
N875 C873 1.325 . S
N875 C874 1.261 . S
C876 H846 0.931 . S
C876 C873 1.357 . S
C876 C877 1.312 . S
C877 H848 0.930 . S
C877 C872 1.261 . S
C877 C876 1.312 . S
C878 O850 1.214 . S
C878 O858 1.234 . S
C879 H851 0.929 . S
C879 C882 1.391 . S
C879 C884 1.391 . S
C880 H852 0.929 . S
C880 C881 1.390 . S
C880 N883 1.391 . S
C881 H853 0.930 . S
C881 C880 1.390 . S
C881 C882 1.392 . S
C882 H854 0.929 . S
C882 C879 1.391 . S
C882 C881 1.392 . S
N883 Co827 2.257 . S
N883 C880 1.391 . S
N883 C884 1.388 . S
C884 H855 0.930 . S
C884 C879 1.391 . S
C884 N883 1.388 . S
Co885 O887 2.143 . S
Co885 O893 2.074 . S
Co885 O896 2.093 . S
Co885 O909 2.097 . S
Co885 N926 2.151 . S
Co885 N934 2.214 . S
Co886 O887 2.160 . S
Co886 O892 2.058 . S
Co886 O902 2.057 . S
Co886 O917 2.037 . S
Co886 N921 2.145 . S
Co886 N942 2.257 . S
O887 Co885 2.143 . S
O887 Co886 2.160 . S
C888 O889 1.278 . S
C888 O896 1.224 . S
O889 C888 1.278 . S
C890 O891 1.245 . S
C890 O902 1.232 . S
O891 C890 1.245 . S
O892 Co886 2.058 . S
O892 C918 1.269 . S
O893 Co885 2.074 . S
O893 C918 1.257 . S
H894 C919 0.930 . S
H895 C925 0.930 . S
O896 Co885 2.093 . S
O896 C888 1.224 . S
H897 C929 0.929 . S
H898 C931 0.930 . S
H899 C932 0.930 . S
H900 C930 0.929 . S
H901 C933 0.928 . S
O902 Co886 2.057 . S
O902 C890 1.232 . S
H903 C922 0.929 . S
H904 C923 0.929 . S
H905 C935 0.931 . S
H906 C927 0.929 . S
H907 C936 0.930 . S
H908 C928 0.931 . S
O909 Co885 2.097 . S
O909 C937 1.214 . S
H910 C938 0.929 . S
H911 C939 0.929 . S
H912 C940 0.930 . S
H913 C941 0.929 . S
H914 C943 0.930 . S
H915 C920 0.930 . S
H916 C924 0.930 . S
O917 Co886 2.037 . S
O917 C937 1.234 . S
C918 O892 1.269 . S
C918 O893 1.257 . S
C919 H894 0.930 . S
C919 C922 1.388 . S
C919 C924 1.418 . S
C920 H915 0.930 . S
C920 C923 1.404 . S
C920 C924 1.353 . S
N921 Co886 2.145 . S
N921 C922 1.397 . S
N921 C923 1.334 . S
C922 H903 0.929 . S
C922 C919 1.388 . S
C922 N921 1.397 . S
C923 H904 0.929 . S
C923 C920 1.404 . S
C923 N921 1.334 . S
C924 H916 0.930 . S
C924 C919 1.418 . S
C924 C920 1.353 . S
C925 H895 0.930 . S
C925 N926 1.330 . S
C925 C927 1.446 . S
N926 Co885 2.151 . S
N926 C925 1.330 . S
N926 C930 1.418 . S
C927 H906 0.929 . S
C927 C925 1.446 . S
C927 C928 1.332 . S
C928 H908 0.931 . S
C928 C927 1.332 . S
C928 C929 1.267 . S
C929 H897 0.929 . S
C929 C928 1.267 . S
C929 C930 1.251 . S
C930 H900 0.929 . S
C930 N926 1.418 . S
C930 C929 1.251 . S
C931 H898 0.930 . S
C931 C933 1.406 . S
C931 C936 1.261 . S
C932 H899 0.930 . S
C932 N934 1.325 . S
C932 C935 1.357 . S
C933 H901 0.928 . S
C933 C931 1.406 . S
C933 N934 1.261 . S
N934 Co885 2.214 . S
N934 C932 1.325 . S
N934 C933 1.261 . S
C935 H905 0.931 . S
C935 C932 1.357 . S
C935 C936 1.312 . S
C936 H907 0.930 . S
C936 C931 1.261 . S
C936 C935 1.312 . S
C937 O909 1.214 . S
C937 O917 1.234 . S
C938 H910 0.929 . S
C938 C941 1.391 . S
C938 C943 1.391 . S
C939 H911 0.929 . S
C939 C940 1.390 . S
C939 N942 1.391 . S
C940 H912 0.930 . S
C940 C939 1.390 . S
C940 C941 1.392 . S
C941 H913 0.929 . S
C941 C938 1.391 . S
C941 C940 1.392 . S
N942 Co886 2.257 . S
N942 C939 1.391 . S
N942 C943 1.388 . S
C943 H914 0.930 . S
C943 C938 1.391 . S
C943 N942 1.388 . S
Co944 O946 2.143 . S
Co944 O952 2.074 . S
Co944 O955 2.093 . S
Co944 O968 2.097 . S
Co944 N985 2.151 . S
Co944 N993 2.214 . S
Co945 O946 2.160 . S
Co945 O951 2.058 . S
Co945 O961 2.057 . S
Co945 O976 2.037 . S
Co945 N980 2.145 . S
Co945 N1001 2.257 . S
O946 Co944 2.143 . S
O946 Co945 2.160 . S
C947 O948 1.278 . S
C947 O955 1.224 . S
O948 C947 1.278 . S
C949 O950 1.245 . S
C949 O961 1.232 . S
O950 C949 1.245 . S
O951 Co945 2.058 . S
O951 C977 1.269 . S
O952 Co944 2.074 . S
O952 C977 1.257 . S
H953 C978 0.930 1_655 S
H954 C984 0.930 . S
O955 Co944 2.093 . S
O955 C947 1.224 . S
H956 C988 0.929 . S
H957 C990 0.930 . S
H958 C991 0.930 . S
H959 C989 0.929 . S
H960 C992 0.928 . S
O961 Co945 2.057 . S
O961 C949 1.232 . S
H962 C981 0.929 . S
H963 C982 0.929 . S
H964 C994 0.931 . S
H965 C986 0.929 . S
H966 C995 0.930 . S
H967 C987 0.931 . S
O968 Co944 2.097 . S
O968 C996 1.214 . S
H969 C997 0.929 . S
H970 C998 0.929 . S
H971 C999 0.930 . S
H972 C1000 0.929 . S
H973 C1002 0.930 . S
H974 C979 0.930 1_655 S
H975 C983 0.930 . S
O976 Co945 2.037 . S
O976 C996 1.234 . S
C977 O951 1.269 . S
C977 O952 1.257 . S
C978 H953 0.930 1_455 S
C978 C981 1.388 . S
C978 C983 1.418 1_455 S
C979 H974 0.930 1_455 S
C979 C982 1.404 . S
C979 C983 1.353 1_455 S
N980 Co945 2.145 . S
N980 C981 1.397 . S
N980 C982 1.334 . S
C981 H962 0.929 . S
C981 C978 1.388 . S
C981 N980 1.397 . S
C982 H963 0.929 . S
C982 C979 1.404 . S
C982 N980 1.334 . S
C983 H975 0.930 . S
C983 C978 1.418 1_655 S
C983 C979 1.353 1_655 S
C984 H954 0.930 . S
C984 N985 1.330 . S
C984 C986 1.446 . S
N985 Co944 2.151 . S
N985 C984 1.330 . S
N985 C989 1.418 . S
C986 H965 0.929 . S
C986 C984 1.446 . S
C986 C987 1.332 . S
C987 H967 0.931 . S
C987 C986 1.332 . S
C987 C988 1.267 . S
C988 H956 0.929 . S
C988 C987 1.267 . S
C988 C989 1.251 . S
C989 H959 0.929 . S
C989 N985 1.418 . S
C989 C988 1.251 . S
C990 H957 0.930 . S
C990 C992 1.406 . S
C990 C995 1.261 . S
C991 H958 0.930 . S
C991 N993 1.325 . S
C991 C994 1.357 . S
C992 H960 0.928 . S
C992 C990 1.406 . S
C992 N993 1.261 . S
N993 Co944 2.214 . S
N993 C991 1.325 . S
N993 C992 1.261 . S
C994 H964 0.931 . S
C994 C991 1.357 . S
C994 C995 1.312 . S
C995 H966 0.930 . S
C995 C990 1.261 . S
C995 C994 1.312 . S
C996 O968 1.214 . S
C996 O976 1.234 . S
C997 H969 0.929 . S
C997 C1000 1.391 . S
C997 C1002 1.391 . S
C998 H970 0.929 . S
C998 C999 1.390 . S
C998 N1001 1.391 . S
C999 H971 0.930 . S
C999 C998 1.390 . S
C999 C1000 1.392 . S
C1000 H972 0.929 . S
C1000 C997 1.391 . S
C1000 C999 1.392 . S
N1001 Co945 2.257 . S
N1001 C998 1.391 . S
N1001 C1002 1.388 . S
C1002 H973 0.930 . S
C1002 C997 1.391 . S
C1002 N1001 1.388 . S
Co1003 O1005 2.143 . S
Co1003 O1011 2.074 . S
Co1003 O1014 2.093 . S
Co1003 O1027 2.097 . S
Co1003 N1044 2.151 . S
Co1003 N1052 2.214 . S
Co1004 O1005 2.160 . S
Co1004 O1010 2.058 . S
Co1004 O1020 2.057 . S
Co1004 O1035 2.037 . S
Co1004 N1039 2.145 . S
Co1004 N1060 2.257 . S
O1005 Co1003 2.143 . S
O1005 Co1004 2.160 . S
C1006 O1007 1.278 . S
C1006 O1014 1.224 . S
O1007 C1006 1.278 . S
C1008 O1009 1.245 . S
C1008 O1020 1.232 . S
O1009 C1008 1.245 . S
O1010 Co1004 2.058 . S
O1010 C1036 1.269 . S
O1011 Co1003 2.074 . S
O1011 C1036 1.257 . S
H1012 C1037 0.930 . S
H1013 C1043 0.930 . S
O1014 Co1003 2.093 . S
O1014 C1006 1.224 . S
H1015 C1047 0.929 . S
H1016 C1049 0.930 . S
H1017 C1050 0.930 . S
H1018 C1048 0.929 . S
H1019 C1051 0.928 . S
O1020 Co1004 2.057 . S
O1020 C1008 1.232 . S
H1021 C1040 0.929 . S
H1022 C1041 0.929 . S
H1023 C1053 0.931 . S
H1024 C1045 0.929 . S
H1025 C1054 0.930 . S
H1026 C1046 0.931 . S
O1027 Co1003 2.097 . S
O1027 C1055 1.214 . S
H1028 C1056 0.929 . S
H1029 C1057 0.929 . S
H1030 C1058 0.930 . S
H1031 C1059 0.929 . S
H1032 C1061 0.930 . S
H1033 C1038 0.930 . S
H1034 C1042 0.930 . S
O1035 Co1004 2.037 . S
O1035 C1055 1.234 . S
C1036 O1010 1.269 . S
C1036 O1011 1.257 . S
C1037 H1012 0.930 . S
C1037 C1040 1.388 . S
C1037 C1042 1.418 . S
C1038 H1033 0.930 . S
C1038 C1041 1.404 . S
C1038 C1042 1.353 . S
N1039 Co1004 2.145 . S
N1039 C1040 1.397 . S
N1039 C1041 1.334 . S
C1040 H1021 0.929 . S
C1040 C1037 1.388 . S
C1040 N1039 1.397 . S
C1041 H1022 0.929 . S
C1041 C1038 1.404 . S
C1041 N1039 1.334 . S
C1042 H1034 0.930 . S
C1042 C1037 1.418 . S
C1042 C1038 1.353 . S
C1043 H1013 0.930 . S
C1043 N1044 1.330 . S
C1043 C1045 1.446 . S
N1044 Co1003 2.151 . S
N1044 C1043 1.330 . S
N1044 C1048 1.418 . S
C1045 H1024 0.929 . S
C1045 C1043 1.446 . S
C1045 C1046 1.332 . S
C1046 H1026 0.931 . S
C1046 C1045 1.332 . S
C1046 C1047 1.267 . S
C1047 H1015 0.929 . S
C1047 C1046 1.267 . S
C1047 C1048 1.251 . S
C1048 H1018 0.929 . S
C1048 N1044 1.418 . S
C1048 C1047 1.251 . S
C1049 H1016 0.930 . S
C1049 C1051 1.406 . S
C1049 C1054 1.261 . S
C1050 H1017 0.930 . S
C1050 N1052 1.325 . S
C1050 C1053 1.357 . S
C1051 H1019 0.928 . S
C1051 C1049 1.406 . S
C1051 N1052 1.261 . S
N1052 Co1003 2.214 . S
N1052 C1050 1.325 . S
N1052 C1051 1.261 . S
C1053 H1023 0.931 . S
C1053 C1050 1.357 . S
C1053 C1054 1.312 . S
C1054 H1025 0.930 . S
C1054 C1049 1.261 . S
C1054 C1053 1.312 . S
C1055 O1027 1.214 . S
C1055 O1035 1.234 . S
C1056 H1028 0.929 . S
C1056 C1059 1.391 . S
C1056 C1061 1.391 . S
C1057 H1029 0.929 . S
C1057 C1058 1.390 . S
C1057 N1060 1.391 . S
C1058 H1030 0.930 . S
C1058 C1057 1.390 . S
C1058 C1059 1.392 . S
C1059 H1031 0.929 . S
C1059 C1056 1.391 . S
C1059 C1058 1.392 . S
N1060 Co1004 2.257 . S
N1060 C1057 1.391 . S
N1060 C1061 1.388 . S
C1061 H1032 0.930 . S
C1061 C1056 1.391 . S
C1061 N1060 1.388 . S
Co1062 O1064 2.143 . S
Co1062 O1070 2.074 . S
Co1062 O1073 2.093 . S
Co1062 O1086 2.097 . S
Co1062 N1103 2.151 . S
Co1062 N1111 2.214 . S
Co1063 O1064 2.160 . S
Co1063 O1069 2.058 . S
Co1063 O1079 2.057 . S
Co1063 O1094 2.037 . S
Co1063 N1098 2.145 . S
Co1063 N1119 2.257 . S
O1064 Co1062 2.143 . S
O1064 Co1063 2.160 . S
C1065 O1066 1.278 . S
C1065 O1073 1.224 . S
O1066 C1065 1.278 . S
C1067 O1068 1.245 . S
C1067 O1079 1.232 . S
O1068 C1067 1.245 . S
O1069 Co1063 2.058 . S
O1069 C1095 1.269 . S
O1070 Co1062 2.074 . S
O1070 C1095 1.257 . S
H1071 C1096 0.930 . S
H1072 C1102 0.930 . S
O1073 Co1062 2.093 . S
O1073 C1065 1.224 . S
H1074 C1106 0.929 . S
H1075 C1108 0.930 . S
H1076 C1109 0.930 . S
H1077 C1107 0.929 . S
H1078 C1110 0.928 . S
O1079 Co1063 2.057 . S
O1079 C1067 1.232 . S
H1080 C1099 0.929 . S
H1081 C1100 0.929 . S
H1082 C1112 0.931 . S
H1083 C1104 0.929 . S
H1084 C1113 0.930 . S
H1085 C1105 0.931 . S
O1086 Co1062 2.097 . S
O1086 C1114 1.214 . S
H1087 C1115 0.929 . S
H1088 C1116 0.929 . S
H1089 C1117 0.930 . S
H1090 C1118 0.929 . S
H1091 C1120 0.930 . S
H1092 C1097 0.930 . S
H1093 C1101 0.930 . S
O1094 Co1063 2.037 . S
O1094 C1114 1.234 . S
C1095 O1069 1.269 . S
C1095 O1070 1.257 . S
C1096 H1071 0.930 . S
C1096 C1099 1.388 . S
C1096 C1101 1.418 . S
C1097 H1092 0.930 . S
C1097 C1100 1.404 . S
C1097 C1101 1.353 . S
N1098 Co1063 2.145 . S
N1098 C1099 1.397 . S
N1098 C1100 1.334 . S
C1099 H1080 0.929 . S
C1099 C1096 1.388 . S
C1099 N1098 1.397 . S
C1100 H1081 0.929 . S
C1100 C1097 1.404 . S
C1100 N1098 1.334 . S
C1101 H1093 0.930 . S
C1101 C1096 1.418 . S
C1101 C1097 1.353 . S
C1102 H1072 0.930 . S
C1102 N1103 1.330 . S
C1102 C1104 1.446 . S
N1103 Co1062 2.151 . S
N1103 C1102 1.330 . S
N1103 C1107 1.418 . S
C1104 H1083 0.929 . S
C1104 C1102 1.446 . S
C1104 C1105 1.332 . S
C1105 H1085 0.931 . S
C1105 C1104 1.332 . S
C1105 C1106 1.267 . S
C1106 H1074 0.929 . S
C1106 C1105 1.267 . S
C1106 C1107 1.251 . S
C1107 H1077 0.929 . S
C1107 N1103 1.418 . S
C1107 C1106 1.251 . S
C1108 H1075 0.930 . S
C1108 C1110 1.406 . S
C1108 C1113 1.261 . S
C1109 H1076 0.930 . S
C1109 N1111 1.325 . S
C1109 C1112 1.357 . S
C1110 H1078 0.928 . S
C1110 C1108 1.406 . S
C1110 N1111 1.261 . S
N1111 Co1062 2.214 . S
N1111 C1109 1.325 . S
N1111 C1110 1.261 . S
C1112 H1082 0.931 . S
C1112 C1109 1.357 . S
C1112 C1113 1.312 . S
C1113 H1084 0.930 . S
C1113 C1108 1.261 . S
C1113 C1112 1.312 . S
C1114 O1086 1.214 . S
C1114 O1094 1.234 . S
C1115 H1087 0.929 . S
C1115 C1118 1.391 . S
C1115 C1120 1.391 . S
C1116 H1088 0.929 . S
C1116 C1117 1.390 . S
C1116 N1119 1.391 . S
C1117 H1089 0.930 . S
C1117 C1116 1.390 . S
C1117 C1118 1.392 . S
C1118 H1090 0.929 . S
C1118 C1115 1.391 . S
C1118 C1117 1.392 . S
N1119 Co1063 2.257 . S
N1119 C1116 1.391 . S
N1119 C1120 1.388 . S
C1120 H1091 0.930 . S
C1120 C1115 1.391 . S
C1120 N1119 1.388 . S
Co1121 O1123 2.143 . S
Co1121 O1129 2.074 . S
Co1121 O1132 2.093 . S
Co1121 O1145 2.097 . S
Co1121 N1162 2.151 . S
Co1121 N1170 2.214 . S
Co1122 O1123 2.160 . S
Co1122 O1128 2.058 . S
Co1122 O1138 2.057 . S
Co1122 O1153 2.037 . S
Co1122 N1157 2.145 . S
Co1122 N1178 2.257 . S
O1123 Co1121 2.143 . S
O1123 Co1122 2.160 . S
C1124 O1125 1.278 . S
C1124 O1132 1.224 . S
O1125 C1124 1.278 . S
C1126 O1127 1.245 . S
C1126 O1138 1.232 . S
O1127 C1126 1.245 . S
O1128 Co1122 2.058 . S
O1128 C1154 1.269 . S
O1129 Co1121 2.074 . S
O1129 C1154 1.257 . S
H1130 C1155 0.930 . S
H1131 C1161 0.930 . S
O1132 Co1121 2.093 . S
O1132 C1124 1.224 . S
H1133 C1165 0.929 . S
H1134 C1167 0.930 . S
H1135 C1168 0.930 . S
H1136 C1166 0.929 . S
H1137 C1169 0.928 . S
O1138 Co1122 2.057 . S
O1138 C1126 1.232 . S
H1139 C1158 0.929 . S
H1140 C1159 0.929 . S
H1141 C1171 0.931 . S
H1142 C1163 0.929 . S
H1143 C1172 0.930 . S
H1144 C1164 0.931 . S
O1145 Co1121 2.097 . S
O1145 C1173 1.214 . S
H1146 C1174 0.929 . S
H1147 C1175 0.929 . S
H1148 C1176 0.930 . S
H1149 C1177 0.929 1_455 S
H1150 C1179 0.930 . S
H1151 C1156 0.930 . S
H1152 C1160 0.930 . S
O1153 Co1122 2.037 . S
O1153 C1173 1.234 . S
C1154 O1128 1.269 . S
C1154 O1129 1.257 . S
C1155 H1130 0.930 . S
C1155 C1158 1.388 . S
C1155 C1160 1.418 . S
C1156 H1151 0.930 . S
C1156 C1159 1.404 . S
C1156 C1160 1.353 . S
N1157 Co1122 2.145 . S
N1157 C1158 1.397 . S
N1157 C1159 1.334 . S
C1158 H1139 0.929 . S
C1158 C1155 1.388 . S
C1158 N1157 1.397 . S
C1159 H1140 0.929 . S
C1159 C1156 1.404 . S
C1159 N1157 1.334 . S
C1160 H1152 0.930 . S
C1160 C1155 1.418 . S
C1160 C1156 1.353 . S
C1161 H1131 0.930 . S
C1161 N1162 1.330 . S
C1161 C1163 1.446 . S
N1162 Co1121 2.151 . S
N1162 C1161 1.330 . S
N1162 C1166 1.418 . S
C1163 H1142 0.929 . S
C1163 C1161 1.446 . S
C1163 C1164 1.332 . S
C1164 H1144 0.931 . S
C1164 C1163 1.332 . S
C1164 C1165 1.267 . S
C1165 H1133 0.929 . S
C1165 C1164 1.267 . S
C1165 C1166 1.251 . S
C1166 H1136 0.929 . S
C1166 N1162 1.418 . S
C1166 C1165 1.251 . S
C1167 H1134 0.930 . S
C1167 C1169 1.406 . S
C1167 C1172 1.261 . S
C1168 H1135 0.930 . S
C1168 N1170 1.325 . S
C1168 C1171 1.357 . S
C1169 H1137 0.928 . S
C1169 C1167 1.406 . S
C1169 N1170 1.261 . S
N1170 Co1121 2.214 . S
N1170 C1168 1.325 . S
N1170 C1169 1.261 . S
C1171 H1141 0.931 . S
C1171 C1168 1.357 . S
C1171 C1172 1.312 . S
C1172 H1143 0.930 . S
C1172 C1167 1.261 . S
C1172 C1171 1.312 . S
C1173 O1145 1.214 . S
C1173 O1153 1.234 . S
C1174 H1146 0.929 . S
C1174 C1177 1.391 . S
C1174 C1179 1.391 . S
C1175 H1147 0.929 . S
C1175 C1176 1.390 . S
C1175 N1178 1.391 . S
C1176 H1148 0.930 . S
C1176 C1175 1.390 . S
C1176 C1177 1.392 . S
C1177 H1149 0.929 1_655 S
C1177 C1174 1.391 . S
C1177 C1176 1.392 . S
N1178 Co1122 2.257 . S
N1178 C1175 1.391 . S
N1178 C1179 1.388 . S
C1179 H1150 0.930 . S
C1179 C1174 1.391 . S
C1179 N1178 1.388 . S
Co1180 O1182 2.143 . S
Co1180 O1188 2.074 . S
Co1180 O1191 2.093 . S
Co1180 O1204 2.097 . S
Co1180 N1221 2.151 . S
Co1180 N1229 2.214 . S
Co1181 O1182 2.160 . S
Co1181 O1187 2.058 . S
Co1181 O1197 2.057 . S
Co1181 O1212 2.037 . S
Co1181 N1216 2.145 . S
Co1181 N1237 2.257 . S
O1182 Co1180 2.143 . S
O1182 Co1181 2.160 . S
C1183 O1184 1.278 . S
C1183 O1191 1.224 . S
O1184 C1183 1.278 . S
C1185 O1186 1.245 . S
C1185 O1197 1.232 . S
O1186 C1185 1.245 . S
O1187 Co1181 2.058 . S
O1187 C1213 1.269 . S
O1188 Co1180 2.074 . S
O1188 C1213 1.257 . S
H1189 C1214 0.930 . S
H1190 C1220 0.930 . S
O1191 Co1180 2.093 . S
O1191 C1183 1.224 . S
H1192 C1224 0.928 . S
H1193 C1226 0.930 . S
H1194 C1227 0.930 . S
H1195 C1225 0.929 . S
H1196 C1228 0.928 . S
O1197 Co1181 2.057 . S
O1197 C1185 1.232 . S
H1198 C1217 0.929 . S
H1199 C1218 0.929 . S
H1200 C1230 0.931 . S
H1201 C1222 0.929 . S
H1202 C1231 0.930 . S
H1203 C1223 0.931 . S
O1204 Co1180 2.097 . S
O1204 C1232 1.214 . S
H1205 C1233 0.929 . S
H1206 C1234 0.929 . S
H1207 C1235 0.930 . S
H1208 C1236 0.929 . S
H1209 C1238 0.930 . S
H1210 C1215 0.930 . S
H1211 C1219 0.930 . S
O1212 Co1181 2.037 . S
O1212 C1232 1.234 . S
C1213 O1187 1.269 . S
C1213 O1188 1.257 . S
C1214 H1189 0.930 . S
C1214 C1217 1.388 . S
C1214 C1219 1.418 . S
C1215 H1210 0.930 . S
C1215 C1218 1.404 . S
C1215 C1219 1.353 . S
N1216 Co1181 2.145 . S
N1216 C1217 1.397 . S
N1216 C1218 1.334 . S
C1217 H1198 0.929 . S
C1217 C1214 1.388 . S
C1217 N1216 1.397 . S
C1218 H1199 0.929 . S
C1218 C1215 1.404 . S
C1218 N1216 1.334 . S
C1219 H1211 0.930 . S
C1219 C1214 1.418 . S
C1219 C1215 1.353 . S
C1220 H1190 0.930 . S
C1220 N1221 1.330 . S
C1220 C1222 1.446 . S
N1221 Co1180 2.151 . S
N1221 C1220 1.330 . S
N1221 C1225 1.418 . S
C1222 H1201 0.929 . S
C1222 C1220 1.446 . S
C1222 C1223 1.332 . S
C1223 H1203 0.931 . S
C1223 C1222 1.332 . S
C1223 C1224 1.267 . S
C1224 H1192 0.928 . S
C1224 C1223 1.267 . S
C1224 C1225 1.251 . S
C1225 H1195 0.929 . S
C1225 N1221 1.418 . S
C1225 C1224 1.251 . S
C1226 H1193 0.930 . S
C1226 C1228 1.406 . S
C1226 C1231 1.261 . S
C1227 H1194 0.930 . S
C1227 N1229 1.325 . S
C1227 C1230 1.357 . S
C1228 H1196 0.928 . S
C1228 C1226 1.406 . S
C1228 N1229 1.261 . S
N1229 Co1180 2.214 . S
N1229 C1227 1.325 . S
N1229 C1228 1.261 . S
C1230 H1200 0.931 . S
C1230 C1227 1.357 . S
C1230 C1231 1.312 . S
C1231 H1202 0.930 . S
C1231 C1226 1.261 . S
C1231 C1230 1.312 . S
C1232 O1204 1.214 . S
C1232 O1212 1.234 . S
C1233 H1205 0.929 . S
C1233 C1236 1.391 . S
C1233 C1238 1.391 . S
C1234 H1206 0.929 . S
C1234 C1235 1.390 . S
C1234 N1237 1.391 . S
C1235 H1207 0.930 . S
C1235 C1234 1.390 . S
C1235 C1236 1.392 . S
C1236 H1208 0.929 . S
C1236 C1233 1.391 . S
C1236 C1235 1.392 . S
N1237 Co1181 2.257 . S
N1237 C1234 1.391 . S
N1237 C1238 1.388 . S
C1238 H1209 0.930 . S
C1238 C1233 1.391 . S
C1238 N1237 1.388 . S
Co1239 O1241 2.143 . S
Co1239 O1247 2.074 . S
Co1239 O1250 2.093 . S
Co1239 O1263 2.097 . S
Co1239 N1280 2.151 . S
Co1239 N1288 2.214 . S
Co1240 O1241 2.160 . S
Co1240 O1246 2.058 . S
Co1240 O1256 2.057 . S
Co1240 O1271 2.037 . S
Co1240 N1275 2.145 . S
Co1240 N1296 2.257 . S
O1241 Co1239 2.143 . S
O1241 Co1240 2.160 . S
C1242 O1243 1.278 . S
C1242 O1250 1.224 . S
O1243 C1242 1.278 . S
C1244 O1245 1.245 . S
C1244 O1256 1.232 . S
O1245 C1244 1.245 . S
O1246 Co1240 2.058 . S
O1246 C1272 1.269 . S
O1247 Co1239 2.074 . S
O1247 C1272 1.257 . S
H1248 C1273 0.930 . S
H1249 C1279 0.930 . S
O1250 Co1239 2.093 . S
O1250 C1242 1.224 . S
H1251 C1283 0.929 . S
H1252 C1285 0.930 . S
H1253 C1286 0.930 . S
H1254 C1284 0.929 . S
H1255 C1287 0.928 . S
O1256 Co1240 2.057 . S
O1256 C1244 1.232 . S
H1257 C1276 0.929 . S
H1258 C1277 0.929 . S
H1259 C1289 0.931 . S
H1260 C1281 0.929 . S
H1261 C1290 0.930 . S
H1262 C1282 0.931 . S
O1263 Co1239 2.097 . S
O1263 C1291 1.214 . S
H1264 C1292 0.929 . S
H1265 C1293 0.929 . S
H1266 C1294 0.930 . S
H1267 C1295 0.929 . S
H1268 C1297 0.930 . S
H1269 C1274 0.930 . S
H1270 C1278 0.930 . S
O1271 Co1240 2.037 . S
O1271 C1291 1.234 . S
C1272 O1246 1.269 . S
C1272 O1247 1.257 . S
C1273 H1248 0.930 . S
C1273 C1276 1.388 . S
C1273 C1278 1.418 . S
C1274 H1269 0.930 . S
C1274 C1277 1.404 . S
C1274 C1278 1.353 . S
N1275 Co1240 2.145 . S
N1275 C1276 1.397 . S
N1275 C1277 1.334 . S
C1276 H1257 0.929 . S
C1276 C1273 1.388 . S
C1276 N1275 1.397 . S
C1277 H1258 0.929 . S
C1277 C1274 1.404 . S
C1277 N1275 1.334 . S
C1278 H1270 0.930 . S
C1278 C1273 1.418 . S
C1278 C1274 1.353 . S
C1279 H1249 0.930 . S
C1279 N1280 1.330 . S
C1279 C1281 1.446 . S
N1280 Co1239 2.151 . S
N1280 C1279 1.330 . S
N1280 C1284 1.418 . S
C1281 H1260 0.929 . S
C1281 C1279 1.446 . S
C1281 C1282 1.332 . S
C1282 H1262 0.931 . S
C1282 C1281 1.332 . S
C1282 C1283 1.267 . S
C1283 H1251 0.929 . S
C1283 C1282 1.267 . S
C1283 C1284 1.251 . S
C1284 H1254 0.929 . S
C1284 N1280 1.418 . S
C1284 C1283 1.251 . S
C1285 H1252 0.930 . S
C1285 C1287 1.406 . S
C1285 C1290 1.261 . S
C1286 H1253 0.930 . S
C1286 N1288 1.325 . S
C1286 C1289 1.357 . S
C1287 H1255 0.928 . S
C1287 C1285 1.406 . S
C1287 N1288 1.261 . S
N1288 Co1239 2.214 . S
N1288 C1286 1.325 . S
N1288 C1287 1.261 . S
C1289 H1259 0.931 . S
C1289 C1286 1.357 . S
C1289 C1290 1.312 . S
C1290 H1261 0.930 . S
C1290 C1285 1.261 . S
C1290 C1289 1.312 . S
C1291 O1263 1.214 . S
C1291 O1271 1.234 . S
C1292 H1264 0.929 . S
C1292 C1295 1.391 . S
C1292 C1297 1.391 . S
C1293 H1265 0.929 . S
C1293 C1294 1.390 . S
C1293 N1296 1.391 . S
C1294 H1266 0.930 . S
C1294 C1293 1.390 . S
C1294 C1295 1.392 . S
C1295 H1267 0.929 . S
C1295 C1292 1.391 . S
C1295 C1294 1.392 . S
N1296 Co1240 2.257 . S
N1296 C1293 1.391 . S
N1296 C1297 1.388 . S
C1297 H1268 0.930 . S
C1297 C1292 1.391 . S
C1297 N1296 1.388 . S
Co1298 O1300 2.143 . S
Co1298 O1306 2.074 . S
Co1298 O1309 2.093 . S
Co1298 O1322 2.097 . S
Co1298 N1339 2.151 . S
Co1298 N1347 2.214 . S
Co1299 O1300 2.160 . S
Co1299 O1305 2.058 . S
Co1299 O1315 2.057 . S
Co1299 O1330 2.037 . S
Co1299 N1334 2.145 . S
Co1299 N1355 2.257 . S
O1300 Co1298 2.143 . S
O1300 Co1299 2.160 . S
C1301 O1302 1.278 . S
C1301 O1309 1.224 . S
O1302 C1301 1.278 . S
C1303 O1304 1.245 . S
C1303 O1315 1.232 . S
O1304 C1303 1.245 . S
O1305 Co1299 2.058 . S
O1305 C1331 1.269 . S
O1306 Co1298 2.074 . S
O1306 C1331 1.257 . S
H1307 C1332 0.930 . S
H1308 C1338 0.930 . S
O1309 Co1298 2.093 . S
O1309 C1301 1.224 . S
H1310 C1342 0.929 . S
H1311 C1344 0.930 . S
H1312 C1345 0.930 . S
H1313 C1343 0.929 . S
H1314 C1346 0.928 . S
O1315 Co1299 2.057 . S
O1315 C1303 1.232 . S
H1316 C1335 0.929 . S
H1317 C1336 0.929 . S
H1318 C1348 0.931 . S
H1319 C1340 0.929 . S
H1320 C1349 0.930 . S
H1321 C1341 0.931 . S
O1322 Co1298 2.097 . S
O1322 C1350 1.214 . S
H1323 C1351 0.929 . S
H1324 C1352 0.929 . S
H1325 C1353 0.930 . S
H1326 C1354 0.929 . S
H1327 C1356 0.930 . S
H1328 C1333 0.930 . S
H1329 C1337 0.930 . S
O1330 Co1299 2.037 . S
O1330 C1350 1.234 . S
C1331 O1305 1.269 . S
C1331 O1306 1.257 . S
C1332 H1307 0.930 . S
C1332 C1335 1.388 . S
C1332 C1337 1.418 . S
C1333 H1328 0.930 . S
C1333 C1336 1.404 . S
C1333 C1337 1.353 . S
N1334 Co1299 2.145 . S
N1334 C1335 1.397 . S
N1334 C1336 1.334 . S
C1335 H1316 0.929 . S
C1335 C1332 1.388 . S
C1335 N1334 1.397 . S
C1336 H1317 0.929 . S
C1336 C1333 1.404 . S
C1336 N1334 1.334 . S
C1337 H1329 0.930 . S
C1337 C1332 1.418 . S
C1337 C1333 1.353 . S
C1338 H1308 0.930 . S
C1338 N1339 1.330 . S
C1338 C1340 1.446 . S
N1339 Co1298 2.151 . S
N1339 C1338 1.330 . S
N1339 C1343 1.418 . S
C1340 H1319 0.929 . S
C1340 C1338 1.446 . S
C1340 C1341 1.332 . S
C1341 H1321 0.931 . S
C1341 C1340 1.332 . S
C1341 C1342 1.267 . S
C1342 H1310 0.929 . S
C1342 C1341 1.267 . S
C1342 C1343 1.251 . S
C1343 H1313 0.929 . S
C1343 N1339 1.418 . S
C1343 C1342 1.251 . S
C1344 H1311 0.930 . S
C1344 C1346 1.406 . S
C1344 C1349 1.261 . S
C1345 H1312 0.930 . S
C1345 N1347 1.325 . S
C1345 C1348 1.357 . S
C1346 H1314 0.928 . S
C1346 C1344 1.406 . S
C1346 N1347 1.261 . S
N1347 Co1298 2.214 . S
N1347 C1345 1.325 . S
N1347 C1346 1.261 . S
C1348 H1318 0.931 . S
C1348 C1345 1.357 . S
C1348 C1349 1.312 . S
C1349 H1320 0.930 . S
C1349 C1344 1.261 . S
C1349 C1348 1.312 . S
C1350 O1322 1.214 . S
C1350 O1330 1.234 . S
C1351 H1323 0.929 . S
C1351 C1354 1.391 . S
C1351 C1356 1.391 . S
C1352 H1324 0.929 . S
C1352 C1353 1.390 . S
C1352 N1355 1.391 . S
C1353 H1325 0.930 . S
C1353 C1352 1.390 . S
C1353 C1354 1.392 . S
C1354 H1326 0.929 . S
C1354 C1351 1.391 . S
C1354 C1353 1.392 . S
N1355 Co1299 2.257 . S
N1355 C1352 1.391 . S
N1355 C1356 1.388 . S
C1356 H1327 0.930 . S
C1356 C1351 1.391 . S
C1356 N1355 1.388 . S
Co1357 O1359 2.143 . S
Co1357 O1365 2.074 . S
Co1357 O1368 2.093 . S
Co1357 O1381 2.097 . S
Co1357 N1398 2.151 . S
Co1357 N1406 2.214 . S
Co1358 O1359 2.160 . S
Co1358 O1364 2.058 . S
Co1358 O1374 2.057 . S
Co1358 O1389 2.037 . S
Co1358 N1393 2.145 . S
Co1358 N1414 2.257 . S
O1359 Co1357 2.143 . S
O1359 Co1358 2.160 . S
C1360 O1361 1.278 . S
C1360 O1368 1.224 . S
O1361 C1360 1.278 . S
C1362 O1363 1.245 . S
C1362 O1374 1.232 . S
O1363 C1362 1.245 . S
O1364 Co1358 2.058 . S
O1364 C1390 1.269 . S
O1365 Co1357 2.074 . S
O1365 C1390 1.257 . S
H1366 C1391 0.930 . S
H1367 C1397 0.930 . S
O1368 Co1357 2.093 . S
O1368 C1360 1.224 . S
H1369 C1401 0.929 . S
H1370 C1403 0.930 . S
H1371 C1404 0.930 . S
H1372 C1402 0.929 . S
H1373 C1405 0.928 . S
O1374 Co1358 2.057 . S
O1374 C1362 1.232 . S
H1375 C1394 0.929 . S
H1376 C1395 0.929 . S
H1377 C1407 0.931 . S
H1378 C1399 0.929 . S
H1379 C1408 0.930 . S
H1380 C1400 0.931 . S
O1381 Co1357 2.097 . S
O1381 C1409 1.214 . S
H1382 C1410 0.929 . S
H1383 C1411 0.929 . S
H1384 C1412 0.930 . S
H1385 C1413 0.929 . S
H1386 C1415 0.930 . S
H1387 C1392 0.930 . S
H1388 C1396 0.930 . S
O1389 Co1358 2.037 . S
O1389 C1409 1.234 . S
C1390 O1364 1.269 . S
C1390 O1365 1.257 . S
C1391 H1366 0.930 . S
C1391 C1394 1.388 . S
C1391 C1396 1.418 . S
C1392 H1387 0.930 . S
C1392 C1395 1.404 . S
C1392 C1396 1.353 . S
N1393 Co1358 2.145 . S
N1393 C1394 1.397 . S
N1393 C1395 1.334 . S
C1394 H1375 0.929 . S
C1394 C1391 1.388 . S
C1394 N1393 1.397 . S
C1395 H1376 0.929 . S
C1395 C1392 1.404 . S
C1395 N1393 1.334 . S
C1396 H1388 0.930 . S
C1396 C1391 1.418 . S
C1396 C1392 1.353 . S
C1397 H1367 0.930 . S
C1397 N1398 1.330 . S
C1397 C1399 1.446 . S
N1398 Co1357 2.151 . S
N1398 C1397 1.330 . S
N1398 C1402 1.418 . S
C1399 H1378 0.929 . S
C1399 C1397 1.446 . S
C1399 C1400 1.332 . S
C1400 H1380 0.931 . S
C1400 C1399 1.332 . S
C1400 C1401 1.267 . S
C1401 H1369 0.929 . S
C1401 C1400 1.267 . S
C1401 C1402 1.251 . S
C1402 H1372 0.929 . S
C1402 N1398 1.418 . S
C1402 C1401 1.251 . S
C1403 H1370 0.930 . S
C1403 C1405 1.406 . S
C1403 C1408 1.261 . S
C1404 H1371 0.930 . S
C1404 N1406 1.325 . S
C1404 C1407 1.357 . S
C1405 H1373 0.928 . S
C1405 C1403 1.406 . S
C1405 N1406 1.261 . S
N1406 Co1357 2.214 . S
N1406 C1404 1.325 . S
N1406 C1405 1.261 . S
C1407 H1377 0.931 . S
C1407 C1404 1.357 . S
C1407 C1408 1.312 . S
C1408 H1379 0.930 . S
C1408 C1403 1.261 . S
C1408 C1407 1.312 . S
C1409 O1381 1.214 . S
C1409 O1389 1.234 . S
C1410 H1382 0.929 . S
C1410 C1413 1.391 . S
C1410 C1415 1.391 . S
C1411 H1383 0.929 . S
C1411 C1412 1.390 . S
C1411 N1414 1.391 . S
C1412 H1384 0.930 . S
C1412 C1411 1.390 . S
C1412 C1413 1.392 . S
C1413 H1385 0.929 . S
C1413 C1410 1.391 . S
C1413 C1412 1.392 . S
N1414 Co1358 2.257 . S
N1414 C1411 1.391 . S
N1414 C1415 1.388 . S
C1415 H1386 0.930 . S
C1415 C1410 1.391 . S
C1415 N1414 1.388 . S
Co1416 O1418 2.143 . S
Co1416 O1424 2.074 . S
Co1416 O1427 2.093 . S
Co1416 O1440 2.097 . S
Co1416 N1457 2.151 . S
Co1416 N1465 2.214 . S
Co1417 O1418 2.160 . S
Co1417 O1423 2.058 . S
Co1417 O1433 2.057 . S
Co1417 O1448 2.037 . S
Co1417 N1452 2.145 . S
Co1417 N1473 2.257 . S
O1418 Co1416 2.143 . S
O1418 Co1417 2.160 . S
C1419 O1420 1.278 . S
C1419 O1427 1.224 . S
O1420 C1419 1.278 . S
C1421 O1422 1.245 . S
C1421 O1433 1.232 . S
O1422 C1421 1.245 . S
O1423 Co1417 2.058 . S
O1423 C1449 1.269 . S
O1424 Co1416 2.074 . S
O1424 C1449 1.257 . S
H1425 C1450 0.930 . S
H1426 C1456 0.930 . S
O1427 Co1416 2.093 . S
O1427 C1419 1.224 . S
H1428 C1460 0.929 . S
H1429 C1462 0.930 . S
H1430 C1463 0.930 . S
H1431 C1461 0.929 . S
H1432 C1464 0.928 . S
O1433 Co1417 2.057 . S
O1433 C1421 1.232 . S
H1434 C1453 0.929 . S
H1435 C1454 0.929 . S
H1436 C1466 0.931 . S
H1437 C1458 0.929 . S
H1438 C1467 0.930 . S
H1439 C1459 0.931 . S
O1440 Co1416 2.097 . S
O1440 C1468 1.214 . S
H1441 C1469 0.929 . S
H1442 C1470 0.929 . S
H1443 C1471 0.930 . S
H1444 C1472 0.929 . S
H1445 C1474 0.930 . S
H1446 C1451 0.930 . S
H1447 C1455 0.930 . S
O1448 Co1417 2.037 . S
O1448 C1468 1.234 . S
C1449 O1423 1.269 . S
C1449 O1424 1.257 . S
C1450 H1425 0.930 . S
C1450 C1453 1.388 . S
C1450 C1455 1.418 . S
C1451 H1446 0.930 . S
C1451 C1454 1.404 . S
C1451 C1455 1.353 . S
N1452 Co1417 2.145 . S
N1452 C1453 1.397 . S
N1452 C1454 1.334 . S
C1453 H1434 0.929 . S
C1453 C1450 1.388 . S
C1453 N1452 1.397 . S
C1454 H1435 0.929 . S
C1454 C1451 1.404 . S
C1454 N1452 1.334 . S
C1455 H1447 0.930 . S
C1455 C1450 1.418 . S
C1455 C1451 1.353 . S
C1456 H1426 0.930 . S
C1456 N1457 1.330 . S
C1456 C1458 1.446 . S
N1457 Co1416 2.151 . S
N1457 C1456 1.330 . S
N1457 C1461 1.418 . S
C1458 H1437 0.929 . S
C1458 C1456 1.446 . S
C1458 C1459 1.332 . S
C1459 H1439 0.931 . S
C1459 C1458 1.332 . S
C1459 C1460 1.267 . S
C1460 H1428 0.929 . S
C1460 C1459 1.267 . S
C1460 C1461 1.251 . S
C1461 H1431 0.929 . S
C1461 N1457 1.418 . S
C1461 C1460 1.251 . S
C1462 H1429 0.930 . S
C1462 C1464 1.406 . S
C1462 C1467 1.261 . S
C1463 H1430 0.930 . S
C1463 N1465 1.325 . S
C1463 C1466 1.357 . S
C1464 H1432 0.928 . S
C1464 C1462 1.406 . S
C1464 N1465 1.261 . S
N1465 Co1416 2.214 . S
N1465 C1463 1.325 . S
N1465 C1464 1.261 . S
C1466 H1436 0.931 . S
C1466 C1463 1.357 . S
C1466 C1467 1.312 . S
C1467 H1438 0.930 . S
C1467 C1462 1.261 . S
C1467 C1466 1.312 . S
C1468 O1440 1.214 . S
C1468 O1448 1.234 . S
C1469 H1441 0.929 . S
C1469 C1472 1.391 . S
C1469 C1474 1.391 . S
C1470 H1442 0.929 . S
C1470 C1471 1.390 . S
C1470 N1473 1.391 . S
C1471 H1443 0.930 . S
C1471 C1470 1.390 . S
C1471 C1472 1.392 . S
C1472 H1444 0.929 . S
C1472 C1469 1.391 . S
C1472 C1471 1.392 . S
N1473 Co1417 2.257 . S
N1473 C1470 1.391 . S
N1473 C1474 1.388 . S
C1474 H1445 0.930 . S
C1474 C1469 1.391 . S
C1474 N1473 1.388 . S
Co1475 O1477 2.143 . S
Co1475 O1483 2.074 . S
Co1475 O1486 2.093 . S
Co1475 O1499 2.097 . S
Co1475 N1516 2.151 . S
Co1475 N1524 2.214 . S
Co1476 O1477 2.160 . S
Co1476 O1482 2.058 . S
Co1476 O1492 2.057 . S
Co1476 O1507 2.037 . S
Co1476 N1511 2.145 . S
Co1476 N1532 2.257 . S
O1477 Co1475 2.143 . S
O1477 Co1476 2.160 . S
C1478 O1479 1.278 . S
C1478 O1486 1.224 . S
O1479 C1478 1.278 . S
C1480 O1481 1.245 . S
C1480 O1492 1.232 . S
O1481 C1480 1.245 . S
O1482 Co1476 2.058 . S
O1482 C1508 1.269 . S
O1483 Co1475 2.074 . S
O1483 C1508 1.257 . S
H1484 C1509 0.930 . S
H1485 C1515 0.930 . S
O1486 Co1475 2.093 . S
O1486 C1478 1.224 . S
H1487 C1519 0.929 . S
H1488 C1521 0.930 . S
H1489 C1522 0.930 . S
H1490 C1520 0.929 . S
H1491 C1523 0.928 . S
O1492 Co1476 2.057 . S
O1492 C1480 1.232 . S
H1493 C1512 0.929 . S
H1494 C1513 0.929 . S
H1495 C1525 0.931 . S
H1496 C1517 0.929 . S
H1497 C1526 0.930 . S
H1498 C1518 0.931 . S
O1499 Co1475 2.097 . S
O1499 C1527 1.214 . S
H1500 C1528 0.929 . S
H1501 C1529 0.929 . S
H1502 C1530 0.930 . S
H1503 C1531 0.929 . S
H1504 C1533 0.930 . S
H1505 C1510 0.930 . S
H1506 C1514 0.930 . S
O1507 Co1476 2.037 . S
O1507 C1527 1.234 . S
C1508 O1482 1.269 . S
C1508 O1483 1.257 . S
C1509 H1484 0.930 . S
C1509 C1512 1.388 . S
C1509 C1514 1.418 . S
C1510 H1505 0.930 . S
C1510 C1513 1.404 . S
C1510 C1514 1.353 . S
N1511 Co1476 2.145 . S
N1511 C1512 1.397 . S
N1511 C1513 1.334 . S
C1512 H1493 0.929 . S
C1512 C1509 1.388 . S
C1512 N1511 1.397 . S
C1513 H1494 0.929 . S
C1513 C1510 1.404 . S
C1513 N1511 1.334 . S
C1514 H1506 0.930 . S
C1514 C1509 1.418 . S
C1514 C1510 1.353 . S
C1515 H1485 0.930 . S
C1515 N1516 1.330 . S
C1515 C1517 1.446 . S
N1516 Co1475 2.151 . S
N1516 C1515 1.330 . S
N1516 C1520 1.418 . S
C1517 H1496 0.929 . S
C1517 C1515 1.446 . S
C1517 C1518 1.332 . S
C1518 H1498 0.931 . S
C1518 C1517 1.332 . S
C1518 C1519 1.267 . S
C1519 H1487 0.929 . S
C1519 C1518 1.267 . S
C1519 C1520 1.251 . S
C1520 H1490 0.929 . S
C1520 N1516 1.418 . S
C1520 C1519 1.251 . S
C1521 H1488 0.930 . S
C1521 C1523 1.406 . S
C1521 C1526 1.261 . S
C1522 H1489 0.930 . S
C1522 N1524 1.325 . S
C1522 C1525 1.357 . S
C1523 H1491 0.928 . S
C1523 C1521 1.406 . S
C1523 N1524 1.261 . S
N1524 Co1475 2.214 . S
N1524 C1522 1.325 . S
N1524 C1523 1.261 . S
C1525 H1495 0.931 . S
C1525 C1522 1.357 . S
C1525 C1526 1.312 . S
C1526 H1497 0.930 . S
C1526 C1521 1.261 . S
C1526 C1525 1.312 . S
C1527 O1499 1.214 . S
C1527 O1507 1.234 . S
C1528 H1500 0.929 . S
C1528 C1531 1.391 . S
C1528 C1533 1.391 . S
C1529 H1501 0.929 . S
C1529 C1530 1.390 . S
C1529 N1532 1.391 . S
C1530 H1502 0.930 . S
C1530 C1529 1.390 . S
C1530 C1531 1.392 . S
C1531 H1503 0.929 . S
C1531 C1528 1.391 . S
C1531 C1530 1.392 . S
N1532 Co1476 2.257 . S
N1532 C1529 1.391 . S
N1532 C1533 1.388 . S
C1533 H1504 0.930 . S
C1533 C1528 1.391 . S
C1533 N1532 1.388 . S
Co1534 O1536 2.143 . S
Co1534 O1542 2.074 . S
Co1534 O1545 2.093 . S
Co1534 O1558 2.097 . S
Co1534 N1575 2.151 . S
Co1534 N1583 2.214 . S
Co1535 O1536 2.160 . S
Co1535 O1541 2.058 . S
Co1535 O1551 2.057 . S
Co1535 O1566 2.037 . S
Co1535 N1570 2.145 . S
Co1535 N1591 2.257 . S
O1536 Co1534 2.143 . S
O1536 Co1535 2.160 . S
C1537 O1538 1.278 . S
C1537 O1545 1.224 . S
O1538 C1537 1.278 . S
C1539 O1540 1.245 . S
C1539 O1551 1.232 . S
O1540 C1539 1.245 . S
O1541 Co1535 2.058 . S
O1541 C1567 1.269 . S
O1542 Co1534 2.074 . S
O1542 C1567 1.257 . S
H1543 C1568 0.930 . S
H1544 C1574 0.930 . S
O1545 Co1534 2.093 . S
O1545 C1537 1.224 . S
H1546 C1578 0.929 . S
H1547 C1580 0.930 . S
H1548 C1581 0.930 . S
H1549 C1579 0.929 . S
H1550 C1582 0.928 . S
O1551 Co1535 2.057 . S
O1551 C1539 1.232 . S
H1552 C1571 0.929 . S
H1553 C1572 0.929 . S
H1554 C1584 0.931 . S
H1555 C1576 0.929 . S
H1556 C1585 0.930 . S
H1557 C1577 0.931 . S
O1558 Co1534 2.097 . S
O1558 C1586 1.214 . S
H1559 C1587 0.929 . S
H1560 C1588 0.929 . S
H1561 C1589 0.930 . S
H1562 C1590 0.929 . S
H1563 C1592 0.930 . S
H1564 C1569 0.930 . S
H1565 C1573 0.930 . S
O1566 Co1535 2.037 . S
O1566 C1586 1.234 . S
C1567 O1541 1.269 . S
C1567 O1542 1.257 . S
C1568 H1543 0.930 . S
C1568 C1571 1.388 . S
C1568 C1573 1.418 . S
C1569 H1564 0.930 . S
C1569 C1572 1.404 . S
C1569 C1573 1.353 . S
N1570 Co1535 2.145 . S
N1570 C1571 1.397 . S
N1570 C1572 1.334 . S
C1571 H1552 0.929 . S
C1571 C1568 1.388 . S
C1571 N1570 1.397 . S
C1572 H1553 0.929 . S
C1572 C1569 1.404 . S
C1572 N1570 1.334 . S
C1573 H1565 0.930 . S
C1573 C1568 1.418 . S
C1573 C1569 1.353 . S
C1574 H1544 0.930 . S
C1574 N1575 1.330 . S
C1574 C1576 1.446 . S
N1575 Co1534 2.151 . S
N1575 C1574 1.330 . S
N1575 C1579 1.418 . S
C1576 H1555 0.929 . S
C1576 C1574 1.446 . S
C1576 C1577 1.332 . S
C1577 H1557 0.931 . S
C1577 C1576 1.332 . S
C1577 C1578 1.267 . S
C1578 H1546 0.929 . S
C1578 C1577 1.267 . S
C1578 C1579 1.251 . S
C1579 H1549 0.929 . S
C1579 N1575 1.418 . S
C1579 C1578 1.251 . S
C1580 H1547 0.930 . S
C1580 C1582 1.406 . S
C1580 C1585 1.261 . S
C1581 H1548 0.930 . S
C1581 N1583 1.325 . S
C1581 C1584 1.357 . S
C1582 H1550 0.928 . S
C1582 C1580 1.406 . S
C1582 N1583 1.261 . S
N1583 Co1534 2.214 . S
N1583 C1581 1.325 . S
N1583 C1582 1.261 . S
C1584 H1554 0.931 . S
C1584 C1581 1.357 . S
C1584 C1585 1.312 . S
C1585 H1556 0.930 . S
C1585 C1580 1.261 . S
C1585 C1584 1.312 . S
C1586 O1558 1.214 . S
C1586 O1566 1.234 . S
C1587 H1559 0.929 . S
C1587 C1590 1.391 . S
C1587 C1592 1.391 . S
C1588 H1560 0.929 . S
C1588 C1589 1.390 . S
C1588 N1591 1.391 . S
C1589 H1561 0.930 . S
C1589 C1588 1.390 . S
C1589 C1590 1.392 . S
C1590 H1562 0.929 . S
C1590 C1587 1.391 . S
C1590 C1589 1.392 . S
N1591 Co1535 2.257 . S
N1591 C1588 1.391 . S
N1591 C1592 1.388 . S
C1592 H1563 0.930 . S
C1592 C1587 1.391 . S
C1592 N1591 1.388 . S
Co1593 O1595 2.143 . S
Co1593 O1601 2.074 . S
Co1593 O1604 2.093 . S
Co1593 O1617 2.097 . S
Co1593 N1634 2.151 . S
Co1593 N1642 2.214 . S
Co1594 O1595 2.160 . S
Co1594 O1600 2.058 . S
Co1594 O1610 2.057 . S
Co1594 O1625 2.037 . S
Co1594 N1629 2.145 . S
Co1594 N1650 2.257 . S
O1595 Co1593 2.143 . S
O1595 Co1594 2.160 . S
C1596 O1597 1.278 . S
C1596 O1604 1.224 . S
O1597 C1596 1.278 . S
C1598 O1599 1.245 . S
C1598 O1610 1.232 . S
O1599 C1598 1.245 . S
O1600 Co1594 2.058 . S
O1600 C1626 1.269 . S
O1601 Co1593 2.074 . S
O1601 C1626 1.257 . S
H1602 C1627 0.930 . S
H1603 C1633 0.930 . S
O1604 Co1593 2.093 . S
O1604 C1596 1.224 . S
H1605 C1637 0.929 . S
H1606 C1639 0.930 . S
H1607 C1640 0.930 . S
H1608 C1638 0.929 . S
H1609 C1641 0.928 . S
O1610 Co1594 2.057 . S
O1610 C1598 1.232 . S
H1611 C1630 0.929 . S
H1612 C1631 0.929 . S
H1613 C1643 0.931 . S
H1614 C1635 0.929 . S
H1615 C1644 0.930 . S
H1616 C1636 0.931 . S
O1617 Co1593 2.097 . S
O1617 C1645 1.214 . S
H1618 C1646 0.929 . S
H1619 C1647 0.929 . S
H1620 C1648 0.930 . S
H1621 C1649 0.929 . S
H1622 C1651 0.930 . S
H1623 C1628 0.930 . S
H1624 C1632 0.930 . S
O1625 Co1594 2.037 . S
O1625 C1645 1.234 . S
C1626 O1600 1.269 . S
C1626 O1601 1.257 . S
C1627 H1602 0.930 . S
C1627 C1630 1.388 . S
C1627 C1632 1.418 . S
C1628 H1623 0.930 . S
C1628 C1631 1.404 . S
C1628 C1632 1.353 . S
N1629 Co1594 2.145 . S
N1629 C1630 1.397 . S
N1629 C1631 1.334 . S
C1630 H1611 0.929 . S
C1630 C1627 1.388 . S
C1630 N1629 1.397 . S
C1631 H1612 0.929 . S
C1631 C1628 1.404 . S
C1631 N1629 1.334 . S
C1632 H1624 0.930 . S
C1632 C1627 1.418 . S
C1632 C1628 1.353 . S
C1633 H1603 0.930 . S
C1633 N1634 1.330 . S
C1633 C1635 1.446 . S
N1634 Co1593 2.151 . S
N1634 C1633 1.330 . S
N1634 C1638 1.418 . S
C1635 H1614 0.929 . S
C1635 C1633 1.446 . S
C1635 C1636 1.332 . S
C1636 H1616 0.931 . S
C1636 C1635 1.332 . S
C1636 C1637 1.267 . S
C1637 H1605 0.929 . S
C1637 C1636 1.267 . S
C1637 C1638 1.251 . S
C1638 H1608 0.929 . S
C1638 N1634 1.418 . S
C1638 C1637 1.251 . S
C1639 H1606 0.930 . S
C1639 C1641 1.406 . S
C1639 C1644 1.261 . S
C1640 H1607 0.930 . S
C1640 N1642 1.325 . S
C1640 C1643 1.357 . S
C1641 H1609 0.928 . S
C1641 C1639 1.406 . S
C1641 N1642 1.261 . S
N1642 Co1593 2.214 . S
N1642 C1640 1.325 . S
N1642 C1641 1.261 . S
C1643 H1613 0.931 . S
C1643 C1640 1.357 . S
C1643 C1644 1.312 . S
C1644 H1615 0.930 . S
C1644 C1639 1.261 . S
C1644 C1643 1.312 . S
C1645 O1617 1.214 . S
C1645 O1625 1.234 . S
C1646 H1618 0.929 . S
C1646 C1649 1.391 . S
C1646 C1651 1.391 . S
C1647 H1619 0.929 . S
C1647 C1648 1.390 . S
C1647 N1650 1.391 . S
C1648 H1620 0.930 . S
C1648 C1647 1.390 . S
C1648 C1649 1.392 . S
C1649 H1621 0.929 . S
C1649 C1646 1.391 . S
C1649 C1648 1.392 . S
N1650 Co1594 2.257 . S
N1650 C1647 1.391 . S
N1650 C1651 1.388 . S
C1651 H1622 0.930 . S
C1651 C1646 1.391 . S
C1651 N1650 1.388 . S
Co1652 O1654 2.143 . S
Co1652 O1660 2.074 . S
Co1652 O1663 2.093 . S
Co1652 O1676 2.097 . S
Co1652 N1693 2.151 . S
Co1652 N1701 2.214 . S
Co1653 O1654 2.160 . S
Co1653 O1659 2.058 . S
Co1653 O1669 2.057 . S
Co1653 O1684 2.037 . S
Co1653 N1688 2.145 . S
Co1653 N1709 2.257 . S
O1654 Co1652 2.143 . S
O1654 Co1653 2.160 . S
C1655 O1656 1.278 . S
C1655 O1663 1.224 . S
O1656 C1655 1.278 . S
C1657 O1658 1.245 . S
C1657 O1669 1.232 . S
O1658 C1657 1.245 . S
O1659 Co1653 2.058 . S
O1659 C1685 1.269 . S
O1660 Co1652 2.074 . S
O1660 C1685 1.257 . S
H1661 C1686 0.930 . S
H1662 C1692 0.930 . S
O1663 Co1652 2.093 . S
O1663 C1655 1.224 . S
H1664 C1696 0.929 . S
H1665 C1698 0.930 1_565 S
H1666 C1699 0.930 . S
H1667 C1697 0.929 . S
H1668 C1700 0.928 . S
O1669 Co1653 2.057 . S
O1669 C1657 1.232 . S
H1670 C1689 0.929 . S
H1671 C1690 0.929 . S
H1672 C1702 0.931 . S
H1673 C1694 0.929 . S
H1674 C1703 0.930 . S
H1675 C1695 0.931 . S
O1676 Co1652 2.097 . S
O1676 C1704 1.214 . S
H1677 C1705 0.929 . S
H1678 C1706 0.929 . S
H1679 C1707 0.930 . S
H1680 C1708 0.929 . S
H1681 C1710 0.930 . S
H1682 C1687 0.930 . S
H1683 C1691 0.930 . S
O1684 Co1653 2.037 . S
O1684 C1704 1.234 . S
C1685 O1659 1.269 . S
C1685 O1660 1.257 . S
C1686 H1661 0.930 . S
C1686 C1689 1.388 . S
C1686 C1691 1.418 . S
C1687 H1682 0.930 . S
C1687 C1690 1.404 . S
C1687 C1691 1.353 . S
N1688 Co1653 2.145 . S
N1688 C1689 1.397 . S
N1688 C1690 1.334 . S
C1689 H1670 0.929 . S
C1689 C1686 1.388 . S
C1689 N1688 1.397 . S
C1690 H1671 0.929 . S
C1690 C1687 1.404 . S
C1690 N1688 1.334 . S
C1691 H1683 0.930 . S
C1691 C1686 1.418 . S
C1691 C1687 1.353 . S
C1692 H1662 0.930 . S
C1692 N1693 1.330 . S
C1692 C1694 1.446 . S
N1693 Co1652 2.151 . S
N1693 C1692 1.330 . S
N1693 C1697 1.418 . S
C1694 H1673 0.929 . S
C1694 C1692 1.446 . S
C1694 C1695 1.332 . S
C1695 H1675 0.931 . S
C1695 C1694 1.332 . S
C1695 C1696 1.267 . S
C1696 H1664 0.929 . S
C1696 C1695 1.267 . S
C1696 C1697 1.251 . S
C1697 H1667 0.929 . S
C1697 N1693 1.418 . S
C1697 C1696 1.251 . S
C1698 H1665 0.930 1_545 S
C1698 C1700 1.406 . S
C1698 C1703 1.261 1_545 S
C1699 H1666 0.930 . S
C1699 N1701 1.325 . S
C1699 C1702 1.357 . S
C1700 H1668 0.928 . S
C1700 C1698 1.406 . S
C1700 N1701 1.261 . S
N1701 Co1652 2.214 . S
N1701 C1699 1.325 . S
N1701 C1700 1.261 . S
C1702 H1672 0.931 . S
C1702 C1699 1.357 . S
C1702 C1703 1.312 1_545 S
C1703 H1674 0.930 . S
C1703 C1698 1.261 1_565 S
C1703 C1702 1.312 1_565 S
C1704 O1676 1.214 . S
C1704 O1684 1.234 . S
C1705 H1677 0.929 . S
C1705 C1708 1.391 . S
C1705 C1710 1.391 . S
C1706 H1678 0.929 . S
C1706 C1707 1.390 . S
C1706 N1709 1.391 . S
C1707 H1679 0.930 . S
C1707 C1706 1.390 . S
C1707 C1708 1.392 . S
C1708 H1680 0.929 . S
C1708 C1705 1.391 . S
C1708 C1707 1.392 . S
N1709 Co1653 2.257 . S
N1709 C1706 1.391 . S
N1709 C1710 1.388 . S
C1710 H1681 0.930 . S
C1710 C1705 1.391 . S
C1710 N1709 1.388 . S
Co1711 O1713 2.143 . S
Co1711 O1719 2.074 . S
Co1711 O1722 2.093 . S
Co1711 O1735 2.097 . S
Co1711 N1752 2.151 . S
Co1711 N1760 2.214 . S
Co1712 O1713 2.160 . S
Co1712 O1718 2.058 . S
Co1712 O1728 2.057 . S
Co1712 O1743 2.037 . S
Co1712 N1747 2.145 . S
Co1712 N1768 2.257 . S
O1713 Co1711 2.143 . S
O1713 Co1712 2.160 . S
C1714 O1715 1.278 . S
C1714 O1722 1.224 . S
O1715 C1714 1.278 . S
C1716 O1717 1.245 . S
C1716 O1728 1.232 . S
O1717 C1716 1.245 . S
O1718 Co1712 2.058 . S
O1718 C1744 1.269 . S
O1719 Co1711 2.074 . S
O1719 C1744 1.257 . S
H1720 C1745 0.930 . S
H1721 C1751 0.930 . S
O1722 Co1711 2.093 . S
O1722 C1714 1.224 . S
H1723 C1755 0.929 . S
H1724 C1757 0.930 . S
H1725 C1758 0.930 . S
H1726 C1756 0.929 . S
H1727 C1759 0.928 . S
O1728 Co1712 2.057 . S
O1728 C1716 1.232 . S
H1729 C1748 0.929 . S
H1730 C1749 0.929 . S
H1731 C1761 0.931 . S
H1732 C1753 0.929 . S
H1733 C1762 0.930 . S
H1734 C1754 0.931 . S
O1735 Co1711 2.097 . S
O1735 C1763 1.214 . S
H1736 C1764 0.929 . S
H1737 C1765 0.929 . S
H1738 C1766 0.930 . S
H1739 C1767 0.929 . S
H1740 C1769 0.930 . S
H1741 C1746 0.930 . S
H1742 C1750 0.930 . S
O1743 Co1712 2.037 . S
O1743 C1763 1.234 . S
C1744 O1718 1.269 . S
C1744 O1719 1.257 . S
C1745 H1720 0.930 . S
C1745 C1748 1.388 . S
C1745 C1750 1.418 . S
C1746 H1741 0.930 . S
C1746 C1749 1.404 . S
C1746 C1750 1.353 . S
N1747 Co1712 2.145 . S
N1747 C1748 1.397 . S
N1747 C1749 1.334 . S
C1748 H1729 0.929 . S
C1748 C1745 1.388 . S
C1748 N1747 1.397 . S
C1749 H1730 0.929 . S
C1749 C1746 1.404 . S
C1749 N1747 1.334 . S
C1750 H1742 0.930 . S
C1750 C1745 1.418 . S
C1750 C1746 1.353 . S
C1751 H1721 0.930 . S
C1751 N1752 1.330 . S
C1751 C1753 1.446 . S
N1752 Co1711 2.151 . S
N1752 C1751 1.330 . S
N1752 C1756 1.418 . S
C1753 H1732 0.929 . S
C1753 C1751 1.446 . S
C1753 C1754 1.332 . S
C1754 H1734 0.931 . S
C1754 C1753 1.332 . S
C1754 C1755 1.267 . S
C1755 H1723 0.929 . S
C1755 C1754 1.267 . S
C1755 C1756 1.251 . S
C1756 H1726 0.929 . S
C1756 N1752 1.418 . S
C1756 C1755 1.251 . S
C1757 H1724 0.930 . S
C1757 C1759 1.406 . S
C1757 C1762 1.261 . S
C1758 H1725 0.930 . S
C1758 N1760 1.325 . S
C1758 C1761 1.357 . S
C1759 H1727 0.928 . S
C1759 C1757 1.406 . S
C1759 N1760 1.261 . S
N1760 Co1711 2.214 . S
N1760 C1758 1.325 . S
N1760 C1759 1.261 . S
C1761 H1731 0.931 . S
C1761 C1758 1.357 . S
C1761 C1762 1.312 . S
C1762 H1733 0.930 . S
C1762 C1757 1.261 . S
C1762 C1761 1.312 . S
C1763 O1735 1.214 . S
C1763 O1743 1.234 . S
C1764 H1736 0.929 . S
C1764 C1767 1.391 . S
C1764 C1769 1.391 . S
C1765 H1737 0.929 . S
C1765 C1766 1.390 . S
C1765 N1768 1.391 . S
C1766 H1738 0.930 . S
C1766 C1765 1.390 . S
C1766 C1767 1.392 . S
C1767 H1739 0.929 . S
C1767 C1764 1.391 . S
C1767 C1766 1.392 . S
N1768 Co1712 2.257 . S
N1768 C1765 1.391 . S
N1768 C1769 1.388 . S
C1769 H1740 0.930 . S
C1769 C1764 1.391 . S
C1769 N1768 1.388 . S
Co1770 O1772 2.143 . S
Co1770 O1778 2.074 . S
Co1770 O1781 2.093 . S
Co1770 O1794 2.097 . S
Co1770 N1811 2.151 . S
Co1770 N1819 2.214 . S
Co1771 O1772 2.160 . S
Co1771 O1777 2.058 . S
Co1771 O1787 2.057 . S
Co1771 O1802 2.037 . S
Co1771 N1806 2.145 . S
Co1771 N1827 2.257 . S
O1772 Co1770 2.143 . S
O1772 Co1771 2.160 . S
C1773 O1774 1.278 . S
C1773 O1781 1.224 . S
O1774 C1773 1.278 . S
C1775 O1776 1.245 . S
C1775 O1787 1.232 . S
O1776 C1775 1.245 . S
O1777 Co1771 2.058 . S
O1777 C1803 1.269 . S
O1778 Co1770 2.074 . S
O1778 C1803 1.257 . S
H1779 C1804 0.930 . S
H1780 C1810 0.930 . S
O1781 Co1770 2.093 . S
O1781 C1773 1.224 . S
H1782 C1814 0.929 . S
H1783 C1816 0.930 . S
H1784 C1817 0.930 . S
H1785 C1815 0.929 . S
H1786 C1818 0.928 . S
O1787 Co1771 2.057 . S
O1787 C1775 1.232 . S
H1788 C1807 0.929 . S
H1789 C1808 0.929 . S
H1790 C1820 0.937 . S
H1791 C1812 0.929 . S
H1792 C1821 0.930 . S
H1793 C1813 0.931 . S
O1794 Co1770 2.097 . S
O1794 C1822 1.214 . S
H1795 C1823 0.929 . S
H1796 C1824 0.929 . S
H1797 C1825 0.930 . S
H1798 C1826 0.929 . S
H1799 C1828 0.930 . S
H1800 C1805 0.930 . S
H1801 C1809 0.930 . S
O1802 Co1771 2.037 . S
O1802 C1822 1.234 . S
C1803 O1777 1.269 . S
C1803 O1778 1.257 . S
C1804 H1779 0.930 . S
C1804 C1807 1.388 . S
C1804 C1809 1.418 . S
C1805 H1800 0.930 . S
C1805 C1808 1.404 . S
C1805 C1809 1.353 . S
N1806 Co1771 2.145 . S
N1806 C1807 1.397 . S
N1806 C1808 1.334 . S
C1807 H1788 0.929 . S
C1807 C1804 1.388 . S
C1807 N1806 1.397 . S
C1808 H1789 0.929 . S
C1808 C1805 1.404 . S
C1808 N1806 1.334 . S
C1809 H1801 0.930 . S
C1809 C1804 1.418 . S
C1809 C1805 1.353 . S
C1810 H1780 0.930 . S
C1810 N1811 1.330 . S
C1810 C1812 1.446 . S
N1811 Co1770 2.151 . S
N1811 C1810 1.330 . S
N1811 C1815 1.418 . S
C1812 H1791 0.929 . S
C1812 C1810 1.446 . S
C1812 C1813 1.332 . S
C1813 H1793 0.931 . S
C1813 C1812 1.332 . S
C1813 C1814 1.267 . S
C1814 H1782 0.929 . S
C1814 C1813 1.267 . S
C1814 C1815 1.251 . S
C1815 H1785 0.929 . S
C1815 N1811 1.418 . S
C1815 C1814 1.251 . S
C1816 H1783 0.930 . S
C1816 C1818 1.406 1_545 S
C1816 C1821 1.261 . S
C1817 H1784 0.930 . S
C1817 N1819 1.325 . S
C1817 C1820 1.357 . S
C1818 H1786 0.928 . S
C1818 C1816 1.406 1_565 S
C1818 N1819 1.261 . S
N1819 Co1770 2.214 . S
N1819 C1817 1.325 . S
N1819 C1818 1.261 . S
C1820 H1790 0.937 . S
C1820 C1817 1.357 . S
C1820 C1821 1.312 1_565 S
C1821 H1792 0.930 . S
C1821 C1816 1.261 . S
C1821 C1820 1.312 1_545 S
C1822 O1794 1.214 . S
C1822 O1802 1.234 . S
C1823 H1795 0.929 . S
C1823 C1826 1.391 . S
C1823 C1828 1.391 . S
C1824 H1796 0.929 . S
C1824 C1825 1.390 . S
C1824 N1827 1.391 . S
C1825 H1797 0.930 . S
C1825 C1824 1.390 . S
C1825 C1826 1.392 . S
C1826 H1798 0.929 . S
C1826 C1823 1.391 . S
C1826 C1825 1.392 . S
N1827 Co1771 2.257 . S
N1827 C1824 1.391 . S
N1827 C1828 1.388 . S
C1828 H1799 0.930 . S
C1828 C1823 1.391 . S
C1828 N1827 1.388 . S
Co1829 O1831 2.143 . S
Co1829 O1837 2.074 . S
Co1829 O1840 2.093 . S
Co1829 O1853 2.097 . S
Co1829 N1870 2.151 . S
Co1829 N1878 2.214 . S
Co1830 O1831 2.160 . S
Co1830 O1836 2.058 . S
Co1830 O1846 2.057 . S
Co1830 O1861 2.037 . S
Co1830 N1865 2.145 . S
Co1830 N1886 2.257 . S
O1831 Co1829 2.143 . S
O1831 Co1830 2.160 . S
C1832 O1833 1.278 . S
C1832 O1840 1.224 . S
O1833 C1832 1.278 . S
C1834 O1835 1.245 . S
C1834 O1846 1.232 . S
O1835 C1834 1.245 . S
O1836 Co1830 2.058 . S
O1836 C1862 1.269 . S
O1837 Co1829 2.074 . S
O1837 C1862 1.257 . S
H1838 C1863 0.930 . S
H1839 C1869 0.930 . S
O1840 Co1829 2.093 . S
O1840 C1832 1.224 . S
H1841 C1873 0.929 . S
H1842 C1875 0.930 . S
H1843 C1876 0.930 . S
H1844 C1874 0.929 . S
H1845 C1877 0.928 . S
O1846 Co1830 2.057 . S
O1846 C1834 1.232 . S
H1847 C1866 0.929 . S
H1848 C1867 0.929 . S
H1849 C1879 0.931 . S
H1850 C1871 0.929 . S
H1851 C1880 0.930 . S
H1852 C1872 0.931 . S
O1853 Co1829 2.097 . S
O1853 C1881 1.214 . S
H1854 C1882 0.929 . S
H1855 C1883 0.929 . S
H1856 C1884 0.930 . S
H1857 C1885 0.929 . S
H1858 C1887 0.930 . S
H1859 C1864 0.930 . S
H1860 C1868 0.930 . S
O1861 Co1830 2.037 . S
O1861 C1881 1.234 . S
C1862 O1836 1.269 . S
C1862 O1837 1.257 . S
C1863 H1838 0.930 . S
C1863 C1866 1.388 . S
C1863 C1868 1.418 . S
C1864 H1859 0.930 . S
C1864 C1867 1.404 . S
C1864 C1868 1.353 . S
N1865 Co1830 2.145 . S
N1865 C1866 1.397 . S
N1865 C1867 1.334 . S
C1866 H1847 0.929 . S
C1866 C1863 1.388 . S
C1866 N1865 1.397 . S
C1867 H1848 0.929 . S
C1867 C1864 1.404 . S
C1867 N1865 1.334 . S
C1868 H1860 0.930 . S
C1868 C1863 1.418 . S
C1868 C1864 1.353 . S
C1869 H1839 0.930 . S
C1869 N1870 1.330 . S
C1869 C1871 1.446 . S
N1870 Co1829 2.151 . S
N1870 C1869 1.330 . S
N1870 C1874 1.418 . S
C1871 H1850 0.929 . S
C1871 C1869 1.446 . S
C1871 C1872 1.332 . S
C1872 H1852 0.931 . S
C1872 C1871 1.332 . S
C1872 C1873 1.267 . S
C1873 H1841 0.929 . S
C1873 C1872 1.267 . S
C1873 C1874 1.251 . S
C1874 H1844 0.929 . S
C1874 N1870 1.418 . S
C1874 C1873 1.251 . S
C1875 H1842 0.930 . S
C1875 C1877 1.406 . S
C1875 C1880 1.261 . S
C1876 H1843 0.930 . S
C1876 N1878 1.325 . S
C1876 C1879 1.357 . S
C1877 H1845 0.928 . S
C1877 C1875 1.406 . S
C1877 N1878 1.261 . S
N1878 Co1829 2.214 . S
N1878 C1876 1.325 . S
N1878 C1877 1.261 . S
C1879 H1849 0.931 . S
C1879 C1876 1.357 . S
C1879 C1880 1.312 . S
C1880 H1851 0.930 . S
C1880 C1875 1.261 . S
C1880 C1879 1.312 . S
C1881 O1853 1.214 . S
C1881 O1861 1.234 . S
C1882 H1854 0.929 . S
C1882 C1885 1.391 . S
C1882 C1887 1.391 . S
C1883 H1855 0.929 . S
C1883 C1884 1.390 . S
C1883 N1886 1.391 . S
C1884 H1856 0.930 . S
C1884 C1883 1.390 . S
C1884 C1885 1.392 . S
C1885 H1857 0.929 . S
C1885 C1882 1.391 . S
C1885 C1884 1.392 . S
N1886 Co1830 2.257 . S
N1886 C1883 1.391 . S
N1886 C1887 1.388 . S
C1887 H1858 0.930 . S
C1887 C1882 1.391 . S
C1887 N1886 1.388 . S
Co1888 O1890 2.143 . S
Co1888 O1896 2.074 . S
Co1888 O1899 2.093 . S
Co1888 O1912 2.097 . S
Co1888 N1929 2.151 . S
Co1888 N1937 2.214 . S
Co1889 O1890 2.160 . S
Co1889 O1895 2.058 . S
Co1889 O1905 2.057 . S
Co1889 O1920 2.037 . S
Co1889 N1924 2.145 . S
Co1889 N1945 2.257 . S
O1890 Co1888 2.143 . S
O1890 Co1889 2.160 . S
C1891 O1892 1.278 . S
C1891 O1899 1.224 . S
O1892 C1891 1.278 . S
C1893 O1894 1.245 . S
C1893 O1905 1.232 . S
O1894 C1893 1.245 . S
O1895 Co1889 2.058 . S
O1895 C1921 1.269 . S
O1896 Co1888 2.074 . S
O1896 C1921 1.257 . S
H1897 C1922 0.930 . S
H1898 C1928 0.930 . S
O1899 Co1888 2.093 . S
O1899 C1891 1.224 . S
H1900 C1932 0.929 . S
H1901 C1934 0.930 . S
H1902 C1935 0.930 . S
H1903 C1933 0.929 . S
H1904 C1936 0.928 . S
O1905 Co1889 2.057 . S
O1905 C1893 1.232 . S
H1906 C1925 0.929 . S
H1907 C1926 0.929 . S
H1908 C1938 0.931 . S
H1909 C1930 0.929 . S
H1910 C1939 0.930 . S
H1911 C1931 0.931 . S
O1912 Co1888 2.097 . S
O1912 C1940 1.214 . S
H1913 C1941 0.929 . S
H1914 C1942 0.929 . S
H1915 C1943 0.930 . S
H1916 C1944 0.929 . S
H1917 C1946 0.930 . S
H1918 C1923 0.930 . S
H1919 C1927 0.930 . S
O1920 Co1889 2.037 . S
O1920 C1940 1.234 . S
C1921 O1895 1.269 . S
C1921 O1896 1.257 . S
C1922 H1897 0.930 . S
C1922 C1925 1.388 . S
C1922 C1927 1.418 . S
C1923 H1918 0.930 . S
C1923 C1926 1.404 . S
C1923 C1927 1.353 . S
N1924 Co1889 2.145 . S
N1924 C1925 1.397 . S
N1924 C1926 1.334 . S
C1925 H1906 0.929 . S
C1925 C1922 1.388 . S
C1925 N1924 1.397 . S
C1926 H1907 0.929 . S
C1926 C1923 1.404 . S
C1926 N1924 1.334 . S
C1927 H1919 0.930 . S
C1927 C1922 1.418 . S
C1927 C1923 1.353 . S
C1928 H1898 0.930 . S
C1928 N1929 1.330 . S
C1928 C1930 1.446 . S
N1929 Co1888 2.151 . S
N1929 C1928 1.330 . S
N1929 C1933 1.418 . S
C1930 H1909 0.929 . S
C1930 C1928 1.446 . S
C1930 C1931 1.332 . S
C1931 H1911 0.931 . S
C1931 C1930 1.332 . S
C1931 C1932 1.267 . S
C1932 H1900 0.929 . S
C1932 C1931 1.267 . S
C1932 C1933 1.251 . S
C1933 H1903 0.929 . S
C1933 N1929 1.418 . S
C1933 C1932 1.251 . S
C1934 H1901 0.930 . S
C1934 C1936 1.406 . S
C1934 C1939 1.261 . S
C1935 H1902 0.930 . S
C1935 N1937 1.325 . S
C1935 C1938 1.357 . S
C1936 H1904 0.928 . S
C1936 C1934 1.406 . S
C1936 N1937 1.261 . S
N1937 Co1888 2.214 . S
N1937 C1935 1.325 . S
N1937 C1936 1.261 . S
C1938 H1908 0.931 . S
C1938 C1935 1.357 . S
C1938 C1939 1.312 . S
C1939 H1910 0.930 . S
C1939 C1934 1.261 . S
C1939 C1938 1.312 . S
C1940 O1912 1.214 . S
C1940 O1920 1.234 . S
C1941 H1913 0.929 . S
C1941 C1944 1.391 . S
C1941 C1946 1.391 . S
C1942 H1914 0.929 . S
C1942 C1943 1.390 . S
C1942 N1945 1.391 . S
C1943 H1915 0.930 . S
C1943 C1942 1.390 . S
C1943 C1944 1.392 . S
C1944 H1916 0.929 . S
C1944 C1941 1.391 . S
C1944 C1943 1.392 . S
N1945 Co1889 2.257 . S
N1945 C1942 1.391 . S
N1945 C1946 1.388 . S
C1946 H1917 0.930 . S
C1946 C1941 1.391 . S
C1946 N1945 1.388 . S
Co1947 O1949 2.143 . S
Co1947 O1955 2.074 . S
Co1947 O1958 2.093 . S
Co1947 O1971 2.097 . S
Co1947 N1988 2.151 . S
Co1947 N1996 2.214 . S
Co1948 O1949 2.160 . S
Co1948 O1954 2.058 . S
Co1948 O1964 2.057 . S
Co1948 O1979 2.037 . S
Co1948 N1983 2.145 . S
Co1948 N2004 2.257 . S
O1949 Co1947 2.143 . S
O1949 Co1948 2.160 . S
C1950 O1951 1.278 . S
C1950 O1958 1.224 . S
O1951 C1950 1.278 . S
C1952 O1953 1.245 . S
C1952 O1964 1.232 . S
O1953 C1952 1.245 . S
O1954 Co1948 2.058 . S
O1954 C1980 1.269 . S
O1955 Co1947 2.074 . S
O1955 C1980 1.257 . S
H1956 C1981 0.930 . S
H1957 C1987 0.930 . S
O1958 Co1947 2.093 . S
O1958 C1950 1.224 . S
H1959 C1991 0.929 . S
H1960 C1993 0.930 . S
H1961 C1994 0.930 . S
H1962 C1992 0.929 . S
H1963 C1995 0.928 . S
O1964 Co1948 2.057 . S
O1964 C1952 1.232 . S
H1965 C1984 0.929 . S
H1966 C1985 0.929 . S
H1967 C1997 0.931 . S
H1968 C1989 0.929 . S
H1969 C1998 0.930 . S
H1970 C1990 0.931 . S
O1971 Co1947 2.097 . S
O1971 C1999 1.214 . S
H1972 C2000 0.929 . S
H1973 C2001 0.929 . S
H1974 C2002 0.930 . S
H1975 C2003 0.929 . S
H1976 C2005 0.930 . S
H1977 C1982 0.930 . S
H1978 C1986 0.930 . S
O1979 Co1948 2.037 . S
O1979 C1999 1.234 . S
C1980 O1954 1.269 . S
C1980 O1955 1.257 . S
C1981 H1956 0.930 . S
C1981 C1984 1.388 . S
C1981 C1986 1.418 . S
C1982 H1977 0.930 . S
C1982 C1985 1.404 . S
C1982 C1986 1.353 . S
N1983 Co1948 2.145 . S
N1983 C1984 1.397 . S
N1983 C1985 1.334 . S
C1984 H1965 0.929 . S
C1984 C1981 1.388 . S
C1984 N1983 1.397 . S
C1985 H1966 0.929 . S
C1985 C1982 1.404 . S
C1985 N1983 1.334 . S
C1986 H1978 0.930 . S
C1986 C1981 1.418 . S
C1986 C1982 1.353 . S
C1987 H1957 0.930 . S
C1987 N1988 1.330 . S
C1987 C1989 1.446 . S
N1988 Co1947 2.151 . S
N1988 C1987 1.330 . S
N1988 C1992 1.418 . S
C1989 H1968 0.929 . S
C1989 C1987 1.446 . S
C1989 C1990 1.332 . S
C1990 H1970 0.931 . S
C1990 C1989 1.332 . S
C1990 C1991 1.267 . S
C1991 H1959 0.929 . S
C1991 C1990 1.267 . S
C1991 C1992 1.251 . S
C1992 H1962 0.929 . S
C1992 N1988 1.418 . S
C1992 C1991 1.251 . S
C1993 H1960 0.930 . S
C1993 C1995 1.406 . S
C1993 C1998 1.261 . S
C1994 H1961 0.930 . S
C1994 N1996 1.325 . S
C1994 C1997 1.357 . S
C1995 H1963 0.928 . S
C1995 C1993 1.406 . S
C1995 N1996 1.261 . S
N1996 Co1947 2.214 . S
N1996 C1994 1.325 . S
N1996 C1995 1.261 . S
C1997 H1967 0.931 . S
C1997 C1994 1.357 . S
C1997 C1998 1.312 . S
C1998 H1969 0.930 . S
C1998 C1993 1.261 . S
C1998 C1997 1.312 . S
C1999 O1971 1.214 . S
C1999 O1979 1.234 . S
C2000 H1972 0.929 . S
C2000 C2003 1.391 . S
C2000 C2005 1.391 . S
C2001 H1973 0.929 . S
C2001 C2002 1.390 . S
C2001 N2004 1.391 . S
C2002 H1974 0.930 . S
C2002 C2001 1.390 . S
C2002 C2003 1.392 . S
C2003 H1975 0.929 . S
C2003 C2000 1.391 . S
C2003 C2002 1.392 . S
N2004 Co1948 2.257 . S
N2004 C2001 1.391 . S
N2004 C2005 1.388 . S
C2005 H1976 0.930 . S
C2005 C2000 1.391 . S
C2005 N2004 1.388 . S
Co2006 O2008 2.143 . S
Co2006 O2014 2.074 . S
Co2006 O2017 2.093 . S
Co2006 O2030 2.097 . S
Co2006 N2047 2.151 . S
Co2006 N2055 2.214 . S
Co2007 O2008 2.160 . S
Co2007 O2013 2.058 . S
Co2007 O2023 2.057 . S
Co2007 O2038 2.037 . S
Co2007 N2042 2.145 . S
Co2007 N2063 2.257 . S
O2008 Co2006 2.143 . S
O2008 Co2007 2.160 . S
C2009 O2010 1.278 . S
C2009 O2017 1.224 . S
O2010 C2009 1.278 . S
C2011 O2012 1.245 . S
C2011 O2023 1.232 . S
O2012 C2011 1.245 . S
O2013 Co2007 2.058 . S
O2013 C2039 1.269 . S
O2014 Co2006 2.074 . S
O2014 C2039 1.257 . S
H2015 C2040 0.930 . S
H2016 C2046 0.930 . S
O2017 Co2006 2.093 . S
O2017 C2009 1.224 . S
H2018 C2050 0.929 . S
H2019 C2052 0.930 . S
H2020 C2053 0.930 . S
H2021 C2051 0.929 . S
H2022 C2054 0.928 . S
O2023 Co2007 2.057 . S
O2023 C2011 1.232 . S
H2024 C2043 0.929 . S
H2025 C2044 0.929 . S
H2026 C2056 0.931 . S
H2027 C2048 0.929 . S
H2028 C2057 0.930 . S
H2029 C2049 0.931 . S
O2030 Co2006 2.097 . S
O2030 C2058 1.214 . S
H2031 C2059 0.929 . S
H2032 C2060 0.929 . S
H2033 C2061 0.930 . S
H2034 C2062 0.929 . S
H2035 C2064 0.930 . S
H2036 C2041 0.930 . S
H2037 C2045 0.930 . S
O2038 Co2007 2.037 . S
O2038 C2058 1.234 . S
C2039 O2013 1.269 . S
C2039 O2014 1.257 . S
C2040 H2015 0.930 . S
C2040 C2043 1.388 . S
C2040 C2045 1.418 . S
C2041 H2036 0.930 . S
C2041 C2044 1.404 . S
C2041 C2045 1.353 . S
N2042 Co2007 2.145 . S
N2042 C2043 1.397 . S
N2042 C2044 1.334 . S
C2043 H2024 0.929 . S
C2043 C2040 1.388 . S
C2043 N2042 1.397 . S
C2044 H2025 0.929 . S
C2044 C2041 1.404 . S
C2044 N2042 1.334 . S
C2045 H2037 0.930 . S
C2045 C2040 1.418 . S
C2045 C2041 1.353 . S
C2046 H2016 0.930 . S
C2046 N2047 1.330 . S
C2046 C2048 1.446 . S
N2047 Co2006 2.151 . S
N2047 C2046 1.330 . S
N2047 C2051 1.418 . S
C2048 H2027 0.929 . S
C2048 C2046 1.446 . S
C2048 C2049 1.332 . S
C2049 H2029 0.931 . S
C2049 C2048 1.332 . S
C2049 C2050 1.267 . S
C2050 H2018 0.929 . S
C2050 C2049 1.267 . S
C2050 C2051 1.251 . S
C2051 H2021 0.929 . S
C2051 N2047 1.418 . S
C2051 C2050 1.251 . S
C2052 H2019 0.930 . S
C2052 C2054 1.406 . S
C2052 C2057 1.261 . S
C2053 H2020 0.930 . S
C2053 N2055 1.325 . S
C2053 C2056 1.357 . S
C2054 H2022 0.928 . S
C2054 C2052 1.406 . S
C2054 N2055 1.261 . S
N2055 Co2006 2.214 . S
N2055 C2053 1.325 . S
N2055 C2054 1.261 . S
C2056 H2026 0.931 . S
C2056 C2053 1.357 . S
C2056 C2057 1.312 . S
C2057 H2028 0.930 . S
C2057 C2052 1.261 . S
C2057 C2056 1.312 . S
C2058 O2030 1.214 . S
C2058 O2038 1.234 . S
C2059 H2031 0.929 . S
C2059 C2062 1.391 . S
C2059 C2064 1.391 . S
C2060 H2032 0.929 . S
C2060 C2061 1.390 . S
C2060 N2063 1.391 . S
C2061 H2033 0.930 . S
C2061 C2060 1.390 . S
C2061 C2062 1.392 . S
C2062 H2034 0.929 . S
C2062 C2059 1.391 . S
C2062 C2061 1.392 . S
N2063 Co2007 2.257 . S
N2063 C2060 1.391 . S
N2063 C2064 1.388 . S
C2064 H2035 0.930 . S
C2064 C2059 1.391 . S
C2064 N2063 1.388 . S
Co2065 O2067 2.143 . S
Co2065 O2073 2.074 . S
Co2065 O2076 2.093 . S
Co2065 O2089 2.097 . S
Co2065 N2106 2.151 . S
Co2065 N2114 2.214 . S
Co2066 O2067 2.160 . S
Co2066 O2072 2.058 . S
Co2066 O2082 2.057 . S
Co2066 O2097 2.037 . S
Co2066 N2101 2.145 . S
Co2066 N2122 2.257 . S
O2067 Co2065 2.143 . S
O2067 Co2066 2.160 . S
C2068 O2069 1.278 . S
C2068 O2076 1.224 . S
O2069 C2068 1.278 . S
C2070 O2071 1.245 . S
C2070 O2082 1.232 . S
O2071 C2070 1.245 . S
O2072 Co2066 2.058 . S
O2072 C2098 1.269 . S
O2073 Co2065 2.074 . S
O2073 C2098 1.257 . S
H2074 C2099 0.930 . S
H2075 C2105 0.930 . S
O2076 Co2065 2.093 . S
O2076 C2068 1.224 . S
H2077 C2109 0.929 . S
H2078 C2111 0.930 . S
H2079 C2112 0.930 . S
H2080 C2110 0.929 . S
H2081 C2113 0.928 . S
O2082 Co2066 2.057 . S
O2082 C2070 1.232 . S
H2083 C2102 0.929 . S
H2084 C2103 0.929 . S
H2085 C2115 0.931 . S
H2086 C2107 0.929 . S
H2087 C2116 0.930 . S
H2088 C2108 0.931 . S
O2089 Co2065 2.097 . S
O2089 C2117 1.214 . S
H2090 C2118 0.929 . S
H2091 C2119 0.929 . S
H2092 C2120 0.930 . S
H2093 C2121 0.929 . S
H2094 C2123 0.930 . S
H2095 C2100 0.930 . S
H2096 C2104 0.930 . S
O2097 Co2066 2.037 . S
O2097 C2117 1.234 . S
C2098 O2072 1.269 . S
C2098 O2073 1.257 . S
C2099 H2074 0.930 . S
C2099 C2102 1.388 . S
C2099 C2104 1.418 . S
C2100 H2095 0.930 . S
C2100 C2103 1.404 . S
C2100 C2104 1.353 . S
N2101 Co2066 2.145 . S
N2101 C2102 1.397 . S
N2101 C2103 1.334 . S
C2102 H2083 0.929 . S
C2102 C2099 1.388 . S
C2102 N2101 1.397 . S
C2103 H2084 0.929 . S
C2103 C2100 1.404 . S
C2103 N2101 1.334 . S
C2104 H2096 0.930 . S
C2104 C2099 1.418 . S
C2104 C2100 1.353 . S
C2105 H2075 0.930 . S
C2105 N2106 1.330 . S
C2105 C2107 1.446 . S
N2106 Co2065 2.151 . S
N2106 C2105 1.330 . S
N2106 C2110 1.418 . S
C2107 H2086 0.929 . S
C2107 C2105 1.446 . S
C2107 C2108 1.332 . S
C2108 H2088 0.931 . S
C2108 C2107 1.332 . S
C2108 C2109 1.267 . S
C2109 H2077 0.929 . S
C2109 C2108 1.267 . S
C2109 C2110 1.251 . S
C2110 H2080 0.929 . S
C2110 N2106 1.418 . S
C2110 C2109 1.251 . S
C2111 H2078 0.930 . S
C2111 C2113 1.406 . S
C2111 C2116 1.261 . S
C2112 H2079 0.930 . S
C2112 N2114 1.325 . S
C2112 C2115 1.357 . S
C2113 H2081 0.928 . S
C2113 C2111 1.406 . S
C2113 N2114 1.261 . S
N2114 Co2065 2.214 . S
N2114 C2112 1.325 . S
N2114 C2113 1.261 . S
C2115 H2085 0.931 . S
C2115 C2112 1.357 . S
C2115 C2116 1.312 . S
C2116 H2087 0.930 . S
C2116 C2111 1.261 . S
C2116 C2115 1.312 . S
C2117 O2089 1.214 . S
C2117 O2097 1.234 . S
C2118 H2090 0.929 . S
C2118 C2121 1.391 . S
C2118 C2123 1.391 . S
C2119 H2091 0.929 . S
C2119 C2120 1.390 . S
C2119 N2122 1.391 . S
C2120 H2092 0.930 . S
C2120 C2119 1.390 . S
C2120 C2121 1.392 . S
C2121 H2093 0.929 . S
C2121 C2118 1.391 . S
C2121 C2120 1.392 . S
N2122 Co2066 2.257 . S
N2122 C2119 1.391 . S
N2122 C2123 1.388 . S
C2123 H2094 0.930 . S
C2123 C2118 1.391 . S
C2123 N2122 1.388 . S
Co2124 O2126 2.143 . S
Co2124 O2132 2.074 . S
Co2124 O2135 2.093 . S
Co2124 O2148 2.097 . S
Co2124 N2165 2.151 . S
Co2124 N2173 2.214 . S
Co2125 O2126 2.160 . S
Co2125 O2131 2.058 . S
Co2125 O2141 2.057 . S
Co2125 O2156 2.037 . S
Co2125 N2160 2.145 . S
Co2125 N2181 2.257 . S
O2126 Co2124 2.143 . S
O2126 Co2125 2.160 . S
C2127 O2128 1.278 . S
C2127 O2135 1.224 . S
O2128 C2127 1.278 . S
C2129 O2130 1.245 . S
C2129 O2141 1.232 . S
O2130 C2129 1.245 . S
O2131 Co2125 2.058 . S
O2131 C2157 1.269 . S
O2132 Co2124 2.074 . S
O2132 C2157 1.257 . S
H2133 C2158 0.930 . S
H2134 C2164 0.930 . S
O2135 Co2124 2.093 . S
O2135 C2127 1.224 . S
H2136 C2168 0.929 . S
H2137 C2170 0.930 . S
H2138 C2171 0.930 . S
H2139 C2169 0.929 . S
H2140 C2172 0.928 . S
O2141 Co2125 2.057 . S
O2141 C2129 1.232 . S
H2142 C2161 0.929 . S
H2143 C2162 0.929 . S
H2144 C2174 0.931 . S
H2145 C2166 0.929 . S
H2146 C2175 0.930 . S
H2147 C2167 0.931 . S
O2148 Co2124 2.097 . S
O2148 C2176 1.214 . S
H2149 C2177 0.929 . S
H2150 C2178 0.929 . S
H2151 C2179 0.930 . S
H2152 C2180 0.929 . S
H2153 C2182 0.930 . S
H2154 C2159 0.930 . S
H2155 C2163 0.930 1_556 S
O2156 Co2125 2.037 . S
O2156 C2176 1.234 . S
C2157 O2131 1.269 . S
C2157 O2132 1.257 . S
C2158 H2133 0.930 . S
C2158 C2161 1.388 . S
C2158 C2163 1.418 . S
C2159 H2154 0.930 . S
C2159 C2162 1.404 . S
C2159 C2163 1.353 . S
N2160 Co2125 2.145 . S
N2160 C2161 1.397 . S
N2160 C2162 1.334 . S
C2161 H2142 0.929 . S
C2161 C2158 1.388 . S
C2161 N2160 1.397 . S
C2162 H2143 0.929 . S
C2162 C2159 1.404 . S
C2162 N2160 1.334 . S
C2163 H2155 0.930 1_554 S
C2163 C2158 1.418 . S
C2163 C2159 1.353 . S
C2164 H2134 0.930 . S
C2164 N2165 1.330 . S
C2164 C2166 1.446 . S
N2165 Co2124 2.151 . S
N2165 C2164 1.330 . S
N2165 C2169 1.418 . S
C2166 H2145 0.929 . S
C2166 C2164 1.446 . S
C2166 C2167 1.332 . S
C2167 H2147 0.931 . S
C2167 C2166 1.332 . S
C2167 C2168 1.267 . S
C2168 H2136 0.929 . S
C2168 C2167 1.267 . S
C2168 C2169 1.251 . S
C2169 H2139 0.929 . S
C2169 N2165 1.418 . S
C2169 C2168 1.251 . S
C2170 H2137 0.930 . S
C2170 C2172 1.406 . S
C2170 C2175 1.261 . S
C2171 H2138 0.930 . S
C2171 N2173 1.325 . S
C2171 C2174 1.357 . S
C2172 H2140 0.928 . S
C2172 C2170 1.406 . S
C2172 N2173 1.261 . S
N2173 Co2124 2.214 . S
N2173 C2171 1.325 . S
N2173 C2172 1.261 . S
C2174 H2144 0.931 . S
C2174 C2171 1.357 . S
C2174 C2175 1.312 . S
C2175 H2146 0.930 . S
C2175 C2170 1.261 . S
C2175 C2174 1.312 . S
C2176 O2148 1.214 . S
C2176 O2156 1.234 . S
C2177 H2149 0.929 . S
C2177 C2180 1.391 . S
C2177 C2182 1.391 . S
C2178 H2150 0.929 . S
C2178 C2179 1.390 . S
C2178 N2181 1.391 . S
C2179 H2151 0.930 . S
C2179 C2178 1.390 . S
C2179 C2180 1.392 . S
C2180 H2152 0.929 . S
C2180 C2177 1.391 . S
C2180 C2179 1.392 . S
N2181 Co2125 2.257 . S
N2181 C2178 1.391 . S
N2181 C2182 1.388 . S
C2182 H2153 0.930 . S
C2182 C2177 1.391 . S
C2182 N2181 1.388 . S
Co2183 O2185 2.143 . S
Co2183 O2191 2.074 . S
Co2183 O2194 2.093 . S
Co2183 O2207 2.097 . S
Co2183 N2224 2.151 . S
Co2183 N2232 2.214 . S
Co2184 O2185 2.160 . S
Co2184 O2190 2.058 . S
Co2184 O2200 2.057 . S
Co2184 O2215 2.037 . S
Co2184 N2219 2.145 . S
Co2184 N2240 2.257 . S
O2185 Co2183 2.143 . S
O2185 Co2184 2.160 . S
C2186 O2187 1.278 . S
C2186 O2194 1.224 . S
O2187 C2186 1.278 . S
C2188 O2189 1.245 . S
C2188 O2200 1.232 . S
O2189 C2188 1.245 . S
O2190 Co2184 2.058 . S
O2190 C2216 1.269 . S
O2191 Co2183 2.074 . S
O2191 C2216 1.257 . S
H2192 C2217 0.930 . S
H2193 C2223 0.930 . S
O2194 Co2183 2.093 . S
O2194 C2186 1.224 . S
H2195 C2227 0.929 . S
H2196 C2229 0.930 . S
H2197 C2230 0.930 . S
H2198 C2228 0.929 . S
H2199 C2231 0.928 . S
O2200 Co2184 2.057 . S
O2200 C2188 1.232 . S
H2201 C2220 0.929 . S
H2202 C2221 0.929 . S
H2203 C2233 0.931 . S
H2204 C2225 0.929 . S
H2205 C2234 0.930 . S
H2206 C2226 0.931 . S
O2207 Co2183 2.097 . S
O2207 C2235 1.214 . S
H2208 C2236 0.929 . S
H2209 C2237 0.929 . S
H2210 C2238 0.930 . S
H2211 C2239 0.929 . S
H2212 C2241 0.930 . S
H2213 C2218 0.930 . S
H2214 C2222 0.930 . S
O2215 Co2184 2.037 . S
O2215 C2235 1.234 . S
C2216 O2190 1.269 . S
C2216 O2191 1.257 . S
C2217 H2192 0.930 . S
C2217 C2220 1.388 . S
C2217 C2222 1.418 . S
C2218 H2213 0.930 . S
C2218 C2221 1.404 . S
C2218 C2222 1.353 . S
N2219 Co2184 2.145 . S
N2219 C2220 1.397 . S
N2219 C2221 1.334 . S
C2220 H2201 0.929 . S
C2220 C2217 1.388 . S
C2220 N2219 1.397 . S
C2221 H2202 0.929 . S
C2221 C2218 1.404 . S
C2221 N2219 1.334 . S
C2222 H2214 0.930 . S
C2222 C2217 1.418 . S
C2222 C2218 1.353 . S
C2223 H2193 0.930 . S
C2223 N2224 1.330 . S
C2223 C2225 1.446 . S
N2224 Co2183 2.151 . S
N2224 C2223 1.330 . S
N2224 C2228 1.418 . S
C2225 H2204 0.929 . S
C2225 C2223 1.446 . S
C2225 C2226 1.332 . S
C2226 H2206 0.931 . S
C2226 C2225 1.332 . S
C2226 C2227 1.267 . S
C2227 H2195 0.929 . S
C2227 C2226 1.267 . S
C2227 C2228 1.251 . S
C2228 H2198 0.929 . S
C2228 N2224 1.418 . S
C2228 C2227 1.251 . S
C2229 H2196 0.930 . S
C2229 C2231 1.406 . S
C2229 C2234 1.261 . S
C2230 H2197 0.930 . S
C2230 N2232 1.325 . S
C2230 C2233 1.357 . S
C2231 H2199 0.928 . S
C2231 C2229 1.406 . S
C2231 N2232 1.261 . S
N2232 Co2183 2.214 . S
N2232 C2230 1.325 . S
N2232 C2231 1.261 . S
C2233 H2203 0.931 . S
C2233 C2230 1.357 . S
C2233 C2234 1.312 . S
C2234 H2205 0.930 . S
C2234 C2229 1.261 . S
C2234 C2233 1.312 . S
C2235 O2207 1.214 . S
C2235 O2215 1.234 . S
C2236 H2208 0.929 . S
C2236 C2239 1.391 . S
C2236 C2241 1.391 . S
C2237 H2209 0.929 . S
C2237 C2238 1.390 . S
C2237 N2240 1.391 . S
C2238 H2210 0.930 . S
C2238 C2237 1.390 . S
C2238 C2239 1.392 . S
C2239 H2211 0.929 . S
C2239 C2236 1.391 . S
C2239 C2238 1.392 . S
N2240 Co2184 2.257 . S
N2240 C2237 1.391 . S
N2240 C2241 1.388 . S
C2241 H2212 0.930 . S
C2241 C2236 1.391 . S
C2241 N2240 1.388 . S
Co2242 O2244 2.143 . S
Co2242 O2250 2.074 . S
Co2242 O2253 2.093 . S
Co2242 O2266 2.097 . S
Co2242 N2283 2.151 . S
Co2242 N2291 2.214 . S
Co2243 O2244 2.160 . S
Co2243 O2249 2.058 . S
Co2243 O2259 2.057 . S
Co2243 O2274 2.037 . S
Co2243 N2278 2.145 . S
Co2243 N2299 2.257 . S
O2244 Co2242 2.143 . S
O2244 Co2243 2.160 . S
C2245 O2246 1.278 . S
C2245 O2253 1.224 . S
O2246 C2245 1.278 . S
C2247 O2248 1.245 . S
C2247 O2259 1.232 . S
O2248 C2247 1.245 . S
O2249 Co2243 2.058 . S
O2249 C2275 1.269 . S
O2250 Co2242 2.074 . S
O2250 C2275 1.257 . S
H2251 C2276 0.930 . S
H2252 C2282 0.930 . S
O2253 Co2242 2.093 . S
O2253 C2245 1.224 . S
H2254 C2286 0.929 . S
H2255 C2288 0.930 . S
H2256 C2289 0.930 . S
H2257 C2287 0.929 . S
H2258 C2290 0.928 . S
O2259 Co2243 2.057 . S
O2259 C2247 1.232 . S
H2260 C2279 0.929 . S
H2261 C2280 0.929 . S
H2262 C2292 0.931 . S
H2263 C2284 0.929 . S
H2264 C2293 0.930 . S
H2265 C2285 0.931 . S
O2266 Co2242 2.097 . S
O2266 C2294 1.214 . S
H2267 C2295 0.929 . S
H2268 C2296 0.929 . S
H2269 C2297 0.930 . S
H2270 C2298 0.929 . S
H2271 C2300 0.930 . S
H2272 C2277 0.930 . S
H2273 C2281 0.930 . S
O2274 Co2243 2.037 . S
O2274 C2294 1.234 . S
C2275 O2249 1.269 . S
C2275 O2250 1.257 . S
C2276 H2251 0.930 . S
C2276 C2279 1.388 . S
C2276 C2281 1.418 1_554 S
C2277 H2272 0.930 . S
C2277 C2280 1.404 . S
C2277 C2281 1.353 1_554 S
N2278 Co2243 2.145 . S
N2278 C2279 1.397 . S
N2278 C2280 1.334 . S
C2279 H2260 0.929 . S
C2279 C2276 1.388 . S
C2279 N2278 1.397 . S
C2280 H2261 0.929 . S
C2280 C2277 1.404 . S
C2280 N2278 1.334 . S
C2281 H2273 0.930 . S
C2281 C2276 1.418 1_556 S
C2281 C2277 1.353 1_556 S
C2282 H2252 0.930 . S
C2282 N2283 1.330 . S
C2282 C2284 1.446 . S
N2283 Co2242 2.151 . S
N2283 C2282 1.330 . S
N2283 C2287 1.418 . S
C2284 H2263 0.929 . S
C2284 C2282 1.446 . S
C2284 C2285 1.332 . S
C2285 H2265 0.931 . S
C2285 C2284 1.332 . S
C2285 C2286 1.267 . S
C2286 H2254 0.929 . S
C2286 C2285 1.267 . S
C2286 C2287 1.251 . S
C2287 H2257 0.929 . S
C2287 N2283 1.418 . S
C2287 C2286 1.251 . S
C2288 H2255 0.930 . S
C2288 C2290 1.406 . S
C2288 C2293 1.261 . S
C2289 H2256 0.930 . S
C2289 N2291 1.325 . S
C2289 C2292 1.357 . S
C2290 H2258 0.928 . S
C2290 C2288 1.406 . S
C2290 N2291 1.261 . S
N2291 Co2242 2.214 . S
N2291 C2289 1.325 . S
N2291 C2290 1.261 . S
C2292 H2262 0.931 . S
C2292 C2289 1.357 . S
C2292 C2293 1.312 . S
C2293 H2264 0.930 . S
C2293 C2288 1.261 . S
C2293 C2292 1.312 . S
C2294 O2266 1.214 . S
C2294 O2274 1.234 . S
C2295 H2267 0.929 . S
C2295 C2298 1.391 . S
C2295 C2300 1.391 . S
C2296 H2268 0.929 . S
C2296 C2297 1.390 . S
C2296 N2299 1.391 . S
C2297 H2269 0.930 . S
C2297 C2296 1.390 . S
C2297 C2298 1.392 . S
C2298 H2270 0.929 . S
C2298 C2295 1.391 . S
C2298 C2297 1.392 . S
N2299 Co2243 2.257 . S
N2299 C2296 1.391 . S
N2299 C2300 1.388 . S
C2300 H2271 0.930 . S
C2300 C2295 1.391 . S
C2300 N2299 1.388 . S
Co2301 O2303 2.143 . S
Co2301 O2309 2.074 . S
Co2301 O2312 2.093 . S
Co2301 O2325 2.097 . S
Co2301 N2342 2.151 . S
Co2301 N2350 2.214 . S
Co2302 O2303 2.160 . S
Co2302 O2308 2.058 . S
Co2302 O2318 2.057 . S
Co2302 O2333 2.037 . S
Co2302 N2337 2.145 . S
Co2302 N2358 2.257 . S
O2303 Co2301 2.143 . S
O2303 Co2302 2.160 . S
C2304 O2305 1.278 . S
C2304 O2312 1.224 . S
O2305 C2304 1.278 . S
C2306 O2307 1.245 . S
C2306 O2318 1.232 . S
O2307 C2306 1.245 . S
O2308 Co2302 2.058 . S
O2308 C2334 1.269 . S
O2309 Co2301 2.074 . S
O2309 C2334 1.257 . S
H2310 C2335 0.930 . S
H2311 C2341 0.930 . S
O2312 Co2301 2.093 . S
O2312 C2304 1.224 . S
H2313 C2345 0.929 . S
H2314 C2347 0.930 . S
H2315 C2348 0.930 . S
H2316 C2346 0.929 . S
H2317 C2349 0.928 . S
O2318 Co2302 2.057 . S
O2318 C2306 1.232 . S
H2319 C2338 0.929 . S
H2320 C2339 0.929 . S
H2321 C2351 0.931 . S
H2322 C2343 0.929 . S
H2323 C2352 0.930 . S
H2324 C2344 0.931 . S
O2325 Co2301 2.097 . S
O2325 C2353 1.214 . S
H2326 C2354 0.929 . S
H2327 C2355 0.929 . S
H2328 C2356 0.930 . S
H2329 C2357 0.929 . S
H2330 C2359 0.930 . S
H2331 C2336 0.930 . S
H2332 C2340 0.930 . S
O2333 Co2302 2.037 . S
O2333 C2353 1.234 . S
C2334 O2308 1.269 . S
C2334 O2309 1.257 . S
C2335 H2310 0.930 . S
C2335 C2338 1.388 . S
C2335 C2340 1.418 . S
C2336 H2331 0.930 . S
C2336 C2339 1.404 . S
C2336 C2340 1.353 . S
N2337 Co2302 2.145 . S
N2337 C2338 1.397 . S
N2337 C2339 1.334 . S
C2338 H2319 0.929 . S
C2338 C2335 1.388 . S
C2338 N2337 1.397 . S
C2339 H2320 0.929 . S
C2339 C2336 1.404 . S
C2339 N2337 1.334 . S
C2340 H2332 0.930 . S
C2340 C2335 1.418 . S
C2340 C2336 1.353 . S
C2341 H2311 0.930 . S
C2341 N2342 1.330 . S
C2341 C2343 1.446 . S
N2342 Co2301 2.151 . S
N2342 C2341 1.330 . S
N2342 C2346 1.418 . S
C2343 H2322 0.929 . S
C2343 C2341 1.446 . S
C2343 C2344 1.332 . S
C2344 H2324 0.931 . S
C2344 C2343 1.332 . S
C2344 C2345 1.267 . S
C2345 H2313 0.929 . S
C2345 C2344 1.267 . S
C2345 C2346 1.251 . S
C2346 H2316 0.929 . S
C2346 N2342 1.418 . S
C2346 C2345 1.251 . S
C2347 H2314 0.930 . S
C2347 C2349 1.406 . S
C2347 C2352 1.261 . S
C2348 H2315 0.930 . S
C2348 N2350 1.325 . S
C2348 C2351 1.357 . S
C2349 H2317 0.928 . S
C2349 C2347 1.406 . S
C2349 N2350 1.261 . S
N2350 Co2301 2.214 . S
N2350 C2348 1.325 . S
N2350 C2349 1.261 . S
C2351 H2321 0.931 . S
C2351 C2348 1.357 . S
C2351 C2352 1.312 . S
C2352 H2323 0.930 . S
C2352 C2347 1.261 . S
C2352 C2351 1.312 . S
C2353 O2325 1.214 . S
C2353 O2333 1.234 . S
C2354 H2326 0.929 . S
C2354 C2357 1.391 . S
C2354 C2359 1.391 . S
C2355 H2327 0.929 . S
C2355 C2356 1.390 . S
C2355 N2358 1.391 . S
C2356 H2328 0.930 . S
C2356 C2355 1.390 . S
C2356 C2357 1.392 . S
C2357 H2329 0.929 . S
C2357 C2354 1.391 . S
C2357 C2356 1.392 . S
N2358 Co2302 2.257 . S
N2358 C2355 1.391 . S
N2358 C2359 1.388 . S
C2359 H2330 0.930 . S
C2359 C2354 1.391 . S
C2359 N2358 1.388 . S
Co2360 O2362 2.143 . S
Co2360 O2368 2.074 . S
Co2360 O2371 2.093 . S
Co2360 O2384 2.097 . S
Co2360 N2401 2.151 . S
Co2360 N2409 2.214 . S
Co2361 O2362 2.160 . S
Co2361 O2367 2.058 . S
Co2361 O2377 2.057 . S
Co2361 O2392 2.037 . S
Co2361 N2396 2.145 . S
Co2361 N2417 2.257 . S
O2362 Co2360 2.143 . S
O2362 Co2361 2.160 . S
C2363 O2364 1.278 . S
C2363 O2371 1.224 . S
O2364 C2363 1.278 . S
C2365 O2366 1.245 . S
C2365 O2377 1.232 . S
O2366 C2365 1.245 . S
O2367 Co2361 2.058 . S
O2367 C2393 1.269 . S
O2368 Co2360 2.074 . S
O2368 C2393 1.257 . S
H2369 C2394 0.930 . S
H2370 C2400 0.930 . S
O2371 Co2360 2.093 . S
O2371 C2363 1.224 . S
H2372 C2404 0.929 . S
H2373 C2406 0.930 . S
H2374 C2407 0.930 . S
H2375 C2405 0.929 . S
H2376 C2408 0.928 . S
O2377 Co2361 2.057 . S
O2377 C2365 1.232 . S
H2378 C2397 0.929 . S
H2379 C2398 0.929 . S
H2380 C2410 0.931 . S
H2381 C2402 0.929 . S
H2382 C2411 0.930 . S
H2383 C2403 0.931 . S
O2384 Co2360 2.097 . S
O2384 C2412 1.214 . S
H2385 C2413 0.929 . S
H2386 C2414 0.929 . S
H2387 C2415 0.930 . S
H2388 C2416 0.920 1_455 S
H2389 C2418 0.930 . S
H2390 C2395 0.930 . S
H2391 C2399 0.930 . S
O2392 Co2361 2.037 . S
O2392 C2412 1.234 . S
C2393 O2367 1.269 . S
C2393 O2368 1.257 . S
C2394 H2369 0.930 . S
C2394 C2397 1.388 . S
C2394 C2399 1.418 . S
C2395 H2390 0.930 . S
C2395 C2398 1.404 . S
C2395 C2399 1.353 . S
N2396 Co2361 2.145 . S
N2396 C2397 1.397 . S
N2396 C2398 1.334 . S
C2397 H2378 0.929 . S
C2397 C2394 1.388 . S
C2397 N2396 1.397 . S
C2398 H2379 0.929 . S
C2398 C2395 1.404 . S
C2398 N2396 1.334 . S
C2399 H2391 0.930 . S
C2399 C2394 1.418 . S
C2399 C2395 1.353 . S
C2400 H2370 0.930 . S
C2400 N2401 1.330 . S
C2400 C2402 1.446 . S
N2401 Co2360 2.151 . S
N2401 C2400 1.330 . S
N2401 C2405 1.418 . S
C2402 H2381 0.929 . S
C2402 C2400 1.446 . S
C2402 C2403 1.332 . S
C2403 H2383 0.931 . S
C2403 C2402 1.332 . S
C2403 C2404 1.267 . S
C2404 H2372 0.929 . S
C2404 C2403 1.267 . S
C2404 C2405 1.251 . S
C2405 H2375 0.929 . S
C2405 N2401 1.418 . S
C2405 C2404 1.251 . S
C2406 H2373 0.930 . S
C2406 C2408 1.406 . S
C2406 C2411 1.261 . S
C2407 H2374 0.930 . S
C2407 N2409 1.325 . S
C2407 C2410 1.357 . S
C2408 H2376 0.928 . S
C2408 C2406 1.406 . S
C2408 N2409 1.261 . S
N2409 Co2360 2.214 . S
N2409 C2407 1.325 . S
N2409 C2408 1.261 . S
C2410 H2380 0.931 . S
C2410 C2407 1.357 . S
C2410 C2411 1.312 . S
C2411 H2382 0.930 . S
C2411 C2406 1.261 . S
C2411 C2410 1.312 . S
C2412 O2384 1.214 . S
C2412 O2392 1.234 . S
C2413 H2385 0.929 . S
C2413 C2416 1.391 . S
C2413 C2418 1.391 . S
C2414 H2386 0.929 . S
C2414 C2415 1.390 . S
C2414 N2417 1.391 . S
C2415 H2387 0.930 . S
C2415 C2414 1.390 . S
C2415 C2416 1.392 . S
C2416 H2388 0.920 1_655 S
C2416 C2413 1.391 . S
C2416 C2415 1.392 . S
N2417 Co2361 2.257 . S
N2417 C2414 1.391 . S
N2417 C2418 1.388 . S
C2418 H2389 0.930 . S
C2418 C2413 1.391 . S
C2418 N2417 1.388 . S
Co2419 O2421 2.143 . S
Co2419 O2427 2.074 . S
Co2419 O2430 2.093 . S
Co2419 O2443 2.097 . S
Co2419 N2460 2.151 . S
Co2419 N2468 2.214 . S
Co2420 O2421 2.160 . S
Co2420 O2426 2.058 . S
Co2420 O2436 2.057 . S
Co2420 O2451 2.037 . S
Co2420 N2455 2.145 . S
Co2420 N2476 2.257 . S
O2421 Co2419 2.143 . S
O2421 Co2420 2.160 . S
C2422 O2423 1.278 . S
C2422 O2430 1.224 . S
O2423 C2422 1.278 . S
C2424 O2425 1.245 . S
C2424 O2436 1.232 . S
O2425 C2424 1.245 . S
O2426 Co2420 2.058 . S
O2426 C2452 1.269 . S
O2427 Co2419 2.074 . S
O2427 C2452 1.257 . S
H2428 C2453 0.930 . S
H2429 C2459 0.930 . S
O2430 Co2419 2.093 . S
O2430 C2422 1.224 . S
H2431 C2463 0.929 . S
H2432 C2465 0.930 . S
H2433 C2466 0.930 . S
H2434 C2464 0.929 . S
H2435 C2467 0.928 . S
O2436 Co2420 2.057 . S
O2436 C2424 1.232 . S
H2437 C2456 0.929 . S
H2438 C2457 0.929 . S
H2439 C2469 0.931 . S
H2440 C2461 0.929 . S
H2441 C2470 0.930 . S
H2442 C2462 0.931 . S
O2443 Co2419 2.097 . S
O2443 C2471 1.214 . S
H2444 C2472 0.929 . S
H2445 C2473 0.929 . S
H2446 C2474 0.930 . S
H2447 C2475 0.929 . S
H2448 C2477 0.930 . S
H2449 C2454 0.930 . S
H2450 C2458 0.930 1_455 S
O2451 Co2420 2.037 . S
O2451 C2471 1.234 . S
C2452 O2426 1.269 . S
C2452 O2427 1.257 . S
C2453 H2428 0.930 . S
C2453 C2456 1.388 . S
C2453 C2458 1.418 . S
C2454 H2449 0.930 . S
C2454 C2457 1.404 . S
C2454 C2458 1.353 . S
N2455 Co2420 2.145 . S
N2455 C2456 1.397 . S
N2455 C2457 1.334 . S
C2456 H2437 0.929 . S
C2456 C2453 1.388 . S
C2456 N2455 1.397 . S
C2457 H2438 0.929 . S
C2457 C2454 1.404 . S
C2457 N2455 1.334 . S
C2458 H2450 0.930 1_655 S
C2458 C2453 1.418 . S
C2458 C2454 1.353 . S
C2459 H2429 0.930 . S
C2459 N2460 1.330 . S
C2459 C2461 1.446 . S
N2460 Co2419 2.151 . S
N2460 C2459 1.330 . S
N2460 C2464 1.418 . S
C2461 H2440 0.929 . S
C2461 C2459 1.446 . S
C2461 C2462 1.332 . S
C2462 H2442 0.931 . S
C2462 C2461 1.332 . S
C2462 C2463 1.267 . S
C2463 H2431 0.929 . S
C2463 C2462 1.267 . S
C2463 C2464 1.251 . S
C2464 H2434 0.929 . S
C2464 N2460 1.418 . S
C2464 C2463 1.251 . S
C2465 H2432 0.930 . S
C2465 C2467 1.406 . S
C2465 C2470 1.261 . S
C2466 H2433 0.930 . S
C2466 N2468 1.325 . S
C2466 C2469 1.357 . S
C2467 H2435 0.928 . S
C2467 C2465 1.406 . S
C2467 N2468 1.261 . S
N2468 Co2419 2.214 . S
N2468 C2466 1.325 . S
N2468 C2467 1.261 . S
C2469 H2439 0.931 . S
C2469 C2466 1.357 . S
C2469 C2470 1.312 . S
C2470 H2441 0.930 . S
C2470 C2465 1.261 . S
C2470 C2469 1.312 . S
C2471 O2443 1.214 . S
C2471 O2451 1.234 . S
C2472 H2444 0.929 . S
C2472 C2475 1.391 . S
C2472 C2477 1.391 . S
C2473 H2445 0.929 . S
C2473 C2474 1.390 . S
C2473 N2476 1.391 . S
C2474 H2446 0.930 . S
C2474 C2473 1.390 . S
C2474 C2475 1.392 . S
C2475 H2447 0.929 . S
C2475 C2472 1.391 . S
C2475 C2474 1.392 . S
N2476 Co2420 2.257 . S
N2476 C2473 1.391 . S
N2476 C2477 1.388 . S
C2477 H2448 0.930 . S
C2477 C2472 1.391 . S
C2477 N2476 1.388 . S
Co2478 O2480 2.143 . S
Co2478 O2486 2.074 . S
Co2478 O2489 2.093 . S
Co2478 O2502 2.097 . S
Co2478 N2519 2.151 . S
Co2478 N2527 2.214 . S
Co2479 O2480 2.160 . S
Co2479 O2485 2.058 . S
Co2479 O2495 2.057 . S
Co2479 O2510 2.037 . S
Co2479 N2514 2.145 . S
Co2479 N2535 2.257 . S
O2480 Co2478 2.143 . S
O2480 Co2479 2.160 . S
C2481 O2482 1.278 . S
C2481 O2489 1.224 . S
O2482 C2481 1.278 . S
C2483 O2484 1.245 . S
C2483 O2495 1.232 . S
O2484 C2483 1.245 . S
O2485 Co2479 2.058 . S
O2485 C2511 1.269 . S
O2486 Co2478 2.074 . S
O2486 C2511 1.257 . S
H2487 C2512 0.930 . S
H2488 C2518 0.930 . S
O2489 Co2478 2.093 . S
O2489 C2481 1.224 . S
H2490 C2522 0.929 . S
H2491 C2524 0.930 . S
H2492 C2525 0.930 . S
H2493 C2523 0.929 . S
H2494 C2526 0.928 . S
O2495 Co2479 2.057 . S
O2495 C2483 1.232 . S
H2496 C2515 0.929 . S
H2497 C2516 0.929 . S
H2498 C2528 0.931 . S
H2499 C2520 0.929 . S
H2500 C2529 0.930 . S
H2501 C2521 0.931 . S
O2502 Co2478 2.097 . S
O2502 C2530 1.214 . S
H2503 C2531 0.929 . S
H2504 C2532 0.929 . S
H2505 C2533 0.930 . S
H2506 C2534 0.929 . S
H2507 C2536 0.930 . S
H2508 C2513 0.930 . S
H2509 C2517 0.930 . S
O2510 Co2479 2.037 . S
O2510 C2530 1.234 . S
C2511 O2485 1.269 . S
C2511 O2486 1.257 . S
C2512 H2487 0.930 . S
C2512 C2515 1.388 . S
C2512 C2517 1.418 . S
C2513 H2508 0.930 . S
C2513 C2516 1.404 . S
C2513 C2517 1.353 . S
N2514 Co2479 2.145 . S
N2514 C2515 1.397 . S
N2514 C2516 1.334 . S
C2515 H2496 0.929 . S
C2515 C2512 1.388 . S
C2515 N2514 1.397 . S
C2516 H2497 0.929 . S
C2516 C2513 1.404 . S
C2516 N2514 1.334 . S
C2517 H2509 0.930 . S
C2517 C2512 1.418 . S
C2517 C2513 1.353 . S
C2518 H2488 0.930 . S
C2518 N2519 1.330 . S
C2518 C2520 1.446 . S
N2519 Co2478 2.151 . S
N2519 C2518 1.330 . S
N2519 C2523 1.418 . S
C2520 H2499 0.929 . S
C2520 C2518 1.446 . S
C2520 C2521 1.332 . S
C2521 H2501 0.931 . S
C2521 C2520 1.332 . S
C2521 C2522 1.267 . S
C2522 H2490 0.929 . S
C2522 C2521 1.267 . S
C2522 C2523 1.251 . S
C2523 H2493 0.929 . S
C2523 N2519 1.418 . S
C2523 C2522 1.251 . S
C2524 H2491 0.930 . S
C2524 C2526 1.406 . S
C2524 C2529 1.261 . S
C2525 H2492 0.930 . S
C2525 N2527 1.325 . S
C2525 C2528 1.357 . S
C2526 H2494 0.928 . S
C2526 C2524 1.406 . S
C2526 N2527 1.261 . S
N2527 Co2478 2.214 . S
N2527 C2525 1.325 . S
N2527 C2526 1.261 . S
C2528 H2498 0.931 . S
C2528 C2525 1.357 . S
C2528 C2529 1.312 . S
C2529 H2500 0.930 . S
C2529 C2524 1.261 . S
C2529 C2528 1.312 . S
C2530 O2502 1.214 . S
C2530 O2510 1.234 . S
C2531 H2503 0.929 . S
C2531 C2534 1.391 . S
C2531 C2536 1.391 . S
C2532 H2504 0.929 . S
C2532 C2533 1.390 . S
C2532 N2535 1.391 . S
C2533 H2505 0.930 . S
C2533 C2532 1.390 . S
C2533 C2534 1.392 . S
C2534 H2506 0.929 . S
C2534 C2531 1.391 . S
C2534 C2533 1.392 . S
N2535 Co2479 2.257 . S
N2535 C2532 1.391 . S
N2535 C2536 1.388 . S
C2536 H2507 0.930 . S
C2536 C2531 1.391 . S
C2536 N2535 1.388 . S
Co2537 O2539 2.143 . S
Co2537 O2545 2.074 . S
Co2537 O2548 2.093 . S
Co2537 O2561 2.097 . S
Co2537 N2578 2.151 . S
Co2537 N2586 2.214 . S
Co2538 O2539 2.160 . S
Co2538 O2544 2.058 . S
Co2538 O2554 2.057 . S
Co2538 O2569 2.037 . S
Co2538 N2573 2.145 . S
Co2538 N2594 2.257 . S
O2539 Co2537 2.143 . S
O2539 Co2538 2.160 . S
C2540 O2541 1.278 . S
C2540 O2548 1.224 . S
O2541 C2540 1.278 . S
C2542 O2543 1.245 . S
C2542 O2554 1.232 . S
O2543 C2542 1.245 . S
O2544 Co2538 2.058 . S
O2544 C2570 1.269 . S
O2545 Co2537 2.074 . S
O2545 C2570 1.257 . S
H2546 C2571 0.930 . S
H2547 C2577 0.930 . S
O2548 Co2537 2.093 . S
O2548 C2540 1.224 . S
H2549 C2581 0.929 . S
H2550 C2583 0.930 . S
H2551 C2584 0.930 . S
H2552 C2582 0.929 . S
H2553 C2585 0.928 . S
O2554 Co2538 2.057 . S
O2554 C2542 1.232 . S
H2555 C2574 0.929 . S
H2556 C2575 0.929 . S
H2557 C2587 0.931 . S
H2558 C2579 0.929 . S
H2559 C2588 0.930 . S
H2560 C2580 0.931 . S
O2561 Co2537 2.097 . S
O2561 C2589 1.214 . S
H2562 C2590 0.929 . S
H2563 C2591 0.929 . S
H2564 C2592 0.930 . S
H2565 C2593 0.929 . S
H2566 C2595 0.930 . S
H2567 C2572 0.930 . S
H2568 C2576 0.930 . S
O2569 Co2538 2.037 . S
O2569 C2589 1.234 . S
C2570 O2544 1.269 . S
C2570 O2545 1.257 . S
C2571 H2546 0.930 . S
C2571 C2574 1.388 . S
C2571 C2576 1.418 . S
C2572 H2567 0.930 . S
C2572 C2575 1.404 . S
C2572 C2576 1.353 . S
N2573 Co2538 2.145 . S
N2573 C2574 1.397 . S
N2573 C2575 1.334 . S
C2574 H2555 0.929 . S
C2574 C2571 1.388 . S
C2574 N2573 1.397 . S
C2575 H2556 0.929 . S
C2575 C2572 1.404 . S
C2575 N2573 1.334 . S
C2576 H2568 0.930 . S
C2576 C2571 1.418 . S
C2576 C2572 1.353 . S
C2577 H2547 0.930 . S
C2577 N2578 1.330 . S
C2577 C2579 1.446 . S
N2578 Co2537 2.151 . S
N2578 C2577 1.330 . S
N2578 C2582 1.418 . S
C2579 H2558 0.929 . S
C2579 C2577 1.446 . S
C2579 C2580 1.332 . S
C2580 H2560 0.931 . S
C2580 C2579 1.332 . S
C2580 C2581 1.267 . S
C2581 H2549 0.929 . S
C2581 C2580 1.267 . S
C2581 C2582 1.251 . S
C2582 H2552 0.929 . S
C2582 N2578 1.418 . S
C2582 C2581 1.251 . S
C2583 H2550 0.930 . S
C2583 C2585 1.406 . S
C2583 C2588 1.261 . S
C2584 H2551 0.930 . S
C2584 N2586 1.325 . S
C2584 C2587 1.357 . S
C2585 H2553 0.928 . S
C2585 C2583 1.406 . S
C2585 N2586 1.261 . S
N2586 Co2537 2.214 . S
N2586 C2584 1.325 . S
N2586 C2585 1.261 . S
C2587 H2557 0.931 . S
C2587 C2584 1.357 . S
C2587 C2588 1.312 . S
C2588 H2559 0.930 . S
C2588 C2583 1.261 . S
C2588 C2587 1.312 . S
C2589 O2561 1.214 . S
C2589 O2569 1.234 . S
C2590 H2562 0.929 . S
C2590 C2593 1.391 . S
C2590 C2595 1.391 . S
C2591 H2563 0.929 . S
C2591 C2592 1.390 . S
C2591 N2594 1.391 . S
C2592 H2564 0.930 . S
C2592 C2591 1.390 . S
C2592 C2593 1.392 . S
C2593 H2565 0.929 . S
C2593 C2590 1.391 . S
C2593 C2592 1.392 . S
N2594 Co2538 2.257 . S
N2594 C2591 1.391 . S
N2594 C2595 1.388 . S
C2595 H2566 0.930 . S
C2595 C2590 1.391 . S
C2595 N2594 1.388 . S
Co2596 O2598 2.143 . S
Co2596 O2604 2.074 . S
Co2596 O2607 2.093 . S
Co2596 O2620 2.097 . S
Co2596 N2637 2.151 . S
Co2596 N2645 2.214 . S
Co2597 O2598 2.160 . S
Co2597 O2603 2.058 . S
Co2597 O2613 2.057 . S
Co2597 O2628 2.037 . S
Co2597 N2632 2.145 . S
Co2597 N2653 2.257 . S
O2598 Co2596 2.143 . S
O2598 Co2597 2.160 . S
C2599 O2600 1.278 . S
C2599 O2607 1.224 . S
O2600 C2599 1.278 . S
C2601 O2602 1.245 . S
C2601 O2613 1.232 . S
O2602 C2601 1.245 . S
O2603 Co2597 2.058 . S
O2603 C2629 1.269 . S
O2604 Co2596 2.074 . S
O2604 C2629 1.257 . S
H2605 C2630 0.930 . S
H2606 C2636 0.930 . S
O2607 Co2596 2.093 . S
O2607 C2599 1.224 . S
H2608 C2640 0.929 . S
H2609 C2642 0.930 . S
H2610 C2643 0.930 . S
H2611 C2641 0.929 . S
H2612 C2644 0.928 . S
O2613 Co2597 2.057 . S
O2613 C2601 1.232 . S
H2614 C2633 0.929 . S
H2615 C2634 0.929 . S
H2616 C2646 0.931 . S
H2617 C2638 0.929 . S
H2618 C2647 0.930 . S
H2619 C2639 0.931 . S
O2620 Co2596 2.097 . S
O2620 C2648 1.214 . S
H2621 C2649 0.929 . S
H2622 C2650 0.929 . S
H2623 C2651 0.930 . S
H2624 C2652 0.929 . S
H2625 C2654 0.930 . S
H2626 C2631 0.930 . S
H2627 C2635 0.930 . S
O2628 Co2597 2.037 . S
O2628 C2648 1.234 . S
C2629 O2603 1.269 . S
C2629 O2604 1.257 . S
C2630 H2605 0.930 . S
C2630 C2633 1.388 . S
C2630 C2635 1.418 . S
C2631 H2626 0.930 . S
C2631 C2634 1.404 . S
C2631 C2635 1.353 . S
N2632 Co2597 2.145 . S
N2632 C2633 1.397 . S
N2632 C2634 1.334 . S
C2633 H2614 0.929 . S
C2633 C2630 1.388 . S
C2633 N2632 1.397 . S
C2634 H2615 0.929 . S
C2634 C2631 1.404 . S
C2634 N2632 1.334 . S
C2635 H2627 0.930 . S
C2635 C2630 1.418 . S
C2635 C2631 1.353 . S
C2636 H2606 0.930 . S
C2636 N2637 1.330 . S
C2636 C2638 1.446 . S
N2637 Co2596 2.151 . S
N2637 C2636 1.330 . S
N2637 C2641 1.418 . S
C2638 H2617 0.929 . S
C2638 C2636 1.446 . S
C2638 C2639 1.332 . S
C2639 H2619 0.931 . S
C2639 C2638 1.332 . S
C2639 C2640 1.267 . S
C2640 H2608 0.929 . S
C2640 C2639 1.267 . S
C2640 C2641 1.251 . S
C2641 H2611 0.929 . S
C2641 N2637 1.418 . S
C2641 C2640 1.251 . S
C2642 H2609 0.930 . S
C2642 C2644 1.406 . S
C2642 C2647 1.261 . S
C2643 H2610 0.930 . S
C2643 N2645 1.325 . S
C2643 C2646 1.357 . S
C2644 H2612 0.928 . S
C2644 C2642 1.406 . S
C2644 N2645 1.261 . S
N2645 Co2596 2.214 . S
N2645 C2643 1.325 . S
N2645 C2644 1.261 . S
C2646 H2616 0.931 . S
C2646 C2643 1.357 . S
C2646 C2647 1.312 . S
C2647 H2618 0.930 . S
C2647 C2642 1.261 . S
C2647 C2646 1.312 . S
C2648 O2620 1.214 . S
C2648 O2628 1.234 . S
C2649 H2621 0.929 . S
C2649 C2652 1.391 . S
C2649 C2654 1.391 . S
C2650 H2622 0.929 . S
C2650 C2651 1.390 . S
C2650 N2653 1.391 . S
C2651 H2623 0.930 . S
C2651 C2650 1.390 . S
C2651 C2652 1.392 . S
C2652 H2624 0.929 . S
C2652 C2649 1.391 . S
C2652 C2651 1.392 . S
N2653 Co2597 2.257 . S
N2653 C2650 1.391 . S
N2653 C2654 1.388 . S
C2654 H2625 0.930 . S
C2654 C2649 1.391 . S
C2654 N2653 1.388 . S
Co2655 O2657 2.143 . S
Co2655 O2663 2.074 . S
Co2655 O2666 2.093 . S
Co2655 O2679 2.097 . S
Co2655 N2696 2.151 . S
Co2655 N2704 2.214 . S
Co2656 O2657 2.160 . S
Co2656 O2662 2.058 . S
Co2656 O2672 2.057 . S
Co2656 O2687 2.037 . S
Co2656 N2691 2.145 . S
Co2656 N2712 2.257 . S
O2657 Co2655 2.143 . S
O2657 Co2656 2.160 . S
C2658 O2659 1.278 . S
C2658 O2666 1.224 . S
O2659 C2658 1.278 . S
C2660 O2661 1.245 . S
C2660 O2672 1.232 . S
O2661 C2660 1.245 . S
O2662 Co2656 2.058 . S
O2662 C2688 1.269 . S
O2663 Co2655 2.074 . S
O2663 C2688 1.257 . S
H2664 C2689 0.930 . S
H2665 C2695 0.930 . S
O2666 Co2655 2.093 . S
O2666 C2658 1.224 . S
H2667 C2699 0.929 . S
H2668 C2701 0.930 . S
H2669 C2702 0.930 . S
H2670 C2700 0.929 . S
H2671 C2703 0.928 . S
O2672 Co2656 2.057 . S
O2672 C2660 1.232 . S
H2673 C2692 0.929 . S
H2674 C2693 0.929 . S
H2675 C2705 0.931 . S
H2676 C2697 0.929 . S
H2677 C2706 0.930 . S
H2678 C2698 0.931 . S
O2679 Co2655 2.097 . S
O2679 C2707 1.214 . S
H2680 C2708 0.929 . S
H2681 C2709 0.929 . S
H2682 C2710 0.930 . S
H2683 C2711 0.929 . S
H2684 C2713 0.930 . S
H2685 C2690 0.930 . S
H2686 C2694 0.927 . S
O2687 Co2656 2.037 . S
O2687 C2707 1.234 . S
C2688 O2662 1.269 . S
C2688 O2663 1.257 . S
C2689 H2664 0.930 . S
C2689 C2692 1.388 . S
C2689 C2694 1.420 1_455 S
C2690 H2685 0.930 . S
C2690 C2693 1.404 . S
C2690 C2694 1.355 1_455 S
N2691 Co2656 2.145 . S
N2691 C2692 1.397 . S
N2691 C2693 1.334 . S
C2692 H2673 0.929 . S
C2692 C2689 1.388 . S
C2692 N2691 1.397 . S
C2693 H2674 0.929 . S
C2693 C2690 1.404 . S
C2693 N2691 1.334 . S
C2694 H2686 0.927 . S
C2694 C2689 1.420 1_655 S
C2694 C2690 1.355 1_655 S
C2695 H2665 0.930 . S
C2695 N2696 1.330 . S
C2695 C2697 1.446 . S
N2696 Co2655 2.151 . S
N2696 C2695 1.330 . S
N2696 C2700 1.418 . S
C2697 H2676 0.929 . S
C2697 C2695 1.446 . S
C2697 C2698 1.332 . S
C2698 H2678 0.931 . S
C2698 C2697 1.332 . S
C2698 C2699 1.267 . S
C2699 H2667 0.929 . S
C2699 C2698 1.267 . S
C2699 C2700 1.251 . S
C2700 H2670 0.929 . S
C2700 N2696 1.418 . S
C2700 C2699 1.251 . S
C2701 H2668 0.930 . S
C2701 C2703 1.406 . S
C2701 C2706 1.261 . S
C2702 H2669 0.930 . S
C2702 N2704 1.325 . S
C2702 C2705 1.357 . S
C2703 H2671 0.928 . S
C2703 C2701 1.406 . S
C2703 N2704 1.261 . S
N2704 Co2655 2.214 . S
N2704 C2702 1.325 . S
N2704 C2703 1.261 . S
C2705 H2675 0.931 . S
C2705 C2702 1.357 . S
C2705 C2706 1.312 . S
C2706 H2677 0.930 . S
C2706 C2701 1.261 . S
C2706 C2705 1.312 . S
C2707 O2679 1.214 . S
C2707 O2687 1.234 . S
C2708 H2680 0.929 . S
C2708 C2711 1.391 . S
C2708 C2713 1.391 . S
C2709 H2681 0.929 . S
C2709 C2710 1.390 . S
C2709 N2712 1.391 . S
C2710 H2682 0.930 . S
C2710 C2709 1.390 . S
C2710 C2711 1.392 . S
C2711 H2683 0.929 . S
C2711 C2708 1.391 . S
C2711 C2710 1.392 . S
N2712 Co2656 2.257 . S
N2712 C2709 1.391 . S
N2712 C2713 1.388 . S
C2713 H2684 0.930 . S
C2713 C2708 1.391 . S
C2713 N2712 1.388 . S
Co2714 O2716 2.143 . S
Co2714 O2722 2.074 . S
Co2714 O2725 2.093 . S
Co2714 O2738 2.097 . S
Co2714 N2755 2.151 . S
Co2714 N2763 2.214 . S
Co2715 O2716 2.160 . S
Co2715 O2721 2.058 . S
Co2715 O2731 2.057 . S
Co2715 O2746 2.037 . S
Co2715 N2750 2.145 . S
Co2715 N2771 2.257 . S
O2716 Co2714 2.143 . S
O2716 Co2715 2.160 . S
C2717 O2718 1.278 . S
C2717 O2725 1.224 . S
O2718 C2717 1.278 . S
C2719 O2720 1.245 . S
C2719 O2731 1.232 . S
O2720 C2719 1.245 . S
O2721 Co2715 2.058 . S
O2721 C2747 1.269 . S
O2722 Co2714 2.074 . S
O2722 C2747 1.257 . S
H2723 C2748 0.930 . S
H2724 C2754 0.930 . S
O2725 Co2714 2.093 . S
O2725 C2717 1.224 . S
H2726 C2758 0.929 . S
H2727 C2760 0.930 . S
H2728 C2761 0.930 . S
H2729 C2759 0.929 . S
H2730 C2762 0.928 . S
O2731 Co2715 2.057 . S
O2731 C2719 1.232 . S
H2732 C2751 0.929 . S
H2733 C2752 0.929 . S
H2734 C2764 0.931 . S
H2735 C2756 0.929 . S
H2736 C2765 0.930 . S
H2737 C2757 0.931 . S
O2738 Co2714 2.097 . S
O2738 C2766 1.214 . S
H2739 C2767 0.929 . S
H2740 C2768 0.929 . S
H2741 C2769 0.930 . S
H2742 C2770 0.929 . S
H2743 C2772 0.930 . S
H2744 C2749 0.930 . S
H2745 C2753 0.930 . S
O2746 Co2715 2.037 . S
O2746 C2766 1.234 . S
C2747 O2721 1.269 . S
C2747 O2722 1.257 . S
C2748 H2723 0.930 . S
C2748 C2751 1.388 . S
C2748 C2753 1.418 . S
C2749 H2744 0.930 . S
C2749 C2752 1.404 . S
C2749 C2753 1.353 . S
N2750 Co2715 2.145 . S
N2750 C2751 1.397 . S
N2750 C2752 1.334 . S
C2751 H2732 0.929 . S
C2751 C2748 1.388 . S
C2751 N2750 1.397 . S
C2752 H2733 0.929 . S
C2752 C2749 1.404 . S
C2752 N2750 1.334 . S
C2753 H2745 0.930 . S
C2753 C2748 1.418 . S
C2753 C2749 1.353 . S
C2754 H2724 0.930 . S
C2754 N2755 1.330 . S
C2754 C2756 1.446 . S
N2755 Co2714 2.151 . S
N2755 C2754 1.330 . S
N2755 C2759 1.418 . S
C2756 H2735 0.929 . S
C2756 C2754 1.446 . S
C2756 C2757 1.332 . S
C2757 H2737 0.931 . S
C2757 C2756 1.332 . S
C2757 C2758 1.267 . S
C2758 H2726 0.929 . S
C2758 C2757 1.267 . S
C2758 C2759 1.251 . S
C2759 H2729 0.929 . S
C2759 N2755 1.418 . S
C2759 C2758 1.251 . S
C2760 H2727 0.930 . S
C2760 C2762 1.406 . S
C2760 C2765 1.261 . S
C2761 H2728 0.930 . S
C2761 N2763 1.325 . S
C2761 C2764 1.357 . S
C2762 H2730 0.928 . S
C2762 C2760 1.406 . S
C2762 N2763 1.261 . S
N2763 Co2714 2.214 . S
N2763 C2761 1.325 . S
N2763 C2762 1.261 . S
C2764 H2734 0.931 . S
C2764 C2761 1.357 . S
C2764 C2765 1.312 . S
C2765 H2736 0.930 . S
C2765 C2760 1.261 . S
C2765 C2764 1.312 . S
C2766 O2738 1.214 . S
C2766 O2746 1.234 . S
C2767 H2739 0.929 . S
C2767 C2770 1.391 . S
C2767 C2772 1.391 . S
C2768 H2740 0.929 . S
C2768 C2769 1.390 . S
C2768 N2771 1.391 . S
C2769 H2741 0.930 . S
C2769 C2768 1.390 . S
C2769 C2770 1.392 . S
C2770 H2742 0.929 . S
C2770 C2767 1.391 . S
C2770 C2769 1.392 . S
N2771 Co2715 2.257 . S
N2771 C2768 1.391 . S
N2771 C2772 1.388 . S
C2772 H2743 0.930 . S
C2772 C2767 1.391 . S
C2772 N2771 1.388 . S
Co2773 O2775 2.143 . S
Co2773 O2781 2.074 . S
Co2773 O2784 2.093 . S
Co2773 O2797 2.097 . S
Co2773 N2814 2.151 . S
Co2773 N2822 2.214 . S
Co2774 O2775 2.160 . S
Co2774 O2780 2.058 . S
Co2774 O2790 2.057 . S
Co2774 O2805 2.037 . S
Co2774 N2809 2.145 . S
Co2774 N2830 2.257 . S
O2775 Co2773 2.143 . S
O2775 Co2774 2.160 . S
C2776 O2777 1.278 . S
C2776 O2784 1.224 . S
O2777 C2776 1.278 . S
C2778 O2779 1.245 . S
C2778 O2790 1.232 . S
O2779 C2778 1.245 . S
O2780 Co2774 2.058 . S
O2780 C2806 1.269 . S
O2781 Co2773 2.074 . S
O2781 C2806 1.257 . S
H2782 C2807 0.930 . S
H2783 C2813 0.930 . S
O2784 Co2773 2.093 . S
O2784 C2776 1.224 . S
H2785 C2817 0.929 . S
H2786 C2819 0.930 . S
H2787 C2820 0.930 . S
H2788 C2818 0.929 . S
H2789 C2821 0.928 . S
O2790 Co2774 2.057 . S
O2790 C2778 1.232 . S
H2791 C2810 0.929 . S
H2792 C2811 0.929 . S
H2793 C2823 0.931 . S
H2794 C2815 0.929 . S
H2795 C2824 0.930 . S
H2796 C2816 0.931 . S
O2797 Co2773 2.097 . S
O2797 C2825 1.214 . S
H2798 C2826 0.929 . S
H2799 C2827 0.929 . S
H2800 C2828 0.930 . S
H2801 C2829 0.929 . S
H2802 C2831 0.930 . S
H2803 C2808 0.930 . S
H2804 C2812 0.930 . S
O2805 Co2774 2.037 . S
O2805 C2825 1.234 . S
C2806 O2780 1.269 . S
C2806 O2781 1.257 . S
C2807 H2782 0.930 . S
C2807 C2810 1.388 . S
C2807 C2812 1.418 . S
C2808 H2803 0.930 . S
C2808 C2811 1.404 . S
C2808 C2812 1.353 . S
N2809 Co2774 2.145 . S
N2809 C2810 1.397 . S
N2809 C2811 1.334 . S
C2810 H2791 0.929 . S
C2810 C2807 1.388 . S
C2810 N2809 1.397 . S
C2811 H2792 0.929 . S
C2811 C2808 1.404 . S
C2811 N2809 1.334 . S
C2812 H2804 0.930 . S
C2812 C2807 1.418 . S
C2812 C2808 1.353 . S
C2813 H2783 0.930 . S
C2813 N2814 1.330 . S
C2813 C2815 1.446 . S
N2814 Co2773 2.151 . S
N2814 C2813 1.330 . S
N2814 C2818 1.418 . S
C2815 H2794 0.929 . S
C2815 C2813 1.446 . S
C2815 C2816 1.332 . S
C2816 H2796 0.931 . S
C2816 C2815 1.332 . S
C2816 C2817 1.267 . S
C2817 H2785 0.929 . S
C2817 C2816 1.267 . S
C2817 C2818 1.251 . S
C2818 H2788 0.929 . S
C2818 N2814 1.418 . S
C2818 C2817 1.251 . S
C2819 H2786 0.930 . S
C2819 C2821 1.406 . S
C2819 C2824 1.261 . S
C2820 H2787 0.930 . S
C2820 N2822 1.325 . S
C2820 C2823 1.357 . S
C2821 H2789 0.928 . S
C2821 C2819 1.406 . S
C2821 N2822 1.261 . S
N2822 Co2773 2.214 . S
N2822 C2820 1.325 . S
N2822 C2821 1.261 . S
C2823 H2793 0.931 . S
C2823 C2820 1.357 . S
C2823 C2824 1.312 . S
C2824 H2795 0.930 . S
C2824 C2819 1.261 . S
C2824 C2823 1.312 . S
C2825 O2797 1.214 . S
C2825 O2805 1.234 . S
C2826 H2798 0.929 . S
C2826 C2829 1.391 . S
C2826 C2831 1.391 . S
C2827 H2799 0.929 . S
C2827 C2828 1.390 . S
C2827 N2830 1.391 . S
C2828 H2800 0.930 . S
C2828 C2827 1.390 . S
C2828 C2829 1.392 . S
C2829 H2801 0.929 . S
C2829 C2826 1.391 . S
C2829 C2828 1.392 . S
N2830 Co2774 2.257 . S
N2830 C2827 1.391 . S
N2830 C2831 1.388 . S
C2831 H2802 0.930 . S
C2831 C2826 1.391 . S
C2831 N2830 1.388 . S
H2832 C2838 0.930 . S
H2833 C2841 0.930 . S
H2834 C2842 0.930 . S
H2835 C2843 0.930 . S
H2836 C2846 0.930 . S
H2837 C2847 0.930 . S
C2838 H2832 0.930 . S
C2838 C2839 1.355 . S
C2838 C2840 1.415 . S
C2839 C2838 1.355 . S
C2839 C2841 1.419 . S
C2840 C2838 1.415 . S
C2840 C2845 1.425 . S
C2840 C2847 1.409 . S
C2841 H2833 0.930 . S
C2841 C2839 1.419 . S
C2841 C2842 1.362 . S
C2842 H2834 0.930 . S
C2842 C2841 1.362 . S
C2842 C2845 1.409 . S
C2843 H2835 0.930 . S
C2843 C2844 1.355 . S
C2843 C2845 1.415 . S
C2844 C2843 1.355 . S
C2844 C2846 1.419 . S
C2845 C2840 1.425 . S
C2845 C2842 1.409 . S
C2845 C2843 1.415 . S
C2846 H2836 0.930 . S
C2846 C2844 1.419 . S
C2846 C2847 1.362 . S
C2847 H2837 0.930 . S
C2847 C2840 1.409 . S
C2847 C2846 1.362 . S
H2848 C2854 0.930 . S
H2849 C2857 0.930 . S
H2850 C2858 0.930 . S
H2851 C2859 0.930 . S
H2852 C2862 0.930 . S
H2853 C2863 0.930 . S
C2854 H2848 0.930 . S
C2854 C2855 1.355 . S
C2854 C2856 1.415 . S
C2855 C2854 1.355 . S
C2855 C2857 1.419 . S
C2856 C2854 1.415 . S
C2856 C2861 1.425 . S
C2856 C2863 1.409 . S
C2857 H2849 0.930 . S
C2857 C2855 1.419 . S
C2857 C2858 1.362 . S
C2858 H2850 0.930 . S
C2858 C2857 1.362 . S
C2858 C2861 1.409 . S
C2859 H2851 0.930 . S
C2859 C2860 1.355 . S
C2859 C2861 1.415 . S
C2860 C2859 1.355 . S
C2860 C2862 1.419 . S
C2861 C2856 1.425 . S
C2861 C2858 1.409 . S
C2861 C2859 1.415 . S
C2862 H2852 0.930 . S
C2862 C2860 1.419 . S
C2862 C2863 1.362 . S
C2863 H2853 0.930 . S
C2863 C2856 1.409 . S
C2863 C2862 1.362 . S
H2864 C2870 0.930 . S
H2865 C2873 0.930 . S
H2866 C2874 0.930 . S
H2867 C2875 0.930 . S
H2868 C2878 0.930 . S
H2869 C2879 0.930 . S
C2870 H2864 0.930 . S
C2870 C2871 1.355 . S
C2870 C2872 1.415 . S
C2871 C2870 1.355 . S
C2871 C2873 1.419 . S
C2872 C2870 1.415 . S
C2872 C2877 1.425 . S
C2872 C2879 1.409 . S
C2873 H2865 0.930 . S
C2873 C2871 1.419 . S
C2873 C2874 1.362 . S
C2874 H2866 0.930 . S
C2874 C2873 1.362 . S
C2874 C2877 1.409 . S
C2875 H2867 0.930 . S
C2875 C2876 1.355 . S
C2875 C2877 1.415 . S
C2876 C2875 1.355 . S
C2876 C2878 1.419 . S
C2877 C2872 1.425 . S
C2877 C2874 1.409 . S
C2877 C2875 1.415 . S
C2878 H2868 0.930 . S
C2878 C2876 1.419 . S
C2878 C2879 1.362 . S
C2879 H2869 0.930 . S
C2879 C2872 1.409 . S
C2879 C2878 1.362 . S
H2880 C2886 0.930 . S
H2881 C2889 0.930 . S
H2882 C2890 0.930 . S
H2883 C2891 0.930 . S
H2884 C2894 0.930 . S
H2885 C2895 0.930 . S
C2886 H2880 0.930 . S
C2886 C2887 1.355 . S
C2886 C2888 1.415 . S
C2887 C2886 1.355 . S
C2887 C2889 1.419 . S
C2888 C2886 1.415 . S
C2888 C2893 1.425 . S
C2888 C2895 1.409 . S
C2889 H2881 0.930 . S
C2889 C2887 1.419 . S
C2889 C2890 1.362 . S
C2890 H2882 0.930 . S
C2890 C2889 1.362 . S
C2890 C2893 1.409 . S
C2891 H2883 0.930 . S
C2891 C2892 1.355 . S
C2891 C2893 1.415 . S
C2892 C2891 1.355 . S
C2892 C2894 1.419 . S
C2893 C2888 1.425 . S
C2893 C2890 1.409 . S
C2893 C2891 1.415 . S
C2894 H2884 0.930 . S
C2894 C2892 1.419 . S
C2894 C2895 1.362 . S
C2895 H2885 0.930 . S
C2895 C2888 1.409 . S
C2895 C2894 1.362 . S
H2896 C2902 0.930 . S
H2897 C2905 0.930 . S
H2898 C2906 0.930 . S
H2899 C2907 0.930 . S
H2900 C2910 0.930 . S
H2901 C2911 0.930 . S
C2902 H2896 0.930 . S
C2902 C2903 1.355 . S
C2902 C2904 1.415 . S
C2903 C2902 1.355 . S
C2903 C2905 1.419 . S
C2904 C2902 1.415 . S
C2904 C2909 1.425 . S
C2904 C2911 1.409 . S
C2905 H2897 0.930 . S
C2905 C2903 1.419 . S
C2905 C2906 1.362 . S
C2906 H2898 0.930 . S
C2906 C2905 1.362 . S
C2906 C2909 1.409 . S
C2907 H2899 0.930 . S
C2907 C2908 1.355 . S
C2907 C2909 1.415 . S
C2908 C2907 1.355 . S
C2908 C2910 1.419 . S
C2909 C2904 1.425 . S
C2909 C2906 1.409 . S
C2909 C2907 1.415 . S
C2910 H2900 0.930 . S
C2910 C2908 1.419 . S
C2910 C2911 1.362 . S
C2911 H2901 0.930 . S
C2911 C2904 1.409 . S
C2911 C2910 1.362 . S
H2912 C2918 0.930 . S
H2913 C2921 0.930 . S
H2914 C2922 0.930 . S
H2915 C2923 0.930 . S
H2916 C2926 0.930 . S
H2917 C2927 0.930 . S
C2918 H2912 0.930 . S
C2918 C2919 1.355 . S
C2918 C2920 1.415 . S
C2919 C2918 1.355 . S
C2919 C2921 1.419 . S
C2920 C2918 1.415 . S
C2920 C2925 1.425 . S
C2920 C2927 1.409 . S
C2921 H2913 0.930 . S
C2921 C2919 1.419 . S
C2921 C2922 1.362 . S
C2922 H2914 0.930 . S
C2922 C2921 1.362 . S
C2922 C2925 1.409 . S
C2923 H2915 0.930 . S
C2923 C2924 1.355 . S
C2923 C2925 1.415 . S
C2924 C2923 1.355 . S
C2924 C2926 1.419 . S
C2925 C2920 1.425 . S
C2925 C2922 1.409 . S
C2925 C2923 1.415 . S
C2926 H2916 0.930 . S
C2926 C2924 1.419 . S
C2926 C2927 1.362 . S
C2927 H2917 0.930 . S
C2927 C2920 1.409 . S
C2927 C2926 1.362 . S
H2928 C2934 0.930 . S
H2929 C2937 0.930 . S
H2930 C2938 0.930 . S
H2931 C2939 0.930 . S
H2932 C2942 0.930 . S
H2933 C2943 0.930 . S
C2934 H2928 0.930 . S
C2934 C2935 1.355 . S
C2934 C2936 1.415 . S
C2935 C2934 1.355 . S
C2935 C2937 1.419 . S
C2936 C2934 1.415 . S
C2936 C2941 1.425 . S
C2936 C2943 1.409 . S
C2937 H2929 0.930 . S
C2937 C2935 1.419 . S
C2937 C2938 1.362 . S
C2938 H2930 0.930 . S
C2938 C2937 1.362 . S
C2938 C2941 1.409 . S
C2939 H2931 0.930 . S
C2939 C2940 1.355 . S
C2939 C2941 1.415 . S
C2940 C2939 1.355 . S
C2940 C2942 1.419 . S
C2941 C2936 1.425 . S
C2941 C2938 1.409 . S
C2941 C2939 1.415 . S
C2942 H2932 0.930 . S
C2942 C2940 1.419 . S
C2942 C2943 1.362 . S
C2943 H2933 0.930 . S
C2943 C2936 1.409 . S
C2943 C2942 1.362 . S
H2944 C2950 0.930 . S
H2945 C2953 0.930 . S
H2946 C2954 0.930 . S
H2947 C2955 0.930 . S
H2948 C2958 0.930 . S
H2949 C2959 0.930 . S
C2950 H2944 0.930 . S
C2950 C2951 1.355 . S
C2950 C2952 1.415 . S
C2951 C2950 1.355 . S
C2951 C2953 1.419 . S
C2952 C2950 1.415 . S
C2952 C2957 1.425 . S
C2952 C2959 1.409 . S
C2953 H2945 0.930 . S
C2953 C2951 1.419 . S
C2953 C2954 1.362 . S
C2954 H2946 0.930 . S
C2954 C2953 1.362 . S
C2954 C2957 1.409 . S
C2955 H2947 0.930 . S
C2955 C2956 1.355 . S
C2955 C2957 1.415 . S
C2956 C2955 1.355 . S
C2956 C2958 1.419 . S
C2957 C2952 1.425 . S
C2957 C2954 1.409 . S
C2957 C2955 1.415 . S
C2958 H2948 0.930 . S
C2958 C2956 1.419 . S
C2958 C2959 1.362 . S
C2959 H2949 0.930 . S
C2959 C2952 1.409 . S
C2959 C2958 1.362 . S
H2960 C2966 0.930 . S
H2961 C2969 0.930 . S
H2962 C2970 0.930 . S
H2963 C2971 0.930 . S
H2964 C2974 0.930 . S
H2965 C2975 0.930 . S
C2966 H2960 0.930 . S
C2966 C2967 1.355 . S
C2966 C2968 1.415 . S
C2967 C2966 1.355 . S
C2967 C2969 1.419 . S
C2968 C2966 1.415 . S
C2968 C2973 1.425 . S
C2968 C2975 1.409 . S
C2969 H2961 0.930 . S
C2969 C2967 1.419 . S
C2969 C2970 1.362 . S
C2970 H2962 0.930 . S
C2970 C2969 1.362 . S
C2970 C2973 1.409 . S
C2971 H2963 0.930 . S
C2971 C2972 1.355 . S
C2971 C2973 1.415 . S
C2972 C2971 1.355 . S
C2972 C2974 1.419 . S
C2973 C2968 1.425 . S
C2973 C2970 1.409 . S
C2973 C2971 1.415 . S
C2974 H2964 0.930 . S
C2974 C2972 1.419 . S
C2974 C2975 1.362 . S
C2975 H2965 0.930 . S
C2975 C2968 1.409 . S
C2975 C2974 1.362 . S
H2976 C2982 0.930 . S
H2977 C2985 0.930 . S
H2978 C2986 0.930 . S
H2979 C2987 0.930 . S
H2980 C2990 0.930 . S
H2981 C2991 0.930 . S
C2982 H2976 0.930 . S
C2982 C2983 1.355 . S
C2982 C2984 1.415 . S
C2983 C2982 1.355 . S
C2983 C2985 1.419 . S
C2984 C2982 1.415 . S
C2984 C2989 1.425 . S
C2984 C2991 1.409 . S
C2985 H2977 0.930 . S
C2985 C2983 1.419 . S
C2985 C2986 1.362 . S
C2986 H2978 0.930 . S
C2986 C2985 1.362 . S
C2986 C2989 1.409 . S
C2987 H2979 0.930 . S
C2987 C2988 1.355 . S
C2987 C2989 1.415 . S
C2988 C2987 1.355 . S
C2988 C2990 1.419 . S
C2989 C2984 1.425 . S
C2989 C2986 1.409 . S
C2989 C2987 1.415 . S
C2990 H2980 0.930 . S
C2990 C2988 1.419 . S
C2990 C2991 1.362 . S
C2991 H2981 0.930 . S
C2991 C2984 1.409 . S
C2991 C2990 1.362 . S
H2992 C2998 0.930 . S
H2993 C3001 0.930 . S
H2994 C3002 0.930 . S
H2995 C3003 0.930 . S
H2996 C3006 0.930 . S
H2997 C3007 0.930 . S
C2998 H2992 0.930 . S
C2998 C2999 1.355 . S
C2998 C3000 1.415 . S
C2999 C2998 1.355 . S
C2999 C3001 1.419 . S
C3000 C2998 1.415 . S
C3000 C3005 1.425 . S
C3000 C3007 1.409 . S
C3001 H2993 0.930 . S
C3001 C2999 1.419 . S
C3001 C3002 1.362 . S
C3002 H2994 0.930 . S
C3002 C3001 1.362 . S
C3002 C3005 1.409 . S
C3003 H2995 0.930 . S
C3003 C3004 1.355 . S
C3003 C3005 1.415 . S
C3004 C3003 1.355 . S
C3004 C3006 1.419 . S
C3005 C3000 1.425 . S
C3005 C3002 1.409 . S
C3005 C3003 1.415 . S
C3006 H2996 0.930 . S
C3006 C3004 1.419 . S
C3006 C3007 1.362 . S
C3007 H2997 0.930 . S
C3007 C3000 1.409 . S
C3007 C3006 1.362 . S
H3008 C3014 0.930 . S
H3009 C3017 0.930 . S
H3010 C3018 0.930 . S
H3011 C3019 0.930 . S
H3012 C3022 0.930 . S
H3013 C3023 0.930 . S
C3014 H3008 0.930 . S
C3014 C3015 1.355 . S
C3014 C3016 1.415 . S
C3015 C3014 1.355 . S
C3015 C3017 1.419 . S
C3016 C3014 1.415 . S
C3016 C3021 1.425 . S
C3016 C3023 1.409 . S
C3017 H3009 0.930 . S
C3017 C3015 1.419 . S
C3017 C3018 1.362 . S
C3018 H3010 0.930 . S
C3018 C3017 1.362 . S
C3018 C3021 1.409 . S
C3019 H3011 0.930 . S
C3019 C3020 1.355 . S
C3019 C3021 1.415 . S
C3020 C3019 1.355 . S
C3020 C3022 1.419 . S
C3021 C3016 1.425 . S
C3021 C3018 1.409 . S
C3021 C3019 1.415 . S
C3022 H3012 0.930 . S
C3022 C3020 1.419 . S
C3022 C3023 1.362 . S
C3023 H3013 0.930 . S
C3023 C3016 1.409 . S
C3023 C3022 1.362 . S
H3024 C3030 0.930 . S
H3025 C3033 0.930 . S
H3026 C3034 0.930 . S
H3027 C3035 0.930 . S
H3028 C3038 0.930 . S
H3029 C3039 0.930 . S
C3030 H3024 0.930 . S
C3030 C3031 1.355 . S
C3030 C3032 1.415 . S
C3031 C3030 1.355 . S
C3031 C3033 1.419 . S
C3032 C3030 1.415 . S
C3032 C3037 1.425 . S
C3032 C3039 1.409 . S
C3033 H3025 0.930 . S
C3033 C3031 1.419 . S
C3033 C3034 1.362 . S
C3034 H3026 0.930 . S
C3034 C3033 1.362 . S
C3034 C3037 1.409 . S
C3035 H3027 0.930 . S
C3035 C3036 1.355 . S
C3035 C3037 1.415 . S
C3036 C3035 1.355 . S
C3036 C3038 1.419 . S
C3037 C3032 1.425 . S
C3037 C3034 1.409 . S
C3037 C3035 1.415 . S
C3038 H3028 0.930 . S
C3038 C3036 1.419 . S
C3038 C3039 1.362 . S
C3039 H3029 0.930 . S
C3039 C3032 1.409 . S
C3039 C3038 1.362 . S
H3040 C3046 0.930 . S
H3041 C3049 0.930 . S
H3042 C3050 0.930 . S
H3043 C3051 0.930 . S
H3044 C3054 0.930 . S
H3045 C3055 0.930 . S
C3046 H3040 0.930 . S
C3046 C3047 1.355 . S
C3046 C3048 1.415 . S
C3047 C3046 1.355 . S
C3047 C3049 1.419 . S
C3048 C3046 1.415 . S
C3048 C3053 1.425 . S
C3048 C3055 1.409 . S
C3049 H3041 0.930 . S
C3049 C3047 1.419 . S
C3049 C3050 1.362 . S
C3050 H3042 0.930 . S
C3050 C3049 1.362 . S
C3050 C3053 1.409 . S
C3051 H3043 0.930 . S
C3051 C3052 1.355 . S
C3051 C3053 1.415 . S
C3052 C3051 1.355 . S
C3052 C3054 1.419 . S
C3053 C3048 1.425 . S
C3053 C3050 1.409 . S
C3053 C3051 1.415 . S
C3054 H3044 0.930 . S
C3054 C3052 1.419 . S
C3054 C3055 1.362 . S
C3055 H3045 0.930 . S
C3055 C3048 1.409 . S
C3055 C3054 1.362 . S
H3056 C3062 0.930 . S
H3057 C3065 0.930 . S
H3058 C3066 0.930 . S
H3059 C3067 0.930 . S
H3060 C3070 0.930 . S
H3061 C3071 0.930 . S
C3062 H3056 0.930 . S
C3062 C3063 1.355 . S
C3062 C3064 1.415 . S
C3063 C3062 1.355 . S
C3063 C3065 1.419 . S
C3064 C3062 1.415 . S
C3064 C3069 1.425 . S
C3064 C3071 1.409 . S
C3065 H3057 0.930 . S
C3065 C3063 1.419 . S
C3065 C3066 1.362 . S
C3066 H3058 0.930 . S
C3066 C3065 1.362 . S
C3066 C3069 1.409 . S
C3067 H3059 0.930 . S
C3067 C3068 1.355 . S
C3067 C3069 1.415 . S
C3068 C3067 1.355 . S
C3068 C3070 1.419 . S
C3069 C3064 1.425 . S
C3069 C3066 1.409 . S
C3069 C3067 1.415 . S
C3070 H3060 0.930 . S
C3070 C3068 1.419 . S
C3070 C3071 1.362 . S
C3071 H3061 0.930 . S
C3071 C3064 1.409 . S
C3071 C3070 1.362 . S
H3072 C3078 0.930 . S
H3073 C3081 0.930 . S
H3074 C3082 0.930 . S
H3075 C3083 0.930 . S
H3076 C3086 0.930 . S
H3077 C3087 0.930 . S
C3078 H3072 0.930 . S
C3078 C3079 1.355 . S
C3078 C3080 1.415 . S
C3079 C3078 1.355 . S
C3079 C3081 1.419 . S
C3080 C3078 1.415 . S
C3080 C3085 1.425 . S
C3080 C3087 1.409 . S
C3081 H3073 0.930 . S
C3081 C3079 1.419 . S
C3081 C3082 1.362 . S
C3082 H3074 0.930 . S
C3082 C3081 1.362 . S
C3082 C3085 1.409 . S
C3083 H3075 0.930 . S
C3083 C3084 1.355 . S
C3083 C3085 1.415 . S
C3084 C3083 1.355 . S
C3084 C3086 1.419 . S
C3085 C3080 1.425 . S
C3085 C3082 1.409 . S
C3085 C3083 1.415 . S
C3086 H3076 0.930 . S
C3086 C3084 1.419 . S
C3086 C3087 1.362 . S
C3087 H3077 0.930 . S
C3087 C3080 1.409 . S
C3087 C3086 1.362 . S
H3088 C3094 0.930 . S
H3089 C3097 0.930 . S
H3090 C3098 0.930 . S
H3091 C3099 0.930 . S
H3092 C3102 0.930 . S
H3093 C3103 0.930 . S
C3094 H3088 0.930 . S
C3094 C3095 1.355 . S
C3094 C3096 1.415 . S
C3095 C3094 1.355 . S
C3095 C3097 1.419 . S
C3096 C3094 1.415 . S
C3096 C3101 1.425 . S
C3096 C3103 1.409 . S
C3097 H3089 0.930 . S
C3097 C3095 1.419 . S
C3097 C3098 1.362 . S
C3098 H3090 0.930 . S
C3098 C3097 1.362 . S
C3098 C3101 1.409 . S
C3099 H3091 0.930 . S
C3099 C3100 1.355 . S
C3099 C3101 1.415 . S
C3100 C3099 1.355 . S
C3100 C3102 1.419 . S
C3101 C3096 1.425 . S
C3101 C3098 1.409 . S
C3101 C3099 1.415 . S
C3102 H3092 0.930 . S
C3102 C3100 1.419 . S
C3102 C3103 1.362 . S
C3103 H3093 0.930 . S
C3103 C3096 1.409 . S
C3103 C3102 1.362 . S
H3104 C3110 0.930 . S
H3105 C3113 0.930 . S
H3106 C3114 0.930 . S
H3107 C3115 0.930 . S
H3108 C3118 0.930 . S
H3109 C3119 0.930 . S
C3110 H3104 0.930 . S
C3110 C3111 1.355 . S
C3110 C3112 1.415 . S
C3111 C3110 1.355 . S
C3111 C3113 1.419 . S
C3112 C3110 1.415 . S
C3112 C3117 1.425 . S
C3112 C3119 1.409 . S
C3113 H3105 0.930 . S
C3113 C3111 1.419 . S
C3113 C3114 1.362 . S
C3114 H3106 0.930 . S
C3114 C3113 1.362 . S
C3114 C3117 1.409 . S
C3115 H3107 0.930 . S
C3115 C3116 1.355 . S
C3115 C3117 1.415 . S
C3116 C3115 1.355 . S
C3116 C3118 1.419 . S
C3117 C3112 1.425 . S
C3117 C3114 1.409 . S
C3117 C3115 1.415 . S
C3118 H3108 0.930 . S
C3118 C3116 1.419 . S
C3118 C3119 1.362 . S
C3119 H3109 0.930 . S
C3119 C3112 1.409 . S
C3119 C3118 1.362 . S
H3120 C3126 0.930 . S
H3121 C3129 0.930 . S
H3122 C3130 0.930 . S
H3123 C3131 0.930 . S
H3124 C3134 0.930 . S
H3125 C3135 0.930 . S
C3126 H3120 0.930 . S
C3126 C3127 1.355 . S
C3126 C3128 1.415 . S
C3127 C3126 1.355 . S
C3127 C3129 1.419 . S
C3128 C3126 1.415 . S
C3128 C3133 1.425 . S
C3128 C3135 1.409 . S
C3129 H3121 0.930 . S
C3129 C3127 1.419 . S
C3129 C3130 1.362 . S
C3130 H3122 0.930 . S
C3130 C3129 1.362 . S
C3130 C3133 1.409 . S
C3131 H3123 0.930 . S
C3131 C3132 1.355 . S
C3131 C3133 1.415 . S
C3132 C3131 1.355 . S
C3132 C3134 1.419 . S
C3133 C3128 1.425 . S
C3133 C3130 1.409 . S
C3133 C3131 1.415 . S
C3134 H3124 0.930 . S
C3134 C3132 1.419 . S
C3134 C3135 1.362 . S
C3135 H3125 0.930 . S
C3135 C3128 1.409 . S
C3135 C3134 1.362 . S
H3136 C3142 0.930 . S
H3137 C3145 0.930 . S
H3138 C3146 0.930 . S
H3139 C3147 0.930 . S
H3140 C3150 0.930 . S
H3141 C3151 0.930 . S
C3142 H3136 0.930 . S
C3142 C3143 1.355 . S
C3142 C3144 1.415 . S
C3143 C3142 1.355 . S
C3143 C3145 1.419 . S
C3144 C3142 1.415 . S
C3144 C3149 1.425 . S
C3144 C3151 1.409 . S
C3145 H3137 0.930 . S
C3145 C3143 1.419 . S
C3145 C3146 1.362 . S
C3146 H3138 0.930 . S
C3146 C3145 1.362 . S
C3146 C3149 1.409 . S
C3147 H3139 0.930 . S
C3147 C3148 1.355 . S
C3147 C3149 1.415 . S
C3148 C3147 1.355 . S
C3148 C3150 1.419 . S
C3149 C3144 1.425 . S
C3149 C3146 1.409 . S
C3149 C3147 1.415 . S
C3150 H3140 0.930 . S
C3150 C3148 1.419 . S
C3150 C3151 1.362 . S
C3151 H3141 0.930 . S
C3151 C3144 1.409 . S
C3151 C3150 1.362 . S
H3152 C3158 0.930 . S
H3153 C3161 0.930 . S
H3154 C3162 0.930 . S
H3155 C3163 0.930 . S
H3156 C3166 0.930 . S
H3157 C3167 0.930 . S
C3158 H3152 0.930 . S
C3158 C3159 1.355 . S
C3158 C3160 1.415 . S
C3159 C3158 1.355 . S
C3159 C3161 1.419 . S
C3160 C3158 1.415 . S
C3160 C3165 1.425 . S
C3160 C3167 1.409 . S
C3161 H3153 0.930 . S
C3161 C3159 1.419 . S
C3161 C3162 1.362 . S
C3162 H3154 0.930 . S
C3162 C3161 1.362 . S
C3162 C3165 1.409 . S
C3163 H3155 0.930 . S
C3163 C3164 1.355 . S
C3163 C3165 1.415 . S
C3164 C3163 1.355 . S
C3164 C3166 1.419 . S
C3165 C3160 1.425 . S
C3165 C3162 1.409 . S
C3165 C3163 1.415 . S
C3166 H3156 0.930 . S
C3166 C3164 1.419 . S
C3166 C3167 1.362 . S
C3167 H3157 0.930 . S
C3167 C3160 1.409 . S
C3167 C3166 1.362 . S
H3168 C3174 0.930 . S
H3169 C3177 0.930 . S
H3170 C3178 0.930 . S
H3171 C3179 0.930 . S
H3172 C3182 0.930 . S
H3173 C3183 0.930 . S
C3174 H3168 0.930 . S
C3174 C3175 1.355 . S
C3174 C3176 1.415 . S
C3175 C3174 1.355 . S
C3175 C3177 1.419 . S
C3176 C3174 1.415 . S
C3176 C3181 1.425 . S
C3176 C3183 1.409 . S
C3177 H3169 0.930 . S
C3177 C3175 1.419 . S
C3177 C3178 1.362 . S
C3178 H3170 0.930 . S
C3178 C3177 1.362 . S
C3178 C3181 1.409 . S
C3179 H3171 0.930 . S
C3179 C3180 1.355 . S
C3179 C3181 1.415 . S
C3180 C3179 1.355 . S
C3180 C3182 1.419 . S
C3181 C3176 1.425 . S
C3181 C3178 1.409 . S
C3181 C3179 1.415 . S
C3182 H3172 0.930 . S
C3182 C3180 1.419 . S
C3182 C3183 1.362 . S
C3183 H3173 0.930 . S
C3183 C3176 1.409 . S
C3183 C3182 1.362 . S
H3184 C3190 0.930 . S
H3185 C3193 0.930 . S
H3186 C3194 0.930 . S
H3187 C3195 0.930 . S
H3188 C3198 0.930 . S
H3189 C3199 0.930 . S
C3190 H3184 0.930 . S
C3190 C3191 1.355 . S
C3190 C3192 1.415 . S
C3191 C3190 1.355 . S
C3191 C3193 1.419 . S
C3192 C3190 1.415 . S
C3192 C3197 1.425 . S
C3192 C3199 1.409 . S
C3193 H3185 0.930 . S
C3193 C3191 1.419 . S
C3193 C3194 1.362 . S
C3194 H3186 0.930 . S
C3194 C3193 1.362 . S
C3194 C3197 1.409 . S
C3195 H3187 0.930 . S
C3195 C3196 1.355 . S
C3195 C3197 1.415 . S
C3196 C3195 1.355 . S
C3196 C3198 1.419 . S
C3197 C3192 1.425 . S
C3197 C3194 1.409 . S
C3197 C3195 1.415 . S
C3198 H3188 0.930 . S
C3198 C3196 1.419 . S
C3198 C3199 1.362 . S
C3199 H3189 0.930 . S
C3199 C3192 1.409 . S
C3199 C3198 1.362 . S
H3200 C3206 0.930 . S
H3201 C3209 0.930 . S
H3202 C3210 0.930 . S
H3203 C3211 0.930 . S
H3204 C3214 0.930 . S
H3205 C3215 0.930 . S
C3206 H3200 0.930 . S
C3206 C3207 1.355 . S
C3206 C3208 1.415 . S
C3207 C3206 1.355 . S
C3207 C3209 1.419 . S
C3208 C3206 1.415 . S
C3208 C3213 1.425 . S
C3208 C3215 1.409 . S
C3209 H3201 0.930 . S
C3209 C3207 1.419 . S
C3209 C3210 1.362 . S
C3210 H3202 0.930 . S
C3210 C3209 1.362 . S
C3210 C3213 1.409 . S
C3211 H3203 0.930 . S
C3211 C3212 1.355 . S
C3211 C3213 1.415 . S
C3212 C3211 1.355 . S
C3212 C3214 1.419 . S
C3213 C3208 1.425 . S
C3213 C3210 1.409 . S
C3213 C3211 1.415 . S
C3214 H3204 0.930 . S
C3214 C3212 1.419 . S
C3214 C3215 1.362 . S
C3215 H3205 0.930 . S
C3215 C3208 1.409 . S
C3215 C3214 1.362 . S
H3216 C3222 0.930 . S
H3217 C3225 0.930 . S
H3218 C3226 0.930 . S
H3219 C3227 0.930 . S
H3220 C3230 0.930 . S
H3221 C3231 0.930 . S
C3222 H3216 0.930 . S
C3222 C3223 1.355 . S
C3222 C3224 1.415 . S
C3223 C3222 1.355 . S
C3223 C3225 1.419 . S
C3224 C3222 1.415 . S
C3224 C3229 1.425 . S
C3224 C3231 1.409 . S
C3225 H3217 0.930 . S
C3225 C3223 1.419 . S
C3225 C3226 1.362 . S
C3226 H3218 0.930 . S
C3226 C3225 1.362 . S
C3226 C3229 1.409 . S
C3227 H3219 0.930 . S
C3227 C3228 1.355 . S
C3227 C3229 1.415 . S
C3228 C3227 1.355 . S
C3228 C3230 1.419 . S
C3229 C3224 1.425 . S
C3229 C3226 1.409 . S
C3229 C3227 1.415 . S
C3230 H3220 0.930 . S
C3230 C3228 1.419 . S
C3230 C3231 1.362 . S
C3231 H3221 0.930 . S
C3231 C3224 1.409 . S
C3231 C3230 1.362 . S
H3232 C3238 0.930 . S
H3233 C3241 0.930 . S
H3234 C3242 0.930 . S
H3235 C3243 0.930 . S
H3236 C3246 0.930 . S
H3237 C3247 0.930 1_556 S
C3238 H3232 0.930 . S
C3238 C3239 1.355 . S
C3238 C3240 1.415 . S
C3239 C3238 1.355 . S
C3239 C3241 1.419 . S
C3240 C3238 1.415 . S
C3240 C3245 1.425 . S
C3240 C3247 1.409 1_556 S
C3241 H3233 0.930 . S
C3241 C3239 1.419 . S
C3241 C3242 1.362 . S
C3242 H3234 0.930 . S
C3242 C3241 1.362 . S
C3242 C3245 1.409 . S
C3243 H3235 0.930 . S
C3243 C3244 1.355 . S
C3243 C3245 1.415 1_554 S
C3244 C3243 1.355 . S
C3244 C3246 1.419 . S
C3245 C3240 1.425 . S
C3245 C3242 1.409 . S
C3245 C3243 1.415 1_556 S
C3246 H3236 0.930 . S
C3246 C3244 1.419 . S
C3246 C3247 1.362 . S
C3247 H3237 0.930 1_554 S
C3247 C3240 1.409 1_554 S
C3247 C3246 1.362 . S
H3248 C3254 0.930 . S
H3249 C3257 0.930 . S
H3250 C3258 0.930 . S
H3251 C3259 0.930 . S
H3252 C3262 0.930 . S
H3253 C3263 0.930 . S
C3254 H3248 0.930 . S
C3254 C3255 1.355 . S
C3254 C3256 1.415 . S
C3255 C3254 1.355 . S
C3255 C3257 1.419 . S
C3256 C3254 1.415 . S
C3256 C3261 1.425 . S
C3256 C3263 1.409 . S
C3257 H3249 0.930 . S
C3257 C3255 1.419 . S
C3257 C3258 1.362 . S
C3258 H3250 0.930 . S
C3258 C3257 1.362 . S
C3258 C3261 1.409 . S
C3259 H3251 0.930 . S
C3259 C3260 1.355 . S
C3259 C3261 1.415 . S
C3260 C3259 1.355 . S
C3260 C3262 1.419 . S
C3261 C3256 1.425 . S
C3261 C3258 1.409 . S
C3261 C3259 1.415 . S
C3262 H3252 0.930 . S
C3262 C3260 1.419 . S
C3262 C3263 1.362 . S
C3263 H3253 0.930 . S
C3263 C3256 1.409 . S
C3263 C3262 1.362 . S
H3264 C3270 0.930 . S
H3265 C3273 0.930 . S
H3266 C3274 0.930 . S
H3267 C3275 0.930 . S
H3268 C3278 0.930 . S
H3269 C3279 0.930 . S
C3270 H3264 0.930 . S
C3270 C3271 1.355 . S
C3270 C3272 1.415 . S
C3271 C3270 1.355 . S
C3271 C3273 1.419 . S
C3272 C3270 1.415 . S
C3272 C3277 1.425 1_556 S
C3272 C3279 1.409 1_556 S
C3273 H3265 0.930 . S
C3273 C3271 1.419 . S
C3273 C3274 1.362 . S
C3274 H3266 0.930 . S
C3274 C3273 1.362 . S
C3274 C3277 1.409 1_556 S
C3275 H3267 0.930 . S
C3275 C3276 1.355 . S
C3275 C3277 1.415 . S
C3276 C3275 1.355 . S
C3276 C3278 1.419 . S
C3277 C3272 1.425 1_554 S
C3277 C3274 1.409 1_554 S
C3277 C3275 1.415 . S
C3278 H3268 0.930 . S
C3278 C3276 1.419 . S
C3278 C3279 1.362 . S
C3279 H3269 0.930 . S
C3279 C3272 1.409 1_554 S
C3279 C3278 1.362 . S
H3280 C3286 0.930 . S
H3281 C3289 0.930 . S
H3282 C3290 0.930 . S
H3283 C3291 0.930 . S
H3284 C3294 0.930 . S
H3285 C3295 0.930 . S
C3286 H3280 0.930 . S
C3286 C3287 1.355 . S
C3286 C3288 1.415 . S
C3287 C3286 1.355 . S
C3287 C3289 1.419 . S
C3288 C3286 1.415 . S
C3288 C3293 1.425 . S
C3288 C3295 1.409 . S
C3289 H3281 0.930 . S
C3289 C3287 1.419 . S
C3289 C3290 1.362 . S
C3290 H3282 0.930 . S
C3290 C3289 1.362 . S
C3290 C3293 1.409 . S
C3291 H3283 0.930 . S
C3291 C3292 1.355 . S
C3291 C3293 1.415 . S
C3292 C3291 1.355 . S
C3292 C3294 1.419 . S
C3293 C3288 1.425 . S
C3293 C3290 1.409 . S
C3293 C3291 1.415 . S
C3294 H3284 0.930 . S
C3294 C3292 1.419 . S
C3294 C3295 1.362 . S
C3295 H3285 0.930 . S
C3295 C3288 1.409 . S
C3295 C3294 1.362 . S
H3296 C3302 0.930 . S
H3297 C3305 0.930 . S
H3298 C3306 0.930 . S
H3299 C3307 0.930 . S
H3300 C3310 0.930 . S
H3301 C3311 0.930 . S
C3302 H3296 0.930 . S
C3302 C3303 1.355 . S
C3302 C3304 1.415 1_556 S
C3303 C3302 1.355 . S
C3303 C3305 1.419 . S
C3304 C3302 1.415 1_554 S
C3304 C3309 1.425 . S
C3304 C3311 1.409 . S
C3305 H3297 0.930 . S
C3305 C3303 1.419 . S
C3305 C3306 1.362 1_556 S
C3306 H3298 0.930 . S
C3306 C3305 1.362 1_554 S
C3306 C3309 1.409 . S
C3307 H3299 0.930 . S
C3307 C3308 1.355 . S
C3307 C3309 1.415 . S
C3308 C3307 1.355 . S
C3308 C3310 1.419 . S
C3309 C3304 1.425 . S
C3309 C3306 1.409 . S
C3309 C3307 1.415 . S
C3310 H3300 0.930 . S
C3310 C3308 1.419 . S
C3310 C3311 1.362 . S
C3311 H3301 0.930 . S
C3311 C3304 1.409 . S
C3311 C3310 1.362 . S
H3312 C3318 0.930 . S
H3313 C3321 0.930 . S
H3314 C3322 0.930 . S
H3315 C3323 0.930 . S
H3316 C3326 0.930 . S
H3317 C3327 0.930 . S
C3318 H3312 0.930 . S
C3318 C3319 1.355 . S
C3318 C3320 1.415 . S
C3319 C3318 1.355 . S
C3319 C3321 1.419 . S
C3320 C3318 1.415 . S
C3320 C3325 1.425 . S
C3320 C3327 1.409 . S
C3321 H3313 0.930 . S
C3321 C3319 1.419 . S
C3321 C3322 1.362 . S
C3322 H3314 0.930 . S
C3322 C3321 1.362 . S
C3322 C3325 1.409 . S
C3323 H3315 0.930 . S
C3323 C3324 1.355 . S
C3323 C3325 1.415 . S
C3324 C3323 1.355 . S
C3324 C3326 1.419 . S
C3325 C3320 1.425 . S
C3325 C3322 1.409 . S
C3325 C3323 1.415 . S
C3326 H3316 0.930 . S
C3326 C3324 1.419 . S
C3326 C3327 1.362 . S
C3327 H3317 0.930 . S
C3327 C3320 1.409 . S
C3327 C3326 1.362 . S
H3328 C3334 0.930 . S
H3329 C3337 0.930 . S
H3330 C3338 0.930 . S
H3331 C3339 0.930 . S
H3332 C3342 0.930 . S
H3333 C3343 0.930 . S
C3334 H3328 0.930 . S
C3334 C3335 1.355 . S
C3334 C3336 1.415 . S
C3335 C3334 1.355 . S
C3335 C3337 1.419 . S
C3336 C3334 1.415 . S
C3336 C3341 1.435 . S
C3336 C3343 1.409 1_556 S
C3337 H3329 0.930 . S
C3337 C3335 1.419 . S
C3337 C3338 1.362 . S
C3338 H3330 0.930 . S
C3338 C3337 1.362 . S
C3338 C3341 1.432 . S
C3339 H3331 0.930 . S
C3339 C3340 1.355 . S
C3339 C3341 1.383 1_554 S
C3340 C3339 1.355 . S
C3340 C3342 1.419 . S
C3341 C3336 1.435 . S
C3341 C3338 1.432 . S
C3341 C3339 1.383 1_556 S
C3342 H3332 0.930 . S
C3342 C3340 1.419 . S
C3342 C3343 1.362 . S
C3343 H3333 0.930 . S
C3343 C3336 1.409 1_554 S
C3343 C3342 1.362 . S
H3344 C3350 0.930 . S
H3345 C3353 0.930 . S
H3346 C3354 0.930 . S
H3347 C3355 0.930 . S
H3348 C3358 0.930 . S
H3349 C3359 0.930 . S
C3350 H3344 0.930 . S
C3350 C3351 1.355 . S
C3350 C3352 1.415 . S
C3351 C3350 1.355 . S
C3351 C3353 1.419 . S
C3352 C3350 1.415 . S
C3352 C3357 1.425 . S
C3352 C3359 1.409 . S
C3353 H3345 0.930 . S
C3353 C3351 1.419 . S
C3353 C3354 1.362 . S
C3354 H3346 0.930 . S
C3354 C3353 1.362 . S
C3354 C3357 1.409 . S
C3355 H3347 0.930 . S
C3355 C3356 1.355 . S
C3355 C3357 1.415 . S
C3356 C3355 1.355 . S
C3356 C3358 1.419 . S
C3357 C3352 1.425 . S
C3357 C3354 1.409 . S
C3357 C3355 1.415 . S
C3358 H3348 0.930 . S
C3358 C3356 1.419 . S
C3358 C3359 1.362 . S
C3359 H3349 0.930 . S
C3359 C3352 1.409 . S
C3359 C3358 1.362 . S
H3360 C3366 0.930 . S
H3361 C3369 0.930 . S
H3362 C3370 0.930 . S
H3363 C3371 0.930 . S
H3364 C3374 0.930 . S
H3365 C3375 0.930 1_565 S
C3366 H3360 0.930 . S
C3366 C3367 1.355 . S
C3366 C3368 1.415 . S
C3367 C3366 1.355 . S
C3367 C3369 1.419 . S
C3368 C3366 1.415 . S
C3368 C3373 1.425 . S
C3368 C3375 1.409 1_565 S
C3369 H3361 0.930 . S
C3369 C3367 1.419 . S
C3369 C3370 1.362 . S
C3370 H3362 0.930 . S
C3370 C3369 1.362 . S
C3370 C3373 1.409 . S
C3371 H3363 0.930 . S
C3371 C3372 1.355 . S
C3371 C3373 1.415 1_545 S
C3372 C3371 1.355 . S
C3372 C3374 1.419 . S
C3373 C3368 1.425 . S
C3373 C3370 1.409 . S
C3373 C3371 1.415 1_565 S
C3374 H3364 0.930 . S
C3374 C3372 1.419 . S
C3374 C3375 1.362 . S
C3375 H3365 0.930 1_545 S
C3375 C3368 1.409 1_545 S
C3375 C3374 1.362 . S
H3376 C3382 0.930 . S
H3377 C3385 0.930 . S
H3378 C3386 0.930 . S
H3379 C3387 0.930 . S
H3380 C3390 0.930 . S
H3381 C3391 0.930 . S
C3382 H3376 0.930 . S
C3382 C3383 1.355 . S
C3382 C3384 1.415 . S
C3383 C3382 1.355 . S
C3383 C3385 1.419 . S
C3384 C3382 1.415 . S
C3384 C3389 1.425 . S
C3384 C3391 1.409 . S
C3385 H3377 0.930 . S
C3385 C3383 1.419 . S
C3385 C3386 1.362 . S
C3386 H3378 0.930 . S
C3386 C3385 1.362 . S
C3386 C3389 1.409 . S
C3387 H3379 0.930 . S
C3387 C3388 1.355 . S
C3387 C3389 1.415 . S
C3388 C3387 1.355 . S
C3388 C3390 1.419 . S
C3389 C3384 1.425 . S
C3389 C3386 1.409 . S
C3389 C3387 1.415 . S
C3390 H3380 0.930 . S
C3390 C3388 1.419 . S
C3390 C3391 1.362 . S
C3391 H3381 0.930 . S
C3391 C3384 1.409 . S
C3391 C3390 1.362 . S
H3392 C3398 0.930 . S
H3393 C3401 0.930 . S
H3394 C3402 0.930 . S
H3395 C3403 0.930 . S
H3396 C3406 0.930 . S
H3397 C3407 0.930 . S
C3398 H3392 0.930 . S
C3398 C3399 1.355 . S
C3398 C3400 1.415 . S
C3399 C3398 1.355 . S
C3399 C3401 1.419 . S
C3400 C3398 1.415 . S
C3400 C3405 1.415 1_545 S
C3400 C3407 1.409 1_545 S
C3401 H3393 0.930 . S
C3401 C3399 1.419 . S
C3401 C3402 1.362 . S
C3402 H3394 0.930 . S
C3402 C3401 1.362 . S
C3402 C3405 1.388 1_545 S
C3403 H3395 0.930 . S
C3403 C3404 1.355 . S
C3403 C3405 1.446 . S
C3404 C3403 1.355 . S
C3404 C3406 1.419 . S
C3405 C3400 1.415 1_565 S
C3405 C3402 1.388 1_565 S
C3405 C3403 1.446 . S
C3406 H3396 0.930 . S
C3406 C3404 1.419 . S
C3406 C3407 1.362 . S
C3407 H3397 0.930 . S
C3407 C3400 1.409 1_565 S
C3407 C3406 1.362 . S
H3408 C3414 0.930 . S
H3409 C3417 0.930 . S
H3410 C3418 0.930 . S
H3411 C3419 0.930 . S
H3412 C3422 0.930 . S
H3413 C3423 0.930 . S
C3414 H3408 0.930 . S
C3414 C3415 1.355 . S
C3414 C3416 1.415 . S
C3415 C3414 1.355 . S
C3415 C3417 1.419 . S
C3416 C3414 1.415 . S
C3416 C3421 1.425 . S
C3416 C3423 1.409 . S
C3417 H3409 0.930 . S
C3417 C3415 1.419 . S
C3417 C3418 1.362 . S
C3418 H3410 0.930 . S
C3418 C3417 1.362 . S
C3418 C3421 1.409 . S
C3419 H3411 0.930 . S
C3419 C3420 1.355 . S
C3419 C3421 1.415 . S
C3420 C3419 1.355 . S
C3420 C3422 1.419 . S
C3421 C3416 1.425 . S
C3421 C3418 1.409 . S
C3421 C3419 1.415 . S
C3422 H3412 0.930 . S
C3422 C3420 1.419 . S
C3422 C3423 1.362 . S
C3423 H3413 0.930 . S
C3423 C3416 1.409 . S
C3423 C3422 1.362 . S
H3424 C3430 0.930 . S
H3425 C3433 0.930 . S
H3426 C3434 0.930 . S
H3427 C3435 0.930 . S
H3428 C3438 0.930 . S
H3429 C3439 0.930 . S
C3430 H3424 0.930 . S
C3430 C3431 1.355 . S
C3430 C3432 1.415 . S
C3431 C3430 1.355 . S
C3431 C3433 1.419 . S
C3432 C3430 1.415 . S
C3432 C3437 1.425 1_565 S
C3432 C3439 1.409 1_565 S
C3433 H3425 0.930 . S
C3433 C3431 1.419 . S
C3433 C3434 1.362 . S
C3434 H3426 0.930 . S
C3434 C3433 1.362 . S
C3434 C3437 1.409 1_565 S
C3435 H3427 0.930 . S
C3435 C3436 1.355 . S
C3435 C3437 1.415 . S
C3436 C3435 1.355 . S
C3436 C3438 1.419 . S
C3437 C3432 1.425 1_545 S
C3437 C3434 1.409 1_545 S
C3437 C3435 1.415 . S
C3438 H3428 0.930 . S
C3438 C3436 1.419 . S
C3438 C3439 1.362 . S
C3439 H3429 0.930 . S
C3439 C3432 1.409 1_545 S
C3439 C3438 1.362 . S
H3440 C3446 0.930 . S
H3441 C3449 0.930 . S
H3442 C3450 0.930 . S
H3443 C3451 0.930 . S
H3444 C3454 0.930 . S
H3445 C3455 0.930 . S
C3446 H3440 0.930 . S
C3446 C3447 1.355 . S
C3446 C3448 1.415 . S
C3447 C3446 1.355 . S
C3447 C3449 1.419 . S
C3448 C3446 1.415 . S
C3448 C3453 1.425 . S
C3448 C3455 1.409 . S
C3449 H3441 0.930 . S
C3449 C3447 1.419 . S
C3449 C3450 1.362 . S
C3450 H3442 0.930 . S
C3450 C3449 1.362 . S
C3450 C3453 1.409 . S
C3451 H3443 0.930 . S
C3451 C3452 1.355 . S
C3451 C3453 1.415 . S
C3452 C3451 1.355 . S
C3452 C3454 1.419 . S
C3453 C3448 1.425 . S
C3453 C3450 1.409 . S
C3453 C3451 1.415 . S
C3454 H3444 0.930 . S
C3454 C3452 1.419 . S
C3454 C3455 1.362 . S
C3455 H3445 0.930 . S
C3455 C3448 1.409 . S
C3455 C3454 1.362 . S
H3456 C3462 0.930 . S
H3457 C3465 0.930 . S
H3458 C3466 0.930 . S
H3459 C3467 0.930 . S
H3460 C3470 0.930 . S
H3461 C3471 0.930 . S
C3462 H3456 0.930 . S
C3462 C3463 1.355 . S
C3462 C3464 1.415 . S
C3463 C3462 1.355 . S
C3463 C3465 1.419 . S
C3464 C3462 1.415 . S
C3464 C3469 1.425 1_565 S
C3464 C3471 1.409 1_565 S
C3465 H3457 0.930 . S
C3465 C3463 1.419 . S
C3465 C3466 1.362 . S
C3466 H3458 0.930 . S
C3466 C3465 1.362 . S
C3466 C3469 1.409 1_565 S
C3467 H3459 0.930 . S
C3467 C3468 1.355 . S
C3467 C3469 1.415 . S
C3468 C3467 1.355 . S
C3468 C3470 1.419 . S
C3469 C3464 1.425 1_545 S
C3469 C3466 1.409 1_545 S
C3469 C3467 1.415 . S
C3470 H3460 0.930 . S
C3470 C3468 1.419 . S
C3470 C3471 1.362 . S
C3471 H3461 0.930 . S
C3471 C3464 1.409 1_545 S
C3471 C3470 1.362 . S
H3472 C3478 0.930 . S
H3473 C3481 0.930 . S
H3474 C3482 0.930 . S
H3475 C3483 0.930 . S
H3476 C3486 0.930 . S
H3477 C3487 0.930 . S
C3478 H3472 0.930 . S
C3478 C3479 1.355 . S
C3478 C3480 1.415 . S
C3479 C3478 1.355 . S
C3479 C3481 1.419 . S
C3480 C3478 1.415 . S
C3480 C3485 1.425 . S
C3480 C3487 1.409 . S
C3481 H3473 0.930 . S
C3481 C3479 1.419 . S
C3481 C3482 1.362 . S
C3482 H3474 0.930 . S
C3482 C3481 1.362 . S
C3482 C3485 1.409 . S
C3483 H3475 0.930 . S
C3483 C3484 1.355 . S
C3483 C3485 1.415 . S
C3484 C3483 1.355 . S
C3484 C3486 1.419 . S
C3485 C3480 1.425 . S
C3485 C3482 1.409 . S
C3485 C3483 1.415 . S
C3486 H3476 0.930 . S
C3486 C3484 1.419 . S
C3486 C3487 1.362 . S
C3487 H3477 0.930 . S
C3487 C3480 1.409 . S
C3487 C3486 1.362 . S
H3488 C3494 0.930 . S
H3489 C3497 0.930 . S
H3490 C3498 0.930 . S
H3491 C3499 0.930 . S
H3492 C3502 0.930 . S
H3493 C3503 0.930 . S
C3494 H3488 0.930 . S
C3494 C3495 1.355 . S
C3494 C3496 1.415 . S
C3495 C3494 1.355 . S
C3495 C3497 1.419 . S
C3496 C3494 1.415 . S
C3496 C3501 1.425 . S
C3496 C3503 1.409 . S
C3497 H3489 0.930 . S
C3497 C3495 1.419 . S
C3497 C3498 1.362 . S
C3498 H3490 0.930 . S
C3498 C3497 1.362 . S
C3498 C3501 1.409 . S
C3499 H3491 0.930 . S
C3499 C3500 1.355 . S
C3499 C3501 1.415 . S
C3500 C3499 1.355 . S
C3500 C3502 1.419 . S
C3501 C3496 1.425 . S
C3501 C3498 1.409 . S
C3501 C3499 1.415 . S
C3502 H3492 0.930 . S
C3502 C3500 1.419 . S
C3502 C3503 1.362 . S
C3503 H3493 0.930 . S
C3503 C3496 1.409 . S
C3503 C3502 1.362 . S
H3504 C3510 0.930 . S
H3505 C3513 0.930 . S
H3506 C3514 0.930 . S
H3507 C3515 0.930 . S
H3508 C3518 0.930 . S
H3509 C3519 0.930 . S
C3510 H3504 0.930 . S
C3510 C3511 1.355 . S
C3510 C3512 1.415 . S
C3511 C3510 1.355 . S
C3511 C3513 1.419 . S
C3512 C3510 1.415 . S
C3512 C3517 1.425 . S
C3512 C3519 1.409 . S
C3513 H3505 0.930 . S
C3513 C3511 1.419 . S
C3513 C3514 1.362 . S
C3514 H3506 0.930 . S
C3514 C3513 1.362 . S
C3514 C3517 1.409 . S
C3515 H3507 0.930 . S
C3515 C3516 1.355 . S
C3515 C3517 1.415 1_655 S
C3516 C3515 1.355 . S
C3516 C3518 1.419 . S
C3517 C3512 1.425 . S
C3517 C3514 1.409 . S
C3517 C3515 1.415 1_455 S
C3518 H3508 0.930 . S
C3518 C3516 1.419 . S
C3518 C3519 1.362 1_655 S
C3519 H3509 0.930 . S
C3519 C3512 1.409 . S
C3519 C3518 1.362 1_455 S
H3520 C3526 0.930 . S
H3521 C3529 0.930 . S
H3522 C3530 0.930 . S
H3523 C3531 0.930 . S
H3524 C3534 0.930 . S
H3525 C3535 0.930 . S
C3526 H3520 0.930 . S
C3526 C3527 1.355 . S
C3526 C3528 1.415 . S
C3527 C3526 1.355 . S
C3527 C3529 1.419 . S
C3528 C3526 1.415 . S
C3528 C3533 1.425 . S
C3528 C3535 1.409 . S
C3529 H3521 0.930 . S
C3529 C3527 1.419 . S
C3529 C3530 1.362 . S
C3530 H3522 0.930 . S
C3530 C3529 1.362 . S
C3530 C3533 1.409 . S
C3531 H3523 0.930 . S
C3531 C3532 1.355 . S
C3531 C3533 1.415 . S
C3532 C3531 1.355 . S
C3532 C3534 1.419 . S
C3533 C3528 1.425 . S
C3533 C3530 1.409 . S
C3533 C3531 1.415 . S
C3534 H3524 0.930 . S
C3534 C3532 1.419 . S
C3534 C3535 1.362 . S
C3535 H3525 0.930 . S
C3535 C3528 1.409 . S
C3535 C3534 1.362 . S
H3536 C3542 0.930 . S
H3537 C3545 0.930 . S
H3538 C3546 0.930 . S
H3539 C3547 0.930 . S
H3540 C3550 0.930 . S
H3541 C3551 0.930 . S
C3542 H3536 0.930 . S
C3542 C3543 1.355 . S
C3542 C3544 1.415 1_455 S
C3543 C3542 1.355 . S
C3543 C3545 1.419 . S
C3544 C3542 1.415 1_655 S
C3544 C3549 1.425 . S
C3544 C3551 1.409 . S
C3545 H3537 0.930 . S
C3545 C3543 1.419 . S
C3545 C3546 1.362 1_455 S
C3546 H3538 0.930 . S
C3546 C3545 1.362 1_655 S
C3546 C3549 1.409 . S
C3547 H3539 0.930 . S
C3547 C3548 1.355 . S
C3547 C3549 1.415 . S
C3548 C3547 1.355 . S
C3548 C3550 1.419 . S
C3549 C3544 1.425 . S
C3549 C3546 1.409 . S
C3549 C3547 1.415 . S
C3550 H3540 0.930 . S
C3550 C3548 1.419 . S
C3550 C3551 1.362 . S
C3551 H3541 0.930 . S
C3551 C3544 1.409 . S
C3551 C3550 1.362 . S
H3552 C3558 0.930 . S
H3553 C3561 0.930 . S
H3554 C3562 0.930 . S
H3555 C3563 0.930 . S
H3556 C3566 0.930 . S
H3557 C3567 0.930 . S
C3558 H3552 0.930 . S
C3558 C3559 1.355 . S
C3558 C3560 1.415 . S
C3559 C3558 1.355 . S
C3559 C3561 1.419 . S
C3560 C3558 1.415 . S
C3560 C3565 1.425 . S
C3560 C3567 1.409 . S
C3561 H3553 0.930 . S
C3561 C3559 1.419 . S
C3561 C3562 1.362 . S
C3562 H3554 0.930 . S
C3562 C3561 1.362 . S
C3562 C3565 1.409 . S
C3563 H3555 0.930 . S
C3563 C3564 1.355 . S
C3563 C3565 1.415 . S
C3564 C3563 1.355 . S
C3564 C3566 1.419 . S
C3565 C3560 1.425 . S
C3565 C3562 1.409 . S
C3565 C3563 1.415 . S
C3566 H3556 0.930 . S
C3566 C3564 1.419 . S
C3566 C3567 1.362 . S
C3567 H3557 0.930 . S
C3567 C3560 1.409 . S
C3567 C3566 1.362 . S
H3568 C3574 0.930 . S
H3569 C3577 0.930 . S
H3570 C3578 0.930 . S
H3571 C3579 0.930 . S
H3572 C3582 0.930 . S
H3573 C3583 0.930 . S
C3574 H3568 0.930 . S
C3574 C3575 1.355 . S
C3574 C3576 1.415 . S
C3575 C3574 1.355 . S
C3575 C3577 1.419 . S
C3576 C3574 1.415 . S
C3576 C3581 1.425 . S
C3576 C3583 1.409 . S
C3577 H3569 0.930 . S
C3577 C3575 1.419 . S
C3577 C3578 1.362 . S
C3578 H3570 0.930 . S
C3578 C3577 1.362 . S
C3578 C3581 1.409 . S
C3579 H3571 0.930 . S
C3579 C3580 1.355 . S
C3579 C3581 1.415 1_455 S
C3580 C3579 1.355 . S
C3580 C3582 1.419 . S
C3581 C3576 1.425 . S
C3581 C3578 1.409 . S
C3581 C3579 1.415 1_655 S
C3582 H3572 0.930 . S
C3582 C3580 1.419 . S
C3582 C3583 1.362 1_455 S
C3583 H3573 0.930 . S
C3583 C3576 1.409 . S
C3583 C3582 1.362 1_655 S
H3584 C3590 0.930 . S
H3585 C3593 0.930 . S
H3586 C3594 0.930 . S
H3587 C3595 0.930 . S
H3588 C3598 0.930 . S
H3589 C3599 0.930 . S
C3590 H3584 0.930 . S
C3590 C3591 1.355 . S
C3590 C3592 1.415 . S
C3591 C3590 1.355 . S
C3591 C3593 1.419 . S
C3592 C3590 1.415 . S
C3592 C3597 1.425 . S
C3592 C3599 1.409 . S
C3593 H3585 0.930 . S
C3593 C3591 1.419 . S
C3593 C3594 1.362 . S
C3594 H3586 0.930 . S
C3594 C3593 1.362 . S
C3594 C3597 1.409 . S
C3595 H3587 0.930 . S
C3595 C3596 1.355 . S
C3595 C3597 1.415 1_655 S
C3596 C3595 1.355 . S
C3596 C3598 1.419 . S
C3597 C3592 1.425 . S
C3597 C3594 1.409 . S
C3597 C3595 1.415 1_455 S
C3598 H3588 0.930 . S
C3598 C3596 1.419 . S
C3598 C3599 1.362 1_655 S
C3599 H3589 0.930 . S
C3599 C3592 1.409 . S
C3599 C3598 1.362 1_455 S
H3600 C3606 0.930 . S
H3601 C3609 0.930 . S
H3602 C3610 0.930 . S
H3603 C3611 0.930 . S
H3604 C3614 0.930 . S
H3605 C3615 0.932 1_655 S
C3606 H3600 0.930 . S
C3606 C3607 1.355 . S
C3606 C3608 1.415 . S
C3607 C3606 1.355 . S
C3607 C3609 1.419 . S
C3608 C3606 1.415 . S
C3608 C3613 1.425 . S
C3608 C3615 1.412 1_655 S
C3609 H3601 0.930 . S
C3609 C3607 1.419 . S
C3609 C3610 1.362 . S
C3610 H3602 0.930 . S
C3610 C3609 1.362 . S
C3610 C3613 1.409 . S
C3611 H3603 0.930 . S
C3611 C3612 1.355 . S
C3611 C3613 1.415 1_455 S
C3612 C3611 1.355 . S
C3612 C3614 1.419 . S
C3613 C3608 1.425 . S
C3613 C3610 1.409 . S
C3613 C3611 1.415 1_655 S
C3614 H3604 0.930 . S
C3614 C3612 1.419 . S
C3614 C3615 1.357 . S
C3615 H3605 0.932 1_455 S
C3615 C3608 1.412 1_455 S
C3615 C3614 1.357 . S
H3616 C3622 0.930 . S
H3617 C3625 0.930 . S
H3618 C3626 0.930 . S
H3619 C3627 0.930 . S
H3620 C3630 0.930 . S
H3621 C3631 0.930 . S
C3622 H3616 0.930 . S
C3622 C3623 1.355 . S
C3622 C3624 1.415 . S
C3623 C3622 1.355 . S
C3623 C3625 1.419 . S
C3624 C3622 1.415 . S
C3624 C3629 1.425 . S
C3624 C3631 1.409 . S
C3625 H3617 0.930 . S
C3625 C3623 1.419 . S
C3625 C3626 1.362 . S
C3626 H3618 0.930 . S
C3626 C3625 1.362 . S
C3626 C3629 1.409 . S
C3627 H3619 0.930 . S
C3627 C3628 1.355 . S
C3627 C3629 1.415 . S
C3628 C3627 1.355 . S
C3628 C3630 1.419 . S
C3629 C3624 1.425 . S
C3629 C3626 1.409 . S
C3629 C3627 1.415 . S
C3630 H3620 0.930 . S
C3630 C3628 1.419 . S
C3630 C3631 1.362 . S
C3631 H3621 0.930 . S
C3631 C3624 1.409 . S
C3631 C3630 1.362 . S
H3632 C3638 0.930 . S
H3633 C3641 0.930 . S
H3634 C3642 0.930 . S
H3635 C3643 0.930 . S
H3636 C3646 0.930 . S
H3637 C3647 0.939 . S
C3638 H3632 0.930 . S
C3638 C3639 1.355 . S
C3638 C3640 1.415 . S
C3639 C3638 1.355 . S
C3639 C3641 1.419 . S
C3640 C3638 1.415 . S
C3640 C3645 1.425 . S
C3640 C3647 1.409 1_455 S
C3641 H3633 0.930 . S
C3641 C3639 1.419 . S
C3641 C3642 1.362 . S
C3642 H3634 0.930 . S
C3642 C3641 1.362 . S
C3642 C3645 1.409 . S
C3643 H3635 0.930 . S
C3643 C3644 1.355 . S
C3643 C3645 1.415 1_655 S
C3644 C3643 1.355 . S
C3644 C3646 1.419 . S
C3645 C3640 1.425 . S
C3645 C3642 1.409 . S
C3645 C3643 1.415 1_455 S
C3646 H3636 0.930 . S
C3646 C3644 1.419 . S
C3646 C3647 1.362 . S
C3647 H3637 0.939 . S
C3647 C3640 1.409 1_655 S
C3647 C3646 1.362 . S
H3648 C3654 0.930 . S
H3649 C3657 0.930 . S
H3650 C3658 0.930 . S
H3651 C3659 0.930 . S
H3652 C3662 0.930 . S
H3653 C3663 0.930 . S
C3654 H3648 0.930 . S
C3654 C3655 1.355 . S
C3654 C3656 1.415 . S
C3655 C3654 1.355 . S
C3655 C3657 1.419 . S
C3656 C3654 1.415 . S
C3656 C3661 1.425 . S
C3656 C3663 1.409 . S
C3657 H3649 0.930 . S
C3657 C3655 1.419 . S
C3657 C3658 1.362 . S
C3658 H3650 0.930 . S
C3658 C3657 1.362 . S
C3658 C3661 1.409 . S
C3659 H3651 0.930 . S
C3659 C3660 1.355 . S
C3659 C3661 1.415 . S
C3660 C3659 1.355 . S
C3660 C3662 1.419 . S
C3661 C3656 1.425 . S
C3661 C3658 1.409 . S
C3661 C3659 1.415 . S
C3662 H3652 0.930 . S
C3662 C3660 1.419 . S
C3662 C3663 1.362 . S
C3663 H3653 0.930 . S
C3663 C3656 1.409 . S
C3663 C3662 1.362 . S
H3664 C3670 0.930 . S
H3665 C3673 0.930 . S
H3666 C3674 0.930 . S
H3667 C3675 0.930 . S
H3668 C3678 0.930 . S
H3669 C3679 0.930 . S
C3670 H3664 0.930 . S
C3670 C3671 1.355 . S
C3670 C3672 1.415 1_655 S
C3671 C3670 1.355 . S
C3671 C3673 1.419 . S
C3672 C3670 1.415 1_455 S
C3672 C3677 1.425 . S
C3672 C3679 1.409 . S
C3673 H3665 0.930 . S
C3673 C3671 1.419 . S
C3673 C3674 1.362 1_655 S
C3674 H3666 0.930 . S
C3674 C3673 1.362 1_455 S
C3674 C3677 1.409 . S
C3675 H3667 0.930 . S
C3675 C3676 1.355 . S
C3675 C3677 1.415 . S
C3676 C3675 1.355 . S
C3676 C3678 1.419 . S
C3677 C3672 1.425 . S
C3677 C3674 1.409 . S
C3677 C3675 1.415 . S
C3678 H3668 0.930 . S
C3678 C3676 1.419 . S
C3678 C3679 1.362 . S
C3679 H3669 0.930 . S
C3679 C3672 1.409 . S
C3679 C3678 1.362 . S
H3680 C3686 0.930 . S
H3681 C3689 0.930 . S
H3682 C3690 0.930 . S
H3683 C3691 0.930 . S
H3684 C3694 0.930 . S
H3685 C3695 0.930 . S
C3686 H3680 0.930 . S
C3686 C3687 1.355 . S
C3686 C3688 1.415 . S
C3687 C3686 1.355 . S
C3687 C3689 1.419 . S
C3688 C3686 1.415 . S
C3688 C3693 1.425 . S
C3688 C3695 1.409 . S
C3689 H3681 0.930 . S
C3689 C3687 1.419 . S
C3689 C3690 1.362 . S
C3690 H3682 0.930 . S
C3690 C3689 1.362 . S
C3690 C3693 1.409 . S
C3691 H3683 0.930 . S
C3691 C3692 1.355 . S
C3691 C3693 1.415 . S
C3692 C3691 1.355 . S
C3692 C3694 1.419 . S
C3693 C3688 1.425 . S
C3693 C3690 1.409 . S
C3693 C3691 1.415 . S
C3694 H3684 0.930 . S
C3694 C3692 1.419 . S
C3694 C3695 1.362 . S
C3695 H3685 0.930 . S
C3695 C3688 1.409 . S
C3695 C3694 1.362 . S
H3696 C3702 0.930 . S
H3697 C3705 0.930 . S
H3698 C3706 0.930 . S
H3699 C3707 0.930 . S
H3700 C3710 0.930 . S
H3701 C3711 0.930 1_655 S
C3702 H3696 0.930 . S
C3702 C3703 1.355 . S
C3702 C3704 1.415 . S
C3703 C3702 1.355 . S
C3703 C3705 1.419 . S
C3704 C3702 1.415 . S
C3704 C3709 1.425 . S
C3704 C3711 1.409 1_655 S
C3705 H3697 0.930 . S
C3705 C3703 1.419 . S
C3705 C3706 1.362 . S
C3706 H3698 0.930 . S
C3706 C3705 1.362 . S
C3706 C3709 1.409 . S
C3707 H3699 0.930 . S
C3707 C3708 1.355 . S
C3707 C3709 1.415 1_455 S
C3708 C3707 1.355 . S
C3708 C3710 1.419 . S
C3709 C3704 1.425 . S
C3709 C3706 1.409 . S
C3709 C3707 1.415 1_655 S
C3710 H3700 0.930 . S
C3710 C3708 1.419 . S
C3710 C3711 1.362 . S
C3711 H3701 0.930 1_455 S
C3711 C3704 1.409 1_455 S
C3711 C3710 1.362 . S
H3712 C3718 0.930 . S
H3713 C3721 0.930 . S
H3714 C3722 0.930 . S
H3715 C3723 0.930 . S
H3716 C3726 0.930 . S
H3717 C3727 0.930 . S
C3718 H3712 0.930 . S
C3718 C3719 1.355 . S
C3718 C3720 1.415 . S
C3719 C3718 1.355 . S
C3719 C3721 1.419 . S
C3720 C3718 1.415 . S
C3720 C3725 1.425 . S
C3720 C3727 1.409 . S
C3721 H3713 0.930 . S
C3721 C3719 1.419 . S
C3721 C3722 1.362 . S
C3722 H3714 0.930 . S
C3722 C3721 1.362 . S
C3722 C3725 1.409 . S
C3723 H3715 0.930 . S
C3723 C3724 1.355 . S
C3723 C3725 1.415 . S
C3724 C3723 1.355 . S
C3724 C3726 1.419 . S
C3725 C3720 1.425 . S
C3725 C3722 1.409 . S
C3725 C3723 1.415 . S
C3726 H3716 0.930 . S
C3726 C3724 1.419 . S
C3726 C3727 1.362 . S
C3727 H3717 0.930 . S
C3727 C3720 1.409 . S
C3727 C3726 1.362 . S
H3728 C3734 0.930 . S
H3729 C3737 0.930 . S
H3730 C3738 0.930 . S
H3731 C3739 0.930 . S
H3732 C3742 0.930 . S
H3733 C3743 0.930 1_545 S
C3734 H3728 0.930 . S
C3734 C3735 1.355 . S
C3734 C3736 1.415 . S
C3735 C3734 1.355 . S
C3735 C3737 1.419 . S
C3736 C3734 1.415 . S
C3736 C3741 1.425 . S
C3736 C3743 1.409 1_545 S
C3737 H3729 0.930 . S
C3737 C3735 1.419 . S
C3737 C3738 1.362 . S
C3738 H3730 0.930 . S
C3738 C3737 1.362 . S
C3738 C3741 1.409 . S
C3739 H3731 0.930 . S
C3739 C3740 1.355 . S
C3739 C3741 1.415 1_565 S
C3740 C3739 1.355 . S
C3740 C3742 1.419 . S
C3741 C3736 1.425 . S
C3741 C3738 1.409 . S
C3741 C3739 1.415 1_545 S
C3742 H3732 0.930 . S
C3742 C3740 1.419 . S
C3742 C3743 1.362 . S
C3743 H3733 0.930 1_565 S
C3743 C3736 1.409 1_565 S
C3743 C3742 1.362 . S
H3744 C3750 0.930 . S
H3745 C3753 0.930 . S
H3746 C3754 0.930 . S
H3747 C3755 0.930 . S
H3748 C3758 0.930 . S
H3749 C3759 0.930 . S
C3750 H3744 0.930 . S
C3750 C3751 1.355 . S
C3750 C3752 1.415 . S
C3751 C3750 1.355 . S
C3751 C3753 1.419 . S
C3752 C3750 1.415 . S
C3752 C3757 1.425 . S
C3752 C3759 1.409 . S
C3753 H3745 0.930 . S
C3753 C3751 1.419 . S
C3753 C3754 1.362 . S
C3754 H3746 0.930 . S
C3754 C3753 1.362 . S
C3754 C3757 1.409 . S
C3755 H3747 0.930 . S
C3755 C3756 1.355 . S
C3755 C3757 1.415 . S
C3756 C3755 1.355 . S
C3756 C3758 1.419 . S
C3757 C3752 1.425 . S
C3757 C3754 1.409 . S
C3757 C3755 1.415 . S
C3758 H3748 0.930 . S
C3758 C3756 1.419 . S
C3758 C3759 1.362 . S
C3759 H3749 0.930 . S
C3759 C3752 1.409 . S
C3759 C3758 1.362 . S
H3760 C3766 0.930 . S
H3761 C3769 0.930 . S
H3762 C3770 0.930 1_565 S
H3763 C3771 0.930 . S
H3764 C3774 0.930 . S
H3765 C3775 0.930 . S
C3766 H3760 0.930 . S
C3766 C3767 1.355 . S
C3766 C3768 1.415 1_545 S
C3767 C3766 1.355 . S
C3767 C3769 1.419 . S
C3768 C3766 1.415 1_565 S
C3768 C3773 1.425 . S
C3768 C3775 1.409 . S
C3769 H3761 0.930 . S
C3769 C3767 1.419 . S
C3769 C3770 1.362 . S
C3770 H3762 0.930 1_545 S
C3770 C3769 1.362 . S
C3770 C3773 1.409 1_545 S
C3771 H3763 0.930 . S
C3771 C3772 1.355 . S
C3771 C3773 1.415 . S
C3772 C3771 1.355 . S
C3772 C3774 1.419 . S
C3773 C3768 1.425 . S
C3773 C3770 1.409 1_565 S
C3773 C3771 1.415 . S
C3774 H3764 0.930 . S
C3774 C3772 1.419 . S
C3774 C3775 1.362 . S
C3775 H3765 0.930 . S
C3775 C3768 1.409 . S
C3775 C3774 1.362 . S
H3776 C3782 0.930 . S
H3777 C3785 0.930 . S
H3778 C3786 0.930 . S
H3779 C3787 0.930 . S
H3780 C3790 0.930 . S
H3781 C3791 0.930 . S
C3782 H3776 0.930 . S
C3782 C3783 1.355 . S
C3782 C3784 1.415 . S
C3783 C3782 1.355 . S
C3783 C3785 1.419 . S
C3784 C3782 1.415 . S
C3784 C3789 1.425 . S
C3784 C3791 1.409 . S
C3785 H3777 0.930 . S
C3785 C3783 1.419 . S
C3785 C3786 1.362 . S
C3786 H3778 0.930 . S
C3786 C3785 1.362 . S
C3786 C3789 1.409 . S
C3787 H3779 0.930 . S
C3787 C3788 1.355 . S
C3787 C3789 1.415 . S
C3788 C3787 1.355 . S
C3788 C3790 1.419 . S
C3789 C3784 1.425 . S
C3789 C3786 1.409 . S
C3789 C3787 1.415 . S
C3790 H3780 0.930 . S
C3790 C3788 1.419 . S
C3790 C3791 1.362 . S
C3791 H3781 0.930 . S
C3791 C3784 1.409 . S
C3791 C3790 1.362 . S
H3792 C3798 0.930 . S
H3793 C3801 0.930 . S
H3794 C3802 0.930 . S
H3795 C3803 0.930 . S
H3796 C3806 0.930 . S
H3797 C3807 0.939 . S
C3798 H3792 0.930 . S
C3798 C3799 1.355 . S
C3798 C3800 1.415 . S
C3799 C3798 1.355 . S
C3799 C3801 1.419 . S
C3800 C3798 1.415 . S
C3800 C3805 1.425 . S
C3800 C3807 1.409 1_545 S
C3801 H3793 0.930 . S
C3801 C3799 1.419 . S
C3801 C3802 1.362 . S
C3802 H3794 0.930 . S
C3802 C3801 1.362 . S
C3802 C3805 1.409 . S
C3803 H3795 0.930 . S
C3803 C3804 1.355 . S
C3803 C3805 1.415 1_565 S
C3804 C3803 1.355 . S
C3804 C3806 1.419 . S
C3805 C3800 1.425 . S
C3805 C3802 1.409 . S
C3805 C3803 1.415 1_545 S
C3806 H3796 0.930 . S
C3806 C3804 1.419 . S
C3806 C3807 1.362 . S
C3807 H3797 0.939 . S
C3807 C3800 1.409 1_565 S
C3807 C3806 1.362 . S
H3808 C3814 0.930 . S
H3809 C3817 0.930 . S
H3810 C3818 0.930 . S
H3811 C3819 0.930 . S
H3812 C3822 0.930 . S
H3813 C3823 0.930 . S
C3814 H3808 0.930 . S
C3814 C3815 1.355 . S
C3814 C3816 1.415 . S
C3815 C3814 1.355 . S
C3815 C3817 1.419 . S
C3816 C3814 1.415 . S
C3816 C3821 1.425 . S
C3816 C3823 1.409 . S
C3817 H3809 0.930 . S
C3817 C3815 1.419 . S
C3817 C3818 1.362 . S
C3818 H3810 0.930 . S
C3818 C3817 1.362 . S
C3818 C3821 1.409 . S
C3819 H3811 0.930 . S
C3819 C3820 1.355 . S
C3819 C3821 1.415 . S
C3820 C3819 1.355 . S
C3820 C3822 1.419 . S
C3821 C3816 1.425 . S
C3821 C3818 1.409 . S
C3821 C3819 1.415 . S
C3822 H3812 0.930 . S
C3822 C3820 1.419 . S
C3822 C3823 1.362 . S
C3823 H3813 0.930 . S
C3823 C3816 1.409 . S
C3823 C3822 1.362 . S
H3824 C3830 0.930 . S
H3825 C3833 0.930 . S
H3826 C3834 0.930 1_565 S
H3827 C3835 0.930 . S
H3828 C3838 0.930 . S
H3829 C3839 0.930 . S
C3830 H3824 0.930 . S
C3830 C3831 1.355 . S
C3830 C3832 1.415 1_545 S
C3831 C3830 1.355 . S
C3831 C3833 1.419 . S
C3832 C3830 1.415 1_565 S
C3832 C3837 1.425 . S
C3832 C3839 1.409 . S
C3833 H3825 0.930 . S
C3833 C3831 1.419 . S
C3833 C3834 1.362 . S
C3834 H3826 0.930 1_545 S
C3834 C3833 1.362 . S
C3834 C3837 1.409 1_545 S
C3835 H3827 0.930 . S
C3835 C3836 1.355 . S
C3835 C3837 1.415 . S
C3836 C3835 1.355 . S
C3836 C3838 1.419 . S
C3837 C3832 1.425 . S
C3837 C3834 1.409 1_565 S
C3837 C3835 1.415 . S
C3838 H3828 0.930 . S
C3838 C3836 1.419 . S
C3838 C3839 1.362 . S
C3839 H3829 0.930 . S
C3839 C3832 1.409 . S
C3839 C3838 1.362 . S
H3840 C3846 0.930 . S
H3841 C3849 0.930 . S
H3842 C3850 0.930 . S
H3843 C3851 0.930 . S
H3844 C3854 0.930 . S
H3845 C3855 0.930 . S
C3846 H3840 0.930 . S
C3846 C3847 1.355 . S
C3846 C3848 1.415 . S
C3847 C3846 1.355 . S
C3847 C3849 1.419 . S
C3848 C3846 1.415 . S
C3848 C3853 1.425 . S
C3848 C3855 1.409 . S
C3849 H3841 0.930 . S
C3849 C3847 1.419 . S
C3849 C3850 1.362 . S
C3850 H3842 0.930 . S
C3850 C3849 1.362 . S
C3850 C3853 1.409 . S
C3851 H3843 0.930 . S
C3851 C3852 1.355 . S
C3851 C3853 1.415 . S
C3852 C3851 1.355 . S
C3852 C3854 1.419 . S
C3853 C3848 1.425 . S
C3853 C3850 1.409 . S
C3853 C3851 1.415 . S
C3854 H3844 0.930 . S
C3854 C3852 1.419 . S
C3854 C3855 1.362 . S
C3855 H3845 0.930 . S
C3855 C3848 1.409 . S
C3855 C3854 1.362 . S
H3856 C3862 0.930 . S
H3857 C3865 0.930 . S
H3858 C3866 0.930 . S
H3859 C3867 0.930 . S
H3860 C3870 0.930 . S
H3861 C3871 0.930 . S
C3862 H3856 0.930 . S
C3862 C3863 1.355 . S
C3862 C3864 1.415 . S
C3863 C3862 1.355 . S
C3863 C3865 1.419 . S
C3864 C3862 1.415 . S
C3864 C3869 1.425 . S
C3864 C3871 1.409 1_556 S
C3865 H3857 0.930 . S
C3865 C3863 1.419 . S
C3865 C3866 1.362 . S
C3866 H3858 0.930 . S
C3866 C3865 1.362 . S
C3866 C3869 1.409 . S
C3867 H3859 0.930 . S
C3867 C3868 1.355 . S
C3867 C3869 1.415 1_554 S
C3868 C3867 1.355 . S
C3868 C3870 1.419 . S
C3869 C3864 1.425 . S
C3869 C3866 1.409 . S
C3869 C3867 1.415 1_556 S
C3870 H3860 0.930 . S
C3870 C3868 1.419 . S
C3870 C3871 1.362 . S
C3871 H3861 0.930 . S
C3871 C3864 1.409 1_554 S
C3871 C3870 1.362 . S
H3872 C3878 0.930 . S
H3873 C3881 0.930 . S
H3874 C3882 0.930 . S
H3875 C3883 0.930 . S
H3876 C3886 0.930 . S
H3877 C3887 0.930 1_556 S
C3878 H3872 0.930 . S
C3878 C3879 1.355 . S
C3878 C3880 1.415 . S
C3879 C3878 1.355 . S
C3879 C3881 1.419 . S
C3880 C3878 1.415 . S
C3880 C3885 1.425 . S
C3880 C3887 1.409 1_556 S
C3881 H3873 0.930 . S
C3881 C3879 1.419 . S
C3881 C3882 1.362 . S
C3882 H3874 0.930 . S
C3882 C3881 1.362 . S
C3882 C3885 1.409 . S
C3883 H3875 0.930 . S
C3883 C3884 1.355 . S
C3883 C3885 1.415 1_554 S
C3884 C3883 1.355 . S
C3884 C3886 1.419 . S
C3885 C3880 1.425 . S
C3885 C3882 1.409 . S
C3885 C3883 1.415 1_556 S
C3886 H3876 0.930 . S
C3886 C3884 1.419 . S
C3886 C3887 1.362 . S
C3887 H3877 0.930 1_554 S
C3887 C3880 1.409 1_554 S
C3887 C3886 1.362 . S
H3888 C3894 0.930 . S
H3889 C3897 0.930 . S
H3890 C3898 0.930 . S
H3891 C3899 0.930 . S
H3892 C3902 0.930 . S
H3893 C3903 0.930 . S
C3894 H3888 0.930 . S
C3894 C3895 1.355 . S
C3894 C3896 1.415 . S
C3895 C3894 1.355 . S
C3895 C3897 1.419 . S
C3896 C3894 1.415 . S
C3896 C3901 1.425 . S
C3896 C3903 1.409 . S
C3897 H3889 0.930 . S
C3897 C3895 1.419 . S
C3897 C3898 1.362 . S
C3898 H3890 0.930 . S
C3898 C3897 1.362 . S
C3898 C3901 1.409 . S
C3899 H3891 0.930 . S
C3899 C3900 1.355 . S
C3899 C3901 1.415 . S
C3900 C3899 1.355 . S
C3900 C3902 1.419 . S
C3901 C3896 1.425 . S
C3901 C3898 1.409 . S
C3901 C3899 1.415 . S
C3902 H3892 0.930 . S
C3902 C3900 1.419 . S
C3902 C3903 1.362 . S
C3903 H3893 0.930 . S
C3903 C3896 1.409 . S
C3903 C3902 1.362 . S
H3904 C3910 0.930 . S
H3905 C3913 0.930 . S
H3906 C3914 0.930 . S
H3907 C3915 0.930 . S
H3908 C3918 0.930 . S
H3909 C3919 0.930 . S
C3910 H3904 0.930 . S
C3910 C3911 1.355 . S
C3910 C3912 1.415 1_556 S
C3911 C3910 1.355 . S
C3911 C3913 1.419 . S
C3912 C3910 1.415 1_554 S
C3912 C3917 1.425 . S
C3912 C3919 1.409 . S
C3913 H3905 0.930 . S
C3913 C3911 1.419 . S
C3913 C3914 1.362 1_556 S
C3914 H3906 0.930 . S
C3914 C3913 1.362 1_554 S
C3914 C3917 1.409 . S
C3915 H3907 0.930 . S
C3915 C3916 1.355 . S
C3915 C3917 1.415 . S
C3916 C3915 1.355 . S
C3916 C3918 1.419 . S
C3917 C3912 1.425 . S
C3917 C3914 1.409 . S
C3917 C3915 1.415 . S
C3918 H3908 0.930 . S
C3918 C3916 1.419 . S
C3918 C3919 1.362 . S
C3919 H3909 0.930 . S
C3919 C3912 1.409 . S
C3919 C3918 1.362 . S
H3920 C3926 0.930 . S
H3921 C3929 0.930 . S
H3922 C3930 0.930 . S
H3923 C3931 0.930 . S
H3924 C3934 0.930 . S
H3925 C3935 0.930 . S
C3926 H3920 0.930 . S
C3926 C3927 1.355 . S
C3926 C3928 1.415 . S
C3927 C3926 1.355 . S
C3927 C3929 1.419 . S
C3928 C3926 1.415 . S
C3928 C3933 1.425 . S
C3928 C3935 1.409 . S
C3929 H3921 0.930 . S
C3929 C3927 1.419 . S
C3929 C3930 1.362 . S
C3930 H3922 0.930 . S
C3930 C3929 1.362 . S
C3930 C3933 1.409 . S
C3931 H3923 0.930 . S
C3931 C3932 1.355 . S
C3931 C3933 1.415 . S
C3932 C3931 1.355 . S
C3932 C3934 1.419 . S
C3933 C3928 1.425 . S
C3933 C3930 1.409 . S
C3933 C3931 1.415 . S
C3934 H3924 0.930 . S
C3934 C3932 1.419 . S
C3934 C3935 1.362 . S
C3935 H3925 0.930 . S
C3935 C3928 1.409 . S
C3935 C3934 1.362 . S
H3936 C3942 0.930 . S
H3937 C3945 0.930 . S
H3938 C3946 0.916 1_554 S
H3939 C3947 0.930 . S
H3940 C3950 0.930 . S
H3941 C3951 0.930 . S
C3942 H3936 0.930 . S
C3942 C3943 1.355 . S
C3942 C3944 1.415 1_556 S
C3943 C3942 1.355 . S
C3943 C3945 1.419 . S
C3944 C3942 1.415 1_554 S
C3944 C3949 1.425 . S
C3944 C3951 1.409 . S
C3945 H3937 0.930 . S
C3945 C3943 1.419 . S
C3945 C3946 1.362 . S
C3946 H3938 0.916 1_556 S
C3946 C3945 1.362 . S
C3946 C3949 1.409 1_556 S
C3947 H3939 0.930 . S
C3947 C3948 1.355 . S
C3947 C3949 1.415 . S
C3948 C3947 1.355 . S
C3948 C3950 1.419 . S
C3949 C3944 1.425 . S
C3949 C3946 1.409 1_554 S
C3949 C3947 1.415 . S
C3950 H3940 0.930 . S
C3950 C3948 1.419 . S
C3950 C3951 1.362 . S
C3951 H3941 0.930 . S
C3951 C3944 1.409 . S
C3951 C3950 1.362 . S
H3952 C3958 0.930 . S
H3953 C3961 0.930 . S
H3954 C3962 0.930 . S
H3955 C3963 0.930 . S
H3956 C3966 0.930 . S
H3957 C3967 0.930 . S
C3958 H3952 0.930 . S
C3958 C3959 1.355 . S
C3958 C3960 1.415 . S
C3959 C3958 1.355 . S
C3959 C3961 1.419 . S
C3960 C3958 1.415 . S
C3960 C3965 1.425 . S
C3960 C3967 1.409 . S
C3961 H3953 0.930 . S
C3961 C3959 1.419 . S
C3961 C3962 1.362 . S
C3962 H3954 0.930 . S
C3962 C3961 1.362 . S
C3962 C3965 1.409 . S
C3963 H3955 0.930 . S
C3963 C3964 1.355 . S
C3963 C3965 1.415 . S
C3964 C3963 1.355 . S
C3964 C3966 1.419 . S
C3965 C3960 1.425 . S
C3965 C3962 1.409 . S
C3965 C3963 1.415 . S
C3966 H3956 0.930 . S
C3966 C3964 1.419 . S
C3966 C3967 1.362 . S
C3967 H3957 0.930 . S
C3967 C3960 1.409 . S
C3967 C3966 1.362 . S
H3968 C3974 0.930 . S
H3969 C3977 0.930 . S
H3970 C3978 0.930 . S
H3971 C3979 0.930 . S
H3972 C3982 0.930 . S
H3973 C3983 0.930 . S
C3974 H3968 0.930 . S
C3974 C3975 1.355 . S
C3974 C3976 1.415 . S
C3975 C3974 1.355 . S
C3975 C3977 1.419 . S
C3976 C3974 1.415 . S
C3976 C3981 1.425 . S
C3976 C3983 1.409 . S
C3977 H3969 0.930 . S
C3977 C3975 1.419 . S
C3977 C3978 1.362 . S
C3978 H3970 0.930 . S
C3978 C3977 1.362 . S
C3978 C3981 1.409 . S
C3979 H3971 0.930 . S
C3979 C3980 1.355 . S
C3979 C3981 1.415 . S
C3980 C3979 1.355 . S
C3980 C3982 1.419 . S
C3981 C3976 1.425 . S
C3981 C3978 1.409 . S
C3981 C3979 1.415 . S
C3982 H3972 0.930 . S
C3982 C3980 1.419 . S
C3982 C3983 1.362 . S
C3983 H3973 0.930 . S
C3983 C3976 1.409 . S
C3983 C3982 1.362 . S
H3984 C3990 0.930 . S
H3985 C3993 0.930 . S
H3986 C3994 0.930 . S
H3987 C3995 0.930 . S
H3988 C3998 0.930 . S
H3989 C3999 0.930 . S
C3990 H3984 0.930 . S
C3990 C3991 1.355 . S
C3990 C3992 1.415 . S
C3991 C3990 1.355 . S
C3991 C3993 1.419 . S
C3992 C3990 1.415 . S
C3992 C3997 1.425 . S
C3992 C3999 1.409 . S
C3993 H3985 0.930 . S
C3993 C3991 1.419 . S
C3993 C3994 1.362 . S
C3994 H3986 0.930 . S
C3994 C3993 1.362 . S
C3994 C3997 1.409 . S
C3995 H3987 0.930 . S
C3995 C3996 1.355 . S
C3995 C3997 1.415 . S
C3996 C3995 1.355 . S
C3996 C3998 1.419 . S
C3997 C3992 1.425 . S
C3997 C3994 1.409 . S
C3997 C3995 1.415 . S
C3998 H3988 0.930 . S
C3998 C3996 1.419 . S
C3998 C3999 1.362 . S
C3999 H3989 0.930 . S
C3999 C3992 1.409 . S
C3999 C3998 1.362 . S
H4000 C4006 0.930 . S
H4001 C4009 0.930 . S
H4002 C4010 0.930 . S
H4003 C4011 0.930 . S
H4004 C4014 0.930 . S
H4005 C4015 0.930 . S
C4006 H4000 0.930 . S
C4006 C4007 1.355 . S
C4006 C4008 1.415 . S
C4007 C4006 1.355 . S
C4007 C4009 1.419 . S
C4008 C4006 1.415 . S
C4008 C4013 1.425 . S
C4008 C4015 1.409 . S
C4009 H4001 0.930 . S
C4009 C4007 1.419 . S
C4009 C4010 1.362 . S
C4010 H4002 0.930 . S
C4010 C4009 1.362 . S
C4010 C4013 1.409 . S
C4011 H4003 0.930 . S
C4011 C4012 1.355 . S
C4011 C4013 1.415 . S
C4012 C4011 1.355 . S
C4012 C4014 1.419 . S
C4013 C4008 1.425 . S
C4013 C4010 1.409 . S
C4013 C4011 1.415 . S
C4014 H4004 0.930 . S
C4014 C4012 1.419 . S
C4014 C4015 1.362 . S
C4015 H4005 0.930 . S
C4015 C4008 1.409 . S
C4015 C4014 1.362 . S
H4016 C4022 0.930 . S
H4017 C4025 0.930 . S
H4018 C4026 0.930 . S
H4019 C4027 0.930 . S
H4020 C4030 0.930 . S
H4021 C4031 0.930 . S
C4022 H4016 0.930 . S
C4022 C4023 1.355 . S
C4022 C4024 1.415 . S
C4023 C4022 1.355 . S
C4023 C4025 1.419 . S
C4024 C4022 1.415 . S
C4024 C4029 1.425 . S
C4024 C4031 1.409 . S
C4025 H4017 0.930 . S
C4025 C4023 1.419 . S
C4025 C4026 1.362 . S
C4026 H4018 0.930 . S
C4026 C4025 1.362 . S
C4026 C4029 1.409 . S
C4027 H4019 0.930 . S
C4027 C4028 1.355 . S
C4027 C4029 1.415 . S
C4028 C4027 1.355 . S
C4028 C4030 1.419 . S
C4029 C4024 1.425 . S
C4029 C4026 1.409 . S
C4029 C4027 1.415 . S
C4030 H4020 0.930 . S
C4030 C4028 1.419 . S
C4030 C4031 1.362 . S
C4031 H4021 0.930 . S
C4031 C4024 1.409 . S
C4031 C4030 1.362 . S
H4032 C4038 0.930 . S
H4033 C4041 0.930 . S
H4034 C4042 0.930 . S
H4035 C4043 0.930 . S
H4036 C4046 0.930 . S
H4037 C4047 0.930 . S
C4038 H4032 0.930 . S
C4038 C4039 1.355 . S
C4038 C4040 1.415 . S
C4039 C4038 1.355 . S
C4039 C4041 1.419 . S
C4040 C4038 1.415 . S
C4040 C4045 1.425 . S
C4040 C4047 1.409 . S
C4041 H4033 0.930 . S
C4041 C4039 1.419 . S
C4041 C4042 1.362 . S
C4042 H4034 0.930 . S
C4042 C4041 1.362 . S
C4042 C4045 1.409 . S
C4043 H4035 0.930 . S
C4043 C4044 1.355 . S
C4043 C4045 1.415 . S
C4044 C4043 1.355 . S
C4044 C4046 1.419 . S
C4045 C4040 1.425 . S
C4045 C4042 1.409 . S
C4045 C4043 1.415 . S
C4046 H4036 0.930 . S
C4046 C4044 1.419 . S
C4046 C4047 1.362 . S
C4047 H4037 0.930 . S
C4047 C4040 1.409 . S
C4047 C4046 1.362 . S
H4048 C4054 0.930 . S
H4049 C4057 0.930 . S
H4050 C4058 0.930 . S
H4051 C4059 0.930 . S
H4052 C4062 0.930 . S
H4053 C4063 0.930 . S
C4054 H4048 0.930 . S
C4054 C4055 1.355 . S
C4054 C4056 1.415 . S
C4055 C4054 1.355 . S
C4055 C4057 1.419 . S
C4056 C4054 1.415 . S
C4056 C4061 1.425 . S
C4056 C4063 1.409 . S
C4057 H4049 0.930 . S
C4057 C4055 1.419 . S
C4057 C4058 1.362 . S
C4058 H4050 0.930 . S
C4058 C4057 1.362 . S
C4058 C4061 1.409 . S
C4059 H4051 0.930 . S
C4059 C4060 1.355 . S
C4059 C4061 1.415 . S
C4060 C4059 1.355 . S
C4060 C4062 1.419 . S
C4061 C4056 1.425 . S
C4061 C4058 1.409 . S
C4061 C4059 1.415 . S
C4062 H4052 0.930 . S
C4062 C4060 1.419 . S
C4062 C4063 1.362 . S
C4063 H4053 0.930 . S
C4063 C4056 1.409 . S
C4063 C4062 1.362 . S
H4064 C4070 0.930 . S
H4065 C4073 0.930 . S
H4066 C4074 0.930 . S
H4067 C4075 0.930 . S
H4068 C4078 0.930 . S
H4069 C4079 0.930 . S
C4070 H4064 0.930 . S
C4070 C4071 1.355 . S
C4070 C4072 1.415 . S
C4071 C4070 1.355 . S
C4071 C4073 1.419 . S
C4072 C4070 1.415 . S
C4072 C4077 1.425 . S
C4072 C4079 1.409 . S
C4073 H4065 0.930 . S
C4073 C4071 1.419 . S
C4073 C4074 1.362 . S
C4074 H4066 0.930 . S
C4074 C4073 1.362 . S
C4074 C4077 1.409 . S
C4075 H4067 0.930 . S
C4075 C4076 1.355 . S
C4075 C4077 1.415 . S
C4076 C4075 1.355 . S
C4076 C4078 1.419 . S
C4077 C4072 1.425 . S
C4077 C4074 1.409 . S
C4077 C4075 1.415 . S
C4078 H4068 0.930 . S
C4078 C4076 1.419 . S
C4078 C4079 1.362 . S
C4079 H4069 0.930 . S
C4079 C4072 1.409 . S
C4079 C4078 1.362 . S
H4080 C4086 0.930 . S
H4081 C4089 0.930 . S
H4082 C4090 0.930 . S
H4083 C4091 0.930 . S
H4084 C4094 0.930 . S
H4085 C4095 0.930 . S
C4086 H4080 0.930 . S
C4086 C4087 1.355 . S
C4086 C4088 1.415 . S
C4087 C4086 1.355 . S
C4087 C4089 1.419 . S
C4088 C4086 1.415 . S
C4088 C4093 1.425 . S
C4088 C4095 1.409 . S
C4089 H4081 0.930 . S
C4089 C4087 1.419 . S
C4089 C4090 1.362 . S
C4090 H4082 0.930 . S
C4090 C4089 1.362 . S
C4090 C4093 1.409 . S
C4091 H4083 0.930 . S
C4091 C4092 1.355 . S
C4091 C4093 1.415 . S
C4092 C4091 1.355 . S
C4092 C4094 1.419 . S
C4093 C4088 1.425 . S
C4093 C4090 1.409 . S
C4093 C4091 1.415 . S
C4094 H4084 0.930 . S
C4094 C4092 1.419 . S
C4094 C4095 1.362 . S
C4095 H4085 0.930 . S
C4095 C4088 1.409 . S
C4095 C4094 1.362 . S
H4096 C4102 0.930 . S
H4097 C4105 0.930 . S
H4098 C4106 0.930 . S
H4099 C4107 0.930 . S
H4100 C4110 0.930 . S
H4101 C4111 0.930 . S
C4102 H4096 0.930 . S
C4102 C4103 1.355 . S
C4102 C4104 1.415 . S
C4103 C4102 1.355 . S
C4103 C4105 1.419 . S
C4104 C4102 1.415 . S
C4104 C4109 1.425 . S
C4104 C4111 1.409 . S
C4105 H4097 0.930 . S
C4105 C4103 1.419 . S
C4105 C4106 1.362 . S
C4106 H4098 0.930 . S
C4106 C4105 1.362 . S
C4106 C4109 1.409 . S
C4107 H4099 0.930 . S
C4107 C4108 1.355 . S
C4107 C4109 1.415 . S
C4108 C4107 1.355 . S
C4108 C4110 1.419 . S
C4109 C4104 1.425 . S
C4109 C4106 1.409 . S
C4109 C4107 1.415 . S
C4110 H4100 0.930 . S
C4110 C4108 1.419 . S
C4110 C4111 1.362 . S
C4111 H4101 0.930 . S
C4111 C4104 1.409 . S
C4111 C4110 1.362 . S
H4112 C4118 0.930 . S
H4113 C4121 0.930 . S
H4114 C4122 0.930 . S
H4115 C4123 0.930 . S
H4116 C4126 0.930 . S
H4117 C4127 0.930 . S
C4118 H4112 0.930 . S
C4118 C4119 1.355 . S
C4118 C4120 1.415 . S
C4119 C4118 1.355 . S
C4119 C4121 1.419 . S
C4120 C4118 1.415 . S
C4120 C4125 1.425 . S
C4120 C4127 1.409 . S
C4121 H4113 0.930 . S
C4121 C4119 1.419 . S
C4121 C4122 1.362 . S
C4122 H4114 0.930 . S
C4122 C4121 1.362 . S
C4122 C4125 1.409 . S
C4123 H4115 0.930 . S
C4123 C4124 1.355 . S
C4123 C4125 1.415 . S
C4124 C4123 1.355 . S
C4124 C4126 1.419 . S
C4125 C4120 1.425 . S
C4125 C4122 1.409 . S
C4125 C4123 1.415 . S
C4126 H4116 0.930 . S
C4126 C4124 1.419 . S
C4126 C4127 1.362 . S
C4127 H4117 0.930 . S
C4127 C4120 1.409 . S
C4127 C4126 1.362 . S
H4128 C4134 0.930 . S
H4129 C4137 0.930 . S
H4130 C4138 0.930 . S
H4131 C4139 0.930 . S
H4132 C4142 0.930 . S
H4133 C4143 0.930 . S
C4134 H4128 0.930 . S
C4134 C4135 1.355 . S
C4134 C4136 1.415 . S
C4135 C4134 1.355 . S
C4135 C4137 1.419 . S
C4136 C4134 1.415 . S
C4136 C4141 1.425 . S
C4136 C4143 1.409 . S
C4137 H4129 0.930 . S
C4137 C4135 1.419 . S
C4137 C4138 1.362 . S
C4138 H4130 0.930 . S
C4138 C4137 1.362 . S
C4138 C4141 1.409 . S
C4139 H4131 0.930 . S
C4139 C4140 1.355 . S
C4139 C4141 1.415 . S
C4140 C4139 1.355 . S
C4140 C4142 1.419 . S
C4141 C4136 1.425 . S
C4141 C4138 1.409 . S
C4141 C4139 1.415 . S
C4142 H4132 0.930 . S
C4142 C4140 1.419 . S
C4142 C4143 1.362 . S
C4143 H4133 0.930 . S
C4143 C4136 1.409 . S
C4143 C4142 1.362 . S
H4144 C4150 0.930 . S
H4145 C4153 0.930 . S
H4146 C4154 0.930 . S
H4147 C4155 0.930 . S
H4148 C4158 0.930 . S
H4149 C4159 0.930 . S
C4150 H4144 0.930 . S
C4150 C4151 1.355 . S
C4150 C4152 1.415 . S
C4151 C4150 1.355 . S
C4151 C4153 1.419 . S
C4152 C4150 1.415 . S
C4152 C4157 1.425 . S
C4152 C4159 1.409 . S
C4153 H4145 0.930 . S
C4153 C4151 1.419 . S
C4153 C4154 1.362 . S
C4154 H4146 0.930 . S
C4154 C4153 1.362 . S
C4154 C4157 1.409 . S
C4155 H4147 0.930 . S
C4155 C4156 1.355 . S
C4155 C4157 1.415 . S
C4156 C4155 1.355 . S
C4156 C4158 1.419 . S
C4157 C4152 1.425 . S
C4157 C4154 1.409 . S
C4157 C4155 1.415 . S
C4158 H4148 0.930 . S
C4158 C4156 1.419 . S
C4158 C4159 1.362 . S
C4159 H4149 0.930 . S
C4159 C4152 1.409 . S
C4159 C4158 1.362 . S
H4160 C4166 0.930 . S
H4161 C4169 0.930 . S
H4162 C4170 0.930 . S
H4163 C4171 0.930 . S
H4164 C4174 0.930 . S
H4165 C4175 0.930 . S
C4166 H4160 0.930 . S
C4166 C4167 1.355 . S
C4166 C4168 1.415 . S
C4167 C4166 1.355 . S
C4167 C4169 1.419 . S
C4168 C4166 1.415 . S
C4168 C4173 1.425 . S
C4168 C4175 1.409 . S
C4169 H4161 0.930 . S
C4169 C4167 1.419 . S
C4169 C4170 1.362 . S
C4170 H4162 0.930 . S
C4170 C4169 1.362 . S
C4170 C4173 1.409 . S
C4171 H4163 0.930 . S
C4171 C4172 1.355 . S
C4171 C4173 1.415 . S
C4172 C4171 1.355 . S
C4172 C4174 1.419 . S
C4173 C4168 1.425 . S
C4173 C4170 1.409 . S
C4173 C4171 1.415 . S
C4174 H4164 0.930 . S
C4174 C4172 1.419 . S
C4174 C4175 1.362 . S
C4175 H4165 0.930 . S
C4175 C4168 1.409 . S
C4175 C4174 1.362 . S
H4176 C4182 0.930 . S
H4177 C4185 0.930 . S
H4178 C4186 0.930 . S
H4179 C4187 0.930 . S
H4180 C4190 0.930 . S
H4181 C4191 0.930 . S
C4182 H4176 0.930 . S
C4182 C4183 1.355 . S
C4182 C4184 1.415 . S
C4183 C4182 1.355 . S
C4183 C4185 1.419 . S
C4184 C4182 1.415 . S
C4184 C4189 1.425 . S
C4184 C4191 1.409 . S
C4185 H4177 0.930 . S
C4185 C4183 1.419 . S
C4185 C4186 1.362 . S
C4186 H4178 0.930 . S
C4186 C4185 1.362 . S
C4186 C4189 1.409 . S
C4187 H4179 0.930 . S
C4187 C4188 1.355 . S
C4187 C4189 1.415 . S
C4188 C4187 1.355 . S
C4188 C4190 1.419 . S
C4189 C4184 1.425 . S
C4189 C4186 1.409 . S
C4189 C4187 1.415 . S
C4190 H4180 0.930 . S
C4190 C4188 1.419 . S
C4190 C4191 1.362 . S
C4191 H4181 0.930 . S
C4191 C4184 1.409 . S
C4191 C4190 1.362 . S
H4192 C4198 0.930 . S
H4193 C4201 0.930 . S
H4194 C4202 0.930 . S
H4195 C4203 0.930 . S
H4196 C4206 0.930 . S
H4197 C4207 0.930 . S
C4198 H4192 0.930 . S
C4198 C4199 1.355 . S
C4198 C4200 1.415 . S
C4199 C4198 1.355 . S
C4199 C4201 1.419 . S
C4200 C4198 1.415 . S
C4200 C4205 1.425 . S
C4200 C4207 1.409 . S
C4201 H4193 0.930 . S
C4201 C4199 1.419 . S
C4201 C4202 1.362 . S
C4202 H4194 0.930 . S
C4202 C4201 1.362 . S
C4202 C4205 1.409 . S
C4203 H4195 0.930 . S
C4203 C4204 1.355 . S
C4203 C4205 1.415 . S
C4204 C4203 1.355 . S
C4204 C4206 1.419 . S
C4205 C4200 1.425 . S
C4205 C4202 1.409 . S
C4205 C4203 1.415 . S
C4206 H4196 0.930 . S
C4206 C4204 1.419 . S
C4206 C4207 1.362 . S
C4207 H4197 0.930 . S
C4207 C4200 1.409 . S
C4207 C4206 1.362 . S
H4208 C4214 0.930 . S
H4209 C4217 0.930 . S
H4210 C4218 0.930 . S
H4211 C4219 0.930 . S
H4212 C4222 0.930 . S
H4213 C4223 0.930 . S
C4214 H4208 0.930 . S
C4214 C4215 1.355 . S
C4214 C4216 1.415 . S
C4215 C4214 1.355 . S
C4215 C4217 1.419 . S
C4216 C4214 1.415 . S
C4216 C4221 1.425 . S
C4216 C4223 1.409 . S
C4217 H4209 0.930 . S
C4217 C4215 1.419 . S
C4217 C4218 1.362 . S
C4218 H4210 0.930 . S
C4218 C4217 1.362 . S
C4218 C4221 1.409 . S
C4219 H4211 0.930 . S
C4219 C4220 1.355 . S
C4219 C4221 1.415 . S
C4220 C4219 1.355 . S
C4220 C4222 1.419 . S
C4221 C4216 1.425 . S
C4221 C4218 1.409 . S
C4221 C4219 1.415 . S
C4222 H4212 0.930 . S
C4222 C4220 1.419 . S
C4222 C4223 1.362 . S
C4223 H4213 0.930 . S
C4223 C4216 1.409 . S
C4223 C4222 1.362 . S
H4224 C4230 0.930 . S
H4225 C4233 0.930 . S
H4226 C4234 0.930 . S
H4227 C4235 0.930 . S
H4228 C4238 0.930 . S
H4229 C4239 0.930 . S
C4230 H4224 0.930 . S
C4230 C4231 1.355 . S
C4230 C4232 1.415 . S
C4231 C4230 1.355 . S
C4231 C4233 1.419 . S
C4232 C4230 1.415 . S
C4232 C4237 1.425 . S
C4232 C4239 1.409 . S
C4233 H4225 0.930 . S
C4233 C4231 1.419 . S
C4233 C4234 1.362 . S
C4234 H4226 0.930 . S
C4234 C4233 1.362 . S
C4234 C4237 1.409 . S
C4235 H4227 0.930 . S
C4235 C4236 1.355 . S
C4235 C4237 1.415 . S
C4236 C4235 1.355 . S
C4236 C4238 1.419 . S
C4237 C4232 1.425 . S
C4237 C4234 1.409 . S
C4237 C4235 1.415 . S
C4238 H4228 0.930 . S
C4238 C4236 1.419 . S
C4238 C4239 1.362 . S
C4239 H4229 0.930 . S
C4239 C4232 1.409 . S
C4239 C4238 1.362 . S
H4240 C4246 0.930 . S
H4241 C4249 0.930 . S
H4242 C4250 0.930 . S
H4243 C4251 0.930 . S
H4244 C4254 0.930 . S
H4245 C4255 0.930 . S
C4246 H4240 0.930 . S
C4246 C4247 1.355 . S
C4246 C4248 1.415 . S
C4247 C4246 1.355 . S
C4247 C4249 1.419 . S
C4248 C4246 1.415 . S
C4248 C4253 1.425 . S
C4248 C4255 1.409 . S
C4249 H4241 0.930 . S
C4249 C4247 1.419 . S
C4249 C4250 1.362 . S
C4250 H4242 0.930 . S
C4250 C4249 1.362 . S
C4250 C4253 1.409 . S
C4251 H4243 0.930 . S
C4251 C4252 1.355 . S
C4251 C4253 1.415 . S
C4252 C4251 1.355 . S
C4252 C4254 1.419 . S
C4253 C4248 1.425 . S
C4253 C4250 1.409 . S
C4253 C4251 1.415 . S
C4254 H4244 0.930 . S
C4254 C4252 1.419 . S
C4254 C4255 1.362 . S
C4255 H4245 0.930 . S
C4255 C4248 1.409 . S
C4255 C4254 1.362 . S
H4256 C4262 0.930 . S
H4257 C4265 0.930 . S
H4258 C4266 0.930 . S
H4259 C4267 0.930 . S
H4260 C4270 0.930 . S
H4261 C4271 0.930 . S
C4262 H4256 0.930 . S
C4262 C4263 1.355 . S
C4262 C4264 1.415 . S
C4263 C4262 1.355 . S
C4263 C4265 1.419 . S
C4264 C4262 1.415 . S
C4264 C4269 1.425 . S
C4264 C4271 1.409 . S
C4265 H4257 0.930 . S
C4265 C4263 1.419 . S
C4265 C4266 1.362 . S
C4266 H4258 0.930 . S
C4266 C4265 1.362 . S
C4266 C4269 1.409 . S
C4267 H4259 0.930 . S
C4267 C4268 1.355 . S
C4267 C4269 1.415 . S
C4268 C4267 1.355 . S
C4268 C4270 1.419 . S
C4269 C4264 1.425 . S
C4269 C4266 1.409 . S
C4269 C4267 1.415 . S
C4270 H4260 0.930 . S
C4270 C4268 1.419 . S
C4270 C4271 1.362 . S
C4271 H4261 0.930 . S
C4271 C4264 1.409 . S
C4271 C4270 1.362 . S
H4272 C4278 0.930 . S
H4273 C4281 0.930 . S
H4274 C4282 0.930 . S
H4275 C4283 0.930 . S
H4276 C4286 0.930 . S
H4277 C4287 0.930 . S
C4278 H4272 0.930 . S
C4278 C4279 1.355 . S
C4278 C4280 1.415 . S
C4279 C4278 1.355 . S
C4279 C4281 1.419 . S
C4280 C4278 1.415 . S
C4280 C4285 1.425 . S
C4280 C4287 1.409 . S
C4281 H4273 0.930 . S
C4281 C4279 1.419 . S
C4281 C4282 1.362 . S
C4282 H4274 0.930 . S
C4282 C4281 1.362 . S
C4282 C4285 1.409 . S
C4283 H4275 0.930 . S
C4283 C4284 1.355 . S
C4283 C4285 1.415 . S
C4284 C4283 1.355 . S
C4284 C4286 1.419 . S
C4285 C4280 1.425 . S
C4285 C4282 1.409 . S
C4285 C4283 1.415 . S
C4286 H4276 0.930 . S
C4286 C4284 1.419 . S
C4286 C4287 1.362 . S
C4287 H4277 0.930 . S
C4287 C4280 1.409 . S
C4287 C4286 1.362 . S
H4288 C4294 0.930 . S
H4289 C4297 0.930 . S
H4290 C4298 0.930 . S
H4291 C4299 0.930 . S
H4292 C4302 0.930 . S
H4293 C4303 0.930 . S
C4294 H4288 0.930 . S
C4294 C4295 1.355 . S
C4294 C4296 1.415 . S
C4295 C4294 1.355 . S
C4295 C4297 1.419 . S
C4296 C4294 1.415 . S
C4296 C4301 1.425 . S
C4296 C4303 1.409 . S
C4297 H4289 0.930 . S
C4297 C4295 1.419 . S
C4297 C4298 1.362 . S
C4298 H4290 0.930 . S
C4298 C4297 1.362 . S
C4298 C4301 1.409 . S
C4299 H4291 0.930 . S
C4299 C4300 1.355 . S
C4299 C4301 1.415 . S
C4300 C4299 1.355 . S
C4300 C4302 1.419 . S
C4301 C4296 1.425 . S
C4301 C4298 1.409 . S
C4301 C4299 1.415 . S
C4302 H4292 0.930 . S
C4302 C4300 1.419 . S
C4302 C4303 1.362 . S
C4303 H4293 0.930 . S
C4303 C4296 1.409 . S
C4303 C4302 1.362 . S
H4304 C4310 0.930 . S
H4305 C4313 0.930 . S
H4306 C4314 0.930 . S
H4307 C4315 0.930 . S
H4308 C4318 0.930 . S
H4309 C4319 0.930 . S
C4310 H4304 0.930 . S
C4310 C4311 1.355 . S
C4310 C4312 1.415 . S
C4311 C4310 1.355 . S
C4311 C4313 1.419 . S
C4312 C4310 1.415 . S
C4312 C4317 1.425 . S
C4312 C4319 1.409 . S
C4313 H4305 0.930 . S
C4313 C4311 1.419 . S
C4313 C4314 1.362 . S
C4314 H4306 0.930 . S
C4314 C4313 1.362 . S
C4314 C4317 1.409 . S
C4315 H4307 0.930 . S
C4315 C4316 1.355 . S
C4315 C4317 1.415 . S
C4316 C4315 1.355 . S
C4316 C4318 1.419 . S
C4317 C4312 1.425 . S
C4317 C4314 1.409 . S
C4317 C4315 1.415 . S
C4318 H4308 0.930 . S
C4318 C4316 1.419 . S
C4318 C4319 1.362 . S
C4319 H4309 0.930 . S
C4319 C4312 1.409 . S
C4319 C4318 1.362 . S
H4320 C4326 0.930 . S
H4321 C4329 0.930 . S
H4322 C4330 0.930 . S
H4323 C4331 0.930 . S
H4324 C4334 0.930 . S
H4325 C4335 0.930 . S
C4326 H4320 0.930 . S
C4326 C4327 1.355 . S
C4326 C4328 1.415 . S
C4327 C4326 1.355 . S
C4327 C4329 1.419 . S
C4328 C4326 1.415 . S
C4328 C4333 1.425 . S
C4328 C4335 1.409 . S
C4329 H4321 0.930 . S
C4329 C4327 1.419 . S
C4329 C4330 1.362 . S
C4330 H4322 0.930 . S
C4330 C4329 1.362 . S
C4330 C4333 1.409 . S
C4331 H4323 0.930 . S
C4331 C4332 1.355 . S
C4331 C4333 1.415 . S
C4332 C4331 1.355 . S
C4332 C4334 1.419 . S
C4333 C4328 1.425 . S
C4333 C4330 1.409 . S
C4333 C4331 1.415 . S
C4334 H4324 0.930 . S
C4334 C4332 1.419 . S
C4334 C4335 1.362 . S
C4335 H4325 0.930 . S
C4335 C4328 1.409 . S
C4335 C4334 1.362 . S
H4336 C4342 0.930 . S
H4337 C4345 0.930 . S
H4338 C4346 0.930 . S
H4339 C4347 0.930 . S
H4340 C4350 0.930 . S
H4341 C4351 0.930 . S
C4342 H4336 0.930 . S
C4342 C4343 1.355 . S
C4342 C4344 1.415 . S
C4343 C4342 1.355 . S
C4343 C4345 1.419 . S
C4344 C4342 1.415 . S
C4344 C4349 1.425 . S
C4344 C4351 1.409 . S
C4345 H4337 0.930 . S
C4345 C4343 1.419 . S
C4345 C4346 1.362 . S
C4346 H4338 0.930 . S
C4346 C4345 1.362 . S
C4346 C4349 1.409 . S
C4347 H4339 0.930 . S
C4347 C4348 1.355 . S
C4347 C4349 1.415 . S
C4348 C4347 1.355 . S
C4348 C4350 1.419 . S
C4349 C4344 1.425 . S
C4349 C4346 1.409 . S
C4349 C4347 1.415 . S
C4350 H4340 0.930 . S
C4350 C4348 1.419 . S
C4350 C4351 1.362 . S
C4351 H4341 0.930 . S
C4351 C4344 1.409 . S
C4351 C4350 1.362 . S
H4352 C4358 0.930 . S
H4353 C4361 0.930 . S
H4354 C4362 0.930 . S
H4355 C4363 0.930 . S
H4356 C4366 0.930 . S
H4357 C4367 0.930 . S
C4358 H4352 0.930 . S
C4358 C4359 1.355 . S
C4358 C4360 1.415 . S
C4359 C4358 1.355 . S
C4359 C4361 1.419 . S
C4360 C4358 1.415 . S
C4360 C4365 1.425 . S
C4360 C4367 1.409 . S
C4361 H4353 0.930 . S
C4361 C4359 1.419 . S
C4361 C4362 1.362 . S
C4362 H4354 0.930 . S
C4362 C4361 1.362 . S
C4362 C4365 1.409 . S
C4363 H4355 0.930 . S
C4363 C4364 1.355 . S
C4363 C4365 1.415 . S
C4364 C4363 1.355 . S
C4364 C4366 1.419 . S
C4365 C4360 1.425 . S
C4365 C4362 1.409 . S
C4365 C4363 1.415 . S
C4366 H4356 0.930 . S
C4366 C4364 1.419 . S
C4366 C4367 1.362 . S
C4367 H4357 0.930 . S
C4367 C4360 1.409 . S
C4367 C4366 1.362 . S
C2839 C1183 1.732 . S
C2844 C5 1.736 . S
C2855 C92 1.804 . S
C2860 C1036 1.779 . S
C2871 C123 1.821 . S
C2876 C1095 1.786 . S
C2887 C1154 1.888 . S
C2892 C210 1.875 . S
C2903 C1390 1.857 . S
C2908 C288 1.908 . S
C2919 C298 1.849 . S
C2924 C1272 1.863 . S
C2935 C406 1.726 . S
C2940 C1301 1.763 . S
C2951 C416 1.744 . S
C2956 C947 1.722 . S
C2967 C475 1.731 . S
C2972 C890 1.698 . S
C2983 C583 1.754 . S
C2988 C741 1.805 . S
C2999 C593 1.668 . S
C3004 C772 1.627 . S
C3015 C859 1.828 . S
C3020 C701 1.836 . S
C3031 C1468 1.887 . S
C3036 C2629 1.917 . S
C3047 C2422 1.601 . S
C3052 C1478 1.600 . S
C3063 C1586 1.873 . S
C3068 C2481 1.901 . S
C3079 C2570 1.828 . S
C3084 C1596 1.798 . S
C3095 C1657 1.662 . S
C3100 C2776 1.652 . S
C3111 C2658 1.825 . S
C3116 C1744 1.830 . S
C3127 C1775 1.492 . S
C3132 C2717 1.498 . S
C3143 C2393 1.948 . S
C3148 C1862 1.934 . S
C3159 C1921 1.858 . S
C3164 C2353 1.812 . S
C3175 C2127 1.752 . S
C3180 C1952 1.762 . S
C3191 C2235 1.776 . S
C3196 C2039 1.810 . S
C3207 C2245 1.725 . S
C3212 C2070 1.754 . S
C3223 C1539 1.253 . S
C3228 C52 1.283 . S
C3239 C62 1.244 . S
C3244 C1626 1.208 . S
C3255 C170 1.282 . S
C3260 C1421 1.265 . S
C3271 C180 1.409 . S
C3276 C1508 1.353 . S
C3287 C241 1.418 . S
C3292 C1822 1.415 . S
C3303 C1832 1.284 . S
C3308 C328 1.300 . S
C3319 C1704 1.235 . S
C3324 C359 1.293 . S
C3335 C1714 1.233 . S
C3340 C446 1.311 . S
C3351 C2157 1.390 . S
C3356 C505 1.378 . S
C3367 C536 1.195 . S
C3372 C2188 1.168 . S
C3383 C2275 1.381 . S
C3388 C623 1.364 . S
C3399 C654 1.200 . S
C3404 C2306 1.144 . S
C3415 C711 1.238 . S
C3420 C1891 1.218 . S
C3431 C819 1.355 . S
C3436 C1999 1.312 . S
C3447 C2009 1.184 . S
C3452 C829 1.230 . S
C3463 C2117 1.343 . S
C3468 C937 1.314 . S
C3479 C977 1.362 . S
C3484 C2540 1.306 . S
C3495 C1006 1.308 . S
C3500 C2688 1.255 . S
C3511 C2747 1.410 . S
C3516 C1065 1.347 . S
C3527 C2363 1.113 . S
C3532 C1124 1.082 . S
C3543 C1213 1.332 . S
C3548 C2806 1.370 . S
C3559 C2452 1.391 . S
C3564 C1242 1.435 . S
C3575 C1331 1.365 . S
C3580 C2511 1.405 . S
C3591 C1360 1.085 . S
C3596 C2599 1.154 . S
C3607 C1655 1.810 . S
C3612 C33 1.789 . S
C3623 C1763 1.862 . S
C3628 C64 1.816 . S
C3639 C1773 1.883 . S
C3644 C151 1.912 . S
C3655 C182 1.819 . S
C3660 C1881 1.878 . S
C3671 C1449 1.876 . S
C3676 C239 1.863 . S
C3687 C1480 1.875 . S
C3692 C347 1.909 . S
C3703 C357 1.804 . S
C3708 C1567 1.809 . S
C3719 C1598 1.837 . S
C3724 C465 1.837 . S
C3735 C524 1.815 . S
C3740 C2247 1.796 . S
C3751 C534 1.897 . S
C3756 C2334 1.901 . S
C3767 C2129 1.805 . S
C3772 C642 1.831 . S
C3783 C652 1.912 . S
C3788 C2216 1.920 . S
C3799 C2058 1.946 . S
C3804 C713 1.894 . S
C3815 C800 1.803 . S
C3820 C2068 1.757 . S
C3831 C831 1.907 . S
C3836 C1940 1.923 . S
C3847 C918 1.811 . S
C3852 C1950 1.789 . S
C3863 C2660 1.837 . S
C3868 C996 1.809 . S
C3879 C1008 1.930 . S
C3884 C2589 1.990 . S
C3895 C1067 1.882 . S
C3900 C2648 1.895 . S
C3911 C1126 1.771 . S
C3916 C2424 1.749 . S
C3927 C2483 1.814 . S
C3932 C1232 1.793 . S
C3943 C2412 1.887 . S
C3948 C1244 1.897 . S
C3959 C2778 1.938 . S
C3964 C1350 1.993 . S
C3975 C1362 1.752 . S
C3980 C2719 1.805 . S
C3991 C888 1.510 . S
C3996 C3 1.482 . S
C4007 C111 1.491 . S
C4012 C760 1.485 . S
C4023 C770 1.565 . S
C4028 C121 1.531 . S
C4039 C878 1.402 . S
C4044 C229 1.400 . S
C4055 C564 1.409 . S
C4060 C269 1.426 . S
C4071 C300 1.493 . S
C4076 C595 1.510 . S
C4087 C387 1.496 . S
C4092 C682 1.493 . S
C4103 C477 1.482 . S
C4108 C418 1.470 . S
C4119 C949 1.444 . S
C4124 C1185 1.453 . S
C4135 C1409 1.584 . S
C4140 C1055 1.615 . S
C4151 C1291 1.278 . S
C4156 C1114 1.289 . S
C4167 C1173 1.539 . S
C4172 C1303 1.536 . S
C4183 C2304 1.444 . S
C4188 C1419 1.462 . S
C4199 C2176 1.543 . S
C4204 C1527 1.539 . S
C4215 C1537 1.571 . S
C4220 C2186 1.563 . S
C4231 C2294 1.517 . S
C4236 C1645 1.520 . S
C4247 C1980 1.426 . S
C4252 C1685 1.428 . S
C4263 C1716 1.496 . S
C4268 C2011 1.500 . S
C4279 C1803 1.447 . S
C4284 C2098 1.463 . S
C4295 C1834 1.515 . S
C4300 C1893 1.515 . S
C4311 C2365 1.469 . S
C4316 C2601 1.476 . S
C4327 C2825 1.562 . S
C4332 C2471 1.566 . S
C4343 C2707 1.476 . S
C4348 C2530 1.488 . S
C4359 C2766 1.679 . S
C4364 C2542 1.645 . S
