# Generated by pormake.
# Topology tsi, (8)-cn, num edge types: 1
# Building blocks:
#     Node 0, Type 0, BuildingBlock: LIZSOE_clean_sbu_0, # of connection points: 8
#     Node 1, Type 0, BuildingBlock: LIZSOE_clean_sbu_0, # of connection points: 8
#     Node 2, Type 0, BuildingBlock: LIZSOE_clean_sbu_0, # of connection points: 8
#     Node 3, Type 0, BuildingBlock: LIZSOE_clean_sbu_0, # of connection points: 8
#     Edge 4, Type (0, 0), BuildingBlock: MIFKUJ_clean_linker_0, # of connection points: 2
#     Edge 5, Type (0, 0), BuildingBlock: MIFKUJ_clean_linker_0, # of connection points: 2
#     Edge 6, Type (0, 0), BuildingBlock: MIFKUJ_clean_linker_0, # of connection points: 2
#     Edge 7, Type (0, 0), BuildingBlock: MIFKUJ_clean_linker_0, # of connection points: 2
#     Edge 8, Type (0, 0), BuildingBlock: MIFKUJ_clean_linker_0, # of connection points: 2
#     Edge 9, Type (0, 0), BuildingBlock: MIFKUJ_clean_linker_0, # of connection points: 2
#     Edge 10, Type (0, 0), BuildingBlock: MIFKUJ_clean_linker_0, # of connection points: 2
#     Edge 11, Type (0, 0), BuildingBlock: MIFKUJ_clean_linker_0, # of connection points: 2
#     Edge 12, Type (0, 0), BuildingBlock: MIFKUJ_clean_linker_0, # of connection points: 2
#     Edge 13, Type (0, 0), BuildingBlock: MIFKUJ_clean_linker_0, # of connection points: 2
#     Edge 14, Type (0, 0), BuildingBlock: MIFKUJ_clean_linker_0, # of connection points: 2
#     Edge 15, Type (0, 0), BuildingBlock: MIFKUJ_clean_linker_0, # of connection points: 2
#     Edge 16, Type (0, 0), BuildingBlock: MIFKUJ_clean_linker_0, # of connection points: 2
#     Edge 17, Type (0, 0), BuildingBlock: MIFKUJ_clean_linker_0, # of connection points: 2
#     Edge 18, Type (0, 0), BuildingBlock: MIFKUJ_clean_linker_0, # of connection points: 2
#     Edge 19, Type (0, 0), BuildingBlock: MIFKUJ_clean_linker_0, # of connection points: 2
# Relax obj value: 0.211
# Max RMSD: 0.260
# Mean RMSD: 0.249
data_MOF--net-tsi--node1-LIZSOE_clean_sbu_0--edge1-MIFKUJ_clean_linker_0
_symmetry_space_group_name_H-M    P1
_symmetry_Int_Tables_number       1
_symmetry_cell_setting            triclinic
loop_
_symmetry_equiv_pos_as_xyz
'x, y, z'
_cell_length_a     20.033077
_cell_length_b     20.033417
_cell_length_c     82.717158
_cell_angle_alpha  99.760644
_cell_angle_beta   99.31937
_cell_angle_gamma 90.233997
loop_
_atom_site_label
_atom_site_type_symbol
_atom_site_fract_x
_atom_site_fract_y
_atom_site_fract_z
_atom_type_partial_charge
Co0 Co 0.17718 0.39806 0.4543 0.0
N1 N 0.23565 0.34729 0.46704 0.0
C2 C 0.29809 0.37001 0.47481 0.0
N3 N 0.27746 0.27759 0.48458 0.0
C4 C 0.22452 0.29018 0.47321 0.0
C5 C 0.32359 0.32771 0.48563 0.0
Co6 Co 0.02977 0.47534 0.3824 0.0
N7 N 0.96763 0.51602 0.36744 0.0
N8 N 0.89918 0.53625 0.34431 0.0
C9 C 0.93458 0.59351 0.35166 0.0
C10 C 0.97599 0.58117 0.36566 0.0
C11 C 0.91938 0.48989 0.35423 0.0
Co12 Co 0.10055 0.43912 0.4189 0.0
C13 C 0.0738 0.3848 0.3812 0.0
H14 H 1.01385 0.61665 0.37327 0.0
O15 O 0.11557 0.4476 0.44413 0.0
O16 O 1.00032 0.43857 0.41912 0.0
O17 O 0.09532 0.33794 0.41504 0.0
O18 O 0.20188 0.43985 0.41883 0.0
O19 O 0.24796 0.42486 0.4445 0.0
O20 O 0.95886 0.45493 0.39346 0.0
O21 O 0.08932 0.43331 0.3941 0.0
O22 O 0.04845 0.55808 0.39694 0.0
O23 O 0.16147 0.32081 0.43795 0.0
O24 O 0.10524 0.3768 0.46197 0.0
O25 O 0.10342 0.54134 0.42185 0.0
O26 O 0.02105 0.39273 0.37033 0.0
C27 C 0.12838 0.29888 0.42371 0.0
C28 C 0.89661 0.41661 0.35024 0.0
H29 H 0.89403 0.39672 0.36182 0.0
H30 H 0.84657 0.40868 0.34217 0.0
H31 H 0.93359 0.3867 0.3437 0.0
C32 C 0.9505 0.44283 0.4076 0.0
C33 C 0.25337 0.43755 0.4302 0.0
H34 H 0.3217 0.41714 0.4736 0.0
H35 H 0.12659 0.27283 0.47923 0.0
H36 H 0.16525 0.19711 0.4709 0.0
H37 H 0.12962 0.25276 0.45732 0.0
C38 C 0.15791 0.25104 0.46985 0.0
C39 C 0.08045 0.4251 0.45442 0.0
C40 C 0.07907 0.58028 0.41165 0.0
H41 H 0.37047 0.33558 0.4944 0.0
H42 H 0.934 0.63995 0.34658 0.0
Co43 Co 0.12698 0.5779 0.69063 0.0
N44 N 0.08734 0.51947 0.70157 0.0
C45 C 0.09687 0.45296 0.70174 0.0
N46 N 0.01972 0.48336 0.71765 0.0
C47 C 0.04087 0.53685 0.71151 0.0
C48 C 0.05533 0.4307 0.71158 0.0
Co49 Co 0.19674 0.67907 0.62304 0.0
N50 N 0.23813 0.73387 0.61135 0.0
N51 N 0.26363 0.80642 0.59514 0.0
C52 C 0.30481 0.75371 0.59356 0.0
C53 C 0.28918 0.70961 0.60349 0.0
C54 C 0.22351 0.79358 0.60605 0.0
Co55 Co 0.16115 0.62987 0.65693 0.0
C56 C 0.10407 0.63834 0.62005 0.0
H57 H 0.31134 0.66088 0.60429 0.0
O58 O 0.17006 0.63598 0.68215 0.0
O59 O 0.15342 0.73123 0.66141 0.0
O60 O 0.0589 0.62014 0.65449 0.0
O61 O 0.16951 0.52876 0.65207 0.0
O62 O 0.1367 0.5041 0.67455 0.0
O63 O 0.19004 0.75442 0.63907 0.0
O64 O 0.15175 0.62372 0.63183 0.0
O65 O 0.27972 0.66298 0.6348 0.0
O66 O 0.04388 0.59202 0.67886 0.0
O67 O 0.20983 0.56763 0.70027 0.0
O68 O 0.26332 0.63928 0.65947 0.0
O69 O 0.11416 0.69103 0.61342 0.0
C70 C 0.02073 0.60602 0.66463 0.0
C71 C 0.16664 0.83787 0.6106 0.0
H72 H 0.1304 0.81232 0.61644 0.0
H73 H 0.18818 0.88341 0.61954 0.0
H74 H 0.13899 0.85529 0.5994 0.0
C75 C 0.17232 0.7734 0.65303 0.0
C76 C 0.15346 0.48581 0.66052 0.0
H77 H 0.13176 0.42248 0.69518 0.0
H78 H 1.01025 0.61904 0.72897 0.0
H79 H 0.9737 0.61724 0.70747 0.0
H80 H 0.06065 0.64425 0.71451 0.0
C81 C 0.02038 0.60861 0.71599 0.0
C82 C 0.21743 0.62238 0.69415 0.0
C83 C 0.30212 0.65062 0.64923 0.0
H84 H 0.05112 0.3795 0.71398 0.0
H85 H 0.34171 0.74631 0.58525 0.0
Co86 Co 0.35566 0.7662 0.93138 0.0
N87 N 0.30973 0.82557 0.94532 0.0
C88 C 0.24531 0.84588 0.94264 0.0
N89 N 0.28586 0.88721 0.96898 0.0
C90 C 0.33337 0.85215 0.96141 0.0
C91 C 0.23045 0.88312 0.95716 0.0
Co92 Co 0.42868 0.59526 0.86007 0.0
N93 N 0.48084 0.53576 0.84776 0.0
N94 N 0.54697 0.48916 0.82963 0.0
C95 C 0.50965 0.43931 0.83314 0.0
C96 C 0.46878 0.468 0.84411 0.0
C97 C 0.52964 0.54711 0.83881 0.0
Co98 Co 0.38714 0.68129 0.89515 0.0
C99 C 0.39038 0.68759 0.85789 0.0
H100 H 0.43028 0.44123 0.84851 0.0
O101 O 0.40028 0.70526 0.92006 0.0
O102 O 0.48804 0.69058 0.89776 0.0
O103 O 0.38114 0.77981 0.89278 0.0
O104 O 0.28554 0.67371 0.89346 0.0
O105 O 0.27314 0.72988 0.91857 0.0
O106 O 0.50867 0.63105 0.87399 0.0
O107 O 0.37551 0.65632 0.8698 0.0
O108 O 0.42111 0.53221 0.8737 0.0
O109 O 0.35743 0.82984 0.91752 0.0
O110 O 0.35675 0.70122 0.94326 0.0
O111 O 0.39223 0.58276 0.89768 0.0
O112 O 0.43227 0.65937 0.84857 0.0
C113 C 0.36735 0.83208 0.90282 0.0
C114 C 0.55996 0.61577 0.83865 0.0
H115 H 0.56297 0.64939 0.85081 0.0
H116 H 0.6117 0.61136 0.83548 0.0
H117 H 0.52797 0.63982 0.82913 0.0
C118 C 0.52864 0.66697 0.88807 0.0
C119 C 0.2487 0.69542 0.90446 0.0
H120 H 0.21058 0.83298 0.93104 0.0
H121 H 0.40009 0.82483 0.98219 0.0
H122 H 0.4344 0.88691 0.97222 0.0
H123 H 0.42777 0.7998 0.96222 0.0
C124 C 0.40287 0.83961 0.96997 0.0
C125 C 0.38942 0.67192 0.93182 0.0
C126 C 0.40722 0.53011 0.88802 0.0
H127 H 0.18228 0.90497 0.95895 0.0
H128 H 0.50941 0.38645 0.82748 0.0
Co129 Co 0.43196 0.30899 0.1944 0.0
N130 N 0.38713 0.27409 0.21026 0.0
C131 C 0.36559 0.20877 0.20851 0.0
N132 N 0.34703 0.25647 0.23342 0.0
C133 C 0.37346 0.30243 0.22559 0.0
C134 C 0.34153 0.198 0.22252 0.0
Co135 Co 0.47214 0.35499 0.11875 0.0
N136 N 0.50127 0.40061 0.10296 0.0
N137 N 0.51243 0.43461 0.07883 0.0
C138 C 0.54802 0.47808 0.09156 0.0
C139 C 0.54164 0.45694 0.10625 0.0
C140 C 0.4847 0.38764 0.08611 0.0
Co141 Co 0.45534 0.33074 0.1566 0.0
C142 C 0.38464 0.3091 0.12046 0.0
H143 H 0.56361 0.48218 0.1186 0.0
O144 O 0.47583 0.34749 0.18158 0.0
O145 O 0.45197 0.43189 0.1574 0.0
O146 O 0.35432 0.32874 0.156 0.0
O147 O 0.45761 0.22963 0.15657 0.0
O148 O 0.43919 0.22154 0.18235 0.0
O149 O 0.45686 0.43868 0.13114 0.0
O150 O 0.4387 0.30986 0.13171 0.0
O151 O 0.56095 0.35617 0.13054 0.0
O152 O 0.34701 0.31739 0.18187 0.0
O153 O 0.43142 0.39549 0.20357 0.0
O154 O 0.5563 0.33401 0.15619 0.0
O155 O 0.38506 0.34898 0.10954 0.0
C156 C 0.31935 0.32422 0.16738 0.0
C157 C 0.43618 0.33125 0.07703 0.0
H158 H 0.3842 0.35082 0.07552 0.0
H159 H 0.44752 0.31132 0.0645 0.0
H160 H 0.43749 0.28917 0.08423 0.0
C161 C 0.45058 0.46631 0.14572 0.0
C162 C 0.44997 0.19463 0.16789 0.0
H163 H 0.36725 0.1702 0.19777 0.0
H164 H 0.43426 0.39371 0.23465 0.0
H165 H 0.35864 0.39103 0.24385 0.0
H166 H 0.35196 0.40515 0.22303 0.0
C167 C 0.38016 0.37711 0.23228 0.0
C168 C 0.47172 0.40059 0.19295 0.0
C169 C 0.58977 0.34605 0.14485 0.0
H170 H 0.32235 0.15016 0.22464 0.0
H171 H 0.57575 0.52298 0.09034 0.0
H172 H 0.96029 0.40074 0.46383 0.0
H173 H 0.94046 0.43638 0.49237 0.0
H174 H 0.1067 0.58228 0.5011 0.0
H175 H 0.12519 0.54775 0.47247 0.0
H176 H 0.02942 0.41209 0.5174 0.0
H177 H 0.10612 0.69444 0.53755 0.0
H178 H 0.09953 0.80046 0.52605 0.0
H179 H 0.92046 0.72301 0.49189 0.0
H180 H 0.92543 0.61687 0.50335 0.0
H181 H 0.16093 0.52658 0.60484 0.0
H182 H 0.13314 0.48576 0.57491 0.0
H183 H 0.94722 0.59368 0.57337 0.0
H184 H 0.97532 0.63489 0.60329 0.0
H185 H 0.02347 0.63608 0.55318 0.0
H186 H 0.95426 0.41636 0.5626 0.0
H187 H 0.96511 0.30789 0.57299 0.0
H188 H 0.13412 0.25905 0.54767 0.0
H189 H 0.12527 0.36771 0.5374 0.0
C190 C 0.98949 0.44375 0.47146 0.0
C191 C 0.04394 0.47168 0.46569 0.0
C192 C 0.97929 0.463 0.488 0.0
C193 C 0.02277 0.51131 0.49921 0.0
C194 C 0.07186 0.54522 0.49287 0.0
C195 C 0.0817 0.52624 0.47625 0.0
C196 C 0.02229 0.51947 0.51767 0.0
C197 C 0.02766 0.4612 0.52518 0.0
C198 C 0.02096 0.58336 0.52805 0.0
C199 C 1.01649 0.64743 0.52124 0.0
C200 C 0.06511 0.70015 0.52765 0.0
C201 C 0.06172 0.76025 0.52112 0.0
C202 C 1.00972 0.76839 0.50821 0.0
C203 C 0.96085 0.71654 0.50185 0.0
C204 C 0.96397 0.65635 0.50835 0.0
C205 C 0.11189 0.53787 0.59839 0.0
C206 C 0.07028 0.58398 0.60663 0.0
C207 C 0.09652 0.51543 0.58107 0.0
C208 C 0.03857 0.5376 0.57162 0.0
C209 C 0.99272 0.57635 0.58021 0.0
C210 C 1.00804 0.59867 0.59749 0.0
C211 C 0.03029 0.52859 0.55292 0.0
C212 C 0.0243 0.58686 0.54538 0.0
C213 C 0.03242 0.46475 0.54255 0.0
C214 C 0.03937 0.40061 0.54933 0.0
C215 C 0.99433 0.38297 0.55943 0.0
C216 C 1.00001 0.32131 0.56526 0.0
C217 C 0.05024 0.27663 0.56098 0.0
C218 C 0.09524 0.2937 0.55097 0.0
C219 C 0.08992 0.35533 0.54516 0.0
H220 H 0.05415 0.22862 0.56535 0.0
H221 H 1.00725 0.81491 0.50315 0.0
H222 H 0.64983 0.40407 0.82731 0.0
H223 H 0.72873 0.39676 0.80723 0.0
H224 H 0.61815 0.54848 0.78363 0.0
H225 H 0.53954 0.55552 0.80368 0.0
H226 H 0.65484 0.44068 0.76099 0.0
H227 H 0.75741 0.59683 0.80957 0.0
H228 H 0.80121 0.63457 0.83937 0.0
H229 H 0.94198 0.47351 0.83826 0.0
H230 H 0.89861 0.43438 0.80845 0.0
H231 H 0.8974 0.5418 0.71558 0.0
H232 H 0.81479 0.53861 0.73419 0.0
H233 H 0.94436 0.40981 0.76153 0.0
H234 H 0.02901 0.41688 0.74356 0.0
H235 H 0.89708 0.50211 0.7823 0.0
H236 H 0.79936 0.35135 0.73256 0.0
H237 H 0.75675 0.31777 0.70257 0.0
H238 H 0.60507 0.46815 0.70559 0.0
H239 H 0.64743 0.50328 0.73556 0.0
C240 C 0.64262 0.43549 0.81777 0.0
C241 C 0.59031 0.48177 0.81725 0.0
C242 C 0.68746 0.43145 0.80637 0.0
C243 C 0.67971 0.47284 0.79412 0.0
C244 C 0.62524 0.51654 0.79307 0.0
C245 C 0.58092 0.52105 0.80458 0.0
C246 C 0.72973 0.47247 0.78277 0.0
C247 C 0.70777 0.45459 0.76558 0.0
C248 C 0.79881 0.48945 0.78886 0.0
C249 C 0.82433 0.5123 0.80682 0.0
C250 C 0.79725 0.56905 0.81571 0.0
C251 C 0.8221 0.59079 0.83259 0.0
C252 C 0.87423 0.55636 0.84068 0.0
C253 C 0.90156 0.50005 0.83195 0.0
C254 C 0.87694 0.47814 0.81506 0.0
C255 C 0.9089 0.51424 0.7258 0.0
C256 C 0.9703 0.48094 0.7284 0.0
C257 C 0.86109 0.51128 0.73624 0.0
C258 C 0.87295 0.47331 0.74918 0.0
C259 C 0.93403 0.43945 0.75166 0.0
C260 C 0.98217 0.44316 0.74135 0.0
C261 C 0.82257 0.47005 0.76038 0.0
C262 C 0.84438 0.48748 0.77761 0.0
C263 C 0.75332 0.45258 0.75428 0.0
C264 C 0.72727 0.4307 0.73627 0.0
C265 C 0.75732 0.3777 0.72681 0.0
C266 C 0.73315 0.3583 0.70981 0.0
C267 C 0.67847 0.39105 0.70216 0.0
C268 C 0.64761 0.44301 0.71151 0.0
C269 C 0.6717 0.4627 0.7285 0.0
H270 H 0.65986 0.37598 0.689 0.0
H271 H 0.89371 0.5735 0.85369 0.0
H272 H 0.32905 0.55001 0.93016 0.0
H273 H 0.36077 0.48243 0.9519 0.0
H274 H 0.55126 0.59439 0.96677 0.0
H275 H 0.52109 0.65868 0.94418 0.0
H276 H 0.56328 0.47564 0.9774 0.0
H277 H 0.40768 0.65931 0.98248 0.0
H278 H 0.30553 0.72133 0.97376 0.0
H279 H 0.18029 0.54714 0.97391 0.0
H280 H 0.28169 0.48429 0.98279 0.0
H281 H 0.47254 0.54791 0.06726 0.0
H282 H 0.4609 0.56828 0.03861 0.0
H283 H 0.51644 0.36261 1.02264 0.0
H284 H 0.53226 0.34392 0.05159 0.0
H285 H 0.38183 0.52187 1.01174 0.0
H286 H 0.58924 0.35354 0.9873 0.0
H287 H 0.69826 0.30663 0.99786 0.0
H288 H 0.7319 0.47215 0.039 0.0
H289 H 0.62355 0.52044 1.02857 0.0
C290 C 0.38009 0.55606 0.93708 0.0
C291 C 0.42268 0.60937 0.93533 0.0
C292 C 0.39752 0.51874 0.94991 0.0
C293 C 0.4571 0.53547 0.96154 0.0
C294 C 0.50448 0.58106 0.95817 0.0
C295 C 0.48763 0.61719 0.94501 0.0
C296 C 0.4641 0.51538 0.97836 0.0
C297 C 0.52334 0.48509 0.98484 0.0
C298 C 0.41308 0.52935 0.98841 0.0
C299 C 0.35212 0.56703 0.98318 0.0
C300 C 0.35832 0.63426 0.98062 0.0
C301 C 0.30063 0.66956 0.97567 0.0
C302 C 0.23655 0.63808 0.97319 0.0
C303 C 0.22997 0.57141 0.9758 0.0
C304 C 0.28747 0.53602 0.98087 0.0
C305 C 0.4821 0.50709 0.0576 0.0
C306 C 0.50155 0.44383 0.06162 0.0
C307 C 0.47522 0.51858 0.04119 0.0
C308 C 0.48785 0.46718 1.02829 0.0
C309 C 0.50693 0.40353 0.03228 0.0
C310 C 0.5146 0.39231 0.0488 0.0
C311 C 0.48081 0.48113 1.01084 0.0
C312 C 0.42148 0.511 1.00425 0.0
C313 C 0.53254 0.46821 1.00093 0.0
C314 C 0.59797 0.44007 1.00726 0.0
C315 C 0.62003 0.37996 0.99858 0.0
C316 C 0.68167 0.35314 1.00454 0.0
C317 C 0.72185 0.38625 1.01913 0.0
C318 C 0.7006 0.44641 1.02774 0.0
C319 C 0.63905 0.47348 1.02182 0.0
H320 H 0.76953 0.36539 1.02373 0.0
H321 H 0.192 0.66542 0.96928 0.0
H322 H 0.94542 0.56369 0.31734 0.0
H323 H 0.88363 0.55166 0.28884 0.0
H324 H 0.7081 0.47445 0.30465 0.0
H325 H 0.76967 0.48833 0.33335 0.0
H326 H 0.73644 0.39886 0.27492 0.0
H327 H 0.71099 0.63221 0.2984 0.0
H328 H 0.75165 0.74684 0.31263 0.0
H329 H 0.86351 0.76596 0.27345 0.0
H330 H 0.82427 0.65096 0.2591 0.0
H331 H 0.47742 0.52532 0.21229 0.0
H332 H 0.56744 0.5606 0.23589 0.0
H333 H 0.69511 0.40797 0.21498 0.0
H334 H 0.60407 0.37078 0.19172 0.0
H335 H 0.69676 0.5987 0.24681 0.0
H336 H 0.76219 0.32128 0.24407 0.0
H337 H 0.71567 0.2073 0.23068 0.0
H338 H 0.5138 0.27836 0.23025 0.0
H339 H 0.55908 0.39282 0.24361 0.0
C340 C 0.89365 0.54404 0.31469 0.0
C341 C 0.86275 0.52555 0.32746 0.0
C342 C 0.85841 0.53723 0.29843 0.0
C343 C 0.79116 0.51221 0.29457 0.0
C344 C 0.76015 0.49333 0.3073 0.0
C345 C 0.7954 0.50068 0.32365 0.0
C346 C 0.75308 0.50652 0.27732 0.0
C347 C 0.72818 0.44255 0.26876 0.0
C348 C 0.74202 0.56343 0.26923 0.0
C349 C 0.76526 0.63272 0.27777 0.0
C350 C 0.74471 0.66064 0.29289 0.0
C351 C 0.76742 0.72572 0.30096 0.0
C352 C 0.81029 0.76359 0.29397 0.0
C353 C 0.83038 0.73653 0.27886 0.0
C354 C 0.80789 0.67142 0.27075 0.0
C355 C 0.52596 0.50167 0.21224 0.0
C356 C 0.53286 0.44416 0.20029 0.0
C357 C 0.57739 0.5215 0.22588 0.0
C358 C 0.63706 0.48497 0.22762 0.0
C359 C 0.64866 0.43559 0.21419 0.0
C360 C 0.59685 0.41522 0.20063 0.0
C361 C 0.68052 0.49087 0.24433 0.0
C362 C 0.70615 0.55485 0.25285 0.0
C363 C 0.69184 0.43407 0.25249 0.0
C364 C 0.66397 0.36551 0.24467 0.0
C365 C 0.70785 0.31246 0.24112 0.0
C366 C 0.68169 0.2479 0.23351 0.0
C367 C 0.61172 0.23576 0.22952 0.0
C368 C 0.56782 0.28807 0.23322 0.0
C369 C 0.59368 0.35276 0.24079 0.0
H370 H 0.59151 0.18578 0.22362 0.0
H371 H 0.82782 0.81397 0.30024 0.0
H372 H 0.41838 0.32368 0.26261 0.0
H373 H 0.38555 0.33713 0.29025 0.0
H374 H 0.20567 0.21249 0.2695 0.0
H375 H 0.23593 0.20388 0.24178 0.0
H376 H 0.17096 0.31033 0.28896 0.0
H377 H 0.35763 0.16144 0.29535 0.0
H378 H 0.47522 0.12601 0.295 0.0
H379 H 0.54769 0.30037 0.33165 0.0
H380 H 0.43056 0.33732 0.33206 0.0
H381 H 0.06215 0.26034 0.36173 0.0
H382 H 0.12362 0.22813 0.33848 0.0
H383 H 0.26474 0.39631 0.35807 0.0
H384 H 0.20211 0.42982 0.38106 0.0
H385 H 0.3237 0.27777 0.34034 0.0
H386 H 0.13798 0.42848 0.33225 0.0
H387 H 0.02145 0.46892 0.33059 0.0
H388 H 0.94807 0.28835 0.29623 0.0
H389 H 0.06431 0.24675 0.29773 0.0
C390 C 0.37106 0.30058 0.26393 0.0
C391 C 0.32861 0.26457 0.24989 0.0
C392 C 0.35296 0.30696 0.27984 0.0
C393 C 0.29318 0.27532 0.2822 0.0
C394 C 0.25184 0.23787 0.26818 0.0
C395 C 0.26924 0.23268 0.25229 0.0
C396 C 0.27131 0.28345 0.29896 0.0
C397 C 0.20437 0.30168 0.30006 0.0
C398 C 0.31497 0.2748 0.31378 0.0
C399 C 0.38536 0.25247 0.31361 0.0
C400 C 0.39867 0.19246 0.30325 0.0
C401 C 0.46524 0.17207 0.30306 0.0
C402 C 0.5189 0.211 0.31326 0.0
C403 C 0.50609 0.27031 0.32373 0.0
C404 C 0.43962 0.29096 0.32396 0.0
C405 C 0.10853 0.28819 0.36162 0.0
C406 C 0.12757 0.34724 0.37343 0.0
C407 C 0.14309 0.27034 0.34815 0.0
C408 C 0.19803 0.31062 0.3463 0.0
C409 C 0.22247 0.36445 0.35918 0.0
C410 C 0.18733 0.38282 0.37259 0.0
C411 C 0.22317 0.30248 0.33002 0.0
C412 C 0.29052 0.28517 0.3291 0.0
C413 C 0.17995 0.31145 0.31525 0.0
C414 C 0.10966 0.33419 0.31526 0.0
C415 C 0.09687 0.39699 0.32453 0.0
C416 C 0.03093 0.42034 0.32351 0.0
C417 C 0.97739 0.38128 0.31326 0.0
C418 C 0.9896 0.31857 0.30413 0.0
C419 C 0.05548 0.29513 0.30505 0.0
H420 H 0.92635 0.39934 0.31244 0.0
H421 H 0.5704 0.19514 0.31309 0.0
H422 H 0.15305 0.73101 0.70866 0.0
H423 H 0.17606 0.77533 0.73856 0.0
H424 H 0.36653 0.67537 0.74234 0.0
H425 H 0.3435 0.63094 0.71253 0.0
H426 H 0.28323 0.62955 0.76113 0.0
H427 H 0.35944 0.84613 0.75254 0.0
H428 H 0.35183 0.95307 0.74145 0.0
H429 H 0.18071 1.00779 0.76555 0.0
H430 H 0.18651 0.90064 0.77657 0.0
H431 H 0.4202 0.8067 0.84878 0.0
H432 H 0.38029 0.82498 0.82045 0.0
H433 H 0.2164 0.67965 0.81605 0.0
H434 H 0.25795 0.65971 0.84424 0.0
H435 H 0.28236 0.85342 0.79744 0.0
H436 H 0.19698 0.57659 0.78152 0.0
H437 H 0.2137 0.46832 0.79193 0.0
H438 H 0.41596 0.53391 0.815 0.0
H439 H 0.39999 0.64308 0.8052 0.0
C440 C 0.20189 0.72213 0.71561 0.0
C441 C 0.24658 0.67747 0.70803 0.0
C442 C 0.21456 0.74672 0.73288 0.0
C443 C 0.27255 0.72782 0.74294 0.0
C444 C 0.32104 0.69035 0.73501 0.0
C445 C 0.30847 0.66596 0.7178 0.0
C446 C 0.27802 0.7371 0.76158 0.0
C447 C 0.28273 0.67876 0.76897 0.0
C448 C 0.27701 0.80093 0.77205 0.0
C449 C 0.27296 0.86492 0.76524 0.0
C450 C 0.31966 0.88055 0.75532 0.0
C451 C 0.3158 0.94132 0.74908 0.0
C452 C 0.26575 0.98713 0.75277 0.0
C453 C 0.21941 0.97223 0.76269 0.0
C454 C 0.22298 0.91149 0.76894 0.0
C455 C 0.37304 0.78182 0.84221 0.0
C456 C 0.3431 0.73088 0.84883 0.0
C457 C 0.35088 0.79133 0.82574 0.0
C458 C 0.29719 0.75117 0.8156 0.0
C459 C 0.25968 0.70949 0.82326 0.0
C460 C 0.2823 0.69957 0.8397 0.0
C461 C 0.28728 0.74566 0.79689 0.0
C462 C 0.28185 0.80436 0.7895 0.0
C463 C 0.28769 0.68214 0.78626 0.0
C464 C 0.29702 0.61798 0.79279 0.0
C465 C 0.24484 0.56794 0.78895 0.0
C466 C 0.25413 0.50661 0.79482 0.0
C467 C 0.31576 0.49451 0.80431 0.0
C468 C 0.36806 0.54378 0.80795 0.0
C469 C 0.35884 0.60549 0.80231 0.0
H470 H 0.32317 0.44685 0.80876 0.0
H471 H 0.263 0.0343 0.74801 0.0
H472 H 0.19818 0.86964 0.98953 0.0
H473 H 0.20139 0.92741 1.01837 0.0
H474 H 0.38585 0.03438 1.016 0.0
H475 H 0.38176 0.97768 0.98713 0.0
H476 H 0.29669 0.93533 0.04774 0.0
H477 H 0.37734 0.19776 0.03678 0.0
H478 H 0.37221 0.26355 1.01398 0.0
H479 H 0.19215 0.15107 0.98824 0.0
H480 H 0.19555 0.08538 1.01101 0.0
H481 H 0.43548 0.18366 0.11828 0.0
H482 H 0.39982 0.09324 0.09487 0.0
H483 H 0.2175 0.19869 0.08131 0.0
H484 H 0.25389 0.29014 0.10478 0.0
H485 H 0.29194 0.18632 0.05759 0.0
H486 H 0.21675 0.03269 0.09019 0.0
H487 H 0.22966 0.97216 0.11406 0.0
H488 H 0.40145 0.8708 0.09771 0.0
H489 H 0.39027 0.93147 0.07388 0.0
C490 C 0.2395 0.90525 0.99526 0.0
C491 C 0.29009 0.91871 0.98618 0.0
C492 C 0.24159 0.93783 1.01174 0.0
C493 C 0.29376 0.98539 1.01938 0.0
C494 C 0.345 0.998 1.01039 0.0
C495 C 0.34305 0.96516 0.99394 0.0
C496 C 0.2926 0.02465 0.03635 0.0
C497 C 0.29531 0.9902 0.04992 0.0
C498 C 0.2905 0.09627 0.03922 0.0
C499 C 0.28717 0.1361 1.02553 0.0
C500 C 0.33651 0.18721 1.02628 0.0
C501 C 0.33391 0.2245 1.01336 0.0
C502 C 0.28204 0.2113 0.99964 0.0
C503 C 0.23246 0.16103 0.99885 0.0
C504 C 0.23473 0.12372 1.01175 0.0
C505 C 0.38547 0.18541 0.1111 0.0
C506 C 0.34743 0.24412 0.11345 0.0
C507 C 0.36545 0.13379 0.09745 0.0
C508 C 0.30638 0.13942 0.08609 0.0
C509 C 0.26365 0.19344 0.0898 0.0
C510 C 0.28391 0.24527 0.10339 0.0
C511 C 0.29624 0.09733 0.06912 0.0
C512 C 0.29214 0.13136 0.05548 0.0
C513 C 0.2977 0.02561 0.0663 0.0
C514 C 0.30276 0.98689 0.08025 0.0
C515 C 0.25738 0.9976 0.09169 0.0
C516 C 0.2644 0.96327 0.10522 0.0
C517 C 0.31632 0.91765 0.10739 0.0
C518 C 0.36116 0.90605 0.09599 0.0
C519 C 0.35441 0.94031 0.08245 0.0
H520 H 0.32189 0.89139 0.11792 0.0
H521 H 0.28018 0.24013 0.98963 0.0
H522 H 0.27362 0.14095 0.47829 0.0
H523 H 0.26342 0.06504 0.4983 0.0
H524 H 0.26981 0.23865 0.53745 0.0
H525 H 0.27983 0.31403 0.51738 0.0
H526 H 0.34937 0.14062 0.54742 0.0
H527 H 0.12575 0.15796 0.51952 0.0
H528 H 0.03261 0.15242 0.49589 0.0
H529 H 0.0528 0.93732 0.4835 0.0
H530 H 0.14732 0.94166 0.50679 0.0
H531 H 0.2609 0.94219 0.60518 0.0
H532 H 0.25407 0.02927 0.58738 0.0
H533 H 0.24809 0.87303 0.5442 0.0
H534 H 0.25287 0.78641 0.56193 0.0
H535 H 0.15997 0.97081 0.53797 0.0
H536 H 0.39567 0.95987 0.56301 0.0
H537 H 0.48891 0.96589 0.58673 0.0
H538 H 0.43984 0.17035 0.605 0.0
H539 H 0.34576 0.16521 0.58146 0.0
C540 C 0.27305 0.16237 0.4912 0.0
C541 C 0.2771 0.23283 0.49641 0.0
C542 C 0.26695 0.11932 0.50258 0.0
C543 C 0.26494 0.14632 0.51932 0.0
C544 C 0.27112 0.2168 0.52459 0.0
C545 C 0.27706 0.2597 0.51321 0.0
C546 C 0.25708 0.10108 0.53139 0.0
C547 C 0.30738 0.10418 0.54546 0.0
C548 C 0.2024 0.05322 0.52876 0.0
C549 C 0.145 0.05043 0.51474 0.0
C550 C 0.11121 0.10958 0.51162 0.0
C551 C 0.05793 0.10663 0.49829 0.0
C552 C 0.03708 0.04464 0.48813 0.0
C553 C 0.06919 0.98539 0.49134 0.0
C554 C 0.12279 0.98812 0.50458 0.0
C555 C 0.2569 0.92677 0.59187 0.0
C556 C 0.25721 0.8579 0.58486 0.0
C557 C 0.25359 0.97634 0.58173 0.0
C558 C 0.25122 0.9576 0.56447 0.0
C559 C 0.24989 0.88865 0.55747 0.0
C560 C 0.25316 0.83932 0.56758 0.0
C561 C 0.25313 1.00932 0.55367 0.0
C562 C 0.2016 1.00763 0.5399 0.0
C563 C 0.30642 0.05863 0.55655 0.0
C564 C 0.36334 0.06192 0.57059 0.0
C565 C 0.40454 1.00595 0.57214 0.0
C566 C 0.45756 1.00922 0.58554 0.0
C567 C 0.47018 0.0684 0.59739 0.0
C568 C 0.42994 0.12451 0.59583 0.0
C569 C 0.37681 0.12147 0.58246 0.0
H570 H 0.51123 0.07083 0.60776 0.0
H571 H 0.99581 0.04245 0.47782 0.0
H572 H 0.23096 0.21238 0.42441 0.0
H573 H 0.22238 0.08947 0.42234 0.0
H574 H 1.0044 0.09722 0.41211 0.0
H575 H 1.01355 0.22001 0.41319 0.0
H576 H 0.17635 0.02121 0.4411 0.0
H577 H 0.9339 0.94555 0.39251 0.0
H578 H 0.8728 0.98051 0.36707 0.0
H579 H 0.05806 0.06267 0.35755 0.0
H580 H 0.12039 0.0273 0.38278 0.0
H581 H 0.06438 0.67178 0.43987 0.0
H582 H 0.07404 0.79662 0.44304 0.0
H583 H 0.13728 0.77676 0.39503 0.0
H584 H 0.12731 0.6542 0.39186 0.0
H585 H 0.03598 0.85946 0.39646 0.0
H586 H 0.2434 0.82133 0.43025 0.0
H587 H 0.3205 0.78578 0.45335 0.0
H588 H 0.23495 0.92872 0.48846 0.0
H589 H 0.1553 0.96356 0.46558 0.0
C590 C 0.18141 0.18724 0.4211 0.0
C591 C 0.12296 0.225 0.41861 0.0
C592 C 0.17642 0.11724 0.42018 0.0
C593 C 0.11276 0.08373 0.41711 0.0
C594 C 0.05419 0.12143 0.41417 0.0
C595 C 0.05933 0.19149 0.41468 0.0
C596 C 0.10822 1.01004 0.41771 0.0
C597 C 0.14551 0.9858 0.43135 0.0
C598 C 0.06844 0.96366 0.40496 0.0
C599 C 0.0316 0.98451 0.38965 0.0
C600 C 0.9616 0.97089 0.38495 0.0
C601 C 0.92677 0.99077 0.37057 0.0
C602 C 0.96149 0.02401 0.36073 0.0
C603 C 0.03118 0.03716 0.36521 0.0
C604 C 0.06627 1.01725 0.37956 0.0
C605 C 0.08144 0.69454 0.43021 0.0
C606 C 0.09417 0.65382 0.41553 0.0
C607 C 0.08671 0.76555 0.43197 0.0
C608 C 0.10537 0.79593 0.41912 0.0
C609 C 0.12164 0.75463 0.40496 0.0
C610 C 0.11606 0.68458 0.40318 0.0
C611 C 0.10523 0.87037 0.41966 0.0
C612 C 0.06636 0.8949 0.4063 0.0
C613 C 0.14574 0.91644 0.43234 0.0
C614 C 0.19192 0.89378 0.44619 0.0
C615 C 0.23972 0.84411 0.4429 0.0
C616 C 0.28407 0.82422 0.45597 0.0
C617 C 0.28201 0.85444 0.47238 0.0
C618 C 0.2357 0.90474 0.47576 0.0
C619 C 0.19078 0.92439 0.46275 0.0
H620 H 0.31669 0.83928 0.48247 0.0
H621 H 0.93441 0.03944 0.34962 0.0
H622 H 0.3812 0.57614 0.66974 0.0
H623 H 0.50527 0.56811 0.67294 0.0
H624 H 0.51293 0.72064 0.64212 0.0
H625 H 0.3907 0.72841 0.63882 0.0
H626 H 0.57922 0.61155 0.63112 0.0
H627 H 0.56616 0.75386 0.68326 0.0
H628 H 0.53033 0.78581 0.71058 0.0
H629 H 0.63015 0.61466 0.72723 0.0
H630 H 0.66528 0.58057 0.69984 0.0
H631 H 0.93978 0.68021 0.64442 0.0
H632 H 0.81585 0.68751 0.64172 0.0
H633 H 0.81159 0.53472 0.67261 0.0
H634 H 0.93371 0.52758 0.67542 0.0
H635 H 0.74374 0.64273 0.68367 0.0
H636 H 0.75413 0.4991 0.63129 0.0
H637 H 0.79169 0.46846 0.60411 0.0
H638 H 0.69896 0.64455 0.58829 0.0
H639 H 0.66168 0.67679 0.61549 0.0
C640 C 0.40979 0.6087 0.66396 0.0
C641 C 0.37643 0.65215 0.65387 0.0
C642 C 0.48041 0.60399 0.66572 0.0
C643 C 0.51811 0.64329 0.65758 0.0
C644 C 0.48483 0.68917 0.64829 0.0
C645 C 0.41493 0.69361 0.64647 0.0
C646 C 0.59176 0.63513 0.65789 0.0
C647 C 0.61527 0.61902 0.64262 0.0
C648 C 0.63855 0.64369 0.67289 0.0
C649 C 0.61737 0.66399 0.68937 0.0
C650 C 0.57972 0.72245 0.69266 0.0
C651 C 0.55962 0.741 0.70817 0.0
C652 C 0.57757 0.70198 0.72059 0.0
C653 C 0.6159 0.64447 0.71754 0.0
C654 C 0.63586 0.62549 0.70202 0.0
C655 C 0.91199 0.64739 0.65032 0.0
C656 C 0.94632 0.60398 0.66025 0.0
C657 C 0.84143 0.6517 0.64884 0.0
C658 C 0.80472 0.61204 0.65713 0.0
C659 C 0.83891 0.56638 0.66632 0.0
C660 C 0.90877 0.56228 0.66784 0.0
C661 C 0.73105 0.6193 0.65691 0.0
C662 C 0.70757 0.63516 0.67219 0.0
C663 C 0.68425 0.61058 0.64193 0.0
C664 C 0.70571 0.59072 0.62548 0.0
C665 C 0.74215 0.53154 0.62205 0.0
C666 C 0.76334 0.51385 0.60664 0.0
C667 C 0.7479 0.55464 0.5945 0.0
C668 C 0.71098 0.61306 0.59772 0.0
C669 C 0.68976 0.63104 0.61313 0.0
H670 H 0.76443 0.5409 0.58258 0.0
H671 H 0.56206 0.71649 0.73261 0.0
H672 H 0.31712 0.47335 0.90388 0.0
H673 H 0.30975 0.35383 0.90703 0.0
H674 H 0.4903 0.31509 0.88517 0.0
H675 H 0.49804 0.43385 0.88221 0.0
H676 H 0.3891 0.22804 0.8695 0.0
H677 H 0.49171 0.31119 0.92627 0.0
H678 H 0.50459 0.37891 0.95444 0.0
H679 H 0.31176 0.30195 0.9607 0.0
H680 H 0.29755 0.23391 0.93248 0.0
H681 H 0.44764 0.88848 0.88445 0.0
H682 H 0.45221 1.00832 0.88146 0.0
H683 H 0.28044 0.04555 0.90687 0.0
H684 H 0.27764 0.92734 0.91041 0.0
H685 H 0.37537 0.13389 0.92058 0.0
H686 H 0.27331 0.04742 0.86434 0.0
H687 H 0.26409 0.97217 0.83714 0.0
H688 H 0.45336 0.05364 0.82983 0.0
H689 H 0.46438 0.12854 0.85714 0.0
C690 C 0.35649 0.43976 0.90038 0.0
C691 C 0.40847 0.4628 0.89299 0.0
C692 C 0.35196 0.37141 0.90201 0.0
C693 C 0.39936 0.32544 0.89624 0.0
C694 C 0.45292 0.34942 0.88958 0.0
C695 C 0.45744 0.41732 0.88797 0.0
C696 C 0.39101 0.25161 0.896 0.0
C697 C 0.38675 0.20732 0.8807 0.0
C698 C 0.38614 0.22476 0.91052 0.0
C699 C 0.39328 0.26797 0.92719 0.0
C700 C 0.45166 0.30935 0.93357 0.0
C701 C 0.45932 0.34757 0.94958 0.0
C702 C 0.40899 0.34477 0.95936 0.0
C703 C 0.3507 0.30405 0.95311 0.0
C704 C 0.34287 0.26557 0.93712 0.0
C705 C 0.4101 0.92215 0.88902 0.0
C706 C 0.36268 0.89913 0.89775 0.0
C707 C 0.41267 0.99055 0.88734 0.0
C708 C 0.36677 0.03616 0.89402 0.0
C709 C 0.31684 1.01171 0.9018 0.0
C710 C 0.31506 0.94408 0.90373 0.0
C711 C 0.37322 0.11014 0.89407 0.0
C712 C 0.37718 0.15451 0.90934 0.0
C713 C 0.37729 0.13701 0.8795 0.0
C714 C 0.36997 0.0932 0.86287 0.0
C715 C 0.31318 0.04903 0.85698 0.0
C716 C 0.30762 1.00643 0.84154 0.0
C717 C 0.35819 1.00799 0.83178 0.0
C718 C 0.41427 0.05241 0.83742 0.0
C719 C 0.42018 0.09499 0.85287 0.0
H720 H 0.35383 0.97487 0.81985 0.0
H721 H 0.41513 0.3739 0.97181 0.0
H722 H 0.23299 0.31544 0.18926 0.0
H723 H 0.11059 0.32055 0.18475 0.0
H724 H 0.11058 0.34455 0.13393 0.0
H725 H 0.23488 0.34015 0.13838 0.0
H726 H 0.02374 0.43242 0.14979 0.0
H727 H 0.06532 0.19441 0.14201 0.0
H728 H 0.1188 0.09082 0.14952 0.0
H729 H 0.03042 0.11725 0.19404 0.0
H730 H 0.97719 0.2216 0.18692 0.0
H731 H 0.67412 0.36869 0.1234 0.0
H732 H 0.79648 0.36533 0.12721 0.0
H733 H 0.80116 0.32213 0.17672 0.0
H734 H 0.6771 0.3226 0.17274 0.0
H735 H 0.88626 0.24414 0.16113 0.0
H736 H 0.84534 0.48168 0.16941 0.0
H737 H 0.79126 0.58558 0.16228 0.0
H738 H 0.8786 0.56197 0.11763 0.0
H739 H 0.93235 0.45727 0.12435 0.0
C740 C 0.20747 0.32174 0.17705 0.0
C741 C 0.24422 0.3271 0.16414 0.0
C742 C 0.13711 0.32448 0.17451 0.0
C743 C 0.10119 0.33208 0.15896 0.0
C744 C 0.13733 0.33844 0.14603 0.0
C745 C 0.2083 0.33568 0.14857 0.0
C746 C 0.02592 0.33303 0.15644 0.0
C747 C 0.99353 0.39082 0.15199 0.0
C748 C 0.98664 0.27959 0.15981 0.0
C749 C 1.01763 0.21614 0.16398 0.0
C750 C 0.0576 0.17837 0.15345 0.0
C751 C 0.08785 0.11949 0.15763 0.0
C752 C 0.07811 0.09754 0.17226 0.0
C753 C 0.03794 0.13433 0.18272 0.0
C754 C 1.00764 0.1933 0.1786 0.0
C755 C 0.70068 0.35862 0.13519 0.0
C756 C 0.66516 0.34645 0.14784 0.0
C757 C 0.77113 0.35714 0.13736 0.0
C758 C 0.80848 0.34476 0.15236 0.0
C759 C 0.77351 0.33223 0.16505 0.0
C760 C 0.70252 0.33302 0.16281 0.0
C761 C 0.88382 0.34364 0.15451 0.0
C762 C 0.91631 0.28579 0.1589 0.0
C763 C 0.92318 0.39722 0.15117 0.0
C764 C 0.89247 0.46127 0.14733 0.0
C765 C 0.85278 0.49845 0.15803 0.0
C766 C 0.82217 0.55749 0.15406 0.0
C767 C 0.83135 0.58026 0.13949 0.0
C768 C 0.87148 0.54422 0.12891 0.0
C769 C 0.9021 0.48506 0.1328 0.0
H770 H 0.80744 0.62588 0.13642 0.0
H771 H 0.10153 0.05193 0.17548 0.0
H772 H 0.27696 0.85925 0.65457 0.0
H773 H 0.27345 0.9818 0.65623 0.0
H774 H 0.06648 0.97702 0.66455 0.0
H775 H 0.07004 0.85303 0.66281 0.0
H776 H 0.08278 0.04313 0.63879 0.0
H777 H 0.18944 0.05042 0.695 0.0
H778 H 0.27371 1.01985 0.71749 0.0
H779 H 0.43325 0.10453 0.69754 0.0
H780 H 0.35003 0.13417 0.67464 0.0
H781 H 0.05007 0.39834 0.65881 0.0
H782 H 0.05509 0.27569 0.65677 0.0
H783 H 0.2618 0.28393 0.6484 0.0
H784 H 0.25667 0.40804 0.6505 0.0
H785 H 0.24682 0.21581 0.67392 0.0
H786 H 0.14011 0.21005 0.61796 0.0
H787 H 0.05595 0.24122 0.59556 0.0
H788 H 0.89657 0.15327 0.61492 0.0
H789 H 0.97967 0.12334 0.6378 0.0
C790 C 0.2315 0.88471 0.65738 0.0
C791 C 0.17409 0.8471 0.65884 0.0
C792 C 0.22944 0.95472 0.65824 0.0
C793 C 0.16978 0.98874 0.66054 0.0
C794 C 0.11309 0.9517 0.66279 0.0
C795 C 0.11536 0.88121 0.66205 0.0
C796 C 0.1658 0.06179 0.65924 0.0
C797 C 0.11781 0.08116 0.64667 0.0
C798 C 0.21325 0.11088 0.66911 0.0
C799 C 0.26345 0.09403 0.683 0.0
C800 C 0.24253 0.06208 0.69532 0.0
C801 C 0.29013 0.04498 0.70816 0.0
C802 C 0.35881 0.06024 0.70896 0.0
C803 C 0.38002 0.09272 0.6969 0.0
C804 C 0.33264 0.10968 0.68398 0.0
C805 C 0.0958 0.37365 0.65592 0.0
C806 C 0.15267 0.41224 0.65455 0.0
C807 C 0.09873 0.30358 0.65484 0.0
C808 C 0.15876 0.27046 0.65241 0.0
C809 C 0.21492 0.30852 0.65025 0.0
C810 C 0.21176 0.37909 0.6512 0.0
C811 C 0.16359 0.19724 0.65351 0.0
C812 C 0.2118 0.1778 0.66603 0.0
C813 C 0.11633 0.14807 0.6436 0.0
C814 C 0.06617 0.16494 0.6297 0.0
C815 C 0.08707 0.1978 0.61754 0.0
C816 C 0.03952 0.2152 0.60473 0.0
C817 C 0.97092 0.19916 0.60378 0.0
C818 C 0.94974 0.16567 0.61567 0.0
C819 C 0.99706 0.14853 0.62857 0.0
H820 H 0.93421 0.21267 0.59384 0.0
H821 H 0.39556 0.04694 0.71892 0.0
H822 H 0.60292 0.7564 0.87682 0.0
H823 H 0.72681 0.76345 0.87975 0.0
H824 H 0.74204 0.61253 0.91157 0.0
H825 H 0.61794 0.60627 0.90881 0.0
H826 H 0.8364 0.78889 0.90709 0.0
H827 H 0.86207 0.49723 0.89583 0.0
H828 H 0.79182 0.39447 0.88313 0.0
H829 H 0.66673 0.5088 0.85133 0.0
H830 H 0.73716 0.6112 0.8633 0.0
H831 H 0.16897 0.69332 0.92778 0.0
H832 H 0.0463 0.68757 0.924 0.0
H833 H 0.03621 0.65967 0.87081 0.0
H834 H 0.16098 0.66597 0.87448 0.0
H835 H 0.93922 0.57634 0.88373 0.0
H836 H 1.01544 0.80915 0.8877 0.0
H837 H 0.09122 0.90719 0.90111 0.0
H838 H 1.01379 0.91048 0.94669 0.0
H839 H 0.93827 0.81174 0.93362 0.0
C840 C 0.63308 0.72656 0.88488 0.0
C841 C 0.60164 0.68164 0.89282 0.0
C842 C 0.7036 0.73042 0.88651 0.0
C843 C 0.74349 0.68819 0.89578 0.0
C844 C 0.71208 0.64542 0.90433 0.0
C845 C 0.64149 0.64219 0.90287 0.0
C846 C 0.81711 0.68468 0.89529 0.0
C847 C 0.85873 0.74255 0.90189 0.0
C848 C 0.84622 0.62429 0.88837 0.0
C849 C 0.80444 0.56224 0.88067 0.0
C850 C 0.81981 0.50027 0.88603 0.0
C851 C 0.77998 0.44196 0.8789 0.0
C852 C 0.72466 0.445 0.8664 0.0
C853 C 0.70944 0.50626 0.86094 0.0
C854 C 0.74932 0.5645 0.8679 0.0
C855 C 0.14104 0.68543 0.9152 0.0
C856 C 0.17473 0.68137 0.9014 0.0
C857 C 0.07081 0.68196 0.91311 0.0
C858 C 0.03239 0.67441 0.89718 0.0
C859 C 0.06537 0.66591 0.88322 0.0
C860 C 0.1364 0.66944 0.88532 0.0
C861 C 0.95807 0.68031 0.8955 0.0
C862 C 0.91649 0.62284 0.88867 0.0
C863 C 0.92893 0.74109 0.9021 0.0
C864 C 0.97135 0.80291 0.90969 0.0
C865 C 1.0146 0.83077 0.90058 0.0
C866 C 0.05757 0.8864 0.90813 0.0
C867 C 0.05736 0.915 0.92475 0.0
C868 C 1.01384 0.8883 0.93381 0.0
C869 C 0.97084 0.83259 0.92633 0.0
H870 H 0.09091 0.95785 0.93059 0.0
H871 H 0.69363 0.39995 0.86094 0.0
H872 H 0.41897 0.54608 0.12231 0.0
H873 H 0.41601 0.66871 0.12612 0.0
H874 H 0.46234 0.68047 0.1793 0.0
H875 H 0.46492 0.55587 0.17561 0.0
H876 H 0.3627 0.77255 0.16883 0.0
H877 H 0.58675 0.70809 0.15907 0.0
H878 H 0.66637 0.64071 0.14365 0.0
H879 H 0.58766 0.72128 0.09974 0.0
H880 H 0.50699 0.78857 0.11485 0.0
H881 H 0.47362 0.11104 0.19073 0.0
H882 H 0.47111 0.988 0.18602 0.0
H883 H 0.43375 0.98332 0.13301 0.0
H884 H 0.43584 0.10782 0.13766 0.0
H885 H 0.52577 0.88743 0.14245 0.0
H886 H 0.30466 0.95254 0.15109 0.0
H887 H 0.22148 1.01951 0.1653 0.0
H888 H 0.28865 0.937 0.20959 0.0
H889 H 0.3731 0.87027 0.19572 0.0
C890 C 0.42829 0.57429 0.13489 0.0
C891 C 0.44311 0.54092 0.14867 0.0
C892 C 0.42655 0.64466 0.13701 0.0
C893 C 0.44019 0.68383 0.15295 0.0
C894 C 0.45204 0.65104 0.16686 0.0
C895 C 0.45355 0.57996 0.16475 0.0
C896 C 0.44465 0.75888 0.15478 0.0
C897 C 0.39905 0.79777 0.16331 0.0
C898 C 0.49042 0.79157 0.14701 0.0
C899 C 0.54055 0.75304 0.13807 0.0
C900 C 0.58629 0.71128 0.14611 0.0
C901 C 0.63159 0.6731 0.13743 0.0
C902 C 0.63196 0.6766 0.12071 0.0
C903 C 0.5873 0.71861 0.11268 0.0
C904 C 0.54187 0.75689 0.12131 0.0
C905 C 0.4646 0.08422 0.17802 0.0
C906 C 0.45374 0.1196 0.16455 0.0
C907 C 0.46333 1.01364 0.17537 0.0
C908 C 0.45085 0.97637 0.15918 0.0
C909 C 0.44289 1.01114 0.14562 0.0
C910 C 0.44419 0.08229 0.14828 0.0
C911 C 0.44452 0.90123 0.15672 0.0
C912 C 0.4895 0.86228 0.148 0.0
C913 C 0.39768 0.8684 0.16415 0.0
C914 C 0.34557 0.90676 0.1724 0.0
C915 C 0.30192 0.94889 0.16389 0.0
C916 C 0.25454 0.98682 0.17188 0.0
C917 C 0.24987 0.98263 0.18835 0.0
C918 C 0.29237 0.94022 0.19683 0.0
C919 C 0.33995 0.90225 0.1889 0.0
H920 H 0.21327 1.01216 0.19453 0.0
H921 H 0.66693 0.64684 0.114 0.0
H922 H 0.83882 0.40354 0.38445 0.0
H923 H 0.72133 0.40092 0.38837 0.0
H924 H 0.78307 0.464 0.44123 0.0
H925 H 0.90224 0.4649 0.43736 0.0
H926 H 0.67947 0.37066 0.43456 0.0
H927 H 0.72412 0.57885 0.41587 0.0
H928 H 0.76618 0.64647 0.3971 0.0
H929 H 0.62264 0.54372 0.35609 0.0
H930 H 0.58027 0.47485 0.37458 0.0
H931 H 0.36509 0.48269 0.45274 0.0
H932 H 0.48242 0.48388 0.4484 0.0
H933 H 0.41836 0.41232 0.39594 0.0
H934 H 0.29994 0.41105 0.40027 0.0
H935 H 0.5224 0.50929 0.40214 0.0
H936 H 0.47626 0.30255 0.42048 0.0
H937 H 0.43347 0.23376 0.43889 0.0
H938 H 0.57923 0.33146 0.48007 0.0
H939 H 0.62215 0.40177 0.46196 0.0
C940 C 0.82775 0.41661 0.39693 0.0
C941 C 0.87997 0.43544 0.41056 0.0
C942 C 0.7603 0.41522 0.39915 0.0
C943 C 0.74304 0.43406 0.41503 0.0
C944 C 0.79513 0.44984 0.42883 0.0
C945 C 0.86316 0.45034 0.42662 0.0
C946 C 0.67054 0.43931 0.41697 0.0
C947 C 0.6454 0.40176 0.42766 0.0
C948 C 0.62547 0.47847 0.40762 0.0
C949 C 0.64934 0.52139 0.39659 0.0
C950 C 0.70166 0.57055 0.40284 0.0
C951 C 0.72557 0.60908 0.39225 0.0
C952 C 0.6972 0.59929 0.3754 0.0
C953 C 0.64459 0.55122 0.36914 0.0
C954 C 0.62052 0.5125 0.37967 0.0
C955 C 0.37571 0.4677 0.44023 0.0
C956 C 0.32305 0.44639 0.42683 0.0
C957 C 0.44294 0.46833 0.43778 0.0
C958 C 0.45936 0.44695 0.42191 0.0
C959 C 0.40683 0.42881 0.40832 0.0
C960 C 0.33914 0.42843 0.41077 0.0
C961 C 0.53152 0.44098 0.41979 0.0
C962 C 0.55653 0.47829 0.40905 0.0
C963 C 0.5764 0.40145 0.42905 0.0
C964 C 0.55204 0.35788 0.43989 0.0
C965 C 0.49897 0.30965 0.43348 0.0
C966 C 0.47467 0.27038 0.44386 0.0
C967 C 0.50348 0.27837 0.46065 0.0
C968 C 0.55689 0.32541 0.46707 0.0
C969 C 0.58127 0.36495 0.45675 0.0
H970 H 0.4845 0.24803 0.46868 0.0
H971 H 0.71592 0.62902 0.36721 0.0
loop_
_geom_bond_atom_site_label_1
_geom_bond_atom_site_label_2
_geom_bond_distance
_geom_bond_site_symmetry_2
_ccdc_geom_bond_type
Co0 N1 2.034 . S
Co0 O15 2.262 . S
Co0 O19 1.958 . S
Co0 O23 1.950 . S
Co0 O24 2.057 . S
N1 Co0 2.034 . S
N1 C2 1.366 . S
N1 C4 1.332 . S
C2 N1 1.366 . S
C2 C5 1.377 . S
C2 H34 0.931 . S
N3 C4 1.346 . S
N3 C5 1.337 . S
C4 N1 1.332 . S
C4 N3 1.346 . S
C4 C38 1.361 . S
C5 C2 1.377 . S
C5 N3 1.337 . S
C5 H41 0.930 . S
Co6 N7 2.034 . S
Co6 O20 1.950 . S
Co6 O21 2.262 1_655 S
Co6 O22 1.958 1_655 S
Co6 O26 2.048 1_655 S
N7 Co6 2.034 . S
N7 C10 1.366 . S
N7 C11 1.332 . S
N8 C9 1.337 . S
N8 C11 1.346 . S
C9 N8 1.337 . S
C9 C10 1.377 . S
C9 H42 0.930 . S
C10 N7 1.366 . S
C10 C9 1.377 . S
C10 H14 0.931 . S
C11 N7 1.332 . S
C11 N8 1.346 . S
C11 C28 1.361 . S
Co12 O15 2.097 . S
Co12 O16 2.065 1_455 S
Co12 O17 2.065 . S
Co12 O18 2.042 . S
Co12 O21 2.097 . S
Co12 O25 2.042 . S
C13 O21 1.253 . S
C13 O26 1.272 . S
H14 C10 0.931 . S
O15 Co0 2.262 . S
O15 Co12 2.097 . S
O15 C39 1.253 . S
O16 Co12 2.065 1_655 S
O16 C32 1.221 . S
O17 Co12 2.065 . S
O17 C27 1.221 . S
O18 Co12 2.042 . S
O18 C33 1.237 . S
O19 Co0 1.958 . S
O19 C33 1.278 . S
O20 Co6 1.950 . S
O20 C32 1.277 . S
O21 Co6 2.262 1_455 S
O21 Co12 2.097 . S
O21 C13 1.253 . S
O22 Co6 1.958 1_455 S
O22 C40 1.278 . S
O23 Co0 1.950 . S
O23 C27 1.277 . S
O24 Co0 2.057 . S
O24 C39 1.263 . S
O25 Co12 2.042 . S
O25 C40 1.237 . S
O26 Co6 2.048 1_455 S
O26 C13 1.272 . S
C27 O17 1.221 . S
C27 O23 1.277 . S
C28 C11 1.361 . S
C28 H29 0.960 . S
C28 H30 0.961 . S
C28 H31 0.961 . S
H29 C28 0.960 . S
H30 C28 0.961 . S
H31 C28 0.961 . S
C32 O16 1.221 . S
C32 O20 1.277 . S
C33 O18 1.237 . S
C33 O19 1.278 . S
H34 C2 0.931 . S
H35 C38 0.961 . S
H36 C38 0.961 . S
H37 C38 0.960 . S
C38 C4 1.361 . S
C38 H35 0.961 . S
C38 H36 0.961 . S
C38 H37 0.960 . S
C39 O15 1.253 . S
C39 O24 1.263 . S
C40 O22 1.278 . S
C40 O25 1.237 . S
H41 C5 0.930 . S
H42 C9 0.930 . S
Co43 N44 2.034 . S
Co43 O58 2.262 . S
Co43 O62 1.958 . S
Co43 O66 1.950 . S
Co43 O67 2.057 . S
N44 Co43 2.034 . S
N44 C45 1.366 . S
N44 C47 1.332 . S
C45 N44 1.366 . S
C45 C48 1.377 . S
C45 H77 0.931 . S
N46 C47 1.346 . S
N46 C48 1.337 . S
C47 N44 1.332 . S
C47 N46 1.346 . S
C47 C81 1.361 . S
C48 C45 1.377 . S
C48 N46 1.337 . S
C48 H84 0.930 . S
Co49 N50 2.034 . S
Co49 O63 1.950 . S
Co49 O64 2.262 . S
Co49 O65 1.958 . S
Co49 O69 2.057 . S
N50 Co49 2.034 . S
N50 C53 1.366 . S
N50 C54 1.332 . S
N51 C52 1.337 . S
N51 C54 1.346 . S
C52 N51 1.337 . S
C52 C53 1.377 . S
C52 H85 0.930 . S
C53 N50 1.366 . S
C53 C52 1.377 . S
C53 H57 0.931 . S
C54 N50 1.332 . S
C54 N51 1.346 . S
C54 C71 1.361 . S
Co55 O58 2.097 . S
Co55 O59 2.065 . S
Co55 O60 2.065 . S
Co55 O61 2.042 . S
Co55 O64 2.097 . S
Co55 O68 2.042 . S
C56 O64 1.253 . S
C56 O69 1.263 . S
H57 C53 0.931 . S
O58 Co43 2.262 . S
O58 Co55 2.097 . S
O58 C82 1.253 . S
O59 Co55 2.065 . S
O59 C75 1.221 . S
O60 Co55 2.065 . S
O60 C70 1.221 . S
O61 Co55 2.042 . S
O61 C76 1.237 . S
O62 Co43 1.958 . S
O62 C76 1.278 . S
O63 Co49 1.950 . S
O63 C75 1.277 . S
O64 Co49 2.262 . S
O64 Co55 2.097 . S
O64 C56 1.253 . S
O65 Co49 1.958 . S
O65 C83 1.278 . S
O66 Co43 1.950 . S
O66 C70 1.277 . S
O67 Co43 2.057 . S
O67 C82 1.263 . S
O68 Co55 2.042 . S
O68 C83 1.237 . S
O69 Co49 2.057 . S
O69 C56 1.263 . S
C70 O60 1.221 . S
C70 O66 1.277 . S
C71 C54 1.361 . S
C71 H72 0.960 . S
C71 H73 0.961 . S
C71 H74 0.961 . S
H72 C71 0.960 . S
H73 C71 0.961 . S
H74 C71 0.961 . S
C75 O59 1.221 . S
C75 O63 1.277 . S
C76 O61 1.237 . S
C76 O62 1.278 . S
H77 C45 0.931 . S
H78 C81 0.961 . S
H79 C81 0.961 1_655 S
H80 C81 0.960 . S
C81 C47 1.361 . S
C81 H78 0.961 . S
C81 H79 0.961 1_455 S
C81 H80 0.960 . S
C82 O58 1.253 . S
C82 O67 1.263 . S
C83 O65 1.278 . S
C83 O68 1.237 . S
H84 C48 0.930 . S
H85 C52 0.930 . S
Co86 N87 2.034 . S
Co86 O101 2.262 . S
Co86 O105 1.958 . S
Co86 O109 1.950 . S
Co86 O110 2.057 . S
N87 Co86 2.034 . S
N87 C88 1.366 . S
N87 C90 1.332 . S
C88 N87 1.366 . S
C88 C91 1.377 . S
C88 H120 0.931 . S
N89 C90 1.346 . S
N89 C91 1.337 . S
C90 N87 1.332 . S
C90 N89 1.346 . S
C90 C124 1.361 . S
C91 C88 1.377 . S
C91 N89 1.337 . S
C91 H127 0.930 . S
Co92 N93 2.034 . S
Co92 O106 1.950 . S
Co92 O107 2.262 . S
Co92 O108 1.958 . S
Co92 O112 2.057 . S
N93 Co92 2.034 . S
N93 C96 1.366 . S
N93 C97 1.332 . S
N94 C95 1.337 . S
N94 C97 1.346 . S
C95 N94 1.337 . S
C95 C96 1.377 . S
C95 H128 0.930 . S
C96 N93 1.366 . S
C96 C95 1.377 . S
C96 H100 0.931 . S
C97 N93 1.332 . S
C97 N94 1.346 . S
C97 C114 1.361 . S
Co98 O101 2.097 . S
Co98 O102 2.065 . S
Co98 O103 2.065 . S
Co98 O104 2.042 . S
Co98 O107 2.097 . S
Co98 O111 2.042 . S
C99 O107 1.253 . S
C99 O112 1.263 . S
H100 C96 0.931 . S
O101 Co86 2.262 . S
O101 Co98 2.097 . S
O101 C125 1.253 . S
O102 Co98 2.065 . S
O102 C118 1.221 . S
O103 Co98 2.065 . S
O103 C113 1.221 . S
O104 Co98 2.042 . S
O104 C119 1.237 . S
O105 Co86 1.958 . S
O105 C119 1.278 . S
O106 Co92 1.950 . S
O106 C118 1.277 . S
O107 Co92 2.262 . S
O107 Co98 2.097 . S
O107 C99 1.253 . S
O108 Co92 1.958 . S
O108 C126 1.278 . S
O109 Co86 1.950 . S
O109 C113 1.277 . S
O110 Co86 2.057 . S
O110 C125 1.263 . S
O111 Co98 2.042 . S
O111 C126 1.237 . S
O112 Co92 2.057 . S
O112 C99 1.263 . S
C113 O103 1.221 . S
C113 O109 1.277 . S
C114 C97 1.361 . S
C114 H115 0.960 . S
C114 H116 0.961 . S
C114 H117 0.961 . S
H115 C114 0.960 . S
H116 C114 0.961 . S
H117 C114 0.961 . S
C118 O102 1.221 . S
C118 O106 1.277 . S
C119 O104 1.237 . S
C119 O105 1.278 . S
H120 C88 0.931 . S
H121 C124 0.961 . S
H122 C124 0.961 . S
H123 C124 0.960 . S
C124 C90 1.361 . S
C124 H121 0.961 . S
C124 H122 0.961 . S
C124 H123 0.960 . S
C125 O101 1.253 . S
C125 O110 1.263 . S
C126 O108 1.278 . S
C126 O111 1.237 . S
H127 C91 0.930 . S
H128 C95 0.930 . S
Co129 N130 2.034 . S
Co129 O144 2.262 . S
Co129 O148 1.958 . S
Co129 O152 1.950 . S
Co129 O153 2.057 . S
N130 Co129 2.034 . S
N130 C131 1.366 . S
N130 C133 1.332 . S
C131 N130 1.366 . S
C131 C134 1.377 . S
C131 H163 0.931 . S
N132 C133 1.346 . S
N132 C134 1.337 . S
C133 N130 1.332 . S
C133 N132 1.346 . S
C133 C167 1.361 . S
C134 C131 1.377 . S
C134 N132 1.337 . S
C134 H170 0.930 . S
Co135 N136 2.034 . S
Co135 O149 1.950 . S
Co135 O150 2.262 . S
Co135 O151 1.958 . S
Co135 O155 2.057 . S
N136 Co135 2.034 . S
N136 C139 1.366 . S
N136 C140 1.332 . S
N137 C138 1.337 . S
N137 C140 1.346 . S
C138 N137 1.337 . S
C138 C139 1.377 . S
C138 H171 0.930 . S
C139 N136 1.366 . S
C139 C138 1.377 . S
C139 H143 0.931 . S
C140 N136 1.332 . S
C140 N137 1.346 . S
C140 C157 1.361 . S
Co141 O144 2.097 . S
Co141 O145 2.065 . S
Co141 O146 2.065 . S
Co141 O147 2.042 . S
Co141 O150 2.097 . S
Co141 O154 2.042 . S
C142 O150 1.253 . S
C142 O155 1.263 . S
H143 C139 0.931 . S
O144 Co129 2.262 . S
O144 Co141 2.097 . S
O144 C168 1.253 . S
O145 Co141 2.065 . S
O145 C161 1.221 . S
O146 Co141 2.065 . S
O146 C156 1.221 . S
O147 Co141 2.042 . S
O147 C162 1.237 . S
O148 Co129 1.958 . S
O148 C162 1.278 . S
O149 Co135 1.950 . S
O149 C161 1.277 . S
O150 Co135 2.262 . S
O150 Co141 2.097 . S
O150 C142 1.253 . S
O151 Co135 1.958 . S
O151 C169 1.278 . S
O152 Co129 1.950 . S
O152 C156 1.277 . S
O153 Co129 2.057 . S
O153 C168 1.263 . S
O154 Co141 2.042 . S
O154 C169 1.237 . S
O155 Co135 2.057 . S
O155 C142 1.263 . S
C156 O146 1.221 . S
C156 O152 1.277 . S
C157 C140 1.361 . S
C157 H158 0.960 . S
C157 H159 0.961 . S
C157 H160 0.961 . S
H158 C157 0.960 . S
H159 C157 0.961 . S
H160 C157 0.961 . S
C161 O145 1.221 . S
C161 O149 1.277 . S
C162 O147 1.237 . S
C162 O148 1.278 . S
H163 C131 0.931 . S
H164 C167 0.961 . S
H165 C167 0.961 . S
H166 C167 0.960 . S
C167 C133 1.361 . S
C167 H164 0.961 . S
C167 H165 0.961 . S
C167 H166 0.960 . S
C168 O144 1.253 . S
C168 O153 1.263 . S
C169 O151 1.278 . S
C169 O154 1.237 . S
H170 C134 0.930 . S
H171 C138 0.930 . S
H172 C190 0.951 . S
H173 C192 0.951 1_655 S
H174 C194 0.950 . S
H175 C195 0.950 . S
H176 C197 0.950 . S
H177 C200 0.950 . S
H178 C201 0.950 . S
H179 C203 0.950 . S
H180 C204 0.950 . S
H181 C205 0.951 . S
H182 C207 0.951 . S
H183 C209 0.950 . S
H184 C210 0.950 . S
H185 C212 0.950 . S
H186 C215 0.950 . S
H187 C216 0.950 . S
H188 C218 0.950 . S
H189 C219 0.950 . S
C190 H172 0.951 . S
C190 C191 1.366 1_655 S
C190 C192 1.388 1_655 S
C191 C190 1.366 1_455 S
C191 C195 1.385 . S
C192 H173 0.951 1_455 S
C192 C190 1.388 1_455 S
C192 C193 1.366 . S
C193 C192 1.366 . S
C193 C194 1.414 . S
C193 C196 1.499 . S
C194 H174 0.950 . S
C194 C193 1.414 . S
C194 C195 1.374 . S
C195 H175 0.950 . S
C195 C191 1.385 . S
C195 C194 1.374 . S
C196 C193 1.499 . S
C196 C197 1.373 . S
C196 C198 1.389 . S
C197 H176 0.950 . S
C197 C196 1.373 . S
C197 C213 1.377 . S
C198 C196 1.389 . S
C198 C199 1.524 . S
C198 C212 1.377 . S
C199 C198 1.524 . S
C199 C200 1.397 . S
C199 C204 1.363 1_455 S
C200 H177 0.950 . S
C200 C199 1.397 . S
C200 C201 1.334 . S
C201 H178 0.950 . S
C201 C200 1.334 . S
C201 C202 1.287 . S
C202 C201 1.287 . S
C202 C203 1.524 1_455 S
C202 H221 0.913 . S
C203 H179 0.950 . S
C203 C202 1.524 1_655 S
C203 C204 1.415 . S
C204 H180 0.950 . S
C204 C199 1.363 1_655 S
C204 C203 1.415 . S
C205 H181 0.951 . S
C205 C206 1.366 . S
C205 C207 1.388 . S
C206 C205 1.366 . S
C206 C210 1.385 . S
C207 H182 0.951 . S
C207 C205 1.388 . S
C207 C208 1.366 . S
C208 C207 1.366 . S
C208 C209 1.414 . S
C208 C211 1.499 . S
C209 H183 0.950 . S
C209 C208 1.414 . S
C209 C210 1.374 . S
C210 H184 0.950 . S
C210 C206 1.385 . S
C210 C209 1.374 . S
C211 C208 1.499 . S
C211 C212 1.373 . S
C211 C213 1.389 . S
C212 H185 0.950 . S
C212 C198 1.377 . S
C212 C211 1.373 . S
C213 C197 1.377 . S
C213 C211 1.389 . S
C213 C214 1.524 . S
C214 C213 1.524 . S
C214 C215 1.397 . S
C214 C219 1.363 . S
C215 H186 0.950 . S
C215 C214 1.397 . S
C215 C216 1.334 . S
C216 H187 0.950 . S
C216 C215 1.334 . S
C216 C217 1.287 . S
C217 C216 1.287 . S
C217 C218 1.524 . S
C217 H220 0.999 . S
C218 H188 0.950 . S
C218 C217 1.524 . S
C218 C219 1.415 . S
C219 H189 0.950 . S
C219 C214 1.363 . S
C219 C218 1.415 . S
H220 C217 0.999 . S
H221 C202 0.913 . S
H222 C240 0.951 . S
H223 C242 0.951 . S
H224 C244 0.950 . S
H225 C245 0.950 . S
H226 C247 0.950 . S
H227 C250 0.950 . S
H228 C251 0.950 . S
H229 C253 0.950 1_455 S
H230 C254 0.950 . S
H231 C255 0.951 . S
H232 C257 0.951 . S
H233 C259 0.950 . S
H234 C260 0.950 1_455 S
H235 C262 0.950 . S
H236 C265 0.950 . S
H237 C266 0.950 . S
H238 C268 0.950 . S
H239 C269 0.950 . S
C240 H222 0.951 . S
C240 C241 1.366 . S
C240 C242 1.388 . S
C241 C240 1.366 . S
C241 C245 1.385 . S
C242 H223 0.951 . S
C242 C240 1.388 . S
C242 C243 1.366 . S
C243 C242 1.366 . S
C243 C244 1.414 . S
C243 C246 1.499 . S
C244 H224 0.950 . S
C244 C243 1.414 . S
C244 C245 1.374 . S
C245 H225 0.950 . S
C245 C241 1.385 . S
C245 C244 1.374 . S
C246 C243 1.499 . S
C246 C247 1.373 . S
C246 C248 1.389 . S
C247 H226 0.950 . S
C247 C246 1.373 . S
C247 C263 1.377 . S
C248 C246 1.389 . S
C248 C249 1.524 . S
C248 C262 1.377 . S
C249 C248 1.524 . S
C249 C250 1.397 . S
C249 C254 1.363 . S
C250 H227 0.950 . S
C250 C249 1.397 . S
C250 C251 1.334 . S
C251 H228 0.950 . S
C251 C250 1.334 . S
C251 C252 1.287 . S
C252 C251 1.287 . S
C252 C253 1.524 . S
C252 H271 0.913 . S
C253 H229 0.950 1_655 S
C253 C252 1.524 . S
C253 C254 1.415 . S
C254 H230 0.950 . S
C254 C249 1.363 . S
C254 C253 1.415 . S
C255 H231 0.951 . S
C255 C256 1.366 . S
C255 C257 1.388 . S
C256 C255 1.366 . S
C256 C260 1.385 . S
C257 H232 0.951 . S
C257 C255 1.388 . S
C257 C258 1.366 . S
C258 C257 1.366 . S
C258 C259 1.414 . S
C258 C261 1.499 . S
C259 H233 0.950 . S
C259 C258 1.414 . S
C259 C260 1.374 . S
C260 H234 0.950 1_655 S
C260 C256 1.385 . S
C260 C259 1.374 . S
C261 C258 1.499 . S
C261 C262 1.373 . S
C261 C263 1.389 . S
C262 H235 0.950 . S
C262 C248 1.377 . S
C262 C261 1.373 . S
C263 C247 1.377 . S
C263 C261 1.389 . S
C263 C264 1.524 . S
C264 C263 1.524 . S
C264 C265 1.397 . S
C264 C269 1.363 . S
C265 H236 0.950 . S
C265 C264 1.397 . S
C265 C266 1.334 . S
C266 H237 0.950 . S
C266 C265 1.334 . S
C266 C267 1.287 . S
C267 C266 1.287 . S
C267 C268 1.524 . S
C267 H270 0.999 . S
C268 H238 0.950 . S
C268 C267 1.524 . S
C268 C269 1.415 . S
C269 H239 0.950 . S
C269 C264 1.363 . S
C269 C268 1.415 . S
H270 C267 0.999 . S
H271 C252 0.913 . S
H272 C290 0.951 . S
H273 C292 0.951 . S
H274 C294 0.950 . S
H275 C295 0.950 . S
H276 C297 0.950 . S
H277 C300 0.950 . S
H278 C301 0.950 . S
H279 C303 0.950 . S
H280 C304 0.950 . S
H281 C305 0.951 . S
H282 C307 0.951 . S
H283 C309 0.950 . S
H284 C310 0.950 . S
H285 C312 0.950 . S
H286 C315 0.950 . S
H287 C316 0.950 . S
H288 C318 0.950 . S
H289 C319 0.950 . S
C290 H272 0.951 . S
C290 C291 1.366 . S
C290 C292 1.388 . S
C291 C290 1.366 . S
C291 C295 1.385 . S
C292 H273 0.951 . S
C292 C290 1.388 . S
C292 C293 1.366 . S
C293 C292 1.366 . S
C293 C294 1.414 . S
C293 C296 1.499 . S
C294 H274 0.950 . S
C294 C293 1.414 . S
C294 C295 1.374 . S
C295 H275 0.950 . S
C295 C291 1.385 . S
C295 C294 1.374 . S
C296 C293 1.499 . S
C296 C297 1.373 . S
C296 C298 1.389 . S
C297 H276 0.950 . S
C297 C296 1.373 . S
C297 C313 1.377 . S
C298 C296 1.389 . S
C298 C299 1.524 . S
C298 C312 1.377 . S
C299 C298 1.524 . S
C299 C300 1.397 . S
C299 C304 1.363 . S
C300 H277 0.950 . S
C300 C299 1.397 . S
C300 C301 1.334 . S
C301 H278 0.950 . S
C301 C300 1.334 . S
C301 C302 1.287 . S
C302 C301 1.287 . S
C302 C303 1.524 . S
C302 H321 0.913 . S
C303 H279 0.950 . S
C303 C302 1.524 . S
C303 C304 1.415 . S
C304 H280 0.950 . S
C304 C299 1.363 . S
C304 C303 1.415 . S
C305 H281 0.951 . S
C305 C306 1.366 . S
C305 C307 1.388 . S
C306 C305 1.366 . S
C306 C310 1.385 . S
C307 H282 0.951 . S
C307 C305 1.388 . S
C307 C308 1.366 . S
C308 C307 1.366 . S
C308 C309 1.414 . S
C308 C311 1.499 1_554 S
C309 H283 0.950 . S
C309 C308 1.414 . S
C309 C310 1.374 . S
C310 H284 0.950 . S
C310 C306 1.385 . S
C310 C309 1.374 . S
C311 C308 1.499 1_556 S
C311 C312 1.373 . S
C311 C313 1.389 . S
C312 H285 0.950 . S
C312 C298 1.377 . S
C312 C311 1.373 . S
C313 C297 1.377 . S
C313 C311 1.389 . S
C313 C314 1.524 1_556 S
C314 C313 1.524 1_554 S
C314 C315 1.397 . S
C314 C319 1.363 . S
C315 H286 0.950 . S
C315 C314 1.397 . S
C315 C316 1.334 . S
C316 H287 0.950 . S
C316 C315 1.334 . S
C316 C317 1.287 . S
C317 C316 1.287 . S
C317 C318 1.524 . S
C317 H320 0.999 . S
C318 H288 0.950 . S
C318 C317 1.524 . S
C318 C319 1.415 . S
C319 H289 0.950 . S
C319 C314 1.363 . S
C319 C318 1.415 . S
H320 C317 0.999 . S
H321 C302 0.913 . S
H322 C340 0.951 . S
H323 C342 0.951 . S
H324 C344 0.950 . S
H325 C345 0.950 . S
H326 C347 0.950 . S
H327 C350 0.950 . S
H328 C351 0.950 . S
H329 C353 0.950 . S
H330 C354 0.950 . S
H331 C355 0.951 . S
H332 C357 0.951 . S
H333 C359 0.950 . S
H334 C360 0.950 . S
H335 C362 0.950 . S
H336 C365 0.950 . S
H337 C366 0.950 . S
H338 C368 0.950 . S
H339 C369 0.950 . S
C340 H322 0.951 . S
C340 C341 1.366 . S
C340 C342 1.388 . S
C341 C340 1.366 . S
C341 C345 1.385 . S
C342 H323 0.951 . S
C342 C340 1.388 . S
C342 C343 1.366 . S
C343 C342 1.366 . S
C343 C344 1.414 . S
C343 C346 1.499 . S
C344 H324 0.950 . S
C344 C343 1.414 . S
C344 C345 1.374 . S
C345 H325 0.950 . S
C345 C341 1.385 . S
C345 C344 1.374 . S
C346 C343 1.499 . S
C346 C347 1.373 . S
C346 C348 1.389 . S
C347 H326 0.950 . S
C347 C346 1.373 . S
C347 C363 1.377 . S
C348 C346 1.389 . S
C348 C349 1.524 . S
C348 C362 1.377 . S
C349 C348 1.524 . S
C349 C350 1.397 . S
C349 C354 1.363 . S
C350 H327 0.950 . S
C350 C349 1.397 . S
C350 C351 1.334 . S
C351 H328 0.950 . S
C351 C350 1.334 . S
C351 C352 1.287 . S
C352 C351 1.287 . S
C352 C353 1.524 . S
C352 H371 0.913 . S
C353 H329 0.950 . S
C353 C352 1.524 . S
C353 C354 1.415 . S
C354 H330 0.950 . S
C354 C349 1.363 . S
C354 C353 1.415 . S
C355 H331 0.951 . S
C355 C356 1.366 . S
C355 C357 1.388 . S
C356 C355 1.366 . S
C356 C360 1.385 . S
C357 H332 0.951 . S
C357 C355 1.388 . S
C357 C358 1.366 . S
C358 C357 1.366 . S
C358 C359 1.414 . S
C358 C361 1.499 . S
C359 H333 0.950 . S
C359 C358 1.414 . S
C359 C360 1.374 . S
C360 H334 0.950 . S
C360 C356 1.385 . S
C360 C359 1.374 . S
C361 C358 1.499 . S
C361 C362 1.373 . S
C361 C363 1.389 . S
C362 H335 0.950 . S
C362 C348 1.377 . S
C362 C361 1.373 . S
C363 C347 1.377 . S
C363 C361 1.389 . S
C363 C364 1.524 . S
C364 C363 1.524 . S
C364 C365 1.397 . S
C364 C369 1.363 . S
C365 H336 0.950 . S
C365 C364 1.397 . S
C365 C366 1.334 . S
C366 H337 0.950 . S
C366 C365 1.334 . S
C366 C367 1.287 . S
C367 C366 1.287 . S
C367 C368 1.524 . S
C367 H370 0.999 . S
C368 H338 0.950 . S
C368 C367 1.524 . S
C368 C369 1.415 . S
C369 H339 0.950 . S
C369 C364 1.363 . S
C369 C368 1.415 . S
H370 C367 0.999 . S
H371 C352 0.913 . S
H372 C390 0.951 . S
H373 C392 0.951 . S
H374 C394 0.950 . S
H375 C395 0.950 . S
H376 C397 0.950 . S
H377 C400 0.950 . S
H378 C401 0.950 . S
H379 C403 0.950 . S
H380 C404 0.950 . S
H381 C405 0.951 . S
H382 C407 0.951 . S
H383 C409 0.950 . S
H384 C410 0.950 . S
H385 C412 0.950 . S
H386 C415 0.950 . S
H387 C416 0.950 . S
H388 C418 0.950 . S
H389 C419 0.950 1_455 S
C390 H372 0.951 . S
C390 C391 1.366 . S
C390 C392 1.388 . S
C391 C390 1.366 . S
C391 C395 1.385 . S
C392 H373 0.951 . S
C392 C390 1.388 . S
C392 C393 1.366 . S
C393 C392 1.366 . S
C393 C394 1.414 . S
C393 C396 1.499 . S
C394 H374 0.950 . S
C394 C393 1.414 . S
C394 C395 1.374 . S
C395 H375 0.950 . S
C395 C391 1.385 . S
C395 C394 1.374 . S
C396 C393 1.499 . S
C396 C397 1.373 . S
C396 C398 1.389 . S
C397 H376 0.950 . S
C397 C396 1.373 . S
C397 C413 1.377 . S
C398 C396 1.389 . S
C398 C399 1.524 . S
C398 C412 1.377 . S
C399 C398 1.524 . S
C399 C400 1.397 . S
C399 C404 1.363 . S
C400 H377 0.950 . S
C400 C399 1.397 . S
C400 C401 1.334 . S
C401 H378 0.950 . S
C401 C400 1.334 . S
C401 C402 1.287 . S
C402 C401 1.287 . S
C402 C403 1.524 . S
C402 H421 0.913 . S
C403 H379 0.950 . S
C403 C402 1.524 . S
C403 C404 1.415 . S
C404 H380 0.950 . S
C404 C399 1.363 . S
C404 C403 1.415 . S
C405 H381 0.951 . S
C405 C406 1.366 . S
C405 C407 1.388 . S
C406 C405 1.366 . S
C406 C410 1.385 . S
C407 H382 0.951 . S
C407 C405 1.388 . S
C407 C408 1.366 . S
C408 C407 1.366 . S
C408 C409 1.414 . S
C408 C411 1.499 . S
C409 H383 0.950 . S
C409 C408 1.414 . S
C409 C410 1.374 . S
C410 H384 0.950 . S
C410 C406 1.385 . S
C410 C409 1.374 . S
C411 C408 1.499 . S
C411 C412 1.373 . S
C411 C413 1.389 . S
C412 H385 0.950 . S
C412 C398 1.377 . S
C412 C411 1.373 . S
C413 C397 1.377 . S
C413 C411 1.389 . S
C413 C414 1.524 . S
C414 C413 1.524 . S
C414 C415 1.397 1_455 S
C414 C419 1.363 1_455 S
C415 H386 0.950 . S
C415 C414 1.397 1_655 S
C415 C416 1.334 . S
C416 H387 0.950 . S
C416 C415 1.334 . S
C416 C417 1.287 . S
C417 C416 1.287 . S
C417 C418 1.524 . S
C417 H420 0.999 . S
C418 H388 0.950 . S
C418 C417 1.524 . S
C418 C419 1.415 . S
C419 H389 0.950 1_655 S
C419 C414 1.363 1_655 S
C419 C418 1.415 . S
H420 C417 0.999 . S
H421 C402 0.913 . S
H422 C440 0.951 . S
H423 C442 0.951 . S
H424 C444 0.950 . S
H425 C445 0.950 . S
H426 C447 0.950 . S
H427 C450 0.950 . S
H428 C451 0.950 . S
H429 C453 0.950 . S
H430 C454 0.950 . S
H431 C455 0.951 . S
H432 C457 0.951 . S
H433 C459 0.950 . S
H434 C460 0.950 . S
H435 C462 0.950 . S
H436 C465 0.950 . S
H437 C466 0.950 . S
H438 C468 0.950 . S
H439 C469 0.950 . S
C440 H422 0.951 . S
C440 C441 1.366 . S
C440 C442 1.388 . S
C441 C440 1.366 . S
C441 C445 1.385 . S
C442 H423 0.951 . S
C442 C440 1.388 . S
C442 C443 1.366 . S
C443 C442 1.366 . S
C443 C444 1.414 . S
C443 C446 1.499 . S
C444 H424 0.950 . S
C444 C443 1.414 . S
C444 C445 1.374 . S
C445 H425 0.950 . S
C445 C441 1.385 . S
C445 C444 1.374 . S
C446 C443 1.499 . S
C446 C447 1.373 . S
C446 C448 1.389 . S
C447 H426 0.950 . S
C447 C446 1.373 . S
C447 C463 1.377 . S
C448 C446 1.389 . S
C448 C449 1.524 . S
C448 C462 1.377 . S
C449 C448 1.524 . S
C449 C450 1.397 . S
C449 C454 1.363 . S
C450 H427 0.950 . S
C450 C449 1.397 . S
C450 C451 1.334 . S
C451 H428 0.950 . S
C451 C450 1.334 . S
C451 C452 1.287 . S
C452 C451 1.287 . S
C452 C453 1.524 . S
C452 H471 0.913 . S
C453 H429 0.950 . S
C453 C452 1.524 . S
C453 C454 1.415 . S
C454 H430 0.950 . S
C454 C449 1.363 . S
C454 C453 1.415 . S
C455 H431 0.951 . S
C455 C456 1.366 . S
C455 C457 1.388 . S
C456 C455 1.366 . S
C456 C460 1.385 . S
C457 H432 0.951 . S
C457 C455 1.388 . S
C457 C458 1.366 . S
C458 C457 1.366 . S
C458 C459 1.414 . S
C458 C461 1.499 . S
C459 H433 0.950 . S
C459 C458 1.414 . S
C459 C460 1.374 . S
C460 H434 0.950 . S
C460 C456 1.385 . S
C460 C459 1.374 . S
C461 C458 1.499 . S
C461 C462 1.373 . S
C461 C463 1.389 . S
C462 H435 0.950 . S
C462 C448 1.377 . S
C462 C461 1.373 . S
C463 C447 1.377 . S
C463 C461 1.389 . S
C463 C464 1.524 . S
C464 C463 1.524 . S
C464 C465 1.397 . S
C464 C469 1.363 . S
C465 H436 0.950 . S
C465 C464 1.397 . S
C465 C466 1.334 . S
C466 H437 0.950 . S
C466 C465 1.334 . S
C466 C467 1.287 . S
C467 C466 1.287 . S
C467 C468 1.524 . S
C467 H470 0.999 . S
C468 H438 0.950 . S
C468 C467 1.524 . S
C468 C469 1.415 . S
C469 H439 0.950 . S
C469 C464 1.363 . S
C469 C468 1.415 . S
H470 C467 0.999 . S
H471 C452 0.913 . S
H472 C490 0.951 . S
H473 C492 0.951 . S
H474 C494 0.950 . S
H475 C495 0.950 . S
H476 C497 0.966 . S
H477 C500 0.950 . S
H478 C501 0.950 . S
H479 C503 0.921 1_564 S
H480 C504 0.950 . S
H481 C505 0.951 . S
H482 C507 0.951 . S
H483 C509 0.950 . S
H484 C510 0.950 . S
H485 C512 0.950 . S
H486 C515 0.950 . S
H487 C516 0.950 . S
H488 C518 0.950 . S
H489 C519 0.950 . S
C490 H472 0.951 . S
C490 C491 1.366 . S
C490 C492 1.388 . S
C491 C490 1.366 . S
C491 C495 1.385 1_565 S
C492 H473 0.951 . S
C492 C490 1.388 . S
C492 C493 1.366 1_565 S
C493 C492 1.366 1_545 S
C493 C494 1.414 . S
C493 C496 1.499 . S
C494 H474 0.950 . S
C494 C493 1.414 . S
C494 C495 1.374 . S
C495 H475 0.950 . S
C495 C491 1.385 1_545 S
C495 C494 1.374 . S
C496 C493 1.499 . S
C496 C497 1.373 1_556 S
C496 C498 1.389 1_556 S
C497 H476 0.966 . S
C497 C496 1.373 1_554 S
C497 C513 1.377 . S
C498 C496 1.389 1_554 S
C498 C499 1.524 1_554 S
C498 C512 1.377 . S
C499 C498 1.524 1_556 S
C499 C500 1.397 . S
C499 C504 1.363 1_556 S
C500 H477 0.950 . S
C500 C499 1.397 . S
C500 C501 1.334 . S
C501 H478 0.950 . S
C501 C500 1.334 . S
C501 C502 1.287 . S
C502 C501 1.287 . S
C502 C503 1.567 . S
C502 H521 0.913 1_455 S
C503 H479 0.921 1_546 S
C503 C502 1.567 . S
C503 C504 1.406 1_556 S
C504 H480 0.950 . S
C504 C499 1.363 1_554 S
C504 C503 1.406 1_554 S
C505 H481 0.951 . S
C505 C506 1.366 . S
C505 C507 1.388 . S
C506 C505 1.366 . S
C506 C510 1.385 . S
C507 H482 0.951 . S
C507 C505 1.388 . S
C507 C508 1.366 . S
C508 C507 1.366 . S
C508 C509 1.414 . S
C508 C511 1.499 . S
C509 H483 0.950 . S
C509 C508 1.414 . S
C509 C510 1.374 . S
C510 H484 0.950 . S
C510 C506 1.385 . S
C510 C509 1.374 . S
C511 C508 1.499 . S
C511 C512 1.373 . S
C511 C513 1.389 . S
C512 H485 0.950 . S
C512 C498 1.377 . S
C512 C511 1.373 . S
C513 C497 1.377 . S
C513 C511 1.389 . S
C513 C514 1.524 . S
C514 C513 1.524 . S
C514 C515 1.397 . S
C514 C519 1.363 . S
C515 H486 0.950 . S
C515 C514 1.397 . S
C515 C516 1.334 . S
C516 H487 0.950 . S
C516 C515 1.334 . S
C516 C517 1.287 . S
C517 C516 1.287 . S
C517 C518 1.524 . S
C517 H520 0.999 . S
C518 H488 0.950 . S
C518 C517 1.524 . S
C518 C519 1.415 . S
C519 H489 0.950 . S
C519 C514 1.363 . S
C519 C518 1.415 . S
H520 C517 0.999 . S
H521 C502 0.913 1_655 S
H522 C540 0.951 . S
H523 C542 0.951 1_565 S
H524 C544 0.950 . S
H525 C545 0.950 . S
H526 C547 0.950 . S
H527 C550 0.950 . S
H528 C551 0.950 . S
H529 C553 0.950 . S
H530 C554 0.950 . S
H531 C555 0.951 . S
H532 C557 0.951 . S
H533 C559 0.950 . S
H534 C560 0.950 . S
H535 C562 0.950 . S
H536 C565 0.950 1_565 S
H537 C566 0.950 . S
H538 C568 0.950 . S
H539 C569 0.950 . S
C540 H522 0.951 . S
C540 C541 1.366 . S
C540 C542 1.388 . S
C541 C540 1.366 . S
C541 C545 1.385 . S
C542 H523 0.951 1_545 S
C542 C540 1.388 . S
C542 C543 1.366 . S
C543 C542 1.366 . S
C543 C544 1.414 . S
C543 C546 1.499 1_545 S
C544 H524 0.950 . S
C544 C543 1.414 . S
C544 C545 1.374 . S
C545 H525 0.950 . S
C545 C541 1.385 . S
C545 C544 1.374 . S
C546 C543 1.499 1_565 S
C546 C547 1.373 1_565 S
C546 C548 1.389 . S
C547 H526 0.950 . S
C547 C546 1.373 1_545 S
C547 C563 1.377 1_545 S
C548 C546 1.389 . S
C548 C549 1.524 . S
C548 C562 1.377 . S
C549 C548 1.524 . S
C549 C550 1.397 . S
C549 C554 1.363 . S
C550 H527 0.950 . S
C550 C549 1.397 . S
C550 C551 1.334 . S
C551 H528 0.950 . S
C551 C550 1.334 . S
C551 C552 1.287 . S
C552 C551 1.287 . S
C552 C553 1.524 . S
C552 H571 0.913 . S
C553 H529 0.950 . S
C553 C552 1.524 . S
C553 C554 1.415 . S
C554 H530 0.950 . S
C554 C549 1.363 . S
C554 C553 1.415 . S
C555 H531 0.951 . S
C555 C556 1.366 . S
C555 C557 1.388 . S
C556 C555 1.366 . S
C556 C560 1.385 . S
C557 H532 0.951 . S
C557 C555 1.388 . S
C557 C558 1.366 . S
C558 C557 1.366 . S
C558 C559 1.414 . S
C558 C561 1.499 . S
C559 H533 0.950 . S
C559 C558 1.414 . S
C559 C560 1.374 . S
C560 H534 0.950 . S
C560 C556 1.385 . S
C560 C559 1.374 . S
C561 C558 1.499 . S
C561 C562 1.373 . S
C561 C563 1.389 . S
C562 H535 0.950 . S
C562 C548 1.377 . S
C562 C561 1.373 . S
C563 C547 1.377 1_565 S
C563 C561 1.389 . S
C563 C564 1.524 1_565 S
C564 C563 1.524 1_545 S
C564 C565 1.397 . S
C564 C569 1.363 . S
C565 H536 0.950 1_545 S
C565 C564 1.397 . S
C565 C566 1.334 . S
C566 H537 0.950 . S
C566 C565 1.334 . S
C566 C567 1.287 . S
C567 C566 1.287 . S
C567 C568 1.524 . S
C567 H570 0.999 . S
C568 H538 0.950 . S
C568 C567 1.524 . S
C568 C569 1.415 . S
C569 H539 0.950 . S
C569 C564 1.363 . S
C569 C568 1.415 . S
H570 C567 0.999 . S
H571 C552 0.913 . S
H572 C590 0.951 . S
H573 C592 0.951 1_565 S
H574 C594 0.950 . S
H575 C595 0.950 . S
H576 C597 0.950 . S
H577 C600 0.950 . S
H578 C601 0.950 . S
H579 C603 0.950 . S
H580 C604 0.950 . S
H581 C605 0.951 . S
H582 C607 0.951 . S
H583 C609 0.950 . S
H584 C610 0.950 . S
H585 C612 0.949 1_655 S
H586 C615 0.950 . S
H587 C616 0.950 . S
H588 C618 0.950 . S
H589 C619 0.950 . S
C590 H572 0.951 . S
C590 C591 1.366 . S
C590 C592 1.388 . S
C591 C590 1.366 . S
C591 C595 1.385 . S
C592 H573 0.951 1_545 S
C592 C590 1.388 . S
C592 C593 1.366 1_545 S
C593 C592 1.366 1_565 S
C593 C594 1.414 1_565 S
C593 C596 1.499 . S
C594 H574 0.950 . S
C594 C593 1.414 1_545 S
C594 C595 1.374 . S
C595 H575 0.950 . S
C595 C591 1.385 . S
C595 C594 1.374 . S
C596 C593 1.499 . S
C596 C597 1.373 . S
C596 C598 1.389 1_455 S
C597 H576 0.950 . S
C597 C596 1.373 . S
C597 C613 1.377 . S
C598 C596 1.389 1_655 S
C598 C599 1.524 . S
C598 C612 1.376 1_655 S
C599 C598 1.524 . S
C599 C600 1.397 . S
C599 C604 1.363 . S
C600 H577 0.950 . S
C600 C599 1.397 . S
C600 C601 1.334 . S
C601 H578 0.950 . S
C601 C600 1.334 . S
C601 C602 1.287 . S
C602 C601 1.287 . S
C602 C603 1.524 . S
C602 H621 0.913 . S
C603 H579 0.950 . S
C603 C602 1.524 . S
C603 C604 1.415 . S
C604 H580 0.950 . S
C604 C599 1.363 . S
C604 C603 1.415 . S
C605 H581 0.951 . S
C605 C606 1.366 . S
C605 C607 1.388 . S
C606 C605 1.366 . S
C606 C610 1.385 . S
C607 H582 0.951 . S
C607 C605 1.388 . S
C607 C608 1.366 . S
C608 C607 1.366 . S
C608 C609 1.414 . S
C608 C611 1.499 . S
C609 H583 0.950 . S
C609 C608 1.414 . S
C609 C610 1.374 . S
C610 H584 0.950 . S
C610 C606 1.385 . S
C610 C609 1.374 . S
C611 C608 1.499 . S
C611 C612 1.375 . S
C611 C613 1.389 . S
C612 H585 0.949 1_455 S
C612 C598 1.376 1_455 S
C612 C611 1.375 . S
C613 C597 1.377 . S
C613 C611 1.389 . S
C613 C614 1.524 . S
C614 C613 1.524 . S
C614 C615 1.397 . S
C614 C619 1.363 . S
C615 H586 0.950 . S
C615 C614 1.397 . S
C615 C616 1.334 . S
C616 H587 0.950 . S
C616 C615 1.334 . S
C616 C617 1.287 . S
C617 C616 1.287 . S
C617 C618 1.524 . S
C617 H620 0.999 . S
C618 H588 0.950 . S
C618 C617 1.524 . S
C618 C619 1.415 . S
C619 H589 0.950 . S
C619 C614 1.363 . S
C619 C618 1.415 . S
H620 C617 0.999 . S
H621 C602 0.913 . S
H622 C640 0.951 . S
H623 C642 0.951 . S
H624 C644 0.950 . S
H625 C645 0.950 . S
H626 C647 0.950 . S
H627 C650 0.950 . S
H628 C651 0.950 . S
H629 C653 0.950 . S
H630 C654 0.950 . S
H631 C655 0.951 . S
H632 C657 0.951 . S
H633 C659 0.950 . S
H634 C660 0.950 . S
H635 C662 0.950 . S
H636 C665 0.950 . S
H637 C666 0.950 . S
H638 C668 0.950 . S
H639 C669 0.950 . S
C640 H622 0.951 . S
C640 C641 1.366 . S
C640 C642 1.388 . S
C641 C640 1.366 . S
C641 C645 1.385 . S
C642 H623 0.951 . S
C642 C640 1.388 . S
C642 C643 1.366 . S
C643 C642 1.366 . S
C643 C644 1.414 . S
C643 C646 1.499 . S
C644 H624 0.950 . S
C644 C643 1.414 . S
C644 C645 1.374 . S
C645 H625 0.950 . S
C645 C641 1.385 . S
C645 C644 1.374 . S
C646 C643 1.499 . S
C646 C647 1.373 . S
C646 C648 1.389 . S
C647 H626 0.950 . S
C647 C646 1.373 . S
C647 C663 1.377 . S
C648 C646 1.389 . S
C648 C649 1.524 . S
C648 C662 1.377 . S
C649 C648 1.524 . S
C649 C650 1.397 . S
C649 C654 1.363 . S
C650 H627 0.950 . S
C650 C649 1.397 . S
C650 C651 1.334 . S
C651 H628 0.950 . S
C651 C650 1.334 . S
C651 C652 1.287 . S
C652 C651 1.287 . S
C652 C653 1.524 . S
C652 H671 0.913 . S
C653 H629 0.950 . S
C653 C652 1.524 . S
C653 C654 1.415 . S
C654 H630 0.950 . S
C654 C649 1.363 . S
C654 C653 1.415 . S
C655 H631 0.951 . S
C655 C656 1.366 . S
C655 C657 1.388 . S
C656 C655 1.366 . S
C656 C660 1.385 . S
C657 H632 0.951 . S
C657 C655 1.388 . S
C657 C658 1.366 . S
C658 C657 1.366 . S
C658 C659 1.414 . S
C658 C661 1.499 . S
C659 H633 0.950 . S
C659 C658 1.414 . S
C659 C660 1.374 . S
C660 H634 0.950 . S
C660 C656 1.385 . S
C660 C659 1.374 . S
C661 C658 1.499 . S
C661 C662 1.373 . S
C661 C663 1.389 . S
C662 H635 0.950 . S
C662 C648 1.377 . S
C662 C661 1.373 . S
C663 C647 1.377 . S
C663 C661 1.389 . S
C663 C664 1.524 . S
C664 C663 1.524 . S
C664 C665 1.397 . S
C664 C669 1.363 . S
C665 H636 0.950 . S
C665 C664 1.397 . S
C665 C666 1.334 . S
C666 H637 0.950 . S
C666 C665 1.334 . S
C666 C667 1.287 . S
C667 C666 1.287 . S
C667 C668 1.524 . S
C667 H670 0.999 . S
C668 H638 0.950 . S
C668 C667 1.524 . S
C668 C669 1.415 . S
C669 H639 0.950 . S
C669 C664 1.363 . S
C669 C668 1.415 . S
H670 C667 0.999 . S
H671 C652 0.913 . S
H672 C690 0.951 . S
H673 C692 0.951 . S
H674 C694 0.950 . S
H675 C695 0.950 . S
H676 C697 0.950 . S
H677 C700 0.950 . S
H678 C701 0.950 . S
H679 C703 0.950 . S
H680 C704 0.950 . S
H681 C705 0.951 . S
H682 C707 0.951 . S
H683 C709 0.950 . S
H684 C710 0.950 . S
H685 C712 0.950 . S
H686 C715 0.950 . S
H687 C716 0.950 1_565 S
H688 C718 0.950 . S
H689 C719 0.950 . S
C690 H672 0.951 . S
C690 C691 1.366 . S
C690 C692 1.388 . S
C691 C690 1.366 . S
C691 C695 1.385 . S
C692 H673 0.951 . S
C692 C690 1.388 . S
C692 C693 1.366 . S
C693 C692 1.366 . S
C693 C694 1.414 . S
C693 C696 1.499 . S
C694 H674 0.950 . S
C694 C693 1.414 . S
C694 C695 1.374 . S
C695 H675 0.950 . S
C695 C691 1.385 . S
C695 C694 1.374 . S
C696 C693 1.499 . S
C696 C697 1.373 . S
C696 C698 1.389 . S
C697 H676 0.950 . S
C697 C696 1.373 . S
C697 C713 1.377 . S
C698 C696 1.389 . S
C698 C699 1.524 . S
C698 C712 1.377 . S
C699 C698 1.524 . S
C699 C700 1.397 . S
C699 C704 1.363 . S
C700 H677 0.950 . S
C700 C699 1.397 . S
C700 C701 1.334 . S
C701 H678 0.950 . S
C701 C700 1.334 . S
C701 C702 1.287 . S
C702 C701 1.287 . S
C702 C703 1.524 . S
C702 H721 0.913 . S
C703 H679 0.950 . S
C703 C702 1.524 . S
C703 C704 1.415 . S
C704 H680 0.950 . S
C704 C699 1.363 . S
C704 C703 1.415 . S
C705 H681 0.951 . S
C705 C706 1.366 . S
C705 C707 1.388 1_565 S
C706 C705 1.366 . S
C706 C710 1.385 . S
C707 H682 0.951 . S
C707 C705 1.388 1_545 S
C707 C708 1.366 . S
C708 C707 1.366 . S
C708 C709 1.414 . S
C708 C711 1.499 . S
C709 H683 0.950 . S
C709 C708 1.414 . S
C709 C710 1.374 1_545 S
C710 H684 0.950 . S
C710 C706 1.385 . S
C710 C709 1.374 1_565 S
C711 C708 1.499 . S
C711 C712 1.373 . S
C711 C713 1.389 . S
C712 H685 0.950 . S
C712 C698 1.377 . S
C712 C711 1.373 . S
C713 C697 1.377 . S
C713 C711 1.389 . S
C713 C714 1.524 . S
C714 C713 1.524 . S
C714 C715 1.397 . S
C714 C719 1.363 . S
C715 H686 0.950 . S
C715 C714 1.397 . S
C715 C716 1.334 . S
C716 H687 0.950 1_545 S
C716 C715 1.334 . S
C716 C717 1.287 . S
C717 C716 1.287 . S
C717 C718 1.524 . S
C717 H720 0.999 1_545 S
C718 H688 0.950 . S
C718 C717 1.524 . S
C718 C719 1.415 . S
C719 H689 0.950 . S
C719 C714 1.363 . S
C719 C718 1.415 . S
H720 C717 0.999 1_565 S
H721 C702 0.913 . S
H722 C740 0.951 . S
H723 C742 0.951 . S
H724 C744 0.950 . S
H725 C745 0.950 . S
H726 C747 0.950 . S
H727 C750 0.950 . S
H728 C751 0.950 . S
H729 C753 0.950 . S
H730 C754 0.950 . S
H731 C755 0.951 . S
H732 C757 0.951 . S
H733 C759 0.950 . S
H734 C760 0.950 . S
H735 C762 0.950 . S
H736 C765 0.950 . S
H737 C766 0.950 . S
H738 C768 0.950 . S
H739 C769 0.950 . S
C740 H722 0.951 . S
C740 C741 1.366 . S
C740 C742 1.388 . S
C741 C740 1.366 . S
C741 C745 1.385 . S
C742 H723 0.951 . S
C742 C740 1.388 . S
C742 C743 1.366 . S
C743 C742 1.366 . S
C743 C744 1.414 . S
C743 C746 1.499 1_455 S
C744 H724 0.950 . S
C744 C743 1.414 . S
C744 C745 1.374 . S
C745 H725 0.950 . S
C745 C741 1.385 . S
C745 C744 1.374 . S
C746 C743 1.499 1_655 S
C746 C747 1.373 . S
C746 C748 1.389 . S
C747 H726 0.950 . S
C747 C746 1.373 . S
C747 C763 1.377 . S
C748 C746 1.389 . S
C748 C749 1.524 . S
C748 C762 1.377 . S
C749 C748 1.524 . S
C749 C750 1.397 . S
C749 C754 1.363 . S
C750 H727 0.950 . S
C750 C749 1.397 . S
C750 C751 1.334 1_655 S
C751 H728 0.950 . S
C751 C750 1.334 1_455 S
C751 C752 1.287 1_455 S
C752 C751 1.287 1_655 S
C752 C753 1.524 . S
C752 H771 0.913 1_655 S
C753 H729 0.950 . S
C753 C752 1.524 . S
C753 C754 1.415 . S
C754 H730 0.950 . S
C754 C749 1.363 . S
C754 C753 1.415 . S
C755 H731 0.951 . S
C755 C756 1.366 . S
C755 C757 1.388 . S
C756 C755 1.366 . S
C756 C760 1.385 . S
C757 H732 0.951 . S
C757 C755 1.388 . S
C757 C758 1.366 . S
C758 C757 1.366 . S
C758 C759 1.414 . S
C758 C761 1.499 . S
C759 H733 0.950 . S
C759 C758 1.414 . S
C759 C760 1.374 . S
C760 H734 0.950 . S
C760 C756 1.385 . S
C760 C759 1.374 . S
C761 C758 1.499 . S
C761 C762 1.373 . S
C761 C763 1.389 . S
C762 H735 0.950 . S
C762 C748 1.377 . S
C762 C761 1.373 . S
C763 C747 1.377 . S
C763 C761 1.389 . S
C763 C764 1.524 . S
C764 C763 1.524 . S
C764 C765 1.397 . S
C764 C769 1.363 . S
C765 H736 0.950 . S
C765 C764 1.397 . S
C765 C766 1.334 . S
C766 H737 0.950 . S
C766 C765 1.334 . S
C766 C767 1.287 . S
C767 C766 1.287 . S
C767 C768 1.524 . S
C767 H770 0.999 . S
C768 H738 0.950 . S
C768 C767 1.524 . S
C768 C769 1.415 . S
C769 H739 0.950 . S
C769 C764 1.363 . S
C769 C768 1.415 . S
H770 C767 0.999 . S
H771 C752 0.913 1_455 S
H772 C790 0.951 . S
H773 C792 0.951 . S
H774 C794 0.950 . S
H775 C795 0.950 . S
H776 C797 0.950 . S
H777 C800 0.950 . S
H778 C801 0.950 . S
H779 C803 0.950 . S
H780 C804 0.950 . S
H781 C805 0.951 . S
H782 C807 0.951 . S
H783 C809 0.950 . S
H784 C810 0.950 . S
H785 C812 0.950 . S
H786 C815 0.950 . S
H787 C816 0.950 . S
H788 C818 0.950 . S
H789 C819 0.950 . S
C790 H772 0.951 . S
C790 C791 1.366 . S
C790 C792 1.388 . S
C791 C790 1.366 . S
C791 C795 1.385 . S
C792 H773 0.951 . S
C792 C790 1.388 . S
C792 C793 1.366 . S
C793 C792 1.366 . S
C793 C794 1.414 . S
C793 C796 1.499 . S
C794 H774 0.950 . S
C794 C793 1.414 . S
C794 C795 1.374 . S
C795 H775 0.950 . S
C795 C791 1.385 . S
C795 C794 1.374 . S
C796 C793 1.499 . S
C796 C797 1.373 1_565 S
C796 C798 1.389 1_565 S
C797 H776 0.950 . S
C797 C796 1.373 1_545 S
C797 C813 1.377 . S
C798 C796 1.389 1_545 S
C798 C799 1.524 . S
C798 C812 1.377 . S
C799 C798 1.524 . S
C799 C800 1.397 1_545 S
C799 C804 1.363 . S
C800 H777 0.950 . S
C800 C799 1.397 1_565 S
C800 C801 1.334 . S
C801 H778 0.950 . S
C801 C800 1.334 . S
C801 C802 1.287 . S
C802 C801 1.287 . S
C802 C803 1.524 . S
C802 H821 0.913 . S
C803 H779 0.950 . S
C803 C802 1.524 . S
C803 C804 1.415 1_565 S
C804 H780 0.950 . S
C804 C799 1.363 . S
C804 C803 1.415 1_545 S
C805 H781 0.951 . S
C805 C806 1.366 . S
C805 C807 1.388 . S
C806 C805 1.366 . S
C806 C810 1.385 . S
C807 H782 0.951 . S
C807 C805 1.388 . S
C807 C808 1.366 . S
C808 C807 1.366 . S
C808 C809 1.414 . S
C808 C811 1.499 . S
C809 H783 0.950 . S
C809 C808 1.414 . S
C809 C810 1.374 . S
C810 H784 0.950 . S
C810 C806 1.385 . S
C810 C809 1.374 . S
C811 C808 1.499 . S
C811 C812 1.373 . S
C811 C813 1.389 . S
C812 H785 0.950 . S
C812 C798 1.377 . S
C812 C811 1.373 . S
C813 C797 1.377 . S
C813 C811 1.389 . S
C813 C814 1.524 . S
C814 C813 1.524 . S
C814 C815 1.397 . S
C814 C819 1.363 . S
C815 H786 0.950 . S
C815 C814 1.397 . S
C815 C816 1.334 1_455 S
C816 H787 0.950 . S
C816 C815 1.334 1_655 S
C816 C817 1.287 . S
C817 C816 1.287 . S
C817 C818 1.524 . S
C817 H820 0.999 . S
C818 H788 0.950 . S
C818 C817 1.524 . S
C818 C819 1.415 1_655 S
C819 H789 0.950 . S
C819 C814 1.363 . S
C819 C818 1.415 1_455 S
H820 C817 0.999 . S
H821 C802 0.913 . S
H822 C840 0.951 . S
H823 C842 0.951 . S
H824 C844 0.950 . S
H825 C845 0.950 . S
H826 C847 0.950 . S
H827 C850 0.950 . S
H828 C851 0.950 . S
H829 C853 0.950 . S
H830 C854 0.950 . S
H831 C855 0.951 . S
H832 C857 0.951 . S
H833 C859 0.950 . S
H834 C860 0.950 . S
H835 C862 0.950 . S
H836 C865 0.950 . S
H837 C866 0.950 . S
H838 C868 0.950 . S
H839 C869 0.950 . S
C840 H822 0.951 . S
C840 C841 1.366 . S
C840 C842 1.388 . S
C841 C840 1.366 . S
C841 C845 1.385 . S
C842 H823 0.951 . S
C842 C840 1.388 . S
C842 C843 1.366 . S
C843 C842 1.366 . S
C843 C844 1.414 . S
C843 C846 1.499 . S
C844 H824 0.950 . S
C844 C843 1.414 . S
C844 C845 1.374 . S
C845 H825 0.950 . S
C845 C841 1.385 . S
C845 C844 1.374 . S
C846 C843 1.499 . S
C846 C847 1.373 . S
C846 C848 1.389 . S
C847 H826 0.950 . S
C847 C846 1.373 . S
C847 C863 1.377 . S
C848 C846 1.389 . S
C848 C849 1.524 . S
C848 C862 1.377 . S
C849 C848 1.524 . S
C849 C850 1.397 . S
C849 C854 1.363 . S
C850 H827 0.950 . S
C850 C849 1.397 . S
C850 C851 1.334 . S
C851 H828 0.950 . S
C851 C850 1.334 . S
C851 C852 1.287 . S
C852 C851 1.287 . S
C852 C853 1.524 . S
C852 H871 0.913 . S
C853 H829 0.950 . S
C853 C852 1.524 . S
C853 C854 1.415 . S
C854 H830 0.950 . S
C854 C849 1.363 . S
C854 C853 1.415 . S
C855 H831 0.951 . S
C855 C856 1.366 . S
C855 C857 1.388 . S
C856 C855 1.366 . S
C856 C860 1.385 . S
C857 H832 0.951 . S
C857 C855 1.388 . S
C857 C858 1.366 . S
C858 C857 1.366 . S
C858 C859 1.414 . S
C858 C861 1.499 1_455 S
C859 H833 0.950 . S
C859 C858 1.414 . S
C859 C860 1.374 . S
C860 H834 0.950 . S
C860 C856 1.385 . S
C860 C859 1.374 . S
C861 C858 1.499 1_655 S
C861 C862 1.373 . S
C861 C863 1.389 . S
C862 H835 0.950 . S
C862 C848 1.377 . S
C862 C861 1.373 . S
C863 C847 1.377 . S
C863 C861 1.389 . S
C863 C864 1.524 . S
C864 C863 1.524 . S
C864 C865 1.397 1_655 S
C864 C869 1.363 . S
C865 H836 0.950 . S
C865 C864 1.397 1_455 S
C865 C866 1.334 . S
C866 H837 0.950 . S
C866 C865 1.334 . S
C866 C867 1.287 . S
C867 C866 1.287 . S
C867 C868 1.524 . S
C867 H870 0.999 . S
C868 H838 0.950 . S
C868 C867 1.524 . S
C868 C869 1.415 1_455 S
C869 H839 0.950 . S
C869 C864 1.363 . S
C869 C868 1.415 1_655 S
H870 C867 0.999 . S
H871 C852 0.913 . S
H872 C890 0.951 . S
H873 C892 0.951 . S
H874 C894 0.950 . S
H875 C895 0.950 . S
H876 C897 0.950 . S
H877 C900 0.950 . S
H878 C901 0.950 . S
H879 C903 0.950 . S
H880 C904 0.950 . S
H881 C905 0.951 . S
H882 C907 0.951 . S
H883 C909 0.950 . S
H884 C910 0.950 . S
H885 C912 0.950 . S
H886 C915 0.950 . S
H887 C916 0.950 . S
H888 C918 0.950 . S
H889 C919 0.950 . S
C890 H872 0.951 . S
C890 C891 1.366 . S
C890 C892 1.388 . S
C891 C890 1.366 . S
C891 C895 1.385 . S
C892 H873 0.951 . S
C892 C890 1.388 . S
C892 C893 1.366 . S
C893 C892 1.366 . S
C893 C894 1.414 . S
C893 C896 1.499 . S
C894 H874 0.950 . S
C894 C893 1.414 . S
C894 C895 1.374 . S
C895 H875 0.950 . S
C895 C891 1.385 . S
C895 C894 1.374 . S
C896 C893 1.499 . S
C896 C897 1.373 . S
C896 C898 1.389 . S
C897 H876 0.950 . S
C897 C896 1.373 . S
C897 C913 1.377 . S
C898 C896 1.389 . S
C898 C899 1.524 . S
C898 C912 1.377 . S
C899 C898 1.524 . S
C899 C900 1.397 . S
C899 C904 1.363 . S
C900 H877 0.950 . S
C900 C899 1.397 . S
C900 C901 1.334 . S
C901 H878 0.950 . S
C901 C900 1.334 . S
C901 C902 1.287 . S
C902 C901 1.287 . S
C902 C903 1.524 . S
C902 H921 0.913 . S
C903 H879 0.950 . S
C903 C902 1.524 . S
C903 C904 1.415 . S
C904 H880 0.950 . S
C904 C899 1.363 . S
C904 C903 1.415 . S
C905 H881 0.951 . S
C905 C906 1.366 . S
C905 C907 1.388 . S
C906 C905 1.366 . S
C906 C910 1.385 . S
C907 H882 0.951 . S
C907 C905 1.388 . S
C907 C908 1.366 . S
C908 C907 1.366 . S
C908 C909 1.414 . S
C908 C911 1.499 1_545 S
C909 H883 0.950 . S
C909 C908 1.414 . S
C909 C910 1.374 . S
C910 H884 0.950 . S
C910 C906 1.385 . S
C910 C909 1.374 . S
C911 C908 1.499 1_565 S
C911 C912 1.373 . S
C911 C913 1.389 . S
C912 H885 0.950 . S
C912 C898 1.377 . S
C912 C911 1.373 . S
C913 C897 1.377 . S
C913 C911 1.389 . S
C913 C914 1.524 . S
C914 C913 1.524 . S
C914 C915 1.397 . S
C914 C919 1.363 . S
C915 H886 0.950 . S
C915 C914 1.397 . S
C915 C916 1.334 1_565 S
C916 H887 0.950 . S
C916 C915 1.334 1_545 S
C916 C917 1.287 . S
C917 C916 1.287 . S
C917 C918 1.524 1_545 S
C917 H920 0.999 . S
C918 H888 0.950 . S
C918 C917 1.524 1_565 S
C918 C919 1.415 . S
C919 H889 0.950 . S
C919 C914 1.363 . S
C919 C918 1.415 . S
H920 C917 0.999 . S
H921 C902 0.913 . S
H922 C940 0.951 . S
H923 C942 0.951 . S
H924 C944 0.950 . S
H925 C945 0.950 . S
H926 C947 0.950 . S
H927 C950 0.950 . S
H928 C951 0.950 . S
H929 C953 0.950 . S
H930 C954 0.950 . S
H931 C955 0.951 . S
H932 C957 0.951 . S
H933 C959 0.950 . S
H934 C960 0.950 . S
H935 C962 0.950 . S
H936 C965 0.950 . S
H937 C966 0.950 . S
H938 C968 0.950 . S
H939 C969 0.950 . S
C940 H922 0.951 . S
C940 C941 1.366 . S
C940 C942 1.388 . S
C941 C940 1.366 . S
C941 C945 1.385 . S
C942 H923 0.951 . S
C942 C940 1.388 . S
C942 C943 1.366 . S
C943 C942 1.366 . S
C943 C944 1.414 . S
C943 C946 1.499 . S
C944 H924 0.950 . S
C944 C943 1.414 . S
C944 C945 1.374 . S
C945 H925 0.950 . S
C945 C941 1.385 . S
C945 C944 1.374 . S
C946 C943 1.499 . S
C946 C947 1.373 . S
C946 C948 1.389 . S
C947 H926 0.950 . S
C947 C946 1.373 . S
C947 C963 1.377 . S
C948 C946 1.389 . S
C948 C949 1.524 . S
C948 C962 1.377 . S
C949 C948 1.524 . S
C949 C950 1.397 . S
C949 C954 1.363 . S
C950 H927 0.950 . S
C950 C949 1.397 . S
C950 C951 1.334 . S
C951 H928 0.950 . S
C951 C950 1.334 . S
C951 C952 1.287 . S
C952 C951 1.287 . S
C952 C953 1.524 . S
C952 H971 0.913 . S
C953 H929 0.950 . S
C953 C952 1.524 . S
C953 C954 1.415 . S
C954 H930 0.950 . S
C954 C949 1.363 . S
C954 C953 1.415 . S
C955 H931 0.951 . S
C955 C956 1.366 . S
C955 C957 1.388 . S
C956 C955 1.366 . S
C956 C960 1.385 . S
C957 H932 0.951 . S
C957 C955 1.388 . S
C957 C958 1.366 . S
C958 C957 1.366 . S
C958 C959 1.414 . S
C958 C961 1.499 . S
C959 H933 0.950 . S
C959 C958 1.414 . S
C959 C960 1.374 . S
C960 H934 0.950 . S
C960 C956 1.385 . S
C960 C959 1.374 . S
C961 C958 1.499 . S
C961 C962 1.373 . S
C961 C963 1.389 . S
C962 H935 0.950 . S
C962 C948 1.377 . S
C962 C961 1.373 . S
C963 C947 1.377 . S
C963 C961 1.389 . S
C963 C964 1.524 . S
C964 C963 1.524 . S
C964 C965 1.397 . S
C964 C969 1.363 . S
C965 H936 0.950 . S
C965 C964 1.397 . S
C965 C966 1.334 . S
C966 H937 0.950 . S
C966 C965 1.334 . S
C966 C967 1.287 . S
C967 C966 1.287 . S
C967 C968 1.524 . S
C967 H970 0.999 . S
C968 H938 0.950 . S
C968 C967 1.524 . S
C968 C969 1.415 . S
C969 H939 0.950 . S
C969 C964 1.363 . S
C969 C968 1.415 . S
H970 C967 0.999 . S
H971 C952 0.913 . S
C191 C39 1.675 . S
C206 C56 1.680 . S
C241 N94 1.583 . S
C256 N46 1.577 1_655 S
C291 C125 1.362 . S
C306 N137 1.584 . S
C341 N8 1.761 . S
C356 C168 1.525 . S
C391 N132 1.583 . S
C406 C13 1.362 . S
C441 C82 1.680 . S
C456 C99 1.677 . S
C491 N89 1.761 . S
C506 C142 1.525 . S
C541 N3 1.583 . S
C556 N51 1.577 . S
C591 C27 1.275 . S
C606 C40 1.278 . S
C641 C83 1.290 . S
C656 C70 1.287 1_655 S
C691 C126 1.410 . S
C706 C113 1.399 . S
C741 C156 1.327 . S
C756 C169 1.334 . S
C791 C75 1.287 . S
C806 C76 1.290 . S
C841 C118 1.276 . S
C856 C119 1.279 . S
C891 C161 1.327 . S
C906 C162 1.334 . S
C941 C32 1.400 . S
C956 C33 1.411 . S
