# Generated by pormake.
# Topology snk, (6)-cn, num edge types: 1
# Building blocks:
#     Node 0, Type 0, BuildingBlock: BETDIP_clean_sbu_0, # of connection points: 6
#     Node 1, Type 0, BuildingBlock: BETDIP_clean_sbu_0, # of connection points: 6
#     Node 2, Type 0, BuildingBlock: BETDIP_clean_sbu_0, # of connection points: 6
#     Node 3, Type 0, BuildingBlock: BETDIP_clean_sbu_0, # of connection points: 6
#     Node 4, Type 0, BuildingBlock: BETDIP_clean_sbu_0, # of connection points: 6
#     Node 5, Type 0, BuildingBlock: BETDIP_clean_sbu_0, # of connection points: 6
#     Node 6, Type 0, BuildingBlock: BETDIP_clean_sbu_0, # of connection points: 6
#     Node 7, Type 0, BuildingBlock: BETDIP_clean_sbu_0, # of connection points: 6
#     Edge 8, Type (0, 0), BuildingBlock: MIFKUJ_clean_linker_0, # of connection points: 2
#     Edge 9, Type (0, 0), BuildingBlock: MIFKUJ_clean_linker_0, # of connection points: 2
#     Edge 10, Type (0, 0), BuildingBlock: MIFKUJ_clean_linker_0, # of connection points: 2
#     Edge 11, Type (0, 0), BuildingBlock: MIFKUJ_clean_linker_0, # of connection points: 2
#     Edge 12, Type (0, 0), BuildingBlock: MIFKUJ_clean_linker_0, # of connection points: 2
#     Edge 13, Type (0, 0), BuildingBlock: MIFKUJ_clean_linker_0, # of connection points: 2
#     Edge 14, Type (0, 0), BuildingBlock: MIFKUJ_clean_linker_0, # of connection points: 2
#     Edge 15, Type (0, 0), BuildingBlock: MIFKUJ_clean_linker_0, # of connection points: 2
#     Edge 16, Type (0, 0), BuildingBlock: MIFKUJ_clean_linker_0, # of connection points: 2
#     Edge 17, Type (0, 0), BuildingBlock: MIFKUJ_clean_linker_0, # of connection points: 2
#     Edge 18, Type (0, 0), BuildingBlock: MIFKUJ_clean_linker_0, # of connection points: 2
#     Edge 19, Type (0, 0), BuildingBlock: MIFKUJ_clean_linker_0, # of connection points: 2
#     Edge 20, Type (0, 0), BuildingBlock: MIFKUJ_clean_linker_0, # of connection points: 2
#     Edge 21, Type (0, 0), BuildingBlock: MIFKUJ_clean_linker_0, # of connection points: 2
#     Edge 22, Type (0, 0), BuildingBlock: MIFKUJ_clean_linker_0, # of connection points: 2
#     Edge 23, Type (0, 0), BuildingBlock: MIFKUJ_clean_linker_0, # of connection points: 2
#     Edge 24, Type (0, 0), BuildingBlock: MIFKUJ_clean_linker_0, # of connection points: 2
#     Edge 25, Type (0, 0), BuildingBlock: MIFKUJ_clean_linker_0, # of connection points: 2
#     Edge 26, Type (0, 0), BuildingBlock: MIFKUJ_clean_linker_0, # of connection points: 2
#     Edge 27, Type (0, 0), BuildingBlock: MIFKUJ_clean_linker_0, # of connection points: 2
#     Edge 28, Type (0, 0), BuildingBlock: MIFKUJ_clean_linker_0, # of connection points: 2
#     Edge 29, Type (0, 0), BuildingBlock: MIFKUJ_clean_linker_0, # of connection points: 2
#     Edge 30, Type (0, 0), BuildingBlock: MIFKUJ_clean_linker_0, # of connection points: 2
#     Edge 31, Type (0, 0), BuildingBlock: MIFKUJ_clean_linker_0, # of connection points: 2
# Relax obj value: 0.083
# Max RMSD: 0.139
# Mean RMSD: 0.123
data_MOF--net-snk--node1-BETDIP_clean_sbu_0--edge1-MIFKUJ_clean_linker_0
_symmetry_space_group_name_H-M    P1
_symmetry_Int_Tables_number       1
_symmetry_cell_setting            triclinic
loop_
_symmetry_equiv_pos_as_xyz
'x, y, z'
_cell_length_a     49.964278
_cell_length_b     49.758101
_cell_length_c     30.012976
_cell_angle_alpha  96.991998
_cell_angle_beta   97.294811
_cell_angle_gamma 90.948436
loop_
_atom_site_label
_atom_site_type_symbol
_atom_site_fract_x
_atom_site_fract_y
_atom_site_fract_z
_atom_type_partial_charge
Tb0 Tb 0.99404 0.99299 0.46789 0.0
Tb1 Tb 0.01441 0.01898 0.56257 0.0
C2 C 0.97645 0.98484 0.3846 0.0
C3 C 0.98373 0.99211 0.34096 0.0
C4 C 0.96575 1.00682 0.3141 0.0
C5 C 0.97083 0.01145 0.27075 0.0
C6 C 0.99391 1.00124 0.25305 0.0
C7 C 0.01235 0.98727 0.28053 0.0
C8 C 0.00737 0.98281 0.32398 0.0
C9 C 0.03182 0.96657 0.51227 0.0
C10 C 0.04065 0.04018 0.4838 0.0
C11 C 0.03316 0.02681 0.64546 0.0
C12 C 0.02613 0.02199 0.69056 0.0
C13 C 0.04312 1.00638 0.7174 0.0
C14 C 0.03854 1.00348 0.76168 0.0
C15 C 0.01691 0.01629 0.78046 0.0
C16 C 0.99951 0.0314 0.75314 0.0
C17 C 1.00404 0.03422 0.70872 0.0
C18 C 0.97704 0.04543 0.51765 0.0
C19 C 0.96645 0.97259 0.54623 0.0
O20 O 0.9682 1.00426 0.4126 0.0
O21 O 0.99226 0.96843 0.40567 0.0
O22 O 0.03081 0.99197 0.51332 0.0
O23 O 0.01234 0.95514 0.4832 0.0
O24 O 0.02084 0.02648 0.45619 0.0
O25 O 0.04473 0.03727 0.52752 0.0
O26 O 0.03815 1.00551 0.61802 0.0
O27 O 0.0195 0.04468 0.62412 0.0
O28 O 0.97795 0.02009 0.51714 0.0
O29 O 0.99648 0.057 0.54673 0.0
O30 O 0.98486 0.98783 0.57468 0.0
O31 O 0.96431 0.97322 0.50183 0.0
H32 H 0.94735 0.01417 0.3262 0.0
H33 H 0.95613 0.02216 0.25044 0.0
H34 H 0.0305 0.97947 0.26817 0.0
H35 H 0.02176 0.97149 0.34375 0.0
H36 H 0.06042 0.99691 0.70447 0.0
H37 H 0.05256 0.99194 0.78173 0.0
H38 H 0.98242 0.04122 0.76618 0.0
H39 H 0.9905 0.04636 0.68897 0.0
Tb40 Tb 0.26374 0.74762 0.72817 0.0
Tb41 Tb 0.24972 0.77302 0.82017 0.0
C42 C 0.26343 0.72582 0.64774 0.0
C43 C 0.26322 0.73318 0.60145 0.0
C44 C 0.24643 0.75307 0.58476 0.0
C45 C 0.24594 0.75836 0.53977 0.0
C46 C 0.26255 0.74419 0.51099 0.0
C47 C 0.27978 0.72483 0.52836 0.0
C48 C 0.28002 0.71935 0.57299 0.0
C49 C 0.29823 0.7848 0.77326 0.0
C50 C 0.2263 0.79938 0.73481 0.0
C51 C 0.25117 0.79478 0.9008 0.0
C52 C 0.25229 0.78703 0.94699 0.0
C53 C 0.26911 0.7667 0.96213 0.0
C54 C 0.27015 0.76069 1.00683 0.0
C55 C 0.25416 0.77468 0.0369 0.0
C56 C 0.23711 0.79467 0.02122 0.0
C57 C 0.23628 0.80081 0.97687 0.0
C58 C 0.21455 0.73697 0.77462 0.0
C59 C 0.28657 0.72063 0.81305 0.0
O60 O 0.24156 0.72963 0.66731 0.0
O61 O 0.28543 0.73253 0.67566 0.0
O62 O 0.2731 0.78473 0.77132 0.0
O63 O 0.30503 0.76485 0.74569 0.0
O64 O 0.23364 0.77757 0.70966 0.0
O65 O 0.2348 0.80424 0.77886 0.0
O66 O 0.27267 0.79107 0.88016 0.0
O67 O 0.22879 0.78819 0.8737 0.0
O68 O 0.23976 0.7361 0.77669 0.0
O69 O 0.20822 0.75718 0.80225 0.0
O70 O 0.27833 0.7417 0.8388 0.0
O71 O 0.27938 0.71658 0.76868 0.0
H72 H 0.23339 0.76417 0.60615 0.0
H73 H 0.23262 0.77357 0.52752 0.0
H74 H 0.29261 0.71335 0.50705 0.0
H75 H 0.29312 0.70393 0.58514 0.0
H76 H 0.28165 0.75572 0.93971 0.0
H77 H 0.28342 0.74512 0.01785 0.0
H78 H 0.22482 0.80606 0.04361 0.0
H79 H 0.22324 0.8166 0.96597 0.0
Tb80 Tb 0.52186 0.00921 0.07683 0.0
Tb81 Tb 0.49974 0.01503 0.97741 0.0
C82 C 0.54853 0.00914 0.15386 0.0
C83 C 0.54284 0.0114 0.20134 0.0
C84 C 0.56212 0.02385 0.23606 0.0
C85 C 0.55771 0.02512 0.28145 0.0
C86 C 0.53389 0.01386 0.29317 0.0
C87 C 0.5144 1.00177 0.25805 0.0
C88 C 0.51879 1.00063 0.21266 0.0
C89 C 0.47738 0.98128 0.04418 0.0
C90 C 0.47315 0.04668 0.05985 0.0
C91 C 0.47446 0.01636 0.89969 0.0
C92 C 0.4807 0.01415 0.85252 0.0
C93 C 0.46167 1.00182 0.81732 0.0
C94 C 0.46653 1.00058 0.77218 0.0
C95 C 0.49052 0.01188 0.76114 0.0
C96 C 0.5098 0.02381 0.79675 0.0
C97 C 0.50498 0.02485 0.84193 0.0
C98 C 0.54441 0.04267 1.01154 0.0
C99 C 0.54733 0.97637 0.99398 0.0
O100 O 0.54525 0.03092 0.13348 0.0
O101 O 0.5392 0.98713 0.12757 0.0
O102 O 0.49662 0.98604 0.02291 0.0
O103 O 0.48425 0.98893 0.08698 0.0
O104 O 0.49433 0.0418 0.08869 0.0
O105 O 0.46979 0.03555 0.01681 0.0
O106 O 0.47669 0.99429 0.91952 0.0
O107 O 0.48411 0.038 0.92672 0.0
O108 O 0.5245 0.0383 0.03138 0.0
O109 O 0.53918 0.03274 0.96934 0.0
O110 O 0.52608 0.9815 0.96557 0.0
O111 O 0.55112 0.98771 0.03694 0.0
H112 H 0.58076 0.03242 0.22809 0.0
H113 H 0.57298 0.03503 0.30733 0.0
H114 H 0.49597 0.9926 0.2656 0.0
H115 H 0.50353 0.99097 0.18648 0.0
H116 H 0.44287 0.99332 0.82474 0.0
H117 H 0.45144 0.99074 0.74594 0.0
H118 H 0.52837 0.03297 0.78974 0.0
H119 H 0.52007 0.0344 0.8685 0.0
Tb120 Tb 0.26118 0.26705 0.30404 0.0
Tb121 Tb 0.23617 0.24756 0.20914 0.0
C122 C 0.26785 0.28538 0.38697 0.0
C123 C 0.26248 0.27764 0.43123 0.0
C124 C 0.24972 0.29601 0.46028 0.0
C125 C 0.24629 0.29041 0.50382 0.0
C126 C 0.25572 0.26632 0.5195 0.0
C127 C 0.26788 0.24757 0.48989 0.0
C128 C 0.27117 0.25312 0.44616 0.0
C129 C 0.28913 0.23094 0.25975 0.0
C130 C 0.21604 0.21821 0.28623 0.0
C131 C 0.22809 0.22941 0.1261 0.0
C132 C 0.23464 0.23553 0.08148 0.0
C133 C 0.24756 0.21604 0.05455 0.0
C134 C 0.25141 0.21987 1.01032 0.0
C135 C 0.24224 0.24323 0.99181 0.0
C136 C 0.22998 0.2631 0.01928 0.0
C137 C 0.22625 0.25933 0.06364 0.0
C138 C 0.20868 0.28412 0.25382 0.0
C139 C 0.2817 0.296 0.2271 0.0
O140 O 0.24684 0.29035 0.3588 0.0
O141 O 0.28607 0.27204 0.36641 0.0
O142 O 0.26369 0.23091 0.25783 0.0
O143 O 0.29967 0.25039 0.28988 0.0
O144 O 0.23107 0.23639 0.31535 0.0
O145 O 0.21653 0.21701 0.24196 0.0
O146 O 0.24785 0.22191 0.15438 0.0
O147 O 0.21178 0.24551 0.14655 0.0
O148 O 0.23402 0.2838 0.25509 0.0
O149 O 0.19785 0.2645 0.22436 0.0
O150 O 0.26784 0.27684 0.19813 0.0
O151 O 0.27964 0.2982 0.27103 0.0
H152 H 0.24293 0.31508 0.44964 0.0
H153 H 0.23709 0.30544 0.52577 0.0
H154 H 0.27502 0.22865 0.50063 0.0
H155 H 0.28093 0.23845 0.42442 0.0
H156 H 0.25402 0.19742 0.06731 0.0
H157 H 0.26068 0.20402 0.99006 0.0
H158 H 0.22304 0.28151 1.00634 0.0
H159 H 0.21627 0.2748 0.0835 0.0
Tb160 Tb 0.76156 0.24269 0.203 0.0
Tb161 Tb 0.75023 0.26126 0.30063 0.0
C162 C 0.76628 0.21712 0.12694 0.0
C163 C 0.76382 0.22235 0.07921 0.0
C164 C 0.74326 0.23818 0.06056 0.0
C165 C 0.74145 0.24257 0.01501 0.0
C166 C 0.76032 0.23144 0.98742 0.0
C167 C 0.78089 0.21573 1.00642 0.0
C168 C 0.78256 0.21121 0.05175 0.0
C169 C 0.78521 0.28847 0.24091 0.0
C170 C 0.72004 0.2881 0.21616 0.0
C171 C 0.74378 0.2851 0.37718 0.0
C172 C 0.74599 0.27916 0.4245 0.0
C173 C 0.76649 0.26314 0.44274 0.0
C174 C 0.7681 0.25817 0.488 0.0
C175 C 0.74907 0.26887 0.51562 0.0
C176 C 0.72853 0.28473 0.49698 0.0
C177 C 0.72707 0.28986 0.45198 0.0
C178 C 0.72705 0.21546 0.26107 0.0
C179 C 0.79325 0.21755 0.28801 0.0
O180 O 0.74403 0.21695 0.14587 0.0
O181 O 0.78654 0.22959 0.154 0.0
O182 O 0.78103 0.26814 0.26041 0.0
O183 O 0.77965 0.2822 0.19748 0.0
O184 O 0.72871 0.2692 0.18686 0.0
O185 O 0.72778 0.28993 0.26052 0.0
O186 O 0.76629 0.28658 0.35925 0.0
O187 O 0.72425 0.27214 0.34908 0.0
O188 O 0.73064 0.23646 0.24313 0.0
O189 O 0.7351 0.21997 0.30417 0.0
O190 O 0.78504 0.23719 0.31646 0.0
O191 O 0.78422 0.21443 0.24397 0.0
H192 H 0.72864 0.24719 0.08114 0.0
H193 H 0.72553 0.25498 1.00154 0.0
H194 H 0.79553 0.20658 0.98604 0.0
H195 H 0.79854 0.1989 0.06542 0.0
H196 H 0.78125 0.25451 0.4221 0.0
H197 H 0.78403 0.24568 0.50119 0.0
H198 H 0.71377 0.29356 0.51742 0.0
H199 H 0.71112 0.30229 0.43859 0.0
Tb200 Tb 0.77346 0.76763 0.82683 0.0
Tb201 Tb 0.74533 0.74897 0.73307 0.0
C202 C 0.78405 0.78529 0.90989 0.0
C203 C 0.77834 0.7796 0.95538 0.0
C204 C 0.76222 0.79716 0.98003 0.0
C205 C 0.75909 0.79404 0.02489 0.0
C206 C 0.77221 0.77339 0.04648 0.0
C207 C 0.78786 0.75543 0.02144 0.0
C208 C 0.79091 0.7585 0.97651 0.0
C209 C 0.79947 0.73205 0.77769 0.0
C210 C 0.7273 0.7194 0.81091 0.0
C211 C 0.73422 0.73415 0.6492 0.0
C212 C 0.742 0.74161 0.6059 0.0
C213 C 0.75942 0.72532 0.58177 0.0
C214 C 0.76444 0.73051 0.53862 0.0
C215 C 0.752 0.752 0.5184 0.0
C216 C 0.73537 0.76885 0.54326 0.0
C217 C 0.73038 0.76371 0.58635 0.0
C218 C 0.71979 0.78481 0.78278 0.0
C219 C 0.79266 0.79529 0.74802 0.0
O220 O 0.76419 0.79384 0.88288 0.0
O221 O 0.79909 0.76841 0.88802 0.0
O222 O 0.7743 0.73208 0.77887 0.0
O223 O 0.81112 0.75132 0.80706 0.0
O224 O 0.74222 0.73815 0.83931 0.0
O225 O 0.72765 0.71767 0.7665 0.0
O226 O 0.75232 0.72265 0.67554 0.0
O227 O 0.72037 0.75164 0.6723 0.0
O228 O 0.74484 0.78472 0.78072 0.0
O229 O 0.70795 0.76521 0.75439 0.0
O230 O 0.77849 0.77577 0.72051 0.0
O231 O 0.79092 0.79866 0.79208 0.0
H232 H 0.75258 0.81384 0.96499 0.0
H233 H 0.74714 0.80844 0.04316 0.0
H234 H 0.79794 0.73906 0.03667 0.0
H235 H 0.80362 0.74466 0.95876 0.0
H236 H 0.76858 0.70806 0.59568 0.0
H237 H 0.77724 0.71702 0.52041 0.0
H238 H 0.72583 0.78586 0.52911 0.0
H239 H 0.71685 0.77673 0.60379 0.0
Tb240 Tb 0.493 0.49805 0.9751 0.0
Tb241 Tb 0.51681 0.51987 0.07054 0.0
C242 C 0.47151 0.49254 0.89346 0.0
C243 C 0.47732 0.49556 0.84709 0.0
C244 C 0.4932 0.51721 0.83763 0.0
C245 C 0.49734 0.51976 0.79285 0.0
C246 C 0.48565 0.50072 0.75661 0.0
C247 C 0.47003 0.47895 0.76659 0.0
C248 C 0.46592 0.47646 0.81118 0.0
C249 C 0.52876 0.46735 0.01473 0.0
C250 C 0.54444 0.54012 0.99172 0.0
C251 C 0.5382 0.5254 0.15224 0.0
C252 C 0.53241 0.52228 0.1986 0.0
C253 C 0.51683 0.50041 0.20806 0.0
C254 C 0.51274 0.49779 0.25284 0.0
C255 C 0.5242 0.51696 0.28907 0.0
C256 C 0.53954 0.53892 0.27909 0.0
C257 C 0.5436 0.54149 0.2345 0.0
C258 C 0.48055 0.55021 0.03085 0.0
C259 C 0.46548 0.47767 0.05388 0.0
O260 O 0.47026 0.51458 0.92176 0.0
O261 O 0.48369 0.47318 0.91303 0.0
O262 O 0.52991 0.49284 0.01786 0.0
O263 O 0.50823 0.45813 0.98584 0.0
O264 O 0.52371 0.52825 0.96356 0.0
O265 O 0.54786 0.53652 0.03518 0.0
O266 O 0.53953 0.50339 0.12393 0.0
O267 O 0.52597 0.54474 0.13268 0.0
O268 O 0.47984 0.52476 0.02803 0.0
O269 O 0.5011 0.55972 0.05945 0.0
O270 O 0.48618 0.48956 0.08209 0.0
O271 O 0.462 0.48137 1.01047 0.0
H272 H 0.50203 0.53236 0.86468 0.0
H273 H 0.50923 0.53697 0.78658 0.0
H274 H 0.46111 0.46359 0.73994 0.0
H275 H 0.45362 0.45957 0.81762 0.0
H276 H 0.50816 0.48517 0.18102 0.0
H277 H 0.50106 0.48044 0.25914 0.0
H278 H 0.54829 0.55437 0.30575 0.0
H279 H 0.55568 0.55855 0.22806 0.0
Tb280 Tb 0.01552 0.51582 0.53423 0.0
Tb281 Tb 0.98791 0.52416 0.44003 0.0
C282 C 0.03875 0.52102 0.61471 0.0
C283 C 0.0314 0.52201 0.66128 0.0
C284 C 0.04447 0.54103 0.69594 0.0
C285 C 0.03942 0.541 0.74085 0.0
C286 C 0.02151 0.52157 0.75224 0.0
C287 C 0.00809 0.5028 0.71736 0.0
C288 C 0.01284 0.50312 0.67236 0.0
C289 C 0.97587 0.48105 0.49927 0.0
C290 C 0.96538 0.55494 0.52344 0.0
C291 C 0.96437 0.51951 0.35983 0.0
C292 C 0.97106 0.51814 0.31293 0.0
C293 C 0.99244 0.50295 0.29804 0.0
C294 C 0.99764 0.50184 0.25292 0.0
C295 C 0.98169 0.51601 0.22181 0.0
C296 C 0.96063 0.53149 0.2374 0.0
C297 C 0.95536 0.53244 0.28223 0.0
C298 C 0.02718 0.55912 0.47541 0.0
C299 C 0.03844 0.4853 0.45094 0.0
O300 O 0.03233 0.5416 0.59255 0.0
O301 O 0.03454 0.49784 0.5888 0.0
O302 O 0.97709 0.50573 0.49548 0.0
O303 O 0.99607 0.47531 0.52745 0.0
O304 O 0.98808 0.54928 0.54816 0.0
O305 O 0.95854 0.54268 0.48161 0.0
O306 O 0.97021 0.49884 0.38214 0.0
O307 O 0.96977 0.54271 0.3852 0.0
O308 O 0.02624 0.53436 0.47875 0.0
O309 O 0.00672 0.56493 0.44781 0.0
O310 O 0.01591 0.49115 0.42584 0.0
O311 O 0.04493 0.49724 0.49304 0.0
H312 H 0.05906 0.55563 0.6884 0.0
H313 H 0.05022 0.55561 0.76692 0.0
H314 H 0.99396 0.48778 0.72491 0.0
H315 H 1.00235 0.48822 0.64641 0.0
H316 H 1.00491 0.49173 0.32106 0.0
H317 H 0.01385 0.48946 0.24226 0.0
H318 H 0.94824 0.54319 0.21507 0.0
H319 H 0.93887 0.54441 0.29297 0.0
H320 H 0.02869 0.06455 0.40703 0.0
H321 H 0.05701 0.09519 0.37418 0.0
H322 H 0.12158 0.08903 0.48205 0.0
H323 H 0.09255 0.05938 0.51653 0.0
H324 H 0.1209 0.13888 0.46425 0.0
H325 H 0.1178 0.05285 0.36376 0.0
H326 H 0.09251 0.01483 0.31492 0.0
H327 H 0.05245 0.07061 0.23248 0.0
H328 H 0.07768 0.10892 0.28055 0.0
H329 H 0.22539 0.19698 0.36655 0.0
H330 H 0.19639 0.16622 0.39799 0.0
H331 H 0.13667 0.16586 0.2806 0.0
H332 H 0.16684 0.19499 0.2475 0.0
H333 H 0.13352 0.11975 0.30231 0.0
H334 H 0.13267 0.20461 0.39476 0.0
H335 H 0.15304 0.24591 0.44138 0.0
H336 H 0.19368 0.19761 0.53647 0.0
H337 H 0.17342 0.15593 0.49059 0.0
C338 C 0.04895 0.06962 0.42384 0.0
C339 C 0.05836 0.05913 0.46433 0.0
C340 C 0.06533 0.08711 0.4047 0.0
C341 C 0.09203 0.09404 0.42453 0.0
C342 C 0.10126 0.08401 0.46555 0.0
C343 C 0.08462 0.06693 0.48531 0.0
C344 C 0.11021 0.11171 0.40276 0.0
C345 C 0.12393 0.13437 0.429 0.0
C346 C 0.11354 0.10689 0.35613 0.0
C347 C 0.09958 0.08372 0.32581 0.0
C348 C 0.10371 0.05697 0.33506 0.0
C349 C 0.0894 0.03538 0.30749 0.0
C350 C 0.07095 0.0403 0.27054 0.0
C351 C 0.06688 0.06682 0.26092 0.0
C352 C 0.08127 0.08845 0.28817 0.0
C353 C 0.20613 0.19022 0.34727 0.0
C354 C 0.19847 0.19861 0.3045 0.0
C355 C 0.18927 0.17277 0.3656 0.0
C356 C 0.16357 0.16408 0.34276 0.0
C357 C 0.15616 0.1721 0.29948 0.0
C358 C 0.17346 0.18889 0.28046 0.0
C359 C 0.14459 0.14682 0.36395 0.0
C360 C 0.13064 0.12427 0.33761 0.0
C361 C 0.1404 0.1522 0.41018 0.0
C362 C 0.15168 0.17716 0.43906 0.0
C363 C 0.1459 0.2028 0.42569 0.0
C364 C 0.15739 0.22626 0.45202 0.0
C365 C 0.17461 0.22435 0.49191 0.0
C366 C 0.1802 0.199 0.50574 0.0
C367 C 0.16865 0.17546 0.47967 0.0
H368 H 0.18362 0.24252 0.51209 0.0
H369 H 0.0598 0.02359 0.24936 0.0
H370 H 0.07607 0.98682 0.57184 0.0
H371 H 0.10985 0.96099 0.61367 0.0
H372 H 0.07092 0.88638 0.54556 0.0
H373 H 0.03612 0.91208 0.50679 0.0
H374 H 0.08417 0.87871 0.6256 0.0
H375 H 0.13308 0.91638 0.51908 0.0
H376 H 0.15091 0.95244 0.48034 0.0
H377 H 0.19422 0.98927 0.60631 0.0
H378 H 0.17636 0.95359 0.64591 0.0
H379 H 0.19381 0.79011 0.65393 0.0
H380 H 0.16243 0.82112 0.61913 0.0
H381 H 0.18703 0.88361 0.73003 0.0
H382 H 0.2182 0.85248 0.76575 0.0
H383 H 0.18233 0.89912 0.63395 0.0
H384 H 0.13299 0.85647 0.73721 0.0
H385 H 0.11693 0.81658 0.7688 0.0
H386 H 0.07563 0.78498 0.63818 0.0
H387 H 0.09181 0.82452 0.60565 0.0
C388 C 0.07454 0.96492 0.56643 0.0
C389 C 0.0532 0.9515 0.53656 0.0
C390 C 0.09412 0.9501 0.58984 0.0
C391 C 0.09331 0.92156 0.58258 0.0
C392 C 0.07209 0.90829 0.55221 0.0
C393 C 0.05223 0.92304 0.52975 0.0
C394 C 0.1142 0.9053 0.60661 0.0
C395 C 0.10559 0.88317 0.62688 0.0
C396 C 0.14233 0.91106 0.60923 0.0
C397 C 0.15314 0.9325 0.58553 0.0
C398 C 0.14625 0.93229 0.53856 0.0
C399 C 0.15638 0.95263 0.51645 0.0
C400 C 0.17362 0.97318 0.54087 0.0
C401 C 0.18082 0.97337 0.58745 0.0
C402 C 0.17072 0.95309 0.60975 0.0
C403 C 0.19275 0.81051 0.67082 0.0
C404 C 0.20849 0.81881 0.71269 0.0
C405 C 0.17477 0.82819 0.65088 0.0
C406 C 0.17241 0.85463 0.67203 0.0
C407 C 0.18863 0.86329 0.71315 0.0
C408 C 0.20631 0.84545 0.73357 0.0
C409 C 0.15209 0.87268 0.65197 0.0
C410 C 0.16084 0.89501 0.63265 0.0
C411 C 0.12412 0.86675 0.64916 0.0
C412 C 0.1138 0.84334 0.66893 0.0
C413 C 0.12063 0.84093 0.71516 0.0
C414 C 0.11149 0.81839 0.73325 0.0
C415 C 0.09533 0.79822 0.70549 0.0
C416 C 0.08817 0.80061 0.65963 0.0
C417 C 0.09729 0.82309 0.64137 0.0
H418 H 0.08831 0.78076 0.71953 0.0
H419 H 0.18144 0.98892 0.52369 0.0
H420 H 0.3528 0.78202 0.79066 0.0
H421 H 0.38363 0.8134 0.84342 0.0
H422 H 0.31621 0.86152 0.87699 0.0
H423 H 0.28545 0.83029 0.8245 0.0
H424 H 0.39413 0.86628 0.84249 0.0
H425 H 0.32768 0.88761 0.98835 0.0
H426 H 0.29603 0.86368 0.02784 0.0
H427 H 0.32933 0.7876 0.98328 0.0
H428 H 0.36145 0.81106 0.94402 0.0
H429 H 0.44059 0.98691 0.97247 0.0
H430 H 0.40847 0.95197 0.93156 0.0
H431 H 0.43251 0.89873 0.0319 0.0
H432 H 0.46415 0.93411 0.0734 0.0
H433 H 0.38023 0.89204 1.00279 0.0
H434 H 0.46179 0.89575 0.93567 0.0
H435 H 0.49772 0.919 0.90418 0.0
H436 H 0.4399 0.93951 0.79609 0.0
H437 H 0.40349 0.91696 0.82757 0.0
C438 C 0.34466 0.79933 0.80935 0.0
C439 C 0.31686 0.80378 0.8039 0.0
C440 C 0.36221 0.81714 0.83943 0.0
C441 C 0.35209 0.8395 0.86446 0.0
C442 C 0.32432 0.84407 0.85861 0.0
C443 C 0.30682 0.82633 0.82853 0.0
C444 C 0.37058 0.85879 0.8954 0.0
C445 C 0.39119 0.87182 0.87759 0.0
C446 C 0.36694 0.86563 0.94134 0.0
C447 C 0.34689 0.85113 0.96303 0.0
C448 C 0.32824 0.86577 0.98693 0.0
C449 C 0.31025 0.85229 1.00932 0.0
C450 C 0.31078 0.82418 1.00822 0.0
C451 C 0.329 0.8094 0.98415 0.0
C452 C 0.34705 0.82277 0.96168 0.0
C453 C 0.43867 0.96783 0.98584 0.0
C454 C 0.45492 0.9627 0.02519 0.0
C455 C 0.42039 0.94797 0.96267 0.0
C456 C 0.41877 0.92256 0.9781 0.0
C457 C 0.43367 0.91817 0.01934 0.0
C458 C 0.45163 0.93828 0.04296 0.0
C459 C 0.40314 0.9 0.94949 0.0
C460 C 0.38318 0.88637 0.96772 0.0
C461 C 0.40779 0.89215 0.90425 0.0
C462 C 0.42985 0.9048 0.88418 0.0
C463 C 0.45671 0.9053 0.90528 0.0
C464 C 0.47716 0.91841 0.88748 0.0
C465 C 0.47108 0.93079 0.84823 0.0
C466 C 0.44456 0.92996 0.82656 0.0
C467 C 0.42401 0.91702 0.84436 0.0
H468 H 0.48691 0.94101 0.83458 0.0
H469 H 0.29716 0.81393 0.0263 0.0
H470 H 0.4203 0.05067 0.02306 0.0
H471 H 0.38593 0.07951 0.05348 0.0
H472 H 0.4449 0.11325 0.16478 0.0
H473 H 0.47883 0.08373 0.13563 0.0
H474 H 0.40179 0.10454 0.19707 0.0
H475 H 0.42044 0.14744 0.06887 0.0
H476 H 0.42473 0.15051 0.98867 0.0
H477 H 0.34081 0.12785 0.95169 0.0
H478 H 0.33611 0.1243 0.03165 0.0
H479 H 0.34366 0.22943 0.26625 0.0
H480 H 0.37113 0.19561 0.22906 0.0
H481 H 0.29903 0.15207 0.16182 0.0
H482 H 0.27121 0.18545 0.20065 0.0
H483 H 0.34402 0.16286 0.10492 0.0
H484 H 0.3266 0.12403 0.23826 0.0
H485 H 0.3244 0.12478 0.32001 0.0
H486 H 0.40942 0.14411 0.34836 0.0
H487 H 0.41203 0.1439 0.26678 0.0
C488 C 0.42594 0.06434 0.05391 0.0
C489 C 0.45235 0.06488 0.07686 0.0
C490 C 0.40627 0.08096 0.07123 0.0
C491 C 0.41273 0.09895 0.11132 0.0
C492 C 0.4392 0.09956 0.13396 0.0
C493 C 0.45868 0.08267 0.11713 0.0
C494 C 0.39204 0.11677 0.13055 0.0
C495 C 0.3894 0.1174 0.17678 0.0
C496 C 0.37521 0.13327 0.10425 0.0
C497 C 0.37801 0.13527 0.05616 0.0
C498 C 0.40296 0.14288 0.04358 0.0
C499 C 0.40546 0.14475 0.99818 0.0
C500 C 0.38308 0.13929 0.96509 0.0
C501 C 0.35814 0.13201 0.97735 0.0
C502 C 0.35555 0.13008 0.0227 0.0
C503 C 0.33356 0.21266 0.2436 0.0
C504 C 0.30522 0.21027 0.23607 0.0
C505 C 0.34933 0.19337 0.22231 0.0
C506 C 0.33715 0.17137 0.19259 0.0
C507 C 0.30882 0.16901 0.18442 0.0
C508 C 0.29297 0.18813 0.20647 0.0
C509 C 0.35435 0.15074 0.17115 0.0
C510 C 0.35631 0.14967 0.12475 0.0
C511 C 0.37094 0.13419 0.19736 0.0
C512 C 0.36945 0.13418 0.24643 0.0
C513 C 0.34478 0.12868 0.26195 0.0
C514 C 0.34347 0.12896 0.30826 0.0
C515 C 0.36674 0.13455 0.33937 0.0
C516 C 0.3914 0.13981 0.32422 0.0
C517 C 0.39281 0.13958 0.27795 0.0
H518 H 0.36569 0.13476 0.37521 0.0
H519 H 0.38505 0.14076 0.92996 0.0
H520 H 0.94708 0.98124 0.62797 0.0
H521 H 0.91721 0.95182 0.66039 0.0
H522 H 0.91478 0.89276 0.54191 0.0
H523 H 0.943 0.92334 0.50795 0.0
H524 H 0.86948 0.88951 0.56511 0.0
H525 H 0.95502 0.888 0.65475 0.0
H526 H 0.99677 0.90758 0.70085 0.0
H527 H 0.95026 0.94699 0.79904 0.0
H528 H 0.90815 0.92761 0.75359 0.0
H529 H 0.81567 0.78375 0.67021 0.0
H530 H 0.84573 0.81233 0.63679 0.0
H531 H 0.84148 0.87639 0.74595 0.0
H532 H 0.81241 0.84708 0.78101 0.0
H533 H 0.89063 0.87562 0.72649 0.0
H534 H 0.80381 0.87371 0.62803 0.0
H535 H 0.76536 0.84868 0.57999 0.0
H536 H 0.8197 0.80829 0.49612 0.0
H537 H 0.85843 0.83328 0.54336 0.0
C538 C 0.94007 0.96203 0.60869 0.0
C539 C 0.94759 0.95468 0.56534 0.0
C540 C 0.92313 0.94493 0.62756 0.0
C541 C 0.9141 0.9193 0.60464 0.0
C542 C 0.9213 0.91218 0.56086 0.0
C543 C 0.93757 0.92972 0.54134 0.0
C544 C 0.89723 0.90012 0.62616 0.0
C545 C 0.87445 0.88636 0.60028 0.0
C546 C 0.9032 0.89556 0.67222 0.0
C547 C 0.92843 0.90653 0.70056 0.0
C548 C 0.95369 0.90085 0.68619 0.0
C549 C 0.9774 0.91187 0.71223 0.0
C550 C 0.97614 0.92851 0.75286 0.0
C551 C 0.95116 0.93401 0.76768 0.0
C552 C 0.92737 0.92295 0.74185 0.0
C553 C 0.82103 0.80396 0.68717 0.0
C554 C 0.81125 0.81315 0.72819 0.0
C555 C 0.83819 0.82048 0.66771 0.0
C556 C 0.84548 0.84711 0.68773 0.0
C557 C 0.83616 0.85612 0.72928 0.0
C558 C 0.81942 0.83933 0.74937 0.0
C559 C 0.86278 0.86544 0.66562 0.0
C560 C 0.88569 0.87895 0.69139 0.0
C561 C 0.8574 0.86911 0.61912 0.0
C562 C 0.83398 0.85533 0.58926 0.0
C563 C 0.80751 0.85961 0.59917 0.0
C564 C 0.78569 0.84544 0.57207 0.0
C565 C 0.79009 0.82696 0.53496 0.0
C566 C 0.81631 0.82273 0.52471 0.0
C567 C 0.83819 0.837 0.55147 0.0
H568 H 0.77319 0.81593 0.51414 0.0
H569 H 0.9945 0.93712 0.77286 0.0
H570 H 0.92948 0.0259 0.46737 0.0
H571 H 0.89733 0.051 0.42036 0.0
H572 H 0.94835 0.12309 0.45734 0.0
H573 H 0.98042 0.09815 0.50387 0.0
H574 H 0.86842 0.09589 0.44396 0.0
H575 H 0.94609 0.15828 0.3662 0.0
H576 H 0.99186 0.153 0.34441 0.0
H577 H 0.97982 0.06657 0.32459 0.0
H578 H 0.93375 0.07126 0.34525 0.0
H579 H 0.81383 0.21589 0.37657 0.0
H580 H 0.84407 0.18296 0.40776 0.0
H581 H 0.84676 0.1416 0.27363 0.0
H582 H 0.81636 0.17464 0.24182 0.0
H583 H 0.89731 0.14666 0.32479 0.0
H584 H 0.80881 0.11469 0.33981 0.0
H585 H 0.76274 0.11858 0.36068 0.0
H586 H 0.79515 0.13963 0.50034 0.0
H587 H 0.84145 0.13628 0.4802 0.0
C588 C 0.93383 0.04706 0.46516 0.0
C589 C 0.95747 0.06007 0.48905 0.0
C590 C 0.91544 0.06139 0.4385 0.0
C591 C 0.92055 0.08887 0.43495 0.0
C592 C 0.94413 0.10184 0.45903 0.0
C593 C 0.96238 0.0876 0.4858 0.0
C594 C 0.90114 0.10436 0.40695 0.0
C595 C 0.8747 0.10685 0.41773 0.0
C596 C 0.90916 0.11824 0.37204 0.0
C597 C 0.93647 0.11517 0.35765 0.0
C598 C 0.95308 0.13815 0.35678 0.0
C599 C 0.9791 0.13524 0.34467 0.0
C600 C 0.98874 0.10944 0.3332 0.0
C601 C 0.97231 0.0865 0.33352 0.0
C602 C 0.94624 0.08929 0.34544 0.0
C603 C 0.82083 0.19988 0.35349 0.0
C604 C 0.81248 0.19791 0.30657 0.0
C605 C 0.83813 0.18099 0.37149 0.0
C606 C 0.84749 0.15961 0.34312 0.0
C607 C 0.83976 0.1579 0.29618 0.0
C608 C 0.8223 0.17677 0.27808 0.0
C609 C 0.86492 0.13893 0.36297 0.0
C610 C 0.89097 0.13546 0.35066 0.0
C611 C 0.85644 0.1238 0.39602 0.0
C612 C 0.82862 0.12539 0.40843 0.0
C613 C 0.80612 0.1203 0.37494 0.0
C614 C 0.77996 0.12239 0.38664 0.0
C615 C 0.77602 0.12938 0.4318 0.0
C616 C 0.79824 0.13421 0.46537 0.0
C617 C 0.82445 0.13219 0.45384 0.0
H618 H 0.75576 0.13101 0.4408 0.0
H619 H 0.00893 0.10723 0.32402 0.0
H620 H 0.69481 0.20737 0.18183 0.0
H621 H 0.67849 0.16442 0.13882 0.0
H622 H 0.72429 0.12142 0.23818 0.0
H623 H 0.73975 0.16498 0.28267 0.0
H624 H 0.69851 0.12276 0.09688 0.0
H625 H 0.69014 0.06264 0.24075 0.0
H626 H 0.69016 0.06814 0.32371 0.0
H627 H 0.65138 0.14424 0.31743 0.0
H628 H 0.65104 0.13904 0.23446 0.0
H629 H 0.59363 0.02762 0.98828 0.0
H630 H 0.63801 0.04132 0.03122 0.0
H631 H 0.59868 0.09119 0.13012 0.0
H632 H 0.5548 0.07673 0.08847 0.0
H633 H 0.63851 0.06755 0.17205 0.0
H634 H 0.62554 0.11596 0.03567 0.0
H635 H 0.6202 0.11686 0.95294 0.0
H636 H 0.69348 0.07369 0.94443 0.0
H637 H 0.69908 0.07239 0.02712 0.0
C638 C 0.70145 0.18873 0.19436 0.0
C639 C 0.71815 0.18926 0.23556 0.0
C640 C 0.69239 0.16418 0.16958 0.0
C641 C 0.70014 0.13961 0.18521 0.0
C642 C 0.7178 0.1401 0.22572 0.0
C643 C 0.72648 0.16487 0.25114 0.0
C644 C 0.68704 0.11422 0.16071 0.0
C645 C 0.68585 0.11017 0.11336 0.0
C646 C 0.67098 0.09736 0.18213 0.0
C647 C 0.67087 0.1006 0.23173 0.0
C648 C 0.68162 0.08051 0.25718 0.0
C649 C 0.68169 0.08358 0.30414 0.0
C650 C 0.67087 0.10657 0.32584 0.0
C651 C 0.65984 0.12649 0.30061 0.0
C652 C 0.6597 0.1235 0.25365 0.0
C653 C 0.59471 0.04154 0.01921 0.0
C654 C 0.57109 0.05143 0.03519 0.0
C655 C 0.61994 0.04917 0.04379 0.0
C656 C 0.62168 0.06727 0.08391 0.0
C657 C 0.59789 0.0769 0.09967 0.0
C658 C 0.57284 0.06892 0.07567 0.0
C659 C 0.64785 0.07847 0.10826 0.0
C660 C 0.65206 0.07915 0.15554 0.0
C661 C 0.66594 0.09306 0.08678 0.0
C662 C 0.66252 0.09375 0.03726 0.0
C663 C 0.6404 0.10654 0.01603 0.0
C664 C 0.63735 0.10714 0.96921 0.0
C665 C 0.65644 0.09525 0.94342 0.0
C666 C 0.67867 0.08281 0.96443 0.0
C667 C 0.68179 0.08212 1.01124 0.0
H668 H 0.65405 0.09574 0.90718 0.0
H669 H 0.67098 0.10893 0.36219 0.0
H670 H 0.66814 0.78082 0.80065 0.0
H671 H 0.64293 0.81455 0.8431 0.0
H672 H 0.71332 0.86822 0.86996 0.0
H673 H 0.73882 0.83423 0.82761 0.0
H674 H 0.6511 0.83991 0.93259 0.0
H675 H 0.68953 0.93213 0.86056 0.0
H676 H 0.70899 0.94329 0.79317 0.0
H677 H 0.66572 0.87516 0.71265 0.0
H678 H 0.64589 0.86376 0.77947 0.0
H679 H 0.59358 0.95872 0.04044 0.0
H680 H 0.62665 0.92788 1.01044 0.0
H681 H 0.58047 0.92136 0.87787 0.0
H682 H 0.54752 0.95198 0.90727 0.0
H683 H 0.63415 0.92763 0.87289 0.0
H684 H 0.57636 0.87199 0.94524 0.0
H685 H 0.55485 0.85926 1.00955 0.0
H686 H 0.63285 0.8517 0.08471 0.0
H687 H 0.65482 0.86474 0.02102 0.0
C688 C 0.67832 0.79973 0.81587 0.0
C689 C 0.70541 0.80495 0.81069 0.0
C690 C 0.66392 0.81894 0.84033 0.0
C691 C 0.67616 0.84397 0.85962 0.0
C692 C 0.70342 0.84909 0.85522 0.0
C693 C 0.71797 0.82967 0.83112 0.0
C694 C 0.65979 0.86499 0.88227 0.0
C695 C 0.64763 0.85922 0.91987 0.0
C696 C 0.655 0.89009 0.86551 0.0
C697 C 0.66647 0.89699 0.82504 0.0
C698 C 0.68413 0.91961 0.82842 0.0
C699 C 0.69524 0.92595 0.79035 0.0
C700 C 0.68866 0.9099 0.74869 0.0
C701 C 0.67089 0.88752 0.74497 0.0
C702 C 0.65975 0.88108 0.78293 0.0
C703 C 0.59046 0.95073 1.0049 0.0
C704 C 0.56774 0.95781 0.97642 0.0
C705 C 0.6094 0.93308 0.98779 0.0
C706 C 0.60604 0.92217 0.94187 0.0
C707 C 0.58361 0.92954 0.91334 0.0
C708 C 0.56466 0.94702 0.93037 0.0
C709 C 0.62535 0.90258 0.92331 0.0
C710 C 0.63803 0.90859 0.88632 0.0
C711 C 0.63042 0.8776 0.94046 0.0
C712 C 0.61722 0.86963 0.97859 0.0
C713 C 0.58891 0.86781 0.97562 0.0
C714 C 0.57664 0.86051 1.01193 0.0
C715 C 0.59247 0.85475 0.05125 0.0
C716 C 0.62061 0.85621 0.05428 0.0
C717 C 0.63298 0.86354 0.01808 0.0
H718 H 0.58294 0.8491 0.07933 0.0
H719 H 0.69728 0.91483 0.71927 0.0
H720 H 0.58923 0.56906 0.03817 0.0
H721 H 0.62086 0.59843 1.00883 0.0
H722 H 0.57649 0.58099 0.87522 0.0
H723 H 0.54516 0.55128 0.90415 0.0
H724 H 0.62863 0.58052 0.86864 0.0
H725 H 0.57208 0.64261 0.94684 0.0
H726 H 0.55076 0.66277 1.01224 0.0
H727 H 0.6289 0.68263 0.08782 0.0
H728 H 0.6507 0.66223 0.02307 0.0
H729 H 0.68642 0.68495 0.76514 0.0
H730 H 0.65648 0.65474 0.79603 0.0
H731 H 0.69801 0.67907 0.93023 0.0
H732 H 0.72729 0.71015 0.89963 0.0
H733 H 0.64815 0.67555 0.93798 0.0
H734 H 0.70529 0.61416 0.86246 0.0
H735 H 0.7279 0.59341 0.79895 0.0
H736 H 0.65088 0.57126 0.72106 0.0
H737 H 0.62779 0.59219 0.78391 0.0
C738 C 0.58617 0.57137 1.00249 0.0
C739 C 0.56437 0.55767 0.97373 0.0
C740 C 0.60428 0.58841 0.9857 0.0
C741 C 0.60108 0.59249 0.93968 0.0
C742 C 0.57959 0.57845 0.91082 0.0
C743 C 0.56152 0.56141 0.92756 0.0
C744 C 0.62002 0.61117 0.92145 0.0
C745 C 0.63259 0.6014 0.88355 0.0
C746 C 0.62609 0.63832 0.94135 0.0
C747 C 0.61301 0.65063 0.98026 0.0
C748 C 0.58471 0.65109 0.97752 0.0
C749 C 0.57254 0.66259 0.01446 0.0
C750 C 0.58846 0.6739 0.0542 0.0
C751 C 0.61659 0.67381 0.05705 0.0
C752 C 0.62886 0.66229 0.02023 0.0
C753 C 0.68934 0.68381 0.80122 0.0
C754 C 0.70955 0.70003 0.82967 0.0
C755 C 0.67219 0.66629 0.81899 0.0
C756 C 0.67502 0.66392 0.8657 0.0
C757 C 0.69517 0.68022 0.89414 0.0
C758 C 0.71209 0.69803 0.87647 0.0
C759 C 0.65678 0.64495 0.88496 0.0
C760 C 0.64431 0.65466 0.92306 0.0
C761 C 0.65102 0.61764 0.86555 0.0
C762 C 0.66482 0.60498 0.82774 0.0
C763 C 0.69318 0.60503 0.83167 0.0
C764 C 0.70608 0.59321 0.79581 0.0
C765 C 0.69084 0.58109 0.75595 0.0
C766 C 0.66266 0.58069 0.75193 0.0
C767 C 0.64965 0.59251 0.78767 0.0
H768 H 0.70086 0.57195 0.72823 0.0
H769 H 0.579 0.68281 0.08275 0.0
H770 H 0.68036 0.31414 0.25782 0.0
H771 H 0.64751 0.34511 0.22635 0.0
H772 H 0.68583 0.33991 0.10463 0.0
H773 H 0.71735 0.30759 0.13477 0.0
H774 H 0.64627 0.39162 0.20205 0.0
H775 H 0.64401 0.34677 1.01322 0.0
H776 H 0.65017 0.30281 0.96855 0.0
H777 H 0.62764 0.26102 0.07586 0.0
H778 H 0.62103 0.3047 0.12092 0.0
H779 H 0.57846 0.48197 0.06244 0.0
H780 H 0.6107 0.4524 0.09957 0.0
H781 H 0.55434 0.3845 0.05919 0.0
H782 H 0.52263 0.41376 0.02098 0.0
H783 H 0.60064 0.36834 0.04502 0.0
H784 H 0.56677 0.41576 0.17148 0.0
H785 H 0.55383 0.4556 0.22028 0.0
H786 H 0.63632 0.48498 0.24507 0.0
H787 H 0.64977 0.44525 0.1962 0.0
C788 C 0.68166 0.31959 0.22429 0.0
C789 C 0.70115 0.30812 0.19847 0.0
C790 C 0.66294 0.33741 0.20634 0.0
C791 C 0.66363 0.34455 0.16253 0.0
C792 C 0.68409 0.33412 0.13779 0.0
C793 C 0.70226 0.31572 0.15516 0.0
C794 C 0.64269 0.36228 0.14225 0.0
C795 C 0.63635 0.38647 0.1677 0.0
C796 C 0.62892 0.35542 0.09785 0.0
C797 C 0.63228 0.32903 0.07059 0.0
C798 C 0.64024 0.3282 0.02717 0.0
C799 C 0.64385 0.30333 1.00182 0.0
C800 C 0.63939 0.27914 0.01942 0.0
C801 C 0.63118 0.27977 0.06233 0.0
C802 C 0.62752 0.30457 0.0878 0.0
C803 C 0.57299 0.46075 0.06171 0.0
C804 C 0.54809 0.45013 0.0388 0.0
C805 C 0.59136 0.44386 0.08311 0.0
C806 C 0.58497 0.41614 0.0826 0.0
C807 C 0.55992 0.4057 0.05997 0.0
C808 C 0.54175 0.42247 0.03821 0.0
C809 C 0.60452 0.39779 0.10454 0.0
C810 C 0.6106 0.37349 0.07936 0.0
C811 C 0.61703 0.40394 0.14981 0.0
C812 C 0.60923 0.42767 0.17983 0.0
C813 C 0.58214 0.43079 0.18714 0.0
C814 C 0.57471 0.45335 0.21483 0.0
C815 C 0.5942 0.47292 0.23556 0.0
C816 C 0.62122 0.46984 0.2289 0.0
C817 C 0.62878 0.44726 0.20131 0.0
H818 H 0.58837 0.49042 0.25687 0.0
H819 H 0.64225 0.25992 0.99978 0.0
H820 H 0.97585 0.42612 0.49379 0.0
H821 H 0.94301 0.39389 0.44714 0.0
H822 H 0.89755 0.4604 0.40049 0.0
H823 H 0.9305 0.49257 0.44633 0.0
H824 H 0.89089 0.3847 0.44756 0.0
H825 H 0.87023 0.4429 0.29013 0.0
H826 H 0.89402 0.47221 0.24623 0.0
H827 H 0.97006 0.44199 0.29877 0.0
H828 H 0.94674 0.41217 0.34245 0.0
H829 H 0.77566 0.32475 0.31114 0.0
H830 H 0.80741 0.35966 0.35351 0.0
H831 H 0.86542 0.3378 0.26119 0.0
H832 H 0.83325 0.30354 0.21819 0.0
H833 H 0.8674 0.38972 0.28313 0.0
H834 H 0.86728 0.3124 0.36404 0.0
H835 H 0.84617 0.27724 0.4007 0.0
H836 H 0.8188 0.33858 0.49637 0.0
H837 H 0.83936 0.37416 0.45979 0.0
C838 C 0.95877 0.43376 0.47363 0.0
C839 C 0.95566 0.46168 0.47327 0.0
C840 C 0.94008 0.41541 0.44711 0.0
C841 C 0.9181 0.42481 0.42 0.0
C842 C 0.91467 0.45276 0.42055 0.0
C843 C 0.93339 0.47108 0.44684 0.0
C844 C 0.89864 0.40542 0.39121 0.0
C845 C 0.88576 0.38578 0.4116 0.0
C846 C 0.89231 0.40663 0.34421 0.0
C847 C 0.90671 0.42544 0.31984 0.0
C848 C 0.89204 0.44254 0.29239 0.0
C849 C 0.90543 0.4592 0.26748 0.0
C850 C 0.93349 0.45885 0.26958 0.0
C851 C 0.9483 0.44218 0.29714 0.0
C852 C 0.935 0.42544 0.32209 0.0
C853 C 0.79518 0.32763 0.30006 0.0
C854 C 0.80249 0.31146 0.26233 0.0
C855 C 0.81322 0.34748 0.32406 0.0
C856 C 0.83899 0.35079 0.3111 0.0
C857 C 0.84568 0.33546 0.27184 0.0
C858 C 0.82741 0.31597 0.24738 0.0
C859 C 0.85947 0.36926 0.33952 0.0
C860 C 0.87249 0.38874 0.31913 0.0
C861 C 0.86653 0.36736 0.3862 0.0
C862 C 0.8547 0.34596 0.40896 0.0
C863 C 0.85666 0.3184 0.39277 0.0
C864 C 0.84478 0.2984 0.41352 0.0
C865 C 0.83115 0.30568 0.45082 0.0
C866 C 0.82937 0.33298 0.46747 0.0
C867 C 0.84115 0.35307 0.44676 0.0
H868 H 0.82204 0.29018 0.46692 0.0
H869 H 0.94371 0.47139 0.24958 0.0
H870 H 0.85165 0.73698 0.76303 0.0
H871 H 0.87628 0.70704 0.71317 0.0
H872 H 0.8047 0.65584 0.67219 0.0
H873 H 0.78001 0.68566 0.72313 0.0
H874 H 0.84768 0.62572 0.68846 0.0
H875 H 0.8263 0.69685 0.60082 0.0
H876 H 0.82201 0.74388 0.58349 0.0
H877 H 0.90814 0.75588 0.60799 0.0
H878 H 0.913 0.70907 0.62638 0.0
H879 H 0.9104 0.55623 0.50316 0.0
H880 H 0.87946 0.58656 0.54065 0.0
H881 H 0.94704 0.62737 0.62753 0.0
H882 H 0.978 0.5966 0.59128 0.0
H883 H 0.90191 0.66164 0.57995 0.0
H884 H 0.91983 0.58992 0.67686 0.0
H885 H 0.92161 0.54191 0.68964 0.0
H886 H 0.83728 0.5305 0.63946 0.0
H887 H 0.83514 0.57839 0.62572 0.0
C888 C 0.84112 0.71936 0.74337 0.0
C889 C 0.81386 0.71375 0.74675 0.0
C890 C 0.85519 0.70234 0.71459 0.0
C891 C 0.84231 0.67933 0.6883 0.0
C892 C 0.81507 0.67352 0.69191 0.0
C893 C 0.80093 0.69064 0.7208 0.0
C894 C 0.85773 0.66111 0.65829 0.0
C895 C 0.85913 0.63357 0.66421 0.0
C896 C 0.87279 0.67121 0.62652 0.0
C897 C 0.87002 0.69943 0.61532 0.0
C898 C 0.84434 0.70955 0.6029 0.0
C899 C 0.84179 0.73618 0.59283 0.0
C900 C 0.86478 0.75284 0.59464 0.0
C901 C 0.89035 0.74293 0.60659 0.0
C902 C 0.89302 0.71634 0.61682 0.0
C903 C 0.91867 0.57175 0.53009 0.0
C904 C 0.94662 0.57395 0.54443 0.0
C905 C 0.90097 0.58905 0.55144 0.0
C906 C 0.91097 0.60924 0.58676 0.0
C907 C 0.93893 0.61198 0.60024 0.0
C908 C 0.95656 0.59429 0.57968 0.0
C909 C 0.89223 0.62666 0.61116 0.0
C910 C 0.89021 0.65395 0.60399 0.0
C911 C 0.87618 0.61628 0.64109 0.0
C912 C 0.87741 0.58761 0.64974 0.0
C913 C 0.90174 0.5771 0.66813 0.0
C914 C 0.9028 0.54993 0.67564 0.0
C915 C 0.87959 0.53314 0.66522 0.0
C916 C 0.85525 0.54352 0.64742 0.0
C917 C 0.8541 0.57067 0.63978 0.0
H918 H 0.88044 0.51211 0.67107 0.0
H919 H 0.86277 0.7734 0.58664 0.0
H920 H 0.32006 0.33249 0.27531 0.0
H921 H 0.35045 0.36318 0.24628 0.0
H922 H 0.31466 0.33516 0.10974 0.0
H923 H 0.28494 0.3037 0.13857 0.0
H924 H 0.36531 0.34023 0.10809 0.0
H925 H 0.30236 0.40019 0.17167 0.0
H926 H 0.27627 0.42102 0.23056 0.0
H927 H 0.34985 0.44801 0.31546 0.0
H928 H 0.3764 0.42703 0.2573 0.0
H929 H 0.4224 0.44674 1.00633 0.0
H930 H 0.39097 0.41692 0.03514 0.0
H931 H 0.43194 0.43812 0.17048 0.0
H932 H 0.46322 0.46819 0.14198 0.0
H933 H 0.37843 0.43691 0.17203 0.0
H934 H 0.44092 0.3766 0.10573 0.0
H935 H 0.46588 0.35639 0.04482 0.0
H936 H 0.39112 0.33085 0.9622 0.0
H937 H 0.36569 0.35128 0.02237 0.0
C938 C 0.31851 0.3329 0.23909 0.0
C939 C 0.29979 0.31556 0.20947 0.0
C940 C 0.33591 0.35069 0.22239 0.0
C941 C 0.33481 0.35213 0.17555 0.0
C942 C 0.31615 0.33471 0.14596 0.0
C943 C 0.29898 0.31669 0.1626 0.0
C944 C 0.35329 0.37134 0.15736 0.0
C945 C 0.36776 0.36145 0.12177 0.0
C946 C 0.35726 0.3991 0.17531 0.0
C947 C 0.34136 0.4118 0.2103 0.0
C948 C 0.31298 0.4104 0.20303 0.0
C949 C 0.2981 0.42226 0.23626 0.0
C950 C 0.31139 0.43577 0.27678 0.0
C951 C 0.33958 0.43751 0.28409 0.0
C952 C 0.35455 0.42566 0.25099 0.0
C953 C 0.42475 0.44518 0.04228 0.0
C954 C 0.44561 0.45999 0.07164 0.0
C955 C 0.40676 0.4279 0.05877 0.0
C956 C 0.40909 0.42478 0.10512 0.0
C957 C 0.42957 0.43994 0.13461 0.0
C958 C 0.4476 0.45717 0.11813 0.0
C959 C 0.39032 0.40576 0.12288 0.0
C960 C 0.37586 0.41569 0.15837 0.0
C961 C 0.38615 0.37811 0.10453 0.0
C962 C 0.4014 0.36572 0.06839 0.0
C963 C 0.4298 0.36686 0.07444 0.0
C964 C 0.44403 0.35534 0.04006 0.0
C965 C 0.43009 0.34241 0.99962 0.0
C966 C 0.40188 0.34091 0.99351 0.0
C967 C 0.38755 0.35245 0.02775 0.0
H968 H 0.44114 0.33349 0.97305 0.0
H969 H 0.29984 0.44493 0.30246 0.0
H970 H 0.43083 0.53396 0.98547 0.0
H971 H 0.39696 0.56214 0.94911 0.0
H972 H 0.45081 0.63218 0.98738 0.0
H973 H 0.48422 0.60421 0.02511 0.0
H974 H 0.40341 0.64711 0.99949 0.0
H975 H 0.43993 0.59934 0.87552 0.0
H976 H 0.45477 0.5597 0.82851 0.0
H977 H 0.37381 0.52599 0.80548 0.0
H978 H 0.35845 0.56557 0.85239 0.0
H979 H 0.32681 0.69289 0.77732 0.0
H980 H 0.35905 0.66367 0.81442 0.0
H981 H 0.31763 0.67345 0.93296 0.0
H982 H 0.28671 0.70447 0.89702 0.0
H983 H 0.35989 0.61912 0.84237 0.0
H984 H 0.35773 0.66753 0.02762 0.0
H985 H 0.34844 0.71176 0.06863 0.0
H986 H 0.37216 0.75223 0.9607 0.0
H987 H 0.38192 0.70828 0.91933 0.0
C988 C 0.43539 0.55537 0.98602 0.0
C989 C 0.46016 0.56691 1.00797 0.0
C990 C 0.41607 0.57148 0.96508 0.0
C991 C 0.42134 0.59935 0.96491 0.0
C992 C 0.44612 0.61082 0.98707 0.0
C993 C 0.46527 0.59479 1.00848 0.0
C994 C 0.40113 0.61653 0.94162 0.0
C995 C 0.39391 0.64096 0.96513 0.0
C996 C 0.38913 0.60904 0.89636 0.0
C997 C 0.3981 0.58527 0.86782 0.0
C998 C 0.42531 0.58339 0.86064 0.0
C999 C 0.43382 0.56094 0.83398 0.0
C1000 C 0.4153 0.54022 0.81425 0.0
C1001 C 0.38816 0.54203 0.82088 0.0
C1002 C 0.37951 0.56451 0.84738 0.0
C1003 C 0.32461 0.68875 0.81131 0.0
C1004 C 0.30442 0.70109 0.83445 0.0
C1005 C 0.34303 0.67195 0.83253 0.0
C1006 C 0.34131 0.66659 0.87705 0.0
C1007 C 0.32015 0.67787 0.89927 0.0
C1008 C 0.30229 0.69544 0.87859 0.0
C1009 C 0.362 0.64976 0.90024 0.0
C1010 C 0.36931 0.62532 0.87676 0.0
C1011 C 0.37506 0.65795 0.94478 0.0
C1012 C 0.37032 0.68458 0.97023 0.0
C1013 C 0.36115 0.68588 1.01281 0.0
C1014 C 0.35576 0.71089 0.03606 0.0
C1015 C 0.35963 0.73477 0.01722 0.0
C1016 C 0.3691 0.73371 0.97521 0.0
C1017 C 0.37457 0.70876 0.95185 0.0
H1018 H 0.35534 0.75409 0.03521 0.0
H1019 H 0.42195 0.52283 0.79369 0.0
H1020 H 0.2232 0.68834 0.72795 0.0
H1021 H 0.19052 0.65997 0.67395 0.0
H1022 H 0.13013 0.72009 0.6921 0.0
H1023 H 0.16248 0.74786 0.74762 0.0
H1024 H 0.10782 0.67397 0.69177 0.0
H1025 H 0.1592 0.70977 0.58882 0.0
H1026 H 0.19814 0.72294 0.55268 0.0
H1027 H 0.22343 0.6406 0.53985 0.0
H1028 H 0.18411 0.6268 0.57497 0.0
H1029 H 0.02236 0.61359 0.49163 0.0
H1030 H 0.05395 0.64589 0.54127 0.0
H1031 H 0.10686 0.58077 0.56997 0.0
H1032 H 0.07519 0.54837 0.52121 0.0
H1033 H 0.13088 0.63144 0.54377 0.0
H1034 H 0.07042 0.59863 0.64259 0.0
H1035 H 0.02476 0.59107 0.66273 0.0
H1036 H 0.01208 0.67657 0.67439 0.0
H1037 H 0.0573 0.68465 0.6529 0.0
C1038 C 0.20293 0.69539 0.72028 0.0
C1039 C 0.19518 0.72008 0.74182 0.0
C1040 C 0.18435 0.67935 0.6892 0.0
C1041 C 0.15797 0.68808 0.67847 0.0
C1042 C 0.15034 0.71291 0.69992 0.0
C1043 C 0.16878 0.72873 0.73156 0.0
C1044 C 0.13811 0.67079 0.64618 0.0
C1045 C 0.11278 0.665 0.65917 0.0
C1046 C 0.14444 0.65907 0.6036 0.0
C1047 C 0.16892 0.66733 0.58491 0.0
C1048 C 0.17325 0.69453 0.57876 0.0
C1049 C 0.19532 0.70209 0.55827 0.0
C1050 C 0.21341 0.68267 0.5443 0.0
C1051 C 0.20943 0.65563 0.55076 0.0
C1052 C 0.18716 0.64789 0.57069 0.0
C1053 C 0.04084 0.6063 0.50836 0.0
C1054 C 0.04653 0.57867 0.50287 0.0
C1055 C 0.05871 0.62465 0.53665 0.0
C1056 C 0.0825 0.6155 0.55909 0.0
C1057 C 0.08851 0.58802 0.55274 0.0
C1058 C 0.07047 0.56963 0.52509 0.0
C1059 C 0.10111 0.63451 0.58981 0.0
C1060 C 0.12611 0.64052 0.57645 0.0
C1061 C 0.09403 0.64715 0.63121 0.0
C1062 C 0.0672 0.64223 0.64569 0.0
C1063 C 0.05784 0.61582 0.64908 0.0
C1064 C 0.03205 0.61143 0.66079 0.0
C1065 C 0.01558 0.6333 0.66989 0.0
C1066 C 0.02487 0.65963 0.66733 0.0
C1067 C 0.05057 0.66413 0.65534 0.0
H1068 H 0.99563 0.62984 0.67893 0.0
H1069 H 0.23037 0.68852 0.52812 0.0
H1070 H 0.15423 0.28856 0.2441 0.0
H1071 H 0.12787 0.32467 0.27819 0.0
H1072 H 0.2011 0.36508 0.34766 0.0
H1073 H 0.22782 0.3294 0.31204 0.0
H1074 H 0.15503 0.35793 0.40248 0.0
H1075 H 0.17614 0.39262 0.26748 0.0
H1076 H 0.17886 0.39006 0.18563 0.0
H1077 H 0.09296 0.37649 0.15718 0.0
H1078 H 0.08978 0.37854 0.2389 0.0
H1079 H 0.09138 0.47762 0.48226 0.0
H1080 H 0.12211 0.4454 0.44964 0.0
H1081 H 0.05878 0.41621 0.34229 0.0
H1082 H 0.0283 0.4492 0.37378 0.0
H1083 H 0.10254 0.41868 0.3074 0.0
H1084 H 0.07974 0.38118 0.43753 0.0
H1085 H 0.07462 0.38024 0.51797 0.0
H1086 H 0.15998 0.39489 0.5546 0.0
H1087 H 0.16556 0.39629 0.47438 0.0
C1088 C 0.16478 0.30513 0.26658 0.0
C1089 C 0.19312 0.306 0.27567 0.0
C1090 C 0.14966 0.32575 0.28603 0.0
C1091 C 0.1625 0.34755 0.31547 0.0
C1092 C 0.19079 0.34836 0.32517 0.0
C1093 C 0.20602 0.32794 0.30495 0.0
C1094 C 0.14614 0.36945 0.33557 0.0
C1095 C 0.14391 0.37159 0.38196 0.0
C1096 C 0.13093 0.38658 0.30843 0.0
C1097 C 0.13277 0.38547 0.2593 0.0
C1098 C 0.15786 0.38883 0.24376 0.0
C1099 C 0.15948 0.38753 0.19739 0.0
C1100 C 0.1361 0.38304 0.16622 0.0
C1101 C 0.11105 0.37992 0.18137 0.0
C1102 C 0.10933 0.38118 0.22771 0.0
C1103 C 0.08398 0.46437 0.45167 0.0
C1104 C 0.0573 0.46596 0.43077 0.0
C1105 C 0.10157 0.44577 0.43313 0.0
C1106 C 0.09276 0.42785 0.39383 0.0
C1107 C 0.06619 0.42969 0.37262 0.0
C1108 C 0.04871 0.44858 0.39074 0.0
C1109 C 0.11116 0.4073 0.37469 0.0
C1110 C 0.11375 0.40527 0.32829 0.0
C1111 C 0.12631 0.38991 0.40174 0.0
C1112 C 0.12302 0.38915 0.45001 0.0
C1113 C 0.09739 0.38442 0.46278 0.0
C1114 C 0.09441 0.38377 0.50833 0.0
C1115 C 0.11695 0.38759 0.54139 0.0
C1116 C 0.14253 0.392 0.52896 0.0
C1117 C 0.14562 0.3927 0.48346 0.0
H1118 H 0.1146 0.38707 0.57664 0.0
H1119 H 0.13739 0.38205 0.13033 0.0
H1120 H 0.02295 0.97232 0.82779 0.0
H1121 H 0.01903 0.97045 0.90772 0.0
H1122 H 0.9986 0.05464 0.92295 0.0
H1123 H 1.00308 0.05682 0.8432 0.0
H1124 H 0.03518 0.0441 0.99233 0.0
H1125 H 0.9501 1.0047 0.9193 0.0
H1126 H 0.91988 0.97319 0.86483 0.0
H1127 H 0.95587 0.90549 0.92274 0.0
H1128 H 0.98649 0.93661 0.97734 0.0
H1129 H 0.98712 0.04586 0.20754 0.0
H1130 H 0.99129 0.04882 0.12772 0.0
H1131 H 0.01376 0.96525 0.11064 0.0
H1132 H 0.00933 0.96209 0.19011 0.0
H1133 H 0.97575 0.97593 0.04234 0.0
H1134 H 0.06095 0.01481 0.11468 0.0
H1135 H 0.09128 0.04593 0.16958 0.0
H1136 H 0.05529 0.11419 0.1134 0.0
H1137 H 0.02457 0.08343 0.05831 0.0
C1138 C 0.01764 0.99047 0.84807 0.0
C1139 C 0.01323 0.0147 0.82879 0.0
C1140 C 0.01522 0.98932 0.89381 0.0
C1141 C 0.00829 0.01235 0.92147 0.0
C1142 C 1.00391 0.03657 0.90239 0.0
C1143 C 1.00622 0.03771 0.85658 0.0
C1144 C 1.00601 0.01126 0.97038 0.0
C1145 C 0.02187 0.02945 1.00319 0.0
C1146 C 0.98916 0.99175 0.98485 0.0
C1147 C 0.97074 0.97298 0.95215 0.0
C1148 C 0.95169 0.98309 0.92024 0.0
C1149 C 0.93443 0.9653 0.88943 0.0
C1150 C 0.93597 0.93736 0.8903 0.0
C1151 C 0.95471 0.92714 0.9221 0.0
C1152 C 0.97198 0.94484 0.95305 0.0
C1153 C 0.99297 0.02813 0.18676 0.0
C1154 C 0.99791 1.00374 0.20526 0.0
C1155 C 0.9955 0.02988 0.14119 0.0
C1156 C 1.00294 1.00727 0.11307 0.0
C1157 C 0.008 0.98297 0.13156 0.0
C1158 C 1.00568 0.98126 0.17714 0.0
C1159 C 1.00492 0.00874 0.06421 0.0
C1160 C 0.98902 0.99062 0.03144 0.0
C1161 C 0.02175 0.02826 0.04981 0.0
C1162 C 0.04029 0.04683 0.08265 0.0
C1163 C 0.05939 0.03646 0.11421 0.0
C1164 C 0.0767 0.05403 0.14527 0.0
C1165 C 0.07518 0.08202 0.14505 0.0
C1166 C 0.05643 0.0925 0.11357 0.0
C1167 C 0.0391 0.075 0.08234 0.0
H1168 H 0.08853 0.09559 0.16927 0.0
H1169 H 0.92266 0.92362 0.8663 0.0
H1170 H 0.30513 0.74982 0.4634 0.0
H1171 H 0.30372 0.75493 0.38309 0.0
H1172 H 0.21673 0.75435 0.36885 0.0
H1173 H 0.21801 0.74891 0.44924 0.0
H1174 H 0.2353 0.72089 0.30081 0.0
H1175 H 0.25152 0.81254 0.36952 0.0
H1176 H 0.27468 0.85006 0.4223 0.0
H1177 H 0.34809 0.83514 0.36425 0.0
H1178 H 0.32546 0.79723 0.31152 0.0
H1179 H 0.21219 0.76862 0.0855 0.0
H1180 H 0.21438 0.7628 0.16562 0.0
H1181 H 0.30129 0.76269 0.17726 0.0
H1182 H 0.29923 0.76879 0.09695 0.0
H1183 H 0.28324 0.79622 0.24654 0.0
H1184 H 0.26671 0.70477 0.17719 0.0
H1185 H 0.24332 0.66744 0.12427 0.0
H1186 H 0.17026 0.68217 0.18345 0.0
H1187 H 0.19311 0.71989 0.23632 0.0
C1188 C 0.28569 0.75081 0.44319 0.0
C1189 C 0.26168 0.74897 0.46275 0.0
C1190 C 0.28492 0.75389 0.39732 0.0
C1191 C 0.26013 0.75518 0.36989 0.0
C1192 C 0.2361 0.75345 0.38933 0.0
C1193 C 0.23686 0.75057 0.43535 0.0
C1194 C 0.25933 0.75772 0.32077 0.0
C1195 C 0.24546 0.73757 0.28896 0.0
C1196 C 0.27317 0.7791 0.30519 0.0
C1197 C 0.28687 0.80185 0.33689 0.0
C1198 C 0.27267 0.81708 0.36828 0.0
C1199 C 0.28569 0.83846 0.39814 0.0
C1200 C 0.31286 0.84493 0.39672 0.0
C1201 C 0.32706 0.83007 0.36536 0.0
C1202 C 0.31414 0.80865 0.33546 0.0
C1203 C 0.23178 0.76729 0.10507 0.0
C1204 C 0.25554 0.76917 0.08484 0.0
C1205 C 0.233 0.76381 0.15084 0.0
C1206 C 0.25799 0.76217 0.1775 0.0
C1207 C 0.28178 0.76387 0.15736 0.0
C1208 C 0.28057 0.76712 0.1114 0.0
C1209 C 0.25919 0.7594 0.22659 0.0
C1210 C 0.27313 0.77951 0.25839 0.0
C1211 C 0.24539 0.738 0.24217 0.0
C1212 C 0.23156 0.71534 0.21042 0.0
C1213 C 0.24559 0.70022 0.17866 0.0
C1214 C 0.23244 0.67895 0.14872 0.0
C1215 C 0.2053 0.67248 0.15041 0.0
C1216 C 0.19127 0.68723 0.18213 0.0
C1217 C 0.20432 0.70854 0.21212 0.0
H1218 H 0.19516 0.656 0.12722 0.0
H1219 H 0.3229 0.8615 0.41984 0.0
H1220 H 0.53806 1.00467 0.72429 0.0
H1221 H 0.54551 1.00561 0.64554 0.0
H1222 H 0.46101 0.01923 0.60914 0.0
H1223 H 0.45343 0.01888 0.68788 0.0
H1224 H 0.47917 0.98124 0.5485 0.0
H1225 H 0.5072 0.07066 0.61873 0.0
H1226 H 0.53278 0.10484 0.67523 0.0
H1227 H 0.60733 0.07459 0.63554 0.0
H1228 H 0.58219 0.03993 0.57921 0.0
H1229 H 0.48669 0.0215 0.33077 0.0
H1230 H 0.47966 0.02085 0.40975 0.0
H1231 H 0.56423 1.00707 0.44511 0.0
H1232 H 0.57139 1.00716 0.36608 0.0
H1233 H 0.54623 0.04505 0.50631 0.0
H1234 H 0.51821 0.95566 0.43607 0.0
H1235 H 0.49262 0.92159 0.37936 0.0
H1236 H 0.41807 0.95187 0.41902 0.0
H1237 H 0.44322 0.98641 0.47557 0.0
C1238 C 0.52106 1.00815 0.69972 0.0
C1239 C 0.49512 0.01175 0.71277 0.0
C1240 C 0.52536 0.0086 0.65457 0.0
C1241 C 0.50387 0.01272 0.62135 0.0
C1242 C 0.47791 0.01594 0.63407 0.0
C1243 C 0.4736 0.0156 0.67921 0.0
C1244 C 0.50839 0.01362 0.57335 0.0
C1245 C 0.49358 0.99545 0.53925 0.0
C1246 C 0.52763 0.03172 0.56121 0.0
C1247 C 0.54281 0.05251 0.59509 0.0
C1248 C 0.52905 0.07113 0.62233 0.0
C1249 C 0.54347 0.09062 0.65427 0.0
C1250 C 0.57166 0.09184 0.65907 0.0
C1251 C 0.58549 0.07359 0.63185 0.0
C1252 C 0.57117 0.05403 0.59988 0.0
C1253 C 0.5038 0.01805 0.35516 0.0
C1254 C 0.52962 0.01427 0.34172 0.0
C1255 C 0.49974 0.01778 0.40045 0.0
C1256 C 0.52136 0.01366 0.43343 0.0
C1257 C 0.54723 0.01035 0.42036 0.0
C1258 C 0.5513 0.01052 0.37507 0.0
C1259 C 0.51699 0.01269 0.48148 0.0
C1260 C 0.53183 0.03084 0.51558 0.0
C1261 C 0.49779 0.99457 0.49363 0.0
C1262 C 0.4826 0.9738 0.45973 0.0
C1263 C 0.49635 0.9552 0.43244 0.0
C1264 C 0.48193 0.93578 0.40037 0.0
C1265 C 0.45373 0.93462 0.3955 0.0
C1266 C 0.43991 0.95283 0.42278 0.0
C1267 C 0.45424 0.97232 0.45487 0.0
H1268 H 0.4426 0.91956 0.37066 0.0
H1269 H 0.58279 0.10696 0.6838 0.0
H1270 H 0.28493 0.23118 0.94428 0.0
H1271 H 0.28744 0.23425 0.86412 0.0
H1272 H 0.2071 0.26519 0.84973 0.0
H1273 H 0.20423 0.26164 0.92958 0.0
H1274 H 0.21336 0.22616 0.7808 0.0
H1275 H 0.26179 0.30703 0.85394 0.0
H1276 H 0.29646 0.33356 0.90821 0.0
H1277 H 0.35894 0.29047 0.847 0.0
H1278 H 0.32461 0.26339 0.79272 0.0
H1279 H 0.21337 0.27624 0.5686 0.0
H1280 H 0.21163 0.27098 0.64814 0.0
H1281 H 0.29216 0.24045 0.65828 0.0
H1282 H 0.29419 0.24601 0.57882 0.0
H1283 H 0.2865 0.27842 0.72921 0.0
H1284 H 0.23899 0.19686 0.65798 0.0
H1285 H 0.20487 0.16922 0.60425 0.0
H1286 H 0.14151 0.21317 0.66136 0.0
H1287 H 0.17529 0.24104 0.71557 0.0
C1288 C 0.26777 0.23859 0.92405 0.0
C1289 C 0.2444 0.24624 0.9435 0.0
C1290 C 0.2693 0.24051 0.87826 0.0
C1291 C 0.24752 0.25014 0.85086 0.0
C1292 C 0.22418 0.25775 0.87015 0.0
C1293 C 0.22267 0.25595 0.91596 0.0
C1294 C 0.2489 0.25193 0.80198 0.0
C1295 C 0.22916 0.23789 0.76959 0.0
C1296 C 0.26991 0.26663 0.78713 0.0
C1297 C 0.29061 0.28299 0.81955 0.0
C1298 C 0.28292 0.30306 0.85227 0.0
C1299 C 0.30251 0.31822 0.883 0.0
C1300 C 0.32988 0.31365 0.88114 0.0
C1301 C 0.33772 0.29396 0.84845 0.0
C1302 C 0.31821 0.27871 0.81766 0.0
C1303 C 0.2307 0.26832 0.58767 0.0
C1304 C 0.25389 0.26147 0.56717 0.0
C1305 C 0.22961 0.26516 0.63313 0.0
C1306 C 0.25171 0.25515 0.65924 0.0
C1307 C 0.27484 0.24816 0.63885 0.0
C1308 C 0.27587 0.25113 0.59327 0.0
C1309 C 0.25091 0.25272 0.70809 0.0
C1310 C 0.27074 0.26666 0.74045 0.0
C1311 C 0.23006 0.23787 0.72295 0.0
C1312 C 0.20966 0.22118 0.69053 0.0
C1313 C 0.21778 0.20072 0.65891 0.0
C1314 C 0.19851 0.18496 0.62849 0.0
C1315 C 0.17104 0.18952 0.62925 0.0
C1316 C 0.16279 0.2097 0.66074 0.0
C1317 C 0.18199 0.22541 0.69145 0.0
H1318 H 0.15616 0.17738 0.60549 0.0
H1319 H 0.34501 0.32542 0.90496 0.0
H1320 H 0.8017 0.24375 0.94096 0.0
H1321 H 0.79933 0.24991 0.86099 0.0
H1322 H 0.71301 0.23608 0.84423 0.0
H1323 H 0.71529 0.22944 0.92424 0.0
H1324 H 0.73625 0.20783 0.77568 0.0
H1325 H 0.7387 0.29904 0.84854 0.0
H1326 H 0.75625 0.33815 0.9036 0.0
H1327 H 0.83133 0.33645 0.84794 0.0
H1328 H 0.81436 0.29706 0.79293 0.0
H1329 H 0.70754 0.25577 0.56123 0.0
H1330 H 0.70965 0.24912 0.64097 0.0
H1331 H 0.79594 0.26337 0.65881 0.0
H1332 H 0.79391 0.27053 0.57908 0.0
H1333 H 0.7725 0.29137 0.72682 0.0
H1334 H 0.76994 0.20015 0.65376 0.0
H1335 H 0.7523 0.16107 0.5987 0.0
H1336 H 0.67733 0.16279 0.65469 0.0
H1337 H 0.69438 0.20217 0.70968 0.0
C1338 C 0.78221 0.24191 0.92025 0.0
C1339 C 0.75868 0.23608 0.93903 0.0
C1340 C 0.78086 0.24563 0.87458 0.0
C1341 C 0.75597 0.24365 0.84661 0.0
C1342 C 0.73243 0.23775 0.86516 0.0
C1343 C 0.73374 0.23418 0.91097 0.0
C1344 C 0.75462 0.24743 0.79793 0.0
C1345 C 0.74381 0.22625 0.76499 0.0
C1346 C 0.76509 0.27121 0.78392 0.0
C1347 C 0.77535 0.29492 0.81691 0.0
C1348 C 0.75904 0.30685 0.84829 0.0
C1349 C 0.76886 0.3291 0.87944 0.0
C1350 C 0.79491 0.33973 0.87935 0.0
C1351 C 0.81117 0.32817 0.84801 0.0
C1352 C 0.80145 0.30589 0.81681 0.0
C1353 C 0.72697 0.25757 0.58213 0.0
C1354 C 0.75057 0.2637 0.56375 0.0
C1355 C 0.72817 0.25355 0.62766 0.0
C1356 C 0.75298 0.25555 0.65588 0.0
C1357 C 0.77658 0.26167 0.63768 0.0
C1358 C 0.77542 0.26554 0.59202 0.0
C1359 C 0.75417 0.25175 0.70454 0.0
C1360 C 0.76494 0.27294 0.73748 0.0
C1361 C 0.74365 0.22799 0.71854 0.0
C1362 C 0.73334 0.20429 0.68554 0.0
C1363 C 0.7496 0.19235 0.65408 0.0
C1364 C 0.73973 0.17012 0.62293 0.0
C1365 C 0.71368 0.1595 0.62312 0.0
C1366 C 0.69748 0.17106 0.65454 0.0
C1367 C 0.70725 0.19333 0.68573 0.0
H1368 H 0.70608 0.14228 0.59899 0.0
H1369 H 0.80248 0.35697 0.90348 0.0
H1370 H 0.79787 0.74853 0.47619 0.0
H1371 H 0.80178 0.75275 0.39673 0.0
H1372 H 0.71691 0.76875 0.37326 0.0
H1373 H 0.71274 0.76386 0.45209 0.0
H1374 H 0.73019 0.73311 0.30688 0.0
H1375 H 0.76496 0.81969 0.38026 0.0
H1376 H 0.79418 0.85127 0.43621 0.0
H1377 H 0.8645 0.81843 0.38401 0.0
H1378 H 0.83568 0.78649 0.3279 0.0
H1379 H 0.72774 0.77985 0.0917 0.0
H1380 H 0.72506 0.77716 0.17187 0.0
H1381 H 0.80946 0.75886 0.19209 0.0
H1382 H 0.81248 0.76224 0.11222 0.0
H1383 H 0.79681 0.79554 0.26009 0.0
H1384 H 0.76067 0.70917 0.1853 0.0
H1385 H 0.73043 0.67873 0.12901 0.0
H1386 H 0.66137 0.71239 0.18431 0.0
H1387 H 0.6912 0.74329 0.24061 0.0
C1388 C 0.78003 0.75287 0.45406 0.0
C1389 C 0.75499 0.75588 0.47066 0.0
C1390 C 0.78233 0.75551 0.40868 0.0
C1391 C 0.75966 0.76125 0.37887 0.0
C1392 C 0.73471 0.76434 0.39545 0.0
C1393 C 0.73241 0.76179 0.44075 0.0
C1394 C 0.76173 0.76349 0.33022 0.0
C1395 C 0.74454 0.74702 0.29672 0.0
C1396 C 0.78076 0.78124 0.31669 0.0
C1397 C 0.79817 0.80053 0.35015 0.0
C1398 C 0.78666 0.8191 0.38088 0.0
C1399 C 0.80314 0.83712 0.41252 0.0
C1400 C 0.83118 0.83683 0.41371 0.0
C1401 C 0.84278 0.81861 0.38307 0.0
C1402 C 0.82638 0.80059 0.35127 0.0
C1403 C 0.74579 0.77541 0.1132 0.0
C1404 C 0.7703 0.77113 0.09525 0.0
C1405 C 0.74418 0.77367 0.15905 0.0
C1406 C 0.767 0.76753 0.18811 0.0
C1407 C 0.79155 0.76354 0.17044 0.0
C1408 C 0.79316 0.76521 0.12457 0.0
C1409 C 0.76525 0.76518 0.23682 0.0
C1410 C 0.7825 0.78161 0.2703 0.0
C1411 C 0.74614 0.74751 0.25036 0.0
C1412 C 0.72817 0.72872 0.2169 0.0
C1413 C 0.73903 0.7102 0.18528 0.0
C1414 C 0.72196 0.69285 0.1534 0.0
C1415 C 0.694 0.69368 0.15301 0.0
C1416 C 0.68304 0.71179 0.18463 0.0
C1417 C 0.70002 0.72921 0.21656 0.0
H1418 H 0.68082 0.68024 0.12828 0.0
H1419 H 0.84391 0.85072 0.43839 0.0
H1420 H 0.53144 0.51738 0.72375 0.0
H1421 H 0.53782 0.5204 0.64499 0.0
H1422 H 0.45534 0.49273 0.60156 0.0
H1423 H 0.44869 0.48999 0.68011 0.0
H1424 H 0.48834 0.46671 0.54826 0.0
H1425 H 0.47481 0.5593 0.60401 0.0
H1426 H 0.48334 0.60175 0.65605 0.0
H1427 H 0.56474 0.60629 0.62507 0.0
H1428 H 0.5568 0.56364 0.57327 0.0
H1429 H 0.47854 0.49997 0.32191 0.0
H1430 H 0.4722 0.49695 0.40069 0.0
H1431 H 0.55454 0.5251 0.4441 0.0
H1432 H 0.56114 0.5279 0.36553 0.0
H1433 H 0.52164 0.55087 0.49744 0.0
H1434 H 0.53526 0.45835 0.44173 0.0
H1435 H 0.52683 0.41587 0.38975 0.0
H1436 H 0.44545 0.41112 0.42074 0.0
H1437 H 0.45328 0.45381 0.47248 0.0
C1438 C 0.51452 0.51226 0.69757 0.0
C1439 C 0.48954 0.50338 0.70859 0.0
C1440 C 0.51824 0.51392 0.6524 0.0
C1441 C 0.49703 0.50692 0.6171 0.0
C1442 C 0.47209 0.49811 0.628 0.0
C1443 C 0.46835 0.49647 0.67309 0.0
C1444 C 0.50084 0.50848 0.56882 0.0
C1445 C 0.49528 0.48523 0.53709 0.0
C1446 C 0.51048 0.53243 0.55415 0.0
C1447 C 0.51528 0.55813 0.58512 0.0
C1448 C 0.49459 0.56924 0.60856 0.0
C1449 C 0.49931 0.59335 0.63797 0.0
C1450 C 0.52459 0.60667 0.64396 0.0
C1451 C 0.54518 0.59593 0.62045 0.0
C1452 C 0.54058 0.5718 0.59103 0.0
C1453 C 0.49543 0.5052 0.3481 0.0
C1454 C 0.52035 0.51424 0.33708 0.0
C1455 C 0.49175 0.50353 0.39328 0.0
C1456 C 0.51293 0.51066 0.42858 0.0
C1457 C 0.53781 0.51962 0.41767 0.0
C1458 C 0.54152 0.52128 0.37257 0.0
C1459 C 0.50914 0.50909 0.47687 0.0
C1460 C 0.5147 0.53234 0.50861 0.0
C1461 C 0.49952 0.48514 0.49156 0.0
C1462 C 0.49478 0.45942 0.46062 0.0
C1463 C 0.5155 0.44836 0.43719 0.0
C1464 C 0.51084 0.42423 0.40782 0.0
C1465 C 0.4856 0.41085 0.40185 0.0
C1466 C 0.46498 0.42154 0.42535 0.0
C1467 C 0.46952 0.44569 0.45473 0.0
H1468 H 0.48203 0.39216 0.3791 0.0
H1469 H 0.5282 0.62534 0.66674 0.0
H1470 H 0.01245 0.56339 0.81655 0.0
H1471 H 0.00652 0.56114 0.89577 0.0
H1472 H 0.01672 0.47472 0.87656 0.0
H1473 H 0.02166 0.47684 0.79702 0.0
H1474 H 0.9795 0.48325 0.92562 0.0
H1475 H 0.06793 0.52256 0.93373 0.0
H1476 H 0.10272 0.555 0.91927 0.0
H1477 H 0.06298 0.62036 0.98838 0.0
H1478 H 0.02775 0.58835 1.00273 0.0
H1479 H 0.03041 0.51397 0.18737 0.0
H1480 H 0.03826 0.51254 0.10833 0.0
H1481 H 0.95254 0.51548 0.06754 0.0
H1482 H 0.94443 0.51528 0.14578 0.0
H1483 H 0.03056 0.54612 0.04941 0.0
H1484 H 0.9342 0.48411 0.96246 0.0
H1485 H 0.9043 0.4473 0.97782 0.0
H1486 H 0.96862 0.41948 0.06812 0.0
H1487 H 0.999 0.45586 0.05283 0.0
C1488 C 0.01347 0.54393 0.8293 0.0
C1489 C 0.01756 0.5203 0.80045 0.0
C1490 C 0.01019 0.54265 0.87473 0.0
C1491 C 0.01161 0.5178 0.89279 0.0
C1492 C 0.01547 0.49417 0.86378 0.0
C1493 C 0.0183 0.49538 0.81819 0.0
C1494 C 0.00886 0.51634 0.94162 0.0
C1495 C 0.9907 0.49704 0.95258 0.0
C1496 C 0.02388 0.53379 0.97734 0.0
C1497 C 0.04507 0.55309 0.96894 0.0
C1498 C 0.06652 0.54388 0.94558 0.0
C1499 C 0.08632 0.56218 0.93744 0.0
C1500 C 0.08502 0.58973 0.9528 0.0
C1501 C 0.06394 0.59902 0.97645 0.0
C1502 C 0.04406 0.5808 0.98463 0.0
C1503 C 0.01315 0.51382 0.16156 0.0
C1504 C 0.98675 0.51474 0.17338 0.0
C1505 C 0.01772 0.5133 0.11627 0.0
C1506 C 0.99603 0.51365 0.08155 0.0
C1507 C 0.96968 0.51472 0.0933 0.0
C1508 C 0.96509 0.51499 0.13842 0.0
C1509 C 1.00087 0.51335 0.03324 0.0
C1510 C 0.01939 0.53233 0.0224 0.0
C1511 C 0.98684 0.49502 0.99774 0.0
C1512 C 0.96878 0.4729 1.00681 0.0
C1513 C 0.94199 0.47007 0.98545 0.0
C1514 C 0.92495 0.44929 0.99417 0.0
C1515 C 0.93453 0.43112 0.02404 0.0
C1516 C 0.9612 0.43363 0.04513 0.0
C1517 C 0.97832 0.45435 0.03649 0.0
H1518 H 0.92131 0.41506 0.03076 0.0
H1519 H 0.10038 0.60387 0.94646 0.0
loop_
_geom_bond_atom_site_label_1
_geom_bond_atom_site_label_2
_geom_bond_distance
_geom_bond_site_symmetry_2
_ccdc_geom_bond_type
Tb0 C2 2.809 1_655 S
Tb0 O20 2.486 . S
Tb0 O21 2.440 1_655 S
Tb0 O22 2.658 1_655 S
Tb0 O23 2.409 1_655 S
Tb0 O24 2.378 1_665 S
Tb0 O28 2.325 1_565 S
Tb0 O31 2.341 . S
Tb1 C11 2.809 1_455 S
Tb1 O22 2.325 1_545 S
Tb1 O25 2.341 . S
Tb1 O26 2.492 . S
Tb1 O27 2.440 1_455 S
Tb1 O28 2.658 1_455 S
Tb1 O29 2.409 1_455 S
Tb1 O30 2.378 1_445 S
C2 Tb0 2.809 1_455 S
C2 C3 1.514 . S
C2 O20 1.250 1_455 S
C2 O21 1.266 . S
C3 C2 1.514 . S
C3 C4 1.352 1_465 S
C3 C8 1.348 . S
C4 C3 1.352 1_645 S
C4 C5 1.373 1_655 S
C4 H32 0.943 . S
C5 C4 1.373 1_455 S
C5 C6 1.347 1_545 S
C5 H33 0.931 1_455 S
C6 C5 1.347 1_565 S
C6 C7 1.369 . S
C7 C6 1.369 . S
C7 C8 1.408 . S
C7 H34 0.930 . S
C8 C3 1.348 . S
C8 C7 1.408 . S
C8 H35 0.930 . S
C9 O22 1.281 . S
C9 O23 1.254 . S
C10 O24 1.236 . S
C10 O25 1.266 . S
C11 Tb1 2.809 1_655 S
C11 C12 1.514 . S
C11 O26 1.256 1_655 S
C11 O27 1.266 . S
C12 C11 1.514 . S
C12 C13 1.349 1_645 S
C12 C17 1.348 . S
C13 C12 1.349 1_465 S
C13 C14 1.370 1_455 S
C13 H36 0.949 . S
C14 C13 1.370 1_655 S
C14 C15 1.347 1_565 S
C14 H37 0.931 1_655 S
C15 C14 1.347 1_545 S
C15 C16 1.369 . S
C16 C15 1.369 . S
C16 C17 1.408 . S
C16 H38 0.930 . S
C17 C12 1.348 . S
C17 C16 1.408 . S
C17 H39 0.930 . S
C18 O28 1.281 . S
C18 O29 1.254 . S
C19 O30 1.236 . S
C19 O31 1.266 . S
O20 Tb0 2.486 . S
O20 C2 1.250 1_655 S
O21 Tb0 2.440 1_455 S
O21 C2 1.266 . S
O22 Tb0 2.658 1_455 S
O22 Tb1 2.325 1_565 S
O22 C9 1.281 . S
O23 Tb0 2.409 1_455 S
O23 C9 1.254 . S
O24 Tb0 2.378 1_445 S
O24 C10 1.236 . S
O25 Tb1 2.341 . S
O25 C10 1.266 . S
O26 Tb1 2.492 . S
O26 C11 1.256 1_455 S
O27 Tb1 2.440 1_655 S
O27 C11 1.266 . S
O28 Tb0 2.325 1_545 S
O28 Tb1 2.658 1_655 S
O28 C18 1.281 . S
O29 Tb1 2.409 1_655 S
O29 C18 1.254 . S
O30 Tb1 2.378 1_665 S
O30 C19 1.236 . S
O31 Tb0 2.341 . S
O31 C19 1.266 . S
H32 C4 0.943 . S
H33 C5 0.931 1_655 S
H34 C7 0.930 . S
H35 C8 0.930 . S
H36 C13 0.949 . S
H37 C14 0.931 1_455 S
H38 C16 0.930 . S
H39 C17 0.930 . S
Tb40 C42 2.809 . S
Tb40 O60 2.484 . S
Tb40 O61 2.440 . S
Tb40 O62 2.658 . S
Tb40 O63 2.409 . S
Tb40 O64 2.378 . S
Tb40 O68 2.325 . S
Tb40 O71 2.341 . S
Tb41 C51 2.809 . S
Tb41 O62 2.325 . S
Tb41 O65 2.341 . S
Tb41 O66 2.484 . S
Tb41 O67 2.440 . S
Tb41 O68 2.658 . S
Tb41 O69 2.409 . S
Tb41 O70 2.378 . S
C42 Tb40 2.809 . S
C42 C43 1.514 . S
C42 O60 1.248 . S
C42 O61 1.266 . S
C43 C42 1.514 . S
C43 C44 1.359 . S
C43 C48 1.348 . S
C44 C43 1.359 . S
C44 C45 1.380 . S
C44 H72 0.929 . S
C45 C44 1.380 . S
C45 C46 1.347 . S
C45 H73 0.931 . S
C46 C45 1.347 . S
C46 C47 1.369 . S
C47 C46 1.369 . S
C47 C48 1.408 . S
C47 H74 0.930 . S
C48 C43 1.348 . S
C48 C47 1.408 . S
C48 H75 0.930 . S
C49 O62 1.281 . S
C49 O63 1.254 . S
C50 O64 1.236 . S
C50 O65 1.266 . S
C51 Tb41 2.809 . S
C51 C52 1.514 . S
C51 O66 1.248 . S
C51 O67 1.266 . S
C52 C51 1.514 . S
C52 C53 1.359 . S
C52 C57 1.348 . S
C53 C52 1.359 . S
C53 C54 1.380 1_556 S
C53 H76 0.929 . S
C54 C53 1.380 1_554 S
C54 C55 1.347 . S
C54 H77 0.931 . S
C55 C54 1.347 . S
C55 C56 1.369 1_554 S
C56 C55 1.369 1_556 S
C56 C57 1.408 . S
C56 H78 0.930 1_556 S
C57 C52 1.348 . S
C57 C56 1.408 . S
C57 H79 0.930 . S
C58 O68 1.281 . S
C58 O69 1.254 . S
C59 O70 1.236 . S
C59 O71 1.266 . S
O60 Tb40 2.484 . S
O60 C42 1.248 . S
O61 Tb40 2.440 . S
O61 C42 1.266 . S
O62 Tb40 2.658 . S
O62 Tb41 2.325 . S
O62 C49 1.281 . S
O63 Tb40 2.409 . S
O63 C49 1.254 . S
O64 Tb40 2.378 . S
O64 C50 1.236 . S
O65 Tb41 2.341 . S
O65 C50 1.266 . S
O66 Tb41 2.484 . S
O66 C51 1.248 . S
O67 Tb41 2.440 . S
O67 C51 1.266 . S
O68 Tb40 2.325 . S
O68 Tb41 2.658 . S
O68 C58 1.281 . S
O69 Tb41 2.409 . S
O69 C58 1.254 . S
O70 Tb41 2.378 . S
O70 C59 1.236 . S
O71 Tb40 2.341 . S
O71 C59 1.266 . S
H72 C44 0.929 . S
H73 C45 0.931 . S
H74 C47 0.930 . S
H75 C48 0.930 . S
H76 C53 0.929 . S
H77 C54 0.931 . S
H78 C56 0.930 1_554 S
H79 C57 0.930 . S
Tb80 C82 2.809 . S
Tb80 O100 2.484 1_565 S
Tb80 O101 2.440 . S
Tb80 O102 2.658 1_554 S
Tb80 O103 2.409 . S
Tb80 O104 2.378 1_565 S
Tb80 O108 2.325 1_565 S
Tb80 O111 2.341 1_554 S
Tb81 C91 2.809 . S
Tb81 O102 2.325 1_545 S
Tb81 O105 2.341 1_556 S
Tb81 O106 2.484 1_545 S
Tb81 O107 2.440 . S
Tb81 O108 2.658 1_556 S
Tb81 O109 2.409 . S
Tb81 O110 2.378 1_545 S
C82 Tb80 2.809 . S
C82 C83 1.514 . S
C82 O100 1.248 1_565 S
C82 O101 1.266 . S
C83 C82 1.514 . S
C83 C84 1.359 1_565 S
C83 C88 1.348 . S
C84 C83 1.359 1_545 S
C84 C85 1.380 . S
C84 H112 0.929 . S
C85 C84 1.380 . S
C85 C86 1.347 . S
C85 H113 0.931 . S
C86 C85 1.347 . S
C86 C87 1.369 1_545 S
C87 C86 1.369 1_565 S
C87 C88 1.408 . S
C87 H114 0.930 . S
C88 C83 1.348 . S
C88 C87 1.408 . S
C88 H115 0.930 . S
C89 O102 1.281 . S
C89 O103 1.254 1_556 S
C90 O104 1.236 . S
C90 O105 1.266 . S
C91 Tb81 2.809 . S
C91 C92 1.514 . S
C91 O106 1.248 1_545 S
C91 O107 1.266 . S
C92 C91 1.514 . S
C92 C93 1.359 1_545 S
C92 C97 1.348 . S
C93 C92 1.359 1_565 S
C93 C94 1.380 . S
C93 H116 0.929 . S
C94 C93 1.380 . S
C94 C95 1.347 . S
C94 H117 0.931 . S
C95 C94 1.347 . S
C95 C96 1.369 1_565 S
C96 C95 1.369 1_545 S
C96 C97 1.408 . S
C96 H118 0.930 . S
C97 C92 1.348 . S
C97 C96 1.408 . S
C97 H119 0.930 . S
C98 O108 1.281 . S
C98 O109 1.254 1_554 S
C99 O110 1.236 . S
C99 O111 1.266 . S
O100 Tb80 2.484 1_545 S
O100 C82 1.248 1_545 S
O101 Tb80 2.440 . S
O101 C82 1.266 . S
O102 Tb80 2.658 1_556 S
O102 Tb81 2.325 1_565 S
O102 C89 1.281 . S
O103 Tb80 2.409 . S
O103 C89 1.254 1_554 S
O104 Tb80 2.378 1_545 S
O104 C90 1.236 . S
O105 Tb81 2.341 1_554 S
O105 C90 1.266 . S
O106 Tb81 2.484 1_565 S
O106 C91 1.248 1_565 S
O107 Tb81 2.440 . S
O107 C91 1.266 . S
O108 Tb80 2.325 1_545 S
O108 Tb81 2.658 1_554 S
O108 C98 1.281 . S
O109 Tb81 2.409 . S
O109 C98 1.254 1_556 S
O110 Tb81 2.378 1_565 S
O110 C99 1.236 . S
O111 Tb80 2.341 1_556 S
O111 C99 1.266 . S
H112 C84 0.929 . S
H113 C85 0.931 . S
H114 C87 0.930 . S
H115 C88 0.930 . S
H116 C93 0.929 . S
H117 C94 0.931 . S
H118 C96 0.930 . S
H119 C97 0.930 . S
Tb120 C122 2.809 . S
Tb120 O140 2.484 . S
Tb120 O141 2.440 . S
Tb120 O142 2.658 . S
Tb120 O143 2.409 . S
Tb120 O144 2.378 . S
Tb120 O148 2.325 . S
Tb120 O151 2.341 . S
Tb121 C131 2.809 . S
Tb121 O142 2.325 . S
Tb121 O145 2.341 . S
Tb121 O146 2.484 . S
Tb121 O147 2.440 . S
Tb121 O148 2.658 . S
Tb121 O149 2.409 . S
Tb121 O150 2.378 . S
C122 Tb120 2.809 . S
C122 C123 1.514 . S
C122 O140 1.248 . S
C122 O141 1.266 . S
C123 C122 1.514 . S
C123 C124 1.359 . S
C123 C128 1.348 . S
C124 C123 1.359 . S
C124 C125 1.380 . S
C124 H152 0.929 . S
C125 C124 1.380 . S
C125 C126 1.347 . S
C125 H153 0.931 . S
C126 C125 1.347 . S
C126 C127 1.369 . S
C127 C126 1.369 . S
C127 C128 1.408 . S
C127 H154 0.930 . S
C128 C123 1.348 . S
C128 C127 1.408 . S
C128 H155 0.930 . S
C129 O142 1.281 . S
C129 O143 1.254 . S
C130 O144 1.236 . S
C130 O145 1.266 . S
C131 Tb121 2.809 . S
C131 C132 1.514 . S
C131 O146 1.248 . S
C131 O147 1.266 . S
C132 C131 1.514 . S
C132 C133 1.359 . S
C132 C137 1.348 . S
C133 C132 1.359 . S
C133 C134 1.380 . S
C133 H156 0.929 . S
C134 C133 1.380 . S
C134 C135 1.347 1_554 S
C134 H157 0.931 1_554 S
C135 C134 1.347 1_556 S
C135 C136 1.376 . S
C136 C135 1.376 . S
C136 C137 1.395 1_556 S
C136 H158 0.937 . S
C137 C132 1.348 . S
C137 C136 1.395 1_554 S
C137 H159 0.930 . S
C138 O148 1.281 . S
C138 O149 1.254 . S
C139 O150 1.236 . S
C139 O151 1.266 . S
O140 Tb120 2.484 . S
O140 C122 1.248 . S
O141 Tb120 2.440 . S
O141 C122 1.266 . S
O142 Tb120 2.658 . S
O142 Tb121 2.325 . S
O142 C129 1.281 . S
O143 Tb120 2.409 . S
O143 C129 1.254 . S
O144 Tb120 2.378 . S
O144 C130 1.236 . S
O145 Tb121 2.341 . S
O145 C130 1.266 . S
O146 Tb121 2.484 . S
O146 C131 1.248 . S
O147 Tb121 2.440 . S
O147 C131 1.266 . S
O148 Tb120 2.325 . S
O148 Tb121 2.658 . S
O148 C138 1.281 . S
O149 Tb121 2.409 . S
O149 C138 1.254 . S
O150 Tb121 2.378 . S
O150 C139 1.236 . S
O151 Tb120 2.341 . S
O151 C139 1.266 . S
H152 C124 0.929 . S
H153 C125 0.931 . S
H154 C127 0.930 . S
H155 C128 0.930 . S
H156 C133 0.929 . S
H157 C134 0.931 1_556 S
H158 C136 0.937 . S
H159 C137 0.930 . S
Tb160 C162 2.809 . S
Tb160 O180 2.484 . S
Tb160 O181 2.440 . S
Tb160 O182 2.658 . S
Tb160 O183 2.409 . S
Tb160 O184 2.378 . S
Tb160 O188 2.325 . S
Tb160 O191 2.341 . S
Tb161 C171 2.809 . S
Tb161 O182 2.325 . S
Tb161 O185 2.341 . S
Tb161 O186 2.484 . S
Tb161 O187 2.440 . S
Tb161 O188 2.658 . S
Tb161 O189 2.409 . S
Tb161 O190 2.378 . S
C162 Tb160 2.809 . S
C162 C163 1.514 . S
C162 O180 1.248 . S
C162 O181 1.266 . S
C163 C162 1.514 . S
C163 C164 1.359 . S
C163 C168 1.348 . S
C164 C163 1.359 . S
C164 C165 1.380 1_554 S
C164 H192 0.929 . S
C165 C164 1.380 1_556 S
C165 C166 1.347 . S
C165 H193 0.931 . S
C166 C165 1.347 . S
C166 C167 1.369 1_556 S
C167 C166 1.369 1_554 S
C167 C168 1.408 . S
C167 H194 0.930 1_554 S
C168 C163 1.348 . S
C168 C167 1.408 . S
C168 H195 0.930 . S
C169 O182 1.281 . S
C169 O183 1.254 . S
C170 O184 1.236 . S
C170 O185 1.266 . S
C171 Tb161 2.809 . S
C171 C172 1.514 . S
C171 O186 1.248 . S
C171 O187 1.266 . S
C172 C171 1.514 . S
C172 C173 1.359 . S
C172 C177 1.348 . S
C173 C172 1.359 . S
C173 C174 1.380 . S
C173 H196 0.929 . S
C174 C173 1.380 . S
C174 C175 1.347 . S
C174 H197 0.931 . S
C175 C174 1.347 . S
C175 C176 1.369 . S
C176 C175 1.369 . S
C176 C177 1.408 . S
C176 H198 0.930 . S
C177 C172 1.348 . S
C177 C176 1.408 . S
C177 H199 0.930 . S
C178 O188 1.281 . S
C178 O189 1.254 . S
C179 O190 1.236 . S
C179 O191 1.266 . S
O180 Tb160 2.484 . S
O180 C162 1.248 . S
O181 Tb160 2.440 . S
O181 C162 1.266 . S
O182 Tb160 2.658 . S
O182 Tb161 2.325 . S
O182 C169 1.281 . S
O183 Tb160 2.409 . S
O183 C169 1.254 . S
O184 Tb160 2.378 . S
O184 C170 1.236 . S
O185 Tb161 2.341 . S
O185 C170 1.266 . S
O186 Tb161 2.484 . S
O186 C171 1.248 . S
O187 Tb161 2.440 . S
O187 C171 1.266 . S
O188 Tb160 2.325 . S
O188 Tb161 2.658 . S
O188 C178 1.281 . S
O189 Tb161 2.409 . S
O189 C178 1.254 . S
O190 Tb161 2.378 . S
O190 C179 1.236 . S
O191 Tb160 2.341 . S
O191 C179 1.266 . S
H192 C164 0.929 . S
H193 C165 0.931 . S
H194 C167 0.930 1_556 S
H195 C168 0.930 . S
H196 C173 0.929 . S
H197 C174 0.931 . S
H198 C176 0.930 . S
H199 C177 0.930 . S
Tb200 C202 2.809 . S
Tb200 O220 2.484 . S
Tb200 O221 2.440 . S
Tb200 O222 2.658 . S
Tb200 O223 2.409 . S
Tb200 O224 2.378 . S
Tb200 O228 2.325 . S
Tb200 O231 2.341 . S
Tb201 C211 2.809 . S
Tb201 O222 2.325 . S
Tb201 O225 2.341 . S
Tb201 O226 2.484 . S
Tb201 O227 2.440 . S
Tb201 O228 2.658 . S
Tb201 O229 2.409 . S
Tb201 O230 2.378 . S
C202 Tb200 2.809 . S
C202 C203 1.514 . S
C202 O220 1.248 . S
C202 O221 1.266 . S
C203 C202 1.514 . S
C203 C204 1.359 . S
C203 C208 1.348 . S
C204 C203 1.359 . S
C204 C205 1.379 . S
C204 H232 0.929 . S
C205 C204 1.379 . S
C205 C206 1.347 1_556 S
C205 H233 0.932 1_556 S
C206 C205 1.347 1_554 S
C206 C207 1.377 . S
C207 C206 1.377 . S
C207 C208 1.394 1_554 S
C207 H234 0.937 . S
C208 C203 1.348 . S
C208 C207 1.394 1_556 S
C208 H235 0.930 . S
C209 O222 1.281 . S
C209 O223 1.254 . S
C210 O224 1.236 . S
C210 O225 1.266 . S
C211 Tb201 2.809 . S
C211 C212 1.514 . S
C211 O226 1.248 . S
C211 O227 1.266 . S
C212 C211 1.514 . S
C212 C213 1.359 . S
C212 C217 1.348 . S
C213 C212 1.359 . S
C213 C214 1.380 . S
C213 H236 0.929 . S
C214 C213 1.380 . S
C214 C215 1.347 . S
C214 H237 0.931 . S
C215 C214 1.347 . S
C215 C216 1.369 . S
C216 C215 1.369 . S
C216 C217 1.408 . S
C216 H238 0.930 . S
C217 C212 1.348 . S
C217 C216 1.408 . S
C217 H239 0.930 . S
C218 O228 1.281 . S
C218 O229 1.254 . S
C219 O230 1.236 . S
C219 O231 1.266 . S
O220 Tb200 2.484 . S
O220 C202 1.248 . S
O221 Tb200 2.440 . S
O221 C202 1.266 . S
O222 Tb200 2.658 . S
O222 Tb201 2.325 . S
O222 C209 1.281 . S
O223 Tb200 2.409 . S
O223 C209 1.254 . S
O224 Tb200 2.378 . S
O224 C210 1.236 . S
O225 Tb201 2.341 . S
O225 C210 1.266 . S
O226 Tb201 2.484 . S
O226 C211 1.248 . S
O227 Tb201 2.440 . S
O227 C211 1.266 . S
O228 Tb200 2.325 . S
O228 Tb201 2.658 . S
O228 C218 1.281 . S
O229 Tb201 2.409 . S
O229 C218 1.254 . S
O230 Tb201 2.378 . S
O230 C219 1.236 . S
O231 Tb200 2.341 . S
O231 C219 1.266 . S
H232 C204 0.929 . S
H233 C205 0.932 1_554 S
H234 C207 0.937 . S
H235 C208 0.930 . S
H236 C213 0.929 . S
H237 C214 0.931 . S
H238 C216 0.930 . S
H239 C217 0.930 . S
Tb240 C242 2.809 . S
Tb240 O260 2.484 . S
Tb240 O261 2.440 . S
Tb240 O262 2.658 1_556 S
Tb240 O263 2.409 . S
Tb240 O264 2.378 . S
Tb240 O268 2.325 . S
Tb240 O271 2.341 . S
Tb241 C251 2.809 . S
Tb241 O262 2.325 . S
Tb241 O265 2.341 . S
Tb241 O266 2.484 . S
Tb241 O267 2.440 . S
Tb241 O268 2.658 1_554 S
Tb241 O269 2.409 . S
Tb241 O270 2.378 . S
C242 Tb240 2.809 . S
C242 C243 1.514 . S
C242 O260 1.248 . S
C242 O261 1.266 . S
C243 C242 1.514 . S
C243 C244 1.359 . S
C243 C248 1.348 . S
C244 C243 1.359 . S
C244 C245 1.380 . S
C244 H272 0.929 . S
C245 C244 1.380 . S
C245 C246 1.347 . S
C245 H273 0.931 . S
C246 C245 1.347 . S
C246 C247 1.369 . S
C247 C246 1.369 . S
C247 C248 1.408 . S
C247 H274 0.930 . S
C248 C243 1.348 . S
C248 C247 1.408 . S
C248 H275 0.930 . S
C249 O262 1.281 . S
C249 O263 1.254 1_554 S
C250 O264 1.236 . S
C250 O265 1.266 1_556 S
C251 Tb241 2.809 . S
C251 C252 1.514 . S
C251 O266 1.248 . S
C251 O267 1.266 . S
C252 C251 1.514 . S
C252 C253 1.359 . S
C252 C257 1.348 . S
C253 C252 1.359 . S
C253 C254 1.380 . S
C253 H276 0.929 . S
C254 C253 1.380 . S
C254 C255 1.347 . S
C254 H277 0.931 . S
C255 C254 1.347 . S
C255 C256 1.369 . S
C256 C255 1.369 . S
C256 C257 1.408 . S
C256 H278 0.930 . S
C257 C252 1.348 . S
C257 C256 1.408 . S
C257 H279 0.930 . S
C258 O268 1.281 . S
C258 O269 1.254 1_556 S
C259 O270 1.236 . S
C259 O271 1.266 1_554 S
O260 Tb240 2.484 . S
O260 C242 1.248 . S
O261 Tb240 2.440 . S
O261 C242 1.266 . S
O262 Tb240 2.658 1_554 S
O262 Tb241 2.325 . S
O262 C249 1.281 . S
O263 Tb240 2.409 . S
O263 C249 1.254 1_556 S
O264 Tb240 2.378 . S
O264 C250 1.236 . S
O265 Tb241 2.341 . S
O265 C250 1.266 1_554 S
O266 Tb241 2.484 . S
O266 C251 1.248 . S
O267 Tb241 2.440 . S
O267 C251 1.266 . S
O268 Tb240 2.325 . S
O268 Tb241 2.658 1_556 S
O268 C258 1.281 . S
O269 Tb241 2.409 . S
O269 C258 1.254 1_554 S
O270 Tb241 2.378 . S
O270 C259 1.236 . S
O271 Tb240 2.341 . S
O271 C259 1.266 1_556 S
H272 C244 0.929 . S
H273 C245 0.931 . S
H274 C247 0.930 . S
H275 C248 0.930 . S
H276 C253 0.929 . S
H277 C254 0.931 . S
H278 C256 0.930 . S
H279 C257 0.930 . S
Tb280 C282 2.809 1_455 S
Tb280 O300 2.484 . S
Tb280 O301 2.440 1_455 S
Tb280 O302 2.658 1_455 S
Tb280 O303 2.409 1_455 S
Tb280 O304 2.378 1_455 S
Tb280 O308 2.325 . S
Tb280 O311 2.341 . S
Tb281 C291 2.809 1_655 S
Tb281 O302 2.325 . S
Tb281 O305 2.341 . S
Tb281 O306 2.484 . S
Tb281 O307 2.440 1_655 S
Tb281 O308 2.658 1_655 S
Tb281 O309 2.409 1_655 S
Tb281 O310 2.378 1_655 S
C282 Tb280 2.809 1_655 S
C282 C283 1.514 . S
C282 O300 1.248 1_655 S
C282 O301 1.266 . S
C283 C282 1.514 . S
C283 C284 1.359 1_655 S
C283 C288 1.348 . S
C284 C283 1.359 1_455 S
C284 C285 1.380 1_455 S
C284 H312 0.929 . S
C285 C284 1.380 1_655 S
C285 C286 1.347 . S
C285 H313 0.931 1_655 S
C286 C285 1.347 . S
C286 C287 1.369 . S
C287 C286 1.369 . S
C287 C288 1.408 . S
C287 H314 0.930 . S
C288 C283 1.348 . S
C288 C287 1.408 . S
C288 H315 0.930 . S
C289 O302 1.281 . S
C289 O303 1.254 . S
C290 O304 1.236 . S
C290 O305 1.266 . S
C291 Tb281 2.809 1_455 S
C291 C292 1.514 . S
C291 O306 1.248 1_455 S
C291 O307 1.266 . S
C292 C291 1.514 . S
C292 C293 1.348 1_455 S
C292 C297 1.348 . S
C293 C292 1.348 1_655 S
C293 C294 1.367 1_655 S
C293 H316 0.954 . S
C294 C293 1.367 1_455 S
C294 C295 1.347 . S
C294 H317 0.931 1_455 S
C295 C294 1.347 . S
C295 C296 1.369 . S
C296 C295 1.369 . S
C296 C297 1.408 . S
C296 H318 0.930 . S
C297 C292 1.348 . S
C297 C296 1.408 . S
C297 H319 0.930 . S
C298 O308 1.281 . S
C298 O309 1.254 . S
C299 O310 1.236 . S
C299 O311 1.266 . S
O300 Tb280 2.484 . S
O300 C282 1.248 1_455 S
O301 Tb280 2.440 1_655 S
O301 C282 1.266 . S
O302 Tb280 2.658 1_655 S
O302 Tb281 2.325 . S
O302 C289 1.281 . S
O303 Tb280 2.409 1_655 S
O303 C289 1.254 . S
O304 Tb280 2.378 1_655 S
O304 C290 1.236 . S
O305 Tb281 2.341 . S
O305 C290 1.266 . S
O306 Tb281 2.484 . S
O306 C291 1.248 1_655 S
O307 Tb281 2.440 1_455 S
O307 C291 1.266 . S
O308 Tb280 2.325 . S
O308 Tb281 2.658 1_455 S
O308 C298 1.281 . S
O309 Tb281 2.409 1_455 S
O309 C298 1.254 . S
O310 Tb281 2.378 1_455 S
O310 C299 1.236 . S
O311 Tb280 2.341 . S
O311 C299 1.266 . S
H312 C284 0.929 . S
H313 C285 0.931 1_455 S
H314 C287 0.930 . S
H315 C288 0.930 . S
H316 C293 0.954 . S
H317 C294 0.931 1_655 S
H318 C296 0.930 . S
H319 C297 0.930 . S
H320 C338 0.951 . S
H321 C340 0.951 . S
H322 C342 0.950 . S
H323 C343 0.950 . S
H324 C345 0.950 . S
H325 C348 0.950 . S
H326 C349 0.950 . S
H327 C351 0.950 . S
H328 C352 0.950 . S
H329 C353 0.951 . S
H330 C355 0.951 . S
H331 C357 0.950 . S
H332 C358 0.950 . S
H333 C360 0.950 . S
H334 C363 0.950 . S
H335 C364 0.950 . S
H336 C366 0.950 . S
H337 C367 0.950 . S
C338 H320 0.951 . S
C338 C339 1.366 . S
C338 C340 1.388 . S
C339 C338 1.366 . S
C339 C343 1.385 . S
C340 H321 0.951 . S
C340 C338 1.388 . S
C340 C341 1.366 . S
C341 C340 1.366 . S
C341 C342 1.414 . S
C341 C344 1.499 . S
C342 H322 0.950 . S
C342 C341 1.414 . S
C342 C343 1.374 . S
C343 H323 0.950 . S
C343 C339 1.385 . S
C343 C342 1.374 . S
C344 C341 1.499 . S
C344 C345 1.373 . S
C344 C346 1.389 . S
C345 H324 0.950 . S
C345 C344 1.373 . S
C345 C361 1.377 . S
C346 C344 1.389 . S
C346 C347 1.524 . S
C346 C360 1.377 . S
C347 C346 1.524 . S
C347 C348 1.397 . S
C347 C352 1.363 . S
C348 H325 0.950 . S
C348 C347 1.397 . S
C348 C349 1.334 . S
C349 H326 0.950 . S
C349 C348 1.334 . S
C349 C350 1.287 . S
C350 C349 1.287 . S
C350 C351 1.524 . S
C350 H369 0.913 1_545 S
C351 H327 0.950 . S
C351 C350 1.524 . S
C351 C352 1.415 . S
C352 H328 0.950 . S
C352 C347 1.363 . S
C352 C351 1.415 . S
C353 H329 0.951 . S
C353 C354 1.366 . S
C353 C355 1.388 . S
C354 C353 1.366 . S
C354 C358 1.385 . S
C355 H330 0.951 . S
C355 C353 1.388 . S
C355 C356 1.366 . S
C356 C355 1.366 . S
C356 C357 1.414 . S
C356 C359 1.499 . S
C357 H331 0.950 . S
C357 C356 1.414 . S
C357 C358 1.374 . S
C358 H332 0.950 . S
C358 C354 1.385 . S
C358 C357 1.374 . S
C359 C356 1.499 . S
C359 C360 1.373 . S
C359 C361 1.389 . S
C360 H333 0.950 . S
C360 C346 1.377 . S
C360 C359 1.373 . S
C361 C345 1.377 . S
C361 C359 1.389 . S
C361 C362 1.524 . S
C362 C361 1.524 . S
C362 C363 1.397 . S
C362 C367 1.363 . S
C363 H334 0.950 . S
C363 C362 1.397 . S
C363 C364 1.334 . S
C364 H335 0.950 . S
C364 C363 1.334 . S
C364 C365 1.287 . S
C365 C364 1.287 . S
C365 C366 1.524 . S
C365 H368 0.999 . S
C366 H336 0.950 . S
C366 C365 1.524 . S
C366 C367 1.415 . S
C367 H337 0.950 . S
C367 C362 1.363 . S
C367 C366 1.415 . S
H368 C365 0.999 . S
H369 C350 0.913 1_565 S
H370 C388 0.951 . S
H371 C390 0.951 . S
H372 C392 0.950 . S
H373 C393 0.950 . S
H374 C395 0.950 . S
H375 C398 0.950 . S
H376 C399 0.950 . S
H377 C401 0.950 . S
H378 C402 0.950 . S
H379 C403 0.951 . S
H380 C405 0.951 . S
H381 C407 0.950 . S
H382 C408 0.950 . S
H383 C410 0.950 . S
H384 C413 0.950 . S
H385 C414 0.950 . S
H386 C416 0.950 . S
H387 C417 0.950 . S
C388 H370 0.951 . S
C388 C389 1.366 . S
C388 C390 1.388 . S
C389 C388 1.366 . S
C389 C393 1.385 . S
C390 H371 0.951 . S
C390 C388 1.388 . S
C390 C391 1.366 . S
C391 C390 1.366 . S
C391 C392 1.414 . S
C391 C394 1.499 . S
C392 H372 0.950 . S
C392 C391 1.414 . S
C392 C393 1.374 . S
C393 H373 0.950 . S
C393 C389 1.385 . S
C393 C392 1.374 . S
C394 C391 1.499 . S
C394 C395 1.373 . S
C394 C396 1.389 . S
C395 H374 0.950 . S
C395 C394 1.373 . S
C395 C411 1.377 . S
C396 C394 1.389 . S
C396 C397 1.524 . S
C396 C410 1.377 . S
C397 C396 1.524 . S
C397 C398 1.397 . S
C397 C402 1.363 . S
C398 H375 0.950 . S
C398 C397 1.397 . S
C398 C399 1.334 . S
C399 H376 0.950 . S
C399 C398 1.334 . S
C399 C400 1.287 . S
C400 C399 1.287 . S
C400 C401 1.524 . S
C400 H419 0.913 . S
C401 H377 0.950 . S
C401 C400 1.524 . S
C401 C402 1.415 . S
C402 H378 0.950 . S
C402 C397 1.363 . S
C402 C401 1.415 . S
C403 H379 0.951 . S
C403 C404 1.366 . S
C403 C405 1.388 . S
C404 C403 1.366 . S
C404 C408 1.385 . S
C405 H380 0.951 . S
C405 C403 1.388 . S
C405 C406 1.366 . S
C406 C405 1.366 . S
C406 C407 1.414 . S
C406 C409 1.499 . S
C407 H381 0.950 . S
C407 C406 1.414 . S
C407 C408 1.374 . S
C408 H382 0.950 . S
C408 C404 1.385 . S
C408 C407 1.374 . S
C409 C406 1.499 . S
C409 C410 1.373 . S
C409 C411 1.389 . S
C410 H383 0.950 . S
C410 C396 1.377 . S
C410 C409 1.373 . S
C411 C395 1.377 . S
C411 C409 1.389 . S
C411 C412 1.524 . S
C412 C411 1.524 . S
C412 C413 1.397 . S
C412 C417 1.363 . S
C413 H384 0.950 . S
C413 C412 1.397 . S
C413 C414 1.334 . S
C414 H385 0.950 . S
C414 C413 1.334 . S
C414 C415 1.287 . S
C415 C414 1.287 . S
C415 C416 1.524 . S
C415 H418 0.999 . S
C416 H386 0.950 . S
C416 C415 1.524 . S
C416 C417 1.415 . S
C417 H387 0.950 . S
C417 C412 1.363 . S
C417 C416 1.415 . S
H418 C415 0.999 . S
H419 C400 0.913 . S
H420 C438 0.951 . S
H421 C440 0.951 . S
H422 C442 0.950 . S
H423 C443 0.950 . S
H424 C445 0.950 . S
H425 C448 0.950 . S
H426 C449 0.950 . S
H427 C451 0.950 1_554 S
H428 C452 0.950 . S
H429 C453 0.951 . S
H430 C455 0.951 . S
H431 C457 0.950 . S
H432 C458 0.949 1_554 S
H433 C460 0.950 . S
H434 C463 0.950 . S
H435 C464 0.950 . S
H436 C466 0.950 . S
H437 C467 0.950 . S
C438 H420 0.951 . S
C438 C439 1.366 . S
C438 C440 1.388 . S
C439 C438 1.366 . S
C439 C443 1.385 . S
C440 H421 0.951 . S
C440 C438 1.388 . S
C440 C441 1.366 . S
C441 C440 1.366 . S
C441 C442 1.414 . S
C441 C444 1.499 . S
C442 H422 0.950 . S
C442 C441 1.414 . S
C442 C443 1.374 . S
C443 H423 0.950 . S
C443 C439 1.385 . S
C443 C442 1.374 . S
C444 C441 1.499 . S
C444 C445 1.373 . S
C444 C446 1.389 . S
C445 H424 0.950 . S
C445 C444 1.373 . S
C445 C461 1.377 . S
C446 C444 1.389 . S
C446 C447 1.524 . S
C446 C460 1.377 . S
C447 C446 1.524 . S
C447 C448 1.397 . S
C447 C452 1.363 . S
C448 H425 0.950 . S
C448 C447 1.397 . S
C448 C449 1.334 . S
C449 H426 0.950 . S
C449 C448 1.334 . S
C449 C450 1.287 . S
C450 C449 1.287 . S
C450 C451 1.524 . S
C450 H469 0.913 . S
C451 H427 0.950 1_556 S
C451 C450 1.524 . S
C451 C452 1.415 . S
C452 H428 0.950 . S
C452 C447 1.363 . S
C452 C451 1.415 . S
C453 H429 0.951 . S
C453 C454 1.366 . S
C453 C455 1.388 . S
C454 C453 1.366 . S
C454 C458 1.385 . S
C455 H430 0.951 . S
C455 C453 1.388 . S
C455 C456 1.366 . S
C456 C455 1.366 . S
C456 C457 1.414 . S
C456 C459 1.499 . S
C457 H431 0.950 . S
C457 C456 1.414 . S
C457 C458 1.374 . S
C458 H432 0.949 1_556 S
C458 C454 1.385 . S
C458 C457 1.374 . S
C459 C456 1.499 . S
C459 C460 1.373 . S
C459 C461 1.389 . S
C460 H433 0.950 . S
C460 C446 1.377 . S
C460 C459 1.373 . S
C461 C445 1.377 . S
C461 C459 1.389 . S
C461 C462 1.524 . S
C462 C461 1.524 . S
C462 C463 1.397 . S
C462 C467 1.363 . S
C463 H434 0.950 . S
C463 C462 1.397 . S
C463 C464 1.334 . S
C464 H435 0.950 . S
C464 C463 1.334 . S
C464 C465 1.287 . S
C465 C464 1.287 . S
C465 C466 1.524 . S
C465 H468 0.999 . S
C466 H436 0.950 . S
C466 C465 1.524 . S
C466 C467 1.415 . S
C467 H437 0.950 . S
C467 C462 1.363 . S
C467 C466 1.415 . S
H468 C465 0.999 . S
H469 C450 0.913 . S
H470 C488 0.951 . S
H471 C490 0.951 . S
H472 C492 0.950 . S
H473 C493 0.950 . S
H474 C495 0.950 . S
H475 C498 0.950 . S
H476 C499 0.950 . S
H477 C501 0.950 . S
H478 C502 0.950 . S
H479 C503 0.951 . S
H480 C505 0.951 . S
H481 C507 0.950 . S
H482 C508 0.950 . S
H483 C510 0.950 . S
H484 C513 0.950 . S
H485 C514 0.950 . S
H486 C516 0.950 . S
H487 C517 0.950 . S
C488 H470 0.951 . S
C488 C489 1.366 . S
C488 C490 1.388 . S
C489 C488 1.366 . S
C489 C493 1.385 . S
C490 H471 0.951 . S
C490 C488 1.388 . S
C490 C491 1.366 . S
C491 C490 1.366 . S
C491 C492 1.414 . S
C491 C494 1.499 . S
C492 H472 0.950 . S
C492 C491 1.414 . S
C492 C493 1.374 . S
C493 H473 0.950 . S
C493 C489 1.385 . S
C493 C492 1.374 . S
C494 C491 1.499 . S
C494 C495 1.373 . S
C494 C496 1.389 . S
C495 H474 0.950 . S
C495 C494 1.373 . S
C495 C511 1.377 . S
C496 C494 1.389 . S
C496 C497 1.524 . S
C496 C510 1.377 . S
C497 C496 1.524 . S
C497 C498 1.397 . S
C497 C502 1.363 . S
C498 H475 0.950 . S
C498 C497 1.397 . S
C498 C499 1.334 1_554 S
C499 H476 0.950 . S
C499 C498 1.334 1_556 S
C499 C500 1.287 . S
C500 C499 1.287 . S
C500 C501 1.524 . S
C500 H519 0.913 . S
C501 H477 0.950 . S
C501 C500 1.524 . S
C501 C502 1.415 1_556 S
C502 H478 0.950 . S
C502 C497 1.363 . S
C502 C501 1.415 1_554 S
C503 H479 0.951 . S
C503 C504 1.366 . S
C503 C505 1.388 . S
C504 C503 1.366 . S
C504 C508 1.385 . S
C505 H480 0.951 . S
C505 C503 1.388 . S
C505 C506 1.366 . S
C506 C505 1.366 . S
C506 C507 1.414 . S
C506 C509 1.499 . S
C507 H481 0.950 . S
C507 C506 1.414 . S
C507 C508 1.374 . S
C508 H482 0.950 . S
C508 C504 1.385 . S
C508 C507 1.374 . S
C509 C506 1.499 . S
C509 C510 1.373 . S
C509 C511 1.389 . S
C510 H483 0.950 . S
C510 C496 1.377 . S
C510 C509 1.373 . S
C511 C495 1.377 . S
C511 C509 1.389 . S
C511 C512 1.524 . S
C512 C511 1.524 . S
C512 C513 1.397 . S
C512 C517 1.363 . S
C513 H484 0.950 . S
C513 C512 1.397 . S
C513 C514 1.334 . S
C514 H485 0.950 . S
C514 C513 1.334 . S
C514 C515 1.287 . S
C515 C514 1.287 . S
C515 C516 1.524 . S
C515 H518 0.999 . S
C516 H486 0.950 . S
C516 C515 1.524 . S
C516 C517 1.415 . S
C517 H487 0.950 . S
C517 C512 1.363 . S
C517 C516 1.415 . S
H518 C515 0.999 . S
H519 C500 0.913 . S
H520 C538 0.951 . S
H521 C540 0.951 . S
H522 C542 0.950 . S
H523 C543 0.950 . S
H524 C545 0.950 . S
H525 C548 0.950 . S
H526 C549 0.950 . S
H527 C551 0.950 . S
H528 C552 0.950 . S
H529 C553 0.951 . S
H530 C555 0.951 . S
H531 C557 0.950 . S
H532 C558 0.950 . S
H533 C560 0.950 . S
H534 C563 0.950 . S
H535 C564 0.950 . S
H536 C566 0.950 . S
H537 C567 0.950 . S
C538 H520 0.951 . S
C538 C539 1.366 . S
C538 C540 1.388 . S
C539 C538 1.366 . S
C539 C543 1.385 . S
C540 H521 0.951 . S
C540 C538 1.388 . S
C540 C541 1.366 . S
C541 C540 1.366 . S
C541 C542 1.414 . S
C541 C544 1.499 . S
C542 H522 0.950 . S
C542 C541 1.414 . S
C542 C543 1.374 . S
C543 H523 0.950 . S
C543 C539 1.385 . S
C543 C542 1.374 . S
C544 C541 1.499 . S
C544 C545 1.373 . S
C544 C546 1.389 . S
C545 H524 0.950 . S
C545 C544 1.373 . S
C545 C561 1.377 . S
C546 C544 1.389 . S
C546 C547 1.524 . S
C546 C560 1.377 . S
C547 C546 1.524 . S
C547 C548 1.397 . S
C547 C552 1.363 . S
C548 H525 0.950 . S
C548 C547 1.397 . S
C548 C549 1.334 . S
C549 H526 0.950 . S
C549 C548 1.334 . S
C549 C550 1.287 . S
C550 C549 1.287 . S
C550 C551 1.524 . S
C550 H569 0.913 1_565 S
C551 H527 0.950 . S
C551 C550 1.524 . S
C551 C552 1.415 . S
C552 H528 0.950 . S
C552 C547 1.363 . S
C552 C551 1.415 . S
C553 H529 0.951 . S
C553 C554 1.366 . S
C553 C555 1.388 . S
C554 C553 1.366 . S
C554 C558 1.385 . S
C555 H530 0.951 . S
C555 C553 1.388 . S
C555 C556 1.366 . S
C556 C555 1.366 . S
C556 C557 1.414 . S
C556 C559 1.499 . S
C557 H531 0.950 . S
C557 C556 1.414 . S
C557 C558 1.374 . S
C558 H532 0.950 . S
C558 C554 1.385 . S
C558 C557 1.374 . S
C559 C556 1.499 . S
C559 C560 1.373 . S
C559 C561 1.389 . S
C560 H533 0.950 . S
C560 C546 1.377 . S
C560 C559 1.373 . S
C561 C545 1.377 . S
C561 C559 1.389 . S
C561 C562 1.524 . S
C562 C561 1.524 . S
C562 C563 1.397 . S
C562 C567 1.363 . S
C563 H534 0.950 . S
C563 C562 1.397 . S
C563 C564 1.334 . S
C564 H535 0.950 . S
C564 C563 1.334 . S
C564 C565 1.287 . S
C565 C564 1.287 . S
C565 C566 1.524 . S
C565 H568 0.999 . S
C566 H536 0.950 . S
C566 C565 1.524 . S
C566 C567 1.415 . S
C567 H537 0.950 . S
C567 C562 1.363 . S
C567 C566 1.415 . S
H568 C565 0.999 . S
H569 C550 0.913 1_545 S
H570 C588 0.951 . S
H571 C590 0.951 . S
H572 C592 0.950 . S
H573 C593 0.950 . S
H574 C595 0.950 . S
H575 C598 0.950 . S
H576 C599 0.950 . S
H577 C601 0.950 . S
H578 C602 0.950 . S
H579 C603 0.951 . S
H580 C605 0.951 . S
H581 C607 0.950 . S
H582 C608 0.950 . S
H583 C610 0.950 . S
H584 C613 0.950 . S
H585 C614 0.950 . S
H586 C616 0.950 . S
H587 C617 0.950 . S
C588 H570 0.951 . S
C588 C589 1.366 . S
C588 C590 1.388 . S
C589 C588 1.366 . S
C589 C593 1.385 . S
C590 H571 0.951 . S
C590 C588 1.388 . S
C590 C591 1.366 . S
C591 C590 1.366 . S
C591 C592 1.414 . S
C591 C594 1.499 . S
C592 H572 0.950 . S
C592 C591 1.414 . S
C592 C593 1.374 . S
C593 H573 0.950 . S
C593 C589 1.385 . S
C593 C592 1.374 . S
C594 C591 1.499 . S
C594 C595 1.373 . S
C594 C596 1.389 . S
C595 H574 0.950 . S
C595 C594 1.373 . S
C595 C611 1.377 . S
C596 C594 1.389 . S
C596 C597 1.524 . S
C596 C610 1.377 . S
C597 C596 1.524 . S
C597 C598 1.397 . S
C597 C602 1.363 . S
C598 H575 0.950 . S
C598 C597 1.397 . S
C598 C599 1.334 . S
C599 H576 0.950 . S
C599 C598 1.334 . S
C599 C600 1.287 . S
C600 C599 1.287 . S
C600 C601 1.524 . S
C600 H619 0.913 . S
C601 H577 0.950 . S
C601 C600 1.524 . S
C601 C602 1.415 . S
C602 H578 0.950 . S
C602 C597 1.363 . S
C602 C601 1.415 . S
C603 H579 0.951 . S
C603 C604 1.366 . S
C603 C605 1.388 . S
C604 C603 1.366 . S
C604 C608 1.385 . S
C605 H580 0.951 . S
C605 C603 1.388 . S
C605 C606 1.366 . S
C606 C605 1.366 . S
C606 C607 1.414 . S
C606 C609 1.499 . S
C607 H581 0.950 . S
C607 C606 1.414 . S
C607 C608 1.374 . S
C608 H582 0.950 . S
C608 C604 1.385 . S
C608 C607 1.374 . S
C609 C606 1.499 . S
C609 C610 1.373 . S
C609 C611 1.389 . S
C610 H583 0.950 . S
C610 C596 1.377 . S
C610 C609 1.373 . S
C611 C595 1.377 . S
C611 C609 1.389 . S
C611 C612 1.524 . S
C612 C611 1.524 . S
C612 C613 1.397 . S
C612 C617 1.363 . S
C613 H584 0.950 . S
C613 C612 1.397 . S
C613 C614 1.334 . S
C614 H585 0.950 . S
C614 C613 1.334 . S
C614 C615 1.287 . S
C615 C614 1.287 . S
C615 C616 1.524 . S
C615 H618 0.999 . S
C616 H586 0.950 . S
C616 C615 1.524 . S
C616 C617 1.415 . S
C617 H587 0.950 . S
C617 C612 1.363 . S
C617 C616 1.415 . S
H618 C615 0.999 . S
H619 C600 0.913 . S
H620 C638 0.951 . S
H621 C640 0.951 . S
H622 C642 0.950 . S
H623 C643 0.950 . S
H624 C645 0.950 . S
H625 C648 0.950 . S
H626 C649 0.950 . S
H627 C651 0.950 . S
H628 C652 0.950 . S
H629 C653 0.951 . S
H630 C655 0.951 . S
H631 C657 0.950 . S
H632 C658 0.950 . S
H633 C660 0.950 . S
H634 C663 0.950 . S
H635 C664 0.950 . S
H636 C666 0.950 . S
H637 C667 0.950 . S
C638 H620 0.951 . S
C638 C639 1.366 . S
C638 C640 1.388 . S
C639 C638 1.366 . S
C639 C643 1.385 . S
C640 H621 0.951 . S
C640 C638 1.388 . S
C640 C641 1.366 . S
C641 C640 1.366 . S
C641 C642 1.414 . S
C641 C644 1.499 . S
C642 H622 0.950 . S
C642 C641 1.414 . S
C642 C643 1.374 . S
C643 H623 0.950 . S
C643 C639 1.385 . S
C643 C642 1.374 . S
C644 C641 1.499 . S
C644 C645 1.373 . S
C644 C646 1.389 . S
C645 H624 0.950 . S
C645 C644 1.373 . S
C645 C661 1.377 . S
C646 C644 1.389 . S
C646 C647 1.524 . S
C646 C660 1.377 . S
C647 C646 1.524 . S
C647 C648 1.397 . S
C647 C652 1.363 . S
C648 H625 0.950 . S
C648 C647 1.397 . S
C648 C649 1.334 . S
C649 H626 0.950 . S
C649 C648 1.334 . S
C649 C650 1.287 . S
C650 C649 1.287 . S
C650 C651 1.524 . S
C650 H669 0.913 . S
C651 H627 0.950 . S
C651 C650 1.524 . S
C651 C652 1.415 . S
C652 H628 0.950 . S
C652 C647 1.363 . S
C652 C651 1.415 . S
C653 H629 0.951 . S
C653 C654 1.366 . S
C653 C655 1.388 . S
C654 C653 1.366 . S
C654 C658 1.385 . S
C655 H630 0.951 . S
C655 C653 1.388 . S
C655 C656 1.366 . S
C656 C655 1.366 . S
C656 C657 1.414 . S
C656 C659 1.499 . S
C657 H631 0.950 . S
C657 C656 1.414 . S
C657 C658 1.374 . S
C658 H632 0.950 . S
C658 C654 1.385 . S
C658 C657 1.374 . S
C659 C656 1.499 . S
C659 C660 1.373 . S
C659 C661 1.389 . S
C660 H633 0.950 . S
C660 C646 1.377 . S
C660 C659 1.373 . S
C661 C645 1.377 . S
C661 C659 1.389 . S
C661 C662 1.524 . S
C662 C661 1.524 . S
C662 C663 1.397 . S
C662 C667 1.363 . S
C663 H634 0.950 . S
C663 C662 1.397 . S
C663 C664 1.334 1_554 S
C664 H635 0.950 . S
C664 C663 1.334 1_556 S
C664 C665 1.287 . S
C665 C664 1.287 . S
C665 C666 1.524 . S
C665 H668 0.999 . S
C666 H636 0.950 . S
C666 C665 1.524 . S
C666 C667 1.415 1_556 S
C667 H637 0.950 . S
C667 C662 1.363 . S
C667 C666 1.415 1_554 S
H668 C665 0.999 . S
H669 C650 0.913 . S
H670 C688 0.951 . S
H671 C690 0.951 . S
H672 C692 0.950 . S
H673 C693 0.950 . S
H674 C695 0.950 . S
H675 C698 0.950 . S
H676 C699 0.950 . S
H677 C701 0.950 . S
H678 C702 0.950 . S
H679 C703 0.951 . S
H680 C705 0.951 . S
H681 C707 0.950 . S
H682 C708 0.950 . S
H683 C710 0.950 . S
H684 C713 0.950 . S
H685 C714 0.950 . S
H686 C716 0.950 . S
H687 C717 0.950 . S
C688 H670 0.951 . S
C688 C689 1.366 . S
C688 C690 1.388 . S
C689 C688 1.366 . S
C689 C693 1.385 . S
C690 H671 0.951 . S
C690 C688 1.388 . S
C690 C691 1.366 . S
C691 C690 1.366 . S
C691 C692 1.414 . S
C691 C694 1.499 . S
C692 H672 0.950 . S
C692 C691 1.414 . S
C692 C693 1.374 . S
C693 H673 0.950 . S
C693 C689 1.385 . S
C693 C692 1.374 . S
C694 C691 1.499 . S
C694 C695 1.373 . S
C694 C696 1.389 . S
C695 H674 0.950 . S
C695 C694 1.373 . S
C695 C711 1.377 . S
C696 C694 1.389 . S
C696 C697 1.524 . S
C696 C710 1.377 . S
C697 C696 1.524 . S
C697 C698 1.397 . S
C697 C702 1.363 . S
C698 H675 0.950 . S
C698 C697 1.397 . S
C698 C699 1.334 . S
C699 H676 0.950 . S
C699 C698 1.334 . S
C699 C700 1.287 . S
C700 C699 1.287 . S
C700 C701 1.524 . S
C700 H719 0.913 . S
C701 H677 0.950 . S
C701 C700 1.524 . S
C701 C702 1.415 . S
C702 H678 0.950 . S
C702 C697 1.363 . S
C702 C701 1.415 . S
C703 H679 0.951 . S
C703 C704 1.366 . S
C703 C705 1.388 . S
C704 C703 1.366 . S
C704 C708 1.385 . S
C705 H680 0.951 . S
C705 C703 1.388 . S
C705 C706 1.366 . S
C706 C705 1.366 . S
C706 C707 1.414 . S
C706 C709 1.499 . S
C707 H681 0.950 . S
C707 C706 1.414 . S
C707 C708 1.374 . S
C708 H682 0.950 . S
C708 C704 1.385 . S
C708 C707 1.374 . S
C709 C706 1.499 . S
C709 C710 1.373 . S
C709 C711 1.389 . S
C710 H683 0.950 . S
C710 C696 1.377 . S
C710 C709 1.373 . S
C711 C695 1.377 . S
C711 C709 1.389 . S
C711 C712 1.524 . S
C712 C711 1.524 . S
C712 C713 1.397 . S
C712 C717 1.363 . S
C713 H684 0.950 . S
C713 C712 1.397 . S
C713 C714 1.334 . S
C714 H685 0.950 . S
C714 C713 1.334 . S
C714 C715 1.287 . S
C715 C714 1.287 . S
C715 C716 1.524 . S
C715 H718 0.999 . S
C716 H686 0.950 . S
C716 C715 1.524 . S
C716 C717 1.415 . S
C717 H687 0.950 . S
C717 C712 1.363 . S
C717 C716 1.415 . S
H718 C715 0.999 . S
H719 C700 0.913 . S
H720 C738 0.951 . S
H721 C740 0.951 . S
H722 C742 0.950 . S
H723 C743 0.950 . S
H724 C745 0.950 . S
H725 C748 0.950 . S
H726 C749 0.950 . S
H727 C751 0.950 . S
H728 C752 0.950 . S
H729 C753 0.951 . S
H730 C755 0.951 . S
H731 C757 0.950 . S
H732 C758 0.950 . S
H733 C760 0.950 . S
H734 C763 0.950 . S
H735 C764 0.950 . S
H736 C766 0.950 . S
H737 C767 0.950 . S
C738 H720 0.951 . S
C738 C739 1.366 . S
C738 C740 1.388 . S
C739 C738 1.366 . S
C739 C743 1.385 . S
C740 H721 0.951 . S
C740 C738 1.388 . S
C740 C741 1.366 . S
C741 C740 1.366 . S
C741 C742 1.414 . S
C741 C744 1.499 . S
C742 H722 0.950 . S
C742 C741 1.414 . S
C742 C743 1.374 . S
C743 H723 0.950 . S
C743 C739 1.385 . S
C743 C742 1.374 . S
C744 C741 1.499 . S
C744 C745 1.373 . S
C744 C746 1.389 . S
C745 H724 0.950 . S
C745 C744 1.373 . S
C745 C761 1.377 . S
C746 C744 1.389 . S
C746 C747 1.524 . S
C746 C760 1.377 . S
C747 C746 1.524 . S
C747 C748 1.397 . S
C747 C752 1.363 . S
C748 H725 0.950 . S
C748 C747 1.397 . S
C748 C749 1.334 . S
C749 H726 0.950 . S
C749 C748 1.334 . S
C749 C750 1.287 . S
C750 C749 1.287 . S
C750 C751 1.524 . S
C750 H769 0.913 . S
C751 H727 0.950 . S
C751 C750 1.524 . S
C751 C752 1.415 . S
C752 H728 0.950 . S
C752 C747 1.363 . S
C752 C751 1.415 . S
C753 H729 0.951 . S
C753 C754 1.366 . S
C753 C755 1.388 . S
C754 C753 1.366 . S
C754 C758 1.385 . S
C755 H730 0.951 . S
C755 C753 1.388 . S
C755 C756 1.366 . S
C756 C755 1.366 . S
C756 C757 1.414 . S
C756 C759 1.499 . S
C757 H731 0.950 . S
C757 C756 1.414 . S
C757 C758 1.374 . S
C758 H732 0.950 . S
C758 C754 1.385 . S
C758 C757 1.374 . S
C759 C756 1.499 . S
C759 C760 1.373 . S
C759 C761 1.389 . S
C760 H733 0.950 . S
C760 C746 1.377 . S
C760 C759 1.373 . S
C761 C745 1.377 . S
C761 C759 1.389 . S
C761 C762 1.524 . S
C762 C761 1.524 . S
C762 C763 1.397 . S
C762 C767 1.363 . S
C763 H734 0.950 . S
C763 C762 1.397 . S
C763 C764 1.334 . S
C764 H735 0.950 . S
C764 C763 1.334 . S
C764 C765 1.287 . S
C765 C764 1.287 . S
C765 C766 1.524 . S
C765 H768 0.999 . S
C766 H736 0.950 . S
C766 C765 1.524 . S
C766 C767 1.415 . S
C767 H737 0.950 . S
C767 C762 1.363 . S
C767 C766 1.415 . S
H768 C765 0.999 . S
H769 C750 0.913 . S
H770 C788 0.951 . S
H771 C790 0.951 . S
H772 C792 0.950 . S
H773 C793 0.950 . S
H774 C795 0.950 . S
H775 C798 0.950 . S
H776 C799 0.950 . S
H777 C801 0.950 . S
H778 C802 0.950 . S
H779 C803 0.951 . S
H780 C805 0.951 . S
H781 C807 0.950 . S
H782 C808 0.950 . S
H783 C810 0.950 . S
H784 C813 0.950 . S
H785 C814 0.950 . S
H786 C816 0.950 . S
H787 C817 0.950 . S
C788 H770 0.951 . S
C788 C789 1.366 . S
C788 C790 1.388 . S
C789 C788 1.366 . S
C789 C793 1.385 . S
C790 H771 0.951 . S
C790 C788 1.388 . S
C790 C791 1.366 . S
C791 C790 1.366 . S
C791 C792 1.414 . S
C791 C794 1.499 . S
C792 H772 0.950 . S
C792 C791 1.414 . S
C792 C793 1.374 . S
C793 H773 0.950 . S
C793 C789 1.385 . S
C793 C792 1.374 . S
C794 C791 1.499 . S
C794 C795 1.373 . S
C794 C796 1.389 . S
C795 H774 0.950 . S
C795 C794 1.373 . S
C795 C811 1.377 . S
C796 C794 1.389 . S
C796 C797 1.524 . S
C796 C810 1.377 . S
C797 C796 1.524 . S
C797 C798 1.397 . S
C797 C802 1.363 . S
C798 H775 0.950 . S
C798 C797 1.397 . S
C798 C799 1.334 . S
C799 H776 0.950 . S
C799 C798 1.334 . S
C799 C800 1.287 . S
C800 C799 1.287 . S
C800 C801 1.524 . S
C800 H819 0.913 . S
C801 H777 0.950 . S
C801 C800 1.524 . S
C801 C802 1.415 . S
C802 H778 0.950 . S
C802 C797 1.363 . S
C802 C801 1.415 . S
C803 H779 0.951 . S
C803 C804 1.366 . S
C803 C805 1.388 . S
C804 C803 1.366 . S
C804 C808 1.385 . S
C805 H780 0.951 . S
C805 C803 1.388 . S
C805 C806 1.366 . S
C806 C805 1.366 . S
C806 C807 1.414 . S
C806 C809 1.499 . S
C807 H781 0.950 . S
C807 C806 1.414 . S
C807 C808 1.374 . S
C808 H782 0.950 . S
C808 C804 1.385 . S
C808 C807 1.374 . S
C809 C806 1.499 . S
C809 C810 1.373 . S
C809 C811 1.389 . S
C810 H783 0.950 . S
C810 C796 1.377 . S
C810 C809 1.373 . S
C811 C795 1.377 . S
C811 C809 1.389 . S
C811 C812 1.524 . S
C812 C811 1.524 . S
C812 C813 1.397 . S
C812 C817 1.363 . S
C813 H784 0.950 . S
C813 C812 1.397 . S
C813 C814 1.334 . S
C814 H785 0.950 . S
C814 C813 1.334 . S
C814 C815 1.287 . S
C815 C814 1.287 . S
C815 C816 1.524 . S
C815 H818 0.999 . S
C816 H786 0.950 . S
C816 C815 1.524 . S
C816 C817 1.415 . S
C817 H787 0.950 . S
C817 C812 1.363 . S
C817 C816 1.415 . S
H818 C815 0.999 . S
H819 C800 0.913 . S
H820 C838 0.951 . S
H821 C840 0.951 . S
H822 C842 0.950 . S
H823 C843 0.950 . S
H824 C845 0.950 . S
H825 C848 0.950 . S
H826 C849 0.950 . S
H827 C851 0.950 . S
H828 C852 0.950 . S
H829 C853 0.951 . S
H830 C855 0.951 . S
H831 C857 0.950 . S
H832 C858 0.950 . S
H833 C860 0.950 . S
H834 C863 0.950 . S
H835 C864 0.950 . S
H836 C866 0.950 . S
H837 C867 0.950 . S
C838 H820 0.951 . S
C838 C839 1.366 . S
C838 C840 1.388 . S
C839 C838 1.366 . S
C839 C843 1.385 . S
C840 H821 0.951 . S
C840 C838 1.388 . S
C840 C841 1.366 . S
C841 C840 1.366 . S
C841 C842 1.414 . S
C841 C844 1.499 . S
C842 H822 0.950 . S
C842 C841 1.414 . S
C842 C843 1.374 . S
C843 H823 0.950 . S
C843 C839 1.385 . S
C843 C842 1.374 . S
C844 C841 1.499 . S
C844 C845 1.373 . S
C844 C846 1.389 . S
C845 H824 0.950 . S
C845 C844 1.373 . S
C845 C861 1.377 . S
C846 C844 1.389 . S
C846 C847 1.524 . S
C846 C860 1.377 . S
C847 C846 1.524 . S
C847 C848 1.397 . S
C847 C852 1.363 . S
C848 H825 0.950 . S
C848 C847 1.397 . S
C848 C849 1.334 . S
C849 H826 0.950 . S
C849 C848 1.334 . S
C849 C850 1.287 . S
C850 C849 1.287 . S
C850 C851 1.524 . S
C850 H869 0.913 . S
C851 H827 0.950 . S
C851 C850 1.524 . S
C851 C852 1.415 . S
C852 H828 0.950 . S
C852 C847 1.363 . S
C852 C851 1.415 . S
C853 H829 0.951 . S
C853 C854 1.366 . S
C853 C855 1.388 . S
C854 C853 1.366 . S
C854 C858 1.385 . S
C855 H830 0.951 . S
C855 C853 1.388 . S
C855 C856 1.366 . S
C856 C855 1.366 . S
C856 C857 1.414 . S
C856 C859 1.499 . S
C857 H831 0.950 . S
C857 C856 1.414 . S
C857 C858 1.374 . S
C858 H832 0.950 . S
C858 C854 1.385 . S
C858 C857 1.374 . S
C859 C856 1.499 . S
C859 C860 1.373 . S
C859 C861 1.389 . S
C860 H833 0.950 . S
C860 C846 1.377 . S
C860 C859 1.373 . S
C861 C845 1.377 . S
C861 C859 1.389 . S
C861 C862 1.524 . S
C862 C861 1.524 . S
C862 C863 1.397 . S
C862 C867 1.363 . S
C863 H834 0.950 . S
C863 C862 1.397 . S
C863 C864 1.334 . S
C864 H835 0.950 . S
C864 C863 1.334 . S
C864 C865 1.287 . S
C865 C864 1.287 . S
C865 C866 1.524 . S
C865 H868 0.999 . S
C866 H836 0.950 . S
C866 C865 1.524 . S
C866 C867 1.415 . S
C867 H837 0.950 . S
C867 C862 1.363 . S
C867 C866 1.415 . S
H868 C865 0.999 . S
H869 C850 0.913 . S
H870 C888 0.951 . S
H871 C890 0.951 . S
H872 C892 0.950 . S
H873 C893 0.950 . S
H874 C895 0.950 . S
H875 C898 0.950 . S
H876 C899 0.950 . S
H877 C901 0.950 . S
H878 C902 0.950 . S
H879 C903 0.951 . S
H880 C905 0.951 . S
H881 C907 0.950 . S
H882 C908 0.950 . S
H883 C910 0.950 . S
H884 C913 0.950 . S
H885 C914 0.950 . S
H886 C916 0.950 . S
H887 C917 0.950 . S
C888 H870 0.951 . S
C888 C889 1.366 . S
C888 C890 1.388 . S
C889 C888 1.366 . S
C889 C893 1.385 . S
C890 H871 0.951 . S
C890 C888 1.388 . S
C890 C891 1.366 . S
C891 C890 1.366 . S
C891 C892 1.414 . S
C891 C894 1.499 . S
C892 H872 0.950 . S
C892 C891 1.414 . S
C892 C893 1.374 . S
C893 H873 0.950 . S
C893 C889 1.385 . S
C893 C892 1.374 . S
C894 C891 1.499 . S
C894 C895 1.373 . S
C894 C896 1.389 . S
C895 H874 0.950 . S
C895 C894 1.373 . S
C895 C911 1.377 . S
C896 C894 1.389 . S
C896 C897 1.524 . S
C896 C910 1.377 . S
C897 C896 1.524 . S
C897 C898 1.397 . S
C897 C902 1.363 . S
C898 H875 0.950 . S
C898 C897 1.397 . S
C898 C899 1.334 . S
C899 H876 0.950 . S
C899 C898 1.334 . S
C899 C900 1.287 . S
C900 C899 1.287 . S
C900 C901 1.524 . S
C900 H919 0.913 . S
C901 H877 0.950 . S
C901 C900 1.524 . S
C901 C902 1.415 . S
C902 H878 0.950 . S
C902 C897 1.363 . S
C902 C901 1.415 . S
C903 H879 0.951 . S
C903 C904 1.366 . S
C903 C905 1.388 . S
C904 C903 1.366 . S
C904 C908 1.385 . S
C905 H880 0.951 . S
C905 C903 1.388 . S
C905 C906 1.366 . S
C906 C905 1.366 . S
C906 C907 1.414 . S
C906 C909 1.499 . S
C907 H881 0.950 . S
C907 C906 1.414 . S
C907 C908 1.374 . S
C908 H882 0.950 . S
C908 C904 1.385 . S
C908 C907 1.374 . S
C909 C906 1.499 . S
C909 C910 1.373 . S
C909 C911 1.389 . S
C910 H883 0.950 . S
C910 C896 1.377 . S
C910 C909 1.373 . S
C911 C895 1.377 . S
C911 C909 1.389 . S
C911 C912 1.524 . S
C912 C911 1.524 . S
C912 C913 1.397 . S
C912 C917 1.363 . S
C913 H884 0.950 . S
C913 C912 1.397 . S
C913 C914 1.334 . S
C914 H885 0.950 . S
C914 C913 1.334 . S
C914 C915 1.287 . S
C915 C914 1.287 . S
C915 C916 1.524 . S
C915 H918 0.999 . S
C916 H886 0.950 . S
C916 C915 1.524 . S
C916 C917 1.415 . S
C917 H887 0.950 . S
C917 C912 1.363 . S
C917 C916 1.415 . S
H918 C915 0.999 . S
H919 C900 0.913 . S
H920 C938 0.951 . S
H921 C940 0.951 . S
H922 C942 0.950 . S
H923 C943 0.950 . S
H924 C945 0.950 . S
H925 C948 0.950 . S
H926 C949 0.950 . S
H927 C951 0.950 . S
H928 C952 0.950 . S
H929 C953 0.951 . S
H930 C955 0.951 . S
H931 C957 0.950 . S
H932 C958 0.950 . S
H933 C960 0.950 . S
H934 C963 0.950 . S
H935 C964 0.950 . S
H936 C966 0.950 . S
H937 C967 0.950 . S
C938 H920 0.951 . S
C938 C939 1.366 . S
C938 C940 1.388 . S
C939 C938 1.366 . S
C939 C943 1.385 . S
C940 H921 0.951 . S
C940 C938 1.388 . S
C940 C941 1.366 . S
C941 C940 1.366 . S
C941 C942 1.414 . S
C941 C944 1.499 . S
C942 H922 0.950 . S
C942 C941 1.414 . S
C942 C943 1.374 . S
C943 H923 0.950 . S
C943 C939 1.385 . S
C943 C942 1.374 . S
C944 C941 1.499 . S
C944 C945 1.373 . S
C944 C946 1.389 . S
C945 H924 0.950 . S
C945 C944 1.373 . S
C945 C961 1.377 . S
C946 C944 1.389 . S
C946 C947 1.524 . S
C946 C960 1.377 . S
C947 C946 1.524 . S
C947 C948 1.397 . S
C947 C952 1.363 . S
C948 H925 0.950 . S
C948 C947 1.397 . S
C948 C949 1.334 . S
C949 H926 0.950 . S
C949 C948 1.334 . S
C949 C950 1.287 . S
C950 C949 1.287 . S
C950 C951 1.524 . S
C950 H969 0.913 . S
C951 H927 0.950 . S
C951 C950 1.524 . S
C951 C952 1.415 . S
C952 H928 0.950 . S
C952 C947 1.363 . S
C952 C951 1.415 . S
C953 H929 0.951 . S
C953 C954 1.366 . S
C953 C955 1.388 . S
C954 C953 1.366 . S
C954 C958 1.385 . S
C955 H930 0.951 . S
C955 C953 1.388 . S
C955 C956 1.366 . S
C956 C955 1.366 . S
C956 C957 1.414 . S
C956 C959 1.499 . S
C957 H931 0.950 . S
C957 C956 1.414 . S
C957 C958 1.374 . S
C958 H932 0.950 . S
C958 C954 1.385 . S
C958 C957 1.374 . S
C959 C956 1.499 . S
C959 C960 1.373 . S
C959 C961 1.389 . S
C960 H933 0.950 . S
C960 C946 1.377 . S
C960 C959 1.373 . S
C961 C945 1.377 . S
C961 C959 1.389 . S
C961 C962 1.524 . S
C962 C961 1.524 . S
C962 C963 1.397 . S
C962 C967 1.363 . S
C963 H934 0.950 . S
C963 C962 1.397 . S
C963 C964 1.334 . S
C964 H935 0.950 . S
C964 C963 1.334 . S
C964 C965 1.287 . S
C965 C964 1.287 . S
C965 C966 1.524 . S
C965 H968 0.999 . S
C966 H936 0.950 . S
C966 C965 1.524 . S
C966 C967 1.415 . S
C967 H937 0.950 . S
C967 C962 1.363 . S
C967 C966 1.415 . S
H968 C965 0.999 . S
H969 C950 0.913 . S
H970 C988 0.951 1_554 S
H971 C990 0.951 . S
H972 C992 0.950 . S
H973 C993 0.950 . S
H974 C995 0.950 . S
H975 C998 0.950 . S
H976 C999 0.950 . S
H977 C1001 0.950 . S
H978 C1002 0.950 . S
H979 C1003 0.951 . S
H980 C1005 0.951 . S
H981 C1007 0.950 . S
H982 C1008 0.950 . S
H983 C1010 0.950 . S
H984 C1013 0.950 . S
H985 C1014 0.950 . S
H986 C1016 0.950 . S
H987 C1017 0.950 . S
C988 H970 0.951 1_556 S
C988 C989 1.366 . S
C988 C990 1.388 . S
C989 C988 1.366 . S
C989 C993 1.385 . S
C990 H971 0.951 . S
C990 C988 1.388 . S
C990 C991 1.366 . S
C991 C990 1.366 . S
C991 C992 1.414 . S
C991 C994 1.499 . S
C992 H972 0.950 . S
C992 C991 1.414 . S
C992 C993 1.374 . S
C993 H973 0.950 . S
C993 C989 1.385 . S
C993 C992 1.374 . S
C994 C991 1.499 . S
C994 C995 1.373 . S
C994 C996 1.389 . S
C995 H974 0.950 . S
C995 C994 1.373 . S
C995 C1011 1.377 . S
C996 C994 1.389 . S
C996 C997 1.524 . S
C996 C1010 1.377 . S
C997 C996 1.524 . S
C997 C998 1.397 . S
C997 C1002 1.363 . S
C998 H975 0.950 . S
C998 C997 1.397 . S
C998 C999 1.334 . S
C999 H976 0.950 . S
C999 C998 1.334 . S
C999 C1000 1.287 . S
C1000 C999 1.287 . S
C1000 C1001 1.524 . S
C1000 H1019 0.913 . S
C1001 H977 0.950 . S
C1001 C1000 1.524 . S
C1001 C1002 1.415 . S
C1002 H978 0.950 . S
C1002 C997 1.363 . S
C1002 C1001 1.415 . S
C1003 H979 0.951 . S
C1003 C1004 1.366 . S
C1003 C1005 1.388 . S
C1004 C1003 1.366 . S
C1004 C1008 1.385 . S
C1005 H980 0.951 . S
C1005 C1003 1.388 . S
C1005 C1006 1.366 . S
C1006 C1005 1.366 . S
C1006 C1007 1.414 . S
C1006 C1009 1.499 . S
C1007 H981 0.950 . S
C1007 C1006 1.414 . S
C1007 C1008 1.374 . S
C1008 H982 0.950 . S
C1008 C1004 1.385 . S
C1008 C1007 1.374 . S
C1009 C1006 1.499 . S
C1009 C1010 1.373 . S
C1009 C1011 1.389 . S
C1010 H983 0.950 . S
C1010 C996 1.377 . S
C1010 C1009 1.373 . S
C1011 C995 1.377 . S
C1011 C1009 1.389 . S
C1011 C1012 1.524 . S
C1012 C1011 1.524 . S
C1012 C1013 1.397 . S
C1012 C1017 1.363 . S
C1013 H984 0.950 . S
C1013 C1012 1.397 . S
C1013 C1014 1.334 . S
C1014 H985 0.950 . S
C1014 C1013 1.334 . S
C1014 C1015 1.287 . S
C1015 C1014 1.287 . S
C1015 C1016 1.524 . S
C1015 H1018 0.999 . S
C1016 H986 0.950 . S
C1016 C1015 1.524 . S
C1016 C1017 1.415 . S
C1017 H987 0.950 . S
C1017 C1012 1.363 . S
C1017 C1016 1.415 . S
H1018 C1015 0.999 . S
H1019 C1000 0.913 . S
H1020 C1038 0.951 . S
H1021 C1040 0.951 . S
H1022 C1042 0.950 . S
H1023 C1043 0.950 . S
H1024 C1045 0.950 . S
H1025 C1048 0.950 . S
H1026 C1049 0.950 . S
H1027 C1051 0.950 . S
H1028 C1052 0.950 . S
H1029 C1053 0.951 . S
H1030 C1055 0.951 . S
H1031 C1057 0.950 . S
H1032 C1058 0.950 . S
H1033 C1060 0.950 . S
H1034 C1063 0.950 . S
H1035 C1064 0.950 . S
H1036 C1066 0.950 . S
H1037 C1067 0.950 . S
C1038 H1020 0.951 . S
C1038 C1039 1.366 . S
C1038 C1040 1.388 . S
C1039 C1038 1.366 . S
C1039 C1043 1.385 . S
C1040 H1021 0.951 . S
C1040 C1038 1.388 . S
C1040 C1041 1.366 . S
C1041 C1040 1.366 . S
C1041 C1042 1.414 . S
C1041 C1044 1.499 . S
C1042 H1022 0.950 . S
C1042 C1041 1.414 . S
C1042 C1043 1.374 . S
C1043 H1023 0.950 . S
C1043 C1039 1.385 . S
C1043 C1042 1.374 . S
C1044 C1041 1.499 . S
C1044 C1045 1.373 . S
C1044 C1046 1.389 . S
C1045 H1024 0.950 . S
C1045 C1044 1.373 . S
C1045 C1061 1.377 . S
C1046 C1044 1.389 . S
C1046 C1047 1.524 . S
C1046 C1060 1.377 . S
C1047 C1046 1.524 . S
C1047 C1048 1.397 . S
C1047 C1052 1.363 . S
C1048 H1025 0.950 . S
C1048 C1047 1.397 . S
C1048 C1049 1.334 . S
C1049 H1026 0.950 . S
C1049 C1048 1.334 . S
C1049 C1050 1.287 . S
C1050 C1049 1.287 . S
C1050 C1051 1.524 . S
C1050 H1069 0.913 . S
C1051 H1027 0.950 . S
C1051 C1050 1.524 . S
C1051 C1052 1.415 . S
C1052 H1028 0.950 . S
C1052 C1047 1.363 . S
C1052 C1051 1.415 . S
C1053 H1029 0.951 . S
C1053 C1054 1.366 . S
C1053 C1055 1.388 . S
C1054 C1053 1.366 . S
C1054 C1058 1.385 . S
C1055 H1030 0.951 . S
C1055 C1053 1.388 . S
C1055 C1056 1.366 . S
C1056 C1055 1.366 . S
C1056 C1057 1.414 . S
C1056 C1059 1.499 . S
C1057 H1031 0.950 . S
C1057 C1056 1.414 . S
C1057 C1058 1.374 . S
C1058 H1032 0.950 . S
C1058 C1054 1.385 . S
C1058 C1057 1.374 . S
C1059 C1056 1.499 . S
C1059 C1060 1.373 . S
C1059 C1061 1.389 . S
C1060 H1033 0.950 . S
C1060 C1046 1.377 . S
C1060 C1059 1.373 . S
C1061 C1045 1.377 . S
C1061 C1059 1.389 . S
C1061 C1062 1.524 . S
C1062 C1061 1.524 . S
C1062 C1063 1.397 . S
C1062 C1067 1.363 . S
C1063 H1034 0.950 . S
C1063 C1062 1.397 . S
C1063 C1064 1.334 . S
C1064 H1035 0.950 . S
C1064 C1063 1.334 . S
C1064 C1065 1.287 . S
C1065 C1064 1.287 . S
C1065 C1066 1.524 . S
C1065 H1068 0.999 . S
C1066 H1036 0.950 . S
C1066 C1065 1.524 . S
C1066 C1067 1.415 . S
C1067 H1037 0.950 . S
C1067 C1062 1.363 . S
C1067 C1066 1.415 . S
H1068 C1065 0.999 . S
H1069 C1050 0.913 . S
H1070 C1088 0.951 . S
H1071 C1090 0.951 . S
H1072 C1092 0.950 . S
H1073 C1093 0.950 . S
H1074 C1095 0.950 . S
H1075 C1098 0.950 . S
H1076 C1099 0.950 . S
H1077 C1101 0.950 . S
H1078 C1102 0.950 . S
H1079 C1103 0.951 . S
H1080 C1105 0.951 . S
H1081 C1107 0.950 . S
H1082 C1108 0.950 . S
H1083 C1110 0.950 . S
H1084 C1113 0.950 . S
H1085 C1114 0.950 . S
H1086 C1116 0.950 . S
H1087 C1117 0.950 . S
C1088 H1070 0.951 . S
C1088 C1089 1.366 . S
C1088 C1090 1.388 . S
C1089 C1088 1.366 . S
C1089 C1093 1.385 . S
C1090 H1071 0.951 . S
C1090 C1088 1.388 . S
C1090 C1091 1.366 . S
C1091 C1090 1.366 . S
C1091 C1092 1.414 . S
C1091 C1094 1.499 . S
C1092 H1072 0.950 . S
C1092 C1091 1.414 . S
C1092 C1093 1.374 . S
C1093 H1073 0.950 . S
C1093 C1089 1.385 . S
C1093 C1092 1.374 . S
C1094 C1091 1.499 . S
C1094 C1095 1.373 . S
C1094 C1096 1.389 . S
C1095 H1074 0.950 . S
C1095 C1094 1.373 . S
C1095 C1111 1.377 . S
C1096 C1094 1.389 . S
C1096 C1097 1.524 . S
C1096 C1110 1.377 . S
C1097 C1096 1.524 . S
C1097 C1098 1.397 . S
C1097 C1102 1.363 . S
C1098 H1075 0.950 . S
C1098 C1097 1.397 . S
C1098 C1099 1.334 . S
C1099 H1076 0.950 . S
C1099 C1098 1.334 . S
C1099 C1100 1.287 . S
C1100 C1099 1.287 . S
C1100 C1101 1.524 . S
C1100 H1119 0.913 . S
C1101 H1077 0.950 . S
C1101 C1100 1.524 . S
C1101 C1102 1.415 . S
C1102 H1078 0.950 . S
C1102 C1097 1.363 . S
C1102 C1101 1.415 . S
C1103 H1079 0.951 . S
C1103 C1104 1.366 . S
C1103 C1105 1.388 . S
C1104 C1103 1.366 . S
C1104 C1108 1.385 . S
C1105 H1080 0.951 . S
C1105 C1103 1.388 . S
C1105 C1106 1.366 . S
C1106 C1105 1.366 . S
C1106 C1107 1.414 . S
C1106 C1109 1.499 . S
C1107 H1081 0.950 . S
C1107 C1106 1.414 . S
C1107 C1108 1.374 . S
C1108 H1082 0.950 . S
C1108 C1104 1.385 . S
C1108 C1107 1.374 . S
C1109 C1106 1.499 . S
C1109 C1110 1.373 . S
C1109 C1111 1.389 . S
C1110 H1083 0.950 . S
C1110 C1096 1.377 . S
C1110 C1109 1.373 . S
C1111 C1095 1.377 . S
C1111 C1109 1.389 . S
C1111 C1112 1.524 . S
C1112 C1111 1.524 . S
C1112 C1113 1.397 . S
C1112 C1117 1.363 . S
C1113 H1084 0.950 . S
C1113 C1112 1.397 . S
C1113 C1114 1.334 . S
C1114 H1085 0.950 . S
C1114 C1113 1.334 . S
C1114 C1115 1.287 . S
C1115 C1114 1.287 . S
C1115 C1116 1.524 . S
C1115 H1118 0.999 . S
C1116 H1086 0.950 . S
C1116 C1115 1.524 . S
C1116 C1117 1.415 . S
C1117 H1087 0.950 . S
C1117 C1112 1.363 . S
C1117 C1116 1.415 . S
H1118 C1115 0.999 . S
H1119 C1100 0.913 . S
H1120 C1138 0.951 . S
H1121 C1140 0.944 1_455 S
H1122 C1142 0.950 . S
H1123 C1143 0.950 . S
H1124 C1145 0.950 . S
H1125 C1148 0.950 . S
H1126 C1149 0.950 . S
H1127 C1151 0.950 . S
H1128 C1152 0.950 . S
H1129 C1153 0.951 . S
H1130 C1155 0.947 1_655 S
H1131 C1157 0.950 . S
H1132 C1158 0.950 . S
H1133 C1160 0.950 . S
H1134 C1163 0.950 . S
H1135 C1164 0.950 . S
H1136 C1166 0.950 . S
H1137 C1167 0.950 . S
C1138 H1120 0.951 . S
C1138 C1139 1.366 1_565 S
C1138 C1140 1.388 . S
C1139 C1138 1.366 1_545 S
C1139 C1143 1.385 . S
C1140 H1121 0.944 1_655 S
C1140 C1138 1.388 . S
C1140 C1141 1.366 1_565 S
C1141 C1140 1.366 1_545 S
C1141 C1142 1.414 . S
C1141 C1144 1.499 . S
C1142 H1122 0.950 . S
C1142 C1141 1.414 . S
C1142 C1143 1.374 . S
C1143 H1123 0.950 . S
C1143 C1139 1.385 . S
C1143 C1142 1.374 . S
C1144 C1141 1.499 . S
C1144 C1145 1.373 1_655 S
C1144 C1146 1.389 1_545 S
C1145 H1124 0.950 . S
C1145 C1144 1.373 1_455 S
C1145 C1161 1.377 1_556 S
C1146 C1144 1.389 1_565 S
C1146 C1147 1.524 . S
C1146 C1160 1.377 1_556 S
C1147 C1146 1.524 . S
C1147 C1148 1.397 . S
C1147 C1152 1.363 . S
C1148 H1125 0.950 . S
C1148 C1147 1.397 . S
C1148 C1149 1.334 . S
C1149 H1126 0.950 . S
C1149 C1148 1.334 . S
C1149 C1150 1.287 . S
C1150 C1149 1.287 . S
C1150 C1151 1.524 . S
C1150 H1169 0.913 . S
C1151 H1127 0.950 . S
C1151 C1150 1.524 . S
C1151 C1152 1.415 . S
C1152 H1128 0.950 . S
C1152 C1147 1.363 . S
C1152 C1151 1.415 . S
C1153 H1129 0.951 . S
C1153 C1154 1.366 1_545 S
C1153 C1155 1.388 . S
C1154 C1153 1.366 1_565 S
C1154 C1158 1.385 . S
C1155 H1130 0.947 1_455 S
C1155 C1153 1.388 . S
C1155 C1156 1.366 1_545 S
C1156 C1155 1.366 1_565 S
C1156 C1157 1.414 . S
C1156 C1159 1.499 . S
C1157 H1131 0.950 . S
C1157 C1156 1.414 . S
C1157 C1158 1.374 . S
C1158 H1132 0.950 . S
C1158 C1154 1.385 . S
C1158 C1157 1.374 . S
C1159 C1156 1.499 . S
C1159 C1160 1.373 1_455 S
C1159 C1161 1.389 1_565 S
C1160 H1133 0.950 . S
C1160 C1146 1.377 1_554 S
C1160 C1159 1.373 1_655 S
C1161 C1145 1.377 1_554 S
C1161 C1159 1.389 1_545 S
C1161 C1162 1.524 . S
C1162 C1161 1.524 . S
C1162 C1163 1.397 . S
C1162 C1167 1.363 . S
C1163 H1134 0.950 . S
C1163 C1162 1.397 . S
C1163 C1164 1.334 . S
C1164 H1135 0.950 . S
C1164 C1163 1.334 . S
C1164 C1165 1.287 . S
C1165 C1164 1.287 . S
C1165 C1166 1.524 . S
C1165 H1168 0.999 . S
C1166 H1136 0.950 . S
C1166 C1165 1.524 . S
C1166 C1167 1.415 . S
C1167 H1137 0.950 . S
C1167 C1162 1.363 . S
C1167 C1166 1.415 . S
H1168 C1165 0.999 . S
H1169 C1150 0.913 . S
H1170 C1188 0.951 . S
H1171 C1190 0.951 . S
H1172 C1192 0.950 . S
H1173 C1193 0.950 . S
H1174 C1195 0.950 . S
H1175 C1198 0.950 . S
H1176 C1199 0.950 . S
H1177 C1201 0.950 . S
H1178 C1202 0.950 . S
H1179 C1203 0.951 . S
H1180 C1205 0.951 . S
H1181 C1207 0.950 . S
H1182 C1208 0.950 . S
H1183 C1210 0.950 . S
H1184 C1213 0.950 . S
H1185 C1214 0.950 . S
H1186 C1216 0.950 . S
H1187 C1217 0.950 . S
C1188 H1170 0.951 . S
C1188 C1189 1.366 . S
C1188 C1190 1.388 . S
C1189 C1188 1.366 . S
C1189 C1193 1.385 . S
C1190 H1171 0.951 . S
C1190 C1188 1.388 . S
C1190 C1191 1.366 . S
C1191 C1190 1.366 . S
C1191 C1192 1.414 . S
C1191 C1194 1.499 . S
C1192 H1172 0.950 . S
C1192 C1191 1.414 . S
C1192 C1193 1.374 . S
C1193 H1173 0.950 . S
C1193 C1189 1.385 . S
C1193 C1192 1.374 . S
C1194 C1191 1.499 . S
C1194 C1195 1.373 . S
C1194 C1196 1.389 . S
C1195 H1174 0.950 . S
C1195 C1194 1.373 . S
C1195 C1211 1.377 . S
C1196 C1194 1.389 . S
C1196 C1197 1.524 . S
C1196 C1210 1.377 . S
C1197 C1196 1.524 . S
C1197 C1198 1.397 . S
C1197 C1202 1.363 . S
C1198 H1175 0.950 . S
C1198 C1197 1.397 . S
C1198 C1199 1.334 . S
C1199 H1176 0.950 . S
C1199 C1198 1.334 . S
C1199 C1200 1.287 . S
C1200 C1199 1.287 . S
C1200 C1201 1.524 . S
C1200 H1219 0.913 . S
C1201 H1177 0.950 . S
C1201 C1200 1.524 . S
C1201 C1202 1.415 . S
C1202 H1178 0.950 . S
C1202 C1197 1.363 . S
C1202 C1201 1.415 . S
C1203 H1179 0.951 . S
C1203 C1204 1.366 . S
C1203 C1205 1.388 . S
C1204 C1203 1.366 . S
C1204 C1208 1.385 . S
C1205 H1180 0.951 . S
C1205 C1203 1.388 . S
C1205 C1206 1.366 . S
C1206 C1205 1.366 . S
C1206 C1207 1.414 . S
C1206 C1209 1.499 . S
C1207 H1181 0.950 . S
C1207 C1206 1.414 . S
C1207 C1208 1.374 . S
C1208 H1182 0.950 . S
C1208 C1204 1.385 . S
C1208 C1207 1.374 . S
C1209 C1206 1.499 . S
C1209 C1210 1.373 . S
C1209 C1211 1.389 . S
C1210 H1183 0.950 . S
C1210 C1196 1.377 . S
C1210 C1209 1.373 . S
C1211 C1195 1.377 . S
C1211 C1209 1.389 . S
C1211 C1212 1.524 . S
C1212 C1211 1.524 . S
C1212 C1213 1.397 . S
C1212 C1217 1.363 . S
C1213 H1184 0.950 . S
C1213 C1212 1.397 . S
C1213 C1214 1.334 . S
C1214 H1185 0.950 . S
C1214 C1213 1.334 . S
C1214 C1215 1.287 . S
C1215 C1214 1.287 . S
C1215 C1216 1.524 . S
C1215 H1218 0.999 . S
C1216 H1186 0.950 . S
C1216 C1215 1.524 . S
C1216 C1217 1.415 . S
C1217 H1187 0.950 . S
C1217 C1212 1.363 . S
C1217 C1216 1.415 . S
H1218 C1215 0.999 . S
H1219 C1200 0.913 . S
H1220 C1238 0.951 . S
H1221 C1240 0.951 . S
H1222 C1242 0.950 . S
H1223 C1243 0.950 . S
H1224 C1245 0.950 . S
H1225 C1248 0.950 . S
H1226 C1249 0.950 . S
H1227 C1251 0.950 . S
H1228 C1252 0.950 . S
H1229 C1253 0.951 . S
H1230 C1255 0.951 . S
H1231 C1257 0.950 . S
H1232 C1258 0.950 . S
H1233 C1260 0.950 . S
H1234 C1263 0.950 . S
H1235 C1264 0.950 . S
H1236 C1266 0.950 . S
H1237 C1267 0.950 . S
C1238 H1220 0.951 . S
C1238 C1239 1.366 1_545 S
C1238 C1240 1.388 . S
C1239 C1238 1.366 1_565 S
C1239 C1243 1.385 . S
C1240 H1221 0.951 . S
C1240 C1238 1.388 . S
C1240 C1241 1.366 1_545 S
C1241 C1240 1.366 1_565 S
C1241 C1242 1.414 . S
C1241 C1244 1.499 . S
C1242 H1222 0.950 . S
C1242 C1241 1.414 . S
C1242 C1243 1.374 . S
C1243 H1223 0.950 . S
C1243 C1239 1.385 . S
C1243 C1242 1.374 . S
C1244 C1241 1.499 . S
C1244 C1245 1.373 . S
C1244 C1246 1.389 1_565 S
C1245 H1224 0.950 . S
C1245 C1244 1.373 . S
C1245 C1261 1.377 . S
C1246 C1244 1.389 1_545 S
C1246 C1247 1.524 . S
C1246 C1260 1.377 . S
C1247 C1246 1.524 . S
C1247 C1248 1.397 . S
C1247 C1252 1.363 . S
C1248 H1225 0.950 . S
C1248 C1247 1.397 . S
C1248 C1249 1.334 . S
C1249 H1226 0.950 . S
C1249 C1248 1.334 . S
C1249 C1250 1.287 . S
C1250 C1249 1.287 . S
C1250 C1251 1.524 . S
C1250 H1269 0.913 . S
C1251 H1227 0.950 . S
C1251 C1250 1.524 . S
C1251 C1252 1.415 . S
C1252 H1228 0.950 . S
C1252 C1247 1.363 . S
C1252 C1251 1.415 . S
C1253 H1229 0.951 . S
C1253 C1254 1.366 1_565 S
C1253 C1255 1.388 . S
C1254 C1253 1.366 1_545 S
C1254 C1258 1.385 . S
C1255 H1230 0.951 . S
C1255 C1253 1.388 . S
C1255 C1256 1.366 1_565 S
C1256 C1255 1.366 1_545 S
C1256 C1257 1.414 . S
C1256 C1259 1.499 . S
C1257 H1231 0.950 . S
C1257 C1256 1.414 . S
C1257 C1258 1.374 . S
C1258 H1232 0.950 . S
C1258 C1254 1.385 . S
C1258 C1257 1.374 . S
C1259 C1256 1.499 . S
C1259 C1260 1.373 . S
C1259 C1261 1.389 1_545 S
C1260 H1233 0.950 . S
C1260 C1246 1.377 . S
C1260 C1259 1.373 . S
C1261 C1245 1.377 . S
C1261 C1259 1.389 1_565 S
C1261 C1262 1.524 . S
C1262 C1261 1.524 . S
C1262 C1263 1.397 . S
C1262 C1267 1.363 . S
C1263 H1234 0.950 . S
C1263 C1262 1.397 . S
C1263 C1264 1.334 . S
C1264 H1235 0.950 . S
C1264 C1263 1.334 . S
C1264 C1265 1.287 . S
C1265 C1264 1.287 . S
C1265 C1266 1.524 . S
C1265 H1268 0.999 . S
C1266 H1236 0.950 . S
C1266 C1265 1.524 . S
C1266 C1267 1.415 . S
C1267 H1237 0.950 . S
C1267 C1262 1.363 . S
C1267 C1266 1.415 . S
H1268 C1265 0.999 . S
H1269 C1250 0.913 . S
H1270 C1288 0.951 . S
H1271 C1290 0.951 . S
H1272 C1292 0.950 . S
H1273 C1293 0.950 . S
H1274 C1295 0.950 . S
H1275 C1298 0.950 . S
H1276 C1299 0.950 . S
H1277 C1301 0.950 . S
H1278 C1302 0.950 . S
H1279 C1303 0.951 . S
H1280 C1305 0.951 . S
H1281 C1307 0.950 . S
H1282 C1308 0.950 . S
H1283 C1310 0.950 . S
H1284 C1313 0.950 . S
H1285 C1314 0.950 . S
H1286 C1316 0.950 . S
H1287 C1317 0.950 . S
C1288 H1270 0.951 . S
C1288 C1289 1.366 . S
C1288 C1290 1.388 . S
C1289 C1288 1.366 . S
C1289 C1293 1.385 . S
C1290 H1271 0.951 . S
C1290 C1288 1.388 . S
C1290 C1291 1.366 . S
C1291 C1290 1.366 . S
C1291 C1292 1.414 . S
C1291 C1294 1.499 . S
C1292 H1272 0.950 . S
C1292 C1291 1.414 . S
C1292 C1293 1.374 . S
C1293 H1273 0.950 . S
C1293 C1289 1.385 . S
C1293 C1292 1.374 . S
C1294 C1291 1.499 . S
C1294 C1295 1.373 . S
C1294 C1296 1.389 . S
C1295 H1274 0.950 . S
C1295 C1294 1.373 . S
C1295 C1311 1.377 . S
C1296 C1294 1.389 . S
C1296 C1297 1.524 . S
C1296 C1310 1.377 . S
C1297 C1296 1.524 . S
C1297 C1298 1.397 . S
C1297 C1302 1.363 . S
C1298 H1275 0.950 . S
C1298 C1297 1.397 . S
C1298 C1299 1.334 . S
C1299 H1276 0.950 . S
C1299 C1298 1.334 . S
C1299 C1300 1.287 . S
C1300 C1299 1.287 . S
C1300 C1301 1.524 . S
C1300 H1319 0.913 . S
C1301 H1277 0.950 . S
C1301 C1300 1.524 . S
C1301 C1302 1.415 . S
C1302 H1278 0.950 . S
C1302 C1297 1.363 . S
C1302 C1301 1.415 . S
C1303 H1279 0.951 . S
C1303 C1304 1.366 . S
C1303 C1305 1.388 . S
C1304 C1303 1.366 . S
C1304 C1308 1.385 . S
C1305 H1280 0.951 . S
C1305 C1303 1.388 . S
C1305 C1306 1.366 . S
C1306 C1305 1.366 . S
C1306 C1307 1.414 . S
C1306 C1309 1.499 . S
C1307 H1281 0.950 . S
C1307 C1306 1.414 . S
C1307 C1308 1.374 . S
C1308 H1282 0.950 . S
C1308 C1304 1.385 . S
C1308 C1307 1.374 . S
C1309 C1306 1.499 . S
C1309 C1310 1.373 . S
C1309 C1311 1.389 . S
C1310 H1283 0.950 . S
C1310 C1296 1.377 . S
C1310 C1309 1.373 . S
C1311 C1295 1.377 . S
C1311 C1309 1.389 . S
C1311 C1312 1.524 . S
C1312 C1311 1.524 . S
C1312 C1313 1.397 . S
C1312 C1317 1.363 . S
C1313 H1284 0.950 . S
C1313 C1312 1.397 . S
C1313 C1314 1.334 . S
C1314 H1285 0.950 . S
C1314 C1313 1.334 . S
C1314 C1315 1.287 . S
C1315 C1314 1.287 . S
C1315 C1316 1.524 . S
C1315 H1318 0.999 . S
C1316 H1286 0.950 . S
C1316 C1315 1.524 . S
C1316 C1317 1.415 . S
C1317 H1287 0.950 . S
C1317 C1312 1.363 . S
C1317 C1316 1.415 . S
H1318 C1315 0.999 . S
H1319 C1300 0.913 . S
H1320 C1338 0.951 . S
H1321 C1340 0.951 . S
H1322 C1342 0.950 . S
H1323 C1343 0.950 . S
H1324 C1345 0.950 . S
H1325 C1348 0.950 . S
H1326 C1349 0.950 . S
H1327 C1351 0.950 . S
H1328 C1352 0.950 . S
H1329 C1353 0.951 . S
H1330 C1355 0.951 . S
H1331 C1357 0.950 . S
H1332 C1358 0.950 . S
H1333 C1360 0.950 . S
H1334 C1363 0.950 . S
H1335 C1364 0.950 . S
H1336 C1366 0.950 . S
H1337 C1367 0.950 . S
C1338 H1320 0.951 . S
C1338 C1339 1.366 . S
C1338 C1340 1.388 . S
C1339 C1338 1.366 . S
C1339 C1343 1.385 . S
C1340 H1321 0.951 . S
C1340 C1338 1.388 . S
C1340 C1341 1.366 . S
C1341 C1340 1.366 . S
C1341 C1342 1.414 . S
C1341 C1344 1.499 . S
C1342 H1322 0.950 . S
C1342 C1341 1.414 . S
C1342 C1343 1.374 . S
C1343 H1323 0.950 . S
C1343 C1339 1.385 . S
C1343 C1342 1.374 . S
C1344 C1341 1.499 . S
C1344 C1345 1.373 . S
C1344 C1346 1.389 . S
C1345 H1324 0.950 . S
C1345 C1344 1.373 . S
C1345 C1361 1.377 . S
C1346 C1344 1.389 . S
C1346 C1347 1.524 . S
C1346 C1360 1.377 . S
C1347 C1346 1.524 . S
C1347 C1348 1.397 . S
C1347 C1352 1.363 . S
C1348 H1325 0.950 . S
C1348 C1347 1.397 . S
C1348 C1349 1.334 . S
C1349 H1326 0.950 . S
C1349 C1348 1.334 . S
C1349 C1350 1.287 . S
C1350 C1349 1.287 . S
C1350 C1351 1.524 . S
C1350 H1369 0.913 . S
C1351 H1327 0.950 . S
C1351 C1350 1.524 . S
C1351 C1352 1.415 . S
C1352 H1328 0.950 . S
C1352 C1347 1.363 . S
C1352 C1351 1.415 . S
C1353 H1329 0.951 . S
C1353 C1354 1.366 . S
C1353 C1355 1.388 . S
C1354 C1353 1.366 . S
C1354 C1358 1.385 . S
C1355 H1330 0.951 . S
C1355 C1353 1.388 . S
C1355 C1356 1.366 . S
C1356 C1355 1.366 . S
C1356 C1357 1.414 . S
C1356 C1359 1.499 . S
C1357 H1331 0.950 . S
C1357 C1356 1.414 . S
C1357 C1358 1.374 . S
C1358 H1332 0.950 . S
C1358 C1354 1.385 . S
C1358 C1357 1.374 . S
C1359 C1356 1.499 . S
C1359 C1360 1.373 . S
C1359 C1361 1.389 . S
C1360 H1333 0.950 . S
C1360 C1346 1.377 . S
C1360 C1359 1.373 . S
C1361 C1345 1.377 . S
C1361 C1359 1.389 . S
C1361 C1362 1.524 . S
C1362 C1361 1.524 . S
C1362 C1363 1.397 . S
C1362 C1367 1.363 . S
C1363 H1334 0.950 . S
C1363 C1362 1.397 . S
C1363 C1364 1.334 . S
C1364 H1335 0.950 . S
C1364 C1363 1.334 . S
C1364 C1365 1.287 . S
C1365 C1364 1.287 . S
C1365 C1366 1.524 . S
C1365 H1368 0.999 . S
C1366 H1336 0.950 . S
C1366 C1365 1.524 . S
C1366 C1367 1.415 . S
C1367 H1337 0.950 . S
C1367 C1362 1.363 . S
C1367 C1366 1.415 . S
H1368 C1365 0.999 . S
H1369 C1350 0.913 . S
H1370 C1388 0.951 . S
H1371 C1390 0.951 . S
H1372 C1392 0.950 . S
H1373 C1393 0.950 . S
H1374 C1395 0.950 . S
H1375 C1398 0.950 . S
H1376 C1399 0.950 . S
H1377 C1401 0.950 . S
H1378 C1402 0.950 . S
H1379 C1403 0.951 . S
H1380 C1405 0.951 . S
H1381 C1407 0.950 . S
H1382 C1408 0.950 . S
H1383 C1410 0.950 . S
H1384 C1413 0.950 . S
H1385 C1414 0.950 . S
H1386 C1416 0.950 . S
H1387 C1417 0.950 . S
C1388 H1370 0.951 . S
C1388 C1389 1.366 . S
C1388 C1390 1.388 . S
C1389 C1388 1.366 . S
C1389 C1393 1.385 . S
C1390 H1371 0.951 . S
C1390 C1388 1.388 . S
C1390 C1391 1.366 . S
C1391 C1390 1.366 . S
C1391 C1392 1.414 . S
C1391 C1394 1.499 . S
C1392 H1372 0.950 . S
C1392 C1391 1.414 . S
C1392 C1393 1.374 . S
C1393 H1373 0.950 . S
C1393 C1389 1.385 . S
C1393 C1392 1.374 . S
C1394 C1391 1.499 . S
C1394 C1395 1.373 . S
C1394 C1396 1.389 . S
C1395 H1374 0.950 . S
C1395 C1394 1.373 . S
C1395 C1411 1.377 . S
C1396 C1394 1.389 . S
C1396 C1397 1.524 . S
C1396 C1410 1.377 . S
C1397 C1396 1.524 . S
C1397 C1398 1.397 . S
C1397 C1402 1.363 . S
C1398 H1375 0.950 . S
C1398 C1397 1.397 . S
C1398 C1399 1.334 . S
C1399 H1376 0.950 . S
C1399 C1398 1.334 . S
C1399 C1400 1.287 . S
C1400 C1399 1.287 . S
C1400 C1401 1.524 . S
C1400 H1419 0.913 . S
C1401 H1377 0.950 . S
C1401 C1400 1.524 . S
C1401 C1402 1.415 . S
C1402 H1378 0.950 . S
C1402 C1397 1.363 . S
C1402 C1401 1.415 . S
C1403 H1379 0.951 . S
C1403 C1404 1.366 . S
C1403 C1405 1.388 . S
C1404 C1403 1.366 . S
C1404 C1408 1.385 . S
C1405 H1380 0.951 . S
C1405 C1403 1.388 . S
C1405 C1406 1.366 . S
C1406 C1405 1.366 . S
C1406 C1407 1.414 . S
C1406 C1409 1.499 . S
C1407 H1381 0.950 . S
C1407 C1406 1.414 . S
C1407 C1408 1.374 . S
C1408 H1382 0.950 . S
C1408 C1404 1.385 . S
C1408 C1407 1.374 . S
C1409 C1406 1.499 . S
C1409 C1410 1.373 . S
C1409 C1411 1.389 . S
C1410 H1383 0.950 . S
C1410 C1396 1.377 . S
C1410 C1409 1.373 . S
C1411 C1395 1.377 . S
C1411 C1409 1.389 . S
C1411 C1412 1.524 . S
C1412 C1411 1.524 . S
C1412 C1413 1.397 . S
C1412 C1417 1.363 . S
C1413 H1384 0.950 . S
C1413 C1412 1.397 . S
C1413 C1414 1.334 . S
C1414 H1385 0.950 . S
C1414 C1413 1.334 . S
C1414 C1415 1.287 . S
C1415 C1414 1.287 . S
C1415 C1416 1.524 . S
C1415 H1418 0.999 . S
C1416 H1386 0.950 . S
C1416 C1415 1.524 . S
C1416 C1417 1.415 . S
C1417 H1387 0.950 . S
C1417 C1412 1.363 . S
C1417 C1416 1.415 . S
H1418 C1415 0.999 . S
H1419 C1400 0.913 . S
H1420 C1438 0.951 . S
H1421 C1440 0.951 . S
H1422 C1442 0.950 . S
H1423 C1443 0.950 . S
H1424 C1445 0.950 . S
H1425 C1448 0.950 . S
H1426 C1449 0.950 . S
H1427 C1451 0.950 . S
H1428 C1452 0.950 . S
H1429 C1453 0.951 . S
H1430 C1455 0.951 . S
H1431 C1457 0.950 . S
H1432 C1458 0.950 . S
H1433 C1460 0.950 . S
H1434 C1463 0.950 . S
H1435 C1464 0.950 . S
H1436 C1466 0.950 . S
H1437 C1467 0.950 . S
C1438 H1420 0.951 . S
C1438 C1439 1.366 . S
C1438 C1440 1.388 . S
C1439 C1438 1.366 . S
C1439 C1443 1.385 . S
C1440 H1421 0.951 . S
C1440 C1438 1.388 . S
C1440 C1441 1.366 . S
C1441 C1440 1.366 . S
C1441 C1442 1.414 . S
C1441 C1444 1.499 . S
C1442 H1422 0.950 . S
C1442 C1441 1.414 . S
C1442 C1443 1.374 . S
C1443 H1423 0.950 . S
C1443 C1439 1.385 . S
C1443 C1442 1.374 . S
C1444 C1441 1.499 . S
C1444 C1445 1.373 . S
C1444 C1446 1.389 . S
C1445 H1424 0.950 . S
C1445 C1444 1.373 . S
C1445 C1461 1.377 . S
C1446 C1444 1.389 . S
C1446 C1447 1.524 . S
C1446 C1460 1.377 . S
C1447 C1446 1.524 . S
C1447 C1448 1.397 . S
C1447 C1452 1.363 . S
C1448 H1425 0.950 . S
C1448 C1447 1.397 . S
C1448 C1449 1.334 . S
C1449 H1426 0.950 . S
C1449 C1448 1.334 . S
C1449 C1450 1.287 . S
C1450 C1449 1.287 . S
C1450 C1451 1.524 . S
C1450 H1469 0.913 . S
C1451 H1427 0.950 . S
C1451 C1450 1.524 . S
C1451 C1452 1.415 . S
C1452 H1428 0.950 . S
C1452 C1447 1.363 . S
C1452 C1451 1.415 . S
C1453 H1429 0.951 . S
C1453 C1454 1.366 . S
C1453 C1455 1.388 . S
C1454 C1453 1.366 . S
C1454 C1458 1.385 . S
C1455 H1430 0.951 . S
C1455 C1453 1.388 . S
C1455 C1456 1.366 . S
C1456 C1455 1.366 . S
C1456 C1457 1.414 . S
C1456 C1459 1.499 . S
C1457 H1431 0.950 . S
C1457 C1456 1.414 . S
C1457 C1458 1.374 . S
C1458 H1432 0.950 . S
C1458 C1454 1.385 . S
C1458 C1457 1.374 . S
C1459 C1456 1.499 . S
C1459 C1460 1.373 . S
C1459 C1461 1.389 . S
C1460 H1433 0.950 . S
C1460 C1446 1.377 . S
C1460 C1459 1.373 . S
C1461 C1445 1.377 . S
C1461 C1459 1.389 . S
C1461 C1462 1.524 . S
C1462 C1461 1.524 . S
C1462 C1463 1.397 . S
C1462 C1467 1.363 . S
C1463 H1434 0.950 . S
C1463 C1462 1.397 . S
C1463 C1464 1.334 . S
C1464 H1435 0.950 . S
C1464 C1463 1.334 . S
C1464 C1465 1.287 . S
C1465 C1464 1.287 . S
C1465 C1466 1.524 . S
C1465 H1468 0.999 . S
C1466 H1436 0.950 . S
C1466 C1465 1.524 . S
C1466 C1467 1.415 . S
C1467 H1437 0.950 . S
C1467 C1462 1.363 . S
C1467 C1466 1.415 . S
H1468 C1465 0.999 . S
H1469 C1450 0.913 . S
H1470 C1488 0.951 . S
H1471 C1490 0.951 . S
H1472 C1492 0.950 . S
H1473 C1493 0.950 . S
H1474 C1495 0.950 . S
H1475 C1498 0.950 . S
H1476 C1499 0.950 . S
H1477 C1501 0.950 . S
H1478 C1502 0.950 1_554 S
H1479 C1503 0.951 . S
H1480 C1505 0.951 . S
H1481 C1507 0.950 . S
H1482 C1508 0.950 . S
H1483 C1510 0.950 . S
H1484 C1513 0.950 . S
H1485 C1514 0.950 . S
H1486 C1516 0.950 . S
H1487 C1517 0.950 1_556 S
C1488 H1470 0.951 . S
C1488 C1489 1.366 . S
C1488 C1490 1.388 . S
C1489 C1488 1.366 . S
C1489 C1493 1.385 . S
C1490 H1471 0.951 . S
C1490 C1488 1.388 . S
C1490 C1491 1.366 . S
C1491 C1490 1.366 . S
C1491 C1492 1.414 . S
C1491 C1494 1.499 . S
C1492 H1472 0.950 . S
C1492 C1491 1.414 . S
C1492 C1493 1.374 . S
C1493 H1473 0.950 . S
C1493 C1489 1.385 . S
C1493 C1492 1.374 . S
C1494 C1491 1.499 . S
C1494 C1495 1.373 . S
C1494 C1496 1.389 1_655 S
C1495 H1474 0.950 . S
C1495 C1494 1.373 . S
C1495 C1511 1.377 1_556 S
C1496 C1494 1.389 1_455 S
C1496 C1497 1.524 . S
C1496 C1510 1.377 1_556 S
C1497 C1496 1.524 . S
C1497 C1498 1.397 . S
C1497 C1502 1.363 . S
C1498 H1475 0.950 . S
C1498 C1497 1.397 . S
C1498 C1499 1.334 . S
C1499 H1476 0.950 . S
C1499 C1498 1.334 . S
C1499 C1500 1.287 . S
C1500 C1499 1.287 . S
C1500 C1501 1.524 . S
C1500 H1519 0.913 . S
C1501 H1477 0.950 . S
C1501 C1500 1.524 . S
C1501 C1502 1.415 . S
C1502 H1478 0.950 1_556 S
C1502 C1497 1.363 . S
C1502 C1501 1.415 . S
C1503 H1479 0.951 . S
C1503 C1504 1.366 . S
C1503 C1505 1.388 . S
C1504 C1503 1.366 . S
C1504 C1508 1.385 . S
C1505 H1480 0.951 . S
C1505 C1503 1.388 . S
C1505 C1506 1.366 . S
C1506 C1505 1.366 . S
C1506 C1507 1.414 . S
C1506 C1509 1.499 . S
C1507 H1481 0.950 . S
C1507 C1506 1.414 . S
C1507 C1508 1.374 . S
C1508 H1482 0.950 . S
C1508 C1504 1.385 . S
C1508 C1507 1.374 . S
C1509 C1506 1.499 . S
C1509 C1510 1.373 . S
C1509 C1511 1.389 1_455 S
C1510 H1483 0.950 . S
C1510 C1496 1.377 1_554 S
C1510 C1509 1.373 . S
C1511 C1495 1.377 1_554 S
C1511 C1509 1.389 1_655 S
C1511 C1512 1.524 . S
C1512 C1511 1.524 . S
C1512 C1513 1.397 . S
C1512 C1517 1.363 . S
C1513 H1484 0.950 . S
C1513 C1512 1.397 . S
C1513 C1514 1.334 . S
C1514 H1485 0.950 . S
C1514 C1513 1.334 . S
C1514 C1515 1.287 . S
C1515 C1514 1.287 . S
C1515 C1516 1.524 . S
C1515 H1518 0.999 . S
C1516 H1486 0.950 . S
C1516 C1515 1.524 . S
C1516 C1517 1.415 . S
C1517 H1487 0.950 1_554 S
C1517 C1512 1.363 . S
C1517 C1516 1.415 . S
H1518 C1515 0.999 . S
H1519 C1500 0.913 . S
C339 C10 2.148 . S
C354 C130 2.142 . S
C389 C9 1.501 . S
C404 C50 1.527 . S
C439 C49 0.795 . S
C454 C89 0.799 . S
C489 C90 1.527 . S
C504 C129 1.497 . S
C539 C19 2.148 . S
C554 C219 2.154 . S
C589 C18 1.501 . S
C604 C179 1.527 . S
C639 C178 0.797 . S
C654 C98 0.794 . S
C689 C218 1.501 . S
C704 C99 1.531 . S
C739 C250 2.148 . S
C754 C210 2.150 . S
C789 C170 1.527 . S
C804 C249 1.499 . S
C839 C289 0.795 . S
C854 C169 0.797 . S
C889 C209 1.501 . S
C904 C290 1.530 . S
C939 C139 2.148 . S
C954 C259 2.146 . S
C989 C258 1.501 . S
C1004 C59 1.528 . S
C1039 C58 0.795 . S
C1054 C298 0.793 . S
C1089 C138 1.501 . S
C1104 C299 1.524 . S
C1139 C15 1.501 . S
C1154 C6 1.501 . S
C1189 C46 1.474 . S
C1204 C55 1.474 . S
C1239 C95 1.475 . S
C1254 C86 1.475 . S
C1289 C135 1.500 . S
C1304 C126 1.500 . S
C1339 C166 1.474 . S
C1354 C175 1.474 . S
C1389 C215 1.500 . S
C1404 C206 1.500 . S
C1439 C246 1.501 . S
C1454 C255 1.501 . S
C1489 C286 1.475 . S
C1504 C295 1.475 . S
