# Generated by pormake.
# Topology ukn, (4)-cn, num edge types: 1
# Building blocks:
#     Node 0, Type 0, BuildingBlock: GALJAG_clean_sbu_0, # of connection points: 4
#     Node 1, Type 0, BuildingBlock: GALJAG_clean_sbu_0, # of connection points: 4
#     Node 2, Type 0, BuildingBlock: GALJAG_clean_sbu_0, # of connection points: 4
#     Node 3, Type 0, BuildingBlock: GALJAG_clean_sbu_0, # of connection points: 4
#     Node 4, Type 0, BuildingBlock: GALJAG_clean_sbu_0, # of connection points: 4
#     Node 5, Type 0, BuildingBlock: GALJAG_clean_sbu_0, # of connection points: 4
#     Node 6, Type 0, BuildingBlock: GALJAG_clean_sbu_0, # of connection points: 4
#     Node 7, Type 0, BuildingBlock: GALJAG_clean_sbu_0, # of connection points: 4
#     Node 8, Type 0, BuildingBlock: GALJAG_clean_sbu_0, # of connection points: 4
#     Node 9, Type 0, BuildingBlock: GALJAG_clean_sbu_0, # of connection points: 4
#     Node 10, Type 0, BuildingBlock: GALJAG_clean_sbu_0, # of connection points: 4
#     Node 11, Type 0, BuildingBlock: GALJAG_clean_sbu_0, # of connection points: 4
#     Node 12, Type 0, BuildingBlock: GALJAG_clean_sbu_0, # of connection points: 4
#     Node 13, Type 0, BuildingBlock: GALJAG_clean_sbu_0, # of connection points: 4
#     Node 14, Type 0, BuildingBlock: GALJAG_clean_sbu_0, # of connection points: 4
#     Node 15, Type 0, BuildingBlock: GALJAG_clean_sbu_0, # of connection points: 4
#     Node 16, Type 0, BuildingBlock: GALJAG_clean_sbu_0, # of connection points: 4
#     Node 17, Type 0, BuildingBlock: GALJAG_clean_sbu_0, # of connection points: 4
#     Node 18, Type 0, BuildingBlock: GALJAG_clean_sbu_0, # of connection points: 4
#     Node 19, Type 0, BuildingBlock: GALJAG_clean_sbu_0, # of connection points: 4
#     Node 20, Type 0, BuildingBlock: GALJAG_clean_sbu_0, # of connection points: 4
#     Node 21, Type 0, BuildingBlock: GALJAG_clean_sbu_0, # of connection points: 4
#     Node 22, Type 0, BuildingBlock: GALJAG_clean_sbu_0, # of connection points: 4
#     Node 23, Type 0, BuildingBlock: GALJAG_clean_sbu_0, # of connection points: 4
#     Node 24, Type 0, BuildingBlock: GALJAG_clean_sbu_0, # of connection points: 4
#     Node 25, Type 0, BuildingBlock: GALJAG_clean_sbu_0, # of connection points: 4
#     Node 26, Type 0, BuildingBlock: GALJAG_clean_sbu_0, # of connection points: 4
#     Node 27, Type 0, BuildingBlock: GALJAG_clean_sbu_0, # of connection points: 4
#     Node 28, Type 0, BuildingBlock: GALJAG_clean_sbu_0, # of connection points: 4
#     Node 29, Type 0, BuildingBlock: GALJAG_clean_sbu_0, # of connection points: 4
#     Node 30, Type 0, BuildingBlock: GALJAG_clean_sbu_0, # of connection points: 4
#     Node 31, Type 0, BuildingBlock: GALJAG_clean_sbu_0, # of connection points: 4
#     Node 32, Type 0, BuildingBlock: GALJAG_clean_sbu_0, # of connection points: 4
#     Node 33, Type 0, BuildingBlock: GALJAG_clean_sbu_0, # of connection points: 4
#     Node 34, Type 0, BuildingBlock: GALJAG_clean_sbu_0, # of connection points: 4
#     Node 35, Type 0, BuildingBlock: GALJAG_clean_sbu_0, # of connection points: 4
#     Edge 36, Type (0, 0), BuildingBlock: ZUJKAS_clean_linker_0, # of connection points: 2
#     Edge 37, Type (0, 0), BuildingBlock: ZUJKAS_clean_linker_0, # of connection points: 2
#     Edge 38, Type (0, 0), BuildingBlock: ZUJKAS_clean_linker_0, # of connection points: 2
#     Edge 39, Type (0, 0), BuildingBlock: ZUJKAS_clean_linker_0, # of connection points: 2
#     Edge 40, Type (0, 0), BuildingBlock: ZUJKAS_clean_linker_0, # of connection points: 2
#     Edge 41, Type (0, 0), BuildingBlock: ZUJKAS_clean_linker_0, # of connection points: 2
#     Edge 42, Type (0, 0), BuildingBlock: ZUJKAS_clean_linker_0, # of connection points: 2
#     Edge 43, Type (0, 0), BuildingBlock: ZUJKAS_clean_linker_0, # of connection points: 2
#     Edge 44, Type (0, 0), BuildingBlock: ZUJKAS_clean_linker_0, # of connection points: 2
#     Edge 45, Type (0, 0), BuildingBlock: ZUJKAS_clean_linker_0, # of connection points: 2
#     Edge 46, Type (0, 0), BuildingBlock: ZUJKAS_clean_linker_0, # of connection points: 2
#     Edge 47, Type (0, 0), BuildingBlock: ZUJKAS_clean_linker_0, # of connection points: 2
#     Edge 48, Type (0, 0), BuildingBlock: ZUJKAS_clean_linker_0, # of connection points: 2
#     Edge 49, Type (0, 0), BuildingBlock: ZUJKAS_clean_linker_0, # of connection points: 2
#     Edge 50, Type (0, 0), BuildingBlock: ZUJKAS_clean_linker_0, # of connection points: 2
#     Edge 51, Type (0, 0), BuildingBlock: ZUJKAS_clean_linker_0, # of connection points: 2
#     Edge 52, Type (0, 0), BuildingBlock: ZUJKAS_clean_linker_0, # of connection points: 2
#     Edge 53, Type (0, 0), BuildingBlock: ZUJKAS_clean_linker_0, # of connection points: 2
#     Edge 54, Type (0, 0), BuildingBlock: ZUJKAS_clean_linker_0, # of connection points: 2
#     Edge 55, Type (0, 0), BuildingBlock: ZUJKAS_clean_linker_0, # of connection points: 2
#     Edge 56, Type (0, 0), BuildingBlock: ZUJKAS_clean_linker_0, # of connection points: 2
#     Edge 57, Type (0, 0), BuildingBlock: ZUJKAS_clean_linker_0, # of connection points: 2
#     Edge 58, Type (0, 0), BuildingBlock: ZUJKAS_clean_linker_0, # of connection points: 2
#     Edge 59, Type (0, 0), BuildingBlock: ZUJKAS_clean_linker_0, # of connection points: 2
#     Edge 60, Type (0, 0), BuildingBlock: ZUJKAS_clean_linker_0, # of connection points: 2
#     Edge 61, Type (0, 0), BuildingBlock: ZUJKAS_clean_linker_0, # of connection points: 2
#     Edge 62, Type (0, 0), BuildingBlock: ZUJKAS_clean_linker_0, # of connection points: 2
#     Edge 63, Type (0, 0), BuildingBlock: ZUJKAS_clean_linker_0, # of connection points: 2
#     Edge 64, Type (0, 0), BuildingBlock: ZUJKAS_clean_linker_0, # of connection points: 2
#     Edge 65, Type (0, 0), BuildingBlock: ZUJKAS_clean_linker_0, # of connection points: 2
#     Edge 66, Type (0, 0), BuildingBlock: ZUJKAS_clean_linker_0, # of connection points: 2
#     Edge 67, Type (0, 0), BuildingBlock: ZUJKAS_clean_linker_0, # of connection points: 2
#     Edge 68, Type (0, 0), BuildingBlock: ZUJKAS_clean_linker_0, # of connection points: 2
#     Edge 69, Type (0, 0), BuildingBlock: ZUJKAS_clean_linker_0, # of connection points: 2
#     Edge 70, Type (0, 0), BuildingBlock: ZUJKAS_clean_linker_0, # of connection points: 2
#     Edge 71, Type (0, 0), BuildingBlock: ZUJKAS_clean_linker_0, # of connection points: 2
#     Edge 72, Type (0, 0), BuildingBlock: ZUJKAS_clean_linker_0, # of connection points: 2
#     Edge 73, Type (0, 0), BuildingBlock: ZUJKAS_clean_linker_0, # of connection points: 2
#     Edge 74, Type (0, 0), BuildingBlock: ZUJKAS_clean_linker_0, # of connection points: 2
#     Edge 75, Type (0, 0), BuildingBlock: ZUJKAS_clean_linker_0, # of connection points: 2
#     Edge 76, Type (0, 0), BuildingBlock: ZUJKAS_clean_linker_0, # of connection points: 2
#     Edge 77, Type (0, 0), BuildingBlock: ZUJKAS_clean_linker_0, # of connection points: 2
#     Edge 78, Type (0, 0), BuildingBlock: ZUJKAS_clean_linker_0, # of connection points: 2
#     Edge 79, Type (0, 0), BuildingBlock: ZUJKAS_clean_linker_0, # of connection points: 2
#     Edge 80, Type (0, 0), BuildingBlock: ZUJKAS_clean_linker_0, # of connection points: 2
#     Edge 81, Type (0, 0), BuildingBlock: ZUJKAS_clean_linker_0, # of connection points: 2
#     Edge 82, Type (0, 0), BuildingBlock: ZUJKAS_clean_linker_0, # of connection points: 2
#     Edge 83, Type (0, 0), BuildingBlock: ZUJKAS_clean_linker_0, # of connection points: 2
#     Edge 84, Type (0, 0), BuildingBlock: ZUJKAS_clean_linker_0, # of connection points: 2
#     Edge 85, Type (0, 0), BuildingBlock: ZUJKAS_clean_linker_0, # of connection points: 2
#     Edge 86, Type (0, 0), BuildingBlock: ZUJKAS_clean_linker_0, # of connection points: 2
#     Edge 87, Type (0, 0), BuildingBlock: ZUJKAS_clean_linker_0, # of connection points: 2
#     Edge 88, Type (0, 0), BuildingBlock: ZUJKAS_clean_linker_0, # of connection points: 2
#     Edge 89, Type (0, 0), BuildingBlock: ZUJKAS_clean_linker_0, # of connection points: 2
#     Edge 90, Type (0, 0), BuildingBlock: ZUJKAS_clean_linker_0, # of connection points: 2
#     Edge 91, Type (0, 0), BuildingBlock: ZUJKAS_clean_linker_0, # of connection points: 2
#     Edge 92, Type (0, 0), BuildingBlock: ZUJKAS_clean_linker_0, # of connection points: 2
#     Edge 93, Type (0, 0), BuildingBlock: ZUJKAS_clean_linker_0, # of connection points: 2
#     Edge 94, Type (0, 0), BuildingBlock: ZUJKAS_clean_linker_0, # of connection points: 2
#     Edge 95, Type (0, 0), BuildingBlock: ZUJKAS_clean_linker_0, # of connection points: 2
#     Edge 96, Type (0, 0), BuildingBlock: ZUJKAS_clean_linker_0, # of connection points: 2
#     Edge 97, Type (0, 0), BuildingBlock: ZUJKAS_clean_linker_0, # of connection points: 2
#     Edge 98, Type (0, 0), BuildingBlock: ZUJKAS_clean_linker_0, # of connection points: 2
#     Edge 99, Type (0, 0), BuildingBlock: ZUJKAS_clean_linker_0, # of connection points: 2
#     Edge 100, Type (0, 0), BuildingBlock: ZUJKAS_clean_linker_0, # of connection points: 2
#     Edge 101, Type (0, 0), BuildingBlock: ZUJKAS_clean_linker_0, # of connection points: 2
#     Edge 102, Type (0, 0), BuildingBlock: ZUJKAS_clean_linker_0, # of connection points: 2
#     Edge 103, Type (0, 0), BuildingBlock: ZUJKAS_clean_linker_0, # of connection points: 2
#     Edge 104, Type (0, 0), BuildingBlock: ZUJKAS_clean_linker_0, # of connection points: 2
#     Edge 105, Type (0, 0), BuildingBlock: ZUJKAS_clean_linker_0, # of connection points: 2
#     Edge 106, Type (0, 0), BuildingBlock: ZUJKAS_clean_linker_0, # of connection points: 2
#     Edge 107, Type (0, 0), BuildingBlock: ZUJKAS_clean_linker_0, # of connection points: 2
# Relax obj value: 0.060
# Max RMSD: 0.091
# Mean RMSD: 0.091
data_MOF--net-ukn--node1-GALJAG_clean_sbu_0--edge1-ZUJKAS_clean_linker_0
_symmetry_space_group_name_H-M    P1
_symmetry_Int_Tables_number       1
_symmetry_cell_setting            triclinic
loop_
_symmetry_equiv_pos_as_xyz
'x, y, z'
_cell_length_a     134.32491
_cell_length_b     134.31617
_cell_length_c     36.127664
_cell_angle_alpha  89.998528
_cell_angle_beta   89.995088
_cell_angle_gamma 120.00022
loop_
_atom_site_label
_atom_site_type_symbol
_atom_site_fract_x
_atom_site_fract_y
_atom_site_fract_z
_atom_type_partial_charge
In0 In 0.07703 0.29878 0.08085 0.0
O1 O 0.08392 0.28672 0.09354 0.0
O2 O 0.09593 0.30459 0.0878 0.0
C3 C 0.05544 0.28201 0.0654 0.0
C4 C 0.07721 0.30824 0.14695 0.0
C5 C 0.08195 0.30964 0.01468 0.0
O6 O 0.06397 0.28052 0.06296 0.0
O7 O 0.05777 0.29184 0.07648 0.0
O8 O 0.0776 0.3124 0.04092 0.0
O9 O 0.08394 0.30164 0.02216 0.0
C10 C 0.09433 0.29463 0.0936 0.0
O11 O 0.08116 0.31418 0.1179 0.0
O12 O 0.07305 0.29757 0.14247 0.0
In13 In 0.69783 0.77695 0.08785 0.0
O14 O 0.7098 0.79609 0.0989 0.0
O15 O 0.69184 0.7899 0.09506 0.0
C16 C 0.71323 0.77003 0.07704 0.0
C17 C 0.6882 0.76721 0.15323 0.0
C18 C 0.68846 0.77225 0.01949 0.0
O19 O 0.71617 0.78052 0.07972 0.0
O20 O 0.70261 0.76311 0.08063 0.0
O21 O 0.6829 0.76673 0.04776 0.0
O22 O 0.69859 0.78016 0.02591 0.0
C23 C 0.70177 0.79838 0.10014 0.0
O24 O 0.68246 0.7648 0.12359 0.0
O25 O 0.69876 0.7744 0.14969 0.0
In26 In 0.21945 0.92139 0.08786 0.0
O27 O 0.2316 0.91843 0.12446 0.0
O28 O 0.22173 0.92498 0.14968 0.0
C29 C 0.22519 0.91711 0.02044 0.0
C30 C 0.19876 0.90281 0.10041 0.0
C31 C 0.22398 0.94301 0.07498 0.0
O32 O 0.23217 0.92054 0.04723 0.0
O33 O 0.21544 0.91576 0.02793 0.0
O34 O 0.21388 0.93452 0.07428 0.0
O35 O 0.23165 0.94059 0.0831 0.0
C36 C 0.22898 0.92171 0.15382 0.0
O37 O 0.20018 0.91285 0.09929 0.0
O38 O 0.20776 0.90224 0.09548 0.0
In39 In 0.29529 0.07727 0.9206 0.0
O40 O 0.31058 0.08041 0.88451 0.0
O41 O 0.29438 0.07428 0.85837 0.0
C42 C 0.30488 0.08085 0.98854 0.0
C43 C 0.29201 0.09534 0.91116 0.0
C44 C 0.27903 0.05516 0.9306 0.0
O45 O 0.31032 0.08124 0.95952 0.0
O46 O 0.29476 0.0788 0.9831 0.0
O47 O 0.27677 0.06322 0.93097 0.0
O48 O 0.28942 0.05824 0.92428 0.0
C49 C 0.30489 0.07744 0.85476 0.0
O50 O 0.28393 0.08508 0.90838 0.0
O51 O 0.30167 0.09645 0.91868 0.0
In52 In 0.92232 0.22357 0.91834 0.0
O53 O 0.92356 0.23776 0.87981 0.0
O54 O 0.91949 0.22166 0.85624 0.0
C55 C 0.92005 0.23103 0.98563 0.0
C56 C 0.90365 0.20245 0.91763 0.0
C57 C 0.9441 0.22774 0.92146 0.0
O58 O 0.91696 0.23384 0.95628 0.0
O59 O 0.9243 0.22463 0.98076 0.0
O60 O 0.93553 0.21782 0.92595 0.0
O61 O 0.94165 0.23547 0.9144 0.0
C62 C 0.92119 0.23167 0.85096 0.0
O63 O 0.91365 0.20412 0.91215 0.0
O64 O 0.9031 0.21143 0.92347 0.0
In65 In 0.77337 0.69586 0.9168 0.0
O66 O 0.79257 0.70766 0.90682 0.0
O67 O 0.78608 0.6896 0.90882 0.0
C68 C 0.76714 0.71155 0.93198 0.0
C69 C 0.76387 0.68725 0.85015 0.0
C70 C 0.76849 0.68614 0.98463 0.0
O71 O 0.77748 0.71433 0.92601 0.0
O72 O 0.76 0.70095 0.92908 0.0
O73 O 0.76207 0.68127 0.95705 0.0
O74 O 0.77734 0.69562 0.97757 0.0
C75 C 0.79471 0.69952 0.90497 0.0
O76 O 0.76213 0.68089 0.87801 0.0
O77 O 0.77022 0.69786 0.8562 0.0
In78 In 0.92084 0.70033 0.91482 0.0
O79 O 0.92104 0.68676 0.87671 0.0
O80 O 0.92013 0.70068 0.85215 0.0
C81 C 0.91745 0.69059 0.98254 0.0
C82 C 0.9022 0.70272 0.90899 0.0
C83 C 0.9429 0.71714 0.92145 0.0
O84 O 0.91599 0.68489 0.95318 0.0
O85 O 0.92053 0.70101 0.97748 0.0
O86 O 0.93464 0.71907 0.92388 0.0
O87 O 0.94002 0.70684 0.91465 0.0
C88 C 0.9204 0.69152 0.84732 0.0
O89 O 0.91229 0.71121 0.90759 0.0
O90 O 0.90155 0.6931 0.91358 0.0
In91 In 0.29922 0.22381 0.91163 0.0
O92 O 0.29124 0.20643 0.88188 0.0
O93 O 0.29711 0.20729 0.93681 0.0
C94 C 0.28049 0.22554 0.92679 0.0
C95 C 0.30981 0.23298 0.84634 0.0
C96 C 0.31306 0.23517 0.9695 0.0
O97 O 0.28189 0.21762 0.94 0.0
O98 O 0.28842 0.23241 0.90558 0.0
O99 O 0.31401 0.22767 0.95123 0.0
O100 O 0.30562 0.23742 0.95717 0.0
C101 C 0.29258 0.20119 0.90859 0.0
O102 O 0.31536 0.23355 0.87522 0.0
O103 O 0.29909 0.22798 0.85068 0.0
In104 In 0.77652 0.07671 0.91568 0.0
O105 O 0.76308 0.07747 0.87874 0.0
O106 O 0.7771 0.07704 0.85288 0.0
C107 C 0.76805 0.07797 0.98233 0.0
C108 C 0.79759 0.09561 0.91388 0.0
C109 C 0.77233 0.05497 0.91938 0.0
O110 O 0.76566 0.08149 0.95307 0.0
O111 O 0.77454 0.07382 0.97772 0.0
O112 O 0.78167 0.06342 0.93023 0.0
O113 O 0.7652 0.05751 0.90594 0.0
C114 C 0.768 0.07748 0.84888 0.0
O115 O 0.796 0.08568 0.90747 0.0
O116 O 0.7886 0.09595 0.92117 0.0
In117 In 0.69808 0.92087 0.08128 0.0
O118 O 0.68271 0.91707 0.11785 0.0
O119 O 0.69934 0.92534 0.14241 0.0
C120 C 0.68707 0.91588 0.01539 0.0
C121 C 0.70195 0.90354 0.09726 0.0
C122 C 0.71491 0.94229 0.0645 0.0
O123 O 0.68396 0.91967 0.04236 0.0
O124 O 0.69547 0.91445 0.02208 0.0
O125 O 0.71581 0.93354 0.0583 0.0
O126 O 0.70568 0.94027 0.08007 0.0
C127 C 0.68867 0.92121 0.1468 0.0
O128 O 0.70993 0.9139 0.097 0.0
O129 O 0.69211 0.90199 0.08962 0.0
In130 In 0.07592 0.77418 0.08181 0.0
O131 O 0.08387 0.79339 0.0929 0.0
O132 O 0.09495 0.78632 0.09113 0.0
C133 C 0.05453 0.76987 0.06642 0.0
C134 C 0.07494 0.76463 0.14845 0.0
C135 C 0.08043 0.76826 0.01495 0.0
O136 O 0.06302 0.77996 0.0675 0.0
O137 O 0.05682 0.76206 0.0739 0.0
O138 O 0.07649 0.7612 0.04149 0.0
O139 O 0.0823 0.77819 0.02253 0.0
C140 C 0.09401 0.79515 0.09526 0.0
O141 O 0.07954 0.76287 0.12059 0.0
O142 O 0.07074 0.77103 0.14243 0.0
In143 In 0.22037 0.29769 0.09293 0.0
O144 O 0.23314 0.31264 0.12911 0.0
O145 O 0.22225 0.29654 0.15498 0.0
C146 C 0.22896 0.31125 0.03206 0.0
C147 C 0.19806 0.29149 0.10195 0.0
C148 C 0.22318 0.27947 0.08019 0.0
O149 O 0.2335 0.30588 0.04594 0.0
O150 O 0.22043 0.31023 0.04978 0.0
O151 O 0.21536 0.2806 0.06492 0.0
O152 O 0.22938 0.28737 0.10259 0.0
C153 C 0.23002 0.3069 0.15881 0.0
O154 O 0.2062 0.30045 0.11603 0.0
O155 O 0.20114 0.28553 0.08342 0.0
In156 In 0.74334 0.63176 0.41924 0.0
O157 O 0.74462 0.64658 0.45445 0.0
O158 O 0.74057 0.63092 0.48137 0.0
C159 C 0.74819 0.64543 0.35912 0.0
C160 C 0.76003 0.62645 0.42925 0.0
C161 C 0.72283 0.61341 0.40178 0.0
O162 O 0.73903 0.64193 0.37743 0.0
O163 O 0.75504 0.64249 0.37221 0.0
O164 O 0.73147 0.61714 0.38087 0.0
O165 O 0.72458 0.61878 0.43188 0.0
C166 C 0.74243 0.64106 0.48453 0.0
O167 O 0.75007 0.61911 0.41857 0.0
O168 O 0.76148 0.63633 0.43514 0.0
In169 In 0.36175 0.10773 0.42341 0.0
O170 O 0.37279 0.12717 0.43124 0.0
O171 O 0.35472 0.11993 0.42598 0.0
C172 C 0.37805 0.10199 0.41298 0.0
C173 C 0.35326 0.09903 0.4909 0.0
C174 C 0.35196 0.10151 0.35585 0.0
O175 O 0.38031 0.11231 0.41362 0.0
O176 O 0.36764 0.09461 0.41866 0.0
O177 O 0.34647 0.09672 0.38509 0.0
O178 O 0.36222 0.10932 0.36094 0.0
C179 C 0.36436 0.12887 0.43019 0.0
O180 O 0.34718 0.09557 0.46194 0.0
O181 O 0.36358 0.10669 0.4856 0.0
In182 In 0.88728 0.25494 0.42075 0.0
O183 O 0.86786 0.24633 0.42795 0.0
O184 O 0.87526 0.23564 0.42141 0.0
C185 C 0.89241 0.27696 0.41403 0.0
C186 C 0.89587 0.25478 0.48815 0.0
C187 C 0.89388 0.25166 0.35333 0.0
O188 O 0.88222 0.26868 0.4119 0.0
O189 O 0.89987 0.27411 0.42051 0.0
O190 O 0.89786 0.24998 0.38288 0.0
O191 O 0.88663 0.25489 0.35802 0.0
C192 C 0.86626 0.23624 0.42611 0.0
O193 O 0.90124 0.25548 0.45865 0.0
O194 O 0.88631 0.25424 0.48351 0.0
In195 In 0.9661 0.41039 0.25069 0.0
O196 O 0.98124 0.41463 0.21258 0.0
O197 O 0.96439 0.4036 0.19182 0.0
C198 C 0.97826 0.41822 0.31425 0.0
C199 C 0.96046 0.42655 0.23493 0.0
C200 C 0.95052 0.38865 0.26953 0.0
O201 O 0.9814 0.41415 0.28822 0.0
O202 O 0.96928 0.41866 0.30762 0.0
O203 O 0.94763 0.39534 0.25473 0.0
O204 O 0.9612 0.39282 0.27356 0.0
C205 C 0.97507 0.40883 0.18561 0.0
O206 O 0.95434 0.41806 0.25556 0.0
O207 O 0.96934 0.42684 0.22224 0.0
In208 In 0.58757 0.55418 0.25202 0.0
O209 O 0.57944 0.53491 0.24098 0.0
O210 O 0.56838 0.54181 0.24837 0.0
C211 C 0.60949 0.55967 0.26367 0.0
C212 C 0.58785 0.56329 0.18528 0.0
C213 C 0.58386 0.56047 0.31929 0.0
O214 O 0.60127 0.54943 0.26496 0.0
O215 O 0.60665 0.56706 0.25561 0.0
O216 O 0.58429 0.5659 0.29021 0.0
O217 O 0.58519 0.55193 0.31418 0.0
C218 C 0.56926 0.53304 0.24228 0.0
O219 O 0.58435 0.5659 0.21412 0.0
O220 O 0.59134 0.55624 0.19031 0.0
In221 In 0.4416 0.03203 0.24722 0.0
O222 O 0.46096 0.04337 0.238 0.0
O223 O 0.45406 0.02534 0.24338 0.0
C224 C 0.43551 0.04797 0.26023 0.0
C225 C 0.4328 0.02379 0.17966 0.0
C226 C 0.43545 0.02164 0.31392 0.0
O227 O 0.44588 0.05037 0.26003 0.0
O228 O 0.4283 0.03763 0.25285 0.0
O229 O 0.43042 0.01653 0.28445 0.0
O230 O 0.44352 0.03182 0.30949 0.0
C231 C 0.46286 0.03506 0.23865 0.0
O232 O 0.42971 0.01752 0.20821 0.0
O233 O 0.44018 0.03419 0.18539 0.0
In234 In 0.58711 0.03171 0.24695 0.0
O235 O 0.57896 0.0429 0.23727 0.0
O236 O 0.5679 0.02493 0.24454 0.0
C237 C 0.60907 0.04812 0.25819 0.0
C238 C 0.58738 0.02308 0.17977 0.0
C239 C 0.58343 0.02164 0.31411 0.0
O240 O 0.60089 0.0502 0.25874 0.0
O241 O 0.60619 0.03782 0.25106 0.0
O242 O 0.58322 0.01643 0.28474 0.0
O243 O 0.58542 0.03177 0.30937 0.0
C244 C 0.56877 0.0346 0.23907 0.0
O245 O 0.58434 0.01697 0.20869 0.0
O246 O 0.5904 0.0335 0.18493 0.0
In247 In 0.96647 0.55469 0.25472 0.0
O248 O 0.98219 0.56583 0.21832 0.0
O249 O 0.96565 0.55798 0.19344 0.0
C250 C 0.976 0.56129 0.32239 0.0
C251 C 0.96275 0.53316 0.2456 0.0
C252 C 0.95006 0.56019 0.26653 0.0
O253 O 0.98153 0.56608 0.29318 0.0
O254 O 0.96587 0.55321 0.31718 0.0
O255 O 0.94802 0.54994 0.26762 0.0
O256 O 0.96028 0.56758 0.25841 0.0
C257 C 0.97636 0.56421 0.18921 0.0
O258 O 0.9556 0.53606 0.23513 0.0
O259 O 0.97168 0.54108 0.26055 0.0
In260 In 0.44219 0.40823 0.24527 0.0
O261 O 0.42799 0.40703 0.20687 0.0
O262 O 0.44399 0.41087 0.18309 0.0
C263 C 0.435 0.41098 0.31247 0.0
C264 C 0.46341 0.42674 0.24289 0.0
C265 C 0.43783 0.3864 0.24953 0.0
O266 O 0.43194 0.41372 0.28289 0.0
O267 O 0.44154 0.40688 0.30789 0.0
O268 O 0.44778 0.39494 0.25385 0.0
O269 O 0.43017 0.3889 0.24204 0.0
C270 C 0.43403 0.40928 0.17793 0.0
O271 O 0.46159 0.41665 0.23828 0.0
O272 O 0.45453 0.42746 0.24885 0.0
In273 In 0.36362 0.25463 0.41 0.0
O274 O 0.37412 0.24578 0.41934 0.0
O275 O 0.35591 0.23534 0.4153 0.0
C276 C 0.38119 0.27594 0.39675 0.0
C277 C 0.35559 0.25512 0.47812 0.0
C278 C 0.3535 0.25136 0.34292 0.0
O279 O 0.38235 0.26718 0.39567 0.0
O280 O 0.37127 0.27395 0.40547 0.0
O281 O 0.35006 0.25455 0.37065 0.0
O282 O 0.3617 0.2496 0.34949 0.0
C283 C 0.36545 0.23578 0.41966 0.0
O284 O 0.34911 0.25161 0.45005 0.0
O285 O 0.36604 0.25856 0.47151 0.0
In286 In 0.74229 0.10841 0.41757 0.0
O287 O 0.75045 0.12767 0.42872 0.0
O288 O 0.76151 0.12081 0.42025 0.0
C289 C 0.72045 0.10325 0.4065 0.0
C290 C 0.74219 0.09933 0.48428 0.0
C291 C 0.74547 0.10187 0.34997 0.0
O292 O 0.72875 0.11346 0.40584 0.0
O293 O 0.72315 0.09571 0.41368 0.0
O294 O 0.74482 0.09628 0.37888 0.0
O295 O 0.74467 0.11071 0.35543 0.0
C296 C 0.76064 0.12957 0.42672 0.0
O297 O 0.74612 0.09712 0.45561 0.0
O298 O 0.73819 0.10594 0.47908 0.0
In299 In 0.88813 0.63262 0.41643 0.0
O300 O 0.9022 0.64586 0.45479 0.0
O301 O 0.886 0.6341 0.4782 0.0
C302 C 0.89508 0.64293 0.34964 0.0
C303 C 0.86624 0.62805 0.41767 0.0
C304 C 0.89359 0.61591 0.41195 0.0
O305 O 0.89735 0.64864 0.37932 0.0
O306 O 0.88944 0.63219 0.35391 0.0
O307 O 0.88347 0.614 0.40746 0.0
O308 O 0.90087 0.62618 0.41986 0.0
C309 C 0.896 0.6424 0.48346 0.0
O310 O 0.86898 0.62058 0.42566 0.0
O311 O 0.87454 0.63779 0.40907 0.0
In312 In 0.4083 0.96579 0.75038 0.0
O313 O 0.41117 0.98113 0.78578 0.0
O314 O 0.4059 0.96518 0.81277 0.0
C315 C 0.41176 0.9748 0.68156 0.0
C316 C 0.42639 0.96257 0.75962 0.0
C317 C 0.38606 0.94961 0.74289 0.0
O318 O 0.41267 0.98064 0.7101 0.0
O319 O 0.40921 0.96457 0.68791 0.0
O320 O 0.39404 0.94723 0.74292 0.0
O321 O 0.3893 0.96011 0.74743 0.0
C322 C 0.4087 0.97562 0.8159 0.0
O323 O 0.41615 0.95438 0.76089 0.0
O324 O 0.42746 0.9723 0.75363 0.0
In325 In 0.03158 0.4429 0.75416 0.0
O326 O 0.04267 0.46221 0.76431 0.0
O327 O 0.02462 0.45514 0.7583 0.0
C328 C 0.04773 0.43689 0.74472 0.0
C329 C 0.0223 0.43355 0.82032 0.0
C330 C 0.02285 0.43803 0.68496 0.0
O331 O 0.05019 0.44726 0.74704 0.0
O332 O 0.03718 0.4296 0.7481 0.0
O333 O 0.01708 0.43231 0.71271 0.0
O334 O 0.03282 0.44608 0.6924 0.0
C335 C 0.03429 0.46399 0.76348 0.0
O336 O 0.01649 0.43049 0.79076 0.0
O337 O 0.03271 0.44114 0.81622 0.0
In338 In 0.55396 0.58681 0.75472 0.0
O339 O 0.56666 0.58474 0.79151 0.0
O340 O 0.55468 0.58847 0.81742 0.0
C341 C 0.5605 0.5839 0.68679 0.0
C342 C 0.53267 0.56842 0.76019 0.0
C343 C 0.55978 0.60897 0.74715 0.0
O344 O 0.56447 0.58201 0.71599 0.0
O345 O 0.55328 0.58714 0.69205 0.0
O346 O 0.54947 0.60089 0.74598 0.0
O347 O 0.56708 0.60586 0.75323 0.0
C348 C 0.56285 0.58647 0.82134 0.0
O349 O 0.53455 0.57858 0.76278 0.0
O350 O 0.5415 0.56758 0.755 0.0
In351 In 0.63194 0.74272 0.58407 0.0
O352 O 0.64658 0.74526 0.54573 0.0
O353 O 0.62994 0.73887 0.52245 0.0
C354 C 0.642 0.74725 0.65134 0.0
C355 C 0.62888 0.76087 0.574 0.0
C356 C 0.61599 0.72074 0.59737 0.0
O357 O 0.64726 0.74719 0.62241 0.0
O358 O 0.63185 0.74513 0.64606 0.0
O359 O 0.61354 0.72867 0.59582 0.0
O360 O 0.6264 0.72388 0.59121 0.0
C361 C 0.64036 0.74192 0.51708 0.0
O362 O 0.62059 0.75066 0.57391 0.0
O363 O 0.63863 0.76184 0.5789 0.0
In364 In 0.25219 0.88811 0.58451 0.0
O365 O 0.248 0.8991 0.54636 0.0
O366 O 0.25707 0.89132 0.52367 0.0
C367 C 0.24685 0.89415 0.6498 0.0
C368 C 0.2352 0.86667 0.56938 0.0
C369 C 0.27368 0.89295 0.60139 0.0
O370 O 0.2517 0.9013 0.62394 0.0
O371 O 0.24452 0.88406 0.64232 0.0
O372 O 0.2651 0.88301 0.60502 0.0
O373 O 0.27144 0.90034 0.58855 0.0
C374 C 0.25259 0.8975 0.51816 0.0
O375 O 0.24555 0.86913 0.57259 0.0
O376 O 0.23349 0.87503 0.57356 0.0
In377 In 0.10895 0.36507 0.57767 0.0
O378 O 0.09761 0.34993 0.53983 0.0
O379 O 0.10577 0.36676 0.51681 0.0
C380 C 0.10353 0.35422 0.64386 0.0
C381 C 0.13012 0.36881 0.56211 0.0
C382 C 0.10392 0.38161 0.59421 0.0
O383 O 0.09632 0.35124 0.61784 0.0
O384 O 0.11338 0.36242 0.63613 0.0
O385 O 0.11408 0.38338 0.59492 0.0
O386 O 0.09643 0.37163 0.58429 0.0
C387 C 0.09939 0.35611 0.51147 0.0
O388 O 0.12802 0.37695 0.56556 0.0
O389 O 0.12155 0.35888 0.56641 0.0
In390 In 0.25088 0.36212 0.59077 0.0
O391 O 0.2442 0.37443 0.57915 0.0
O392 O 0.23222 0.35645 0.57878 0.0
C393 C 0.27247 0.37804 0.60937 0.0
C394 C 0.25211 0.35339 0.52465 0.0
C395 C 0.24502 0.35148 0.65725 0.0
O396 O 0.2648 0.38063 0.60306 0.0
O397 O 0.2693 0.36754 0.60523 0.0
O398 O 0.24866 0.34794 0.63102 0.0
O399 O 0.24405 0.3601 0.6495 0.0
C400 C 0.2339 0.36652 0.57494 0.0
O401 O 0.2468 0.34707 0.55194 0.0
O402 O 0.25694 0.36403 0.53102 0.0
In403 In 0.63162 0.88813 0.57824 0.0
O404 O 0.62048 0.86879 0.56874 0.0
O405 O 0.63849 0.87578 0.57565 0.0
C406 C 0.61539 0.89395 0.58846 0.0
C407 C 0.64056 0.89699 0.5113 0.0
C408 C 0.64084 0.89393 0.64667 0.0
O409 O 0.61306 0.88361 0.58749 0.0
O410 O 0.62583 0.9013 0.58313 0.0
O411 O 0.64633 0.89942 0.61822 0.0
O412 O 0.63093 0.8856 0.64028 0.0
C413 C 0.62882 0.86695 0.57037 0.0
O414 O 0.6466 0.89997 0.54038 0.0
O415 O 0.63008 0.88973 0.51625 0.0
In416 In 0.10896 0.74362 0.57984 0.0
O417 O 0.12841 0.75089 0.57604 0.0
O418 O 0.12192 0.76221 0.56664 0.0
C419 C 0.10786 0.7237 0.59888 0.0
C420 C 0.09858 0.74225 0.5144 0.0
C421 C 0.09947 0.74745 0.64035 0.0
O422 O 0.11324 0.73274 0.61786 0.0
O423 O 0.1033 0.72479 0.56977 0.0
O424 O 0.10899 0.7549 0.62704 0.0
O425 O 0.09444 0.73819 0.6222 0.0
C426 C 0.1306 0.76096 0.56837 0.0
O427 O 0.09532 0.74461 0.54425 0.0
O428 O 0.10685 0.74038 0.51785 0.0
In429 In 0.0331 0.58963 0.75669 0.0
O430 O 0.04389 0.58097 0.76501 0.0
O431 O 0.0259 0.57034 0.75662 0.0
C432 C 0.04974 0.61163 0.74756 0.0
C433 C 0.02445 0.58935 0.82433 0.0
C434 C 0.02313 0.58658 0.68955 0.0
O435 O 0.05164 0.60336 0.7448 0.0
O436 O 0.03954 0.60881 0.75598 0.0
O437 O 0.01774 0.58569 0.71918 0.0
O438 O 0.03339 0.58895 0.69401 0.0
C439 C 0.03543 0.5709 0.76208 0.0
O440 O 0.01865 0.5876 0.79505 0.0
O441 O 0.0346 0.5914 0.81932 0.0
In442 In 0.4078 0.44136 0.74668 0.0
O443 O 0.40778 0.42771 0.78497 0.0
O444 O 0.40956 0.44294 0.80919 0.0
C445 C 0.41077 0.43468 0.67899 0.0
C446 C 0.42619 0.46265 0.74919 0.0
C447 C 0.38557 0.43568 0.74292 0.0
O448 O 0.4131 0.43115 0.70838 0.0
O449 O 0.407 0.44148 0.68396 0.0
O450 O 0.39365 0.44598 0.74107 0.0
O451 O 0.38874 0.42837 0.74752 0.0
C452 C 0.40903 0.4334 0.81416 0.0
O453 O 0.41603 0.46082 0.75198 0.0
O454 O 0.42701 0.45376 0.74496 0.0
In455 In 0.55327 0.96539 0.74992 0.0
O456 O 0.56564 0.98053 0.78611 0.0
O457 O 0.55509 0.9644 0.81218 0.0
C458 C 0.55905 0.97476 0.68166 0.0
C459 C 0.53197 0.9622 0.75914 0.0
C460 C 0.5592 0.94921 0.73995 0.0
O461 O 0.56398 0.98043 0.71049 0.0
O462 O 0.55123 0.96456 0.68749 0.0
O463 O 0.54886 0.94689 0.73996 0.0
O464 O 0.56649 0.95962 0.74607 0.0
C465 C 0.56265 0.97484 0.81588 0.0
O466 O 0.53405 0.95404 0.76123 0.0
O467 O 0.5406 0.9719 0.75245 0.0
H468 H 0.11719 0.3103 0.09293 0.0
H469 H 0.13319 0.30655 0.09575 0.0
H470 H 0.10933 0.27022 0.10642 0.0
H471 H 0.09318 0.27389 0.10377 0.0
H472 H 0.12901 0.27966 0.15649 0.0
H473 H 0.14121 0.29121 0.00937 0.0
H474 H 0.13968 0.30182 0.03505 0.0
H475 H 0.12733 0.28786 0.02746 0.0
C476 C 0.11533 0.30151 0.09606 0.0
C477 C 0.10394 0.29237 0.09789 0.0
C478 C 0.12448 0.29939 0.0975 0.0
C479 C 0.1224 0.2881 0.10067 0.0
C480 C 0.11106 0.27898 0.10372 0.0
H481 H 0.17955 0.27539 0.06299 0.0
H482 H 0.15991 0.27224 0.06412 0.0
C483 C 0.10188 0.28109 0.10221 0.0
C484 C 0.13214 0.28593 0.1004 0.0
H485 H 0.15503 0.29007 0.04804 0.0
C486 C 0.13463 0.28178 0.13267 0.0
C487 C 0.13932 0.28853 0.06904 0.0
C488 C 0.13672 0.2925 0.03311 0.0
C489 C 0.14451 0.28076 0.13502 0.0
C490 C 0.15206 0.28406 0.10443 0.0
C491 C 0.14924 0.28761 0.07153 0.0
C492 C 0.16342 0.28487 0.10682 0.0
C493 C 0.14691 0.27636 0.17037 0.0
C494 C 0.17182 0.29297 0.13055 0.0
C495 C 0.18302 0.29486 0.12973 0.0
C496 C 0.18599 0.28865 0.10518 0.0
C497 C 0.17747 0.28026 0.08228 0.0
C498 C 0.16628 0.27845 0.08288 0.0
H499 H 0.13894 0.27123 0.18679 0.0
H500 H 0.15087 0.27099 0.16448 0.0
H501 H 0.15302 0.28378 0.18752 0.0
H502 H 0.16983 0.29816 0.14871 0.0
H503 H 0.18942 0.30138 0.14768 0.0
H504 H 0.72235 0.81833 0.1077 0.0
H505 H 0.72541 0.83779 0.11666 0.0
H506 H 0.68873 0.82417 0.11555 0.0
H507 H 0.68561 0.8048 0.1069 0.0
H508 H 0.71809 0.84931 0.06865 0.0
H509 H 0.69909 0.84461 0.20792 0.0
H510 H 0.70333 0.83472 0.19 0.0
H511 H 0.68975 0.83332 0.17699 0.0
C512 C 0.71495 0.8195 0.10973 0.0
C513 C 0.70374 0.81007 0.10667 0.0
C514 C 0.71671 0.83059 0.11487 0.0
C515 C 0.70729 0.83236 0.11743 0.0
C516 C 0.69611 0.82294 0.11453 0.0
H517 H 0.68588 0.88087 0.10127 0.0
H518 H 0.68908 0.86467 0.11011 0.0
C519 C 0.69435 0.8119 0.10929 0.0
C520 C 0.709 0.84409 0.12049 0.0
H521 H 0.70035 0.86001 0.17017 0.0
C522 C 0.71445 0.85179 0.09122 0.0
C523 C 0.70428 0.84727 0.15007 0.0
C524 C 0.69889 0.83958 0.18322 0.0
C525 C 0.71459 0.86229 0.08945 0.0
C526 C 0.70926 0.86516 0.11799 0.0
C527 C 0.70438 0.85774 0.14827 0.0
C528 C 0.70756 0.87517 0.11491 0.0
C529 C 0.71979 0.86991 0.05602 0.0
C530 C 0.71691 0.88645 0.11528 0.0
C531 C 0.71511 0.89575 0.11018 0.0
C532 C 0.70393 0.89387 0.10469 0.0
C533 C 0.69459 0.88258 0.10528 0.0
C534 C 0.6964 0.87332 0.11043 0.0
H535 H 0.72207 0.86564 0.03394 0.0
H536 H 0.71373 0.87245 0.0444 0.0
H537 H 0.72772 0.87787 0.06439 0.0
H538 H 0.72558 0.88803 0.11915 0.0
H539 H 0.72245 0.90438 0.10999 0.0
H540 H 0.09443 0.81568 0.10094 0.0
H541 H 0.11147 0.83493 0.10495 0.0
H542 H 0.13326 0.81985 0.10575 0.0
H543 H 0.11637 0.80067 0.10148 0.0
H544 H 0.13029 0.84463 0.15852 0.0
H545 H 0.14436 0.84219 0.016 0.0
H546 H 0.12996 0.83262 0.0325 0.0
H547 H 0.14151 0.83014 0.04474 0.0
C548 C 0.10286 0.81648 0.10222 0.0
C549 C 0.10409 0.80669 0.10055 0.0
C550 C 0.11256 0.82746 0.10456 0.0
C551 C 0.12359 0.82877 0.10506 0.0
C552 C 0.12481 0.819 0.10478 0.0
H553 H 0.19413 0.88072 0.10502 0.0
H554 H 0.17532 0.86331 0.10843 0.0
C555 C 0.11515 0.80805 0.10244 0.0
C556 C 0.13392 0.84033 0.10469 0.0
H557 H 0.15794 0.8574 0.05398 0.0
C558 C 0.1363 0.84751 0.13557 0.0
C559 C 0.14165 0.84404 0.07452 0.0
C560 C 0.13922 0.83691 0.03989 0.0
C561 C 0.14654 0.85815 0.13776 0.0
C562 C 0.15446 0.86166 0.1081 0.0
C563 C 0.15187 0.85462 0.07677 0.0
C564 C 0.16574 0.87233 0.1094 0.0
C565 C 0.14905 0.86536 0.17222 0.0
C566 C 0.16656 0.88316 0.10912 0.0
C567 C 0.17734 0.89316 0.10719 0.0
C568 C 0.1874 0.89242 0.10529 0.0
C569 C 0.18653 0.88156 0.10639 0.0
C570 C 0.1758 0.87161 0.10834 0.0
H571 H 0.14306 0.8605 0.19516 0.0
H572 H 0.158 0.86852 0.18168 0.0
H573 H 0.14816 0.87296 0.16593 0.0
H574 H 0.15888 0.88387 0.10935 0.0
H575 H 0.17777 0.90142 0.10627 0.0
H576 H 0.27204 0.09524 0.89536 0.0
H577 H 0.26942 0.11196 0.88827 0.0
H578 H 0.30551 0.13455 0.90978 0.0
H579 H 0.30822 0.11797 0.91643 0.0
H580 H 0.27367 0.12889 0.94015 0.0
H581 H 0.30033 0.14792 0.81506 0.0
H582 H 0.29542 0.13331 0.8295 0.0
H583 H 0.30788 0.14508 0.8507 0.0
C584 C 0.27942 0.10378 0.8983 0.0
C585 C 0.29034 0.10532 0.9063 0.0
C586 C 0.27791 0.1133 0.89425 0.0
C587 C 0.28731 0.12448 0.89786 0.0
C588 C 0.2982 0.12601 0.90602 0.0
H589 H 0.29521 0.18854 0.9625 0.0
H590 H 0.29191 0.169 0.95761 0.0
C591 C 0.29971 0.11652 0.91006 0.0
C592 C 0.28575 0.1346 0.89496 0.0
H593 H 0.29646 0.16054 0.85177 0.0
C594 C 0.27851 0.13574 0.92046 0.0
C595 C 0.2919 0.14342 0.86881 0.0
C596 C 0.29923 0.14233 0.83921 0.0
C597 C 0.27777 0.14579 0.9219 0.0
C598 C 0.2846 0.15497 0.8976 0.0
C599 C 0.29132 0.15354 0.87069 0.0
C600 C 0.28559 0.1664 0.90129 0.0
C601 C 0.26981 0.14655 0.94975 0.0
C602 C 0.28328 0.17149 0.87106 0.0
C603 C 0.28525 0.18273 0.87368 0.0
C604 C 0.28965 0.18905 0.90651 0.0
C605 C 0.29176 0.18386 0.93691 0.0
C606 C 0.2898 0.17265 0.93426 0.0
H607 H 0.26264 0.13788 0.95721 0.0
H608 H 0.27468 0.15065 0.97541 0.0
H609 H 0.26615 0.15179 0.93903 0.0
H610 H 0.28012 0.16684 0.84527 0.0
H611 H 0.28357 0.18653 0.84978 0.0
H612 H 0.80262 0.11766 0.92502 0.0
H613 H 0.82148 0.13505 0.92276 0.0
H614 H 0.83726 0.11467 0.89789 0.0
H615 H 0.81835 0.09713 0.90033 0.0
H616 H 0.84837 0.13158 0.95487 0.0
H617 H 0.84046 0.14995 0.82824 0.0
H618 H 0.82948 0.14576 0.86287 0.0
H619 H 0.83169 0.13501 0.84089 0.0
C620 C 0.81009 0.11686 0.91897 0.0
C621 C 0.80902 0.10605 0.91267 0.0
C622 C 0.82084 0.12681 0.91751 0.0
C623 C 0.8307 0.12613 0.90957 0.0
C624 C 0.82971 0.11534 0.90378 0.0
H625 H 0.90256 0.18189 0.90441 0.0
H626 H 0.88527 0.16284 0.90157 0.0
C627 C 0.81893 0.10536 0.90516 0.0
C628 C 0.84204 0.13672 0.90818 0.0
H629 H 0.85672 0.16267 0.86469 0.0
C630 C 0.85029 0.13834 0.93491 0.0
C631 C 0.84447 0.14547 0.882 0.0
C632 C 0.8361 0.14395 0.85163 0.0
C633 C 0.86076 0.14874 0.93719 0.0
C634 C 0.86302 0.15762 0.9117 0.0
C635 C 0.85491 0.15585 0.88429 0.0
C636 C 0.87353 0.16901 0.91393 0.0
C637 C 0.8691 0.15033 0.96769 0.0
C638 C 0.8726 0.17877 0.92124 0.0
C639 C 0.88241 0.18963 0.9227 0.0
C640 C 0.89333 0.19092 0.91669 0.0
C641 C 0.89425 0.18113 0.90931 0.0
C642 C 0.88441 0.17026 0.90785 0.0
H643 H 0.86507 0.14358 0.98934 0.0
H644 H 0.87647 0.14986 0.95579 0.0
H645 H 0.8725 0.15888 0.98093 0.0
H646 H 0.86426 0.17797 0.92588 0.0
H647 H 0.88144 0.19701 0.92839 0.0
H648 H 0.80107 0.68325 0.90124 0.0
H649 H 0.82053 0.68627 0.89659 0.0
H650 H 0.83428 0.72295 0.89259 0.0
H651 H 0.81477 0.72 0.89774 0.0
H652 H 0.83744 0.69767 0.84137 0.0
H653 H 0.85159 0.71852 0.97948 0.0
H654 H 0.83666 0.7107 0.96602 0.0
H655 H 0.84595 0.72487 0.94812 0.0
C656 C 0.80823 0.69196 0.89926 0.0
C657 C 0.80643 0.7014 0.90011 0.0
C658 C 0.81933 0.69367 0.89655 0.0
C659 C 0.82882 0.70483 0.89474 0.0
C660 C 0.82706 0.71428 0.89459 0.0
H661 H 0.90123 0.7225 0.90221 0.0
H662 H 0.88396 0.7242 0.89529 0.0
C663 C 0.81593 0.71258 0.89735 0.0
C664 C 0.84053 0.70643 0.89367 0.0
H665 H 0.86488 0.71571 0.94528 0.0
C666 C 0.84349 0.70171 0.8639 0.0
C667 C 0.8484 0.71175 0.92307 0.0
C668 C 0.84552 0.71669 0.95617 0.0
C669 C 0.85402 0.7019 0.86319 0.0
C670 C 0.86168 0.7068 0.89329 0.0
C671 C 0.85895 0.71195 0.92231 0.0
C672 C 0.87214 0.70587 0.89654 0.0
C673 C 0.85681 0.69674 0.83048 0.0
C674 C 0.87114 0.69501 0.90007 0.0
C675 C 0.88093 0.69401 0.90419 0.0
C676 C 0.89189 0.70387 0.90495 0.0
C677 C 0.89288 0.71476 0.90162 0.0
C678 C 0.88306 0.71575 0.89765 0.0
H679 H 0.85176 0.69638 0.80563 0.0
H680 H 0.8661 0.70174 0.82361 0.0
H681 H 0.85463 0.68783 0.83737 0.0
H682 H 0.86277 0.68729 0.90003 0.0
H683 H 0.8799 0.68551 0.90681 0.0
H684 H 0.85837 0.64243 0.39798 0.0
H685 H 0.83865 0.63877 0.4017 0.0
H686 H 0.82735 0.60472 0.44382 0.0
H687 H 0.84713 0.60832 0.44026 0.0
H688 H 0.81809 0.61992 0.36717 0.0
H689 H 0.81639 0.62065 0.52126 0.0
H690 H 0.82981 0.62678 0.49622 0.0
H691 H 0.82099 0.61147 0.50015 0.0
C692 C 0.85169 0.63416 0.40798 0.0
C693 C 0.85428 0.62567 0.41898 0.0
C694 C 0.84045 0.63208 0.41 0.0
C695 C 0.83162 0.62152 0.42328 0.0
C696 C 0.83411 0.61296 0.43385 0.0
H697 H 0.76 0.60677 0.40932 0.0
H698 H 0.77644 0.60354 0.40962 0.0
C699 C 0.84537 0.61502 0.43169 0.0
C700 C 0.81985 0.61966 0.4263 0.0
H701 H 0.80034 0.6187 0.4888 0.0
C702 C 0.81409 0.61947 0.39369 0.0
C703 C 0.81478 0.61916 0.46103 0.0
C704 C 0.82078 0.61958 0.49679 0.0
C705 C 0.80351 0.61914 0.39491 0.0
C706 C 0.79857 0.61893 0.42967 0.0
C707 C 0.80415 0.61877 0.46226 0.0
C708 C 0.78831 0.62022 0.43264 0.0
C709 C 0.79795 0.61962 0.35914 0.0
C710 C 0.78953 0.63052 0.44645 0.0
C711 C 0.78021 0.63239 0.44627 0.0
C712 C 0.7695 0.62395 0.43247 0.0
C713 C 0.76817 0.61343 0.42002 0.0
C714 C 0.77754 0.61159 0.42006 0.0
H715 H 0.80367 0.62132 0.33489 0.0
H716 H 0.78996 0.61128 0.35468 0.0
H717 H 0.79557 0.62642 0.36053 0.0
H718 H 0.79779 0.63727 0.45628 0.0
H719 H 0.78148 0.64055 0.4562 0.0
H720 H 0.38422 0.14959 0.43678 0.0
H721 H 0.38614 0.16874 0.43722 0.0
H722 H 0.3493 0.15326 0.42911 0.0
H723 H 0.34732 0.13417 0.42833 0.0
H724 H 0.36211 0.17083 0.37627 0.0
H725 H 0.37765 0.18456 0.52036 0.0
H726 H 0.3853 0.17936 0.49306 0.0
H727 H 0.37065 0.16969 0.50603 0.0
C728 C 0.37654 0.15029 0.43543 0.0
C729 C 0.36563 0.14041 0.43249 0.0
C730 C 0.37764 0.16121 0.43586 0.0
C731 C 0.36785 0.16237 0.43354 0.0
C732 C 0.35695 0.15251 0.43104 0.0
H733 H 0.34799 0.21357 0.42009 0.0
H734 H 0.34949 0.1962 0.42354 0.0
C735 C 0.35584 0.14163 0.43061 0.0
C736 C 0.36886 0.17383 0.43174 0.0
H737 H 0.3758 0.19788 0.48248 0.0
C738 C 0.36514 0.17677 0.39942 0.0
C739 C 0.37292 0.18156 0.46192 0.0
C740 C 0.3768 0.17866 0.49747 0.0
C741 C 0.3652 0.18719 0.39664 0.0
C742 C 0.36888 0.19476 0.42724 0.0
C743 C 0.37294 0.192 0.45918 0.0
C744 C 0.36806 0.20532 0.427 0.0
C745 C 0.36129 0.19002 0.36097 0.0
C746 C 0.378 0.21617 0.42896 0.0
C747 C 0.37717 0.22613 0.42711 0.0
C748 C 0.36638 0.22534 0.42351 0.0
C749 C 0.35643 0.21445 0.42261 0.0
C750 C 0.35727 0.20452 0.42443 0.0
H751 H 0.36172 0.18494 0.33737 0.0
H752 H 0.35223 0.18794 0.36399 0.0
H753 H 0.3666 0.19931 0.3543 0.0
H754 H 0.3864 0.21693 0.43118 0.0
H755 H 0.38497 0.23443 0.428 0.0
H756 H 0.84558 0.23527 0.43493 0.0
H757 H 0.82659 0.21798 0.4408 0.0
H758 H 0.84214 0.19674 0.43048 0.0
H759 H 0.86109 0.21391 0.42489 0.0
H760 H 0.81566 0.19976 0.3894 0.0
H761 H 0.82237 0.1844 0.52438 0.0
H762 H 0.83152 0.19892 0.50808 0.0
H763 H 0.83353 0.18742 0.49137 0.0
C764 C 0.84494 0.22691 0.43409 0.0
C765 C 0.8548 0.22592 0.42959 0.0
C766 C 0.83411 0.21706 0.43746 0.0
C767 C 0.83302 0.20612 0.43671 0.0
C768 C 0.84285 0.20513 0.43193 0.0
H769 H 0.78312 0.13532 0.42424 0.0
H770 H 0.8 0.1545 0.42892 0.0
C771 C 0.85365 0.21494 0.4285 0.0
C772 C 0.82159 0.19566 0.43935 0.0
H773 H 0.80647 0.17072 0.48806 0.0
C774 C 0.81354 0.19347 0.41125 0.0
C775 C 0.81889 0.18753 0.46799 0.0
C776 C 0.82699 0.18971 0.49988 0.0
C777 C 0.80308 0.18306 0.40996 0.0
C778 C 0.80059 0.17474 0.43783 0.0
C779 C 0.80845 0.17712 0.46668 0.0
C780 C 0.79025 0.1632 0.43614 0.0
C781 C 0.79501 0.1808 0.37791 0.0
C782 C 0.77919 0.16176 0.43914 0.0
C783 C 0.76951 0.15079 0.43644 0.0
C784 C 0.77078 0.14113 0.4308 0.0
C785 C 0.78188 0.14261 0.42847 0.0
C786 C 0.79152 0.15355 0.4312 0.0
H787 H 0.79914 0.18721 0.35538 0.0
H788 H 0.79194 0.17208 0.36636 0.0
H789 H 0.78741 0.18121 0.38777 0.0
H790 H 0.77806 0.16911 0.44351 0.0
H791 H 0.76105 0.14989 0.4385 0.0
H792 H 0.97384 0.52369 0.28089 0.0
H793 H 0.97142 0.50462 0.27154 0.0
H794 H 0.94554 0.49735 0.18859 0.0
H795 H 0.94758 0.51634 0.1991 0.0
H796 H 0.93929 0.47911 0.23116 0.0
H797 H 0.98413 0.49545 0.18675 0.0
H798 H 0.98378 0.50097 0.23157 0.0
H799 H 0.97813 0.50475 0.19209 0.0
C800 C 0.96763 0.51803 0.26067 0.0
C801 C 0.96097 0.52151 0.24045 0.0
C802 C 0.96631 0.50716 0.25514 0.0
C803 C 0.95854 0.49969 0.22858 0.0
C804 C 0.95167 0.50303 0.20896 0.0
H805 H 0.96722 0.44114 0.17627 0.0
H806 H 0.96482 0.45789 0.16822 0.0
C807 C 0.95284 0.51386 0.21496 0.0
C808 C 0.95759 0.48836 0.22181 0.0
H809 H 0.97388 0.47579 0.20744 0.0
C810 C 0.94682 0.47836 0.22541 0.0
C811 C 0.96734 0.48738 0.21321 0.0
C812 C 0.97896 0.49773 0.20525 0.0
C813 C 0.94565 0.4674 0.22261 0.0
C814 C 0.95559 0.46644 0.2174 0.0
C815 C 0.96625 0.47646 0.21196 0.0
C816 C 0.95537 0.45529 0.21933 0.0
C817 C 0.93377 0.45701 0.22511 0.0
C818 C 0.95065 0.44808 0.25027 0.0
C819 C 0.95176 0.43834 0.25436 0.0
C820 C 0.95794 0.43586 0.22819 0.0
C821 C 0.96245 0.44291 0.19688 0.0
C822 C 0.96108 0.45247 0.19231 0.0
H823 H 0.92718 0.45899 0.21463 0.0
H824 H 0.93311 0.44964 0.20914 0.0
H825 H 0.93172 0.45442 0.25454 0.0
H826 H 0.94654 0.45023 0.27214 0.0
H827 H 0.94832 0.43309 0.27896 0.0
H828 H 0.56878 0.51262 0.23196 0.0
H829 H 0.55171 0.49345 0.22619 0.0
H830 H 0.52991 0.50835 0.23736 0.0
H831 H 0.54682 0.52744 0.24278 0.0
H832 H 0.53393 0.48238 0.27843 0.0
H833 H 0.51715 0.48816 0.14499 0.0
H834 H 0.53173 0.49765 0.16015 0.0
H835 H 0.52014 0.4994 0.17756 0.0
C836 C 0.56034 0.51179 0.23285 0.0
C837 C 0.55911 0.52151 0.2377 0.0
C838 C 0.55062 0.50086 0.22957 0.0
C839 C 0.53958 0.49953 0.23074 0.0
C840 C 0.53836 0.50923 0.23556 0.0
H841 H 0.4691 0.44915 0.24965 0.0
H842 H 0.48823 0.46615 0.2452 0.0
C843 C 0.54804 0.52012 0.23889 0.0
C844 C 0.52924 0.48799 0.22895 0.0
H845 H 0.50382 0.47248 0.18307 0.0
C846 C 0.52742 0.48011 0.25726 0.0
C847 C 0.52081 0.48508 0.2012 0.0
C848 C 0.52259 0.49297 0.16904 0.0
C849 C 0.51707 0.46961 0.2597 0.0
C850 C 0.50844 0.46694 0.23285 0.0
C851 C 0.51045 0.47462 0.20373 0.0
C852 C 0.49698 0.45655 0.23571 0.0
C853 C 0.51521 0.46169 0.29186 0.0
C854 C 0.49561 0.44555 0.23166 0.0
C855 C 0.48468 0.43581 0.2342 0.0
C856 C 0.47499 0.43696 0.24073 0.0
C857 C 0.47641 0.448 0.24469 0.0
C858 C 0.48732 0.45771 0.24208 0.0
H859 H 0.52193 0.4659 0.31347 0.0
H860 H 0.50666 0.45872 0.30465 0.0
H861 H 0.51542 0.454 0.28174 0.0
H862 H 0.50297 0.44451 0.22624 0.0
H863 H 0.48382 0.4274 0.23088 0.0
H864 H 0.56833 0.05457 0.22873 0.0
H865 H 0.55132 0.05688 0.22749 0.0
H866 H 0.52945 0.02031 0.24166 0.0
H867 H 0.54631 0.01792 0.24317 0.0
H868 H 0.53123 0.04602 0.1796 0.0
H869 H 0.52068 0.03491 0.32775 0.0
H870 H 0.53462 0.039 0.30851 0.0
H871 H 0.52281 0.02462 0.30238 0.0
C872 C 0.55988 0.04703 0.23147 0.0
C873 C 0.55863 0.03607 0.23633 0.0
C874 C 0.5502 0.04837 0.23071 0.0
C875 C 0.53919 0.03879 0.23508 0.0
C876 C 0.53792 0.02782 0.23891 0.0
H877 H 0.46857 0.01832 0.24064 0.0
H878 H 0.48778 0.02064 0.23836 0.0
C879 C 0.54755 0.02647 0.23962 0.0
C880 C 0.52893 0.04012 0.23602 0.0
H881 H 0.50594 0.03464 0.29013 0.0
C882 C 0.52576 0.04371 0.20386 0.0
C883 C 0.5219 0.03716 0.26787 0.0
C884 C 0.52521 0.03381 0.30372 0.0
C885 C 0.51536 0.04381 0.20214 0.0
C886 C 0.5081 0.04035 0.2335 0.0
C887 C 0.51152 0.03721 0.26608 0.0
C888 C 0.49657 0.03915 0.23258 0.0
C889 C 0.51195 0.04711 0.16642 0.0
C890 C 0.49519 0.04881 0.22995 0.0
C891 C 0.48419 0.04751 0.23129 0.0
C892 C 0.47446 0.03653 0.23538 0.0
C893 C 0.4759 0.02689 0.23748 0.0
C894 C 0.48686 0.02819 0.2362 0.0
H895 H 0.51773 0.04794 0.14315 0.0
H896 H 0.50299 0.04062 0.15891 0.0
H897 H 0.5123 0.05548 0.17007 0.0
H898 H 0.50262 0.05735 0.22762 0.0
H899 H 0.48332 0.05509 0.22969 0.0
H900 H 0.42643 0.94237 0.76906 0.0
H901 H 0.44324 0.93989 0.77609 0.0
H902 H 0.4656 0.97659 0.76775 0.0
H903 H 0.44893 0.97914 0.76096 0.0
H904 H 0.4616 0.94688 0.72523 0.0
H905 H 0.47706 0.96802 0.86137 0.0
H906 H 0.46266 0.96316 0.84479 0.0
H907 H 0.47445 0.97663 0.82911 0.0
C908 C 0.43494 0.94991 0.769 0.0
C909 C 0.43639 0.96096 0.76457 0.0
C910 C 0.4445 0.94847 0.77303 0.0
C911 C 0.45562 0.95808 0.77306 0.0
C912 C 0.45707 0.9691 0.76861 0.0
H913 H 0.5259 0.9787 0.75744 0.0
H914 H 0.50664 0.97613 0.76349 0.0
C915 C 0.44755 0.97053 0.76448 0.0
C916 C 0.46582 0.95667 0.77574 0.0
H917 H 0.49074 0.96599 0.82408 0.0
C918 C 0.46789 0.95086 0.74717 0.0
C919 C 0.47396 0.96184 0.80451 0.0
C920 C 0.47188 0.96767 0.83689 0.0
C921 C 0.47824 0.95069 0.74542 0.0
C922 C 0.48661 0.95636 0.77325 0.0
C923 C 0.48431 0.9617 0.80271 0.0
C924 C 0.49819 0.95769 0.77063 0.0
C925 C 0.48041 0.945 0.71284 0.0
C926 C 0.49979 0.94816 0.77306 0.0
C927 C 0.5108 0.9496 0.76958 0.0
C928 C 0.52034 0.9606 0.76371 0.0
C929 C 0.5187 0.97012 0.76184 0.0
C930 C 0.50772 0.96868 0.76537 0.0
H931 H 0.47384 0.94263 0.69079 0.0
H932 H 0.48903 0.95077 0.7008 0.0
H933 H 0.48023 0.93705 0.7223 0.0
H934 H 0.49253 0.93963 0.77761 0.0
H935 H 0.51183 0.94211 0.77129 0.0
H936 H 0.05501 0.56973 0.77242 0.0
H937 H 0.0567 0.55235 0.77345 0.0
H938 H 0.02008 0.53142 0.75777 0.0
H939 H 0.01832 0.54865 0.75638 0.0
H940 H 0.0455 0.53259 0.82094 0.0
H941 H 0.03398 0.52157 0.67328 0.0
H942 H 0.03831 0.53563 0.69193 0.0
H943 H 0.02386 0.52399 0.69845 0.0
C944 C 0.04734 0.56141 0.76921 0.0
C945 C 0.03655 0.56053 0.76405 0.0
C946 C 0.04831 0.55152 0.76984 0.0
C947 C 0.03854 0.54066 0.76507 0.0
C948 C 0.02775 0.53976 0.76077 0.0
H949 H 0.01743 0.46955 0.76092 0.0
H950 H 0.01963 0.48872 0.76288 0.0
C951 C 0.02676 0.54961 0.76015 0.0
C952 C 0.03949 0.53017 0.76462 0.0
H953 H 0.03345 0.50682 0.71152 0.0
C954 C 0.04302 0.527 0.79693 0.0
C955 C 0.0363 0.52298 0.73312 0.0
C956 C 0.033 0.52625 0.6971 0.0
C957 C 0.04291 0.51651 0.7991 0.0
C958 C 0.03929 0.50913 0.76802 0.0
C959 C 0.03615 0.51249 0.73536 0.0
C960 C 0.03812 0.4976 0.76918 0.0
C961 C 0.04619 0.51315 0.83497 0.0
C962 C 0.04781 0.49629 0.77222 0.0
C963 C 0.04658 0.48532 0.77108 0.0
C964 C 0.03565 0.47554 0.76677 0.0
C965 C 0.02597 0.47691 0.76428 0.0
C966 C 0.0272 0.48785 0.76536 0.0
H967 H 0.0469 0.51891 0.85815 0.0
H968 H 0.03977 0.50416 0.84246 0.0
H969 H 0.05463 0.51363 0.83156 0.0
H970 H 0.05632 0.50374 0.77466 0.0
H971 H 0.05419 0.4845 0.77295 0.0
H972 H 0.42675 0.48313 0.75872 0.0
H973 H 0.44384 0.50228 0.76411 0.0
H974 H 0.4656 0.48742 0.75043 0.0
H975 H 0.44863 0.46831 0.74532 0.0
H976 H 0.4713 0.50293 0.81173 0.0
H977 H 0.46631 0.52131 0.67945 0.0
H978 H 0.45407 0.5149 0.70988 0.0
H979 H 0.45888 0.50603 0.68826 0.0
C980 C 0.43519 0.48397 0.75669 0.0
C981 C 0.43638 0.47424 0.75152 0.0
C982 C 0.44492 0.4949 0.75964 0.0
C983 C 0.45594 0.49624 0.75733 0.0
C984 C 0.45714 0.48654 0.7522 0.0
H985 H 0.527 0.54596 0.75759 0.0
H986 H 0.5078 0.52905 0.76012 0.0
C987 C 0.44745 0.47564 0.74922 0.0
C988 C 0.46633 0.50767 0.76098 0.0
H989 H 0.48239 0.53323 0.71625 0.0
C990 C 0.47369 0.5096 0.79103 0.0
C991 C 0.46935 0.51636 0.73405 0.0
C992 C 0.46181 0.51459 0.7009 0.0
C993 C 0.48416 0.51991 0.79442 0.0
C994 C 0.48741 0.5284 0.76668 0.0
C995 C 0.47985 0.52667 0.73739 0.0
C996 C 0.49898 0.53872 0.76611 0.0
C997 C 0.49171 0.52158 0.82748 0.0
C998 C 0.50033 0.54976 0.76788 0.0
C999 C 0.51131 0.55948 0.76632 0.0
C1000 C 0.52106 0.55825 0.7626 0.0
C1001 C 0.51965 0.54717 0.76064 0.0
C1002 C 0.5087 0.5375 0.76229 0.0
H1003 H 0.48666 0.51601 0.85101 0.0
H1004 H 0.49828 0.51925 0.81974 0.0
H1005 H 0.49622 0.53068 0.8368 0.0
H1006 H 0.49289 0.55085 0.77052 0.0
H1007 H 0.51215 0.56792 0.76775 0.0
H1008 H 0.60888 0.84647 0.56072 0.0
H1009 H 0.60665 0.82717 0.55997 0.0
H1010 H 0.64329 0.84208 0.5732 0.0
H1011 H 0.64559 0.86129 0.57419 0.0
H1012 H 0.61754 0.81786 0.51218 0.0
H1013 H 0.62891 0.81901 0.66033 0.0
H1014 H 0.62469 0.82872 0.64074 0.0
H1015 H 0.63909 0.83136 0.63451 0.0
C1016 C 0.61645 0.84561 0.56333 0.0
C1017 C 0.6274 0.85536 0.5678 0.0
C1018 C 0.61516 0.83461 0.56287 0.0
C1019 C 0.62479 0.83324 0.56712 0.0
C1020 C 0.63574 0.84298 0.57052 0.0
H1021 H 0.64558 0.78335 0.57477 0.0
H1022 H 0.64318 0.80018 0.57161 0.0
C1023 C 0.63704 0.85394 0.57094 0.0
C1024 C 0.62351 0.82168 0.56848 0.0
H1025 H 0.6292 0.80444 0.62326 0.0
C1026 C 0.61991 0.81481 0.53656 0.0
C1027 C 0.62656 0.81775 0.60049 0.0
C1028 C 0.62992 0.82454 0.6361 0.0
C1029 C 0.61987 0.80434 0.53523 0.0
C1030 C 0.62341 0.80069 0.56674 0.0
C1031 C 0.62656 0.80734 0.59908 0.0
C1032 C 0.62467 0.79038 0.56622 0.0
C1033 C 0.61655 0.7975 0.49975 0.0
C1034 C 0.61503 0.77932 0.56408 0.0
C1035 C 0.61637 0.76965 0.56592 0.0
C1036 C 0.62737 0.77096 0.57004 0.0
C1037 C 0.637 0.78207 0.57161 0.0
C1038 C 0.63565 0.79169 0.56982 0.0
H1039 H 0.61564 0.80235 0.47631 0.0
H1040 H 0.62307 0.79506 0.49235 0.0
H1041 H 0.60821 0.78947 0.5037 0.0
H1042 H 0.60647 0.77816 0.56178 0.0
H1043 H 0.60881 0.76118 0.56474 0.0
H1044 H 0.1369 0.78298 0.55053 0.0
H1045 H 0.15632 0.79923 0.54319 0.0
H1046 H 0.17036 0.77714 0.5654 0.0
H1047 H 0.15084 0.76075 0.57325 0.0
H1048 H 0.18041 0.79719 0.60683 0.0
H1049 H 0.17926 0.80722 0.45899 0.0
H1050 H 0.1672 0.80608 0.48408 0.0
H1051 H 0.16889 0.79365 0.47934 0.0
C1052 C 0.14411 0.78154 0.55352 0.0
C1053 C 0.14237 0.7706 0.56243 0.0
C1054 C 0.1552 0.79082 0.549 0.0
C1055 C 0.16476 0.78933 0.55302 0.0
C1056 C 0.16307 0.77841 0.5618 0.0
H1057 H 0.23628 0.84687 0.56598 0.0
H1058 H 0.22015 0.82718 0.55878 0.0
C1059 C 0.15194 0.76909 0.5663 0.0
C1060 C 0.17647 0.79943 0.55074 0.0
H1061 H 0.19349 0.82265 0.49664 0.0
C1062 C 0.18341 0.80264 0.58249 0.0
C1063 C 0.18035 0.80648 0.51888 0.0
C1064 C 0.17358 0.80312 0.48327 0.0
C1065 C 0.19379 0.81313 0.58406 0.0
C1066 C 0.19733 0.82048 0.55291 0.0
C1067 C 0.19069 0.817 0.52052 0.0
C1068 C 0.20725 0.83229 0.55472 0.0
C1069 C 0.20057 0.8166 0.61968 0.0
C1070 C 0.20531 0.84162 0.5539 0.0
C1071 C 0.21445 0.85281 0.558 0.0
C1072 C 0.22571 0.85487 0.56277 0.0
C1073 C 0.22768 0.84553 0.56247 0.0
C1074 C 0.2185 0.8343 0.55849 0.0
H1075 H 0.19584 0.81061 0.64276 0.0
H1076 H 0.20879 0.81666 0.61552 0.0
H1077 H 0.20268 0.82541 0.62784 0.0
H1078 H 0.19667 0.84021 0.55097 0.0
H1079 H 0.21268 0.85984 0.55798 0.0
H1080 H 0.23514 0.38739 0.56772 0.0
H1081 H 0.21917 0.39099 0.55702 0.0
H1082 H 0.19548 0.35445 0.55393 0.0
H1083 H 0.21134 0.35079 0.5642 0.0
H1084 H 0.19233 0.36741 0.4965 0.0
H1085 H 0.19492 0.38549 0.63738 0.0
H1086 H 0.20784 0.39194 0.61006 0.0
H1087 H 0.20194 0.37741 0.62598 0.0
C1088 C 0.22653 0.38014 0.56459 0.0
C1089 C 0.22446 0.36881 0.56704 0.0
C1090 C 0.21743 0.38221 0.55861 0.0
C1091 C 0.20616 0.37298 0.5551 0.0
C1092 C 0.20413 0.36168 0.55661 0.0
H1093 H 0.13609 0.35252 0.54981 0.0
H1094 H 0.15539 0.35535 0.54269 0.0
C1095 C 0.21319 0.35961 0.5626 0.0
C1096 C 0.19632 0.37493 0.55096 0.0
H1097 H 0.17973 0.38305 0.59927 0.0
C1098 C 0.18964 0.37097 0.51873 0.0
C1099 C 0.19292 0.37965 0.57996 0.0
C1100 C 0.1997 0.38382 0.61546 0.0
C1101 C 0.17937 0.37123 0.51527 0.0
C1102 C 0.17564 0.37536 0.54509 0.0
C1103 C 0.18263 0.37988 0.5765 0.0
C1104 C 0.16398 0.37391 0.54606 0.0
C1105 C 0.1725 0.36686 0.48004 0.0
C1106 C 0.16243 0.38342 0.5508 0.0
C1107 C 0.15137 0.38182 0.55505 0.0
C1108 C 0.14175 0.37068 0.55507 0.0
C1109 C 0.14334 0.36121 0.54981 0.0
C1110 C 0.15436 0.36282 0.54544 0.0
H1111 H 0.17807 0.3676 0.45625 0.0
H1112 H 0.16598 0.35764 0.48345 0.0
H1113 H 0.16796 0.37165 0.47342 0.0
H1114 H 0.16978 0.39204 0.55173 0.0
H1115 H 0.15038 0.38927 0.55916 0.0
H1116 H 0.0357 0.28276 0.07347 0.0
H1117 H 0.01679 0.26941 0.04785 0.0
H1118 H 0.02997 0.24843 0.00377 0.0
H1119 H 0.04899 0.26178 0.02945 0.0
H1120 H 0.01839 0.25509 0.95152 0.0
H1121 H 0.9925 0.2363 0.07837 0.0
H1122 H 0.00107 0.2517 0.07991 0.0
H1123 H 0.00801 0.24321 0.078 0.0
C1124 C 0.03453 0.27521 0.05886 0.0
C1125 C 0.04379 0.2733 0.05344 0.0
C1126 C 0.02372 0.26756 0.04441 0.0
C1127 C 0.02199 0.25789 0.02431 0.0
C1128 C 0.03115 0.25582 0.01947 0.0
H1129 H 0.95122 0.21335 0.9485 0.0
H1130 H 0.97066 0.21866 0.96888 0.0
C1131 C 0.04197 0.26343 0.03418 0.0
C1132 C 0.01083 0.25058 0.0059 0.0
H1133 H 0.98205 0.23534 0.02313 0.0
C1134 C 0.01045 0.25056 0.96709 0.0
C1135 C 0.00052 0.24456 0.0263 0.0
C1136 C 0.00052 0.24383 0.06796 0.0
C1137 C -8e-05 0.24533 0.94818 0.0
C1138 C 0.98958 0.2401 0.96874 0.0
C1139 C 0.99 0.23943 0.00743 0.0
C1140 C 0.97831 0.23638 0.95127 0.0
C1141 C -7e-05 0.24572 0.90646 0.0
C1142 C 0.97625 0.24456 0.93416 0.0
C1143 C 0.96519 0.24157 0.92268 0.0
C1144 C 0.95599 0.23037 0.92823 0.0
C1145 C 0.95816 0.22205 0.94379 0.0
C1146 C 0.96924 0.22506 0.95547 0.0
H1147 H 0.008 0.2466 0.89489 0.0
H1148 H 0.9925 0.23788 0.89477 0.0
H1149 H -0.00067 0.2533 0.89739 0.0
H1150 H 0.98309 0.2534 0.93134 0.0
H1151 H 0.96376 0.24817 0.91085 0.0
H1152 H 0.78085 0.73474 0.94262 0.0
H1153 H 0.77517 0.74791 0.97008 0.0
H1154 H 0.74017 0.7201 0.97823 0.0
H1155 H 0.74568 0.70695 0.95078 0.0
H1156 H 0.75465 0.75136 0.94501 0.0
H1157 H 0.75238 0.73449 0.08707 0.0
H1158 H 0.76118 0.73351 0.05097 0.0
H1159 H 0.74593 0.72384 0.05122 0.0
C1160 C 0.77192 0.73149 0.94988 0.0
C1161 C 0.76371 0.71982 0.94473 0.0
C1162 C 0.76872 0.739 0.96556 0.0
C1163 C 0.75731 0.73488 0.97648 0.0
C1164 C 0.74905 0.72336 0.97023 0.0
H1165 H 0.70862 0.74798 0.07077 0.0
H1166 H 0.72151 0.74135 0.04904 0.0
C1167 C 0.75221 0.71588 0.95445 0.0
C1168 C 0.75387 0.74242 0.99527 0.0
H1169 H 0.74293 0.74529 0.07712 0.0
C1170 C 0.75232 0.75027 0.97407 0.0
C1171 C 0.75088 0.74092 0.03314 0.0
C1172 C 0.75275 0.7328 0.05714 0.0
C1173 C 0.74707 0.75612 0.98931 0.0
C1174 C 0.7435 0.75413 0.02676 0.0
C1175 C 0.74569 0.74678 0.04843 0.0
C1176 C 0.73621 0.75842 0.04257 0.0
C1177 C 0.74471 0.76378 0.96469 0.0
C1178 C 0.74031 0.77022 0.04694 0.0
C1179 C 0.73294 0.77405 0.05936 0.0
C1180 C 0.72139 0.76611 0.0676 0.0
C1181 C 0.71746 0.7543 0.06452 0.0
C1182 C 0.72482 0.7505 0.05216 0.0
H1183 H 0.7465 0.76305 0.9351 0.0
H1184 H 0.73561 0.76162 0.96739 0.0
H1185 H 0.75023 0.77287 0.97332 0.0
H1186 H 0.74914 0.77645 0.04019 0.0
H1187 H 0.73619 0.78321 0.06162 0.0
H1188 H 0.20977 0.9498 0.04367 0.0
H1189 H 0.21534 0.96888 0.01857 0.0
H1190 H 0.25012 0.98152 0.05586 0.0
H1191 H 0.24467 0.96258 0.08091 0.0
H1192 H 0.24038 0.99662 0.06875 0.0
H1193 H 0.23647 0.98085 0.92372 0.0
H1194 H 0.2244 0.97318 0.95432 0.0
H1195 H 0.23744 0.97295 0.96266 0.0
C1196 C 0.21856 0.9567 0.04698 0.0
C1197 C 0.22682 0.95471 0.06399 0.0
C1198 C 0.22172 0.96755 0.03252 0.0
C1199 C 0.23315 0.97652 0.0351 0.0
C1200 C 0.24126 0.97468 0.0536 0.0
H1201 H 0.28181 0.03644 0.92854 0.0
H1202 H 0.26853 0.01714 0.95156 0.0
C1203 C 0.23814 0.96386 0.06782 0.0
C1204 C 0.237 0.98769 0.01679 0.0
H1205 H 0.24458 0.00074 0.93226 0.0
C1206 C 0.2411 0.99754 0.03889 0.0
C1207 C 0.23799 0.98878 0.97784 0.0
C1208 C 0.23391 0.97842 0.95304 0.0
C1209 C 0.2466 0.00856 0.02309 0.0
C1210 C 0.24795 0.00967 0.98422 0.0
C1211 C 0.24344 -0.0002 0.96202 0.0
C1212 C 0.25522 0.02098 0.96668 0.0
C1213 C 0.25153 0.01894 0.04813 0.0
C1214 C 0.25197 0.0294 0.96668 0.0
C1215 C 0.25953 0.04045 0.95345 0.0
C1216 C 0.27046 0.0432 0.94016 0.0
C1217 C 0.27346 0.03458 0.93874 0.0
C1218 C 0.26589 0.02356 0.9518 0.0
H1219 H 0.25102 0.01657 0.07783 0.0
H1220 H 0.26067 0.02495 0.041 0.0
H1221 H 0.2467 0.02357 0.0442 0.0
H1222 H 0.24371 0.02751 0.97775 0.0
H1223 H 0.25699 0.04693 0.95479 0.0
H1224 H 0.96197 0.71516 0.91384 0.0
H1225 H 0.98129 0.72839 0.93672 0.0
H1226 H 0.97025 0.75204 0.97181 0.0
H1227 H 0.95081 0.73878 0.94899 0.0
H1228 H 0.99743 0.75281 0.92262 0.0
H1229 H 0.98125 0.74267 0.06773 0.0
H1230 H 0.97302 0.73387 0.02912 0.0
H1231 H 0.97422 0.74764 0.03651 0.0
C1232 C 0.96369 0.72326 0.92586 0.0
C1233 C 0.95487 0.7259 0.92997 0.0
C1234 C 0.97473 0.73081 0.93883 0.0
C1235 C 0.97712 0.7411 0.95629 0.0
C1236 C 0.96851 0.74407 0.95869 0.0
H1237 H 0.04801 0.78474 0.03895 0.0
H1238 H 0.02912 0.7798 0.01365 0.0
C1239 C 0.95745 0.73652 0.94553 0.0
C1240 C 0.98837 0.7481 0.97451 0.0
H1241 H 0.0012 0.75355 0.05937 0.0
C1242 C -0.0017 0.75321 0.95251 0.0
C1243 C 0.98938 0.74846 0.01351 0.0
C1244 C 0.97894 0.74283 0.0383 0.0
C1245 C 0.00927 0.75829 0.96854 0.0
C1246 C 0.01026 0.75827 0.00749 0.0
C1247 C 0.00035 0.7536 0.02952 0.0
C1248 C 0.02137 0.76164 0.0255 0.0
C1249 C 0.0197 0.76303 0.94375 0.0
C1250 C 0.02309 0.7531 0.04138 0.0
C1251 C 0.0338 0.75587 0.05574 0.0
C1252 C 0.04296 0.76725 0.05466 0.0
C1253 C 0.0411 0.77589 0.04008 0.0
C1254 C 0.03036 0.77309 0.02551 0.0
H1255 H 0.01735 0.76123 0.91403 0.0
H1256 H 0.02491 0.77248 0.94748 0.0
H1257 H 0.02516 0.7593 0.95137 0.0
H1258 H 0.01623 0.74421 0.04162 0.0
H1259 H 0.03498 0.74904 0.06691 0.0
H1260 H 0.2666 0.21667 0.98721 0.0
H1261 H 0.25363 0.2228 0.01252 0.0
H1262 H 0.26022 0.24491 0.91803 0.0
H1263 H 0.2735 0.23912 0.89334 0.0
H1264 H 0.26461 0.25644 0.98084 0.0
H1265 H 0.22175 0.21726 0.99169 0.0
H1266 H 0.23291 0.21569 0.0133 0.0
H1267 H 0.23321 0.2178 0.96405 0.0
C1268 C 0.26505 0.22262 0.97143 0.0
C1269 C 0.2711 0.2275 0.93849 0.0
C1270 C 0.25757 0.22606 0.9858 0.0
C1271 C 0.25588 0.23425 0.96704 0.0
C1272 C 0.2614 0.23857 0.93295 0.0
H1273 H 0.21368 0.26402 0.02372 0.0
H1274 H 0.22069 0.25172 0.99858 0.0
C1275 C 0.26898 0.23527 0.91888 0.0
C1276 C 0.24972 0.23952 0.98509 0.0
H1277 H 0.22442 0.23375 0.02573 0.0
C1278 C 0.25579 0.25147 0.99037 0.0
C1279 C 0.23821 0.23303 0.99746 0.0
C1280 C 0.2311 0.22025 0.99103 0.0
C1281 C 0.25073 0.25712 0.00787 0.0
C1282 C 0.23937 0.25061 0.02147 0.0
C1283 C 0.2332 0.23867 0.01579 0.0
C1284 C 0.23377 0.25626 0.04047 0.0
C1285 C 0.25754 0.27006 0.01105 0.0
C1286 C 0.23849 0.26246 0.07324 0.0
C1287 C 0.23459 0.26956 0.08744 0.0
C1288 C 0.22582 0.27046 0.06928 0.0
C1289 C 0.22049 0.26353 0.03817 0.0
C1290 C 0.22446 0.25648 0.02382 0.0
H1291 H 0.26488 0.27391 0.99136 0.0
H1292 H 0.25202 0.27389 0.00577 0.0
H1293 H 0.26107 0.27246 0.0395 0.0
H1294 H 0.24556 0.26223 0.0868 0.0
H1295 H 0.23877 0.27472 0.11168 0.0
H1296 H 0.7808 0.04711 0.97303 0.0
H1297 H 0.77316 0.02718 0.99206 0.0
H1298 H 0.74961 0.01587 0.89967 0.0
H1299 H 0.75677 0.0359 0.88202 0.0
H1300 H 0.73839 0.00694 0.95815 0.0
H1301 H 0.77565 0.00024 0.96268 0.0
H1302 H 0.77849 0.01251 0.99 0.0
H1303 H 0.77638 0.01265 0.94073 0.0
C1304 C 0.77419 0.04034 0.95628 0.0
C1305 C 0.76932 0.04299 0.92619 0.0
C1306 C 0.76989 0.02893 0.967 0.0
C1307 C 0.76089 0.01996 0.94707 0.0
C1308 C 0.75655 0.02262 0.91551 0.0
H1309 H 0.7309 0.9477 0.01027 0.0
H1310 H 0.74264 0.96651 0.98101 0.0
C1311 C 0.76064 0.03405 0.9054 0.0
C1312 C 0.75495 0.00807 0.96202 0.0
H1313 H 0.75935 0.98741 0.00087 0.0
C1314 C 0.74299 0.00262 0.96688 0.0
C1315 C 0.76087 0.00232 0.97314 0.0
C1316 C 0.77354 0.0072 0.96595 0.0
C1317 C 0.73684 0.99179 0.98346 0.0
C1318 C 0.74288 0.98644 0.99719 0.0
C1319 C 0.75478 0.99165 0.99117 0.0
C1320 C 0.7369 0.97541 0.01755 0.0
C1321 C 0.72391 0.98616 0.98564 0.0
C1322 C 0.73018 0.97429 0.04875 0.0
C1323 C 0.72332 0.96355 0.065 0.0
C1324 C 0.72334 0.95382 0.05097 0.0
C1325 C 0.73073 0.95509 0.02157 0.0
C1326 C 0.73743 0.96581 0.00483 0.0
H1327 H 0.72049 0.98948 0.96386 0.0
H1328 H 0.71973 0.97668 0.98259 0.0
H1329 H 0.72147 0.98811 0.01288 0.0
H1330 H 0.72995 0.98167 0.05979 0.0
H1331 H 0.7178 0.96281 0.08796 0.0
H1332 H 0.61685 0.54632 0.29745 0.0
H1333 H 0.63603 0.55268 0.32292 0.0
H1334 H 0.64797 0.58664 0.27871 0.0
H1335 H 0.6288 0.58044 0.25412 0.0
H1336 H 0.65804 0.56243 0.29384 0.0
H1337 H 0.65406 0.59253 0.38912 0.0
H1338 H 0.64202 0.58168 0.36327 0.0
H1339 H 0.6521 0.59508 0.34166 0.0
C1340 C 0.62361 0.5551 0.29281 0.0
C1341 C 0.62133 0.56294 0.27427 0.0
C1342 C 0.63454 0.55871 0.30737 0.0
C1343 C 0.64331 0.57019 0.30344 0.0
C1344 C 0.64122 0.57782 0.28286 0.0
H1345 H 0.71587 0.60483 0.33245 0.0
H1346 H 0.6962 0.59223 0.31154 0.0
C1347 C 0.63029 0.57426 0.26866 0.0
C1348 C 0.65448 0.57441 0.32225 0.0
H1349 H 0.67287 0.59514 0.38176 0.0
C1350 C 0.66127 0.5695 0.31339 0.0
C1351 C 0.65851 0.5834 0.34854 0.0
C1352 C 0.65124 0.58839 0.36154 0.0
C1353 C 0.67227 0.57377 0.32878 0.0
C1354 C 0.67663 0.58334 0.35292 0.0
C1355 C 0.66959 0.58786 0.36303 0.0
C1356 C 0.68867 0.58937 0.36631 0.0
C1357 C 0.67906 0.56796 0.31902 0.0
C1358 C 0.69104 0.59202 0.40406 0.0
C1359 C 0.70226 0.59946 0.41594 0.0
C1360 C 0.71132 0.6043 0.39029 0.0
C1361 C 0.70905 0.60115 0.35285 0.0
C1362 C 0.69781 0.59386 0.3409 0.0
H1363 H 0.67327 0.55873 0.31237 0.0
H1364 H 0.68434 0.57213 0.29409 0.0
H1365 H 0.68486 0.56861 0.34194 0.0
H1366 H 0.68412 0.58868 0.42414 0.0
H1367 H 0.70379 0.60172 0.44499 0.0
H1368 H 0.44893 0.0694 0.28962 0.0
H1369 H 0.4424 0.08201 0.31587 0.0
H1370 H 0.40761 0.05777 0.28357 0.0
H1371 H 0.41402 0.04513 0.25742 0.0
H1372 H 0.41594 0.08263 0.26967 0.0
H1373 H 0.42216 0.07175 0.41363 0.0
H1374 H 0.43394 0.07654 0.38156 0.0
H1375 H 0.42116 0.06293 0.37449 0.0
C1376 C 0.43992 0.06685 0.28763 0.0
C1377 C 0.43196 0.05626 0.27172 0.0
C1378 C 0.43622 0.07403 0.30274 0.0
C1379 C 0.42453 0.07073 0.3019 0.0
C1380 C 0.41667 0.06043 0.28448 0.0
H1381 H 0.37543 0.08055 0.41394 0.0
H1382 H 0.38866 0.07469 0.38914 0.0
C1383 C 0.42034 0.05323 0.26962 0.0
C1384 C 0.42025 0.07756 0.32096 0.0
H1385 H 0.41326 0.08289 0.40666 0.0
C1386 C 0.41553 0.0829 0.29961 0.0
C1387 C 0.41967 0.07774 0.36 0.0
C1388 C 0.42443 0.07191 0.38399 0.0
C1389 C 0.40989 0.08813 0.31636 0.0
C1390 C 0.40901 0.08801 0.35537 0.0
C1391 C 0.41405 0.083 0.37676 0.0
C1392 C 0.40179 0.09192 0.37405 0.0
C1393 C 0.40438 0.09322 0.29226 0.0
C1394 C 0.40499 0.10358 0.37466 0.0
C1395 C 0.39747 0.10696 0.38896 0.0
C1396 C 0.38664 0.0987 0.40265 0.0
C1397 C 0.3837 0.08709 0.40346 0.0
C1398 C 0.39124 0.08374 0.38937 0.0
H1399 H 0.4047 0.09139 0.26241 0.0
H1400 H 0.39526 0.08977 0.3004 0.0
H1401 H 0.40893 0.10268 0.29614 0.0
H1402 H 0.41316 0.11 0.36317 0.0
H1403 H 0.39995 0.11597 0.38803 0.0
H1404 H 0.8784 0.28503 0.39019 0.0
H1405 H 0.88437 0.3046 0.36907 0.0
H1406 H 0.91949 0.31528 0.39748 0.0
H1407 H 0.91362 0.2959 0.41893 0.0
H1408 H 0.91234 0.3313 0.41717 0.0
H1409 H 0.9022 0.3166 0.27056 0.0
H1410 H 0.89085 0.30975 0.30409 0.0
H1411 H 0.90303 0.30766 0.30633 0.0
C1412 C 0.88736 0.29161 0.39244 0.0
C1413 C 0.89557 0.28894 0.40588 0.0
C1414 C 0.89075 0.30275 0.3802 0.0
C1415 C 0.90238 0.3113 0.38122 0.0
C1416 C 0.91047 0.30877 0.39638 0.0
H1417 H 0.95518 0.37395 0.30699 0.0
H1418 H 0.94151 0.35553 0.33463 0.0
C1419 C 0.90711 0.29769 0.40856 0.0
C1420 C 0.90645 0.32276 0.36464 0.0
H1421 H 0.91233 0.33647 0.28114 0.0
C1422 C 0.91214 0.33245 0.3875 0.0
C1423 C 0.90613 0.32419 0.32592 0.0
C1424 C 0.90029 0.31403 0.30009 0.0
C1425 C 0.91806 0.34354 0.37247 0.0
C1426 C 0.91839 0.34492 0.33364 0.0
C1427 C 0.91206 0.33532 0.31091 0.0
C1428 C 0.92643 0.356 0.31611 0.0
C1429 C 0.92432 0.35368 0.3981 0.0
C1430 C 0.92243 0.36216 0.29559 0.0
C1431 C 0.93025 0.37273 0.27965 0.0
C1432 C 0.94215 0.37716 0.28374 0.0
C1433 C 0.94607 0.37077 0.30341 0.0
C1434 C 0.93828 0.36029 0.31944 0.0
H1435 H 0.92066 0.35165 0.42651 0.0
H1436 H 0.93349 0.35602 0.39982 0.0
H1437 H 0.92396 0.36127 0.3876 0.0
H1438 H 0.91329 0.35888 0.29246 0.0
H1439 H 0.92701 0.37749 0.26459 0.0
H1440 H 0.7133 0.11722 0.37604 0.0
H1441 H 0.69408 0.11147 0.35204 0.0
H1442 H 0.68191 0.07676 0.38929 0.0
H1443 H 0.70104 0.08239 0.41312 0.0
H1444 H 0.68307 0.09367 0.29674 0.0
H1445 H 0.65685 0.08432 0.4242 0.0
H1446 H 0.67231 0.09347 0.42398 0.0
H1447 H 0.66598 0.0781 0.42375 0.0
C1448 C 0.70646 0.10841 0.37973 0.0
C1449 C 0.70864 0.10023 0.39637 0.0
C1450 C 0.69552 0.10516 0.36598 0.0
C1451 C 0.6866 0.09374 0.36926 0.0
C1452 C 0.68866 0.08566 0.38706 0.0
H1453 H 0.62825 0.04622 0.25235 0.0
H1454 H 0.64744 0.05954 0.27616 0.0
C1455 C 0.6996 0.08887 0.40048 0.0
C1456 C 0.67542 0.08988 0.35106 0.0
H1457 H 0.64659 0.07581 0.36792 0.0
C1458 C 0.67509 0.08996 0.31225 0.0
C1459 C 0.66508 0.08517 0.37144 0.0
C1460 C 0.66503 0.08533 0.41318 0.0
C1461 C 0.66459 0.08477 0.29321 0.0
C1462 C 0.65424 0.07935 0.3136 0.0
C1463 C 0.65458 0.07992 0.3524 0.0
C1464 C 0.64303 0.0721 0.29548 0.0
C1465 C 0.66464 0.08482 0.25146 0.0
C1466 C 0.63424 0.07481 0.29839 0.0
C1467 C 0.62328 0.06723 0.28465 0.0
C1468 C 0.62092 0.05677 0.26839 0.0
C1469 C 0.62983 0.05424 0.26468 0.0
C1470 C 0.6408 0.06185 0.2781 0.0
H1471 H 0.67287 0.09186 0.24028 0.0
H1472 H 0.66355 0.07653 0.24132 0.0
H1473 H 0.65744 0.08576 0.24041 0.0
H1474 H 0.63582 0.08265 0.312 0.0
H1475 H 0.61655 0.06937 0.28803 0.0
H1476 H 0.91479 0.61816 0.41949 0.0
H1477 H 0.92102 0.60502 0.3966 0.0
H1478 H 0.88631 0.581 0.36282 0.0
H1479 H 0.87998 0.59414 0.38552 0.0
H1480 H 0.91321 0.58082 0.41091 0.0
H1481 H 0.9061 0.5902 0.26609 0.0
H1482 H 0.90666 0.599 0.3047 0.0
H1483 H 0.89418 0.58515 0.29762 0.0
C1484 C 0.90844 0.60999 0.4078 0.0
C1485 C 0.89693 0.60721 0.40392 0.0
C1486 C 0.912 0.6025 0.39479 0.0
C1487 C 0.90414 0.59215 0.3776 0.0
C1488 C 0.89251 0.58903 0.37564 0.0
H1489 H 0.92872 0.5464 0.29595 0.0
H1490 H 0.91568 0.55249 0.3215 0.0
C1491 C 0.88892 0.59651 0.38874 0.0
C1492 C 0.90839 0.58518 0.35923 0.0
H1493 H 0.91469 0.57883 0.27398 0.0
C1494 C 0.91338 0.58019 0.38101 0.0
C1495 C 0.90866 0.58453 0.3202 0.0
C1496 C 0.90369 0.59004 0.2956 0.0
C1497 C 0.91896 0.57483 0.36468 0.0
C1498 C 0.91947 0.57444 0.32566 0.0
C1499 C 0.91417 0.5791 0.3039 0.0
C1500 C 0.92658 0.57039 0.30708 0.0
C1501 C 0.92478 0.57016 0.38916 0.0
C1502 C 0.93679 0.5784 0.28952 0.0
C1503 C 0.94422 0.57498 0.27497 0.0
C1504 C 0.94152 0.56346 0.27757 0.0
C1505 C 0.93102 0.55534 0.29361 0.0
C1506 C 0.9236 0.55879 0.30835 0.0
H1507 H 0.92482 0.57247 0.41871 0.0
H1508 H 0.9202 0.56065 0.38691 0.0
H1509 H 0.93379 0.57347 0.38003 0.0
H1510 H 0.9392 0.5874 0.28824 0.0
H1511 H 0.95224 0.58142 0.26267 0.0
H1512 H 0.45207 0.37926 0.27775 0.0
H1513 H 0.4466 0.35989 0.29932 0.0
H1514 H 0.41196 0.34751 0.261 0.0
H1515 H 0.41734 0.36678 0.23933 0.0
H1516 H 0.42983 0.34886 0.35361 0.0
H1517 H 0.41855 0.32225 0.22689 0.0
H1518 H 0.4274 0.33774 0.226 0.0
H1519 H 0.41198 0.33105 0.22819 0.0
C1520 C 0.44336 0.37234 0.27312 0.0
C1521 C 0.43511 0.37451 0.257 0.0
C1522 C 0.44026 0.3613 0.28548 0.0
C1523 C 0.42892 0.35227 0.2814 0.0
C1524 C 0.42081 0.35432 0.26373 0.0
H1525 H 0.3813 0.29614 0.4038 0.0
H1526 H 0.39534 0.31482 0.37843 0.0
C1527 C 0.42388 0.36535 0.25158 0.0
C1528 C 0.42509 0.34107 0.29956 0.0
H1529 H 0.40975 0.31219 0.2838 0.0
C1530 C 0.42567 0.34083 0.33831 0.0
C1531 C 0.41979 0.33063 0.27954 0.0
C1532 C 0.41949 0.33041 0.23781 0.0
C1533 C 0.42034 0.3304 0.35774 0.0
C1534 C 0.41422 0.32001 0.33783 0.0
C1535 C 0.41436 0.3202 0.299 0.0
C1536 C 0.40658 0.30902 0.35664 0.0
C1537 C 0.42094 0.3306 0.39944 0.0
C1538 C 0.40828 0.29958 0.35281 0.0
C1539 C 0.40027 0.28888 0.36742 0.0
C1540 C 0.39037 0.28746 0.38551 0.0
C1541 C 0.38886 0.297 0.39008 0.0
C1542 C 0.3969 0.30768 0.37578 0.0
H1543 H 0.42857 0.33857 0.40967 0.0
H1544 H 0.41315 0.33034 0.41083 0.0
H1545 H 0.42129 0.32304 0.41021 0.0
H1546 H 0.41566 0.30045 0.33784 0.0
H1547 H 0.40161 0.28165 0.36334 0.0
H1548 H 0.29357 0.91301 0.58931 0.0
H1549 H 0.31256 0.91882 0.61478 0.0
H1550 H 0.29908 0.88573 0.6674 0.0
H1551 H 0.27999 0.8798 0.64181 0.0
H1552 H 0.31132 0.9055 0.71508 0.0
H1553 H 0.33607 0.90829 0.58885 0.0
H1554 H 0.32763 0.91521 0.58438 0.0
H1555 H 0.32056 0.8999 0.59088 0.0
C1556 C 0.29468 0.9069 0.60581 0.0
C1557 C 0.28532 0.89596 0.61361 0.0
C1558 C 0.30554 0.91021 0.62018 0.0
C1559 C 0.30721 0.90264 0.6426 0.0
C1560 C 0.29794 0.89163 0.64989 0.0
H1561 H 0.37756 0.92736 0.72091 0.0
H1562 H 0.35789 0.91382 0.70083 0.0
C1563 C 0.28708 0.88827 0.63523 0.0
C1564 C 0.31844 0.90671 0.66072 0.0
H1565 H 0.34704 0.91879 0.64197 0.0
C1566 C 0.31912 0.9082 0.69925 0.0
C1567 C 0.32855 0.91011 0.63999 0.0
C1568 C 0.3282 0.9082 0.59876 0.0
C1569 C 0.32978 0.9137 0.71735 0.0
C1570 C 0.33995 0.91784 0.69623 0.0
C1571 C 0.33921 0.91568 0.65804 0.0
C1572 C 0.35142 0.92536 0.71243 0.0
C1573 C 0.33011 0.91532 0.75873 0.0
C1574 C 0.35421 0.93626 0.72578 0.0
C1575 C 0.36541 0.944 0.73702 0.0
C1576 C 0.374 0.94097 0.73505 0.0
C1577 C 0.3711 0.9299 0.72284 0.0
C1578 C 0.35989 0.92218 0.71135 0.0
H1579 H 0.3219 0.9089 0.77188 0.0
H1580 H 0.33727 0.91462 0.77138 0.0
H1581 H 0.33147 0.92401 0.76488 0.0
H1582 H 0.34783 0.93894 0.72616 0.0
H1583 H 0.36742 0.95248 0.74622 0.0
H1584 H 0.07017 0.45087 0.72464 0.0
H1585 H 0.08356 0.44488 0.70154 0.0
H1586 H 0.05798 0.40939 0.72005 0.0
H1587 H 0.04459 0.41526 0.74308 0.0
H1588 H 0.0819 0.41651 0.74227 0.0
H1589 H 0.07697 0.42815 0.59794 0.0
H1590 H 0.08084 0.43885 0.63353 0.0
H1591 H 0.06687 0.42622 0.63405 0.0
C1592 C 0.06748 0.4418 0.7243 0.0
C1593 C 0.05632 0.43351 0.73537 0.0
C1594 C 0.07511 0.43841 0.71102 0.0
C1595 C 0.07168 0.4267 0.70881 0.0
C1596 C 0.06076 0.41846 0.72155 0.0
H1597 H 0.08308 0.38021 0.58911 0.0
H1598 H 0.07731 0.39322 0.61621 0.0
C1599 C 0.05312 0.42183 0.73461 0.0
C1600 C 0.07905 0.42284 0.69099 0.0
H1601 H 0.08726 0.41842 0.60601 0.0
C1602 C 0.08329 0.41711 0.71259 0.0
C1603 C 0.08072 0.42359 0.65223 0.0
C1604 C 0.07609 0.42947 0.62785 0.0
C1605 C 0.08883 0.41172 0.69618 0.0
C1606 C 0.09014 0.41213 0.65729 0.0
C1607 C 0.08628 0.41823 0.63585 0.0
C1608 C 0.09415 0.40507 0.63816 0.0
C1609 C 0.09267 0.40507 0.72022 0.0
C1610 C 0.1056 0.40762 0.64084 0.0
C1611 C 0.10895 0.40022 0.6252 0.0
C1612 C 0.10085 0.39016 0.6069 0.0
C1613 C 0.08949 0.38788 0.60315 0.0
C1614 C 0.08619 0.3953 0.61855 0.0
H1615 H 0.08995 0.40463 0.7495 0.0
H1616 H 0.08911 0.39618 0.70952 0.0
H1617 H 0.10218 0.40926 0.71942 0.0
H1618 H 0.11186 0.41519 0.65568 0.0
H1619 H 0.11776 0.40218 0.62848 0.0
H1620 H 0.54616 0.61711 0.72063 0.0
H1621 H 0.55251 0.63645 0.69652 0.0
H1622 H 0.58738 0.64703 0.72795 0.0
H1623 H 0.58114 0.62778 0.752 0.0
H1624 H 0.57899 0.66351 0.74287 0.0
H1625 H 0.57263 0.64664 0.59857 0.0
H1626 H 0.56085 0.63956 0.63062 0.0
H1627 H 0.57365 0.63877 0.63747 0.0
C1628 C 0.55514 0.62362 0.723 0.0
C1629 C 0.56319 0.62094 0.73789 0.0
C1630 C 0.55874 0.63462 0.70912 0.0
C1631 C 0.57041 0.64306 0.71017 0.0
C1632 C 0.57834 0.64059 0.7269 0.0
H1633 H 0.61896 0.70214 0.5976 0.0
H1634 H 0.606 0.68313 0.62342 0.0
C1635 C 0.57477 0.6296 0.74056 0.0
C1636 C 0.57461 0.65421 0.69142 0.0
H1637 H 0.58134 0.66664 0.60587 0.0
C1638 C 0.57933 0.66423 0.71293 0.0
C1639 C 0.5751 0.65503 0.65237 0.0
C1640 C 0.57036 0.64447 0.62819 0.0
C1641 C 0.58488 0.67513 0.69631 0.0
C1642 C 0.58566 0.67594 0.6573 0.0
C1643 C 0.58062 0.66592 0.63577 0.0
C1644 C 0.59278 0.68707 0.63866 0.0
C1645 C 0.59038 0.6857 0.7205 0.0
C1646 C 0.58945 0.69543 0.6379 0.0
C1647 C 0.59681 0.7063 0.62298 0.0
C1648 C 0.60761 0.70892 0.60884 0.0
C1649 C 0.6107 0.70037 0.6084 0.0
C1650 C 0.60332 0.68951 0.62308 0.0
H1651 H 0.59005 0.68354 0.75032 0.0
H1652 H 0.5995 0.69137 0.71237 0.0
H1653 H 0.58584 0.69063 0.71664 0.0
H1654 H 0.58128 0.69363 0.64958 0.0
H1655 H 0.59421 0.71274 0.62365 0.0
H1656 H 0.36714 0.41407 0.74455 0.0
H1657 H 0.34744 0.40803 0.72641 0.0
H1658 H 0.35673 0.44342 0.70911 0.0
H1659 H 0.37663 0.44956 0.72671 0.0
H1660 H 0.33108 0.41338 0.75318 0.0
H1661 H 0.34412 0.42834 0.60797 0.0
H1662 H 0.35373 0.42721 0.64036 0.0
H1663 H 0.35083 0.43885 0.64405 0.0
C1664 C 0.36498 0.42059 0.73729 0.0
C1665 C 0.37343 0.43228 0.73666 0.0
C1666 C 0.35371 0.41713 0.727 0.0
C1667 C 0.35069 0.42527 0.71588 0.0
C1668 C 0.35896 0.437 0.71699 0.0
H1669 H 0.2817 0.40123 0.61956 0.0
H1670 H 0.30052 0.41466 0.64673 0.0
C1671 C 0.37029 0.44049 0.72724 0.0
C1672 C 0.339 0.42121 0.70125 0.0
H1673 H 0.32437 0.41744 0.62034 0.0
C1674 C 0.32959 0.41446 0.72432 0.0
C1675 C 0.33712 0.42264 0.66354 0.0
C1676 C 0.34695 0.42959 0.63734 0.0
C1677 C 0.31838 0.40861 0.71022 0.0
C1678 C 0.31659 0.40952 0.67217 0.0
C1679 C 0.32586 0.41683 0.64955 0.0
C1680 C 0.30544 0.40175 0.65466 0.0
C1681 C 0.30855 0.40105 0.73562 0.0
C1682 C 0.3022 0.39018 0.64954 0.0
C1683 C 0.2916 0.38257 0.63386 0.0
C1684 C 0.28402 0.38639 0.62315 0.0
C1685 C 0.28738 0.39806 0.62759 0.0
C1686 C 0.29808 0.40572 0.64312 0.0
H1687 H 0.31092 0.40316 0.76522 0.0
H1688 H 0.30092 0.40192 0.72954 0.0
H1689 H 0.3061 0.39194 0.73103 0.0
H1690 H 0.30787 0.38703 0.65804 0.0
H1691 H 0.28925 0.37363 0.6308 0.0
H1692 H 0.61809 0.91541 0.58722 0.0
H1693 H 0.605 0.92138 0.61245 0.0
H1694 H 0.58048 0.88616 0.63931 0.0
H1695 H 0.59354 0.88007 0.61396 0.0
H1696 H 0.58015 0.913 0.59573 0.0
H1697 H 0.58967 0.90526 0.73974 0.0
H1698 H 0.59896 0.90685 0.70134 0.0
H1699 H 0.58537 0.8939 0.70626 0.0
C1700 C 0.60984 0.90891 0.59796 0.0
C1701 C 0.60686 0.89729 0.59888 0.0
C1702 C 0.60238 0.91233 0.6123 0.0
C1703 C 0.59187 0.90421 0.628 0.0
C1704 C 0.58862 0.89253 0.6275 0.0
H1705 H 0.5455 0.92745 0.71353 0.0
H1706 H 0.55177 0.91452 0.68829 0.0
C1707 C 0.59606 0.88908 0.61291 0.0
C1708 C 0.58478 0.90819 0.64694 0.0
H1709 H 0.57855 0.91417 0.73284 0.0
C1710 C 0.57959 0.91308 0.62567 0.0
C1711 C 0.5842 0.90833 0.68599 0.0
C1712 C 0.58987 0.90337 0.7099 0.0
C1713 C 0.57412 0.91847 0.64256 0.0
C1714 C 0.57386 0.91892 0.68163 0.0
C1715 C 0.57872 0.9137 0.70289 0.0
C1716 C 0.56975 0.9259 0.70063 0.0
C1717 C 0.5692 0.92417 0.61865 0.0
C1718 C 0.57777 0.93635 0.7169 0.0
C1719 C 0.57424 0.94374 0.73119 0.0
C1720 C 0.56263 0.94074 0.72964 0.0
C1721 C 0.55451 0.92998 0.71506 0.0
C1722 C 0.55807 0.92262 0.70054 0.0
H1723 H 0.57125 0.92412 0.58888 0.0
H1724 H 0.55971 0.91958 0.62182 0.0
H1725 H 0.57257 0.93321 0.6276 0.0
H1726 H 0.58682 0.939 0.71721 0.0
H1727 H 0.58067 0.95195 0.74237 0.0
H1728 H 0.04858 0.63103 0.75958 0.0
H1729 H 0.06142 0.65023 0.73483 0.0
H1730 H 0.0829 0.6382 0.68682 0.0
H1731 H 0.07026 0.61902 0.71244 0.0
H1732 H 0.09552 0.66039 0.71483 0.0
H1733 H 0.0601 0.65574 0.62455 0.0
H1734 H 0.05633 0.65408 0.67269 0.0
H1735 H 0.05932 0.64387 0.65034 0.0
C1736 C 0.05614 0.63252 0.74427 0.0
C1737 C 0.05836 0.62352 0.73753 0.0
C1738 C 0.06343 0.64347 0.72999 0.0
C1739 C 0.07292 0.64553 0.7082 0.0
C1740 C 0.07556 0.63674 0.70333 0.0
H1741 H 0.09988 0.70397 0.55886 0.0
H1742 H 0.09354 0.68468 0.58283 0.0
C1743 C 0.06833 0.6258 0.71798 0.0
C1744 C 0.07961 0.65662 0.68863 0.0
H1745 H 0.07653 0.67445 0.62856 0.0
C1746 C 0.09142 0.66346 0.6957 0.0
C1747 C 0.0743 0.66044 0.6629 0.0
C1748 C 0.06185 0.6531 0.65182 0.0
C1749 C 0.09798 0.67427 0.67887 0.0
C1750 C 0.09248 0.6784 0.65505 0.0
C1751 C 0.08075 0.67134 0.64698 0.0
C1752 C 0.0984 0.69021 0.63955 0.0
C1753 C 0.1107 0.68109 0.68663 0.0
C1754 C 0.10356 0.69977 0.66322 0.0
C1755 C 0.10737 0.71082 0.64943 0.0
C1756 C 0.10582 0.71244 0.61191 0.0
C1757 C 0.10114 0.70295 0.58793 0.0
C1758 C 0.09751 0.69193 0.60161 0.0
H1759 H 0.11416 0.67534 0.69364 0.0
H1760 H 0.11554 0.68649 0.66257 0.0
H1761 H 0.11224 0.68679 0.71076 0.0
H1762 H 0.10407 0.69867 0.69271 0.0
H1763 H 0.11087 0.71798 0.66859 0.0
H1764 H 0.11838 0.35757 0.69991 0.0
H1765 H 0.11379 0.34976 0.76258 0.0
H1766 H 0.07767 0.33171 0.73542 0.0
H1767 H 0.08225 0.33927 0.67213 0.0
H1768 H 0.10121 0.35284 0.81484 0.0
H1769 H 0.08157 0.30642 0.78153 0.0
H1770 H 0.08954 0.31755 0.74792 0.0
H1771 H 0.0749 0.31344 0.75861 0.0
C1772 C 0.10946 0.35184 0.70715 0.0
C1773 C 0.10067 0.34897 0.68108 0.0
C1774 C 0.10685 0.34742 0.74301 0.0
C1775 C 0.0954 0.34006 0.75361 0.0
C1776 C 0.08658 0.33717 0.72764 0.0
H1777 H 0.07517 0.32432 0.98705 0.0
H1778 H 0.07797 0.33198 0.9239 0.0
C1779 C 0.0892 0.34153 0.69155 0.0
C1780 C 0.09279 0.33571 0.79218 0.0
H1781 H 0.08071 0.31119 0.84404 0.0
C1782 C 0.09671 0.34373 0.82127 0.0
C1783 C 0.08701 0.32383 0.80047 0.0
C1784 C 0.0831 0.3148 0.77054 0.0
C1785 C 0.09513 0.3402 0.85842 0.0
C1786 C 0.08921 0.32831 0.8667 0.0
C1787 C 0.08518 0.3203 0.83762 0.0
C1788 C 0.08762 0.32396 0.90523 0.0
C1789 C 0.10016 0.34923 0.88836 0.0
C1790 C 0.09194 0.31677 0.91553 0.0
C1791 C 0.09023 0.31229 0.95129 0.0
C1792 C 0.08419 0.31494 0.97757 0.0
C1793 C 0.07995 0.32223 0.96744 0.0
C1794 C 0.08158 0.32664 0.93144 0.0
H1795 H 0.10686 0.35767 0.87732 0.0
H1796 H 0.09323 0.3504 0.90058 0.0
H1797 H 0.10401 0.34658 0.91079 0.0
H1798 H 0.09662 0.31459 0.89578 0.0
H1799 H 0.0936 0.3067 0.95827 0.0
H1800 H 0.69959 0.78195 0.95498 0.0
H1801 H 0.6918 0.77742 0.89205 0.0
H1802 H 0.65882 0.75207 0.93524 0.0
H1803 H 0.66654 0.75649 0.99849 0.0
H1804 H 0.6756 0.74946 0.86262 0.0
H1805 H 0.65891 0.78004 0.86115 0.0
H1806 H 0.67173 0.78324 0.88673 0.0
H1807 H 0.658 0.77215 0.9027 0.0
C1808 C 0.69067 0.77542 0.95113 0.0
C1809 C 0.68366 0.76958 0.98165 0.0
C1810 C 0.68627 0.77283 0.91521 0.0
C1811 C 0.67478 0.76443 0.90924 0.0
C1812 C 0.66773 0.75858 0.93951 0.0
H1813 H 0.63119 0.7452 0.71681 0.0
H1814 H 0.63947 0.74906 0.77885 0.0
C1815 C 0.67214 0.76112 0.97551 0.0
C1816 C 0.67014 0.76185 0.87126 0.0
H1817 H 0.6562 0.76911 0.80735 0.0
C1818 C 0.67135 0.75373 0.85037 0.0
C1819 C 0.66462 0.76745 0.85575 0.0
C1820 C 0.66319 0.77624 0.87751 0.0
C1821 C 0.66703 0.75095 0.81414 0.0
C1822 C 0.66158 0.75664 0.79834 0.0
C1823 C 0.66041 0.76479 0.81943 0.0
C1824 C 0.65667 0.75404 0.76046 0.0
C1825 C 0.66806 0.74174 0.79353 0.0
C1826 C 0.66361 0.7556 0.72941 0.0
C1827 C 0.65886 0.7533 0.69379 0.0
C1828 C 0.64714 0.74956 0.68871 0.0
C1829 C 0.64026 0.74809 0.71983 0.0
C1830 C 0.64497 0.75029 0.75531 0.0
H1831 H 0.66965 0.73619 0.81262 0.0
H1832 H 0.66017 0.73622 0.77727 0.0
H1833 H 0.67542 0.74585 0.77404 0.0
H1834 H 0.67272 0.75874 0.73266 0.0
H1835 H 0.66438 0.75458 0.67028 0.0
H1836 H 0.21056 0.9067 0.96303 0.0
H1837 H 0.21527 0.90369 0.90029 0.0
H1838 H 0.2512 0.92035 0.92953 0.0
H1839 H 0.24647 0.92308 0.99294 0.0
H1840 H 0.22842 0.91921 0.84895 0.0
H1841 H 0.24642 0.89101 0.88259 0.0
H1842 H 0.23865 0.89449 0.91602 0.0
H1843 H 0.25345 0.90465 0.9058 0.0
C1844 C 0.21946 0.90965 0.95621 0.0
C1845 C 0.22815 0.91507 0.98292 0.0
C1846 C 0.22214 0.90795 0.92031 0.0
C1847 C 0.23356 0.91168 0.91029 0.0
C1848 C 0.24229 0.91718 0.93685 0.0
H1849 H 0.25424 0.91572 0.67745 0.0
H1850 H 0.2515 0.92075 0.74044 0.0
C1851 C 0.23959 0.91877 0.973 0.0
C1852 C 0.23623 0.90993 0.87179 0.0
H1853 H 0.24763 0.89678 0.82016 0.0
C1854 C 0.23264 0.91432 0.84262 0.0
C1855 C 0.24164 0.90347 0.86361 0.0
C1856 C 0.24518 0.89803 0.8936 0.0
C1857 C 0.23419 0.91231 0.8055 0.0
C1858 C 0.23973 0.90597 0.79734 0.0
C1859 C 0.24345 0.9017 0.8265 0.0
C1860 C 0.24123 0.90311 0.75885 0.0
C1861 C 0.22951 0.91664 0.77545 0.0
C1862 C 0.23651 0.89155 0.74845 0.0
C1863 C 0.23817 0.88868 0.71276 0.0
C1864 C 0.24456 0.89732 0.68668 0.0
C1865 C 0.24918 0.90889 0.6969 0.0
C1866 C 0.24759 0.91177 0.73281 0.0
H1867 H 0.22302 0.91871 0.78636 0.0
H1868 H 0.23665 0.9246 0.76333 0.0
H1869 H 0.22549 0.91019 0.75298 0.0
H1870 H 0.23158 0.88473 0.76808 0.0
H1871 H 0.23452 0.87968 0.70572 0.0
H1872 H 0.29379 0.07771 0.05428 0.0
H1873 H 0.30191 0.08058 0.11663 0.0
H1874 H 0.33521 0.09072 0.07026 0.0
H1875 H 0.32713 0.08777 0.00758 0.0
H1876 H 0.31618 0.06976 0.14684 0.0
H1877 H 0.33793 0.11759 0.14328 0.0
H1878 H 0.32564 0.10864 0.11452 0.0
H1879 H 0.3394 0.11027 0.10365 0.0
C1880 C 0.30284 0.08054 0.05732 0.0
C1881 C 0.30985 0.08256 0.02607 0.0
C1882 C 0.30744 0.08214 0.09292 0.0
C1883 C 0.31914 0.08589 0.09787 0.0
C1884 C 0.32616 0.08786 0.06683 0.0
H1885 H 0.36326 0.10832 0.2902 0.0
H1886 H 0.3551 0.10377 0.228 0.0
C1887 C 0.32154 0.08617 0.03114 0.0
C1888 C 0.32399 0.08786 0.13562 0.0
H1889 H 0.34038 0.10913 0.19693 0.0
C1890 C 0.32148 0.07835 0.15793 0.0
C1891 C 0.33089 0.09908 0.14971 0.0
C1892 C 0.33363 0.10953 0.12679 0.0
C1893 C 0.32587 0.07977 0.19404 0.0
C1894 C 0.33268 0.09101 0.20842 0.0
C1895 C 0.33515 0.10051 0.18594 0.0
C1896 C 0.33752 0.09319 0.24643 0.0
C1897 C 0.32342 0.06923 0.21602 0.0
C1898 C 0.33035 0.08876 0.27759 0.0
C1899 C 0.33502 0.09126 0.31331 0.0
C1900 C 0.34691 0.09839 0.31839 0.0
C1901 C 0.35405 0.10282 0.28717 0.0
C1902 C 0.34941 0.10023 0.25159 0.0
H1903 H 0.32103 0.06171 0.19774 0.0
H1904 H 0.33097 0.07079 0.23291 0.0
H1905 H 0.31609 0.06697 0.23498 0.0
H1906 H 0.32112 0.08355 0.27435 0.0
H1907 H 0.32931 0.0878 0.3369 0.0
H1908 H 0.88703 0.25591 0.28723 0.0
H1909 H 0.89241 0.25303 0.22522 0.0
H1910 H 0.91397 0.24101 0.27262 0.0
H1911 H 0.90856 0.24382 0.33502 0.0
H1912 H 0.91489 0.26283 0.1933 0.0
H1913 H 0.8925 0.2151 0.20037 0.0
H1914 H 0.88952 0.22361 0.23236 0.0
H1915 H 0.90227 0.22258 0.23769 0.0
C1916 C 0.89291 0.25263 0.28451 0.0
C1917 C 0.89733 0.25002 0.31599 0.0
C1918 C 0.89599 0.25103 0.24905 0.0
C1919 C 0.90348 0.2467 0.24437 0.0
C1920 C 0.90804 0.24421 0.2757 0.0
H1921 H 0.9277 0.22717 0.05072 0.0
H1922 H 0.9243 0.23178 0.11312 0.0
C1923 C 0.90498 0.24585 0.31128 0.0
C1924 C 0.90647 0.2448 0.20657 0.0
H1925 H 0.90349 0.22381 0.1468 0.0
C1926 C 0.91241 0.25431 0.18305 0.0
C1927 C 0.90319 0.23367 0.19338 0.0
C1928 C 0.89644 0.22312 0.21706 0.0
C1929 C 0.91532 0.253 0.14673 0.0
C1930 C 0.91197 0.24185 0.13344 0.0
C1931 C 0.90605 0.23235 0.15705 0.0
C1932 C 0.91457 0.23978 0.09524 0.0
C1933 C 0.92214 0.26357 0.12323 0.0
C1934 C 0.91026 0.24278 0.06436 0.0
C1935 C 0.91225 0.2402 0.02851 0.0
C1936 C 0.91848 0.23447 0.02306 0.0
C1937 C 0.92286 0.23158 0.05401 0.0
C1938 C 0.92092 0.2342 0.08971 0.0
H1939 H 0.92664 0.27147 0.14038 0.0
H1940 H 0.92861 0.2628 0.10619 0.0
H1941 H 0.91622 0.26459 0.10427 0.0
H1942 H 0.90513 0.24687 0.06801 0.0
H1943 H 0.90871 0.24246 0.00519 0.0
H1944 H 0.76723 0.65344 0.31573 0.0
H1945 H 0.76966 0.66069 0.25243 0.0
H1946 H 0.73605 0.65737 0.25643 0.0
H1947 H 0.73357 0.65017 0.32011 0.0
H1948 H 0.75508 0.6481 0.19305 0.0
H1949 H 0.75685 0.68998 0.21393 0.0
H1950 H 0.75917 0.6824 0.25117 0.0
H1951 H 0.74486 0.67769 0.23489 0.0
C1952 C 0.76043 0.65444 0.30341 0.0
C1953 C 0.75021 0.65125 0.3229 0.0
C1954 C 0.76182 0.65854 0.26719 0.0
C1955 C 0.75306 0.65959 0.2498 0.0
C1956 C 0.74297 0.65676 0.26953 0.0
H1957 H 0.74953 0.66636 0.00873 0.0
H1958 H 0.74488 0.65936 0.07273 0.0
C1959 C 0.74157 0.65264 0.30587 0.0
C1960 C 0.75429 0.66303 0.21035 0.0
H1961 H 0.75698 0.68426 0.15217 0.0
C1962 C 0.75545 0.65598 0.18403 0.0
C1963 C 0.75481 0.67333 0.19881 0.0
C1964 C 0.75395 0.68136 0.22611 0.0
C1965 C 0.75725 0.65902 0.14646 0.0
C1966 C 0.75777 0.66932 0.13489 0.0
C1967 C 0.75649 0.67632 0.16115 0.0
C1968 C 0.76041 0.67339 0.0961 0.0
C1969 C 0.75896 0.6514 0.11963 0.0
C1970 C 0.7706 0.68363 0.08817 0.0
C1971 C 0.77325 0.68763 0.05185 0.0
C1972 C 0.76574 0.68149 0.02269 0.0
C1973 C 0.75552 0.67122 0.03061 0.0
C1974 C 0.75286 0.66721 0.0671 0.0
H1975 H 0.76056 0.64502 0.13407 0.0
H1976 H 0.75112 0.64662 0.10242 0.0
H1977 H 0.7663 0.65661 0.10081 0.0
H1978 H 0.77653 0.68852 0.11015 0.0
H1979 H 0.78118 0.69559 0.04668 0.0
H1980 H 0.92131 0.70183 0.04817 0.0
H1981 H 0.91834 0.6938 0.11048 0.0
H1982 H 0.90643 0.66006 0.0645 0.0
H1983 H 0.90959 0.66811 0.00179 0.0
H1984 H 0.89822 0.67734 0.14209 0.0
H1985 H 0.93035 0.66285 0.13962 0.0
H1986 H 0.93011 0.67252 0.10538 0.0
H1987 H 0.92014 0.65734 0.10237 0.0
C1988 C 0.91812 0.69271 0.05126 0.0
C1989 C 0.91571 0.6856 0.02008 0.0
C1990 C 0.91642 0.68814 0.08691 0.0
C1991 C 0.91231 0.67637 0.09217 0.0
C1992 C 0.90984 0.66921 0.06109 0.0
H1993 H 0.89174 0.63198 0.28362 0.0
H1994 H 0.89627 0.64048 0.22179 0.0
C1995 C 0.91158 0.6738 0.02531 0.0
C1996 C 0.91025 0.6716 0.13024 0.0
H1997 H 0.91782 0.65716 0.19151 0.0
C1998 C 0.90255 0.67298 0.15298 0.0
C1999 C 0.91593 0.66593 0.14437 0.0
C2000 C 0.92468 0.66465 0.12184 0.0
C2001 C 0.9002 0.66866 0.18925 0.0
C2002 C 0.90583 0.66295 0.2033 0.0
C2003 C 0.91354 0.66157 0.18063 0.0
C2004 C 0.90352 0.65799 0.24107 0.0
C2005 C 0.89149 0.66998 0.21193 0.0
C2006 C 0.90627 0.66505 0.27248 0.0
C2007 C 0.9037 0.66022 0.30797 0.0
C2008 C 0.89835 0.64824 0.31253 0.0
C2009 C 0.89583 0.64123 0.28102 0.0
C2010 C 0.89843 0.64607 0.24566 0.0
H2011 H 0.88614 0.67231 0.19451 0.0
H2012 H 0.88574 0.66192 0.22708 0.0
H2013 H 0.89606 0.67691 0.23264 0.0
H2014 H 0.91037 0.6743 0.26951 0.0
H2015 H 0.90578 0.66583 0.33174 0.0
H2016 H 0.32892 0.23107 0.00278 0.0
H2017 H 0.33616 0.23594 0.06628 0.0
H2018 H 0.31742 0.25396 0.0813 0.0
H2019 H 0.31012 0.24912 0.01786 0.0
H2020 H 0.34842 0.25817 0.10501 0.0
H2021 H 0.30505 0.2284 0.16295 0.0
H2022 H 0.3087 0.22772 0.11528 0.0
H2023 H 0.30601 0.23891 0.13009 0.0
C2024 C 0.3265 0.23624 0.01938 0.0
C2025 C 0.31891 0.23966 0.0054 0.0
C2026 C 0.33062 0.23899 0.05565 0.0
C2027 C 0.32716 0.24514 0.0786 0.0
C2028 C 0.32005 0.24906 0.06416 0.0
H2029 H 0.3378 0.25727 0.31824 0.0
H2030 H 0.33139 0.25668 0.25413 0.0
C2031 C 0.31595 0.24635 0.02783 0.0
C2032 C 0.33058 0.24694 0.11811 0.0
H2033 H 0.32008 0.23837 0.20557 0.0
C2034 C 0.34223 0.2539 0.12704 0.0
C2035 C 0.32246 0.2414 0.14675 0.0
C2036 C 0.30985 0.23361 0.13851 0.0
C2037 C 0.34601 0.2554 0.16393 0.0
C2038 C 0.33794 0.24954 0.19251 0.0
C2039 C 0.32624 0.24283 0.18363 0.0
C2040 C 0.34158 0.24975 0.23144 0.0
C2041 C 0.35861 0.26329 0.17193 0.0
C2042 C 0.34915 0.24575 0.24004 0.0
C2043 C 0.35281 0.24609 0.2764 0.0
C2044 C 0.34887 0.25032 0.30508 0.0
C2045 C 0.34098 0.25398 0.29671 0.0
C2046 C 0.33734 0.25367 0.26013 0.0
H2047 H 0.36285 0.26974 0.14956 0.0
H2048 H 0.35988 0.26789 0.19859 0.0
H2049 H 0.36296 0.25813 0.17373 0.0
H2050 H 0.35227 0.24238 0.21856 0.0
H2051 H 0.35881 0.24312 0.28197 0.0
H2052 H 0.75808 0.09063 0.00285 0.0
H2053 H 0.75334 0.09368 0.06592 0.0
H2054 H 0.76416 0.07057 0.10833 0.0
H2055 H 0.7692 0.06775 0.0458 0.0
H2056 H 0.73864 0.07907 0.11911 0.0
H2057 H 0.78374 0.09929 0.16827 0.0
H2058 H 0.77998 0.09665 0.11992 0.0
H2059 H 0.77851 0.08518 0.14936 0.0
C2060 C 0.75939 0.08617 0.02565 0.0
C2061 C 0.76414 0.07907 0.01952 0.0
C2062 C 0.75668 0.08791 0.06162 0.0
C2063 C 0.75866 0.08256 0.09191 0.0
C2064 C 0.76288 0.07504 0.08553 0.0
H2065 H 0.74964 0.08456 0.3306 0.0
H2066 H 0.75223 0.07916 0.26784 0.0
C2067 C 0.76569 0.07339 0.04974 0.0
C2068 C 0.75649 0.08496 0.13023 0.0
H2069 H 0.76948 0.09504 0.21402 0.0
C2070 C 0.74539 0.08259 0.13983 0.0
C2071 C 0.76532 0.08958 0.15723 0.0
C2072 C 0.77758 0.09294 0.14815 0.0
C2073 C 0.74285 0.08459 0.17584 0.0
C2074 C 0.75166 0.08913 0.20277 0.0
C2075 C 0.76273 0.09145 0.1933 0.0
C2076 C 0.74971 0.09207 0.24052 0.0
C2077 C 0.73076 0.08176 0.18499 0.0
C2078 C 0.74758 0.10117 0.24576 0.0
C2079 C 0.7462 0.10432 0.28138 0.0
C2080 C 0.74692 0.0984 0.31245 0.0
C2081 C 0.74903 0.08925 0.30716 0.0
C2082 C 0.75049 0.08616 0.27142 0.0
H2083 H 0.72448 0.07604 0.16387 0.0
H2084 H 0.72812 0.07754 0.2125 0.0
H2085 H 0.7304 0.08983 0.18609 0.0
H2086 H 0.74713 0.10595 0.22227 0.0
H2087 H 0.74459 0.11141 0.28457 0.0
H2088 H 0.62948 0.88432 0.7107 0.0
H2089 H 0.63691 0.8888 0.77377 0.0
H2090 H 0.67005 0.91442 0.7321 0.0
H2091 H 0.66257 0.91013 0.6686 0.0
H2092 H 0.65415 0.88658 0.80344 0.0
H2093 H 0.6643 0.93193 0.81338 0.0
H2094 H 0.65556 0.92245 0.77672 0.0
H2095 H 0.67096 0.92914 0.77474 0.0
C2096 C 0.63834 0.89097 0.71491 0.0
C2097 C 0.64545 0.89689 0.6847 0.0
C2098 C 0.64256 0.89352 0.751 0.0
C2099 C 0.65398 0.90204 0.75772 0.0
C2100 C 0.66114 0.90798 0.72762 0.0
H2101 H 0.69308 0.90827 0.95435 0.0
H2102 H 0.68468 0.90493 0.89257 0.0
C2103 C 0.65688 0.90548 0.69137 0.0
C2104 C 0.65847 0.90421 0.79616 0.0
H2105 H 0.67102 0.92499 0.8625 0.0
C2106 C 0.6578 0.89497 0.81639 0.0
C2107 C 0.66306 0.91512 0.81321 0.0
C2108 C 0.66343 0.92521 0.79357 0.0
C2109 C 0.66179 0.89638 0.85295 0.0
C2110 C 0.66679 0.90738 0.8695 0.0
C2111 C 0.66726 0.91658 0.84961 0.0
C2112 C 0.67187 0.90954 0.90709 0.0
C2113 C 0.66048 0.88603 0.87364 0.0
C2114 C 0.66763 0.9135 0.9356 0.0
C2115 C 0.67247 0.91548 0.97106 0.0
C2116 C 0.68166 0.91359 0.97841 0.0
C2117 C 0.68594 0.90972 0.94967 0.0
C2118 C 0.68112 0.90776 0.91435 0.0
H2119 H 0.65367 0.87787 0.86129 0.0
H2120 H 0.6687 0.88596 0.87233 0.0
H2121 H 0.65837 0.88629 0.90321 0.0
H2122 H 0.66053 0.91498 0.93045 0.0
H2123 H 0.66904 0.91853 0.99263 0.0
H2124 H 0.08247 0.73101 0.68343 0.0
H2125 H 0.07743 0.73327 0.74698 0.0
H2126 H 0.10214 0.76951 0.74267 0.0
H2127 H 0.10733 0.76733 0.67944 0.0
H2128 H 0.09577 0.74388 0.80745 0.0
H2129 H 0.07063 0.76593 0.78349 0.0
H2130 H 0.07193 0.7569 0.74899 0.0
H2131 H 0.08372 0.7711 0.75739 0.0
C2132 C 0.08668 0.7395 0.6958 0.0
C2133 C 0.09529 0.74901 0.6765 0.0
C2134 C 0.08382 0.74075 0.7321 0.0
C2135 C 0.08939 0.75155 0.74931 0.0
C2136 C 0.09769 0.76112 0.72966 0.0
H2137 H 0.09135 0.78275 0.95758 0.0
H2138 H 0.09321 0.77775 0.89401 0.0
C2139 C 0.10064 0.75986 0.69359 0.0
C2140 C 0.08713 0.75278 0.78862 0.0
H2141 H 0.07624 0.76533 0.8452 0.0
C2142 C 0.09139 0.74845 0.81587 0.0
C2143 C 0.08149 0.75881 0.79924 0.0
C2144 C 0.07659 0.76341 0.77086 0.0
C2145 C 0.09053 0.75037 0.85367 0.0
C2146 C 0.085 0.75654 0.86438 0.0
C2147 C 0.08049 0.76062 0.83699 0.0
C2148 C 0.08426 0.75938 0.90363 0.0
C2149 C 0.09598 0.74621 0.8816 0.0
C2150 C 0.07867 0.75072 0.93035 0.0
C2151 C 0.07771 0.75358 0.96696 0.0
C2152 C 0.08218 0.76513 0.97725 0.0
C2153 C 0.08782 0.77376 0.95051 0.0
C2154 C 0.08886 0.77092 0.91412 0.0
H2155 H 0.10234 0.74432 0.86852 0.0
H2156 H 0.10036 0.75267 0.90381 0.0
H2157 H 0.08921 0.73817 0.89456 0.0
H2158 H 0.07483 0.74175 0.92275 0.0
H2159 H 0.07321 0.74674 0.98692 0.0
H2160 H 0.24405 0.31074 0.98258 0.0
H2161 H 0.24776 0.31816 0.91908 0.0
H2162 H 0.22523 0.33199 0.93557 0.0
H2163 H 0.22139 0.32452 0.99899 0.0
H2164 H 0.2286 0.31162 0.86478 0.0
H2165 H 0.25579 0.35871 0.88788 0.0
H2166 H 0.25463 0.34822 0.92149 0.0
H2167 H 0.24313 0.35124 0.91618 0.0
C2168 C 0.24005 0.31554 0.97291 0.0
C2169 C 0.23243 0.31706 0.99574 0.0
C2170 C 0.24215 0.31973 0.93663 0.0
C2171 C 0.23681 0.32565 0.9228 0.0
C2172 C 0.22952 0.32753 0.94592 0.0
H2173 H 0.23485 0.35612 0.71466 0.0
H2174 H 0.23259 0.34919 0.77837 0.0
C2175 C 0.22733 0.32326 0.98209 0.0
C2176 C 0.2382 0.32916 0.88347 0.0
H2177 H 0.2492 0.3526 0.82686 0.0
C2178 C 0.23316 0.32057 0.85634 0.0
C2179 C 0.24408 0.34083 0.8728 0.0
C2180 C 0.2498 0.35033 0.90098 0.0
C2181 C 0.23361 0.32336 0.81868 0.0
C2182 C 0.23952 0.33506 0.80789 0.0
C2183 C 0.24466 0.34364 0.83513 0.0
C2184 C 0.24035 0.33866 0.76861 0.0
C2185 C 0.22742 0.31377 0.79105 0.0
C2186 C 0.24539 0.33498 0.74181 0.0
C2187 C 0.24655 0.33882 0.70519 0.0
C2188 C 0.24287 0.34654 0.69493 0.0
C2189 C 0.23775 0.35014 0.72173 0.0
C2190 C 0.23649 0.34623 0.75818 0.0
H2191 H 0.22071 0.30578 0.80454 0.0
H2192 H 0.2233 0.31626 0.76906 0.0
H2193 H 0.23369 0.31181 0.77779 0.0
H2194 H 0.24867 0.32936 0.74936 0.0
H2195 H 0.25065 0.33601 0.68522 0.0
H2196 H 0.0012 0.42228 0.66094 0.0
H2197 H 0.99407 0.41895 0.597 0.0
H2198 H 0.02747 0.44507 0.55873 0.0
H2199 H 0.03456 0.44857 0.62228 0.0
H2200 H 0.01019 0.44756 0.52921 0.0
H2201 H 0.00067 0.40252 0.51385 0.0
H2202 H 0.99374 0.40481 0.5528 0.0
H2203 H 0.00916 0.41164 0.55153 0.0
C2204 C 0.00702 0.42726 0.63883 0.0
C2205 C 0.01843 0.43567 0.6466 0.0
C2206 C 0.00296 0.4253 0.60232 0.0
C2207 C 0.01029 0.43166 0.57305 0.0
C2208 C 0.02168 0.44004 0.58085 0.0
H2209 H 0.99686 0.41669 0.33742 0.0
H2210 H 0.00527 0.42056 0.39969 0.0
C2211 C 0.02571 0.44203 0.61722 0.0
C2212 C 0.00607 0.42993 0.53434 0.0
H2213 H 0.99431 0.40996 0.46535 0.0
C2214 C 0.00674 0.43935 0.51521 0.0
C2215 C 0.00174 0.41925 0.51594 0.0
C2216 C 0.00137 0.409 0.5344 0.0
C2217 C 0.00305 0.43835 0.47837 0.0
C2218 C -0.00165 0.42757 0.4604 0.0
C2219 C 0.99785 0.4182 0.47928 0.0
C2220 C 0.99367 0.42579 0.4223 0.0
C2221 C 0.00436 0.44888 0.45889 0.0
C2222 C 0.98439 0.42747 0.4144 0.0
C2223 C 0.97963 0.42533 0.37894 0.0
C2224 C 0.98399 0.42138 0.35073 0.0
C2225 C 0.99336 0.4198 0.35855 0.0
C2226 C -0.00186 0.42195 0.3941 0.0
H2227 H 0.01098 0.45692 0.47237 0.0
H2228 H 0.00674 0.44901 0.42939 0.0
H2229 H 0.99606 0.44879 0.45997 0.0
H2230 H 0.98065 0.4302 0.43591 0.0
H2231 H 0.97236 0.42655 0.37387 0.0
H2232 H 0.58513 0.55136 0.38513 0.0
H2233 H 0.58189 0.55652 0.44707 0.0
H2234 H 0.57517 0.58208 0.40005 0.0
H2235 H 0.57849 0.57701 0.33769 0.0
H2236 H 0.59386 0.58058 0.48072 0.0
H2237 H 0.54626 0.55949 0.46697 0.0
H2238 H 0.55475 0.55546 0.43853 0.0
H2239 H 0.55495 0.56871 0.4299 0.0
C2240 C 0.58297 0.55809 0.38791 0.0
C2241 C 0.58201 0.56376 0.35657 0.0
C2242 C 0.58116 0.56104 0.42331 0.0
C2243 C 0.57824 0.56962 0.42797 0.0
C2244 C 0.57735 0.57538 0.39684 0.0
H2245 H 0.55598 0.59113 0.62201 0.0
H2246 H 0.5611 0.58841 0.55948 0.0
C2247 C 0.57926 0.57249 0.36134 0.0
C2248 C 0.576 0.57239 0.46552 0.0
H2249 H 0.55438 0.56887 0.52316 0.0
C2250 C 0.58525 0.57807 0.4901 0.0
C2251 C 0.56476 0.5691 0.4774 0.0
C2252 C 0.55455 0.56279 0.45204 0.0
C2253 C 0.58355 0.58065 0.52642 0.0
C2254 C 0.57226 0.57716 0.53864 0.0
C2255 C 0.56303 0.57153 0.51382 0.0
C2256 C 0.56975 0.57926 0.57693 0.0
C2257 C 0.5939 0.58731 0.55099 0.0
C2258 C 0.57289 0.57501 0.60763 0.0
C2259 C 0.57009 0.57668 0.64354 0.0
C2260 C 0.5639 0.58243 0.64922 0.0
C2261 C 0.56073 0.58664 0.61847 0.0
C2262 C 0.56365 0.58509 0.58272 0.0
H2263 H 0.60189 0.59225 0.53451 0.0
H2264 H 0.59283 0.59337 0.56914 0.0
H2265 H 0.59502 0.5812 0.56879 0.0
H2266 H 0.57733 0.57022 0.60383 0.0
H2267 H 0.57255 0.57327 0.66673 0.0
H2268 H 0.42029 0.99718 0.66035 0.0
H2269 H 0.42347 0.00473 0.59708 0.0
H2270 H 0.41004 0.97041 0.55396 0.0
H2271 H 0.40719 0.96288 0.61699 0.0
H2272 H 0.42948 0.98526 0.51961 0.0
H2273 H 0.40031 0.00329 0.52339 0.0
H2274 H 0.41094 0.00888 0.55936 0.0
H2275 H 0.40027 0.99383 0.55895 0.0
C2276 C 0.41797 0.99126 0.63735 0.0
C2277 C 0.41347 0.97945 0.64358 0.0
C2278 C 0.41971 0.99556 0.60121 0.0
C2279 C 0.41679 0.98811 0.57074 0.0
C2280 C 0.4123 0.97632 0.57702 0.0
H2281 H 0.42016 -0.00083 0.33108 0.0
H2282 H 0.41517 0.99049 0.39309 0.0
C2283 C 0.41068 0.97203 0.61306 0.0
C2284 C 0.41882 0.99261 0.5323 0.0
H2285 H 0.41305 0.0086 0.47165 0.0
C2286 C 0.42579 0.99027 0.50904 0.0
C2287 C 0.41397 -0.0009 0.51845 0.0
C2288 C 0.40586 0.00133 0.5412 0.0
C2289 C 0.42826 0.99448 0.47267 0.0
C2290 C 0.42363 0.00119 0.45927 0.0
C2291 C 0.41658 0.00345 0.48222 0.0
C2292 C 0.42644 0.00632 0.4219 0.0
C2293 C 0.43599 0.99198 0.44894 0.0
C2294 C 0.43435 0.01806 0.41788 0.0
C2295 C 0.43727 0.02299 0.38271 0.0
C2296 C 0.43222 0.01628 0.35094 0.0
C2297 C 0.42418 0.00453 0.35507 0.0
C2298 C 0.42133 -0.00042 0.39036 0.0
H2299 H 0.43973 0.98751 0.46458 0.0
H2300 H 0.431 0.98648 0.42525 0.0
H2301 H 0.44309 0.00011 0.43743 0.0
H2302 H 0.43836 0.02338 0.44199 0.0
H2303 H 0.44346 0.03208 0.38043 0.0
H2304 H 0.55181 0.96309 0.61669 0.0
H2305 H 0.55687 0.97078 0.55397 0.0
H2306 H 0.57805 0.0049 0.59825 0.0
H2307 H 0.57329 0.99717 0.66129 0.0
H2308 H 0.55273 0.98593 0.51973 0.0
H2309 H 0.59981 0.00324 0.52521 0.0
H2310 H 0.59018 0.99378 0.56037 0.0
H2311 H 0.59476 0.00887 0.56099 0.0
C2312 C 0.55761 0.97223 0.61309 0.0
C2313 C 0.5622 0.97954 0.64388 0.0
C2314 C 0.56049 0.97661 0.57722 0.0
C2315 C 0.56798 0.98839 0.57135 0.0
C2316 C 0.57249 0.99574 0.60208 0.0
H2317 H 0.5862 0.03233 0.38035 0.0
H2318 H 0.5826 0.02379 0.44216 0.0
C2319 C 0.5697 0.99133 0.63807 0.0
C2320 C 0.57065 0.99297 0.53303 0.0
H2321 H 0.59271 0.00869 0.47299 0.0
C2322 C 0.56147 0.99081 0.50945 0.0
C2323 C 0.58206 -0.00069 0.51956 0.0
C2324 C 0.59226 0.00135 0.54272 0.0
C2325 C 0.5634 0.99503 0.47307 0.0
C2326 C 0.57479 0.00156 0.46 0.0
C2327 C 0.58398 0.00367 0.48331 0.0
C2328 C 0.57729 0.00664 0.42254 0.0
C2329 C 0.55329 0.99271 0.44896 0.0
C2330 C 0.57558 -0.0002 0.39119 0.0
C2331 C 0.5777 0.00467 0.35577 0.0
C2332 C 0.58147 0.01642 0.35131 0.0
C2333 C 0.58326 0.02324 0.38289 0.0
C2334 C 0.58124 0.0184 0.4182 0.0
H2335 H 0.54503 0.98841 0.46439 0.0
H2336 H 0.55452 0.00089 0.43719 0.0
H2337 H 0.55272 0.98712 0.42547 0.0
H2338 H 0.57257 0.9907 0.39417 0.0
H2339 H 0.57626 -0.00078 0.33193 0.0
H2340 H 0.96446 0.55451 0.38766 0.0
H2341 H 0.97226 0.55994 0.45012 0.0
H2342 H 0.00627 0.581 0.40491 0.0
H2343 H -0.00157 0.57586 0.34207 0.0
H2344 H 0.98742 0.5559 0.48432 0.0
H2345 H 0.00483 0.60299 0.47743 0.0
H2346 H 0.99532 0.59327 0.44254 0.0
H2347 H 0.0104 0.5978 0.44186 0.0
C2348 C 0.9736 0.56037 0.39098 0.0
C2349 C 0.98084 0.56479 0.35999 0.0
C2350 C 0.97804 0.56346 0.42672 0.0
C2351 C 0.98982 0.57101 0.43226 0.0
C2352 C 0.9971 0.5754 0.40133 0.0
H2353 H 0.03405 0.59073 0.62318 0.0
H2354 H 0.02552 0.58719 0.56137 0.0
C2355 C 0.99264 0.57239 0.36545 0.0
C2356 C 0.99447 0.57379 0.4705 0.0
H2357 H 0.01024 0.596 0.52999 0.0
C2358 C 0.99232 0.56467 0.49437 0.0
C2359 C 0.00085 0.58524 0.48366 0.0
C2360 C 0.00289 0.59538 0.46017 0.0
C2361 C 0.99657 0.56668 0.53072 0.0
C2362 C 0.00309 0.57811 0.54355 0.0
C2363 C 0.00522 0.58724 0.51991 0.0
C2364 C 0.00816 0.58071 0.58107 0.0
C2365 C 0.99427 0.55661 0.55499 0.0
C2366 C 0.0012 0.57837 0.61253 0.0
C2367 C 0.00606 0.58044 0.64798 0.0
C2368 C 0.01793 0.58482 0.65236 0.0
C2369 C 0.02487 0.5873 0.62069 0.0
C2370 C 0.02003 0.58532 0.58537 0.0
H2371 H 0.9904 0.5484 0.5393 0.0
H2372 H 0.00237 0.55806 0.56807 0.0
H2373 H 0.98827 0.55576 0.57749 0.0
H2374 H 0.99202 0.57486 0.60964 0.0
H2375 H 0.00051 0.57846 0.67188 0.0
H2376 H 0.42271 0.42154 0.33111 0.0
H2377 H 0.41805 0.4251 0.39369 0.0
H2378 H 0.43474 0.40765 0.44024 0.0
H2379 H 0.43957 0.40424 0.37817 0.0
H2380 H 0.40549 0.40974 0.45082 0.0
H2381 H 0.45078 0.43865 0.49296 0.0
H2382 H 0.44662 0.43465 0.44536 0.0
H2383 H 0.44803 0.42492 0.47622 0.0
C2384 C 0.42537 0.41846 0.35472 0.0
C2385 C 0.43159 0.4127 0.34977 0.0
C2386 C 0.4227 0.42049 0.3904 0.0
C2387 C 0.42625 0.41683 0.4216 0.0
C2388 C 0.43216 0.41079 0.4166 0.0
H2389 H 0.42032 0.42151 0.66007 0.0
H2390 H 0.42352 0.41658 0.59744 0.0
C2391 C 0.43486 0.4088 0.38107 0.0
C2392 C 0.42379 0.41929 0.45946 0.0
H2393 H 0.43671 0.43259 0.54047 0.0
C2394 C 0.4123 0.41478 0.47038 0.0
C2395 C 0.43272 0.42587 0.48492 0.0
C2396 C 0.44523 0.4314 0.47425 0.0
C2397 C 0.40949 0.4165 0.50637 0.0
C2398 C 0.41841 0.42301 0.53185 0.0
C2399 C 0.42989 0.42753 0.52092 0.0
C2400 C 0.41605 0.42557 0.56966 0.0
C2401 C 0.397 0.41118 0.51706 0.0
C2402 C 0.41088 0.43231 0.57468 0.0
C2403 C 0.40908 0.43516 0.61026 0.0
C2404 C 0.41246 0.43134 0.64153 0.0
C2405 C 0.4176 0.42455 0.63649 0.0
C2406 C 0.41944 0.42173 0.6008 0.0
H2407 H 0.39132 0.40416 0.49782 0.0
H2408 H 0.39555 0.40769 0.54565 0.0
H2409 H 0.39445 0.41786 0.51613 0.0
H2410 H 0.4084 0.43554 0.55102 0.0
H2411 H 0.40513 0.44044 0.61323 0.0
H2412 H 0.08569 0.33092 0.16366 0.0
H2413 H 0.08788 0.33945 0.22518 0.0
H2414 H 0.07264 0.30576 0.27463 0.0
H2415 H 0.07024 0.29715 0.21324 0.0
H2416 H 0.06468 0.31975 0.30523 0.0
H2417 H 0.11239 0.34238 0.29882 0.0
H2418 H 0.10568 0.34555 0.26118 0.0
H2419 H 0.1034 0.33124 0.26646 0.0
C2420 C 0.08274 0.32533 0.18763 0.0
C2421 C 0.07788 0.31338 0.18368 0.0
C2422 C 0.08405 0.33022 0.22274 0.0
C2423 C 0.0806 0.32325 0.25447 0.0
C2424 C 0.0754 0.31129 0.25049 0.0
H2425 H 0.08669 0.33346 0.49191 0.0
H2426 H 0.08117 0.32556 0.42934 0.0
C2427 C 0.07406 0.30639 0.21541 0.0
C2428 C 0.08272 0.32841 0.29192 0.0
H2429 H 0.10416 0.34608 0.35101 0.0
C2430 C 0.0733 0.32551 0.31529 0.0
C2431 C 0.09399 0.33589 0.30496 0.0
C2432 C 0.10446 0.33889 0.28174 0.0
C2433 C 0.07486 0.33001 0.3513 0.0
C2434 C 0.08613 0.33746 0.36432 0.0
C2435 C 0.09552 0.3404 0.34085 0.0
C2436 C 0.08847 0.34215 0.40244 0.0
C2437 C 0.06444 0.32688 0.37492 0.0
C2438 C 0.09445 0.35408 0.40804 0.0
C2439 C 0.09767 0.35861 0.44367 0.0
C2440 C 0.09502 0.35127 0.47436 0.0
C2441 C 0.08879 0.33932 0.46881 0.0
C2442 C 0.08558 0.33479 0.43311 0.0
H2443 H 0.05652 0.32365 0.35793 0.0
H2444 H 0.06316 0.31997 0.39452 0.0
H2445 H 0.0656 0.33438 0.39131 0.0
H2446 H 0.09681 0.3599 0.38471 0.0
H2447 H 0.10247 0.36786 0.44705 0.0
H2448 H 0.62828 0.73406 0.45287 0.0
H2449 H 0.63592 0.73588 0.39028 0.0
H2450 H 0.67042 0.75253 0.43402 0.0
H2451 H 0.66281 0.75054 0.49685 0.0
H2452 H 0.6501 0.75615 0.3559 0.0
H2453 H 0.67098 0.72953 0.36225 0.0
H2454 H 0.66083 0.72864 0.39673 0.0
H2455 H 0.67554 0.7401 0.39833 0.0
C2456 C 0.63748 0.73795 0.44922 0.0
C2457 C 0.64496 0.74217 0.47974 0.0
C2458 C 0.64183 0.73898 0.41345 0.0
C2459 C 0.65372 0.74421 0.40751 0.0
C2460 C 0.6612 0.74823 0.43802 0.0
H2461 H 0.69896 0.77137 0.22007 0.0
H2462 H 0.69008 0.7648 0.28094 0.0
C2463 C 0.65685 0.74715 0.47388 0.0
C2464 C 0.65831 0.74634 0.36924 0.0
H2465 H 0.67567 0.74206 0.31013 0.0
C2466 C 0.65559 0.75296 0.34574 0.0
C2467 C 0.6655 0.7422 0.35613 0.0
C2468 C 0.66831 0.73463 0.37954 0.0
C2469 C 0.6601 0.75583 0.30983 0.0
C2470 C 0.66741 0.75182 0.29689 0.0
C2471 C 0.67005 0.74509 0.32018 0.0
C2472 C 0.67275 0.75496 0.25976 0.0
C2473 C 0.65732 0.76343 0.28644 0.0
C2474 C 0.66595 0.75136 0.22768 0.0
C2475 C 0.67099 0.75512 0.19284 0.0
C2476 C 0.68292 0.76249 0.1896 0.0
C2477 C 0.68974 0.76573 0.22171 0.0
C2478 C 0.68469 0.76197 0.25648 0.0
H2479 H 0.65362 0.76774 0.30317 0.0
H2480 H 0.66513 0.77012 0.2721 0.0
H2481 H 0.65093 0.75813 0.26503 0.0
H2482 H 0.65672 0.7458 0.22965 0.0
H2483 H 0.66553 0.75243 0.16856 0.0
H2484 H 0.24412 0.91436 0.17021 0.0
H2485 H 0.25027 0.91191 0.23175 0.0
H2486 H 0.22996 0.925 0.28183 0.0
H2487 H 0.2239 0.92761 0.22048 0.0
H2488 H 0.25202 0.93356 0.31411 0.0
H2489 H 0.22841 0.88592 0.30161 0.0
H2490 H 0.23849 0.89345 0.26511 0.0
H2491 H 0.22606 0.89503 0.27039 0.0
C2492 C 0.24105 0.9168 0.19432 0.0
C2493 C 0.23346 0.92109 0.19057 0.0
C2494 C 0.24452 0.91535 0.22943 0.0
C2495 C 0.24041 0.9181 0.2613 0.0
C2496 C 0.23319 0.92278 0.25756 0.0
H2497 H 0.24227 0.90983 0.49822 0.0
H2498 H 0.24036 0.91574 0.43573 0.0
C2499 C 0.22972 0.92425 0.2225 0.0
C2500 C 0.24326 0.91569 0.29863 0.0
H2501 H 0.23945 0.8938 0.35561 0.0
C2502 C 0.2493 0.92488 0.32324 0.0
C2503 C 0.23966 0.90434 0.3104 0.0
C2504 C 0.23271 0.89409 0.28569 0.0
C2505 C 0.25193 0.92302 0.35931 0.0
C2506 C 0.24825 0.91166 0.37113 0.0
C2507 C 0.2423 0.9025 0.34639 0.0
C2508 C 0.25021 0.90898 0.4093 0.0
C2509 C 0.25874 0.93323 0.38427 0.0
C2510 C 0.25628 0.90313 0.41511 0.0
C2511 C 0.25731 0.89968 0.45069 0.0
C2512 C 0.25222 0.90195 0.48109 0.0
C2513 C 0.24633 0.90801 0.47534 0.0
C2514 C 0.24529 0.91145 0.4397 0.0
H2515 H 0.26354 0.94133 0.36821 0.0
H2516 H 0.25277 0.93417 0.40322 0.0
H2517 H 0.26495 0.93204 0.40133 0.0
H2518 H 0.26008 0.90109 0.39199 0.0
H2519 H 0.2619 0.89502 0.45424 0.0
H2520 H 0.36512 0.10428 0.55584 0.0
H2521 H 0.35731 0.09882 0.61838 0.0
H2522 H 0.32303 0.07958 0.57345 0.0
H2523 H 0.33083 0.08481 0.51069 0.0
H2524 H 0.3426 0.1044 0.65093 0.0
H2525 H 0.323 0.05699 0.64787 0.0
H2526 H 0.33305 0.06622 0.61313 0.0
H2527 H 0.3182 0.06248 0.61089 0.0
C2528 C 0.35593 0.09874 0.55924 0.0
C2529 C 0.34858 0.09496 0.52838 0.0
C2530 C 0.35148 0.09564 0.595 0.0
C2531 C 0.3396 0.08868 0.6006 0.0
C2532 C 0.33225 0.08473 0.56978 0.0
H2533 H 0.29409 0.07086 0.78792 0.0
H2534 H 0.30295 0.07318 0.72695 0.0
C2535 C 0.33671 0.08779 0.53394 0.0
C2536 C 0.33487 0.08634 0.63874 0.0
H2537 H 0.31783 0.06484 0.69881 0.0
C2538 C 0.33729 0.09575 0.66153 0.0
C2539 C 0.32791 0.07504 0.65247 0.0
C2540 C 0.32547 0.0646 0.62996 0.0
C2541 C 0.3327 0.09419 0.69733 0.0
C2542 C 0.32563 0.08291 0.71086 0.0
C2543 C 0.32327 0.07348 0.68827 0.0
C2544 C 0.3203 0.08079 0.74801 0.0
C2545 C 0.3352 0.10462 0.72004 0.0
C2546 C 0.32713 0.08408 0.78003 0.0
C2547 C 0.3221 0.08275 0.81491 0.0
C2548 C 0.31016 0.07811 0.81827 0.0
C2549 C 0.30332 0.0745 0.78619 0.0
C2550 C 0.30835 0.0758 0.75137 0.0
H2551 H 0.33884 0.11255 0.70296 0.0
H2552 H 0.32726 0.10338 0.73378 0.0
H2553 H 0.34152 0.1059 0.74195 0.0
H2554 H 0.33636 0.08782 0.77798 0.0
H2555 H 0.32758 0.08556 0.83915 0.0
H2556 H 0.91124 0.21865 0.78999 0.0
H2557 H 0.90949 0.22509 0.72854 0.0
H2558 H 0.92772 0.26033 0.76579 0.0
H2559 H 0.92904 0.25383 0.82817 0.0
H2560 H 0.91021 0.25693 0.72578 0.0
H2561 H 0.9328 0.23872 0.64872 0.0
H2562 H 0.92117 0.22761 0.67453 0.0
H2563 H 0.93295 0.23936 0.6986 0.0
C2564 C 0.91494 0.22778 0.78507 0.0
C2565 C 0.92034 0.23575 0.81378 0.0
C2566 C 0.91403 0.23147 0.74978 0.0
C2567 C 0.91877 0.24323 0.74213 0.0
C2568 C 0.9241 0.25122 0.7709 0.0
H2569 H 0.91779 0.26057 0.50789 0.0
H2570 H 0.92477 0.25974 0.56993 0.0
C2571 C 0.92484 0.24751 0.8065 0.0
C2572 C 0.91757 0.24703 0.70457 0.0
H2573 H 0.91986 0.24253 0.61274 0.0
C2574 C 0.9125 0.25393 0.70107 0.0
C2575 C 0.92082 0.24341 0.67219 0.0
C2576 C 0.92736 0.23699 0.67374 0.0
C2577 C 0.91 0.25676 0.66619 0.0
C2578 C 0.91224 0.25219 0.63394 0.0
C2579 C 0.91791 0.24585 0.63739 0.0
C2580 C 0.90823 0.25335 0.59666 0.0
C2581 C 0.90501 0.26462 0.66445 0.0
C2582 C 0.89662 0.24994 0.59088 0.0
C2583 C 0.89269 0.2506 0.55571 0.0
C2584 C 0.90022 0.25439 0.52533 0.0
C2585 C 0.91181 0.25763 0.53086 0.0
C2586 C 0.91579 0.25716 0.56627 0.0
H2587 H 0.9079 0.27062 0.68838 0.0
H2588 H 0.90749 0.26975 0.63853 0.0
H2589 H 0.8955 0.2594 0.66574 0.0
H2590 H 0.89051 0.24656 0.61346 0.0
H2591 H 0.88368 0.2479 0.55218 0.0
H2592 H 0.76591 0.6995 0.78772 0.0
H2593 H 0.76007 0.69215 0.72483 0.0
H2594 H 0.74646 0.65748 0.76489 0.0
H2595 H 0.7521 0.66477 0.82805 0.0
H2596 H 0.76808 0.6802 0.68609 0.0
H2597 H 0.72066 0.65426 0.6981 0.0
H2598 H 0.72951 0.66466 0.73262 0.0
H2599 H 0.72807 0.65061 0.73202 0.0
C2600 C 0.76151 0.69029 0.78323 0.0
C2601 C 0.75945 0.6827 0.8128 0.0
C2602 C 0.75819 0.68612 0.74728 0.0
C2603 C 0.75271 0.67427 0.74021 0.0
C2604 C 0.75044 0.66664 0.76981 0.0
H2605 H 0.73758 0.63045 0.55163 0.0
H2606 H 0.73947 0.63914 0.61252 0.0
C2607 C 0.75373 0.67082 0.80585 0.0
C2608 C 0.75026 0.66999 0.70155 0.0
H2609 H 0.72901 0.65121 0.64383 0.0
C2610 C 0.75951 0.67398 0.6767 0.0
C2611 C 0.73908 0.66185 0.68941 0.0
C2612 C 0.72874 0.65767 0.71432 0.0
C2613 C 0.75796 0.66975 0.64039 0.0
C2614 C 0.74682 0.66144 0.62848 0.0
C2615 C 0.73753 0.6576 0.65308 0.0
C2616 C 0.74481 0.65614 0.59128 0.0
C2617 C 0.76832 0.67388 0.61554 0.0
C2618 C 0.74694 0.66278 0.55911 0.0
C2619 C 0.74588 0.65783 0.52418 0.0
C2620 C 0.74265 0.64617 0.52096 0.0
C2621 C 0.74013 0.63947 0.55321 0.0
C2622 C 0.74118 0.64441 0.58803 0.0
H2623 H 0.77651 0.67847 0.63125 0.0
H2624 H 0.76812 0.66656 0.60057 0.0
H2625 H 0.76825 0.6799 0.59466 0.0
H2626 H 0.74959 0.67181 0.56106 0.0
H2627 H 0.74782 0.66318 0.4998 0.0
H2628 H 0.8827 0.64029 0.54277 0.0
H2629 H 0.8889 0.64893 0.60386 0.0
H2630 H 0.92435 0.66441 0.56958 0.0
H2631 H 0.91812 0.65619 0.50753 0.0
H2632 H 0.90082 0.64609 0.65531 0.0
H2633 H 0.92447 0.69184 0.61192 0.0
H2634 H 0.91561 0.6804 0.58038 0.0
H2635 H 0.9299 0.68334 0.59144 0.0
C2636 C 0.89183 0.6456 0.54816 0.0
C2637 C 0.89994 0.64765 0.52036 0.0
C2638 C 0.89537 0.65051 0.58315 0.0
C2639 C 0.9071 0.65747 0.5913 0.0
C2640 C 0.91525 0.65934 0.56374 0.0
H2641 H 0.92569 0.6751 0.82635 0.0
H2642 H 0.92389 0.66693 0.76432 0.0
C2643 C 0.91169 0.65459 0.52837 0.0
C2644 C 0.91063 0.66258 0.62887 0.0
H2645 H 0.92526 0.68805 0.67533 0.0
C2646 C 0.90618 0.65527 0.65969 0.0
C2647 C 0.91756 0.67457 0.63461 0.0
C2648 C 0.92208 0.68301 0.60287 0.0
C2649 C 0.90816 0.6596 0.69595 0.0
C2650 C 0.9152 0.67158 0.70172 0.0
C2651 C 0.91993 0.67886 0.67094 0.0
C2652 C 0.91702 0.67687 0.73908 0.0
C2653 C 0.90222 0.65133 0.72746 0.0
C2654 C 0.91425 0.68552 0.74526 0.0
C2655 C 0.91556 0.69039 0.78031 0.0
C2656 C 0.91954 0.68661 0.8101 0.0
C2657 C 0.92247 0.67807 0.80393 0.0
C2658 C 0.92137 0.67335 0.76857 0.0
H2659 H 0.8948 0.64312 0.71763 0.0
H2660 H 0.90838 0.64927 0.741 0.0
H2661 H 0.89906 0.65512 0.7485 0.0
H2662 H 0.91088 0.68841 0.72303 0.0
H2663 H 0.91321 0.69695 0.78424 0.0
H2664 H 0.33267 0.24318 0.8285 0.0
H2665 H 0.34131 0.24907 0.76679 0.0
H2666 H 0.30781 0.23788 0.72003 0.0
H2667 H 0.29918 0.23217 0.78138 0.0
H2668 H 0.33658 0.23494 0.70624 0.0
H2669 H 0.32682 0.26948 0.67375 0.0
H2670 H 0.32587 0.26403 0.72008 0.0
H2671 H 0.31438 0.25629 0.68758 0.0
C2672 C 0.32719 0.24213 0.80511 0.0
C2673 C 0.31526 0.23725 0.80978 0.0
C2674 C 0.33212 0.24548 0.7699 0.0
C2675 C 0.32523 0.24408 0.73888 0.0
C2676 C 0.31334 0.23931 0.74363 0.0
H2677 H 0.33339 0.24717 0.50067 0.0
H2678 H 0.32636 0.24509 0.56452 0.0
C2679 C 0.30841 0.23597 0.77873 0.0
C2680 C 0.33029 0.24681 0.70118 0.0
H2681 H 0.3326 0.26211 0.62289 0.0
C2682 C 0.33583 0.24098 0.68816 0.0
C2683 C 0.32924 0.25465 0.67756 0.0
C2684 C 0.32386 0.26156 0.69053 0.0
C2685 C 0.34007 0.24253 0.65185 0.0
C2686 C 0.33888 0.25025 0.62809 0.0
C2687 C 0.33345 0.25617 0.64116 0.0
C2688 C 0.3432 0.2522 0.5895 0.0
C2689 C 0.3455 0.23566 0.63884 0.0
C2690 C 0.355 0.25714 0.58248 0.0
C2691 C 0.35902 0.25834 0.54618 0.0
C2692 C 0.35132 0.25466 0.51619 0.0
C2693 C 0.33953 0.25006 0.52321 0.0
C2694 C 0.3355 0.24887 0.55962 0.0
H2695 H 0.34341 0.22828 0.65744 0.0
H2696 H 0.34262 0.23234 0.61037 0.0
H2697 H 0.35498 0.24129 0.63833 0.0
H2698 H 0.36109 0.25994 0.60514 0.0
H2699 H 0.36817 0.26198 0.54167 0.0
H2700 H 0.77632 0.07593 0.7817 0.0
H2701 H 0.76978 0.07804 0.72053 0.0
H2702 H 0.7434 0.08281 0.77125 0.0
H2703 H 0.74989 0.08069 0.83275 0.0
H2704 H 0.7463 0.06503 0.68791 0.0
H2705 H 0.76311 0.11201 0.70466 0.0
H2706 H 0.76799 0.10423 0.73309 0.0
H2707 H 0.75413 0.10274 0.74115 0.0
C2708 C 0.76909 0.07737 0.77987 0.0
C2709 C 0.76365 0.07821 0.81201 0.0
C2710 C 0.76535 0.07854 0.74492 0.0
C2711 C 0.75619 0.08067 0.7415 0.0
C2712 C 0.75057 0.08127 0.77344 0.0
H2713 H 0.73221 0.10106 0.54774 0.0
H2714 H 0.7343 0.09531 0.61017 0.0
C2715 C 0.75426 0.08004 0.80847 0.0
C2716 C 0.75279 0.08261 0.70444 0.0
H2717 H 0.75383 0.10358 0.64865 0.0
C2718 C 0.74788 0.07344 0.67927 0.0
C2719 C 0.75486 0.09358 0.69346 0.0
C2720 C 0.76038 0.10376 0.71929 0.0
C2721 C 0.74494 0.07495 0.64322 0.0
C2722 C 0.74727 0.086 0.63188 0.0
C2723 C 0.75204 0.09512 0.65735 0.0
C2724 C 0.74516 0.08845 0.59352 0.0
C2725 C 0.73924 0.06466 0.61786 0.0
C2726 C 0.75052 0.08644 0.56333 0.0
C2727 C 0.74925 0.08963 0.52754 0.0
C2728 C 0.74275 0.09505 0.52144 0.0
C2729 C 0.73728 0.09691 0.55161 0.0
C2730 C 0.73846 0.09363 0.58729 0.0
H2731 H 0.73482 0.0565 0.63378 0.0
H2732 H 0.73287 0.06514 0.59945 0.0
H2733 H 0.74588 0.06439 0.60033 0.0
H2734 H 0.75597 0.08273 0.56754 0.0
H2735 H 0.75364 0.08818 0.50486 0.0
H2736 H 0.66588 0.91129 0.16435 0.0
H2737 H 0.65745 0.90893 0.22614 0.0
H2738 H 0.6914 0.92714 0.27384 0.0
H2739 H 0.69988 0.92961 0.21226 0.0
H2740 H 0.66104 0.8973 0.28442 0.0
H2741 H 0.6749 0.94232 0.32389 0.0
H2742 H 0.675 0.93803 0.27657 0.0
H2743 H 0.6863 0.94011 0.30779 0.0
C2744 C 0.67154 0.91494 0.18795 0.0
C2745 C 0.68354 0.92063 0.18349 0.0
C2746 C 0.66672 0.91358 0.22319 0.0
C2747 C 0.6738 0.91798 0.25449 0.0
C2748 C 0.68578 0.92388 0.25 0.0
H2749 H 0.66313 0.91087 0.49208 0.0
H2750 H 0.67106 0.91633 0.4294 0.0
C2751 C 0.69061 0.92522 0.2148 0.0
C2752 C 0.66869 0.91557 0.29205 0.0
H2753 H 0.66706 0.92831 0.37189 0.0
C2754 C 0.66226 0.90407 0.30344 0.0
C2755 C 0.67041 0.92443 0.31688 0.0
C2756 C 0.67694 0.93692 0.30565 0.0
C2757 C 0.65767 0.90118 0.33927 0.0
C2758 C 0.65936 0.91003 0.36412 0.0
C2759 C 0.66578 0.92155 0.35274 0.0
C2760 C 0.65453 0.90744 0.40206 0.0
C2761 C 0.65132 0.88868 0.3505 0.0
C2762 C 0.64261 0.9009 0.40741 0.0
C2763 C 0.63807 0.89774 0.44304 0.0
C2764 C 0.64538 0.90115 0.47402 0.0
C2765 C 0.6573 0.90809 0.46872 0.0
C2766 C 0.66183 0.91122 0.43298 0.0
H2767 H 0.65334 0.88333 0.33193 0.0
H2768 H 0.65346 0.88759 0.37937 0.0
H2769 H 0.64193 0.88537 0.34897 0.0
H2770 H 0.63681 0.8981 0.38396 0.0
H2771 H 0.62884 0.89247 0.44625 0.0
H2772 H 0.10437 0.73724 0.44755 0.0
H2773 H 0.09778 0.73925 0.38641 0.0
H2774 H 0.07524 0.74952 0.4371 0.0
H2775 H 0.0819 0.74765 0.49858 0.0
H2776 H 0.07542 0.72908 0.35404 0.0
H2777 H 0.09597 0.77658 0.36804 0.0
H2778 H 0.09924 0.768 0.39877 0.0
H2779 H 0.08609 0.76828 0.40417 0.0
C2780 C 0.09794 0.73984 0.44574 0.0
C2781 C 0.09372 0.74239 0.47784 0.0
C2782 C 0.09417 0.74096 0.41079 0.0
C2783 C 0.08616 0.74469 0.40725 0.0
C2784 C 0.08157 0.7468 0.43927 0.0
H2785 H 0.06473 0.76666 0.21092 0.0
H2786 H 0.06608 0.76063 0.27369 0.0
C2787 C 0.08534 0.74568 0.47433 0.0
C2788 C 0.08306 0.74686 0.36996 0.0
H2789 H 0.0859 0.76837 0.31286 0.0
C2790 C 0.07764 0.73765 0.34502 0.0
C2791 C 0.08602 0.75806 0.35833 0.0
C2792 C 0.09223 0.76833 0.38353 0.0
C2793 C 0.07508 0.73935 0.30866 0.0
C2794 C 0.07823 0.75059 0.29684 0.0
C2795 C 0.08348 0.75975 0.32201 0.0
C2796 C 0.07652 0.75319 0.25822 0.0
C2797 C 0.06894 0.72909 0.2834 0.0
C2798 C 0.08189 0.75094 0.22861 0.0
C2799 C 0.08109 0.75434 0.19263 0.0
C2800 C 0.07501 0.76014 0.18576 0.0
C2801 C 0.06948 0.7622 0.21534 0.0
C2802 C 0.07024 0.75876 0.25123 0.0
H2803 H 0.06418 0.72096 0.29934 0.0
H2804 H 0.0628 0.72997 0.265 0.0
H2805 H 0.07536 0.72843 0.2658 0.0
H2806 H 0.087 0.74689 0.23346 0.0
H2807 H 0.08551 0.75271 0.17042 0.0
H2808 H 0.22429 0.29604 0.22559 0.0
H2809 H 0.23035 0.30469 0.28691 0.0
H2810 H 0.25198 0.33783 0.23678 0.0
H2811 H 0.24584 0.32925 0.17516 0.0
H2812 H 0.25231 0.31735 0.32005 0.0
H2813 H 0.23067 0.34325 0.30528 0.0
H2814 H 0.22793 0.33163 0.27423 0.0
H2815 H 0.24083 0.34532 0.2695 0.0
C2816 C 0.2304 0.30516 0.22758 0.0
C2817 C 0.23452 0.31199 0.19558 0.0
C2818 C 0.23387 0.31008 0.26264 0.0
C2819 C 0.24147 0.32192 0.26637 0.0
C2820 C 0.24595 0.3287 0.23447 0.0
H2821 H 0.26264 0.36551 0.46225 0.0
H2822 H 0.26129 0.35803 0.39961 0.0
C2823 C 0.24248 0.32378 0.19932 0.0
C2824 C 0.24434 0.32716 0.30374 0.0
H2825 H 0.24099 0.34561 0.3604 0.0
C2826 C 0.24988 0.32357 0.32889 0.0
C2827 C 0.24112 0.33523 0.31516 0.0
C2828 C 0.23472 0.33904 0.28982 0.0
C2829 C 0.25233 0.32787 0.3652 0.0
C2830 C 0.24897 0.33582 0.37674 0.0
C2831 C 0.24358 0.33953 0.35142 0.0
C2832 C 0.25062 0.34019 0.41524 0.0
C2833 C 0.25856 0.32395 0.39079 0.0
C2834 C 0.2451 0.33263 0.44484 0.0
C2835 C 0.24586 0.33688 0.48071 0.0
C2836 C 0.25208 0.34877 0.48749 0.0
C2837 C 0.25779 0.3563 0.45791 0.0
C2838 C 0.25703 0.35205 0.4221 0.0
H2839 H 0.26328 0.32047 0.37517 0.0
H2840 H 0.26475 0.33111 0.40864 0.0
H2841 H 0.25222 0.31701 0.40897 0.0
H2842 H 0.23991 0.32346 0.44004 0.0
H2843 H 0.24132 0.33087 0.50291 0.0
H2844 H -0.00022 0.41853 0.83784 0.0
H2845 H 0.99149 0.41262 0.90001 0.0
H2846 H 0.02524 0.43259 0.948 0.0
H2847 H 0.03355 0.43862 0.8863 0.0
H2848 H 0.99658 0.40147 0.95986 0.0
H2849 H 0.00613 0.44559 0.99582 0.0
H2850 H 0.00645 0.44119 0.94881 0.0
H2851 H 0.01831 0.44474 0.97942 0.0
C2852 C 0.00543 0.42159 0.86165 0.0
C2853 C 0.0173 0.42912 0.85725 0.0
C2854 C 0.00069 0.41819 0.89709 0.0
C2855 C 0.00774 0.42233 0.92854 0.0
C2856 C 0.01963 0.42948 0.92408 0.0
H2857 H 0.99765 0.42016 0.16518 0.0
H2858 H 0.00547 0.42228 0.10266 0.0
C2859 C 0.02436 0.43288 0.8888 0.0
C2860 C 0.00268 0.41956 0.96615 0.0
H2861 H -0.00036 0.43197 0.04451 0.0
C2862 C 0.99719 0.40811 0.97838 0.0
C2863 C 0.00347 0.42825 0.99012 0.0
C2864 C 0.00881 0.44062 0.97787 0.0
C2865 C 0.99271 0.40516 0.01445 0.0
C2866 C 0.99364 0.41389 0.03854 0.0
C2867 C -0.00097 0.42531 0.02609 0.0
C2868 C 0.98897 0.41146 0.07671 0.0
C2869 C 0.98728 0.3928 0.02676 0.0
C2870 C 0.97711 0.40457 0.08289 0.0
C2871 C 0.97262 0.40333 0.11861 0.0
C2872 C 0.97991 0.40904 0.14869 0.0
C2873 C 0.99182 0.41565 0.14257 0.0
C2874 C 0.99629 0.41688 0.10688 0.0
H2875 H 0.98983 0.38776 0.0087 0.0
H2876 H 0.98968 0.39223 0.05576 0.0
H2877 H 0.97778 0.38879 0.02546 0.0
H2878 H 0.97128 0.40049 0.05992 0.0
H2879 H 0.9634 0.39822 0.12244 0.0
H2880 H 0.59663 0.56029 0.12101 0.0
H2881 H 0.59463 0.5662 0.05873 0.0
H2882 H 0.57556 0.5815 0.10307 0.0
H2883 H 0.57779 0.57586 0.16558 0.0
H2884 H 0.57469 0.55914 0.02246 0.0
H2885 H 0.59774 0.60662 0.03458 0.0
H2886 H 0.59911 0.59754 0.06864 0.0
H2887 H 0.58685 0.59958 0.06925 0.0
C2888 C 0.59216 0.56507 0.11755 0.0
C2889 C 0.58738 0.56763 0.14814 0.0
C2890 C 0.59102 0.56843 0.08196 0.0
C2891 C 0.58508 0.57442 0.07627 0.0
C2892 C 0.58043 0.57714 0.10687 0.0
H2893 H 0.55635 0.59057 0.88847 0.0
H2894 H 0.56265 0.58815 0.94967 0.0
C2895 C 0.58164 0.57385 0.14255 0.0
C2896 C 0.58296 0.57699 0.03809 0.0
H2897 H 0.58577 0.59858 0.98125 0.0
C2898 C 0.57723 0.56778 0.01333 0.0
C2899 C 0.58626 0.58827 0.02626 0.0
C2900 C 0.59293 0.59858 0.05095 0.0
C2901 C 0.57444 0.56949 0.97739 0.0
C2902 C 0.57756 0.58073 0.96579 0.0
C2903 C 0.58339 0.58997 0.99033 0.0
C2904 C 0.57444 0.58294 0.92866 0.0
C2905 C 0.56785 0.55921 0.95244 0.0
C2906 C 0.57917 0.58104 0.89665 0.0
C2907 C 0.5756 0.58243 0.86163 0.0
C2908 C 0.56724 0.58574 0.85814 0.0
C2909 C 0.56277 0.58796 0.89029 0.0
C2910 C 0.56638 0.58661 0.92525 0.0
H2911 H 0.56417 0.55098 0.96792 0.0
H2912 H 0.56076 0.55967 0.93821 0.0
H2913 H 0.57372 0.55917 0.93092 0.0
H2914 H 0.58552 0.57834 0.8988 0.0
H2915 H 0.57922 0.5807 0.83735 0.0
H2916 H 0.43733 0.03599 0.11552 0.0
H2917 H 0.43145 0.02845 0.05281 0.0
H2918 H 0.41328 0.99391 0.09611 0.0
H2919 H 0.41892 0.00141 0.15901 0.0
H2920 H 0.4371 0.01424 0.01714 0.0
H2921 H 0.38968 0.99368 0.02583 0.0
H2922 H 0.39913 0.00367 0.06031 0.0
H2923 H 0.39567 0.98889 0.06125 0.0
C2924 C 0.43194 0.02679 0.11173 0.0
C2925 C 0.42857 0.01928 0.14216 0.0
C2926 C 0.4286 0.02251 0.07589 0.0
C2927 C 0.4218 0.01063 0.0698 0.0
C2928 C 0.41829 0.00312 0.10021 0.0
H2929 H 0.40305 0.96514 0.88333 0.0
H2930 H 0.4058 0.97423 0.94402 0.0
C2931 C 0.42158 0.00741 0.13612 0.0
C2932 C 0.41915 0.00608 0.03148 0.0
H2933 H 0.39719 0.98871 0.97337 0.0
C2934 C 0.42837 0.00878 0.00742 0.0
C2935 C 0.40775 -0.00106 0.01889 0.0
C2936 C 0.39749 0.99621 0.0428 0.0
C2937 C 0.42652 0.00423 0.97149 0.0
C2938 C 0.41514 0.99691 0.95918 0.0
C2939 C 0.4059 0.99433 0.98298 0.0
C2940 C 0.41273 0.99144 0.92223 0.0
C2941 C 0.43676 0.00699 0.94739 0.0
C2942 C 0.41549 0.9981 0.8899 0.0
C2943 C 0.41392 0.99293 0.85514 0.0
C2944 C 0.40956 0.98102 0.85226 0.0
C2945 C 0.40647 0.97434 0.88468 0.0
C2946 C 0.40801 0.97951 0.91935 0.0
H2947 H 0.44491 0.01092 0.96344 0.0
H2948 H 0.43563 -0.00089 0.93355 0.0
H2949 H 0.43756 0.01316 0.92555 0.0
H2950 H 0.41902 0.00732 0.8916 0.0
H2951 H 0.41634 0.99829 0.83063 0.0
H2952 H 0.55774 0.96403 0.88281 0.0
H2953 H 0.56402 0.97285 0.94392 0.0
H2954 H 0.58401 0.00615 0.89299 0.0
H2955 H 0.57773 0.99741 0.83165 0.0
H2956 H 0.58699 0.98716 0.97411 0.0
H2957 H 0.56161 0.0095 0.9648 0.0
H2958 H 0.55916 0.99782 0.93439 0.0
H2959 H 0.57127 0.01192 0.92699 0.0
C2960 C 0.56354 0.97322 0.88458 0.0
C2961 C 0.56718 0.98005 0.85248 0.0
C2962 C 0.56713 0.97823 0.91949 0.0
C2963 C 0.57435 0.99015 0.9229 0.0
C2964 C 0.57831 0.99695 0.89088 0.0
H2965 H 0.59494 0.03495 0.11507 0.0
H2966 H 0.593 0.02712 0.05271 0.0
C2967 C 0.57475 0.99194 0.85591 0.0
C2968 C 0.57734 0.99548 0.96008 0.0
H2969 H 0.57291 0.01291 0.01819 0.0
C2970 C 0.58395 0.99282 0.98381 0.0
C2971 C 0.57334 0.00283 0.97252 0.0
C2972 C 0.56587 0.00565 0.94856 0.0
C2973 C 0.58677 0.99742 0.01971 0.0
C2974 C 0.58263 0.00466 0.03235 0.0
C2975 C 0.5761 0.00738 0.00842 0.0
C2976 C 0.58473 0.00937 0.07049 0.0
C2977 C 0.59427 0.99462 0.04353 0.0
C2978 C 0.58078 0.00199 0.10125 0.0
C2979 C 0.58194 0.00645 0.13699 0.0
C2980 C 0.58694 0.01836 0.14248 0.0
C2981 C 0.59104 0.02573 0.1117 0.0
C2982 C 0.58994 0.02127 0.07606 0.0
H2983 H 0.59941 0.99193 0.02654 0.0
H2984 H 0.60022 0.00211 0.06074 0.0
H2985 H 0.58874 0.9874 0.06229 0.0
H2986 H 0.57649 0.99276 0.09757 0.0
H2987 H 0.57864 0.00056 0.16017 0.0
H2988 H 0.03554 0.59318 0.89049 0.0
H2989 H 0.02724 0.59037 0.95254 0.0
H2990 H 0.99422 0.58082 0.90491 0.0
H2991 H 0.00244 0.58354 0.84264 0.0
H2992 H 0.01509 0.60044 0.98793 0.0
H2993 H 0.98832 0.55306 0.97067 0.0
H2994 H 0.00012 0.56191 0.94014 0.0
H2995 H 0.98663 0.56153 0.93538 0.0
C2996 C 0.02652 0.59055 0.89321 0.0
C2997 C 0.01961 0.58849 0.86171 0.0
C2998 C 0.02181 0.58898 0.92867 0.0
C2999 C 0.0101 0.58525 0.93324 0.0
C3000 C 0.00325 0.58354 0.9019 0.0
H3001 H 0.96522 0.56265 0.12467 0.0
H3002 H 0.97359 0.56879 0.06308 0.0
C3003 C 0.00796 0.58514 0.86639 0.0
C3004 C 0.005 0.58278 0.9708 0.0
H3005 H 0.98602 0.56091 0.02621 0.0
C3006 C 0.00872 0.59181 0.99638 0.0
C3007 C 0.99673 0.5715 0.98166 0.0
C3008 C 0.99275 0.5614 0.95571 0.0
C3009 C 0.00426 0.58988 0.03252 0.0
C3010 C 0.99604 0.57859 0.04344 0.0
C3011 C 0.99231 0.56957 0.01775 0.0
C3012 C 0.99118 0.57582 0.08138 0.0
C3013 C 0.00823 0.59998 0.05842 0.0
C3014 C -0.0017 0.57778 0.11222 0.0
C3015 C 0.99354 0.57432 0.14757 0.0
C3016 C 0.98156 0.56872 0.15256 0.0
C3017 C 0.97448 0.56693 0.12172 0.0
C3018 C 0.97924 0.57043 0.0865 0.0
H3019 H 0.01198 0.60825 0.04309 0.0
H3020 H 0.00102 0.59912 0.07578 0.0
H3021 H 0.01496 0.60032 0.07705 0.0
H3022 H 0.00752 0.58169 0.10882 0.0
H3023 H -0.0008 0.57574 0.1708 0.0
H3024 H 0.44715 0.41953 0.11743 0.0
H3025 H 0.44084 0.4218 0.05633 0.0
H3026 H 0.40552 0.40316 0.09272 0.0
H3027 H 0.41188 0.40136 0.15477 0.0
H3028 H 0.42824 0.40696 0.0059 0.0
H3029 H 0.40643 0.43089 0.04947 0.0
H3030 H 0.41515 0.42802 0.08072 0.0
H3031 H 0.40062 0.41701 0.07064 0.0
C3032 C 0.43803 0.41595 0.11248 0.0
C3033 C 0.43 0.41034 0.14089 0.0
C3034 C 0.43443 0.41724 0.07749 0.0
C3035 C 0.42271 0.41281 0.06995 0.0
C3036 C 0.41462 0.40694 0.09809 0.0
H3037 H 0.40312 0.41159 0.83592 0.0
H3038 H 0.40505 0.40532 0.89795 0.0
C3039 C 0.41826 0.40584 0.13344 0.0
C3040 C 0.41913 0.4144 0.03248 0.0
H3041 H 0.40518 0.42601 0.98625 0.0
C3042 C 0.42317 0.41111 0.00159 0.0
C3043 C 0.41259 0.41989 0.02685 0.0
C3044 C 0.40853 0.42426 0.05863 0.0
C3045 C 0.42118 0.41346 0.96535 0.0
C3046 C 0.41454 0.41885 0.9597 0.0
C3047 C 0.4102 0.42182 0.99056 0.0
C3048 C 0.41275 0.42231 0.92232 0.0
C3049 C 0.4267 0.41065 0.9337 0.0
C3050 C 0.41597 0.43384 0.91566 0.0
C3051 C 0.4146 0.43736 0.88062 0.0
C3052 C 0.4101 0.42945 0.85132 0.0
C3053 C 0.40674 0.41788 0.85794 0.0
C3054 C 0.40792 0.41431 0.8933 0.0
H3055 H 0.43393 0.40952 0.94327 0.0
H3056 H 0.42022 0.40248 0.92062 0.0
H3057 H 0.43001 0.41751 0.91234 0.0
H3058 H 0.4197 0.44018 0.93753 0.0
H3059 H 0.41727 0.44633 0.87632 0.0
loop_
_geom_bond_atom_site_label_1
_geom_bond_atom_site_label_2
_geom_bond_distance
_geom_bond_site_symmetry_2
_ccdc_geom_bond_type
In0 O1 2.294 . S
In0 O2 2.326 . S
In0 O6 2.266 . S
In0 O7 2.326 . S
In0 O8 2.266 . S
In0 O9 2.326 . S
In0 O11 2.294 . S
In0 O12 2.326 . S
O1 In0 2.294 . S
O1 C10 1.240 . S
O2 In0 2.326 . S
O2 C10 1.252 . S
C3 O6 1.252 . S
C3 O7 1.260 . S
C4 O11 1.240 . S
C4 O12 1.252 . S
C5 O8 1.252 . S
C5 O9 1.260 . S
O6 In0 2.266 . S
O6 C3 1.252 . S
O7 In0 2.326 . S
O7 C3 1.260 . S
O8 In0 2.266 . S
O8 C5 1.252 . S
O9 In0 2.326 . S
O9 C5 1.260 . S
C10 O1 1.240 . S
C10 O2 1.252 . S
O11 In0 2.294 . S
O11 C4 1.240 . S
O12 In0 2.326 . S
O12 C4 1.252 . S
In13 O14 2.294 . S
In13 O15 2.326 . S
In13 O19 2.266 . S
In13 O20 2.326 . S
In13 O21 2.266 . S
In13 O22 2.326 . S
In13 O24 2.294 . S
In13 O25 2.326 . S
O14 In13 2.294 . S
O14 C23 1.240 . S
O15 In13 2.326 . S
O15 C23 1.252 . S
C16 O19 1.252 . S
C16 O20 1.260 . S
C17 O24 1.240 . S
C17 O25 1.252 . S
C18 O21 1.252 . S
C18 O22 1.260 . S
O19 In13 2.266 . S
O19 C16 1.252 . S
O20 In13 2.326 . S
O20 C16 1.260 . S
O21 In13 2.266 . S
O21 C18 1.252 . S
O22 In13 2.326 . S
O22 C18 1.260 . S
C23 O14 1.240 . S
C23 O15 1.252 . S
O24 In13 2.294 . S
O24 C17 1.240 . S
O25 In13 2.326 . S
O25 C17 1.252 . S
In26 O27 2.294 . S
In26 O28 2.326 . S
In26 O32 2.266 . S
In26 O33 2.326 . S
In26 O34 2.266 . S
In26 O35 2.326 . S
In26 O37 2.294 . S
In26 O38 2.326 . S
O27 In26 2.294 . S
O27 C36 1.240 . S
O28 In26 2.326 . S
O28 C36 1.252 . S
C29 O32 1.252 . S
C29 O33 1.260 . S
C30 O37 1.240 . S
C30 O38 1.252 . S
C31 O34 1.252 . S
C31 O35 1.260 . S
O32 In26 2.266 . S
O32 C29 1.252 . S
O33 In26 2.326 . S
O33 C29 1.260 . S
O34 In26 2.266 . S
O34 C31 1.252 . S
O35 In26 2.326 . S
O35 C31 1.260 . S
C36 O27 1.240 . S
C36 O28 1.252 . S
O37 In26 2.294 . S
O37 C30 1.240 . S
O38 In26 2.326 . S
O38 C30 1.252 . S
In39 O40 2.294 . S
In39 O41 2.326 . S
In39 O45 2.266 . S
In39 O46 2.326 . S
In39 O47 2.266 . S
In39 O48 2.326 . S
In39 O50 2.294 . S
In39 O51 2.326 . S
O40 In39 2.294 . S
O40 C49 1.240 . S
O41 In39 2.326 . S
O41 C49 1.252 . S
C42 O45 1.252 . S
C42 O46 1.260 . S
C43 O50 1.240 . S
C43 O51 1.252 . S
C44 O47 1.252 . S
C44 O48 1.260 . S
O45 In39 2.266 . S
O45 C42 1.252 . S
O46 In39 2.326 . S
O46 C42 1.260 . S
O47 In39 2.266 . S
O47 C44 1.252 . S
O48 In39 2.326 . S
O48 C44 1.260 . S
C49 O40 1.240 . S
C49 O41 1.252 . S
O50 In39 2.294 . S
O50 C43 1.240 . S
O51 In39 2.326 . S
O51 C43 1.252 . S
In52 O53 2.294 . S
In52 O54 2.326 . S
In52 O58 2.266 . S
In52 O59 2.326 . S
In52 O60 2.266 . S
In52 O61 2.326 . S
In52 O63 2.294 . S
In52 O64 2.326 . S
O53 In52 2.294 . S
O53 C62 1.240 . S
O54 In52 2.326 . S
O54 C62 1.252 . S
C55 O58 1.252 . S
C55 O59 1.260 . S
C56 O63 1.240 . S
C56 O64 1.252 . S
C57 O60 1.252 . S
C57 O61 1.260 . S
O58 In52 2.266 . S
O58 C55 1.252 . S
O59 In52 2.326 . S
O59 C55 1.260 . S
O60 In52 2.266 . S
O60 C57 1.252 . S
O61 In52 2.326 . S
O61 C57 1.260 . S
C62 O53 1.240 . S
C62 O54 1.252 . S
O63 In52 2.294 . S
O63 C56 1.240 . S
O64 In52 2.326 . S
O64 C56 1.252 . S
In65 O66 2.294 . S
In65 O67 2.326 . S
In65 O71 2.266 . S
In65 O72 2.326 . S
In65 O73 2.266 . S
In65 O74 2.326 . S
In65 O76 2.294 . S
In65 O77 2.326 . S
O66 In65 2.294 . S
O66 C75 1.240 . S
O67 In65 2.326 . S
O67 C75 1.252 . S
C68 O71 1.252 . S
C68 O72 1.260 . S
C69 O76 1.240 . S
C69 O77 1.252 . S
C70 O73 1.252 . S
C70 O74 1.260 . S
O71 In65 2.266 . S
O71 C68 1.252 . S
O72 In65 2.326 . S
O72 C68 1.260 . S
O73 In65 2.266 . S
O73 C70 1.252 . S
O74 In65 2.326 . S
O74 C70 1.260 . S
C75 O66 1.240 . S
C75 O67 1.252 . S
O76 In65 2.294 . S
O76 C69 1.240 . S
O77 In65 2.326 . S
O77 C69 1.252 . S
In78 O79 2.294 . S
In78 O80 2.326 . S
In78 O84 2.266 . S
In78 O85 2.326 . S
In78 O86 2.266 . S
In78 O87 2.326 . S
In78 O89 2.294 . S
In78 O90 2.326 . S
O79 In78 2.294 . S
O79 C88 1.240 . S
O80 In78 2.326 . S
O80 C88 1.252 . S
C81 O84 1.252 . S
C81 O85 1.260 . S
C82 O89 1.240 . S
C82 O90 1.252 . S
C83 O86 1.252 . S
C83 O87 1.260 . S
O84 In78 2.266 . S
O84 C81 1.252 . S
O85 In78 2.326 . S
O85 C81 1.260 . S
O86 In78 2.266 . S
O86 C83 1.252 . S
O87 In78 2.326 . S
O87 C83 1.260 . S
C88 O79 1.240 . S
C88 O80 1.252 . S
O89 In78 2.294 . S
O89 C82 1.240 . S
O90 In78 2.326 . S
O90 C82 1.252 . S
In91 O92 2.294 . S
In91 O93 2.326 . S
In91 O97 2.266 . S
In91 O98 2.326 . S
In91 O99 2.266 . S
In91 O100 2.326 . S
In91 O102 2.294 . S
In91 O103 2.326 . S
O92 In91 2.294 . S
O92 C101 1.240 . S
O93 In91 2.326 . S
O93 C101 1.252 . S
C94 O97 1.252 . S
C94 O98 1.260 . S
C95 O102 1.240 . S
C95 O103 1.252 . S
C96 O99 1.252 . S
C96 O100 1.260 . S
O97 In91 2.266 . S
O97 C94 1.252 . S
O98 In91 2.326 . S
O98 C94 1.260 . S
O99 In91 2.266 . S
O99 C96 1.252 . S
O100 In91 2.326 . S
O100 C96 1.260 . S
C101 O92 1.240 . S
C101 O93 1.252 . S
O102 In91 2.294 . S
O102 C95 1.240 . S
O103 In91 2.326 . S
O103 C95 1.252 . S
In104 O105 2.294 . S
In104 O106 2.326 . S
In104 O110 2.266 . S
In104 O111 2.326 . S
In104 O112 2.266 . S
In104 O113 2.326 . S
In104 O115 2.294 . S
In104 O116 2.326 . S
O105 In104 2.294 . S
O105 C114 1.240 . S
O106 In104 2.326 . S
O106 C114 1.252 . S
C107 O110 1.252 . S
C107 O111 1.260 . S
C108 O115 1.240 . S
C108 O116 1.252 . S
C109 O112 1.252 . S
C109 O113 1.260 . S
O110 In104 2.266 . S
O110 C107 1.252 . S
O111 In104 2.326 . S
O111 C107 1.260 . S
O112 In104 2.266 . S
O112 C109 1.252 . S
O113 In104 2.326 . S
O113 C109 1.260 . S
C114 O105 1.240 . S
C114 O106 1.252 . S
O115 In104 2.294 . S
O115 C108 1.240 . S
O116 In104 2.326 . S
O116 C108 1.252 . S
In117 O118 2.294 . S
In117 O119 2.326 . S
In117 O123 2.266 . S
In117 O124 2.326 . S
In117 O125 2.266 . S
In117 O126 2.326 . S
In117 O128 2.294 . S
In117 O129 2.326 . S
O118 In117 2.294 . S
O118 C127 1.240 . S
O119 In117 2.326 . S
O119 C127 1.252 . S
C120 O123 1.252 . S
C120 O124 1.260 . S
C121 O128 1.240 . S
C121 O129 1.252 . S
C122 O125 1.252 . S
C122 O126 1.260 . S
O123 In117 2.266 . S
O123 C120 1.252 . S
O124 In117 2.326 . S
O124 C120 1.260 . S
O125 In117 2.266 . S
O125 C122 1.252 . S
O126 In117 2.326 . S
O126 C122 1.260 . S
C127 O118 1.240 . S
C127 O119 1.252 . S
O128 In117 2.294 . S
O128 C121 1.240 . S
O129 In117 2.326 . S
O129 C121 1.252 . S
In130 O131 2.294 . S
In130 O132 2.326 . S
In130 O136 2.266 . S
In130 O137 2.326 . S
In130 O138 2.266 . S
In130 O139 2.326 . S
In130 O141 2.294 . S
In130 O142 2.326 . S
O131 In130 2.294 . S
O131 C140 1.240 . S
O132 In130 2.326 . S
O132 C140 1.252 . S
C133 O136 1.252 . S
C133 O137 1.260 . S
C134 O141 1.240 . S
C134 O142 1.252 . S
C135 O138 1.252 . S
C135 O139 1.260 . S
O136 In130 2.266 . S
O136 C133 1.252 . S
O137 In130 2.326 . S
O137 C133 1.260 . S
O138 In130 2.266 . S
O138 C135 1.252 . S
O139 In130 2.326 . S
O139 C135 1.260 . S
C140 O131 1.240 . S
C140 O132 1.252 . S
O141 In130 2.294 . S
O141 C134 1.240 . S
O142 In130 2.326 . S
O142 C134 1.252 . S
In143 O144 2.294 . S
In143 O145 2.326 . S
In143 O149 2.266 . S
In143 O150 2.326 . S
In143 O151 2.266 . S
In143 O152 2.326 . S
In143 O154 2.294 . S
In143 O155 2.326 . S
O144 In143 2.294 . S
O144 C153 1.240 . S
O145 In143 2.326 . S
O145 C153 1.252 . S
C146 O149 1.252 . S
C146 O150 1.260 . S
C147 O154 1.240 . S
C147 O155 1.252 . S
C148 O151 1.252 . S
C148 O152 1.260 . S
O149 In143 2.266 . S
O149 C146 1.252 . S
O150 In143 2.326 . S
O150 C146 1.260 . S
O151 In143 2.266 . S
O151 C148 1.252 . S
O152 In143 2.326 . S
O152 C148 1.260 . S
C153 O144 1.240 . S
C153 O145 1.252 . S
O154 In143 2.294 . S
O154 C147 1.240 . S
O155 In143 2.326 . S
O155 C147 1.252 . S
In156 O157 2.294 . S
In156 O158 2.326 . S
In156 O162 2.266 . S
In156 O163 2.326 . S
In156 O164 2.266 . S
In156 O165 2.326 . S
In156 O167 2.294 . S
In156 O168 2.326 . S
O157 In156 2.294 . S
O157 C166 1.240 . S
O158 In156 2.326 . S
O158 C166 1.252 . S
C159 O162 1.252 . S
C159 O163 1.260 . S
C160 O167 1.240 . S
C160 O168 1.252 . S
C161 O164 1.252 . S
C161 O165 1.260 . S
O162 In156 2.266 . S
O162 C159 1.252 . S
O163 In156 2.326 . S
O163 C159 1.260 . S
O164 In156 2.266 . S
O164 C161 1.252 . S
O165 In156 2.326 . S
O165 C161 1.260 . S
C166 O157 1.240 . S
C166 O158 1.252 . S
O167 In156 2.294 . S
O167 C160 1.240 . S
O168 In156 2.326 . S
O168 C160 1.252 . S
In169 O170 2.294 . S
In169 O171 2.326 . S
In169 O175 2.266 . S
In169 O176 2.326 . S
In169 O177 2.266 . S
In169 O178 2.326 . S
In169 O180 2.294 . S
In169 O181 2.326 . S
O170 In169 2.294 . S
O170 C179 1.240 . S
O171 In169 2.326 . S
O171 C179 1.252 . S
C172 O175 1.252 . S
C172 O176 1.260 . S
C173 O180 1.240 . S
C173 O181 1.252 . S
C174 O177 1.252 . S
C174 O178 1.260 . S
O175 In169 2.266 . S
O175 C172 1.252 . S
O176 In169 2.326 . S
O176 C172 1.260 . S
O177 In169 2.266 . S
O177 C174 1.252 . S
O178 In169 2.326 . S
O178 C174 1.260 . S
C179 O170 1.240 . S
C179 O171 1.252 . S
O180 In169 2.294 . S
O180 C173 1.240 . S
O181 In169 2.326 . S
O181 C173 1.252 . S
In182 O183 2.294 . S
In182 O184 2.326 . S
In182 O188 2.266 . S
In182 O189 2.326 . S
In182 O190 2.266 . S
In182 O191 2.326 . S
In182 O193 2.294 . S
In182 O194 2.326 . S
O183 In182 2.294 . S
O183 C192 1.240 . S
O184 In182 2.326 . S
O184 C192 1.252 . S
C185 O188 1.252 . S
C185 O189 1.260 . S
C186 O193 1.240 . S
C186 O194 1.252 . S
C187 O190 1.252 . S
C187 O191 1.260 . S
O188 In182 2.266 . S
O188 C185 1.252 . S
O189 In182 2.326 . S
O189 C185 1.260 . S
O190 In182 2.266 . S
O190 C187 1.252 . S
O191 In182 2.326 . S
O191 C187 1.260 . S
C192 O183 1.240 . S
C192 O184 1.252 . S
O193 In182 2.294 . S
O193 C186 1.240 . S
O194 In182 2.326 . S
O194 C186 1.252 . S
In195 O196 2.294 . S
In195 O197 2.326 . S
In195 O201 2.266 . S
In195 O202 2.326 . S
In195 O203 2.266 . S
In195 O204 2.326 . S
In195 O206 2.294 . S
In195 O207 2.326 . S
O196 In195 2.294 . S
O196 C205 1.240 . S
O197 In195 2.326 . S
O197 C205 1.252 . S
C198 O201 1.252 . S
C198 O202 1.260 . S
C199 O206 1.240 . S
C199 O207 1.252 . S
C200 O203 1.252 . S
C200 O204 1.260 . S
O201 In195 2.266 . S
O201 C198 1.252 . S
O202 In195 2.326 . S
O202 C198 1.260 . S
O203 In195 2.266 . S
O203 C200 1.252 . S
O204 In195 2.326 . S
O204 C200 1.260 . S
C205 O196 1.240 . S
C205 O197 1.252 . S
O206 In195 2.294 . S
O206 C199 1.240 . S
O207 In195 2.326 . S
O207 C199 1.252 . S
In208 O209 2.294 . S
In208 O210 2.326 . S
In208 O214 2.266 . S
In208 O215 2.326 . S
In208 O216 2.266 . S
In208 O217 2.326 . S
In208 O219 2.294 . S
In208 O220 2.326 . S
O209 In208 2.294 . S
O209 C218 1.240 . S
O210 In208 2.326 . S
O210 C218 1.252 . S
C211 O214 1.252 . S
C211 O215 1.260 . S
C212 O219 1.240 . S
C212 O220 1.252 . S
C213 O216 1.252 . S
C213 O217 1.260 . S
O214 In208 2.266 . S
O214 C211 1.252 . S
O215 In208 2.326 . S
O215 C211 1.260 . S
O216 In208 2.266 . S
O216 C213 1.252 . S
O217 In208 2.326 . S
O217 C213 1.260 . S
C218 O209 1.240 . S
C218 O210 1.252 . S
O219 In208 2.294 . S
O219 C212 1.240 . S
O220 In208 2.326 . S
O220 C212 1.252 . S
In221 O222 2.294 . S
In221 O223 2.326 . S
In221 O227 2.266 . S
In221 O228 2.326 . S
In221 O229 2.266 . S
In221 O230 2.326 . S
In221 O232 2.294 . S
In221 O233 2.326 . S
O222 In221 2.294 . S
O222 C231 1.240 . S
O223 In221 2.326 . S
O223 C231 1.252 . S
C224 O227 1.252 . S
C224 O228 1.260 . S
C225 O232 1.240 . S
C225 O233 1.252 . S
C226 O229 1.252 . S
C226 O230 1.260 . S
O227 In221 2.266 . S
O227 C224 1.252 . S
O228 In221 2.326 . S
O228 C224 1.260 . S
O229 In221 2.266 . S
O229 C226 1.252 . S
O230 In221 2.326 . S
O230 C226 1.260 . S
C231 O222 1.240 . S
C231 O223 1.252 . S
O232 In221 2.294 . S
O232 C225 1.240 . S
O233 In221 2.326 . S
O233 C225 1.252 . S
In234 O235 2.294 . S
In234 O236 2.326 . S
In234 O240 2.266 . S
In234 O241 2.326 . S
In234 O242 2.266 . S
In234 O243 2.326 . S
In234 O245 2.294 . S
In234 O246 2.326 . S
O235 In234 2.294 . S
O235 C244 1.240 . S
O236 In234 2.326 . S
O236 C244 1.252 . S
C237 O240 1.252 . S
C237 O241 1.260 . S
C238 O245 1.240 . S
C238 O246 1.252 . S
C239 O242 1.252 . S
C239 O243 1.260 . S
O240 In234 2.266 . S
O240 C237 1.252 . S
O241 In234 2.326 . S
O241 C237 1.260 . S
O242 In234 2.266 . S
O242 C239 1.252 . S
O243 In234 2.326 . S
O243 C239 1.260 . S
C244 O235 1.240 . S
C244 O236 1.252 . S
O245 In234 2.294 . S
O245 C238 1.240 . S
O246 In234 2.326 . S
O246 C238 1.252 . S
In247 O248 2.294 . S
In247 O249 2.326 . S
In247 O253 2.266 . S
In247 O254 2.326 . S
In247 O255 2.266 . S
In247 O256 2.326 . S
In247 O258 2.294 . S
In247 O259 2.326 . S
O248 In247 2.294 . S
O248 C257 1.240 . S
O249 In247 2.326 . S
O249 C257 1.252 . S
C250 O253 1.252 . S
C250 O254 1.260 . S
C251 O258 1.240 . S
C251 O259 1.252 . S
C252 O255 1.252 . S
C252 O256 1.260 . S
O253 In247 2.266 . S
O253 C250 1.252 . S
O254 In247 2.326 . S
O254 C250 1.260 . S
O255 In247 2.266 . S
O255 C252 1.252 . S
O256 In247 2.326 . S
O256 C252 1.260 . S
C257 O248 1.240 . S
C257 O249 1.252 . S
O258 In247 2.294 . S
O258 C251 1.240 . S
O259 In247 2.326 . S
O259 C251 1.252 . S
In260 O261 2.294 . S
In260 O262 2.326 . S
In260 O266 2.266 . S
In260 O267 2.326 . S
In260 O268 2.266 . S
In260 O269 2.326 . S
In260 O271 2.294 . S
In260 O272 2.326 . S
O261 In260 2.294 . S
O261 C270 1.240 . S
O262 In260 2.326 . S
O262 C270 1.252 . S
C263 O266 1.252 . S
C263 O267 1.260 . S
C264 O271 1.240 . S
C264 O272 1.252 . S
C265 O268 1.252 . S
C265 O269 1.260 . S
O266 In260 2.266 . S
O266 C263 1.252 . S
O267 In260 2.326 . S
O267 C263 1.260 . S
O268 In260 2.266 . S
O268 C265 1.252 . S
O269 In260 2.326 . S
O269 C265 1.260 . S
C270 O261 1.240 . S
C270 O262 1.252 . S
O271 In260 2.294 . S
O271 C264 1.240 . S
O272 In260 2.326 . S
O272 C264 1.252 . S
In273 O274 2.294 . S
In273 O275 2.326 . S
In273 O279 2.266 . S
In273 O280 2.326 . S
In273 O281 2.266 . S
In273 O282 2.326 . S
In273 O284 2.294 . S
In273 O285 2.326 . S
O274 In273 2.294 . S
O274 C283 1.240 . S
O275 In273 2.326 . S
O275 C283 1.252 . S
C276 O279 1.252 . S
C276 O280 1.260 . S
C277 O284 1.240 . S
C277 O285 1.252 . S
C278 O281 1.252 . S
C278 O282 1.260 . S
O279 In273 2.266 . S
O279 C276 1.252 . S
O280 In273 2.326 . S
O280 C276 1.260 . S
O281 In273 2.266 . S
O281 C278 1.252 . S
O282 In273 2.326 . S
O282 C278 1.260 . S
C283 O274 1.240 . S
C283 O275 1.252 . S
O284 In273 2.294 . S
O284 C277 1.240 . S
O285 In273 2.326 . S
O285 C277 1.252 . S
In286 O287 2.294 . S
In286 O288 2.326 . S
In286 O292 2.266 . S
In286 O293 2.326 . S
In286 O294 2.266 . S
In286 O295 2.326 . S
In286 O297 2.294 . S
In286 O298 2.326 . S
O287 In286 2.294 . S
O287 C296 1.240 . S
O288 In286 2.326 . S
O288 C296 1.252 . S
C289 O292 1.252 . S
C289 O293 1.260 . S
C290 O297 1.240 . S
C290 O298 1.252 . S
C291 O294 1.252 . S
C291 O295 1.260 . S
O292 In286 2.266 . S
O292 C289 1.252 . S
O293 In286 2.326 . S
O293 C289 1.260 . S
O294 In286 2.266 . S
O294 C291 1.252 . S
O295 In286 2.326 . S
O295 C291 1.260 . S
C296 O287 1.240 . S
C296 O288 1.252 . S
O297 In286 2.294 . S
O297 C290 1.240 . S
O298 In286 2.326 . S
O298 C290 1.252 . S
In299 O300 2.294 . S
In299 O301 2.326 . S
In299 O305 2.266 . S
In299 O306 2.326 . S
In299 O307 2.266 . S
In299 O308 2.326 . S
In299 O310 2.294 . S
In299 O311 2.326 . S
O300 In299 2.294 . S
O300 C309 1.240 . S
O301 In299 2.326 . S
O301 C309 1.252 . S
C302 O305 1.252 . S
C302 O306 1.260 . S
C303 O310 1.240 . S
C303 O311 1.252 . S
C304 O307 1.252 . S
C304 O308 1.260 . S
O305 In299 2.266 . S
O305 C302 1.252 . S
O306 In299 2.326 . S
O306 C302 1.260 . S
O307 In299 2.266 . S
O307 C304 1.252 . S
O308 In299 2.326 . S
O308 C304 1.260 . S
C309 O300 1.240 . S
C309 O301 1.252 . S
O310 In299 2.294 . S
O310 C303 1.240 . S
O311 In299 2.326 . S
O311 C303 1.252 . S
In312 O313 2.294 . S
In312 O314 2.326 . S
In312 O318 2.266 . S
In312 O319 2.326 . S
In312 O320 2.266 . S
In312 O321 2.326 . S
In312 O323 2.294 . S
In312 O324 2.326 . S
O313 In312 2.294 . S
O313 C322 1.240 . S
O314 In312 2.326 . S
O314 C322 1.252 . S
C315 O318 1.252 . S
C315 O319 1.260 . S
C316 O323 1.240 . S
C316 O324 1.252 . S
C317 O320 1.252 . S
C317 O321 1.260 . S
O318 In312 2.266 . S
O318 C315 1.252 . S
O319 In312 2.326 . S
O319 C315 1.260 . S
O320 In312 2.266 . S
O320 C317 1.252 . S
O321 In312 2.326 . S
O321 C317 1.260 . S
C322 O313 1.240 . S
C322 O314 1.252 . S
O323 In312 2.294 . S
O323 C316 1.240 . S
O324 In312 2.326 . S
O324 C316 1.252 . S
In325 O326 2.294 . S
In325 O327 2.326 . S
In325 O331 2.266 . S
In325 O332 2.326 . S
In325 O333 2.266 . S
In325 O334 2.326 . S
In325 O336 2.294 . S
In325 O337 2.326 . S
O326 In325 2.294 . S
O326 C335 1.240 . S
O327 In325 2.326 . S
O327 C335 1.252 . S
C328 O331 1.252 . S
C328 O332 1.260 . S
C329 O336 1.240 . S
C329 O337 1.252 . S
C330 O333 1.252 . S
C330 O334 1.260 . S
O331 In325 2.266 . S
O331 C328 1.252 . S
O332 In325 2.326 . S
O332 C328 1.260 . S
O333 In325 2.266 . S
O333 C330 1.252 . S
O334 In325 2.326 . S
O334 C330 1.260 . S
C335 O326 1.240 . S
C335 O327 1.252 . S
O336 In325 2.294 . S
O336 C329 1.240 . S
O337 In325 2.326 . S
O337 C329 1.252 . S
In338 O339 2.294 . S
In338 O340 2.326 . S
In338 O344 2.266 . S
In338 O345 2.326 . S
In338 O346 2.266 . S
In338 O347 2.326 . S
In338 O349 2.294 . S
In338 O350 2.326 . S
O339 In338 2.294 . S
O339 C348 1.240 . S
O340 In338 2.326 . S
O340 C348 1.252 . S
C341 O344 1.252 . S
C341 O345 1.260 . S
C342 O349 1.240 . S
C342 O350 1.252 . S
C343 O346 1.252 . S
C343 O347 1.260 . S
O344 In338 2.266 . S
O344 C341 1.252 . S
O345 In338 2.326 . S
O345 C341 1.260 . S
O346 In338 2.266 . S
O346 C343 1.252 . S
O347 In338 2.326 . S
O347 C343 1.260 . S
C348 O339 1.240 . S
C348 O340 1.252 . S
O349 In338 2.294 . S
O349 C342 1.240 . S
O350 In338 2.326 . S
O350 C342 1.252 . S
In351 O352 2.294 . S
In351 O353 2.326 . S
In351 O357 2.266 . S
In351 O358 2.326 . S
In351 O359 2.266 . S
In351 O360 2.326 . S
In351 O362 2.294 . S
In351 O363 2.326 . S
O352 In351 2.294 . S
O352 C361 1.240 . S
O353 In351 2.326 . S
O353 C361 1.252 . S
C354 O357 1.252 . S
C354 O358 1.260 . S
C355 O362 1.240 . S
C355 O363 1.252 . S
C356 O359 1.252 . S
C356 O360 1.260 . S
O357 In351 2.266 . S
O357 C354 1.252 . S
O358 In351 2.326 . S
O358 C354 1.260 . S
O359 In351 2.266 . S
O359 C356 1.252 . S
O360 In351 2.326 . S
O360 C356 1.260 . S
C361 O352 1.240 . S
C361 O353 1.252 . S
O362 In351 2.294 . S
O362 C355 1.240 . S
O363 In351 2.326 . S
O363 C355 1.252 . S
In364 O365 2.294 . S
In364 O366 2.326 . S
In364 O370 2.266 . S
In364 O371 2.326 . S
In364 O372 2.266 . S
In364 O373 2.326 . S
In364 O375 2.294 . S
In364 O376 2.326 . S
O365 In364 2.294 . S
O365 C374 1.240 . S
O366 In364 2.326 . S
O366 C374 1.252 . S
C367 O370 1.252 . S
C367 O371 1.260 . S
C368 O375 1.240 . S
C368 O376 1.252 . S
C369 O372 1.252 . S
C369 O373 1.260 . S
O370 In364 2.266 . S
O370 C367 1.252 . S
O371 In364 2.326 . S
O371 C367 1.260 . S
O372 In364 2.266 . S
O372 C369 1.252 . S
O373 In364 2.326 . S
O373 C369 1.260 . S
C374 O365 1.240 . S
C374 O366 1.252 . S
O375 In364 2.294 . S
O375 C368 1.240 . S
O376 In364 2.326 . S
O376 C368 1.252 . S
In377 O378 2.294 . S
In377 O379 2.326 . S
In377 O383 2.266 . S
In377 O384 2.326 . S
In377 O385 2.266 . S
In377 O386 2.326 . S
In377 O388 2.294 . S
In377 O389 2.326 . S
O378 In377 2.294 . S
O378 C387 1.240 . S
O379 In377 2.326 . S
O379 C387 1.252 . S
C380 O383 1.252 . S
C380 O384 1.260 . S
C381 O388 1.240 . S
C381 O389 1.252 . S
C382 O385 1.252 . S
C382 O386 1.260 . S
O383 In377 2.266 . S
O383 C380 1.252 . S
O384 In377 2.326 . S
O384 C380 1.260 . S
O385 In377 2.266 . S
O385 C382 1.252 . S
O386 In377 2.326 . S
O386 C382 1.260 . S
C387 O378 1.240 . S
C387 O379 1.252 . S
O388 In377 2.294 . S
O388 C381 1.240 . S
O389 In377 2.326 . S
O389 C381 1.252 . S
In390 O391 2.294 . S
In390 O392 2.326 . S
In390 O396 2.266 . S
In390 O397 2.326 . S
In390 O398 2.266 . S
In390 O399 2.326 . S
In390 O401 2.294 . S
In390 O402 2.326 . S
O391 In390 2.294 . S
O391 C400 1.240 . S
O392 In390 2.326 . S
O392 C400 1.252 . S
C393 O396 1.252 . S
C393 O397 1.260 . S
C394 O401 1.240 . S
C394 O402 1.252 . S
C395 O398 1.252 . S
C395 O399 1.260 . S
O396 In390 2.266 . S
O396 C393 1.252 . S
O397 In390 2.326 . S
O397 C393 1.260 . S
O398 In390 2.266 . S
O398 C395 1.252 . S
O399 In390 2.326 . S
O399 C395 1.260 . S
C400 O391 1.240 . S
C400 O392 1.252 . S
O401 In390 2.294 . S
O401 C394 1.240 . S
O402 In390 2.326 . S
O402 C394 1.252 . S
In403 O404 2.294 . S
In403 O405 2.326 . S
In403 O409 2.266 . S
In403 O410 2.326 . S
In403 O411 2.266 . S
In403 O412 2.326 . S
In403 O414 2.294 . S
In403 O415 2.326 . S
O404 In403 2.294 . S
O404 C413 1.240 . S
O405 In403 2.326 . S
O405 C413 1.252 . S
C406 O409 1.252 . S
C406 O410 1.260 . S
C407 O414 1.240 . S
C407 O415 1.252 . S
C408 O411 1.252 . S
C408 O412 1.260 . S
O409 In403 2.266 . S
O409 C406 1.252 . S
O410 In403 2.326 . S
O410 C406 1.260 . S
O411 In403 2.266 . S
O411 C408 1.252 . S
O412 In403 2.326 . S
O412 C408 1.260 . S
C413 O404 1.240 . S
C413 O405 1.252 . S
O414 In403 2.294 . S
O414 C407 1.240 . S
O415 In403 2.326 . S
O415 C407 1.252 . S
In416 O417 2.294 . S
In416 O418 2.326 . S
In416 O422 2.266 . S
In416 O423 2.326 . S
In416 O424 2.266 . S
In416 O425 2.326 . S
In416 O427 2.294 . S
In416 O428 2.326 . S
O417 In416 2.294 . S
O417 C426 1.240 . S
O418 In416 2.326 . S
O418 C426 1.252 . S
C419 O422 1.252 . S
C419 O423 1.260 . S
C420 O427 1.240 . S
C420 O428 1.252 . S
C421 O424 1.252 . S
C421 O425 1.260 . S
O422 In416 2.266 . S
O422 C419 1.252 . S
O423 In416 2.326 . S
O423 C419 1.260 . S
O424 In416 2.266 . S
O424 C421 1.252 . S
O425 In416 2.326 . S
O425 C421 1.260 . S
C426 O417 1.240 . S
C426 O418 1.252 . S
O427 In416 2.294 . S
O427 C420 1.240 . S
O428 In416 2.326 . S
O428 C420 1.252 . S
In429 O430 2.294 . S
In429 O431 2.326 . S
In429 O435 2.266 . S
In429 O436 2.326 . S
In429 O437 2.266 . S
In429 O438 2.326 . S
In429 O440 2.294 . S
In429 O441 2.326 . S
O430 In429 2.294 . S
O430 C439 1.240 . S
O431 In429 2.326 . S
O431 C439 1.252 . S
C432 O435 1.252 . S
C432 O436 1.260 . S
C433 O440 1.240 . S
C433 O441 1.252 . S
C434 O437 1.252 . S
C434 O438 1.260 . S
O435 In429 2.266 . S
O435 C432 1.252 . S
O436 In429 2.326 . S
O436 C432 1.260 . S
O437 In429 2.266 . S
O437 C434 1.252 . S
O438 In429 2.326 . S
O438 C434 1.260 . S
C439 O430 1.240 . S
C439 O431 1.252 . S
O440 In429 2.294 . S
O440 C433 1.240 . S
O441 In429 2.326 . S
O441 C433 1.252 . S
In442 O443 2.294 . S
In442 O444 2.326 . S
In442 O448 2.266 . S
In442 O449 2.326 . S
In442 O450 2.266 . S
In442 O451 2.326 . S
In442 O453 2.294 . S
In442 O454 2.326 . S
O443 In442 2.294 . S
O443 C452 1.240 . S
O444 In442 2.326 . S
O444 C452 1.252 . S
C445 O448 1.252 . S
C445 O449 1.260 . S
C446 O453 1.240 . S
C446 O454 1.252 . S
C447 O450 1.252 . S
C447 O451 1.260 . S
O448 In442 2.266 . S
O448 C445 1.252 . S
O449 In442 2.326 . S
O449 C445 1.260 . S
O450 In442 2.266 . S
O450 C447 1.252 . S
O451 In442 2.326 . S
O451 C447 1.260 . S
C452 O443 1.240 . S
C452 O444 1.252 . S
O453 In442 2.294 . S
O453 C446 1.240 . S
O454 In442 2.326 . S
O454 C446 1.252 . S
In455 O456 2.294 . S
In455 O457 2.326 . S
In455 O461 2.266 . S
In455 O462 2.326 . S
In455 O463 2.266 . S
In455 O464 2.326 . S
In455 O466 2.294 . S
In455 O467 2.326 . S
O456 In455 2.294 . S
O456 C465 1.240 . S
O457 In455 2.326 . S
O457 C465 1.252 . S
C458 O461 1.252 . S
C458 O462 1.260 . S
C459 O466 1.240 . S
C459 O467 1.252 . S
C460 O463 1.252 . S
C460 O464 1.260 . S
O461 In455 2.266 . S
O461 C458 1.252 . S
O462 In455 2.326 . S
O462 C458 1.260 . S
O463 In455 2.266 . S
O463 C460 1.252 . S
O464 In455 2.326 . S
O464 C460 1.260 . S
C465 O456 1.240 . S
C465 O457 1.252 . S
O466 In455 2.294 . S
O466 C459 1.240 . S
O467 In455 2.326 . S
O467 C459 1.252 . S
H468 C476 0.929 . S
H469 C478 0.930 . S
H470 C480 0.930 . S
H471 C483 0.929 . S
H472 C486 0.930 . S
H473 C488 0.960 . S
H474 C488 0.960 . S
H475 C488 0.960 . S
C476 H468 0.929 . S
C476 C477 1.377 . S
C476 C478 1.384 . S
C477 C476 1.377 . S
C477 C483 1.390 . S
C478 H469 0.930 . S
C478 C476 1.384 . S
C478 C479 1.372 . S
C479 C478 1.372 . S
C479 C480 1.400 . S
C479 C484 1.490 . S
C480 H470 0.930 . S
C480 C479 1.400 . S
C480 C483 1.386 . S
H481 C497 0.930 . S
H482 C498 0.931 . S
C483 H471 0.929 . S
C483 C477 1.390 . S
C483 C480 1.386 . S
C484 C479 1.490 . S
C484 C486 1.395 . S
C484 C487 1.403 . S
H485 C491 0.930 . S
C486 H472 0.930 . S
C486 C484 1.395 . S
C486 C489 1.403 . S
C487 C484 1.403 . S
C487 C488 1.524 . S
C487 C491 1.400 . S
C488 H473 0.960 . S
C488 H474 0.960 . S
C488 H475 0.960 . S
C488 C487 1.524 . S
C489 C486 1.403 . S
C489 C490 1.392 . S
C489 C493 1.495 . S
C490 C489 1.392 . S
C490 C491 1.385 . S
C490 C492 1.478 . S
C491 H485 0.930 . S
C491 C487 1.400 . S
C491 C490 1.385 . S
C492 C490 1.478 . S
C492 C494 1.381 . S
C492 C498 1.383 . S
C493 C489 1.495 . S
C493 H499 0.959 . S
C493 H500 0.961 . S
C493 H501 0.960 . S
C494 C492 1.381 . S
C494 C495 1.394 . S
C494 H502 0.930 . S
C495 C494 1.394 . S
C495 C496 1.383 . S
C495 H503 0.929 . S
C496 C495 1.383 . S
C496 C497 1.377 . S
C497 H481 0.930 . S
C497 C496 1.377 . S
C497 C498 1.379 . S
C498 H482 0.931 . S
C498 C492 1.383 . S
C498 C497 1.379 . S
H499 C493 0.959 . S
H500 C493 0.961 . S
H501 C493 0.960 . S
H502 C494 0.930 . S
H503 C495 0.929 . S
H504 C512 0.929 . S
H505 C514 0.930 . S
H506 C516 0.930 . S
H507 C519 0.929 . S
H508 C522 0.930 . S
H509 C524 0.960 . S
H510 C524 0.960 . S
H511 C524 0.960 . S
C512 H504 0.929 . S
C512 C513 1.377 . S
C512 C514 1.384 . S
C513 C512 1.377 . S
C513 C519 1.390 . S
C514 H505 0.930 . S
C514 C512 1.384 . S
C514 C515 1.372 . S
C515 C514 1.372 . S
C515 C516 1.400 . S
C515 C520 1.490 . S
C516 H506 0.930 . S
C516 C515 1.400 . S
C516 C519 1.386 . S
H517 C533 0.930 . S
H518 C534 0.931 . S
C519 H507 0.929 . S
C519 C513 1.390 . S
C519 C516 1.386 . S
C520 C515 1.490 . S
C520 C522 1.395 . S
C520 C523 1.403 . S
H521 C527 0.930 . S
C522 H508 0.930 . S
C522 C520 1.395 . S
C522 C525 1.403 . S
C523 C520 1.403 . S
C523 C524 1.524 . S
C523 C527 1.400 . S
C524 H509 0.960 . S
C524 H510 0.960 . S
C524 H511 0.960 . S
C524 C523 1.524 . S
C525 C522 1.403 . S
C525 C526 1.392 . S
C525 C529 1.495 . S
C526 C525 1.392 . S
C526 C527 1.385 . S
C526 C528 1.478 . S
C527 H521 0.930 . S
C527 C523 1.400 . S
C527 C526 1.385 . S
C528 C526 1.478 . S
C528 C530 1.381 . S
C528 C534 1.383 . S
C529 C525 1.495 . S
C529 H535 0.959 . S
C529 H536 0.961 . S
C529 H537 0.960 . S
C530 C528 1.381 . S
C530 C531 1.394 . S
C530 H538 0.930 . S
C531 C530 1.394 . S
C531 C532 1.383 . S
C531 H539 0.929 . S
C532 C531 1.383 . S
C532 C533 1.377 . S
C533 H517 0.930 . S
C533 C532 1.377 . S
C533 C534 1.379 . S
C534 H518 0.931 . S
C534 C528 1.383 . S
C534 C533 1.379 . S
H535 C529 0.959 . S
H536 C529 0.961 . S
H537 C529 0.960 . S
H538 C530 0.930 . S
H539 C531 0.929 . S
H540 C548 0.929 . S
H541 C550 0.930 . S
H542 C552 0.930 . S
H543 C555 0.929 . S
H544 C558 0.930 . S
H545 C560 0.960 . S
H546 C560 0.960 . S
H547 C560 0.960 . S
C548 H540 0.929 . S
C548 C549 1.377 . S
C548 C550 1.384 . S
C549 C548 1.377 . S
C549 C555 1.390 . S
C550 H541 0.930 . S
C550 C548 1.384 . S
C550 C551 1.372 . S
C551 C550 1.372 . S
C551 C552 1.400 . S
C551 C556 1.490 . S
C552 H542 0.930 . S
C552 C551 1.400 . S
C552 C555 1.386 . S
H553 C569 0.930 . S
H554 C570 0.931 . S
C555 H543 0.929 . S
C555 C549 1.390 . S
C555 C552 1.386 . S
C556 C551 1.490 . S
C556 C558 1.395 . S
C556 C559 1.403 . S
H557 C563 0.930 . S
C558 H544 0.930 . S
C558 C556 1.395 . S
C558 C561 1.403 . S
C559 C556 1.403 . S
C559 C560 1.524 . S
C559 C563 1.400 . S
C560 H545 0.960 . S
C560 H546 0.960 . S
C560 H547 0.960 . S
C560 C559 1.524 . S
C561 C558 1.403 . S
C561 C562 1.392 . S
C561 C565 1.495 . S
C562 C561 1.392 . S
C562 C563 1.385 . S
C562 C564 1.478 . S
C563 H557 0.930 . S
C563 C559 1.400 . S
C563 C562 1.385 . S
C564 C562 1.478 . S
C564 C566 1.381 . S
C564 C570 1.383 . S
C565 C561 1.495 . S
C565 H571 0.959 . S
C565 H572 0.961 . S
C565 H573 0.960 . S
C566 C564 1.381 . S
C566 C567 1.394 . S
C566 H574 0.930 . S
C567 C566 1.394 . S
C567 C568 1.383 . S
C567 H575 0.929 . S
C568 C567 1.383 . S
C568 C569 1.377 . S
C569 H553 0.930 . S
C569 C568 1.377 . S
C569 C570 1.379 . S
C570 H554 0.931 . S
C570 C564 1.383 . S
C570 C569 1.379 . S
H571 C565 0.959 . S
H572 C565 0.961 . S
H573 C565 0.960 . S
H574 C566 0.930 . S
H575 C567 0.929 . S
H576 C584 0.929 . S
H577 C586 0.930 . S
H578 C588 0.930 . S
H579 C591 0.929 . S
H580 C594 0.930 . S
H581 C596 0.960 . S
H582 C596 0.960 . S
H583 C596 0.960 . S
C584 H576 0.929 . S
C584 C585 1.377 . S
C584 C586 1.384 . S
C585 C584 1.377 . S
C585 C591 1.390 . S
C586 H577 0.930 . S
C586 C584 1.384 . S
C586 C587 1.372 . S
C587 C586 1.372 . S
C587 C588 1.400 . S
C587 C592 1.490 . S
C588 H578 0.930 . S
C588 C587 1.400 . S
C588 C591 1.386 . S
H589 C605 0.930 . S
H590 C606 0.931 . S
C591 H579 0.929 . S
C591 C585 1.390 . S
C591 C588 1.386 . S
C592 C587 1.490 . S
C592 C594 1.395 . S
C592 C595 1.403 . S
H593 C599 0.930 . S
C594 H580 0.930 . S
C594 C592 1.395 . S
C594 C597 1.403 . S
C595 C592 1.403 . S
C595 C596 1.524 . S
C595 C599 1.400 . S
C596 H581 0.960 . S
C596 H582 0.960 . S
C596 H583 0.960 . S
C596 C595 1.524 . S
C597 C594 1.403 . S
C597 C598 1.392 . S
C597 C601 1.495 . S
C598 C597 1.392 . S
C598 C599 1.385 . S
C598 C600 1.478 . S
C599 H593 0.930 . S
C599 C595 1.400 . S
C599 C598 1.385 . S
C600 C598 1.478 . S
C600 C602 1.381 . S
C600 C606 1.383 . S
C601 C597 1.495 . S
C601 H607 0.959 . S
C601 H608 0.961 . S
C601 H609 0.960 . S
C602 C600 1.381 . S
C602 C603 1.394 . S
C602 H610 0.930 . S
C603 C602 1.394 . S
C603 C604 1.383 . S
C603 H611 0.929 . S
C604 C603 1.383 . S
C604 C605 1.377 . S
C605 H589 0.930 . S
C605 C604 1.377 . S
C605 C606 1.379 . S
C606 H590 0.931 . S
C606 C600 1.383 . S
C606 C605 1.379 . S
H607 C601 0.959 . S
H608 C601 0.961 . S
H609 C601 0.960 . S
H610 C602 0.930 . S
H611 C603 0.929 . S
H612 C620 0.929 . S
H613 C622 0.930 . S
H614 C624 0.930 . S
H615 C627 0.929 . S
H616 C630 0.930 . S
H617 C632 0.960 . S
H618 C632 0.960 . S
H619 C632 0.960 . S
C620 H612 0.929 . S
C620 C621 1.377 . S
C620 C622 1.384 . S
C621 C620 1.377 . S
C621 C627 1.390 . S
C622 H613 0.930 . S
C622 C620 1.384 . S
C622 C623 1.372 . S
C623 C622 1.372 . S
C623 C624 1.400 . S
C623 C628 1.490 . S
C624 H614 0.930 . S
C624 C623 1.400 . S
C624 C627 1.386 . S
H625 C641 0.930 . S
H626 C642 0.931 . S
C627 H615 0.929 . S
C627 C621 1.390 . S
C627 C624 1.386 . S
C628 C623 1.490 . S
C628 C630 1.395 . S
C628 C631 1.403 . S
H629 C635 0.930 . S
C630 H616 0.930 . S
C630 C628 1.395 . S
C630 C633 1.403 . S
C631 C628 1.403 . S
C631 C632 1.524 . S
C631 C635 1.400 . S
C632 H617 0.960 . S
C632 H618 0.960 . S
C632 H619 0.960 . S
C632 C631 1.524 . S
C633 C630 1.403 . S
C633 C634 1.392 . S
C633 C637 1.495 . S
C634 C633 1.392 . S
C634 C635 1.385 . S
C634 C636 1.478 . S
C635 H629 0.930 . S
C635 C631 1.400 . S
C635 C634 1.385 . S
C636 C634 1.478 . S
C636 C638 1.381 . S
C636 C642 1.383 . S
C637 C633 1.495 . S
C637 H643 0.959 . S
C637 H644 0.961 . S
C637 H645 0.960 . S
C638 C636 1.381 . S
C638 C639 1.394 . S
C638 H646 0.930 . S
C639 C638 1.394 . S
C639 C640 1.383 . S
C639 H647 0.929 . S
C640 C639 1.383 . S
C640 C641 1.377 . S
C641 H625 0.930 . S
C641 C640 1.377 . S
C641 C642 1.379 . S
C642 H626 0.931 . S
C642 C636 1.383 . S
C642 C641 1.379 . S
H643 C637 0.959 . S
H644 C637 0.961 . S
H645 C637 0.960 . S
H646 C638 0.930 . S
H647 C639 0.929 . S
H648 C656 0.929 . S
H649 C658 0.930 . S
H650 C660 0.930 . S
H651 C663 0.929 . S
H652 C666 0.930 . S
H653 C668 0.960 . S
H654 C668 0.960 . S
H655 C668 0.960 . S
C656 H648 0.929 . S
C656 C657 1.377 . S
C656 C658 1.384 . S
C657 C656 1.377 . S
C657 C663 1.390 . S
C658 H649 0.930 . S
C658 C656 1.384 . S
C658 C659 1.372 . S
C659 C658 1.372 . S
C659 C660 1.400 . S
C659 C664 1.490 . S
C660 H650 0.930 . S
C660 C659 1.400 . S
C660 C663 1.386 . S
H661 C677 0.930 . S
H662 C678 0.931 . S
C663 H651 0.929 . S
C663 C657 1.390 . S
C663 C660 1.386 . S
C664 C659 1.490 . S
C664 C666 1.395 . S
C664 C667 1.403 . S
H665 C671 0.930 . S
C666 H652 0.930 . S
C666 C664 1.395 . S
C666 C669 1.403 . S
C667 C664 1.403 . S
C667 C668 1.524 . S
C667 C671 1.400 . S
C668 H653 0.960 . S
C668 H654 0.960 . S
C668 H655 0.960 . S
C668 C667 1.524 . S
C669 C666 1.403 . S
C669 C670 1.392 . S
C669 C673 1.495 . S
C670 C669 1.392 . S
C670 C671 1.385 . S
C670 C672 1.478 . S
C671 H665 0.930 . S
C671 C667 1.400 . S
C671 C670 1.385 . S
C672 C670 1.478 . S
C672 C674 1.381 . S
C672 C678 1.383 . S
C673 C669 1.495 . S
C673 H679 0.959 . S
C673 H680 0.961 . S
C673 H681 0.960 . S
C674 C672 1.381 . S
C674 C675 1.394 . S
C674 H682 0.930 . S
C675 C674 1.394 . S
C675 C676 1.383 . S
C675 H683 0.929 . S
C676 C675 1.383 . S
C676 C677 1.377 . S
C677 H661 0.930 . S
C677 C676 1.377 . S
C677 C678 1.379 . S
C678 H662 0.931 . S
C678 C672 1.383 . S
C678 C677 1.379 . S
H679 C673 0.959 . S
H680 C673 0.961 . S
H681 C673 0.960 . S
H682 C674 0.930 . S
H683 C675 0.929 . S
H684 C692 0.929 . S
H685 C694 0.930 . S
H686 C696 0.930 . S
H687 C699 0.929 . S
H688 C702 0.930 . S
H689 C704 0.960 . S
H690 C704 0.960 . S
H691 C704 0.960 . S
C692 H684 0.929 . S
C692 C693 1.377 . S
C692 C694 1.384 . S
C693 C692 1.377 . S
C693 C699 1.390 . S
C694 H685 0.930 . S
C694 C692 1.384 . S
C694 C695 1.372 . S
C695 C694 1.372 . S
C695 C696 1.400 . S
C695 C700 1.490 . S
C696 H686 0.930 . S
C696 C695 1.400 . S
C696 C699 1.386 . S
H697 C713 0.930 . S
H698 C714 0.931 . S
C699 H687 0.929 . S
C699 C693 1.390 . S
C699 C696 1.386 . S
C700 C695 1.490 . S
C700 C702 1.395 . S
C700 C703 1.403 . S
H701 C707 0.930 . S
C702 H688 0.930 . S
C702 C700 1.395 . S
C702 C705 1.403 . S
C703 C700 1.403 . S
C703 C704 1.524 . S
C703 C707 1.400 . S
C704 H689 0.960 . S
C704 H690 0.960 . S
C704 H691 0.960 . S
C704 C703 1.524 . S
C705 C702 1.403 . S
C705 C706 1.392 . S
C705 C709 1.495 . S
C706 C705 1.392 . S
C706 C707 1.385 . S
C706 C708 1.478 . S
C707 H701 0.930 . S
C707 C703 1.400 . S
C707 C706 1.385 . S
C708 C706 1.478 . S
C708 C710 1.381 . S
C708 C714 1.383 . S
C709 C705 1.495 . S
C709 H715 0.959 . S
C709 H716 0.961 . S
C709 H717 0.960 . S
C710 C708 1.381 . S
C710 C711 1.394 . S
C710 H718 0.930 . S
C711 C710 1.394 . S
C711 C712 1.383 . S
C711 H719 0.929 . S
C712 C711 1.383 . S
C712 C713 1.377 . S
C713 H697 0.930 . S
C713 C712 1.377 . S
C713 C714 1.379 . S
C714 H698 0.931 . S
C714 C708 1.383 . S
C714 C713 1.379 . S
H715 C709 0.959 . S
H716 C709 0.961 . S
H717 C709 0.960 . S
H718 C710 0.930 . S
H719 C711 0.929 . S
H720 C728 0.929 . S
H721 C730 0.930 . S
H722 C732 0.930 . S
H723 C735 0.929 . S
H724 C738 0.930 . S
H725 C740 0.960 . S
H726 C740 0.960 . S
H727 C740 0.960 . S
C728 H720 0.929 . S
C728 C729 1.377 . S
C728 C730 1.384 . S
C729 C728 1.377 . S
C729 C735 1.390 . S
C730 H721 0.930 . S
C730 C728 1.384 . S
C730 C731 1.372 . S
C731 C730 1.372 . S
C731 C732 1.400 . S
C731 C736 1.490 . S
C732 H722 0.930 . S
C732 C731 1.400 . S
C732 C735 1.386 . S
H733 C749 0.930 . S
H734 C750 0.931 . S
C735 H723 0.929 . S
C735 C729 1.390 . S
C735 C732 1.386 . S
C736 C731 1.490 . S
C736 C738 1.395 . S
C736 C739 1.403 . S
H737 C743 0.930 . S
C738 H724 0.930 . S
C738 C736 1.395 . S
C738 C741 1.403 . S
C739 C736 1.403 . S
C739 C740 1.524 . S
C739 C743 1.400 . S
C740 H725 0.960 . S
C740 H726 0.960 . S
C740 H727 0.960 . S
C740 C739 1.524 . S
C741 C738 1.403 . S
C741 C742 1.392 . S
C741 C745 1.495 . S
C742 C741 1.392 . S
C742 C743 1.385 . S
C742 C744 1.478 . S
C743 H737 0.930 . S
C743 C739 1.400 . S
C743 C742 1.385 . S
C744 C742 1.478 . S
C744 C746 1.381 . S
C744 C750 1.383 . S
C745 C741 1.495 . S
C745 H751 0.959 . S
C745 H752 0.961 . S
C745 H753 0.960 . S
C746 C744 1.381 . S
C746 C747 1.394 . S
C746 H754 0.930 . S
C747 C746 1.394 . S
C747 C748 1.383 . S
C747 H755 0.929 . S
C748 C747 1.383 . S
C748 C749 1.377 . S
C749 H733 0.930 . S
C749 C748 1.377 . S
C749 C750 1.379 . S
C750 H734 0.931 . S
C750 C744 1.383 . S
C750 C749 1.379 . S
H751 C745 0.959 . S
H752 C745 0.961 . S
H753 C745 0.960 . S
H754 C746 0.930 . S
H755 C747 0.929 . S
H756 C764 0.929 . S
H757 C766 0.930 . S
H758 C768 0.930 . S
H759 C771 0.929 . S
H760 C774 0.930 . S
H761 C776 0.960 . S
H762 C776 0.960 . S
H763 C776 0.960 . S
C764 H756 0.929 . S
C764 C765 1.377 . S
C764 C766 1.384 . S
C765 C764 1.377 . S
C765 C771 1.390 . S
C766 H757 0.930 . S
C766 C764 1.384 . S
C766 C767 1.372 . S
C767 C766 1.372 . S
C767 C768 1.400 . S
C767 C772 1.490 . S
C768 H758 0.930 . S
C768 C767 1.400 . S
C768 C771 1.386 . S
H769 C785 0.930 . S
H770 C786 0.931 . S
C771 H759 0.929 . S
C771 C765 1.390 . S
C771 C768 1.386 . S
C772 C767 1.490 . S
C772 C774 1.395 . S
C772 C775 1.403 . S
H773 C779 0.930 . S
C774 H760 0.930 . S
C774 C772 1.395 . S
C774 C777 1.403 . S
C775 C772 1.403 . S
C775 C776 1.524 . S
C775 C779 1.400 . S
C776 H761 0.960 . S
C776 H762 0.960 . S
C776 H763 0.960 . S
C776 C775 1.524 . S
C777 C774 1.403 . S
C777 C778 1.392 . S
C777 C781 1.495 . S
C778 C777 1.392 . S
C778 C779 1.385 . S
C778 C780 1.478 . S
C779 H773 0.930 . S
C779 C775 1.400 . S
C779 C778 1.385 . S
C780 C778 1.478 . S
C780 C782 1.381 . S
C780 C786 1.383 . S
C781 C777 1.495 . S
C781 H787 0.959 . S
C781 H788 0.961 . S
C781 H789 0.960 . S
C782 C780 1.381 . S
C782 C783 1.394 . S
C782 H790 0.930 . S
C783 C782 1.394 . S
C783 C784 1.383 . S
C783 H791 0.929 . S
C784 C783 1.383 . S
C784 C785 1.377 . S
C785 H769 0.930 . S
C785 C784 1.377 . S
C785 C786 1.379 . S
C786 H770 0.931 . S
C786 C780 1.383 . S
C786 C785 1.379 . S
H787 C781 0.959 . S
H788 C781 0.961 . S
H789 C781 0.960 . S
H790 C782 0.930 . S
H791 C783 0.929 . S
H792 C800 0.929 . S
H793 C802 0.930 . S
H794 C804 0.930 . S
H795 C807 0.929 . S
H796 C810 0.930 . S
H797 C812 0.960 . S
H798 C812 0.960 . S
H799 C812 0.960 . S
C800 H792 0.929 . S
C800 C801 1.377 . S
C800 C802 1.384 . S
C801 C800 1.377 . S
C801 C807 1.390 . S
C802 H793 0.930 . S
C802 C800 1.384 . S
C802 C803 1.372 . S
C803 C802 1.372 . S
C803 C804 1.400 . S
C803 C808 1.490 . S
C804 H794 0.930 . S
C804 C803 1.400 . S
C804 C807 1.386 . S
H805 C821 0.930 . S
H806 C822 0.931 . S
C807 H795 0.929 . S
C807 C801 1.390 . S
C807 C804 1.386 . S
C808 C803 1.490 . S
C808 C810 1.395 . S
C808 C811 1.403 . S
H809 C815 0.930 . S
C810 H796 0.930 . S
C810 C808 1.395 . S
C810 C813 1.403 . S
C811 C808 1.403 . S
C811 C812 1.524 . S
C811 C815 1.400 . S
C812 H797 0.960 . S
C812 H798 0.960 . S
C812 H799 0.960 . S
C812 C811 1.524 . S
C813 C810 1.403 . S
C813 C814 1.392 . S
C813 C817 1.495 . S
C814 C813 1.392 . S
C814 C815 1.385 . S
C814 C816 1.478 . S
C815 H809 0.930 . S
C815 C811 1.400 . S
C815 C814 1.385 . S
C816 C814 1.478 . S
C816 C818 1.381 . S
C816 C822 1.383 . S
C817 C813 1.495 . S
C817 H823 0.959 . S
C817 H824 0.961 . S
C817 H825 0.960 . S
C818 C816 1.381 . S
C818 C819 1.394 . S
C818 H826 0.930 . S
C819 C818 1.394 . S
C819 C820 1.383 . S
C819 H827 0.929 . S
C820 C819 1.383 . S
C820 C821 1.377 . S
C821 H805 0.930 . S
C821 C820 1.377 . S
C821 C822 1.379 . S
C822 H806 0.931 . S
C822 C816 1.383 . S
C822 C821 1.379 . S
H823 C817 0.959 . S
H824 C817 0.961 . S
H825 C817 0.960 . S
H826 C818 0.930 . S
H827 C819 0.929 . S
H828 C836 0.929 . S
H829 C838 0.930 . S
H830 C840 0.930 . S
H831 C843 0.929 . S
H832 C846 0.930 . S
H833 C848 0.960 . S
H834 C848 0.960 . S
H835 C848 0.960 . S
C836 H828 0.929 . S
C836 C837 1.377 . S
C836 C838 1.384 . S
C837 C836 1.377 . S
C837 C843 1.390 . S
C838 H829 0.930 . S
C838 C836 1.384 . S
C838 C839 1.372 . S
C839 C838 1.372 . S
C839 C840 1.400 . S
C839 C844 1.490 . S
C840 H830 0.930 . S
C840 C839 1.400 . S
C840 C843 1.386 . S
H841 C857 0.930 . S
H842 C858 0.931 . S
C843 H831 0.929 . S
C843 C837 1.390 . S
C843 C840 1.386 . S
C844 C839 1.490 . S
C844 C846 1.395 . S
C844 C847 1.403 . S
H845 C851 0.930 . S
C846 H832 0.930 . S
C846 C844 1.395 . S
C846 C849 1.403 . S
C847 C844 1.403 . S
C847 C848 1.524 . S
C847 C851 1.400 . S
C848 H833 0.960 . S
C848 H834 0.960 . S
C848 H835 0.960 . S
C848 C847 1.524 . S
C849 C846 1.403 . S
C849 C850 1.392 . S
C849 C853 1.495 . S
C850 C849 1.392 . S
C850 C851 1.385 . S
C850 C852 1.478 . S
C851 H845 0.930 . S
C851 C847 1.400 . S
C851 C850 1.385 . S
C852 C850 1.478 . S
C852 C854 1.381 . S
C852 C858 1.383 . S
C853 C849 1.495 . S
C853 H859 0.959 . S
C853 H860 0.961 . S
C853 H861 0.960 . S
C854 C852 1.381 . S
C854 C855 1.394 . S
C854 H862 0.930 . S
C855 C854 1.394 . S
C855 C856 1.383 . S
C855 H863 0.929 . S
C856 C855 1.383 . S
C856 C857 1.377 . S
C857 H841 0.930 . S
C857 C856 1.377 . S
C857 C858 1.379 . S
C858 H842 0.931 . S
C858 C852 1.383 . S
C858 C857 1.379 . S
H859 C853 0.959 . S
H860 C853 0.961 . S
H861 C853 0.960 . S
H862 C854 0.930 . S
H863 C855 0.929 . S
H864 C872 0.929 . S
H865 C874 0.930 . S
H866 C876 0.930 . S
H867 C879 0.929 . S
H868 C882 0.930 . S
H869 C884 0.960 . S
H870 C884 0.960 . S
H871 C884 0.960 . S
C872 H864 0.929 . S
C872 C873 1.377 . S
C872 C874 1.384 . S
C873 C872 1.377 . S
C873 C879 1.390 . S
C874 H865 0.930 . S
C874 C872 1.384 . S
C874 C875 1.372 . S
C875 C874 1.372 . S
C875 C876 1.400 . S
C875 C880 1.490 . S
C876 H866 0.930 . S
C876 C875 1.400 . S
C876 C879 1.386 . S
H877 C893 0.930 . S
H878 C894 0.931 . S
C879 H867 0.929 . S
C879 C873 1.390 . S
C879 C876 1.386 . S
C880 C875 1.490 . S
C880 C882 1.395 . S
C880 C883 1.403 . S
H881 C887 0.930 . S
C882 H868 0.930 . S
C882 C880 1.395 . S
C882 C885 1.403 . S
C883 C880 1.403 . S
C883 C884 1.524 . S
C883 C887 1.400 . S
C884 H869 0.960 . S
C884 H870 0.960 . S
C884 H871 0.960 . S
C884 C883 1.524 . S
C885 C882 1.403 . S
C885 C886 1.392 . S
C885 C889 1.495 . S
C886 C885 1.392 . S
C886 C887 1.385 . S
C886 C888 1.478 . S
C887 H881 0.930 . S
C887 C883 1.400 . S
C887 C886 1.385 . S
C888 C886 1.478 . S
C888 C890 1.381 . S
C888 C894 1.383 . S
C889 C885 1.495 . S
C889 H895 0.959 . S
C889 H896 0.961 . S
C889 H897 0.960 . S
C890 C888 1.381 . S
C890 C891 1.394 . S
C890 H898 0.930 . S
C891 C890 1.394 . S
C891 C892 1.383 . S
C891 H899 0.929 . S
C892 C891 1.383 . S
C892 C893 1.377 . S
C893 H877 0.930 . S
C893 C892 1.377 . S
C893 C894 1.379 . S
C894 H878 0.931 . S
C894 C888 1.383 . S
C894 C893 1.379 . S
H895 C889 0.959 . S
H896 C889 0.961 . S
H897 C889 0.960 . S
H898 C890 0.930 . S
H899 C891 0.929 . S
H900 C908 0.929 . S
H901 C910 0.930 . S
H902 C912 0.930 . S
H903 C915 0.929 . S
H904 C918 0.930 . S
H905 C920 0.960 . S
H906 C920 0.960 . S
H907 C920 0.960 . S
C908 H900 0.929 . S
C908 C909 1.377 . S
C908 C910 1.384 . S
C909 C908 1.377 . S
C909 C915 1.390 . S
C910 H901 0.930 . S
C910 C908 1.384 . S
C910 C911 1.372 . S
C911 C910 1.372 . S
C911 C912 1.400 . S
C911 C916 1.490 . S
C912 H902 0.930 . S
C912 C911 1.400 . S
C912 C915 1.386 . S
H913 C929 0.930 . S
H914 C930 0.931 . S
C915 H903 0.929 . S
C915 C909 1.390 . S
C915 C912 1.386 . S
C916 C911 1.490 . S
C916 C918 1.395 . S
C916 C919 1.403 . S
H917 C923 0.930 . S
C918 H904 0.930 . S
C918 C916 1.395 . S
C918 C921 1.403 . S
C919 C916 1.403 . S
C919 C920 1.524 . S
C919 C923 1.400 . S
C920 H905 0.960 . S
C920 H906 0.960 . S
C920 H907 0.960 . S
C920 C919 1.524 . S
C921 C918 1.403 . S
C921 C922 1.392 . S
C921 C925 1.495 . S
C922 C921 1.392 . S
C922 C923 1.385 . S
C922 C924 1.478 . S
C923 H917 0.930 . S
C923 C919 1.400 . S
C923 C922 1.385 . S
C924 C922 1.478 . S
C924 C926 1.381 . S
C924 C930 1.383 . S
C925 C921 1.495 . S
C925 H931 0.959 . S
C925 H932 0.961 . S
C925 H933 0.960 . S
C926 C924 1.381 . S
C926 C927 1.394 . S
C926 H934 0.930 . S
C927 C926 1.394 . S
C927 C928 1.383 . S
C927 H935 0.929 . S
C928 C927 1.383 . S
C928 C929 1.377 . S
C929 H913 0.930 . S
C929 C928 1.377 . S
C929 C930 1.379 . S
C930 H914 0.931 . S
C930 C924 1.383 . S
C930 C929 1.379 . S
H931 C925 0.959 . S
H932 C925 0.961 . S
H933 C925 0.960 . S
H934 C926 0.930 . S
H935 C927 0.929 . S
H936 C944 0.929 . S
H937 C946 0.930 . S
H938 C948 0.930 . S
H939 C951 0.929 . S
H940 C954 0.930 . S
H941 C956 0.960 . S
H942 C956 0.960 . S
H943 C956 0.960 . S
C944 H936 0.929 . S
C944 C945 1.377 . S
C944 C946 1.384 . S
C945 C944 1.377 . S
C945 C951 1.390 . S
C946 H937 0.930 . S
C946 C944 1.384 . S
C946 C947 1.372 . S
C947 C946 1.372 . S
C947 C948 1.400 . S
C947 C952 1.490 . S
C948 H938 0.930 . S
C948 C947 1.400 . S
C948 C951 1.386 . S
H949 C965 0.930 . S
H950 C966 0.931 . S
C951 H939 0.929 . S
C951 C945 1.390 . S
C951 C948 1.386 . S
C952 C947 1.490 . S
C952 C954 1.395 . S
C952 C955 1.403 . S
H953 C959 0.930 . S
C954 H940 0.930 . S
C954 C952 1.395 . S
C954 C957 1.403 . S
C955 C952 1.403 . S
C955 C956 1.524 . S
C955 C959 1.400 . S
C956 H941 0.960 . S
C956 H942 0.960 . S
C956 H943 0.960 . S
C956 C955 1.524 . S
C957 C954 1.403 . S
C957 C958 1.392 . S
C957 C961 1.495 . S
C958 C957 1.392 . S
C958 C959 1.385 . S
C958 C960 1.478 . S
C959 H953 0.930 . S
C959 C955 1.400 . S
C959 C958 1.385 . S
C960 C958 1.478 . S
C960 C962 1.381 . S
C960 C966 1.383 . S
C961 C957 1.495 . S
C961 H967 0.959 . S
C961 H968 0.961 . S
C961 H969 0.960 . S
C962 C960 1.381 . S
C962 C963 1.394 . S
C962 H970 0.930 . S
C963 C962 1.394 . S
C963 C964 1.383 . S
C963 H971 0.929 . S
C964 C963 1.383 . S
C964 C965 1.377 . S
C965 H949 0.930 . S
C965 C964 1.377 . S
C965 C966 1.379 . S
C966 H950 0.931 . S
C966 C960 1.383 . S
C966 C965 1.379 . S
H967 C961 0.959 . S
H968 C961 0.961 . S
H969 C961 0.960 . S
H970 C962 0.930 . S
H971 C963 0.929 . S
H972 C980 0.929 . S
H973 C982 0.930 . S
H974 C984 0.930 . S
H975 C987 0.929 . S
H976 C990 0.930 . S
H977 C992 0.960 . S
H978 C992 0.960 . S
H979 C992 0.960 . S
C980 H972 0.929 . S
C980 C981 1.377 . S
C980 C982 1.384 . S
C981 C980 1.377 . S
C981 C987 1.390 . S
C982 H973 0.930 . S
C982 C980 1.384 . S
C982 C983 1.372 . S
C983 C982 1.372 . S
C983 C984 1.400 . S
C983 C988 1.490 . S
C984 H974 0.930 . S
C984 C983 1.400 . S
C984 C987 1.386 . S
H985 C1001 0.930 . S
H986 C1002 0.931 . S
C987 H975 0.929 . S
C987 C981 1.390 . S
C987 C984 1.386 . S
C988 C983 1.490 . S
C988 C990 1.395 . S
C988 C991 1.403 . S
H989 C995 0.930 . S
C990 H976 0.930 . S
C990 C988 1.395 . S
C990 C993 1.403 . S
C991 C988 1.403 . S
C991 C992 1.524 . S
C991 C995 1.400 . S
C992 H977 0.960 . S
C992 H978 0.960 . S
C992 H979 0.960 . S
C992 C991 1.524 . S
C993 C990 1.403 . S
C993 C994 1.392 . S
C993 C997 1.495 . S
C994 C993 1.392 . S
C994 C995 1.385 . S
C994 C996 1.478 . S
C995 H989 0.930 . S
C995 C991 1.400 . S
C995 C994 1.385 . S
C996 C994 1.478 . S
C996 C998 1.381 . S
C996 C1002 1.383 . S
C997 C993 1.495 . S
C997 H1003 0.959 . S
C997 H1004 0.961 . S
C997 H1005 0.960 . S
C998 C996 1.381 . S
C998 C999 1.394 . S
C998 H1006 0.930 . S
C999 C998 1.394 . S
C999 C1000 1.383 . S
C999 H1007 0.929 . S
C1000 C999 1.383 . S
C1000 C1001 1.377 . S
C1001 H985 0.930 . S
C1001 C1000 1.377 . S
C1001 C1002 1.379 . S
C1002 H986 0.931 . S
C1002 C996 1.383 . S
C1002 C1001 1.379 . S
H1003 C997 0.959 . S
H1004 C997 0.961 . S
H1005 C997 0.960 . S
H1006 C998 0.930 . S
H1007 C999 0.929 . S
H1008 C1016 0.929 . S
H1009 C1018 0.930 . S
H1010 C1020 0.930 . S
H1011 C1023 0.929 . S
H1012 C1026 0.930 . S
H1013 C1028 0.960 . S
H1014 C1028 0.960 . S
H1015 C1028 0.960 . S
C1016 H1008 0.929 . S
C1016 C1017 1.377 . S
C1016 C1018 1.384 . S
C1017 C1016 1.377 . S
C1017 C1023 1.390 . S
C1018 H1009 0.930 . S
C1018 C1016 1.384 . S
C1018 C1019 1.372 . S
C1019 C1018 1.372 . S
C1019 C1020 1.400 . S
C1019 C1024 1.490 . S
C1020 H1010 0.930 . S
C1020 C1019 1.400 . S
C1020 C1023 1.386 . S
H1021 C1037 0.930 . S
H1022 C1038 0.931 . S
C1023 H1011 0.929 . S
C1023 C1017 1.390 . S
C1023 C1020 1.386 . S
C1024 C1019 1.490 . S
C1024 C1026 1.395 . S
C1024 C1027 1.403 . S
H1025 C1031 0.930 . S
C1026 H1012 0.930 . S
C1026 C1024 1.395 . S
C1026 C1029 1.403 . S
C1027 C1024 1.403 . S
C1027 C1028 1.524 . S
C1027 C1031 1.400 . S
C1028 H1013 0.960 . S
C1028 H1014 0.960 . S
C1028 H1015 0.960 . S
C1028 C1027 1.524 . S
C1029 C1026 1.403 . S
C1029 C1030 1.392 . S
C1029 C1033 1.495 . S
C1030 C1029 1.392 . S
C1030 C1031 1.385 . S
C1030 C1032 1.478 . S
C1031 H1025 0.930 . S
C1031 C1027 1.400 . S
C1031 C1030 1.385 . S
C1032 C1030 1.478 . S
C1032 C1034 1.381 . S
C1032 C1038 1.383 . S
C1033 C1029 1.495 . S
C1033 H1039 0.959 . S
C1033 H1040 0.961 . S
C1033 H1041 0.960 . S
C1034 C1032 1.381 . S
C1034 C1035 1.394 . S
C1034 H1042 0.930 . S
C1035 C1034 1.394 . S
C1035 C1036 1.383 . S
C1035 H1043 0.929 . S
C1036 C1035 1.383 . S
C1036 C1037 1.377 . S
C1037 H1021 0.930 . S
C1037 C1036 1.377 . S
C1037 C1038 1.379 . S
C1038 H1022 0.931 . S
C1038 C1032 1.383 . S
C1038 C1037 1.379 . S
H1039 C1033 0.959 . S
H1040 C1033 0.961 . S
H1041 C1033 0.960 . S
H1042 C1034 0.930 . S
H1043 C1035 0.929 . S
H1044 C1052 0.929 . S
H1045 C1054 0.930 . S
H1046 C1056 0.930 . S
H1047 C1059 0.929 . S
H1048 C1062 0.930 . S
H1049 C1064 0.960 . S
H1050 C1064 0.960 . S
H1051 C1064 0.960 . S
C1052 H1044 0.929 . S
C1052 C1053 1.377 . S
C1052 C1054 1.384 . S
C1053 C1052 1.377 . S
C1053 C1059 1.390 . S
C1054 H1045 0.930 . S
C1054 C1052 1.384 . S
C1054 C1055 1.372 . S
C1055 C1054 1.372 . S
C1055 C1056 1.400 . S
C1055 C1060 1.490 . S
C1056 H1046 0.930 . S
C1056 C1055 1.400 . S
C1056 C1059 1.386 . S
H1057 C1073 0.930 . S
H1058 C1074 0.931 . S
C1059 H1047 0.929 . S
C1059 C1053 1.390 . S
C1059 C1056 1.386 . S
C1060 C1055 1.490 . S
C1060 C1062 1.395 . S
C1060 C1063 1.403 . S
H1061 C1067 0.930 . S
C1062 H1048 0.930 . S
C1062 C1060 1.395 . S
C1062 C1065 1.403 . S
C1063 C1060 1.403 . S
C1063 C1064 1.524 . S
C1063 C1067 1.400 . S
C1064 H1049 0.960 . S
C1064 H1050 0.960 . S
C1064 H1051 0.960 . S
C1064 C1063 1.524 . S
C1065 C1062 1.403 . S
C1065 C1066 1.392 . S
C1065 C1069 1.495 . S
C1066 C1065 1.392 . S
C1066 C1067 1.385 . S
C1066 C1068 1.478 . S
C1067 H1061 0.930 . S
C1067 C1063 1.400 . S
C1067 C1066 1.385 . S
C1068 C1066 1.478 . S
C1068 C1070 1.381 . S
C1068 C1074 1.383 . S
C1069 C1065 1.495 . S
C1069 H1075 0.959 . S
C1069 H1076 0.961 . S
C1069 H1077 0.960 . S
C1070 C1068 1.381 . S
C1070 C1071 1.394 . S
C1070 H1078 0.930 . S
C1071 C1070 1.394 . S
C1071 C1072 1.383 . S
C1071 H1079 0.929 . S
C1072 C1071 1.383 . S
C1072 C1073 1.377 . S
C1073 H1057 0.930 . S
C1073 C1072 1.377 . S
C1073 C1074 1.379 . S
C1074 H1058 0.931 . S
C1074 C1068 1.383 . S
C1074 C1073 1.379 . S
H1075 C1069 0.959 . S
H1076 C1069 0.961 . S
H1077 C1069 0.960 . S
H1078 C1070 0.930 . S
H1079 C1071 0.929 . S
H1080 C1088 0.929 . S
H1081 C1090 0.930 . S
H1082 C1092 0.930 . S
H1083 C1095 0.929 . S
H1084 C1098 0.930 . S
H1085 C1100 0.960 . S
H1086 C1100 0.960 . S
H1087 C1100 0.960 . S
C1088 H1080 0.929 . S
C1088 C1089 1.377 . S
C1088 C1090 1.384 . S
C1089 C1088 1.377 . S
C1089 C1095 1.390 . S
C1090 H1081 0.930 . S
C1090 C1088 1.384 . S
C1090 C1091 1.372 . S
C1091 C1090 1.372 . S
C1091 C1092 1.400 . S
C1091 C1096 1.490 . S
C1092 H1082 0.930 . S
C1092 C1091 1.400 . S
C1092 C1095 1.386 . S
H1093 C1109 0.930 . S
H1094 C1110 0.931 . S
C1095 H1083 0.929 . S
C1095 C1089 1.390 . S
C1095 C1092 1.386 . S
C1096 C1091 1.490 . S
C1096 C1098 1.395 . S
C1096 C1099 1.403 . S
H1097 C1103 0.930 . S
C1098 H1084 0.930 . S
C1098 C1096 1.395 . S
C1098 C1101 1.403 . S
C1099 C1096 1.403 . S
C1099 C1100 1.524 . S
C1099 C1103 1.400 . S
C1100 H1085 0.960 . S
C1100 H1086 0.960 . S
C1100 H1087 0.960 . S
C1100 C1099 1.524 . S
C1101 C1098 1.403 . S
C1101 C1102 1.392 . S
C1101 C1105 1.495 . S
C1102 C1101 1.392 . S
C1102 C1103 1.385 . S
C1102 C1104 1.478 . S
C1103 H1097 0.930 . S
C1103 C1099 1.400 . S
C1103 C1102 1.385 . S
C1104 C1102 1.478 . S
C1104 C1106 1.381 . S
C1104 C1110 1.383 . S
C1105 C1101 1.495 . S
C1105 H1111 0.959 . S
C1105 H1112 0.961 . S
C1105 H1113 0.960 . S
C1106 C1104 1.381 . S
C1106 C1107 1.394 . S
C1106 H1114 0.930 . S
C1107 C1106 1.394 . S
C1107 C1108 1.383 . S
C1107 H1115 0.929 . S
C1108 C1107 1.383 . S
C1108 C1109 1.377 . S
C1109 H1093 0.930 . S
C1109 C1108 1.377 . S
C1109 C1110 1.379 . S
C1110 H1094 0.931 . S
C1110 C1104 1.383 . S
C1110 C1109 1.379 . S
H1111 C1105 0.959 . S
H1112 C1105 0.961 . S
H1113 C1105 0.960 . S
H1114 C1106 0.930 . S
H1115 C1107 0.929 . S
H1116 C1124 0.929 . S
H1117 C1126 0.930 . S
H1118 C1128 0.930 . S
H1119 C1131 0.929 . S
H1120 C1134 0.930 . S
H1121 C1136 0.960 1_655 S
H1122 C1136 0.960 . S
H1123 C1136 0.960 . S
C1124 H1116 0.929 . S
C1124 C1125 1.377 . S
C1124 C1126 1.384 . S
C1125 C1124 1.377 . S
C1125 C1131 1.390 . S
C1126 H1117 0.930 . S
C1126 C1124 1.384 . S
C1126 C1127 1.372 . S
C1127 C1126 1.372 . S
C1127 C1128 1.400 . S
C1127 C1132 1.490 . S
C1128 H1118 0.930 . S
C1128 C1127 1.400 . S
C1128 C1131 1.386 . S
H1129 C1145 0.930 . S
H1130 C1146 0.931 . S
C1131 H1119 0.929 . S
C1131 C1125 1.390 . S
C1131 C1128 1.386 . S
C1132 C1127 1.490 . S
C1132 C1134 1.395 1_554 S
C1132 C1135 1.403 . S
H1133 C1139 0.930 . S
C1134 H1120 0.930 . S
C1134 C1132 1.395 1_556 S
C1134 C1137 1.403 1_455 S
C1135 C1132 1.403 . S
C1135 C1136 1.524 . S
C1135 C1139 1.400 1_455 S
C1136 H1121 0.960 1_455 S
C1136 H1122 0.960 . S
C1136 H1123 0.960 . S
C1136 C1135 1.524 . S
C1137 C1134 1.403 1_655 S
C1137 C1138 1.392 . S
C1137 C1141 1.495 . S
C1138 C1137 1.392 . S
C1138 C1139 1.385 1_556 S
C1138 C1140 1.478 . S
C1139 H1133 0.930 . S
C1139 C1135 1.400 1_655 S
C1139 C1138 1.385 1_554 S
C1140 C1138 1.478 . S
C1140 C1142 1.381 . S
C1140 C1146 1.383 . S
C1141 C1137 1.495 . S
C1141 H1147 0.959 1_655 S
C1141 H1148 0.961 . S
C1141 H1149 0.960 . S
C1142 C1140 1.381 . S
C1142 C1143 1.394 . S
C1142 H1150 0.930 . S
C1143 C1142 1.394 . S
C1143 C1144 1.383 . S
C1143 H1151 0.929 . S
C1144 C1143 1.383 . S
C1144 C1145 1.377 . S
C1145 H1129 0.930 . S
C1145 C1144 1.377 . S
C1145 C1146 1.379 . S
C1146 H1130 0.931 . S
C1146 C1140 1.383 . S
C1146 C1145 1.379 . S
H1147 C1141 0.959 1_455 S
H1148 C1141 0.961 . S
H1149 C1141 0.960 . S
H1150 C1142 0.930 . S
H1151 C1143 0.929 . S
H1152 C1160 0.929 . S
H1153 C1162 0.930 . S
H1154 C1164 0.930 . S
H1155 C1167 0.929 . S
H1156 C1170 0.930 . S
H1157 C1172 0.960 . S
H1158 C1172 0.960 . S
H1159 C1172 0.960 . S
C1160 H1152 0.929 . S
C1160 C1161 1.377 . S
C1160 C1162 1.384 . S
C1161 C1160 1.377 . S
C1161 C1167 1.390 . S
C1162 H1153 0.930 . S
C1162 C1160 1.384 . S
C1162 C1163 1.372 . S
C1163 C1162 1.372 . S
C1163 C1164 1.400 . S
C1163 C1168 1.490 . S
C1164 H1154 0.930 . S
C1164 C1163 1.400 . S
C1164 C1167 1.386 . S
H1165 C1181 0.930 . S
H1166 C1182 0.931 . S
C1167 H1155 0.929 . S
C1167 C1161 1.390 . S
C1167 C1164 1.386 . S
C1168 C1163 1.490 . S
C1168 C1170 1.395 . S
C1168 C1171 1.403 1_556 S
H1169 C1175 0.930 . S
C1170 H1156 0.930 . S
C1170 C1168 1.395 . S
C1170 C1173 1.403 . S
C1171 C1168 1.403 1_554 S
C1171 C1172 1.524 . S
C1171 C1175 1.400 . S
C1172 H1157 0.960 . S
C1172 H1158 0.960 . S
C1172 H1159 0.960 . S
C1172 C1171 1.524 . S
C1173 C1170 1.403 . S
C1173 C1174 1.392 1_556 S
C1173 C1177 1.495 . S
C1174 C1173 1.392 1_554 S
C1174 C1175 1.385 . S
C1174 C1176 1.478 . S
C1175 H1169 0.930 . S
C1175 C1171 1.400 . S
C1175 C1174 1.385 . S
C1176 C1174 1.478 . S
C1176 C1178 1.381 . S
C1176 C1182 1.383 . S
C1177 C1173 1.495 . S
C1177 H1183 0.959 . S
C1177 H1184 0.961 . S
C1177 H1185 0.960 . S
C1178 C1176 1.381 . S
C1178 C1179 1.394 . S
C1178 H1186 0.930 . S
C1179 C1178 1.394 . S
C1179 C1180 1.383 . S
C1179 H1187 0.929 . S
C1180 C1179 1.383 . S
C1180 C1181 1.377 . S
C1181 H1165 0.930 . S
C1181 C1180 1.377 . S
C1181 C1182 1.379 . S
C1182 H1166 0.931 . S
C1182 C1176 1.383 . S
C1182 C1181 1.379 . S
H1183 C1177 0.959 . S
H1184 C1177 0.961 . S
H1185 C1177 0.960 . S
H1186 C1178 0.930 . S
H1187 C1179 0.929 . S
H1188 C1196 0.929 . S
H1189 C1198 0.930 . S
H1190 C1200 0.930 1_556 S
H1191 C1203 0.929 . S
H1192 C1206 0.930 . S
H1193 C1208 0.960 . S
H1194 C1208 0.960 . S
H1195 C1208 0.960 . S
C1196 H1188 0.929 . S
C1196 C1197 1.377 . S
C1196 C1198 1.384 . S
C1197 C1196 1.377 . S
C1197 C1203 1.390 . S
C1198 H1189 0.930 . S
C1198 C1196 1.384 . S
C1198 C1199 1.372 . S
C1199 C1198 1.372 . S
C1199 C1200 1.400 . S
C1199 C1204 1.490 . S
C1200 H1190 0.930 1_554 S
C1200 C1199 1.400 . S
C1200 C1203 1.386 . S
H1201 C1217 0.930 . S
H1202 C1218 0.931 . S
C1203 H1191 0.929 . S
C1203 C1197 1.390 . S
C1203 C1200 1.386 . S
C1204 C1199 1.490 . S
C1204 C1206 1.395 . S
C1204 C1207 1.403 1_554 S
H1205 C1211 0.930 . S
C1206 H1192 0.930 . S
C1206 C1204 1.395 . S
C1206 C1209 1.403 1_565 S
C1207 C1204 1.403 1_556 S
C1207 C1208 1.524 . S
C1207 C1211 1.400 1_565 S
C1208 H1193 0.960 . S
C1208 H1194 0.960 . S
C1208 H1195 0.960 . S
C1208 C1207 1.524 . S
C1209 C1206 1.403 1_545 S
C1209 C1210 1.392 1_554 S
C1209 C1213 1.495 . S
C1210 C1209 1.392 1_556 S
C1210 C1211 1.385 . S
C1210 C1212 1.478 . S
C1211 H1205 0.930 . S
C1211 C1207 1.400 1_545 S
C1211 C1210 1.385 . S
C1212 C1210 1.478 . S
C1212 C1214 1.381 . S
C1212 C1218 1.383 . S
C1213 C1209 1.495 . S
C1213 H1219 0.959 . S
C1213 H1220 0.961 . S
C1213 H1221 0.960 . S
C1214 C1212 1.381 . S
C1214 C1215 1.394 . S
C1214 H1222 0.930 1_556 S
C1215 C1214 1.394 . S
C1215 C1216 1.383 . S
C1215 H1223 0.929 . S
C1216 C1215 1.383 . S
C1216 C1217 1.377 . S
C1217 H1201 0.930 . S
C1217 C1216 1.377 . S
C1217 C1218 1.379 . S
C1218 H1202 0.931 . S
C1218 C1212 1.383 . S
C1218 C1217 1.379 . S
H1219 C1213 0.959 . S
H1220 C1213 0.961 . S
H1221 C1213 0.960 . S
H1222 C1214 0.930 1_554 S
H1223 C1215 0.929 . S
H1224 C1232 0.929 . S
H1225 C1234 0.930 . S
H1226 C1236 0.930 1_554 S
H1227 C1239 0.929 . S
H1228 C1242 0.930 . S
H1229 C1244 0.960 . S
H1230 C1244 0.960 . S
H1231 C1244 0.960 . S
C1232 H1224 0.929 . S
C1232 C1233 1.377 . S
C1232 C1234 1.384 . S
C1233 C1232 1.377 . S
C1233 C1239 1.390 . S
C1234 H1225 0.930 . S
C1234 C1232 1.384 . S
C1234 C1235 1.372 . S
C1235 C1234 1.372 . S
C1235 C1236 1.400 . S
C1235 C1240 1.490 . S
C1236 H1226 0.930 1_556 S
C1236 C1235 1.400 . S
C1236 C1239 1.386 . S
H1237 C1253 0.930 . S
H1238 C1254 0.931 . S
C1239 H1227 0.929 . S
C1239 C1233 1.390 . S
C1239 C1236 1.386 . S
C1240 C1235 1.490 . S
C1240 C1242 1.395 . S
C1240 C1243 1.403 1_556 S
H1241 C1247 0.930 . S
C1242 H1228 0.930 . S
C1242 C1240 1.395 . S
C1242 C1245 1.403 1_655 S
C1243 C1240 1.403 1_554 S
C1243 C1244 1.524 . S
C1243 C1247 1.400 1_655 S
C1244 H1229 0.960 . S
C1244 H1230 0.960 . S
C1244 H1231 0.960 . S
C1244 C1243 1.524 . S
C1245 C1242 1.403 1_455 S
C1245 C1246 1.392 1_556 S
C1245 C1249 1.495 . S
C1246 C1245 1.392 1_554 S
C1246 C1247 1.385 . S
C1246 C1248 1.478 . S
C1247 H1241 0.930 . S
C1247 C1243 1.400 1_455 S
C1247 C1246 1.385 . S
C1248 C1246 1.478 . S
C1248 C1250 1.381 . S
C1248 C1254 1.383 . S
C1249 C1245 1.495 . S
C1249 H1255 0.959 . S
C1249 H1256 0.961 . S
C1249 H1257 0.960 . S
C1250 C1248 1.381 . S
C1250 C1251 1.394 . S
C1250 H1258 0.930 1_554 S
C1251 C1250 1.394 . S
C1251 C1252 1.383 . S
C1251 H1259 0.929 . S
C1252 C1251 1.383 . S
C1252 C1253 1.377 . S
C1253 H1237 0.930 . S
C1253 C1252 1.377 . S
C1253 C1254 1.379 . S
C1254 H1238 0.931 . S
C1254 C1248 1.383 . S
C1254 C1253 1.379 . S
H1255 C1249 0.959 . S
H1256 C1249 0.961 . S
H1257 C1249 0.960 . S
H1258 C1250 0.930 1_556 S
H1259 C1251 0.929 . S
H1260 C1268 0.929 . S
H1261 C1270 0.930 1_554 S
H1262 C1272 0.930 . S
H1263 C1275 0.929 . S
H1264 C1278 0.930 . S
H1265 C1280 0.960 . S
H1266 C1280 0.960 . S
H1267 C1280 0.960 . S
C1268 H1260 0.929 . S
C1268 C1269 1.377 . S
C1268 C1270 1.384 . S
C1269 C1268 1.377 . S
C1269 C1275 1.390 . S
C1270 H1261 0.930 1_556 S
C1270 C1268 1.384 . S
C1270 C1271 1.372 . S
C1271 C1270 1.372 . S
C1271 C1272 1.400 . S
C1271 C1276 1.490 . S
C1272 H1262 0.930 . S
C1272 C1271 1.400 . S
C1272 C1275 1.386 . S
H1273 C1289 0.930 . S
H1274 C1290 0.931 1_556 S
C1275 H1263 0.929 . S
C1275 C1269 1.390 . S
C1275 C1272 1.386 . S
C1276 C1271 1.490 . S
C1276 C1278 1.395 1_556 S
C1276 C1279 1.403 . S
H1277 C1283 0.930 . S
C1278 H1264 0.930 . S
C1278 C1276 1.395 1_554 S
C1278 C1281 1.403 . S
C1279 C1276 1.403 . S
C1279 C1280 1.524 . S
C1279 C1283 1.400 1_556 S
C1280 H1265 0.960 . S
C1280 H1266 0.960 . S
C1280 H1267 0.960 . S
C1280 C1279 1.524 . S
C1281 C1278 1.403 . S
C1281 C1282 1.392 . S
C1281 C1285 1.495 . S
C1282 C1281 1.392 . S
C1282 C1283 1.385 . S
C1282 C1284 1.478 . S
C1283 H1277 0.930 . S
C1283 C1279 1.400 1_554 S
C1283 C1282 1.385 . S
C1284 C1282 1.478 . S
C1284 C1286 1.381 . S
C1284 C1290 1.383 . S
C1285 C1281 1.495 . S
C1285 H1291 0.959 . S
C1285 H1292 0.961 . S
C1285 H1293 0.960 . S
C1286 C1284 1.381 . S
C1286 C1287 1.394 . S
C1286 H1294 0.930 . S
C1287 C1286 1.394 . S
C1287 C1288 1.383 . S
C1287 H1295 0.929 . S
C1288 C1287 1.383 . S
C1288 C1289 1.377 . S
C1289 H1273 0.930 . S
C1289 C1288 1.377 . S
C1289 C1290 1.379 . S
C1290 H1274 0.931 1_554 S
C1290 C1284 1.383 . S
C1290 C1289 1.379 . S
H1291 C1285 0.959 . S
H1292 C1285 0.961 . S
H1293 C1285 0.960 . S
H1294 C1286 0.930 . S
H1295 C1287 0.929 . S
H1296 C1304 0.929 . S
H1297 C1306 0.930 1_554 S
H1298 C1308 0.930 . S
H1299 C1311 0.929 . S
H1300 C1314 0.930 . S
H1301 C1316 0.960 . S
H1302 C1316 0.960 . S
H1303 C1316 0.960 . S
C1304 H1296 0.929 . S
C1304 C1305 1.377 . S
C1304 C1306 1.384 . S
C1305 C1304 1.377 . S
C1305 C1311 1.390 . S
C1306 H1297 0.930 1_556 S
C1306 C1304 1.384 . S
C1306 C1307 1.372 . S
C1307 C1306 1.372 . S
C1307 C1308 1.400 . S
C1307 C1312 1.490 . S
C1308 H1298 0.930 . S
C1308 C1307 1.400 . S
C1308 C1311 1.386 . S
H1309 C1325 0.930 . S
H1310 C1326 0.931 1_556 S
C1311 H1299 0.929 . S
C1311 C1305 1.390 . S
C1311 C1308 1.386 . S
C1312 C1307 1.490 . S
C1312 C1314 1.395 1_556 S
C1312 C1315 1.403 . S
H1313 C1319 0.930 . S
C1314 H1300 0.930 . S
C1314 C1312 1.395 1_554 S
C1314 C1317 1.403 1_545 S
C1315 C1312 1.403 . S
C1315 C1316 1.524 . S
C1315 C1319 1.400 1_546 S
C1316 H1301 0.960 . S
C1316 H1302 0.960 . S
C1316 H1303 0.960 . S
C1316 C1315 1.524 . S
C1317 C1314 1.403 1_565 S
C1317 C1318 1.392 . S
C1317 C1321 1.495 . S
C1318 C1317 1.392 . S
C1318 C1319 1.385 . S
C1318 C1320 1.478 . S
C1319 H1313 0.930 . S
C1319 C1315 1.400 1_564 S
C1319 C1318 1.385 . S
C1320 C1318 1.478 . S
C1320 C1322 1.381 . S
C1320 C1326 1.383 . S
C1321 C1317 1.495 . S
C1321 H1327 0.959 . S
C1321 H1328 0.961 . S
C1321 H1329 0.960 . S
C1322 C1320 1.381 . S
C1322 C1323 1.394 . S
C1322 H1330 0.930 . S
C1323 C1322 1.394 . S
C1323 C1324 1.383 . S
C1323 H1331 0.929 . S
C1324 C1323 1.383 . S
C1324 C1325 1.377 . S
C1325 H1309 0.930 . S
C1325 C1324 1.377 . S
C1325 C1326 1.379 . S
C1326 H1310 0.931 1_554 S
C1326 C1320 1.383 . S
C1326 C1325 1.379 . S
H1327 C1321 0.959 . S
H1328 C1321 0.961 . S
H1329 C1321 0.960 . S
H1330 C1322 0.930 . S
H1331 C1323 0.929 . S
H1332 C1340 0.929 . S
H1333 C1342 0.930 . S
H1334 C1344 0.930 . S
H1335 C1347 0.929 . S
H1336 C1350 0.930 . S
H1337 C1352 0.960 . S
H1338 C1352 0.960 . S
H1339 C1352 0.960 . S
C1340 H1332 0.929 . S
C1340 C1341 1.377 . S
C1340 C1342 1.384 . S
C1341 C1340 1.377 . S
C1341 C1347 1.390 . S
C1342 H1333 0.930 . S
C1342 C1340 1.384 . S
C1342 C1343 1.372 . S
C1343 C1342 1.372 . S
C1343 C1344 1.400 . S
C1343 C1348 1.490 . S
C1344 H1334 0.930 . S
C1344 C1343 1.400 . S
C1344 C1347 1.386 . S
H1345 C1361 0.930 . S
H1346 C1362 0.931 . S
C1347 H1335 0.929 . S
C1347 C1341 1.390 . S
C1347 C1344 1.386 . S
C1348 C1343 1.490 . S
C1348 C1350 1.395 . S
C1348 C1351 1.403 . S
H1349 C1355 0.930 . S
C1350 H1336 0.930 . S
C1350 C1348 1.395 . S
C1350 C1353 1.403 . S
C1351 C1348 1.403 . S
C1351 C1352 1.524 . S
C1351 C1355 1.400 . S
C1352 H1337 0.960 . S
C1352 H1338 0.960 . S
C1352 H1339 0.960 . S
C1352 C1351 1.524 . S
C1353 C1350 1.403 . S
C1353 C1354 1.392 . S
C1353 C1357 1.495 . S
C1354 C1353 1.392 . S
C1354 C1355 1.385 . S
C1354 C1356 1.478 . S
C1355 H1349 0.930 . S
C1355 C1351 1.400 . S
C1355 C1354 1.385 . S
C1356 C1354 1.478 . S
C1356 C1358 1.381 . S
C1356 C1362 1.383 . S
C1357 C1353 1.495 . S
C1357 H1363 0.959 . S
C1357 H1364 0.961 . S
C1357 H1365 0.960 . S
C1358 C1356 1.381 . S
C1358 C1359 1.394 . S
C1358 H1366 0.930 . S
C1359 C1358 1.394 . S
C1359 C1360 1.383 . S
C1359 H1367 0.929 . S
C1360 C1359 1.383 . S
C1360 C1361 1.377 . S
C1361 H1345 0.930 . S
C1361 C1360 1.377 . S
C1361 C1362 1.379 . S
C1362 H1346 0.931 . S
C1362 C1356 1.383 . S
C1362 C1361 1.379 . S
H1363 C1357 0.959 . S
H1364 C1357 0.961 . S
H1365 C1357 0.960 . S
H1366 C1358 0.930 . S
H1367 C1359 0.929 . S
H1368 C1376 0.929 . S
H1369 C1378 0.930 . S
H1370 C1380 0.930 . S
H1371 C1383 0.929 . S
H1372 C1386 0.930 . S
H1373 C1388 0.960 . S
H1374 C1388 0.960 . S
H1375 C1388 0.960 . S
C1376 H1368 0.929 . S
C1376 C1377 1.377 . S
C1376 C1378 1.384 . S
C1377 C1376 1.377 . S
C1377 C1383 1.390 . S
C1378 H1369 0.930 . S
C1378 C1376 1.384 . S
C1378 C1379 1.372 . S
C1379 C1378 1.372 . S
C1379 C1380 1.400 . S
C1379 C1384 1.490 . S
C1380 H1370 0.930 . S
C1380 C1379 1.400 . S
C1380 C1383 1.386 . S
H1381 C1397 0.930 . S
H1382 C1398 0.931 . S
C1383 H1371 0.929 . S
C1383 C1377 1.390 . S
C1383 C1380 1.386 . S
C1384 C1379 1.490 . S
C1384 C1386 1.395 . S
C1384 C1387 1.403 . S
H1385 C1391 0.930 . S
C1386 H1372 0.930 . S
C1386 C1384 1.395 . S
C1386 C1389 1.403 . S
C1387 C1384 1.403 . S
C1387 C1388 1.524 . S
C1387 C1391 1.400 . S
C1388 H1373 0.960 . S
C1388 H1374 0.960 . S
C1388 H1375 0.960 . S
C1388 C1387 1.524 . S
C1389 C1386 1.403 . S
C1389 C1390 1.392 . S
C1389 C1393 1.495 . S
C1390 C1389 1.392 . S
C1390 C1391 1.385 . S
C1390 C1392 1.478 . S
C1391 H1385 0.930 . S
C1391 C1387 1.400 . S
C1391 C1390 1.385 . S
C1392 C1390 1.478 . S
C1392 C1394 1.381 . S
C1392 C1398 1.383 . S
C1393 C1389 1.495 . S
C1393 H1399 0.959 . S
C1393 H1400 0.961 . S
C1393 H1401 0.960 . S
C1394 C1392 1.381 . S
C1394 C1395 1.394 . S
C1394 H1402 0.930 . S
C1395 C1394 1.394 . S
C1395 C1396 1.383 . S
C1395 H1403 0.929 . S
C1396 C1395 1.383 . S
C1396 C1397 1.377 . S
C1397 H1381 0.930 . S
C1397 C1396 1.377 . S
C1397 C1398 1.379 . S
C1398 H1382 0.931 . S
C1398 C1392 1.383 . S
C1398 C1397 1.379 . S
H1399 C1393 0.959 . S
H1400 C1393 0.961 . S
H1401 C1393 0.960 . S
H1402 C1394 0.930 . S
H1403 C1395 0.929 . S
H1404 C1412 0.929 . S
H1405 C1414 0.930 . S
H1406 C1416 0.930 . S
H1407 C1419 0.929 . S
H1408 C1422 0.930 . S
H1409 C1424 0.960 . S
H1410 C1424 0.960 . S
H1411 C1424 0.960 . S
C1412 H1404 0.929 . S
C1412 C1413 1.377 . S
C1412 C1414 1.384 . S
C1413 C1412 1.377 . S
C1413 C1419 1.390 . S
C1414 H1405 0.930 . S
C1414 C1412 1.384 . S
C1414 C1415 1.372 . S
C1415 C1414 1.372 . S
C1415 C1416 1.400 . S
C1415 C1420 1.490 . S
C1416 H1406 0.930 . S
C1416 C1415 1.400 . S
C1416 C1419 1.386 . S
H1417 C1433 0.930 . S
H1418 C1434 0.931 . S
C1419 H1407 0.929 . S
C1419 C1413 1.390 . S
C1419 C1416 1.386 . S
C1420 C1415 1.490 . S
C1420 C1422 1.395 . S
C1420 C1423 1.403 . S
H1421 C1427 0.930 . S
C1422 H1408 0.930 . S
C1422 C1420 1.395 . S
C1422 C1425 1.403 . S
C1423 C1420 1.403 . S
C1423 C1424 1.524 . S
C1423 C1427 1.400 . S
C1424 H1409 0.960 . S
C1424 H1410 0.960 . S
C1424 H1411 0.960 . S
C1424 C1423 1.524 . S
C1425 C1422 1.403 . S
C1425 C1426 1.392 . S
C1425 C1429 1.495 . S
C1426 C1425 1.392 . S
C1426 C1427 1.385 . S
C1426 C1428 1.478 . S
C1427 H1421 0.930 . S
C1427 C1423 1.400 . S
C1427 C1426 1.385 . S
C1428 C1426 1.478 . S
C1428 C1430 1.381 . S
C1428 C1434 1.383 . S
C1429 C1425 1.495 . S
C1429 H1435 0.959 . S
C1429 H1436 0.961 . S
C1429 H1437 0.960 . S
C1430 C1428 1.381 . S
C1430 C1431 1.394 . S
C1430 H1438 0.930 . S
C1431 C1430 1.394 . S
C1431 C1432 1.383 . S
C1431 H1439 0.929 . S
C1432 C1431 1.383 . S
C1432 C1433 1.377 . S
C1433 H1417 0.930 . S
C1433 C1432 1.377 . S
C1433 C1434 1.379 . S
C1434 H1418 0.931 . S
C1434 C1428 1.383 . S
C1434 C1433 1.379 . S
H1435 C1429 0.959 . S
H1436 C1429 0.961 . S
H1437 C1429 0.960 . S
H1438 C1430 0.930 . S
H1439 C1431 0.929 . S
H1440 C1448 0.929 . S
H1441 C1450 0.930 . S
H1442 C1452 0.930 . S
H1443 C1455 0.929 . S
H1444 C1458 0.930 . S
H1445 C1460 0.960 . S
H1446 C1460 0.960 . S
H1447 C1460 0.960 . S
C1448 H1440 0.929 . S
C1448 C1449 1.377 . S
C1448 C1450 1.384 . S
C1449 C1448 1.377 . S
C1449 C1455 1.390 . S
C1450 H1441 0.930 . S
C1450 C1448 1.384 . S
C1450 C1451 1.372 . S
C1451 C1450 1.372 . S
C1451 C1452 1.400 . S
C1451 C1456 1.490 . S
C1452 H1442 0.930 . S
C1452 C1451 1.400 . S
C1452 C1455 1.386 . S
H1453 C1469 0.930 . S
H1454 C1470 0.931 . S
C1455 H1443 0.929 . S
C1455 C1449 1.390 . S
C1455 C1452 1.386 . S
C1456 C1451 1.490 . S
C1456 C1458 1.395 . S
C1456 C1459 1.403 . S
H1457 C1463 0.930 . S
C1458 H1444 0.930 . S
C1458 C1456 1.395 . S
C1458 C1461 1.403 . S
C1459 C1456 1.403 . S
C1459 C1460 1.524 . S
C1459 C1463 1.400 . S
C1460 H1445 0.960 . S
C1460 H1446 0.960 . S
C1460 H1447 0.960 . S
C1460 C1459 1.524 . S
C1461 C1458 1.403 . S
C1461 C1462 1.392 . S
C1461 C1465 1.495 . S
C1462 C1461 1.392 . S
C1462 C1463 1.385 . S
C1462 C1464 1.478 . S
C1463 H1457 0.930 . S
C1463 C1459 1.400 . S
C1463 C1462 1.385 . S
C1464 C1462 1.478 . S
C1464 C1466 1.381 . S
C1464 C1470 1.383 . S
C1465 C1461 1.495 . S
C1465 H1471 0.959 . S
C1465 H1472 0.961 . S
C1465 H1473 0.960 . S
C1466 C1464 1.381 . S
C1466 C1467 1.394 . S
C1466 H1474 0.930 . S
C1467 C1466 1.394 . S
C1467 C1468 1.383 . S
C1467 H1475 0.929 . S
C1468 C1467 1.383 . S
C1468 C1469 1.377 . S
C1469 H1453 0.930 . S
C1469 C1468 1.377 . S
C1469 C1470 1.379 . S
C1470 H1454 0.931 . S
C1470 C1464 1.383 . S
C1470 C1469 1.379 . S
H1471 C1465 0.959 . S
H1472 C1465 0.961 . S
H1473 C1465 0.960 . S
H1474 C1466 0.930 . S
H1475 C1467 0.929 . S
H1476 C1484 0.929 . S
H1477 C1486 0.930 . S
H1478 C1488 0.930 . S
H1479 C1491 0.929 . S
H1480 C1494 0.930 . S
H1481 C1496 0.960 . S
H1482 C1496 0.960 . S
H1483 C1496 0.960 . S
C1484 H1476 0.929 . S
C1484 C1485 1.377 . S
C1484 C1486 1.384 . S
C1485 C1484 1.377 . S
C1485 C1491 1.390 . S
C1486 H1477 0.930 . S
C1486 C1484 1.384 . S
C1486 C1487 1.372 . S
C1487 C1486 1.372 . S
C1487 C1488 1.400 . S
C1487 C1492 1.490 . S
C1488 H1478 0.930 . S
C1488 C1487 1.400 . S
C1488 C1491 1.386 . S
H1489 C1505 0.930 . S
H1490 C1506 0.931 . S
C1491 H1479 0.929 . S
C1491 C1485 1.390 . S
C1491 C1488 1.386 . S
C1492 C1487 1.490 . S
C1492 C1494 1.395 . S
C1492 C1495 1.403 . S
H1493 C1499 0.930 . S
C1494 H1480 0.930 . S
C1494 C1492 1.395 . S
C1494 C1497 1.403 . S
C1495 C1492 1.403 . S
C1495 C1496 1.524 . S
C1495 C1499 1.400 . S
C1496 H1481 0.960 . S
C1496 H1482 0.960 . S
C1496 H1483 0.960 . S
C1496 C1495 1.524 . S
C1497 C1494 1.403 . S
C1497 C1498 1.392 . S
C1497 C1501 1.495 . S
C1498 C1497 1.392 . S
C1498 C1499 1.385 . S
C1498 C1500 1.478 . S
C1499 H1493 0.930 . S
C1499 C1495 1.400 . S
C1499 C1498 1.385 . S
C1500 C1498 1.478 . S
C1500 C1502 1.381 . S
C1500 C1506 1.383 . S
C1501 C1497 1.495 . S
C1501 H1507 0.959 . S
C1501 H1508 0.961 . S
C1501 H1509 0.960 . S
C1502 C1500 1.381 . S
C1502 C1503 1.394 . S
C1502 H1510 0.930 . S
C1503 C1502 1.394 . S
C1503 C1504 1.383 . S
C1503 H1511 0.929 . S
C1504 C1503 1.383 . S
C1504 C1505 1.377 . S
C1505 H1489 0.930 . S
C1505 C1504 1.377 . S
C1505 C1506 1.379 . S
C1506 H1490 0.931 . S
C1506 C1500 1.383 . S
C1506 C1505 1.379 . S
H1507 C1501 0.959 . S
H1508 C1501 0.961 . S
H1509 C1501 0.960 . S
H1510 C1502 0.930 . S
H1511 C1503 0.929 . S
H1512 C1520 0.929 . S
H1513 C1522 0.930 . S
H1514 C1524 0.930 . S
H1515 C1527 0.929 . S
H1516 C1530 0.930 . S
H1517 C1532 0.960 . S
H1518 C1532 0.960 . S
H1519 C1532 0.960 . S
C1520 H1512 0.929 . S
C1520 C1521 1.377 . S
C1520 C1522 1.384 . S
C1521 C1520 1.377 . S
C1521 C1527 1.390 . S
C1522 H1513 0.930 . S
C1522 C1520 1.384 . S
C1522 C1523 1.372 . S
C1523 C1522 1.372 . S
C1523 C1524 1.400 . S
C1523 C1528 1.490 . S
C1524 H1514 0.930 . S
C1524 C1523 1.400 . S
C1524 C1527 1.386 . S
H1525 C1541 0.930 . S
H1526 C1542 0.931 . S
C1527 H1515 0.929 . S
C1527 C1521 1.390 . S
C1527 C1524 1.386 . S
C1528 C1523 1.490 . S
C1528 C1530 1.395 . S
C1528 C1531 1.403 . S
H1529 C1535 0.930 . S
C1530 H1516 0.930 . S
C1530 C1528 1.395 . S
C1530 C1533 1.403 . S
C1531 C1528 1.403 . S
C1531 C1532 1.524 . S
C1531 C1535 1.400 . S
C1532 H1517 0.960 . S
C1532 H1518 0.960 . S
C1532 H1519 0.960 . S
C1532 C1531 1.524 . S
C1533 C1530 1.403 . S
C1533 C1534 1.392 . S
C1533 C1537 1.495 . S
C1534 C1533 1.392 . S
C1534 C1535 1.385 . S
C1534 C1536 1.478 . S
C1535 H1529 0.930 . S
C1535 C1531 1.400 . S
C1535 C1534 1.385 . S
C1536 C1534 1.478 . S
C1536 C1538 1.381 . S
C1536 C1542 1.383 . S
C1537 C1533 1.495 . S
C1537 H1543 0.959 . S
C1537 H1544 0.961 . S
C1537 H1545 0.960 . S
C1538 C1536 1.381 . S
C1538 C1539 1.394 . S
C1538 H1546 0.930 . S
C1539 C1538 1.394 . S
C1539 C1540 1.383 . S
C1539 H1547 0.929 . S
C1540 C1539 1.383 . S
C1540 C1541 1.377 . S
C1541 H1525 0.930 . S
C1541 C1540 1.377 . S
C1541 C1542 1.379 . S
C1542 H1526 0.931 . S
C1542 C1536 1.383 . S
C1542 C1541 1.379 . S
H1543 C1537 0.959 . S
H1544 C1537 0.961 . S
H1545 C1537 0.960 . S
H1546 C1538 0.930 . S
H1547 C1539 0.929 . S
H1548 C1556 0.929 . S
H1549 C1558 0.930 . S
H1550 C1560 0.930 . S
H1551 C1563 0.929 . S
H1552 C1566 0.930 . S
H1553 C1568 0.960 . S
H1554 C1568 0.960 . S
H1555 C1568 0.960 . S
C1556 H1548 0.929 . S
C1556 C1557 1.377 . S
C1556 C1558 1.384 . S
C1557 C1556 1.377 . S
C1557 C1563 1.390 . S
C1558 H1549 0.930 . S
C1558 C1556 1.384 . S
C1558 C1559 1.372 . S
C1559 C1558 1.372 . S
C1559 C1560 1.400 . S
C1559 C1564 1.490 . S
C1560 H1550 0.930 . S
C1560 C1559 1.400 . S
C1560 C1563 1.386 . S
H1561 C1577 0.930 . S
H1562 C1578 0.931 . S
C1563 H1551 0.929 . S
C1563 C1557 1.390 . S
C1563 C1560 1.386 . S
C1564 C1559 1.490 . S
C1564 C1566 1.395 . S
C1564 C1567 1.403 . S
H1565 C1571 0.930 . S
C1566 H1552 0.930 . S
C1566 C1564 1.395 . S
C1566 C1569 1.403 . S
C1567 C1564 1.403 . S
C1567 C1568 1.524 . S
C1567 C1571 1.400 . S
C1568 H1553 0.960 . S
C1568 H1554 0.960 . S
C1568 H1555 0.960 . S
C1568 C1567 1.524 . S
C1569 C1566 1.403 . S
C1569 C1570 1.392 . S
C1569 C1573 1.495 . S
C1570 C1569 1.392 . S
C1570 C1571 1.385 . S
C1570 C1572 1.478 . S
C1571 H1565 0.930 . S
C1571 C1567 1.400 . S
C1571 C1570 1.385 . S
C1572 C1570 1.478 . S
C1572 C1574 1.381 . S
C1572 C1578 1.383 . S
C1573 C1569 1.495 . S
C1573 H1579 0.959 . S
C1573 H1580 0.961 . S
C1573 H1581 0.960 . S
C1574 C1572 1.381 . S
C1574 C1575 1.394 . S
C1574 H1582 0.930 . S
C1575 C1574 1.394 . S
C1575 C1576 1.383 . S
C1575 H1583 0.929 . S
C1576 C1575 1.383 . S
C1576 C1577 1.377 . S
C1577 H1561 0.930 . S
C1577 C1576 1.377 . S
C1577 C1578 1.379 . S
C1578 H1562 0.931 . S
C1578 C1572 1.383 . S
C1578 C1577 1.379 . S
H1579 C1573 0.959 . S
H1580 C1573 0.961 . S
H1581 C1573 0.960 . S
H1582 C1574 0.930 . S
H1583 C1575 0.929 . S
H1584 C1592 0.929 . S
H1585 C1594 0.930 . S
H1586 C1596 0.930 . S
H1587 C1599 0.929 . S
H1588 C1602 0.930 . S
H1589 C1604 0.960 . S
H1590 C1604 0.960 . S
H1591 C1604 0.960 . S
C1592 H1584 0.929 . S
C1592 C1593 1.377 . S
C1592 C1594 1.384 . S
C1593 C1592 1.377 . S
C1593 C1599 1.390 . S
C1594 H1585 0.930 . S
C1594 C1592 1.384 . S
C1594 C1595 1.372 . S
C1595 C1594 1.372 . S
C1595 C1596 1.400 . S
C1595 C1600 1.490 . S
C1596 H1586 0.930 . S
C1596 C1595 1.400 . S
C1596 C1599 1.386 . S
H1597 C1613 0.930 . S
H1598 C1614 0.931 . S
C1599 H1587 0.929 . S
C1599 C1593 1.390 . S
C1599 C1596 1.386 . S
C1600 C1595 1.490 . S
C1600 C1602 1.395 . S
C1600 C1603 1.403 . S
H1601 C1607 0.930 . S
C1602 H1588 0.930 . S
C1602 C1600 1.395 . S
C1602 C1605 1.403 . S
C1603 C1600 1.403 . S
C1603 C1604 1.524 . S
C1603 C1607 1.400 . S
C1604 H1589 0.960 . S
C1604 H1590 0.960 . S
C1604 H1591 0.960 . S
C1604 C1603 1.524 . S
C1605 C1602 1.403 . S
C1605 C1606 1.392 . S
C1605 C1609 1.495 . S
C1606 C1605 1.392 . S
C1606 C1607 1.385 . S
C1606 C1608 1.478 . S
C1607 H1601 0.930 . S
C1607 C1603 1.400 . S
C1607 C1606 1.385 . S
C1608 C1606 1.478 . S
C1608 C1610 1.381 . S
C1608 C1614 1.383 . S
C1609 C1605 1.495 . S
C1609 H1615 0.959 . S
C1609 H1616 0.961 . S
C1609 H1617 0.960 . S
C1610 C1608 1.381 . S
C1610 C1611 1.394 . S
C1610 H1618 0.930 . S
C1611 C1610 1.394 . S
C1611 C1612 1.383 . S
C1611 H1619 0.929 . S
C1612 C1611 1.383 . S
C1612 C1613 1.377 . S
C1613 H1597 0.930 . S
C1613 C1612 1.377 . S
C1613 C1614 1.379 . S
C1614 H1598 0.931 . S
C1614 C1608 1.383 . S
C1614 C1613 1.379 . S
H1615 C1609 0.959 . S
H1616 C1609 0.961 . S
H1617 C1609 0.960 . S
H1618 C1610 0.930 . S
H1619 C1611 0.929 . S
H1620 C1628 0.929 . S
H1621 C1630 0.930 . S
H1622 C1632 0.930 . S
H1623 C1635 0.929 . S
H1624 C1638 0.930 . S
H1625 C1640 0.960 . S
H1626 C1640 0.960 . S
H1627 C1640 0.960 . S
C1628 H1620 0.929 . S
C1628 C1629 1.377 . S
C1628 C1630 1.384 . S
C1629 C1628 1.377 . S
C1629 C1635 1.390 . S
C1630 H1621 0.930 . S
C1630 C1628 1.384 . S
C1630 C1631 1.372 . S
C1631 C1630 1.372 . S
C1631 C1632 1.400 . S
C1631 C1636 1.490 . S
C1632 H1622 0.930 . S
C1632 C1631 1.400 . S
C1632 C1635 1.386 . S
H1633 C1649 0.930 . S
H1634 C1650 0.931 . S
C1635 H1623 0.929 . S
C1635 C1629 1.390 . S
C1635 C1632 1.386 . S
C1636 C1631 1.490 . S
C1636 C1638 1.395 . S
C1636 C1639 1.403 . S
H1637 C1643 0.930 . S
C1638 H1624 0.930 . S
C1638 C1636 1.395 . S
C1638 C1641 1.403 . S
C1639 C1636 1.403 . S
C1639 C1640 1.524 . S
C1639 C1643 1.400 . S
C1640 H1625 0.960 . S
C1640 H1626 0.960 . S
C1640 H1627 0.960 . S
C1640 C1639 1.524 . S
C1641 C1638 1.403 . S
C1641 C1642 1.392 . S
C1641 C1645 1.495 . S
C1642 C1641 1.392 . S
C1642 C1643 1.385 . S
C1642 C1644 1.478 . S
C1643 H1637 0.930 . S
C1643 C1639 1.400 . S
C1643 C1642 1.385 . S
C1644 C1642 1.478 . S
C1644 C1646 1.381 . S
C1644 C1650 1.383 . S
C1645 C1641 1.495 . S
C1645 H1651 0.959 . S
C1645 H1652 0.961 . S
C1645 H1653 0.960 . S
C1646 C1644 1.381 . S
C1646 C1647 1.394 . S
C1646 H1654 0.930 . S
C1647 C1646 1.394 . S
C1647 C1648 1.383 . S
C1647 H1655 0.929 . S
C1648 C1647 1.383 . S
C1648 C1649 1.377 . S
C1649 H1633 0.930 . S
C1649 C1648 1.377 . S
C1649 C1650 1.379 . S
C1650 H1634 0.931 . S
C1650 C1644 1.383 . S
C1650 C1649 1.379 . S
H1651 C1645 0.959 . S
H1652 C1645 0.961 . S
H1653 C1645 0.960 . S
H1654 C1646 0.930 . S
H1655 C1647 0.929 . S
H1656 C1664 0.929 . S
H1657 C1666 0.930 . S
H1658 C1668 0.930 . S
H1659 C1671 0.929 . S
H1660 C1674 0.930 . S
H1661 C1676 0.960 . S
H1662 C1676 0.960 . S
H1663 C1676 0.960 . S
C1664 H1656 0.929 . S
C1664 C1665 1.377 . S
C1664 C1666 1.384 . S
C1665 C1664 1.377 . S
C1665 C1671 1.390 . S
C1666 H1657 0.930 . S
C1666 C1664 1.384 . S
C1666 C1667 1.372 . S
C1667 C1666 1.372 . S
C1667 C1668 1.400 . S
C1667 C1672 1.490 . S
C1668 H1658 0.930 . S
C1668 C1667 1.400 . S
C1668 C1671 1.386 . S
H1669 C1685 0.930 . S
H1670 C1686 0.931 . S
C1671 H1659 0.929 . S
C1671 C1665 1.390 . S
C1671 C1668 1.386 . S
C1672 C1667 1.490 . S
C1672 C1674 1.395 . S
C1672 C1675 1.403 . S
H1673 C1679 0.930 . S
C1674 H1660 0.930 . S
C1674 C1672 1.395 . S
C1674 C1677 1.403 . S
C1675 C1672 1.403 . S
C1675 C1676 1.524 . S
C1675 C1679 1.400 . S
C1676 H1661 0.960 . S
C1676 H1662 0.960 . S
C1676 H1663 0.960 . S
C1676 C1675 1.524 . S
C1677 C1674 1.403 . S
C1677 C1678 1.392 . S
C1677 C1681 1.495 . S
C1678 C1677 1.392 . S
C1678 C1679 1.385 . S
C1678 C1680 1.478 . S
C1679 H1673 0.930 . S
C1679 C1675 1.400 . S
C1679 C1678 1.385 . S
C1680 C1678 1.478 . S
C1680 C1682 1.381 . S
C1680 C1686 1.383 . S
C1681 C1677 1.495 . S
C1681 H1687 0.959 . S
C1681 H1688 0.961 . S
C1681 H1689 0.960 . S
C1682 C1680 1.381 . S
C1682 C1683 1.394 . S
C1682 H1690 0.930 . S
C1683 C1682 1.394 . S
C1683 C1684 1.383 . S
C1683 H1691 0.929 . S
C1684 C1683 1.383 . S
C1684 C1685 1.377 . S
C1685 H1669 0.930 . S
C1685 C1684 1.377 . S
C1685 C1686 1.379 . S
C1686 H1670 0.931 . S
C1686 C1680 1.383 . S
C1686 C1685 1.379 . S
H1687 C1681 0.959 . S
H1688 C1681 0.961 . S
H1689 C1681 0.960 . S
H1690 C1682 0.930 . S
H1691 C1683 0.929 . S
H1692 C1700 0.929 . S
H1693 C1702 0.930 . S
H1694 C1704 0.930 . S
H1695 C1707 0.929 . S
H1696 C1710 0.930 . S
H1697 C1712 0.960 . S
H1698 C1712 0.960 . S
H1699 C1712 0.960 . S
C1700 H1692 0.929 . S
C1700 C1701 1.377 . S
C1700 C1702 1.384 . S
C1701 C1700 1.377 . S
C1701 C1707 1.390 . S
C1702 H1693 0.930 . S
C1702 C1700 1.384 . S
C1702 C1703 1.372 . S
C1703 C1702 1.372 . S
C1703 C1704 1.400 . S
C1703 C1708 1.490 . S
C1704 H1694 0.930 . S
C1704 C1703 1.400 . S
C1704 C1707 1.386 . S
H1705 C1721 0.930 . S
H1706 C1722 0.931 . S
C1707 H1695 0.929 . S
C1707 C1701 1.390 . S
C1707 C1704 1.386 . S
C1708 C1703 1.490 . S
C1708 C1710 1.395 . S
C1708 C1711 1.403 . S
H1709 C1715 0.930 . S
C1710 H1696 0.930 . S
C1710 C1708 1.395 . S
C1710 C1713 1.403 . S
C1711 C1708 1.403 . S
C1711 C1712 1.524 . S
C1711 C1715 1.400 . S
C1712 H1697 0.960 . S
C1712 H1698 0.960 . S
C1712 H1699 0.960 . S
C1712 C1711 1.524 . S
C1713 C1710 1.403 . S
C1713 C1714 1.392 . S
C1713 C1717 1.495 . S
C1714 C1713 1.392 . S
C1714 C1715 1.385 . S
C1714 C1716 1.478 . S
C1715 H1709 0.930 . S
C1715 C1711 1.400 . S
C1715 C1714 1.385 . S
C1716 C1714 1.478 . S
C1716 C1718 1.381 . S
C1716 C1722 1.383 . S
C1717 C1713 1.495 . S
C1717 H1723 0.959 . S
C1717 H1724 0.961 . S
C1717 H1725 0.960 . S
C1718 C1716 1.381 . S
C1718 C1719 1.394 . S
C1718 H1726 0.930 . S
C1719 C1718 1.394 . S
C1719 C1720 1.383 . S
C1719 H1727 0.929 . S
C1720 C1719 1.383 . S
C1720 C1721 1.377 . S
C1721 H1705 0.930 . S
C1721 C1720 1.377 . S
C1721 C1722 1.379 . S
C1722 H1706 0.931 . S
C1722 C1716 1.383 . S
C1722 C1721 1.379 . S
H1723 C1717 0.959 . S
H1724 C1717 0.961 . S
H1725 C1717 0.960 . S
H1726 C1718 0.930 . S
H1727 C1719 0.929 . S
H1728 C1736 0.929 . S
H1729 C1738 0.930 . S
H1730 C1740 0.930 . S
H1731 C1743 0.929 . S
H1732 C1746 0.930 . S
H1733 C1748 0.960 . S
H1734 C1748 0.960 . S
H1735 C1748 0.960 . S
C1736 H1728 0.929 . S
C1736 C1737 1.377 . S
C1736 C1738 1.384 . S
C1737 C1736 1.377 . S
C1737 C1743 1.390 . S
C1738 H1729 0.930 . S
C1738 C1736 1.384 . S
C1738 C1739 1.372 . S
C1739 C1738 1.372 . S
C1739 C1740 1.400 . S
C1739 C1744 1.490 . S
C1740 H1730 0.930 . S
C1740 C1739 1.400 . S
C1740 C1743 1.386 . S
H1741 C1757 0.930 . S
H1742 C1758 0.931 . S
C1743 H1731 0.929 . S
C1743 C1737 1.390 . S
C1743 C1740 1.386 . S
C1744 C1739 1.490 . S
C1744 C1746 1.395 . S
C1744 C1747 1.403 . S
H1745 C1751 0.930 . S
C1746 H1732 0.930 . S
C1746 C1744 1.395 . S
C1746 C1749 1.403 . S
C1747 C1744 1.403 . S
C1747 C1748 1.524 . S
C1747 C1751 1.400 . S
C1748 H1733 0.960 . S
C1748 H1734 0.960 . S
C1748 H1735 0.960 . S
C1748 C1747 1.524 . S
C1749 C1746 1.403 . S
C1749 C1750 1.392 . S
C1749 C1753 1.495 . S
C1750 C1749 1.392 . S
C1750 C1751 1.385 . S
C1750 C1752 1.478 . S
C1751 H1745 0.930 . S
C1751 C1747 1.400 . S
C1751 C1750 1.385 . S
C1752 C1750 1.478 . S
C1752 C1754 1.381 . S
C1752 C1758 1.383 . S
C1753 C1749 1.495 . S
C1753 H1759 0.959 . S
C1753 H1760 0.961 . S
C1753 H1761 0.960 . S
C1754 C1752 1.381 . S
C1754 C1755 1.394 . S
C1754 H1762 0.930 . S
C1755 C1754 1.394 . S
C1755 C1756 1.383 . S
C1755 H1763 0.929 . S
C1756 C1755 1.383 . S
C1756 C1757 1.377 . S
C1757 H1741 0.930 . S
C1757 C1756 1.377 . S
C1757 C1758 1.379 . S
C1758 H1742 0.931 . S
C1758 C1752 1.383 . S
C1758 C1757 1.379 . S
H1759 C1753 0.959 . S
H1760 C1753 0.961 . S
H1761 C1753 0.960 . S
H1762 C1754 0.930 . S
H1763 C1755 0.929 . S
H1764 C1772 0.929 . S
H1765 C1774 0.930 . S
H1766 C1776 0.930 . S
H1767 C1779 0.929 . S
H1768 C1782 0.930 . S
H1769 C1784 0.960 . S
H1770 C1784 0.960 . S
H1771 C1784 0.960 . S
C1772 H1764 0.929 . S
C1772 C1773 1.377 . S
C1772 C1774 1.384 . S
C1773 C1772 1.377 . S
C1773 C1779 1.390 . S
C1774 H1765 0.930 . S
C1774 C1772 1.384 . S
C1774 C1775 1.372 . S
C1775 C1774 1.372 . S
C1775 C1776 1.400 . S
C1775 C1780 1.490 . S
C1776 H1766 0.930 . S
C1776 C1775 1.400 . S
C1776 C1779 1.386 . S
H1777 C1793 0.930 . S
H1778 C1794 0.931 . S
C1779 H1767 0.929 . S
C1779 C1773 1.390 . S
C1779 C1776 1.386 . S
C1780 C1775 1.490 . S
C1780 C1782 1.395 . S
C1780 C1783 1.403 . S
H1781 C1787 0.930 . S
C1782 H1768 0.930 . S
C1782 C1780 1.395 . S
C1782 C1785 1.403 . S
C1783 C1780 1.403 . S
C1783 C1784 1.524 . S
C1783 C1787 1.400 . S
C1784 H1769 0.960 . S
C1784 H1770 0.960 . S
C1784 H1771 0.960 . S
C1784 C1783 1.524 . S
C1785 C1782 1.403 . S
C1785 C1786 1.392 . S
C1785 C1789 1.495 . S
C1786 C1785 1.392 . S
C1786 C1787 1.385 . S
C1786 C1788 1.478 . S
C1787 H1781 0.930 . S
C1787 C1783 1.400 . S
C1787 C1786 1.385 . S
C1788 C1786 1.478 . S
C1788 C1790 1.381 . S
C1788 C1794 1.383 . S
C1789 C1785 1.495 . S
C1789 H1795 0.959 . S
C1789 H1796 0.961 . S
C1789 H1797 0.960 . S
C1790 C1788 1.381 . S
C1790 C1791 1.394 . S
C1790 H1798 0.930 . S
C1791 C1790 1.394 . S
C1791 C1792 1.383 . S
C1791 H1799 0.929 . S
C1792 C1791 1.383 . S
C1792 C1793 1.377 . S
C1793 H1777 0.930 . S
C1793 C1792 1.377 . S
C1793 C1794 1.379 . S
C1794 H1778 0.931 . S
C1794 C1788 1.383 . S
C1794 C1793 1.379 . S
H1795 C1789 0.959 . S
H1796 C1789 0.961 . S
H1797 C1789 0.960 . S
H1798 C1790 0.930 . S
H1799 C1791 0.929 . S
H1800 C1808 0.929 . S
H1801 C1810 0.930 . S
H1802 C1812 0.930 . S
H1803 C1815 0.929 . S
H1804 C1818 0.930 . S
H1805 C1820 0.960 . S
H1806 C1820 0.960 . S
H1807 C1820 0.960 . S
C1808 H1800 0.929 . S
C1808 C1809 1.377 . S
C1808 C1810 1.384 . S
C1809 C1808 1.377 . S
C1809 C1815 1.390 . S
C1810 H1801 0.930 . S
C1810 C1808 1.384 . S
C1810 C1811 1.372 . S
C1811 C1810 1.372 . S
C1811 C1812 1.400 . S
C1811 C1816 1.490 . S
C1812 H1802 0.930 . S
C1812 C1811 1.400 . S
C1812 C1815 1.386 . S
H1813 C1829 0.930 . S
H1814 C1830 0.931 . S
C1815 H1803 0.929 . S
C1815 C1809 1.390 . S
C1815 C1812 1.386 . S
C1816 C1811 1.490 . S
C1816 C1818 1.395 . S
C1816 C1819 1.403 . S
H1817 C1823 0.930 . S
C1818 H1804 0.930 . S
C1818 C1816 1.395 . S
C1818 C1821 1.403 . S
C1819 C1816 1.403 . S
C1819 C1820 1.524 . S
C1819 C1823 1.400 . S
C1820 H1805 0.960 . S
C1820 H1806 0.960 . S
C1820 H1807 0.960 . S
C1820 C1819 1.524 . S
C1821 C1818 1.403 . S
C1821 C1822 1.392 . S
C1821 C1825 1.495 . S
C1822 C1821 1.392 . S
C1822 C1823 1.385 . S
C1822 C1824 1.478 . S
C1823 H1817 0.930 . S
C1823 C1819 1.400 . S
C1823 C1822 1.385 . S
C1824 C1822 1.478 . S
C1824 C1826 1.381 . S
C1824 C1830 1.383 . S
C1825 C1821 1.495 . S
C1825 H1831 0.959 . S
C1825 H1832 0.961 . S
C1825 H1833 0.960 . S
C1826 C1824 1.381 . S
C1826 C1827 1.394 . S
C1826 H1834 0.930 . S
C1827 C1826 1.394 . S
C1827 C1828 1.383 . S
C1827 H1835 0.929 . S
C1828 C1827 1.383 . S
C1828 C1829 1.377 . S
C1829 H1813 0.930 . S
C1829 C1828 1.377 . S
C1829 C1830 1.379 . S
C1830 H1814 0.931 . S
C1830 C1824 1.383 . S
C1830 C1829 1.379 . S
H1831 C1825 0.959 . S
H1832 C1825 0.961 . S
H1833 C1825 0.960 . S
H1834 C1826 0.930 . S
H1835 C1827 0.929 . S
H1836 C1844 0.929 . S
H1837 C1846 0.930 . S
H1838 C1848 0.930 . S
H1839 C1851 0.929 . S
H1840 C1854 0.930 . S
H1841 C1856 0.960 . S
H1842 C1856 0.960 . S
H1843 C1856 0.960 . S
C1844 H1836 0.929 . S
C1844 C1845 1.377 . S
C1844 C1846 1.384 . S
C1845 C1844 1.377 . S
C1845 C1851 1.390 . S
C1846 H1837 0.930 . S
C1846 C1844 1.384 . S
C1846 C1847 1.372 . S
C1847 C1846 1.372 . S
C1847 C1848 1.400 . S
C1847 C1852 1.490 . S
C1848 H1838 0.930 . S
C1848 C1847 1.400 . S
C1848 C1851 1.386 . S
H1849 C1865 0.930 . S
H1850 C1866 0.931 . S
C1851 H1839 0.929 . S
C1851 C1845 1.390 . S
C1851 C1848 1.386 . S
C1852 C1847 1.490 . S
C1852 C1854 1.395 . S
C1852 C1855 1.403 . S
H1853 C1859 0.930 . S
C1854 H1840 0.930 . S
C1854 C1852 1.395 . S
C1854 C1857 1.403 . S
C1855 C1852 1.403 . S
C1855 C1856 1.524 . S
C1855 C1859 1.400 . S
C1856 H1841 0.960 . S
C1856 H1842 0.960 . S
C1856 H1843 0.960 . S
C1856 C1855 1.524 . S
C1857 C1854 1.403 . S
C1857 C1858 1.392 . S
C1857 C1861 1.495 . S
C1858 C1857 1.392 . S
C1858 C1859 1.385 . S
C1858 C1860 1.478 . S
C1859 H1853 0.930 . S
C1859 C1855 1.400 . S
C1859 C1858 1.385 . S
C1860 C1858 1.478 . S
C1860 C1862 1.381 . S
C1860 C1866 1.383 . S
C1861 C1857 1.495 . S
C1861 H1867 0.959 . S
C1861 H1868 0.961 . S
C1861 H1869 0.960 . S
C1862 C1860 1.381 . S
C1862 C1863 1.394 . S
C1862 H1870 0.930 . S
C1863 C1862 1.394 . S
C1863 C1864 1.383 . S
C1863 H1871 0.929 . S
C1864 C1863 1.383 . S
C1864 C1865 1.377 . S
C1865 H1849 0.930 . S
C1865 C1864 1.377 . S
C1865 C1866 1.379 . S
C1866 H1850 0.931 . S
C1866 C1860 1.383 . S
C1866 C1865 1.379 . S
H1867 C1861 0.959 . S
H1868 C1861 0.961 . S
H1869 C1861 0.960 . S
H1870 C1862 0.930 . S
H1871 C1863 0.929 . S
H1872 C1880 0.929 . S
H1873 C1882 0.930 . S
H1874 C1884 0.930 . S
H1875 C1887 0.929 . S
H1876 C1890 0.930 . S
H1877 C1892 0.960 . S
H1878 C1892 0.960 . S
H1879 C1892 0.960 . S
C1880 H1872 0.929 . S
C1880 C1881 1.377 . S
C1880 C1882 1.384 . S
C1881 C1880 1.377 . S
C1881 C1887 1.390 . S
C1882 H1873 0.930 . S
C1882 C1880 1.384 . S
C1882 C1883 1.372 . S
C1883 C1882 1.372 . S
C1883 C1884 1.400 . S
C1883 C1888 1.490 . S
C1884 H1874 0.930 . S
C1884 C1883 1.400 . S
C1884 C1887 1.386 . S
H1885 C1901 0.930 . S
H1886 C1902 0.931 . S
C1887 H1875 0.929 . S
C1887 C1881 1.390 . S
C1887 C1884 1.386 . S
C1888 C1883 1.490 . S
C1888 C1890 1.395 . S
C1888 C1891 1.403 . S
H1889 C1895 0.930 . S
C1890 H1876 0.930 . S
C1890 C1888 1.395 . S
C1890 C1893 1.403 . S
C1891 C1888 1.403 . S
C1891 C1892 1.524 . S
C1891 C1895 1.400 . S
C1892 H1877 0.960 . S
C1892 H1878 0.960 . S
C1892 H1879 0.960 . S
C1892 C1891 1.524 . S
C1893 C1890 1.403 . S
C1893 C1894 1.392 . S
C1893 C1897 1.495 . S
C1894 C1893 1.392 . S
C1894 C1895 1.385 . S
C1894 C1896 1.478 . S
C1895 H1889 0.930 . S
C1895 C1891 1.400 . S
C1895 C1894 1.385 . S
C1896 C1894 1.478 . S
C1896 C1898 1.381 . S
C1896 C1902 1.383 . S
C1897 C1893 1.495 . S
C1897 H1903 0.959 . S
C1897 H1904 0.961 . S
C1897 H1905 0.960 . S
C1898 C1896 1.381 . S
C1898 C1899 1.394 . S
C1898 H1906 0.930 . S
C1899 C1898 1.394 . S
C1899 C1900 1.383 . S
C1899 H1907 0.929 . S
C1900 C1899 1.383 . S
C1900 C1901 1.377 . S
C1901 H1885 0.930 . S
C1901 C1900 1.377 . S
C1901 C1902 1.379 . S
C1902 H1886 0.931 . S
C1902 C1896 1.383 . S
C1902 C1901 1.379 . S
H1903 C1897 0.959 . S
H1904 C1897 0.961 . S
H1905 C1897 0.960 . S
H1906 C1898 0.930 . S
H1907 C1899 0.929 . S
H1908 C1916 0.929 . S
H1909 C1918 0.930 . S
H1910 C1920 0.930 . S
H1911 C1923 0.929 . S
H1912 C1926 0.930 . S
H1913 C1928 0.960 . S
H1914 C1928 0.960 . S
H1915 C1928 0.960 . S
C1916 H1908 0.929 . S
C1916 C1917 1.377 . S
C1916 C1918 1.384 . S
C1917 C1916 1.377 . S
C1917 C1923 1.390 . S
C1918 H1909 0.930 . S
C1918 C1916 1.384 . S
C1918 C1919 1.372 . S
C1919 C1918 1.372 . S
C1919 C1920 1.400 . S
C1919 C1924 1.490 . S
C1920 H1910 0.930 . S
C1920 C1919 1.400 . S
C1920 C1923 1.386 . S
H1921 C1937 0.930 . S
H1922 C1938 0.931 . S
C1923 H1911 0.929 . S
C1923 C1917 1.390 . S
C1923 C1920 1.386 . S
C1924 C1919 1.490 . S
C1924 C1926 1.395 . S
C1924 C1927 1.403 . S
H1925 C1931 0.930 . S
C1926 H1912 0.930 . S
C1926 C1924 1.395 . S
C1926 C1929 1.403 . S
C1927 C1924 1.403 . S
C1927 C1928 1.524 . S
C1927 C1931 1.400 . S
C1928 H1913 0.960 . S
C1928 H1914 0.960 . S
C1928 H1915 0.960 . S
C1928 C1927 1.524 . S
C1929 C1926 1.403 . S
C1929 C1930 1.392 . S
C1929 C1933 1.495 . S
C1930 C1929 1.392 . S
C1930 C1931 1.385 . S
C1930 C1932 1.478 . S
C1931 H1925 0.930 . S
C1931 C1927 1.400 . S
C1931 C1930 1.385 . S
C1932 C1930 1.478 . S
C1932 C1934 1.381 . S
C1932 C1938 1.383 . S
C1933 C1929 1.495 . S
C1933 H1939 0.959 . S
C1933 H1940 0.961 . S
C1933 H1941 0.960 . S
C1934 C1932 1.381 . S
C1934 C1935 1.394 . S
C1934 H1942 0.930 . S
C1935 C1934 1.394 . S
C1935 C1936 1.383 . S
C1935 H1943 0.929 . S
C1936 C1935 1.383 . S
C1936 C1937 1.377 . S
C1937 H1921 0.930 . S
C1937 C1936 1.377 . S
C1937 C1938 1.379 . S
C1938 H1922 0.931 . S
C1938 C1932 1.383 . S
C1938 C1937 1.379 . S
H1939 C1933 0.959 . S
H1940 C1933 0.961 . S
H1941 C1933 0.960 . S
H1942 C1934 0.930 . S
H1943 C1935 0.929 . S
H1944 C1952 0.929 . S
H1945 C1954 0.930 . S
H1946 C1956 0.930 . S
H1947 C1959 0.929 . S
H1948 C1962 0.930 . S
H1949 C1964 0.960 . S
H1950 C1964 0.960 . S
H1951 C1964 0.960 . S
C1952 H1944 0.929 . S
C1952 C1953 1.377 . S
C1952 C1954 1.384 . S
C1953 C1952 1.377 . S
C1953 C1959 1.390 . S
C1954 H1945 0.930 . S
C1954 C1952 1.384 . S
C1954 C1955 1.372 . S
C1955 C1954 1.372 . S
C1955 C1956 1.400 . S
C1955 C1960 1.490 . S
C1956 H1946 0.930 . S
C1956 C1955 1.400 . S
C1956 C1959 1.386 . S
H1957 C1973 0.930 . S
H1958 C1974 0.931 . S
C1959 H1947 0.929 . S
C1959 C1953 1.390 . S
C1959 C1956 1.386 . S
C1960 C1955 1.490 . S
C1960 C1962 1.395 . S
C1960 C1963 1.403 . S
H1961 C1967 0.930 . S
C1962 H1948 0.930 . S
C1962 C1960 1.395 . S
C1962 C1965 1.403 . S
C1963 C1960 1.403 . S
C1963 C1964 1.524 . S
C1963 C1967 1.400 . S
C1964 H1949 0.960 . S
C1964 H1950 0.960 . S
C1964 H1951 0.960 . S
C1964 C1963 1.524 . S
C1965 C1962 1.403 . S
C1965 C1966 1.392 . S
C1965 C1969 1.495 . S
C1966 C1965 1.392 . S
C1966 C1967 1.385 . S
C1966 C1968 1.478 . S
C1967 H1961 0.930 . S
C1967 C1963 1.400 . S
C1967 C1966 1.385 . S
C1968 C1966 1.478 . S
C1968 C1970 1.381 . S
C1968 C1974 1.383 . S
C1969 C1965 1.495 . S
C1969 H1975 0.959 . S
C1969 H1976 0.961 . S
C1969 H1977 0.960 . S
C1970 C1968 1.381 . S
C1970 C1971 1.394 . S
C1970 H1978 0.930 . S
C1971 C1970 1.394 . S
C1971 C1972 1.383 . S
C1971 H1979 0.929 . S
C1972 C1971 1.383 . S
C1972 C1973 1.377 . S
C1973 H1957 0.930 . S
C1973 C1972 1.377 . S
C1973 C1974 1.379 . S
C1974 H1958 0.931 . S
C1974 C1968 1.383 . S
C1974 C1973 1.379 . S
H1975 C1969 0.959 . S
H1976 C1969 0.961 . S
H1977 C1969 0.960 . S
H1978 C1970 0.930 . S
H1979 C1971 0.929 . S
H1980 C1988 0.929 . S
H1981 C1990 0.930 . S
H1982 C1992 0.930 . S
H1983 C1995 0.929 . S
H1984 C1998 0.930 . S
H1985 C2000 0.960 . S
H1986 C2000 0.960 . S
H1987 C2000 0.960 . S
C1988 H1980 0.929 . S
C1988 C1989 1.377 . S
C1988 C1990 1.384 . S
C1989 C1988 1.377 . S
C1989 C1995 1.390 . S
C1990 H1981 0.930 . S
C1990 C1988 1.384 . S
C1990 C1991 1.372 . S
C1991 C1990 1.372 . S
C1991 C1992 1.400 . S
C1991 C1996 1.490 . S
C1992 H1982 0.930 . S
C1992 C1991 1.400 . S
C1992 C1995 1.386 . S
H1993 C2009 0.930 . S
H1994 C2010 0.931 . S
C1995 H1983 0.929 . S
C1995 C1989 1.390 . S
C1995 C1992 1.386 . S
C1996 C1991 1.490 . S
C1996 C1998 1.395 . S
C1996 C1999 1.403 . S
H1997 C2003 0.930 . S
C1998 H1984 0.930 . S
C1998 C1996 1.395 . S
C1998 C2001 1.403 . S
C1999 C1996 1.403 . S
C1999 C2000 1.524 . S
C1999 C2003 1.400 . S
C2000 H1985 0.960 . S
C2000 H1986 0.960 . S
C2000 H1987 0.960 . S
C2000 C1999 1.524 . S
C2001 C1998 1.403 . S
C2001 C2002 1.392 . S
C2001 C2005 1.495 . S
C2002 C2001 1.392 . S
C2002 C2003 1.385 . S
C2002 C2004 1.478 . S
C2003 H1997 0.930 . S
C2003 C1999 1.400 . S
C2003 C2002 1.385 . S
C2004 C2002 1.478 . S
C2004 C2006 1.381 . S
C2004 C2010 1.383 . S
C2005 C2001 1.495 . S
C2005 H2011 0.959 . S
C2005 H2012 0.961 . S
C2005 H2013 0.960 . S
C2006 C2004 1.381 . S
C2006 C2007 1.394 . S
C2006 H2014 0.930 . S
C2007 C2006 1.394 . S
C2007 C2008 1.383 . S
C2007 H2015 0.929 . S
C2008 C2007 1.383 . S
C2008 C2009 1.377 . S
C2009 H1993 0.930 . S
C2009 C2008 1.377 . S
C2009 C2010 1.379 . S
C2010 H1994 0.931 . S
C2010 C2004 1.383 . S
C2010 C2009 1.379 . S
H2011 C2005 0.959 . S
H2012 C2005 0.961 . S
H2013 C2005 0.960 . S
H2014 C2006 0.930 . S
H2015 C2007 0.929 . S
H2016 C2024 0.929 . S
H2017 C2026 0.930 . S
H2018 C2028 0.930 . S
H2019 C2031 0.929 . S
H2020 C2034 0.930 . S
H2021 C2036 0.960 . S
H2022 C2036 0.960 . S
H2023 C2036 0.960 . S
C2024 H2016 0.929 . S
C2024 C2025 1.377 . S
C2024 C2026 1.384 . S
C2025 C2024 1.377 . S
C2025 C2031 1.390 . S
C2026 H2017 0.930 . S
C2026 C2024 1.384 . S
C2026 C2027 1.372 . S
C2027 C2026 1.372 . S
C2027 C2028 1.400 . S
C2027 C2032 1.490 . S
C2028 H2018 0.930 . S
C2028 C2027 1.400 . S
C2028 C2031 1.386 . S
H2029 C2045 0.930 . S
H2030 C2046 0.931 . S
C2031 H2019 0.929 . S
C2031 C2025 1.390 . S
C2031 C2028 1.386 . S
C2032 C2027 1.490 . S
C2032 C2034 1.395 . S
C2032 C2035 1.403 . S
H2033 C2039 0.930 . S
C2034 H2020 0.930 . S
C2034 C2032 1.395 . S
C2034 C2037 1.403 . S
C2035 C2032 1.403 . S
C2035 C2036 1.524 . S
C2035 C2039 1.400 . S
C2036 H2021 0.960 . S
C2036 H2022 0.960 . S
C2036 H2023 0.960 . S
C2036 C2035 1.524 . S
C2037 C2034 1.403 . S
C2037 C2038 1.392 . S
C2037 C2041 1.495 . S
C2038 C2037 1.392 . S
C2038 C2039 1.385 . S
C2038 C2040 1.478 . S
C2039 H2033 0.930 . S
C2039 C2035 1.400 . S
C2039 C2038 1.385 . S
C2040 C2038 1.478 . S
C2040 C2042 1.381 . S
C2040 C2046 1.383 . S
C2041 C2037 1.495 . S
C2041 H2047 0.959 . S
C2041 H2048 0.961 . S
C2041 H2049 0.960 . S
C2042 C2040 1.381 . S
C2042 C2043 1.394 . S
C2042 H2050 0.930 . S
C2043 C2042 1.394 . S
C2043 C2044 1.383 . S
C2043 H2051 0.929 . S
C2044 C2043 1.383 . S
C2044 C2045 1.377 . S
C2045 H2029 0.930 . S
C2045 C2044 1.377 . S
C2045 C2046 1.379 . S
C2046 H2030 0.931 . S
C2046 C2040 1.383 . S
C2046 C2045 1.379 . S
H2047 C2041 0.959 . S
H2048 C2041 0.961 . S
H2049 C2041 0.960 . S
H2050 C2042 0.930 . S
H2051 C2043 0.929 . S
H2052 C2060 0.929 . S
H2053 C2062 0.930 . S
H2054 C2064 0.930 . S
H2055 C2067 0.929 . S
H2056 C2070 0.930 . S
H2057 C2072 0.960 . S
H2058 C2072 0.960 . S
H2059 C2072 0.960 . S
C2060 H2052 0.929 . S
C2060 C2061 1.377 . S
C2060 C2062 1.384 . S
C2061 C2060 1.377 . S
C2061 C2067 1.390 . S
C2062 H2053 0.930 . S
C2062 C2060 1.384 . S
C2062 C2063 1.372 . S
C2063 C2062 1.372 . S
C2063 C2064 1.400 . S
C2063 C2068 1.490 . S
C2064 H2054 0.930 . S
C2064 C2063 1.400 . S
C2064 C2067 1.386 . S
H2065 C2081 0.930 . S
H2066 C2082 0.931 . S
C2067 H2055 0.929 . S
C2067 C2061 1.390 . S
C2067 C2064 1.386 . S
C2068 C2063 1.490 . S
C2068 C2070 1.395 . S
C2068 C2071 1.403 . S
H2069 C2075 0.930 . S
C2070 H2056 0.930 . S
C2070 C2068 1.395 . S
C2070 C2073 1.403 . S
C2071 C2068 1.403 . S
C2071 C2072 1.524 . S
C2071 C2075 1.400 . S
C2072 H2057 0.960 . S
C2072 H2058 0.960 . S
C2072 H2059 0.960 . S
C2072 C2071 1.524 . S
C2073 C2070 1.403 . S
C2073 C2074 1.392 . S
C2073 C2077 1.495 . S
C2074 C2073 1.392 . S
C2074 C2075 1.385 . S
C2074 C2076 1.478 . S
C2075 H2069 0.930 . S
C2075 C2071 1.400 . S
C2075 C2074 1.385 . S
C2076 C2074 1.478 . S
C2076 C2078 1.381 . S
C2076 C2082 1.383 . S
C2077 C2073 1.495 . S
C2077 H2083 0.959 . S
C2077 H2084 0.961 . S
C2077 H2085 0.960 . S
C2078 C2076 1.381 . S
C2078 C2079 1.394 . S
C2078 H2086 0.930 . S
C2079 C2078 1.394 . S
C2079 C2080 1.383 . S
C2079 H2087 0.929 . S
C2080 C2079 1.383 . S
C2080 C2081 1.377 . S
C2081 H2065 0.930 . S
C2081 C2080 1.377 . S
C2081 C2082 1.379 . S
C2082 H2066 0.931 . S
C2082 C2076 1.383 . S
C2082 C2081 1.379 . S
H2083 C2077 0.959 . S
H2084 C2077 0.961 . S
H2085 C2077 0.960 . S
H2086 C2078 0.930 . S
H2087 C2079 0.929 . S
H2088 C2096 0.929 . S
H2089 C2098 0.930 . S
H2090 C2100 0.930 . S
H2091 C2103 0.929 . S
H2092 C2106 0.930 . S
H2093 C2108 0.960 . S
H2094 C2108 0.960 . S
H2095 C2108 0.960 . S
C2096 H2088 0.929 . S
C2096 C2097 1.377 . S
C2096 C2098 1.384 . S
C2097 C2096 1.377 . S
C2097 C2103 1.390 . S
C2098 H2089 0.930 . S
C2098 C2096 1.384 . S
C2098 C2099 1.372 . S
C2099 C2098 1.372 . S
C2099 C2100 1.400 . S
C2099 C2104 1.490 . S
C2100 H2090 0.930 . S
C2100 C2099 1.400 . S
C2100 C2103 1.386 . S
H2101 C2117 0.930 . S
H2102 C2118 0.931 . S
C2103 H2091 0.929 . S
C2103 C2097 1.390 . S
C2103 C2100 1.386 . S
C2104 C2099 1.490 . S
C2104 C2106 1.395 . S
C2104 C2107 1.403 . S
H2105 C2111 0.930 . S
C2106 H2092 0.930 . S
C2106 C2104 1.395 . S
C2106 C2109 1.403 . S
C2107 C2104 1.403 . S
C2107 C2108 1.524 . S
C2107 C2111 1.400 . S
C2108 H2093 0.960 . S
C2108 H2094 0.960 . S
C2108 H2095 0.960 . S
C2108 C2107 1.524 . S
C2109 C2106 1.403 . S
C2109 C2110 1.392 . S
C2109 C2113 1.495 . S
C2110 C2109 1.392 . S
C2110 C2111 1.385 . S
C2110 C2112 1.478 . S
C2111 H2105 0.930 . S
C2111 C2107 1.400 . S
C2111 C2110 1.385 . S
C2112 C2110 1.478 . S
C2112 C2114 1.381 . S
C2112 C2118 1.383 . S
C2113 C2109 1.495 . S
C2113 H2119 0.959 . S
C2113 H2120 0.961 . S
C2113 H2121 0.960 . S
C2114 C2112 1.381 . S
C2114 C2115 1.394 . S
C2114 H2122 0.930 . S
C2115 C2114 1.394 . S
C2115 C2116 1.383 . S
C2115 H2123 0.929 . S
C2116 C2115 1.383 . S
C2116 C2117 1.377 . S
C2117 H2101 0.930 . S
C2117 C2116 1.377 . S
C2117 C2118 1.379 . S
C2118 H2102 0.931 . S
C2118 C2112 1.383 . S
C2118 C2117 1.379 . S
H2119 C2113 0.959 . S
H2120 C2113 0.961 . S
H2121 C2113 0.960 . S
H2122 C2114 0.930 . S
H2123 C2115 0.929 . S
H2124 C2132 0.929 . S
H2125 C2134 0.930 . S
H2126 C2136 0.930 . S
H2127 C2139 0.929 . S
H2128 C2142 0.930 . S
H2129 C2144 0.960 . S
H2130 C2144 0.960 . S
H2131 C2144 0.960 . S
C2132 H2124 0.929 . S
C2132 C2133 1.377 . S
C2132 C2134 1.384 . S
C2133 C2132 1.377 . S
C2133 C2139 1.390 . S
C2134 H2125 0.930 . S
C2134 C2132 1.384 . S
C2134 C2135 1.372 . S
C2135 C2134 1.372 . S
C2135 C2136 1.400 . S
C2135 C2140 1.490 . S
C2136 H2126 0.930 . S
C2136 C2135 1.400 . S
C2136 C2139 1.386 . S
H2137 C2153 0.930 . S
H2138 C2154 0.931 . S
C2139 H2127 0.929 . S
C2139 C2133 1.390 . S
C2139 C2136 1.386 . S
C2140 C2135 1.490 . S
C2140 C2142 1.395 . S
C2140 C2143 1.403 . S
H2141 C2147 0.930 . S
C2142 H2128 0.930 . S
C2142 C2140 1.395 . S
C2142 C2145 1.403 . S
C2143 C2140 1.403 . S
C2143 C2144 1.524 . S
C2143 C2147 1.400 . S
C2144 H2129 0.960 . S
C2144 H2130 0.960 . S
C2144 H2131 0.960 . S
C2144 C2143 1.524 . S
C2145 C2142 1.403 . S
C2145 C2146 1.392 . S
C2145 C2149 1.495 . S
C2146 C2145 1.392 . S
C2146 C2147 1.385 . S
C2146 C2148 1.478 . S
C2147 H2141 0.930 . S
C2147 C2143 1.400 . S
C2147 C2146 1.385 . S
C2148 C2146 1.478 . S
C2148 C2150 1.381 . S
C2148 C2154 1.383 . S
C2149 C2145 1.495 . S
C2149 H2155 0.959 . S
C2149 H2156 0.961 . S
C2149 H2157 0.960 . S
C2150 C2148 1.381 . S
C2150 C2151 1.394 . S
C2150 H2158 0.930 . S
C2151 C2150 1.394 . S
C2151 C2152 1.383 . S
C2151 H2159 0.929 . S
C2152 C2151 1.383 . S
C2152 C2153 1.377 . S
C2153 H2137 0.930 . S
C2153 C2152 1.377 . S
C2153 C2154 1.379 . S
C2154 H2138 0.931 . S
C2154 C2148 1.383 . S
C2154 C2153 1.379 . S
H2155 C2149 0.959 . S
H2156 C2149 0.961 . S
H2157 C2149 0.960 . S
H2158 C2150 0.930 . S
H2159 C2151 0.929 . S
H2160 C2168 0.929 . S
H2161 C2170 0.930 . S
H2162 C2172 0.930 . S
H2163 C2175 0.929 . S
H2164 C2178 0.930 . S
H2165 C2180 0.960 . S
H2166 C2180 0.960 . S
H2167 C2180 0.960 . S
C2168 H2160 0.929 . S
C2168 C2169 1.377 . S
C2168 C2170 1.384 . S
C2169 C2168 1.377 . S
C2169 C2175 1.390 . S
C2170 H2161 0.930 . S
C2170 C2168 1.384 . S
C2170 C2171 1.372 . S
C2171 C2170 1.372 . S
C2171 C2172 1.400 . S
C2171 C2176 1.490 . S
C2172 H2162 0.930 . S
C2172 C2171 1.400 . S
C2172 C2175 1.386 . S
H2173 C2189 0.930 . S
H2174 C2190 0.931 . S
C2175 H2163 0.929 . S
C2175 C2169 1.390 . S
C2175 C2172 1.386 . S
C2176 C2171 1.490 . S
C2176 C2178 1.395 . S
C2176 C2179 1.403 . S
H2177 C2183 0.930 . S
C2178 H2164 0.930 . S
C2178 C2176 1.395 . S
C2178 C2181 1.403 . S
C2179 C2176 1.403 . S
C2179 C2180 1.524 . S
C2179 C2183 1.400 . S
C2180 H2165 0.960 . S
C2180 H2166 0.960 . S
C2180 H2167 0.960 . S
C2180 C2179 1.524 . S
C2181 C2178 1.403 . S
C2181 C2182 1.392 . S
C2181 C2185 1.495 . S
C2182 C2181 1.392 . S
C2182 C2183 1.385 . S
C2182 C2184 1.478 . S
C2183 H2177 0.930 . S
C2183 C2179 1.400 . S
C2183 C2182 1.385 . S
C2184 C2182 1.478 . S
C2184 C2186 1.381 . S
C2184 C2190 1.383 . S
C2185 C2181 1.495 . S
C2185 H2191 0.959 . S
C2185 H2192 0.961 . S
C2185 H2193 0.960 . S
C2186 C2184 1.381 . S
C2186 C2187 1.394 . S
C2186 H2194 0.930 . S
C2187 C2186 1.394 . S
C2187 C2188 1.383 . S
C2187 H2195 0.929 . S
C2188 C2187 1.383 . S
C2188 C2189 1.377 . S
C2189 H2173 0.930 . S
C2189 C2188 1.377 . S
C2189 C2190 1.379 . S
C2190 H2174 0.931 . S
C2190 C2184 1.383 . S
C2190 C2189 1.379 . S
H2191 C2185 0.959 . S
H2192 C2185 0.961 . S
H2193 C2185 0.960 . S
H2194 C2186 0.930 . S
H2195 C2187 0.929 . S
H2196 C2204 0.929 . S
H2197 C2206 0.930 1_655 S
H2198 C2208 0.930 . S
H2199 C2211 0.929 . S
H2200 C2214 0.930 . S
H2201 C2216 0.960 . S
H2202 C2216 0.960 . S
H2203 C2216 0.960 1_455 S
C2204 H2196 0.929 . S
C2204 C2205 1.377 . S
C2204 C2206 1.384 . S
C2205 C2204 1.377 . S
C2205 C2211 1.390 . S
C2206 H2197 0.930 1_455 S
C2206 C2204 1.384 . S
C2206 C2207 1.372 . S
C2207 C2206 1.372 . S
C2207 C2208 1.400 . S
C2207 C2212 1.490 . S
C2208 H2198 0.930 . S
C2208 C2207 1.400 . S
C2208 C2211 1.386 . S
H2209 C2225 0.930 . S
H2210 C2226 0.931 1_455 S
C2211 H2199 0.929 . S
C2211 C2205 1.390 . S
C2211 C2208 1.386 . S
C2212 C2207 1.490 . S
C2212 C2214 1.395 . S
C2212 C2215 1.403 1_455 S
H2213 C2219 0.930 . S
C2214 H2200 0.930 . S
C2214 C2212 1.395 . S
C2214 C2217 1.403 . S
C2215 C2212 1.403 1_655 S
C2215 C2216 1.524 . S
C2215 C2219 1.400 . S
C2216 H2201 0.960 . S
C2216 H2202 0.960 . S
C2216 H2203 0.960 1_655 S
C2216 C2215 1.524 . S
C2217 C2214 1.403 . S
C2217 C2218 1.392 1_455 S
C2217 C2221 1.495 . S
C2218 C2217 1.392 1_655 S
C2218 C2219 1.385 . S
C2218 C2220 1.478 . S
C2219 H2213 0.930 . S
C2219 C2215 1.400 . S
C2219 C2218 1.385 . S
C2220 C2218 1.478 . S
C2220 C2222 1.381 . S
C2220 C2226 1.383 . S
C2221 C2217 1.495 . S
C2221 H2227 0.959 . S
C2221 H2228 0.961 . S
C2221 H2229 0.960 1_455 S
C2222 C2220 1.381 . S
C2222 C2223 1.394 . S
C2222 H2230 0.930 . S
C2223 C2222 1.394 . S
C2223 C2224 1.383 . S
C2223 H2231 0.929 . S
C2224 C2223 1.383 . S
C2224 C2225 1.377 . S
C2225 H2209 0.930 . S
C2225 C2224 1.377 . S
C2225 C2226 1.379 . S
C2226 H2210 0.931 1_655 S
C2226 C2220 1.383 . S
C2226 C2225 1.379 . S
H2227 C2221 0.959 . S
H2228 C2221 0.961 . S
H2229 C2221 0.960 1_655 S
H2230 C2222 0.930 . S
H2231 C2223 0.929 . S
H2232 C2240 0.929 . S
H2233 C2242 0.930 . S
H2234 C2244 0.930 . S
H2235 C2247 0.929 . S
H2236 C2250 0.930 . S
H2237 C2252 0.960 . S
H2238 C2252 0.960 . S
H2239 C2252 0.960 . S
C2240 H2232 0.929 . S
C2240 C2241 1.377 . S
C2240 C2242 1.384 . S
C2241 C2240 1.377 . S
C2241 C2247 1.390 . S
C2242 H2233 0.930 . S
C2242 C2240 1.384 . S
C2242 C2243 1.372 . S
C2243 C2242 1.372 . S
C2243 C2244 1.400 . S
C2243 C2248 1.490 . S
C2244 H2234 0.930 . S
C2244 C2243 1.400 . S
C2244 C2247 1.386 . S
H2245 C2261 0.930 . S
H2246 C2262 0.931 . S
C2247 H2235 0.929 . S
C2247 C2241 1.390 . S
C2247 C2244 1.386 . S
C2248 C2243 1.490 . S
C2248 C2250 1.395 . S
C2248 C2251 1.403 . S
H2249 C2255 0.930 . S
C2250 H2236 0.930 . S
C2250 C2248 1.395 . S
C2250 C2253 1.403 . S
C2251 C2248 1.403 . S
C2251 C2252 1.524 . S
C2251 C2255 1.400 . S
C2252 H2237 0.960 . S
C2252 H2238 0.960 . S
C2252 H2239 0.960 . S
C2252 C2251 1.524 . S
C2253 C2250 1.403 . S
C2253 C2254 1.392 . S
C2253 C2257 1.495 . S
C2254 C2253 1.392 . S
C2254 C2255 1.385 . S
C2254 C2256 1.478 . S
C2255 H2249 0.930 . S
C2255 C2251 1.400 . S
C2255 C2254 1.385 . S
C2256 C2254 1.478 . S
C2256 C2258 1.381 . S
C2256 C2262 1.383 . S
C2257 C2253 1.495 . S
C2257 H2263 0.959 . S
C2257 H2264 0.961 . S
C2257 H2265 0.960 . S
C2258 C2256 1.381 . S
C2258 C2259 1.394 . S
C2258 H2266 0.930 . S
C2259 C2258 1.394 . S
C2259 C2260 1.383 . S
C2259 H2267 0.929 . S
C2260 C2259 1.383 . S
C2260 C2261 1.377 . S
C2261 H2245 0.930 . S
C2261 C2260 1.377 . S
C2261 C2262 1.379 . S
C2262 H2246 0.931 . S
C2262 C2256 1.383 . S
C2262 C2261 1.379 . S
H2263 C2257 0.959 . S
H2264 C2257 0.961 . S
H2265 C2257 0.960 . S
H2266 C2258 0.930 . S
H2267 C2259 0.929 . S
H2268 C2276 0.929 . S
H2269 C2278 0.930 . S
H2270 C2280 0.930 . S
H2271 C2283 0.929 . S
H2272 C2286 0.930 . S
H2273 C2288 0.960 . S
H2274 C2288 0.960 . S
H2275 C2288 0.960 . S
C2276 H2268 0.929 . S
C2276 C2277 1.377 . S
C2276 C2278 1.384 . S
C2277 C2276 1.377 . S
C2277 C2283 1.390 . S
C2278 H2269 0.930 . S
C2278 C2276 1.384 . S
C2278 C2279 1.372 . S
C2279 C2278 1.372 . S
C2279 C2280 1.400 . S
C2279 C2284 1.490 . S
C2280 H2270 0.930 . S
C2280 C2279 1.400 . S
C2280 C2283 1.386 . S
H2281 C2297 0.930 . S
H2282 C2298 0.931 . S
C2283 H2271 0.929 . S
C2283 C2277 1.390 . S
C2283 C2280 1.386 . S
C2284 C2279 1.490 . S
C2284 C2286 1.395 . S
C2284 C2287 1.403 1_565 S
H2285 C2291 0.930 . S
C2286 H2272 0.930 . S
C2286 C2284 1.395 . S
C2286 C2289 1.403 . S
C2287 C2284 1.403 1_545 S
C2287 C2288 1.524 . S
C2287 C2291 1.400 . S
C2288 H2273 0.960 . S
C2288 H2274 0.960 . S
C2288 H2275 0.960 . S
C2288 C2287 1.524 . S
C2289 C2286 1.403 . S
C2289 C2290 1.392 1_565 S
C2289 C2293 1.495 . S
C2290 C2289 1.392 1_545 S
C2290 C2291 1.385 . S
C2290 C2292 1.478 . S
C2291 H2285 0.930 . S
C2291 C2287 1.400 . S
C2291 C2290 1.385 . S
C2292 C2290 1.478 . S
C2292 C2294 1.381 . S
C2292 C2298 1.383 . S
C2293 C2289 1.495 . S
C2293 H2299 0.959 . S
C2293 H2300 0.961 . S
C2293 H2301 0.960 . S
C2294 C2292 1.381 . S
C2294 C2295 1.394 . S
C2294 H2302 0.930 . S
C2295 C2294 1.394 . S
C2295 C2296 1.383 . S
C2295 H2303 0.929 . S
C2296 C2295 1.383 . S
C2296 C2297 1.377 . S
C2297 H2281 0.930 . S
C2297 C2296 1.377 . S
C2297 C2298 1.379 . S
C2298 H2282 0.931 . S
C2298 C2292 1.383 . S
C2298 C2297 1.379 . S
H2299 C2293 0.959 . S
H2300 C2293 0.961 . S
H2301 C2293 0.960 . S
H2302 C2294 0.930 . S
H2303 C2295 0.929 . S
H2304 C2312 0.929 . S
H2305 C2314 0.930 . S
H2306 C2316 0.930 1_545 S
H2307 C2319 0.943 . S
H2308 C2322 0.930 . S
H2309 C2324 0.960 . S
H2310 C2324 0.960 1_565 S
H2311 C2324 0.960 . S
C2312 H2304 0.929 . S
C2312 C2313 1.377 . S
C2312 C2314 1.384 . S
C2313 C2312 1.377 . S
C2313 C2319 1.390 . S
C2314 H2305 0.930 . S
C2314 C2312 1.384 . S
C2314 C2315 1.372 . S
C2315 C2314 1.372 . S
C2315 C2316 1.400 . S
C2315 C2320 1.490 . S
C2316 H2306 0.930 1_565 S
C2316 C2315 1.400 . S
C2316 C2319 1.386 . S
H2317 C2333 0.930 . S
H2318 C2334 0.931 . S
C2319 H2307 0.943 . S
C2319 C2313 1.390 . S
C2319 C2316 1.386 . S
C2320 C2315 1.490 . S
C2320 C2322 1.395 . S
C2320 C2323 1.403 1_565 S
H2321 C2327 0.930 . S
C2322 H2308 0.930 . S
C2322 C2320 1.395 . S
C2322 C2325 1.403 . S
C2323 C2320 1.403 1_545 S
C2323 C2324 1.524 . S
C2323 C2327 1.400 . S
C2324 H2309 0.960 . S
C2324 H2310 0.960 1_545 S
C2324 H2311 0.960 . S
C2324 C2323 1.524 . S
C2325 C2322 1.403 . S
C2325 C2326 1.392 1_565 S
C2325 C2329 1.495 . S
C2326 C2325 1.392 1_545 S
C2326 C2327 1.385 . S
C2326 C2328 1.478 . S
C2327 H2321 0.930 . S
C2327 C2323 1.400 . S
C2327 C2326 1.385 . S
C2328 C2326 1.478 . S
C2328 C2330 1.419 . S
C2328 C2334 1.383 . S
C2329 C2325 1.495 . S
C2329 H2335 0.959 . S
C2329 H2336 0.964 1_565 S
C2329 H2337 0.960 . S
C2330 C2328 1.419 . S
C2330 C2331 1.415 . S
C2330 H2338 0.874 1_545 S
C2331 C2330 1.415 . S
C2331 C2332 1.383 . S
C2331 H2339 0.939 . S
C2332 C2331 1.383 . S
C2332 C2333 1.377 . S
C2333 H2317 0.930 . S
C2333 C2332 1.377 . S
C2333 C2334 1.379 . S
C2334 H2318 0.931 . S
C2334 C2328 1.383 . S
C2334 C2333 1.379 . S
H2335 C2329 0.959 . S
H2336 C2329 0.964 1_545 S
H2337 C2329 0.960 . S
H2338 C2330 0.874 1_565 S
H2339 C2331 0.939 . S
H2340 C2348 0.929 . S
H2341 C2350 0.930 . S
H2342 C2352 0.930 1_455 S
H2343 C2355 0.929 . S
H2344 C2358 0.930 . S
H2345 C2360 0.960 . S
H2346 C2360 0.960 . S
H2347 C2360 0.960 . S
C2348 H2340 0.929 . S
C2348 C2349 1.377 . S
C2348 C2350 1.384 . S
C2349 C2348 1.377 . S
C2349 C2355 1.390 . S
C2350 H2341 0.930 . S
C2350 C2348 1.384 . S
C2350 C2351 1.372 . S
C2351 C2350 1.372 . S
C2351 C2352 1.400 . S
C2351 C2356 1.490 . S
C2352 H2342 0.930 1_655 S
C2352 C2351 1.400 . S
C2352 C2355 1.386 . S
H2353 C2369 0.930 . S
H2354 C2370 0.931 . S
C2355 H2343 0.929 . S
C2355 C2349 1.390 . S
C2355 C2352 1.386 . S
C2356 C2351 1.490 . S
C2356 C2358 1.395 . S
C2356 C2359 1.403 1_655 S
H2357 C2363 0.930 . S
C2358 H2344 0.930 . S
C2358 C2356 1.395 . S
C2358 C2361 1.403 . S
C2359 C2356 1.403 1_455 S
C2359 C2360 1.524 . S
C2359 C2363 1.400 . S
C2360 H2345 0.960 . S
C2360 H2346 0.960 . S
C2360 H2347 0.960 . S
C2360 C2359 1.524 . S
C2361 C2358 1.403 . S
C2361 C2362 1.392 1_655 S
C2361 C2365 1.495 . S
C2362 C2361 1.392 1_455 S
C2362 C2363 1.385 . S
C2362 C2364 1.478 . S
C2363 H2357 0.930 . S
C2363 C2359 1.400 . S
C2363 C2362 1.385 . S
C2364 C2362 1.478 . S
C2364 C2366 1.381 . S
C2364 C2370 1.383 . S
C2365 C2361 1.495 . S
C2365 H2371 0.959 . S
C2365 H2372 0.961 . S
C2365 H2373 0.960 . S
C2366 C2364 1.381 . S
C2366 C2367 1.394 . S
C2366 H2374 0.930 1_455 S
C2367 C2366 1.394 . S
C2367 C2368 1.383 . S
C2367 H2375 0.929 . S
C2368 C2367 1.383 . S
C2368 C2369 1.377 . S
C2369 H2353 0.930 . S
C2369 C2368 1.377 . S
C2369 C2370 1.379 . S
C2370 H2354 0.931 . S
C2370 C2364 1.383 . S
C2370 C2369 1.379 . S
H2371 C2365 0.959 . S
H2372 C2365 0.961 . S
H2373 C2365 0.960 . S
H2374 C2366 0.930 1_655 S
H2375 C2367 0.929 . S
H2376 C2384 0.929 . S
H2377 C2386 0.930 . S
H2378 C2388 0.930 . S
H2379 C2391 0.929 . S
H2380 C2394 0.930 . S
H2381 C2396 0.960 . S
H2382 C2396 0.960 . S
H2383 C2396 0.960 . S
C2384 H2376 0.929 . S
C2384 C2385 1.377 . S
C2384 C2386 1.384 . S
C2385 C2384 1.377 . S
C2385 C2391 1.390 . S
C2386 H2377 0.930 . S
C2386 C2384 1.384 . S
C2386 C2387 1.372 . S
C2387 C2386 1.372 . S
C2387 C2388 1.400 . S
C2387 C2392 1.490 . S
C2388 H2378 0.930 . S
C2388 C2387 1.400 . S
C2388 C2391 1.386 . S
H2389 C2405 0.930 . S
H2390 C2406 0.931 . S
C2391 H2379 0.929 . S
C2391 C2385 1.390 . S
C2391 C2388 1.386 . S
C2392 C2387 1.490 . S
C2392 C2394 1.395 . S
C2392 C2395 1.403 . S
H2393 C2399 0.930 . S
C2394 H2380 0.930 . S
C2394 C2392 1.395 . S
C2394 C2397 1.403 . S
C2395 C2392 1.403 . S
C2395 C2396 1.524 . S
C2395 C2399 1.400 . S
C2396 H2381 0.960 . S
C2396 H2382 0.960 . S
C2396 H2383 0.960 . S
C2396 C2395 1.524 . S
C2397 C2394 1.403 . S
C2397 C2398 1.392 . S
C2397 C2401 1.495 . S
C2398 C2397 1.392 . S
C2398 C2399 1.385 . S
C2398 C2400 1.478 . S
C2399 H2393 0.930 . S
C2399 C2395 1.400 . S
C2399 C2398 1.385 . S
C2400 C2398 1.478 . S
C2400 C2402 1.381 . S
C2400 C2406 1.383 . S
C2401 C2397 1.495 . S
C2401 H2407 0.959 . S
C2401 H2408 0.961 . S
C2401 H2409 0.960 . S
C2402 C2400 1.381 . S
C2402 C2403 1.394 . S
C2402 H2410 0.930 . S
C2403 C2402 1.394 . S
C2403 C2404 1.383 . S
C2403 H2411 0.929 . S
C2404 C2403 1.383 . S
C2404 C2405 1.377 . S
C2405 H2389 0.930 . S
C2405 C2404 1.377 . S
C2405 C2406 1.379 . S
C2406 H2390 0.931 . S
C2406 C2400 1.383 . S
C2406 C2405 1.379 . S
H2407 C2401 0.959 . S
H2408 C2401 0.961 . S
H2409 C2401 0.960 . S
H2410 C2402 0.930 . S
H2411 C2403 0.929 . S
H2412 C2420 0.929 . S
H2413 C2422 0.930 . S
H2414 C2424 0.930 . S
H2415 C2427 0.929 . S
H2416 C2430 0.930 . S
H2417 C2432 0.960 . S
H2418 C2432 0.960 . S
H2419 C2432 0.960 . S
C2420 H2412 0.929 . S
C2420 C2421 1.377 . S
C2420 C2422 1.384 . S
C2421 C2420 1.377 . S
C2421 C2427 1.390 . S
C2422 H2413 0.930 . S
C2422 C2420 1.384 . S
C2422 C2423 1.372 . S
C2423 C2422 1.372 . S
C2423 C2424 1.400 . S
C2423 C2428 1.490 . S
C2424 H2414 0.930 . S
C2424 C2423 1.400 . S
C2424 C2427 1.386 . S
H2425 C2441 0.930 . S
H2426 C2442 0.931 . S
C2427 H2415 0.929 . S
C2427 C2421 1.390 . S
C2427 C2424 1.386 . S
C2428 C2423 1.490 . S
C2428 C2430 1.395 . S
C2428 C2431 1.403 . S
H2429 C2435 0.930 . S
C2430 H2416 0.930 . S
C2430 C2428 1.395 . S
C2430 C2433 1.403 . S
C2431 C2428 1.403 . S
C2431 C2432 1.524 . S
C2431 C2435 1.400 . S
C2432 H2417 0.960 . S
C2432 H2418 0.960 . S
C2432 H2419 0.960 . S
C2432 C2431 1.524 . S
C2433 C2430 1.403 . S
C2433 C2434 1.392 . S
C2433 C2437 1.495 . S
C2434 C2433 1.392 . S
C2434 C2435 1.385 . S
C2434 C2436 1.478 . S
C2435 H2429 0.930 . S
C2435 C2431 1.400 . S
C2435 C2434 1.385 . S
C2436 C2434 1.478 . S
C2436 C2438 1.381 . S
C2436 C2442 1.383 . S
C2437 C2433 1.495 . S
C2437 H2443 0.959 . S
C2437 H2444 0.961 . S
C2437 H2445 0.960 . S
C2438 C2436 1.381 . S
C2438 C2439 1.394 . S
C2438 H2446 0.930 . S
C2439 C2438 1.394 . S
C2439 C2440 1.383 . S
C2439 H2447 0.929 . S
C2440 C2439 1.383 . S
C2440 C2441 1.377 . S
C2441 H2425 0.930 . S
C2441 C2440 1.377 . S
C2441 C2442 1.379 . S
C2442 H2426 0.931 . S
C2442 C2436 1.383 . S
C2442 C2441 1.379 . S
H2443 C2437 0.959 . S
H2444 C2437 0.961 . S
H2445 C2437 0.960 . S
H2446 C2438 0.930 . S
H2447 C2439 0.929 . S
H2448 C2456 0.929 . S
H2449 C2458 0.930 . S
H2450 C2460 0.930 . S
H2451 C2463 0.929 . S
H2452 C2466 0.930 . S
H2453 C2468 0.960 . S
H2454 C2468 0.960 . S
H2455 C2468 0.960 . S
C2456 H2448 0.929 . S
C2456 C2457 1.377 . S
C2456 C2458 1.384 . S
C2457 C2456 1.377 . S
C2457 C2463 1.390 . S
C2458 H2449 0.930 . S
C2458 C2456 1.384 . S
C2458 C2459 1.372 . S
C2459 C2458 1.372 . S
C2459 C2460 1.400 . S
C2459 C2464 1.490 . S
C2460 H2450 0.930 . S
C2460 C2459 1.400 . S
C2460 C2463 1.386 . S
H2461 C2477 0.930 . S
H2462 C2478 0.931 . S
C2463 H2451 0.929 . S
C2463 C2457 1.390 . S
C2463 C2460 1.386 . S
C2464 C2459 1.490 . S
C2464 C2466 1.395 . S
C2464 C2467 1.403 . S
H2465 C2471 0.930 . S
C2466 H2452 0.930 . S
C2466 C2464 1.395 . S
C2466 C2469 1.403 . S
C2467 C2464 1.403 . S
C2467 C2468 1.524 . S
C2467 C2471 1.400 . S
C2468 H2453 0.960 . S
C2468 H2454 0.960 . S
C2468 H2455 0.960 . S
C2468 C2467 1.524 . S
C2469 C2466 1.403 . S
C2469 C2470 1.392 . S
C2469 C2473 1.495 . S
C2470 C2469 1.392 . S
C2470 C2471 1.385 . S
C2470 C2472 1.478 . S
C2471 H2465 0.930 . S
C2471 C2467 1.400 . S
C2471 C2470 1.385 . S
C2472 C2470 1.478 . S
C2472 C2474 1.381 . S
C2472 C2478 1.383 . S
C2473 C2469 1.495 . S
C2473 H2479 0.959 . S
C2473 H2480 0.961 . S
C2473 H2481 0.960 . S
C2474 C2472 1.381 . S
C2474 C2475 1.394 . S
C2474 H2482 0.930 . S
C2475 C2474 1.394 . S
C2475 C2476 1.383 . S
C2475 H2483 0.929 . S
C2476 C2475 1.383 . S
C2476 C2477 1.377 . S
C2477 H2461 0.930 . S
C2477 C2476 1.377 . S
C2477 C2478 1.379 . S
C2478 H2462 0.931 . S
C2478 C2472 1.383 . S
C2478 C2477 1.379 . S
H2479 C2473 0.959 . S
H2480 C2473 0.961 . S
H2481 C2473 0.960 . S
H2482 C2474 0.930 . S
H2483 C2475 0.929 . S
H2484 C2492 0.929 . S
H2485 C2494 0.930 . S
H2486 C2496 0.930 . S
H2487 C2499 0.929 . S
H2488 C2502 0.930 . S
H2489 C2504 0.960 . S
H2490 C2504 0.960 . S
H2491 C2504 0.960 . S
C2492 H2484 0.929 . S
C2492 C2493 1.377 . S
C2492 C2494 1.384 . S
C2493 C2492 1.377 . S
C2493 C2499 1.390 . S
C2494 H2485 0.930 . S
C2494 C2492 1.384 . S
C2494 C2495 1.372 . S
C2495 C2494 1.372 . S
C2495 C2496 1.400 . S
C2495 C2500 1.490 . S
C2496 H2486 0.930 . S
C2496 C2495 1.400 . S
C2496 C2499 1.386 . S
H2497 C2513 0.930 . S
H2498 C2514 0.931 . S
C2499 H2487 0.929 . S
C2499 C2493 1.390 . S
C2499 C2496 1.386 . S
C2500 C2495 1.490 . S
C2500 C2502 1.395 . S
C2500 C2503 1.403 . S
H2501 C2507 0.930 . S
C2502 H2488 0.930 . S
C2502 C2500 1.395 . S
C2502 C2505 1.403 . S
C2503 C2500 1.403 . S
C2503 C2504 1.524 . S
C2503 C2507 1.400 . S
C2504 H2489 0.960 . S
C2504 H2490 0.960 . S
C2504 H2491 0.960 . S
C2504 C2503 1.524 . S
C2505 C2502 1.403 . S
C2505 C2506 1.392 . S
C2505 C2509 1.495 . S
C2506 C2505 1.392 . S
C2506 C2507 1.385 . S
C2506 C2508 1.478 . S
C2507 H2501 0.930 . S
C2507 C2503 1.400 . S
C2507 C2506 1.385 . S
C2508 C2506 1.478 . S
C2508 C2510 1.381 . S
C2508 C2514 1.383 . S
C2509 C2505 1.495 . S
C2509 H2515 0.959 . S
C2509 H2516 0.961 . S
C2509 H2517 0.960 . S
C2510 C2508 1.381 . S
C2510 C2511 1.394 . S
C2510 H2518 0.930 . S
C2511 C2510 1.394 . S
C2511 C2512 1.383 . S
C2511 H2519 0.929 . S
C2512 C2511 1.383 . S
C2512 C2513 1.377 . S
C2513 H2497 0.930 . S
C2513 C2512 1.377 . S
C2513 C2514 1.379 . S
C2514 H2498 0.931 . S
C2514 C2508 1.383 . S
C2514 C2513 1.379 . S
H2515 C2509 0.959 . S
H2516 C2509 0.961 . S
H2517 C2509 0.960 . S
H2518 C2510 0.930 . S
H2519 C2511 0.929 . S
H2520 C2528 0.929 . S
H2521 C2530 0.930 . S
H2522 C2532 0.930 . S
H2523 C2535 0.929 . S
H2524 C2538 0.930 . S
H2525 C2540 0.960 . S
H2526 C2540 0.960 . S
H2527 C2540 0.960 . S
C2528 H2520 0.929 . S
C2528 C2529 1.377 . S
C2528 C2530 1.384 . S
C2529 C2528 1.377 . S
C2529 C2535 1.390 . S
C2530 H2521 0.930 . S
C2530 C2528 1.384 . S
C2530 C2531 1.372 . S
C2531 C2530 1.372 . S
C2531 C2532 1.400 . S
C2531 C2536 1.490 . S
C2532 H2522 0.930 . S
C2532 C2531 1.400 . S
C2532 C2535 1.386 . S
H2533 C2549 0.930 . S
H2534 C2550 0.931 . S
C2535 H2523 0.929 . S
C2535 C2529 1.390 . S
C2535 C2532 1.386 . S
C2536 C2531 1.490 . S
C2536 C2538 1.395 . S
C2536 C2539 1.403 . S
H2537 C2543 0.930 . S
C2538 H2524 0.930 . S
C2538 C2536 1.395 . S
C2538 C2541 1.403 . S
C2539 C2536 1.403 . S
C2539 C2540 1.524 . S
C2539 C2543 1.400 . S
C2540 H2525 0.960 . S
C2540 H2526 0.960 . S
C2540 H2527 0.960 . S
C2540 C2539 1.524 . S
C2541 C2538 1.403 . S
C2541 C2542 1.392 . S
C2541 C2545 1.495 . S
C2542 C2541 1.392 . S
C2542 C2543 1.385 . S
C2542 C2544 1.478 . S
C2543 H2537 0.930 . S
C2543 C2539 1.400 . S
C2543 C2542 1.385 . S
C2544 C2542 1.478 . S
C2544 C2546 1.381 . S
C2544 C2550 1.383 . S
C2545 C2541 1.495 . S
C2545 H2551 0.959 . S
C2545 H2552 0.961 . S
C2545 H2553 0.960 . S
C2546 C2544 1.381 . S
C2546 C2547 1.394 . S
C2546 H2554 0.930 . S
C2547 C2546 1.394 . S
C2547 C2548 1.383 . S
C2547 H2555 0.929 . S
C2548 C2547 1.383 . S
C2548 C2549 1.377 . S
C2549 H2533 0.930 . S
C2549 C2548 1.377 . S
C2549 C2550 1.379 . S
C2550 H2534 0.931 . S
C2550 C2544 1.383 . S
C2550 C2549 1.379 . S
H2551 C2545 0.959 . S
H2552 C2545 0.961 . S
H2553 C2545 0.960 . S
H2554 C2546 0.930 . S
H2555 C2547 0.929 . S
H2556 C2564 0.929 . S
H2557 C2566 0.930 . S
H2558 C2568 0.930 . S
H2559 C2571 0.929 . S
H2560 C2574 0.930 . S
H2561 C2576 0.960 . S
H2562 C2576 0.960 . S
H2563 C2576 0.960 . S
C2564 H2556 0.929 . S
C2564 C2565 1.377 . S
C2564 C2566 1.384 . S
C2565 C2564 1.377 . S
C2565 C2571 1.390 . S
C2566 H2557 0.930 . S
C2566 C2564 1.384 . S
C2566 C2567 1.372 . S
C2567 C2566 1.372 . S
C2567 C2568 1.400 . S
C2567 C2572 1.490 . S
C2568 H2558 0.930 . S
C2568 C2567 1.400 . S
C2568 C2571 1.386 . S
H2569 C2585 0.930 . S
H2570 C2586 0.931 . S
C2571 H2559 0.929 . S
C2571 C2565 1.390 . S
C2571 C2568 1.386 . S
C2572 C2567 1.490 . S
C2572 C2574 1.395 . S
C2572 C2575 1.403 . S
H2573 C2579 0.930 . S
C2574 H2560 0.930 . S
C2574 C2572 1.395 . S
C2574 C2577 1.403 . S
C2575 C2572 1.403 . S
C2575 C2576 1.524 . S
C2575 C2579 1.400 . S
C2576 H2561 0.960 . S
C2576 H2562 0.960 . S
C2576 H2563 0.960 . S
C2576 C2575 1.524 . S
C2577 C2574 1.403 . S
C2577 C2578 1.392 . S
C2577 C2581 1.495 . S
C2578 C2577 1.392 . S
C2578 C2579 1.385 . S
C2578 C2580 1.478 . S
C2579 H2573 0.930 . S
C2579 C2575 1.400 . S
C2579 C2578 1.385 . S
C2580 C2578 1.478 . S
C2580 C2582 1.381 . S
C2580 C2586 1.383 . S
C2581 C2577 1.495 . S
C2581 H2587 0.959 . S
C2581 H2588 0.961 . S
C2581 H2589 0.960 . S
C2582 C2580 1.381 . S
C2582 C2583 1.394 . S
C2582 H2590 0.930 . S
C2583 C2582 1.394 . S
C2583 C2584 1.383 . S
C2583 H2591 0.929 . S
C2584 C2583 1.383 . S
C2584 C2585 1.377 . S
C2585 H2569 0.930 . S
C2585 C2584 1.377 . S
C2585 C2586 1.379 . S
C2586 H2570 0.931 . S
C2586 C2580 1.383 . S
C2586 C2585 1.379 . S
H2587 C2581 0.959 . S
H2588 C2581 0.961 . S
H2589 C2581 0.960 . S
H2590 C2582 0.930 . S
H2591 C2583 0.929 . S
H2592 C2600 0.929 . S
H2593 C2602 0.930 . S
H2594 C2604 0.930 . S
H2595 C2607 0.929 . S
H2596 C2610 0.930 . S
H2597 C2612 0.960 . S
H2598 C2612 0.960 . S
H2599 C2612 0.960 . S
C2600 H2592 0.929 . S
C2600 C2601 1.377 . S
C2600 C2602 1.384 . S
C2601 C2600 1.377 . S
C2601 C2607 1.390 . S
C2602 H2593 0.930 . S
C2602 C2600 1.384 . S
C2602 C2603 1.372 . S
C2603 C2602 1.372 . S
C2603 C2604 1.400 . S
C2603 C2608 1.490 . S
C2604 H2594 0.930 . S
C2604 C2603 1.400 . S
C2604 C2607 1.386 . S
H2605 C2621 0.930 . S
H2606 C2622 0.931 . S
C2607 H2595 0.929 . S
C2607 C2601 1.390 . S
C2607 C2604 1.386 . S
C2608 C2603 1.490 . S
C2608 C2610 1.395 . S
C2608 C2611 1.403 . S
H2609 C2615 0.930 . S
C2610 H2596 0.930 . S
C2610 C2608 1.395 . S
C2610 C2613 1.403 . S
C2611 C2608 1.403 . S
C2611 C2612 1.524 . S
C2611 C2615 1.400 . S
C2612 H2597 0.960 . S
C2612 H2598 0.960 . S
C2612 H2599 0.960 . S
C2612 C2611 1.524 . S
C2613 C2610 1.403 . S
C2613 C2614 1.392 . S
C2613 C2617 1.495 . S
C2614 C2613 1.392 . S
C2614 C2615 1.385 . S
C2614 C2616 1.478 . S
C2615 H2609 0.930 . S
C2615 C2611 1.400 . S
C2615 C2614 1.385 . S
C2616 C2614 1.478 . S
C2616 C2618 1.381 . S
C2616 C2622 1.383 . S
C2617 C2613 1.495 . S
C2617 H2623 0.959 . S
C2617 H2624 0.961 . S
C2617 H2625 0.960 . S
C2618 C2616 1.381 . S
C2618 C2619 1.394 . S
C2618 H2626 0.930 . S
C2619 C2618 1.394 . S
C2619 C2620 1.383 . S
C2619 H2627 0.929 . S
C2620 C2619 1.383 . S
C2620 C2621 1.377 . S
C2621 H2605 0.930 . S
C2621 C2620 1.377 . S
C2621 C2622 1.379 . S
C2622 H2606 0.931 . S
C2622 C2616 1.383 . S
C2622 C2621 1.379 . S
H2623 C2617 0.959 . S
H2624 C2617 0.961 . S
H2625 C2617 0.960 . S
H2626 C2618 0.930 . S
H2627 C2619 0.929 . S
H2628 C2636 0.929 . S
H2629 C2638 0.930 . S
H2630 C2640 0.930 . S
H2631 C2643 0.929 . S
H2632 C2646 0.930 . S
H2633 C2648 0.960 . S
H2634 C2648 0.960 . S
H2635 C2648 0.960 . S
C2636 H2628 0.929 . S
C2636 C2637 1.377 . S
C2636 C2638 1.384 . S
C2637 C2636 1.377 . S
C2637 C2643 1.390 . S
C2638 H2629 0.930 . S
C2638 C2636 1.384 . S
C2638 C2639 1.372 . S
C2639 C2638 1.372 . S
C2639 C2640 1.400 . S
C2639 C2644 1.490 . S
C2640 H2630 0.930 . S
C2640 C2639 1.400 . S
C2640 C2643 1.386 . S
H2641 C2657 0.930 . S
H2642 C2658 0.931 . S
C2643 H2631 0.929 . S
C2643 C2637 1.390 . S
C2643 C2640 1.386 . S
C2644 C2639 1.490 . S
C2644 C2646 1.395 . S
C2644 C2647 1.403 . S
H2645 C2651 0.930 . S
C2646 H2632 0.930 . S
C2646 C2644 1.395 . S
C2646 C2649 1.403 . S
C2647 C2644 1.403 . S
C2647 C2648 1.524 . S
C2647 C2651 1.400 . S
C2648 H2633 0.960 . S
C2648 H2634 0.960 . S
C2648 H2635 0.960 . S
C2648 C2647 1.524 . S
C2649 C2646 1.403 . S
C2649 C2650 1.392 . S
C2649 C2653 1.495 . S
C2650 C2649 1.392 . S
C2650 C2651 1.385 . S
C2650 C2652 1.478 . S
C2651 H2645 0.930 . S
C2651 C2647 1.400 . S
C2651 C2650 1.385 . S
C2652 C2650 1.478 . S
C2652 C2654 1.381 . S
C2652 C2658 1.383 . S
C2653 C2649 1.495 . S
C2653 H2659 0.959 . S
C2653 H2660 0.961 . S
C2653 H2661 0.960 . S
C2654 C2652 1.381 . S
C2654 C2655 1.394 . S
C2654 H2662 0.930 . S
C2655 C2654 1.394 . S
C2655 C2656 1.383 . S
C2655 H2663 0.929 . S
C2656 C2655 1.383 . S
C2656 C2657 1.377 . S
C2657 H2641 0.930 . S
C2657 C2656 1.377 . S
C2657 C2658 1.379 . S
C2658 H2642 0.931 . S
C2658 C2652 1.383 . S
C2658 C2657 1.379 . S
H2659 C2653 0.959 . S
H2660 C2653 0.961 . S
H2661 C2653 0.960 . S
H2662 C2654 0.930 . S
H2663 C2655 0.929 . S
H2664 C2672 0.929 . S
H2665 C2674 0.930 . S
H2666 C2676 0.930 . S
H2667 C2679 0.929 . S
H2668 C2682 0.930 . S
H2669 C2684 0.960 . S
H2670 C2684 0.960 . S
H2671 C2684 0.960 . S
C2672 H2664 0.929 . S
C2672 C2673 1.377 . S
C2672 C2674 1.384 . S
C2673 C2672 1.377 . S
C2673 C2679 1.390 . S
C2674 H2665 0.930 . S
C2674 C2672 1.384 . S
C2674 C2675 1.372 . S
C2675 C2674 1.372 . S
C2675 C2676 1.400 . S
C2675 C2680 1.490 . S
C2676 H2666 0.930 . S
C2676 C2675 1.400 . S
C2676 C2679 1.386 . S
H2677 C2693 0.930 . S
H2678 C2694 0.931 . S
C2679 H2667 0.929 . S
C2679 C2673 1.390 . S
C2679 C2676 1.386 . S
C2680 C2675 1.490 . S
C2680 C2682 1.395 . S
C2680 C2683 1.403 . S
H2681 C2687 0.930 . S
C2682 H2668 0.930 . S
C2682 C2680 1.395 . S
C2682 C2685 1.403 . S
C2683 C2680 1.403 . S
C2683 C2684 1.524 . S
C2683 C2687 1.400 . S
C2684 H2669 0.960 . S
C2684 H2670 0.960 . S
C2684 H2671 0.960 . S
C2684 C2683 1.524 . S
C2685 C2682 1.403 . S
C2685 C2686 1.392 . S
C2685 C2689 1.495 . S
C2686 C2685 1.392 . S
C2686 C2687 1.385 . S
C2686 C2688 1.478 . S
C2687 H2681 0.930 . S
C2687 C2683 1.400 . S
C2687 C2686 1.385 . S
C2688 C2686 1.478 . S
C2688 C2690 1.381 . S
C2688 C2694 1.383 . S
C2689 C2685 1.495 . S
C2689 H2695 0.959 . S
C2689 H2696 0.961 . S
C2689 H2697 0.960 . S
C2690 C2688 1.381 . S
C2690 C2691 1.394 . S
C2690 H2698 0.930 . S
C2691 C2690 1.394 . S
C2691 C2692 1.383 . S
C2691 H2699 0.929 . S
C2692 C2691 1.383 . S
C2692 C2693 1.377 . S
C2693 H2677 0.930 . S
C2693 C2692 1.377 . S
C2693 C2694 1.379 . S
C2694 H2678 0.931 . S
C2694 C2688 1.383 . S
C2694 C2693 1.379 . S
H2695 C2689 0.959 . S
H2696 C2689 0.961 . S
H2697 C2689 0.960 . S
H2698 C2690 0.930 . S
H2699 C2691 0.929 . S
H2700 C2708 0.929 . S
H2701 C2710 0.930 . S
H2702 C2712 0.930 . S
H2703 C2715 0.929 . S
H2704 C2718 0.930 . S
H2705 C2720 0.960 . S
H2706 C2720 0.960 . S
H2707 C2720 0.960 . S
C2708 H2700 0.929 . S
C2708 C2709 1.377 . S
C2708 C2710 1.384 . S
C2709 C2708 1.377 . S
C2709 C2715 1.390 . S
C2710 H2701 0.930 . S
C2710 C2708 1.384 . S
C2710 C2711 1.372 . S
C2711 C2710 1.372 . S
C2711 C2712 1.400 . S
C2711 C2716 1.490 . S
C2712 H2702 0.930 . S
C2712 C2711 1.400 . S
C2712 C2715 1.386 . S
H2713 C2729 0.930 . S
H2714 C2730 0.931 . S
C2715 H2703 0.929 . S
C2715 C2709 1.390 . S
C2715 C2712 1.386 . S
C2716 C2711 1.490 . S
C2716 C2718 1.395 . S
C2716 C2719 1.403 . S
H2717 C2723 0.930 . S
C2718 H2704 0.930 . S
C2718 C2716 1.395 . S
C2718 C2721 1.403 . S
C2719 C2716 1.403 . S
C2719 C2720 1.524 . S
C2719 C2723 1.400 . S
C2720 H2705 0.960 . S
C2720 H2706 0.960 . S
C2720 H2707 0.960 . S
C2720 C2719 1.524 . S
C2721 C2718 1.403 . S
C2721 C2722 1.392 . S
C2721 C2725 1.495 . S
C2722 C2721 1.392 . S
C2722 C2723 1.385 . S
C2722 C2724 1.478 . S
C2723 H2717 0.930 . S
C2723 C2719 1.400 . S
C2723 C2722 1.385 . S
C2724 C2722 1.478 . S
C2724 C2726 1.381 . S
C2724 C2730 1.383 . S
C2725 C2721 1.495 . S
C2725 H2731 0.959 . S
C2725 H2732 0.961 . S
C2725 H2733 0.960 . S
C2726 C2724 1.381 . S
C2726 C2727 1.394 . S
C2726 H2734 0.930 . S
C2727 C2726 1.394 . S
C2727 C2728 1.383 . S
C2727 H2735 0.929 . S
C2728 C2727 1.383 . S
C2728 C2729 1.377 . S
C2729 H2713 0.930 . S
C2729 C2728 1.377 . S
C2729 C2730 1.379 . S
C2730 H2714 0.931 . S
C2730 C2724 1.383 . S
C2730 C2729 1.379 . S
H2731 C2725 0.959 . S
H2732 C2725 0.961 . S
H2733 C2725 0.960 . S
H2734 C2726 0.930 . S
H2735 C2727 0.929 . S
H2736 C2744 0.929 . S
H2737 C2746 0.930 . S
H2738 C2748 0.930 . S
H2739 C2751 0.929 . S
H2740 C2754 0.930 . S
H2741 C2756 0.960 . S
H2742 C2756 0.960 . S
H2743 C2756 0.960 . S
C2744 H2736 0.929 . S
C2744 C2745 1.377 . S
C2744 C2746 1.384 . S
C2745 C2744 1.377 . S
C2745 C2751 1.390 . S
C2746 H2737 0.930 . S
C2746 C2744 1.384 . S
C2746 C2747 1.372 . S
C2747 C2746 1.372 . S
C2747 C2748 1.400 . S
C2747 C2752 1.490 . S
C2748 H2738 0.930 . S
C2748 C2747 1.400 . S
C2748 C2751 1.386 . S
H2749 C2765 0.930 . S
H2750 C2766 0.931 . S
C2751 H2739 0.929 . S
C2751 C2745 1.390 . S
C2751 C2748 1.386 . S
C2752 C2747 1.490 . S
C2752 C2754 1.395 . S
C2752 C2755 1.403 . S
H2753 C2759 0.930 . S
C2754 H2740 0.930 . S
C2754 C2752 1.395 . S
C2754 C2757 1.403 . S
C2755 C2752 1.403 . S
C2755 C2756 1.524 . S
C2755 C2759 1.400 . S
C2756 H2741 0.960 . S
C2756 H2742 0.960 . S
C2756 H2743 0.960 . S
C2756 C2755 1.524 . S
C2757 C2754 1.403 . S
C2757 C2758 1.392 . S
C2757 C2761 1.495 . S
C2758 C2757 1.392 . S
C2758 C2759 1.385 . S
C2758 C2760 1.478 . S
C2759 H2753 0.930 . S
C2759 C2755 1.400 . S
C2759 C2758 1.385 . S
C2760 C2758 1.478 . S
C2760 C2762 1.381 . S
C2760 C2766 1.383 . S
C2761 C2757 1.495 . S
C2761 H2767 0.959 . S
C2761 H2768 0.961 . S
C2761 H2769 0.960 . S
C2762 C2760 1.381 . S
C2762 C2763 1.394 . S
C2762 H2770 0.930 . S
C2763 C2762 1.394 . S
C2763 C2764 1.383 . S
C2763 H2771 0.929 . S
C2764 C2763 1.383 . S
C2764 C2765 1.377 . S
C2765 H2749 0.930 . S
C2765 C2764 1.377 . S
C2765 C2766 1.379 . S
C2766 H2750 0.931 . S
C2766 C2760 1.383 . S
C2766 C2765 1.379 . S
H2767 C2761 0.959 . S
H2768 C2761 0.961 . S
H2769 C2761 0.960 . S
H2770 C2762 0.930 . S
H2771 C2763 0.929 . S
H2772 C2780 0.929 . S
H2773 C2782 0.930 . S
H2774 C2784 0.930 . S
H2775 C2787 0.929 . S
H2776 C2790 0.930 . S
H2777 C2792 0.960 . S
H2778 C2792 0.960 . S
H2779 C2792 0.960 . S
C2780 H2772 0.929 . S
C2780 C2781 1.377 . S
C2780 C2782 1.384 . S
C2781 C2780 1.377 . S
C2781 C2787 1.390 . S
C2782 H2773 0.930 . S
C2782 C2780 1.384 . S
C2782 C2783 1.372 . S
C2783 C2782 1.372 . S
C2783 C2784 1.400 . S
C2783 C2788 1.490 . S
C2784 H2774 0.930 . S
C2784 C2783 1.400 . S
C2784 C2787 1.386 . S
H2785 C2801 0.930 . S
H2786 C2802 0.931 . S
C2787 H2775 0.929 . S
C2787 C2781 1.390 . S
C2787 C2784 1.386 . S
C2788 C2783 1.490 . S
C2788 C2790 1.395 . S
C2788 C2791 1.403 . S
H2789 C2795 0.930 . S
C2790 H2776 0.930 . S
C2790 C2788 1.395 . S
C2790 C2793 1.403 . S
C2791 C2788 1.403 . S
C2791 C2792 1.524 . S
C2791 C2795 1.400 . S
C2792 H2777 0.960 . S
C2792 H2778 0.960 . S
C2792 H2779 0.960 . S
C2792 C2791 1.524 . S
C2793 C2790 1.403 . S
C2793 C2794 1.392 . S
C2793 C2797 1.495 . S
C2794 C2793 1.392 . S
C2794 C2795 1.385 . S
C2794 C2796 1.478 . S
C2795 H2789 0.930 . S
C2795 C2791 1.400 . S
C2795 C2794 1.385 . S
C2796 C2794 1.478 . S
C2796 C2798 1.381 . S
C2796 C2802 1.383 . S
C2797 C2793 1.495 . S
C2797 H2803 0.959 . S
C2797 H2804 0.961 . S
C2797 H2805 0.960 . S
C2798 C2796 1.381 . S
C2798 C2799 1.394 . S
C2798 H2806 0.930 . S
C2799 C2798 1.394 . S
C2799 C2800 1.383 . S
C2799 H2807 0.929 . S
C2800 C2799 1.383 . S
C2800 C2801 1.377 . S
C2801 H2785 0.930 . S
C2801 C2800 1.377 . S
C2801 C2802 1.379 . S
C2802 H2786 0.931 . S
C2802 C2796 1.383 . S
C2802 C2801 1.379 . S
H2803 C2797 0.959 . S
H2804 C2797 0.961 . S
H2805 C2797 0.960 . S
H2806 C2798 0.930 . S
H2807 C2799 0.929 . S
H2808 C2816 0.929 . S
H2809 C2818 0.930 . S
H2810 C2820 0.930 . S
H2811 C2823 0.929 . S
H2812 C2826 0.930 . S
H2813 C2828 0.960 . S
H2814 C2828 0.960 . S
H2815 C2828 0.960 . S
C2816 H2808 0.929 . S
C2816 C2817 1.377 . S
C2816 C2818 1.384 . S
C2817 C2816 1.377 . S
C2817 C2823 1.390 . S
C2818 H2809 0.930 . S
C2818 C2816 1.384 . S
C2818 C2819 1.372 . S
C2819 C2818 1.372 . S
C2819 C2820 1.400 . S
C2819 C2824 1.490 . S
C2820 H2810 0.930 . S
C2820 C2819 1.400 . S
C2820 C2823 1.386 . S
H2821 C2837 0.930 . S
H2822 C2838 0.931 . S
C2823 H2811 0.929 . S
C2823 C2817 1.390 . S
C2823 C2820 1.386 . S
C2824 C2819 1.490 . S
C2824 C2826 1.395 . S
C2824 C2827 1.403 . S
H2825 C2831 0.930 . S
C2826 H2812 0.930 . S
C2826 C2824 1.395 . S
C2826 C2829 1.403 . S
C2827 C2824 1.403 . S
C2827 C2828 1.524 . S
C2827 C2831 1.400 . S
C2828 H2813 0.960 . S
C2828 H2814 0.960 . S
C2828 H2815 0.960 . S
C2828 C2827 1.524 . S
C2829 C2826 1.403 . S
C2829 C2830 1.392 . S
C2829 C2833 1.495 . S
C2830 C2829 1.392 . S
C2830 C2831 1.385 . S
C2830 C2832 1.478 . S
C2831 H2825 0.930 . S
C2831 C2827 1.400 . S
C2831 C2830 1.385 . S
C2832 C2830 1.478 . S
C2832 C2834 1.381 . S
C2832 C2838 1.383 . S
C2833 C2829 1.495 . S
C2833 H2839 0.959 . S
C2833 H2840 0.961 . S
C2833 H2841 0.960 . S
C2834 C2832 1.381 . S
C2834 C2835 1.394 . S
C2834 H2842 0.930 . S
C2835 C2834 1.394 . S
C2835 C2836 1.383 . S
C2835 H2843 0.929 . S
C2836 C2835 1.383 . S
C2836 C2837 1.377 . S
C2837 H2821 0.930 . S
C2837 C2836 1.377 . S
C2837 C2838 1.379 . S
C2838 H2822 0.931 . S
C2838 C2832 1.383 . S
C2838 C2837 1.379 . S
H2839 C2833 0.959 . S
H2840 C2833 0.961 . S
H2841 C2833 0.960 . S
H2842 C2834 0.930 . S
H2843 C2835 0.929 . S
H2844 C2852 0.929 . S
H2845 C2854 0.930 1_655 S
H2846 C2856 0.930 . S
H2847 C2859 0.929 . S
H2848 C2862 0.930 . S
H2849 C2864 1.018 . S
H2850 C2864 1.004 . S
H2851 C2864 0.906 1_455 S
C2852 H2844 0.929 . S
C2852 C2853 1.377 . S
C2852 C2854 1.384 . S
C2853 C2852 1.377 . S
C2853 C2859 1.390 . S
C2854 H2845 0.930 1_455 S
C2854 C2852 1.384 . S
C2854 C2855 1.372 . S
C2855 C2854 1.372 . S
C2855 C2856 1.400 . S
C2855 C2860 1.490 . S
C2856 H2846 0.930 . S
C2856 C2855 1.400 . S
C2856 C2859 1.386 . S
H2857 C2873 0.930 . S
H2858 C2874 0.931 1_455 S
C2859 H2847 0.929 . S
C2859 C2853 1.390 . S
C2859 C2856 1.386 . S
C2860 C2855 1.490 . S
C2860 C2862 1.395 . S
C2860 C2863 1.394 1_455 S
H2861 C2867 0.930 . S
C2862 H2848 0.930 . S
C2862 C2860 1.395 . S
C2862 C2865 1.389 1_456 S
C2863 C2860 1.394 1_655 S
C2863 C2864 1.489 . S
C2863 C2867 1.403 1_556 S
C2864 H2849 1.018 . S
C2864 H2850 1.004 . S
C2864 H2851 0.906 1_655 S
C2864 C2863 1.489 . S
C2865 C2862 1.389 1_654 S
C2865 C2866 1.436 . S
C2865 C2869 1.491 . S
C2866 C2865 1.436 . S
C2866 C2867 1.385 . S
C2866 C2868 1.478 . S
C2867 H2861 0.930 . S
C2867 C2863 1.403 1_554 S
C2867 C2866 1.385 . S
C2868 C2866 1.478 . S
C2868 C2870 1.381 . S
C2868 C2874 1.383 . S
C2869 C2865 1.491 . S
C2869 H2875 0.926 1_655 S
C2869 H2876 0.938 1_655 S
C2869 H2877 0.995 . S
C2870 C2868 1.381 . S
C2870 C2871 1.394 . S
C2870 H2878 0.930 . S
C2871 C2870 1.394 . S
C2871 C2872 1.383 . S
C2871 H2879 0.929 . S
C2872 C2871 1.383 . S
C2872 C2873 1.377 . S
C2873 H2857 0.930 . S
C2873 C2872 1.377 . S
C2873 C2874 1.379 . S
C2874 H2858 0.931 1_655 S
C2874 C2868 1.383 . S
C2874 C2873 1.379 . S
H2875 C2869 0.926 1_455 S
H2876 C2869 0.938 1_455 S
H2877 C2869 0.995 . S
H2878 C2870 0.930 . S
H2879 C2871 0.929 . S
H2880 C2888 0.929 . S
H2881 C2890 0.930 . S
H2882 C2892 0.930 . S
H2883 C2895 0.929 . S
H2884 C2898 0.930 . S
H2885 C2900 0.960 . S
H2886 C2900 0.960 . S
H2887 C2900 0.960 . S
C2888 H2880 0.929 . S
C2888 C2889 1.377 . S
C2888 C2890 1.384 . S
C2889 C2888 1.377 . S
C2889 C2895 1.390 . S
C2890 H2881 0.930 . S
C2890 C2888 1.384 . S
C2890 C2891 1.372 . S
C2891 C2890 1.372 . S
C2891 C2892 1.400 . S
C2891 C2896 1.490 . S
C2892 H2882 0.930 . S
C2892 C2891 1.400 . S
C2892 C2895 1.386 . S
H2893 C2909 0.930 . S
H2894 C2910 0.931 . S
C2895 H2883 0.929 . S
C2895 C2889 1.390 . S
C2895 C2892 1.386 . S
C2896 C2891 1.490 . S
C2896 C2898 1.395 . S
C2896 C2899 1.403 . S
H2897 C2903 0.930 . S
C2898 H2884 0.930 . S
C2898 C2896 1.395 . S
C2898 C2901 1.403 1_554 S
C2899 C2896 1.403 . S
C2899 C2900 1.524 . S
C2899 C2903 1.400 1_554 S
C2900 H2885 0.960 . S
C2900 H2886 0.960 . S
C2900 H2887 0.960 . S
C2900 C2899 1.524 . S
C2901 C2898 1.403 1_556 S
C2901 C2902 1.392 . S
C2901 C2905 1.495 . S
C2902 C2901 1.392 . S
C2902 C2903 1.385 . S
C2902 C2904 1.478 . S
C2903 H2897 0.930 . S
C2903 C2899 1.400 1_556 S
C2903 C2902 1.385 . S
C2904 C2902 1.478 . S
C2904 C2906 1.381 . S
C2904 C2910 1.383 . S
C2905 C2901 1.495 . S
C2905 H2911 0.959 . S
C2905 H2912 0.961 . S
C2905 H2913 0.960 . S
C2906 C2904 1.381 . S
C2906 C2907 1.394 . S
C2906 H2914 0.930 . S
C2907 C2906 1.394 . S
C2907 C2908 1.383 . S
C2907 H2915 0.929 . S
C2908 C2907 1.383 . S
C2908 C2909 1.377 . S
C2909 H2893 0.930 . S
C2909 C2908 1.377 . S
C2909 C2910 1.379 . S
C2910 H2894 0.931 . S
C2910 C2904 1.383 . S
C2910 C2909 1.379 . S
H2911 C2905 0.959 . S
H2912 C2905 0.961 . S
H2913 C2905 0.960 . S
H2914 C2906 0.930 . S
H2915 C2907 0.929 . S
H2916 C2924 0.929 . S
H2917 C2926 0.930 . S
H2918 C2928 0.930 1_565 S
H2919 C2931 0.929 . S
H2920 C2934 0.930 . S
H2921 C2936 0.960 . S
H2922 C2936 0.960 1_545 S
H2923 C2936 0.960 . S
C2924 H2916 0.929 . S
C2924 C2925 1.377 . S
C2924 C2926 1.384 . S
C2925 C2924 1.377 . S
C2925 C2931 1.390 . S
C2926 H2917 0.930 . S
C2926 C2924 1.384 . S
C2926 C2927 1.372 . S
C2927 C2926 1.372 . S
C2927 C2928 1.400 . S
C2927 C2932 1.490 . S
C2928 H2918 0.930 1_545 S
C2928 C2927 1.400 . S
C2928 C2931 1.386 . S
H2929 C2945 0.930 . S
H2930 C2946 0.931 . S
C2931 H2919 0.929 . S
C2931 C2925 1.390 . S
C2931 C2928 1.386 . S
C2932 C2927 1.490 . S
C2932 C2934 1.395 . S
C2932 C2935 1.403 1_545 S
H2933 C2939 0.930 . S
C2934 H2920 0.930 . S
C2934 C2932 1.395 . S
C2934 C2937 1.403 1_554 S
C2935 C2932 1.403 1_565 S
C2935 C2936 1.524 . S
C2935 C2939 1.400 1_554 S
C2936 H2921 0.960 . S
C2936 H2922 0.960 1_565 S
C2936 H2923 0.960 . S
C2936 C2935 1.524 . S
C2937 C2934 1.403 1_556 S
C2937 C2938 1.392 1_545 S
C2937 C2941 1.495 . S
C2938 C2937 1.392 1_565 S
C2938 C2939 1.385 . S
C2938 C2940 1.478 . S
C2939 H2933 0.930 . S
C2939 C2935 1.400 1_556 S
C2939 C2938 1.385 . S
C2940 C2938 1.478 . S
C2940 C2942 1.381 . S
C2940 C2946 1.383 . S
C2941 C2937 1.495 . S
C2941 H2947 0.959 . S
C2941 H2948 0.927 1_545 S
C2941 H2949 0.960 . S
C2942 C2940 1.381 . S
C2942 C2943 1.394 . S
C2942 H2950 0.930 1_565 S
C2943 C2942 1.394 . S
C2943 C2944 1.383 . S
C2943 H2951 0.929 . S
C2944 C2943 1.383 . S
C2944 C2945 1.377 . S
C2945 H2929 0.930 . S
C2945 C2944 1.377 . S
C2945 C2946 1.379 . S
C2946 H2930 0.931 . S
C2946 C2940 1.383 . S
C2946 C2945 1.379 . S
H2947 C2941 0.959 . S
H2948 C2941 0.927 1_565 S
H2949 C2941 0.960 . S
H2950 C2942 0.930 1_545 S
H2951 C2943 0.929 . S
H2952 C2960 0.929 . S
H2953 C2962 0.930 . S
H2954 C2964 0.930 1_545 S
H2955 C2967 0.929 . S
H2956 C2970 0.930 . S
H2957 C2972 0.960 . S
H2958 C2972 0.960 . S
H2959 C2972 0.960 . S
C2960 H2952 0.929 . S
C2960 C2961 1.377 . S
C2960 C2962 1.384 . S
C2961 C2960 1.377 . S
C2961 C2967 1.390 . S
C2962 H2953 0.930 . S
C2962 C2960 1.384 . S
C2962 C2963 1.372 . S
C2963 C2962 1.372 . S
C2963 C2964 1.400 . S
C2963 C2968 1.490 . S
C2964 H2954 0.930 1_565 S
C2964 C2963 1.400 . S
C2964 C2967 1.386 . S
H2965 C2981 0.930 . S
H2966 C2982 0.931 . S
C2967 H2955 0.929 . S
C2967 C2961 1.390 . S
C2967 C2964 1.386 . S
C2968 C2963 1.490 . S
C2968 C2970 1.395 . S
C2968 C2971 1.403 1_565 S
H2969 C2975 0.930 . S
C2970 H2956 0.930 . S
C2970 C2968 1.395 . S
C2970 C2973 1.403 1_556 S
C2971 C2968 1.403 1_545 S
C2971 C2972 1.524 . S
C2971 C2975 1.400 1_556 S
C2972 H2957 0.960 . S
C2972 H2958 0.960 . S
C2972 H2959 0.960 . S
C2972 C2971 1.524 . S
C2973 C2970 1.403 1_554 S
C2973 C2974 1.392 1_565 S
C2973 C2977 1.495 . S
C2974 C2973 1.392 1_545 S
C2974 C2975 1.385 . S
C2974 C2976 1.478 . S
C2975 H2969 0.930 . S
C2975 C2971 1.400 1_554 S
C2975 C2974 1.385 . S
C2976 C2974 1.478 . S
C2976 C2978 1.381 . S
C2976 C2982 1.383 . S
C2977 C2973 1.495 . S
C2977 H2983 0.959 . S
C2977 H2984 0.961 . S
C2977 H2985 0.960 . S
C2978 C2976 1.381 . S
C2978 C2979 1.394 . S
C2978 H2986 0.930 1_545 S
C2979 C2978 1.394 . S
C2979 C2980 1.383 . S
C2979 H2987 0.929 . S
C2980 C2979 1.383 . S
C2980 C2981 1.377 . S
C2981 H2965 0.930 . S
C2981 C2980 1.377 . S
C2981 C2982 1.379 . S
C2982 H2966 0.931 . S
C2982 C2976 1.383 . S
C2982 C2981 1.379 . S
H2983 C2977 0.959 . S
H2984 C2977 0.961 . S
H2985 C2977 0.960 . S
H2986 C2978 0.930 1_565 S
H2987 C2979 0.929 . S
H2988 C2996 0.929 . S
H2989 C2998 0.930 . S
H2990 C3000 0.930 1_655 S
H2991 C3003 0.929 . S
H2992 C3006 0.930 . S
H2993 C3008 0.960 . S
H2994 C3008 0.960 . S
H2995 C3008 0.960 . S
C2996 H2988 0.929 . S
C2996 C2997 1.377 . S
C2996 C2998 1.384 . S
C2997 C2996 1.377 . S
C2997 C3003 1.390 . S
C2998 H2989 0.930 . S
C2998 C2996 1.384 . S
C2998 C2999 1.372 . S
C2999 C2998 1.372 . S
C2999 C3000 1.400 . S
C2999 C3004 1.490 . S
C3000 H2990 0.930 1_455 S
C3000 C2999 1.400 . S
C3000 C3003 1.386 . S
H3001 C3017 0.930 . S
H3002 C3018 0.931 . S
C3003 H2991 0.929 . S
C3003 C2997 1.390 . S
C3003 C3000 1.386 . S
C3004 C2999 1.490 . S
C3004 C3006 1.395 . S
C3004 C3007 1.403 1_455 S
H3005 C3011 0.930 . S
C3006 H2992 0.930 . S
C3006 C3004 1.395 . S
C3006 C3009 1.403 1_556 S
C3007 C3004 1.403 1_655 S
C3007 C3008 1.524 . S
C3007 C3011 1.400 1_556 S
C3008 H2993 0.960 . S
C3008 H2994 0.960 . S
C3008 H2995 0.960 . S
C3008 C3007 1.524 . S
C3009 C3006 1.403 1_554 S
C3009 C3010 1.392 1_455 S
C3009 C3013 1.495 . S
C3010 C3009 1.392 1_655 S
C3010 C3011 1.385 . S
C3010 C3012 1.478 . S
C3011 H3005 0.930 . S
C3011 C3007 1.400 1_554 S
C3011 C3010 1.385 . S
C3012 C3010 1.478 . S
C3012 C3014 1.381 . S
C3012 C3018 1.383 . S
C3013 C3009 1.495 . S
C3013 H3019 0.959 . S
C3013 H3020 0.961 . S
C3013 H3021 0.960 . S
C3014 C3012 1.381 . S
C3014 C3015 1.394 . S
C3014 H3022 0.930 1_655 S
C3015 C3014 1.394 . S
C3015 C3016 1.383 . S
C3015 H3023 0.929 . S
C3016 C3015 1.383 . S
C3016 C3017 1.377 . S
C3017 H3001 0.930 . S
C3017 C3016 1.377 . S
C3017 C3018 1.379 . S
C3018 H3002 0.931 . S
C3018 C3012 1.383 . S
C3018 C3017 1.379 . S
H3019 C3013 0.959 . S
H3020 C3013 0.961 . S
H3021 C3013 0.960 . S
H3022 C3014 0.930 1_455 S
H3023 C3015 0.929 . S
H3024 C3032 0.929 . S
H3025 C3034 0.930 . S
H3026 C3036 0.930 . S
H3027 C3039 0.929 . S
H3028 C3042 0.930 . S
H3029 C3044 0.960 . S
H3030 C3044 0.960 . S
H3031 C3044 0.960 . S
C3032 H3024 0.929 . S
C3032 C3033 1.377 . S
C3032 C3034 1.384 . S
C3033 C3032 1.377 . S
C3033 C3039 1.390 . S
C3034 H3025 0.930 . S
C3034 C3032 1.384 . S
C3034 C3035 1.372 . S
C3035 C3034 1.372 . S
C3035 C3036 1.400 . S
C3035 C3040 1.490 . S
C3036 H3026 0.930 . S
C3036 C3035 1.400 . S
C3036 C3039 1.386 . S
H3037 C3053 0.930 . S
H3038 C3054 0.931 . S
C3039 H3027 0.929 . S
C3039 C3033 1.390 . S
C3039 C3036 1.386 . S
C3040 C3035 1.490 . S
C3040 C3042 1.395 . S
C3040 C3043 1.403 . S
H3041 C3047 0.930 . S
C3042 H3028 0.930 . S
C3042 C3040 1.395 . S
C3042 C3045 1.403 1_554 S
C3043 C3040 1.403 . S
C3043 C3044 1.524 . S
C3043 C3047 1.400 1_554 S
C3044 H3029 0.960 . S
C3044 H3030 0.960 . S
C3044 H3031 0.960 . S
C3044 C3043 1.524 . S
C3045 C3042 1.403 1_556 S
C3045 C3046 1.392 . S
C3045 C3049 1.495 . S
C3046 C3045 1.392 . S
C3046 C3047 1.385 . S
C3046 C3048 1.478 . S
C3047 H3041 0.930 . S
C3047 C3043 1.400 1_556 S
C3047 C3046 1.385 . S
C3048 C3046 1.478 . S
C3048 C3050 1.381 . S
C3048 C3054 1.383 . S
C3049 C3045 1.495 . S
C3049 H3055 0.959 . S
C3049 H3056 0.961 . S
C3049 H3057 0.960 . S
C3050 C3048 1.381 . S
C3050 C3051 1.394 . S
C3050 H3058 0.930 . S
C3051 C3050 1.394 . S
C3051 C3052 1.383 . S
C3051 H3059 0.929 . S
C3052 C3051 1.383 . S
C3052 C3053 1.377 . S
C3053 H3037 0.930 . S
C3053 C3052 1.377 . S
C3053 C3054 1.379 . S
C3054 H3038 0.931 . S
C3054 C3048 1.383 . S
C3054 C3053 1.379 . S
H3055 C3049 0.959 . S
H3056 C3049 0.961 . S
H3057 C3049 0.960 . S
H3058 C3050 0.930 . S
H3059 C3051 0.929 . S
C477 C10 1.414 . S
C496 C147 1.422 . S
C513 C23 1.416 . S
C532 C121 1.415 . S
C549 C140 1.413 . S
C568 C30 1.420 . S
C585 C43 1.414 . S
C604 C101 1.421 . S
C621 C108 1.413 . S
C640 C56 1.419 . S
C657 C75 1.413 . S
C676 C82 1.418 . S
C693 C303 1.414 . S
C712 C160 1.406 . S
C729 C179 1.416 . S
C748 C283 1.402 . S
C765 C192 1.417 . S
C784 C296 1.413 . S
C801 C251 1.413 . S
C820 C199 1.420 . S
C837 C218 1.414 . S
C856 C264 1.421 . S
C873 C244 1.415 . S
C892 C231 1.421 . S
C909 C316 1.414 . S
C928 C459 1.421 . S
C945 C439 1.414 . S
C964 C335 1.422 . S
C981 C446 1.417 . S
C1000 C342 1.407 . S
C1017 C413 1.413 . S
C1036 C355 1.422 . S
C1053 C426 1.413 . S
C1072 C368 1.419 . S
C1089 C400 1.416 . S
C1108 C381 1.417 . S
C1125 C3 1.331 . S
C1144 C57 1.338 . S
C1161 C68 1.329 . S
C1180 C16 1.326 . S
C1197 C31 1.332 . S
C1216 C44 1.316 . S
C1233 C83 1.330 . S
C1252 C133 1.327 . S
C1269 C94 1.330 . S
C1288 C148 1.322 . S
C1305 C109 1.330 . S
C1324 C122 1.322 . S
C1341 C211 1.328 . S
C1360 C161 1.339 . S
C1377 C224 1.332 . S
C1396 C172 1.315 . S
C1413 C185 1.332 . S
C1432 C200 1.316 . S
C1449 C289 1.333 . S
C1468 C237 1.336 . S
C1485 C304 1.329 . S
C1504 C252 1.320 . S
C1521 C265 1.333 . S
C1540 C276 1.340 . S
C1557 C369 1.333 . S
C1576 C317 1.326 . S
C1593 C328 1.330 . S
C1612 C382 1.320 . S
C1629 C343 1.329 . S
C1648 C356 1.327 . S
C1665 C447 1.330 . S
C1684 C393 1.321 . S
C1701 C406 1.329 . S
C1720 C460 1.321 . S
C1737 C432 1.331 . S
C1756 C419 1.330 . S
C1773 C380 1.244 . S
C1792 C5 1.245 1_556 S
C1809 C18 1.242 1_556 S
C1828 C354 1.250 . S
C1845 C29 1.244 1_556 S
C1864 C367 1.243 . S
C1881 C42 1.242 1_554 S
C1900 C174 1.249 . S
C1917 C187 1.242 . S
C1936 C55 1.250 1_554 S
C1953 C159 1.244 . S
C1972 C70 1.242 1_554 S
C1989 C81 1.243 1_554 S
C2008 C302 1.234 . S
C2025 C96 1.242 1_554 S
C2044 C278 1.238 . S
C2061 C107 1.243 1_554 S
C2080 C291 1.243 . S
C2097 C408 1.245 . S
C2116 C120 1.240 1_556 S
C2133 C421 1.245 . S
C2152 C135 1.242 1_556 S
C2169 C146 1.245 1_556 S
C2188 C395 1.248 . S
C2205 C330 1.245 . S
C2224 C198 1.237 . S
C2241 C213 1.243 . S
C2260 C341 1.248 . S
C2277 C315 1.244 . S
C2296 C226 1.241 . S
C2313 C458 1.244 . S
C2332 C239 1.237 . S
C2349 C250 1.245 . S
C2368 C434 1.243 . S
C2385 C263 1.243 . S
C2404 C445 1.242 . S
C2421 C4 1.539 . S
C2440 C387 1.537 . S
C2457 C361 1.539 . S
C2476 C17 1.535 . S
C2493 C36 1.539 . S
C2512 C374 1.540 . S
C2529 C173 1.540 . S
C2548 C49 1.531 . S
C2565 C62 1.539 . S
C2584 C186 1.535 . S
C2601 C69 1.540 . S
C2620 C166 1.531 . S
C2637 C309 1.537 . S
C2656 C88 1.532 . S
C2673 C95 1.539 . S
C2692 C277 1.529 . S
C2709 C114 1.538 . S
C2728 C290 1.533 . S
C2745 C127 1.539 . S
C2764 C407 1.531 . S
C2781 C420 1.538 . S
C2800 C134 1.535 . S
C2817 C153 1.537 . S
C2836 C394 1.533 . S
C2853 C329 1.538 . S
C2872 C205 1.540 . S
C2889 C212 1.540 . S
C2908 C348 1.535 . S
C2925 C225 1.540 . S
C2944 C322 1.529 . S
C2961 C465 1.537 . S
C2980 C238 1.536 . S
C2997 C433 1.537 . S
C3016 C257 1.538 . S
C3033 C270 1.538 . S
C3052 C452 1.531 . S
