# Generated by pormake.
# Topology umz, (4)-cn, num edge types: 1
# Building blocks:
#     Node 0, Type 0, BuildingBlock: CEKHIL_clean_sbu_0, # of connection points: 4
#     Node 1, Type 0, BuildingBlock: CEKHIL_clean_sbu_0, # of connection points: 4
#     Node 2, Type 0, BuildingBlock: CEKHIL_clean_sbu_0, # of connection points: 4
#     Node 3, Type 0, BuildingBlock: CEKHIL_clean_sbu_0, # of connection points: 4
#     Node 4, Type 0, BuildingBlock: CEKHIL_clean_sbu_0, # of connection points: 4
#     Node 5, Type 0, BuildingBlock: CEKHIL_clean_sbu_0, # of connection points: 4
#     Node 6, Type 0, BuildingBlock: CEKHIL_clean_sbu_0, # of connection points: 4
#     Node 7, Type 0, BuildingBlock: CEKHIL_clean_sbu_0, # of connection points: 4
#     Node 8, Type 0, BuildingBlock: CEKHIL_clean_sbu_0, # of connection points: 4
#     Node 9, Type 0, BuildingBlock: CEKHIL_clean_sbu_0, # of connection points: 4
#     Node 10, Type 0, BuildingBlock: CEKHIL_clean_sbu_0, # of connection points: 4
#     Node 11, Type 0, BuildingBlock: CEKHIL_clean_sbu_0, # of connection points: 4
#     Node 12, Type 0, BuildingBlock: CEKHIL_clean_sbu_0, # of connection points: 4
#     Node 13, Type 0, BuildingBlock: CEKHIL_clean_sbu_0, # of connection points: 4
#     Node 14, Type 0, BuildingBlock: CEKHIL_clean_sbu_0, # of connection points: 4
#     Node 15, Type 0, BuildingBlock: CEKHIL_clean_sbu_0, # of connection points: 4
#     Edge 16, Type (0, 0), BuildingBlock: XUDNAN_clean_linker_2, # of connection points: 2
#     Edge 17, Type (0, 0), BuildingBlock: XUDNAN_clean_linker_2, # of connection points: 2
#     Edge 18, Type (0, 0), BuildingBlock: XUDNAN_clean_linker_2, # of connection points: 2
#     Edge 19, Type (0, 0), BuildingBlock: XUDNAN_clean_linker_2, # of connection points: 2
#     Edge 20, Type (0, 0), BuildingBlock: XUDNAN_clean_linker_2, # of connection points: 2
#     Edge 21, Type (0, 0), BuildingBlock: XUDNAN_clean_linker_2, # of connection points: 2
#     Edge 22, Type (0, 0), BuildingBlock: XUDNAN_clean_linker_2, # of connection points: 2
#     Edge 23, Type (0, 0), BuildingBlock: XUDNAN_clean_linker_2, # of connection points: 2
#     Edge 24, Type (0, 0), BuildingBlock: XUDNAN_clean_linker_2, # of connection points: 2
#     Edge 25, Type (0, 0), BuildingBlock: XUDNAN_clean_linker_2, # of connection points: 2
#     Edge 26, Type (0, 0), BuildingBlock: XUDNAN_clean_linker_2, # of connection points: 2
#     Edge 27, Type (0, 0), BuildingBlock: XUDNAN_clean_linker_2, # of connection points: 2
#     Edge 28, Type (0, 0), BuildingBlock: XUDNAN_clean_linker_2, # of connection points: 2
#     Edge 29, Type (0, 0), BuildingBlock: XUDNAN_clean_linker_2, # of connection points: 2
#     Edge 30, Type (0, 0), BuildingBlock: XUDNAN_clean_linker_2, # of connection points: 2
#     Edge 31, Type (0, 0), BuildingBlock: XUDNAN_clean_linker_2, # of connection points: 2
#     Edge 32, Type (0, 0), BuildingBlock: XUDNAN_clean_linker_2, # of connection points: 2
#     Edge 33, Type (0, 0), BuildingBlock: XUDNAN_clean_linker_2, # of connection points: 2
#     Edge 34, Type (0, 0), BuildingBlock: XUDNAN_clean_linker_2, # of connection points: 2
#     Edge 35, Type (0, 0), BuildingBlock: XUDNAN_clean_linker_2, # of connection points: 2
#     Edge 36, Type (0, 0), BuildingBlock: XUDNAN_clean_linker_2, # of connection points: 2
#     Edge 37, Type (0, 0), BuildingBlock: XUDNAN_clean_linker_2, # of connection points: 2
#     Edge 38, Type (0, 0), BuildingBlock: XUDNAN_clean_linker_2, # of connection points: 2
#     Edge 39, Type (0, 0), BuildingBlock: XUDNAN_clean_linker_2, # of connection points: 2
#     Edge 40, Type (0, 0), BuildingBlock: XUDNAN_clean_linker_2, # of connection points: 2
#     Edge 41, Type (0, 0), BuildingBlock: XUDNAN_clean_linker_2, # of connection points: 2
#     Edge 42, Type (0, 0), BuildingBlock: XUDNAN_clean_linker_2, # of connection points: 2
#     Edge 43, Type (0, 0), BuildingBlock: XUDNAN_clean_linker_2, # of connection points: 2
#     Edge 44, Type (0, 0), BuildingBlock: XUDNAN_clean_linker_2, # of connection points: 2
#     Edge 45, Type (0, 0), BuildingBlock: XUDNAN_clean_linker_2, # of connection points: 2
#     Edge 46, Type (0, 0), BuildingBlock: XUDNAN_clean_linker_2, # of connection points: 2
#     Edge 47, Type (0, 0), BuildingBlock: XUDNAN_clean_linker_2, # of connection points: 2
# Relax obj value: 0.259
# Max RMSD: 0.165
# Mean RMSD: 0.165
data_MOF--net-umz--node1-CEKHIL_clean_sbu_0--edge1-XUDNAN_clean_linker_2
_symmetry_space_group_name_H-M    P1
_symmetry_Int_Tables_number       1
_symmetry_cell_setting            triclinic
loop_
_symmetry_equiv_pos_as_xyz
'x, y, z'
_cell_length_a     58.217098
_cell_length_b     57.916288
_cell_length_c     22.790602
_cell_angle_alpha  89.927799
_cell_angle_beta   89.91302
_cell_angle_gamma 89.942037
loop_
_atom_site_label
_atom_site_type_symbol
_atom_site_fract_x
_atom_site_fract_y
_atom_site_fract_z
_atom_type_partial_charge
Co0 Co 0.99612 0.63008 0.0596 0.0
O1 O 0.98213 0.65145 0.00662 0.0
O2 O 0.01429 0.65834 0.05494 0.0
C3 C 0.96312 0.62165 0.10664 0.0
O4 O 0.01486 0.61208 0.12023 0.0
Co5 Co 0.98013 0.57866 0.06147 0.0
O6 O 0.99675 0.57841 0.13717 0.0
C7 C 0.01151 0.59543 0.96778 0.0
C8 C 0.99837 0.66582 0.01954 0.0
C9 C 0.01208 0.59329 0.14983 0.0
O10 O 0.01377 0.61526 -0.00713 0.0
O11 O 0.9977 0.5798 0.98617 0.0
O12 O 0.97492 0.63964 0.12212 0.0
O13 O 0.97075 0.61046 0.062 0.0
Co14 Co 0.86582 0.00885 0.56229 0.0
O15 O 0.83961 0.99746 0.51935 0.0
O16 O 0.84244 0.03247 0.55759 0.0
C17 C 0.87057 0.9776 0.62039 0.0
O18 O 0.88886 0.02643 0.61249 0.0
Co19 Co 0.91342 0.98432 0.55796 0.0
O20 O 0.92041 0.00465 0.62557 0.0
C21 C 0.89934 0.01464 0.45989 0.0
C22 C 0.83009 0.01733 0.52986 0.0
C23 C 0.90833 0.02243 0.63729 0.0
O24 O 0.88095 0.02057 0.48777 0.0
O25 O 0.91328 0.99921 0.47869 0.0
O26 O 0.85502 0.99296 0.63278 0.0
O27 O 0.88086 0.98036 0.57068 0.0
Co28 Co 0.49689 0.87197 0.06205 0.0
O29 O 0.50766 0.84586 0.0171 0.0
O30 O 0.47432 0.84759 0.0639 0.0
C31 C 0.53021 0.87818 0.10991 0.0
O32 O 0.48016 0.8946 0.1154 0.0
Co33 Co 0.51861 0.92084 0.05327 0.0
O34 O 0.50026 0.92743 0.12479 0.0
C35 C 0.48652 0.90467 0.96098 0.0
C36 C 0.48861 0.83575 0.032 0.0
C37 C 0.48361 0.91437 0.13949 0.0
O38 O 0.48198 0.88613 0.9902 0.0
O39 O 0.50176 0.9193 0.97693 0.0
O40 O 0.51601 0.86253 0.12883 0.0
O41 O 0.52466 0.88823 0.06157 0.0
Co42 Co 0.63329 0.49503 0.56886 0.0
O43 O 0.65966 0.50646 0.52599 0.0
O44 O 0.6568 0.47168 0.56598 0.0
C45 C 0.62744 0.52666 0.62509 0.0
O46 O 0.61059 0.4771 0.6189 0.0
Co47 Co 0.58496 0.518 0.56471 0.0
O48 O 0.57965 0.49923 0.63653 0.0
C49 C 0.60023 0.48799 0.4669 0.0
C50 C 0.66913 0.4866 0.53738 0.0
C51 C 0.59189 0.48142 0.64672 0.0
O52 O 0.61876 0.48262 0.49473 0.0
O53 O 0.58575 0.50294 0.4857 0.0
O54 O 0.64328 0.51178 0.63891 0.0
O55 O 0.61747 0.52315 0.57542 0.0
Co56 Co 0.99585 0.87046 0.92094 0.0
O57 O 0.98269 0.84687 0.96955 0.0
O58 O 0.0146 0.84271 0.91757 0.0
C59 C 0.96227 0.8801 0.87764 0.0
O60 O 0.0138 0.89034 0.86303 0.0
Co61 Co 0.97948 0.9217 0.92811 0.0
O62 O 0.99536 0.92416 0.8514 0.0
C63 C 0.01342 0.90328 0.01421 0.0
C64 C 0.99907 0.83348 0.95131 0.0
C65 C 0.01074 0.90966 0.83616 0.0
O66 O 0.01429 0.88341 0.98874 0.0
O67 O -0.00038 0.91942 -0.00127 0.0
O68 O 0.97414 0.86275 0.85809 0.0
O69 O 0.97016 0.88994 0.92399 0.0
Co70 Co 0.62854 0.00442 0.4219 0.0
O71 O 0.65485 0.99408 0.46659 0.0
O72 O 0.6515 0.02837 0.42437 0.0
C73 C 0.62416 0.9722 0.36728 0.0
O74 O 0.60561 0.0211 0.36949 0.0
Co75 Co 0.58095 0.98005 0.42657 0.0
O76 O 0.57419 0.99924 0.35649 0.0
C77 C 0.59445 0.01173 0.52224 0.0
C78 C 0.66401 0.01396 0.45417 0.0
C79 C 0.58637 0.01686 0.34401 0.0
O80 O 0.61306 0.01717 0.4947 0.0
O81 O 0.58055 0.99616 0.50421 0.0
O82 O 0.63968 0.9874 0.3535 0.0
O83 O 0.61364 0.97577 0.41632 0.0
Co84 Co 0.49519 0.63276 0.91582 0.0
O85 O 0.50722 0.6602 0.95315 0.0
O86 O 0.47381 0.65795 0.9071 0.0
C87 C 0.52813 0.62245 0.87035 0.0
O88 O 0.47718 0.60901 0.86916 0.0
Co89 Co 0.51372 0.58325 0.93844 0.0
O90 O 0.4953 0.57482 0.86833 0.0
C91 C 0.48471 0.60636 0.02732 0.0
C92 C 0.48848 0.67039 0.93604 0.0
C93 C 0.47952 0.58827 0.85004 0.0
O94 O 0.47985 0.62289 0.99155 0.0
O95 O 0.49916 0.5903 0.01611 0.0
O96 O 0.51486 0.63802 0.84693 0.0
O97 O 0.52193 0.61492 0.92112 0.0
Co98 Co 0.8702 0.49348 0.42418 0.0
O99 O 0.84428 0.50435 0.46914 0.0
O100 O 0.84726 0.46953 0.42971 0.0
C101 C 0.87377 0.52508 0.36714 0.0
O102 O 0.89307 0.47642 0.37197 0.0
Co103 Co 0.91741 0.51868 0.42571 0.0
O104 O 0.92429 0.49851 0.35765 0.0
C105 C 0.90448 0.48822 0.52454 0.0
C106 C 0.83494 0.48443 0.45859 0.0
C107 C 0.91233 0.48065 0.34627 0.0
O108 O 0.88613 0.48183 0.49737 0.0
O109 O 0.91796 0.50394 0.50516 0.0
O110 O 0.85846 0.50949 0.35498 0.0
O111 O 0.88465 0.52218 0.41586 0.0
Co112 Co 0.0027 0.37166 0.92049 0.0
O113 O 0.01341 0.34457 0.96203 0.0
O114 O 0.97996 0.34757 0.91638 0.0
C115 C 0.03578 0.37889 0.87213 0.0
O116 O 0.98578 0.39512 0.87036 0.0
Co117 Co 0.02401 0.42046 0.93341 0.0
O118 O 0.00559 0.42816 0.86263 0.0
C119 C 0.99265 0.40246 0.02542 0.0
C120 C 0.99416 0.33499 0.94657 0.0
C121 C 0.98898 0.41516 0.84758 0.0
O122 O 0.98804 0.38448 -0.00576 0.0
O123 O 0.00771 0.41749 0.01053 0.0
O124 O 0.02156 0.3635 0.85212 0.0
O125 O 0.03044 0.38802 0.9218 0.0
Co126 Co 0.12996 0.99688 0.42203 0.0
O127 O 0.15081 0.01104 0.47613 0.0
O128 O 0.15704 0.97759 0.4321 0.0
C129 C 0.12329 0.02904 0.36816 0.0
O130 O 0.1127 0.97752 0.36159 0.0
Co131 Co 0.07926 0.01447 0.41308 0.0
O132 O 0.0803 0.99681 0.33877 0.0
C133 C 0.09318 0.98405 0.51149 0.0
C134 C 0.16451 0.99375 0.46684 0.0
C135 C 0.09481 0.98072 0.32938 0.0
O136 O 0.11324 0.98086 0.48869 0.0
O137 O 0.07834 0.99807 0.49022 0.0
O138 O 0.14151 0.01662 0.35856 0.0
O139 O 0.11119 0.02289 0.41287 0.0
Co140 Co 0.50038 0.1317 0.92181 0.0
O141 O 0.4902 0.15809 0.96639 0.0
O142 O 0.52387 0.15521 0.92138 0.0
C143 C 0.46731 0.12688 0.87233 0.0
O144 O 0.51661 0.10858 0.8689 0.0
Co145 Co 0.47691 0.08364 0.92879 0.0
O146 O 0.49491 0.07696 0.85667 0.0
C147 C 0.50885 0.09839 0.02281 0.0
C148 C 0.50968 0.16753 0.95239 0.0
C149 C 0.51225 0.08931 0.84326 0.0
O150 O 0.51413 0.11686 -0.00587 0.0
O151 O 0.49333 0.08423 0.0059 0.0
O152 O 0.48223 0.142 0.85428 0.0
O153 O 0.47208 0.1165 0.92078 0.0
Co154 Co 0.37014 0.51009 0.41149 0.0
O155 O 0.34324 0.49829 0.4512 0.0
O156 O 0.3465 0.53346 0.41385 0.0
C157 C 0.37644 0.47895 0.35409 0.0
O158 O 0.39387 0.52825 0.3646 0.0
Co159 Co 0.41799 0.48622 0.42157 0.0
O160 O 0.42788 0.50966 0.36335 0.0
C161 C 0.40093 0.5151 0.51907 0.0
C162 C 0.33384 0.51821 0.44041 0.0
C163 C 0.41488 0.52628 0.34786 0.0
O164 O 0.38357 0.52165 0.48806 0.0
O165 O 0.41512 0.49958 0.50213 0.0
O166 O 0.36101 0.49416 0.33956 0.0
O167 O 0.38574 0.48186 0.40484 0.0
Co168 Co 0.99731 0.13226 0.0624 0.0
O169 O 0.00878 0.15866 0.01967 0.0
O170 O 0.97507 0.15698 0.06474 0.0
C171 C 0.03013 0.12507 0.11143 0.0
O172 O 0.97988 0.10938 0.11364 0.0
Co173 Co 0.01829 0.08314 0.05175 0.0
O174 O -0.00027 0.07634 0.12289 0.0
C175 C 0.98753 0.10097 0.95842 0.0
C176 C 0.9898 0.16894 0.03445 0.0
C177 C 0.9831 0.08948 0.13744 0.0
O178 O 0.98282 0.11911 0.98897 0.0
O179 O 0.00245 0.08592 0.97412 0.0
O180 O 0.01598 0.14072 0.13059 0.0
O181 O 0.02485 0.11556 0.06225 0.0
Co182 Co 0.36769 1.00018 0.56033 0.0
O183 O 0.34281 0.01368 0.51686 0.0
O184 O 0.34192 0.97895 0.5574 0.0
C185 C 0.37454 0.03169 0.61604 0.0
O186 O 0.38929 0.98124 0.61204 0.0
Co187 Co 0.41695 0.02131 0.55523 0.0
O188 O 0.42164 1.00175 0.62556 0.0
C189 C 0.40053 0.99161 0.45826 0.0
C190 C 0.33109 0.99534 0.52985 0.0
C191 C 0.40864 0.98471 0.63798 0.0
O192 O 0.38193 0.98672 0.48658 0.0
O193 O 0.41529 0.00633 0.47641 0.0
O194 O 0.35805 0.01758 0.62962 0.0
O195 O 0.38478 0.02749 0.56699 0.0
Co196 Co 0.50332 0.3696 0.07098 0.0
O197 O 0.49318 0.34341 0.02549 0.0
O198 O 0.52548 0.34492 0.07663 0.0
C199 C 0.46907 0.37652 0.11404 0.0
O200 O 0.51939 0.39212 0.12559 0.0
Co201 Co 0.48243 0.41893 0.06066 0.0
O202 O 0.50004 0.42549 0.13317 0.0
C203 C 0.51679 0.40249 0.97331 0.0
C204 C 0.51173 0.33309 0.04339 0.0
C205 C 0.51622 0.41205 0.14902 0.0
O206 O 0.51984 0.38326 0.00085 0.0
O207 O 0.50181 0.41758 0.98835 0.0
O208 O 0.48265 0.36078 0.1354 0.0
O209 O 0.47589 0.38636 0.06651 0.0
Co210 Co 0.13331 0.50762 0.56145 0.0
O211 O 0.15881 0.4975 0.51354 0.0
O212 O 0.1566 0.53127 0.55875 0.0
C213 C 0.12917 0.47471 0.61409 0.0
O214 O 0.11122 0.52382 0.61716 0.0
Co215 Co 0.0855 0.48349 0.55869 0.0
O216 O 0.08038 0.50125 0.63189 0.0
C217 C 0.09782 0.51715 0.46581 0.0
C218 C 0.16845 0.51706 0.52664 0.0
C219 C 0.09254 0.51884 0.64455 0.0
O220 O 0.11706 0.52171 0.49128 0.0
O221 O 0.08403 0.50144 0.48381 0.0
O222 O 0.14506 0.48952 0.62752 0.0
O223 O 0.11819 0.47903 0.56618 0.0
H224 H 0.03039 0.70145 0.02966 0.0
H225 H 0.96203 0.68532 0.96507 0.0
H226 H 0.95595 0.72595 0.94016 0.0
H227 H 0.01696 0.75581 0.09298 0.0
H228 H 0.04291 0.77024 0.07025 0.0
H229 H 0.04297 0.73947 0.08174 0.0
H230 H 0.0581 0.73317 0.97607 0.0
H231 H 0.05827 0.76396 0.9644 0.0
H232 H 0.04263 0.74546 0.91508 0.0
H233 H 0.95485 0.76779 0.93204 0.0
H234 H 0.96097 0.80976 0.92754 0.0
H235 H 0.03114 0.80068 0.98736 0.0
C236 C 0.01432 0.70649 0.00951 0.0
C237 C 0.99668 0.69011 -0.00047 0.0
C238 C 0.97587 0.6974 0.97313 0.0
C239 C 0.97215 0.72052 0.95889 0.0
C240 C 0.98955 0.73626 0.97022 0.0
C241 C 0.01042 0.72969 -0.00629 0.0
C242 C 0.02608 0.75055 0.00057 0.0
C243 C 0.03261 0.75423 0.06524 0.0
C244 C 0.04755 0.74813 0.9617 0.0
C245 C 0.01044 0.76975 0.97853 0.0
C246 C 0.98939 0.76091 0.96197 0.0
C247 C 0.97137 0.77496 0.94382 0.0
C248 C 0.97496 0.79875 0.94181 0.0
C249 C 0.9965 0.8083 0.95678 0.0
C250 C 0.0146 0.79366 0.97506 0.0
H251 H 0.69885 0.98345 0.47691 0.0
H252 H 0.68379 0.05659 0.46251 0.0
H253 H 0.72474 0.06558 0.48018 0.0
H254 H 0.74261 0.9874 0.5898 0.0
H255 H 0.76019 0.96507 0.55777 0.0
H256 H 0.72951 0.96462 0.54767 0.0
H257 H 0.73534 0.96354 0.43497 0.0
H258 H 0.76603 0.9642 0.44471 0.0
H259 H 0.75217 0.98576 0.39992 0.0
H260 H 0.76744 0.0665 0.50012 0.0
H261 H 0.80877 0.0592 0.51779 0.0
H262 H 0.79622 0.98543 0.51202 0.0
C263 C 0.70412 1.00136 0.47841 0.0
C264 C 0.68813 0.01936 0.46907 0.0
C265 C 0.69576 0.04257 0.46993 0.0
C266 C 0.71897 0.04783 0.47988 0.0
C267 C 0.73437 0.02967 0.48808 0.0
C268 C 0.72728 0.0069 0.48718 0.0
C269 C 0.74743 0.99057 0.49464 0.0
C270 C 0.74477 0.97607 0.55082 0.0
C271 C 0.75041 0.97511 0.44032 0.0
C272 C 0.76696 0.0077 0.50001 0.0
C273 C 0.75906 0.03018 0.49665 0.0
C274 C 0.77384 0.04898 0.5024 0.0
C275 C 0.79727 0.04468 0.51234 0.0
C276 C 0.80571 0.02178 0.51551 0.0
C277 C 0.79033 0.00312 0.50873 0.0
H278 H 0.5198 0.80176 0.00742 0.0
H279 H 0.44667 0.81518 0.02061 0.0
H280 H 0.43865 0.77446 -0.00495 0.0
H281 H 0.51788 0.761 0.88725 0.0
H282 H 0.54 0.74273 0.91744 0.0
H283 H 0.53988 0.77319 0.93332 0.0
H284 H 0.53978 0.76421 0.04472 0.0
H285 H 0.53985 0.73373 0.0292 0.0
H286 H 0.51765 0.74594 0.07488 0.0
H287 H 0.4387 0.73249 0.96604 0.0
H288 H 0.44672 0.69151 0.9435 0.0
H289 H 0.51985 0.70469 0.95721 0.0
C290 C 0.5021 0.79616 0.00426 0.0
C291 C 0.4838 0.81161 0.01526 0.0
C292 C 0.46089 0.80359 0.01207 0.0
C293 C 0.45619 0.78053 -0.00251 0.0
C294 C 0.47462 0.76567 0.98719 0.0
C295 C 0.49712 0.77309 0.99103 0.0
C296 C 0.5138 0.75336 0.98099 0.0
C297 C 0.52877 0.75784 0.9265 0.0
C298 C 0.52864 0.74906 0.03571 0.0
C299 C 0.49716 0.73368 0.97074 0.0
C300 C 0.47465 0.74122 0.97372 0.0
C301 C 0.45624 0.72635 0.96401 0.0
C302 C 0.46096 0.70314 0.95114 0.0
C303 C 0.48387 0.69495 0.94912 0.0
C304 C 0.50216 0.71045 0.9592 0.0
H305 H 0.70387 0.51757 0.51786 0.0
H306 H 0.689 0.44424 0.52471 0.0
H307 H 0.72996 0.43554 0.50606 0.0
H308 H 0.7476 0.51543 0.40444 0.0
H309 H 0.76518 0.5372 0.43855 0.0
H310 H 0.73451 0.53752 0.4491 0.0
H311 H 0.74045 0.53676 0.56174 0.0
H312 H 0.77113 0.53622 0.55153 0.0
H313 H 0.75732 0.51398 0.59422 0.0
H314 H 0.77253 0.43489 0.48582 0.0
H315 H 0.8138 0.4424 0.4678 0.0
H316 H 0.8012 0.51606 0.481 0.0
C317 C 0.7092 0.4997 0.51455 0.0
C318 C 0.69328 0.48155 0.52206 0.0
C319 C 0.70095 0.45838 0.51878 0.0
C320 C 0.72416 0.45328 0.50826 0.0
C321 C 0.73951 0.47156 0.50193 0.0
C322 C 0.73238 0.4943 0.50517 0.0
C323 C 0.7525 0.51071 0.49913 0.0
C324 C 0.74978 0.52612 0.44455 0.0
C325 C 0.75552 0.52527 0.55499 0.0
C326 C 0.77202 0.49365 0.49173 0.0
C327 C 0.76416 0.47115 0.49304 0.0
C328 C 0.77892 0.45243 0.48515 0.0
C329 C 0.80231 0.45684 0.47504 0.0
C330 C 0.81071 0.47976 0.47376 0.0
C331 C 0.79534 0.49833 0.48281 0.0
H332 H 0.0245 0.29986 0.96872 0.0
H333 H 0.95177 0.3153 0.95556 0.0
H334 H 0.94262 0.27446 0.97707 0.0
H335 H 0.02121 0.24484 0.8966 0.0
H336 H 0.04287 0.23151 0.94185 0.0
H337 H 0.04368 0.26215 0.92847 0.0
H338 H 0.0435 0.26984 0.04045 0.0
H339 H 0.04278 0.23922 0.05417 0.0
H340 H 0.02099 0.25768 0.08521 0.0
H341 H 0.94144 0.23212 0.00281 0.0
H342 H 0.94839 0.19082 0.02454 0.0
H343 H 0.02186 0.20241 0.01309 0.0
C344 C 0.00666 0.29465 0.97096 0.0
C345 C 0.9888 0.31072 0.96112 0.0
C346 C 0.96568 0.30323 0.96318 0.0
C347 C 0.96032 0.2801 0.97542 0.0
C348 C 0.97832 0.26463 0.98455 0.0
C349 C 0.00103 0.27153 0.98189 0.0
C350 C 0.01713 0.25126 0.99089 0.0
C351 C 0.0321 0.24721 0.93618 0.0
C352 C 0.03197 0.25471 0.04596 0.0
C353 C -7e-05 0.23192 -0.0006 0.0
C354 C 0.97764 0.24003 -0.0038 0.0
C355 C 0.95882 0.22553 0.00487 0.0
C356 C 0.96291 0.20214 0.01723 0.0
C357 C 0.98561 0.19343 0.01979 0.0
C358 C 0.0043 0.20854 0.01041 0.0
H359 H 0.29982 0.96575 0.47628 0.0
H360 H 0.30568 0.02766 0.58203 0.0
H361 H 0.26354 0.03118 0.5853 0.0
H362 H 0.25354 0.98737 0.38802 0.0
H363 H 0.23896 0.96006 0.38139 0.0
H364 H 0.2696 0.96077 0.39187 0.0
H365 H 0.26537 0.93455 0.4834 0.0
H366 H 0.23467 0.93389 0.47335 0.0
H367 H 0.24657 0.94327 0.54228 0.0
H368 H 0.22172 0.02901 0.57634 0.0
H369 H 0.1816 0.02401 0.54612 0.0
H370 H 0.20113 0.96484 0.44015 0.0
C371 C 0.29207 0.97985 0.50042 0.0
C372 C 0.30583 0.99642 0.52923 0.0
C373 C 0.29531 0.01489 0.55964 0.0
C374 C 0.27143 0.01692 0.56211 0.0
C375 C 0.25823 1.0005 0.53322 0.0
C376 C 0.26802 0.98249 0.50216 0.0
C377 C 0.24959 0.96854 0.47098 0.0
C378 C 0.25314 0.96924 0.4041 0.0
C379 C 0.24902 0.94358 0.49389 0.0
C380 C 0.2281 0.98171 0.48908 0.0
C381 C 0.23363 0.9998 0.52587 0.0
C382 C 0.21711 0.0149 0.54763 0.0
C383 C 0.19431 0.01188 0.53016 0.0
C384 C 0.18816 0.99405 0.49074 0.0
C385 C 0.20526 0.97848 0.4708 0.0
H386 H 0.47934 0.2031 0.96334 0.0
H387 H 0.55176 0.1863 0.97537 0.0
H388 H 0.56039 0.22704 9e-05 0.0
H389 H 0.48798 0.25813 0.89256 0.0
H390 H 0.46407 0.27177 0.92903 0.0
H391 H 0.46358 0.24116 0.91518 0.0
H392 H 0.45684 0.23331 0.02584 0.0
H393 H 0.45723 0.26388 0.04 0.0
H394 H 0.47658 0.24501 0.07892 0.0
H395 H 0.56068 0.26943 0.02699 0.0
H396 H 0.55308 0.31072 0.04718 0.0
H397 H 0.48087 0.30022 0.00905 0.0
C398 C 0.49698 0.208 0.97177 0.0
C399 C 0.5149 0.19162 0.96834 0.0
C400 C 0.53783 0.19866 0.97813 0.0
C401 C 0.54286 0.22171 0.99221 0.0
C402 C 0.52479 0.23751 -0.00502 0.0
C403 C 0.50234 0.23101 0.98431 0.0
C404 C 0.48621 0.2515 0.98727 0.0
C405 C 0.47479 0.25589 0.92745 0.0
C406 C 0.46816 0.24822 0.03592 0.0
C407 C 0.503 0.27052 0.0024 0.0
C408 C 0.52515 0.26208 0.00706 0.0
C409 C 0.54345 0.27627 0.02284 0.0
C410 C 0.53898 0.29967 0.03425 0.0
C411 C 0.51646 0.30868 0.02901 0.0
C412 C 0.49832 0.29388 0.01248 0.0
H413 H 0.2995 0.48668 0.45809 0.0
H414 H 0.31312 0.56028 0.45319 0.0
H415 H 0.27206 0.56815 0.47316 0.0
H416 H 0.24517 0.48977 0.38375 0.0
H417 H 0.23223 0.46699 0.4264 0.0
H418 H 0.2628 0.46713 0.41418 0.0
H419 H 0.26983 0.46576 0.52638 0.0
H420 H 0.23929 0.46546 0.53892 0.0
H421 H 0.25682 0.48733 0.57274 0.0
H422 H 0.22963 0.56786 0.49661 0.0
H423 H 0.18878 0.55944 0.51782 0.0
H424 H 0.20246 0.48614 0.50018 0.0
C425 C 0.29387 0.50445 0.4618 0.0
C426 C 0.30949 0.5229 0.45472 0.0
C427 C 0.30142 0.54591 0.45872 0.0
C428 C 0.27815 0.55054 0.47002 0.0
C429 C 0.26313 0.53195 0.47628 0.0
C430 C 0.27064 0.50937 0.47193 0.0
C431 C 0.25088 0.49254 0.4786 0.0
C432 C 0.24758 0.47827 0.42238 0.0
C433 C 0.25442 0.47685 0.53237 0.0
C434 C 0.23112 0.50917 0.48793 0.0
C435 C 0.23856 0.53183 0.48686 0.0
C436 C 0.22358 0.5502 0.49695 0.0
C437 C 0.20043 0.54527 0.50892 0.0
C438 C 0.19244 0.52219 0.50984 0.0
C439 C 0.208 0.50398 0.49861 0.0
H440 H 0.01177 0.55462 0.90857 0.0
H441 H 0.04457 0.62196 0.91163 0.0
H442 H 0.06975 0.60978 0.82929 0.0
H443 H 0.0624 0.52202 0.88056 0.0
H444 H 0.04784 0.50142 0.83455 0.0
H445 H 0.03241 0.51581 0.89246 0.0
H446 H 0.00228 0.53034 0.81732 0.0
H447 H 0.01761 0.51604 0.75911 0.0
H448 H 0.01165 0.54652 0.75404 0.0
H449 H 0.09176 0.58912 0.7465 0.0
H450 H 0.1072 0.56295 0.6701 0.0
H451 H 0.05918 0.50988 0.72546 0.0
C452 C 0.0241 0.56703 0.89209 0.0
C453 C 0.02611 0.58933 0.91669 0.0
C454 C 0.04265 0.6048 0.89347 0.0
C455 C 0.05705 0.59801 0.84684 0.0
C456 C 0.05467 0.57572 0.82427 0.0
C457 C 0.03851 0.56056 0.84627 0.0
C458 C 0.03926 0.53751 0.81547 0.0
C459 C 0.04587 0.51805 0.85831 0.0
C460 C 0.01634 0.53232 0.78466 0.0
C461 C 0.05818 0.54205 0.7718 0.0
C462 C 0.06707 0.56407 0.77755 0.0
C463 C 0.08486 0.57189 0.74167 0.0
C464 C 0.09356 0.55688 0.69853 0.0
C465 C 0.0843 0.5344 0.69153 0.0
C466 C 0.06652 0.52699 0.72917 0.0
H467 H 0.98668 0.0512 0.20793 0.0
H468 H 0.94203 0.10937 0.16932 0.0
H469 H 0.9144 0.09547 0.24373 0.0
H470 H 0.94215 0.00904 0.23174 0.0
H471 H 0.95717 0.99504 0.29105 0.0
H472 H 0.97311 0.00929 0.23372 0.0
H473 H 0.99402 0.03442 0.31099 0.0
H474 H 0.97834 0.02013 0.36863 0.0
H475 H 0.97734 0.05114 0.36237 0.0
H476 H 0.89183 0.07528 0.32459 0.0
H477 H 0.87751 0.05169 0.40755 0.0
H478 H 0.93716 0.00701 0.39101 0.0
C479 C 0.97104 0.06098 0.21468 0.0
C480 C 0.96652 0.08131 0.18238 0.0
C481 C 0.94592 0.09371 0.19337 0.0
C482 C 0.93005 0.08592 0.23544 0.0
C483 C 0.93501 0.06572 0.26622 0.0
C484 C 0.95508 0.05351 0.25646 0.0
C485 C 0.95681 0.03278 0.29658 0.0
C486 C 0.95734 0.0102 0.26114 0.0
C487 C 0.97787 0.03475 0.33704 0.0
C488 C 0.9346 0.03522 0.33058 0.0
C489 C 0.92217 0.05425 0.31245 0.0
C490 C 0.90138 0.06026 0.33895 0.0
C491 C 0.89333 0.04671 0.38593 0.0
C492 C 0.90611 0.0274 0.40597 0.0
C493 C 0.92681 0.02152 0.3769 0.0
H494 H 0.49214 0.94212 0.88984 0.0
H495 H 0.4492 0.88154 0.91378 0.0
H496 H 0.42451 0.89468 0.83161 0.0
H497 H 0.44711 0.98119 0.86282 0.0
H498 H 0.46311 0.99788 0.80996 0.0
H499 H 0.47798 0.98273 0.86747 0.0
H500 H 0.50284 0.96157 0.79001 0.0
H501 H 0.48804 0.97656 0.73203 0.0
H502 H 0.48902 0.94545 0.73235 0.0
H503 H 0.40338 0.91636 0.74859 0.0
H504 H 0.38903 0.94333 0.67237 0.0
H505 H 0.4464 0.98909 0.70773 0.0
C506 C 0.47774 0.93132 0.87772 0.0
C507 C 0.47269 0.91071 0.90842 0.0
C508 C 0.45353 0.89733 0.89082 0.0
C509 C 0.43937 0.9047 0.8443 0.0
C510 C 0.44466 0.92543 0.81598 0.0
C511 C 0.46351 0.93842 0.83208 0.0
C512 C 0.46529 0.96044 0.79684 0.0
C513 C 0.46324 0.98181 0.83665 0.0
C514 C 0.48762 0.96102 0.76066 0.0
C515 C 0.4445 0.95791 0.758 0.0
C516 C 0.4327 0.9377 0.76941 0.0
C517 C 0.41261 0.93215 0.73918 0.0
C518 C 0.40457 0.94759 0.69607 0.0
C519 C 0.41663 0.96831 0.68367 0.0
C520 C 0.43679 0.97337 0.71548 0.0
H521 H 0.51459 0.45228 0.21242 0.0
H522 H 0.55517 0.39003 0.18815 0.0
H523 H 0.58299 0.40397 0.26165 0.0
H524 H 0.56229 0.49149 0.23168 0.0
H525 H 0.54768 0.50835 0.28674 0.0
H526 H 0.5314 0.49379 0.23073 0.0
H527 H 0.50746 0.47269 0.31051 0.0
H528 H 0.52345 0.4874 0.36664 0.0
H529 H 0.52205 0.45631 0.36651 0.0
H530 H 0.60603 0.4246 0.34034 0.0
H531 H 0.62061 0.44887 0.42143 0.0
H532 H 0.56482 0.49735 0.39187 0.0
C533 C 0.52935 0.44156 0.22223 0.0
C534 C 0.53267 0.42008 0.19421 0.0
C535 C 0.5522 0.40658 0.20891 0.0
C536 C 0.56818 0.41439 0.25044 0.0
C537 C 0.56445 0.43575 0.27682 0.0
C538 C 0.54544 0.44907 0.26342 0.0
C539 C 0.54486 0.47097 0.29935 0.0
C540 C 0.54667 0.49241 0.25975 0.0
C541 C 0.52318 0.47188 0.33805 0.0
C542 C 0.56633 0.46777 0.33571 0.0
C543 C 0.57757 0.44749 0.32185 0.0
C544 C 0.59743 0.4406 0.35133 0.0
C545 C 0.60565 0.45455 0.39717 0.0
C546 C 0.5939 0.47505 0.41321 0.0
C547 C 0.5743 0.48185 0.38089 0.0
H548 H 0.07284 0.99133 0.22882 0.0
H549 H 0.10456 0.93416 0.32107 0.0
H550 H 0.08969 0.9071 0.24554 0.0
H551 H 0.02235 0.96464 0.19549 0.0
H552 H 0.01901 0.97769 0.12417 0.0
H553 H 0.03502 0.99239 0.18008 0.0
H554 H 0.0705 0.99477 0.11135 0.0
H555 H 0.05446 0.98037 0.05464 0.0
H556 H 0.08165 0.96878 0.07838 0.0
H557 H 0.06671 0.88604 0.16353 0.0
H558 H 0.04006 0.87413 0.08375 0.0
H559 H 0.02454 0.94628 0.05034 0.0
C560 C 0.07709 0.97317 0.23257 0.0
C561 C 0.08975 0.96477 0.28064 0.0
C562 C 0.09501 0.94092 0.28409 0.0
C563 C 0.08656 0.92546 0.24156 0.0
C564 C 0.07328 0.93429 0.19568 0.0
C565 C 0.06898 0.95772 0.19075 0.0
C566 C 0.05324 0.96312 0.14017 0.0
C567 C 0.0311 0.97515 0.16128 0.0
C568 C 0.06571 0.97761 0.09337 0.0
C569 C 0.04852 0.93903 0.11849 0.0
C570 C 0.06032 0.92248 0.15008 0.0
C571 C 0.0576 0.89894 0.13823 0.0
C572 C 0.04241 0.89231 0.09304 0.0
C573 C 0.02998 0.90921 0.06118 0.0
C574 C 0.03347 0.93278 0.0741 0.0
H575 H 0.50693 0.05193 0.77059 0.0
H576 H 0.55408 0.10761 0.8122 0.0
H577 H 0.58116 0.09305 0.7374 0.0
H578 H 0.54949 0.00796 0.74626 0.0
H579 H 0.53392 0.99501 0.68646 0.0
H580 H 0.5186 0.00986 0.74386 0.0
H581 H 0.49919 0.0361 0.66613 0.0
H582 H 0.51455 0.02142 0.6086 0.0
H583 H 0.51682 0.05233 0.61578 0.0
H584 H 0.60313 0.07227 0.65686 0.0
H585 H 0.61714 0.04803 0.57491 0.0
H586 H 0.55545 0.00616 0.58814 0.0
C587 C 0.52298 0.06105 0.76431 0.0
C588 C 0.52839 0.08085 0.79766 0.0
C589 C 0.54951 0.09238 0.78734 0.0
C590 C 0.56506 0.08421 0.74503 0.0
C591 C 0.55925 0.06452 0.71332 0.0
C592 C 0.53865 0.05318 0.72232 0.0
C593 C 0.53621 0.03271 0.68171 0.0
C594 C 0.53446 0.01004 0.71667 0.0
C595 C 0.51547 0.03584 0.64062 0.0
C596 C 0.55869 0.03426 0.64849 0.0
C597 C 0.5718 0.05267 0.66728 0.0
C598 C 0.59304 0.05775 0.64192 0.0
C599 C 0.60089 0.04384 0.59549 0.0
C600 C 0.58751 0.02509 0.57496 0.0
C601 C 0.56627 0.02021 0.60269 0.0
H602 H 0.40086 0.54066 0.23933 0.0
H603 H 0.45215 0.55207 0.3736 0.0
H604 H 0.47138 0.58084 0.31019 0.0
H605 H 0.43954 0.53981 0.12446 0.0
H606 H 0.42112 0.55355 0.07133 0.0
H607 H 0.40875 0.53769 0.13135 0.0
H608 H 0.38536 0.57389 0.1615 0.0
H609 H 0.3979 0.58995 0.10167 0.0
H610 H 0.4001 0.60067 0.17566 0.0
H611 H 0.4879 0.60385 0.2293 0.0
H612 H 0.5027 0.61671 0.13298 0.0
H613 H 0.44182 0.58992 0.04842 0.0
C614 C 0.41574 0.54982 0.25571 0.0
C615 C 0.42493 0.54463 0.31142 0.0
C616 C 0.44486 0.55612 0.3311 0.0
C617 C 0.45575 0.57256 0.2956 0.0
C618 C 0.44657 0.57713 0.24034 0.0
C619 C 0.42711 0.56597 0.22016 0.0
C620 C 0.42283 0.57146 0.156 0.0
C621 C 0.42309 0.54932 0.11861 0.0
C622 C 0.4002 0.58479 0.14828 0.0
C623 C 0.44337 0.58671 0.14277 0.0
C624 C 0.45649 0.59023 0.19251 0.0
C625 C 0.4775 0.60174 0.19035 0.0
C626 C 0.48575 0.60908 0.13566 0.0
C627 C 0.47299 0.6049 0.08414 0.0
C628 C 0.45131 0.59414 0.08781 0.0
H629 H 0.99277 0.45307 0.77558 0.0
H630 H 0.94755 0.39586 0.81852 0.0
H631 H 0.91983 0.4095 0.74443 0.0
H632 H 0.94826 0.49574 0.7497 0.0
H633 H 0.96365 0.50888 0.68964 0.0
H634 H 0.97919 0.4949 0.74804 0.0
H635 H -0.00013 0.46899 0.67142 0.0
H636 H 0.98413 0.48277 0.61316 0.0
H637 H 0.98296 0.45185 0.62165 0.0
H638 H 0.89729 0.42899 0.6636 0.0
H639 H 0.88279 0.45184 0.5797 0.0
H640 H 0.9429 0.49605 0.59084 0.0
C641 C 0.97696 0.4435 0.76984 0.0
C642 C 0.97233 0.42347 0.8032 0.0
C643 C 0.95154 0.41128 0.79359 0.0
C644 C 0.93561 0.41892 0.75172 0.0
C645 C 0.9407 0.43876 0.71971 0.0
C646 C 0.96092 0.45081 0.72814 0.0
C647 C 0.96271 0.4711 0.68659 0.0
C648 C 0.96349 0.49402 0.72052 0.0
C649 C 0.98365 0.46851 0.64579 0.0
C650 C 0.94038 0.46851 0.6533 0.0
C651 C 0.92784 0.44985 0.67315 0.0
C652 C 0.90691 0.44374 0.64783 0.0
C653 C 0.89878 0.45685 0.60028 0.0
C654 C 0.91161 0.47581 0.57853 0.0
C655 C 0.93251 0.48178 0.60631 0.0
H656 H 0.0007 0.43608 0.10659 0.0
H657 H 0.95313 0.38085 0.06444 0.0
H658 H 0.928 0.39333 0.14634 0.0
H659 H 0.9931 0.43486 0.26642 0.0
H660 H 0.99531 0.46583 0.27166 0.0
H661 H 0.0104 0.45065 0.21443 0.0
H662 H 0.9905 0.47655 0.13667 0.0
H663 H 0.97517 0.49154 0.19363 0.0
H664 H 0.95958 0.478 0.1347 0.0
H665 H 0.90647 0.41455 0.22828 0.0
H666 H 0.89142 0.44137 0.30358 0.0
H667 H 0.95348 0.48251 0.28832 0.0
C668 C 0.98522 0.42625 0.11493 0.0
C669 C 0.97893 0.40743 0.07892 0.0
C670 C 0.95843 0.39522 0.09159 0.0
C671 C 0.94401 0.40223 0.13793 0.0
C672 C 0.95046 0.42136 0.1713 0.0
C673 C 0.97073 0.43302 0.16054 0.0
C674 C 0.97333 0.4538 0.20005 0.0
C675 C 0.99427 0.45111 0.24055 0.0
C676 C 0.97471 0.47629 0.1641 0.0
C677 C 0.95113 0.45236 0.23418 0.0
C678 C 0.93817 0.4335 0.21749 0.0
C679 C 0.91662 0.42922 0.24202 0.0
C680 C 0.9082 0.44459 0.28469 0.0
C681 C 0.92125 0.46408 0.30211 0.0
C682 C 0.94302 0.4678 0.27636 0.0
H683 H 0.00455 0.9441 0.75596 0.0
H684 H 0.05232 0.89005 0.80659 0.0
H685 H 0.07935 0.9032 0.72951 0.0
H686 H 0.01538 0.94092 0.60016 0.0
H687 H 0.01234 0.97164 0.59013 0.0
H688 H 0.99684 0.95728 0.64799 0.0
H689 H 0.01469 0.98521 0.72396 0.0
H690 H 0.03046 0.99955 0.66662 0.0
H691 H 0.0455 0.98769 0.72885 0.0
H692 H 0.10183 0.9238 0.64793 0.0
H693 H 0.11625 0.94822 0.5664 0.0
H694 H 0.05313 0.98823 0.57286 0.0
C695 C 0.02066 0.93493 0.75094 0.0
C696 C 0.02638 0.91614 0.7876 0.0
C697 C 0.04754 0.90448 0.77893 0.0
C698 C 0.06304 0.91188 0.73544 0.0
C699 C 0.05701 0.93082 0.70086 0.0
C700 C 0.03619 0.94199 0.70792 0.0
C701 C 0.03358 0.96184 0.6655 0.0
C702 C 0.01334 0.95766 0.62345 0.0
C703 C 0.03091 0.98493 0.69821 0.0
C704 C 0.05635 0.96038 0.63389 0.0
C705 C 0.0697 0.94242 0.65454 0.0
C706 C 0.09146 0.93789 0.63135 0.0
C707 C 0.09956 0.9519 0.58525 0.0
C708 C 0.08589 0.97018 0.56301 0.0
C709 C 0.06413 0.97445 0.58847 0.0
H710 H 0.54804 0.01247 0.27528 0.0
H711 H 0.60527 0.05842 0.31076 0.0
H712 H 0.59066 0.08563 0.23601 0.0
H713 H 0.54718 0.02103 0.1208 0.0
H714 H 0.51633 0.01953 0.11566 0.0
H715 H 0.53104 0.00427 0.17327 0.0
H716 H 0.50609 0.02528 0.25094 0.0
H717 H 0.49133 0.04065 0.19351 0.0
H718 H 0.50519 0.0564 0.2517 0.0
H719 H 0.56996 0.10747 0.15468 0.0
H720 H 0.54583 0.12104 0.07215 0.0
H721 H 0.50247 0.06054 0.09272 0.0
C722 C 0.55749 0.0283 0.26777 0.0
C723 C 0.57777 0.0333 0.29921 0.0
C724 C 0.58967 0.05417 0.28736 0.0
C725 C 0.58147 0.06979 0.24508 0.0
C726 C 0.56137 0.06431 0.21507 0.0
C727 C 0.54961 0.04401 0.22586 0.0
C728 C 0.52885 0.04172 0.1866 0.0
C729 C 0.53099 0.02038 0.14673 0.0
C730 C 0.50655 0.04098 0.22287 0.0
C731 C 0.53077 0.06389 0.15184 0.0
C732 C 0.54956 0.07677 0.1688 0.0
C733 C 0.55511 0.09757 0.14126 0.0
C734 C 0.54128 0.10517 0.0945 0.0
C735 C 0.52218 0.09194 0.0758 0.0
C736 C 0.51682 0.07123 0.1058 0.0
H737 H 0.43639 0.50599 0.59425 0.0
H738 H 0.3785 0.55232 0.56889 0.0
H739 H 0.39116 0.57516 0.65465 0.0
H740 H 0.43759 0.50755 0.75452 0.0
H741 H 0.46854 0.50694 0.7566 0.0
H742 H 0.45347 0.49322 0.69714 0.0
H743 H 0.47683 0.51764 0.62258 0.0
H744 H 0.49173 0.53163 0.68176 0.0
H745 H 0.47648 0.54868 0.62829 0.0
H746 H 0.4124 0.5948 0.7382 0.0
H747 H 0.43917 0.60853 0.81451 0.0
H748 H 0.48294 0.54903 0.78325 0.0
C749 C 0.42602 0.52068 0.60708 0.0
C750 C 0.40635 0.52728 0.57467 0.0
C751 C 0.39353 0.54679 0.59308 0.0
C752 C 0.40063 0.55991 0.64168 0.0
C753 C 0.4205 0.55322 0.67145 0.0
C754 C 0.43288 0.53393 0.65502 0.0
C755 C 0.45427 0.53098 0.69194 0.0
C756 C 0.4534 0.50833 0.72715 0.0
C757 C 0.47611 0.53232 0.65387 0.0
C758 C 0.45217 0.55175 0.73162 0.0
C759 C 0.4326 0.56439 0.71925 0.0
C760 C 0.42762 0.58487 0.74864 0.0
C761 C 0.44299 0.59256 0.7918 0.0
C762 C 0.46312 0.57978 0.80528 0.0
C763 C 0.46759 0.55906 0.7747 0.0
H764 H 0.94889 0.01993 0.69742 0.0
H765 H 0.88803 0.06258 0.67683 0.0
H766 H 0.90302 0.08956 0.75163 0.0
H767 H 0.95322 0.0253 0.85056 0.0
H768 H 0.98418 0.02576 0.85095 0.0
H769 H 0.96916 0.01096 0.79331 0.0
H770 H 0.99081 0.0354 0.71576 0.0
H771 H 0.00582 0.05048 0.77315 0.0
H772 H 0.98955 0.06648 0.7195 0.0
H773 H 0.92426 0.11082 0.83361 0.0
H774 H 0.94888 0.12326 0.9163 0.0
H775 H 0.99543 0.06642 0.87958 0.0
C776 C 0.93871 0.03502 0.70802 0.0
C777 C 0.91728 0.03912 0.68096 0.0
C778 C 0.90454 0.05906 0.69676 0.0
C779 C 0.91294 0.07453 0.73911 0.0
C780 C 0.93414 0.06987 0.76499 0.0
C781 C 0.94681 0.05056 0.74988 0.0
C782 C 0.96856 0.04873 0.78561 0.0
C783 C 0.96877 0.02637 0.82228 0.0
C784 C 0.98994 0.05038 0.74613 0.0
C785 C 0.96605 0.06984 0.82397 0.0
C786 C 0.94622 0.08198 0.8114 0.0
C787 C 0.93993 0.10154 0.84343 0.0
C788 C 0.95406 0.10853 0.89023 0.0
C789 C 0.97413 0.09587 0.90463 0.0
C790 C 0.98028 0.0766 0.86994 0.0
H791 H 0.43661 0.9998 0.38439 0.0
H792 H 0.37922 0.95311 0.41182 0.0
H793 H 0.39348 0.92861 0.33049 0.0
H794 H 0.43993 0.99484 0.22526 0.0
H795 H 0.47087 0.9959 0.22503 0.0
H796 H 0.45493 0.01065 0.28148 0.0
H797 H 0.47767 0.98835 0.36106 0.0
H798 H 0.49361 0.97342 0.30503 0.0
H799 H 0.47805 0.95723 0.35972 0.0
H800 H 0.41615 0.9077 0.25076 0.0
H801 H 0.44376 0.89339 0.17679 0.0
H802 H 0.48619 0.95402 0.20482 0.0
C803 C 0.4267 0.98465 0.37295 0.0
C804 C 0.40671 0.97844 0.40466 0.0
C805 C 0.39447 0.95836 0.38802 0.0
C806 C 0.4025 0.94429 0.34204 0.0
C807 C 0.4227 0.95062 0.31311 0.0
C808 C 0.43449 0.97047 0.3277 0.0
C809 C 0.45629 0.97307 0.2921 0.0
C810 C 0.45544 0.99491 0.25368 0.0
C811 C 0.47766 0.973 0.33186 0.0
C812 C 0.45512 0.95143 0.25532 0.0
C813 C 0.43565 0.93868 0.26787 0.0
C814 C 0.43132 0.91768 0.24028 0.0
C815 C 0.44717 0.90966 0.19844 0.0
C816 C 0.46715 0.92262 0.18462 0.0
C817 C 0.47106 0.94373 0.21385 0.0
H818 H 0.52722 0.44573 0.93778 0.0
H819 H 0.54045 0.37378 0.89689 0.0
H820 H 0.56343 0.38603 0.81015 0.0
H821 H 0.51861 0.46562 0.79647 0.0
H822 H 0.53272 0.49295 0.80773 0.0
H823 H 0.51948 0.47834 0.86862 0.0
H824 H 0.55802 0.47926 0.92558 0.0
H825 H 0.57139 0.49404 0.86487 0.0
H826 H 0.58352 0.46747 0.89208 0.0
H827 H 0.58334 0.40711 0.72446 0.0
H828 H 0.59753 0.43441 0.64866 0.0
H829 H 0.56931 0.4917 0.74758 0.0
C830 C 0.53496 0.43243 0.91082 0.0
C831 C 0.53185 0.40878 0.92357 0.0
C832 C 0.54265 0.392 0.88777 0.0
C833 C 0.55569 0.39882 0.83857 0.0
C834 C 0.55795 0.42241 0.8267 0.0
C835 C 0.54797 0.43889 0.86235 0.0
C836 C 0.55213 0.46308 0.84003 0.0
C837 C 0.52938 0.47572 0.82744 0.0
C838 C 0.56716 0.47677 0.8832 0.0
C839 C 0.56506 0.45776 0.78437 0.0
C840 C 0.5688 0.43429 0.77783 0.0
C841 C 0.58054 0.42548 0.72939 0.0
C842 C 0.58851 0.44107 0.68665 0.0
C843 C 0.58423 0.46506 0.69223 0.0
C844 C 0.57249 0.4734 0.74188 0.0
H845 H 0.05645 0.5148 0.41015 0.0
H846 H 0.12076 0.55276 0.4092 0.0
H847 H 0.10547 0.57807 0.33045 0.0
H848 H 0.04585 0.51597 0.25669 0.0
H849 H 0.01526 0.51937 0.26568 0.0
H850 H 0.03172 0.50463 0.32099 0.0
H851 H 0.01602 0.53298 0.39957 0.0
H852 H -0.00026 0.54795 0.34419 0.0
H853 H 0.01975 0.56362 0.38936 0.0
H854 H 0.08214 0.5993 0.25039 0.0
H855 H 0.05435 0.61261 0.17514 0.0
H856 H 0.00596 0.56049 0.23402 0.0
C857 C 0.06755 0.52828 0.39342 0.0
C858 C 0.08993 0.53164 0.41588 0.0
C859 C 0.10361 0.54972 0.39259 0.0
C860 C 0.09502 0.56425 0.34805 0.0
C861 C 0.0727 0.56054 0.32768 0.0
C862 C 0.05926 0.5429 0.34975 0.0
C863 C 0.03587 0.54227 0.3212 0.0
C864 C 0.03197 0.5192 0.28923 0.0
C865 C 0.01673 0.54699 0.36627 0.0
C866 C 0.03829 0.56205 0.27856 0.0
C867 C 0.0595 0.57261 0.28294 0.0
C868 C 0.06549 0.59114 0.24679 0.0
C869 C 0.04956 0.59865 0.20436 0.0
C870 C 0.02802 0.58752 0.19838 0.0
C871 C 0.02232 0.56931 0.23697 0.0
H872 H 0.90937 0.55558 0.37679 0.0
H873 H 0.85493 0.53369 0.2595 0.0
H874 H 0.86941 0.56051 0.1837 0.0
H875 H 0.91181 0.61668 0.32943 0.0
H876 H 0.94267 0.61768 0.33523 0.0
H877 H 0.92636 0.59898 0.38288 0.0
H878 H 0.95052 0.56389 0.34812 0.0
H879 H 0.96688 0.58246 0.30059 0.0
H880 H 0.95241 0.55762 0.27081 0.0
H881 H 0.89256 0.58519 0.11697 0.0
H882 H 0.92266 0.60683 0.06375 0.0
H883 H 0.96143 0.61401 0.22473 0.0
C884 C 0.9002 0.55677 0.33562 0.0
C885 C 0.88096 0.54265 0.324 0.0
C886 C 0.86963 0.54445 0.26933 0.0
C887 C 0.87769 0.55967 0.22612 0.0
C888 C 0.89698 0.57302 0.23855 0.0
C889 C 0.90805 0.57181 0.29203 0.0
C890 C 0.92953 0.58657 0.29252 0.0
C891 C 0.92746 0.60615 0.3377 0.0
C892 C 0.9511 0.57175 0.30364 0.0
C893 C 0.9291 0.59588 0.23044 0.0
C894 C 0.9101 0.5879 0.2002 0.0
C895 C 0.90716 0.59206 0.1405 0.0
C896 C 0.92428 0.60432 0.11069 0.0
C897 C 0.94384 0.61251 0.14079 0.0
C898 C 0.9461 0.60867 0.20154 0.0
H899 H 0.90655 0.94733 0.60981 0.0
H900 H 0.85348 0.97015 0.73058 0.0
H901 H 0.86922 0.94431 0.80687 0.0
H902 H 0.90948 0.88699 0.65963 0.0
H903 H 0.94025 0.88558 0.6514 0.0
H904 H 0.92361 0.90427 0.60453 0.0
H905 H 0.94846 0.93921 0.63634 0.0
H906 H 0.96516 0.92066 0.68317 0.0
H907 H 0.95126 0.94581 0.71327 0.0
H908 H 0.89304 0.91969 0.8728 0.0
H909 H 0.92294 0.89691 0.92364 0.0
H910 H 0.95978 0.88863 0.75969 0.0
C911 C 0.89799 0.9466 0.65197 0.0
C912 C 0.87872 0.96068 0.66425 0.0
C913 C 0.86819 0.95944 0.72016 0.0
C914 C 0.87699 0.94479 0.76372 0.0
C915 C 0.89622 0.93142 0.7505 0.0
C916 C 0.90656 0.93209 0.69594 0.0
C917 C 0.92789 0.91704 0.69423 0.0
C918 C 0.92513 0.89729 0.64981 0.0
C919 C 0.94945 0.93155 0.68099 0.0
C920 C 0.92809 0.90802 0.75664 0.0
C921 C 0.90965 0.91657 0.78831 0.0
C922 C 0.90723 0.91245 0.84821 0.0
C923 C 0.92424 0.89953 0.87667 0.0
C924 C 0.94318 0.89061 0.84508 0.0
C925 C 0.94496 0.89458 0.78419 0.0
H926 H 0.53156 0.88753 0.22769 0.0
H927 H 0.57185 0.89015 0.06788 0.0
H928 H 0.60271 0.91082 0.12026 0.0
H929 H 0.54371 0.94378 0.26941 0.0
H930 H 0.54472 0.93837 0.34724 0.0
H931 H 0.52761 0.9202 0.30067 0.0
H932 H 0.54932 0.88403 0.33858 0.0
H933 H 0.56641 0.9021 0.38573 0.0
H934 H 0.58023 0.88303 0.3341 0.0
H935 H 0.62691 0.93504 0.18581 0.0
H936 H 0.64278 0.96148 0.26043 0.0
H937 H 0.58658 0.94403 0.37771 0.0
C938 C 0.5473 0.89168 0.20462 0.0
C939 C 0.54973 0.88681 0.14431 0.0
C940 C 0.56999 0.89344 0.11443 0.0
C941 C 0.58756 0.90516 0.14379 0.0
C942 C 0.58448 0.91033 0.20292 0.0
C943 C 0.56488 0.90381 0.23315 0.0
C944 C 0.56472 0.91385 0.29453 0.0
C945 C 0.54397 0.93 0.30344 0.0
C946 C 0.56521 0.8946 0.34098 0.0
C947 C 0.58709 0.92724 0.29367 0.0
C948 C 0.5983 0.92482 0.24059 0.0
C949 C 0.6185 0.93679 0.22795 0.0
C950 C 0.62736 0.95179 0.27052 0.0
C951 C 0.616 0.95474 0.32493 0.0
C952 C 0.59582 0.94198 0.33679 0.0
H953 H 0.59062 0.55554 0.61036 0.0
H954 H 0.64238 0.53503 0.73707 0.0
H955 H 0.62424 0.56036 0.81113 0.0
H956 H 0.58408 0.61558 0.65794 0.0
H957 H 0.55344 0.61556 0.64659 0.0
H958 H 0.57166 0.59747 0.6021 0.0
H959 H 0.5479 0.56156 0.63268 0.0
H960 H 0.52962 0.5795 0.6772 0.0
H961 H 0.54414 0.55512 0.70949 0.0
H962 H 0.5985 0.58469 0.87355 0.0
H963 H 0.56726 0.60697 0.92021 0.0
H964 H 0.53247 0.61253 0.75276 0.0
C965 C 0.5984 0.55664 0.65338 0.0
C966 C 0.61802 0.54338 0.66791 0.0
C967 C 0.62746 0.54513 0.72489 0.0
C968 C 0.61727 0.55947 0.7672 0.0
C969 C 0.59771 0.57199 0.7517 0.0
C970 C 0.58839 0.57078 0.69612 0.0
C971 C 0.56646 0.58487 0.69177 0.0
C972 C 0.56908 0.60454 0.64694 0.0
C973 C 0.54582 0.56934 0.67692 0.0
C974 C 0.5648 0.59411 0.75379 0.0
C975 C 0.58301 0.58642 0.78757 0.0
C976 C 0.5844 0.59115 0.84732 0.0
C977 C 0.56659 0.60379 0.8734 0.0
C978 C 0.54778 0.61179 0.83976 0.0
C979 C 0.54704 0.60719 0.779 0.0
H980 H 0.09106 0.44715 0.60469 0.0
H981 H 0.14811 0.4632 0.71999 0.0
H982 H 0.13215 0.43678 0.79481 0.0
H983 H 0.04884 0.44715 0.71502 0.0
H984 H 0.03213 0.42404 0.68395 0.0
H985 H 0.04931 0.44212 0.637 0.0
H986 H 0.07025 0.40596 0.59639 0.0
H987 H 0.05312 0.38773 0.6433 0.0
H988 H 0.08402 0.38626 0.6466 0.0
H989 H 0.108 0.41236 0.86075 0.0
H990 H 0.0775 0.39101 0.91322 0.0
H991 H 0.03636 0.38989 0.75499 0.0
C992 C 0.10044 0.4448 0.64522 0.0
C993 C 0.12093 0.45716 0.65642 0.0
C994 C 0.13248 0.45382 0.71035 0.0
C995 C 0.12355 0.43884 0.75307 0.0
C996 C 0.10308 0.42728 0.74109 0.0
C997 C 0.09168 0.43003 0.68844 0.0
C998 C 0.06912 0.41693 0.68825 0.0
C999 C 0.04865 0.43355 0.68062 0.0
C1000 C 0.06914 0.3981 0.64082 0.0
C1001 C 0.06951 0.40651 0.74927 0.0
C1002 C 0.08929 0.41273 0.77894 0.0
C1003 C 0.0927 0.40696 0.83761 0.0
C1004 C 0.07534 0.39484 0.86701 0.0
C1005 C 0.05497 0.38836 0.83758 0.0
C1006 C 0.05217 0.39393 0.77773 0.0
H1007 H 0.02952 0.11244 0.22699 0.0
H1008 H 0.07278 0.11515 0.07236 0.0
H1009 H 0.10333 0.09401 0.12524 0.0
H1010 H 0.0755 0.11565 0.33986 0.0
H1011 H 0.06146 0.0948 0.38647 0.0
H1012 H 0.04461 0.11338 0.33982 0.0
H1013 H 0.02527 0.07745 0.29345 0.0
H1014 H 0.04216 0.05879 0.33953 0.0
H1015 H 0.04298 0.05534 0.26099 0.0
H1016 H 0.12752 0.0695 0.19109 0.0
H1017 H 0.14337 0.04255 0.26491 0.0
H1018 H 0.08376 0.0544 0.37551 0.0
C1019 C 0.0458 0.10931 0.20531 0.0
C1020 C 0.04923 0.11588 0.14638 0.0
C1021 C 0.07018 0.11056 0.11799 0.0
C1022 C 0.08757 0.09858 0.14762 0.0
C1023 C 0.08354 0.09177 0.20535 0.0
C1024 C 0.06316 0.09689 0.23394 0.0
C1025 C 0.06216 0.08533 0.29355 0.0
C1026 C 0.06086 0.10337 0.34284 0.0
C1027 C 0.04196 0.06822 0.29705 0.0
C1028 C 0.08506 0.07285 0.29374 0.0
C1029 C 0.09721 0.07694 0.24269 0.0
C1030 C 0.11831 0.06638 0.2316 0.0
C1031 C 0.12717 0.05109 0.2737 0.0
C1032 C 0.11486 0.04646 0.32597 0.0
C1033 C 0.09367 0.05772 0.33618 0.0
H1034 H 0.414 0.05723 0.60754 0.0
H1035 H 0.35452 0.04542 0.71864 0.0
H1036 H 0.36998 0.07293 0.79125 0.0
H1037 H 0.45424 0.05832 0.72187 0.0
H1038 H 0.47218 0.08022 0.6894 0.0
H1039 H 0.4552 0.06175 0.64329 0.0
H1040 H 0.43618 0.09771 0.59576 0.0
H1041 H 0.45306 0.11633 0.64205 0.0
H1042 H 0.42219 0.11878 0.64177 0.0
H1043 H 0.39361 0.09783 0.85605 0.0
H1044 H 0.42422 0.11838 0.90975 0.0
H1045 H 0.4681 0.11506 0.75633 0.0
C1046 C 0.40402 0.06073 0.64665 0.0
C1047 C 0.38299 0.0493 0.65741 0.0
C1048 C 0.37063 0.05407 0.7095 0.0
C1049 C 0.37923 0.06971 0.75084 0.0
C1050 C 0.40017 0.08046 0.73929 0.0
C1051 C 0.41244 0.07618 0.68851 0.0
C1052 C 0.43539 0.08854 0.68897 0.0
C1053 C 0.45542 0.07118 0.68571 0.0
C1054 C 0.43677 0.1064 0.63918 0.0
C1055 C 0.43425 0.10016 0.7484 0.0
C1056 C 0.41372 0.09533 0.77651 0.0
C1057 C 0.40951 0.1022 0.83405 0.0
C1058 C 0.42692 0.11387 0.86412 0.0
C1059 C 0.44808 0.11878 0.83637 0.0
C1060 C 0.45166 0.11229 0.77747 0.0
H1061 H 0.46613 0.38697 0.23102 0.0
H1062 H 0.42877 0.38982 0.06694 0.0
H1063 H 0.39855 0.41336 0.11393 0.0
H1064 H 0.41513 0.38753 0.33218 0.0
H1065 H 0.42944 0.40622 0.38365 0.0
H1066 H 0.44591 0.38615 0.3402 0.0
H1067 H 0.47102 0.41993 0.30195 0.0
H1068 H 0.45448 0.44013 0.34453 0.0
H1069 H 0.45741 0.44416 0.26646 0.0
H1070 H 0.3752 0.4405 0.17417 0.0
H1071 H 0.35971 0.46884 0.24496 0.0
H1072 H 0.41251 0.44923 0.36978 0.0
C1073 C 0.45105 0.39172 0.20598 0.0
C1074 C 0.44932 0.38615 0.14595 0.0
C1075 C 0.43003 0.39361 0.11337 0.0
C1076 C 0.41284 0.407 0.13963 0.0
C1077 C 0.41533 0.41293 0.19844 0.0
C1078 C 0.43386 0.40546 0.23142 0.0
C1079 C 0.43368 0.41641 0.29177 0.0
C1080 C 0.43087 0.39798 0.3398 0.0
C1081 C 0.45543 0.43102 0.30172 0.0
C1082 C 0.41245 0.43147 0.28703 0.0
C1083 C 0.40202 0.42906 0.23301 0.0
C1084 C 0.38296 0.44226 0.21704 0.0
C1085 C 0.37433 0.45835 0.2574 0.0
C1086 C 0.3848 0.46114 0.31291 0.0
C1087 C 0.40397 0.44733 0.32791 0.0
loop_
_geom_bond_atom_site_label_1
_geom_bond_atom_site_label_2
_geom_bond_distance
_geom_bond_site_symmetry_2
_ccdc_geom_bond_type
Co0 O1 2.216 1_455 S
Co0 O2 2.091 . S
Co0 O4 2.004 . S
Co0 O10 2.021 . S
Co0 O12 2.137 1_455 S
Co0 O13 2.244 1_455 S
O1 Co0 2.216 1_655 S
O1 C8 1.247 1_655 S
O2 Co0 2.091 . S
O2 C8 1.261 . S
C3 O12 1.247 . S
C3 O13 1.272 . S
O4 Co0 2.004 . S
O4 C9 1.259 . S
Co5 O6 2.061 . S
Co5 O11 2.052 . S
Co5 O13 2.135 1_455 S
O6 Co5 2.061 . S
O6 C9 1.235 . S
C7 O10 1.238 . S
C7 O11 1.241 . S
C8 O1 1.247 1_455 S
C8 O2 1.261 . S
C9 O4 1.259 . S
C9 O6 1.235 . S
O10 Co0 2.021 . S
O10 C7 1.238 . S
O11 Co5 2.052 . S
O11 C7 1.241 . S
O12 Co0 2.137 1_655 S
O12 C3 1.247 . S
O13 Co0 2.244 1_655 S
O13 C3 1.272 . S
O13 Co5 2.135 1_655 S
Co14 O15 2.216 1_545 S
Co14 O16 2.091 . S
Co14 O18 2.004 . S
Co14 O24 2.021 . S
Co14 O26 2.137 1_545 S
Co14 O27 2.244 1_545 S
O15 Co14 2.216 1_565 S
O15 C22 1.247 1_565 S
O16 Co14 2.091 . S
O16 C22 1.261 . S
C17 O26 1.247 . S
C17 O27 1.272 . S
O18 Co14 2.004 . S
O18 C23 1.259 . S
Co19 O20 2.061 . S
Co19 O25 2.052 . S
Co19 O27 2.135 1_545 S
O20 Co19 2.061 . S
O20 C23 1.235 . S
C21 O24 1.238 . S
C21 O25 1.241 . S
C22 O15 1.247 1_545 S
C22 O16 1.261 . S
C23 O18 1.259 . S
C23 O20 1.235 . S
O24 Co14 2.021 . S
O24 C21 1.238 . S
O25 Co19 2.052 . S
O25 C21 1.241 . S
O26 Co14 2.137 1_565 S
O26 C17 1.247 . S
O27 Co14 2.244 1_565 S
O27 C17 1.272 . S
O27 Co19 2.135 1_565 S
Co28 O29 2.216 . S
Co28 O30 2.091 . S
Co28 O32 2.004 . S
Co28 O38 2.021 . S
Co28 O40 2.137 . S
Co28 O41 2.244 . S
O29 Co28 2.216 . S
O29 C36 1.247 . S
O30 Co28 2.091 . S
O30 C36 1.261 . S
C31 O40 1.247 . S
C31 O41 1.272 . S
O32 Co28 2.004 . S
O32 C37 1.259 . S
Co33 O34 2.061 . S
Co33 O39 2.052 . S
Co33 O41 2.135 . S
O34 Co33 2.061 . S
O34 C37 1.235 . S
C35 O38 1.238 . S
C35 O39 1.241 . S
C36 O29 1.247 . S
C36 O30 1.261 . S
C37 O32 1.259 . S
C37 O34 1.235 . S
O38 Co28 2.021 . S
O38 C35 1.238 . S
O39 Co33 2.052 . S
O39 C35 1.241 . S
O40 Co28 2.137 . S
O40 C31 1.247 . S
O41 Co28 2.244 . S
O41 C31 1.272 . S
O41 Co33 2.135 . S
Co42 O43 2.216 . S
Co42 O44 2.091 . S
Co42 O46 2.004 . S
Co42 O52 2.021 . S
Co42 O54 2.137 . S
Co42 O55 2.244 . S
O43 Co42 2.216 . S
O43 C50 1.247 . S
O44 Co42 2.091 . S
O44 C50 1.261 . S
C45 O54 1.247 . S
C45 O55 1.272 . S
O46 Co42 2.004 . S
O46 C51 1.259 . S
Co47 O48 2.061 . S
Co47 O53 2.052 . S
Co47 O55 2.135 . S
O48 Co47 2.061 . S
O48 C51 1.235 . S
C49 O52 1.238 . S
C49 O53 1.241 . S
C50 O43 1.247 . S
C50 O44 1.261 . S
C51 O46 1.259 . S
C51 O48 1.235 . S
O52 Co42 2.021 . S
O52 C49 1.238 . S
O53 Co47 2.052 . S
O53 C49 1.241 . S
O54 Co42 2.137 . S
O54 C45 1.247 . S
O55 Co42 2.244 . S
O55 C45 1.272 . S
O55 Co47 2.135 . S
Co56 O57 2.216 1_455 S
Co56 O58 2.091 . S
Co56 O60 2.004 . S
Co56 O66 2.021 . S
Co56 O68 2.137 1_455 S
Co56 O69 2.244 1_455 S
O57 Co56 2.216 1_655 S
O57 C64 1.247 1_655 S
O58 Co56 2.091 . S
O58 C64 1.261 . S
C59 O68 1.247 . S
C59 O69 1.272 . S
O60 Co56 2.004 . S
O60 C65 1.259 . S
Co61 O62 2.061 . S
Co61 O67 2.052 . S
Co61 O69 2.135 1_455 S
O62 Co61 2.061 . S
O62 C65 1.235 . S
C63 O66 1.238 . S
C63 O67 1.241 . S
C64 O57 1.247 1_455 S
C64 O58 1.261 . S
C65 O60 1.259 . S
C65 O62 1.235 . S
O66 Co56 2.021 . S
O66 C63 1.238 . S
O67 Co61 2.052 . S
O67 C63 1.241 . S
O68 Co56 2.137 1_655 S
O68 C59 1.247 . S
O69 Co56 2.244 1_655 S
O69 C59 1.272 . S
O69 Co61 2.135 1_655 S
Co70 O71 2.216 1_545 S
Co70 O72 2.091 . S
Co70 O74 2.004 . S
Co70 O80 2.021 . S
Co70 O82 2.137 1_545 S
Co70 O83 2.244 1_545 S
O71 Co70 2.216 1_565 S
O71 C78 1.247 1_565 S
O72 Co70 2.091 . S
O72 C78 1.261 . S
C73 O82 1.247 . S
C73 O83 1.272 . S
O74 Co70 2.004 . S
O74 C79 1.259 . S
Co75 O76 2.061 . S
Co75 O81 2.052 . S
Co75 O83 2.135 1_545 S
O76 Co75 2.061 . S
O76 C79 1.235 . S
C77 O80 1.238 . S
C77 O81 1.241 . S
C78 O71 1.247 1_545 S
C78 O72 1.261 . S
C79 O74 1.259 . S
C79 O76 1.235 . S
O80 Co70 2.021 . S
O80 C77 1.238 . S
O81 Co75 2.052 . S
O81 C77 1.241 . S
O82 Co70 2.137 1_565 S
O82 C73 1.247 . S
O83 Co70 2.244 1_565 S
O83 C73 1.272 . S
O83 Co75 2.135 1_565 S
Co84 O85 2.216 . S
Co84 O86 2.091 . S
Co84 O88 2.004 . S
Co84 O94 2.021 . S
Co84 O96 2.137 . S
Co84 O97 2.244 . S
O85 Co84 2.216 . S
O85 C92 1.247 . S
O86 Co84 2.091 . S
O86 C92 1.261 . S
C87 O96 1.247 . S
C87 O97 1.272 . S
O88 Co84 2.004 . S
O88 C93 1.259 . S
Co89 O90 2.061 . S
Co89 O95 2.052 . S
Co89 O97 2.135 . S
O90 Co89 2.061 . S
O90 C93 1.235 . S
C91 O94 1.238 . S
C91 O95 1.241 . S
C92 O85 1.247 . S
C92 O86 1.261 . S
C93 O88 1.259 . S
C93 O90 1.235 . S
O94 Co84 2.021 . S
O94 C91 1.238 . S
O95 Co89 2.052 . S
O95 C91 1.241 . S
O96 Co84 2.137 . S
O96 C87 1.247 . S
O97 Co84 2.244 . S
O97 C87 1.272 . S
O97 Co89 2.135 . S
Co98 O99 2.216 . S
Co98 O100 2.091 . S
Co98 O102 2.004 . S
Co98 O108 2.021 . S
Co98 O110 2.137 . S
Co98 O111 2.244 . S
O99 Co98 2.216 . S
O99 C106 1.247 . S
O100 Co98 2.091 . S
O100 C106 1.261 . S
C101 O110 1.247 . S
C101 O111 1.272 . S
O102 Co98 2.004 . S
O102 C107 1.259 . S
Co103 O104 2.061 . S
Co103 O109 2.052 . S
Co103 O111 2.135 . S
O104 Co103 2.061 . S
O104 C107 1.235 . S
C105 O108 1.238 . S
C105 O109 1.241 . S
C106 O99 1.247 . S
C106 O100 1.261 . S
C107 O102 1.259 . S
C107 O104 1.235 . S
O108 Co98 2.021 . S
O108 C105 1.238 . S
O109 Co103 2.052 . S
O109 C105 1.241 . S
O110 Co98 2.137 . S
O110 C101 1.247 . S
O111 Co98 2.244 . S
O111 C101 1.272 . S
O111 Co103 2.135 . S
Co112 O113 2.216 1_655 S
Co112 O114 2.091 . S
Co112 O116 2.004 . S
Co112 O122 2.021 . S
Co112 O124 2.137 1_655 S
Co112 O125 2.244 1_655 S
O113 Co112 2.216 1_455 S
O113 C120 1.247 1_455 S
O114 Co112 2.091 . S
O114 C120 1.261 . S
C115 O124 1.247 . S
C115 O125 1.272 . S
O116 Co112 2.004 . S
O116 C121 1.259 . S
Co117 O118 2.061 . S
Co117 O123 2.052 . S
Co117 O125 2.135 1_655 S
O118 Co117 2.061 . S
O118 C121 1.235 . S
C119 O122 1.238 . S
C119 O123 1.241 . S
C120 O113 1.247 1_655 S
C120 O114 1.261 . S
C121 O116 1.259 . S
C121 O118 1.235 . S
O122 Co112 2.021 . S
O122 C119 1.238 . S
O123 Co117 2.052 . S
O123 C119 1.241 . S
O124 Co112 2.137 1_455 S
O124 C115 1.247 . S
O125 Co112 2.244 1_455 S
O125 C115 1.272 . S
O125 Co117 2.135 1_455 S
Co126 O127 2.216 1_565 S
Co126 O128 2.091 . S
Co126 O130 2.004 . S
Co126 O136 2.021 . S
Co126 O138 2.137 1_565 S
Co126 O139 2.244 1_565 S
O127 Co126 2.216 1_545 S
O127 C134 1.247 1_545 S
O128 Co126 2.091 . S
O128 C134 1.261 . S
C129 O138 1.247 . S
C129 O139 1.272 . S
O130 Co126 2.004 . S
O130 C135 1.259 . S
Co131 O132 2.061 . S
Co131 O137 2.052 . S
Co131 O139 2.135 1_565 S
O132 Co131 2.061 . S
O132 C135 1.235 . S
C133 O136 1.238 . S
C133 O137 1.241 . S
C134 O127 1.247 1_565 S
C134 O128 1.261 . S
C135 O130 1.259 . S
C135 O132 1.235 . S
O136 Co126 2.021 . S
O136 C133 1.238 . S
O137 Co131 2.052 . S
O137 C133 1.241 . S
O138 Co126 2.137 1_545 S
O138 C129 1.247 . S
O139 Co126 2.244 1_545 S
O139 C129 1.272 . S
O139 Co131 2.135 1_545 S
Co140 O141 2.216 . S
Co140 O142 2.091 . S
Co140 O144 2.004 . S
Co140 O150 2.021 . S
Co140 O152 2.137 . S
Co140 O153 2.244 . S
O141 Co140 2.216 . S
O141 C148 1.247 . S
O142 Co140 2.091 . S
O142 C148 1.261 . S
C143 O152 1.247 . S
C143 O153 1.272 . S
O144 Co140 2.004 . S
O144 C149 1.259 . S
Co145 O146 2.061 . S
Co145 O151 2.052 . S
Co145 O153 2.135 . S
O146 Co145 2.061 . S
O146 C149 1.235 . S
C147 O150 1.238 . S
C147 O151 1.241 . S
C148 O141 1.247 . S
C148 O142 1.261 . S
C149 O144 1.259 . S
C149 O146 1.235 . S
O150 Co140 2.021 . S
O150 C147 1.238 . S
O151 Co145 2.052 . S
O151 C147 1.241 . S
O152 Co140 2.137 . S
O152 C143 1.247 . S
O153 Co140 2.244 . S
O153 C143 1.272 . S
O153 Co145 2.135 . S
Co154 O155 2.216 . S
Co154 O156 2.091 . S
Co154 O158 2.004 . S
Co154 O164 2.021 . S
Co154 O166 2.137 . S
Co154 O167 2.244 . S
O155 Co154 2.216 . S
O155 C162 1.247 . S
O156 Co154 2.091 . S
O156 C162 1.261 . S
C157 O166 1.247 . S
C157 O167 1.272 . S
O158 Co154 2.004 . S
O158 C163 1.259 . S
Co159 O160 2.061 . S
Co159 O165 2.052 . S
Co159 O167 2.135 . S
O160 Co159 2.061 . S
O160 C163 1.235 . S
C161 O164 1.238 . S
C161 O165 1.241 . S
C162 O155 1.247 . S
C162 O156 1.261 . S
C163 O158 1.259 . S
C163 O160 1.235 . S
O164 Co154 2.021 . S
O164 C161 1.238 . S
O165 Co159 2.052 . S
O165 C161 1.241 . S
O166 Co154 2.137 . S
O166 C157 1.247 . S
O167 Co154 2.244 . S
O167 C157 1.272 . S
O167 Co159 2.135 . S
Co168 O169 2.216 1_655 S
Co168 O170 2.091 . S
Co168 O172 2.004 . S
Co168 O178 2.021 . S
Co168 O180 2.137 1_655 S
Co168 O181 2.244 1_655 S
O169 Co168 2.216 1_455 S
O169 C176 1.247 1_455 S
O170 Co168 2.091 . S
O170 C176 1.261 . S
C171 O180 1.247 . S
C171 O181 1.272 . S
O172 Co168 2.004 . S
O172 C177 1.259 . S
Co173 O174 2.061 . S
Co173 O179 2.052 . S
Co173 O181 2.135 1_655 S
O174 Co173 2.061 . S
O174 C177 1.235 . S
C175 O178 1.238 . S
C175 O179 1.241 . S
C176 O169 1.247 1_655 S
C176 O170 1.261 . S
C177 O172 1.259 . S
C177 O174 1.235 . S
O178 Co168 2.021 . S
O178 C175 1.238 . S
O179 Co173 2.052 . S
O179 C175 1.241 . S
O180 Co168 2.137 1_455 S
O180 C171 1.247 . S
O181 Co168 2.244 1_455 S
O181 C171 1.272 . S
O181 Co173 2.135 1_455 S
Co182 O183 2.216 1_565 S
Co182 O184 2.091 . S
Co182 O186 2.004 . S
Co182 O192 2.021 . S
Co182 O194 2.137 1_565 S
Co182 O195 2.244 1_565 S
O183 Co182 2.216 1_545 S
O183 C190 1.247 1_545 S
O184 Co182 2.091 . S
O184 C190 1.261 . S
C185 O194 1.247 . S
C185 O195 1.272 . S
O186 Co182 2.004 . S
O186 C191 1.259 . S
Co187 O188 2.061 . S
Co187 O193 2.052 . S
Co187 O195 2.135 1_565 S
O188 Co187 2.061 . S
O188 C191 1.235 . S
C189 O192 1.238 . S
C189 O193 1.241 . S
C190 O183 1.247 1_565 S
C190 O184 1.261 . S
C191 O186 1.259 . S
C191 O188 1.235 . S
O192 Co182 2.021 . S
O192 C189 1.238 . S
O193 Co187 2.052 . S
O193 C189 1.241 . S
O194 Co182 2.137 1_545 S
O194 C185 1.247 . S
O195 Co182 2.244 1_545 S
O195 C185 1.272 . S
O195 Co187 2.135 1_545 S
Co196 O197 2.216 . S
Co196 O198 2.091 . S
Co196 O200 2.004 . S
Co196 O206 2.021 . S
Co196 O208 2.137 . S
Co196 O209 2.244 . S
O197 Co196 2.216 . S
O197 C204 1.247 . S
O198 Co196 2.091 . S
O198 C204 1.261 . S
C199 O208 1.247 . S
C199 O209 1.272 . S
O200 Co196 2.004 . S
O200 C205 1.259 . S
Co201 O202 2.061 . S
Co201 O207 2.052 . S
Co201 O209 2.135 . S
O202 Co201 2.061 . S
O202 C205 1.235 . S
C203 O206 1.238 . S
C203 O207 1.241 . S
C204 O197 1.247 . S
C204 O198 1.261 . S
C205 O200 1.259 . S
C205 O202 1.235 . S
O206 Co196 2.021 . S
O206 C203 1.238 . S
O207 Co201 2.052 . S
O207 C203 1.241 . S
O208 Co196 2.137 . S
O208 C199 1.247 . S
O209 Co196 2.244 . S
O209 C199 1.272 . S
O209 Co201 2.135 . S
Co210 O211 2.216 . S
Co210 O212 2.091 . S
Co210 O214 2.004 . S
Co210 O220 2.021 . S
Co210 O222 2.137 . S
Co210 O223 2.244 . S
O211 Co210 2.216 . S
O211 C218 1.247 . S
O212 Co210 2.091 . S
O212 C218 1.261 . S
C213 O222 1.247 . S
C213 O223 1.272 . S
O214 Co210 2.004 . S
O214 C219 1.259 . S
Co215 O216 2.061 . S
Co215 O221 2.052 . S
Co215 O223 2.135 . S
O216 Co215 2.061 . S
O216 C219 1.235 . S
C217 O220 1.238 . S
C217 O221 1.241 . S
C218 O211 1.247 . S
C218 O212 1.261 . S
C219 O214 1.259 . S
C219 O216 1.235 . S
O220 Co210 2.021 . S
O220 C217 1.238 . S
O221 Co215 2.052 . S
O221 C217 1.241 . S
O222 Co210 2.137 . S
O222 C213 1.247 . S
O223 Co210 2.244 . S
O223 C213 1.272 . S
O223 Co215 2.135 . S
H224 C236 0.930 . S
H225 C238 0.930 . S
H226 C239 0.930 1_556 S
H227 C243 0.959 . S
H228 C243 0.959 . S
H229 C243 0.961 . S
H230 C244 0.963 . S
H231 C244 0.961 . S
H232 C244 0.959 . S
H233 C247 0.929 . S
H234 C248 0.931 . S
H235 C250 0.930 . S
C236 H224 0.930 . S
C236 C237 1.399 . S
C236 C241 1.399 . S
C237 C236 1.399 . S
C237 C238 1.376 1_455 S
C238 H225 0.930 . S
C238 C237 1.376 1_655 S
C238 C239 1.388 . S
C239 H226 0.930 1_554 S
C239 C238 1.388 . S
C239 C240 1.390 1_554 S
C240 C239 1.390 1_556 S
C240 C241 1.393 1_656 S
C240 C246 1.466 . S
C241 C236 1.399 . S
C241 C240 1.393 1_454 S
C241 C242 1.516 . S
C242 C241 1.516 . S
C242 C243 1.502 . S
C242 C244 1.561 1_554 S
C242 C245 1.526 1_554 S
C243 H227 0.959 . S
C243 H228 0.959 . S
C243 H229 0.961 . S
C243 C242 1.502 . S
C244 H230 0.963 . S
C244 H231 0.961 . S
C244 H232 0.959 . S
C244 C242 1.561 1_556 S
C245 C242 1.526 1_556 S
C245 C246 1.396 1_455 S
C245 C250 1.390 . S
C246 C240 1.466 . S
C246 C245 1.396 1_655 S
C246 C247 1.399 . S
C247 H233 0.929 . S
C247 C246 1.399 . S
C247 C248 1.385 . S
C248 H234 0.931 . S
C248 C247 1.385 . S
C248 C249 1.389 1_655 S
C249 C248 1.389 1_455 S
C249 C250 1.387 . S
C250 H235 0.930 . S
C250 C245 1.390 . S
C250 C249 1.387 . S
H251 C263 0.930 . S
H252 C265 0.930 . S
H253 C266 0.930 . S
H254 C270 0.959 1_545 S
H255 C270 0.959 . S
H256 C270 0.961 . S
H257 C271 0.960 . S
H258 C271 0.961 . S
H259 C271 0.959 . S
H260 C274 0.929 . S
H261 C275 0.931 . S
H262 C277 0.930 . S
C263 H251 0.930 . S
C263 C264 1.399 1_565 S
C263 C268 1.399 . S
C264 C263 1.399 1_545 S
C264 C265 1.376 . S
C265 H252 0.930 . S
C265 C264 1.376 . S
C265 C266 1.388 . S
C266 H253 0.930 . S
C266 C265 1.388 . S
C266 C267 1.390 . S
C267 C266 1.390 . S
C267 C268 1.394 1_545 S
C267 C273 1.465 . S
C268 C263 1.399 . S
C268 C267 1.394 1_565 S
C268 C269 1.516 . S
C269 C268 1.516 . S
C269 C270 1.502 . S
C269 C271 1.561 . S
C269 C272 1.526 . S
C270 H254 0.959 1_565 S
C270 H255 0.959 . S
C270 H256 0.961 . S
C270 C269 1.502 . S
C271 H257 0.960 . S
C271 H258 0.961 . S
C271 H259 0.959 . S
C271 C269 1.561 . S
C272 C269 1.526 . S
C272 C273 1.396 1_565 S
C272 C277 1.390 . S
C273 C267 1.465 . S
C273 C272 1.396 1_545 S
C273 C274 1.399 . S
C274 H260 0.929 . S
C274 C273 1.399 . S
C274 C275 1.385 . S
C275 H261 0.931 . S
C275 C274 1.385 . S
C275 C276 1.389 . S
C276 C275 1.389 . S
C276 C277 1.387 1_545 S
C277 H262 0.930 . S
C277 C272 1.390 . S
C277 C276 1.387 1_565 S
H278 C290 0.930 1_556 S
H279 C292 0.930 . S
H280 C293 0.930 . S
H281 C297 0.959 . S
H282 C297 0.959 . S
H283 C297 0.961 . S
H284 C298 0.960 . S
H285 C298 0.961 . S
H286 C298 0.959 . S
H287 C301 0.929 . S
H288 C302 0.931 1_554 S
H289 C304 0.930 . S
C290 H278 0.930 1_554 S
C290 C291 1.399 . S
C290 C295 1.395 1_554 S
C291 C290 1.399 . S
C291 C292 1.376 . S
C292 H279 0.930 . S
C292 C291 1.376 . S
C292 C293 1.388 . S
C293 H280 0.930 . S
C293 C292 1.388 . S
C293 C294 1.390 . S
C294 C293 1.390 . S
C294 C295 1.385 1_554 S
C294 C300 1.465 . S
C295 C290 1.395 1_556 S
C295 C294 1.385 1_556 S
C295 C296 1.528 . S
C296 C295 1.528 . S
C296 C297 1.502 . S
C296 C298 1.561 . S
C296 C299 1.526 . S
C297 H281 0.959 . S
C297 H282 0.959 . S
C297 H283 0.961 . S
C297 C296 1.502 . S
C298 H284 0.960 . S
C298 H285 0.961 . S
C298 H286 0.959 . S
C298 C296 1.561 . S
C299 C296 1.526 . S
C299 C300 1.396 1_556 S
C299 C304 1.390 . S
C300 C294 1.465 . S
C300 C299 1.396 1_554 S
C300 C301 1.399 . S
C301 H287 0.929 . S
C301 C300 1.399 . S
C301 C302 1.385 1_554 S
C302 H288 0.931 1_556 S
C302 C301 1.385 1_556 S
C302 C303 1.389 . S
C303 C302 1.389 . S
C303 C304 1.387 . S
C304 H289 0.930 . S
C304 C299 1.390 . S
C304 C303 1.387 . S
H305 C317 0.930 . S
H306 C319 0.930 . S
H307 C320 0.930 . S
H308 C324 0.959 . S
H309 C324 0.959 . S
H310 C324 0.961 . S
H311 C325 0.960 . S
H312 C325 0.961 . S
H313 C325 0.959 . S
H314 C328 0.929 . S
H315 C329 0.931 . S
H316 C331 0.930 . S
C317 H305 0.930 . S
C317 C318 1.399 . S
C317 C322 1.399 . S
C318 C317 1.399 . S
C318 C319 1.376 . S
C319 H306 0.930 . S
C319 C318 1.376 . S
C319 C320 1.388 . S
C320 H307 0.930 . S
C320 C319 1.388 . S
C320 C321 1.390 . S
C321 C320 1.390 . S
C321 C322 1.394 . S
C321 C327 1.465 . S
C322 C317 1.399 . S
C322 C321 1.394 . S
C322 C323 1.516 . S
C323 C322 1.516 . S
C323 C324 1.502 . S
C323 C325 1.561 . S
C323 C326 1.526 . S
C324 H308 0.959 . S
C324 H309 0.959 . S
C324 H310 0.961 . S
C324 C323 1.502 . S
C325 H311 0.960 . S
C325 H312 0.961 . S
C325 H313 0.959 . S
C325 C323 1.561 . S
C326 C323 1.526 . S
C326 C327 1.396 . S
C326 C331 1.390 . S
C327 C321 1.465 . S
C327 C326 1.396 . S
C327 C328 1.399 . S
C328 H314 0.929 . S
C328 C327 1.399 . S
C328 C329 1.385 . S
C329 H315 0.931 . S
C329 C328 1.385 . S
C329 C330 1.389 . S
C330 C329 1.389 . S
C330 C331 1.387 . S
C331 H316 0.930 . S
C331 C326 1.390 . S
C331 C330 1.387 . S
H332 C344 0.930 . S
H333 C346 0.930 . S
H334 C347 0.930 . S
H335 C351 0.959 . S
H336 C351 0.959 . S
H337 C351 0.961 . S
H338 C352 0.959 1_455 S
H339 C352 0.961 1_455 S
H340 C352 0.959 . S
H341 C355 0.929 . S
H342 C356 0.931 . S
H343 C358 0.930 . S
C344 H332 0.930 . S
C344 C345 1.399 1_455 S
C344 C349 1.399 . S
C345 C344 1.399 1_655 S
C345 C346 1.376 . S
C346 H333 0.930 . S
C346 C345 1.376 . S
C346 C347 1.388 . S
C347 H334 0.930 . S
C347 C346 1.388 . S
C347 C348 1.390 . S
C348 C347 1.390 . S
C348 C349 1.394 1_655 S
C348 C354 1.465 . S
C349 C344 1.399 . S
C349 C348 1.394 1_455 S
C349 C350 1.516 1_556 S
C350 C349 1.516 1_554 S
C350 C351 1.502 . S
C350 C352 1.561 1_455 S
C350 C353 1.526 . S
C351 H335 0.959 . S
C351 H336 0.959 . S
C351 H337 0.961 . S
C351 C350 1.502 . S
C352 H338 0.959 1_655 S
C352 H339 0.961 1_655 S
C352 H340 0.959 . S
C352 C350 1.561 1_655 S
C353 C350 1.526 . S
C353 C354 1.396 1_454 S
C353 C358 1.390 . S
C354 C348 1.465 . S
C354 C353 1.396 1_656 S
C354 C355 1.399 . S
C355 H341 0.929 . S
C355 C354 1.399 . S
C355 C356 1.385 1_556 S
C356 H342 0.931 . S
C356 C355 1.385 1_554 S
C356 C357 1.389 . S
C357 C356 1.389 . S
C357 C358 1.387 1_655 S
C358 H343 0.930 . S
C358 C353 1.390 . S
C358 C357 1.387 1_455 S
H359 C371 0.930 . S
H360 C373 0.930 . S
H361 C374 0.930 . S
H362 C378 0.959 . S
H363 C378 0.959 . S
H364 C378 0.961 . S
H365 C379 0.960 . S
H366 C379 0.961 . S
H367 C379 0.959 . S
H368 C382 0.929 . S
H369 C383 0.931 . S
H370 C385 0.930 . S
C371 H359 0.930 . S
C371 C372 1.399 . S
C371 C376 1.399 . S
C372 C371 1.399 . S
C372 C373 1.376 1_565 S
C373 H360 0.930 . S
C373 C372 1.376 1_545 S
C373 C374 1.388 . S
C374 H361 0.930 . S
C374 C373 1.388 . S
C374 C375 1.390 . S
C375 C374 1.390 . S
C375 C376 1.394 1_545 S
C375 C381 1.465 . S
C376 C371 1.399 . S
C376 C375 1.394 1_565 S
C376 C377 1.516 . S
C377 C376 1.516 . S
C377 C378 1.502 . S
C377 C379 1.561 . S
C377 C380 1.526 . S
C378 H362 0.959 . S
C378 H363 0.959 . S
C378 H364 0.961 . S
C378 C377 1.502 . S
C379 H365 0.960 . S
C379 H366 0.961 . S
C379 H367 0.959 . S
C379 C377 1.561 . S
C380 C377 1.526 . S
C380 C381 1.396 1_565 S
C380 C385 1.390 . S
C381 C375 1.465 . S
C381 C380 1.396 1_545 S
C381 C382 1.399 . S
C382 H368 0.929 . S
C382 C381 1.399 . S
C382 C383 1.385 . S
C383 H369 0.931 . S
C383 C382 1.385 . S
C383 C384 1.389 1_545 S
C384 C383 1.389 1_565 S
C384 C385 1.387 . S
C385 H370 0.930 . S
C385 C380 1.390 . S
C385 C384 1.387 . S
H386 C398 0.930 . S
H387 C400 0.930 1_554 S
H388 C401 0.930 . S
H389 C405 0.959 . S
H390 C405 0.959 . S
H391 C405 0.961 . S
H392 C406 0.960 . S
H393 C406 0.961 . S
H394 C406 0.959 . S
H395 C409 0.929 . S
H396 C410 0.931 . S
H397 C412 0.930 1_556 S
C398 H386 0.930 . S
C398 C399 1.399 . S
C398 C403 1.399 . S
C399 C398 1.399 . S
C399 C400 1.376 . S
C400 H387 0.930 1_556 S
C400 C399 1.376 . S
C400 C401 1.388 1_556 S
C401 H388 0.930 . S
C401 C400 1.388 1_554 S
C401 C402 1.390 . S
C402 C401 1.390 . S
C402 C403 1.394 1_554 S
C402 C408 1.465 . S
C403 C398 1.399 . S
C403 C402 1.394 1_556 S
C403 C404 1.516 . S
C404 C403 1.516 . S
C404 C405 1.502 . S
C404 C406 1.561 . S
C404 C407 1.525 . S
C405 H389 0.959 . S
C405 H390 0.959 . S
C405 H391 0.961 . S
C405 C404 1.502 . S
C406 H392 0.960 . S
C406 H393 0.961 . S
C406 H394 0.959 . S
C406 C404 1.561 . S
C407 C404 1.525 . S
C407 C408 1.397 1_556 S
C407 C412 1.390 1_556 S
C408 C402 1.465 . S
C408 C407 1.397 1_554 S
C408 C409 1.399 . S
C409 H395 0.929 . S
C409 C408 1.399 . S
C409 C410 1.385 . S
C410 H396 0.931 . S
C410 C409 1.385 . S
C410 C411 1.389 . S
C411 C410 1.389 . S
C411 C412 1.387 . S
C412 H397 0.930 1_554 S
C412 C407 1.390 1_554 S
C412 C411 1.387 . S
H413 C425 0.930 . S
H414 C427 0.930 . S
H415 C428 0.930 . S
H416 C432 0.959 . S
H417 C432 0.959 . S
H418 C432 0.961 . S
H419 C433 0.960 . S
H420 C433 0.961 . S
H421 C433 0.959 . S
H422 C436 0.929 . S
H423 C437 0.931 . S
H424 C439 0.930 . S
C425 H413 0.930 . S
C425 C426 1.399 . S
C425 C430 1.399 . S
C426 C425 1.399 . S
C426 C427 1.376 . S
C427 H414 0.930 . S
C427 C426 1.376 . S
C427 C428 1.388 . S
C428 H415 0.930 . S
C428 C427 1.388 . S
C428 C429 1.390 . S
C429 C428 1.390 . S
C429 C430 1.394 . S
C429 C435 1.465 . S
C430 C425 1.399 . S
C430 C429 1.394 . S
C430 C431 1.516 . S
C431 C430 1.516 . S
C431 C432 1.502 . S
C431 C433 1.561 . S
C431 C434 1.526 . S
C432 H416 0.959 . S
C432 H417 0.959 . S
C432 H418 0.961 . S
C432 C431 1.502 . S
C433 H419 0.960 . S
C433 H420 0.961 . S
C433 H421 0.959 . S
C433 C431 1.561 . S
C434 C431 1.526 . S
C434 C435 1.396 . S
C434 C439 1.390 . S
C435 C429 1.465 . S
C435 C434 1.396 . S
C435 C436 1.399 . S
C436 H422 0.929 . S
C436 C435 1.399 . S
C436 C437 1.385 . S
C437 H423 0.931 . S
C437 C436 1.385 . S
C437 C438 1.389 . S
C438 C437 1.389 . S
C438 C439 1.387 . S
C439 H424 0.930 . S
C439 C434 1.390 . S
C439 C438 1.387 . S
H440 C452 0.930 1_554 S
H441 C454 0.930 . S
H442 C455 0.930 . S
H443 C459 0.959 . S
H444 C459 0.959 . S
H445 C459 0.961 . S
H446 C460 0.960 1_554 S
H447 C460 0.961 . S
H448 C460 0.959 . S
H449 C463 0.929 . S
H450 C464 0.931 . S
H451 C466 0.930 . S
C452 H440 0.930 1_556 S
C452 C453 1.399 . S
C452 C457 1.399 . S
C453 C452 1.399 . S
C453 C454 1.376 . S
C454 H441 0.930 . S
C454 C453 1.376 . S
C454 C455 1.388 . S
C455 H442 0.930 . S
C455 C454 1.388 . S
C455 C456 1.390 . S
C456 C455 1.390 . S
C456 C457 1.394 . S
C456 C462 1.465 . S
C457 C452 1.399 . S
C457 C456 1.394 . S
C457 C458 1.516 . S
C458 C457 1.516 . S
C458 C459 1.502 . S
C458 C460 1.561 . S
C458 C461 1.526 . S
C459 H443 0.959 . S
C459 H444 0.959 . S
C459 H445 0.961 . S
C459 C458 1.502 . S
C460 H446 0.960 1_556 S
C460 H447 0.961 . S
C460 H448 0.959 . S
C460 C458 1.561 . S
C461 C458 1.526 . S
C461 C462 1.396 . S
C461 C466 1.390 . S
C462 C456 1.465 . S
C462 C461 1.396 . S
C462 C463 1.399 . S
C463 H449 0.929 . S
C463 C462 1.399 . S
C463 C464 1.385 . S
C464 H450 0.931 . S
C464 C463 1.385 . S
C464 C465 1.389 . S
C465 C464 1.389 . S
C465 C466 1.387 . S
C466 H451 0.930 . S
C466 C461 1.390 . S
C466 C465 1.387 . S
H467 C479 0.930 . S
H468 C481 0.930 . S
H469 C482 0.930 . S
H470 C486 0.959 . S
H471 C486 0.959 . S
H472 C486 0.961 . S
H473 C487 0.960 . S
H474 C487 0.961 . S
H475 C487 0.959 . S
H476 C490 0.929 . S
H477 C491 0.931 . S
H478 C493 0.930 . S
C479 H467 0.930 . S
C479 C480 1.399 . S
C479 C484 1.399 . S
C480 C479 1.399 . S
C480 C481 1.376 . S
C481 H468 0.930 . S
C481 C480 1.376 . S
C481 C482 1.388 . S
C482 H469 0.930 . S
C482 C481 1.388 . S
C482 C483 1.390 . S
C483 C482 1.390 . S
C483 C484 1.394 . S
C483 C489 1.465 . S
C484 C479 1.399 . S
C484 C483 1.394 . S
C484 C485 1.516 . S
C485 C484 1.516 . S
C485 C486 1.502 . S
C485 C487 1.561 . S
C485 C488 1.526 . S
C486 H470 0.959 . S
C486 H471 0.959 . S
C486 H472 0.961 . S
C486 C485 1.502 . S
C487 H473 0.960 . S
C487 H474 0.961 . S
C487 H475 0.959 . S
C487 C485 1.561 . S
C488 C485 1.526 . S
C488 C489 1.396 . S
C488 C493 1.390 . S
C489 C483 1.465 . S
C489 C488 1.396 . S
C489 C490 1.399 . S
C490 H476 0.929 . S
C490 C489 1.399 . S
C490 C491 1.385 . S
C491 H477 0.931 . S
C491 C490 1.385 . S
C491 C492 1.389 . S
C492 C491 1.389 . S
C492 C493 1.387 . S
C493 H478 0.930 . S
C493 C488 1.390 . S
C493 C492 1.387 . S
H494 C506 0.930 1_554 S
H495 C508 0.930 . S
H496 C509 0.930 . S
H497 C513 0.959 . S
H498 C513 0.959 . S
H499 C513 0.961 1_554 S
H500 C514 0.960 . S
H501 C514 0.961 . S
H502 C514 0.959 . S
H503 C517 0.929 . S
H504 C518 0.931 . S
H505 C520 0.930 . S
C506 H494 0.930 1_556 S
C506 C507 1.399 . S
C506 C511 1.399 . S
C507 C506 1.399 . S
C507 C508 1.376 . S
C508 H495 0.930 . S
C508 C507 1.376 . S
C508 C509 1.388 . S
C509 H496 0.930 . S
C509 C508 1.388 . S
C509 C510 1.390 . S
C510 C509 1.390 . S
C510 C511 1.394 . S
C510 C516 1.465 . S
C511 C506 1.399 . S
C511 C510 1.394 . S
C511 C512 1.516 . S
C512 C511 1.516 . S
C512 C513 1.502 . S
C512 C514 1.561 . S
C512 C515 1.526 . S
C513 H497 0.959 . S
C513 H498 0.959 . S
C513 H499 0.961 1_556 S
C513 C512 1.502 . S
C514 H500 0.960 . S
C514 H501 0.961 . S
C514 H502 0.959 . S
C514 C512 1.561 . S
C515 C512 1.526 . S
C515 C516 1.396 . S
C515 C520 1.390 . S
C516 C510 1.465 . S
C516 C515 1.396 . S
C516 C517 1.399 . S
C517 H503 0.929 . S
C517 C516 1.399 . S
C517 C518 1.385 . S
C518 H504 0.931 . S
C518 C517 1.385 . S
C518 C519 1.389 . S
C519 C518 1.389 . S
C519 C520 1.387 . S
C520 H505 0.930 . S
C520 C515 1.390 . S
C520 C519 1.387 . S
H521 C533 0.930 . S
H522 C535 0.930 . S
H523 C536 0.930 . S
H524 C540 0.959 . S
H525 C540 0.959 . S
H526 C540 0.961 . S
H527 C541 0.960 . S
H528 C541 0.961 . S
H529 C541 0.959 . S
H530 C544 0.929 . S
H531 C545 0.931 . S
H532 C547 0.930 . S
C533 H521 0.930 . S
C533 C534 1.399 . S
C533 C538 1.399 . S
C534 C533 1.399 . S
C534 C535 1.376 . S
C535 H522 0.930 . S
C535 C534 1.376 . S
C535 C536 1.388 . S
C536 H523 0.930 . S
C536 C535 1.388 . S
C536 C537 1.390 . S
C537 C536 1.390 . S
C537 C538 1.394 . S
C537 C543 1.465 . S
C538 C533 1.399 . S
C538 C537 1.394 . S
C538 C539 1.516 . S
C539 C538 1.516 . S
C539 C540 1.502 . S
C539 C541 1.561 . S
C539 C542 1.526 . S
C540 H524 0.959 . S
C540 H525 0.959 . S
C540 H526 0.961 . S
C540 C539 1.502 . S
C541 H527 0.960 . S
C541 H528 0.961 . S
C541 H529 0.959 . S
C541 C539 1.561 . S
C542 C539 1.526 . S
C542 C543 1.396 . S
C542 C547 1.390 . S
C543 C537 1.465 . S
C543 C542 1.396 . S
C543 C544 1.399 . S
C544 H530 0.929 . S
C544 C543 1.399 . S
C544 C545 1.385 . S
C545 H531 0.931 . S
C545 C544 1.385 . S
C545 C546 1.389 . S
C546 C545 1.389 . S
C546 C547 1.387 . S
C547 H532 0.930 . S
C547 C542 1.390 . S
C547 C546 1.387 . S
H548 C560 0.930 . S
H549 C562 0.930 . S
H550 C563 0.930 . S
H551 C567 0.959 . S
H552 C567 0.959 . S
H553 C567 0.961 . S
H554 C568 0.960 . S
H555 C568 0.961 1_556 S
H556 C568 0.959 . S
H557 C571 0.929 . S
H558 C572 0.931 . S
H559 C574 0.930 1_556 S
C560 H548 0.930 . S
C560 C561 1.399 . S
C560 C565 1.399 . S
C561 C560 1.399 . S
C561 C562 1.376 . S
C562 H549 0.930 . S
C562 C561 1.376 . S
C562 C563 1.388 . S
C563 H550 0.930 . S
C563 C562 1.388 . S
C563 C564 1.390 . S
C564 C563 1.390 . S
C564 C565 1.394 . S
C564 C570 1.465 . S
C565 C560 1.399 . S
C565 C564 1.394 . S
C565 C566 1.516 . S
C566 C565 1.516 . S
C566 C567 1.502 . S
C566 C568 1.561 . S
C566 C569 1.526 . S
C567 H551 0.959 . S
C567 H552 0.959 . S
C567 H553 0.961 . S
C567 C566 1.502 . S
C568 H554 0.960 . S
C568 H555 0.961 1_554 S
C568 H556 0.959 . S
C568 C566 1.561 . S
C569 C566 1.526 . S
C569 C570 1.396 . S
C569 C574 1.390 . S
C570 C564 1.465 . S
C570 C569 1.396 . S
C570 C571 1.399 . S
C571 H557 0.929 . S
C571 C570 1.399 . S
C571 C572 1.385 . S
C572 H558 0.931 . S
C572 C571 1.385 . S
C572 C573 1.389 . S
C573 C572 1.389 . S
C573 C574 1.387 . S
C574 H559 0.930 1_554 S
C574 C569 1.390 . S
C574 C573 1.387 . S
H575 C587 0.930 . S
H576 C589 0.930 . S
H577 C590 0.930 . S
H578 C594 0.959 . S
H579 C594 0.959 . S
H580 C594 0.961 . S
H581 C595 0.960 . S
H582 C595 0.961 . S
H583 C595 0.959 . S
H584 C598 0.929 . S
H585 C599 0.931 . S
H586 C601 0.930 . S
C587 H575 0.930 . S
C587 C588 1.399 . S
C587 C592 1.399 . S
C588 C587 1.399 . S
C588 C589 1.376 . S
C589 H576 0.930 . S
C589 C588 1.376 . S
C589 C590 1.388 . S
C590 H577 0.930 . S
C590 C589 1.388 . S
C590 C591 1.390 . S
C591 C590 1.390 . S
C591 C592 1.394 . S
C591 C597 1.465 . S
C592 C587 1.399 . S
C592 C591 1.394 . S
C592 C593 1.516 . S
C593 C592 1.516 . S
C593 C594 1.502 . S
C593 C595 1.561 . S
C593 C596 1.526 . S
C594 H578 0.959 . S
C594 H579 0.959 . S
C594 H580 0.961 . S
C594 C593 1.502 . S
C595 H581 0.960 . S
C595 H582 0.961 . S
C595 H583 0.959 . S
C595 C593 1.561 . S
C596 C593 1.526 . S
C596 C597 1.396 . S
C596 C601 1.390 . S
C597 C591 1.465 . S
C597 C596 1.396 . S
C597 C598 1.399 . S
C598 H584 0.929 . S
C598 C597 1.399 . S
C598 C599 1.385 . S
C599 H585 0.931 . S
C599 C598 1.385 . S
C599 C600 1.389 . S
C600 C599 1.389 . S
C600 C601 1.387 . S
C601 H586 0.930 . S
C601 C596 1.390 . S
C601 C600 1.387 . S
H602 C614 0.930 . S
H603 C616 0.930 . S
H604 C617 0.930 . S
H605 C621 0.959 . S
H606 C621 0.959 . S
H607 C621 0.961 . S
H608 C622 0.960 . S
H609 C622 0.961 . S
H610 C622 0.959 . S
H611 C625 0.929 . S
H612 C626 0.931 . S
H613 C628 0.930 . S
C614 H602 0.930 . S
C614 C615 1.399 . S
C614 C619 1.399 . S
C615 C614 1.399 . S
C615 C616 1.376 . S
C616 H603 0.930 . S
C616 C615 1.376 . S
C616 C617 1.388 . S
C617 H604 0.930 . S
C617 C616 1.388 . S
C617 C618 1.390 . S
C618 C617 1.390 . S
C618 C619 1.394 . S
C618 C624 1.465 . S
C619 C614 1.399 . S
C619 C618 1.394 . S
C619 C620 1.516 . S
C620 C619 1.516 . S
C620 C621 1.502 . S
C620 C622 1.561 . S
C620 C623 1.526 . S
C621 H605 0.959 . S
C621 H606 0.959 . S
C621 H607 0.961 . S
C621 C620 1.502 . S
C622 H608 0.960 . S
C622 H609 0.961 . S
C622 H610 0.959 . S
C622 C620 1.561 . S
C623 C620 1.526 . S
C623 C624 1.396 . S
C623 C628 1.390 . S
C624 C618 1.465 . S
C624 C623 1.396 . S
C624 C625 1.399 . S
C625 H611 0.929 . S
C625 C624 1.399 . S
C625 C626 1.385 . S
C626 H612 0.931 . S
C626 C625 1.385 . S
C626 C627 1.389 . S
C627 C626 1.389 . S
C627 C628 1.387 . S
C628 H613 0.930 . S
C628 C623 1.390 . S
C628 C627 1.387 . S
H629 C641 0.930 . S
H630 C643 0.930 . S
H631 C644 0.930 . S
H632 C648 0.959 . S
H633 C648 0.959 . S
H634 C648 0.961 . S
H635 C649 0.960 . S
H636 C649 0.961 . S
H637 C649 0.959 . S
H638 C652 0.929 . S
H639 C653 0.931 . S
H640 C655 0.930 . S
C641 H629 0.930 . S
C641 C642 1.399 . S
C641 C646 1.399 . S
C642 C641 1.399 . S
C642 C643 1.376 . S
C643 H630 0.930 . S
C643 C642 1.376 . S
C643 C644 1.388 . S
C644 H631 0.930 . S
C644 C643 1.388 . S
C644 C645 1.390 . S
C645 C644 1.390 . S
C645 C646 1.394 . S
C645 C651 1.465 . S
C646 C641 1.399 . S
C646 C645 1.394 . S
C646 C647 1.516 . S
C647 C646 1.516 . S
C647 C648 1.502 . S
C647 C649 1.561 . S
C647 C650 1.526 . S
C648 H632 0.959 . S
C648 H633 0.959 . S
C648 H634 0.961 . S
C648 C647 1.502 . S
C649 H635 0.960 . S
C649 H636 0.961 . S
C649 H637 0.959 . S
C649 C647 1.561 . S
C650 C647 1.526 . S
C650 C651 1.396 . S
C650 C655 1.390 . S
C651 C645 1.465 . S
C651 C650 1.396 . S
C651 C652 1.399 . S
C652 H638 0.929 . S
C652 C651 1.399 . S
C652 C653 1.385 . S
C653 H639 0.931 . S
C653 C652 1.385 . S
C653 C654 1.389 . S
C654 C653 1.389 . S
C654 C655 1.387 . S
C655 H640 0.930 . S
C655 C650 1.390 . S
C655 C654 1.387 . S
H656 C668 0.930 . S
H657 C670 0.930 1_556 S
H658 C671 0.930 . S
H659 C675 0.959 . S
H660 C675 0.959 . S
H661 C675 0.961 . S
H662 C676 0.960 . S
H663 C676 0.961 . S
H664 C676 0.959 . S
H665 C679 0.929 . S
H666 C680 0.931 . S
H667 C682 0.930 . S
C668 H656 0.930 . S
C668 C669 1.399 . S
C668 C673 1.399 . S
C669 C668 1.399 . S
C669 C670 1.376 . S
C670 H657 0.930 1_554 S
C670 C669 1.376 . S
C670 C671 1.388 . S
C671 H658 0.930 . S
C671 C670 1.388 . S
C671 C672 1.390 . S
C672 C671 1.390 . S
C672 C673 1.394 . S
C672 C678 1.465 . S
C673 C668 1.399 . S
C673 C672 1.394 . S
C673 C674 1.516 . S
C674 C673 1.516 . S
C674 C675 1.502 . S
C674 C676 1.561 . S
C674 C677 1.526 . S
C675 H659 0.959 . S
C675 H660 0.959 . S
C675 H661 0.961 . S
C675 C674 1.502 . S
C676 H662 0.960 . S
C676 H663 0.961 . S
C676 H664 0.959 . S
C676 C674 1.561 . S
C677 C674 1.526 . S
C677 C678 1.396 . S
C677 C682 1.390 . S
C678 C672 1.465 . S
C678 C677 1.396 . S
C678 C679 1.399 . S
C679 H665 0.929 . S
C679 C678 1.399 . S
C679 C680 1.385 . S
C680 H666 0.931 . S
C680 C679 1.385 . S
C680 C681 1.389 . S
C681 C680 1.389 . S
C681 C682 1.387 . S
C682 H667 0.930 . S
C682 C677 1.390 . S
C682 C681 1.387 . S
H683 C695 0.930 . S
H684 C697 0.930 . S
H685 C698 0.930 . S
H686 C702 0.959 . S
H687 C702 0.959 . S
H688 C702 0.961 . S
H689 C703 0.960 . S
H690 C703 0.961 . S
H691 C703 0.959 . S
H692 C706 0.929 . S
H693 C707 0.931 . S
H694 C709 0.930 . S
C695 H683 0.930 . S
C695 C696 1.399 . S
C695 C700 1.399 . S
C696 C695 1.399 . S
C696 C697 1.376 . S
C697 H684 0.930 . S
C697 C696 1.376 . S
C697 C698 1.388 . S
C698 H685 0.930 . S
C698 C697 1.388 . S
C698 C699 1.390 . S
C699 C698 1.390 . S
C699 C700 1.394 . S
C699 C705 1.465 . S
C700 C695 1.399 . S
C700 C699 1.394 . S
C700 C701 1.516 . S
C701 C700 1.516 . S
C701 C702 1.502 . S
C701 C703 1.561 . S
C701 C704 1.526 . S
C702 H686 0.959 . S
C702 H687 0.959 . S
C702 H688 0.961 . S
C702 C701 1.502 . S
C703 H689 0.960 . S
C703 H690 0.961 . S
C703 H691 0.959 . S
C703 C701 1.561 . S
C704 C701 1.526 . S
C704 C705 1.396 . S
C704 C709 1.390 . S
C705 C699 1.465 . S
C705 C704 1.396 . S
C705 C706 1.399 . S
C706 H692 0.929 . S
C706 C705 1.399 . S
C706 C707 1.385 . S
C707 H693 0.931 . S
C707 C706 1.385 . S
C707 C708 1.389 . S
C708 C707 1.389 . S
C708 C709 1.387 . S
C709 H694 0.930 . S
C709 C704 1.390 . S
C709 C708 1.387 . S
H710 C722 0.930 . S
H711 C724 0.930 . S
H712 C725 0.930 . S
H713 C729 0.959 . S
H714 C729 0.959 1_556 S
H715 C729 0.961 . S
H716 C730 0.960 . S
H717 C730 0.961 . S
H718 C730 0.959 . S
H719 C733 0.929 . S
H720 C734 0.931 . S
H721 C736 0.930 1_556 S
C722 H710 0.930 . S
C722 C723 1.399 . S
C722 C727 1.399 . S
C723 C722 1.399 . S
C723 C724 1.376 . S
C724 H711 0.930 . S
C724 C723 1.376 . S
C724 C725 1.388 . S
C725 H712 0.930 . S
C725 C724 1.388 . S
C725 C726 1.390 . S
C726 C725 1.390 . S
C726 C727 1.394 . S
C726 C732 1.465 . S
C727 C722 1.399 . S
C727 C726 1.394 . S
C727 C728 1.516 . S
C728 C727 1.516 . S
C728 C729 1.502 . S
C728 C730 1.561 . S
C728 C731 1.526 . S
C729 H713 0.959 . S
C729 H714 0.959 1_554 S
C729 H715 0.961 . S
C729 C728 1.502 . S
C730 H716 0.960 . S
C730 H717 0.961 . S
C730 H718 0.959 . S
C730 C728 1.561 . S
C731 C728 1.526 . S
C731 C732 1.396 . S
C731 C736 1.390 . S
C732 C726 1.465 . S
C732 C731 1.396 . S
C732 C733 1.399 . S
C733 H719 0.929 . S
C733 C732 1.399 . S
C733 C734 1.385 . S
C734 H720 0.931 . S
C734 C733 1.385 . S
C734 C735 1.389 . S
C735 C734 1.389 . S
C735 C736 1.387 . S
C736 H721 0.930 1_554 S
C736 C731 1.390 . S
C736 C735 1.387 . S
H737 C749 0.930 . S
H738 C751 0.930 . S
H739 C752 0.930 . S
H740 C756 0.959 . S
H741 C756 0.959 . S
H742 C756 0.961 . S
H743 C757 0.960 . S
H744 C757 0.961 . S
H745 C757 0.959 . S
H746 C760 0.929 . S
H747 C761 0.931 . S
H748 C763 0.930 . S
C749 H737 0.930 . S
C749 C750 1.399 . S
C749 C754 1.399 . S
C750 C749 1.399 . S
C750 C751 1.376 . S
C751 H738 0.930 . S
C751 C750 1.376 . S
C751 C752 1.388 . S
C752 H739 0.930 . S
C752 C751 1.388 . S
C752 C753 1.390 . S
C753 C752 1.390 . S
C753 C754 1.394 . S
C753 C759 1.465 . S
C754 C749 1.399 . S
C754 C753 1.394 . S
C754 C755 1.516 . S
C755 C754 1.516 . S
C755 C756 1.502 . S
C755 C757 1.561 . S
C755 C758 1.526 . S
C756 H740 0.959 . S
C756 H741 0.959 . S
C756 H742 0.961 . S
C756 C755 1.502 . S
C757 H743 0.960 . S
C757 H744 0.961 . S
C757 H745 0.959 . S
C757 C755 1.561 . S
C758 C755 1.526 . S
C758 C759 1.396 . S
C758 C763 1.390 . S
C759 C753 1.465 . S
C759 C758 1.396 . S
C759 C760 1.399 . S
C760 H746 0.929 . S
C760 C759 1.399 . S
C760 C761 1.385 . S
C761 H747 0.931 . S
C761 C760 1.385 . S
C761 C762 1.389 . S
C762 C761 1.389 . S
C762 C763 1.387 . S
C763 H748 0.930 . S
C763 C758 1.390 . S
C763 C762 1.387 . S
H764 C776 0.930 . S
H765 C778 0.930 . S
H766 C779 0.930 . S
H767 C783 0.959 . S
H768 C783 0.959 . S
H769 C783 0.961 . S
H770 C784 0.960 . S
H771 C784 0.961 . S
H772 C784 0.959 . S
H773 C787 0.929 1_554 S
H774 C788 0.931 . S
H775 C790 0.930 . S
C776 H764 0.930 . S
C776 C777 1.399 . S
C776 C781 1.399 . S
C777 C776 1.399 . S
C777 C778 1.376 . S
C778 H765 0.930 . S
C778 C777 1.376 . S
C778 C779 1.388 . S
C779 H766 0.930 . S
C779 C778 1.388 . S
C779 C780 1.390 . S
C780 C779 1.390 . S
C780 C781 1.394 . S
C780 C786 1.465 . S
C781 C776 1.399 . S
C781 C780 1.394 . S
C781 C782 1.516 . S
C782 C781 1.516 . S
C782 C783 1.502 . S
C782 C784 1.561 . S
C782 C785 1.526 . S
C783 H767 0.959 . S
C783 H768 0.959 . S
C783 H769 0.961 . S
C783 C782 1.502 . S
C784 H770 0.960 . S
C784 H771 0.961 . S
C784 H772 0.959 . S
C784 C782 1.561 . S
C785 C782 1.526 . S
C785 C786 1.396 . S
C785 C790 1.390 . S
C786 C780 1.465 . S
C786 C785 1.396 . S
C786 C787 1.399 . S
C787 H773 0.929 1_556 S
C787 C786 1.399 . S
C787 C788 1.385 1_556 S
C788 H774 0.931 . S
C788 C787 1.385 1_554 S
C788 C789 1.394 . S
C789 C788 1.394 . S
C789 C790 1.373 1_554 S
C790 H775 0.930 . S
C790 C785 1.390 . S
C790 C789 1.373 1_556 S
H791 C803 0.930 . S
H792 C805 0.930 . S
H793 C806 0.930 . S
H794 C810 0.959 . S
H795 C810 0.959 . S
H796 C810 0.961 . S
H797 C811 0.960 . S
H798 C811 0.961 . S
H799 C811 0.959 . S
H800 C814 0.929 . S
H801 C815 0.931 . S
H802 C817 0.930 . S
C803 H791 0.930 . S
C803 C804 1.399 . S
C803 C808 1.399 . S
C804 C803 1.399 . S
C804 C805 1.376 . S
C805 H792 0.930 . S
C805 C804 1.376 . S
C805 C806 1.388 . S
C806 H793 0.930 . S
C806 C805 1.388 . S
C806 C807 1.390 . S
C807 C806 1.390 . S
C807 C808 1.394 . S
C807 C813 1.465 . S
C808 C803 1.399 . S
C808 C807 1.394 . S
C808 C809 1.516 . S
C809 C808 1.516 . S
C809 C810 1.502 . S
C809 C811 1.561 . S
C809 C812 1.526 . S
C810 H794 0.959 . S
C810 H795 0.959 . S
C810 H796 0.961 . S
C810 C809 1.502 . S
C811 H797 0.960 . S
C811 H798 0.961 . S
C811 H799 0.959 . S
C811 C809 1.561 . S
C812 C809 1.526 . S
C812 C813 1.396 . S
C812 C817 1.390 . S
C813 C807 1.465 . S
C813 C812 1.396 . S
C813 C814 1.399 . S
C814 H800 0.929 . S
C814 C813 1.399 . S
C814 C815 1.385 . S
C815 H801 0.931 . S
C815 C814 1.385 . S
C815 C816 1.389 . S
C816 C815 1.389 . S
C816 C817 1.387 . S
C817 H802 0.930 . S
C817 C812 1.390 . S
C817 C816 1.387 . S
H818 C830 0.930 1_554 S
H819 C832 0.930 . S
H820 C833 0.930 . S
H821 C837 0.959 . S
H822 C837 0.959 . S
H823 C837 0.961 1_554 S
H824 C838 0.960 . S
H825 C838 0.961 . S
H826 C838 0.959 . S
H827 C841 0.929 . S
H828 C842 0.931 . S
H829 C844 0.930 . S
C830 H818 0.930 1_556 S
C830 C831 1.399 . S
C830 C835 1.399 . S
C831 C830 1.399 . S
C831 C832 1.376 . S
C832 H819 0.930 . S
C832 C831 1.376 . S
C832 C833 1.388 . S
C833 H820 0.930 . S
C833 C832 1.388 . S
C833 C834 1.390 . S
C834 C833 1.390 . S
C834 C835 1.394 . S
C834 C840 1.465 . S
C835 C830 1.399 . S
C835 C834 1.394 . S
C835 C836 1.516 . S
C836 C835 1.516 . S
C836 C837 1.502 . S
C836 C838 1.561 . S
C836 C839 1.526 . S
C837 H821 0.959 . S
C837 H822 0.959 . S
C837 H823 0.961 1_556 S
C837 C836 1.502 . S
C838 H824 0.960 . S
C838 H825 0.961 . S
C838 H826 0.959 . S
C838 C836 1.561 . S
C839 C836 1.526 . S
C839 C840 1.396 . S
C839 C844 1.390 . S
C840 C834 1.465 . S
C840 C839 1.396 . S
C840 C841 1.399 . S
C841 H827 0.929 . S
C841 C840 1.399 . S
C841 C842 1.385 . S
C842 H828 0.931 . S
C842 C841 1.385 . S
C842 C843 1.389 . S
C843 C842 1.389 . S
C843 C844 1.387 . S
C844 H829 0.930 . S
C844 C839 1.390 . S
C844 C843 1.387 . S
H845 C857 0.930 . S
H846 C859 0.930 . S
H847 C860 0.930 . S
H848 C864 0.959 . S
H849 C864 0.959 . S
H850 C864 0.961 . S
H851 C865 0.960 . S
H852 C865 0.961 . S
H853 C865 0.959 . S
H854 C868 0.929 . S
H855 C869 0.931 . S
H856 C871 0.930 . S
C857 H845 0.930 . S
C857 C858 1.399 . S
C857 C862 1.399 . S
C858 C857 1.399 . S
C858 C859 1.376 . S
C859 H846 0.930 . S
C859 C858 1.376 . S
C859 C860 1.388 . S
C860 H847 0.930 . S
C860 C859 1.388 . S
C860 C861 1.390 . S
C861 C860 1.390 . S
C861 C862 1.394 . S
C861 C867 1.465 . S
C862 C857 1.399 . S
C862 C861 1.394 . S
C862 C863 1.516 . S
C863 C862 1.516 . S
C863 C864 1.502 . S
C863 C865 1.561 . S
C863 C866 1.526 . S
C864 H848 0.959 . S
C864 H849 0.959 . S
C864 H850 0.961 . S
C864 C863 1.502 . S
C865 H851 0.960 . S
C865 H852 0.961 . S
C865 H853 0.959 . S
C865 C863 1.561 . S
C866 C863 1.526 . S
C866 C867 1.396 . S
C866 C871 1.390 . S
C867 C861 1.465 . S
C867 C866 1.396 . S
C867 C868 1.399 . S
C868 H854 0.929 . S
C868 C867 1.399 . S
C868 C869 1.385 . S
C869 H855 0.931 . S
C869 C868 1.385 . S
C869 C870 1.389 . S
C870 C869 1.389 . S
C870 C871 1.387 . S
C871 H856 0.930 . S
C871 C866 1.390 . S
C871 C870 1.387 . S
H872 C884 0.930 . S
H873 C886 0.930 . S
H874 C887 0.930 . S
H875 C891 0.959 . S
H876 C891 0.959 . S
H877 C891 0.961 . S
H878 C892 0.960 . S
H879 C892 0.961 . S
H880 C892 0.959 . S
H881 C895 0.929 . S
H882 C896 0.931 . S
H883 C898 0.930 . S
C884 H872 0.930 . S
C884 C885 1.399 . S
C884 C889 1.399 . S
C885 C884 1.399 . S
C885 C886 1.376 . S
C886 H873 0.930 . S
C886 C885 1.376 . S
C886 C887 1.388 . S
C887 H874 0.930 . S
C887 C886 1.388 . S
C887 C888 1.390 . S
C888 C887 1.390 . S
C888 C889 1.394 . S
C888 C894 1.465 . S
C889 C884 1.399 . S
C889 C888 1.394 . S
C889 C890 1.516 . S
C890 C889 1.516 . S
C890 C891 1.502 . S
C890 C892 1.561 . S
C890 C893 1.526 . S
C891 H875 0.959 . S
C891 H876 0.959 . S
C891 H877 0.961 . S
C891 C890 1.502 . S
C892 H878 0.960 . S
C892 H879 0.961 . S
C892 H880 0.959 . S
C892 C890 1.561 . S
C893 C890 1.526 . S
C893 C894 1.396 . S
C893 C898 1.390 . S
C894 C888 1.465 . S
C894 C893 1.396 . S
C894 C895 1.399 . S
C895 H881 0.929 . S
C895 C894 1.399 . S
C895 C896 1.385 . S
C896 H882 0.931 . S
C896 C895 1.385 . S
C896 C897 1.389 . S
C897 C896 1.389 . S
C897 C898 1.387 . S
C898 H883 0.930 . S
C898 C893 1.390 . S
C898 C897 1.387 . S
H899 C911 0.930 . S
H900 C913 0.930 . S
H901 C914 0.930 . S
H902 C918 0.959 . S
H903 C918 0.959 . S
H904 C918 0.961 . S
H905 C919 0.960 . S
H906 C919 0.961 . S
H907 C919 0.959 . S
H908 C922 0.929 . S
H909 C923 0.931 . S
H910 C925 0.930 . S
C911 H899 0.930 . S
C911 C912 1.399 . S
C911 C916 1.399 . S
C912 C911 1.399 . S
C912 C913 1.376 . S
C913 H900 0.930 . S
C913 C912 1.376 . S
C913 C914 1.388 . S
C914 H901 0.930 . S
C914 C913 1.388 . S
C914 C915 1.390 . S
C915 C914 1.390 . S
C915 C916 1.394 . S
C915 C921 1.465 . S
C916 C911 1.399 . S
C916 C915 1.394 . S
C916 C917 1.516 . S
C917 C916 1.516 . S
C917 C918 1.502 . S
C917 C919 1.561 . S
C917 C920 1.526 . S
C918 H902 0.959 . S
C918 H903 0.959 . S
C918 H904 0.961 . S
C918 C917 1.502 . S
C919 H905 0.960 . S
C919 H906 0.961 . S
C919 H907 0.959 . S
C919 C917 1.561 . S
C920 C917 1.526 . S
C920 C921 1.396 . S
C920 C925 1.390 . S
C921 C915 1.465 . S
C921 C920 1.396 . S
C921 C922 1.399 . S
C922 H908 0.929 . S
C922 C921 1.399 . S
C922 C923 1.385 . S
C923 H909 0.931 . S
C923 C922 1.385 . S
C923 C924 1.389 . S
C924 C923 1.389 . S
C924 C925 1.387 . S
C925 H910 0.930 . S
C925 C920 1.390 . S
C925 C924 1.387 . S
H926 C938 0.930 . S
H927 C940 0.930 . S
H928 C941 0.930 . S
H929 C945 0.959 . S
H930 C945 0.959 . S
H931 C945 0.961 . S
H932 C946 0.960 . S
H933 C946 0.961 . S
H934 C946 0.959 . S
H935 C949 0.929 . S
H936 C950 0.931 . S
H937 C952 0.930 . S
C938 H926 0.930 . S
C938 C939 1.399 . S
C938 C943 1.399 . S
C939 C938 1.399 . S
C939 C940 1.376 . S
C940 H927 0.930 . S
C940 C939 1.376 . S
C940 C941 1.388 . S
C941 H928 0.930 . S
C941 C940 1.388 . S
C941 C942 1.390 . S
C942 C941 1.390 . S
C942 C943 1.394 . S
C942 C948 1.465 . S
C943 C938 1.399 . S
C943 C942 1.394 . S
C943 C944 1.516 . S
C944 C943 1.516 . S
C944 C945 1.502 . S
C944 C946 1.561 . S
C944 C947 1.526 . S
C945 H929 0.959 . S
C945 H930 0.959 . S
C945 H931 0.961 . S
C945 C944 1.502 . S
C946 H932 0.960 . S
C946 H933 0.961 . S
C946 H934 0.959 . S
C946 C944 1.561 . S
C947 C944 1.526 . S
C947 C948 1.396 . S
C947 C952 1.390 . S
C948 C942 1.465 . S
C948 C947 1.396 . S
C948 C949 1.399 . S
C949 H935 0.929 . S
C949 C948 1.399 . S
C949 C950 1.385 . S
C950 H936 0.931 . S
C950 C949 1.385 . S
C950 C951 1.389 . S
C951 C950 1.389 . S
C951 C952 1.387 . S
C952 H937 0.930 . S
C952 C947 1.390 . S
C952 C951 1.387 . S
H953 C965 0.930 . S
H954 C967 0.930 . S
H955 C968 0.930 . S
H956 C972 0.959 . S
H957 C972 0.959 . S
H958 C972 0.961 . S
H959 C973 0.960 . S
H960 C973 0.961 . S
H961 C973 0.959 . S
H962 C976 0.929 . S
H963 C977 0.931 . S
H964 C979 0.930 . S
C965 H953 0.930 . S
C965 C966 1.399 . S
C965 C970 1.399 . S
C966 C965 1.399 . S
C966 C967 1.376 . S
C967 H954 0.930 . S
C967 C966 1.376 . S
C967 C968 1.388 . S
C968 H955 0.930 . S
C968 C967 1.388 . S
C968 C969 1.390 . S
C969 C968 1.390 . S
C969 C970 1.394 . S
C969 C975 1.465 . S
C970 C965 1.399 . S
C970 C969 1.394 . S
C970 C971 1.516 . S
C971 C970 1.516 . S
C971 C972 1.502 . S
C971 C973 1.561 . S
C971 C974 1.526 . S
C972 H956 0.959 . S
C972 H957 0.959 . S
C972 H958 0.961 . S
C972 C971 1.502 . S
C973 H959 0.960 . S
C973 H960 0.961 . S
C973 H961 0.959 . S
C973 C971 1.561 . S
C974 C971 1.526 . S
C974 C975 1.396 . S
C974 C979 1.390 . S
C975 C969 1.465 . S
C975 C974 1.396 . S
C975 C976 1.399 . S
C976 H962 0.929 . S
C976 C975 1.399 . S
C976 C977 1.385 . S
C977 H963 0.931 . S
C977 C976 1.385 . S
C977 C978 1.389 . S
C978 C977 1.389 . S
C978 C979 1.387 . S
C979 H964 0.930 . S
C979 C974 1.390 . S
C979 C978 1.387 . S
H980 C992 0.930 . S
H981 C994 0.930 . S
H982 C995 0.930 . S
H983 C999 0.959 . S
H984 C999 0.959 . S
H985 C999 0.961 . S
H986 C1000 0.960 . S
H987 C1000 0.961 . S
H988 C1000 0.959 . S
H989 C1003 0.929 . S
H990 C1004 0.931 . S
H991 C1006 0.930 . S
C992 H980 0.930 . S
C992 C993 1.399 . S
C992 C997 1.399 . S
C993 C992 1.399 . S
C993 C994 1.376 . S
C994 H981 0.930 . S
C994 C993 1.376 . S
C994 C995 1.388 . S
C995 H982 0.930 . S
C995 C994 1.388 . S
C995 C996 1.390 . S
C996 C995 1.390 . S
C996 C997 1.394 . S
C996 C1002 1.465 . S
C997 C992 1.399 . S
C997 C996 1.394 . S
C997 C998 1.516 . S
C998 C997 1.516 . S
C998 C999 1.502 . S
C998 C1000 1.561 . S
C998 C1001 1.526 . S
C999 H983 0.959 . S
C999 H984 0.959 . S
C999 H985 0.961 . S
C999 C998 1.502 . S
C1000 H986 0.960 . S
C1000 H987 0.961 . S
C1000 H988 0.959 . S
C1000 C998 1.561 . S
C1001 C998 1.526 . S
C1001 C1002 1.396 . S
C1001 C1006 1.390 . S
C1002 C996 1.465 . S
C1002 C1001 1.396 . S
C1002 C1003 1.399 . S
C1003 H989 0.929 . S
C1003 C1002 1.399 . S
C1003 C1004 1.385 . S
C1004 H990 0.931 . S
C1004 C1003 1.385 . S
C1004 C1005 1.389 . S
C1005 C1004 1.389 . S
C1005 C1006 1.387 . S
C1006 H991 0.930 . S
C1006 C1001 1.390 . S
C1006 C1005 1.387 . S
H1007 C1019 0.930 . S
H1008 C1021 0.930 . S
H1009 C1022 0.930 . S
H1010 C1026 0.959 . S
H1011 C1026 0.959 . S
H1012 C1026 0.961 . S
H1013 C1027 0.960 . S
H1014 C1027 0.961 . S
H1015 C1027 0.959 . S
H1016 C1030 0.929 . S
H1017 C1031 0.931 . S
H1018 C1033 0.930 . S
C1019 H1007 0.930 . S
C1019 C1020 1.399 . S
C1019 C1024 1.399 . S
C1020 C1019 1.399 . S
C1020 C1021 1.376 . S
C1021 H1008 0.930 . S
C1021 C1020 1.376 . S
C1021 C1022 1.388 . S
C1022 H1009 0.930 . S
C1022 C1021 1.388 . S
C1022 C1023 1.390 . S
C1023 C1022 1.390 . S
C1023 C1024 1.394 . S
C1023 C1029 1.465 . S
C1024 C1019 1.399 . S
C1024 C1023 1.394 . S
C1024 C1025 1.516 . S
C1025 C1024 1.516 . S
C1025 C1026 1.502 . S
C1025 C1027 1.561 . S
C1025 C1028 1.526 . S
C1026 H1010 0.959 . S
C1026 H1011 0.959 . S
C1026 H1012 0.961 . S
C1026 C1025 1.502 . S
C1027 H1013 0.960 . S
C1027 H1014 0.961 . S
C1027 H1015 0.959 . S
C1027 C1025 1.561 . S
C1028 C1025 1.526 . S
C1028 C1029 1.396 . S
C1028 C1033 1.390 . S
C1029 C1023 1.465 . S
C1029 C1028 1.396 . S
C1029 C1030 1.399 . S
C1030 H1016 0.929 . S
C1030 C1029 1.399 . S
C1030 C1031 1.385 . S
C1031 H1017 0.931 . S
C1031 C1030 1.385 . S
C1031 C1032 1.389 . S
C1032 C1031 1.389 . S
C1032 C1033 1.387 . S
C1033 H1018 0.930 . S
C1033 C1028 1.390 . S
C1033 C1032 1.387 . S
H1034 C1046 0.930 . S
H1035 C1048 0.930 . S
H1036 C1049 0.930 . S
H1037 C1053 0.959 . S
H1038 C1053 0.959 . S
H1039 C1053 0.961 . S
H1040 C1054 0.960 . S
H1041 C1054 0.961 . S
H1042 C1054 0.959 . S
H1043 C1057 0.929 . S
H1044 C1058 0.931 . S
H1045 C1060 0.930 . S
C1046 H1034 0.930 . S
C1046 C1047 1.399 . S
C1046 C1051 1.399 . S
C1047 C1046 1.399 . S
C1047 C1048 1.376 . S
C1048 H1035 0.930 . S
C1048 C1047 1.376 . S
C1048 C1049 1.388 . S
C1049 H1036 0.930 . S
C1049 C1048 1.388 . S
C1049 C1050 1.390 . S
C1050 C1049 1.390 . S
C1050 C1051 1.394 . S
C1050 C1056 1.465 . S
C1051 C1046 1.399 . S
C1051 C1050 1.394 . S
C1051 C1052 1.516 . S
C1052 C1051 1.516 . S
C1052 C1053 1.502 . S
C1052 C1054 1.561 . S
C1052 C1055 1.526 . S
C1053 H1037 0.959 . S
C1053 H1038 0.959 . S
C1053 H1039 0.961 . S
C1053 C1052 1.502 . S
C1054 H1040 0.960 . S
C1054 H1041 0.961 . S
C1054 H1042 0.959 . S
C1054 C1052 1.561 . S
C1055 C1052 1.526 . S
C1055 C1056 1.396 . S
C1055 C1060 1.390 . S
C1056 C1050 1.465 . S
C1056 C1055 1.396 . S
C1056 C1057 1.399 . S
C1057 H1043 0.929 . S
C1057 C1056 1.399 . S
C1057 C1058 1.385 . S
C1058 H1044 0.931 . S
C1058 C1057 1.385 . S
C1058 C1059 1.389 . S
C1059 C1058 1.389 . S
C1059 C1060 1.387 . S
C1060 H1045 0.930 . S
C1060 C1055 1.390 . S
C1060 C1059 1.387 . S
H1061 C1073 0.930 . S
H1062 C1075 0.930 . S
H1063 C1076 0.930 . S
H1064 C1080 0.959 . S
H1065 C1080 0.959 . S
H1066 C1080 0.961 . S
H1067 C1081 0.960 . S
H1068 C1081 0.961 . S
H1069 C1081 0.959 . S
H1070 C1084 0.929 . S
H1071 C1085 0.931 . S
H1072 C1087 0.930 . S
C1073 H1061 0.930 . S
C1073 C1074 1.399 . S
C1073 C1078 1.399 . S
C1074 C1073 1.399 . S
C1074 C1075 1.376 . S
C1075 H1062 0.930 . S
C1075 C1074 1.376 . S
C1075 C1076 1.388 . S
C1076 H1063 0.930 . S
C1076 C1075 1.388 . S
C1076 C1077 1.390 . S
C1077 C1076 1.390 . S
C1077 C1078 1.394 . S
C1077 C1083 1.465 . S
C1078 C1073 1.399 . S
C1078 C1077 1.394 . S
C1078 C1079 1.516 . S
C1079 C1078 1.516 . S
C1079 C1080 1.502 . S
C1079 C1081 1.561 . S
C1079 C1082 1.526 . S
C1080 H1064 0.959 . S
C1080 H1065 0.959 . S
C1080 H1066 0.961 . S
C1080 C1079 1.502 . S
C1081 H1067 0.960 . S
C1081 H1068 0.961 . S
C1081 H1069 0.959 . S
C1081 C1079 1.561 . S
C1082 C1079 1.526 . S
C1082 C1083 1.396 . S
C1082 C1087 1.390 . S
C1083 C1077 1.465 . S
C1083 C1082 1.396 . S
C1083 C1084 1.399 . S
C1084 H1070 0.929 . S
C1084 C1083 1.399 . S
C1084 C1085 1.385 . S
C1085 H1071 0.931 . S
C1085 C1084 1.385 . S
C1085 C1086 1.389 . S
C1086 C1085 1.389 . S
C1086 C1087 1.387 . S
C1087 H1072 0.930 . S
C1087 C1082 1.390 . S
C1087 C1086 1.387 . S
C237 C8 1.098 . S
C249 C64 1.110 . S
C264 C78 1.098 . S
C276 C22 1.079 . S
C291 C36 1.107 . S
C303 C92 1.088 . S
C318 C50 1.085 . S
C330 C106 1.072 . S
C345 C120 1.078 . S
C357 C176 1.073 . S
C372 C190 1.102 . S
C384 C134 1.094 . S
C399 C148 1.096 . S
C411 C204 1.103 . S
C426 C162 1.074 . S
C438 C218 1.080 . S
C453 C7 1.432 1_556 S
C465 C219 1.423 . S
C480 C177 1.458 . S
C492 C21 1.418 . S
C507 C35 1.461 1_556 S
C519 C191 1.451 . S
C534 C205 1.428 . S
C546 C49 1.394 . S
C561 C135 1.464 . S
C573 C63 1.467 1_554 S
C588 C149 1.455 . S
C600 C77 1.415 . S
C615 C163 1.414 . S
C627 C91 1.416 1_554 S
C642 C121 1.438 . S
C654 C105 1.451 . S
C669 C119 1.399 1_554 S
C681 C107 1.418 . S
C696 C65 1.410 . S
C708 C133 1.426 . S
C723 C79 1.435 . S
C735 C147 1.464 1_554 S
C750 C161 1.452 . S
C762 C93 1.422 . S
C777 C23 1.474 . S
C789 C175 1.432 . S
C804 C189 1.397 . S
C816 C37 1.456 . S
C831 C203 1.455 1_556 S
C843 C51 1.424 . S
C858 C217 1.465 . S
C870 C9 1.437 . S
C885 C101 1.079 . S
C897 C3 1.082 . S
C912 C17 1.079 . S
C924 C59 1.104 . S
C939 C31 1.139 . S
C951 C73 1.111 . S
C966 C45 1.076 . S
C978 C87 1.094 . S
C993 C213 1.105 . S
C1005 C115 1.116 . S
C1020 C171 1.090 . S
C1032 C129 1.083 . S
C1047 C185 1.106 . S
C1059 C143 1.117 . S
C1074 C199 1.089 . S
C1086 C157 1.083 . S
