# Generated by pormake.
# Topology qtz-e, (6)-cn, num edge types: 1
# Building blocks:
#     Node 0, Type 0, BuildingBlock: JUFBIX_clean_sbu_0, # of connection points: 6
#     Node 1, Type 0, BuildingBlock: JUFBIX_clean_sbu_0, # of connection points: 6
#     Node 2, Type 0, BuildingBlock: JUFBIX_clean_sbu_0, # of connection points: 6
#     Node 3, Type 0, BuildingBlock: JUFBIX_clean_sbu_0, # of connection points: 6
#     Node 4, Type 0, BuildingBlock: JUFBIX_clean_sbu_0, # of connection points: 6
#     Node 5, Type 0, BuildingBlock: JUFBIX_clean_sbu_0, # of connection points: 6
#     Edge 6, Type (0, 0), BuildingBlock: FUNLAD_clean_linker_0, # of connection points: 2
#     Edge 7, Type (0, 0), BuildingBlock: FUNLAD_clean_linker_0, # of connection points: 2
#     Edge 8, Type (0, 0), BuildingBlock: FUNLAD_clean_linker_0, # of connection points: 2
#     Edge 9, Type (0, 0), BuildingBlock: FUNLAD_clean_linker_0, # of connection points: 2
#     Edge 10, Type (0, 0), BuildingBlock: FUNLAD_clean_linker_0, # of connection points: 2
#     Edge 11, Type (0, 0), BuildingBlock: FUNLAD_clean_linker_0, # of connection points: 2
#     Edge 12, Type (0, 0), BuildingBlock: FUNLAD_clean_linker_0, # of connection points: 2
#     Edge 13, Type (0, 0), BuildingBlock: FUNLAD_clean_linker_0, # of connection points: 2
#     Edge 14, Type (0, 0), BuildingBlock: FUNLAD_clean_linker_0, # of connection points: 2
#     Edge 15, Type (0, 0), BuildingBlock: FUNLAD_clean_linker_0, # of connection points: 2
#     Edge 16, Type (0, 0), BuildingBlock: FUNLAD_clean_linker_0, # of connection points: 2
#     Edge 17, Type (0, 0), BuildingBlock: FUNLAD_clean_linker_0, # of connection points: 2
#     Edge 18, Type (0, 0), BuildingBlock: FUNLAD_clean_linker_0, # of connection points: 2
#     Edge 19, Type (0, 0), BuildingBlock: FUNLAD_clean_linker_0, # of connection points: 2
#     Edge 20, Type (0, 0), BuildingBlock: FUNLAD_clean_linker_0, # of connection points: 2
#     Edge 21, Type (0, 0), BuildingBlock: FUNLAD_clean_linker_0, # of connection points: 2
#     Edge 22, Type (0, 0), BuildingBlock: FUNLAD_clean_linker_0, # of connection points: 2
#     Edge 23, Type (0, 0), BuildingBlock: FUNLAD_clean_linker_0, # of connection points: 2
# Relax obj value: 0.641
# Max RMSD: 0.296
# Mean RMSD: 0.296
data_MOF--net-qtz-e--node1-JUFBIX_clean_sbu_0--edge1-FUNLAD_clean_linker_0
_symmetry_space_group_name_H-M    P1
_symmetry_Int_Tables_number       1
_symmetry_cell_setting            triclinic
loop_
_symmetry_equiv_pos_as_xyz
'x, y, z'
_cell_length_a     30.224295
_cell_length_b     30.200578
_cell_length_c     43.21814
_cell_angle_alpha  90.130595
_cell_angle_beta   89.846659
_cell_angle_gamma 120.11689
loop_
_atom_site_label
_atom_site_type_symbol
_atom_site_fract_x
_atom_site_fract_y
_atom_site_fract_z
_atom_type_partial_charge
Co0 Co 0.2149 0.41058 0.13383 0.0
C1 C 0.25913 0.35594 0.11172 0.0
Co2 Co 0.16826 0.35294 0.09887 0.0
C3 C 0.23949 0.46817 0.19014 0.0
C4 C 0.30602 0.49026 0.16231 0.0
N5 N 0.25495 0.45845 0.16301 0.0
N6 N 0.27883 0.50476 0.20654 0.0
C7 C 0.32082 0.51892 0.18904 0.0
H8 H 0.19989 0.44912 0.19748 0.0
H9 H 0.33087 0.49221 0.14366 0.0
C10 C 0.12673 0.41164 0.11937 0.0
N11 N 0.12872 0.30454 0.0696 0.0
C12 C 0.14435 0.29895 0.0414 0.0
C13 C 0.07981 0.266 0.07189 0.0
N14 N 0.10742 0.25846 0.02603 0.0
C15 C 0.06671 0.23725 0.04512 0.0
C16 C 0.14598 0.31661 0.15899 0.0
O17 O 0.16687 0.43293 0.13585 0.0
O18 O 0.11844 0.37385 0.10226 0.0
O19 O 0.1353 0.3039 0.1308 0.0
O20 O 0.17983 0.36224 0.16557 0.0
O21 O 0.21937 0.3337 0.09492 0.0
H22 H 0.05554 0.25881 0.0919 0.0
H23 H 0.18275 0.3232 0.03263 0.0
O24 O 0.26298 0.38892 0.13136 0.0
O25 O 0.24998 0.4589 0.10184 0.0
O26 O 0.2014 0.40213 0.06732 0.0
C27 C 0.23736 0.44686 0.07375 0.0
H28 H 0.35951 0.5475 0.19522 0.0
H29 H 0.03028 0.20353 0.04006 0.0
Co30 Co 0.75786 0.17164 0.36539 0.0
C31 C 0.70984 0.07567 0.39089 0.0
Co32 Co 0.80287 0.16418 0.40286 0.0
C33 C 0.74003 0.21249 0.31061 0.0
C34 C 0.66959 0.15969 0.33266 0.0
N35 N 0.72065 0.17938 0.33435 0.0
N36 N 0.70348 0.21559 0.29466 0.0
C37 C 0.65888 0.18191 0.30817 0.0
H38 H 0.78059 0.23577 0.30599 0.0
H39 H 0.64226 0.1333 0.34925 0.0
C40 C 0.84805 0.26168 0.37845 0.0
N41 N 0.83987 0.15693 0.43443 0.0
C42 C 0.83939 0.11383 0.44308 0.0
C43 C 0.86786 0.19184 0.45616 0.0
N44 N 0.86489 0.11987 0.46984 0.0
C45 C 0.88325 0.16925 0.47792 0.0
C46 C 0.82612 0.14282 0.34464 0.0
O47 O 0.80835 0.24136 0.36173 0.0
O48 O 0.85493 0.23409 0.39779 0.0
O49 O 0.83606 0.14386 0.37331 0.0
O50 O 0.79258 0.15381 0.33607 0.0
O51 O 0.74894 0.09456 0.40835 0.0
H52 H 0.87408 0.23034 0.45717 0.0
H53 H 0.81864 0.07812 0.43059 0.0
O54 O 0.70751 0.10281 0.36936 0.0
O55 O 0.72331 0.18987 0.39509 0.0
O56 O 0.77026 0.18482 0.43191 0.0
C57 C 0.7357 0.1943 0.42346 0.0
H58 H 0.62171 0.17646 0.30221 0.0
H59 H 0.90315 0.18702 0.49917 0.0
Co60 Co 0.57925 0.8021 0.79926 0.0
C61 C 0.62982 0.90019 0.77506 0.0
Co62 Co 0.63343 0.81256 0.76201 0.0
C63 C 0.521 0.7637 0.85513 0.0
C64 C 0.50376 0.81568 0.83186 0.0
N65 N 0.53357 0.79427 0.83013 0.0
N66 N 0.4842 0.76471 0.87233 0.0
C67 C 0.47341 0.79764 0.85784 0.0
H68 H 0.53827 0.74072 0.8604 0.0
H69 H 0.50324 0.84172 0.81491 0.0
C70 C 0.57815 0.7129 0.78423 0.0
N71 N 0.679 0.81999 0.73119 0.0
C72 C 0.68468 0.84201 0.70329 0.0
C73 C 0.71332 0.80387 0.73152 0.0
N74 N 0.72116 0.84031 0.6861 0.0
C75 C 0.73944 0.81648 0.70384 0.0
C76 C 0.67577 0.82985 0.82057 0.0
O77 O 0.55814 0.73182 0.80175 0.0
O78 O 0.61392 0.74227 0.76594 0.0
O79 O 0.6853 0.83089 0.79188 0.0
O80 O 0.63086 0.81774 0.82922 0.0
O81 O 0.65114 0.88247 0.75752 0.0
H82 H 0.71877 0.78401 0.75062 0.0
H83 H 0.66279 0.85951 0.69592 0.0
O84 O 0.59951 0.8718 0.79607 0.0
O85 O 0.52783 0.78627 0.76909 0.0
O86 O 0.58155 0.79414 0.73243 0.0
C87 C 0.53721 0.78437 0.7406 0.0
H88 H 0.44434 0.80656 0.86484 0.0
H89 H 0.769 0.80809 0.69716 0.0
Co90 Co 0.79535 0.58296 0.03934 0.0
C91 C 0.89245 0.62982 0.06411 0.0
Co92 Co 0.80498 0.63349 0.07864 0.0
C93 C 0.75261 0.52543 0.98388 0.0
C94 C 0.80742 0.50891 0.00382 0.0
N95 N 0.78656 0.53902 0.00715 0.0
N96 N 0.75049 0.48728 0.96651 0.0
C97 C 0.78536 0.47708 0.97877 0.0
H98 H 0.72857 0.54207 0.98039 0.0
H99 H 0.83495 0.5083 0.01951 0.0
C100 C 0.7063 0.58185 0.05563 0.0
N101 N 0.81305 0.67718 0.1108 0.0
C102 C 0.83662 0.68243 0.1381 0.0
C103 C 0.79762 0.71205 0.11151 0.0
N104 N 0.83685 0.71945 0.15576 0.0
C105 C 0.81242 0.73828 0.13909 0.0
C106 C 0.82402 0.68088 0.02121 0.0
O107 O 0.72558 0.56353 0.03714 0.0
O108 O 0.73513 0.61544 0.07516 0.0
O109 O 0.82429 0.68788 0.0502 0.0
O110 O 0.81224 0.6368 0.01105 0.0
O111 O 0.87457 0.64977 0.08264 0.0
H112 H 0.77741 0.71836 0.09298 0.0
H113 H 0.85453 0.66046 0.14451 0.0
O114 O 0.8645 0.60159 0.04226 0.0
O115 O 0.77807 0.5291 0.06775 0.0
O116 O 0.78532 0.57894 0.1067 0.0
C117 C 0.77501 0.53528 0.09658 0.0
H118 H 0.79224 0.4468 0.97136 0.0
H119 H 0.80574 0.76879 0.14632 0.0
Co120 Co 0.1766 0.75084 0.47198 0.0
C121 C 0.0812 0.70503 0.4455 0.0
Co122 Co 0.17035 0.79777 0.43508 0.0
C123 C 0.20796 0.72931 0.52916 0.0
C124 C 0.1637 0.66069 0.50304 0.0
N125 N 0.18175 0.71157 0.50261 0.0
N126 N 0.20797 0.69187 0.54606 0.0
C127 C 0.1798 0.64842 0.52981 0.0
H128 H 0.22759 0.76935 0.53558 0.0
H129 H 0.14171 0.63456 0.48464 0.0
C130 C 0.26738 0.84031 0.4609 0.0
N131 N 0.16525 0.83774 0.4039 0.0
C132 C 0.12239 0.83054 0.38967 0.0
C133 C 0.20362 0.87858 0.38938 0.0
N134 N 0.13239 0.86469 0.36677 0.0
C135 C 0.18362 0.89517 0.36667 0.0
C136 C 0.14799 0.8192 0.49346 0.0
O137 O 0.24641 0.79985 0.477 0.0
O138 O 0.24037 0.84842 0.44178 0.0
O139 O 0.14952 0.82996 0.4649 0.0
O140 O 0.15857 0.7852 0.50167 0.0
O141 O 0.10077 0.74465 0.42846 0.0
H142 H 0.24387 0.89476 0.39422 0.0
H143 H 0.08455 0.79945 0.39509 0.0
O144 O 0.10772 0.70163 0.46698 0.0
O145 O 0.19504 0.71701 0.44167 0.0
O146 O 0.19149 0.76628 0.40568 0.0
C147 C 0.20034 0.73097 0.41351 0.0
H148 H 0.17339 0.61095 0.53604 0.0
H149 H 0.2054 0.92661 0.35094 0.0
Co150 Co 0.41083 0.21994 0.69685 0.0
C151 C 0.35826 0.26641 0.71889 0.0
Co152 Co 0.35562 0.17594 0.73355 0.0
C153 C 0.46693 0.24134 0.64 0.0
C154 C 0.48888 0.30934 0.66634 0.0
N155 N 0.45734 0.25817 0.66664 0.0
N156 N 0.5033 0.27994 0.62301 0.0
C157 C 0.51731 0.32285 0.63955 0.0
H158 H 0.44823 0.20132 0.63354 0.0
H159 H 0.49105 0.33513 0.68447 0.0
C160 C 0.41275 0.13267 0.71329 0.0
N161 N 0.30852 0.13849 0.76391 0.0
C162 C 0.29646 0.15783 0.7885 0.0
C163 C 0.27561 0.08763 0.76505 0.0
N164 N 0.25663 0.12141 0.80472 0.0
C165 C 0.24364 0.07698 0.79019 0.0
C166 C 0.31593 0.14935 0.67416 0.0
O167 O 0.43252 0.17113 0.69534 0.0
O168 O 0.37656 0.12613 0.73128 0.0
O169 O 0.30508 0.14029 0.70272 0.0
O170 O 0.36082 0.18341 0.66634 0.0
O171 O 0.33644 0.22729 0.73623 0.0
H172 H 0.27371 0.06039 0.74805 0.0
H173 H 0.31605 0.19825 0.79396 0.0
O174 O 0.39016 0.26902 0.69887 0.0
O175 O 0.46074 0.25617 0.72752 0.0
O176 O 0.40624 0.21142 0.76412 0.0
C177 C 0.45079 0.24603 0.75605 0.0
H178 H 0.54586 0.36124 0.63276 0.0
H179 H 0.2119 0.03981 0.79638 0.0
C180 C 0.22412 0.66578 0.3974 0.0
C181 C 0.21768 0.70748 0.39 0.0
C182 C 0.24061 0.64395 0.37487 0.0
C183 C 0.25088 0.66352 0.34453 0.0
C184 C 0.24541 0.70579 0.33743 0.0
C185 C 0.22872 0.72737 0.35982 0.0
C186 C 0.26722 0.64119 0.31954 0.0
C187 C 0.25491 0.59175 0.31882 0.0
C188 C 0.26492 0.56878 0.29127 0.0
C189 C 0.2306 0.51736 0.28414 0.0
C190 C 0.23583 0.49597 0.25669 0.0
C191 C 0.27586 0.52551 0.23597 0.0
H192 H 0.33481 0.63685 0.27669 0.0
C193 C 0.31188 0.57616 0.24396 0.0
C194 C 0.30658 0.59758 0.27138 0.0
H195 H 0.34324 0.59986 0.22859 0.0
H196 H 0.21639 0.64997 0.42056 0.0
H197 H 0.24577 0.61228 0.38142 0.0
H198 H 0.25338 0.7218 0.31431 0.0
H199 H 0.22459 0.75977 0.35341 0.0
H200 H 0.28577 0.66532 0.29957 0.0
H201 H 0.23191 0.56609 0.33728 0.0
H202 H 0.19862 0.49416 0.29931 0.0
H203 H 0.2082 0.45643 0.25157 0.0
C204 C 0.5756 0.31102 0.58644 0.0
C205 C 0.52471 0.2755 0.59422 0.0
C206 C 0.59776 0.30425 0.55984 0.0
C207 C 0.56946 0.2616 0.54056 0.0
C208 C 0.51783 0.22773 0.54737 0.0
C209 C 0.49569 0.23441 0.57405 0.0
C210 C 0.59326 0.25027 0.51403 0.0
C211 C 0.6424 0.26176 0.51459 0.0
C212 C 0.66559 0.24491 0.49045 0.0
C213 C 0.7067 0.23826 0.49873 0.0
C214 C 0.72914 0.22141 0.477 0.0
C215 C 0.71126 0.21144 0.44638 0.0
H216 H 0.61734 0.24172 0.45228 0.0
C217 C 0.67067 0.21896 0.43786 0.0
C218 C 0.64802 0.2356 0.4597 0.0
H219 H 0.65643 0.21207 0.41434 0.0
H220 H 0.59892 0.34313 0.60143 0.0
H221 H 0.63721 0.33209 0.55468 0.0
H222 H 0.49505 0.19499 0.53262 0.0
H223 H 0.45604 0.20709 0.57905 0.0
H224 H 0.56839 0.22719 0.49533 0.0
H225 H 0.66551 0.28024 0.53491 0.0
H226 H 0.72115 0.24551 0.52221 0.0
H227 H 0.76065 0.21641 0.48424 0.0
C228 C 0.30427 0.53375 0.0555 0.0
C229 C 0.26511 0.48374 0.04869 0.0
C230 C 0.3317 0.56789 0.03168 0.0
C231 C 0.32032 0.55263 0.00055 0.0
C232 C 0.28121 0.50268 0.99383 0.0
C233 C 0.25369 0.46865 0.0176 0.0
C234 C 0.34995 0.5866 0.97451 0.0
C235 C 0.3757 0.63806 0.97627 0.0
C236 C 0.405 0.67081 0.94972 0.0
C237 C 0.41025 0.71945 0.94659 0.0
C238 C 0.43652 0.75049 0.92133 0.0
C239 C 0.4587 0.73371 0.89896 0.0
H240 H 0.42649 0.61799 0.92994 0.0
C241 C 0.45468 0.68561 0.90263 0.0
C242 C 0.42828 0.65456 0.92776 0.0
H243 H 0.47104 0.67138 0.88577 0.0
H244 H 0.31423 0.54637 0.07925 0.0
H245 H 0.36254 0.60557 0.03783 0.0
H246 H 0.27196 0.48982 0.97007 0.0
H247 H 0.22391 0.43029 0.01155 0.0
H248 H 0.34858 0.56823 0.95261 0.0
H249 H 0.3731 0.65697 -0.00298 0.0
H250 H 0.39326 0.73312 0.96344 0.0
H251 H 0.43964 0.78767 0.91936 0.0
C252 C 0.67471 0.24433 0.24948 0.0
C253 C 0.71158 0.25395 0.2722 0.0
C254 C 0.68209 0.28259 0.22847 0.0
C255 C 0.72653 0.33115 0.22998 0.0
C256 C 0.76298 0.34072 0.25288 0.0
C257 C 0.75577 0.30255 0.27366 0.0
C258 C 0.73578 0.37343 0.20888 0.0
C259 C 0.71619 0.36618 0.18022 0.0
C260 C 0.7294 0.40955 0.15906 0.0
C261 C 0.73143 0.40242 0.12714 0.0
C262 C 0.74632 0.44331 0.10677 0.0
C263 C 0.75891 0.49196 0.11801 0.0
H264 H 0.73764 0.46427 0.1946 0.0
C265 C 0.75538 0.49871 0.14988 0.0
C266 C 0.74056 0.45787 0.17021 0.0
H267 H 0.76412 0.53556 0.15919 0.0
H268 H 0.64023 0.20728 0.24801 0.0
H269 H 0.6525 0.27428 0.21162 0.0
H270 H 0.79725 0.37795 0.25474 0.0
H271 H 0.7843 0.31165 0.29139 0.0
H272 H 0.76278 0.41202 0.21662 0.0
H273 H 0.69338 0.32767 0.17106 0.0
H274 H 0.72253 0.36541 0.118 0.0
H275 H 0.74821 0.4368 0.08227 0.0
C276 C 0.44724 0.75759 0.72571 0.0
C277 C 0.49746 0.77171 0.71705 0.0
C278 C 0.41016 0.74694 0.70317 0.0
C279 C 0.42281 0.75025 0.67158 0.0
C280 C 0.47293 0.76423 0.66304 0.0
C281 C 0.50983 0.77458 0.6855 0.0
C282 C 0.38603 0.74281 0.64684 0.0
C283 C 0.33491 0.71485 0.65005 0.0
C284 C 0.30048 0.71008 0.6244 0.0
C285 C 0.25457 0.66392 0.61983 0.0
C286 C 0.22356 0.65799 0.59437 0.0
C287 C 0.23775 0.69846 0.57338 0.0
H288 H 0.34783 0.78784 0.6076 0.0
C289 C 0.28271 0.74529 0.57886 0.0
C290 C 0.31352 0.75114 0.60414 0.0
H291 H 0.29514 0.77721 0.56315 0.0
H292 H 0.43668 0.75529 0.74987 0.0
H293 H 0.37224 0.73762 0.7106 0.0
H294 H 0.48371 0.76744 0.63886 0.0
H295 H 0.54825 0.78552 0.67806 0.0
H296 H 0.40212 0.76 0.62452 0.0
H297 H 0.31802 0.69293 0.67099 0.0
H298 H 0.24343 0.632 0.63545 0.0
H299 H 0.18873 0.62174 0.591 0.0
C300 C 0.72473 0.43337 0.91953 0.0
C301 C 0.71351 0.45861 0.94292 0.0
C302 C 0.68805 0.4041 0.89728 0.0
C303 C 0.63939 0.39965 0.89803 0.0
C304 C 0.62815 0.42451 0.92157 0.0
C305 C 0.66481 0.45384 0.94368 0.0
C306 C 0.59879 0.36821 0.87541 0.0
C307 C 0.60847 0.35782 0.84673 0.0
C308 C 0.5674 0.32814 0.82398 0.0
C309 C 0.57852 0.33739 0.79234 0.0
C310 C 0.54058 0.31084 0.77027 0.0
C311 C 0.49083 0.27401 0.77944 0.0
H312 H 0.50826 0.28117 0.85731 0.0
C313 C 0.4799 0.26394 0.81109 0.0
C314 C 0.51783 0.2906 0.83317 0.0
H315 H 0.44207 0.2354 0.81887 0.0
H316 H 0.76187 0.43626 0.91844 0.0
H317 H 0.6977 0.3843 0.88003 0.0
H318 H 0.59081 0.42123 0.92289 0.0
H319 H 0.65444 0.47175 0.9618 0.0
H320 H 0.55964 0.35586 0.88214 0.0
H321 H 0.64773 0.37435 0.83879 0.0
H322 H 0.61651 0.36576 0.78467 0.0
H323 H 0.55032 0.31926 0.74603 0.0
C324 C 0.34634 0.37422 0.12514 0.0
C325 C 0.30564 0.35403 0.10397 0.0
C326 C 0.39607 0.39122 0.11499 0.0
C327 C 0.40588 0.38826 0.0835 0.0
C328 C 0.36466 0.36185 0.06315 0.0
C329 C 0.31464 0.3449 0.0733 0.0
C330 C 0.45872 0.41718 0.07129 0.0
C331 C 0.49044 0.46573 0.08064 0.0
C332 C 0.5445 0.49824 0.07069 0.0
C333 C 0.57572 0.54295 0.08771 0.0
C334 C 0.62797 0.57236 0.08148 0.0
C335 C 0.65012 0.55778 0.05792 0.0
H336 H 0.54324 0.4526 0.03127 0.0
C337 C 0.61832 0.51515 0.03939 0.0
C338 C 0.56602 0.48562 0.04569 0.0
H339 H 0.63416 0.50313 0.02085 0.0
H340 H 0.34039 0.38104 0.14901 0.0
H341 H 0.42718 0.40975 0.13139 0.0
H342 H 0.37144 0.35836 0.03887 0.0
H343 H 0.28397 0.32941 0.05647 0.0
H344 H 0.46999 0.39918 0.05366 0.0
H345 H 0.4763 0.4825 0.0975 0.0
H346 H 0.56007 0.55411 0.10679 0.0
H347 H 0.65133 0.60508 0.0961 0.0
C348 C 0.0216 0.6453 0.40568 0.0
C349 C 0.03332 0.65846 0.43698 0.0
C350 C 0.98788 0.59441 0.39726 0.0
C351 C 0.96525 0.55623 0.42014 0.0
C352 C 0.97236 0.57089 0.45138 0.0
C353 C 0.0064 0.62143 0.45975 0.0
C354 C 0.93821 0.50062 0.413 0.0
C355 C 0.94563 0.48064 0.38694 0.0
C356 C 0.92525 0.42489 0.38376 0.0
C357 C 0.90268 0.40016 0.35589 0.0
C358 C 0.87985 0.34696 0.3535 0.0
C359 C 0.88059 0.31791 0.37869 0.0
H360 H 0.94701 0.41467 0.42984 0.0
C361 C 0.90651 0.34321 0.4058 0.0
C362 C 0.92835 0.39621 0.40839 0.0
H363 H 0.90754 0.32184 0.42561 0.0
H364 H 0.04189 0.6732 0.38766 0.0
H365 H 0.98171 0.58497 0.37292 0.0
H366 H 0.95468 0.5425 0.4695 0.0
H367 H 0.01463 0.63069 0.48407 0.0
H368 H 0.91514 0.47465 0.43138 0.0
H369 H 0.96757 0.50493 0.36776 0.0
H370 H 0.90069 0.42169 0.33645 0.0
H371 H 0.86016 0.32838 0.3323 0.0
C372 C 0.48268 0.11383 0.70094 0.0
C373 C 0.43683 0.10069 0.71659 0.0
C374 C 0.51049 0.08962 0.70813 0.0
C375 C 0.49287 0.05154 0.73114 0.0
C376 C 0.44553 0.03649 0.74539 0.0
C377 C 0.41787 0.06077 0.73828 0.0
C378 C 0.5226 0.02745 0.74202 0.0
C379 C 0.57052 0.04078 0.73302 0.0
C380 C 0.59653 0.01425 0.74579 0.0
C381 C 0.62435 8e-05 0.7261 0.0
C382 C 0.64064 0.96673 0.73657 0.0
C383 C 0.62959 0.94758 0.76698 0.0
H384 H 0.57135 0.01191 0.79312 0.0
C385 C 0.60716 0.96676 0.78755 0.0
C386 C 0.59079 -0.00022 0.77707 0.0
H387 H 0.59879 0.95332 0.81124 0.0
H388 H 0.4983 0.14437 0.684 0.0
H389 H 0.54611 0.10197 0.69604 0.0
H390 H 0.43057 0.0069 0.76295 0.0
H391 H 0.38263 0.04957 0.75071 0.0
H392 H 0.50377 0.9969 0.75893 0.0
H393 H 0.59006 0.06894 0.71503 0.0
H394 H 0.63009 0.01165 0.70204 0.0
H395 H 0.65789 0.95269 0.72016 0.0
C396 C 0.50833 0.62419 0.79705 0.0
C397 C 0.55418 0.65672 0.78131 0.0
C398 C 0.47995 0.57213 0.78967 0.0
C399 C 0.49699 0.55156 0.76636 0.0
C400 C 0.54456 0.58349 0.75226 0.0
C401 C 0.5728 0.63547 0.75955 0.0
C402 C 0.4664 0.49794 0.75508 0.0
C403 C 0.41689 0.46517 0.76205 0.0
C404 C 0.39012 0.41302 0.74856 0.0
C405 C 0.39778 0.40505 0.71745 0.0
C406 C 0.3815 0.35578 0.70657 0.0
C407 C 0.35741 0.31362 0.72662 0.0
H408 H 0.35308 0.37588 0.79141 0.0
C409 C 0.34412 0.32102 0.75665 0.0
C410 C 0.36028 0.37056 0.7675 0.0
H411 H 0.32542 0.28926 0.77263 0.0
H412 H 0.49308 0.63933 0.81412 0.0
H413 H 0.44438 0.54886 0.80184 0.0
H414 H 0.55911 0.56864 0.73455 0.0
H415 H 0.60806 0.65938 0.74709 0.0
H416 H 0.48571 0.48503 0.73928 0.0
H417 H 0.39634 0.47504 0.77868 0.0
H418 H 0.41898 0.43715 0.70199 0.0
H419 H 0.39158 0.35125 0.68316 0.0
C420 C 0.10783 0.48117 0.13268 0.0
C421 C 0.09448 0.4355 0.11672 0.0
C422 C 0.08326 0.50886 0.12621 0.0
C423 C 0.04461 0.49133 0.1036 0.0
C424 C 0.0294 0.44417 0.08903 0.0
C425 C 0.05403 0.41658 0.09545 0.0
C426 C 0.02012 0.52109 0.09348 0.0
C427 C 0.03317 0.56865 0.10318 0.0
C428 C 0.00629 0.59483 0.09126 0.0
C429 C 0.99247 0.62212 0.11163 0.0
C430 C 0.95907 0.63881 0.10193 0.0
C431 C 0.93955 0.62872 0.07162 0.0
H432 H 0.00322 0.57097 0.04355 0.0
C433 C 0.95831 0.60676 0.05039 0.0
C434 C 0.99135 0.58996 0.06011 0.0
H435 H 0.94462 0.59916 0.02674 0.0
H436 H 0.13873 0.49672 0.14935 0.0
H437 H 0.09581 0.54433 0.13853 0.0
H438 H -0.00061 0.4293 0.07176 0.0
H439 H 0.04271 0.3815 0.08278 0.0
H440 H 0.98947 0.5026 0.07663 0.0
H441 H 0.06138 0.58775 0.12118 0.0
H442 H 0.00442 0.62722 0.13561 0.0
H443 H 0.94542 0.65574 0.11883 0.0
C444 C 0.349 0.90116 0.43445 0.0
C445 C 0.32367 0.87239 0.46081 0.0
C446 C 0.40187 0.92294 0.43147 0.0
C447 C 0.43049 0.91689 0.45497 0.0
C448 C 0.40583 0.89145 0.48228 0.0
C449 C 0.35269 0.86872 0.48503 0.0
C450 C 0.48607 0.93711 0.4511 0.0
C451 C 0.50541 0.93215 0.42404 0.0
C452 C 0.5608 0.9595 0.41633 0.0
C453 C 0.57465 0.96853 0.38499 0.0
C454 C 0.62503 0.00272 0.37642 0.0
C455 C 0.66275 0.02794 0.39907 0.0
H456 H 0.59079 0.9729 0.46326 0.0
C457 C 0.65029 0.01441 0.43028 0.0
C458 C 0.59957 0.98052 0.43891 0.0
H459 H 0.67871 0.03327 0.44822 0.0
H460 H 0.32775 0.90459 0.41537 0.0
H461 H 0.42027 0.94385 0.41055 0.0
H462 H 0.42734 0.88716 0.50089 0.0
H463 H 0.33414 0.84684 0.50566 0.0
H464 H 0.51073 0.95694 0.47058 0.0
H465 H 0.47897 0.91095 0.40542 0.0
H466 H 0.54579 0.95214 0.36706 0.0
H467 H 0.63369 0.01226 0.35217 0.0
C468 C 0.23327 0.17692 0.83406 0.0
C469 C 0.23066 0.12945 0.83025 0.0
C470 C 0.20883 0.18536 0.85882 0.0
C471 C 0.18035 0.1462 0.88031 0.0
C472 C 0.17765 0.09869 0.87655 0.0
C473 C 0.20232 0.09027 0.85169 0.0
C474 C 0.15633 0.15494 0.90797 0.0
C475 C 0.14527 0.19289 0.90974 0.0
C476 C 0.13087 0.20781 0.93906 0.0
C477 C 0.149 0.25994 0.94444 0.0
C478 C 0.14037 0.27638 0.9728 0.0
C479 C 0.11232 0.24085 -0.00395 0.0
H480 H 0.08571 0.13133 0.95814 0.0
C481 C 0.09174 0.18839 0.99017 0.0
C482 C 0.10124 0.17192 0.96193 0.0
H483 H 0.06998 0.16037 0.00782 0.0
H484 H 0.25412 0.20783 0.81784 0.0
H485 H 0.21372 0.22319 0.86125 0.0
H486 H 0.15664 0.06808 0.89299 0.0
H487 H 0.19997 0.05343 0.84961 0.0
H488 H 0.14988 0.1307 0.92798 0.0
H489 H 0.15133 0.2172 0.88988 0.0
H490 H 0.17155 0.28825 0.92707 0.0
H491 H 0.15604 0.31696 0.97675 0.0
C492 C 0.84489 0.13258 0.28966 0.0
C493 C 0.85717 0.13497 0.32118 0.0
C494 C 0.87908 0.13514 0.26703 0.0
C495 C 0.92645 0.14077 0.27541 0.0
C496 C 0.93675 0.13842 0.30692 0.0
C497 C 0.90236 0.13559 0.32962 0.0
C498 C 0.96571 0.15456 0.2509 0.0
C499 C 0.01596 0.18609 0.25629 0.0
C500 C 0.05319 0.2149 0.23128 0.0
C501 C 0.0953 0.26298 0.23845 0.0
C502 C 0.12677 0.29526 0.21505 0.0
C503 C 0.11697 0.27991 0.18393 0.0
H504 H 0.01473 0.16044 0.19399 0.0
C505 C 0.07709 0.23033 0.17688 0.0
C506 C 0.04558 0.198 0.20034 0.0
H507 H 0.06912 0.21705 0.15315 0.0
H508 H 0.81 0.13134 0.28239 0.0
H509 H 0.86986 0.13612 0.24292 0.0
H510 H 0.97207 0.14069 0.31419 0.0
H511 H 0.91253 0.13668 0.35374 0.0
H512 H 0.95196 0.14606 0.22724 0.0
H513 H 0.02892 0.19791 0.27987 0.0
H514 H 0.10242 0.27679 0.26211 0.0
H515 H 0.15756 0.333 0.22131 0.0
C516 C 0.78775 0.87773 0.64548 0.0
C517 C 0.73737 0.86051 0.65541 0.0
C518 C 0.80421 0.90029 0.61636 0.0
C519 C 0.77047 0.90612 0.59666 0.0
C520 C 0.71957 0.88674 0.6061 0.0
C521 C 0.70324 0.86441 0.63516 0.0
C522 C 0.78674 0.93374 0.56671 0.0
C523 C 0.83533 0.96989 0.56019 0.0
C524 C 0.84814 0.00536 0.5336 0.0
C525 C 0.88934 0.05553 0.53634 0.0
C526 C 0.89689 0.09255 0.51436 0.0
C527 C 0.86331 0.0801 0.48914 0.0
H528 H 0.7871 0.95275 0.50313 0.0
C529 C 0.82502 0.02864 0.48497 0.0
C530 C 0.81775 0.99163 0.50682 0.0
H531 H 0.79867 0.01698 0.46577 0.0
H532 H 0.8149 0.87509 0.66052 0.0
H533 H 0.84331 0.91329 0.60958 0.0
H534 H 0.69257 0.89013 0.59127 0.0
H535 H 0.66387 0.8504 0.64182 0.0
H536 H 0.7563 0.92841 0.55115 0.0
H537 H 0.86538 0.97868 0.57691 0.0
H538 H 0.91407 0.06689 0.55642 0.0
H539 H 0.92785 0.13132 0.51784 0.0
C540 C 0.70378 0.8327 0.87525 0.0
C541 C 0.71512 0.83749 0.8435 0.0
C542 C 0.73761 0.83122 0.89657 0.0
C543 C 0.7837 0.83479 0.88655 0.0
C544 C 0.79637 0.84284 0.85502 0.0
C545 C 0.76258 0.84442 0.8337 0.0
C546 C 0.81464 0.8217 0.90719 0.0
C547 C 0.81136 0.82147 0.93823 0.0
C548 C 0.82618 0.79127 0.95834 0.0
C549 C 0.8309 0.80095 0.99028 0.0
C550 C 0.83378 0.76674 0.01073 0.0
C551 C 0.83137 0.72181 -0.00042 0.0
H552 H 0.82267 0.73832 0.92277 0.0
C553 C 0.83007 0.7138 0.96752 0.0
C554 C 0.8274 0.74806 0.94709 0.0
H555 H 0.82827 0.67959 0.95822 0.0
H556 H 0.66755 0.82734 0.88352 0.0
H557 H 0.72558 0.82379 0.9205 0.0
H558 H 0.83141 0.8454 0.84663 0.0
H559 H 0.77259 0.84843 0.80937 0.0
H560 H 0.83747 0.80754 0.89618 0.0
H561 H 0.79305 0.84036 0.94941 0.0
H562 H 0.82974 0.8337 -0.00042 0.0
H563 H 0.83491 0.77409 0.03534 0.0
C564 C 0.04368 0.83802 0.35129 0.0
C565 C 0.09635 0.86367 0.34454 0.0
C566 C 0.00815 0.83076 0.32839 0.0
C567 C 0.02462 0.84928 0.29829 0.0
C568 C 0.07718 0.87822 0.29213 0.0
C569 C 0.11273 0.88507 0.31493 0.0
C570 C 0.98813 0.83642 0.27241 0.0
C571 C 0.94527 0.79037 0.27027 0.0
C572 C 0.91417 0.77263 0.2417 0.0
C573 C 0.89011 0.72049 0.23402 0.0
C574 C 0.86412 0.70291 0.20602 0.0
C575 C 0.86092 0.73704 0.1854 0.0
H576 H 0.92645 0.8468 0.22722 0.0
C577 C 0.88295 0.78886 0.19373 0.0
C578 C 0.90946 0.80657 0.2216 0.0
H579 H 0.88105 0.816 0.17827 0.0
H580 H 0.02968 0.82255 0.37409 0.0
H581 H 0.96783 0.80986 0.33415 0.0
H582 H 0.09078 0.89331 0.26915 0.0
H583 H 0.15282 0.90507 0.30875 0.0
H584 H 0.00032 0.8625 0.25286 0.0
H585 H 0.93615 0.76231 0.28849 0.0
H586 H 0.89279 0.69351 0.24928 0.0
H587 H 0.84672 0.66264 0.20041 0.0
C588 C 0.29125 0.12702 0.61875 0.0
C589 C 0.27832 0.11771 0.65025 0.0
C590 C 0.25899 0.09302 0.59625 0.0
C591 C 0.2134 0.04877 0.60471 0.0
C592 C 0.19857 0.04142 0.63604 0.0
C593 C 0.23084 0.07555 0.6586 0.0
C594 C 0.18526 0.00951 0.58054 0.0
C595 C 0.15788 0.95902 0.58682 0.0
C596 C 0.14495 0.91927 0.56269 0.0
C597 C 0.13948 0.92768 0.53126 0.0
C598 C 0.1372 0.89334 0.5087 0.0
C599 C 0.14008 0.84994 0.51716 0.0
H600 H 0.14648 0.86574 0.5953 0.0
C601 C 0.1409 0.83933 0.54873 0.0
C602 C 0.14305 0.87355 0.57124 0.0
H603 H 0.14248 0.80587 0.55606 0.0
H604 H 0.32728 0.15949 0.61149 0.0
H605 H 0.27111 0.09998 0.57226 0.0
H606 H 0.1628 0.0088 0.64337 0.0
H607 H 0.21942 0.06776 0.68266 0.0
H608 H 0.19447 0.02199 0.55667 0.0
H609 H 0.1523 0.94625 0.6107 0.0
H610 H 0.13873 0.96151 0.52388 0.0
H611 H 0.13569 0.90216 0.48458 0.0
loop_
_geom_bond_atom_site_label_1
_geom_bond_atom_site_label_2
_geom_bond_distance
_geom_bond_site_symmetry_2
_ccdc_geom_bond_type
Co0 N5 2.057 . S
Co0 O17 2.021 . S
Co0 O20 2.062 . S
Co0 O24 2.117 . S
Co0 O25 2.020 . S
C1 O21 1.259 . S
C1 O24 1.258 . S
Co2 N11 2.057 . S
Co2 O18 2.117 . S
Co2 O19 2.020 . S
Co2 O21 2.021 . S
Co2 O26 2.062 . S
C3 N5 1.316 . S
C3 N6 1.347 . S
C3 H8 0.931 . S
C4 N5 1.375 . S
C4 C7 1.350 . S
C4 H9 0.930 . S
N5 Co0 2.057 . S
N5 C3 1.316 . S
N5 C4 1.375 . S
N6 C3 1.347 . S
N6 C7 1.373 . S
C7 C4 1.350 . S
C7 N6 1.373 . S
C7 H28 0.931 . S
H8 C3 0.931 . S
H9 C4 0.930 . S
C10 O17 1.259 . S
C10 O18 1.258 . S
N11 Co2 2.057 . S
N11 C12 1.316 . S
N11 C13 1.375 . S
C12 N11 1.316 . S
C12 N14 1.347 . S
C12 H23 0.931 . S
C13 N11 1.375 . S
C13 C15 1.350 . S
C13 H22 0.930 . S
N14 C12 1.347 . S
N14 C15 1.373 . S
C15 C13 1.350 . S
C15 N14 1.373 . S
C15 H29 0.931 . S
C16 O19 1.256 . S
C16 O20 1.255 . S
O17 Co0 2.021 . S
O17 C10 1.259 . S
O18 Co2 2.117 . S
O18 C10 1.258 . S
O19 Co2 2.020 . S
O19 C16 1.256 . S
O20 Co0 2.062 . S
O20 C16 1.255 . S
O21 C1 1.259 . S
O21 Co2 2.021 . S
H22 C13 0.930 . S
H23 C12 0.931 . S
O24 Co0 2.117 . S
O24 C1 1.258 . S
O25 Co0 2.020 . S
O25 C27 1.256 . S
O26 Co2 2.062 . S
O26 C27 1.255 . S
C27 O25 1.256 . S
C27 O26 1.255 . S
H28 C7 0.931 . S
H29 C15 0.931 . S
Co30 N35 2.057 . S
Co30 O47 2.021 . S
Co30 O50 2.062 . S
Co30 O54 2.117 . S
Co30 O55 2.020 . S
C31 O51 1.259 . S
C31 O54 1.258 . S
Co32 N41 2.057 . S
Co32 O48 2.117 . S
Co32 O49 2.020 . S
Co32 O51 2.021 . S
Co32 O56 2.062 . S
C33 N35 1.316 . S
C33 N36 1.347 . S
C33 H38 0.931 . S
C34 N35 1.375 . S
C34 C37 1.350 . S
C34 H39 0.930 . S
N35 Co30 2.057 . S
N35 C33 1.316 . S
N35 C34 1.375 . S
N36 C33 1.347 . S
N36 C37 1.373 . S
C37 C34 1.350 . S
C37 N36 1.373 . S
C37 H58 0.931 . S
H38 C33 0.931 . S
H39 C34 0.930 . S
C40 O47 1.259 . S
C40 O48 1.258 . S
N41 Co32 2.057 . S
N41 C42 1.316 . S
N41 C43 1.375 . S
C42 N41 1.316 . S
C42 N44 1.347 . S
C42 H53 0.931 . S
C43 N41 1.375 . S
C43 C45 1.350 . S
C43 H52 0.930 . S
N44 C42 1.347 . S
N44 C45 1.373 . S
C45 C43 1.350 . S
C45 N44 1.373 . S
C45 H59 0.931 . S
C46 O49 1.256 . S
C46 O50 1.255 . S
O47 Co30 2.021 . S
O47 C40 1.259 . S
O48 Co32 2.117 . S
O48 C40 1.258 . S
O49 Co32 2.020 . S
O49 C46 1.256 . S
O50 Co30 2.062 . S
O50 C46 1.255 . S
O51 C31 1.259 . S
O51 Co32 2.021 . S
H52 C43 0.930 . S
H53 C42 0.931 . S
O54 Co30 2.117 . S
O54 C31 1.258 . S
O55 Co30 2.020 . S
O55 C57 1.256 . S
O56 Co32 2.062 . S
O56 C57 1.255 . S
C57 O55 1.256 . S
C57 O56 1.255 . S
H58 C37 0.931 . S
H59 C45 0.931 . S
Co60 N65 2.057 . S
Co60 O77 2.021 . S
Co60 O80 2.062 . S
Co60 O84 2.117 . S
Co60 O85 2.020 . S
C61 O81 1.259 . S
C61 O84 1.258 . S
Co62 N71 2.057 . S
Co62 O78 2.117 . S
Co62 O79 2.020 . S
Co62 O81 2.021 . S
Co62 O86 2.062 . S
C63 N65 1.316 . S
C63 N66 1.347 . S
C63 H68 0.931 . S
C64 N65 1.375 . S
C64 C67 1.350 . S
C64 H69 0.930 . S
N65 Co60 2.057 . S
N65 C63 1.316 . S
N65 C64 1.375 . S
N66 C63 1.347 . S
N66 C67 1.373 . S
C67 C64 1.350 . S
C67 N66 1.373 . S
C67 H88 0.931 . S
H68 C63 0.931 . S
H69 C64 0.930 . S
C70 O77 1.259 . S
C70 O78 1.258 . S
N71 Co62 2.057 . S
N71 C72 1.316 . S
N71 C73 1.375 . S
C72 N71 1.316 . S
C72 N74 1.347 . S
C72 H83 0.931 . S
C73 N71 1.375 . S
C73 C75 1.350 . S
C73 H82 0.930 . S
N74 C72 1.347 . S
N74 C75 1.373 . S
C75 C73 1.350 . S
C75 N74 1.373 . S
C75 H89 0.931 . S
C76 O79 1.256 . S
C76 O80 1.255 . S
O77 Co60 2.021 . S
O77 C70 1.259 . S
O78 Co62 2.117 . S
O78 C70 1.258 . S
O79 Co62 2.020 . S
O79 C76 1.256 . S
O80 Co60 2.062 . S
O80 C76 1.255 . S
O81 C61 1.259 . S
O81 Co62 2.021 . S
H82 C73 0.930 . S
H83 C72 0.931 . S
O84 Co60 2.117 . S
O84 C61 1.258 . S
O85 Co60 2.020 . S
O85 C87 1.256 . S
O86 Co62 2.062 . S
O86 C87 1.255 . S
C87 O85 1.256 . S
C87 O86 1.255 . S
H88 C67 0.931 . S
H89 C75 0.931 . S
Co90 N95 2.057 . S
Co90 O107 2.021 . S
Co90 O110 2.062 . S
Co90 O114 2.117 . S
Co90 O115 2.020 . S
C91 O111 1.259 . S
C91 O114 1.258 . S
Co92 N101 2.057 . S
Co92 O108 2.117 . S
Co92 O109 2.020 . S
Co92 O111 2.021 . S
Co92 O116 2.062 . S
C93 N95 1.316 1_556 S
C93 N96 1.347 . S
C93 H98 0.931 . S
C94 N95 1.375 1_556 S
C94 C97 1.350 . S
C94 H99 0.930 . S
N95 Co90 2.057 . S
N95 C93 1.316 1_554 S
N95 C94 1.375 1_554 S
N96 C93 1.347 . S
N96 C97 1.373 . S
C97 C94 1.350 . S
C97 N96 1.373 . S
C97 H118 0.931 . S
H98 C93 0.931 . S
H99 C94 0.930 . S
C100 O107 1.259 . S
C100 O108 1.258 . S
N101 Co92 2.057 . S
N101 C102 1.316 . S
N101 C103 1.375 . S
C102 N101 1.316 . S
C102 N104 1.347 . S
C102 H113 0.931 . S
C103 N101 1.375 . S
C103 C105 1.350 . S
C103 H112 0.930 . S
N104 C102 1.347 . S
N104 C105 1.373 . S
C105 C103 1.350 . S
C105 N104 1.373 . S
C105 H119 0.931 . S
C106 O109 1.256 . S
C106 O110 1.255 . S
O107 Co90 2.021 . S
O107 C100 1.259 . S
O108 Co92 2.117 . S
O108 C100 1.258 . S
O109 Co92 2.020 . S
O109 C106 1.256 . S
O110 Co90 2.062 . S
O110 C106 1.255 . S
O111 C91 1.259 . S
O111 Co92 2.021 . S
H112 C103 0.930 . S
H113 C102 0.931 . S
O114 Co90 2.117 . S
O114 C91 1.258 . S
O115 Co90 2.020 . S
O115 C117 1.256 . S
O116 Co92 2.062 . S
O116 C117 1.255 . S
C117 O115 1.256 . S
C117 O116 1.255 . S
H118 C97 0.931 . S
H119 C105 0.931 . S
Co120 N125 2.057 . S
Co120 O137 2.021 . S
Co120 O140 2.062 . S
Co120 O144 2.117 . S
Co120 O145 2.020 . S
C121 O141 1.259 . S
C121 O144 1.258 . S
Co122 N131 2.057 . S
Co122 O138 2.117 . S
Co122 O139 2.020 . S
Co122 O141 2.021 . S
Co122 O146 2.062 . S
C123 N125 1.316 . S
C123 N126 1.347 . S
C123 H128 0.931 . S
C124 N125 1.375 . S
C124 C127 1.350 . S
C124 H129 0.930 . S
N125 Co120 2.057 . S
N125 C123 1.316 . S
N125 C124 1.375 . S
N126 C123 1.347 . S
N126 C127 1.373 . S
C127 C124 1.350 . S
C127 N126 1.373 . S
C127 H148 0.931 . S
H128 C123 0.931 . S
H129 C124 0.930 . S
C130 O137 1.259 . S
C130 O138 1.258 . S
N131 Co122 2.057 . S
N131 C132 1.316 . S
N131 C133 1.375 . S
C132 N131 1.316 . S
C132 N134 1.347 . S
C132 H143 0.931 . S
C133 N131 1.375 . S
C133 C135 1.350 . S
C133 H142 0.930 . S
N134 C132 1.347 . S
N134 C135 1.373 . S
C135 C133 1.350 . S
C135 N134 1.373 . S
C135 H149 0.931 . S
C136 O139 1.256 . S
C136 O140 1.255 . S
O137 Co120 2.021 . S
O137 C130 1.259 . S
O138 Co122 2.117 . S
O138 C130 1.258 . S
O139 Co122 2.020 . S
O139 C136 1.256 . S
O140 Co120 2.062 . S
O140 C136 1.255 . S
O141 C121 1.259 . S
O141 Co122 2.021 . S
H142 C133 0.930 . S
H143 C132 0.931 . S
O144 Co120 2.117 . S
O144 C121 1.258 . S
O145 Co120 2.020 . S
O145 C147 1.256 . S
O146 Co122 2.062 . S
O146 C147 1.255 . S
C147 O145 1.256 . S
C147 O146 1.255 . S
H148 C127 0.931 . S
H149 C135 0.931 . S
Co150 N155 2.057 . S
Co150 O167 2.021 . S
Co150 O170 2.062 . S
Co150 O174 2.117 . S
Co150 O175 2.020 . S
C151 O171 1.259 . S
C151 O174 1.258 . S
Co152 N161 2.057 . S
Co152 O168 2.117 . S
Co152 O169 2.020 . S
Co152 O171 2.021 . S
Co152 O176 2.062 . S
C153 N155 1.316 . S
C153 N156 1.347 . S
C153 H158 0.931 . S
C154 N155 1.375 . S
C154 C157 1.350 . S
C154 H159 0.930 . S
N155 Co150 2.057 . S
N155 C153 1.316 . S
N155 C154 1.375 . S
N156 C153 1.347 . S
N156 C157 1.373 . S
C157 C154 1.350 . S
C157 N156 1.373 . S
C157 H178 0.931 . S
H158 C153 0.931 . S
H159 C154 0.930 . S
C160 O167 1.259 . S
C160 O168 1.258 . S
N161 Co152 2.057 . S
N161 C162 1.316 . S
N161 C163 1.375 . S
C162 N161 1.316 . S
C162 N164 1.347 . S
C162 H173 0.931 . S
C163 N161 1.375 . S
C163 C165 1.350 . S
C163 H172 0.930 . S
N164 C162 1.347 . S
N164 C165 1.373 . S
C165 C163 1.350 . S
C165 N164 1.373 . S
C165 H179 0.931 . S
C166 O169 1.256 . S
C166 O170 1.255 . S
O167 Co150 2.021 . S
O167 C160 1.259 . S
O168 Co152 2.117 . S
O168 C160 1.258 . S
O169 Co152 2.020 . S
O169 C166 1.256 . S
O170 Co150 2.062 . S
O170 C166 1.255 . S
O171 C151 1.259 . S
O171 Co152 2.021 . S
H172 C163 0.930 . S
H173 C162 0.931 . S
O174 Co150 2.117 . S
O174 C151 1.258 . S
O175 Co150 2.020 . S
O175 C177 1.256 . S
O176 Co152 2.062 . S
O176 C177 1.255 . S
C177 O175 1.256 . S
C177 O176 1.255 . S
H178 C157 0.931 . S
H179 C165 0.931 . S
C180 C181 1.386 . S
C180 C182 1.383 . S
C180 H196 0.951 . S
C181 C180 1.386 . S
C181 C185 1.383 . S
C182 C180 1.383 . S
C182 C183 1.402 . S
C182 H197 0.951 . S
C183 C182 1.402 . S
C183 C184 1.375 . S
C183 C186 1.481 . S
C184 C183 1.375 . S
C184 C185 1.367 . S
C184 H198 0.951 . S
C185 C181 1.383 . S
C185 C184 1.367 . S
C185 H199 0.950 . S
C186 C183 1.481 . S
C186 C187 1.297 . S
C186 H200 0.950 . S
C187 C186 1.297 . S
C187 C188 1.479 . S
C187 H201 0.950 . S
C188 C187 1.479 . S
C188 C189 1.375 . S
C188 C194 1.404 . S
C189 C188 1.375 . S
C189 C190 1.369 . S
C189 H202 0.950 . S
C190 C189 1.369 . S
C190 C191 1.392 . S
C190 H203 0.951 . S
C191 C190 1.392 . S
C191 C193 1.384 . S
H192 C194 0.949 . S
C193 C191 1.384 . S
C193 C194 1.385 . S
C193 H195 0.950 . S
C194 C188 1.404 . S
C194 H192 0.949 . S
C194 C193 1.385 . S
H195 C193 0.950 . S
H196 C180 0.951 . S
H197 C182 0.951 . S
H198 C184 0.951 . S
H199 C185 0.950 . S
H200 C186 0.950 . S
H201 C187 0.950 . S
H202 C189 0.950 . S
H203 C190 0.951 . S
C204 C205 1.386 . S
C204 C206 1.383 . S
C204 H220 0.951 . S
C205 C204 1.386 . S
C205 C209 1.383 . S
C206 C204 1.383 . S
C206 C207 1.402 . S
C206 H221 0.951 . S
C207 C206 1.402 . S
C207 C208 1.375 . S
C207 C210 1.481 . S
C208 C207 1.375 . S
C208 C209 1.367 . S
C208 H222 0.951 . S
C209 C205 1.383 . S
C209 C208 1.367 . S
C209 H223 0.950 . S
C210 C207 1.481 . S
C210 C211 1.297 . S
C210 H224 0.950 . S
C211 C210 1.297 . S
C211 C212 1.479 . S
C211 H225 0.950 . S
C212 C211 1.479 . S
C212 C213 1.375 . S
C212 C218 1.404 . S
C213 C212 1.375 . S
C213 C214 1.369 . S
C213 H226 0.950 . S
C214 C213 1.369 . S
C214 C215 1.392 . S
C214 H227 0.951 . S
C215 C214 1.392 . S
C215 C217 1.384 . S
H216 C218 0.949 . S
C217 C215 1.384 . S
C217 C218 1.385 . S
C217 H219 0.950 . S
C218 C212 1.404 . S
C218 H216 0.949 . S
C218 C217 1.385 . S
H219 C217 0.950 . S
H220 C204 0.951 . S
H221 C206 0.951 . S
H222 C208 0.951 . S
H223 C209 0.950 . S
H224 C210 0.950 . S
H225 C211 0.950 . S
H226 C213 0.950 . S
H227 C214 0.951 . S
C228 C229 1.386 . S
C228 C230 1.383 . S
C228 H244 0.951 . S
C229 C228 1.386 . S
C229 C233 1.383 . S
C230 C228 1.383 . S
C230 C231 1.402 . S
C230 H245 0.951 . S
C231 C230 1.402 . S
C231 C232 1.375 . S
C231 C234 1.481 1_554 S
C232 C231 1.375 . S
C232 C233 1.367 . S
C232 H246 0.951 . S
C233 C229 1.383 . S
C233 C232 1.367 . S
C233 H247 0.950 . S
C234 C231 1.481 1_556 S
C234 C235 1.297 . S
C234 H248 0.950 . S
C235 C234 1.297 . S
C235 C236 1.479 . S
C235 H249 0.950 . S
C236 C235 1.479 . S
C236 C237 1.375 . S
C236 C242 1.404 . S
C237 C236 1.375 . S
C237 C238 1.369 . S
C237 H250 0.950 . S
C238 C237 1.369 . S
C238 C239 1.392 . S
C238 H251 0.951 . S
C239 C238 1.392 . S
C239 C241 1.384 . S
H240 C242 0.949 . S
C241 C239 1.384 . S
C241 C242 1.385 . S
C241 H243 0.950 . S
C242 C236 1.404 . S
C242 H240 0.949 . S
C242 C241 1.385 . S
H243 C241 0.950 . S
H244 C228 0.951 . S
H245 C230 0.951 . S
H246 C232 0.951 . S
H247 C233 0.950 . S
H248 C234 0.950 . S
H249 C235 0.950 . S
H250 C237 0.950 . S
H251 C238 0.951 . S
C252 C253 1.386 . S
C252 C254 1.383 . S
C252 H268 0.951 . S
C253 C252 1.386 . S
C253 C257 1.383 . S
C254 C252 1.383 . S
C254 C255 1.402 . S
C254 H269 0.951 . S
C255 C254 1.402 . S
C255 C256 1.375 . S
C255 C258 1.481 . S
C256 C255 1.375 . S
C256 C257 1.367 . S
C256 H270 0.951 . S
C257 C253 1.383 . S
C257 C256 1.367 . S
C257 H271 0.950 . S
C258 C255 1.481 . S
C258 C259 1.297 . S
C258 H272 0.950 . S
C259 C258 1.297 . S
C259 C260 1.479 . S
C259 H273 0.950 . S
C260 C259 1.479 . S
C260 C261 1.375 . S
C260 C266 1.404 . S
C261 C260 1.375 . S
C261 C262 1.369 . S
C261 H274 0.950 . S
C262 C261 1.369 . S
C262 C263 1.392 . S
C262 H275 0.951 . S
C263 C262 1.392 . S
C263 C265 1.384 . S
H264 C266 0.949 . S
C265 C263 1.384 . S
C265 C266 1.385 . S
C265 H267 0.950 . S
C266 C260 1.404 . S
C266 H264 0.949 . S
C266 C265 1.385 . S
H267 C265 0.950 . S
H268 C252 0.951 . S
H269 C254 0.951 . S
H270 C256 0.951 . S
H271 C257 0.950 . S
H272 C258 0.950 . S
H273 C259 0.950 . S
H274 C261 0.950 . S
H275 C262 0.951 . S
C276 C277 1.386 . S
C276 C278 1.383 . S
C276 H292 0.951 . S
C277 C276 1.386 . S
C277 C281 1.383 . S
C278 C276 1.383 . S
C278 C279 1.402 . S
C278 H293 0.951 . S
C279 C278 1.402 . S
C279 C280 1.375 . S
C279 C282 1.481 . S
C280 C279 1.375 . S
C280 C281 1.367 . S
C280 H294 0.951 . S
C281 C277 1.383 . S
C281 C280 1.367 . S
C281 H295 0.950 . S
C282 C279 1.481 . S
C282 C283 1.297 . S
C282 H296 0.950 . S
C283 C282 1.297 . S
C283 C284 1.479 . S
C283 H297 0.950 . S
C284 C283 1.479 . S
C284 C285 1.375 . S
C284 C290 1.404 . S
C285 C284 1.375 . S
C285 C286 1.369 . S
C285 H298 0.950 . S
C286 C285 1.369 . S
C286 C287 1.392 . S
C286 H299 0.951 . S
C287 C286 1.392 . S
C287 C289 1.384 . S
H288 C290 0.949 . S
C289 C287 1.384 . S
C289 C290 1.385 . S
C289 H291 0.950 . S
C290 C284 1.404 . S
C290 H288 0.949 . S
C290 C289 1.385 . S
H291 C289 0.950 . S
H292 C276 0.951 . S
H293 C278 0.951 . S
H294 C280 0.951 . S
H295 C281 0.950 . S
H296 C282 0.950 . S
H297 C283 0.950 . S
H298 C285 0.950 . S
H299 C286 0.951 . S
C300 C301 1.386 . S
C300 C302 1.383 . S
C300 H316 0.951 . S
C301 C300 1.386 . S
C301 C305 1.383 . S
C302 C300 1.383 . S
C302 C303 1.402 . S
C302 H317 0.951 . S
C303 C302 1.402 . S
C303 C304 1.375 . S
C303 C306 1.481 . S
C304 C303 1.375 . S
C304 C305 1.367 . S
C304 H318 0.951 . S
C305 C301 1.383 . S
C305 C304 1.367 . S
C305 H319 0.950 . S
C306 C303 1.481 . S
C306 C307 1.297 . S
C306 H320 0.950 . S
C307 C306 1.297 . S
C307 C308 1.479 . S
C307 H321 0.950 . S
C308 C307 1.479 . S
C308 C309 1.375 . S
C308 C314 1.404 . S
C309 C308 1.375 . S
C309 C310 1.369 . S
C309 H322 0.950 . S
C310 C309 1.369 . S
C310 C311 1.392 . S
C310 H323 0.951 . S
C311 C310 1.392 . S
C311 C313 1.384 . S
H312 C314 0.949 . S
C313 C311 1.384 . S
C313 C314 1.385 . S
C313 H315 0.950 . S
C314 C308 1.404 . S
C314 H312 0.949 . S
C314 C313 1.385 . S
H315 C313 0.950 . S
H316 C300 0.951 . S
H317 C302 0.951 . S
H318 C304 0.951 . S
H319 C305 0.950 . S
H320 C306 0.950 . S
H321 C307 0.950 . S
H322 C309 0.950 . S
H323 C310 0.951 . S
C324 C325 1.386 . S
C324 C326 1.383 . S
C324 H340 0.951 . S
C325 C324 1.386 . S
C325 C329 1.383 . S
C326 C324 1.383 . S
C326 C327 1.402 . S
C326 H341 0.951 . S
C327 C326 1.402 . S
C327 C328 1.375 . S
C327 C330 1.481 . S
C328 C327 1.375 . S
C328 C329 1.367 . S
C328 H342 0.951 . S
C329 C325 1.383 . S
C329 C328 1.367 . S
C329 H343 0.950 . S
C330 C327 1.481 . S
C330 C331 1.297 . S
C330 H344 0.950 . S
C331 C330 1.297 . S
C331 C332 1.479 . S
C331 H345 0.950 . S
C332 C331 1.479 . S
C332 C333 1.375 . S
C332 C338 1.404 . S
C333 C332 1.375 . S
C333 C334 1.369 . S
C333 H346 0.950 . S
C334 C333 1.369 . S
C334 C335 1.392 . S
C334 H347 0.951 . S
C335 C334 1.392 . S
C335 C337 1.384 . S
H336 C338 0.949 . S
C337 C335 1.384 . S
C337 C338 1.385 . S
C337 H339 0.950 . S
C338 C332 1.404 . S
C338 H336 0.949 . S
C338 C337 1.385 . S
H339 C337 0.950 . S
H340 C324 0.951 . S
H341 C326 0.951 . S
H342 C328 0.951 . S
H343 C329 0.950 . S
H344 C330 0.950 . S
H345 C331 0.950 . S
H346 C333 0.950 . S
H347 C334 0.951 . S
C348 C349 1.386 . S
C348 C350 1.383 . S
C348 H364 0.951 . S
C349 C348 1.386 . S
C349 C353 1.383 . S
C350 C348 1.383 . S
C350 C351 1.402 . S
C350 H365 0.951 . S
C351 C350 1.402 . S
C351 C352 1.375 . S
C351 C354 1.481 . S
C352 C351 1.375 . S
C352 C353 1.367 . S
C352 H366 0.951 1_455 S
C353 C349 1.383 . S
C353 C352 1.367 . S
C353 H367 0.950 . S
C354 C351 1.481 . S
C354 C355 1.297 . S
C354 H368 0.950 1_455 S
C355 C354 1.297 . S
C355 C356 1.479 1_455 S
C355 H369 0.950 . S
C356 C355 1.479 1_655 S
C356 C357 1.375 1_655 S
C356 C362 1.404 . S
C357 C356 1.375 1_455 S
C357 C358 1.369 1_455 S
C357 H370 0.950 . S
C358 C357 1.369 1_655 S
C358 C359 1.392 . S
C358 H371 0.951 . S
C359 C358 1.392 . S
C359 C361 1.384 . S
H360 C362 0.949 . S
C361 C359 1.384 . S
C361 C362 1.385 . S
C361 H363 0.950 . S
C362 C356 1.404 . S
C362 H360 0.949 . S
C362 C361 1.385 . S
H363 C361 0.950 . S
H364 C348 0.951 . S
H365 C350 0.951 . S
H366 C352 0.951 1_655 S
H367 C353 0.950 . S
H368 C354 0.950 1_655 S
H369 C355 0.950 . S
H370 C357 0.950 . S
H371 C358 0.951 . S
C372 C373 1.386 . S
C372 C374 1.383 . S
C372 H388 0.951 . S
C373 C372 1.386 . S
C373 C377 1.383 . S
C374 C372 1.383 . S
C374 C375 1.402 . S
C374 H389 0.951 . S
C375 C374 1.402 . S
C375 C376 1.375 1_545 S
C375 C378 1.481 1_545 S
C376 C375 1.375 1_565 S
C376 C377 1.367 1_565 S
C376 H390 0.951 . S
C377 C373 1.383 . S
C377 C376 1.367 1_545 S
C377 H391 0.950 . S
C378 C375 1.481 1_565 S
C378 C379 1.297 . S
C378 H392 0.950 . S
C379 C378 1.297 . S
C379 C380 1.479 . S
C379 H393 0.950 1_565 S
C380 C379 1.479 . S
C380 C381 1.375 . S
C380 C386 1.404 . S
C381 C380 1.375 . S
C381 C382 1.369 . S
C381 H394 0.950 . S
C382 C381 1.369 . S
C382 C383 1.392 . S
C382 H395 0.951 . S
C383 C382 1.392 . S
C383 C385 1.384 . S
H384 C386 0.949 . S
C385 C383 1.384 . S
C385 C386 1.385 . S
C385 H387 0.950 . S
C386 C380 1.404 . S
C386 H384 0.949 . S
C386 C385 1.385 . S
H387 C385 0.950 . S
H388 C372 0.951 . S
H389 C374 0.951 . S
H390 C376 0.951 . S
H391 C377 0.950 . S
H392 C378 0.950 . S
H393 C379 0.950 1_545 S
H394 C381 0.950 . S
H395 C382 0.951 . S
C396 C397 1.386 . S
C396 C398 1.383 . S
C396 H412 0.951 . S
C397 C396 1.386 . S
C397 C401 1.383 . S
C398 C396 1.383 . S
C398 C399 1.402 . S
C398 H413 0.951 . S
C399 C398 1.402 . S
C399 C400 1.375 . S
C399 C402 1.481 . S
C400 C399 1.375 . S
C400 C401 1.367 . S
C400 H414 0.951 . S
C401 C397 1.383 . S
C401 C400 1.367 . S
C401 H415 0.950 . S
C402 C399 1.481 . S
C402 C403 1.297 . S
C402 H416 0.950 . S
C403 C402 1.297 . S
C403 C404 1.479 . S
C403 H417 0.950 . S
C404 C403 1.479 . S
C404 C405 1.375 . S
C404 C410 1.404 . S
C405 C404 1.375 . S
C405 C406 1.369 . S
C405 H418 0.950 . S
C406 C405 1.369 . S
C406 C407 1.392 . S
C406 H419 0.951 . S
C407 C406 1.392 . S
C407 C409 1.384 . S
H408 C410 0.949 . S
C409 C407 1.384 . S
C409 C410 1.385 . S
C409 H411 0.950 . S
C410 C404 1.404 . S
C410 H408 0.949 . S
C410 C409 1.385 . S
H411 C409 0.950 . S
H412 C396 0.951 . S
H413 C398 0.951 . S
H414 C400 0.951 . S
H415 C401 0.950 . S
H416 C402 0.950 . S
H417 C403 0.950 . S
H418 C405 0.950 . S
H419 C406 0.951 . S
C420 C421 1.386 . S
C420 C422 1.383 . S
C420 H436 0.951 . S
C421 C420 1.386 . S
C421 C425 1.383 . S
C422 C420 1.383 . S
C422 C423 1.402 . S
C422 H437 0.951 . S
C423 C422 1.402 . S
C423 C424 1.375 . S
C423 C426 1.481 1_455 S
C424 C423 1.375 . S
C424 C425 1.367 . S
C424 H438 0.951 1_455 S
C425 C421 1.383 . S
C425 C424 1.367 . S
C425 H439 0.950 . S
C426 C423 1.481 1_655 S
C426 C427 1.297 . S
C426 H440 0.950 . S
C427 C426 1.297 . S
C427 C428 1.479 . S
C427 H441 0.950 1_655 S
C428 C427 1.479 . S
C428 C429 1.375 . S
C428 C434 1.404 . S
C429 C428 1.375 . S
C429 C430 1.369 . S
C429 H442 0.950 . S
C430 C429 1.369 . S
C430 C431 1.392 . S
C430 H443 0.951 . S
C431 C430 1.392 . S
C431 C433 1.384 . S
H432 C434 0.949 . S
C433 C431 1.384 . S
C433 C434 1.385 . S
C433 H435 0.950 . S
C434 C428 1.404 . S
C434 H432 0.949 . S
C434 C433 1.385 . S
H435 C433 0.950 . S
H436 C420 0.951 . S
H437 C422 0.951 . S
H438 C424 0.951 1_655 S
H439 C425 0.950 . S
H440 C426 0.950 . S
H441 C427 0.950 1_455 S
H442 C429 0.950 . S
H443 C430 0.951 . S
C444 C445 1.386 . S
C444 C446 1.383 . S
C444 H460 0.951 . S
C445 C444 1.386 . S
C445 C449 1.383 . S
C446 C444 1.383 . S
C446 C447 1.402 . S
C446 H461 0.951 1_565 S
C447 C446 1.402 . S
C447 C448 1.375 . S
C447 C450 1.481 1_565 S
C448 C447 1.375 . S
C448 C449 1.367 . S
C448 H462 0.951 . S
C449 C445 1.383 . S
C449 C448 1.367 . S
C449 H463 0.950 . S
C450 C447 1.481 1_545 S
C450 C451 1.297 . S
C450 H464 0.950 1_545 S
C451 C450 1.297 . S
C451 C452 1.479 . S
C451 H465 0.950 . S
C452 C451 1.479 . S
C452 C453 1.375 . S
C452 C458 1.404 . S
C453 C452 1.375 . S
C453 C454 1.369 . S
C453 H466 0.950 . S
C454 C453 1.369 . S
C454 C455 1.392 . S
C454 H467 0.951 . S
C455 C454 1.392 . S
C455 C457 1.384 . S
H456 C458 0.949 . S
C457 C455 1.384 . S
C457 C458 1.385 . S
C457 H459 0.950 . S
C458 C452 1.404 . S
C458 H456 0.949 . S
C458 C457 1.385 . S
H459 C457 0.950 . S
H460 C444 0.951 . S
H461 C446 0.951 1_545 S
H462 C448 0.951 . S
H463 C449 0.950 . S
H464 C450 0.950 1_565 S
H465 C451 0.950 . S
H466 C453 0.950 . S
H467 C454 0.951 . S
C468 C469 1.386 . S
C468 C470 1.383 . S
C468 H484 0.951 . S
C469 C468 1.386 . S
C469 C473 1.383 . S
C470 C468 1.383 . S
C470 C471 1.402 . S
C470 H485 0.951 . S
C471 C470 1.402 . S
C471 C472 1.375 . S
C471 C474 1.481 . S
C472 C471 1.375 . S
C472 C473 1.367 . S
C472 H486 0.951 . S
C473 C469 1.383 . S
C473 C472 1.367 . S
C473 H487 0.950 . S
C474 C471 1.481 . S
C474 C475 1.297 . S
C474 H488 0.950 . S
C475 C474 1.297 . S
C475 C476 1.479 . S
C475 H489 0.950 . S
C476 C475 1.479 . S
C476 C477 1.375 . S
C476 C482 1.404 . S
C477 C476 1.375 . S
C477 C478 1.369 . S
C477 H490 0.950 . S
C478 C477 1.369 . S
C478 C479 1.392 1_556 S
C478 H491 0.951 . S
C479 C478 1.392 1_554 S
C479 C481 1.384 . S
H480 C482 0.949 . S
C481 C479 1.384 . S
C481 C482 1.385 1_554 S
C481 H483 0.950 . S
C482 C476 1.404 . S
C482 H480 0.949 . S
C482 C481 1.385 1_556 S
H483 C481 0.950 . S
H484 C468 0.951 . S
H485 C470 0.951 . S
H486 C472 0.951 . S
H487 C473 0.950 . S
H488 C474 0.950 . S
H489 C475 0.950 . S
H490 C477 0.950 . S
H491 C478 0.951 . S
C492 C493 1.386 . S
C492 C494 1.383 . S
C492 H508 0.951 . S
C493 C492 1.386 . S
C493 C497 1.383 . S
C494 C492 1.383 . S
C494 C495 1.402 . S
C494 H509 0.951 . S
C495 C494 1.402 . S
C495 C496 1.375 . S
C495 C498 1.481 . S
C496 C495 1.375 . S
C496 C497 1.367 . S
C496 H510 0.951 . S
C497 C493 1.383 . S
C497 C496 1.367 . S
C497 H511 0.950 . S
C498 C495 1.481 . S
C498 C499 1.297 1_655 S
C498 H512 0.950 . S
C499 C498 1.297 1_455 S
C499 C500 1.479 . S
C499 H513 0.950 . S
C500 C499 1.479 . S
C500 C501 1.375 . S
C500 C506 1.404 . S
C501 C500 1.375 . S
C501 C502 1.369 . S
C501 H514 0.950 . S
C502 C501 1.369 . S
C502 C503 1.392 . S
C502 H515 0.951 . S
C503 C502 1.392 . S
C503 C505 1.384 . S
H504 C506 0.949 . S
C505 C503 1.384 . S
C505 C506 1.385 . S
C505 H507 0.950 . S
C506 C500 1.404 . S
C506 H504 0.949 . S
C506 C505 1.385 . S
H507 C505 0.950 . S
H508 C492 0.951 . S
H509 C494 0.951 . S
H510 C496 0.951 . S
H511 C497 0.950 . S
H512 C498 0.950 . S
H513 C499 0.950 . S
H514 C501 0.950 . S
H515 C502 0.951 . S
C516 C517 1.386 . S
C516 C518 1.383 . S
C516 H532 0.951 . S
C517 C516 1.386 . S
C517 C521 1.383 . S
C518 C516 1.383 . S
C518 C519 1.402 . S
C518 H533 0.951 . S
C519 C518 1.402 . S
C519 C520 1.375 . S
C519 C522 1.481 . S
C520 C519 1.375 . S
C520 C521 1.367 . S
C520 H534 0.951 . S
C521 C517 1.383 . S
C521 C520 1.367 . S
C521 H535 0.950 . S
C522 C519 1.481 . S
C522 C523 1.297 . S
C522 H536 0.950 . S
C523 C522 1.297 . S
C523 C524 1.479 1_565 S
C523 H537 0.950 . S
C524 C523 1.479 1_545 S
C524 C525 1.375 . S
C524 C530 1.404 . S
C525 C524 1.375 . S
C525 C526 1.369 . S
C525 H538 0.950 . S
C526 C525 1.369 . S
C526 C527 1.392 . S
C526 H539 0.951 . S
C527 C526 1.392 . S
C527 C529 1.384 . S
H528 C530 0.949 . S
C529 C527 1.384 . S
C529 C530 1.385 . S
C529 H531 0.950 . S
C530 C524 1.404 . S
C530 H528 0.949 . S
C530 C529 1.385 . S
H531 C529 0.950 . S
H532 C516 0.951 . S
H533 C518 0.951 . S
H534 C520 0.951 . S
H535 C521 0.950 . S
H536 C522 0.950 . S
H537 C523 0.950 . S
H538 C525 0.950 . S
H539 C526 0.951 . S
C540 C541 1.386 . S
C540 C542 1.383 . S
C540 H556 0.951 . S
C541 C540 1.386 . S
C541 C545 1.383 . S
C542 C540 1.383 . S
C542 C543 1.402 . S
C542 H557 0.951 . S
C543 C542 1.402 . S
C543 C544 1.375 . S
C543 C546 1.481 . S
C544 C543 1.375 . S
C544 C545 1.367 . S
C544 H558 0.951 . S
C545 C541 1.383 . S
C545 C544 1.367 . S
C545 H559 0.950 . S
C546 C543 1.481 . S
C546 C547 1.297 . S
C546 H560 0.950 . S
C547 C546 1.297 . S
C547 C548 1.479 . S
C547 H561 0.950 . S
C548 C547 1.479 . S
C548 C549 1.375 . S
C548 C554 1.404 . S
C549 C548 1.375 . S
C549 C550 1.369 1_556 S
C549 H562 0.950 . S
C550 C549 1.369 1_554 S
C550 C551 1.392 . S
C550 H563 0.951 . S
C551 C550 1.392 . S
C551 C553 1.384 1_554 S
H552 C554 0.949 . S
C553 C551 1.384 1_556 S
C553 C554 1.385 . S
C553 H555 0.950 . S
C554 C548 1.404 . S
C554 H552 0.949 . S
C554 C553 1.385 . S
H555 C553 0.950 . S
H556 C540 0.951 . S
H557 C542 0.951 . S
H558 C544 0.951 . S
H559 C545 0.950 . S
H560 C546 0.950 . S
H561 C547 0.950 . S
H562 C549 0.950 . S
H563 C550 0.951 . S
C564 C565 1.386 . S
C564 C566 1.383 . S
C564 H580 0.951 . S
C565 C564 1.386 . S
C565 C569 1.383 . S
C566 C564 1.383 . S
C566 C567 1.402 . S
C566 H581 0.951 1_455 S
C567 C566 1.402 . S
C567 C568 1.375 . S
C567 C570 1.481 . S
C568 C567 1.375 . S
C568 C569 1.367 . S
C568 H582 0.951 . S
C569 C565 1.383 . S
C569 C568 1.367 . S
C569 H583 0.950 . S
C570 C567 1.481 . S
C570 C571 1.297 1_455 S
C570 H584 0.950 . S
C571 C570 1.297 1_655 S
C571 C572 1.479 . S
C571 H585 0.950 . S
C572 C571 1.479 . S
C572 C573 1.375 . S
C572 C578 1.404 . S
C573 C572 1.375 . S
C573 C574 1.369 . S
C573 H586 0.950 . S
C574 C573 1.369 . S
C574 C575 1.392 . S
C574 H587 0.951 . S
C575 C574 1.392 . S
C575 C577 1.384 . S
H576 C578 0.949 . S
C577 C575 1.384 . S
C577 C578 1.385 . S
C577 H579 0.950 . S
C578 C572 1.404 . S
C578 H576 0.949 . S
C578 C577 1.385 . S
H579 C577 0.950 . S
H580 C564 0.951 . S
H581 C566 0.951 1_655 S
H582 C568 0.951 . S
H583 C569 0.950 . S
H584 C570 0.950 . S
H585 C571 0.950 . S
H586 C573 0.950 . S
H587 C574 0.951 . S
C588 C589 1.386 . S
C588 C590 1.383 . S
C588 H604 0.951 . S
C589 C588 1.386 . S
C589 C593 1.383 . S
C590 C588 1.383 . S
C590 C591 1.402 . S
C590 H605 0.951 . S
C591 C590 1.402 . S
C591 C592 1.375 . S
C591 C594 1.481 1_545 S
C592 C591 1.375 . S
C592 C593 1.367 . S
C592 H606 0.951 1_545 S
C593 C589 1.383 . S
C593 C592 1.367 . S
C593 H607 0.950 . S
C594 C591 1.481 1_565 S
C594 C595 1.297 . S
C594 H608 0.950 . S
C595 C594 1.297 . S
C595 C596 1.479 . S
C595 H609 0.950 . S
C596 C595 1.479 . S
C596 C597 1.375 . S
C596 C602 1.404 . S
C597 C596 1.375 . S
C597 C598 1.369 . S
C597 H610 0.950 . S
C598 C597 1.369 . S
C598 C599 1.392 . S
C598 H611 0.951 . S
C599 C598 1.392 . S
C599 C601 1.384 . S
H600 C602 0.949 . S
C601 C599 1.384 . S
C601 C602 1.385 . S
C601 H603 0.950 . S
C602 C596 1.404 . S
C602 H600 0.949 . S
C602 C601 1.385 . S
H603 C601 0.950 . S
H604 C588 0.951 . S
H605 C590 0.951 . S
H606 C592 0.951 1_565 S
H607 C593 0.950 . S
H608 C594 0.950 . S
H609 C595 0.950 . S
H610 C597 0.950 . S
H611 C598 0.951 . S
C181 C147 0.726 . S
C191 N6 0.812 . S
C205 N156 0.765 . S
C215 C57 0.700 . S
C229 C27 0.721 . S
C239 N66 0.754 . S
C253 N36 0.744 . S
C263 C117 0.774 . S
C277 C87 0.718 . S
C287 N126 0.773 . S
C301 N96 0.732 . S
C311 C177 0.780 . S
C325 C1 1.181 . S
C335 C100 1.127 . S
C349 C121 1.238 . S
C359 C40 1.263 . S
C373 C160 1.216 . S
C383 C61 1.268 . S
C397 C70 1.247 . S
C407 C151 1.239 . S
C421 C10 1.202 . S
C431 C91 1.259 . S
C445 C130 1.199 . S
C455 C31 1.127 . S
C469 N164 0.623 . S
C479 N14 0.613 . S
C493 C46 0.703 . S
C503 C16 0.712 . S
C517 N74 0.594 . S
C527 N44 0.671 . S
C541 C76 0.589 . S
C551 C106 0.589 . S
C565 N134 0.631 . S
C575 N104 0.599 . S
C589 C166 0.658 . S
C599 C136 0.593 . S
