# Generated by pormake.
# Topology vby, (6)-cn, num edge types: 1
# Building blocks:
#     Node 0, Type 0, BuildingBlock: NUHQIS_clean_sbu_0, # of connection points: 6
#     Node 1, Type 0, BuildingBlock: NUHQIS_clean_sbu_0, # of connection points: 6
#     Node 2, Type 0, BuildingBlock: NUHQIS_clean_sbu_0, # of connection points: 6
#     Node 3, Type 0, BuildingBlock: NUHQIS_clean_sbu_0, # of connection points: 6
#     Node 4, Type 0, BuildingBlock: NUHQIS_clean_sbu_0, # of connection points: 6
#     Node 5, Type 0, BuildingBlock: NUHQIS_clean_sbu_0, # of connection points: 6
#     Node 6, Type 0, BuildingBlock: NUHQIS_clean_sbu_0, # of connection points: 6
#     Node 7, Type 0, BuildingBlock: NUHQIS_clean_sbu_0, # of connection points: 6
#     Edge 8, Type (0, 0), BuildingBlock: ZUJKAS_clean_linker_0, # of connection points: 2
#     Edge 9, Type (0, 0), BuildingBlock: ZUJKAS_clean_linker_0, # of connection points: 2
#     Edge 10, Type (0, 0), BuildingBlock: ZUJKAS_clean_linker_0, # of connection points: 2
#     Edge 11, Type (0, 0), BuildingBlock: ZUJKAS_clean_linker_0, # of connection points: 2
#     Edge 12, Type (0, 0), BuildingBlock: ZUJKAS_clean_linker_0, # of connection points: 2
#     Edge 13, Type (0, 0), BuildingBlock: ZUJKAS_clean_linker_0, # of connection points: 2
#     Edge 14, Type (0, 0), BuildingBlock: ZUJKAS_clean_linker_0, # of connection points: 2
#     Edge 15, Type (0, 0), BuildingBlock: ZUJKAS_clean_linker_0, # of connection points: 2
#     Edge 16, Type (0, 0), BuildingBlock: ZUJKAS_clean_linker_0, # of connection points: 2
#     Edge 17, Type (0, 0), BuildingBlock: ZUJKAS_clean_linker_0, # of connection points: 2
#     Edge 18, Type (0, 0), BuildingBlock: ZUJKAS_clean_linker_0, # of connection points: 2
#     Edge 19, Type (0, 0), BuildingBlock: ZUJKAS_clean_linker_0, # of connection points: 2
#     Edge 20, Type (0, 0), BuildingBlock: ZUJKAS_clean_linker_0, # of connection points: 2
#     Edge 21, Type (0, 0), BuildingBlock: ZUJKAS_clean_linker_0, # of connection points: 2
#     Edge 22, Type (0, 0), BuildingBlock: ZUJKAS_clean_linker_0, # of connection points: 2
#     Edge 23, Type (0, 0), BuildingBlock: ZUJKAS_clean_linker_0, # of connection points: 2
#     Edge 24, Type (0, 0), BuildingBlock: ZUJKAS_clean_linker_0, # of connection points: 2
#     Edge 25, Type (0, 0), BuildingBlock: ZUJKAS_clean_linker_0, # of connection points: 2
#     Edge 26, Type (0, 0), BuildingBlock: ZUJKAS_clean_linker_0, # of connection points: 2
#     Edge 27, Type (0, 0), BuildingBlock: ZUJKAS_clean_linker_0, # of connection points: 2
#     Edge 28, Type (0, 0), BuildingBlock: ZUJKAS_clean_linker_0, # of connection points: 2
#     Edge 29, Type (0, 0), BuildingBlock: ZUJKAS_clean_linker_0, # of connection points: 2
#     Edge 30, Type (0, 0), BuildingBlock: ZUJKAS_clean_linker_0, # of connection points: 2
#     Edge 31, Type (0, 0), BuildingBlock: ZUJKAS_clean_linker_0, # of connection points: 2
# Relax obj value: 0.193
# Max RMSD: 0.225
# Mean RMSD: 0.213
data_MOF--net-vby--node1-NUHQIS_clean_sbu_0--edge1-ZUJKAS_clean_linker_0
_symmetry_space_group_name_H-M    P1
_symmetry_Int_Tables_number       1
_symmetry_cell_setting            triclinic
loop_
_symmetry_equiv_pos_as_xyz
'x, y, z'
_cell_length_a     19.891174
_cell_length_b     120.9695
_cell_length_c     39.228365
_cell_angle_alpha  85.85974
_cell_angle_beta   89.089946
_cell_angle_gamma 90.268057
loop_
_atom_site_label
_atom_site_type_symbol
_atom_site_fract_x
_atom_site_fract_y
_atom_site_fract_z
_atom_type_partial_charge
Tb0 Tb 0.08671 0.40219 0.00428 0.0
Eu1 Eu 0.08084 0.3748 0.00262 0.0
C2 C 0.07305 0.38687 0.0708 0.0
C3 C 0.22087 0.38806 0.00359 0.0
C4 C 0.06871 0.43399 -0.00036 0.0
C5 C 1.03692 0.45181 0.01979 0.0
C6 C 0.0515 0.44059 0.02639 0.0
C7 C 0.06804 0.43873 0.96584 0.0
C8 C 0.05336 0.44999 0.95919 0.0
C9 C 0.03937 0.45674 0.98619 0.0
C10 C 0.09734 0.42289 0.00827 0.0
O11 O 0.05812 0.39887 0.9526 0.0
O12 O 0.11001 0.38206 0.94994 0.0
O13 O 0.9752 0.38045 0.99314 0.0
O14 O 0.97903 0.39853 0.00866 0.0
C15 C 0.08334 0.39101 0.93481 0.0
O16 O 0.05733 0.35981 0.97688 0.0
O17 O 0.09382 0.35851 0.02891 0.0
O18 O 0.04196 0.37959 0.05355 0.0
O19 O 0.11058 0.39458 0.05474 0.0
O20 O 0.1892 0.39718 0.99327 0.0
O21 O 0.1886 0.37886 0.01352 0.0
C22 C 0.94549 0.38969 0.00041 0.0
O23 O 0.06583 0.41629 0.03102 0.0
O24 O 0.12391 0.41754 0.98375 0.0
C25 C 0.11466 0.34317 -0.00479 0.0
C26 C 0.17477 0.32238 0.98696 0.0
C27 C 0.11903 0.32584 0.96742 0.0
C28 C 0.08919 0.3361 0.97161 0.0
C29 C 0.17206 0.33994 0.01379 0.0
C30 C 0.20175 0.32964 0.00972 0.0
C31 C 0.0762 0.35318 0.00265 0.0
H32 H 1.02736 0.45674 0.0413 0.0
H33 H 0.05269 0.43719 0.05271 0.0
H34 H 0.08145 0.43387 0.94463 0.0
H35 H 0.05472 0.45347 0.93297 0.0
H36 H 0.09654 0.32041 0.94995 0.0
H37 H 0.04458 0.33835 0.95726 0.0
H38 H 0.19293 0.3452 0.03221 0.0
H39 H 0.24518 0.32727 0.02482 0.0
Tb40 Tb 0.99027 0.6289 0.01226 0.0
Eu41 Eu 0.99608 0.65646 0.00367 0.0
C42 C 1.00151 0.64286 0.07523 0.0
C43 C 0.85587 0.64319 0.00961 0.0
C44 C 1.00628 0.59715 0.01187 0.0
C45 C 1.03056 0.5782 0.03269 0.0
C46 C 1.01874 0.58925 0.03893 0.0
C47 C 1.00966 0.59393 0.97814 0.0
C48 C 1.02167 0.58284 0.97186 0.0
C49 C 1.02995 0.57479 -0.00082 0.0
C50 C 0.97925 0.60803 0.02005 0.0
O51 O 1.02105 0.63349 0.95964 0.0
O52 O 0.96699 0.65018 0.95335 0.0
O53 O 0.10193 0.6509 -0.00543 0.0
O54 O 0.09749 0.63258 0.01578 0.0
C55 C 0.9951 0.64163 0.94012 0.0
O56 O 1.02019 0.67198 0.97356 0.0
O57 O 0.98413 0.67226 0.0261 0.0
O58 O 1.03191 0.65065 0.0558 0.0
O59 O 0.96607 0.63519 0.06161 0.0
O60 O 0.88772 0.63418 0.0019 0.0
O61 O 0.88781 0.65229 0.01633 0.0
C62 C 0.13141 0.64156 0.0047 0.0
O63 O 1.01294 0.61392 0.04058 0.0
O64 O 0.95097 0.61416 -0.00433 0.0
C65 C 0.96561 0.68846 0.98926 0.0
C66 C 0.90805 0.70974 0.97948 0.0
C67 C 0.96883 0.70727 0.96293 0.0
C68 C 0.99732 0.69675 0.96787 0.0
C69 C 0.90319 0.69069 0.00452 0.0
C70 C 0.87466 0.70124 -0.00036 0.0
C71 C 1.00242 0.67811 -0.0018 0.0
H72 H 0.03795 0.57224 0.05424 0.0
H73 H 1.01599 0.59151 0.06515 0.0
H74 H 0.99987 0.59983 0.95673 0.0
H75 H 1.02072 0.58047 0.94577 0.0
H76 H 0.99524 0.71355 0.94673 0.0
H77 H 0.04553 0.69522 0.95589 0.0
H78 H 0.87763 0.68444 0.02121 0.0
H79 H 0.82801 0.70287 0.01292 0.0
Tb80 Tb 0.08054 0.65518 0.50366 0.0
Eu81 Eu 0.08548 0.62768 0.51223 0.0
C82 C 0.07701 0.64102 0.43989 0.0
C83 C 0.94448 0.64102 0.50734 0.0
C84 C 0.1185 0.68622 0.49026 0.0
C85 C 0.13668 0.70315 0.45372 0.0
C86 C 0.10665 0.69269 0.45979 0.0
C87 C 0.16297 0.69027 0.51401 0.0
C88 C 0.19279 0.70073 0.50801 0.0
C89 C 0.17879 0.70742 0.47816 0.0
C90 C 0.07732 0.67615 0.49916 0.0
O91 O 0.04657 0.6496 0.55509 0.0
O92 O 0.11358 0.63449 0.56179 0.0
O93 O 0.19014 0.63351 0.49803 0.0
O94 O 0.18604 0.65148 0.51342 0.0
C95 C 0.07855 0.64229 0.57499 0.0
O96 O 0.06395 0.61212 0.5424 0.0
O97 O 0.12246 0.61207 0.4951 0.0
O98 O 0.05237 0.63254 0.45892 0.0
O99 O 0.10604 0.6494 0.45362 0.0
O100 O 0.97673 0.6502 0.49676 0.0
O101 O 0.97565 0.63185 0.51794 0.0
C102 C 0.22004 0.64271 0.50534 0.0
O103 O 0.05975 0.67008 0.47458 0.0
O104 O 0.09252 0.67011 0.52679 0.0
C105 C 0.0677 0.59504 0.51484 0.0
C106 C 0.03936 0.57232 0.50919 0.0
C107 C 1.02133 0.57748 0.53898 0.0
C108 C 1.03557 0.5887 0.54182 0.0
C109 C 0.08251 0.59004 0.48436 0.0
C110 C 0.0683 0.57881 0.48153 0.0
C111 C 0.09524 0.60611 0.52084 0.0
H112 H 0.12557 0.708 0.43022 0.0
H113 H 0.07212 0.68985 0.44115 0.0
H114 H 0.17263 0.68558 0.53799 0.0
H115 H 0.2242 0.70377 0.52762 0.0
H116 H 0.99803 0.57276 0.56057 0.0
H117 H 1.02418 0.59228 0.56576 0.0
H118 H 0.10807 0.59465 0.46323 0.0
H119 H 0.08343 0.57509 0.45834 0.0
Tb120 Tb 0.98603 0.39934 0.49661 0.0
Eu121 Eu 0.99117 0.37233 0.51358 0.0
C122 C 0.99067 0.3835 0.43759 0.0
C123 C 0.85328 0.38487 0.50373 0.0
C124 C 1.00326 0.43104 0.48809 0.0
C125 C 0.04872 0.44859 0.46341 0.0
C126 C 1.03403 0.43738 0.46073 0.0
C127 C 0.99034 0.43602 0.51882 0.0
C128 C 1.0049 0.44724 0.52149 0.0
C129 C 1.03241 0.45375 0.49346 0.0
C130 C 0.97551 0.41998 0.4822 0.0
O131 O 1.021 0.39739 0.54895 0.0
O132 O 0.97124 0.38052 0.5626 0.0
O133 O 0.09507 0.37858 0.5238 0.0
O134 O 0.09204 0.39492 0.48996 0.0
C135 C 0.99899 0.38969 0.57182 0.0
O136 O 0.96185 0.35798 0.54758 0.0
O137 O 1.02634 0.35576 0.50357 0.0
O138 O 1.01894 0.37584 0.45789 0.0
O139 O 0.95832 0.39177 0.4501 0.0
O140 O 0.88529 0.39366 0.51313 0.0
O141 O 0.88635 0.37609 0.49531 0.0
C142 C 0.1257 0.38698 0.50692 0.0
O143 O 1.01128 0.41345 0.46418 0.0
O144 O 0.94372 0.41454 0.50747 0.0
C145 C 0.95804 0.34037 0.52491 0.0
C146 C 0.89827 0.3194 0.51859 0.0
C147 C 0.91213 0.32306 0.55096 0.0
C148 C 0.94175 0.33342 0.55404 0.0
C149 C 0.94334 0.33687 0.49246 0.0
C150 C 0.91379 0.32645 0.48934 0.0
C151 C 0.99313 0.35092 0.5295 0.0
H152 H 0.07098 0.45331 0.44154 0.0
H153 H 0.044 0.4338 0.43664 0.0
H154 H 0.96605 0.4314 0.54032 0.0
H155 H 0.99114 0.45095 0.54491 0.0
H156 H 0.90188 0.31779 0.57398 0.0
H157 H 0.95312 0.33592 0.5793 0.0
H158 H 0.95528 0.34209 0.46956 0.0
H159 H 0.90315 0.32391 0.46406 0.0
Tb160 Tb 0.58379 0.90147 0.0085 0.0
Eu161 Eu 0.57756 0.87393 0.01076 0.0
C162 C 0.57235 0.88706 0.07725 0.0
C163 C 0.71772 0.88721 0.00942 0.0
C164 C 0.56708 0.9333 -0.00195 0.0
C165 C 0.52352 0.95084 0.01548 0.0
C166 C 0.53678 0.93959 0.02276 0.0
C167 C 0.58063 0.93838 0.96527 0.0
C168 C 0.56742 0.94965 0.95799 0.0
C169 C 0.54073 0.9561 0.98336 0.0
C170 C 0.59529 0.9223 0.00863 0.0
O171 O 0.55224 0.89722 0.95818 0.0
O172 O 0.60635 0.88057 0.95745 0.0
O173 O 0.47134 0.87954 0.00262 0.0
O174 O 0.47629 0.89797 0.01461 0.0
C175 C 0.57778 0.88917 0.94135 0.0
O176 O 0.54829 0.85879 0.98749 0.0
O177 O 0.59524 0.85778 0.03723 0.0
O178 O 0.54233 0.87926 0.06162 0.0
O179 O 0.60796 0.89475 0.05983 0.0
O180 O 0.68605 0.8962 -0.002 0.0
O181 O 0.6855 0.87812 0.02054 0.0
C182 C 0.44221 0.88896 0.00853 0.0
O183 O 0.56397 0.91613 0.03257 0.0
O184 O 0.62135 0.91643 0.98517 0.0
C185 C 0.60857 0.84224 0.00331 0.0
C186 C 0.66539 0.82144 0.99149 0.0
C187 C 0.60957 0.82541 0.97286 0.0
C188 C 0.58139 0.83567 0.97881 0.0
C189 C 0.66587 0.83848 0.02111 0.0
C190 C 0.69403 0.8282 0.01521 0.0
C191 C 0.57217 0.85229 0.01239 0.0
H192 H 0.50364 0.95556 0.03577 0.0
H193 H 0.52682 0.93597 0.04843 0.0
H194 H 0.60452 0.93382 0.94569 0.0
H195 H 0.58035 0.95341 0.93283 0.0
H196 H 0.58691 0.82051 0.95402 0.0
H197 H 0.53697 0.83832 0.96489 0.0
H198 H 0.68778 0.84331 0.04037 0.0
H199 H 0.7366 0.82536 0.03025 0.0
Tb200 Tb 0.48682 0.12875 0.00232 0.0
Eu201 Eu 0.49229 0.15628 -0.00042 0.0
C202 C 0.49492 0.1412 0.06859 0.0
C203 C 0.35254 0.14294 0.00137 0.0
C204 C 0.50452 0.09723 -0.00394 0.0
C205 C 0.56237 0.08005 0.01306 0.0
C206 C 0.5471 0.09108 0.01843 0.0
C207 C 0.48023 0.09227 0.96731 0.0
C208 C 0.49545 0.08125 0.96196 0.0
C209 C 0.53496 0.0749 0.98537 0.0
C210 C 0.47581 0.10785 0.00582 0.0
O211 O 0.52079 0.13438 0.95097 0.0
O212 O 0.46755 0.15117 0.94708 0.0
O213 O 0.59893 0.15103 0.99121 0.0
O214 O 0.59398 0.13226 0.00727 0.0
C215 C 0.49657 0.14293 0.93258 0.0
O216 O 0.51559 0.17238 0.97267 0.0
O217 O 0.47933 0.17147 0.02532 0.0
O218 O 0.52596 0.14939 0.05115 0.0
O219 O 0.46028 0.13392 0.05284 0.0
O220 O 0.38498 0.13429 0.99126 0.0
O221 O 0.38405 0.15174 0.01083 0.0
C222 C 0.6281 0.14147 -0.00101 0.0
O223 O 0.50697 0.11333 0.02835 0.0
O224 O 0.44938 0.11443 0.98193 0.0
C225 C 0.45803 0.18821 0.99134 0.0
C226 C 0.39747 0.20932 0.98377 0.0
C227 C 0.45363 0.20683 0.96356 0.0
C228 C 0.4837 0.1964 0.96742 0.0
C229 C 0.40012 0.19051 0.01055 0.0
C230 C 0.37022 0.20097 0.00682 0.0
C231 C 0.49675 0.17792 -0.0015 0.0
H232 H 0.59384 0.07545 0.03128 0.0
H233 H 0.56607 0.0946 0.04103 0.0
H234 H 0.44637 0.0967 0.94988 0.0
H235 H 0.47289 0.07753 0.94057 0.0
H236 H 0.47626 0.21311 0.94583 0.0
H237 H 0.52868 0.19488 0.95257 0.0
H238 H 0.37904 0.18437 0.02922 0.0
H239 H 0.32644 0.20258 0.02242 0.0
Tb240 Tb 0.58489 0.15503 0.49211 0.0
Eu241 Eu 0.58972 0.1279 0.50772 0.0
C242 C 0.57144 0.13869 0.43288 0.0
C243 C 0.45017 0.14117 0.50003 0.0
C244 C 0.61596 0.18621 0.48517 0.0
C245 C 0.66221 0.20406 0.46404 0.0
C246 C 0.63437 0.19381 0.45793 0.0
C247 C 0.62644 0.18898 0.51886 0.0
C248 C 0.65422 0.19931 0.52503 0.0
C249 C 0.67223 0.20698 0.49764 0.0
C250 C 0.58375 0.17573 0.47715 0.0
O251 O 0.56515 0.15207 0.54689 0.0
O252 O 0.61935 0.13548 0.55592 0.0
O253 O 0.69235 0.13411 0.48962 0.0
O254 O 0.68709 0.15144 0.50896 0.0
C255 C 0.59171 0.14431 0.56761 0.0
O256 O 0.56419 0.11274 0.53948 0.0
O257 O 0.63307 0.11212 0.49609 0.0
O258 O 0.55082 0.13054 0.45441 0.0
O259 O 0.60081 0.14754 0.4436 0.0
O260 O 0.48303 0.1493 0.48289 0.0
O261 O 0.48175 0.13292 0.51649 0.0
C262 C 0.72231 0.14304 0.49911 0.0
O263 O 0.62129 0.16882 0.46163 0.0
O264 O 0.54435 0.17067 0.50021 0.0
C265 C 0.57801 0.09524 0.51547 0.0
C266 C 0.55673 0.07259 0.50599 0.0
C267 C 0.5623 0.07626 0.53902 0.0
C268 C 0.57287 0.08746 0.54367 0.0
C269 C 0.56894 0.09171 0.48247 0.0
C270 C 0.55811 0.08047 0.47778 0.0
C271 C 0.60164 0.10651 0.52119 0.0
H272 H 0.67437 0.20982 0.44237 0.0
H273 H 0.62627 0.19186 0.43177 0.0
H274 H 0.61275 0.18323 0.54032 0.0
H275 H 0.66181 0.20129 0.55119 0.0
H276 H 0.56026 0.07042 0.56129 0.0
H277 H 0.57991 0.08999 0.56933 0.0
H278 H 0.57288 0.09756 0.46026 0.0
H279 H 0.55415 0.07788 0.45202 0.0
Tb280 Tb 0.487 0.89999 0.50929 0.0
Eu281 Eu 0.49108 0.87245 0.51294 0.0
C282 C 0.49364 0.8873 0.44267 0.0
C283 C 0.35177 0.88584 0.5112 0.0
C284 C 0.50928 0.93178 0.50002 0.0
C285 C 0.51956 0.94828 0.46075 0.0
C286 C 0.5029 0.93705 0.46708 0.0
C287 C 0.53562 0.93785 0.526 0.0
C288 C 0.55215 0.94905 0.51971 0.0
C289 C 0.54246 0.9545 0.48727 0.0
C290 C 0.47781 0.92084 0.50921 0.0
O291 O 0.45966 0.89344 0.56082 0.0
O292 O 0.52611 0.87822 0.5628 0.0
O293 O 0.59768 0.87804 0.50274 0.0
O294 O 0.59395 0.89643 0.51509 0.0
C295 C 0.49547 0.88602 0.57833 0.0
O296 O 0.47217 0.85654 0.54166 0.0
O297 O 0.51913 0.85703 0.49112 0.0
O298 O 0.46498 0.87867 0.45936 0.0
O299 O 0.51914 0.89546 0.45888 0.0
O300 O 0.38467 0.89481 0.49953 0.0
O301 O 0.38274 0.87676 0.5225 0.0
C302 C 0.6275 0.88743 0.50852 0.0
O303 O 0.45554 0.91507 0.48486 0.0
O304 O 0.50394 0.91457 0.53396 0.0
C305 C 0.46111 0.84041 0.51088 0.0
C306 C 0.40766 0.81946 0.49822 0.0
C307 C 0.43706 0.82122 0.52974 0.0
C308 C 0.46352 0.83157 0.53595 0.0
C309 C 0.42987 0.83885 0.4797 0.0
C310 C 0.40316 0.82845 0.47346 0.0
C311 C 0.49613 0.8508 0.51735 0.0
H312 H 0.51239 0.95217 0.43535 0.0
H313 H 0.48213 0.93265 0.44654 0.0
H314 H 0.53995 0.9341 0.55179 0.0
H315 H 0.5687 0.95358 0.54091 0.0
H316 H 0.4402 0.81454 0.54959 0.0
H317 H 0.48737 0.83261 0.56018 0.0
H318 H 0.42746 0.84556 0.45993 0.0
H319 H 0.38102 0.82735 0.44888 0.0
H320 H 0.30747 0.37051 0.01325 0.0
H321 H 0.43079 0.37113 0.01273 0.0
H322 H 0.4263 0.40664 0.99331 0.0
H323 H 0.30357 0.40615 0.99366 0.0
H324 H 0.51811 0.38129 0.95558 0.0
H325 H 0.54905 0.4004 0.07925 0.0
H326 H 0.47316 0.39319 0.06887 0.0
H327 H 0.48998 0.40689 0.04995 0.0
C328 C 0.33267 0.37846 0.00897 0.0
C329 C 0.2955 0.38828 0.00353 0.0
C330 C 0.40309 0.37879 0.00864 0.0
C331 C 0.43747 0.38894 0.00333 0.0
C332 C 0.40064 0.39874 -0.00214 0.0
H333 H 0.86212 0.40774 0.00244 0.0
H334 H 0.73885 0.40781 0.00155 0.0
C335 C 0.33042 0.39842 -0.00208 0.0
C336 C 0.51195 0.38932 0.00269 0.0
H337 H 0.6474 0.3981 0.04605 0.0
C338 C 0.54653 0.38492 0.97539 0.0
C339 C 0.5486 0.39419 0.02836 0.0
C340 C 0.51361 0.39889 0.05846 0.0
C341 C 0.61703 0.38536 0.97286 0.0
C342 C 0.65399 0.39004 -0.00108 0.0
C343 C 0.61917 0.39451 0.02611 0.0
C344 C 0.72874 0.39007 -0.00102 0.0
C345 C 0.65101 0.38103 0.94187 0.0
C346 C 0.76403 0.38007 -0.00164 0.0
C347 C 0.8342 0.38001 -0.00147 0.0
C348 C 0.8709 0.38994 -6e-05 0.0
C349 C 0.83549 0.39995 0.00125 0.0
C350 C 0.76504 0.4 0.00076 0.0
H351 H 0.6165 0.38113 0.91985 0.0
H352 H 0.69652 0.38599 0.93403 0.0
H353 H 0.66636 0.37232 0.948 0.0
H354 H 0.73725 0.37226 -0.00193 0.0
H355 H 0.85958 0.37212 -0.002 0.0
H356 H 0.2147 0.62361 0.01604 0.0
H357 H 0.33804 0.62368 0.01728 0.0
H358 H 0.34019 0.65907 -0.00537 0.0
H359 H 0.21764 0.65914 0.99316 0.0
H360 H 0.43224 0.63323 0.96113 0.0
H361 H 0.45325 0.65285 0.08452 0.0
H362 H 0.37799 0.64574 0.07262 0.0
H363 H 0.39727 0.65935 0.05366 0.0
C364 C 0.24137 0.63141 0.01129 0.0
C365 C 0.20607 0.64137 0.00457 0.0
C366 C 0.3118 0.63142 0.01199 0.0
C367 C 0.34798 0.6414 0.00643 0.0
C368 C 0.31307 0.65131 -0.00062 0.0
H369 H 0.76928 0.6608 0.01101 0.0
H370 H 0.64618 0.6603 0.0094 0.0
C371 C 0.24292 0.6513 -0.0016 0.0
C372 C 0.42239 0.64151 0.00764 0.0
H373 H 0.55417 0.65045 0.05336 0.0
C374 C 0.45908 0.63693 0.98136 0.0
C375 C 0.45695 0.64645 0.03388 0.0
C376 C 0.41962 0.65133 0.06298 0.0
C377 C 0.5297 0.63733 0.98028 0.0
C378 C 0.56452 0.64217 0.00677 0.0
C379 C 0.52758 0.64674 0.03308 0.0
C380 C 0.6392 0.64248 0.00787 0.0
C381 C 0.56613 0.63284 0.95023 0.0
C382 C 0.6762 0.63262 0.00819 0.0
C383 C 0.74639 0.63289 0.00881 0.0
C384 C 0.78126 0.64302 0.00969 0.0
C385 C 0.74408 0.65287 0.01028 0.0
C386 C 0.67371 0.65259 0.00935 0.0
H387 H 0.53308 0.63263 0.92771 0.0
H388 H 0.61142 0.6379 0.9427 0.0
H389 H 0.58233 0.62423 0.95731 0.0
H390 H 0.65078 0.62469 0.00812 0.0
H391 H 0.77326 0.62513 0.0088 0.0
H392 H 0.8627 0.65908 0.49933 0.0
H393 H 0.74013 0.65948 0.50013 0.0
H394 H 0.73402 0.62382 0.515 0.0
H395 H 0.85702 0.62334 0.51522 0.0
H396 H 0.65107 0.65099 0.45877 0.0
H397 H 0.60914 0.63214 0.59047 0.0
H398 H 0.69099 0.63676 0.57471 0.0
H399 H 0.6581 0.62356 0.56424 0.0
C400 C 0.83545 0.6513 0.50289 0.0
C401 C 0.86986 0.64117 0.5074 0.0
C402 C 0.76523 0.65156 0.50334 0.0
C403 C 0.72769 0.64171 0.50822 0.0
C404 C 0.7618 0.63155 0.51213 0.0
H405 H 0.30585 0.62532 0.50012 0.0
H406 H 0.42852 0.62559 0.50064 0.0
C407 C 0.8322 0.63129 0.51202 0.0
C408 C 0.65296 0.64211 0.50837 0.0
H409 H 0.51249 0.63428 0.55555 0.0
C410 C 0.62084 0.64741 0.48005 0.0
C411 C 0.61341 0.63747 0.53622 0.0
C412 C 0.64462 0.63226 0.56827 0.0
C413 C 0.55041 0.64799 0.47854 0.0
C414 C 0.5111 0.64318 0.50608 0.0
C415 C 0.54297 0.63794 0.53445 0.0
C416 C 0.43665 0.64323 0.50549 0.0
C417 C 0.51829 0.65352 0.44723 0.0
C418 C 0.40058 0.65308 0.50824 0.0
C419 C 0.33012 0.65297 0.50815 0.0
C420 C 0.29467 0.643 0.50513 0.0
C421 C 0.33132 0.63317 0.50231 0.0
C422 C 0.40152 0.63328 0.50268 0.0
H423 H 0.55527 0.65533 0.42601 0.0
H424 H 0.47754 0.64821 0.43818 0.0
H425 H 0.4954 0.66146 0.45385 0.0
H426 H 0.42693 0.66083 0.51073 0.0
H427 H 0.30355 0.66068 0.5104 0.0
H428 H 0.76917 0.37235 0.46713 0.0
H429 H 0.64618 0.37312 0.46512 0.0
H430 H 0.64574 0.39776 0.53936 0.0
H431 H 0.7684 0.39744 0.54002 0.0
H432 H 0.55121 0.36841 0.50872 0.0
H433 H 0.52824 0.41308 0.47129 0.0
H434 H 0.60812 0.40611 0.47147 0.0
H435 H 0.57318 0.41094 0.51038 0.0
C436 C 0.74277 0.37797 0.48289 0.0
C437 C 0.77861 0.38492 0.50346 0.0
C438 C 0.67237 0.37841 0.48173 0.0
C439 C 0.6362 0.38572 0.50142 0.0
C440 C 0.67208 0.39237 0.52288 0.0
H441 H 0.21066 0.37715 0.55383 0.0
H442 H 0.33344 0.37702 0.55206 0.0
C443 C 0.7424 0.3921 0.52349 0.0
C444 C 0.56109 0.38614 0.50031 0.0
H445 H 0.42784 0.40388 0.49294 0.0
C446 C 0.52437 0.37617 0.50496 0.0
C447 C 0.52544 0.39622 0.49469 0.0
C448 C 0.56086 0.40717 0.48629 0.0
C449 C 0.45363 0.37602 0.50493 0.0
C450 C 0.418 0.38616 0.5016 0.0
C451 C 0.45469 0.3961 0.49612 0.0
C452 C 0.3429 0.38665 0.50346 0.0
C453 C 0.41817 0.36492 0.50762 0.0
C454 C 0.30667 0.39263 0.47777 0.0
C455 C 0.23622 0.39299 0.47928 0.0
C456 C 0.20039 0.38728 0.50633 0.0
C457 C 0.23667 0.3815 0.53237 0.0
C458 C 0.30705 0.38133 0.5312 0.0
H459 H 0.45079 0.35833 0.49816 0.0
H460 H 0.40567 0.36255 0.53485 0.0
H461 H 0.37099 0.36518 0.49285 0.0
H462 H 0.33285 0.39689 0.4562 0.0
H463 H 0.2098 0.39751 0.4588 0.0
H464 H 0.80073 0.90519 -0.00253 0.0
H465 H 0.92355 0.90562 -0.00277 0.0
H466 H 0.92715 0.87027 0.02081 0.0
H467 H 0.80393 0.86972 0.02122 0.0
H468 H 1.01145 0.89729 0.05384 0.0
H469 H 0.05066 0.87665 0.93292 0.0
H470 H 0.97229 0.88318 0.94348 0.0
H471 H 0.99347 0.86994 0.96395 0.0
C472 C 0.82744 0.89748 0.00251 0.0
C473 C 0.79232 0.8874 0.00923 0.0
C474 C 0.89768 0.89776 0.00244 0.0
C475 C 0.93428 0.88798 0.00872 0.0
C476 C 0.89967 0.8779 0.01556 0.0
H477 H 0.35553 0.87138 0.0093 0.0
H478 H 0.23312 0.87164 0.01011 0.0
C479 C 0.82928 0.87761 0.0159 0.0
C480 C 1.00874 0.88836 0.00841 0.0
H481 H 0.14744 0.88056 0.96402 0.0
C482 C 0.04138 0.89367 0.0342 0.0
C483 C 0.04731 0.88362 0.98274 0.0
C484 C 1.01446 0.87808 0.95399 0.0
C485 C 0.1119 0.89413 0.03548 0.0
C486 C 0.15069 0.88943 0.00969 0.0
C487 C 0.11777 0.88419 0.98375 0.0
C488 C 0.22544 0.88948 0.00964 0.0
C489 C 0.14405 0.89936 0.06503 0.0
C490 C 0.26221 0.89945 0.00883 0.0
C491 C 0.33267 0.89934 0.00867 0.0
C492 C 0.36762 0.88926 0.00877 0.0
C493 C 0.33048 0.87931 0.00911 0.0
C494 C 0.26031 0.87943 0.00958 0.0
H495 H 0.1085 0.89976 0.08704 0.0
H496 H 0.18926 0.89469 0.07381 0.0
H497 H 0.15976 0.90796 0.05673 0.0
H498 H 0.23649 0.90733 0.00799 0.0
H499 H 0.35966 0.90715 0.00811 0.0
H500 H 0.26528 0.16008 0.01014 0.0
H501 H 0.14201 0.15945 0.01001 0.0
H502 H 0.14777 0.12467 0.99292 0.0
H503 H 0.27054 0.12518 0.99287 0.0
H504 H 0.05814 0.15151 0.95354 0.0
H505 H 1.01992 0.12752 0.07884 0.0
H506 H 0.09636 0.13519 0.06787 0.0
H507 H 0.08083 0.12221 0.04988 0.0
C508 C 0.24037 0.15229 0.00646 0.0
C509 C 0.27792 0.14269 0.00153 0.0
C510 C 0.16998 0.15195 0.00636 0.0
C511 C 0.13596 0.14199 0.0018 0.0
C512 C 0.17315 0.1324 -0.00312 0.0
H513 H 0.71117 0.12331 0.00242 0.0
H514 H 0.83447 0.12324 0.00171 0.0
C515 C 0.24338 0.13275 -0.00331 0.0
C516 C 0.06152 0.14163 0.00131 0.0
H517 H 0.92346 0.1312 0.04567 0.0
C518 C 1.02855 0.14711 0.9737 0.0
C519 C 1.02335 0.13576 0.02745 0.0
C520 C 0.05659 0.12988 0.05788 0.0
C521 C 0.95818 0.1468 0.97136 0.0
C522 C 0.91968 0.14111 -0.00212 0.0
C523 C 0.95289 0.13556 0.02538 0.0
C524 C 0.84493 0.14111 -0.00194 0.0
C525 C 0.92601 0.15236 0.94007 0.0
C526 C 0.8098 0.15115 -0.00319 0.0
C527 C 0.73961 0.15122 -0.00311 0.0
C528 C 0.70272 0.14123 -0.00119 0.0
C529 C 0.73794 0.13115 0.00082 0.0
C530 C 0.80842 0.1311 0.00042 0.0
H531 H 0.96179 0.15314 0.91797 0.0
H532 H 0.88095 0.1477 0.93263 0.0
H533 H 0.91028 0.16084 0.94562 0.0
H534 H 0.83669 0.15897 -0.00397 0.0
H535 H 0.71434 0.15915 -0.00418 0.0
H536 H 0.36337 0.13084 0.54715 0.0
H537 H 0.24044 0.13152 0.54804 0.0
H538 H 0.245 0.15201 0.45332 0.0
H539 H 0.36788 0.15182 0.4533 0.0
H540 H 0.15599 0.15975 0.49333 0.0
H541 H 0.11201 0.11453 0.4962 0.0
H542 H 0.1598 0.11819 0.53207 0.0
H543 H 0.19456 0.12056 0.48943 0.0
C544 C 0.33812 0.13544 0.52641 0.0
C545 C 0.37546 0.14123 0.50006 0.0
C546 C 0.26765 0.13576 0.52681 0.0
C547 C 0.23282 0.14161 0.50033 0.0
C548 C 0.27027 0.14741 0.47403 0.0
H549 H 0.80887 0.13129 0.46132 0.0
H550 H 0.93158 0.13159 0.46125 0.0
C551 C 0.34068 0.14728 0.474 0.0
C552 C 0.15762 0.14193 0.50029 0.0
H553 H 1.01655 0.12561 0.50693 0.0
C554 C 0.12557 0.15227 0.49611 0.0
C555 C 0.11742 0.13219 0.50338 0.0
C556 C 0.14772 0.12075 0.50514 0.0
C557 C 0.05506 0.15315 0.49503 0.0
C558 C 1.01483 0.14343 0.49965 0.0
C559 C 0.04693 0.1331 0.50375 0.0
C560 C 0.93963 0.14369 0.49911 0.0
C561 C 1.02487 0.16448 0.48779 0.0
C562 C 0.90242 0.15039 0.52037 0.0
C563 C 0.83188 0.15041 0.51984 0.0
C564 C 0.79697 0.14349 0.49878 0.0
C565 C 0.83416 0.1367 0.47791 0.0
C566 C 0.9045 0.13685 0.4779 0.0
H567 H 0.06132 0.17031 0.47421 0.0
H568 H 0.97914 0.16409 0.47205 0.0
H569 H 1.01091 0.16796 0.51232 0.0
H570 H 0.92777 0.15548 0.53781 0.0
H571 H 0.80467 0.15563 0.53656 0.0
H572 H 0.71172 0.90554 0.50865 0.0
H573 H 0.83504 0.90563 0.50773 0.0
H574 H 0.83498 0.86997 0.50804 0.0
H575 H 0.71263 0.8698 0.50806 0.0
H576 H 0.92345 0.89633 0.55317 0.0
H577 H 0.96052 0.87812 0.42878 0.0
H578 H 0.88002 0.88315 0.44256 0.0
H579 H 0.90842 0.86959 0.45775 0.0
C580 C 0.73799 0.89772 0.50831 0.0
C581 C 0.70213 0.88768 0.50808 0.0
C582 C 0.80847 0.89779 0.50779 0.0
C583 C 0.84435 0.88782 0.50707 0.0
C584 C 0.80858 0.87779 0.50754 0.0
H585 H 0.2634 0.86839 0.52285 0.0
H586 H 0.14016 0.86903 0.52241 0.0
C587 C 0.7384 0.87772 0.50776 0.0
C588 C 0.91909 0.88782 0.50688 0.0
H589 H 0.05692 0.87867 0.46422 0.0
C590 C 0.95262 0.89256 0.53355 0.0
C591 C 0.95725 0.88289 0.48125 0.0
C592 C 0.92475 0.87825 0.45079 0.0
C593 C 1.02305 0.89227 0.5357 0.0
C594 C 0.06086 0.88715 0.51048 0.0
C595 C 1.02759 0.88249 0.48369 0.0
C596 C 0.13527 0.88677 0.51107 0.0
C597 C 0.05663 0.89726 0.56524 0.0
C598 C 0.17308 0.89651 0.50449 0.0
C599 C 0.24329 0.89618 0.50448 0.0
C600 C 0.27717 0.88607 0.51117 0.0
C601 C 0.239 0.87631 0.51774 0.0
C602 C 0.16863 0.87665 0.51746 0.0
H603 H 1.02007 0.89903 0.58583 0.0
H604 H 0.09592 0.89163 0.57618 0.0
H605 H 0.08153 0.90517 0.55596 0.0
H606 H 0.14822 0.90438 0.49912 0.0
H607 H 0.27092 0.90387 0.49935 0.0
H608 H 0.10155 0.56457 0.94986 0.0
H609 H 0.10221 0.54472 0.94002 0.0
H610 H 0.96423 0.53818 0.02501 0.0
H611 H 0.96265 0.55788 0.03475 0.0
H612 H 0.13719 0.52644 0.98978 0.0
H613 H 0.87579 0.5234 0.94386 0.0
H614 H 0.92073 0.53642 0.94383 0.0
H615 H 0.88398 0.53022 0.98281 0.0
C616 C 0.07114 0.55889 0.9663 0.0
C617 C 1.03232 0.56279 0.99319 0.0
C618 C 0.07168 0.54758 0.9607 0.0
C619 C 1.03258 0.54002 0.98152 0.0
C620 C 0.99403 0.54389 0.00837 0.0
H621 H 0.95289 0.47059 0.01759 0.0
H622 H 0.9529 0.49085 0.01276 0.0
C623 C 0.99384 0.55515 0.01413 0.0
C624 C 1.03321 0.52802 0.97617 0.0
H625 H 0.93086 0.50637 0.95951 0.0
C626 C 0.09246 0.52205 0.98269 0.0
C627 C 0.97461 0.52234 0.96707 0.0
C628 C 0.91023 0.52841 0.95868 0.0
C629 C 0.0939 0.51046 0.98185 0.0
C630 C 1.03481 0.50473 0.97343 0.0
C631 C 0.97608 0.51076 0.96597 0.0
C632 C 1.03195 0.49243 0.97416 0.0
C633 C 0.15781 0.50442 0.99157 0.0
C634 C 0.0749 0.48657 0.95329 0.0
C635 C 0.07559 0.47497 0.95628 0.0
C636 C 1.03279 0.46899 0.97998 0.0
C637 C 0.9874 0.47491 -0.00045 0.0
C638 C 0.98702 0.4865 -0.00334 0.0
H639 H 0.19278 0.50969 0.00523 0.0
H640 H 0.14672 0.49677 0.00812 0.0
H641 H 0.18396 0.502 0.96807 0.0
H642 H 0.10895 0.49096 0.93519 0.0
H643 H 0.11154 0.47072 0.94094 0.0
H644 H 1.00248 0.4697 0.44314 0.0
H645 H 1.00631 0.48979 0.4458 0.0
H646 H 0.07619 0.48569 0.54941 0.0
H647 H 0.07472 0.46553 0.54661 0.0
H648 H 0.93397 0.50209 0.49076 0.0
H649 H 0.20853 0.50849 0.50443 0.0
H650 H 0.17348 0.4958 0.49064 0.0
H651 H 0.17195 0.4984 0.53518 0.0
C652 C 1.0202 0.47305 0.46626 0.0
C653 C 0.03884 0.46598 0.49459 0.0
C654 C 1.02173 0.48455 0.46782 0.0
C655 C 0.04219 0.48924 0.49765 0.0
C656 C 0.06132 0.48225 0.52592 0.0
H657 H 0.06787 0.55639 0.55977 0.0
H658 H 0.06455 0.53629 0.55706 0.0
C659 C 0.05983 0.47072 0.52439 0.0
C660 C 0.04052 0.50144 0.49956 0.0
H661 H 0.1386 0.524 0.51184 0.0
C662 C 0.97874 0.50689 0.49522 0.0
C663 C 0.09898 0.50768 0.50543 0.0
C664 C 0.16715 0.50233 0.50889 0.0
C665 C 0.97362 0.51841 0.49713 0.0
C666 C 1.03207 0.52464 0.50302 0.0
C667 C 0.09384 0.51919 0.50737 0.0
C668 C 1.03034 0.53684 0.50491 0.0
C669 C 0.90551 0.52377 0.49358 0.0
C670 C 1.01201 0.54383 0.47648 0.0
C671 C 1.01331 0.55535 0.47802 0.0
C672 C 1.03321 0.56009 0.50801 0.0
C673 C 0.05102 0.55303 0.5365 0.0
C674 C 0.04977 0.54153 0.53491 0.0
H675 H 0.86405 0.51761 0.49774 0.0
H676 H 0.89899 0.53025 0.51201 0.0
H677 H 0.90107 0.52778 0.46738 0.0
H678 H 0.99788 0.54038 0.45288 0.0
H679 H 0.99912 0.56054 0.45567 0.0
H680 H 0.63312 0.97014 0.95073 0.0
H681 H 0.63315 0.99039 0.94655 0.0
H682 H 0.44227 0.99022 0.00019 0.0
H683 H 0.44081 0.96992 0.00368 0.0
H684 H 0.45334 1.00633 0.94334 0.0
H685 H 0.66942 1.00793 0.03096 0.0
H686 H 0.68345 1.00001 -0.0055 0.0
H687 H 0.62171 0.99541 0.0264 0.0
C688 C 0.59037 0.97439 0.96101 0.0
C689 C 0.53701 0.96838 0.97767 0.0
C690 C 0.59091 0.98597 0.95895 0.0
C691 C 0.53833 0.99179 0.9736 0.0
C692 C 0.48361 0.98587 0.98895 0.0
H693 H 0.52892 0.05847 0.03699 0.0
H694 H 0.53199 0.03846 0.03236 0.0
C695 C 0.48302 0.97428 0.99107 0.0
C696 C 0.54154 1.00404 0.97405 0.0
H697 H 0.63082 0.02505 0.00595 0.0
C698 C 0.4922 1.01045 0.95692 0.0
C699 C 0.59186 1.00935 0.99217 0.0
C700 C 0.64436 1.00285 0.01233 0.0
C701 C 0.49202 0.02206 0.95729 0.0
C702 C 0.54305 0.02738 0.97493 0.0
C703 C 0.5922 0.02095 0.99215 0.0
C704 C 0.54436 0.03957 0.97733 0.0
C705 C 0.4362 0.0285 0.93961 0.0
C706 C 0.55193 0.04685 0.94798 0.0
C707 C 0.55067 0.05833 0.95055 0.0
C708 C 0.54225 0.06274 0.98258 0.0
C709 C 0.53656 0.05539 0.01198 0.0
C710 C 0.53779 0.04394 0.00937 0.0
H711 H 0.39315 0.02308 0.93398 0.0
H712 H 0.41768 0.03513 0.95547 0.0
H713 H 0.45564 0.03249 0.91503 0.0
H714 H 0.55853 0.04365 0.92307 0.0
H715 H 0.55607 0.06375 0.92746 0.0
H716 H 0.476 0.06156 0.46318 0.0
H717 H 0.47256 0.04154 0.45627 0.0
H718 H 0.63013 0.03652 0.52995 0.0
H719 H 0.63336 0.05637 0.53718 0.0
H720 H 0.57073 0.02717 0.43579 0.0
H721 H 0.48692 0.01503 0.5686 0.0
H722 H 0.48443 0.02918 0.55063 0.0
H723 H 0.56182 0.02338 0.5668 0.0
C724 C 0.50982 0.05616 0.47788 0.0
C725 C 0.55417 0.06052 0.50115 0.0
C726 C 0.50778 0.04474 0.47395 0.0
C727 C 0.55007 0.0375 0.49316 0.0
C728 C 0.59564 0.04189 0.51562 0.0
H729 H 0.63931 0.96765 0.51325 0.0
H730 H 0.64197 0.98791 0.51165 0.0
C731 C 0.5974 0.05325 0.51973 0.0
C732 C 0.54744 0.02537 0.48972 0.0
H733 H 0.52821 1.00051 0.53605 0.0
C734 C 0.56082 0.02133 0.45762 0.0
C735 C 0.53421 0.01776 0.51822 0.0
C736 C 0.51535 0.02155 0.55292 0.0
C737 C 0.56347 1.00989 0.45353 0.0
C738 C 0.55216 1.00233 0.48224 0.0
C739 C 0.53766 1.00635 0.51416 0.0
C740 C 0.55447 0.99016 0.47993 0.0
C741 C 0.57997 1.00594 0.41879 0.0
C742 C 0.50481 0.98474 0.4623 0.0
C743 C 0.5027 0.97316 0.46343 0.0
C744 C 0.55023 0.96677 0.48229 0.0
C745 C 0.60143 0.97229 0.49886 0.0
C746 C 0.60325 0.98386 0.49785 0.0
H747 H 0.59982 1.01274 0.40082 0.0
H748 H 0.61756 0.99917 0.42091 0.0
H749 H 0.53372 1.00258 0.4078 0.0
H750 H 0.46604 0.98945 0.4488 0.0
H751 H 0.46186 0.96922 0.45087 0.0
H752 H 0.19787 0.31101 0.92991 0.0
H753 H 0.23448 0.29173 0.92771 0.0
H754 H 0.24928 0.28875 0.0375 0.0
H755 H 0.21172 0.3079 0.04001 0.0
H756 H 0.35651 0.28128 0.9548 0.0
H757 H 0.12249 0.26289 0.0143 0.0
H758 H 0.12707 0.27701 -0.004 0.0
H759 H 0.16155 0.27344 0.03736 0.0
C760 C 0.20884 0.30624 0.95358 0.0
C761 C 0.20169 0.31098 0.98514 0.0
C762 C 0.22998 0.29525 0.95226 0.0
C763 C 0.24363 0.28879 0.98247 0.0
C764 C 0.2381 0.29356 0.01393 0.0
H765 H 0.35987 0.22126 0.03737 0.0
H766 H 0.32196 0.24048 0.03549 0.0
C767 C 0.21733 0.30455 0.01527 0.0
C768 C 0.26334 0.27702 0.98121 0.0
H769 H 0.2127 0.25061 0.00595 0.0
C770 C 0.32501 0.27455 0.96576 0.0
C771 C 0.22206 0.2683 -0.00439 0.0
C772 C 0.1543 0.27048 0.01154 0.0
C773 C 0.34746 0.26357 0.96517 0.0
C774 C 0.30624 0.25482 0.97969 0.0
C775 C 0.24421 0.25731 -0.00518 0.0
C776 C 0.3273 0.24304 0.98034 0.0
C777 C 0.41604 0.26148 0.95002 0.0
C778 C 0.34149 0.238 0.94992 0.0
C779 C 0.36323 0.227 0.95091 0.0
C780 C 0.37033 0.22078 0.98236 0.0
C781 C 0.35419 0.22577 0.01271 0.0
C782 C 0.33287 0.23678 0.0117 0.0
H783 H 0.44796 0.26907 0.94835 0.0
H784 H 0.44255 0.25482 0.96538 0.0
H785 H 0.41025 0.2588 0.92375 0.0
H786 H 0.33586 0.24258 0.92538 0.0
H787 H 0.37436 0.22334 0.92708 0.0
H788 H 0.59255 0.80251 0.9844 0.0
H789 H 0.63447 0.7837 0.98013 0.0
H790 H 0.83819 0.79565 0.98593 0.0
H791 H 0.79677 0.81456 0.98986 0.0
H792 H 0.72355 0.77515 0.93192 0.0
H793 H 0.82511 0.77085 0.06328 0.0
H794 H 0.76773 0.78173 0.04948 0.0
H795 H 0.85523 0.78278 0.0375 0.0
C796 C 0.64635 0.80119 0.98432 0.0
C797 C 0.6913 0.81006 0.98753 0.0
C798 C 0.67017 0.79041 0.98207 0.0
C799 C 0.73933 0.78826 0.98321 0.0
C800 C 0.78451 0.7971 0.9857 0.0
H801 H 0.98024 0.72892 0.98214 0.0
H802 H 0.93821 0.74787 0.98093 0.0
C803 C 0.76075 0.8079 0.98795 0.0
C804 C 0.76397 0.77674 0.98192 0.0
H805 H 0.84891 0.75633 0.02763 0.0
C806 C 0.75081 0.77101 0.95285 0.0
C807 C 0.79931 0.77136 0.00934 0.0
C808 C 0.81228 0.77694 0.04182 0.0
C809 C 0.77326 0.7601 0.95017 0.0
C810 C 0.80879 0.75474 0.97755 0.0
C811 C 0.82176 0.76047 0.00665 0.0
C812 C 0.83373 0.74323 0.97652 0.0
C813 C 0.7601 0.7545 0.91778 0.0
C814 C 0.78888 0.73431 0.97449 0.0
C815 C 0.81283 0.72344 0.97491 0.0
C816 C 0.8821 0.72129 0.97748 0.0
C817 C 0.92675 0.73027 0.97945 0.0
C818 C 0.90278 0.74111 0.97905 0.0
H819 H 0.74736 0.76057 0.89628 0.0
H820 H 0.8045 0.74966 0.91017 0.0
H821 H 0.71701 0.74869 0.9222 0.0
H822 H 0.73525 0.73574 0.97313 0.0
H823 H 0.77713 0.71672 0.97324 0.0
H824 H 0.30257 0.71547 0.49476 0.0
H825 H 0.33893 0.73485 0.49313 0.0
H826 H 0.14979 0.74511 0.44932 0.0
H827 H 0.11185 0.72583 0.4522 0.0
H828 H 0.35337 0.75112 0.43965 0.0
H829 H 0.15886 0.76297 0.53325 0.0
H830 H 0.17704 0.74872 0.52611 0.0
H831 H 0.12609 0.75688 0.49651 0.0
C832 C 0.26853 0.72184 0.48492 0.0
C833 C 0.20401 0.71907 0.4739 0.0
C834 C 0.28959 0.73292 0.48379 0.0
C835 C 0.24658 0.74144 0.47171 0.0
C836 C 0.18329 0.73868 0.4594 0.0
H837 H 0.29112 0.81364 0.46719 0.0
H838 H 0.25175 0.7949 0.45724 0.0
C839 C 0.16206 0.72762 0.46063 0.0
C840 C 0.26758 0.7532 0.47268 0.0
H841 H 0.22777 0.77738 0.50803 0.0
C842 C 0.32588 0.75687 0.45455 0.0
C843 C 0.23157 0.7607 0.49213 0.0
C844 C 0.17025 0.75713 0.51337 0.0
C845 C 0.34912 0.76783 0.45533 0.0
C846 C 0.31358 0.77527 0.47511 0.0
C847 C 0.25469 0.77167 0.49276 0.0
C848 C 0.33866 0.78665 0.47943 0.0
C849 C 0.41133 0.77138 0.43482 0.0
C850 C 0.40026 0.7882 0.49536 0.0
C851 C 0.42278 0.79885 0.50104 0.0
C852 C 0.38397 0.80819 0.49108 0.0
C853 C 0.32242 0.80663 0.47487 0.0
C854 C 0.29976 0.79593 0.46931 0.0
H855 H 0.42143 0.76584 0.41396 0.0
H856 H 0.40666 0.78002 0.42351 0.0
H857 H 0.45534 0.77102 0.4519 0.0
H858 H 0.43054 0.78114 0.50391 0.0
H859 H 0.47077 0.79976 0.51322 0.0
H860 H 0.93506 0.30427 0.47316 0.0
H861 H 0.89407 0.28522 0.471 0.0
H862 H 0.75952 0.28972 0.55608 0.0
H863 H 0.79878 0.30885 0.55783 0.0
H864 H 0.90129 0.26837 0.52435 0.0
H865 H 0.63697 0.27632 0.48651 0.0
H866 H 0.70155 0.28689 0.48186 0.0
H867 H 0.66345 0.28327 0.52301 0.0
C868 C 0.89575 0.30129 0.49096 0.0
C869 C 0.87012 0.3081 0.51563 0.0
C870 C 0.87278 0.29037 0.48986 0.0
C871 C 0.82336 0.28609 0.51318 0.0
C872 C 0.79696 0.2929 0.53752 0.0
H873 H 0.63014 0.22112 0.54514 0.0
H874 H 0.66969 0.24006 0.55168 0.0
C875 C 0.81995 0.3038 0.53868 0.0
C876 C 0.80173 0.27434 0.51305 0.0
H877 H 0.66573 0.25769 0.50224 0.0
C878 C 0.84984 0.26602 0.51942 0.0
C879 C 0.73446 0.27131 0.5069 0.0
C880 C 0.68112 0.2799 0.49889 0.0
C881 C 0.83244 0.25475 0.52 0.0
C882 C 0.76537 0.25172 0.51339 0.0
C883 C 0.71708 0.26003 0.50739 0.0
C884 C 0.74474 0.23999 0.51116 0.0
C885 C 0.88583 0.24619 0.52819 0.0
C886 C 0.77402 0.23365 0.48635 0.0
C887 C 0.75191 0.22283 0.48273 0.0
C888 C 0.69957 0.21813 0.50365 0.0
C889 C 0.67108 0.22444 0.52891 0.0
C890 C 0.69326 0.23528 0.53251 0.0
H891 H 0.92801 0.24967 0.54234 0.0
H892 H 0.86468 0.2389 0.54366 0.0
H893 H 0.90667 0.2433 0.504 0.0
H894 H 0.81298 0.23716 0.4692 0.0
H895 H 0.77533 0.21817 0.46322 0.0
H896 H 0.15277 0.39674 0.11627 0.0
H897 H 0.14182 0.39552 0.17867 0.0
H898 H 0.96536 0.3749 0.17294 0.0
H899 H 0.97769 0.37572 0.11078 0.0
H900 H 0.0481 0.40215 0.2197 0.0
H901 H 0.06751 0.35666 0.24268 0.0
H902 H 0.08583 0.36372 0.20151 0.0
H903 H 1.00025 0.36044 0.21439 0.0
C904 C 0.11194 0.39188 0.12834 0.0
C905 C 0.0665 0.38623 0.10859 0.0
C906 C 0.10568 0.39119 0.16404 0.0
C907 C 0.05359 0.38492 0.18071 0.0
C908 C 1.0073 0.37949 0.1609 0.0
H909 H 0.91399 0.39416 0.38833 0.0
H910 H 0.92898 0.39431 0.32633 0.0
C911 C 1.01413 0.38003 0.12527 0.0
C912 C 0.04635 0.38437 0.21866 0.0
H913 H 1.02654 0.36643 0.28954 0.0
C914 C 0.04389 0.39433 0.23497 0.0
C915 C 0.04205 0.37418 0.23881 0.0
C916 C 0.04979 0.36315 0.22348 0.0
C917 C 1.036 0.39439 0.27062 0.0
C918 C 1.02784 0.38421 0.29055 0.0
C919 C 1.03168 0.37425 0.27432 0.0
C920 C 1.01642 0.38369 0.32827 0.0
C921 C 0.03814 0.40538 0.28651 0.0
C922 C 0.05825 0.37721 0.35015 0.0
C923 C 0.04866 0.37688 0.38564 0.0
C924 C 0.99734 0.3831 0.40001 0.0
C925 C 0.95449 0.38937 0.37808 0.0
C926 C 0.96342 0.38955 0.34259 0.0
H927 H 0.06586 0.41175 0.26987 0.0
H928 H 0.98606 0.40841 0.28994 0.0
H929 H 0.06245 0.40463 0.31185 0.0
H930 H 0.09922 0.37255 0.33979 0.0
H931 H 0.08266 0.37199 0.40182 0.0
H932 H 0.95235 0.62736 0.12388 0.0
H933 H 0.96454 0.62718 0.18597 0.0
H934 H 0.07721 0.65778 0.17368 0.0
H935 H 0.065 0.6581 0.11179 0.0
H936 H 0.087 0.62727 0.22296 0.0
H937 H 0.93024 0.66404 0.245 0.0
H938 H 0.92649 0.6569 0.20619 0.0
H939 H 0.99447 0.66633 0.21251 0.0
C940 C 0.97934 0.63409 0.13439 0.0
C941 C 1.00743 0.64277 0.11285 0.0
C942 C 0.98634 0.63396 0.16985 0.0
C943 C 1.021 0.64255 0.1844 0.0
C944 C 0.04923 0.65119 0.163 0.0
H945 H 0.12225 0.65693 0.39144 0.0
H946 H 0.11103 0.65707 0.32934 0.0
C947 C 0.04245 0.65131 0.12759 0.0
C948 C 1.02946 0.64231 0.2219 0.0
H949 H 0.99333 0.65655 0.29192 0.0
C950 C 0.06626 0.63363 0.23811 0.0
C951 C 1.00263 0.65066 0.24149 0.0
C952 C 0.96074 0.65997 0.22555 0.0
C953 C 0.07795 0.63317 0.27339 0.0
C954 C 0.05094 0.64151 0.29303 0.0
C955 C 1.01414 0.65019 0.27678 0.0
C956 C 0.05921 0.64127 0.33058 0.0
C957 C 0.12035 0.6239 0.28918 0.0
C958 C 1.03329 0.6324 0.35186 0.0
C959 C 0.03977 0.63227 0.38729 0.0
C960 C 0.07187 0.64108 0.40222 0.0
C961 C 0.09751 0.65 0.38082 0.0
C962 C 0.09105 0.6501 0.34533 0.0
H963 H 0.15218 0.6201 0.26971 0.0
H964 H 0.15339 0.62691 0.30915 0.0
H965 H 0.0869 0.61734 0.30135 0.0
H966 H 1.00722 0.62562 0.34109 0.0
H967 H 1.01896 0.6253 0.40295 0.0
H968 H 0.94738 0.6569 0.89164 0.0
H969 H 0.96043 0.65692 0.8296 0.0
H970 H 0.06783 0.62603 0.84103 0.0
H971 H 0.05557 0.62595 0.90319 0.0
H972 H 0.13166 0.64268 0.79687 0.0
H973 H 0.8633 0.63711 0.76453 0.0
H974 H 0.87958 0.64824 0.79127 0.0
H975 H 0.89443 0.63418 0.8072 0.0
C976 C 0.97338 0.65006 0.88103 0.0
C977 C 1.00033 0.64141 0.90245 0.0
C978 C 0.98048 0.65006 0.84552 0.0
C979 C 1.01438 0.64141 0.83075 0.0
C980 C 0.04122 0.63276 0.85198 0.0
H981 H 0.12941 0.62745 0.62375 0.0
H982 H 0.11511 0.62741 0.68572 0.0
C983 C 1.03405 0.63273 0.8875 0.0
C984 C 1.024 0.6416 0.79319 0.0
H985 H 0.93942 0.64127 0.71821 0.0
C986 C 0.08972 0.64232 0.77963 0.0
C987 C 0.9691 0.64119 0.77084 0.0
C988 C 0.8976 0.64004 0.7841 0.0
C989 C 0.10202 0.64281 0.74421 0.0
C990 C 0.04713 0.64235 0.72185 0.0
C991 C 0.98139 0.64164 0.73542 0.0
C992 C 0.05678 0.64249 0.68426 0.0
C993 C 0.17355 0.64408 0.73106 0.0
C994 C 1.02751 0.65085 0.66281 0.0
C995 C 1.03513 0.65086 0.62731 0.0
C996 C 0.07195 0.64247 0.6126 0.0
C997 C 0.10115 0.63409 0.63421 0.0
C998 C 0.09334 0.63408 0.66968 0.0
H999 H 0.20708 0.64735 0.75041 0.0
H1000 H 0.19285 0.63585 0.72491 0.0
H1001 H 0.17646 0.64972 0.70744 0.0
H1002 H 0.9988 0.65739 0.67356 0.0
H1003 H 1.01189 0.65742 0.61143 0.0
H1004 H 0.94962 0.37636 0.62576 0.0
H1005 H 0.96551 0.37827 0.68659 0.0
H1006 H 0.08201 0.40806 0.66305 0.0
H1007 H 0.06668 0.40621 0.6018 0.0
H1008 H 0.14204 0.39253 0.71121 0.0
H1009 H 0.87708 0.40097 0.74649 0.0
H1010 H 0.88756 0.38888 0.72292 0.0
H1011 H 0.90807 0.40233 0.70285 0.0
C1012 C 0.97831 0.38338 0.63339 0.0
C1013 C 1.00669 0.39116 0.6088 0.0
C1014 C 0.98704 0.38448 0.66825 0.0
C1015 C 1.02418 0.39338 0.67937 0.0
C1016 C 0.0528 0.40116 0.65499 0.0
H1017 H 1.03427 0.4084 0.89401 0.0
H1018 H 1.02397 0.40974 0.83178 0.0
C1019 C 0.04383 0.4001 0.62001 0.0
C1020 C 1.03481 0.3943 0.71643 0.0
H1021 H 0.95113 0.39626 0.79243 0.0
C1022 C 0.10042 0.39345 0.72897 0.0
C1023 C 0.98054 0.39562 0.7395 0.0
C1024 C 0.90938 0.39711 0.7273 0.0
C1025 C 0.11297 0.39351 0.76412 0.0
C1026 C 0.05832 0.39432 0.78736 0.0
C1027 C 0.99296 0.39554 0.77467 0.0
C1028 C 0.06753 0.39368 0.82498 0.0
C1029 C 0.18467 0.39276 0.77602 0.0
C1030 C 0.09513 0.38418 0.84191 0.0
C1031 C 0.10126 0.38339 0.87748 0.0
C1032 C 0.07934 0.39205 0.89694 0.0
C1033 C 0.05179 0.40158 0.87988 0.0
C1034 C 0.04579 0.40236 0.84428 0.0
H1035 H 0.22086 0.39543 0.75513 0.0
H1036 H 0.19278 0.39793 0.79787 0.0
H1037 H 0.19594 0.38403 0.7845 0.0
H1038 H 0.11083 0.37727 0.82767 0.0
H1039 H 0.12227 0.3759 0.88971 0.0
H1040 H 0.62238 0.90247 0.11817 0.0
H1041 H 0.60943 0.9028 0.18018 0.0
H1042 H 0.49603 0.87226 0.18372 0.0
H1043 H 0.50778 0.87192 0.12169 0.0
H1044 H 0.43601 0.88832 0.22081 0.0
H1045 H 0.70521 0.88358 0.25392 0.0
H1046 H 0.68854 0.89488 0.22303 0.0
H1047 H 0.67375 0.88088 0.2124 0.0
C1048 C 0.59504 0.89577 0.13213 0.0
C1049 C 0.56637 0.88714 0.11494 0.0
C1050 C 0.58799 0.89596 0.16762 0.0
C1051 C 0.55264 0.88747 0.18663 0.0
C1052 C 0.52379 0.87887 0.16955 0.0
H1053 H 0.44718 0.87205 0.40027 0.0
H1054 H 0.46003 0.87239 0.33815 0.0
C1055 C 0.53067 0.87868 0.13408 0.0
C1056 C 0.5439 0.88771 0.22419 0.0
H1057 H 0.63002 0.88759 0.29886 0.0
C1058 C 0.4784 0.88812 0.23791 0.0
C1059 C 0.5993 0.88748 0.24641 0.0
C1060 C 0.67067 0.88658 0.23331 0.0
C1061 C 0.4668 0.88843 0.27322 0.0
C1062 C 0.52218 0.88816 0.29543 0.0
C1063 C 0.58769 0.88781 0.28173 0.0
C1064 C 0.51322 0.88808 0.33304 0.0
C1065 C 0.39545 0.88923 0.28643 0.0
C1066 C 0.53988 0.8967 0.35085 0.0
C1067 C 0.53285 0.89652 0.38641 0.0
C1068 C 0.49942 0.88766 0.40488 0.0
C1069 C 0.4729 0.87903 0.3869 0.0
C1070 C 0.47988 0.87923 0.35134 0.0
H1071 H 0.36068 0.89219 0.26588 0.0
H1072 H 0.37803 0.88091 0.29673 0.0
H1073 H 0.39227 0.89492 0.30737 0.0
H1074 H 0.56609 0.90358 0.33719 0.0
H1075 H 0.55407 0.90329 0.3994 0.0
H1076 H 0.55556 0.15551 0.10954 0.0
H1077 H 0.56322 0.15386 0.17179 0.0
H1078 H 0.45046 0.12326 0.1758 0.0
H1079 H 0.44282 0.12477 0.11338 0.0
H1080 H 0.45527 0.15237 0.2207 0.0
H1081 H 0.62059 0.11535 0.23183 0.0
H1082 H 0.61051 0.12363 0.19207 0.0
H1083 H 0.54567 0.11406 0.20734 0.0
C1084 C 0.53245 0.1484 0.12357 0.0
C1085 C 0.49872 0.14025 0.10641 0.0
C1086 C 0.53686 0.14749 0.15918 0.0
C1087 C 0.50813 0.13838 0.17835 0.0
C1088 C 0.47393 0.13027 0.16142 0.0
H1089 H 0.51004 0.12215 0.40001 0.0
H1090 H 0.49067 0.12168 0.33854 0.0
C1091 C 0.4693 0.13118 0.12575 0.0
C1092 C 0.51318 0.13755 0.21612 0.0
H1093 H 0.58359 0.12248 0.28329 0.0
C1094 C 0.48316 0.14582 0.23441 0.0
C1095 C 0.54922 0.12895 0.23393 0.0
C1096 C 0.58386 0.12002 0.21539 0.0
C1097 C 0.48857 0.14578 0.27005 0.0
C1098 C 0.52622 0.13736 0.28778 0.0
C1099 C 0.55489 0.12893 0.26961 0.0
C1100 C 0.53888 0.13748 0.32492 0.0
C1101 C 0.4536 0.15472 0.28842 0.0
C1102 C 0.57364 0.1464 0.3375 0.0
C1103 C 0.58477 0.14671 0.37247 0.0
C1104 C 0.56179 0.13804 0.39566 0.0
C1105 C 0.52828 0.12897 0.3829 0.0
C1106 C 0.51714 0.12869 0.34779 0.0
H1107 H 0.41179 0.15847 0.27317 0.0
H1108 H 0.43319 0.15142 0.31366 0.0
H1109 H 0.49023 0.16141 0.29272 0.0
H1110 H 0.5922 0.15316 0.32021 0.0
H1111 H 0.61112 0.15379 0.38127 0.0
H1112 H 0.55533 0.12763 0.89365 0.0
H1113 H 0.57175 0.12878 0.83164 0.0
H1114 H 0.47199 0.1604 0.82372 0.0
H1115 H 0.45603 0.15942 0.88583 0.0
H1116 H 0.47578 0.13055 0.78058 0.0
H1117 H 0.6484 0.16692 0.77065 0.0
H1118 H 0.62923 0.1592 0.81077 0.0
H1119 H 0.57015 0.16907 0.79262 0.0
C1120 C 0.5369 0.13485 0.8788 0.0
C1121 C 0.50461 0.14346 0.89482 0.0
C1122 C 0.54636 0.13549 0.84332 0.0
C1123 C 0.5241 0.14475 0.82311 0.0
C1124 C 0.49088 0.15328 0.83889 0.0
H1125 H 0.53369 0.1608 0.60243 0.0
H1126 H 0.51717 0.16116 0.66437 0.0
C1127 C 0.48139 0.15267 0.87441 0.0
C1128 C 0.53451 0.14533 0.78546 0.0
H1129 H 0.61209 0.16027 0.7186 0.0
C1130 C 0.50569 0.13704 0.76704 0.0
C1131 C 0.57337 0.15383 0.76782 0.0
C1132 C 0.60762 0.16272 0.78643 0.0
C1133 C 0.51429 0.13704 0.73145 0.0
C1134 C 0.55373 0.14546 0.71386 0.0
C1135 C 0.58194 0.15383 0.73218 0.0
C1136 C 0.56708 0.14556 0.67652 0.0
C1137 C 0.48027 0.12811 0.71288 0.0
C1138 C 0.60227 0.13682 0.66292 0.0
C1139 C 0.61189 0.13659 0.62762 0.0
C1140 C 0.5867 0.14512 0.60514 0.0
C1141 C 0.55355 0.15407 0.61895 0.0
C1142 C 0.54402 0.1543 0.65434 0.0
H1143 H 0.43852 0.12407 0.72838 0.0
H1144 H 0.46001 0.13153 0.68813 0.0
H1145 H 0.51754 0.12163 0.70752 0.0
H1146 H 0.62169 0.13011 0.67964 0.0
H1147 H 0.63802 0.12959 0.61799 0.0
H1148 H 0.4448 0.90167 0.6187 0.0
H1149 H 0.46002 0.90283 0.68015 0.0
H1150 H 0.57539 0.87269 0.68413 0.0
H1151 H 0.56135 0.87153 0.62274 0.0
H1152 H 0.4233 0.88784 0.73463 0.0
H1153 H 0.69979 0.89414 0.72885 0.0
H1154 H 0.64819 0.8956 0.69137 0.0
H1155 H 0.6721 0.88207 0.70889 0.0
C1156 C 0.47342 0.89528 0.63263 0.0
C1157 C 0.50217 0.88654 0.61575 0.0
C1158 C 0.48207 0.89597 0.66774 0.0
C1159 C 0.51987 0.88796 0.68657 0.0
C1160 C 0.54737 0.8791 0.66994 0.0
H1161 H 0.62413 0.87405 0.89806 0.0
H1162 H 0.60917 0.87421 0.83631 0.0
C1163 C 0.53888 0.87841 0.63486 0.0
C1164 C 0.52967 0.88876 0.72371 0.0
H1165 H 0.65036 0.89042 0.78415 0.0
C1166 C 0.47288 0.88849 0.74546 0.0
C1167 C 0.59444 0.88962 0.73775 0.0
C1168 C 0.65712 0.89048 0.7155 0.0
C1169 C 0.47921 0.88875 0.78101 0.0
C1170 C 0.54402 0.88947 0.79505 0.0
C1171 C 0.60076 0.88985 0.77328 0.0
C1172 C 0.55409 0.88961 0.83238 0.0
C1173 C 0.41664 0.88794 0.80333 0.0
C1174 C 0.52913 0.89833 0.85053 0.0
C1175 C 0.53762 0.89828 0.88587 0.0
C1176 C 0.57148 0.88952 0.90368 0.0
C1177 C 0.59765 0.88091 0.88523 0.0
C1178 C 0.58919 0.88098 0.84991 0.0
H1179 H 0.37269 0.8849 0.7895 0.0
H1180 H 0.42463 0.88231 0.82652 0.0
H1181 H 0.40432 0.89627 0.8117 0.0
H1182 H 0.50299 0.90517 0.83736 0.0
H1183 H 0.5171 0.90507 0.89922 0.0
loop_
_geom_bond_atom_site_label_1
_geom_bond_atom_site_label_2
_geom_bond_distance
_geom_bond_site_symmetry_2
_ccdc_geom_bond_type
Tb0 C10 2.827 . S
Tb0 O11 2.347 1_554 S
Tb0 O14 2.366 1_455 S
Tb0 O19 2.418 . S
Tb0 O20 2.384 . S
Tb0 O23 2.479 . S
Tb0 O24 2.471 1_554 S
Eu1 O12 2.391 1_554 S
Eu1 O13 2.384 1_455 S
Eu1 O16 2.469 1_554 S
Eu1 O17 2.486 . S
Eu1 O18 2.370 . S
Eu1 O21 2.365 1_554 S
Eu1 C31 2.828 . S
C2 O18 1.259 . S
C2 O19 1.265 . S
C3 O20 1.255 . S
C3 O21 1.265 1_554 S
C4 C6 1.380 1_556 S
C4 C7 1.374 . S
C4 C10 1.505 1_656 S
C5 C6 1.384 . S
C5 C9 1.387 1_554 S
C5 H32 0.930 . S
C6 C4 1.380 1_554 S
C6 C5 1.384 . S
C6 H33 0.936 . S
C7 C4 1.374 . S
C7 C8 1.390 . S
C7 H34 0.930 . S
C8 C7 1.390 . S
C8 C9 1.391 . S
C8 H35 0.930 . S
C9 C5 1.387 1_556 S
C9 C8 1.391 . S
C10 Tb0 2.827 . S
C10 C4 1.505 1_454 S
C10 O23 1.256 . S
C10 O24 1.230 1_554 S
O11 Tb0 2.347 1_556 S
O11 C15 1.259 . S
O12 Eu1 2.391 1_556 S
O12 C15 1.265 . S
O13 Eu1 2.384 1_655 S
O13 C22 1.256 . S
O14 Tb0 2.366 1_655 S
O14 C22 1.265 . S
C15 O11 1.259 . S
C15 O12 1.265 . S
O16 Eu1 2.469 1_556 S
O16 C31 1.238 1_556 S
O17 Eu1 2.486 . S
O17 C31 1.247 . S
O18 Eu1 2.370 . S
O18 C2 1.259 . S
O19 Tb0 2.418 . S
O19 C2 1.265 . S
O20 Tb0 2.384 . S
O20 C3 1.255 . S
O21 Eu1 2.365 1_556 S
O21 C3 1.265 1_556 S
C22 O13 1.256 . S
C22 O14 1.265 . S
O23 Tb0 2.479 . S
O23 C10 1.256 . S
O24 Tb0 2.471 1_556 S
O24 C10 1.230 1_556 S
C25 C28 1.380 1_554 S
C25 C29 1.374 . S
C25 C31 1.507 . S
C26 C27 1.387 1_554 S
C26 C30 1.391 . S
C27 C26 1.387 1_556 S
C27 C28 1.384 . S
C27 H36 0.930 . S
C28 C25 1.380 1_556 S
C28 C27 1.384 . S
C28 H37 0.931 . S
C29 C25 1.374 . S
C29 C30 1.390 . S
C29 H38 0.930 . S
C30 C26 1.391 . S
C30 C29 1.390 . S
C30 H39 0.930 . S
C31 Eu1 2.828 . S
C31 O16 1.238 1_554 S
C31 O17 1.247 . S
C31 C25 1.507 . S
H32 C5 0.930 . S
H33 C6 0.936 . S
H34 C7 0.930 . S
H35 C8 0.930 . S
H36 C27 0.930 . S
H37 C28 0.931 . S
H38 C29 0.930 . S
H39 C30 0.930 . S
Tb40 C50 2.825 . S
Tb40 O51 2.347 1_554 S
Tb40 O54 2.366 1_655 S
Tb40 O59 2.418 . S
Tb40 O60 2.384 . S
Tb40 O63 2.479 . S
Tb40 O64 2.471 1_554 S
Eu41 O52 2.418 . S
Eu41 O53 2.384 1_655 S
Eu41 O56 2.479 . S
Eu41 O57 2.471 1_556 S
Eu41 O58 2.347 1_556 S
Eu41 O61 2.366 . S
Eu41 C71 2.825 1_556 S
C42 O58 1.259 . S
C42 O59 1.265 . S
C43 O60 1.255 . S
C43 O61 1.265 1_554 S
C44 C46 1.380 . S
C44 C47 1.374 1_554 S
C44 C50 1.507 1_455 S
C45 C46 1.384 . S
C45 C49 1.387 1_554 S
C45 H72 0.930 . S
C46 C44 1.380 . S
C46 C45 1.384 . S
C46 H73 0.935 . S
C47 C44 1.374 1_556 S
C47 C48 1.390 . S
C47 H74 0.930 . S
C48 C47 1.390 . S
C48 C49 1.391 . S
C48 H75 0.930 . S
C49 C45 1.387 1_556 S
C49 C48 1.391 . S
C50 Tb40 2.825 . S
C50 C44 1.507 1_655 S
C50 O63 1.238 . S
C50 O64 1.247 1_554 S
O51 Tb40 2.347 1_556 S
O51 C55 1.259 . S
O52 Eu41 2.418 . S
O52 C55 1.265 . S
O53 Eu41 2.384 1_455 S
O53 C62 1.255 1_556 S
O54 Tb40 2.366 1_455 S
O54 C62 1.265 . S
C55 O51 1.259 . S
C55 O52 1.265 . S
O56 Eu41 2.479 . S
O56 C71 1.238 1_556 S
O57 Eu41 2.471 1_554 S
O57 C71 1.247 . S
O58 Eu41 2.347 1_554 S
O58 C42 1.259 . S
O59 Tb40 2.418 . S
O59 C42 1.265 . S
O60 Tb40 2.384 . S
O60 C43 1.255 . S
O61 Eu41 2.366 . S
O61 C43 1.265 1_556 S
C62 O53 1.255 1_554 S
C62 O54 1.265 . S
O63 Tb40 2.479 . S
O63 C50 1.238 . S
O64 Tb40 2.471 1_556 S
O64 C50 1.247 1_556 S
C65 C68 1.380 1_554 S
C65 C69 1.374 . S
C65 C71 1.507 . S
C66 C67 1.387 1_554 S
C66 C70 1.391 . S
C67 C66 1.387 1_556 S
C67 C68 1.384 . S
C67 H76 0.930 . S
C68 C65 1.380 1_556 S
C68 C67 1.384 . S
C68 H77 0.931 . S
C69 C65 1.374 . S
C69 C70 1.390 . S
C69 H78 0.930 . S
C70 C66 1.391 . S
C70 C69 1.390 . S
C70 H79 0.930 . S
C71 Eu41 2.825 1_554 S
C71 O56 1.238 1_554 S
C71 O57 1.247 . S
C71 C65 1.507 . S
H72 C45 0.930 . S
H73 C46 0.935 . S
H74 C47 0.930 . S
H75 C48 0.930 . S
H76 C67 0.930 . S
H77 C68 0.931 . S
H78 C69 0.930 . S
H79 C70 0.930 . S
Tb80 C90 2.825 . S
Tb80 O91 2.347 . S
Tb80 O94 2.366 . S
Tb80 O99 2.418 . S
Tb80 O100 2.384 1_455 S
Tb80 O103 2.479 . S
Tb80 O104 2.471 . S
Eu81 O92 2.418 . S
Eu81 O93 2.384 . S
Eu81 O96 2.479 . S
Eu81 O97 2.471 . S
Eu81 O98 2.347 . S
Eu81 O101 2.366 1_455 S
Eu81 C111 2.825 . S
C82 O98 1.259 . S
C82 O99 1.265 . S
C83 O100 1.255 . S
C83 O101 1.265 . S
C84 C86 1.380 . S
C84 C87 1.374 . S
C84 C90 1.507 . S
C85 C86 1.384 . S
C85 C89 1.387 . S
C85 H112 0.930 . S
C86 C84 1.380 . S
C86 C85 1.384 . S
C86 H113 0.931 . S
C87 C84 1.374 . S
C87 C88 1.390 . S
C87 H114 0.930 . S
C88 C87 1.390 . S
C88 C89 1.391 . S
C88 H115 0.930 . S
C89 C85 1.387 . S
C89 C88 1.391 . S
C90 Tb80 2.825 . S
C90 C84 1.507 . S
C90 O103 1.238 . S
C90 O104 1.247 . S
O91 Tb80 2.347 . S
O91 C95 1.259 . S
O92 Eu81 2.418 . S
O92 C95 1.265 . S
O93 Eu81 2.384 . S
O93 C102 1.255 . S
O94 Tb80 2.366 . S
O94 C102 1.265 . S
C95 O91 1.259 . S
C95 O92 1.265 . S
O96 Eu81 2.479 . S
O96 C111 1.238 . S
O97 Eu81 2.471 . S
O97 C111 1.247 . S
O98 Eu81 2.347 . S
O98 C82 1.259 . S
O99 Tb80 2.418 . S
O99 C82 1.265 . S
O100 Tb80 2.384 1_655 S
O100 C83 1.255 . S
O101 Eu81 2.366 1_655 S
O101 C83 1.265 . S
C102 O93 1.255 . S
C102 O94 1.265 . S
O103 Tb80 2.479 . S
O103 C90 1.238 . S
O104 Tb80 2.471 . S
O104 C90 1.247 . S
C105 C108 1.380 . S
C105 C109 1.374 . S
C105 C111 1.507 1_655 S
C106 C107 1.387 . S
C106 C110 1.391 . S
C107 C106 1.387 . S
C107 C108 1.384 . S
C107 H116 0.930 . S
C108 C105 1.380 . S
C108 C107 1.384 . S
C108 H117 0.931 . S
C109 C105 1.374 . S
C109 C110 1.390 . S
C109 H118 0.930 . S
C110 C106 1.391 . S
C110 C109 1.390 . S
C110 H119 0.930 . S
C111 Eu81 2.825 . S
C111 O96 1.238 . S
C111 O97 1.247 . S
C111 C105 1.507 1_455 S
H112 C85 0.930 . S
H113 C86 0.931 . S
H114 C87 0.930 . S
H115 C88 0.930 . S
H116 C107 0.930 . S
H117 C108 0.931 . S
H118 C109 0.930 . S
H119 C110 0.930 . S
Tb120 C130 2.825 . S
Tb120 O131 2.347 . S
Tb120 O134 2.366 1_655 S
Tb120 O139 2.418 . S
Tb120 O140 2.384 . S
Tb120 O143 2.479 . S
Tb120 O144 2.471 . S
Eu121 O132 2.418 . S
Eu121 O133 2.384 1_655 S
Eu121 O136 2.479 . S
Eu121 O137 2.471 . S
Eu121 O138 2.347 . S
Eu121 O141 2.366 . S
Eu121 C151 2.825 . S
C122 O138 1.259 . S
C122 O139 1.265 . S
C123 O140 1.255 . S
C123 O141 1.265 . S
C124 C126 1.380 . S
C124 C127 1.374 . S
C124 C130 1.507 1_455 S
C125 C126 1.384 . S
C125 C129 1.387 . S
C125 H152 0.930 . S
C126 C124 1.380 . S
C126 C125 1.384 . S
C126 H153 0.931 . S
C127 C124 1.374 . S
C127 C128 1.390 . S
C127 H154 0.930 . S
C128 C127 1.390 . S
C128 C129 1.391 . S
C128 H155 0.930 . S
C129 C125 1.387 . S
C129 C128 1.391 . S
C130 Tb120 2.825 . S
C130 C124 1.507 1_655 S
C130 O143 1.238 . S
C130 O144 1.247 . S
O131 Tb120 2.347 . S
O131 C135 1.259 . S
O132 Eu121 2.418 . S
O132 C135 1.265 . S
O133 Eu121 2.384 1_455 S
O133 C142 1.255 . S
O134 Tb120 2.366 1_455 S
O134 C142 1.265 . S
C135 O131 1.259 . S
C135 O132 1.265 . S
O136 Eu121 2.479 . S
O136 C151 1.238 . S
O137 Eu121 2.471 . S
O137 C151 1.247 . S
O138 Eu121 2.347 . S
O138 C122 1.259 . S
O139 Tb120 2.418 . S
O139 C122 1.265 . S
O140 Tb120 2.384 . S
O140 C123 1.255 . S
O141 Eu121 2.366 . S
O141 C123 1.265 . S
C142 O133 1.255 . S
C142 O134 1.265 . S
O143 Tb120 2.479 . S
O143 C130 1.238 . S
O144 Tb120 2.471 . S
O144 C130 1.247 . S
C145 C148 1.380 . S
C145 C149 1.374 . S
C145 C151 1.507 . S
C146 C147 1.387 . S
C146 C150 1.391 . S
C147 C146 1.387 . S
C147 C148 1.384 . S
C147 H156 0.930 . S
C148 C145 1.380 . S
C148 C147 1.384 . S
C148 H157 0.931 . S
C149 C145 1.374 . S
C149 C150 1.390 . S
C149 H158 0.930 . S
C150 C146 1.391 . S
C150 C149 1.390 . S
C150 H159 0.930 . S
C151 Eu121 2.825 . S
C151 O136 1.238 . S
C151 O137 1.247 . S
C151 C145 1.507 . S
H152 C125 0.930 . S
H153 C126 0.931 . S
H154 C127 0.930 . S
H155 C128 0.930 . S
H156 C147 0.930 . S
H157 C148 0.931 . S
H158 C149 0.930 . S
H159 C150 0.930 . S
Tb160 C170 2.827 . S
Tb160 O171 2.347 1_554 S
Tb160 O174 2.366 . S
Tb160 O179 2.418 . S
Tb160 O180 2.384 . S
Tb160 O183 2.479 . S
Tb160 O184 2.471 1_554 S
Eu161 O172 2.391 1_554 S
Eu161 O173 2.384 . S
Eu161 O176 2.469 1_554 S
Eu161 O177 2.487 . S
Eu161 O178 2.370 . S
Eu161 O181 2.365 1_554 S
Eu161 C191 2.828 . S
C162 O178 1.259 . S
C162 O179 1.265 . S
C163 O180 1.255 . S
C163 O181 1.265 1_554 S
C164 C166 1.380 1_556 S
C164 C167 1.374 . S
C164 C170 1.505 1_556 S
C165 C166 1.384 . S
C165 C169 1.387 1_554 S
C165 H192 0.930 . S
C166 C164 1.380 1_554 S
C166 C165 1.384 . S
C166 H193 0.931 . S
C167 C164 1.374 . S
C167 C168 1.390 . S
C167 H194 0.930 . S
C168 C167 1.390 . S
C168 C169 1.391 . S
C168 H195 0.930 . S
C169 C165 1.387 1_556 S
C169 C168 1.391 . S
C170 Tb160 2.827 . S
C170 C164 1.505 1_554 S
C170 O183 1.257 . S
C170 O184 1.230 1_554 S
O171 Tb160 2.347 1_556 S
O171 C175 1.259 . S
O172 Eu161 2.391 1_556 S
O172 C175 1.265 . S
O173 Eu161 2.384 . S
O173 C182 1.256 . S
O174 Tb160 2.366 . S
O174 C182 1.265 . S
C175 O171 1.259 . S
C175 O172 1.265 . S
O176 Eu161 2.469 1_556 S
O176 C191 1.238 1_556 S
O177 Eu161 2.487 . S
O177 C191 1.247 . S
O178 Eu161 2.370 . S
O178 C162 1.259 . S
O179 Tb160 2.418 . S
O179 C162 1.265 . S
O180 Tb160 2.384 . S
O180 C163 1.255 . S
O181 Eu161 2.365 1_556 S
O181 C163 1.265 1_556 S
C182 O173 1.256 . S
C182 O174 1.265 . S
O183 Tb160 2.479 . S
O183 C170 1.257 . S
O184 Tb160 2.471 1_556 S
O184 C170 1.230 1_556 S
C185 C188 1.380 1_554 S
C185 C189 1.374 . S
C185 C191 1.507 . S
C186 C187 1.387 1_554 S
C186 C190 1.391 . S
C187 C186 1.387 1_556 S
C187 C188 1.384 . S
C187 H196 0.930 . S
C188 C185 1.380 1_556 S
C188 C187 1.384 . S
C188 H197 0.931 . S
C189 C185 1.374 . S
C189 C190 1.390 . S
C189 H198 0.930 . S
C190 C186 1.391 . S
C190 C189 1.390 . S
C190 H199 0.930 . S
C191 Eu161 2.828 . S
C191 O176 1.238 1_554 S
C191 O177 1.247 . S
C191 C185 1.507 . S
H192 C165 0.930 . S
H193 C166 0.931 . S
H194 C167 0.930 . S
H195 C168 0.930 . S
H196 C187 0.930 . S
H197 C188 0.931 . S
H198 C189 0.930 . S
H199 C190 0.930 . S
Tb200 C210 2.825 . S
Tb200 O211 2.347 1_554 S
Tb200 O214 2.366 . S
Tb200 O219 2.418 . S
Tb200 O220 2.384 . S
Tb200 O223 2.479 . S
Tb200 O224 2.471 1_554 S
Eu201 O212 2.418 . S
Eu201 O213 2.384 . S
Eu201 O216 2.479 . S
Eu201 O217 2.471 1_556 S
Eu201 O218 2.347 1_556 S
Eu201 O221 2.366 . S
Eu201 C231 2.825 1_556 S
C202 O218 1.259 . S
C202 O219 1.265 . S
C203 O220 1.255 . S
C203 O221 1.265 1_554 S
C204 C206 1.380 . S
C204 C207 1.374 1_554 S
C204 C210 1.507 . S
C205 C206 1.384 . S
C205 C209 1.387 1_554 S
C205 H232 0.930 . S
C206 C204 1.380 . S
C206 C205 1.384 . S
C206 H233 0.931 . S
C207 C204 1.374 1_556 S
C207 C208 1.390 . S
C207 H234 0.930 . S
C208 C207 1.390 . S
C208 C209 1.391 . S
C208 H235 0.930 . S
C209 C205 1.387 1_556 S
C209 C208 1.391 . S
C210 Tb200 2.825 . S
C210 C204 1.507 . S
C210 O223 1.238 . S
C210 O224 1.247 1_554 S
O211 Tb200 2.347 1_556 S
O211 C215 1.259 . S
O212 Eu201 2.418 . S
O212 C215 1.265 . S
O213 Eu201 2.384 . S
O213 C222 1.255 1_556 S
O214 Tb200 2.366 . S
O214 C222 1.265 . S
C215 O211 1.259 . S
C215 O212 1.265 . S
O216 Eu201 2.479 . S
O216 C231 1.238 1_556 S
O217 Eu201 2.471 1_554 S
O217 C231 1.247 . S
O218 Eu201 2.347 1_554 S
O218 C202 1.259 . S
O219 Tb200 2.418 . S
O219 C202 1.265 . S
O220 Tb200 2.384 . S
O220 C203 1.255 . S
O221 Eu201 2.366 . S
O221 C203 1.265 1_556 S
C222 O213 1.255 1_554 S
C222 O214 1.265 . S
O223 Tb200 2.479 . S
O223 C210 1.238 . S
O224 Tb200 2.471 1_556 S
O224 C210 1.247 1_556 S
C225 C228 1.380 1_554 S
C225 C229 1.374 . S
C225 C231 1.507 . S
C226 C227 1.387 1_554 S
C226 C230 1.391 . S
C227 C226 1.387 1_556 S
C227 C228 1.384 . S
C227 H236 0.930 . S
C228 C225 1.380 1_556 S
C228 C227 1.384 . S
C228 H237 0.931 . S
C229 C225 1.374 . S
C229 C230 1.390 . S
C229 H238 0.930 . S
C230 C226 1.391 . S
C230 C229 1.390 . S
C230 H239 0.930 . S
C231 Eu201 2.825 1_554 S
C231 O216 1.238 1_554 S
C231 O217 1.247 . S
C231 C225 1.507 . S
H232 C205 0.930 . S
H233 C206 0.931 . S
H234 C207 0.930 . S
H235 C208 0.930 . S
H236 C227 0.930 . S
H237 C228 0.931 . S
H238 C229 0.930 . S
H239 C230 0.930 . S
Tb240 C250 2.825 . S
Tb240 O251 2.347 . S
Tb240 O254 2.366 . S
Tb240 O259 2.418 . S
Tb240 O260 2.384 . S
Tb240 O263 2.479 . S
Tb240 O264 2.471 . S
Eu241 O252 2.418 . S
Eu241 O253 2.384 . S
Eu241 O256 2.479 . S
Eu241 O257 2.471 . S
Eu241 O258 2.347 . S
Eu241 O261 2.366 . S
Eu241 C271 2.825 . S
C242 O258 1.259 . S
C242 O259 1.265 . S
C243 O260 1.255 . S
C243 O261 1.265 . S
C244 C246 1.380 . S
C244 C247 1.374 . S
C244 C250 1.507 . S
C245 C246 1.384 . S
C245 C249 1.387 . S
C245 H272 0.930 . S
C246 C244 1.380 . S
C246 C245 1.384 . S
C246 H273 0.931 . S
C247 C244 1.374 . S
C247 C248 1.390 . S
C247 H274 0.930 . S
C248 C247 1.390 . S
C248 C249 1.391 . S
C248 H275 0.930 . S
C249 C245 1.387 . S
C249 C248 1.391 . S
C250 Tb240 2.825 . S
C250 C244 1.507 . S
C250 O263 1.238 . S
C250 O264 1.247 . S
O251 Tb240 2.347 . S
O251 C255 1.259 . S
O252 Eu241 2.418 . S
O252 C255 1.265 . S
O253 Eu241 2.384 . S
O253 C262 1.255 . S
O254 Tb240 2.366 . S
O254 C262 1.265 . S
C255 O251 1.259 . S
C255 O252 1.265 . S
O256 Eu241 2.479 . S
O256 C271 1.238 . S
O257 Eu241 2.471 . S
O257 C271 1.247 . S
O258 Eu241 2.347 . S
O258 C242 1.259 . S
O259 Tb240 2.418 . S
O259 C242 1.265 . S
O260 Tb240 2.384 . S
O260 C243 1.255 . S
O261 Eu241 2.366 . S
O261 C243 1.265 . S
C262 O253 1.255 . S
C262 O254 1.265 . S
O263 Tb240 2.479 . S
O263 C250 1.238 . S
O264 Tb240 2.471 . S
O264 C250 1.247 . S
C265 C268 1.380 . S
C265 C269 1.374 . S
C265 C271 1.507 . S
C266 C267 1.387 . S
C266 C270 1.391 . S
C267 C266 1.387 . S
C267 C268 1.384 . S
C267 H276 0.930 . S
C268 C265 1.380 . S
C268 C267 1.384 . S
C268 H277 0.931 . S
C269 C265 1.374 . S
C269 C270 1.390 . S
C269 H278 0.930 . S
C270 C266 1.391 . S
C270 C269 1.390 . S
C270 H279 0.930 . S
C271 Eu241 2.825 . S
C271 O256 1.238 . S
C271 O257 1.247 . S
C271 C265 1.507 . S
H272 C245 0.930 . S
H273 C246 0.931 . S
H274 C247 0.930 . S
H275 C248 0.930 . S
H276 C267 0.930 . S
H277 C268 0.931 . S
H278 C269 0.930 . S
H279 C270 0.930 . S
Tb280 C290 2.825 . S
Tb280 O291 2.347 . S
Tb280 O294 2.366 . S
Tb280 O299 2.418 . S
Tb280 O300 2.384 . S
Tb280 O303 2.479 . S
Tb280 O304 2.471 . S
Eu281 O292 2.418 . S
Eu281 O293 2.384 . S
Eu281 O296 2.479 . S
Eu281 O297 2.471 . S
Eu281 O298 2.347 . S
Eu281 O301 2.366 . S
Eu281 C311 2.825 . S
C282 O298 1.259 . S
C282 O299 1.265 . S
C283 O300 1.255 . S
C283 O301 1.265 . S
C284 C286 1.380 . S
C284 C287 1.374 . S
C284 C290 1.507 . S
C285 C286 1.384 . S
C285 C289 1.387 . S
C285 H312 0.930 . S
C286 C284 1.380 . S
C286 C285 1.384 . S
C286 H313 0.931 . S
C287 C284 1.374 . S
C287 C288 1.390 . S
C287 H314 0.930 . S
C288 C287 1.390 . S
C288 C289 1.391 . S
C288 H315 0.930 . S
C289 C285 1.387 . S
C289 C288 1.391 . S
C290 Tb280 2.825 . S
C290 C284 1.507 . S
C290 O303 1.238 . S
C290 O304 1.247 . S
O291 Tb280 2.347 . S
O291 C295 1.259 . S
O292 Eu281 2.418 . S
O292 C295 1.265 . S
O293 Eu281 2.384 . S
O293 C302 1.255 . S
O294 Tb280 2.366 . S
O294 C302 1.265 . S
C295 O291 1.259 . S
C295 O292 1.265 . S
O296 Eu281 2.479 . S
O296 C311 1.238 . S
O297 Eu281 2.471 . S
O297 C311 1.247 . S
O298 Eu281 2.347 . S
O298 C282 1.259 . S
O299 Tb280 2.418 . S
O299 C282 1.265 . S
O300 Tb280 2.384 . S
O300 C283 1.255 . S
O301 Eu281 2.366 . S
O301 C283 1.265 . S
C302 O293 1.255 . S
C302 O294 1.265 . S
O303 Tb280 2.479 . S
O303 C290 1.238 . S
O304 Tb280 2.471 . S
O304 C290 1.247 . S
C305 C308 1.380 . S
C305 C309 1.374 . S
C305 C311 1.507 . S
C306 C307 1.387 . S
C306 C310 1.391 . S
C307 C306 1.387 . S
C307 C308 1.384 . S
C307 H316 0.930 . S
C308 C305 1.380 . S
C308 C307 1.384 . S
C308 H317 0.931 . S
C309 C305 1.374 . S
C309 C310 1.390 . S
C309 H318 0.930 . S
C310 C306 1.391 . S
C310 C309 1.390 . S
C310 H319 0.930 . S
C311 Eu281 2.825 . S
C311 O296 1.238 . S
C311 O297 1.247 . S
C311 C305 1.507 . S
H312 C285 0.930 . S
H313 C286 0.931 . S
H314 C287 0.930 . S
H315 C288 0.930 . S
H316 C307 0.930 . S
H317 C308 0.931 . S
H318 C309 0.930 . S
H319 C310 0.930 . S
H320 C328 0.929 . S
H321 C330 0.930 . S
H322 C332 0.930 . S
H323 C335 0.929 . S
H324 C338 0.930 . S
H325 C340 0.960 . S
H326 C340 0.960 . S
H327 C340 0.960 . S
C328 H320 0.929 . S
C328 C329 1.377 . S
C328 C330 1.384 . S
C329 C328 1.377 . S
C329 C335 1.390 1_554 S
C330 H321 0.930 . S
C330 C328 1.384 . S
C330 C331 1.372 . S
C331 C330 1.372 . S
C331 C332 1.400 1_554 S
C331 C336 1.490 . S
C332 H322 0.930 . S
C332 C331 1.400 1_556 S
C332 C335 1.386 . S
H333 C349 0.930 . S
H334 C350 0.931 . S
C335 H323 0.929 . S
C335 C329 1.390 1_556 S
C335 C332 1.386 . S
C336 C331 1.490 . S
C336 C338 1.395 1_554 S
C336 C339 1.403 . S
H337 C343 0.930 . S
C338 H324 0.930 . S
C338 C336 1.395 1_556 S
C338 C341 1.403 . S
C339 C336 1.403 . S
C339 C340 1.524 . S
C339 C343 1.400 . S
C340 H325 0.960 . S
C340 H326 0.960 . S
C340 H327 0.960 . S
C340 C339 1.524 . S
C341 C338 1.403 . S
C341 C342 1.392 1_556 S
C341 C345 1.495 . S
C342 C341 1.392 1_554 S
C342 C343 1.385 . S
C342 C344 1.478 . S
C343 H337 0.930 . S
C343 C339 1.400 . S
C343 C342 1.385 . S
C344 C342 1.478 . S
C344 C346 1.381 . S
C344 C350 1.383 1_554 S
C345 C341 1.495 . S
C345 H351 0.959 . S
C345 H352 0.961 . S
C345 H353 0.960 1_556 S
C346 C344 1.381 . S
C346 C347 1.394 . S
C346 H354 0.930 . S
C347 C346 1.394 . S
C347 C348 1.383 . S
C347 H355 0.929 . S
C348 C347 1.383 . S
C348 C349 1.377 1_554 S
C349 H333 0.930 . S
C349 C348 1.377 1_556 S
C349 C350 1.379 . S
C350 H334 0.931 . S
C350 C344 1.383 1_556 S
C350 C349 1.379 . S
H351 C345 0.959 . S
H352 C345 0.961 . S
H353 C345 0.960 1_554 S
H354 C346 0.930 . S
H355 C347 0.929 . S
H356 C364 0.929 . S
H357 C366 0.930 . S
H358 C368 0.930 . S
H359 C371 0.929 . S
H360 C374 0.930 . S
H361 C376 0.960 . S
H362 C376 0.960 1_554 S
H363 C376 0.960 . S
C364 H356 0.929 . S
C364 C365 1.377 . S
C364 C366 1.384 . S
C365 C364 1.377 . S
C365 C371 1.390 1_554 S
C366 H357 0.930 . S
C366 C364 1.384 . S
C366 C367 1.372 . S
C367 C366 1.372 . S
C367 C368 1.400 1_554 S
C367 C372 1.490 . S
C368 H358 0.930 . S
C368 C367 1.400 1_556 S
C368 C371 1.386 . S
H369 C385 0.930 . S
H370 C386 0.931 . S
C371 H359 0.929 . S
C371 C365 1.390 1_556 S
C371 C368 1.386 . S
C372 C367 1.490 . S
C372 C374 1.395 . S
C372 C375 1.406 . S
H373 C379 0.928 1_556 S
C374 H360 0.930 . S
C374 C372 1.395 . S
C374 C377 1.403 . S
C375 C372 1.406 . S
C375 C376 1.521 1_554 S
C375 C379 1.400 . S
C376 H361 0.960 . S
C376 H362 0.960 1_556 S
C376 H363 0.960 . S
C376 C375 1.521 1_556 S
C377 C374 1.403 . S
C377 C378 1.392 . S
C377 C381 1.495 . S
C378 C377 1.392 . S
C378 C379 1.387 . S
C378 C380 1.478 . S
C379 H373 0.928 1_554 S
C379 C375 1.400 . S
C379 C378 1.387 . S
C380 C378 1.478 . S
C380 C382 1.381 . S
C380 C386 1.383 1_554 S
C381 C377 1.495 . S
C381 H387 0.959 . S
C381 H388 0.961 . S
C381 H389 0.960 . S
C382 C380 1.381 . S
C382 C383 1.394 . S
C382 H390 0.930 . S
C383 C382 1.394 . S
C383 C384 1.383 . S
C383 H391 0.929 . S
C384 C383 1.383 . S
C384 C385 1.377 1_554 S
C385 H369 0.930 . S
C385 C384 1.377 1_556 S
C385 C386 1.379 . S
C386 H370 0.931 . S
C386 C380 1.383 1_556 S
C386 C385 1.379 . S
H387 C381 0.959 . S
H388 C381 0.961 . S
H389 C381 0.960 . S
H390 C382 0.930 . S
H391 C383 0.929 . S
H392 C400 0.929 . S
H393 C402 0.930 . S
H394 C404 0.930 . S
H395 C407 0.929 . S
H396 C410 0.930 . S
H397 C412 0.960 . S
H398 C412 0.960 . S
H399 C412 0.960 . S
C400 H392 0.929 . S
C400 C401 1.377 . S
C400 C402 1.384 . S
C401 C400 1.377 . S
C401 C407 1.390 . S
C402 H393 0.930 . S
C402 C400 1.384 . S
C402 C403 1.372 . S
C403 C402 1.372 . S
C403 C404 1.400 . S
C403 C408 1.490 . S
C404 H394 0.930 . S
C404 C403 1.400 . S
C404 C407 1.386 . S
H405 C421 0.930 . S
H406 C422 0.931 . S
C407 H395 0.929 . S
C407 C401 1.390 . S
C407 C404 1.386 . S
C408 C403 1.490 . S
C408 C410 1.395 . S
C408 C411 1.403 . S
H409 C415 0.930 . S
C410 H396 0.930 . S
C410 C408 1.395 . S
C410 C413 1.403 . S
C411 C408 1.403 . S
C411 C412 1.524 . S
C411 C415 1.400 . S
C412 H397 0.960 . S
C412 H398 0.960 . S
C412 H399 0.960 . S
C412 C411 1.524 . S
C413 C410 1.403 . S
C413 C414 1.392 . S
C413 C417 1.495 . S
C414 C413 1.392 . S
C414 C415 1.385 . S
C414 C416 1.478 . S
C415 H409 0.930 . S
C415 C411 1.400 . S
C415 C414 1.385 . S
C416 C414 1.478 . S
C416 C418 1.381 . S
C416 C422 1.383 . S
C417 C413 1.495 . S
C417 H423 0.959 . S
C417 H424 0.961 . S
C417 H425 0.960 . S
C418 C416 1.381 . S
C418 C419 1.394 . S
C418 H426 0.930 . S
C419 C418 1.394 . S
C419 C420 1.383 . S
C419 H427 0.929 . S
C420 C419 1.383 . S
C420 C421 1.377 . S
C421 H405 0.930 . S
C421 C420 1.377 . S
C421 C422 1.379 . S
C422 H406 0.931 . S
C422 C416 1.383 . S
C422 C421 1.379 . S
H423 C417 0.959 . S
H424 C417 0.961 . S
H425 C417 0.960 . S
H426 C418 0.930 . S
H427 C419 0.929 . S
H428 C436 0.929 . S
H429 C438 0.930 . S
H430 C440 0.930 . S
H431 C443 0.929 . S
H432 C446 0.930 . S
H433 C448 0.960 . S
H434 C448 0.960 . S
H435 C448 0.960 . S
C436 H428 0.929 . S
C436 C437 1.377 . S
C436 C438 1.384 . S
C437 C436 1.377 . S
C437 C443 1.390 . S
C438 H429 0.930 . S
C438 C436 1.384 . S
C438 C439 1.372 . S
C439 C438 1.372 . S
C439 C440 1.400 . S
C439 C444 1.490 . S
C440 H430 0.930 . S
C440 C439 1.400 . S
C440 C443 1.386 . S
H441 C457 0.930 . S
H442 C458 0.931 . S
C443 H431 0.929 . S
C443 C437 1.390 . S
C443 C440 1.386 . S
C444 C439 1.490 . S
C444 C446 1.395 . S
C444 C447 1.403 . S
H445 C451 0.930 . S
C446 H432 0.930 . S
C446 C444 1.395 . S
C446 C449 1.403 . S
C447 C444 1.403 . S
C447 C448 1.524 . S
C447 C451 1.400 . S
C448 H433 0.960 . S
C448 H434 0.960 . S
C448 H435 0.960 . S
C448 C447 1.524 . S
C449 C446 1.403 . S
C449 C450 1.392 . S
C449 C453 1.495 . S
C450 C449 1.392 . S
C450 C451 1.385 . S
C450 C452 1.478 . S
C451 H445 0.930 . S
C451 C447 1.400 . S
C451 C450 1.385 . S
C452 C450 1.478 . S
C452 C454 1.381 . S
C452 C458 1.383 . S
C453 C449 1.495 . S
C453 H459 0.959 . S
C453 H460 0.961 . S
C453 H461 0.960 . S
C454 C452 1.381 . S
C454 C455 1.394 . S
C454 H462 0.930 . S
C455 C454 1.394 . S
C455 C456 1.383 . S
C455 H463 0.929 . S
C456 C455 1.383 . S
C456 C457 1.377 . S
C457 H441 0.930 . S
C457 C456 1.377 . S
C457 C458 1.379 . S
C458 H442 0.931 . S
C458 C452 1.383 . S
C458 C457 1.379 . S
H459 C453 0.959 . S
H460 C453 0.961 . S
H461 C453 0.960 . S
H462 C454 0.930 . S
H463 C455 0.929 . S
H464 C472 0.929 . S
H465 C474 0.930 . S
H466 C476 0.930 . S
H467 C479 0.929 . S
H468 C482 0.930 1_655 S
H469 C484 0.960 . S
H470 C484 0.960 1_655 S
H471 C484 0.960 1_655 S
C472 H464 0.929 . S
C472 C473 1.377 . S
C472 C474 1.384 . S
C473 C472 1.377 . S
C473 C479 1.390 1_554 S
C474 H465 0.930 . S
C474 C472 1.384 . S
C474 C475 1.372 . S
C475 C474 1.372 . S
C475 C476 1.400 1_554 S
C475 C480 1.490 . S
C476 H466 0.930 . S
C476 C475 1.400 1_556 S
C476 C479 1.386 . S
H477 C493 0.930 1_556 S
H478 C494 0.931 1_556 S
C479 H467 0.929 . S
C479 C473 1.390 1_556 S
C479 C476 1.386 . S
C480 C475 1.490 . S
C480 C482 1.395 1_655 S
C480 C483 1.403 1_654 S
H481 C487 0.930 . S
C482 H468 0.930 1_455 S
C482 C480 1.395 1_455 S
C482 C485 1.403 . S
C483 C480 1.403 1_456 S
C483 C484 1.524 . S
C483 C487 1.400 . S
C484 H469 0.960 . S
C484 H470 0.960 1_455 S
C484 H471 0.960 1_455 S
C484 C483 1.524 . S
C485 C482 1.403 . S
C485 C486 1.392 . S
C485 C489 1.495 . S
C486 C485 1.392 . S
C486 C487 1.385 1_554 S
C486 C488 1.478 . S
C487 H481 0.930 . S
C487 C483 1.400 . S
C487 C486 1.385 1_556 S
C488 C486 1.478 . S
C488 C490 1.381 . S
C488 C494 1.383 . S
C489 C485 1.495 . S
C489 H495 0.959 . S
C489 H496 0.961 . S
C489 H497 0.960 . S
C490 C488 1.381 . S
C490 C491 1.394 . S
C490 H498 0.930 . S
C491 C490 1.394 . S
C491 C492 1.383 . S
C491 H499 0.929 . S
C492 C491 1.383 . S
C492 C493 1.376 . S
C493 H477 0.930 1_554 S
C493 C492 1.376 . S
C493 C494 1.379 . S
C494 H478 0.931 1_554 S
C494 C488 1.383 . S
C494 C493 1.379 . S
H495 C489 0.959 . S
H496 C489 0.961 . S
H497 C489 0.960 . S
H498 C490 0.930 . S
H499 C491 0.929 . S
H500 C508 0.929 . S
H501 C510 0.930 . S
H502 C512 0.930 . S
H503 C515 0.929 . S
H504 C518 0.930 . S
H505 C520 0.960 1_655 S
H506 C520 0.960 . S
H507 C520 0.960 1_556 S
C508 H500 0.929 . S
C508 C509 1.377 . S
C508 C510 1.384 . S
C509 C508 1.377 . S
C509 C515 1.390 1_554 S
C510 H501 0.930 . S
C510 C508 1.384 . S
C510 C511 1.372 . S
C511 C510 1.372 . S
C511 C512 1.400 1_554 S
C511 C516 1.490 . S
C512 H502 0.930 . S
C512 C511 1.400 1_556 S
C512 C515 1.386 . S
H513 C529 0.930 . S
H514 C530 0.931 . S
C515 H503 0.929 . S
C515 C509 1.390 1_556 S
C515 C512 1.386 . S
C516 C511 1.490 . S
C516 C518 1.395 1_455 S
C516 C519 1.403 1_455 S
H517 C523 0.930 . S
C518 H504 0.930 . S
C518 C516 1.395 1_655 S
C518 C521 1.403 . S
C519 C516 1.403 1_655 S
C519 C520 1.524 1_655 S
C519 C523 1.400 . S
C520 H505 0.960 1_455 S
C520 H506 0.960 . S
C520 H507 0.960 1_554 S
C520 C519 1.524 1_455 S
C521 C518 1.403 . S
C521 C522 1.392 . S
C521 C525 1.495 . S
C522 C521 1.392 . S
C522 C523 1.385 . S
C522 C524 1.478 . S
C523 H517 0.930 . S
C523 C519 1.400 . S
C523 C522 1.385 . S
C524 C522 1.478 . S
C524 C526 1.381 . S
C524 C530 1.383 1_554 S
C525 C521 1.495 . S
C525 H531 0.959 . S
C525 H532 0.961 1_554 S
C525 H533 0.960 . S
C526 C524 1.381 . S
C526 C527 1.394 . S
C526 H534 0.930 . S
C527 C526 1.394 . S
C527 C528 1.383 . S
C527 H535 0.929 . S
C528 C527 1.383 . S
C528 C529 1.377 1_554 S
C529 H513 0.930 . S
C529 C528 1.377 1_556 S
C529 C530 1.379 . S
C530 H514 0.931 . S
C530 C524 1.383 1_556 S
C530 C529 1.379 . S
H531 C525 0.959 . S
H532 C525 0.961 1_556 S
H533 C525 0.960 . S
H534 C526 0.930 . S
H535 C527 0.929 . S
H536 C544 0.929 . S
H537 C546 0.930 . S
H538 C548 0.930 . S
H539 C551 0.929 . S
H540 C554 0.930 . S
H541 C556 0.960 . S
H542 C556 0.960 . S
H543 C556 0.960 . S
C544 H536 0.929 . S
C544 C545 1.377 . S
C544 C546 1.384 . S
C545 C544 1.377 . S
C545 C551 1.390 . S
C546 H537 0.930 . S
C546 C544 1.384 . S
C546 C547 1.372 . S
C547 C546 1.372 . S
C547 C548 1.400 . S
C547 C552 1.490 . S
C548 H538 0.930 . S
C548 C547 1.400 . S
C548 C551 1.386 . S
H549 C565 0.930 . S
H550 C566 0.931 . S
C551 H539 0.929 . S
C551 C545 1.390 . S
C551 C548 1.386 . S
C552 C547 1.490 . S
C552 C554 1.395 . S
C552 C555 1.403 . S
H553 C559 0.930 1_655 S
C554 H540 0.930 . S
C554 C552 1.395 . S
C554 C557 1.403 . S
C555 C552 1.403 . S
C555 C556 1.524 . S
C555 C559 1.400 . S
C556 H541 0.960 . S
C556 H542 0.960 . S
C556 H543 0.960 . S
C556 C555 1.524 . S
C557 C554 1.403 . S
C557 C558 1.392 1_455 S
C557 C561 1.495 . S
C558 C557 1.392 1_655 S
C558 C559 1.385 1_655 S
C558 C560 1.478 . S
C559 H553 0.930 1_455 S
C559 C555 1.400 . S
C559 C558 1.385 1_455 S
C560 C558 1.478 . S
C560 C562 1.381 . S
C560 C566 1.383 . S
C561 C557 1.495 . S
C561 H567 0.959 . S
C561 H568 0.961 1_455 S
C561 H569 0.960 1_455 S
C562 C560 1.381 . S
C562 C563 1.394 . S
C562 H570 0.930 . S
C563 C562 1.394 . S
C563 C564 1.383 . S
C563 H571 0.929 . S
C564 C563 1.383 . S
C564 C565 1.377 . S
C565 H549 0.930 . S
C565 C564 1.377 . S
C565 C566 1.379 . S
C566 H550 0.931 . S
C566 C560 1.383 . S
C566 C565 1.379 . S
H567 C561 0.959 . S
H568 C561 0.961 1_655 S
H569 C561 0.960 1_655 S
H570 C562 0.930 . S
H571 C563 0.929 . S
H572 C580 0.929 . S
H573 C582 0.930 . S
H574 C584 0.930 . S
H575 C587 0.929 . S
H576 C590 0.930 . S
H577 C592 0.960 . S
H578 C592 0.960 . S
H579 C592 0.960 . S
C580 H572 0.929 . S
C580 C581 1.377 . S
C580 C582 1.384 . S
C581 C580 1.377 . S
C581 C587 1.390 . S
C582 H573 0.930 . S
C582 C580 1.384 . S
C582 C583 1.372 . S
C583 C582 1.372 . S
C583 C584 1.400 . S
C583 C588 1.490 . S
C584 H574 0.930 . S
C584 C583 1.400 . S
C584 C587 1.386 . S
H585 C601 0.930 . S
H586 C602 0.931 . S
C587 H575 0.929 . S
C587 C581 1.390 . S
C587 C584 1.386 . S
C588 C583 1.490 . S
C588 C590 1.395 . S
C588 C591 1.403 . S
H589 C595 0.926 1_455 S
C590 H576 0.930 . S
C590 C588 1.395 . S
C590 C593 1.403 . S
C591 C588 1.403 . S
C591 C592 1.524 . S
C591 C595 1.400 . S
C592 H577 0.960 . S
C592 H578 0.960 . S
C592 H579 0.960 . S
C592 C591 1.524 . S
C593 C590 1.403 . S
C593 C594 1.392 1_655 S
C593 C597 1.495 . S
C594 C593 1.392 1_455 S
C594 C595 1.385 1_455 S
C594 C596 1.478 . S
C595 H589 0.926 1_655 S
C595 C591 1.400 . S
C595 C594 1.385 1_655 S
C596 C594 1.478 . S
C596 C598 1.381 . S
C596 C602 1.383 . S
C597 C593 1.495 . S
C597 H603 0.959 . S
C597 H604 0.961 1_655 S
C597 H605 0.960 1_655 S
C598 C596 1.381 . S
C598 C599 1.394 . S
C598 H606 0.930 . S
C599 C598 1.394 . S
C599 C600 1.383 . S
C599 H607 0.929 . S
C600 C599 1.383 . S
C600 C601 1.377 . S
C601 H585 0.930 . S
C601 C600 1.377 . S
C601 C602 1.379 . S
C602 H586 0.931 . S
C602 C596 1.383 . S
C602 C601 1.379 . S
H603 C597 0.959 . S
H604 C597 0.961 1_455 S
H605 C597 0.960 1_455 S
H606 C598 0.930 . S
H607 C599 0.929 . S
H608 C616 0.929 . S
H609 C618 0.930 . S
H610 C620 0.930 1_655 S
H611 C623 0.929 . S
H612 C626 0.930 . S
H613 C628 0.960 . S
H614 C628 0.960 . S
H615 C628 0.960 . S
C616 H608 0.929 . S
C616 C617 1.377 . S
C616 C618 1.384 . S
C617 C616 1.377 . S
C617 C623 1.390 1_556 S
C618 H609 0.930 . S
C618 C616 1.384 . S
C618 C619 1.372 . S
C619 C618 1.372 . S
C619 C620 1.400 1_556 S
C619 C624 1.490 . S
C620 H610 0.930 1_455 S
C620 C619 1.400 1_554 S
C620 C623 1.386 . S
H621 C637 0.930 . S
H622 C638 0.931 . S
C623 H611 0.929 . S
C623 C617 1.390 1_554 S
C623 C620 1.386 . S
C624 C619 1.490 . S
C624 C626 1.395 . S
C624 C627 1.403 1_455 S
H625 C631 0.930 . S
C626 H612 0.930 . S
C626 C624 1.395 . S
C626 C629 1.403 . S
C627 C624 1.403 1_655 S
C627 C628 1.524 . S
C627 C631 1.400 . S
C628 H613 0.960 . S
C628 H614 0.960 . S
C628 H615 0.960 . S
C628 C627 1.524 . S
C629 C626 1.403 . S
C629 C630 1.392 1_455 S
C629 C633 1.495 1_556 S
C630 C629 1.392 1_655 S
C630 C631 1.385 . S
C630 C632 1.478 . S
C631 H625 0.930 . S
C631 C627 1.400 . S
C631 C630 1.385 . S
C632 C630 1.478 . S
C632 C634 1.381 . S
C632 C638 1.383 1_556 S
C633 C629 1.495 1_554 S
C633 H639 0.959 . S
C633 H640 0.961 . S
C633 H641 0.960 1_554 S
C634 C632 1.381 . S
C634 C635 1.394 . S
C634 H642 0.930 1_655 S
C635 C634 1.394 . S
C635 C636 1.383 . S
C635 H643 0.929 . S
C636 C635 1.383 . S
C636 C637 1.377 1_556 S
C637 H621 0.930 . S
C637 C636 1.377 1_554 S
C637 C638 1.379 . S
C638 H622 0.931 . S
C638 C632 1.383 1_554 S
C638 C637 1.379 . S
H639 C633 0.959 . S
H640 C633 0.961 . S
H641 C633 0.960 1_556 S
H642 C634 0.930 1_455 S
H643 C635 0.929 . S
H644 C652 0.929 . S
H645 C654 0.930 1_655 S
H646 C656 0.930 . S
H647 C659 0.929 . S
H648 C662 0.930 . S
H649 C664 0.960 . S
H650 C664 0.960 . S
H651 C664 0.960 . S
C652 H644 0.929 . S
C652 C653 1.377 . S
C652 C654 1.384 . S
C653 C652 1.377 . S
C653 C659 1.390 . S
C654 H645 0.930 1_455 S
C654 C652 1.384 . S
C654 C655 1.372 . S
C655 C654 1.372 . S
C655 C656 1.400 . S
C655 C660 1.490 . S
C656 H646 0.930 . S
C656 C655 1.400 . S
C656 C659 1.386 . S
H657 C673 0.930 . S
H658 C674 0.931 . S
C659 H647 0.929 . S
C659 C653 1.390 . S
C659 C656 1.386 . S
C660 C655 1.490 . S
C660 C662 1.395 1_455 S
C660 C663 1.403 . S
H661 C667 0.930 . S
C662 H648 0.930 . S
C662 C660 1.395 1_655 S
C662 C665 1.403 . S
C663 C660 1.403 . S
C663 C664 1.524 . S
C663 C667 1.400 . S
C664 H649 0.960 . S
C664 H650 0.960 . S
C664 H651 0.960 . S
C664 C663 1.524 . S
C665 C662 1.403 . S
C665 C666 1.392 . S
C665 C669 1.495 . S
C666 C665 1.392 . S
C666 C667 1.385 1_655 S
C666 C668 1.478 . S
C667 H661 0.930 . S
C667 C663 1.400 . S
C667 C666 1.385 1_455 S
C668 C666 1.478 . S
C668 C670 1.381 . S
C668 C674 1.383 . S
C669 C665 1.495 . S
C669 H675 0.959 . S
C669 H676 0.961 . S
C669 H677 0.960 . S
C670 C668 1.381 . S
C670 C671 1.394 . S
C670 H678 0.930 . S
C671 C670 1.394 . S
C671 C672 1.383 . S
C671 H679 0.929 . S
C672 C671 1.383 . S
C672 C673 1.377 . S
C673 H657 0.930 . S
C673 C672 1.377 . S
C673 C674 1.379 . S
C674 H658 0.931 . S
C674 C668 1.383 . S
C674 C673 1.379 . S
H675 C669 0.959 . S
H676 C669 0.961 . S
H677 C669 0.960 . S
H678 C670 0.930 . S
H679 C671 0.929 . S
H680 C688 0.929 . S
H681 C690 0.930 . S
H682 C692 0.930 . S
H683 C695 0.929 . S
H684 C698 0.930 . S
H685 C700 0.960 . S
H686 C700 0.960 . S
H687 C700 0.960 . S
C688 H680 0.929 . S
C688 C689 1.377 . S
C688 C690 1.384 . S
C689 C688 1.377 . S
C689 C695 1.390 1_556 S
C690 H681 0.930 . S
C690 C688 1.384 . S
C690 C691 1.372 . S
C691 C690 1.372 . S
C691 C692 1.400 1_556 S
C691 C696 1.490 . S
C692 H682 0.930 . S
C692 C691 1.400 1_554 S
C692 C695 1.386 . S
H693 C709 0.930 . S
H694 C710 0.931 . S
C695 H683 0.929 . S
C695 C689 1.390 1_554 S
C695 C692 1.386 . S
C696 C691 1.490 . S
C696 C698 1.395 . S
C696 C699 1.403 1_556 S
H697 C703 0.930 . S
C698 H684 0.930 . S
C698 C696 1.395 . S
C698 C701 1.403 1_565 S
C699 C696 1.403 1_554 S
C699 C700 1.524 . S
C699 C703 1.400 1_565 S
C700 H685 0.960 . S
C700 H686 0.960 . S
C700 H687 0.960 . S
C700 C699 1.524 . S
C701 C698 1.403 1_545 S
C701 C702 1.392 . S
C701 C705 1.495 . S
C702 C701 1.392 . S
C702 C703 1.385 1_556 S
C702 C704 1.478 . S
C703 H697 0.930 . S
C703 C699 1.400 1_545 S
C703 C702 1.385 1_554 S
C704 C702 1.478 . S
C704 C706 1.381 . S
C704 C710 1.383 1_556 S
C705 C701 1.495 . S
C705 H711 0.959 . S
C705 H712 0.961 . S
C705 H713 0.960 . S
C706 C704 1.381 . S
C706 C707 1.394 . S
C706 H714 0.930 . S
C707 C706 1.394 . S
C707 C708 1.383 . S
C707 H715 0.929 . S
C708 C707 1.383 . S
C708 C709 1.377 1_556 S
C709 H693 0.930 . S
C709 C708 1.377 1_554 S
C709 C710 1.379 . S
C710 H694 0.931 . S
C710 C704 1.383 1_554 S
C710 C709 1.379 . S
H711 C705 0.959 . S
H712 C705 0.961 . S
H713 C705 0.960 . S
H714 C706 0.930 . S
H715 C707 0.929 . S
H716 C724 0.929 . S
H717 C726 0.930 . S
H718 C728 0.930 . S
H719 C731 0.929 . S
H720 C734 0.930 . S
H721 C736 0.960 . S
H722 C736 0.960 . S
H723 C736 0.960 . S
C724 H716 0.929 . S
C724 C725 1.377 . S
C724 C726 1.384 . S
C725 C724 1.377 . S
C725 C731 1.390 . S
C726 H717 0.930 . S
C726 C724 1.384 . S
C726 C727 1.372 . S
C727 C726 1.372 . S
C727 C728 1.400 . S
C727 C732 1.490 . S
C728 H718 0.930 . S
C728 C727 1.400 . S
C728 C731 1.386 . S
H729 C745 0.930 . S
H730 C746 0.931 . S
C731 H719 0.929 . S
C731 C725 1.390 . S
C731 C728 1.386 . S
C732 C727 1.490 . S
C732 C734 1.395 . S
C732 C735 1.403 . S
H733 C739 0.930 . S
C734 H720 0.930 . S
C734 C732 1.395 . S
C734 C737 1.403 1_545 S
C735 C732 1.403 . S
C735 C736 1.524 . S
C735 C739 1.400 1_545 S
C736 H721 0.960 . S
C736 H722 0.960 . S
C736 H723 0.960 . S
C736 C735 1.524 . S
C737 C734 1.403 1_565 S
C737 C738 1.392 . S
C737 C741 1.495 . S
C738 C737 1.392 . S
C738 C739 1.385 . S
C738 C740 1.478 . S
C739 H733 0.930 . S
C739 C735 1.400 1_565 S
C739 C738 1.385 . S
C740 C738 1.478 . S
C740 C742 1.381 . S
C740 C746 1.383 . S
C741 C737 1.495 . S
C741 H747 0.959 . S
C741 H748 0.961 . S
C741 H749 0.960 . S
C742 C740 1.381 . S
C742 C743 1.394 . S
C742 H750 0.930 . S
C743 C742 1.394 . S
C743 C744 1.383 . S
C743 H751 0.929 . S
C744 C743 1.383 . S
C744 C745 1.377 . S
C745 H729 0.930 . S
C745 C744 1.377 . S
C745 C746 1.379 . S
C746 H730 0.931 . S
C746 C740 1.383 . S
C746 C745 1.379 . S
H747 C741 0.959 . S
H748 C741 0.961 . S
H749 C741 0.960 . S
H750 C742 0.930 . S
H751 C743 0.929 . S
H752 C760 0.944 . S
H753 C762 0.930 . S
H754 C764 0.930 . S
H755 C767 0.929 . S
H756 C770 0.930 1_556 S
H757 C772 0.960 . S
H758 C772 0.960 . S
H759 C772 0.960 . S
C760 H752 0.944 . S
C760 C761 1.361 1_556 S
C760 C762 1.386 . S
C761 C760 1.361 1_554 S
C761 C767 1.390 . S
C762 H753 0.930 . S
C762 C760 1.386 . S
C762 C763 1.372 1_556 S
C763 C762 1.372 1_554 S
C763 C764 1.400 . S
C763 C768 1.490 . S
C764 H754 0.930 . S
C764 C763 1.400 . S
C764 C767 1.386 . S
H765 C781 0.930 . S
H766 C782 0.931 . S
C767 H755 0.929 . S
C767 C761 1.390 . S
C767 C764 1.386 . S
C768 C763 1.490 . S
C768 C770 1.395 . S
C768 C771 1.403 . S
H769 C775 0.930 . S
C770 H756 0.930 1_554 S
C770 C768 1.395 . S
C770 C773 1.401 1_554 S
C771 C768 1.403 . S
C771 C772 1.524 . S
C771 C775 1.400 . S
C772 H757 0.960 . S
C772 H758 0.960 . S
C772 H759 0.960 . S
C772 C771 1.524 . S
C773 C770 1.401 1_556 S
C773 C774 1.386 1_556 S
C773 C777 1.504 . S
C774 C773 1.386 1_554 S
C774 C775 1.385 . S
C774 C776 1.478 . S
C775 H769 0.930 . S
C775 C771 1.400 . S
C775 C774 1.385 . S
C776 C774 1.478 . S
C776 C778 1.381 1_554 S
C776 C782 1.383 . S
C777 C773 1.504 . S
C777 H783 0.959 . S
C777 H784 0.961 . S
C777 H785 0.960 . S
C778 C776 1.381 1_556 S
C778 C779 1.394 . S
C778 H786 0.930 . S
C779 C778 1.394 . S
C779 C780 1.383 1_556 S
C779 H787 0.929 . S
C780 C779 1.383 1_554 S
C780 C781 1.377 . S
C781 H765 0.930 . S
C781 C780 1.377 . S
C781 C782 1.379 . S
C782 H766 0.931 . S
C782 C776 1.383 . S
C782 C781 1.379 . S
H783 C777 0.959 . S
H784 C777 0.961 . S
H785 C777 0.960 . S
H786 C778 0.930 . S
H787 C779 0.929 . S
H788 C796 0.929 . S
H789 C798 0.930 . S
H790 C800 0.930 . S
H791 C803 0.929 . S
H792 C806 0.930 . S
H793 C808 0.960 . S
H794 C808 0.960 . S
H795 C808 0.960 . S
C796 H788 0.929 . S
C796 C797 1.377 . S
C796 C798 1.384 . S
C797 C796 1.377 . S
C797 C803 1.390 . S
C798 H789 0.930 . S
C798 C796 1.384 . S
C798 C799 1.372 . S
C799 C798 1.372 . S
C799 C800 1.400 . S
C799 C804 1.490 . S
C800 H790 0.930 . S
C800 C799 1.400 . S
C800 C803 1.386 . S
H801 C817 0.930 . S
H802 C818 0.931 . S
C803 H791 0.929 . S
C803 C797 1.390 . S
C803 C800 1.386 . S
C804 C799 1.490 . S
C804 C806 1.395 1_554 S
C804 C807 1.403 . S
H805 C811 0.930 . S
C806 H792 0.930 . S
C806 C804 1.395 1_556 S
C806 C809 1.403 . S
C807 C804 1.403 . S
C807 C808 1.524 . S
C807 C811 1.400 . S
C808 H793 0.960 . S
C808 H794 0.960 . S
C808 H795 0.960 . S
C808 C807 1.524 . S
C809 C806 1.403 . S
C809 C810 1.392 1_556 S
C809 C813 1.495 . S
C810 C809 1.392 1_554 S
C810 C811 1.385 . S
C810 C812 1.478 . S
C811 H805 0.930 . S
C811 C807 1.400 . S
C811 C810 1.385 . S
C812 C810 1.478 . S
C812 C814 1.381 . S
C812 C818 1.383 . S
C813 C809 1.495 . S
C813 H819 0.959 . S
C813 H820 0.961 . S
C813 H821 0.960 . S
C814 C812 1.381 . S
C814 C815 1.394 . S
C814 H822 0.930 . S
C815 C814 1.394 . S
C815 C816 1.383 . S
C815 H823 0.929 . S
C816 C815 1.383 . S
C816 C817 1.377 . S
C817 H801 0.930 . S
C817 C816 1.377 . S
C817 C818 1.379 . S
C818 H802 0.931 . S
C818 C812 1.383 . S
C818 C817 1.379 . S
H819 C813 0.959 . S
H820 C813 0.961 . S
H821 C813 0.960 . S
H822 C814 0.930 . S
H823 C815 0.929 . S
H824 C832 0.929 . S
H825 C834 0.930 . S
H826 C836 0.930 . S
H827 C839 0.929 . S
H828 C842 0.930 . S
H829 C844 0.960 . S
H830 C844 0.960 . S
H831 C844 0.960 . S
C832 H824 0.929 . S
C832 C833 1.377 . S
C832 C834 1.384 . S
C833 C832 1.377 . S
C833 C839 1.390 . S
C834 H825 0.930 . S
C834 C832 1.384 . S
C834 C835 1.372 . S
C835 C834 1.372 . S
C835 C836 1.400 . S
C835 C840 1.490 . S
C836 H826 0.930 . S
C836 C835 1.400 . S
C836 C839 1.386 . S
H837 C853 0.930 . S
H838 C854 0.931 . S
C839 H827 0.929 . S
C839 C833 1.390 . S
C839 C836 1.386 . S
C840 C835 1.490 . S
C840 C842 1.395 . S
C840 C843 1.403 . S
H841 C847 0.930 . S
C842 H828 0.930 . S
C842 C840 1.395 . S
C842 C845 1.403 . S
C843 C840 1.403 . S
C843 C844 1.524 . S
C843 C847 1.400 . S
C844 H829 0.960 . S
C844 H830 0.960 . S
C844 H831 0.960 . S
C844 C843 1.524 . S
C845 C842 1.403 . S
C845 C846 1.392 . S
C845 C849 1.495 . S
C846 C845 1.392 . S
C846 C847 1.385 . S
C846 C848 1.478 . S
C847 H841 0.930 . S
C847 C843 1.400 . S
C847 C846 1.385 . S
C848 C846 1.478 . S
C848 C850 1.381 . S
C848 C854 1.383 . S
C849 C845 1.495 . S
C849 H855 0.959 . S
C849 H856 0.961 . S
C849 H857 0.960 . S
C850 C848 1.381 . S
C850 C851 1.394 . S
C850 H858 0.930 . S
C851 C850 1.394 . S
C851 C852 1.383 . S
C851 H859 0.929 . S
C852 C851 1.383 . S
C852 C853 1.377 . S
C853 H837 0.930 . S
C853 C852 1.377 . S
C853 C854 1.379 . S
C854 H838 0.931 . S
C854 C848 1.383 . S
C854 C853 1.379 . S
H855 C849 0.959 . S
H856 C849 0.961 . S
H857 C849 0.960 . S
H858 C850 0.930 . S
H859 C851 0.929 . S
H860 C868 0.929 . S
H861 C870 0.930 . S
H862 C872 0.930 . S
H863 C875 0.929 . S
H864 C878 0.930 . S
H865 C880 0.960 . S
H866 C880 0.960 . S
H867 C880 0.960 . S
C868 H860 0.929 . S
C868 C869 1.377 . S
C868 C870 1.384 . S
C869 C868 1.377 . S
C869 C875 1.390 . S
C870 H861 0.930 . S
C870 C868 1.384 . S
C870 C871 1.372 . S
C871 C870 1.372 . S
C871 C872 1.400 . S
C871 C876 1.490 . S
C872 H862 0.930 . S
C872 C871 1.400 . S
C872 C875 1.386 . S
H873 C889 0.930 . S
H874 C890 0.931 . S
C875 H863 0.929 . S
C875 C869 1.390 . S
C875 C872 1.386 . S
C876 C871 1.490 . S
C876 C878 1.395 . S
C876 C879 1.403 . S
H877 C883 0.930 . S
C878 H864 0.930 . S
C878 C876 1.395 . S
C878 C881 1.403 . S
C879 C876 1.403 . S
C879 C880 1.524 . S
C879 C883 1.400 . S
C880 H865 0.960 . S
C880 H866 0.960 . S
C880 H867 0.960 . S
C880 C879 1.524 . S
C881 C878 1.403 . S
C881 C882 1.392 . S
C881 C885 1.495 . S
C882 C881 1.392 . S
C882 C883 1.385 . S
C882 C884 1.478 . S
C883 H877 0.930 . S
C883 C879 1.400 . S
C883 C882 1.385 . S
C884 C882 1.478 . S
C884 C886 1.381 . S
C884 C890 1.383 . S
C885 C881 1.495 . S
C885 H891 0.959 . S
C885 H892 0.961 . S
C885 H893 0.960 . S
C886 C884 1.381 . S
C886 C887 1.394 . S
C886 H894 0.930 . S
C887 C886 1.394 . S
C887 C888 1.383 . S
C887 H895 0.929 . S
C888 C887 1.383 . S
C888 C889 1.377 . S
C889 H873 0.930 . S
C889 C888 1.377 . S
C889 C890 1.379 . S
C890 H874 0.931 . S
C890 C884 1.383 . S
C890 C889 1.379 . S
H891 C885 0.959 . S
H892 C885 0.961 . S
H893 C885 0.960 . S
H894 C886 0.930 . S
H895 C887 0.929 . S
H896 C904 0.929 . S
H897 C906 0.930 . S
H898 C908 0.930 . S
H899 C911 0.929 . S
H900 C914 0.930 . S
H901 C916 0.960 . S
H902 C916 0.960 1_455 S
H903 C916 0.960 . S
C904 H896 0.929 . S
C904 C905 1.377 . S
C904 C906 1.384 . S
C905 C904 1.377 . S
C905 C911 1.390 1_455 S
C906 H897 0.930 . S
C906 C904 1.384 . S
C906 C907 1.372 . S
C907 C906 1.372 . S
C907 C908 1.400 1_455 S
C907 C912 1.490 . S
C908 H898 0.930 . S
C908 C907 1.400 1_655 S
C908 C911 1.386 . S
H909 C925 0.930 . S
H910 C926 0.931 . S
C911 H899 0.929 . S
C911 C905 1.390 1_655 S
C911 C908 1.386 . S
C912 C907 1.490 . S
C912 C914 1.395 . S
C912 C915 1.403 1_455 S
H913 C919 0.930 . S
C914 H900 0.930 . S
C914 C912 1.395 . S
C914 C917 1.403 . S
C915 C912 1.403 1_655 S
C915 C916 1.524 . S
C915 C919 1.400 . S
C916 H901 0.960 . S
C916 H902 0.960 1_655 S
C916 H903 0.960 . S
C916 C915 1.524 . S
C917 C914 1.403 . S
C917 C918 1.392 1_455 S
C917 C921 1.495 . S
C918 C917 1.392 1_655 S
C918 C919 1.385 . S
C918 C920 1.478 . S
C919 H913 0.930 . S
C919 C915 1.400 . S
C919 C918 1.385 . S
C920 C918 1.478 . S
C920 C922 1.381 1_655 S
C920 C926 1.383 . S
C921 C917 1.495 . S
C921 H927 0.959 . S
C921 H928 0.961 1_455 S
C921 H929 0.960 . S
C922 C920 1.381 1_455 S
C922 C923 1.394 . S
C922 H930 0.930 . S
C923 C922 1.394 . S
C923 C924 1.383 1_455 S
C923 H931 0.929 . S
C924 C923 1.383 1_655 S
C924 C925 1.377 . S
C925 H909 0.930 . S
C925 C924 1.377 . S
C925 C926 1.379 . S
C926 H910 0.931 . S
C926 C920 1.383 . S
C926 C925 1.379 . S
H927 C921 0.959 . S
H928 C921 0.961 1_655 S
H929 C921 0.960 . S
H930 C922 0.930 . S
H931 C923 0.929 . S
H932 C940 0.929 . S
H933 C942 0.930 . S
H934 C944 0.930 . S
H935 C947 0.929 . S
H936 C950 0.930 . S
H937 C952 0.960 . S
H938 C952 0.960 1_655 S
H939 C952 0.960 . S
C940 H932 0.929 . S
C940 C941 1.377 . S
C940 C942 1.384 . S
C941 C940 1.377 . S
C941 C947 1.390 1_655 S
C942 H933 0.930 . S
C942 C940 1.384 . S
C942 C943 1.372 . S
C943 C942 1.372 . S
C943 C944 1.400 1_655 S
C943 C948 1.490 . S
C944 H934 0.930 . S
C944 C943 1.400 1_455 S
C944 C947 1.386 . S
H945 C961 0.930 . S
H946 C962 0.931 . S
C947 H935 0.929 . S
C947 C941 1.390 1_455 S
C947 C944 1.386 . S
C948 C943 1.490 . S
C948 C950 1.395 . S
C948 C951 1.403 1_655 S
H949 C955 0.930 . S
C950 H936 0.930 . S
C950 C948 1.395 . S
C950 C953 1.403 . S
C951 C948 1.403 1_455 S
C951 C952 1.524 . S
C951 C955 1.400 . S
C952 H937 0.960 . S
C952 H938 0.960 1_455 S
C952 H939 0.960 . S
C952 C951 1.524 . S
C953 C950 1.403 . S
C953 C954 1.392 1_655 S
C953 C957 1.495 . S
C954 C953 1.392 1_455 S
C954 C955 1.385 . S
C954 C956 1.478 . S
C955 H949 0.930 . S
C955 C951 1.400 . S
C955 C954 1.385 . S
C956 C954 1.478 . S
C956 C958 1.381 1_455 S
C956 C962 1.383 . S
C957 C953 1.495 . S
C957 H963 0.959 . S
C957 H964 0.961 1_655 S
C957 H965 0.960 . S
C958 C956 1.381 1_655 S
C958 C959 1.394 . S
C958 H966 0.930 . S
C959 C958 1.394 . S
C959 C960 1.383 1_655 S
C959 H967 0.929 . S
C960 C959 1.383 1_455 S
C960 C961 1.377 . S
C961 H945 0.930 . S
C961 C960 1.377 . S
C961 C962 1.379 . S
C962 H946 0.931 . S
C962 C956 1.383 . S
C962 C961 1.379 . S
H963 C957 0.959 . S
H964 C957 0.961 1_455 S
H965 C957 0.960 . S
H966 C958 0.930 . S
H967 C959 0.929 . S
H968 C976 0.929 1_455 S
H969 C978 0.933 . S
H970 C980 0.930 . S
H971 C983 0.929 . S
H972 C986 0.930 . S
H973 C988 0.960 . S
H974 C988 0.960 . S
H975 C988 0.960 . S
C976 H968 0.929 1_655 S
C976 C977 1.377 . S
C976 C978 1.383 1_655 S
C977 C976 1.377 . S
C977 C983 1.390 . S
C978 H969 0.933 . S
C978 C976 1.383 1_455 S
C978 C979 1.370 1_455 S
C979 C978 1.370 1_655 S
C979 C980 1.400 . S
C979 C984 1.490 . S
C980 H970 0.930 . S
C980 C979 1.400 . S
C980 C983 1.386 . S
H981 C997 0.931 . S
H982 C998 0.931 1_655 S
C983 H971 0.929 . S
C983 C977 1.390 . S
C983 C980 1.386 . S
C984 C979 1.490 . S
C984 C986 1.395 1_655 S
C984 C987 1.403 . S
H985 C991 0.930 . S
C986 H972 0.930 . S
C986 C984 1.395 1_455 S
C986 C989 1.403 . S
C987 C984 1.403 . S
C987 C988 1.524 . S
C987 C991 1.400 . S
C988 H973 0.960 . S
C988 H974 0.960 . S
C988 H975 0.960 . S
C988 C987 1.524 . S
C989 C986 1.403 . S
C989 C990 1.392 . S
C989 C993 1.495 . S
C990 C989 1.392 . S
C990 C991 1.385 1_455 S
C990 C992 1.478 . S
C991 H985 0.930 . S
C991 C987 1.400 . S
C991 C990 1.385 1_655 S
C992 C990 1.478 . S
C992 C994 1.381 . S
C992 C998 1.383 . S
C993 C989 1.495 . S
C993 H999 0.959 . S
C993 H1000 0.961 . S
C993 H1001 0.960 . S
C994 C992 1.381 . S
C994 C995 1.394 . S
C994 H1002 0.930 . S
C995 C994 1.394 . S
C995 C996 1.383 . S
C995 H1003 0.929 . S
C996 C995 1.383 . S
C996 C997 1.377 . S
C997 H981 0.931 . S
C997 C996 1.377 . S
C997 C998 1.379 . S
C998 H982 0.931 1_455 S
C998 C992 1.383 . S
C998 C997 1.379 . S
H999 C993 0.959 . S
H1000 C993 0.961 . S
H1001 C993 0.960 . S
H1002 C994 0.930 . S
H1003 C995 0.929 . S
H1004 C1012 0.929 . S
H1005 C1014 0.930 . S
H1006 C1016 0.930 . S
H1007 C1019 0.929 . S
H1008 C1022 0.930 . S
H1009 C1024 0.957 1_455 S
H1010 C1024 0.971 . S
H1011 C1024 0.953 1_455 S
C1012 H1004 0.929 . S
C1012 C1013 1.377 . S
C1012 C1014 1.384 . S
C1013 C1012 1.377 . S
C1013 C1019 1.390 1_655 S
C1014 H1005 0.930 . S
C1014 C1012 1.384 . S
C1014 C1015 1.372 . S
C1015 C1014 1.372 . S
C1015 C1016 1.400 1_655 S
C1015 C1020 1.490 . S
C1016 H1006 0.930 . S
C1016 C1015 1.400 1_455 S
C1016 C1019 1.386 . S
H1017 C1033 0.930 . S
H1018 C1034 0.931 . S
C1019 H1007 0.929 . S
C1019 C1013 1.390 1_455 S
C1019 C1016 1.386 . S
C1020 C1015 1.490 . S
C1020 C1022 1.395 . S
C1020 C1023 1.403 . S
H1021 C1027 0.930 . S
C1022 H1008 0.930 . S
C1022 C1020 1.395 . S
C1022 C1025 1.403 . S
C1023 C1020 1.403 . S
C1023 C1024 1.524 . S
C1023 C1027 1.400 1_655 S
C1024 H1009 0.957 1_655 S
C1024 H1010 0.971 . S
C1024 H1011 0.953 1_655 S
C1024 C1023 1.524 . S
C1025 C1022 1.403 . S
C1025 C1026 1.392 1_655 S
C1025 C1029 1.495 . S
C1026 C1025 1.392 1_455 S
C1026 C1027 1.385 . S
C1026 C1028 1.478 . S
C1027 H1021 0.930 . S
C1027 C1023 1.400 1_455 S
C1027 C1026 1.385 . S
C1028 C1026 1.478 . S
C1028 C1030 1.381 1_455 S
C1028 C1034 1.383 . S
C1029 C1025 1.495 . S
C1029 H1035 0.959 . S
C1029 H1036 0.961 1_655 S
C1029 H1037 0.960 . S
C1030 C1028 1.381 1_655 S
C1030 C1031 1.394 . S
C1030 H1038 0.930 . S
C1031 C1030 1.394 . S
C1031 C1032 1.383 1_655 S
C1031 H1039 0.929 . S
C1032 C1031 1.383 1_455 S
C1032 C1033 1.377 . S
C1033 H1017 0.930 . S
C1033 C1032 1.377 . S
C1033 C1034 1.379 . S
C1034 H1018 0.931 . S
C1034 C1028 1.383 . S
C1034 C1033 1.379 . S
H1035 C1029 0.959 . S
H1036 C1029 0.961 1_455 S
H1037 C1029 0.960 . S
H1038 C1030 0.930 . S
H1039 C1031 0.929 . S
H1040 C1048 0.929 . S
H1041 C1050 0.930 . S
H1042 C1052 0.930 . S
H1043 C1055 0.929 . S
H1044 C1058 0.930 . S
H1045 C1060 0.960 . S
H1046 C1060 0.960 . S
H1047 C1060 0.960 . S
C1048 H1040 0.929 . S
C1048 C1049 1.377 . S
C1048 C1050 1.384 . S
C1049 C1048 1.377 . S
C1049 C1055 1.390 . S
C1050 H1041 0.930 . S
C1050 C1048 1.384 . S
C1050 C1051 1.372 . S
C1051 C1050 1.372 . S
C1051 C1052 1.400 . S
C1051 C1056 1.490 . S
C1052 H1042 0.930 . S
C1052 C1051 1.400 . S
C1052 C1055 1.386 . S
H1053 C1069 0.930 . S
H1054 C1070 0.931 . S
C1055 H1043 0.929 . S
C1055 C1049 1.390 . S
C1055 C1052 1.386 . S
C1056 C1051 1.490 . S
C1056 C1058 1.395 . S
C1056 C1059 1.403 . S
H1057 C1063 0.930 . S
C1058 H1044 0.930 . S
C1058 C1056 1.395 . S
C1058 C1061 1.403 . S
C1059 C1056 1.403 . S
C1059 C1060 1.524 . S
C1059 C1063 1.400 . S
C1060 H1045 0.960 . S
C1060 H1046 0.960 . S
C1060 H1047 0.960 . S
C1060 C1059 1.524 . S
C1061 C1058 1.403 . S
C1061 C1062 1.392 . S
C1061 C1065 1.495 . S
C1062 C1061 1.392 . S
C1062 C1063 1.385 . S
C1062 C1064 1.478 . S
C1063 H1057 0.930 . S
C1063 C1059 1.400 . S
C1063 C1062 1.385 . S
C1064 C1062 1.478 . S
C1064 C1066 1.381 . S
C1064 C1070 1.383 . S
C1065 C1061 1.495 . S
C1065 H1071 0.959 . S
C1065 H1072 0.961 . S
C1065 H1073 0.960 . S
C1066 C1064 1.381 . S
C1066 C1067 1.394 . S
C1066 H1074 0.930 . S
C1067 C1066 1.394 . S
C1067 C1068 1.383 . S
C1067 H1075 0.929 . S
C1068 C1067 1.383 . S
C1068 C1069 1.377 . S
C1069 H1053 0.930 . S
C1069 C1068 1.377 . S
C1069 C1070 1.379 . S
C1070 H1054 0.931 . S
C1070 C1064 1.383 . S
C1070 C1069 1.379 . S
H1071 C1065 0.959 . S
H1072 C1065 0.961 . S
H1073 C1065 0.960 . S
H1074 C1066 0.930 . S
H1075 C1067 0.929 . S
H1076 C1084 0.929 . S
H1077 C1086 0.930 . S
H1078 C1088 0.930 . S
H1079 C1091 0.929 . S
H1080 C1094 0.930 . S
H1081 C1096 0.960 . S
H1082 C1096 0.960 . S
H1083 C1096 0.960 . S
C1084 H1076 0.929 . S
C1084 C1085 1.377 . S
C1084 C1086 1.384 . S
C1085 C1084 1.377 . S
C1085 C1091 1.390 . S
C1086 H1077 0.930 . S
C1086 C1084 1.384 . S
C1086 C1087 1.372 . S
C1087 C1086 1.372 . S
C1087 C1088 1.400 . S
C1087 C1092 1.490 . S
C1088 H1078 0.930 . S
C1088 C1087 1.400 . S
C1088 C1091 1.386 . S
H1089 C1105 0.930 . S
H1090 C1106 0.931 . S
C1091 H1079 0.929 . S
C1091 C1085 1.390 . S
C1091 C1088 1.386 . S
C1092 C1087 1.490 . S
C1092 C1094 1.395 . S
C1092 C1095 1.403 . S
H1093 C1099 0.930 . S
C1094 H1080 0.930 . S
C1094 C1092 1.395 . S
C1094 C1097 1.403 . S
C1095 C1092 1.403 . S
C1095 C1096 1.524 . S
C1095 C1099 1.400 . S
C1096 H1081 0.960 . S
C1096 H1082 0.960 . S
C1096 H1083 0.960 . S
C1096 C1095 1.524 . S
C1097 C1094 1.403 . S
C1097 C1098 1.392 . S
C1097 C1101 1.495 . S
C1098 C1097 1.392 . S
C1098 C1099 1.385 . S
C1098 C1100 1.478 . S
C1099 H1093 0.930 . S
C1099 C1095 1.400 . S
C1099 C1098 1.385 . S
C1100 C1098 1.478 . S
C1100 C1102 1.381 . S
C1100 C1106 1.383 . S
C1101 C1097 1.495 . S
C1101 H1107 0.959 . S
C1101 H1108 0.961 . S
C1101 H1109 0.960 . S
C1102 C1100 1.381 . S
C1102 C1103 1.394 . S
C1102 H1110 0.930 . S
C1103 C1102 1.394 . S
C1103 C1104 1.383 . S
C1103 H1111 0.929 . S
C1104 C1103 1.383 . S
C1104 C1105 1.377 . S
C1105 H1089 0.930 . S
C1105 C1104 1.377 . S
C1105 C1106 1.379 . S
C1106 H1090 0.931 . S
C1106 C1100 1.383 . S
C1106 C1105 1.379 . S
H1107 C1101 0.959 . S
H1108 C1101 0.961 . S
H1109 C1101 0.960 . S
H1110 C1102 0.930 . S
H1111 C1103 0.929 . S
H1112 C1120 0.929 . S
H1113 C1122 0.930 . S
H1114 C1124 0.930 . S
H1115 C1127 0.929 . S
H1116 C1130 0.930 . S
H1117 C1132 0.960 . S
H1118 C1132 0.960 . S
H1119 C1132 0.960 . S
C1120 H1112 0.929 . S
C1120 C1121 1.377 . S
C1120 C1122 1.384 . S
C1121 C1120 1.377 . S
C1121 C1127 1.390 . S
C1122 H1113 0.930 . S
C1122 C1120 1.384 . S
C1122 C1123 1.372 . S
C1123 C1122 1.372 . S
C1123 C1124 1.400 . S
C1123 C1128 1.490 . S
C1124 H1114 0.930 . S
C1124 C1123 1.400 . S
C1124 C1127 1.386 . S
H1125 C1141 0.930 . S
H1126 C1142 0.931 . S
C1127 H1115 0.929 . S
C1127 C1121 1.390 . S
C1127 C1124 1.386 . S
C1128 C1123 1.490 . S
C1128 C1130 1.395 . S
C1128 C1131 1.403 . S
H1129 C1135 0.930 . S
C1130 H1116 0.930 . S
C1130 C1128 1.395 . S
C1130 C1133 1.403 . S
C1131 C1128 1.403 . S
C1131 C1132 1.524 . S
C1131 C1135 1.400 . S
C1132 H1117 0.960 . S
C1132 H1118 0.960 . S
C1132 H1119 0.960 . S
C1132 C1131 1.524 . S
C1133 C1130 1.403 . S
C1133 C1134 1.392 . S
C1133 C1137 1.495 . S
C1134 C1133 1.392 . S
C1134 C1135 1.385 . S
C1134 C1136 1.478 . S
C1135 H1129 0.930 . S
C1135 C1131 1.400 . S
C1135 C1134 1.385 . S
C1136 C1134 1.478 . S
C1136 C1138 1.381 . S
C1136 C1142 1.383 . S
C1137 C1133 1.495 . S
C1137 H1143 0.959 . S
C1137 H1144 0.961 . S
C1137 H1145 0.960 . S
C1138 C1136 1.381 . S
C1138 C1139 1.394 . S
C1138 H1146 0.930 . S
C1139 C1138 1.394 . S
C1139 C1140 1.383 . S
C1139 H1147 0.929 . S
C1140 C1139 1.383 . S
C1140 C1141 1.377 . S
C1141 H1125 0.930 . S
C1141 C1140 1.377 . S
C1141 C1142 1.379 . S
C1142 H1126 0.931 . S
C1142 C1136 1.383 . S
C1142 C1141 1.379 . S
H1143 C1137 0.959 . S
H1144 C1137 0.961 . S
H1145 C1137 0.960 . S
H1146 C1138 0.930 . S
H1147 C1139 0.929 . S
H1148 C1156 0.929 . S
H1149 C1158 0.930 . S
H1150 C1160 0.930 . S
H1151 C1163 0.929 . S
H1152 C1166 0.930 . S
H1153 C1168 0.960 . S
H1154 C1168 0.960 . S
H1155 C1168 0.960 . S
C1156 H1148 0.929 . S
C1156 C1157 1.377 . S
C1156 C1158 1.384 . S
C1157 C1156 1.377 . S
C1157 C1163 1.390 . S
C1158 H1149 0.930 . S
C1158 C1156 1.384 . S
C1158 C1159 1.372 . S
C1159 C1158 1.372 . S
C1159 C1160 1.400 . S
C1159 C1164 1.490 . S
C1160 H1150 0.930 . S
C1160 C1159 1.400 . S
C1160 C1163 1.386 . S
H1161 C1177 0.930 . S
H1162 C1178 0.931 . S
C1163 H1151 0.929 . S
C1163 C1157 1.390 . S
C1163 C1160 1.386 . S
C1164 C1159 1.490 . S
C1164 C1166 1.395 . S
C1164 C1167 1.403 . S
H1165 C1171 0.930 . S
C1166 H1152 0.930 . S
C1166 C1164 1.395 . S
C1166 C1169 1.403 . S
C1167 C1164 1.403 . S
C1167 C1168 1.524 . S
C1167 C1171 1.400 . S
C1168 H1153 0.960 . S
C1168 H1154 0.960 . S
C1168 H1155 0.960 . S
C1168 C1167 1.524 . S
C1169 C1166 1.403 . S
C1169 C1170 1.392 . S
C1169 C1173 1.495 . S
C1170 C1169 1.392 . S
C1170 C1171 1.385 . S
C1170 C1172 1.478 . S
C1171 H1165 0.930 . S
C1171 C1167 1.400 . S
C1171 C1170 1.385 . S
C1172 C1170 1.478 . S
C1172 C1174 1.381 . S
C1172 C1178 1.383 . S
C1173 C1169 1.495 . S
C1173 H1179 0.959 . S
C1173 H1180 0.961 . S
C1173 H1181 0.960 . S
C1174 C1172 1.381 . S
C1174 C1175 1.394 . S
C1174 H1182 0.930 . S
C1175 C1174 1.394 . S
C1175 C1176 1.383 . S
C1175 H1183 0.929 . S
C1176 C1175 1.383 . S
C1176 C1177 1.377 . S
C1177 H1161 0.930 . S
C1177 C1176 1.377 . S
C1177 C1178 1.379 . S
C1178 H1162 0.931 . S
C1178 C1172 1.383 . S
C1178 C1177 1.379 . S
H1179 C1173 0.959 . S
H1180 C1173 0.961 . S
H1181 C1173 0.960 . S
H1182 C1174 0.930 . S
H1183 C1175 0.929 . S
C329 C3 2.360 . S
C348 C22 2.345 . S
C365 C62 2.356 . S
C384 C43 2.341 . S
C401 C83 2.356 . S
C420 C102 2.357 . S
C437 C123 2.356 . S
C456 C142 2.342 . S
C473 C163 2.358 . S
C492 C182 2.356 . S
C509 C203 2.356 . S
C528 C222 2.341 . S
C545 C243 2.360 . S
C564 C262 2.364 . S
C581 C302 2.360 . S
C600 C283 2.353 . S
C617 C49 2.413 . S
C636 C9 2.371 . S
C653 C129 2.391 . S
C672 C106 2.408 . S
C689 C169 2.396 . S
C708 C209 2.392 . S
C725 C266 2.394 . S
C744 C289 2.378 . S
C761 C26 1.725 . S
C780 C226 1.718 . S
C797 C186 1.728 . S
C816 C66 1.736 . S
C833 C89 1.717 . S
C852 C306 1.701 . S
C869 C146 1.716 . S
C888 C249 1.733 . S
C905 C2 1.536 . S
C924 C122 1.526 . S
C941 C42 1.582 . S
C960 C82 1.584 . S
C977 C55 1.527 . S
C996 C95 1.538 . S
C1013 C135 1.591 . S
C1032 C15 1.541 . S
C1049 C162 1.528 . S
C1068 C282 1.550 . S
C1085 C202 1.582 . S
C1104 C242 1.549 . S
C1121 C215 1.533 . S
C1140 C255 1.528 . S
C1157 C295 1.591 . S
C1176 C175 1.542 . S
