# Generated by pormake.
# Topology qdl, (4)-cn, num edge types: 1
# Building blocks:
#     Node 0, Type 0, BuildingBlock: KOZSID_clean_sbu_0, # of connection points: 4
#     Node 1, Type 0, BuildingBlock: KOZSID_clean_sbu_0, # of connection points: 4
#     Node 2, Type 0, BuildingBlock: KOZSID_clean_sbu_0, # of connection points: 4
#     Node 3, Type 0, BuildingBlock: KOZSID_clean_sbu_0, # of connection points: 4
#     Node 4, Type 0, BuildingBlock: KOZSID_clean_sbu_0, # of connection points: 4
#     Node 5, Type 0, BuildingBlock: KOZSID_clean_sbu_0, # of connection points: 4
#     Edge 6, Type (0, 0), BuildingBlock: OJICUG_clean_linker_0, # of connection points: 2
#     Edge 7, Type (0, 0), BuildingBlock: OJICUG_clean_linker_0, # of connection points: 2
#     Edge 8, Type (0, 0), BuildingBlock: OJICUG_clean_linker_0, # of connection points: 2
#     Edge 9, Type (0, 0), BuildingBlock: OJICUG_clean_linker_0, # of connection points: 2
#     Edge 10, Type (0, 0), BuildingBlock: OJICUG_clean_linker_0, # of connection points: 2
#     Edge 11, Type (0, 0), BuildingBlock: OJICUG_clean_linker_0, # of connection points: 2
#     Edge 12, Type (0, 0), BuildingBlock: OJICUG_clean_linker_0, # of connection points: 2
#     Edge 13, Type (0, 0), BuildingBlock: OJICUG_clean_linker_0, # of connection points: 2
#     Edge 14, Type (0, 0), BuildingBlock: OJICUG_clean_linker_0, # of connection points: 2
#     Edge 15, Type (0, 0), BuildingBlock: OJICUG_clean_linker_0, # of connection points: 2
#     Edge 16, Type (0, 0), BuildingBlock: OJICUG_clean_linker_0, # of connection points: 2
#     Edge 17, Type (0, 0), BuildingBlock: OJICUG_clean_linker_0, # of connection points: 2
# Relax obj value: 0.000
# Max RMSD: 0.053
# Mean RMSD: 0.050
data_MOF--net-qdl--node1-KOZSID_clean_sbu_0--edge1-OJICUG_clean_linker_0
_symmetry_space_group_name_H-M    P1
_symmetry_Int_Tables_number       1
_symmetry_cell_setting            triclinic
loop_
_symmetry_equiv_pos_as_xyz
'x, y, z'
_cell_length_a     12.605282
_cell_length_b     12.587021
_cell_length_c     92.34337
_cell_angle_alpha  101.7716
_cell_angle_beta   101.67737
_cell_angle_gamma 120.19171
loop_
_atom_site_label
_atom_site_type_symbol
_atom_site_fract_x
_atom_site_fract_y
_atom_site_fract_z
_atom_type_partial_charge
C0 C 0.51342 0.70571 0.10908 0.0
C1 C 0.63374 0.82719 0.11653 0.0
C2 C 0.72316 0.80363 0.12336 0.0
C3 C 0.65293 0.66961 0.11965 0.0
N4 N 0.52495 0.60766 0.11096 0.0
Co5 Co 0.38955 0.4146 0.10229 0.0
N6 N 0.52558 0.37586 0.10511 0.0
C7 C 0.65479 0.46342 0.11384 0.0
C8 C 0.72559 0.40902 0.11368 0.0
C9 C 0.63505 0.27839 0.10457 0.0
C10 C 0.51338 0.26015 0.09973 0.0
N11 N 0.25271 0.22126 0.09378 0.0
C12 C 0.26353 0.11828 0.08965 0.0
C13 C 0.1426 0.99915 0.08507 0.0
C14 C 0.05411 1.0288 0.08675 0.0
C15 C 0.12523 0.16378 0.09222 0.0
N16 N 0.25471 0.45432 0.09939 0.0
C17 C 0.12801 0.37264 0.09761 0.0
C18 C 0.05859 0.42816 0.09567 0.0
C19 C 0.14742 0.55239 0.09622 0.0
C20 C 0.26613 0.56528 0.09845 0.0
N21 N 0.39132 0.41884 0.12375 0.0
C22 C 0.38959 0.41871 0.15413 0.0
C23 C 0.38516 0.51373 0.14882 0.0
C24 C 0.38715 0.5127 0.13364 0.0
C25 C 0.39464 0.32417 0.14389 0.0
C26 C 0.39487 0.32568 0.12885 0.0
N27 N 0.38759 0.41069 0.0809 0.0
C28 C 0.26611 0.33879 0.05316 0.0
C29 C 0.38289 0.41382 0.05049 0.0
C30 C 0.50221 0.48697 0.06335 0.0
C31 C 0.50254 0.48275 0.0784 0.0
C32 C 0.27048 0.33949 0.06842 0.0
H33 H 0.59598 0.5387 0.08802 0.0
H34 H 0.17876 0.28327 0.07014 0.0
H35 H 0.38503 0.58766 0.1299 0.0
H36 H 0.39698 0.25027 0.12135 0.0
C37 C 0.70761 0.59742 0.12082 0.0
C38 C 0.38955 0.68603 0.10057 0.0
C39 C 0.38818 0.12918 0.09236 0.0
C40 C 0.07358 0.23893 0.09467 0.0
H41 H 0.65548 0.92245 0.11676 0.0
H42 H 0.82827 0.87475 0.12937 0.0
H43 H 0.8305 0.45835 0.11944 0.0
H44 H 0.6553 0.20385 0.10228 0.0
H45 H 0.12156 0.90112 0.0815 0.0
H46 H 0.95036 0.96007 0.08429 0.0
H47 H 0.95454 0.38186 0.09334 0.0
H48 H 0.12721 0.6249 0.09507 0.0
H49 H 0.38197 0.58926 0.15638 0.0
H50 H 0.39611 0.24756 0.14735 0.0
H51 H 0.17168 0.28141 0.04353 0.0
H52 H 0.59469 0.54522 0.06174 0.0
C53 C 0.4139 0.121 0.42775 0.0
C54 C 0.39593 0.99907 0.42361 0.0
C55 C 0.26351 0.90619 0.41787 0.0
C56 C 0.20851 0.97637 0.41879 0.0
N57 N 0.29786 0.10863 0.42503 0.0
Co58 Co 0.26144 0.24801 0.42819 0.0
N59 N 0.0669 0.11159 0.41823 0.0
C60 C 1.00429 0.97947 0.41168 0.0
C61 C 0.86978 0.91143 0.40609 0.0
C62 C 0.8449 1.00556 0.40946 0.0
C63 C 0.96628 0.12581 0.41698 0.0
N64 N 0.22491 0.38734 0.43163 0.0
C65 C 0.10883 0.37462 0.42916 0.0
C66 C 0.12661 0.49633 0.43381 0.0
C67 C 0.25898 0.58946 0.43964 0.0
C68 C 0.31411 0.51957 0.43829 0.0
N69 N 0.45613 0.38456 0.4379 0.0
C70 C 0.51898 0.51703 0.44389 0.0
C71 C 0.65342 0.5851 0.4491 0.0
C72 C 0.67804 0.49064 0.44599 0.0
C73 C 0.55657 0.37012 0.43901 0.0
N74 N 0.25481 0.24064 0.44936 0.0
C75 C 0.23546 0.23132 0.47913 0.0
C76 C 0.31213 0.3514 0.47726 0.0
C77 C 0.32084 0.35377 0.46245 0.0
C78 C 0.17018 0.11578 0.46586 0.0
C79 C 0.18078 0.12265 0.45123 0.0
N80 N 0.26795 0.2555 0.407 0.0
C81 C 0.33569 0.38201 0.39014 0.0
C82 C 0.28393 0.26826 0.37714 0.0
C83 C 0.2231 0.14766 0.37943 0.0
C84 C 0.21549 0.14352 0.39425 0.0
C85 C 0.32768 0.37359 0.40478 0.0
H86 H 0.16758 0.04849 0.39512 0.0
H87 H 0.37105 0.46441 0.41414 0.0
H88 H 0.38094 0.44848 0.46188 0.0
H89 H 0.1268 1.03113 0.44155 0.0
C90 C 0.07399 0.92155 0.41249 0.0
C91 C 0.54169 0.24532 0.43298 0.0
C92 C 0.98088 0.24982 0.4235 0.0
C93 C 0.44903 0.57477 0.44378 0.0
H94 H 0.47041 0.97909 0.42417 0.0
H95 H 0.21323 0.80025 0.41299 0.0
H96 H 0.79837 0.8057 0.40078 0.0
H97 H 0.74852 0.98771 0.40708 0.0
H98 H 0.05191 0.51584 0.43342 0.0
H99 H 0.30914 0.6953 0.44468 0.0
H100 H 0.72487 0.69089 0.45417 0.0
H101 H 0.77429 0.5083 0.44826 0.0
H102 H 0.36637 0.44368 0.48722 0.0
H103 H 0.10864 1.02025 0.46665 0.0
H104 H 0.38156 0.47801 0.38908 0.0
H105 H 0.18289 0.05633 0.36992 0.0
C106 C 0.47988 0.44873 0.76857 0.0
C107 C 0.59341 0.45086 0.77129 0.0
C108 C 0.55669 0.32617 0.77003 0.0
C109 C 0.42351 0.25564 0.76669 0.0
N110 N 0.37346 0.3285 0.76607 0.0
Co111 Co 0.1841 0.26509 0.76073 0.0
N112 N 0.12674 0.07782 0.75635 0.0
C113 C 0.20349 1.0319 0.75654 0.0
C114 C 0.13667 0.89938 0.75367 0.0
C115 C 1.01043 0.85875 0.75192 0.0
C116 C 1.00751 0.96937 0.75377 0.0
N117 N 0.99512 0.20207 0.75581 0.0
C118 C 0.88954 0.08239 0.75366 0.0
C119 C 0.77681 0.08127 0.75164 0.0
C120 C 0.81325 0.20603 0.75302 0.0
C121 C 0.94549 0.27559 0.75576 0.0
N122 N 0.24119 0.45199 0.76475 0.0
C123 C 0.16359 0.49707 0.76378 0.0
C124 C 0.22964 0.62857 0.76607 0.0
C125 C 0.35638 0.66934 0.76818 0.0
C126 C 0.36027 0.55985 0.76714 0.0
N127 N 0.20386 0.28971 0.78336 0.0
C128 C 0.20868 0.30162 0.81445 0.0
C129 C 0.15986 0.36041 0.80653 0.0
C130 C 0.15878 0.35371 0.79117 0.0
C131 C 0.25897 0.24064 0.80667 0.0
C132 C 0.25591 0.23612 0.79133 0.0
N133 N 0.16432 0.24033 0.73808 0.0
C134 C 0.08664 0.26672 0.7137 0.0
C135 C 0.15764 0.22848 0.707 0.0
C136 C 0.22851 0.19233 0.71591 0.0
C137 C 0.22903 0.19716 0.73118 0.0
C138 C 0.09205 0.27283 0.72917 0.0
H139 H 0.28421 0.16719 0.73723 0.0
H140 H 0.0389 0.30646 0.73375 0.0
H141 H 0.1186 0.39887 0.78573 0.0
H142 H 0.2945 0.18688 0.78608 0.0
C143 C 0.34042 0.11838 0.76177 0.0
C144 C 0.47603 0.55998 0.76718 0.0
C145 C 0.8933 0.96996 0.75448 0.0
C146 C 1.02757 0.41156 0.75953 0.0
H147 H 0.69142 0.53276 0.77329 0.0
H148 H 0.61835 0.28961 0.77057 0.0
H149 H 0.17666 0.84088 0.75375 0.0
H150 H 0.9312 0.76016 0.75017 0.0
H151 H 0.67942 0.99968 0.7499 0.0
H152 H 0.75188 0.24288 0.75271 0.0
H153 H 0.18926 0.68652 0.76561 0.0
H154 H 0.43568 0.76733 0.76974 0.0
H155 H 0.11927 0.40857 0.81196 0.0
H156 H 0.30088 0.19627 0.81238 0.0
H157 H 1.03028 0.29566 0.70721 0.0
H158 H 0.2832 0.15983 0.71109 0.0
C159 C 0.88455 0.09892 0.5814 0.0
C160 C 0.76333 0.97818 0.57429 0.0
C161 C 0.78857 0.88396 0.57155 0.0
C162 C 0.9231 0.95243 0.57705 0.0
N163 N 0.98536 0.08484 0.58295 0.0
Co164 Co 0.18004 0.22206 0.59244 0.0
N165 N 0.21719 0.08341 0.59006 0.0
C166 C 0.1283 0.95137 0.58474 0.0
C167 C 0.18376 0.88151 0.58423 0.0
C168 C 0.31585 0.9743 0.58929 0.0
C169 C 0.33325 0.0959 0.59263 0.0
N170 N 0.37484 0.35926 0.6015 0.0
C171 C 0.47518 0.34482 0.60252 0.0
C172 C 0.59643 0.46557 0.60886 0.0
C173 C 0.57166 0.56011 0.61162 0.0
C174 C 0.43738 0.49182 0.60685 0.0
N175 N 0.14285 0.3608 0.5952 0.0
C176 C 0.23181 0.49312 0.60142 0.0
C177 C 0.17638 0.56287 0.60249 0.0
C178 C 0.04411 0.46964 0.59693 0.0
C179 C 1.02665 0.34798 0.59272 0.0
N180 N 0.18242 0.22109 0.57091 0.0
C181 C 0.19454 0.22115 0.54062 0.0
C182 C 0.25226 0.33885 0.5533 0.0
C183 C 0.24461 0.33651 0.56814 0.0
C184 C 0.12986 0.10327 0.54343 0.0
C185 C 0.12527 0.10547 0.55851 0.0
N186 N 0.17774 0.22306 0.61401 0.0
C187 C 0.25422 0.34104 0.64219 0.0
C188 C 0.16977 0.2254 0.64444 0.0
C189 C 0.08957 0.1085 0.63122 0.0
C190 C 0.09605 0.10924 0.61629 0.0
C191 C 0.25566 0.33792 0.62701 0.0
H192 H 1.03379 1.0164 0.60679 0.0
H193 H 0.32011 0.4301 0.6261 0.0
H194 H 0.29114 0.42974 0.57724 0.0
H195 H 0.07547 1.01239 0.55986 0.0
C196 C 0.99351 0.8955 0.57852 0.0
C197 C 0.8989 0.22337 0.58741 0.0
C198 C 0.46009 0.21946 0.59699 0.0
C199 C 0.3668 0.54888 0.60664 0.0
H200 H 0.66686 0.96019 0.57184 0.0
H201 H 0.71746 0.77811 0.56675 0.0
H202 H 0.13377 0.77549 0.57999 0.0
H203 H 0.39028 0.95422 0.5899 0.0
H204 H 0.69256 0.48324 0.61092 0.0
H205 H 0.64278 0.6659 0.61617 0.0
H206 H 0.22632 0.66884 0.60713 0.0
H207 H 0.96929 0.4891 0.59641 0.0
H208 H 0.30547 0.43324 0.55193 0.0
H209 H 0.08168 1.00903 0.53401 0.0
H210 H 0.31741 0.43424 0.65209 0.0
H211 H 1.02344 1.01614 0.63243 0.0
C212 C 0.07074 0.04796 0.92185 0.0
C213 C 0.07565 0.93981 0.92165 0.0
C214 C 0.20579 0.98597 0.92733 0.0
C215 C 0.27331 0.11922 0.93068 0.0
N216 N 0.19397 0.15986 0.92709 0.0
Co217 Co 0.2541 0.34675 0.93132 0.0
N218 N 0.43882 0.40577 0.93483 0.0
C219 C 0.49199 0.33988 0.93807 0.0
C220 C 0.62154 0.40478 0.93934 0.0
C221 C 0.65101 0.51804 0.9366 0.0
C222 C 0.53719 0.51536 0.93378 0.0
N223 N 0.31567 0.53355 0.93573 0.0
C224 C 0.42476 0.6327 0.93469 0.0
C225 C 0.42699 0.74663 0.93773 0.0
C226 C 0.31544 0.71714 0.94085 0.0
C227 C 0.25099 0.58718 0.93943 0.0
N228 N 0.06875 0.2888 0.92765 0.0
C229 C 1.02911 0.36875 0.93145 0.0
C230 C 0.89562 0.30202 0.92768 0.0
C231 C 0.84819 0.17155 0.92149 0.0
C232 C 0.95599 0.16585 0.92192 0.0
N233 N 0.2226 0.31875 0.90876 0.0
C234 C 0.20546 0.30451 0.87753 0.0
C235 C 0.15587 0.36435 0.88575 0.0
C236 C 0.16483 0.36987 0.90128 0.0
C237 C 0.26007 0.24838 0.88516 0.0
C238 C 0.26739 0.25629 0.90069 0.0
N239 N 0.28715 0.37538 0.954 0.0
C240 C 0.21404 0.29682 0.9741 0.0
C241 C 0.33379 0.40048 0.98607 0.0
C242 C 0.42872 0.49489 0.98162 0.0
C243 C 0.40308 0.48096 0.96554 0.0
C244 C 0.19386 0.2855 0.95834 0.0
H245 H 0.47781 0.55425 0.96242 0.0
H246 H 0.10262 0.20216 0.94968 0.0
H247 H 0.12776 0.41844 0.90735 0.0
H248 H 0.3131 0.21516 0.90633 0.0
C249 C 0.4105 0.20752 0.93626 0.0
C250 C 0.94923 0.04316 0.9197 0.0
C251 C 0.52647 0.62029 0.93084 0.0
C252 C 0.11853 0.50589 0.93747 0.0
H253 H 0.99383 0.83887 0.91844 0.0
H254 H 0.24623 0.92922 0.92895 0.0
H255 H 0.68471 0.37041 0.94111 0.0
H256 H 0.74465 0.59306 0.93651 0.0
H257 H 0.49909 0.84006 0.9373 0.0
H258 H 0.28081 0.78012 0.94272 0.0
H259 H 0.83952 0.34319 0.9293 0.0
H260 H 0.74665 0.08949 0.91783 0.0
H261 H 0.11068 0.40709 0.88027 0.0
H262 H 0.3008 0.20207 0.87939 0.0
H263 H 0.13508 0.22343 0.97677 0.0
H264 H 0.52304 0.57725 0.99038 0.0
C265 C 0.46943 0.18454 0.26563 0.0
C266 C 0.59121 0.2028 0.26996 0.0
C267 C 0.68377 0.33556 0.27594 0.0
C268 C 0.61356 0.39049 0.27497 0.0
N269 N 0.48159 0.30076 0.26842 0.0
Co270 Co 0.34205 0.33679 0.26534 0.0
N271 N 0.47763 0.5316 0.27575 0.0
C272 C 0.60953 0.59456 0.28233 0.0
C273 C 0.67708 0.72929 0.28806 0.0
C274 C 0.58291 0.75394 0.2847 0.0
C275 C 0.46314 0.63225 0.27705 0.0
N276 N 0.20258 0.37285 0.26212 0.0
C277 C 0.21493 0.4891 0.26481 0.0
C278 C 0.09326 0.47095 0.26027 0.0
C279 C 1.00059 0.3382 0.25424 0.0
C280 C 0.07068 0.28322 0.25539 0.0
N281 N 0.20646 0.14187 0.25504 0.0
C282 C 0.07438 0.07873 0.24871 0.0
C283 C 1.0068 0.94401 0.24315 0.0
C284 C 0.10114 0.91949 0.24638 0.0
C285 C 0.22107 0.04128 0.25378 0.0
N286 N 0.35198 0.34883 0.2444 0.0
C287 C 0.36689 0.37821 0.21517 0.0
C288 C 0.24545 0.30327 0.21678 0.0
C289 C 0.24027 0.28922 0.23133 0.0
C290 C 0.48065 0.43707 0.22841 0.0
C291 C 0.47103 0.42165 0.24276 0.0
N292 N 0.33216 0.32519 0.2863 0.0
C293 C 0.20398 0.24928 0.30278 0.0
C294 C 0.31748 0.30387 0.31591 0.0
C295 C 0.43856 0.36937 0.31385 0.0
C296 C 0.44359 0.3796 0.29916 0.0
C297 C 0.21338 0.26007 0.28824 0.0
H298 H 0.53903 0.43131 0.2985 0.0
H299 H 0.12294 0.21463 0.27874 0.0
H300 H 0.14476 0.23023 0.23173 0.0
H301 H 0.56156 0.47101 0.25242 0.0
C302 C 0.66781 0.52511 0.28147 0.0
C303 C 0.34522 0.05622 0.26018 0.0
C304 C 0.33936 0.61744 0.27044 0.0
C305 C 1.01627 0.14837 0.24927 0.0
H306 H 0.61121 0.12824 0.2694 0.0
H307 H 0.78942 0.38605 0.28104 0.0
H308 H 0.78255 0.80102 0.29342 0.0
H309 H 0.60045 0.8504 0.28714 0.0
H310 H 0.07347 0.54561 0.26076 0.0
H311 H 0.89497 0.28775 0.24909 0.0
H312 H 0.90129 0.87224 0.23789 0.0
H313 H 0.08371 0.8231 0.24398 0.0
H314 H 0.15441 0.25394 0.2068 0.0
H315 H 0.57716 0.49697 0.22781 0.0
H316 H 0.10749 0.19933 0.30365 0.0
H317 H 0.5298 0.41158 0.32345 0.0
C318 C 0.41796 1.00803 0.10934 0.0
C319 C 0.38916 1.01481 0.09418 0.0
H320 H 0.43943 0.89746 0.12315 0.0
C321 C 0.35849 0.91191 0.08101 0.0
H322 H 0.44084 0.08571 0.11966 0.0
C323 C 0.35827 0.80432 0.08304 0.0
C324 C 0.38886 0.79899 0.09826 0.0
H325 H 0.33482 0.91494 0.06922 0.0
H326 H 0.33485 0.72568 0.07279 0.0
C327 C 0.41729 0.90084 0.11135 0.0
C328 C 0.69252 0.27859 0.41801 0.0
C329 C 0.654 0.24553 0.43054 0.0
H330 H 0.82778 0.30517 0.40593 0.0
C331 C 0.72279 0.21393 0.44072 0.0
H332 H 0.64008 0.30335 0.41009 0.0
C333 C 0.82908 0.2148 0.43835 0.0
C334 C 0.86767 0.24807 0.42584 0.0
H335 H 0.69412 0.18869 0.45047 0.0
H336 H 0.88168 0.19026 0.44629 0.0
C337 C 0.79887 0.27958 0.41565 0.0
C338 C 0.77764 0.88857 0.77279 0.0
C339 C 0.78727 0.8636 0.75775 0.0
H340 H 0.67046 0.81039 0.78758 0.0
C341 C 0.69425 0.73914 0.74583 0.0
H342 H 0.84857 0.98444 0.78209 0.0
C343 C 0.59313 0.64038 0.74896 0.0
C344 C 0.58342 0.66546 0.76399 0.0
H345 H 0.6998 0.71877 0.73413 0.0
H346 H 0.52197 0.5446 0.73964 0.0
C347 C 0.67644 0.78986 0.77591 0.0
C348 C 0.64269 0.1903 0.60487 0.0
C349 C 0.57143 0.21815 0.59442 0.0
H350 H 0.80374 0.17003 0.61066 0.0
C351 C 0.60806 0.24836 0.58168 0.0
H352 H 0.61582 0.16772 0.61481 0.0
C353 C 0.7149 0.25016 0.57936 0.0
C354 C 0.78613 0.22234 0.58981 0.0
H355 H 0.55395 0.27057 0.57357 0.0
H356 H 0.7422 0.27334 0.56946 0.0
C357 C 0.74939 0.19189 0.60253 0.0
C358 C 0.72522 0.85128 0.93993 0.0
C359 C 0.63399 0.72782 0.92779 0.0
H360 H 0.89316 0.04764 0.94671 0.0
C361 C 0.64694 0.70669 0.9129 0.0
H362 H 0.71836 0.86899 0.95158 0.0
C363 C 0.74863 0.80892 0.91011 0.0
C364 C 0.83856 0.93327 0.92222 0.0
H365 H 0.57808 0.61143 0.90343 0.0
H366 H 0.75727 0.79111 0.89857 0.0
C367 C 0.82561 0.95317 0.93714 0.0
C368 C 0.30748 0.79902 0.27777 0.0
C369 C 0.34111 0.73035 0.26788 0.0
H370 H 0.28236 0.95741 0.28291 0.0
C371 C 0.37668 0.76896 0.25546 0.0
H372 H 0.28016 0.77024 0.28742 0.0
C373 C 0.37783 0.87503 0.2529 0.0
C374 C 0.34419 0.94371 0.26279 0.0
H375 H 0.40287 0.71655 0.24775 0.0
H376 H 0.40498 0.90368 0.24324 0.0
C377 C 0.30867 0.9051 0.27521 0.0
C378 C 0.46641 0.38305 0.19411 0.0
C379 C 0.3752 0.39335 0.19976 0.0
H380 H 0.54311 0.3841 0.17543 0.0
C381 C 0.29174 0.41715 0.19052 0.0
H382 H 0.53151 0.36389 0.20086 0.0
C383 C 0.29866 0.42914 0.17592 0.0
C384 C 0.38805 0.41595 0.17014 0.0
H385 H 0.22131 0.42694 0.19461 0.0
H386 H 0.23175 0.44537 0.16896 0.0
C387 C 0.47241 0.39371 0.17948 0.0
C388 C 0.19741 0.31494 0.51891 0.0
C389 C 0.20263 0.22187 0.5247 0.0
H390 H 0.2024 0.39011 0.50005 0.0
C391 C 0.2171 0.13064 0.51522 0.0
H392 H 0.18365 0.38508 0.52567 0.0
C393 C 0.22672 0.13294 0.50042 0.0
C394 C 0.22307 0.22707 0.49475 0.0
H395 H 0.2237 0.05884 0.51935 0.0
H396 H 0.23979 0.0626 0.49355 0.0
C397 C 0.20793 0.31777 0.50417 0.0
C398 C 0.23236 0.41336 0.84207 0.0
C399 C 0.20584 0.30213 0.83055 0.0
H400 H 0.25471 0.50212 0.86588 0.0
C401 C 0.17653 0.19084 0.83456 0.0
H402 H 0.25697 0.50145 0.8395 0.0
C403 C 0.17524 0.19123 0.84968 0.0
C404 C 0.2029 0.30279 0.86124 0.0
H405 H 0.15294 0.10238 0.82592 0.0
H406 H 0.15114 0.1033 0.85226 0.0
C407 C 0.23091 0.41369 0.85721 0.0
C408 C 0.30931 0.2924 0.02156 0.0
C409 C 0.37922 0.41279 0.03428 0.0
H410 H 0.24626 0.19411 0.99673 0.0
C411 C 0.44201 0.53067 0.0313 0.0
H412 H 0.26205 0.20013 0.02357 0.0
C413 C 0.4302 0.52774 0.01574 0.0
C414 C 0.35678 0.40672 1.00288 0.0
H415 H 0.49652 0.62495 0.04093 0.0
H416 H 0.47508 0.62014 0.01377 0.0
C417 C 0.29965 0.28936 1.00614 0.0
C418 C 0.40967 0.39498 0.34589 0.0
C419 C 0.30974 0.29343 0.3316 0.0
H420 H 0.4826 0.46537 0.3712 0.0
C421 C 0.20201 0.18236 0.33246 0.0
H422 H 0.4935 0.48307 0.34585 0.0
C423 C 0.19353 0.17414 0.34713 0.0
C424 C 0.29342 0.27586 0.36142 0.0
H425 H 0.12391 0.10078 0.3218 0.0
H426 H 0.10731 0.08843 0.3472 0.0
C427 C 0.40218 0.38585 0.36055 0.0
C428 C 0.28354 0.2899 0.6735 0.0
C429 C 0.16619 0.2267 0.66047 0.0
H430 H 0.37243 0.33882 0.69839 0.0
C431 C 0.04568 0.16472 0.66285 0.0
H432 H 0.37774 0.33789 0.672 0.0
C433 C 0.04273 0.16669 0.67799 0.0
C434 C 0.16007 0.22836 0.69097 0.0
H435 H 0.95379 0.116 0.65303 0.0
H436 H 0.9486 0.11825 0.6795 0.0
C437 C 0.28045 0.28972 0.68856 0.0
loop_
_geom_bond_atom_site_label_1
_geom_bond_atom_site_label_2
_geom_bond_distance
_geom_bond_site_symmetry_2
_ccdc_geom_bond_type
C0 C1 1.443 . S
C0 N4 1.376 . S
C0 C38 1.389 . S
C1 C0 1.443 . S
C1 C2 1.340 . S
C1 H41 0.951 . S
C2 C1 1.340 . S
C2 C3 1.439 . S
C2 H42 0.950 . S
C3 C2 1.439 . S
C3 N4 1.374 . S
C3 C37 1.395 . S
N4 C0 1.376 . S
N4 C3 1.374 . S
N4 Co5 2.008 . S
Co5 N4 2.008 . S
Co5 N6 1.995 . S
Co5 N11 2.008 . S
Co5 N16 1.995 . S
Co5 N21 2.282 . S
Co5 N27 2.282 . S
N6 Co5 1.995 . S
N6 C7 1.376 . S
N6 C10 1.383 . S
C7 N6 1.376 . S
C7 C8 1.446 . S
C7 C37 1.391 . S
C8 C7 1.446 . S
C8 C9 1.339 . S
C8 H43 0.949 . S
C9 C8 1.339 . S
C9 C10 1.439 . S
C9 H44 0.950 . S
C10 N6 1.383 . S
C10 C9 1.439 . S
C10 C39 1.392 . S
N11 Co5 2.008 . S
N11 C12 1.376 . S
N11 C15 1.374 . S
C12 N11 1.376 . S
C12 C13 1.443 . S
C12 C39 1.389 . S
C13 C12 1.443 . S
C13 C14 1.340 . S
C13 H45 0.951 1_545 S
C14 C13 1.340 . S
C14 C15 1.439 . S
C14 H46 0.950 . S
C15 N11 1.374 . S
C15 C14 1.439 . S
C15 C40 1.395 . S
N16 Co5 1.995 . S
N16 C17 1.376 . S
N16 C20 1.383 . S
C17 N16 1.376 . S
C17 C18 1.446 . S
C17 C40 1.391 . S
C18 C17 1.446 . S
C18 C19 1.339 . S
C18 H47 0.949 . S
C19 C18 1.339 . S
C19 C20 1.439 . S
C19 H48 0.950 . S
C20 N16 1.383 . S
C20 C19 1.439 . S
C20 C38 1.392 . S
N21 Co5 2.282 . S
N21 C24 1.332 . S
N21 C26 1.332 . S
C22 C23 1.386 . S
C22 C25 1.388 . S
C23 C22 1.386 . S
C23 C24 1.382 . S
C23 H49 0.950 . S
C24 N21 1.332 . S
C24 C23 1.382 . S
C24 H35 0.952 . S
C25 C22 1.388 . S
C25 C26 1.382 . S
C25 H50 0.950 . S
C26 N21 1.332 . S
C26 C25 1.382 . S
C26 H36 0.948 . S
N27 Co5 2.282 . S
N27 C31 1.332 . S
N27 C32 1.332 . S
C28 C29 1.388 . S
C28 C32 1.382 . S
C28 H51 0.950 . S
C29 C28 1.388 . S
C29 C30 1.386 . S
C30 C29 1.386 . S
C30 C31 1.382 . S
C30 H52 0.950 . S
C31 N27 1.332 . S
C31 C30 1.382 . S
C31 H33 0.952 . S
C32 N27 1.332 . S
C32 C28 1.382 . S
C32 H34 0.948 . S
H33 C31 0.952 . S
H34 C32 0.948 . S
H35 C24 0.952 . S
H36 C26 0.948 . S
C37 C3 1.395 . S
C37 C7 1.391 . S
C38 C0 1.389 . S
C38 C20 1.392 . S
C39 C10 1.392 . S
C39 C12 1.389 . S
C40 C15 1.395 . S
C40 C17 1.391 . S
H41 C1 0.951 . S
H42 C2 0.950 . S
H43 C8 0.949 . S
H44 C9 0.950 . S
H45 C13 0.951 1_565 S
H46 C14 0.950 . S
H47 C18 0.949 . S
H48 C19 0.950 . S
H49 C23 0.950 . S
H50 C25 0.950 . S
H51 C28 0.950 . S
H52 C30 0.950 . S
C53 C54 1.443 . S
C53 N57 1.376 . S
C53 C91 1.389 1_565 S
C54 C53 1.443 . S
C54 C55 1.340 . S
C54 H94 0.951 . S
C55 C54 1.340 . S
C55 C56 1.439 . S
C55 H95 0.950 . S
C56 C55 1.439 . S
C56 N57 1.374 . S
C56 C90 1.395 1_455 S
N57 C53 1.376 . S
N57 C56 1.374 . S
N57 Co58 2.008 1_565 S
Co58 N57 2.008 1_545 S
Co58 N59 1.995 1_445 S
Co58 N64 2.008 . S
Co58 N69 1.995 . S
Co58 N74 2.282 . S
Co58 N80 2.282 . S
N59 Co58 1.995 1_665 S
N59 C60 1.376 . S
N59 C63 1.383 . S
C60 N59 1.376 . S
C60 C61 1.446 . S
C60 C90 1.391 . S
C61 C60 1.446 . S
C61 C62 1.339 . S
C61 H96 0.949 . S
C62 C61 1.339 . S
C62 C63 1.439 . S
C62 H97 0.950 . S
C63 N59 1.383 . S
C63 C62 1.439 . S
C63 C92 1.392 1_565 S
N64 Co58 2.008 . S
N64 C65 1.376 . S
N64 C68 1.374 . S
C65 N64 1.376 . S
C65 C66 1.443 . S
C65 C92 1.389 1_455 S
C66 C65 1.443 . S
C66 C67 1.340 . S
C66 H98 0.951 1_455 S
C67 C66 1.340 . S
C67 C68 1.439 . S
C67 H99 0.950 . S
C68 N64 1.374 . S
C68 C67 1.439 . S
C68 C93 1.395 . S
N69 Co58 1.995 . S
N69 C70 1.376 . S
N69 C73 1.383 . S
C70 N69 1.376 . S
C70 C71 1.446 . S
C70 C93 1.391 . S
C71 C70 1.446 . S
C71 C72 1.339 . S
C71 H100 0.949 . S
C72 C71 1.339 . S
C72 C73 1.439 . S
C72 H101 0.950 . S
C73 N69 1.383 . S
C73 C72 1.439 . S
C73 C91 1.392 . S
N74 Co58 2.282 . S
N74 C77 1.332 . S
N74 C79 1.332 1_545 S
C75 C76 1.386 1_565 S
C75 C78 1.388 . S
C76 C75 1.386 1_545 S
C76 C77 1.382 . S
C76 H102 0.950 . S
C77 N74 1.332 . S
C77 C76 1.382 . S
C77 H88 0.952 . S
C78 C75 1.388 . S
C78 C79 1.382 . S
C78 H103 0.950 1_455 S
C79 N74 1.332 1_565 S
C79 C78 1.382 . S
C79 H89 0.948 . S
N80 Co58 2.282 . S
N80 C84 1.332 1_545 S
N80 C85 1.332 . S
C81 C82 1.388 . S
C81 C85 1.382 . S
C81 H104 0.950 . S
C82 C81 1.388 . S
C82 C83 1.386 1_545 S
C83 C82 1.386 1_565 S
C83 C84 1.382 . S
C83 H105 0.950 . S
C84 N80 1.332 1_565 S
C84 C83 1.382 . S
C84 H86 0.952 . S
C85 N80 1.332 . S
C85 C81 1.382 . S
C85 H87 0.948 . S
H86 C84 0.952 . S
H87 C85 0.948 . S
H88 C77 0.952 . S
H89 C79 0.948 . S
C90 C56 1.395 1_655 S
C90 C60 1.391 . S
C91 C53 1.389 1_545 S
C91 C73 1.392 . S
C92 C63 1.392 1_545 S
C92 C65 1.389 1_655 S
C93 C68 1.395 . S
C93 C70 1.391 . S
H94 C54 0.951 . S
H95 C55 0.950 . S
H96 C61 0.949 . S
H97 C62 0.950 . S
H98 C66 0.951 1_655 S
H99 C67 0.950 . S
H100 C71 0.949 . S
H101 C72 0.950 . S
H102 C76 0.950 . S
H103 C78 0.950 1_655 S
H104 C81 0.950 . S
H105 C83 0.950 . S
C106 C107 1.443 . S
C106 N110 1.376 . S
C106 C144 1.389 . S
C107 C106 1.443 . S
C107 C108 1.340 . S
C107 H147 0.951 . S
C108 C107 1.340 . S
C108 C109 1.439 . S
C108 H148 0.950 . S
C109 C108 1.439 . S
C109 N110 1.374 . S
C109 C143 1.395 . S
N110 C106 1.376 . S
N110 C109 1.374 . S
N110 Co111 2.008 . S
Co111 N110 2.008 . S
Co111 N112 1.992 . S
Co111 N117 2.008 1_455 S
Co111 N122 1.995 . S
Co111 N127 2.282 . S
Co111 N133 2.282 . S
N112 Co111 1.992 . S
N112 C113 1.384 . S
N112 C116 1.378 1_455 S
C113 N112 1.384 . S
C113 C114 1.446 1_545 S
C113 C143 1.391 . S
C114 C113 1.446 1_565 S
C114 C115 1.339 1_455 S
C114 H149 0.949 . S
C115 C114 1.339 1_655 S
C115 C116 1.439 1_565 S
C115 H150 0.950 . S
C116 N112 1.378 1_655 S
C116 C115 1.439 1_545 S
C116 C145 1.392 . S
N117 Co111 2.008 1_655 S
N117 C118 1.376 . S
N117 C121 1.374 . S
C118 N117 1.376 . S
C118 C119 1.443 . S
C118 C145 1.389 . S
C119 C118 1.443 . S
C119 C120 1.340 . S
C119 H151 0.951 . S
C120 C119 1.340 . S
C120 C121 1.439 . S
C120 H152 0.950 . S
C121 N117 1.374 . S
C121 C120 1.439 . S
C121 C146 1.395 . S
N122 Co111 1.995 . S
N122 C123 1.376 . S
N122 C126 1.383 . S
C123 N122 1.376 . S
C123 C124 1.446 . S
C123 C146 1.391 1_455 S
C124 C123 1.446 . S
C124 C125 1.339 . S
C124 H153 0.949 . S
C125 C124 1.339 . S
C125 C126 1.439 . S
C125 H154 0.950 . S
C126 N122 1.383 . S
C126 C125 1.439 . S
C126 C144 1.392 . S
N127 Co111 2.282 . S
N127 C130 1.332 . S
N127 C132 1.332 . S
C128 C129 1.386 . S
C128 C131 1.388 . S
C129 C128 1.386 . S
C129 C130 1.382 . S
C129 H155 0.950 . S
C130 N127 1.332 . S
C130 C129 1.382 . S
C130 H141 0.952 . S
C131 C128 1.388 . S
C131 C132 1.382 . S
C131 H156 0.950 . S
C132 N127 1.332 . S
C132 C131 1.382 . S
C132 H142 0.948 . S
N133 Co111 2.282 . S
N133 C137 1.332 . S
N133 C138 1.332 1_455 S
C134 C135 1.388 1_655 S
C134 C138 1.382 . S
C134 H157 0.950 . S
C135 C134 1.388 1_455 S
C135 C136 1.386 . S
C136 C135 1.386 . S
C136 C137 1.382 . S
C136 H158 0.950 . S
C137 N133 1.332 . S
C137 C136 1.382 . S
C137 H139 0.952 . S
C138 N133 1.332 1_655 S
C138 C134 1.382 . S
C138 H140 0.948 . S
H139 C137 0.952 . S
H140 C138 0.948 . S
H141 C130 0.952 . S
H142 C132 0.948 . S
C143 C109 1.395 . S
C143 C113 1.391 . S
C144 C106 1.389 . S
C144 C126 1.392 . S
C145 C116 1.392 . S
C145 C118 1.389 . S
C146 C121 1.395 . S
C146 C123 1.391 1_655 S
H147 C107 0.951 . S
H148 C108 0.950 . S
H149 C114 0.949 . S
H150 C115 0.950 . S
H151 C119 0.951 . S
H152 C120 0.950 . S
H153 C124 0.949 . S
H154 C125 0.950 . S
H155 C129 0.950 . S
H156 C131 0.950 . S
H157 C134 0.950 . S
H158 C136 0.950 . S
C159 C160 1.443 . S
C159 N163 1.376 . S
C159 C197 1.389 1_565 S
C160 C159 1.443 . S
C160 C161 1.340 . S
C160 H200 0.951 . S
C161 C160 1.340 . S
C161 C162 1.439 . S
C161 H201 0.950 . S
C162 C161 1.439 . S
C162 N163 1.374 . S
C162 C196 1.395 . S
N163 C159 1.376 . S
N163 C162 1.374 . S
N163 Co164 2.008 1_665 S
Co164 N163 2.008 1_445 S
Co164 N165 1.995 1_545 S
Co164 N170 2.008 . S
Co164 N175 1.995 1_455 S
Co164 N180 2.282 1_545 S
Co164 N186 2.282 . S
N165 Co164 1.995 1_565 S
N165 C166 1.376 1_455 S
N165 C169 1.383 . S
C166 N165 1.376 1_655 S
C166 C167 1.446 1_655 S
C166 C196 1.391 . S
C167 C166 1.446 1_455 S
C167 C168 1.339 . S
C167 H202 0.949 . S
C168 C167 1.339 . S
C168 C169 1.439 . S
C168 H203 0.950 . S
C169 N165 1.383 . S
C169 C168 1.439 . S
C169 C198 1.392 1_565 S
N170 Co164 2.008 . S
N170 C171 1.376 . S
N170 C174 1.374 . S
C171 N170 1.376 . S
C171 C172 1.443 . S
C171 C198 1.389 . S
C172 C171 1.443 . S
C172 C173 1.340 . S
C172 H204 0.951 . S
C173 C172 1.340 . S
C173 C174 1.439 . S
C173 H205 0.950 . S
C174 N170 1.374 . S
C174 C173 1.439 . S
C174 C199 1.395 . S
N175 Co164 1.995 1_655 S
N175 C176 1.376 1_655 S
N175 C179 1.383 . S
C176 N175 1.376 1_455 S
C176 C177 1.446 . S
C176 C199 1.391 . S
C177 C176 1.446 . S
C177 C178 1.339 1_455 S
C177 H206 0.949 . S
C178 C177 1.339 1_655 S
C178 C179 1.439 . S
C178 H207 0.950 . S
C179 N175 1.383 . S
C179 C178 1.439 . S
C179 C197 1.392 . S
N180 Co164 2.282 1_565 S
N180 C183 1.332 1_565 S
N180 C185 1.332 1_455 S
C181 C182 1.386 1_565 S
C181 C184 1.388 . S
C182 C181 1.386 1_545 S
C182 C183 1.382 . S
C182 H208 0.950 . S
C183 N180 1.332 1_545 S
C183 C182 1.382 . S
C183 H194 0.952 . S
C184 C181 1.388 . S
C184 C185 1.382 1_455 S
C184 H209 0.950 1_455 S
C185 N180 1.332 1_655 S
C185 C184 1.382 1_655 S
C185 H195 0.948 . S
N186 Co164 2.282 . S
N186 C190 1.332 1_545 S
N186 C191 1.332 . S
C187 C188 1.388 . S
C187 C191 1.382 . S
C187 H210 0.950 . S
C188 C187 1.388 . S
C188 C189 1.386 1_445 S
C189 C188 1.386 1_665 S
C189 C190 1.382 1_655 S
C189 H211 0.950 . S
C190 N186 1.332 1_565 S
C190 C189 1.382 1_455 S
C190 H192 0.952 1_455 S
C191 N186 1.332 . S
C191 C187 1.382 . S
C191 H193 0.948 . S
H192 C190 0.952 1_655 S
H193 C191 0.948 . S
H194 C183 0.952 . S
H195 C185 0.948 . S
C196 C162 1.395 . S
C196 C166 1.391 . S
C197 C159 1.389 1_545 S
C197 C179 1.392 . S
C198 C169 1.392 1_545 S
C198 C171 1.389 . S
C199 C174 1.395 . S
C199 C176 1.391 . S
H200 C160 0.951 . S
H201 C161 0.950 . S
H202 C167 0.949 . S
H203 C168 0.950 . S
H204 C172 0.951 . S
H205 C173 0.950 . S
H206 C177 0.949 . S
H207 C178 0.950 . S
H208 C182 0.950 . S
H209 C184 0.950 1_655 S
H210 C187 0.950 . S
H211 C189 0.950 . S
C212 C213 1.443 . S
C212 N216 1.376 . S
C212 C250 1.389 1_455 S
C213 C212 1.443 . S
C213 C214 1.340 . S
C213 H253 0.951 1_445 S
C214 C213 1.340 . S
C214 C215 1.439 . S
C214 H254 0.950 . S
C215 C214 1.439 . S
C215 N216 1.374 . S
C215 C249 1.395 . S
N216 C212 1.376 . S
N216 C215 1.374 . S
N216 Co217 2.008 . S
Co217 N216 2.008 . S
Co217 N218 1.995 . S
Co217 N223 2.008 . S
Co217 N228 1.995 . S
Co217 N233 2.282 . S
Co217 N239 2.282 . S
N218 Co217 1.995 . S
N218 C219 1.376 . S
N218 C222 1.383 . S
C219 N218 1.376 . S
C219 C220 1.446 . S
C219 C249 1.391 . S
C220 C219 1.446 . S
C220 C221 1.339 . S
C220 H255 0.949 . S
C221 C220 1.339 . S
C221 C222 1.439 . S
C221 H256 0.950 . S
C222 N218 1.383 . S
C222 C221 1.439 . S
C222 C251 1.392 . S
N223 Co217 2.008 . S
N223 C224 1.376 . S
N223 C227 1.374 . S
C224 N223 1.376 . S
C224 C225 1.443 . S
C224 C251 1.389 . S
C225 C224 1.443 . S
C225 C226 1.340 . S
C225 H257 0.951 . S
C226 C225 1.340 . S
C226 C227 1.439 . S
C226 H258 0.950 . S
C227 N223 1.374 . S
C227 C226 1.439 . S
C227 C252 1.395 . S
N228 Co217 1.995 . S
N228 C229 1.376 1_455 S
N228 C232 1.383 1_455 S
C229 N228 1.376 1_655 S
C229 C230 1.446 . S
C229 C252 1.391 1_655 S
C230 C229 1.446 . S
C230 C231 1.339 . S
C230 H259 0.949 . S
C231 C230 1.339 . S
C231 C232 1.439 . S
C231 H260 0.950 . S
C232 N228 1.383 1_655 S
C232 C231 1.439 . S
C232 C250 1.392 . S
N233 Co217 2.282 . S
N233 C236 1.332 . S
N233 C238 1.332 . S
C234 C235 1.386 . S
C234 C237 1.388 . S
C235 C234 1.386 . S
C235 C236 1.382 . S
C235 H261 0.950 . S
C236 N233 1.332 . S
C236 C235 1.382 . S
C236 H247 0.952 . S
C237 C234 1.388 . S
C237 C238 1.382 . S
C237 H262 0.950 . S
C238 N233 1.332 . S
C238 C237 1.382 . S
C238 H248 0.948 . S
N239 Co217 2.282 . S
N239 C243 1.332 . S
N239 C244 1.332 . S
C240 C241 1.388 . S
C240 C244 1.382 . S
C240 H263 0.950 . S
C241 C240 1.388 . S
C241 C242 1.386 . S
C242 C241 1.386 . S
C242 C243 1.382 . S
C242 H264 0.950 . S
C243 N239 1.332 . S
C243 C242 1.382 . S
C243 H245 0.952 . S
C244 N239 1.332 . S
C244 C240 1.382 . S
C244 H246 0.948 . S
H245 C243 0.952 . S
H246 C244 0.948 . S
H247 C236 0.952 . S
H248 C238 0.948 . S
C249 C215 1.395 . S
C249 C219 1.391 . S
C250 C212 1.389 1_655 S
C250 C232 1.392 . S
C251 C222 1.392 . S
C251 C224 1.389 . S
C252 C227 1.395 . S
C252 C229 1.391 1_455 S
H253 C213 0.951 1_665 S
H254 C214 0.950 . S
H255 C220 0.949 . S
H256 C221 0.950 . S
H257 C225 0.951 . S
H258 C226 0.950 . S
H259 C230 0.949 . S
H260 C231 0.950 . S
H261 C235 0.950 . S
H262 C237 0.950 . S
H263 C240 0.950 . S
H264 C242 0.950 . S
C265 C266 1.443 . S
C265 N269 1.376 . S
C265 C303 1.389 . S
C266 C265 1.443 . S
C266 C267 1.340 . S
C266 H306 0.951 . S
C267 C266 1.340 . S
C267 C268 1.439 . S
C267 H307 0.950 . S
C268 C267 1.439 . S
C268 N269 1.374 . S
C268 C302 1.395 . S
N269 C265 1.376 . S
N269 C268 1.374 . S
N269 Co270 2.008 . S
Co270 N269 2.008 . S
Co270 N271 1.995 . S
Co270 N276 2.008 . S
Co270 N281 1.995 . S
Co270 N286 2.282 . S
Co270 N292 2.282 . S
N271 Co270 1.995 . S
N271 C272 1.376 . S
N271 C275 1.383 . S
C272 N271 1.376 . S
C272 C273 1.446 . S
C272 C302 1.391 . S
C273 C272 1.446 . S
C273 C274 1.339 . S
C273 H308 0.949 . S
C274 C273 1.339 . S
C274 C275 1.439 . S
C274 H309 0.950 . S
C275 N271 1.383 . S
C275 C274 1.439 . S
C275 C304 1.392 . S
N276 Co270 2.008 . S
N276 C277 1.376 . S
N276 C280 1.374 . S
C277 N276 1.376 . S
C277 C278 1.443 . S
C277 C304 1.389 . S
C278 C277 1.443 . S
C278 C279 1.340 . S
C278 H310 0.951 . S
C279 C278 1.340 . S
C279 C280 1.439 . S
C279 H311 0.950 . S
C280 N276 1.374 . S
C280 C279 1.439 . S
C280 C305 1.395 . S
N281 Co270 1.995 . S
N281 C282 1.376 . S
N281 C285 1.383 . S
C282 N281 1.376 . S
C282 C283 1.446 1_545 S
C282 C305 1.391 . S
C283 C282 1.446 1_565 S
C283 C284 1.339 . S
C283 H312 0.949 . S
C284 C283 1.339 . S
C284 C285 1.439 1_565 S
C284 H313 0.950 . S
C285 N281 1.383 . S
C285 C284 1.439 1_545 S
C285 C303 1.392 . S
N286 Co270 2.282 . S
N286 C289 1.332 . S
N286 C291 1.332 . S
C287 C288 1.386 . S
C287 C290 1.388 . S
C288 C287 1.386 . S
C288 C289 1.382 . S
C288 H314 0.950 . S
C289 N286 1.332 . S
C289 C288 1.382 . S
C289 H300 0.952 . S
C290 C287 1.388 . S
C290 C291 1.382 . S
C290 H315 0.950 . S
C291 N286 1.332 . S
C291 C290 1.382 . S
C291 H301 0.948 . S
N292 Co270 2.282 . S
N292 C296 1.332 . S
N292 C297 1.332 . S
C293 C294 1.388 . S
C293 C297 1.382 . S
C293 H316 0.950 . S
C294 C293 1.388 . S
C294 C295 1.386 . S
C295 C294 1.386 . S
C295 C296 1.382 . S
C295 H317 0.950 . S
C296 N292 1.332 . S
C296 C295 1.382 . S
C296 H298 0.952 . S
C297 N292 1.332 . S
C297 C293 1.382 . S
C297 H299 0.948 . S
H298 C296 0.952 . S
H299 C297 0.948 . S
H300 C289 0.952 . S
H301 C291 0.948 . S
C302 C268 1.395 . S
C302 C272 1.391 . S
C303 C265 1.389 . S
C303 C285 1.392 . S
C304 C275 1.392 . S
C304 C277 1.389 . S
C305 C280 1.395 . S
C305 C282 1.391 . S
H306 C266 0.951 . S
H307 C267 0.950 . S
H308 C273 0.949 . S
H309 C274 0.950 . S
H310 C278 0.951 . S
H311 C279 0.950 . S
H312 C283 0.949 . S
H313 C284 0.950 . S
H314 C288 0.950 . S
H315 C290 0.950 . S
H316 C293 0.950 . S
H317 C295 0.950 . S
C318 C319 1.387 . S
C318 H322 0.950 . S
C318 C327 1.390 1_545 S
C319 C318 1.387 . S
C319 C321 1.387 1_545 S
H320 C327 0.950 . S
C321 C319 1.387 1_565 S
C321 C323 1.390 . S
C321 H325 0.950 . S
H322 C318 0.950 . S
C323 C321 1.390 . S
C323 C324 1.387 . S
C323 H326 0.950 . S
C324 C323 1.387 . S
C324 C327 1.387 . S
H325 C321 0.950 . S
H326 C323 0.950 . S
C327 C318 1.390 1_565 S
C327 H320 0.950 . S
C327 C324 1.387 . S
C328 C329 1.387 . S
C328 H332 0.950 . S
C328 C337 1.390 . S
C329 C328 1.387 . S
C329 C331 1.387 . S
H330 C337 0.950 . S
C331 C329 1.387 . S
C331 C333 1.390 . S
C331 H335 0.950 . S
H332 C328 0.950 . S
C333 C331 1.390 . S
C333 C334 1.387 . S
C333 H336 0.950 . S
C334 C333 1.387 . S
C334 C337 1.387 . S
H335 C331 0.950 . S
H336 C333 0.950 . S
C337 C328 1.390 . S
C337 H330 0.950 . S
C337 C334 1.387 . S
C338 C339 1.387 . S
C338 H342 0.950 . S
C338 C347 1.390 . S
C339 C338 1.387 . S
C339 C341 1.387 . S
H340 C347 0.950 . S
C341 C339 1.387 . S
C341 C343 1.390 . S
C341 H345 0.950 . S
H342 C338 0.950 . S
C343 C341 1.390 . S
C343 C344 1.387 . S
C343 H346 0.950 . S
C344 C343 1.387 . S
C344 C347 1.387 . S
H345 C341 0.950 . S
H346 C343 0.950 . S
C347 C338 1.390 . S
C347 H340 0.950 . S
C347 C344 1.387 . S
C348 C349 1.387 . S
C348 H352 0.950 . S
C348 C357 1.390 . S
C349 C348 1.387 . S
C349 C351 1.387 . S
H350 C357 0.950 . S
C351 C349 1.387 . S
C351 C353 1.390 . S
C351 H355 0.950 . S
H352 C348 0.950 . S
C353 C351 1.390 . S
C353 C354 1.387 . S
C353 H356 0.950 . S
C354 C353 1.387 . S
C354 C357 1.387 . S
H355 C351 0.950 . S
H356 C353 0.950 . S
C357 C348 1.390 . S
C357 H350 0.950 . S
C357 C354 1.387 . S
C358 C359 1.387 . S
C358 H362 0.950 . S
C358 C367 1.390 1_565 S
C359 C358 1.387 . S
C359 C361 1.387 . S
H360 C367 0.950 . S
C361 C359 1.387 . S
C361 C363 1.390 . S
C361 H365 0.950 . S
H362 C358 0.950 . S
C363 C361 1.390 . S
C363 C364 1.387 1_565 S
C363 H366 0.950 . S
C364 C363 1.387 1_545 S
C364 C367 1.387 . S
H365 C361 0.950 . S
H366 C363 0.950 . S
C367 C358 1.390 1_545 S
C367 H360 0.950 . S
C367 C364 1.387 . S
C368 C369 1.387 . S
C368 H372 0.950 . S
C368 C377 1.390 . S
C369 C368 1.387 . S
C369 C371 1.387 . S
H370 C377 0.950 . S
C371 C369 1.387 . S
C371 C373 1.390 . S
C371 H375 0.950 . S
H372 C368 0.950 . S
C373 C371 1.390 . S
C373 C374 1.387 . S
C373 H376 0.950 1_565 S
C374 C373 1.387 . S
C374 C377 1.387 . S
H375 C371 0.950 . S
H376 C373 0.950 1_545 S
C377 C368 1.390 . S
C377 H370 0.950 . S
C377 C374 1.387 . S
C378 C379 1.387 . S
C378 H382 0.950 . S
C378 C387 1.390 . S
C379 C378 1.387 . S
C379 C381 1.387 . S
H380 C387 0.950 . S
C381 C379 1.387 . S
C381 C383 1.390 . S
C381 H385 0.950 . S
H382 C378 0.950 . S
C383 C381 1.390 . S
C383 C384 1.387 . S
C383 H386 0.950 . S
C384 C383 1.387 . S
C384 C387 1.387 . S
H385 C381 0.950 . S
H386 C383 0.950 . S
C387 C378 1.390 . S
C387 H380 0.950 . S
C387 C384 1.387 . S
C388 C389 1.387 1_545 S
C388 H392 0.950 1_455 S
C388 C397 1.390 . S
C389 C388 1.387 1_565 S
C389 C391 1.387 . S
H390 C397 0.950 . S
C391 C389 1.387 . S
C391 C393 1.390 . S
C391 H395 0.950 . S
H392 C388 0.950 1_655 S
C393 C391 1.390 . S
C393 C394 1.387 . S
C393 H396 0.950 . S
C394 C393 1.387 . S
C394 C397 1.387 1_565 S
H395 C391 0.950 . S
H396 C393 0.950 . S
C397 C388 1.390 . S
C397 H390 0.950 . S
C397 C394 1.387 1_545 S
C398 C399 1.387 . S
C398 H402 0.950 . S
C398 C407 1.390 . S
C399 C398 1.387 . S
C399 C401 1.387 . S
H400 C407 0.950 . S
C401 C399 1.387 . S
C401 C403 1.390 . S
C401 H405 0.950 1_455 S
H402 C398 0.950 . S
C403 C401 1.390 . S
C403 C404 1.387 . S
C403 H406 0.950 . S
C404 C403 1.387 . S
C404 C407 1.387 . S
H405 C401 0.950 1_655 S
H406 C403 0.950 . S
C407 C398 1.390 . S
C407 H400 0.950 . S
C407 C404 1.387 . S
C408 C409 1.387 . S
C408 H412 0.950 . S
C408 C417 1.390 1_554 S
C409 C408 1.387 . S
C409 C411 1.387 . S
H410 C417 0.950 . S
C411 C409 1.387 . S
C411 C413 1.390 . S
C411 H415 0.950 . S
H412 C408 0.950 . S
C413 C411 1.390 . S
C413 C414 1.387 1_554 S
C413 H416 0.950 . S
C414 C413 1.387 1_556 S
C414 C417 1.387 . S
H415 C411 0.950 . S
H416 C413 0.950 . S
C417 C408 1.390 1_556 S
C417 H410 0.950 . S
C417 C414 1.387 . S
C418 C419 1.387 . S
C418 H422 0.950 . S
C418 C427 1.390 . S
C419 C418 1.387 . S
C419 C421 1.387 . S
H420 C427 0.950 . S
C421 C419 1.387 . S
C421 C423 1.390 . S
C421 H425 0.950 . S
H422 C418 0.950 . S
C423 C421 1.390 . S
C423 C424 1.387 . S
C423 H426 0.950 1_545 S
C424 C423 1.387 . S
C424 C427 1.387 . S
H425 C421 0.950 . S
H426 C423 0.950 1_565 S
C427 C418 1.390 . S
C427 H420 0.950 . S
C427 C424 1.387 . S
C428 C429 1.387 . S
C428 H432 0.950 . S
C428 C437 1.390 . S
C429 C428 1.387 . S
C429 C431 1.387 1_455 S
H430 C437 0.950 . S
C431 C429 1.387 1_655 S
C431 C433 1.390 . S
C431 H435 0.950 . S
H432 C428 0.950 . S
C433 C431 1.390 . S
C433 C434 1.387 1_655 S
C433 H436 0.950 . S
C434 C433 1.387 1_455 S
C434 C437 1.387 . S
H435 C431 0.950 . S
H436 C433 0.950 . S
C437 C428 1.390 . S
C437 H430 0.950 . S
C437 C434 1.387 . S
C319 C39 1.500 . S
C324 C38 1.500 . S
C329 C91 1.499 . S
C334 C92 1.499 . S
C339 C145 1.500 1_565 S
C344 C144 1.500 . S
C349 C198 1.499 . S
C354 C197 1.499 . S
C359 C251 1.500 . S
C364 C250 1.500 . S
C369 C304 1.500 . S
C374 C303 1.500 1_565 S
C379 C287 1.543 . S
C384 C22 1.543 . S
C389 C181 1.542 . S
C394 C75 1.543 . S
C399 C128 1.536 . S
C404 C234 1.536 . S
C409 C29 1.563 . S
C414 C241 1.564 . S
C419 C294 1.575 . S
C424 C82 1.576 . S
C429 C188 1.569 . S
C434 C135 1.570 . S
