# Generated by pormake.
# Topology smc, (6)-cn, num edge types: 1
# Building blocks:
#     Node 0, Type 0, BuildingBlock: BETFEN_clean_sbu_0, # of connection points: 6
#     Node 1, Type 0, BuildingBlock: BETFEN_clean_sbu_0, # of connection points: 6
#     Node 2, Type 0, BuildingBlock: BETFEN_clean_sbu_0, # of connection points: 6
#     Node 3, Type 0, BuildingBlock: BETFEN_clean_sbu_0, # of connection points: 6
#     Node 4, Type 0, BuildingBlock: BETFEN_clean_sbu_0, # of connection points: 6
#     Node 5, Type 0, BuildingBlock: BETFEN_clean_sbu_0, # of connection points: 6
#     Node 6, Type 0, BuildingBlock: BETFEN_clean_sbu_0, # of connection points: 6
#     Node 7, Type 0, BuildingBlock: BETFEN_clean_sbu_0, # of connection points: 6
#     Node 8, Type 0, BuildingBlock: BETFEN_clean_sbu_0, # of connection points: 6
#     Edge 9, Type (0, 0), BuildingBlock: EZIPEK_clean_linker_0, # of connection points: 2
#     Edge 10, Type (0, 0), BuildingBlock: EZIPEK_clean_linker_0, # of connection points: 2
#     Edge 11, Type (0, 0), BuildingBlock: EZIPEK_clean_linker_0, # of connection points: 2
#     Edge 12, Type (0, 0), BuildingBlock: EZIPEK_clean_linker_0, # of connection points: 2
#     Edge 13, Type (0, 0), BuildingBlock: EZIPEK_clean_linker_0, # of connection points: 2
#     Edge 14, Type (0, 0), BuildingBlock: EZIPEK_clean_linker_0, # of connection points: 2
#     Edge 15, Type (0, 0), BuildingBlock: EZIPEK_clean_linker_0, # of connection points: 2
#     Edge 16, Type (0, 0), BuildingBlock: EZIPEK_clean_linker_0, # of connection points: 2
#     Edge 17, Type (0, 0), BuildingBlock: EZIPEK_clean_linker_0, # of connection points: 2
#     Edge 18, Type (0, 0), BuildingBlock: EZIPEK_clean_linker_0, # of connection points: 2
#     Edge 19, Type (0, 0), BuildingBlock: EZIPEK_clean_linker_0, # of connection points: 2
#     Edge 20, Type (0, 0), BuildingBlock: EZIPEK_clean_linker_0, # of connection points: 2
#     Edge 21, Type (0, 0), BuildingBlock: EZIPEK_clean_linker_0, # of connection points: 2
#     Edge 22, Type (0, 0), BuildingBlock: EZIPEK_clean_linker_0, # of connection points: 2
#     Edge 23, Type (0, 0), BuildingBlock: EZIPEK_clean_linker_0, # of connection points: 2
#     Edge 24, Type (0, 0), BuildingBlock: EZIPEK_clean_linker_0, # of connection points: 2
#     Edge 25, Type (0, 0), BuildingBlock: EZIPEK_clean_linker_0, # of connection points: 2
#     Edge 26, Type (0, 0), BuildingBlock: EZIPEK_clean_linker_0, # of connection points: 2
#     Edge 27, Type (0, 0), BuildingBlock: EZIPEK_clean_linker_0, # of connection points: 2
#     Edge 28, Type (0, 0), BuildingBlock: EZIPEK_clean_linker_0, # of connection points: 2
#     Edge 29, Type (0, 0), BuildingBlock: EZIPEK_clean_linker_0, # of connection points: 2
#     Edge 30, Type (0, 0), BuildingBlock: EZIPEK_clean_linker_0, # of connection points: 2
#     Edge 31, Type (0, 0), BuildingBlock: EZIPEK_clean_linker_0, # of connection points: 2
#     Edge 32, Type (0, 0), BuildingBlock: EZIPEK_clean_linker_0, # of connection points: 2
#     Edge 33, Type (0, 0), BuildingBlock: EZIPEK_clean_linker_0, # of connection points: 2
#     Edge 34, Type (0, 0), BuildingBlock: EZIPEK_clean_linker_0, # of connection points: 2
#     Edge 35, Type (0, 0), BuildingBlock: EZIPEK_clean_linker_0, # of connection points: 2
# Relax obj value: 0.197
# Max RMSD: 0.340
# Mean RMSD: 0.340
data_MOF--net-smc--node1-BETFEN_clean_sbu_0--edge1-EZIPEK_clean_linker_0
_symmetry_space_group_name_H-M    P1
_symmetry_Int_Tables_number       1
_symmetry_cell_setting            triclinic
loop_
_symmetry_equiv_pos_as_xyz
'x, y, z'
_cell_length_a     31.798626
_cell_length_b     31.90508
_cell_length_c     28.700953
_cell_angle_alpha  90.176994
_cell_angle_beta   89.798399
_cell_angle_gamma 119.9187
loop_
_atom_site_label
_atom_site_type_symbol
_atom_site_fract_x
_atom_site_fract_y
_atom_site_fract_z
_atom_type_partial_charge
Pr0 Pr 1.00899 0.4669 0.02453 0.0
Pr1 Pr 0.07674 0.43768 0.99371 0.0
C2 C 0.95344 0.50659 0.04428 0.0
C3 C 0.91103 0.51354 0.04359 0.0
C4 C 0.90951 0.54537 0.07636 0.0
C5 C 0.87477 0.55968 0.073 0.0
C6 C 0.84053 0.54211 0.03698 0.0
C7 C 0.83957 0.5073 1.00599 0.0
C8 C 0.87521 0.49358 1.00886 0.0
C9 C 0.05472 0.4459 0.0992 0.0
C10 C 0.95639 0.35656 0.01546 0.0
C11 C 0.14889 0.41549 0.98814 0.0
C12 C 0.2026 0.44306 0.98846 0.0
C13 C 0.22843 0.42497 0.96404 0.0
C14 C 0.27924 0.4498 0.96452 0.0
C15 C 0.30521 0.49334 0.98934 0.0
C16 C 0.27945 0.51196 0.01335 0.0
C17 C 0.22853 0.48705 0.01292 0.0
C18 C 1.02181 0.43037 0.91478 0.0
C19 C 0.11358 0.55463 0.99103 0.0
O20 O 0.98089 0.51756 1.00715 0.0
O21 O 0.9536 0.47315 0.07036 0.0
O22 O 0.07607 0.47106 0.06353 0.0
O23 O 1.00958 0.43446 0.09849 0.0
O24 O 1.00152 0.36351 0.01715 0.0
O25 O 0.94971 0.39235 1.00444 0.0
O26 O 0.12739 0.41583 0.02649 0.0
O27 O 0.12757 0.42033 0.95165 0.0
O28 O 1.0057 0.42217 0.95642 0.0
O29 O 0.06887 0.45227 0.91537 0.0
O30 O 0.06881 0.54195 1.00087 0.0
O31 O 0.12738 0.52214 0.98833 0.0
H32 H 0.93669 0.56096 0.10349 0.0
H33 H 0.87556 0.58579 0.09772 0.0
H34 H 0.8128 0.49264 0.97844 0.0
H35 H 0.87573 0.46876 0.98333 0.0
H36 H 0.2092 0.39132 0.94487 0.0
H37 H 0.29837 0.43479 0.94586 0.0
H38 H 0.29879 0.54543 0.0328 0.0
H39 H 0.20948 0.50195 0.03192 0.0
Pr40 Pr 0.59694 0.55107 0.02253 0.0
Pr41 Pr 0.63617 0.65639 0.99404 0.0
C42 C 0.56862 0.4576 0.03392 0.0
C43 C 0.55522 0.40656 0.03489 0.0
C44 C 0.53938 0.38088 0.07654 0.0
C45 C 0.52488 0.33178 0.07801 0.0
C46 C 0.52861 0.3072 0.03838 0.0
C47 C 0.54201 0.3336 0.9959 0.0
C48 C 0.55596 0.38265 0.99441 0.0
C49 C 0.60838 0.61028 0.10458 0.0
C50 C 0.7101 0.6144 0.02039 0.0
C51 C 0.65194 0.74648 0.9793 0.0
C52 C 0.6258 0.7736 0.98429 0.0
C53 C 0.64402 0.81835 0.96191 0.0
C54 C 0.61971 0.84464 0.96554 0.0
C55 C 0.57697 0.8267 0.99196 0.0
C56 C 0.55823 0.78157 0.01389 0.0
C57 C 0.58204 0.75478 1.00937 0.0
C58 C 0.66091 0.61103 0.92581 0.0
C59 C 0.51399 0.5754 0.99526 0.0
O60 O 0.54474 0.47225 1.00783 0.0
O61 O 0.60843 0.49164 0.05299 0.0
O62 O 0.61583 0.62123 0.06251 0.0
O63 O 0.59389 0.56451 0.10542 0.0
O64 O 0.70438 0.65287 0.02664 0.0
O65 O 0.67452 0.5732 1.00629 0.0
O66 O 0.63532 0.71273 0.94733 0.0
O67 O 0.66526 0.73392 0.01757 0.0
O68 O 0.61906 0.58972 0.94667 0.0
O69 O 0.6882 0.65464 0.94096 0.0
O70 O 0.52247 0.54025 1.00417 0.0
O71 O 0.54948 0.62095 0.99139 0.0
H72 H 0.53668 0.3985 0.10785 0.0
H73 H 0.50896 0.31385 0.11033 0.0
H74 H 0.54028 0.31665 0.96283 0.0
H75 H 0.56654 0.40169 0.96145 0.0
H76 H 0.67703 0.8329 0.94144 0.0
H77 H 0.63439 0.87916 0.948 0.0
H78 H 0.52502 0.76699 0.03406 0.0
H79 H 0.56613 0.71936 0.02513 0.0
Pr80 Pr 0.51167 0.05569 0.02889 0.0
Pr81 Pr 0.41277 0.98712 0.99146 0.0
C82 C 0.60435 0.12614 0.03308 0.0
C83 C 0.65538 0.16495 0.03537 0.0
C84 C 0.68655 0.16228 0.06818 0.0
C85 C 0.73616 0.19506 0.06665 0.0
C86 C 0.7554 0.23095 0.0323 0.0
C87 C 0.72414 0.23579 1.0012 0.0
C88 C 0.67427 0.20284 1.00269 0.0
C89 C 0.45066 1.00262 0.10719 0.0
C90 C 0.44478 0.10187 0.03079 0.0
C91 C 0.32241 0.91747 0.96704 0.0
C92 C 0.29123 0.86447 0.97253 0.0
C93 C 0.27224 0.83629 0.93218 0.0
C94 C 0.24626 0.78586 0.93483 0.0
C95 C 0.23766 0.76256 0.97813 0.0
C96 C 0.25643 0.79048 0.0185 0.0
C97 C 0.28381 0.84078 0.01553 0.0
C98 C 0.46953 0.04579 0.91848 0.0
C99 C 0.49262 0.951 1.00118 0.0
O100 O 0.57222 0.12987 1.00775 0.0
O101 O 0.58806 0.08565 0.05632 0.0
O102 O 0.44055 0.99918 0.06455 0.0
O103 O 0.49598 0.03622 0.11041 0.0
O104 O 0.41367 0.06378 1.00483 0.0
O105 O 0.48125 0.10254 0.05185 0.0
O106 O 0.36092 0.93011 0.94167 0.0
O107 O 0.33044 0.94654 1.00249 0.0
O108 O 0.47072 0.0594 0.96052 0.0
O109 O 0.44891 0.99905 0.91771 0.0
O110 O 0.52484 0.99674 0.99655 0.0
O111 O 0.44672 0.93767 1.00858 0.0
H112 H 0.67287 0.13384 0.09408 0.0
H113 H 0.75988 0.19137 0.09125 0.0
H114 H 0.73853 0.26374 0.97478 0.0
H115 H 0.65088 0.20586 0.97718 0.0
H116 H 0.27826 0.85336 0.89835 0.0
H117 H 0.23216 0.76495 0.90316 0.0
H118 H 0.25038 0.77328 0.05228 0.0
H119 H 0.29932 0.86012 0.04694 0.0
Pr120 Pr 0.68639 0.80729 0.35863 0.0
Pr121 Pr 0.74168 0.76938 0.34023 0.0
C122 C 0.62622 0.84067 0.38259 0.0
C123 C 0.58134 0.8431 0.38024 0.0
C124 C 0.56999 0.86295 0.41853 0.0
C125 C 0.53422 0.87581 0.41498 0.0
C126 C 0.509 0.86877 0.37312 0.0
C127 C 0.51739 0.84517 0.3358 0.0
C128 C 0.55389 0.83279 0.33918 0.0
C129 C 0.72936 0.78934 0.43999 0.0
C130 C 0.62198 0.69575 0.3522 0.0
C131 C 0.81288 0.74791 0.35351 0.0
C132 C 0.86659 0.77545 0.34639 0.0
C133 C 0.88814 0.76576 0.30804 0.0
C134 C 0.93883 0.79017 0.30273 0.0
C135 C 0.96899 0.82488 0.33559 0.0
C136 C 0.94759 0.8357 0.37313 0.0
C137 C 0.89709 0.81132 0.37854 0.0
C138 C 0.69986 0.75841 0.25252 0.0
C139 C 0.78754 0.88957 0.32949 0.0
O140 O 0.6564 0.85737 0.34755 0.0
O141 O 0.62695 0.80553 0.40486 0.0
O142 O 0.70383 0.76108 0.40875 0.0
O143 O 0.74002 0.83229 0.42624 0.0
O144 O 0.66453 0.69836 0.36086 0.0
O145 O 0.62194 0.73456 0.33824 0.0
O146 O 0.79612 0.76405 0.3862 0.0
O147 O 0.78479 0.73309 0.31686 0.0
O148 O 0.67935 0.76062 0.29019 0.0
O149 O 0.74473 0.77059 0.25952 0.0
O150 O 0.74256 0.87646 0.32179 0.0
O151 O 0.79693 0.85551 0.34267 0.0
H152 H 0.59068 0.87098 0.45049 0.0
H153 H 0.52742 0.89298 0.44441 0.0
H154 H 0.49732 0.83844 0.3036 0.0
H155 H 0.56201 0.81717 0.30932 0.0
H156 H 0.86582 0.73863 0.28261 0.0
H157 H 0.95459 0.78105 0.27367 0.0
H158 H 0.97015 0.86207 0.39906 0.0
H159 H 0.88213 0.8201 0.40852 0.0
Pr160 Pr 0.26293 0.88773 0.36519 0.0
Pr161 Pr 0.29717 0.98269 0.33939 0.0
C162 C 0.22037 0.79285 0.38724 0.0
C163 C 0.21894 0.74599 0.38493 0.0
C164 C 0.19189 0.71156 0.41899 0.0
C165 C 0.18303 0.6643 0.41511 0.0
C166 C 0.2013 0.65052 0.3772 0.0
C167 C 0.2314 0.6857 0.34454 0.0
C168 C 0.23989 0.7333 0.34818 0.0
C169 C 0.28004 0.95217 0.4427 0.0
C170 C 0.37218 0.93509 0.3591 0.0
C171 C 0.32503 0.07763 0.33213 0.0
C172 C 0.29807 0.10481 0.33335 0.0
C173 C 0.30443 0.13681 0.29686 0.0
C174 C 0.27849 0.16177 0.29603 0.0
C175 C 0.24527 0.1552 0.33158 0.0
C176 C 0.23801 0.12246 0.3677 0.0
C177 C 0.26401 0.0974 0.36854 0.0
C178 C 0.30319 0.93842 0.25807 0.0
C179 C 0.17891 0.90716 0.33284 0.0
O180 O 0.20997 0.80892 0.34972 0.0
O181 O 0.25285 0.82699 0.41353 0.0
O182 O 0.25645 0.94873 0.4062 0.0
O183 O 0.29652 0.92267 0.43938 0.0
O184 O 0.3679 0.97473 0.36391 0.0
O185 O 0.33479 0.89575 0.34414 0.0
O186 O 0.32917 0.05824 0.37069 0.0
O187 O 0.31606 0.04933 0.2963 0.0
O188 O 0.31137 0.92832 0.29864 0.0
O189 O 0.28091 0.96306 0.26069 0.0
O190 O 0.19226 0.87478 0.33019 0.0
O191 O 0.21176 0.95235 0.34197 0.0
H192 H 0.17576 0.72073 0.44774 0.0
H193 H 0.16035 0.63787 0.44094 0.0
H194 H 0.24637 0.6758 0.31536 0.0
H195 H 0.26128 0.75956 0.32172 0.0
H196 H 0.32971 0.1426 0.26888 0.0
H197 H 0.2849 0.18688 0.26793 0.0
H198 H 0.21279 0.11693 0.39566 0.0
H199 H 0.25749 0.07235 0.39672 0.0
Pr200 Pr 0.18002 0.38278 0.36098 0.0
Pr201 Pr 0.08731 0.32841 0.34496 0.0
C202 C 0.27428 0.44204 0.38323 0.0
C203 C 0.321 0.48749 0.3811 0.0
C204 C 0.35404 0.49686 0.41723 0.0
C205 C 0.40218 0.53354 0.41291 0.0
C206 C 0.41806 0.5618 0.37248 0.0
C207 C 0.38412 0.55542 0.33785 0.0
C208 C 0.33575 0.51791 0.34187 0.0
C209 C 0.12032 0.33997 0.44294 0.0
C210 C 0.13316 0.4475 0.3594 0.0
C211 C 0.99475 0.25656 0.35963 0.0
C212 C 0.96612 0.20322 0.35138 0.0
C213 C 0.96734 0.1818 0.30876 0.0
C214 C 0.94122 0.13112 0.30321 0.0
C215 C 0.91326 0.10074 0.34007 0.0
C216 C 0.9128 0.1223 0.38275 0.0
C217 C 0.93906 0.17273 0.38836 0.0
C218 C 0.11381 0.36941 0.2568 0.0
C219 C 0.16191 0.28276 0.33128 0.0
O220 O 0.26013 0.41375 0.34684 0.0
O221 O 0.23871 0.43961 0.40786 0.0
O222 O 0.11733 0.36641 0.41303 0.0
O223 O 0.15168 0.32842 0.42795 0.0
O224 O 0.09403 0.40494 0.36951 0.0
O225 O 0.1713 0.44749 0.34268 0.0
O226 O 1.02929 0.27037 0.39022 0.0
O227 O 1.00723 0.2863 0.32426 0.0
O228 O 0.14081 0.38948 0.29246 0.0
O229 O 0.07797 0.32677 0.26556 0.0
O230 O 0.193 0.32731 0.32192 0.0
O231 O 0.1192 0.27352 0.3472 0.0
H232 H 0.34325 0.47395 0.44781 0.0
H233 H 0.42762 0.53858 0.44034 0.0
H234 H 0.39565 0.57764 0.30679 0.0
H235 H 0.31061 0.51139 0.31371 0.0
H236 H 0.98868 0.20412 0.27986 0.0
H237 H 0.94262 0.11556 0.27005 0.0
H238 H 0.89205 0.09998 0.4119 0.0
H239 H 0.93836 0.18804 0.42192 0.0
Pr240 Pr 0.35235 0.14106 0.69719 0.0
Pr241 Pr 0.41159 0.1078 0.66687 0.0
C242 C 0.29713 0.18335 0.69834 0.0
C243 C 0.25297 0.18757 0.70022 0.0
C244 C 0.25127 0.21936 0.73299 0.0
C245 C 0.21516 0.23192 0.73072 0.0
C246 C 0.17962 0.21258 0.69589 0.0
C247 C 0.17917 0.17819 0.66477 0.0
C248 C 0.2161 0.16628 0.66648 0.0
C249 C 0.40086 0.12869 0.77369 0.0
C250 C 0.29472 0.03152 0.70578 0.0
C251 C 0.475 0.07506 0.65935 0.0
C252 C 0.52887 0.10028 0.66177 0.0
C253 C 0.55461 0.08308 0.63571 0.0
C254 C 0.60558 0.10825 0.6354 0.0
C255 C 0.63181 0.1511 0.66126 0.0
C256 C 0.60613 0.1687 0.68692 0.0
C257 C 0.55518 0.14386 0.68662 0.0
C258 C 0.35359 0.0998 0.59032 0.0
C259 C 0.45943 0.22655 0.66571 0.0
O260 O 0.30774 0.16802 0.66018 0.0
O261 O 0.31504 0.17583 0.73625 0.0
O262 O 0.42091 0.14889 0.73535 0.0
O263 O 0.35485 0.11453 0.77206 0.0
O264 O 0.33151 0.0361 0.67924 0.0
O265 O 0.30024 0.06876 0.72891 0.0
O266 O 0.45119 0.07152 0.69789 0.0
O267 O 0.4576 0.08641 0.62358 0.0
O268 O 0.33882 0.08936 0.63227 0.0
O269 O 0.4009 0.12329 0.58984 0.0
O270 O 0.41705 0.21668 0.68139 0.0
O271 O 0.46859 0.19139 0.6569 0.0
H272 H 0.27937 0.23645 0.75911 0.0
H273 H 0.21579 0.25799 0.7554 0.0
H274 H 0.15159 0.16232 0.63804 0.0
H275 H 0.21674 0.1419 0.64051 0.0
H276 H 0.53525 0.05038 0.61517 0.0
H277 H 0.62461 0.0942 0.6151 0.0
H278 H 0.62555 0.20181 0.70689 0.0
H279 H 0.53631 0.15914 0.70502 0.0
Pr280 Pr 0.92765 0.21912 0.68986 0.0
Pr281 Pr 0.95991 0.31316 0.667 0.0
C282 C 0.88517 0.12416 0.71091 0.0
C283 C 0.88269 0.07689 0.70879 0.0
C284 C 0.86396 0.04605 0.7471 0.0
C285 C 0.85435 0.99837 0.74436 0.0
C286 C 0.86519 0.98011 0.70379 0.0
C287 C 0.883 1.01191 0.66494 0.0
C288 C 0.89245 0.05963 0.66777 0.0
C289 C 0.94127 0.27973 0.76905 0.0
C290 C 0.03886 0.27324 0.68611 0.0
C291 C 0.9894 0.40841 0.66172 0.0
C292 C 0.96293 0.43608 0.66198 0.0
C293 C 0.94057 0.43994 0.62116 0.0
C294 C 0.91561 0.46574 0.62117 0.0
C295 C 0.91261 0.48867 0.66183 0.0
C296 C 0.93447 0.48466 0.7028 0.0
C297 C 0.95942 0.45866 0.70284 0.0
C298 C 0.96455 0.26932 0.584 0.0
C299 C 0.84218 0.23923 0.6614 0.0
O300 O 0.87563 0.14068 0.67315 0.0
O301 O 0.91764 0.15793 0.73756 0.0
O302 O 0.91812 0.27684 0.73259 0.0
O303 O 0.96082 0.25294 0.76337 0.0
O304 O 1.03218 0.31105 0.69242 0.0
O305 O 1.00262 0.23207 0.67256 0.0
O306 O 0.99087 0.38775 0.70047 0.0
O307 O 0.98284 0.3812 0.62546 0.0
O308 O 0.97569 0.2606 0.62383 0.0
O309 O 0.93879 0.29011 0.58955 0.0
O310 O 0.85543 0.20673 0.65806 0.0
O311 O 0.87512 0.28439 0.67029 0.0
H312 H 0.85448 0.05816 0.77871 0.0
H313 H 0.83625 0.9755 0.77397 0.0
H314 H 0.88801 1.00112 0.63097 0.0
H315 H 0.90545 0.0824 0.6371 0.0
H316 H 0.94249 0.42324 0.58892 0.0
H317 H 0.89924 0.46852 0.58914 0.0
H318 H 0.93274 0.50216 0.73456 0.0
H319 H 0.97633 0.45657 0.73473 0.0
Pr320 Pr 0.84754 0.71915 0.69139 0.0
Pr321 Pr 0.7539 0.65868 0.66368 0.0
C322 C 0.94477 0.76986 0.69965 0.0
C323 C 0.99202 0.81497 0.70129 0.0
C324 C 1.02186 0.82332 0.74015 0.0
C325 C 0.07048 0.85959 0.73917 0.0
C326 C 0.08996 0.88803 0.69929 0.0
C327 C 0.05965 0.88204 0.6614 0.0
C328 C 1.0109 0.84554 0.66227 0.0
C329 C 0.78368 0.66948 0.76774 0.0
C330 C 0.79406 0.77787 0.69297 0.0
C331 C 0.65887 0.59334 0.65687 0.0
C332 C 0.63174 0.53969 0.66025 0.0
C333 C 0.60448 0.51211 0.62222 0.0
C334 C 0.57878 0.46155 0.62437 0.0
C335 C 0.57632 0.43638 0.66585 0.0
C336 C 0.61021 0.46455 0.70094 0.0
C337 C 0.63624 0.51529 0.69884 0.0
C338 C 0.80227 0.70878 0.58343 0.0
C339 C 0.82693 0.61291 0.66119 0.0
O340 O 0.9223 0.75577 0.65969 0.0
O341 O 0.91577 0.75674 0.73577 0.0
O342 O 0.78743 0.65086 0.73022 0.0
O343 O 0.81365 0.71581 0.76675 0.0
O344 O 0.75596 0.73521 0.6808 0.0
O345 O 0.83707 0.78312 0.69614 0.0
O346 O 0.67818 0.61819 0.69497 0.0
O347 O 0.68722 0.6111 0.62067 0.0
O348 O 0.80858 0.72786 0.6239 0.0
O349 O 0.77985 0.66212 0.58773 0.0
O350 O 0.86045 0.6579 0.66602 0.0
O351 O 0.78098 0.60138 0.66214 0.0
H352 H 1.00818 0.80019 0.7705 0.0
H353 H 0.0933 0.86456 0.76901 0.0
H354 H 0.07415 0.90453 0.63071 0.0
H355 H 0.9887 0.84002 0.6318 0.0
H356 H 0.6034 0.52971 0.59038 0.0
H357 H 0.56072 0.44253 0.59289 0.0
H358 H 0.61864 0.44871 0.72986 0.0
H359 H 0.66049 0.5353 0.72719 0.0
C360 C 0.43414 0.54327 0.03574 0.0
C361 C 0.462 0.56223 0.99442 0.0
C362 C 0.38758 0.54197 0.95124 0.0
C363 C 0.35939 0.51842 0.99141 0.0
N364 N 0.35535 0.48973 0.06989 0.0
N365 N 0.4652 0.57422 0.91146 0.0
C366 C 0.38256 0.51741 0.03324 0.0
C367 C 0.43876 0.56044 0.95179 0.0
N368 N 0.45721 0.55058 0.07761 0.0
N369 N 0.3655 0.54746 0.91283 0.0
H370 H 0.50277 0.58895 0.9108 0.0
H371 H 0.44965 0.56817 0.87849 0.0
H372 H 0.32823 0.5344 0.91118 0.0
H373 H 0.38446 0.56833 0.88415 0.0
H374 H 0.4392 0.54185 0.10955 0.0
H375 H 0.49492 0.56973 0.08079 0.0
H376 H 0.3702 0.48295 0.09921 0.0
H377 H 0.31754 0.46991 0.06941 0.0
C378 C 0.54224 0.91821 0.03684 0.0
C379 C 0.50969 0.91525 1.00144 0.0
C380 C 0.51584 0.84914 0.96399 0.0
C381 C 0.55211 0.85561 0.99659 0.0
N382 N 0.60323 0.89849 0.06184 0.0
N383 N 0.4689 0.88175 0.92875 0.0
C384 C 0.56617 0.8907 0.03252 0.0
C385 C 0.49699 0.88139 0.96454 0.0
N386 N 0.549 0.94621 0.07538 0.0
N387 N 0.49921 0.81187 0.93271 0.0
H388 H 0.45397 0.90435 0.92821 0.0
H389 H 0.46303 0.86215 0.89806 0.0
H390 H 0.51324 0.78854 0.93033 0.0
H391 H 0.46921 0.80175 0.91143 0.0
H392 H 0.56833 0.94633 0.10462 0.0
H393 H 0.53155 0.96627 0.08002 0.0
H394 H 0.61931 0.92736 0.08507 0.0
H395 H 0.62025 0.87774 0.06097 0.0
C396 C 0.15882 0.6863 0.96432 0.0
C397 C 0.20704 0.70904 0.98119 0.0
C398 C 0.19373 0.63035 1.00783 0.0
C399 C 0.14824 0.6071 0.98457 0.0
N400 N 0.09369 0.61385 0.93042 0.0
N401 N 0.27378 0.70114 1.01103 0.0
C402 C 0.13266 0.63538 0.95967 0.0
C403 C 0.22563 0.68062 1.00053 0.0
N404 N 0.13707 0.71297 0.95463 0.0
N405 N 0.20551 0.60566 0.03909 0.0
H406 H 0.29864 0.73753 1.00505 0.0
H407 H 0.28972 0.68093 0.02121 0.0
H408 H 0.18238 0.56959 0.04782 0.0
H409 H 0.23615 0.62253 0.06023 0.0
H410 H 0.10035 0.69726 0.94648 0.0
H411 H 0.15409 0.75026 0.95989 0.0
H412 H 0.08357 0.63352 0.90881 0.0
H413 H 0.07521 0.57679 0.9236 0.0
C414 C 0.48266 0.18098 0.99115 0.0
C415 C 0.45167 0.15161 0.02767 0.0
C416 C 0.48861 0.22342 0.07814 0.0
C417 C 0.51251 0.25341 0.03925 0.0
N418 N 0.55945 0.25212 0.97408 0.0
N419 N 0.423 0.14702 0.10591 0.0
C420 C 0.51753 0.23006 0.99951 0.0
C421 C 0.45329 0.174 0.0708 0.0
N422 N 0.47899 0.16161 0.94827 0.0
N423 N 0.50749 0.23837 0.12156 0.0
H424 H 0.39748 0.11046 0.10138 0.0
H425 H 0.42063 0.16222 0.13734 0.0
H426 H 0.54104 0.26966 0.12636 0.0
H427 H 0.49452 0.21627 0.15089 0.0
H428 H 0.49905 0.18148 0.91946 0.0
H429 H 0.45044 0.12736 0.94146 0.0
H430 H 0.56728 0.23481 0.94739 0.0
H431 H 0.58879 0.28532 0.98427 0.0
C432 C 0.83479 0.29508 0.06355 0.0
C433 C 0.80878 0.26118 0.02806 0.0
C434 C 0.88541 0.2793 0.99039 0.0
C435 C 0.91124 0.31146 0.02708 0.0
N436 N 0.91089 0.33861 0.10491 0.0
N437 N 0.80859 0.21545 0.96072 0.0
C438 C 0.88573 0.31518 0.06591 0.0
C439 C 0.83386 0.25158 0.99226 0.0
N440 N 0.81107 0.30947 0.09374 0.0
N441 N 0.91051 0.27675 0.95303 0.0
H442 H 0.77083 0.19472 0.96056 0.0
H443 H 0.82503 0.20386 0.93648 0.0
H444 H 0.9481 0.29254 0.95419 0.0
H445 H 0.89449 0.2601 0.92164 0.0
H446 H 0.82902 0.33796 0.11718 0.0
H447 H 0.77372 0.29611 0.09211 0.0
H448 H 0.89451 0.34107 0.13549 0.0
H449 H 0.94768 0.34983 0.10791 0.0
C450 C 0.81487 0.59574 0.99568 0.0
C451 C 0.80739 0.56237 0.03204 0.0
C452 C 0.74807 0.57976 0.06894 0.0
C453 C 0.75384 0.61157 0.0319 0.0
N454 N 0.79264 0.65191 0.96114 0.0
N455 N 0.75964 0.51448 0.09692 0.0
C456 C 0.78755 0.62029 0.99565 0.0
C457 C 0.77212 0.55233 0.06713 0.0
N458 N 0.8477 0.60341 0.96112 0.0
N459 N 0.71824 0.57521 0.10538 0.0
H460 H 0.77553 0.49271 0.09541 0.0
H461 H 0.73063 0.50162 0.12012 0.0
H462 H 0.70041 0.59519 0.10721 0.0
H463 H 0.71438 0.55527 0.13532 0.0
H464 H 0.85397 0.62535 0.93228 0.0
H465 H 0.86928 0.58737 0.96073 0.0
H466 H 0.81475 0.65968 0.932 0.0
H467 H 0.77498 0.67202 0.96264 0.0
C468 C 0.05153 0.88337 0.30102 0.0
C469 C 1.02297 0.84651 0.33372 0.0
C470 C 0.0972 0.85595 0.36959 0.0
C471 C 0.12573 0.88971 0.33447 0.0
N472 N 0.12999 0.93101 0.2631 0.0
N473 N 1.01815 0.7909 0.39304 0.0
C474 C 0.10288 0.90236 0.29922 0.0
C475 C 0.04573 0.83089 0.36627 0.0
N476 N 1.02969 0.90098 0.27244 0.0
N477 N 0.11932 0.84905 0.40723 0.0
H478 H 0.98035 0.77121 0.39147 0.0
H479 H 1.03279 0.77445 0.41351 0.0
H480 H 0.15686 0.86754 0.41176 0.0
H481 H 0.10043 0.82882 0.43626 0.0
H482 H 0.04879 0.93113 0.25121 0.0
H483 H 0.9923 0.88746 0.2724 0.0
H484 H 0.11505 0.93723 0.23353 0.0
H485 H 0.16756 0.94601 0.26123 0.0
C486 C 0.21496 0.25309 0.3672 0.0
C487 C 0.17936 0.24675 0.33349 0.0
C488 C 0.18316 0.17675 0.30139 0.0
C489 C 0.2213 0.18566 0.33285 0.0
N490 N 0.2787 0.23694 0.39086 0.0
N491 N 0.13315 0.20583 0.26539 0.0
C492 C 0.23832 0.22488 0.36464 0.0
C493 C 0.16422 0.20922 0.29987 0.0
N494 N 0.22605 0.28573 0.4025 0.0
N495 N 0.16444 0.13662 0.27357 0.0
H496 H 0.11783 0.2281 0.26407 0.0
H497 H 0.12479 0.18321 0.23656 0.0
H498 H 0.17767 0.11256 0.27357 0.0
H499 H 0.13373 0.12513 0.25299 0.0
H500 H 0.24592 0.28715 0.43183 0.0
H501 H 0.21261 0.30939 0.40422 0.0
H502 H 0.29672 0.26862 0.41034 0.0
H503 H 0.29703 0.21748 0.39023 0.0
C504 C 0.89432 1.01605 0.36266 0.0
C505 C 0.88419 0.04645 0.33443 0.0
C506 C 0.81999 0.97365 0.2956 0.0
C507 C 0.82484 0.94308 0.32878 0.0
N508 N 0.86185 0.93893 0.40122 0.0
N509 N 0.83016 0.05281 0.27981 0.0
C510 C 0.86095 0.96519 0.36415 0.0
C511 C 0.84506 0.02486 0.3024 0.0
N512 N 0.93638 0.03554 0.38769 0.0
N513 N 0.79254 0.95404 0.25655 0.0
H514 H 0.84658 0.09012 0.28451 0.0
H515 H 0.79851 0.03833 0.26007 0.0
H516 H 0.77624 0.91732 0.24851 0.0
H517 H 0.79093 0.97489 0.22949 0.0
H518 H 0.94796 1.01451 0.40514 0.0
H519 H 0.9621 0.07231 0.38692 0.0
H520 H 0.88369 0.95475 0.43032 0.0
H521 H 0.83763 0.90235 0.40568 0.0
C522 C 0.14443 0.56887 0.34365 0.0
C523 C 0.18553 0.59828 0.37166 0.0
C524 C 0.18297 0.52527 0.40228 0.0
C525 C 0.14153 0.49608 0.37427 0.0
N526 N 0.07259 0.49027 0.33573 0.0
N527 N 0.24364 0.60553 0.42922 0.0
C528 C 0.11938 0.51791 0.34969 0.0
C529 C 0.20471 0.57667 0.40163 0.0
N530 N 0.12936 0.58945 0.31091 0.0
N531 N 0.20077 0.50302 0.4299 0.0
H532 H 0.26185 0.6432 0.42721 0.0
H533 H 0.25799 0.5929 0.45439 0.0
H534 H 0.18173 0.4657 0.43452 0.0
H535 H 0.23314 0.52054 0.44834 0.0
H536 H 0.10293 0.56915 0.28623 0.0
H537 H 0.14621 0.62668 0.30567 0.0
H538 H 0.0527 0.50451 0.32056 0.0
H539 H 0.05224 0.45403 0.34551 0.0
C540 C 0.49922 0.58374 0.337 0.0
C541 C 0.47097 0.59599 0.36666 0.0
C542 C 0.54498 0.66564 0.3963 0.0
C543 C 0.57329 0.65496 0.36517 0.0
N544 N 0.57939 0.59876 0.31445 0.0
N545 N 0.46569 0.65272 0.41838 0.0
C546 C 0.55089 0.61258 0.33774 0.0
C547 C 0.49357 0.63793 0.39492 0.0
N548 N 0.47655 0.54524 0.3073 0.0
N549 N 0.56784 0.70185 0.42824 0.0
H550 H 0.42785 0.63366 0.41738 0.0
H551 H 0.47967 0.68592 0.43529 0.0
H552 H 0.60545 0.72223 0.43025 0.0
H553 H 0.55021 0.70885 0.45518 0.0
H554 H 0.49415 0.53804 0.28051 0.0
H555 H 0.43919 0.5217 0.3074 0.0
H556 H 0.5662 0.5662 0.29662 0.0
H557 H 0.61695 0.61771 0.31793 0.0
C558 C 0.4587 0.95338 0.34908 0.0
C559 C 0.41395 0.92883 0.37291 0.0
C560 C 0.43043 0.86362 0.39408 0.0
C561 C 0.47472 0.88751 0.36937 0.0
N562 N 0.53003 0.9525 0.31942 0.0
N563 N 0.36488 0.86919 0.43018 0.0
C564 C 0.48878 0.93188 0.34594 0.0
C565 C 0.40233 0.88651 0.39909 0.0
N566 N 0.47341 0.99832 0.3318 0.0
N567 N 0.41412 0.81793 0.41086 0.0
H568 H 0.34612 0.88743 0.43675 0.0
H569 H 0.35643 0.84092 0.45322 0.0
H570 H 0.43367 0.7998 0.4073 0.0
H571 H 0.37935 0.79613 0.42421 0.0
H572 H 0.50772 1.02085 0.31797 0.0
H573 H 0.45293 1.01526 0.33649 0.0
H574 H 0.53942 0.98126 0.29681 0.0
H575 H 0.55379 0.93892 0.3177 0.0
C576 C 0.76191 0.19639 0.7028 0.0
C577 C 0.78913 0.22225 0.66296 0.0
C578 C 0.71364 0.20652 0.62427 0.0
C579 C 0.68619 0.17683 0.6623 0.0
N580 N 0.68349 0.13887 0.73558 0.0
N581 N 0.79154 0.24889 0.58426 0.0
C582 C 0.71019 0.17074 0.70111 0.0
C583 C 0.76516 0.22675 0.62335 0.0
N584 N 0.78569 0.1972 0.74271 0.0
N585 N 0.69042 0.2161 0.58948 0.0
H586 H 0.82929 0.26537 0.58308 0.0
H587 H 0.7761 0.2486 0.55227 0.0
H588 H 0.65287 0.2015 0.58881 0.0
H589 H 0.70836 0.24117 0.56312 0.0
H590 H 0.7684 0.18364 0.7745 0.0
H591 H 0.82341 0.21527 0.74522 0.0
H592 H 0.69853 0.12828 0.76199 0.0
H593 H 0.64564 0.11996 0.73599 0.0
C594 C 0.90907 0.56154 0.63334 0.0
C595 C 0.88853 0.51877 0.66056 0.0
C596 C 0.82562 0.53638 0.68834 0.0
C597 C 0.8432 0.57637 0.6573 0.0
N598 N 0.89538 0.61989 0.59252 0.0
N599 N 0.8214 0.46022 0.70667 0.0
C600 C 0.88303 0.58669 0.62742 0.0
C601 C 0.84497 0.50456 0.68581 0.0
N602 N 0.95446 0.57946 0.6147 0.0
N603 N 0.79282 0.53025 0.72231 0.0
H604 H 0.83424 0.43586 0.70544 0.0
H605 H 0.78695 0.44594 0.72138 0.0
H606 H 0.77832 0.55294 0.72649 0.0
H607 H 0.78335 0.50516 0.74913 0.0
H608 H 0.97334 0.61327 0.59888 0.0
H609 H 0.97533 0.56288 0.61914 0.0
H610 H 0.9213 0.6258 0.56718 0.0
H611 H 0.87596 0.63762 0.58576 0.0
C612 C 0.54556 0.35257 0.70509 0.0
C613 C 0.54179 0.38141 0.6694 0.0
C614 C 0.48463 0.30598 0.62864 0.0
C615 C 0.49584 0.27879 0.65997 0.0
N616 N 0.54383 0.27803 0.72404 0.0
N617 N 0.48007 0.37858 0.61868 0.0
C618 C 0.52907 0.30288 0.69647 0.0
C619 C 0.50378 0.3564 0.63638 0.0
N620 N 0.55375 0.3687 0.74997 0.0
N621 N 0.45523 0.28337 0.59142 0.0
H622 H 0.48665 0.41215 0.63092 0.0
H623 H 0.44944 0.36113 0.59761 0.0
H624 H 0.44068 0.24644 0.58505 0.0
H625 H 0.44948 0.30205 0.56476 0.0
H626 H 0.55343 0.34761 0.77781 0.0
H627 H 0.55085 0.39862 0.76004 0.0
H628 H 0.56999 0.29475 0.74995 0.0
H629 H 0.53428 0.24239 0.71665 0.0
C630 C 0.81056 0.84806 0.74152 0.0
C631 C 0.79404 0.82408 0.69797 0.0
C632 C 0.84166 0.90162 0.65882 0.0
C633 C 0.85144 0.92687 0.70164 0.0
N634 N 0.87021 0.92049 0.78146 0.0
N635 N 0.78631 0.8305 0.61567 0.0
C636 C 0.84248 0.89912 0.74295 0.0
C637 C 0.80589 0.85207 0.65709 0.0
N638 N 0.79649 0.82146 0.78147 0.0
N639 N 0.87432 0.92036 0.62331 0.0
H640 H 0.76087 0.79368 0.61331 0.0
H641 H 0.79207 0.85073 0.58546 0.0
H642 H 0.90946 0.94889 0.62916 0.0
H643 H 0.87001 0.90218 0.59195 0.0
H644 H 0.80344 0.83667 0.81469 0.0
H645 H 0.77383 0.78411 0.78081 0.0
H646 H 0.8691 0.90176 0.81151 0.0
H647 H 0.89885 0.95615 0.78081 0.0
C648 C 0.17704 0.90967 0.68719 0.0
C649 C 0.14237 0.92414 0.69745 0.0
C650 C 0.20662 1.00785 0.69871 0.0
C651 C 0.24272 0.99334 0.69813 0.0
N652 N 0.26067 0.92832 0.69421 0.0
N653 N 0.12517 0.98671 0.7208 0.0
C654 C 0.22757 0.94361 0.69251 0.0
C655 C 0.15749 0.97308 0.70587 0.0
N656 N 0.16167 0.86377 0.67174 0.0
N657 N 0.21832 0.05431 0.68882 0.0
H658 H 0.08829 0.96232 0.72558 0.0
H659 H 0.13598 1.02166 0.73239 0.0
H660 H 0.25236 0.08018 0.67691 0.0
H661 H 0.19243 0.06503 0.68536 0.0
H662 H 0.1852 0.85264 0.65887 0.0
H663 H 0.12503 0.83806 0.66793 0.0
H664 H 0.25093 0.89194 0.69482 0.0
H665 H 0.29766 0.95182 0.69886 0.0
C666 C 0.14612 0.25953 0.6542 0.0
C667 C 0.14417 0.23013 0.69232 0.0
C668 C 0.08702 0.24817 0.73261 0.0
C669 C 0.08488 0.27324 0.6929 0.0
N670 N 0.108 0.29871 0.61373 0.0
N671 N 0.10422 0.18739 0.76253 0.0
C672 C 0.11353 0.27806 0.65314 0.0
C673 C 0.11224 0.22197 0.73015 0.0
N674 N 0.1797 0.27067 0.6196 0.0
N675 N 0.06419 0.2491 0.77264 0.0
H676 H 0.12082 0.16628 0.76078 0.0
H677 H 0.07752 0.1762 0.78818 0.0
H678 H 0.04713 0.2697 0.77541 0.0
H679 H 0.06686 0.23427 0.804 0.0
H680 H 0.18572 0.29528 0.59313 0.0
H681 H 0.20422 0.25802 0.61897 0.0
H682 H 0.12251 0.29761 0.58148 0.0
H683 H 0.08681 0.31529 0.61312 0.0
C684 C 0.11581 0.38763 0.17105 0.0
C685 C 0.10812 0.39754 0.21721 0.0
C686 C 0.07596 0.448 0.18487 0.0
C687 C 0.07743 0.43247 0.13893 0.0
N688 N 0.0764 0.36621 0.09719 0.0
N689 N 0.05916 0.41992 0.26388 0.0
C690 C 0.09213 0.39706 0.13386 0.0
C691 C 0.08295 0.42378 0.22338 0.0
N692 N 0.14261 0.36586 0.16254 0.0
N693 N 0.06566 0.48418 0.19239 0.0
H694 H 0.05919 0.39899 0.29154 0.0
H695 H 1.03359 0.43123 0.26635 0.0
H696 H 0.06012 0.50254 0.1652 0.0
H697 H 0.06691 0.49819 0.22559 0.0
H698 H 0.15107 0.36028 0.12875 0.0
H699 H 0.15962 0.35762 0.18914 0.0
H700 H 0.08175 0.33658 0.09441 0.0
H701 H 0.05365 0.36763 0.07256 0.0
C702 C 0.65348 0.72971 0.1753 0.0
C703 C 0.67134 0.7193 0.21635 0.0
C704 C 0.63543 0.63403 0.18969 0.0
C705 C 0.62361 0.64575 0.14567 0.0
N706 N 0.6067 0.70066 0.10358 0.0
N707 N 0.68479 0.66183 0.25894 0.0
C708 C 0.62892 0.69274 0.14031 0.0
C709 C 0.6638 0.67157 0.22234 0.0
N710 N 0.66134 0.77557 0.16929 0.0
N711 N 0.61651 0.58674 0.20242 0.0
H712 H 0.70132 0.68573 0.28636 0.0
H713 H 0.68761 0.63072 0.26099 0.0
H714 H 0.58916 0.55809 0.18399 0.0
H715 H 0.62191 0.57593 0.23496 0.0
H716 H 0.65436 0.78833 0.13869 0.0
H717 H 0.67726 0.80224 0.19489 0.0
H718 H 0.60617 0.73256 0.0983 0.0
H719 H 0.58414 0.67328 0.08066 0.0
C720 C 0.4271 0.99737 0.19411 0.0
C721 C 0.41387 0.98057 0.14748 0.0
C722 C 0.32859 0.93026 0.17607 0.0
C723 C 0.34129 0.95225 0.2203 0.0
N724 N 0.40169 1.01963 0.26488 0.0
N725 N 0.34791 0.93227 0.09538 0.0
C726 C 0.3903 0.98941 0.22756 0.0
C727 C 0.36362 0.94733 0.13913 0.0
N728 N 0.4745 1.01955 0.20761 0.0
N729 N 0.28307 0.89183 0.16911 0.0
H730 H 0.36942 0.92863 0.07014 0.0
H731 H 0.31264 0.92293 0.086 0.0
H732 H 0.25634 0.87873 0.19492 0.0
H733 H 0.27308 0.87093 0.13883 0.0
H734 H 0.48547 0.03101 0.24164 0.0
H735 H 0.50175 1.01989 0.18717 0.0
H736 H 0.43547 0.05073 0.26864 0.0
H737 H 0.37584 1.01709 0.2887 0.0
C738 C 0.40582 0.06183 0.88116 0.0
C739 C 0.45387 0.06868 0.88073 0.0
C740 C 0.4723 0.125 0.81432 0.0
C741 C 0.42343 0.11552 0.81395 0.0
N742 N 0.35699 0.09838 0.8657 0.0
N743 N 0.53175 0.10416 0.84321 0.0
C744 C 0.39372 0.09031 0.85245 0.0
C745 C 0.48688 0.09979 0.8463 0.0
N746 N 0.37126 0.029 0.91012 0.0
N747 N 0.50612 0.16234 0.78843 0.0
H748 H 0.54352 0.08714 0.86651 0.0
H749 H 0.55566 0.12136 0.81572 0.0
H750 H 0.49761 0.18512 0.77013 0.0
H751 H 0.54322 0.17502 0.79037 0.0
H752 H 0.33447 1.0178 0.90696 0.0
H753 H 0.37896 1.01124 0.93551 0.0
H754 H 0.33676 0.08425 0.89609 0.0
H755 H 0.35241 0.1258 0.85132 0.0
C756 C 0.96701 0.39307 0.84323 0.0
C757 C 0.99638 0.39023 0.87893 0.0
C758 C 0.97648 0.30936 0.84926 0.0
C759 C 0.95294 0.31481 0.80977 0.0
N760 N 0.90998 0.35353 0.77952 0.0
N761 N 1.03105 0.34537 0.91367 0.0
C762 C 0.94373 0.35446 0.80946 0.0
C763 C 1.00181 0.34846 0.88091 0.0
N764 N 0.96223 0.43329 0.84123 0.0
N765 N 0.97008 0.26471 0.85977 0.0
H766 H 0.04305 0.36762 0.94263 0.0
H767 H 0.04367 0.32089 0.91166 0.0
H768 H 0.9454 0.23338 0.8422 0.0
H769 H 0.98277 0.2571 0.89017 0.0
H770 H 0.94514 0.44082 0.81443 0.0
H771 H 0.97762 0.46089 0.866 0.0
H772 H 0.89944 0.37953 0.77851 0.0
H773 H 0.88754 0.32361 0.75927 0.0
C774 C 0.70541 0.65516 0.80805 0.0
C775 C 0.74324 0.64357 0.8035 0.0
C776 C 0.70762 0.58807 0.87087 0.0
C777 C 0.67287 0.60318 0.87709 0.0
N778 N 0.62889 0.63819 0.84387 0.0
N779 N 0.77594 0.59311 0.82668 0.0
C780 C 0.66839 0.63198 0.8425 0.0
C781 C 0.74244 0.6075 0.83335 0.0
N782 N 0.70584 0.69 0.7806 0.0
N783 N 0.70765 0.55597 0.90214 0.0
H784 H 0.80249 0.60772 0.80078 0.0
H785 H 0.77709 0.566 0.8456 0.0
H786 H 0.68013 0.53941 0.92697 0.0
H787 H 0.7335 0.54514 0.90342 0.0
H788 H 0.68378 0.70514 0.78559 0.0
H789 H 0.73094 0.706 0.75431 0.0
H790 H 0.62036 0.65549 0.81798 0.0
H791 H 0.60192 0.62153 0.86921 0.0
C792 C 0.72552 0.72264 0.49044 0.0
C793 C 0.74999 0.77293 0.47979 0.0
C794 C 0.8159 0.78201 0.53346 0.0
C795 C 0.79118 0.7311 0.54129 0.0
N796 N 0.73674 0.65472 0.50398 0.0
N797 N 0.81888 0.85189 0.49498 0.0
C798 C 0.7504 0.70188 0.51282 0.0
C799 C 0.79575 0.80313 0.50206 0.0
N800 N 0.67722 0.69427 0.48137 0.0
N801 N 0.85971 0.80958 0.55468 0.0
H802 H 0.80274 0.86897 0.47816 0.0
H803 H 0.85284 0.87642 0.50803 0.0
H804 H 0.87556 0.79444 0.57542 0.0
H805 H 0.88208 0.84648 0.5499 0.0
H806 H 0.65741 0.65806 0.49138 0.0
H807 H 0.65588 0.70871 0.47082 0.0
H808 H 0.70846 0.63321 0.48131 0.0
H809 H 0.7587 0.64008 0.51195 0.0
C810 C 0.26559 0.98496 0.51938 0.0
C811 C 0.29543 0.99126 0.47993 0.0
C812 C 0.35143 0.0747 0.50618 0.0
C813 C 0.32656 0.06669 0.54903 0.0
N814 N 0.24973 1.02067 0.58766 0.0
N815 N 0.37604 0.0373 0.44818 0.0
C816 C 0.28066 0.02326 0.55345 0.0
C817 C 0.34056 0.03507 0.47628 0.0
N818 N 0.22411 0.94149 0.52541 0.0
N819 N 0.38524 0.12054 0.49344 0.0
H820 H 0.37387 1.00581 0.43588 0.0
H821 H 0.41051 0.06772 0.44559 0.0
H822 H 0.39149 0.1507 0.51308 0.0
H823 H 0.4017 0.12863 0.46068 0.0
H824 H 0.20317 0.93161 0.5556 0.0
H825 H 0.21213 0.91362 0.50093 0.0
H826 H 0.21494 0.99161 0.5927 0.0
H827 H 0.25691 0.05108 0.607 0.0
C828 C 1.0198 0.25351 0.52965 0.0
C829 C 1.00146 0.2843 0.54423 0.0
C830 C 0.07149 0.3516 0.50477 0.0
C831 C 0.08503 0.32 0.48354 0.0
N832 N 0.06721 0.23763 0.4728 0.0
N833 N 1.00413 0.36077 0.52803 0.0
C834 C 0.0581 0.26998 0.49539 0.0
C835 C 1.02547 0.33276 0.52674 0.0
N836 N 1.00049 0.20825 0.54817 0.0
N837 N 0.10312 0.40023 0.50462 0.0
H838 H 0.96759 0.34741 0.535 0.0
H839 H 1.02043 0.39537 0.51367 0.0
H840 H 0.13842 0.41467 0.49202 0.0
H841 H 0.09657 0.42478 0.52277 0.0
H842 H 1.01602 0.18648 0.54353 0.0
H843 H 0.97031 0.1935 0.57015 0.0
H844 H 0.04492 0.20032 0.47576 0.0
H845 H 0.09497 0.2478 0.44851 0.0
loop_
_geom_bond_atom_site_label_1
_geom_bond_atom_site_label_2
_geom_bond_distance
_geom_bond_site_symmetry_2
_ccdc_geom_bond_type
Pr0 C2 2.880 . S
Pr0 O20 2.562 1_554 S
Pr0 O21 2.490 . S
Pr0 O22 2.695 1_655 S
Pr0 O23 2.512 . S
Pr0 O25 2.437 . S
Pr0 O28 2.436 1_554 S
Pr0 O30 2.438 1_655 S
Pr1 C11 2.880 . S
Pr1 O22 2.436 1_556 S
Pr1 O24 2.438 1_456 S
Pr1 O26 2.562 1_556 S
Pr1 O27 2.490 . S
Pr1 O28 2.695 1_455 S
Pr1 O29 2.512 . S
Pr1 O31 2.437 . S
C2 Pr0 2.880 . S
C2 C3 1.491 . S
C2 O20 1.254 1_554 S
C2 O21 1.225 . S
C3 C2 1.491 . S
C3 C4 1.392 . S
C3 C8 1.356 1_554 S
C4 C3 1.392 . S
C4 C5 1.368 . S
C4 H32 0.929 . S
C5 C4 1.368 . S
C5 C6 1.386 . S
C5 H33 0.929 . S
C6 C5 1.386 . S
C6 C7 1.373 1_554 S
C7 C6 1.373 1_556 S
C7 C8 1.409 . S
C7 H34 0.931 . S
C8 C3 1.356 1_556 S
C8 C7 1.409 . S
C8 H35 0.930 . S
C9 O22 1.270 . S
C9 O23 1.248 1_455 S
C10 O24 1.267 . S
C10 O25 1.278 . S
C11 Pr1 2.880 . S
C11 C12 1.491 . S
C11 O26 1.254 1_556 S
C11 O27 1.225 . S
C12 C11 1.491 . S
C12 C13 1.392 . S
C12 C17 1.356 1_556 S
C13 C12 1.392 . S
C13 C14 1.368 . S
C13 H36 0.929 . S
C14 C13 1.368 . S
C14 C15 1.386 . S
C14 H37 0.929 . S
C15 C14 1.386 . S
C15 C16 1.373 1_556 S
C16 C15 1.373 1_554 S
C16 C17 1.409 . S
C16 H38 0.931 . S
C17 C12 1.356 1_554 S
C17 C16 1.409 . S
C17 H39 0.930 . S
C18 O28 1.270 . S
C18 O29 1.248 1_655 S
C19 O30 1.267 1_556 S
C19 O31 1.278 . S
O20 Pr0 2.562 1_556 S
O20 C2 1.254 1_556 S
O21 Pr0 2.490 . S
O21 C2 1.225 . S
O22 Pr0 2.695 1_455 S
O22 Pr1 2.436 1_554 S
O22 C9 1.270 . S
O23 Pr0 2.512 . S
O23 C9 1.248 1_655 S
O24 Pr1 2.438 1_654 S
O24 C10 1.267 . S
O25 Pr0 2.437 . S
O25 C10 1.278 . S
O26 Pr1 2.562 1_554 S
O26 C11 1.254 1_554 S
O27 Pr1 2.490 . S
O27 C11 1.225 . S
O28 Pr0 2.436 1_556 S
O28 Pr1 2.695 1_655 S
O28 C18 1.270 . S
O29 Pr1 2.512 . S
O29 C18 1.248 1_455 S
O30 Pr0 2.438 1_455 S
O30 C19 1.267 1_554 S
O31 Pr1 2.437 . S
O31 C19 1.278 . S
H32 C4 0.929 . S
H33 C5 0.929 . S
H34 C7 0.931 . S
H35 C8 0.930 . S
H36 C13 0.929 . S
H37 C14 0.929 . S
H38 C16 0.931 . S
H39 C17 0.930 . S
Pr40 C42 2.880 . S
Pr40 O60 2.562 1_554 S
Pr40 O61 2.490 . S
Pr40 O62 2.695 . S
Pr40 O63 2.512 . S
Pr40 O65 2.437 . S
Pr40 O68 2.436 1_554 S
Pr40 O70 2.438 . S
Pr41 C51 2.880 . S
Pr41 O62 2.436 1_556 S
Pr41 O64 2.438 1_556 S
Pr41 O66 2.562 1_556 S
Pr41 O67 2.490 . S
Pr41 O68 2.695 . S
Pr41 O69 2.512 . S
Pr41 O71 2.437 . S
C42 Pr40 2.880 . S
C42 C43 1.491 . S
C42 O60 1.254 1_554 S
C42 O61 1.225 . S
C43 C42 1.491 . S
C43 C44 1.392 . S
C43 C48 1.356 1_554 S
C44 C43 1.392 . S
C44 C45 1.368 . S
C44 H72 0.929 . S
C45 C44 1.368 . S
C45 C46 1.386 . S
C45 H73 0.929 . S
C46 C45 1.386 . S
C46 C47 1.373 1_554 S
C47 C46 1.373 1_556 S
C47 C48 1.409 . S
C47 H74 0.931 . S
C48 C43 1.356 1_556 S
C48 C47 1.409 . S
C48 H75 0.930 . S
C49 O62 1.270 . S
C49 O63 1.248 . S
C50 O64 1.267 . S
C50 O65 1.278 . S
C51 Pr41 2.880 . S
C51 C52 1.491 . S
C51 O66 1.254 1_556 S
C51 O67 1.225 . S
C52 C51 1.491 . S
C52 C53 1.392 . S
C52 C57 1.356 1_556 S
C53 C52 1.392 . S
C53 C54 1.368 . S
C53 H76 0.929 . S
C54 C53 1.368 . S
C54 C55 1.386 . S
C54 H77 0.929 . S
C55 C54 1.386 . S
C55 C56 1.373 1_556 S
C56 C55 1.373 1_554 S
C56 C57 1.409 . S
C56 H78 0.931 . S
C57 C52 1.356 1_554 S
C57 C56 1.409 . S
C57 H79 0.930 . S
C58 O68 1.270 . S
C58 O69 1.248 . S
C59 O70 1.267 1_556 S
C59 O71 1.278 . S
O60 Pr40 2.562 1_556 S
O60 C42 1.254 1_556 S
O61 Pr40 2.490 . S
O61 C42 1.225 . S
O62 Pr40 2.695 . S
O62 Pr41 2.436 1_554 S
O62 C49 1.270 . S
O63 Pr40 2.512 . S
O63 C49 1.248 . S
O64 Pr41 2.438 1_554 S
O64 C50 1.267 . S
O65 Pr40 2.437 . S
O65 C50 1.278 . S
O66 Pr41 2.562 1_554 S
O66 C51 1.254 1_554 S
O67 Pr41 2.490 . S
O67 C51 1.225 . S
O68 Pr40 2.436 1_556 S
O68 Pr41 2.695 . S
O68 C58 1.270 . S
O69 Pr41 2.512 . S
O69 C58 1.248 . S
O70 Pr40 2.438 . S
O70 C59 1.267 1_554 S
O71 Pr41 2.437 . S
O71 C59 1.278 . S
H72 C44 0.929 . S
H73 C45 0.929 . S
H74 C47 0.931 . S
H75 C48 0.930 . S
H76 C53 0.929 . S
H77 C54 0.929 . S
H78 C56 0.931 . S
H79 C57 0.930 . S
Pr80 C82 2.880 . S
Pr80 O100 2.562 1_554 S
Pr80 O101 2.490 . S
Pr80 O102 2.695 1_545 S
Pr80 O103 2.512 . S
Pr80 O105 2.437 . S
Pr80 O108 2.436 1_554 S
Pr80 O110 2.438 1_545 S
Pr81 C91 2.880 . S
Pr81 O102 2.436 1_556 S
Pr81 O104 2.438 1_566 S
Pr81 O106 2.562 1_556 S
Pr81 O107 2.490 . S
Pr81 O108 2.695 1_565 S
Pr81 O109 2.512 . S
Pr81 O111 2.437 . S
C82 Pr80 2.880 . S
C82 C83 1.491 . S
C82 O100 1.254 1_554 S
C82 O101 1.225 . S
C83 C82 1.491 . S
C83 C84 1.392 . S
C83 C88 1.356 1_554 S
C84 C83 1.392 . S
C84 C85 1.368 . S
C84 H112 0.929 . S
C85 C84 1.368 . S
C85 C86 1.386 . S
C85 H113 0.929 . S
C86 C85 1.386 . S
C86 C87 1.373 1_554 S
C87 C86 1.373 1_556 S
C87 C88 1.409 . S
C87 H114 0.931 . S
C88 C83 1.356 1_556 S
C88 C87 1.409 . S
C88 H115 0.930 . S
C89 O102 1.270 . S
C89 O103 1.248 1_565 S
C90 O104 1.267 . S
C90 O105 1.278 . S
C91 Pr81 2.880 . S
C91 C92 1.491 . S
C91 O106 1.254 1_556 S
C91 O107 1.225 . S
C92 C91 1.491 . S
C92 C93 1.392 . S
C92 C97 1.356 1_556 S
C93 C92 1.392 . S
C93 C94 1.368 . S
C93 H116 0.929 . S
C94 C93 1.368 . S
C94 C95 1.386 . S
C94 H117 0.929 . S
C95 C94 1.386 . S
C95 C96 1.373 1_556 S
C96 C95 1.373 1_554 S
C96 C97 1.409 . S
C96 H118 0.931 . S
C97 C92 1.356 1_554 S
C97 C96 1.409 . S
C97 H119 0.930 . S
C98 O108 1.270 . S
C98 O109 1.248 1_545 S
C99 O110 1.267 1_556 S
C99 O111 1.278 . S
O100 Pr80 2.562 1_556 S
O100 C82 1.254 1_556 S
O101 Pr80 2.490 . S
O101 C82 1.225 . S
O102 Pr80 2.695 1_565 S
O102 Pr81 2.436 1_554 S
O102 C89 1.270 . S
O103 Pr80 2.512 . S
O103 C89 1.248 1_545 S
O104 Pr81 2.438 1_544 S
O104 C90 1.267 . S
O105 Pr80 2.437 . S
O105 C90 1.278 . S
O106 Pr81 2.562 1_554 S
O106 C91 1.254 1_554 S
O107 Pr81 2.490 . S
O107 C91 1.225 . S
O108 Pr80 2.436 1_556 S
O108 Pr81 2.695 1_545 S
O108 C98 1.270 . S
O109 Pr81 2.512 . S
O109 C98 1.248 1_565 S
O110 Pr80 2.438 1_565 S
O110 C99 1.267 1_554 S
O111 Pr81 2.437 . S
O111 C99 1.278 . S
H112 C84 0.929 . S
H113 C85 0.929 . S
H114 C87 0.931 . S
H115 C88 0.930 . S
H116 C93 0.929 . S
H117 C94 0.929 . S
H118 C96 0.931 . S
H119 C97 0.930 . S
Pr120 C122 2.880 . S
Pr120 O140 2.562 . S
Pr120 O141 2.490 . S
Pr120 O142 2.695 . S
Pr120 O143 2.512 . S
Pr120 O145 2.437 . S
Pr120 O148 2.436 . S
Pr120 O150 2.438 . S
Pr121 C131 2.880 . S
Pr121 O142 2.436 . S
Pr121 O144 2.438 . S
Pr121 O146 2.562 . S
Pr121 O147 2.490 . S
Pr121 O148 2.695 . S
Pr121 O149 2.512 . S
Pr121 O151 2.437 . S
C122 Pr120 2.880 . S
C122 C123 1.491 . S
C122 O140 1.254 . S
C122 O141 1.225 . S
C123 C122 1.491 . S
C123 C124 1.392 . S
C123 C128 1.356 . S
C124 C123 1.392 . S
C124 C125 1.368 . S
C124 H152 0.929 . S
C125 C124 1.368 . S
C125 C126 1.386 . S
C125 H153 0.929 . S
C126 C125 1.386 . S
C126 C127 1.373 . S
C127 C126 1.373 . S
C127 C128 1.409 . S
C127 H154 0.931 . S
C128 C123 1.356 . S
C128 C127 1.409 . S
C128 H155 0.930 . S
C129 O142 1.270 . S
C129 O143 1.248 . S
C130 O144 1.267 . S
C130 O145 1.278 . S
C131 Pr121 2.880 . S
C131 C132 1.491 . S
C131 O146 1.254 . S
C131 O147 1.225 . S
C132 C131 1.491 . S
C132 C133 1.392 . S
C132 C137 1.356 . S
C133 C132 1.392 . S
C133 C134 1.368 . S
C133 H156 0.929 . S
C134 C133 1.368 . S
C134 C135 1.386 . S
C134 H157 0.929 . S
C135 C134 1.386 . S
C135 C136 1.373 . S
C136 C135 1.373 . S
C136 C137 1.409 . S
C136 H158 0.931 . S
C137 C132 1.356 . S
C137 C136 1.409 . S
C137 H159 0.930 . S
C138 O148 1.270 . S
C138 O149 1.248 . S
C139 O150 1.267 . S
C139 O151 1.278 . S
O140 Pr120 2.562 . S
O140 C122 1.254 . S
O141 Pr120 2.490 . S
O141 C122 1.225 . S
O142 Pr120 2.695 . S
O142 Pr121 2.436 . S
O142 C129 1.270 . S
O143 Pr120 2.512 . S
O143 C129 1.248 . S
O144 Pr121 2.438 . S
O144 C130 1.267 . S
O145 Pr120 2.437 . S
O145 C130 1.278 . S
O146 Pr121 2.562 . S
O146 C131 1.254 . S
O147 Pr121 2.490 . S
O147 C131 1.225 . S
O148 Pr120 2.436 . S
O148 Pr121 2.695 . S
O148 C138 1.270 . S
O149 Pr121 2.512 . S
O149 C138 1.248 . S
O150 Pr120 2.438 . S
O150 C139 1.267 . S
O151 Pr121 2.437 . S
O151 C139 1.278 . S
H152 C124 0.929 . S
H153 C125 0.929 . S
H154 C127 0.931 . S
H155 C128 0.930 . S
H156 C133 0.929 . S
H157 C134 0.929 . S
H158 C136 0.931 . S
H159 C137 0.930 . S
Pr160 C162 2.880 . S
Pr160 O180 2.562 . S
Pr160 O181 2.490 . S
Pr160 O182 2.695 . S
Pr160 O183 2.512 . S
Pr160 O185 2.437 . S
Pr160 O188 2.436 . S
Pr160 O190 2.438 . S
Pr161 C171 2.880 1_565 S
Pr161 O182 2.436 . S
Pr161 O184 2.438 . S
Pr161 O186 2.562 1_565 S
Pr161 O187 2.490 1_565 S
Pr161 O188 2.695 . S
Pr161 O189 2.512 . S
Pr161 O191 2.437 . S
C162 Pr160 2.880 . S
C162 C163 1.491 . S
C162 O180 1.254 . S
C162 O181 1.225 . S
C163 C162 1.491 . S
C163 C164 1.392 . S
C163 C168 1.356 . S
C164 C163 1.392 . S
C164 C165 1.368 . S
C164 H192 0.929 . S
C165 C164 1.368 . S
C165 C166 1.386 . S
C165 H193 0.929 . S
C166 C165 1.386 . S
C166 C167 1.373 . S
C167 C166 1.373 . S
C167 C168 1.409 . S
C167 H194 0.931 . S
C168 C163 1.356 . S
C168 C167 1.409 . S
C168 H195 0.930 . S
C169 O182 1.270 . S
C169 O183 1.248 . S
C170 O184 1.267 . S
C170 O185 1.278 . S
C171 Pr161 2.880 1_545 S
C171 C172 1.491 . S
C171 O186 1.254 . S
C171 O187 1.225 . S
C172 C171 1.491 . S
C172 C173 1.392 . S
C172 C177 1.356 . S
C173 C172 1.392 . S
C173 C174 1.368 . S
C173 H196 0.929 . S
C174 C173 1.368 . S
C174 C175 1.386 . S
C174 H197 0.929 . S
C175 C174 1.386 . S
C175 C176 1.373 . S
C176 C175 1.373 . S
C176 C177 1.409 . S
C176 H198 0.931 . S
C177 C172 1.356 . S
C177 C176 1.409 . S
C177 H199 0.930 . S
C178 O188 1.270 . S
C178 O189 1.248 . S
C179 O190 1.267 . S
C179 O191 1.278 . S
O180 Pr160 2.562 . S
O180 C162 1.254 . S
O181 Pr160 2.490 . S
O181 C162 1.225 . S
O182 Pr160 2.695 . S
O182 Pr161 2.436 . S
O182 C169 1.270 . S
O183 Pr160 2.512 . S
O183 C169 1.248 . S
O184 Pr161 2.438 . S
O184 C170 1.267 . S
O185 Pr160 2.437 . S
O185 C170 1.278 . S
O186 Pr161 2.562 1_545 S
O186 C171 1.254 . S
O187 Pr161 2.490 1_545 S
O187 C171 1.225 . S
O188 Pr160 2.436 . S
O188 Pr161 2.695 . S
O188 C178 1.270 . S
O189 Pr161 2.512 . S
O189 C178 1.248 . S
O190 Pr160 2.438 . S
O190 C179 1.267 . S
O191 Pr161 2.437 . S
O191 C179 1.278 . S
H192 C164 0.929 . S
H193 C165 0.929 . S
H194 C167 0.931 . S
H195 C168 0.930 . S
H196 C173 0.929 . S
H197 C174 0.929 . S
H198 C176 0.931 . S
H199 C177 0.930 . S
Pr200 C202 2.880 . S
Pr200 O220 2.562 . S
Pr200 O221 2.490 . S
Pr200 O222 2.695 . S
Pr200 O223 2.512 . S
Pr200 O225 2.437 . S
Pr200 O228 2.436 . S
Pr200 O230 2.438 . S
Pr201 C211 2.880 1_455 S
Pr201 O222 2.436 . S
Pr201 O224 2.438 . S
Pr201 O226 2.562 . S
Pr201 O227 2.490 1_455 S
Pr201 O228 2.695 . S
Pr201 O229 2.512 . S
Pr201 O231 2.437 . S
C202 Pr200 2.880 . S
C202 C203 1.491 . S
C202 O220 1.254 . S
C202 O221 1.225 . S
C203 C202 1.491 . S
C203 C204 1.392 . S
C203 C208 1.356 . S
C204 C203 1.392 . S
C204 C205 1.368 . S
C204 H232 0.929 . S
C205 C204 1.368 . S
C205 C206 1.386 . S
C205 H233 0.929 . S
C206 C205 1.386 . S
C206 C207 1.373 . S
C207 C206 1.373 . S
C207 C208 1.409 . S
C207 H234 0.931 . S
C208 C203 1.356 . S
C208 C207 1.409 . S
C208 H235 0.930 . S
C209 O222 1.270 . S
C209 O223 1.248 . S
C210 O224 1.267 . S
C210 O225 1.278 . S
C211 Pr201 2.880 1_655 S
C211 C212 1.491 . S
C211 O226 1.254 1_655 S
C211 O227 1.225 . S
C212 C211 1.491 . S
C212 C213 1.392 . S
C212 C217 1.356 . S
C213 C212 1.392 . S
C213 C214 1.368 . S
C213 H236 0.929 . S
C214 C213 1.368 . S
C214 C215 1.386 . S
C214 H237 0.929 . S
C215 C214 1.386 . S
C215 C216 1.373 . S
C216 C215 1.373 . S
C216 C217 1.409 . S
C216 H238 0.931 . S
C217 C212 1.356 . S
C217 C216 1.409 . S
C217 H239 0.930 . S
C218 O228 1.270 . S
C218 O229 1.248 . S
C219 O230 1.267 . S
C219 O231 1.278 . S
O220 Pr200 2.562 . S
O220 C202 1.254 . S
O221 Pr200 2.490 . S
O221 C202 1.225 . S
O222 Pr200 2.695 . S
O222 Pr201 2.436 . S
O222 C209 1.270 . S
O223 Pr200 2.512 . S
O223 C209 1.248 . S
O224 Pr201 2.438 . S
O224 C210 1.267 . S
O225 Pr200 2.437 . S
O225 C210 1.278 . S
O226 Pr201 2.562 . S
O226 C211 1.254 1_455 S
O227 Pr201 2.490 1_655 S
O227 C211 1.225 . S
O228 Pr200 2.436 . S
O228 Pr201 2.695 . S
O228 C218 1.270 . S
O229 Pr201 2.512 . S
O229 C218 1.248 . S
O230 Pr200 2.438 . S
O230 C219 1.267 . S
O231 Pr201 2.437 . S
O231 C219 1.278 . S
H232 C204 0.929 . S
H233 C205 0.929 . S
H234 C207 0.931 . S
H235 C208 0.930 . S
H236 C213 0.929 . S
H237 C214 0.929 . S
H238 C216 0.931 . S
H239 C217 0.930 . S
Pr240 C242 2.880 . S
Pr240 O260 2.562 . S
Pr240 O261 2.490 . S
Pr240 O262 2.695 . S
Pr240 O263 2.512 . S
Pr240 O265 2.437 . S
Pr240 O268 2.436 . S
Pr240 O270 2.438 . S
Pr241 C251 2.880 . S
Pr241 O262 2.436 . S
Pr241 O264 2.438 . S
Pr241 O266 2.562 . S
Pr241 O267 2.490 . S
Pr241 O268 2.695 . S
Pr241 O269 2.512 . S
Pr241 O271 2.437 . S
C242 Pr240 2.880 . S
C242 C243 1.491 . S
C242 O260 1.254 . S
C242 O261 1.225 . S
C243 C242 1.491 . S
C243 C244 1.392 . S
C243 C248 1.356 . S
C244 C243 1.392 . S
C244 C245 1.368 . S
C244 H272 0.929 . S
C245 C244 1.368 . S
C245 C246 1.386 . S
C245 H273 0.929 . S
C246 C245 1.386 . S
C246 C247 1.373 . S
C247 C246 1.373 . S
C247 C248 1.409 . S
C247 H274 0.931 . S
C248 C243 1.356 . S
C248 C247 1.409 . S
C248 H275 0.930 . S
C249 O262 1.270 . S
C249 O263 1.248 . S
C250 O264 1.267 . S
C250 O265 1.278 . S
C251 Pr241 2.880 . S
C251 C252 1.491 . S
C251 O266 1.254 . S
C251 O267 1.225 . S
C252 C251 1.491 . S
C252 C253 1.392 . S
C252 C257 1.356 . S
C253 C252 1.392 . S
C253 C254 1.368 . S
C253 H276 0.929 . S
C254 C253 1.368 . S
C254 C255 1.386 . S
C254 H277 0.929 . S
C255 C254 1.386 . S
C255 C256 1.373 . S
C256 C255 1.373 . S
C256 C257 1.409 . S
C256 H278 0.931 . S
C257 C252 1.356 . S
C257 C256 1.409 . S
C257 H279 0.930 . S
C258 O268 1.270 . S
C258 O269 1.248 . S
C259 O270 1.267 . S
C259 O271 1.278 . S
O260 Pr240 2.562 . S
O260 C242 1.254 . S
O261 Pr240 2.490 . S
O261 C242 1.225 . S
O262 Pr240 2.695 . S
O262 Pr241 2.436 . S
O262 C249 1.270 . S
O263 Pr240 2.512 . S
O263 C249 1.248 . S
O264 Pr241 2.438 . S
O264 C250 1.267 . S
O265 Pr240 2.437 . S
O265 C250 1.278 . S
O266 Pr241 2.562 . S
O266 C251 1.254 . S
O267 Pr241 2.490 . S
O267 C251 1.225 . S
O268 Pr240 2.436 . S
O268 Pr241 2.695 . S
O268 C258 1.270 . S
O269 Pr241 2.512 . S
O269 C258 1.248 . S
O270 Pr240 2.438 . S
O270 C259 1.267 . S
O271 Pr241 2.437 . S
O271 C259 1.278 . S
H272 C244 0.929 . S
H273 C245 0.929 . S
H274 C247 0.931 . S
H275 C248 0.930 . S
H276 C253 0.929 . S
H277 C254 0.929 . S
H278 C256 0.931 . S
H279 C257 0.930 . S
Pr280 C282 2.880 . S
Pr280 O300 2.562 . S
Pr280 O301 2.490 . S
Pr280 O302 2.695 . S
Pr280 O303 2.512 . S
Pr280 O305 2.437 . S
Pr280 O308 2.436 . S
Pr280 O310 2.438 . S
Pr281 C291 2.880 . S
Pr281 O302 2.436 . S
Pr281 O304 2.438 . S
Pr281 O306 2.562 . S
Pr281 O307 2.490 . S
Pr281 O308 2.695 . S
Pr281 O309 2.512 . S
Pr281 O311 2.437 . S
C282 Pr280 2.880 . S
C282 C283 1.491 . S
C282 O300 1.254 . S
C282 O301 1.225 . S
C283 C282 1.491 . S
C283 C284 1.392 . S
C283 C288 1.356 . S
C284 C283 1.392 . S
C284 C285 1.368 1_545 S
C284 H312 0.929 . S
C285 C284 1.368 1_565 S
C285 C286 1.386 . S
C285 H313 0.929 . S
C286 C285 1.386 . S
C286 C287 1.373 . S
C287 C286 1.373 . S
C287 C288 1.409 1_565 S
C287 H314 0.931 . S
C288 C283 1.356 . S
C288 C287 1.409 1_545 S
C288 H315 0.930 . S
C289 O302 1.270 . S
C289 O303 1.248 . S
C290 O304 1.267 . S
C290 O305 1.278 . S
C291 Pr281 2.880 . S
C291 C292 1.491 . S
C291 O306 1.254 . S
C291 O307 1.225 . S
C292 C291 1.491 . S
C292 C293 1.392 . S
C292 C297 1.356 . S
C293 C292 1.392 . S
C293 C294 1.368 . S
C293 H316 0.929 . S
C294 C293 1.368 . S
C294 C295 1.386 . S
C294 H317 0.929 . S
C295 C294 1.386 . S
C295 C296 1.373 . S
C296 C295 1.373 . S
C296 C297 1.409 . S
C296 H318 0.931 . S
C297 C292 1.356 . S
C297 C296 1.409 . S
C297 H319 0.930 . S
C298 O308 1.270 . S
C298 O309 1.248 . S
C299 O310 1.267 . S
C299 O311 1.278 . S
O300 Pr280 2.562 . S
O300 C282 1.254 . S
O301 Pr280 2.490 . S
O301 C282 1.225 . S
O302 Pr280 2.695 . S
O302 Pr281 2.436 . S
O302 C289 1.270 . S
O303 Pr280 2.512 . S
O303 C289 1.248 . S
O304 Pr281 2.438 . S
O304 C290 1.267 . S
O305 Pr280 2.437 . S
O305 C290 1.278 . S
O306 Pr281 2.562 . S
O306 C291 1.254 . S
O307 Pr281 2.490 . S
O307 C291 1.225 . S
O308 Pr280 2.436 . S
O308 Pr281 2.695 . S
O308 C298 1.270 . S
O309 Pr281 2.512 . S
O309 C298 1.248 . S
O310 Pr280 2.438 . S
O310 C299 1.267 . S
O311 Pr281 2.437 . S
O311 C299 1.278 . S
H312 C284 0.929 . S
H313 C285 0.929 . S
H314 C287 0.931 . S
H315 C288 0.930 . S
H316 C293 0.929 . S
H317 C294 0.929 . S
H318 C296 0.931 . S
H319 C297 0.930 . S
Pr320 C322 2.880 . S
Pr320 O340 2.562 . S
Pr320 O341 2.490 . S
Pr320 O342 2.695 . S
Pr320 O343 2.512 . S
Pr320 O345 2.437 . S
Pr320 O348 2.436 . S
Pr320 O350 2.438 . S
Pr321 C331 2.880 . S
Pr321 O342 2.436 . S
Pr321 O344 2.438 . S
Pr321 O346 2.562 . S
Pr321 O347 2.490 . S
Pr321 O348 2.695 . S
Pr321 O349 2.512 . S
Pr321 O351 2.437 . S
C322 Pr320 2.880 . S
C322 C323 1.491 . S
C322 O340 1.254 . S
C322 O341 1.225 . S
C323 C322 1.491 . S
C323 C324 1.392 . S
C323 C328 1.356 . S
C324 C323 1.392 . S
C324 C325 1.368 1_655 S
C324 H352 0.929 . S
C325 C324 1.368 1_455 S
C325 C326 1.386 . S
C325 H353 0.929 . S
C326 C325 1.386 . S
C326 C327 1.373 . S
C327 C326 1.373 . S
C327 C328 1.409 1_455 S
C327 H354 0.931 . S
C328 C323 1.356 . S
C328 C327 1.409 1_655 S
C328 H355 0.930 . S
C329 O342 1.270 . S
C329 O343 1.248 . S
C330 O344 1.267 . S
C330 O345 1.278 . S
C331 Pr321 2.880 . S
C331 C332 1.491 . S
C331 O346 1.254 . S
C331 O347 1.225 . S
C332 C331 1.491 . S
C332 C333 1.392 . S
C332 C337 1.356 . S
C333 C332 1.392 . S
C333 C334 1.368 . S
C333 H356 0.929 . S
C334 C333 1.368 . S
C334 C335 1.386 . S
C334 H357 0.929 . S
C335 C334 1.386 . S
C335 C336 1.373 . S
C336 C335 1.373 . S
C336 C337 1.409 . S
C336 H358 0.931 . S
C337 C332 1.356 . S
C337 C336 1.409 . S
C337 H359 0.930 . S
C338 O348 1.270 . S
C338 O349 1.248 . S
C339 O350 1.267 . S
C339 O351 1.278 . S
O340 Pr320 2.562 . S
O340 C322 1.254 . S
O341 Pr320 2.490 . S
O341 C322 1.225 . S
O342 Pr320 2.695 . S
O342 Pr321 2.436 . S
O342 C329 1.270 . S
O343 Pr320 2.512 . S
O343 C329 1.248 . S
O344 Pr321 2.438 . S
O344 C330 1.267 . S
O345 Pr320 2.437 . S
O345 C330 1.278 . S
O346 Pr321 2.562 . S
O346 C331 1.254 . S
O347 Pr321 2.490 . S
O347 C331 1.225 . S
O348 Pr320 2.436 . S
O348 Pr321 2.695 . S
O348 C338 1.270 . S
O349 Pr321 2.512 . S
O349 C338 1.248 . S
O350 Pr320 2.438 . S
O350 C339 1.267 . S
O351 Pr321 2.437 . S
O351 C339 1.278 . S
H352 C324 0.929 . S
H353 C325 0.929 . S
H354 C327 0.931 . S
H355 C328 0.930 . S
H356 C333 0.929 . S
H357 C334 0.929 . S
H358 C336 0.931 . S
H359 C337 0.930 . S
C360 C361 1.363 1_554 S
C360 C366 1.379 . S
C360 N368 1.356 . S
C361 C360 1.363 1_556 S
C361 C367 1.363 . S
C362 C363 1.363 . S
C362 C367 1.379 . S
C362 N369 1.356 . S
C363 C362 1.363 . S
C363 C366 1.363 1_556 S
N364 C366 1.356 . S
N364 H376 0.984 . S
N364 H377 0.985 . S
N365 C367 1.356 . S
N365 H370 0.984 . S
N365 H371 0.985 . S
C366 C360 1.379 . S
C366 C363 1.363 1_554 S
C366 N364 1.356 . S
C367 C361 1.363 . S
C367 C362 1.379 . S
C367 N365 1.356 . S
N368 C360 1.356 . S
N368 H374 0.984 . S
N368 H375 0.984 . S
N369 C362 1.356 . S
N369 H372 0.984 . S
N369 H373 0.985 . S
H370 N365 0.984 . S
H371 N365 0.985 . S
H372 N369 0.984 . S
H373 N369 0.985 . S
H374 N368 0.984 . S
H375 N368 0.984 . S
H376 N364 0.984 . S
H377 N364 0.985 . S
C378 C379 1.363 1_554 S
C378 C384 1.379 . S
C378 N386 1.356 . S
C379 C378 1.363 1_556 S
C379 C385 1.363 . S
C380 C381 1.363 . S
C380 C385 1.379 . S
C380 N387 1.356 . S
C381 C380 1.363 . S
C381 C384 1.363 1_556 S
N382 C384 1.356 . S
N382 H394 0.984 . S
N382 H395 0.985 . S
N383 C385 1.356 . S
N383 H388 0.984 . S
N383 H389 0.985 . S
C384 C378 1.379 . S
C384 C381 1.363 1_554 S
C384 N382 1.356 . S
C385 C379 1.363 . S
C385 C380 1.379 . S
C385 N383 1.356 . S
N386 C378 1.356 . S
N386 H392 0.984 . S
N386 H393 0.984 . S
N387 C380 1.356 . S
N387 H390 0.984 . S
N387 H391 0.985 . S
H388 N383 0.984 . S
H389 N383 0.985 . S
H390 N387 0.984 . S
H391 N387 0.985 . S
H392 N386 0.984 . S
H393 N386 0.984 . S
H394 N382 0.984 . S
H395 N382 0.985 . S
C396 C397 1.363 . S
C396 C402 1.379 . S
C396 N404 1.356 . S
C397 C396 1.363 . S
C397 C403 1.363 1_556 S
C398 C399 1.363 1_554 S
C398 C403 1.379 . S
C398 N405 1.356 . S
C399 C398 1.363 1_556 S
C399 C402 1.363 . S
N400 C402 1.356 . S
N400 H412 0.984 . S
N400 H413 0.985 . S
N401 C403 1.356 . S
N401 H406 0.984 . S
N401 H407 0.985 . S
C402 C396 1.379 . S
C402 C399 1.363 . S
C402 N400 1.356 . S
C403 C397 1.363 1_554 S
C403 C398 1.379 . S
C403 N401 1.356 . S
N404 C396 1.356 . S
N404 H410 0.984 . S
N404 H411 0.984 . S
N405 C398 1.356 . S
N405 H408 0.984 . S
N405 H409 0.985 . S
H406 N401 0.984 . S
H407 N401 0.985 . S
H408 N405 0.984 . S
H409 N405 0.985 . S
H410 N404 0.984 . S
H411 N404 0.984 . S
H412 N400 0.984 . S
H413 N400 0.985 . S
C414 C415 1.363 1_556 S
C414 C420 1.379 . S
C414 N422 1.356 . S
C415 C414 1.363 1_554 S
C415 C421 1.363 . S
C416 C417 1.363 . S
C416 C421 1.379 . S
C416 N423 1.356 . S
C417 C416 1.363 . S
C417 C420 1.363 1_554 S
N418 C420 1.356 . S
N418 H430 0.984 . S
N418 H431 0.985 . S
N419 C421 1.356 . S
N419 H424 0.984 . S
N419 H425 0.985 . S
C420 C414 1.379 . S
C420 C417 1.363 1_556 S
C420 N418 1.356 . S
C421 C415 1.363 . S
C421 C416 1.379 . S
C421 N419 1.356 . S
N422 C414 1.356 . S
N422 H428 0.984 . S
N422 H429 0.984 . S
N423 C416 1.356 . S
N423 H426 0.984 . S
N423 H427 0.985 . S
H424 N419 0.984 . S
H425 N419 0.985 . S
H426 N423 0.984 . S
H427 N423 0.985 . S
H428 N422 0.984 . S
H429 N422 0.984 . S
H430 N418 0.984 . S
H431 N418 0.985 . S
C432 C433 1.363 . S
C432 C438 1.379 . S
C432 N440 1.356 . S
C433 C432 1.363 . S
C433 C439 1.363 1_554 S
C434 C435 1.363 1_556 S
C434 C439 1.379 . S
C434 N441 1.356 . S
C435 C434 1.363 1_554 S
C435 C438 1.363 . S
N436 C438 1.356 . S
N436 H448 0.984 . S
N436 H449 0.985 . S
N437 C439 1.356 . S
N437 H442 0.984 . S
N437 H443 0.985 . S
C438 C432 1.379 . S
C438 C435 1.363 . S
C438 N436 1.356 . S
C439 C433 1.363 1_556 S
C439 C434 1.379 . S
C439 N437 1.356 . S
N440 C432 1.356 . S
N440 H446 0.984 . S
N440 H447 0.984 . S
N441 C434 1.356 . S
N441 H444 0.984 . S
N441 H445 0.985 . S
H442 N437 0.984 . S
H443 N437 0.985 . S
H444 N441 0.984 . S
H445 N441 0.985 . S
H446 N440 0.984 . S
H447 N440 0.984 . S
H448 N436 0.984 . S
H449 N436 0.985 . S
C450 C451 1.363 1_556 S
C450 C456 1.379 . S
C450 N458 1.356 . S
C451 C450 1.363 1_554 S
C451 C457 1.363 . S
C452 C453 1.363 . S
C452 C457 1.379 . S
C452 N459 1.356 . S
C453 C452 1.363 . S
C453 C456 1.363 1_554 S
N454 C456 1.356 . S
N454 H466 0.984 . S
N454 H467 0.985 . S
N455 C457 1.356 . S
N455 H460 0.984 . S
N455 H461 0.985 . S
C456 C450 1.379 . S
C456 C453 1.363 1_556 S
C456 N454 1.356 . S
C457 C451 1.363 . S
C457 C452 1.379 . S
C457 N455 1.356 . S
N458 C450 1.356 . S
N458 H464 0.984 . S
N458 H465 0.984 . S
N459 C452 1.356 . S
N459 H462 0.984 . S
N459 H463 0.985 . S
H460 N455 0.984 . S
H461 N455 0.985 . S
H462 N459 0.984 . S
H463 N459 0.985 . S
H464 N458 0.984 . S
H465 N458 0.984 . S
H466 N454 0.984 . S
H467 N454 0.985 . S
C468 C469 1.363 1_455 S
C468 C474 1.379 . S
C468 N476 1.356 1_455 S
C469 C468 1.363 1_655 S
C469 C475 1.363 1_655 S
C470 C471 1.363 . S
C470 C475 1.379 . S
C470 N477 1.356 . S
C471 C470 1.363 . S
C471 C474 1.363 . S
N472 C474 1.356 . S
N472 H484 0.984 . S
N472 H485 0.985 . S
N473 C475 1.356 1_655 S
N473 H478 0.984 . S
N473 H479 0.985 . S
C474 C468 1.379 . S
C474 C471 1.363 . S
C474 N472 1.356 . S
C475 C469 1.363 1_455 S
C475 C470 1.379 . S
C475 N473 1.356 1_455 S
N476 C468 1.356 1_655 S
N476 H482 0.984 . S
N476 H483 0.984 . S
N477 C470 1.356 . S
N477 H480 0.984 . S
N477 H481 0.985 . S
H478 N473 0.984 . S
H479 N473 0.985 . S
H480 N477 0.984 . S
H481 N477 0.985 . S
H482 N476 0.984 . S
H483 N476 0.984 . S
H484 N472 0.984 . S
H485 N472 0.985 . S
C486 C487 1.363 . S
C486 C492 1.379 . S
C486 N494 1.356 . S
C487 C486 1.363 . S
C487 C493 1.363 . S
C488 C489 1.363 . S
C488 C493 1.379 . S
C488 N495 1.356 . S
C489 C488 1.363 . S
C489 C492 1.363 . S
N490 C492 1.356 . S
N490 H502 0.984 . S
N490 H503 0.985 . S
N491 C493 1.356 . S
N491 H496 0.984 . S
N491 H497 0.985 . S
C492 C486 1.379 . S
C492 C489 1.363 . S
C492 N490 1.356 . S
C493 C487 1.363 . S
C493 C488 1.379 . S
C493 N491 1.356 . S
N494 C486 1.356 . S
N494 H500 0.984 . S
N494 H501 0.984 . S
N495 C488 1.356 . S
N495 H498 0.984 . S
N495 H499 0.985 . S
H496 N491 0.984 . S
H497 N491 0.985 . S
H498 N495 0.984 . S
H499 N495 0.985 . S
H500 N494 0.984 . S
H501 N494 0.984 . S
H502 N490 0.984 . S
H503 N490 0.985 . S
C504 C505 1.363 1_565 S
C504 C510 1.379 . S
C504 N512 1.356 1_565 S
C505 C504 1.363 1_545 S
C505 C511 1.363 1_545 S
C506 C507 1.363 . S
C506 C511 1.379 . S
C506 N513 1.356 . S
C507 C506 1.363 . S
C507 C510 1.363 . S
N508 C510 1.356 . S
N508 H520 0.984 . S
N508 H521 0.985 . S
N509 C511 1.356 1_545 S
N509 H514 0.984 . S
N509 H515 0.985 . S
C510 C504 1.379 . S
C510 C507 1.363 . S
C510 N508 1.356 . S
C511 C505 1.363 1_565 S
C511 C506 1.379 . S
C511 N509 1.356 1_565 S
N512 C504 1.356 1_545 S
N512 H518 0.984 . S
N512 H519 0.984 . S
N513 C506 1.356 . S
N513 H516 0.984 . S
N513 H517 0.985 . S
H514 N509 0.984 . S
H515 N509 0.985 . S
H516 N513 0.984 . S
H517 N513 0.985 . S
H518 N512 0.984 . S
H519 N512 0.984 . S
H520 N508 0.984 . S
H521 N508 0.985 . S
C522 C523 1.363 . S
C522 C528 1.379 . S
C522 N530 1.356 . S
C523 C522 1.363 . S
C523 C529 1.363 . S
C524 C525 1.363 . S
C524 C529 1.379 . S
C524 N531 1.356 . S
C525 C524 1.363 . S
C525 C528 1.363 . S
N526 C528 1.356 . S
N526 H538 0.984 . S
N526 H539 0.985 . S
N527 C529 1.356 . S
N527 H532 0.984 . S
N527 H533 0.985 . S
C528 C522 1.379 . S
C528 C525 1.363 . S
C528 N526 1.356 . S
C529 C523 1.363 . S
C529 C524 1.379 . S
C529 N527 1.356 . S
N530 C522 1.356 . S
N530 H536 0.984 . S
N530 H537 0.984 . S
N531 C524 1.356 . S
N531 H534 0.984 . S
N531 H535 0.985 . S
H532 N527 0.984 . S
H533 N527 0.985 . S
H534 N531 0.984 . S
H535 N531 0.985 . S
H536 N530 0.984 . S
H537 N530 0.984 . S
H538 N526 0.984 . S
H539 N526 0.985 . S
C540 C541 1.363 . S
C540 C546 1.379 . S
C540 N548 1.356 . S
C541 C540 1.363 . S
C541 C547 1.363 . S
C542 C543 1.363 . S
C542 C547 1.379 . S
C542 N549 1.356 . S
C543 C542 1.363 . S
C543 C546 1.363 . S
N544 C546 1.356 . S
N544 H556 0.984 . S
N544 H557 0.985 . S
N545 C547 1.356 . S
N545 H550 0.984 . S
N545 H551 0.985 . S
C546 C540 1.379 . S
C546 C543 1.363 . S
C546 N544 1.356 . S
C547 C541 1.363 . S
C547 C542 1.379 . S
C547 N545 1.356 . S
N548 C540 1.356 . S
N548 H554 0.984 . S
N548 H555 0.984 . S
N549 C542 1.356 . S
N549 H552 0.984 . S
N549 H553 0.985 . S
H550 N545 0.984 . S
H551 N545 0.985 . S
H552 N549 0.984 . S
H553 N549 0.985 . S
H554 N548 0.984 . S
H555 N548 0.984 . S
H556 N544 0.984 . S
H557 N544 0.985 . S
C558 C559 1.363 . S
C558 C564 1.379 . S
C558 N566 1.356 . S
C559 C558 1.363 . S
C559 C565 1.363 . S
C560 C561 1.363 . S
C560 C565 1.379 . S
C560 N567 1.356 . S
C561 C560 1.363 . S
C561 C564 1.363 . S
N562 C564 1.356 . S
N562 H574 0.984 . S
N562 H575 0.985 . S
N563 C565 1.356 . S
N563 H568 0.984 . S
N563 H569 0.985 . S
C564 C558 1.379 . S
C564 C561 1.363 . S
C564 N562 1.356 . S
C565 C559 1.363 . S
C565 C560 1.379 . S
C565 N563 1.356 . S
N566 C558 1.356 . S
N566 H572 0.984 . S
N566 H573 0.984 . S
N567 C560 1.356 . S
N567 H570 0.984 . S
N567 H571 0.985 . S
H568 N563 0.984 . S
H569 N563 0.985 . S
H570 N567 0.984 . S
H571 N567 0.985 . S
H572 N566 0.984 . S
H573 N566 0.984 . S
H574 N562 0.984 . S
H575 N562 0.985 . S
C576 C577 1.363 . S
C576 C582 1.379 . S
C576 N584 1.356 . S
C577 C576 1.363 . S
C577 C583 1.363 . S
C578 C579 1.363 . S
C578 C583 1.379 . S
C578 N585 1.356 . S
C579 C578 1.363 . S
C579 C582 1.363 . S
N580 C582 1.356 . S
N580 H592 0.984 . S
N580 H593 0.985 . S
N581 C583 1.356 . S
N581 H586 0.984 . S
N581 H587 0.985 . S
C582 C576 1.379 . S
C582 C579 1.363 . S
C582 N580 1.356 . S
C583 C577 1.363 . S
C583 C578 1.379 . S
C583 N581 1.356 . S
N584 C576 1.356 . S
N584 H590 0.984 . S
N584 H591 0.984 . S
N585 C578 1.356 . S
N585 H588 0.984 . S
N585 H589 0.985 . S
H586 N581 0.984 . S
H587 N581 0.985 . S
H588 N585 0.984 . S
H589 N585 0.985 . S
H590 N584 0.984 . S
H591 N584 0.984 . S
H592 N580 0.984 . S
H593 N580 0.985 . S
C594 C595 1.363 . S
C594 C600 1.379 . S
C594 N602 1.356 . S
C595 C594 1.363 . S
C595 C601 1.363 . S
C596 C597 1.363 . S
C596 C601 1.379 . S
C596 N603 1.356 . S
C597 C596 1.363 . S
C597 C600 1.363 . S
N598 C600 1.356 . S
N598 H610 0.984 . S
N598 H611 0.985 . S
N599 C601 1.356 . S
N599 H604 0.984 . S
N599 H605 0.985 . S
C600 C594 1.379 . S
C600 C597 1.363 . S
C600 N598 1.356 . S
C601 C595 1.363 . S
C601 C596 1.379 . S
C601 N599 1.356 . S
N602 C594 1.356 . S
N602 H608 0.984 . S
N602 H609 0.984 . S
N603 C596 1.356 . S
N603 H606 0.984 . S
N603 H607 0.985 . S
H604 N599 0.984 . S
H605 N599 0.985 . S
H606 N603 0.984 . S
H607 N603 0.985 . S
H608 N602 0.984 . S
H609 N602 0.984 . S
H610 N598 0.984 . S
H611 N598 0.985 . S
C612 C613 1.363 . S
C612 C618 1.379 . S
C612 N620 1.356 . S
C613 C612 1.363 . S
C613 C619 1.363 . S
C614 C615 1.363 . S
C614 C619 1.379 . S
C614 N621 1.356 . S
C615 C614 1.363 . S
C615 C618 1.363 . S
N616 C618 1.356 . S
N616 H628 0.984 . S
N616 H629 0.985 . S
N617 C619 1.356 . S
N617 H622 0.984 . S
N617 H623 0.985 . S
C618 C612 1.379 . S
C618 C615 1.363 . S
C618 N616 1.356 . S
C619 C613 1.363 . S
C619 C614 1.379 . S
C619 N617 1.356 . S
N620 C612 1.356 . S
N620 H626 0.984 . S
N620 H627 0.984 . S
N621 C614 1.356 . S
N621 H624 0.984 . S
N621 H625 0.985 . S
H622 N617 0.984 . S
H623 N617 0.985 . S
H624 N621 0.984 . S
H625 N621 0.985 . S
H626 N620 0.984 . S
H627 N620 0.984 . S
H628 N616 0.984 . S
H629 N616 0.985 . S
C630 C631 1.363 . S
C630 C636 1.379 . S
C630 N638 1.356 . S
C631 C630 1.363 . S
C631 C637 1.363 . S
C632 C633 1.363 . S
C632 C637 1.379 . S
C632 N639 1.356 . S
C633 C632 1.363 . S
C633 C636 1.363 . S
N634 C636 1.356 . S
N634 H646 0.984 . S
N634 H647 0.985 . S
N635 C637 1.356 . S
N635 H640 0.984 . S
N635 H641 0.985 . S
C636 C630 1.379 . S
C636 C633 1.363 . S
C636 N634 1.356 . S
C637 C631 1.363 . S
C637 C632 1.379 . S
C637 N635 1.356 . S
N638 C630 1.356 . S
N638 H644 0.984 . S
N638 H645 0.984 . S
N639 C632 1.356 . S
N639 H642 0.984 . S
N639 H643 0.985 . S
H640 N635 0.984 . S
H641 N635 0.985 . S
H642 N639 0.984 . S
H643 N639 0.985 . S
H644 N638 0.984 . S
H645 N638 0.984 . S
H646 N634 0.984 . S
H647 N634 0.985 . S
C648 C649 1.363 . S
C648 C654 1.379 . S
C648 N656 1.356 . S
C649 C648 1.363 . S
C649 C655 1.363 1_565 S
C650 C651 1.363 . S
C650 C655 1.379 . S
C650 N657 1.356 . S
C651 C650 1.363 . S
C651 C654 1.363 1_545 S
N652 C654 1.356 . S
N652 H664 0.984 . S
N652 H665 0.985 . S
N653 C655 1.356 . S
N653 H658 0.984 . S
N653 H659 0.985 . S
C654 C648 1.379 . S
C654 C651 1.363 1_565 S
C654 N652 1.356 . S
C655 C649 1.363 1_545 S
C655 C650 1.379 . S
C655 N653 1.356 . S
N656 C648 1.356 . S
N656 H662 0.984 . S
N656 H663 0.984 . S
N657 C650 1.356 . S
N657 H660 0.984 . S
N657 H661 0.985 . S
H658 N653 0.984 . S
H659 N653 0.985 . S
H660 N657 0.984 . S
H661 N657 0.985 . S
H662 N656 0.984 . S
H663 N656 0.984 . S
H664 N652 0.984 . S
H665 N652 0.985 . S
C666 C667 1.363 . S
C666 C672 1.379 . S
C666 N674 1.356 . S
C667 C666 1.363 . S
C667 C673 1.363 . S
C668 C669 1.363 1_655 S
C668 C673 1.379 1_655 S
C668 N675 1.356 . S
C669 C668 1.363 1_455 S
C669 C672 1.363 . S
N670 C672 1.356 . S
N670 H682 0.984 . S
N670 H683 0.985 . S
N671 C673 1.356 . S
N671 H676 0.984 . S
N671 H677 0.985 1_455 S
C672 C666 1.379 . S
C672 C669 1.363 . S
C672 N670 1.356 . S
C673 C667 1.363 . S
C673 C668 1.379 1_455 S
C673 N671 1.356 . S
N674 C666 1.356 . S
N674 H680 0.984 . S
N674 H681 0.984 . S
N675 C668 1.356 . S
N675 H678 0.984 . S
N675 H679 0.985 . S
H676 N671 0.984 . S
H677 N671 0.985 1_655 S
H678 N675 0.984 . S
H679 N675 0.985 . S
H680 N674 0.984 . S
H681 N674 0.984 . S
H682 N670 0.984 . S
H683 N670 0.985 . S
C684 C685 1.363 . S
C684 C690 1.379 . S
C684 N692 1.356 . S
C685 C684 1.363 . S
C685 C691 1.363 . S
C686 C687 1.363 . S
C686 C691 1.379 . S
C686 N693 1.356 . S
C687 C686 1.363 . S
C687 C690 1.363 . S
N688 C690 1.356 . S
N688 H700 0.984 . S
N688 H701 0.985 . S
N689 C691 1.356 . S
N689 H694 0.984 . S
N689 H695 0.985 . S
C690 C684 1.379 . S
C690 C687 1.363 . S
C690 N688 1.356 . S
C691 C685 1.363 . S
C691 C686 1.379 . S
C691 N689 1.356 . S
N692 C684 1.356 . S
N692 H698 0.984 . S
N692 H699 0.984 . S
N693 C686 1.356 . S
N693 H696 0.984 . S
N693 H697 0.985 . S
H694 N689 0.984 . S
H695 N689 0.985 . S
H696 N693 0.984 . S
H697 N693 0.985 . S
H698 N692 0.984 . S
H699 N692 0.984 . S
H700 N688 0.984 . S
H701 N688 0.985 . S
C702 C703 1.363 . S
C702 C708 1.379 . S
C702 N710 1.356 . S
C703 C702 1.363 . S
C703 C709 1.363 . S
C704 C705 1.363 . S
C704 C709 1.379 . S
C704 N711 1.356 . S
C705 C704 1.363 . S
C705 C708 1.363 . S
N706 C708 1.356 . S
N706 H718 0.984 . S
N706 H719 0.985 . S
N707 C709 1.356 . S
N707 H712 0.984 . S
N707 H713 0.985 . S
C708 C702 1.379 . S
C708 C705 1.363 . S
C708 N706 1.356 . S
C709 C703 1.363 . S
C709 C704 1.379 . S
C709 N707 1.356 . S
N710 C702 1.356 . S
N710 H716 0.984 . S
N710 H717 0.984 . S
N711 C704 1.356 . S
N711 H714 0.984 . S
N711 H715 0.985 . S
H712 N707 0.984 . S
H713 N707 0.985 . S
H714 N711 0.984 . S
H715 N711 0.985 . S
H716 N710 0.984 . S
H717 N710 0.984 . S
H718 N706 0.984 . S
H719 N706 0.985 . S
C720 C721 1.363 . S
C720 C726 1.379 . S
C720 N728 1.356 . S
C721 C720 1.363 . S
C721 C727 1.363 . S
C722 C723 1.363 . S
C722 C727 1.379 . S
C722 N729 1.356 . S
C723 C722 1.363 . S
C723 C726 1.363 . S
N724 C726 1.356 . S
N724 H736 0.984 . S
N724 H737 0.985 . S
N725 C727 1.356 . S
N725 H730 0.984 . S
N725 H731 0.985 . S
C726 C720 1.379 . S
C726 C723 1.363 . S
C726 N724 1.356 . S
C727 C721 1.363 . S
C727 C722 1.379 . S
C727 N725 1.356 . S
N728 C720 1.356 . S
N728 H734 0.984 . S
N728 H735 0.984 . S
N729 C722 1.356 . S
N729 H732 0.984 . S
N729 H733 0.985 . S
H730 N725 0.984 . S
H731 N725 0.985 . S
H732 N729 0.984 . S
H733 N729 0.985 . S
H734 N728 0.984 . S
H735 N728 0.984 . S
H736 N724 0.984 . S
H737 N724 0.985 . S
C738 C739 1.363 . S
C738 C744 1.379 . S
C738 N746 1.356 . S
C739 C738 1.363 . S
C739 C745 1.363 . S
C740 C741 1.363 . S
C740 C745 1.379 . S
C740 N747 1.356 . S
C741 C740 1.363 . S
C741 C744 1.363 . S
N742 C744 1.356 . S
N742 H754 0.984 . S
N742 H755 0.985 . S
N743 C745 1.356 . S
N743 H748 0.984 . S
N743 H749 0.985 . S
C744 C738 1.379 . S
C744 C741 1.363 . S
C744 N742 1.356 . S
C745 C739 1.363 . S
C745 C740 1.379 . S
C745 N743 1.356 . S
N746 C738 1.356 . S
N746 H752 0.984 . S
N746 H753 0.984 . S
N747 C740 1.356 . S
N747 H750 0.984 . S
N747 H751 0.985 . S
H748 N743 0.984 . S
H749 N743 0.985 . S
H750 N747 0.984 . S
H751 N747 0.985 . S
H752 N746 0.984 . S
H753 N746 0.984 . S
H754 N742 0.984 . S
H755 N742 0.985 . S
C756 C757 1.363 . S
C756 C762 1.379 . S
C756 N764 1.356 . S
C757 C756 1.363 . S
C757 C763 1.363 . S
C758 C759 1.363 . S
C758 C763 1.379 . S
C758 N765 1.356 . S
C759 C758 1.363 . S
C759 C762 1.363 . S
N760 C762 1.356 . S
N760 H772 0.984 . S
N760 H773 0.985 . S
N761 C763 1.356 . S
N761 H766 0.984 . S
N761 H767 0.985 . S
C762 C756 1.379 . S
C762 C759 1.363 . S
C762 N760 1.356 . S
C763 C757 1.363 . S
C763 C758 1.379 . S
C763 N761 1.356 . S
N764 C756 1.356 . S
N764 H770 0.984 . S
N764 H771 0.984 . S
N765 C758 1.356 . S
N765 H768 0.984 . S
N765 H769 0.985 . S
H766 N761 0.984 . S
H767 N761 0.985 . S
H768 N765 0.984 . S
H769 N765 0.985 . S
H770 N764 0.984 . S
H771 N764 0.984 . S
H772 N760 0.984 . S
H773 N760 0.985 . S
C774 C775 1.363 . S
C774 C780 1.379 . S
C774 N782 1.356 . S
C775 C774 1.363 . S
C775 C781 1.363 . S
C776 C777 1.363 . S
C776 C781 1.379 . S
C776 N783 1.356 . S
C777 C776 1.363 . S
C777 C780 1.363 . S
N778 C780 1.356 . S
N778 H790 0.984 . S
N778 H791 0.985 . S
N779 C781 1.356 . S
N779 H784 0.984 . S
N779 H785 0.985 . S
C780 C774 1.379 . S
C780 C777 1.363 . S
C780 N778 1.356 . S
C781 C775 1.363 . S
C781 C776 1.379 . S
C781 N779 1.356 . S
N782 C774 1.356 . S
N782 H788 0.984 . S
N782 H789 0.984 . S
N783 C776 1.356 . S
N783 H786 0.984 . S
N783 H787 0.985 . S
H784 N779 0.984 . S
H785 N779 0.985 . S
H786 N783 0.984 . S
H787 N783 0.985 . S
H788 N782 0.984 . S
H789 N782 0.984 . S
H790 N778 0.984 . S
H791 N778 0.985 . S
C792 C793 1.363 . S
C792 C798 1.379 . S
C792 N800 1.356 . S
C793 C792 1.363 . S
C793 C799 1.363 . S
C794 C795 1.363 . S
C794 C799 1.379 . S
C794 N801 1.356 . S
C795 C794 1.363 . S
C795 C798 1.363 . S
N796 C798 1.356 . S
N796 H808 0.984 . S
N796 H809 0.985 . S
N797 C799 1.356 . S
N797 H802 0.984 . S
N797 H803 0.985 . S
C798 C792 1.379 . S
C798 C795 1.363 . S
C798 N796 1.356 . S
C799 C793 1.363 . S
C799 C794 1.379 . S
C799 N797 1.356 . S
N800 C792 1.356 . S
N800 H806 0.984 . S
N800 H807 0.984 . S
N801 C794 1.356 . S
N801 H804 0.984 . S
N801 H805 0.985 . S
H802 N797 0.984 . S
H803 N797 0.985 . S
H804 N801 0.984 . S
H805 N801 0.985 . S
H806 N800 0.984 . S
H807 N800 0.984 . S
H808 N796 0.984 . S
H809 N796 0.985 . S
C810 C811 1.363 . S
C810 C816 1.379 1_565 S
C810 N818 1.356 . S
C811 C810 1.363 . S
C811 C817 1.358 1_565 S
C812 C813 1.363 . S
C812 C817 1.388 . S
C812 N819 1.356 . S
C813 C812 1.363 . S
C813 C816 1.363 . S
N814 C816 1.356 . S
N814 H826 0.984 . S
N814 H827 0.985 . S
N815 C817 1.350 1_565 S
N815 H820 0.984 . S
N815 H821 0.985 1_565 S
C816 C810 1.379 1_545 S
C816 C813 1.363 . S
C816 N814 1.356 . S
C817 C811 1.358 1_545 S
C817 C812 1.388 . S
C817 N815 1.350 1_545 S
N818 C810 1.356 . S
N818 H824 0.984 . S
N818 H825 0.984 . S
N819 C812 1.356 . S
N819 H822 0.984 . S
N819 H823 0.985 . S
H820 N815 0.984 . S
H821 N815 0.985 1_545 S
H822 N819 0.984 . S
H823 N819 0.985 . S
H824 N818 0.984 . S
H825 N818 0.984 . S
H826 N814 0.984 . S
H827 N814 0.985 . S
C828 C829 1.363 . S
C828 C834 1.379 1_655 S
C828 N836 1.356 . S
C829 C828 1.363 . S
C829 C835 1.363 . S
C830 C831 1.363 . S
C830 C835 1.379 1_455 S
C830 N837 1.356 . S
C831 C830 1.363 . S
C831 C834 1.363 . S
N832 C834 1.356 . S
N832 H844 0.984 . S
N832 H845 0.985 . S
N833 C835 1.356 . S
N833 H838 0.984 . S
N833 H839 0.985 . S
C834 C828 1.379 1_455 S
C834 C831 1.363 . S
C834 N832 1.356 . S
C835 C829 1.363 . S
C835 C830 1.379 1_655 S
C835 N833 1.356 . S
N836 C828 1.356 . S
N836 H842 0.984 . S
N836 H843 0.984 . S
N837 C830 1.356 . S
N837 H840 0.984 . S
N837 H841 0.985 . S
H838 N833 0.984 . S
H839 N833 0.985 . S
H840 N837 0.984 . S
H841 N837 0.985 . S
H842 N836 0.984 . S
H843 N836 0.984 . S
H844 N832 0.984 . S
H845 N832 0.985 . S
C361 C59 1.516 . S
C363 C15 1.591 . S
C379 C99 1.516 . S
C381 C55 1.591 . S
C397 C95 1.592 . S
C399 C19 1.516 . S
C415 C90 1.782 . S
C417 C46 1.702 . S
C433 C86 1.702 . S
C435 C10 1.782 . S
C451 C6 1.702 . S
C453 C50 1.782 . S
C469 C135 1.592 . S
C471 C179 1.516 . S
C487 C219 1.516 . S
C489 C175 1.591 . S
C505 C215 1.592 . S
C507 C139 1.516 . S
C523 C166 1.702 . S
C525 C210 1.782 . S
C541 C206 1.702 . S
C543 C130 1.782 . S
C559 C170 1.782 . S
C561 C126 1.702 . S
C577 C299 1.516 . S
C579 C255 1.592 . S
C595 C295 1.591 . S
C597 C339 1.516 . S
C613 C335 1.592 . S
C615 C259 1.516 . S
C631 C330 1.782 . S
C633 C286 1.702 . S
C649 C326 1.702 . S
C651 C250 1.782 . S
C667 C246 1.702 . S
C669 C290 1.782 1_455 S
C685 C218 2.327 . S
C687 C9 2.736 . S
C703 C138 2.327 . S
C705 C49 2.736 . S
C721 C89 2.737 . S
C723 C178 2.328 . S
C739 C98 2.328 . S
C741 C249 2.736 . S
C757 C18 2.327 . S
C759 C289 2.736 . S
C775 C329 2.737 . S
C777 C58 2.328 . S
C793 C129 2.736 . S
C795 C338 2.327 . S
C811 C169 2.736 . S
C813 C258 2.327 . S
C829 C298 2.327 . S
C831 C209 2.736 . S
