# Generated by pormake.
# Topology unn, (4)-cn, num edge types: 1
# Building blocks:
#     Node 0, Type 0, BuildingBlock: ICAMEG_clean_sbu_1, # of connection points: 4
#     Node 1, Type 0, BuildingBlock: ICAMEG_clean_sbu_1, # of connection points: 4
#     Node 2, Type 0, BuildingBlock: ICAMEG_clean_sbu_1, # of connection points: 4
#     Node 3, Type 0, BuildingBlock: ICAMEG_clean_sbu_1, # of connection points: 4
#     Node 4, Type 0, BuildingBlock: ICAMEG_clean_sbu_1, # of connection points: 4
#     Node 5, Type 0, BuildingBlock: ICAMEG_clean_sbu_1, # of connection points: 4
#     Node 6, Type 0, BuildingBlock: ICAMEG_clean_sbu_1, # of connection points: 4
#     Node 7, Type 0, BuildingBlock: ICAMEG_clean_sbu_1, # of connection points: 4
#     Node 8, Type 0, BuildingBlock: ICAMEG_clean_sbu_1, # of connection points: 4
#     Node 9, Type 0, BuildingBlock: ICAMEG_clean_sbu_1, # of connection points: 4
#     Node 10, Type 0, BuildingBlock: ICAMEG_clean_sbu_1, # of connection points: 4
#     Node 11, Type 0, BuildingBlock: ICAMEG_clean_sbu_1, # of connection points: 4
#     Node 12, Type 0, BuildingBlock: ICAMEG_clean_sbu_1, # of connection points: 4
#     Node 13, Type 0, BuildingBlock: ICAMEG_clean_sbu_1, # of connection points: 4
#     Node 14, Type 0, BuildingBlock: ICAMEG_clean_sbu_1, # of connection points: 4
#     Node 15, Type 0, BuildingBlock: ICAMEG_clean_sbu_1, # of connection points: 4
#     Node 16, Type 0, BuildingBlock: ICAMEG_clean_sbu_1, # of connection points: 4
#     Node 17, Type 0, BuildingBlock: ICAMEG_clean_sbu_1, # of connection points: 4
#     Edge 18, Type (0, 0), BuildingBlock: XIVTED_clean_linker_0, # of connection points: 2
#     Edge 19, Type (0, 0), BuildingBlock: XIVTED_clean_linker_0, # of connection points: 2
#     Edge 20, Type (0, 0), BuildingBlock: XIVTED_clean_linker_0, # of connection points: 2
#     Edge 21, Type (0, 0), BuildingBlock: XIVTED_clean_linker_0, # of connection points: 2
#     Edge 22, Type (0, 0), BuildingBlock: XIVTED_clean_linker_0, # of connection points: 2
#     Edge 23, Type (0, 0), BuildingBlock: XIVTED_clean_linker_0, # of connection points: 2
#     Edge 24, Type (0, 0), BuildingBlock: XIVTED_clean_linker_0, # of connection points: 2
#     Edge 25, Type (0, 0), BuildingBlock: XIVTED_clean_linker_0, # of connection points: 2
#     Edge 26, Type (0, 0), BuildingBlock: XIVTED_clean_linker_0, # of connection points: 2
#     Edge 27, Type (0, 0), BuildingBlock: XIVTED_clean_linker_0, # of connection points: 2
#     Edge 28, Type (0, 0), BuildingBlock: XIVTED_clean_linker_0, # of connection points: 2
#     Edge 29, Type (0, 0), BuildingBlock: XIVTED_clean_linker_0, # of connection points: 2
#     Edge 30, Type (0, 0), BuildingBlock: XIVTED_clean_linker_0, # of connection points: 2
#     Edge 31, Type (0, 0), BuildingBlock: XIVTED_clean_linker_0, # of connection points: 2
#     Edge 32, Type (0, 0), BuildingBlock: XIVTED_clean_linker_0, # of connection points: 2
#     Edge 33, Type (0, 0), BuildingBlock: XIVTED_clean_linker_0, # of connection points: 2
#     Edge 34, Type (0, 0), BuildingBlock: XIVTED_clean_linker_0, # of connection points: 2
#     Edge 35, Type (0, 0), BuildingBlock: XIVTED_clean_linker_0, # of connection points: 2
#     Edge 36, Type (0, 0), BuildingBlock: XIVTED_clean_linker_0, # of connection points: 2
#     Edge 37, Type (0, 0), BuildingBlock: XIVTED_clean_linker_0, # of connection points: 2
#     Edge 38, Type (0, 0), BuildingBlock: XIVTED_clean_linker_0, # of connection points: 2
#     Edge 39, Type (0, 0), BuildingBlock: XIVTED_clean_linker_0, # of connection points: 2
#     Edge 40, Type (0, 0), BuildingBlock: XIVTED_clean_linker_0, # of connection points: 2
#     Edge 41, Type (0, 0), BuildingBlock: XIVTED_clean_linker_0, # of connection points: 2
#     Edge 42, Type (0, 0), BuildingBlock: XIVTED_clean_linker_0, # of connection points: 2
#     Edge 43, Type (0, 0), BuildingBlock: XIVTED_clean_linker_0, # of connection points: 2
#     Edge 44, Type (0, 0), BuildingBlock: XIVTED_clean_linker_0, # of connection points: 2
#     Edge 45, Type (0, 0), BuildingBlock: XIVTED_clean_linker_0, # of connection points: 2
#     Edge 46, Type (0, 0), BuildingBlock: XIVTED_clean_linker_0, # of connection points: 2
#     Edge 47, Type (0, 0), BuildingBlock: XIVTED_clean_linker_0, # of connection points: 2
#     Edge 48, Type (0, 0), BuildingBlock: XIVTED_clean_linker_0, # of connection points: 2
#     Edge 49, Type (0, 0), BuildingBlock: XIVTED_clean_linker_0, # of connection points: 2
#     Edge 50, Type (0, 0), BuildingBlock: XIVTED_clean_linker_0, # of connection points: 2
#     Edge 51, Type (0, 0), BuildingBlock: XIVTED_clean_linker_0, # of connection points: 2
#     Edge 52, Type (0, 0), BuildingBlock: XIVTED_clean_linker_0, # of connection points: 2
#     Edge 53, Type (0, 0), BuildingBlock: XIVTED_clean_linker_0, # of connection points: 2
# Relax obj value: 0.108
# Max RMSD: 0.208
# Mean RMSD: 0.165
data_MOF--net-unn--node1-ICAMEG_clean_sbu_1--edge1-XIVTED_clean_linker_0
_symmetry_space_group_name_H-M    P1
_symmetry_Int_Tables_number       1
_symmetry_cell_setting            triclinic
loop_
_symmetry_equiv_pos_as_xyz
'x, y, z'
_cell_length_a     48.652327
_cell_length_b     48.61574
_cell_length_c     41.377554
_cell_angle_alpha  90.259828
_cell_angle_beta   90.397912
_cell_angle_gamma 120.08678
loop_
_atom_site_label
_atom_site_type_symbol
_atom_site_fract_x
_atom_site_fract_y
_atom_site_fract_z
_atom_type_partial_charge
Co0 Co 0.05865 0.71586 0.2579 0.0
Co1 Co 0.09323 0.79287 0.23003 0.0
O2 O 0.08256 0.76175 0.26401 0.0
C3 C 0.0213 0.73108 0.30176 0.0
O4 O 0.02729 0.75448 0.28214 0.0
C5 C 0.15471 0.80539 0.25756 0.0
O6 O 0.14385 0.7748 0.25402 0.0
O7 O 0.10637 0.76909 0.20087 0.0
O8 O 0.08402 0.71886 0.21903 0.0
H9 H 0.09465 0.82975 0.1165 0.0
H10 H 0.08765 0.74309 0.32188 0.0
O11 O 0.03221 0.71255 0.29612 0.0
H12 H 0.13669 0.68049 0.28706 0.0
H13 H 1.00334 0.603 0.29714 0.0
H14 H 0.03035 0.67197 0.20176 0.0
H15 H 0.09627 0.68301 0.25285 0.0
H16 H 0.03445 0.66139 0.30319 0.0
O17 O 0.13774 0.81729 0.2485 0.0
H18 H 0.07995 0.79007 0.15966 0.0
H19 H 0.13184 0.86353 0.2286 0.0
H20 H 0.99946 0.61372 0.19454 0.0
H21 H 0.12782 0.74108 0.35693 0.0
H22 H 0.98576 0.57882 0.24248 0.0
H23 H 0.15268 0.70966 0.33952 0.0
O24 O 0.02709 0.7184 0.2295 0.0
H25 H 0.08908 0.84249 0.33537 0.0
H26 H 0.05153 0.82103 0.22209 0.0
H27 H 0.0334 0.84919 0.25813 0.0
H28 H 0.05223 0.86011 0.31521 0.0
H29 H 0.10637 0.81415 0.29859 0.0
H30 H 0.14734 0.90402 0.18614 0.0
H31 H 0.1286 0.88719 0.12965 0.0
O32 O 0.04876 0.76846 0.21126 0.0
C33 C 0.10081 0.74054 0.19883 0.0
C34 C 0.10286 0.83739 0.14105 0.0
C35 C 0.13247 0.87907 0.18013 0.0
N36 N 0.10478 0.82452 0.19663 0.0
C37 C 0.09452 0.81504 0.1656 0.0
C38 C 0.12367 0.85605 0.20405 0.0
C39 C 0.12194 0.86961 0.14843 0.0
C40 C 0.09816 0.72914 0.31429 0.0
N41 N 0.0895 0.71303 0.28548 0.0
C42 C 0.12098 0.72819 0.33417 0.0
C43 C 0.13495 0.71059 0.32437 0.0
C44 C 0.126 0.69423 0.29493 0.0
C45 C 0.10314 0.69578 0.27564 0.0
C46 C 0.00928 0.61795 0.27606 0.0
C47 C 0.02477 0.65692 0.22268 0.0
C48 C 0.02686 0.65101 0.27934 0.0
N49 N 0.0346 0.67001 0.2528 0.0
C50 C 1.00714 0.62396 0.21847 0.0
C51 C 0.99942 0.6044 0.24538 0.0
C52 C 0.0259 0.73964 0.21263 0.0
C53 C 0.0808 0.83798 0.31051 0.0
C54 C 0.05979 0.82567 0.24691 0.0
C55 C 0.04949 0.84167 0.26718 0.0
C56 C 0.06008 0.84781 0.2992 0.0
N57 N 0.08013 0.81612 0.25818 0.0
C58 C 0.09063 0.82207 0.28954 0.0
Co59 Co 0.30481 0.35118 0.2527 0.0
Co60 Co 0.2407 0.27565 0.24034 0.0
O61 O 0.27941 0.31315 0.22658 0.0
C62 C 0.28574 0.3719 0.19468 0.0
O63 O 0.25658 0.35008 0.20168 0.0
C64 C 0.28524 0.25328 0.22222 0.0
O65 O 0.30639 0.2772 0.23979 0.0
O66 O 0.26035 0.2752 0.28244 0.0
O67 O 0.30124 0.3249 0.29125 0.0
H68 H 0.15259 0.20909 0.31686 0.0
H69 H 0.3288 0.34263 0.18981 0.0
O70 O 0.30851 0.37734 0.21394 0.0
H71 H 0.40847 0.35372 0.27104 0.0
H72 H 0.39526 0.46264 0.2713 0.0
H73 H 0.30162 0.37156 0.31953 0.0
H74 H 0.36148 0.35699 0.28724 0.0
H75 H 0.36266 0.41345 0.23963 0.0
O76 O 0.25676 0.24812 0.22035 0.0
H77 H 0.20138 0.25708 0.29938 0.0
H78 H 0.19772 0.21275 0.20953 0.0
H79 H 0.33368 0.4202 0.35217 0.0
H80 H 0.37556 0.3395 0.17252 0.0
H81 H 0.38088 0.46616 0.32804 0.0
H82 H 0.41573 0.34492 0.2133 0.0
O83 O 0.26636 0.35249 0.26658 0.0
H84 H 0.23628 0.28241 0.11942 0.0
H85 H 0.17944 0.27121 0.22112 0.0
H86 H 0.15472 0.27246 0.1693 0.0
H87 H 0.18314 0.27795 0.11796 0.0
H88 H 0.2603 0.28151 0.17179 0.0
H89 H 0.14901 0.16416 0.2261 0.0
H90 H 0.12608 0.16218 0.28008 0.0
O91 O 0.22465 0.30293 0.26047 0.0
C92 C 0.28327 0.29603 0.29965 0.0
C93 C 0.16231 0.20969 0.29325 0.0
C94 C 0.16032 0.18446 0.24232 0.0
N95 N 0.20224 0.23775 0.25342 0.0
C96 C 0.18987 0.23682 0.2832 0.0
C97 C 0.18794 0.21199 0.23311 0.0
C98 C 0.14746 0.18337 0.27261 0.0
C99 C 0.34633 0.34534 0.20767 0.0
N100 N 0.34244 0.35006 0.23951 0.0
C101 C 0.3727 0.34342 0.19774 0.0
C102 C 0.3952 0.34641 0.22064 0.0
C103 C 0.39113 0.35132 0.25305 0.0
C104 C 0.36443 0.35306 0.26209 0.0
C105 C 0.37478 0.44275 0.2821 0.0
C106 C 0.32225 0.39141 0.30896 0.0
C107 C 0.35621 0.41488 0.26427 0.0
N108 N 0.33045 0.38961 0.27784 0.0
C109 C 0.34025 0.41891 0.32751 0.0
C110 C 0.36671 0.4447 0.31394 0.0
C111 C 0.23685 0.33215 0.26917 0.0
C112 C 0.22358 0.27982 0.14161 0.0
C113 C 0.192 0.27374 0.19889 0.0
C114 C 0.17786 0.27434 0.16961 0.0
C115 C 0.19379 0.27738 0.14082 0.0
N116 N 0.22117 0.27603 0.19945 0.0
C117 C 0.23702 0.27919 0.17133 0.0
Co118 Co 0.70708 1.00007 0.25667 0.0
Co119 Co 0.74806 0.96473 0.22696 0.0
O120 O 0.7278 0.97503 0.26147 0.0
C121 C 0.75643 0.03244 0.3062 0.0
O122 O 0.77534 0.02808 0.28712 0.0
C123 C 0.69914 0.90279 0.2536 0.0
O124 O 0.67904 0.91289 0.24849 0.0
O125 O 0.71086 0.95155 0.19757 0.0
O126 O 0.68702 0.97827 0.21498 0.0
H127 H 0.78329 0.96425 0.11322 0.0
H128 H 0.70022 0.96543 0.31764 0.0
O129 O 0.72773 0.02287 0.2979 0.0
H130 H 0.59134 0.92177 0.27445 0.0
H131 H 0.64908 0.05422 0.2982 0.0
H132 H 0.696 0.03334 0.20255 0.0
H133 H 0.637 0.96442 0.24572 0.0
H134 H 0.67481 0.02167 0.30265 0.0
O135 O 0.7281 0.91998 0.24495 0.0
H136 H 0.75825 0.97842 0.15692 0.0
H137 H 0.78008 0.92626 0.22421 0.0
H138 H 0.67031 0.0658 0.19695 0.0
H139 H 0.65525 0.9229 0.34723 0.0
H140 H 0.64661 0.07642 0.24501 0.0
H141 H 0.60035 0.90074 0.32559 0.0
O142 O 0.74345 0.03325 0.23244 0.0
H143 H 0.80304 0.96813 0.33151 0.0
H144 H 0.81784 1.00711 0.21957 0.0
H145 H 0.86456 0.02506 0.25544 0.0
H146 H 0.85731 1.00549 0.31183 0.0
H147 H 0.75695 0.95111 0.29499 0.0
H148 H 0.80516 0.91131 0.1812 0.0
H149 H 0.80697 0.93046 0.12526 0.0
O150 O 0.76803 0.00962 0.20909 0.0
C151 C 0.69018 0.96023 0.19466 0.0
C152 C 0.78275 0.95585 0.13752 0.0
C153 C 0.79498 0.9261 0.17566 0.0
N154 N 0.76798 0.9534 0.19309 0.0
C155 C 0.7687 0.96388 0.16237 0.0
C156 C 0.7807 0.93458 0.19989 0.0
C157 C 0.796 0.93686 0.14428 0.0
C158 C 0.67637 0.95612 0.30825 0.0
N159 N 0.67121 0.96752 0.28011 0.0
C160 C 0.65101 0.93195 0.32503 0.0
C161 C 0.62022 0.91949 0.31285 0.0
C162 C 0.61515 0.93127 0.28415 0.0
C163 C 0.64109 0.95539 0.26797 0.0
C164 C 0.65922 0.04967 0.27706 0.0
C165 C 0.6855 0.03763 0.22351 0.0
C166 C 0.67384 0.03129 0.27944 0.0
N167 N 0.68654 0.02531 0.2528 0.0
C168 C 0.6711 0.05613 0.22022 0.0
C169 C 0.65784 0.06212 0.24721 0.0
C170 C 0.76436 0.03375 0.21368 0.0
C171 C 0.80652 0.97672 0.30695 0.0
C172 C 0.81448 0.99857 0.24411 0.0
C173 C 0.84104 0.00875 0.26428 0.0
C174 C 0.83695 0.99774 0.29591 0.0
N175 N 0.78471 0.97795 0.25511 0.0
C176 C 0.78051 0.96704 0.2861 0.0
Co177 Co 0.06547 0.34424 0.75094 0.0
Co178 Co 0.09302 0.29358 0.73012 0.0
O179 O 0.08574 0.3195 0.76083 0.0
C180 C 0.02559 0.29696 0.79835 0.0
O181 O 0.02881 0.27661 0.7802 0.0
C182 C 0.15641 0.34209 0.7542 0.0
O183 O 0.14757 0.36288 0.74752 0.0
O184 O 0.1081 0.32739 0.69714 0.0
O185 O 0.0916 0.36155 0.71119 0.0
H186 H 0.0878 0.24365 0.62196 0.0
H187 H 0.09363 0.34906 0.81603 0.0
O188 O 0.03846 0.3261 0.79026 0.0
H189 H 0.15093 0.45751 0.77194 0.0
H190 H 0.0187 0.41262 0.78055 0.0
H191 H 0.04126 0.3593 0.69149 0.0
H192 H 0.10808 0.41356 0.74037 0.0
H193 H 0.04521 0.38158 0.79139 0.0
O194 O 0.13764 0.31259 0.74806 0.0
H195 H 0.07739 0.27581 0.66094 0.0
H196 H 0.12687 0.25693 0.73448 0.0
H197 H 0.01496 0.3903 0.67951 0.0
H198 H 0.13618 0.39232 0.8485 0.0
H199 H 1.00351 0.41722 0.72424 0.0
H200 H 0.1652 0.447 0.82643 0.0
O201 O 0.03199 0.30925 0.72448 0.0
H202 H 0.08729 0.24956 0.84113 0.0
H203 H 0.04654 0.22406 0.72908 0.0
H204 H 0.02624 0.18153 0.76972 0.0
H205 H 0.04671 0.19417 0.82619 0.0
H206 H 0.10665 0.29143 0.79983 0.0
H207 H 0.13805 0.22475 0.69623 0.0
H208 H 0.11835 0.21786 0.63955 0.0
O209 O 0.04852 0.27486 0.71181 0.0
C210 C 0.10585 0.35207 0.69221 0.0
C211 C 0.09641 0.24638 0.64662 0.0
C212 C 0.12466 0.23581 0.68829 0.0
N213 N 0.10128 0.268 0.69999 0.0
C214 C 0.09049 0.26447 0.66882 0.0
C215 C 0.11831 0.25411 0.70982 0.0
C216 C 0.11358 0.23195 0.6565 0.0
C217 C 0.10595 0.37285 0.80639 0.0
N218 N 0.09825 0.37884 0.77645 0.0
C219 C 0.13011 0.39722 0.82483 0.0
C220 C 0.14641 0.42788 0.81241 0.0
C221 C 0.13842 0.4338 0.78184 0.0
C222 C 0.11417 0.40882 0.76407 0.0
C223 C 0.02363 0.40106 0.76085 0.0
C224 C 0.03657 0.37115 0.71105 0.0
C225 C 0.03858 0.38342 0.76685 0.0
N226 N 0.04502 0.3689 0.74206 0.0
C227 C 0.02158 0.38858 0.70413 0.0
C228 C 0.01512 0.40364 0.72925 0.0
C229 C 0.028 0.28402 0.71061 0.0
C230 C 0.0783 0.24373 0.81658 0.0
C231 C 0.05549 0.22975 0.75362 0.0
C232 C 0.04396 0.20556 0.77651 0.0
C233 C 0.05548 0.21267 0.80819 0.0
N234 N 0.07791 0.26015 0.76203 0.0
C235 C 0.08926 0.26731 0.79305 0.0
Co236 Co 0.69595 0.69996 0.75702 0.0
Co237 Co 0.73437 0.7762 0.72697 0.0
O238 O 0.71594 0.74579 0.7617 0.0
C239 C 0.74893 0.71944 0.80232 0.0
O240 O 0.76569 0.74169 0.7814 0.0
C241 C 0.68464 0.78657 0.75572 0.0
O242 O 0.6656 0.75594 0.75126 0.0
O243 O 0.69674 0.75063 0.69857 0.0
O244 O 0.673 0.70041 0.71693 0.0
H245 H 0.76576 0.8114 0.61253 0.0
H246 H 0.69212 0.72819 0.81937 0.0
O247 O 0.71972 0.69944 0.79659 0.0
H248 H 0.58116 0.65984 0.7829 0.0
H249 H 0.64331 0.58842 0.79972 0.0
H250 H 0.68213 0.65489 0.70243 0.0
H251 H 0.62541 0.66369 0.75066 0.0
H252 H 0.66807 0.64676 0.80389 0.0
O253 O 0.71333 0.7996 0.7459 0.0
H254 H 0.74311 0.77243 0.65655 0.0
H255 H 0.76382 0.84656 0.72407 0.0
H256 H 0.65731 0.59666 0.6971 0.0
H257 H 0.64861 0.72495 0.85242 0.0
H258 H 0.63769 0.56301 0.74599 0.0
H259 H 0.59266 0.69064 0.83417 0.0
O260 O 0.73099 0.70374 0.72989 0.0
H261 H 0.79093 0.83064 0.83029 0.0
H262 H 0.80419 0.8063 0.7176 0.0
H263 H 0.85155 0.83726 0.75222 0.0
H264 H 0.84507 0.8497 0.80898 0.0
H265 H 0.74421 0.79932 0.79503 0.0
H266 H 0.78651 0.88634 0.68074 0.0
H267 H 0.78768 0.86882 0.62453 0.0
O268 O 0.75536 0.75261 0.70816 0.0
C269 C 0.67567 0.72123 0.69648 0.0
C270 C 0.76549 0.81935 0.63694 0.0
C271 C 0.7771 0.8614 0.67522 0.0
N272 N 0.75243 0.80728 0.69285 0.0
C273 C 0.7528 0.7974 0.66198 0.0
C274 C 0.76417 0.83878 0.69963 0.0
C275 C 0.77775 0.85155 0.64369 0.0
C276 C 0.66782 0.71297 0.81144 0.0
N277 N 0.66129 0.69598 0.78324 0.0
C278 C 0.64329 0.71133 0.83018 0.0
C279 C 0.6119 0.69211 0.8199 0.0
C280 C 0.60543 0.67484 0.79113 0.0
C281 C 0.63058 0.67713 0.77296 0.0
C282 C 0.65167 0.60282 0.77823 0.0
C283 C 0.6734 0.64038 0.72377 0.0
C284 C 0.66574 0.63584 0.78045 0.0
N285 N 0.67619 0.65414 0.75338 0.0
C286 C 0.65949 0.60743 0.72062 0.0
C287 C 0.64852 0.58857 0.74807 0.0
C288 C 0.75169 0.72469 0.71143 0.0
C289 C 0.79406 0.82549 0.80556 0.0
C290 C 0.80118 0.8115 0.74231 0.0
C291 C 0.82808 0.82911 0.76177 0.0
C292 C 0.82443 0.83612 0.7936 0.0
N293 N 0.77147 0.80118 0.75421 0.0
C294 C 0.76769 0.80788 0.78542 0.0
Co295 Co 0.30396 0.95446 0.75345 0.0
Co296 Co 0.24476 0.97289 0.7432 0.0
O297 O 0.28163 0.97117 0.72856 0.0
C298 C 0.28572 0.91947 0.69218 0.0
O299 O 0.25669 0.91255 0.69919 0.0
C300 C 0.29221 0.03902 0.725 0.0
O301 O 0.31223 0.03541 0.74341 0.0
O302 O 0.26638 0.99296 0.78464 0.0
O303 O 0.29936 0.97393 0.79444 0.0
H304 H 0.16116 0.95929 0.82241 0.0
H305 H 0.33326 0.99191 0.69428 0.0
O306 O 0.30824 0.93482 0.71251 0.0
H307 H 0.40875 0.05082 0.78292 0.0
H308 H 0.38953 0.92643 0.76993 0.0
H309 H 0.29524 0.92339 0.81709 0.0
H310 H 0.35921 1.00063 0.79362 0.0
H311 H 0.3607 0.94832 0.74024 0.0
O312 O 0.26325 0.01654 0.72284 0.0
H313 H 0.20741 0.95596 0.80349 0.0
H314 H 0.20431 0.99617 0.7136 0.0
H315 H 0.32347 0.90146 0.84774 0.0
H316 H 0.3826 0.04184 0.68249 0.0
H317 H 0.371 0.90292 0.82415 0.0
H318 H 0.4207 0.07172 0.72701 0.0
O319 O 0.26369 0.91501 0.76307 0.0
H320 H 0.23611 0.96036 0.6223 0.0
H321 H 0.18113 0.91823 0.72548 0.0
H322 H 0.15388 0.89268 0.67422 0.0
H323 H 0.18134 0.91389 0.62214 0.0
H324 H 0.26272 0.98477 0.67412 0.0
H325 H 0.15818 1.00019 0.73162 0.0
H326 H 0.13625 0.98154 0.78634 0.0
O327 O 0.22613 0.92914 0.76369 0.0
C328 C 0.28547 0.98922 0.80287 0.0
C329 C 0.17043 0.96738 0.79847 0.0
C330 C 0.16878 0.99038 0.74752 0.0
N331 N 0.2083 0.97557 0.75738 0.0
C332 C 0.19653 0.96545 0.78759 0.0
C333 C 0.19493 0.9881 0.73747 0.0
C334 C 0.15648 0.9799 0.77823 0.0
C335 C 0.34988 1.00456 0.71373 0.0
N336 N 0.34344 0.99325 0.74457 0.0
C337 C 0.37771 0.03291 0.70693 0.0
C338 C 0.39905 0.04969 0.73193 0.0
C339 C 0.39235 0.03799 0.76331 0.0
C340 C 0.36424 0.00959 0.76923 0.0
C341 C 0.36892 0.92575 0.78051 0.0
C342 C 0.31605 0.92434 0.8068 0.0
C343 C 0.35249 0.93806 0.7638 0.0
N344 N 0.32657 0.93746 0.77712 0.0
C345 C 0.33187 0.91178 0.82421 0.0
C346 C 0.35851 0.91257 0.81094 0.0
C347 C 0.23545 0.90898 0.76855 0.0
C348 C 0.22383 0.95101 0.64482 0.0
C349 C 0.19333 0.92743 0.70292 0.0
C350 C 0.17773 0.91295 0.67397 0.0
C351 C 0.19313 0.92489 0.64476 0.0
N352 N 0.22341 0.95309 0.70278 0.0
C353 C 0.23874 0.9648 0.67424 0.0
Co354 Co 0.72558 0.06085 0.58686 0.0
Co355 Co 0.7556 0.1405 0.57099 0.0
O356 O 0.74618 0.10538 0.59966 0.0
C357 C 0.68405 0.06605 0.63423 0.0
O358 O 0.68838 0.0909 0.61782 0.0
C359 C 0.81749 0.15265 0.5966 0.0
O360 O 0.80748 0.12279 0.58936 0.0
O361 O 0.77135 0.12304 0.53714 0.0
O362 O 0.75335 0.07148 0.54815 0.0
H363 H 0.75572 0.1917 0.4657 0.0
H364 H 0.75099 0.08015 0.65362 0.0
O365 O 0.69696 0.05009 0.62514 0.0
H366 H 0.8086 0.03003 0.60748 0.0
H367 H 0.67569 0.94382 0.60876 0.0
H368 H 0.7034 0.02505 0.52485 0.0
H369 H 0.76761 0.03367 0.57541 0.0
H370 H 0.7026 1.00078 0.62344 0.0
O371 O 0.79973 0.1645 0.59066 0.0
H372 H 0.74295 0.14677 0.50191 0.0
H373 H 0.79055 0.21078 0.57988 0.0
H374 H 0.67675 0.96841 0.50906 0.0
H375 H 0.79163 0.07683 0.68662 0.0
H376 H 0.66271 0.92734 0.55118 0.0
H377 H 0.82082 0.05171 0.66351 0.0
O378 O 0.69373 0.06458 0.55997 0.0
H379 H 0.74593 0.17266 0.68406 0.0
H380 H 0.71028 0.16481 0.5708 0.0
H381 H 0.68877 0.18504 0.61255 0.0
H382 H 0.70663 0.18909 0.66964 0.0
H383 H 0.76662 0.15232 0.6416 0.0
H384 H 0.80405 0.25646 0.54445 0.0
H385 H 0.78649 0.24702 0.48695 0.0
O386 O 0.71185 0.11642 0.55059 0.0
C387 C 0.7687 0.09613 0.5307 0.0
C388 C 0.76341 0.19611 0.49074 0.0
C389 C 0.79059 0.23246 0.53493 0.0
N390 N 0.76579 0.17617 0.54301 0.0
C391 C 0.75617 0.17077 0.51138 0.0
C392 C 0.78294 0.20653 0.55485 0.0
C393 C 0.78071 0.22715 0.50267 0.0
C394 C 0.76336 0.0689 0.64352 0.0
N395 N 0.7568 0.05692 0.61272 0.0
C396 C 0.78645 0.06721 0.66227 0.0
C397 C 0.80285 0.05315 0.64927 0.0
C398 C 0.79601 0.04099 0.61783 0.0
C399 C 0.77281 0.04315 0.59978 0.0
C400 C 0.68175 0.96149 0.59018 0.0
C401 C 0.69757 1.00734 0.54329 0.0
C402 C 0.69692 0.99376 0.59836 0.0
N403 N 0.70479 0.0162 0.57499 0.0
C404 C 0.68239 0.97529 0.53421 0.0
C405 C 0.67448 0.95226 0.55787 0.0
C406 C 0.691 0.08693 0.54719 0.0
C407 C 0.73807 0.17114 0.65925 0.0
C408 C 0.71815 0.1665 0.5956 0.0
C409 C 0.70593 0.17801 0.61912 0.0
C410 C 0.71598 0.1803 0.65115 0.0
N411 N 0.73984 0.15761 0.60374 0.0
C412 C 0.7498 0.15976 0.63508 0.0
Co413 Co 0.96318 0.68571 0.57978 0.0
Co414 Co 0.90614 0.6063 0.57602 0.0
O415 O 0.94025 0.6449 0.55742 0.0
C416 C 0.93822 0.69774 0.52041 0.0
O417 O 0.91042 0.67433 0.52914 0.0
C418 C 0.95395 0.58977 0.55338 0.0
O419 O 0.9749 0.61525 0.56926 0.0
O420 O 0.93202 0.61187 0.61553 0.0
O421 O 0.96373 0.66484 0.62104 0.0
H422 H 0.83201 0.53937 0.66353 0.0
H423 H 0.98808 0.67597 0.5181 0.0
O424 O 0.96242 0.70679 0.53878 0.0
H425 H 0.07256 0.70172 0.59914 0.0
H426 H 0.04585 0.80173 0.58776 0.0
H427 H 0.95844 0.71095 0.64363 0.0
H428 H 0.02289 0.70012 0.61456 0.0
H429 H 0.01662 0.74908 0.56114 0.0
O430 O 0.92451 0.58148 0.55451 0.0
H431 H 0.87464 0.58871 0.63968 0.0
H432 H 0.86577 0.54007 0.55128 0.0
H433 H 0.98719 0.76309 0.67127 0.0
H434 H 0.03746 0.67757 0.5016 0.0
H435 H 0.03126 0.80893 0.64329 0.0
H436 H 0.08008 0.69041 0.54229 0.0
O437 O 0.923 0.68319 0.59292 0.0
H438 H 0.88585 0.60105 0.45626 0.0
H439 H 0.83992 0.59258 0.56414 0.0
H440 H 0.80739 0.58573 0.51552 0.0
H441 H 0.83029 0.58976 0.4611 0.0
H442 H 0.91776 0.60844 0.50548 0.0
H443 H 0.82322 0.49014 0.57423 0.0
H444 H 0.80601 0.48963 0.63071 0.0
O445 O 0.88747 0.63102 0.59742 0.0
C446 C 0.95203 0.63648 0.6314 0.0
C447 C 0.83923 0.53932 0.63886 0.0
C448 C 0.83433 0.51167 0.58875 0.0
N449 N 0.87245 0.56729 0.59406 0.0
C450 C 0.86327 0.56719 0.6252 0.0
C451 C 0.85846 0.53999 0.5759 0.0
C452 C 0.82467 0.51141 0.62044 0.0
C453 C 1.00666 0.68194 0.53588 0.0
N454 N 1.00268 0.68812 0.56722 0.0
C455 C 0.03451 0.68266 0.52642 0.0
C456 C 0.05839 0.68981 0.54928 0.0
C457 C 0.05417 0.69613 0.58118 0.0
C458 C 0.02598 0.69512 0.58978 0.0
C459 C 0.02678 0.78191 0.60025 0.0
C460 C 0.97779 0.73072 0.63144 0.0
C461 C 0.01014 0.75207 0.5853 0.0
N462 N 0.98617 0.72689 0.60102 0.0
C463 C 0.99388 0.76022 0.64715 0.0
C464 C 0.01858 0.78594 0.63141 0.0
C465 C 0.89579 0.66048 0.60086 0.0
C466 C 0.87556 0.59909 0.47984 0.0
C467 C 0.85014 0.59464 0.54054 0.0
C468 C 0.83156 0.5906 0.5131 0.0
C469 C 0.84441 0.59283 0.48257 0.0
N470 N 0.88065 0.60071 0.53766 0.0
C471 C 0.89348 0.60314 0.50781 0.0
Co472 Co 0.35133 0.28945 0.58391 0.0
Co473 Co 0.42912 0.30787 0.57778 0.0
O474 O 0.39111 0.30637 0.56076 0.0
C475 C 0.33576 0.25733 0.5208 0.0
O476 O 0.35796 0.25028 0.52725 0.0
C477 C 0.44876 0.37377 0.55841 0.0
O478 O 0.42502 0.37036 0.57616 0.0
O479 O 0.42669 0.32853 0.61824 0.0
O480 O 0.3742 0.30735 0.62606 0.0
H481 H 0.49643 0.29448 0.66182 0.0
H482 H 0.36196 0.32912 0.52582 0.0
O483 O 0.32827 0.2715 0.54196 0.0
H484 H 0.34364 0.38563 0.61483 0.0
H485 H 0.23768 0.26244 0.59629 0.0
H486 H 0.32679 0.25629 0.64612 0.0
H487 H 0.34178 0.33471 0.62457 0.0
H488 H 0.2892 0.28479 0.56867 0.0
O489 O 0.45514 0.35124 0.55708 0.0
H490 H 0.4476 0.29135 0.64001 0.0
H491 H 0.49359 0.33039 0.55119 0.0
H492 H 0.27578 0.23384 0.6747 0.0
H493 H 0.36378 0.37983 0.51498 0.0
H494 H 0.23078 0.23687 0.64976 0.0
H495 H 0.3547 0.40851 0.5597 0.0
O496 O 0.35131 0.24942 0.5927 0.0
H497 H 0.42915 0.29407 0.45731 0.0
H498 H 0.43756 0.2525 0.56317 0.0
H499 H 0.44054 0.22621 0.51326 0.0
H500 H 0.43651 0.24713 0.45985 0.0
H501 H 0.42555 0.31917 0.5078 0.0
H502 H 0.54302 0.3342 0.57211 0.0
H503 H 0.54459 0.31604 0.62776 0.0
O504 O 0.40301 0.26443 0.59874 0.0
C505 C 0.40312 0.3235 0.63561 0.0
C506 C 0.496 0.30235 0.63749 0.0
C507 C 0.52217 0.32469 0.58715 0.0
N508 N 0.46769 0.31039 0.59428 0.0
C509 C 0.4684 0.30054 0.62498 0.0
C510 C 0.49415 0.32253 0.57546 0.0
C511 C 0.52303 0.31449 0.61838 0.0
C512 C 0.35759 0.34124 0.54534 0.0
N513 N 0.35157 0.32885 0.57576 0.0
C514 C 0.35881 0.37003 0.53908 0.0
C515 C 0.35378 0.38615 0.5642 0.0
C516 C 0.3476 0.37334 0.59514 0.0
C517 C 0.34663 0.34452 0.60052 0.0
C518 C 0.25714 0.26106 0.60745 0.0
C519 C 0.3074 0.2579 0.63524 0.0
C520 C 0.28634 0.27363 0.59191 0.0
N521 N 0.31106 0.27214 0.60596 0.0
C522 C 0.27853 0.24505 0.65148 0.0
C523 C 0.25329 0.24672 0.63745 0.0
C524 C 0.37329 0.24385 0.60124 0.0
C525 C 0.43107 0.28482 0.48044 0.0
C526 C 0.43549 0.26155 0.54002 0.0
C527 C 0.43734 0.24666 0.51184 0.0
C528 C 0.43512 0.25843 0.48188 0.0
N529 N 0.43155 0.28744 0.5384 0.0
C530 C 0.42917 0.29901 0.50912 0.0
Co531 Co 0.76812 0.68916 0.086 0.0
Co532 Co 0.75017 0.61107 0.0807 0.0
O533 O 0.75226 0.64896 0.06296 0.0
C534 C 0.80517 0.70317 0.02691 0.0
O535 O 0.81201 0.68158 0.03651 0.0
C536 C 0.68513 0.5921 0.05892 0.0
O537 O 0.68872 0.61672 0.07561 0.0
O538 O 0.72957 0.61469 0.12046 0.0
O539 O 0.74686 0.66693 0.12683 0.0
H540 H 0.76269 0.54534 0.16657 0.0
H541 H 0.73316 0.67828 0.02378 0.0
O542 O 0.78942 0.7113 0.04519 0.0
H543 H 0.67128 0.69919 0.10408 0.0
H544 H 0.79622 0.8036 0.09515 0.0
H545 H 0.79645 0.71421 0.15076 0.0
H546 H 0.72071 0.70021 0.12015 0.0
H547 H 0.77531 0.75158 0.06778 0.0
O548 O 0.70709 0.58498 0.05934 0.0
H549 H 0.76641 0.5939 0.14376 0.0
H550 H 0.727 0.54574 0.0548 0.0
H551 H 0.81735 0.76572 0.17915 0.0
H552 H 0.68404 0.67728 0.00664 0.0
H553 H 0.81729 0.81085 0.1513 0.0
H554 H 0.65267 0.68768 0.04695 0.0
O555 O 0.80696 0.68874 0.0998 0.0
H556 H 0.76378 0.60811 0.96065 0.0
H557 H 0.80482 0.60116 0.06779 0.0
H558 H 0.83065 0.59641 0.01868 0.0
H559 H 0.80996 0.59964 0.96462 0.0
H560 H 0.73917 0.61353 0.01036 0.0
H561 H 0.7226 0.49656 0.0767 0.0
H562 H 0.74064 0.49622 0.13293 0.0
O563 O 0.79338 0.63717 0.10198 0.0
C564 C 0.73187 0.6382 0.13657 0.0
C565 C 0.75486 0.54523 0.14199 0.0
C566 C 0.73231 0.51783 0.09157 0.0
N567 N 0.7472 0.57269 0.09792 0.0
C568 C 0.757 0.57267 0.12893 0.0
C569 C 0.7348 0.54571 0.07932 0.0
C570 C 0.74245 0.51766 0.12312 0.0
C571 C 0.71987 0.6832 0.0414 0.0
N572 N 0.72992 0.6895 0.07289 0.0
C573 C 0.69198 0.68246 0.03158 0.0
C574 C 0.67435 0.68823 0.05422 0.0
C575 C 0.68477 0.69466 0.08628 0.0
C576 C 0.71274 0.69515 0.09525 0.0
C577 C 0.79628 0.78409 0.10758 0.0
C578 C 0.79613 0.73368 0.1386 0.0
C579 C 0.78453 0.75461 0.09219 0.0
N580 N 0.78435 0.72983 0.10782 0.0
C581 C 0.8081 0.76281 0.15474 0.0
C582 C 0.8081 0.78814 0.13909 0.0
C583 C 0.81311 0.66683 0.10665 0.0
C584 C 0.77289 0.60648 0.98407 0.0
C585 C 0.79588 0.6029 0.04436 0.0
C586 C 0.81051 0.60005 0.01664 0.0
C587 C 0.79886 0.60181 0.98631 0.0
N588 N 0.77037 0.6074 0.04195 0.0
C589 C 0.759 0.60944 0.01231 0.0
Co590 Co 0.33887 0.04924 0.09372 0.0
Co591 Co 0.41339 0.11224 0.07771 0.0
O592 O 0.37547 0.07257 0.0664 0.0
C593 C 0.31557 0.06128 0.03289 0.0
O594 O 0.33518 0.09165 0.03836 0.0
C595 C 0.43476 0.06655 0.06183 0.0
O596 O 0.41316 0.04768 0.08237 0.0
O597 O 0.41658 0.09559 0.12046 0.0
O598 O 0.36679 0.057 0.13243 0.0
H599 H 0.4847 0.20554 0.14891 0.0
H600 H 0.34694 0.0201 0.03381 0.0
O601 O 0.31139 0.04102 0.05455 0.0
H602 H 0.33856 0.94847 0.12196 0.0
H603 H 0.22889 0.95958 0.11758 0.0
H604 H 0.32067 0.05842 0.15939 0.0
H605 H 0.33474 0.99628 0.13333 0.0
H606 H 0.27673 0.98963 0.08438 0.0
O607 O 0.43942 0.09464 0.05752 0.0
H608 H 0.43577 0.15552 0.13474 0.0
H609 H 0.47393 0.15314 0.04347 0.0
H610 H 0.27341 0.02901 0.19351 0.0
H611 H 0.35055 0.97241 0.02132 0.0
H612 H 0.2271 0.97919 0.17262 0.0
H613 H 0.3465 0.93627 0.06559 0.0
O614 O 0.3374 0.08858 0.10394 0.0
H615 H 0.39617 0.10716 0.95743 0.0
H616 H 0.41644 0.17208 0.05615 0.0
H617 H 0.41018 0.19251 0.00377 0.0
H618 H 0.39993 0.15993 0.95396 0.0
H619 H 0.40252 0.08763 0.01026 0.0
H620 H 0.52341 0.20302 0.05672 0.0
H621 H 0.52895 0.22961 0.10973 0.0
O622 O 0.3873 0.12949 0.09813 0.0
C623 C 0.39624 0.07482 0.13935 0.0
C624 C 0.48253 0.19424 0.12569 0.0
C625 C 0.50428 0.1928 0.07396 0.0
N626 N 0.45195 0.15161 0.08823 0.0
C627 C 0.45485 0.16597 0.1175 0.0
C628 C 0.47625 0.16454 0.06662 0.0
C629 C 0.50736 0.20771 0.10371 0.0
C630 C 0.34473 1.00429 0.05317 0.0
N631 N 0.34042 0.01088 0.08426 0.0
C632 C 0.34696 0.9774 0.04596 0.0
C633 C 0.34475 0.95716 0.07082 0.0
C634 C 0.34031 0.964 0.10245 0.0
C635 C 0.33822 0.99114 0.10876 0.0
C636 C 0.24894 0.98122 0.12697 0.0
C637 C 0.30067 0.03666 0.15024 0.0
C638 C 0.27605 0.99836 0.10826 0.0
N639 N 0.30153 0.02559 0.12008 0.0
C640 C 0.27395 0.02016 0.16962 0.0
C641 C 0.24796 0.99223 0.15786 0.0
C642 C 0.35822 0.11807 0.10639 0.0
C643 C 0.40079 0.12164 0.97894 0.0
C644 C 0.41208 0.15782 0.03455 0.0
C645 C 0.40857 0.16951 0.00497 0.0
C646 C 0.40283 0.15122 0.97702 0.0
N647 N 0.41009 0.12881 0.03622 0.0
C648 C 0.40454 0.11077 0.00891 0.0
Co649 Co 0.96519 0.28804 0.08182 0.0
Co650 Co 0.9068 0.30816 0.07796 0.0
O651 O 0.94174 0.3051 0.05946 0.0
C652 C 0.9434 0.25333 0.02055 0.0
O653 O 0.91493 0.24746 0.02862 0.0
C654 C 0.9533 0.37301 0.05559 0.0
O655 O 0.97444 0.36962 0.07226 0.0
O656 O 0.93238 0.3294 0.11738 0.0
O657 O 0.96362 0.30788 0.12377 0.0
H658 H 0.8315 0.29867 0.1654 0.0
H659 H 0.99119 0.32497 0.0217 0.0
O660 O 0.9667 0.26799 0.04015 0.0
H661 H 0.07235 0.38352 0.10601 0.0
H662 H 0.05039 0.25852 0.09046 0.0
H663 H 0.9597 0.25687 0.14481 0.0
H664 H 0.02313 0.33388 0.11903 0.0
H665 H 0.02054 0.28101 0.06393 0.0
O666 O 0.92406 0.35112 0.05635 0.0
H667 H 0.87515 0.29363 0.14157 0.0
H668 H 0.86491 0.3319 0.05325 0.0
H669 H 0.98901 0.23434 0.17234 0.0
H670 H 0.04017 0.37433 0.00758 0.0
H671 H 0.03474 0.2351 0.14512 0.0
H672 H 0.08112 0.40403 0.04992 0.0
O673 O 0.92528 0.24905 0.09307 0.0
H674 H 0.88584 0.29267 0.95824 0.0
H675 H 0.84147 0.25369 0.0662 0.0
H676 H 0.80891 0.2273 0.01768 0.0
H677 H 0.83099 0.24697 0.96321 0.0
H678 H 0.91794 0.31773 0.00734 0.0
H679 H 0.82132 0.33761 0.07617 0.0
H680 H 0.80428 0.3208 0.1326 0.0
O681 O 0.88938 0.26492 0.09947 0.0
C682 C 0.95183 0.32462 0.13379 0.0
C683 C 0.83863 0.30596 0.14074 0.0
C684 C 0.83295 0.32787 0.09068 0.0
N685 N 0.87233 0.31219 0.09599 0.0
C686 C 0.86325 0.30307 0.1271 0.0
C687 C 0.85767 0.32464 0.07785 0.0
C688 C 0.82339 0.31842 0.12234 0.0
C689 C 0.00905 0.33753 0.04019 0.0
N690 N 1.00437 0.32644 0.07112 0.0
C691 C 0.03668 0.36557 0.03207 0.0
C692 C 0.05962 0.38225 0.05586 0.0
C693 C 0.0547 0.37077 0.08734 0.0
C694 C 0.02675 0.34268 0.09459 0.0
C695 C 0.03058 0.25815 0.10261 0.0
C696 C 0.97973 0.25752 0.13295 0.0
C697 C 0.01358 0.27081 0.0877 0.0
N698 N 0.98867 0.2706 0.10301 0.0
C699 C 0.99616 0.24462 0.14859 0.0
C700 C 0.02179 0.24501 0.13329 0.0
C701 C 0.89808 0.24399 0.10183 0.0
C702 C 0.87591 0.28396 0.98184 0.0
C703 C 0.8514 0.26212 0.04258 0.0
C704 C 0.83278 0.2472 0.01519 0.0
C705 C 0.84517 0.25827 0.98464 0.0
N706 N 0.88153 0.28734 0.03963 0.0
C707 C 0.89394 0.29814 0.00975 0.0
Co708 Co 0.39274 0.39166 0.92191 0.0
Co709 Co 0.43046 0.46702 0.88979 0.0
O710 O 0.42005 0.43743 0.92525 0.0
C711 C 0.36467 0.4125 0.97197 0.0
O712 O 0.36972 0.43584 0.95264 0.0
C713 C 0.49162 0.4772 0.91539 0.0
O714 O 0.47979 0.44655 0.91085 0.0
O715 O 0.44029 0.44035 0.86078 0.0
O716 O 0.41168 0.39057 0.87968 0.0
H717 H 0.42824 0.49968 0.77519 0.0
H718 H 0.43099 0.42023 0.98152 0.0
O719 O 0.37253 0.39211 0.96371 0.0
H720 H 0.46703 0.349 0.93846 0.0
H721 H 0.33544 0.2808 0.96655 0.0
H722 H 0.35494 0.34622 0.8694 0.0
H723 H 0.42441 0.35355 0.91079 0.0
H724 H 0.37085 0.33899 0.96925 0.0
O725 O 0.47567 0.49026 0.90651 0.0
H726 H 0.41397 0.46174 0.81999 0.0
H727 H 0.47192 0.53719 0.88482 0.0
H728 H 0.31959 0.28812 0.86553 0.0
H729 H 0.47359 0.41632 0.01003 0.0
H730 H 0.30964 0.255 0.91436 0.0
H731 H 0.49193 0.38057 0.98843 0.0
O732 O 0.35987 0.39638 0.8983 0.0
H733 H 0.43464 0.52394 0.99311 0.0
H734 H 0.39096 0.49762 0.88215 0.0
H735 H 0.37683 0.52955 0.91749 0.0
H736 H 0.39876 0.54294 0.9734 0.0
H737 H 0.44788 0.49179 0.95712 0.0
H738 H 0.48703 0.57595 0.84066 0.0
H739 H 0.46503 0.55725 0.78541 0.0
O740 O 0.38516 0.44358 0.87313 0.0
C741 C 0.42945 0.41045 0.8585 0.0
C742 C 0.4379 0.50814 0.79918 0.0
C743 C 0.47093 0.55094 0.83592 0.0
N744 N 0.4419 0.4973 0.85501 0.0
C745 C 0.42982 0.48678 0.82466 0.0
C746 C 0.46235 0.52889 0.86081 0.0
C747 C 0.45857 0.54043 0.80493 0.0
C748 C 0.43861 0.40436 0.97219 0.0
N749 N 0.42509 0.38697 0.94467 0.0
C750 C 0.46284 0.40235 0.98834 0.0
C751 C 0.47316 0.38233 0.97618 0.0
C752 C 0.4592 0.36462 0.94813 0.0
C753 C 0.4351 0.36731 0.93256 0.0
C754 C 0.33967 0.29496 0.94508 0.0
C755 C 0.35095 0.33194 0.89068 0.0
C756 C 0.35966 0.32791 0.94647 0.0
N757 N 0.36524 0.34591 0.91941 0.0
C758 C 0.33081 0.29907 0.88837 0.0
C759 C 0.32521 0.2805 0.91579 0.0
C760 C 0.36026 0.41678 0.87877 0.0
C761 C 0.42503 0.51836 0.96876 0.0
C762 C 0.40053 0.50328 0.90647 0.0
C763 C 0.39251 0.52143 0.92635 0.0
C764 C 0.40485 0.52896 0.9577 0.0
N765 N 0.42036 0.49298 0.91748 0.0
C766 C 0.43257 0.5003 0.9482 0.0
Co767 Co 0.62154 1.0041 0.9171 0.0
Co768 Co 0.56429 0.92502 0.91849 0.0
O769 O 0.59806 0.96207 0.89737 0.0
C770 C 0.59808 0.01253 0.85474 0.0
O771 O 0.57009 0.9893 0.86326 0.0
C772 C 0.61071 0.9066 0.89681 0.0
O773 O 0.63192 0.93227 0.91224 0.0
O774 O 0.59153 0.93247 0.95724 0.0
O775 O 0.62151 0.98576 0.96032 0.0
H776 H 0.49322 0.86401 0.01046 0.0
H777 H 0.64637 0.98978 0.85789 0.0
O778 O 0.62164 0.02283 0.87421 0.0
H779 H 0.73006 0.01953 0.94087 0.0
H780 H 0.70555 0.1199 0.91894 0.0
H781 H 0.61699 0.03355 0.97827 0.0
H782 H 0.68077 0.01984 0.95367 0.0
H783 H 0.67582 0.06577 0.89561 0.0
O784 O 0.58136 0.89863 0.89798 0.0
H785 H 0.5353 0.91153 0.98348 0.0
H786 H 0.52232 0.85768 0.89785 0.0
H787 H 0.64621 0.08724 0.00262 0.0
H788 H 0.69538 0.98942 0.844 0.0
H789 H 0.69086 0.13086 0.97289 0.0
H790 H 0.7376 1.00425 0.88568 0.0
O791 O 0.58155 1.00297 0.92821 0.0
H792 H 0.5387 0.91231 0.79952 0.0
H793 H 0.49818 0.91219 0.90846 0.0
H794 H 0.4637 0.90289 0.86086 0.0
H795 H 0.48388 0.90273 0.80592 0.0
H796 H 0.57264 0.92227 0.84769 0.0
H797 H 0.48026 0.80948 0.92396 0.0
H798 H 0.46539 0.81252 0.98064 0.0
O799 O 0.54721 0.95158 0.93908 0.0
C800 C 0.61082 0.95806 0.97216 0.0
C801 C 0.4994 0.86241 0.98572 0.0
C802 C 0.49216 0.8318 0.93718 0.0
N803 N 0.53101 0.8874 0.93905 0.0
C804 C 0.52313 0.88925 0.97029 0.0
C805 C 0.51602 0.85913 0.92254 0.0
C806 C 0.48382 0.83352 0.96898 0.0
C807 C 0.66479 0.99665 0.87606 0.0
N808 N 0.66078 1.00501 0.90651 0.0
C809 C 0.69243 0.99625 0.86809 0.0
C810 C 0.71608 1.00451 0.89151 0.0
C811 C 0.71185 0.01305 0.92249 0.0
C812 C 0.68386 0.01313 0.92961 0.0
C813 C 0.68621 0.10107 0.93218 0.0
C814 C 0.63656 0.05235 0.96532 0.0
C815 C 0.66928 0.07039 0.91908 0.0
N816 N 0.64497 0.04647 0.93577 0.0
C817 C 0.65294 0.08273 0.97917 0.0
C818 C 0.67796 0.1072 0.96246 0.0
C819 C 0.55526 0.98113 0.93932 0.0
C820 C 0.52961 0.91222 0.82334 0.0
C821 C 0.50724 0.91246 0.88461 0.0
C822 C 0.48755 0.90704 0.85776 0.0
C823 C 0.49887 0.90691 0.82695 0.0
N824 N 0.53735 0.91763 0.88088 0.0
C825 C 0.54867 0.9177 0.85073 0.0
Co826 Co 0.03989 0.6621 0.91765 0.0
Co827 Co 0.08098 0.62771 0.88694 0.0
O828 O 0.06015 0.63679 0.92147 0.0
C829 C 0.08674 0.69179 0.97008 0.0
O830 O 0.10842 0.69531 0.94919 0.0
C831 C 0.03181 0.5653 0.91188 0.0
O832 O 0.01174 0.57518 0.90551 0.0
O833 O 0.04416 0.61511 0.85708 0.0
O834 O 0.02234 0.64388 0.87406 0.0
H835 H 0.11826 0.63039 0.77346 0.0
H836 H 0.02887 0.62139 0.97501 0.0
O837 O 0.05785 0.68034 0.96123 0.0
H838 H 0.92293 0.58384 0.92655 0.0
H839 H 0.98047 0.71377 0.96176 0.0
H840 H 0.03194 0.69968 0.86585 0.0
H841 H 0.97058 0.62857 0.90255 0.0
H842 H 1.00561 0.68056 0.96437 0.0
O843 O 0.06101 0.58264 0.90409 0.0
H844 H 0.09229 0.64322 0.81731 0.0
H845 H 0.11342 0.58972 0.8835 0.0
H846 H 1.00691 0.73288 0.86208 0.0
H847 H 0.98187 0.57674 -0.00011 0.0
H848 H 0.98092 0.74009 0.91028 0.0
H849 H 0.92842 0.55761 0.97558 0.0
O850 O 0.0778 0.69689 0.8964 0.0
H851 H 0.13453 0.63099 0.99243 0.0
H852 H 0.15081 0.67036 0.88058 0.0
H853 H 0.19702 0.68859 0.91726 0.0
H854 H 0.18901 0.66886 0.97363 0.0
H855 H 0.089 0.61352 0.95503 0.0
H856 H 0.13944 0.57609 0.84032 0.0
H857 H 0.14207 0.5966 0.78487 0.0
O858 O 0.10079 0.67299 0.87025 0.0
C859 C 0.02495 0.6256 0.85359 0.0
C860 C 0.11736 0.62141 0.79755 0.0
C861 C 0.1292 0.59089 0.83507 0.0
N862 N 0.1016 0.61743 0.85294 0.0
C863 C 0.10278 0.62867 0.82248 0.0
C864 C 0.11439 0.59861 0.85939 0.0
C865 C 0.13069 0.60241 0.80396 0.0
C866 C 1.00566 0.61352 0.96455 0.0
N867 N 1.00244 0.62782 0.93758 0.0
C868 C 0.97915 0.58809 0.97864 0.0
C869 C 0.94918 0.57733 0.96495 0.0
C870 C 0.94608 0.59202 0.93743 0.0
C871 C 0.97314 0.61733 0.92394 0.0
C872 C 0.99164 0.71074 0.94057 0.0
C873 C 0.02048 0.70251 0.88686 0.0
C874 C 1.00595 0.69202 0.94192 0.0
N875 N 0.01992 0.68795 0.9152 0.0
C876 C 1.00644 0.72143 0.88461 0.0
C877 C 0.9919 0.7255 0.91168 0.0
C878 C 0.0981 0.69744 0.87662 0.0
C879 C 0.13834 0.63965 0.96788 0.0
C880 C 0.14715 0.66165 0.90506 0.0
C881 C 0.1734 0.67203 0.92571 0.0
C882 C 0.16889 0.66094 0.95733 0.0
N883 N 0.11726 0.64072 0.91556 0.0
C884 C 0.11265 0.62973 0.94654 0.0
Co885 Co 0.39591 1.0032 0.41742 0.0
Co886 Co 0.42911 0.95907 0.39058 0.0
O887 O 0.4206 0.98224 0.42364 0.0
C888 C 0.36384 0.95586 0.46785 0.0
O889 O 0.36797 0.93625 0.44941 0.0
C890 C 0.49174 0.01047 0.41347 0.0
O891 O 0.48075 0.02982 0.40828 0.0
O892 O 0.4398 0.9932 0.35846 0.0
O893 O 0.41757 0.02155 0.37571 0.0
H894 H 0.42205 0.9124 0.28011 0.0
H895 H 0.43098 0.01194 0.47906 0.0
O896 O 0.3733 0.98424 0.45881 0.0
H897 H 0.47524 0.11939 0.43367 0.0
H898 H 0.34278 0.06343 0.45533 0.0
H899 H 0.36338 0.01344 0.36174 0.0
H900 H 0.43198 0.07289 0.40531 0.0
H901 H 0.37475 0.03725 0.4617 0.0
O902 O 0.47465 0.98098 0.40625 0.0
H903 H 0.4103 0.94129 0.32187 0.0
H904 H 0.46848 0.92796 0.38962 0.0
H905 H 0.33152 0.03956 0.35422 0.0
H906 H 0.47412 0.05777 0.5083 0.0
H907 H 0.32103 0.0648 0.40125 0.0
H908 H 0.4966 0.11195 0.48554 0.0
O909 O 0.36226 0.96604 0.39333 0.0
H910 H 0.43293 0.91459 0.49891 0.0
H911 H 0.38726 0.88869 0.3887 0.0
H912 H 0.37214 0.8456 0.42807 0.0
H913 H 0.39507 0.85846 0.48362 0.0
H914 H 0.44713 0.95696 0.45892 0.0
H915 H 0.48106 0.8991 0.34851 0.0
H916 H 0.45767 0.89108 0.29333 0.0
O917 O 0.38361 0.93734 0.3748 0.0
C918 C 0.43302 0.01523 0.35502 0.0
C919 C 0.43232 0.91568 0.30408 0.0
C920 C 0.46549 0.90826 0.34246 0.0
N921 N 0.43858 0.93618 0.35817 0.0
C922 C 0.4257 0.93195 0.32785 0.0
C923 C 0.45836 0.92469 0.36561 0.0
C924 C 0.45234 0.90375 0.31151 0.0
C925 C 0.44042 0.03549 0.46918 0.0
N926 N 0.42884 0.03978 0.44063 0.0
C927 C 0.46494 0.06133 0.48577 0.0
C928 C 0.47757 0.09171 0.47296 0.0
C929 C 0.46561 0.0959 0.44385 0.0
C930 C 0.44114 0.06949 0.42789 0.0
C931 C 0.34724 0.05258 0.43465 0.0
C932 C 0.35911 0.02456 0.38227 0.0
C933 C 0.36527 0.03768 0.43812 0.0
N934 N 0.37112 0.02407 0.41207 0.0
C935 C 0.34096 0.03923 0.37789 0.0
C936 C 0.33506 0.05335 0.40429 0.0
C937 C 0.3605 0.94275 0.37727 0.0
C938 C 0.42288 0.90868 0.47475 0.0
C939 C 0.39729 0.89447 0.41284 0.0
C940 C 0.38869 0.86997 0.43501 0.0
C941 C 0.40159 0.87719 0.46617 0.0
N942 N 0.41821 0.92529 0.42143 0.0
C943 C 0.43095 0.93256 0.45194 0.0
Co944 Co 0.04364 0.38538 0.41803 0.0
Co945 Co 0.08404 0.46177 0.38852 0.0
O946 O 0.06393 0.4312 0.42293 0.0
C947 C 0.09294 0.40311 0.46784 0.0
O948 O 0.11176 0.42697 0.44939 0.0
C949 C 0.034 0.47316 0.41485 0.0
O950 O 0.0146 0.44269 0.40979 0.0
O951 O 0.04736 0.43686 0.35853 0.0
O952 O 0.02337 0.3866 0.37655 0.0
H953 H 0.12046 0.49755 0.27522 0.0
H954 H 0.03655 0.41321 0.47915 0.0
O955 O 0.06444 0.38363 0.45911 0.0
H956 H 0.92771 0.34647 0.4362 0.0
H957 H 0.9869 0.27316 0.45913 0.0
H958 H 0.03256 0.34091 0.36357 0.0
H959 H 0.97352 0.34995 0.40729 0.0
H960 H 0.01212 0.3315 0.46386 0.0
O961 O 0.06299 0.48573 0.40608 0.0
H962 H 0.0955 0.45832 0.3187 0.0
H963 H 0.11465 0.53225 0.3859 0.0
H964 H 1.00733 0.28269 0.35768 0.0
H965 H 0.99143 0.41031 0.50891 0.0
H966 H 0.98428 0.2484 0.4057 0.0
H967 H 0.93654 0.37682 0.48738 0.0
O968 O 0.08019 0.38909 0.39362 0.0
H969 H 0.13705 0.51442 0.49376 0.0
H970 H 0.15409 0.49088 0.38205 0.0
H971 H 0.20021 0.52066 0.41852 0.0
H972 H 0.19183 0.53265 0.47481 0.0
H973 H 0.0916 0.48442 0.45662 0.0
H974 H 0.13962 0.5723 0.3431 0.0
H975 H 0.14275 0.55501 0.28733 0.0
O976 O 0.10511 0.43766 0.37117 0.0
C977 C 0.02666 0.40738 0.35587 0.0
C978 C 0.11934 0.50539 0.29945 0.0
C979 C 0.13005 0.54734 0.33754 0.0
N980 N 0.10388 0.49304 0.35482 0.0
C981 C 0.10533 0.4833 0.32418 0.0
C982 C 0.11583 0.52457 0.36165 0.0
C983 C 0.13181 0.53762 0.30625 0.0
C984 C 0.01271 0.39832 0.46982 0.0
N985 N 1.00764 0.3816 0.44165 0.0
C986 C 0.98726 0.39688 0.4867 0.0
C987 C 0.95648 0.37813 0.47457 0.0
C988 C 0.95151 0.36111 0.44585 0.0
C989 C 0.97753 0.36319 0.42957 0.0
C990 C 0.99678 0.28784 0.43801 0.0
C991 C 0.02236 0.32613 0.38453 0.0
C992 C 0.01113 0.32088 0.44056 0.0
N993 N 0.02351 0.33954 0.41396 0.0
C994 C 1.00821 0.29319 0.38107 0.0
C995 C 0.99531 0.27396 0.40803 0.0
C996 C 0.10143 0.40984 0.37542 0.0
C997 C 0.14102 0.50945 0.46925 0.0
C998 C 0.15025 0.49593 0.40653 0.0
C999 C 0.17646 0.51287 0.42705 0.0
C1000 C 0.17174 0.51962 0.45862 0.0
N1001 N 0.12019 0.48606 0.41713 0.0
C1002 C 0.11538 0.4926 0.44805 0.0
Co1003 Co 0.64105 0.62505 0.42099 0.0
Co1004 Co 0.57986 0.6394 0.40891 0.0
O1005 O 0.61889 0.64135 0.39541 0.0
C1006 C 0.63495 0.59795 0.35588 0.0
O1007 O 0.6041 0.58556 0.35855 0.0
C1008 C 0.62331 0.70648 0.39057 0.0
O1009 O 0.64388 0.70535 0.41041 0.0
O1010 O 0.59995 0.66057 0.45072 0.0
O1011 O 0.62911 0.63768 0.4624 0.0
H1012 H 0.49238 0.61899 0.48594 0.0
H1013 H 0.67503 0.67085 0.36837 0.0
O1014 O 0.65326 0.61264 0.37975 0.0
H1015 H 0.73657 0.72185 0.46774 0.0
H1016 H 0.73119 0.60502 0.44413 0.0
H1017 H 0.62716 0.58685 0.48066 0.0
H1018 H 0.68871 0.66866 0.46963 0.0
H1019 H 0.70266 0.62661 0.41345 0.0
O1020 O 0.59532 0.68235 0.38792 0.0
H1021 H 0.54134 0.62015 0.4685 0.0
H1022 H 0.53591 0.65737 0.37755 0.0
H1023 H 0.65493 0.56499 0.51218 0.0
H1024 H 0.72296 0.72384 0.36533 0.0
H1025 H 0.70736 0.57406 0.49395 0.0
H1026 H 0.75403 0.74976 0.41529 0.0
O1027 O 0.60186 0.58289 0.42355 0.0
H1028 H 0.57546 0.62429 0.28837 0.0
H1029 H 0.51868 0.58169 0.39061 0.0
H1030 H 0.49416 0.55374 0.33932 0.0
H1031 H 0.5226 0.57506 0.28772 0.0
H1032 H 0.59916 0.65139 0.34019 0.0
H1033 H 0.48702 0.65688 0.39408 0.0
H1034 H 0.46489 0.63746 0.44859 0.0
O1035 O 0.56416 0.59625 0.42995 0.0
C1036 C 0.61574 0.65356 0.47043 0.0
C1037 C 0.50173 0.6274 0.46209 0.0
C1038 C 0.49875 0.64871 0.41055 0.0
N1039 N 0.54127 0.63854 0.42196 0.0
C1040 C 0.52938 0.62802 0.45205 0.0
C1041 C 0.52646 0.64899 0.40135 0.0
C1042 C 0.48634 0.6378 0.44113 0.0
C1043 C 0.68866 0.68174 0.39015 0.0
N1044 N 0.67919 0.66653 0.41911 0.0
C1045 C 0.71569 0.71185 0.3883 0.0
C1046 C 0.73307 0.72641 0.41635 0.0
C1047 C 0.72326 0.71077 0.4458 0.0
C1048 C 0.69609 0.68069 0.44673 0.0
C1049 C 0.70841 0.60098 0.45236 0.0
C1050 C 0.65006 0.59108 0.4727 0.0
C1051 C 0.69213 0.61311 0.43507 0.0
N1052 N 0.66344 0.60827 0.44546 0.0
C1053 C 0.66563 0.57856 0.49059 0.0
C1054 C 0.69502 0.58362 0.48032 0.0
C1055 C 0.57394 0.57616 0.43176 0.0
C1056 C 0.56277 0.61485 0.31067 0.0
C1057 C 0.5312 0.5911 0.36825 0.0
C1058 C 0.51718 0.5752 0.33928 0.0
C1059 C 0.53314 0.58719 0.31034 0.0
N1060 N 0.56022 0.61826 0.36837 0.0
C1061 C 0.57601 0.63017 0.34009 0.0
H1062 H 0.0807 0.68035 0.17608 0.0
H1063 H 0.14397 0.73458 -0.00247 0.0
H1064 H 0.14231 0.77928 0.15277 0.0
H1065 H 0.0485 0.66185 0.02083 0.0
H1066 H 0.15625 0.74429 0.05578 0.0
H1067 H 0.08371 0.66613 0.12012 0.0
C1068 C 0.09556 0.69904 0.15953 0.0
C1069 C 0.11039 0.73117 0.16885 0.0
C1070 C 0.13281 0.72598 0.0479 0.0
C1071 C 0.11411 0.7149 0.10514 0.0
C1072 C 0.12576 0.72054 0.01489 0.0
C1073 C 0.09506 0.69778 0.00457 0.0
C1074 C 0.10924 0.70777 0.07036 0.0
C1075 C 0.07231 0.67998 0.02784 0.0
C1076 C 0.09715 0.69086 0.1276 0.0
C1077 C 0.12983 0.75426 0.14638 0.0
N1078 N 0.07989 0.68533 0.05969 0.0
N1079 N 0.13072 0.74572 0.11529 0.0
H1080 H 0.37395 0.46076 0.01268 0.0
H1081 H 0.24787 0.34859 0.14106 0.0
H1082 H 0.32274 0.35858 0.00278 0.0
H1083 H 0.34062 0.42283 0.17268 0.0
H1084 H 0.26463 0.36154 0.08494 0.0
H1085 H 0.35155 0.45543 0.06708 0.0
C1086 C 0.35769 0.4373 0.02184 0.0
C1087 C 0.35023 0.41 0.0036 0.0
C1088 C 0.28098 0.37533 0.10427 0.0
C1089 C 0.32414 0.40397 0.06456 0.0
C1090 C 0.27149 0.36809 0.13625 0.0
C1091 C 0.29313 0.38429 0.16153 0.0
C1092 C 0.31196 0.39949 0.09763 0.0
C1093 C 0.32337 0.40953 0.15384 0.0
C1094 C 0.34506 0.43433 0.05268 0.0
C1095 C 0.32921 0.38011 0.01636 0.0
N1096 N 0.33203 0.4163 0.12243 0.0
N1097 N 0.31669 0.37787 0.04608 0.0
H1098 H 0.68743 0.92114 0.14481 0.0
H1099 H 0.62971 1.00266 0.02 0.0
H1100 H 0.65093 0.98202 0.17447 0.0
H1101 H 0.61301 0.90816 0.00037 0.0
H1102 H 0.64388 0.99835 0.07564 0.0
H1103 H 0.66463 0.91723 0.0908 0.0
C1104 C 0.67421 0.93323 0.14022 0.0
C1105 C 0.67152 0.95233 0.16419 0.0
C1106 C 0.63698 0.97851 0.05918 0.0
C1107 C 0.64617 0.94844 0.10245 0.0
C1108 C 0.62918 0.98105 0.02736 0.0
C1109 C 0.62026 0.95575 0.00554 0.0
C1110 C 0.63651 0.95075 0.06915 0.0
C1111 C 0.61971 0.92818 0.01651 0.0
C1112 C 0.66128 0.93099 0.1094 0.0
C1113 C 0.65401 0.96734 0.15679 0.0
N1114 N 0.6281 0.9265 0.04758 0.0
N1115 N 0.64254 0.96556 0.12643 0.0
H1116 H 0.79185 0.13909 0.48163 0.0
H1117 H 0.7934 0.02202 0.34841 0.0
H1118 H 0.77208 0.04481 0.5073 0.0
H1119 H 0.74456 0.07485 0.33644 0.0
H1120 H 0.80703 0.04218 0.40444 0.0
H1121 H 0.7979 0.12781 0.42556 0.0
C1122 C 0.78959 0.11631 0.47576 0.0
C1123 C 0.78057 0.0925 0.49914 0.0
C1124 C 0.79386 0.04969 0.38919 0.0
C1125 C 0.78802 0.07994 0.43512 0.0
C1126 C 0.78616 0.03835 0.35744 0.0
C1127 C 0.76771 0.04676 0.33822 0.0
C1128 C 0.78386 0.07027 0.40101 0.0
C1129 C 0.75861 0.06772 0.35078 0.0
C1130 C 0.79301 0.10998 0.44372 0.0
C1131 C 0.77844 0.06362 0.48996 0.0
N1132 N 0.76687 0.07888 0.38147 0.0
N1133 N 0.7817 0.05794 0.45843 0.0
H1134 H 0.98665 0.75276 0.49628 0.0
H1135 H 0.98285 0.67626 0.33361 0.0
H1136 H 0.90199 0.66595 0.46778 0.0
H1137 H 0.01908 0.77747 0.33663 0.0
H1138 H 0.95548 0.67114 0.38469 0.0
H1139 H 1.00145 0.7633 0.43931 0.0
C1140 C 0.97086 0.73631 0.47797 0.0
C1141 C 0.94335 0.7082 0.48664 0.0
C1142 C 0.96904 0.69436 0.37382 0.0
C1143 C 0.96051 0.71963 0.42211 0.0
C1144 C 0.98483 0.69731 0.34499 0.0
C1145 C 1.00328 0.72732 0.33124 0.0
C1146 C 0.97263 0.72172 0.3893 0.0
C1147 C 1.00503 0.75393 0.34664 0.0
C1148 C 0.97928 0.74235 0.44559 0.0
C1149 C 0.92358 0.6877 0.46208 0.0
N1150 N 0.99038 0.75062 0.37534 0.0
N1151 N 0.93301 0.69336 0.43086 0.0
H1152 H 0.36407 0.25379 0.46549 0.0
H1153 H 0.23943 0.25538 0.3423 0.0
H1154 H 0.28205 0.25685 0.4998 0.0
H1155 H 0.34046 0.31396 0.32858 0.0
H1156 H 0.24977 0.24063 0.39587 0.0
H1157 H 0.35002 0.25995 0.41011 0.0
C1158 C 0.34279 0.25513 0.46134 0.0
C1159 C 0.32436 0.25517 0.48726 0.0
C1160 C 0.26956 0.25654 0.38092 0.0
C1161 C 0.30805 0.26166 0.42418 0.0
C1162 C 0.26375 0.26489 0.35047 0.0
C1163 C 0.28918 0.2861 0.33125 0.0
C1164 C 0.30098 0.26876 0.39164 0.0
C1165 C 0.32025 0.29784 0.34289 0.0
C1166 C 0.33494 0.25881 0.42981 0.0
C1167 C 0.29699 0.25695 0.48047 0.0
N1168 N 0.32532 0.28884 0.37233 0.0
N1169 N 0.28961 0.26013 0.44948 0.0
H1170 H 0.99332 0.32056 0.83138 0.0
H1171 H 0.99302 0.2485 -0.00318 0.0
H1172 H 0.02136 0.24931 0.83574 0.0
H1173 H 0.90986 0.25246 0.96721 0.0
H1174 H 0.00944 0.25434 0.94015 0.0
H1175 H 0.96805 0.30294 0.88438 0.0
C1176 C 0.99405 0.30121 0.84348 0.0
C1177 C 0.00938 0.28633 0.82941 0.0
C1178 C 0.98735 0.25339 0.94617 0.0
C1179 C 0.98132 0.26669 0.88954 0.0
C1180 C 0.97797 0.25004 0.97833 0.0
C1181 C 0.95019 0.25026 0.9866 0.0
C1182 C 0.9693 0.25799 0.92252 0.0
C1183 C 0.93152 0.25238 0.96182 0.0
C1184 C 0.97952 0.29107 0.87341 0.0
C1185 C 0.00967 0.26129 0.84585 0.0
N1186 N 0.94181 0.25696 0.93085 0.0
N1187 N 0.99629 0.25256 0.87542 0.0
H1188 H 0.81483 0.67282 0.97645 0.0
H1189 H 0.79422 0.77052 0.83581 0.0
H1190 H 0.80112 0.75192 -0.00116 0.0
H1191 H 0.73635 0.66834 0.83954 0.0
H1192 H 0.81571 0.77047 0.88969 0.0
H1193 H 0.80588 0.67846 0.91918 0.0
C1194 C 0.81066 0.69181 0.9693 0.0
C1195 C 0.80796 0.71148 0.99245 0.0
C1196 C 0.79861 0.74814 0.87838 0.0
C1197 C 0.79874 0.71849 0.92727 0.0
C1198 C 0.78639 0.74809 0.84781 0.0
C1199 C 0.76336 0.71938 0.83354 0.0
C1200 C 0.78843 0.71922 0.89408 0.0
C1201 C 0.75388 0.69094 0.84999 0.0
C1202 C 0.80551 0.69489 0.93671 0.0
C1203 C 0.80299 0.73602 0.98175 0.0
N1204 N 0.76662 0.69154 0.87947 0.0
N1205 N 0.79836 0.73877 0.9498 0.0
H1206 H 0.28802 1.00027 0.00988 0.0
H1207 H 0.27957 0.03906 0.82533 0.0
H1208 H 0.32002 0.09649 0.97943 0.0
H1209 H 0.30126 0.96734 0.85641 0.0
H1210 H 0.28372 0.05675 0.88175 0.0
H1211 H 0.28014 0.98336 0.95335 0.0
C1212 C 0.29284 0.01779 0.99139 0.0
C1213 C 0.30496 0.04995 -0.00056 0.0
C1214 C 0.28765 0.03723 0.87605 0.0
C1215 C 0.29592 0.03058 0.93474 0.0
C1216 C 0.28531 0.02713 0.84399 0.0
C1217 C 0.29019 1.00175 0.83622 0.0
C1218 C 0.29408 0.02128 0.90046 0.0
C1219 C 0.29756 0.98713 0.86129 0.0
C1220 C 0.28859 1.00811 0.95914 0.0
C1221 C 0.31074 0.07149 0.97431 0.0
N1222 N 0.29896 0.9969 0.89235 0.0
N1223 N 0.30623 0.06142 0.94299 0.0
H1224 H 0.24893 0.90877 0.63841 0.0
H1225 H 0.37037 0.91567 0.50862 0.0
H1226 H 0.34012 0.92292 0.66931 0.0
H1227 H 0.32558 0.97266 0.49961 0.0
H1228 H 0.34869 0.90075 0.56339 0.0
H1229 H 0.26592 0.91373 0.58221 0.0
C1230 C 0.27228 0.91231 0.6334 0.0
C1231 C 0.29339 0.91601 0.65856 0.0
C1232 C 0.34348 0.91626 0.54916 0.0
C1233 C 0.31242 0.92086 0.59455 0.0
C1234 C 0.35567 0.92469 0.51807 0.0
C1235 C 0.34976 0.9455 0.49988 0.0
C1236 C 0.32451 0.92794 0.56143 0.0
C1237 C 0.33078 0.95674 0.5131 0.0
C1238 C 0.2819 0.91521 0.60139 0.0
C1239 C 0.32327 0.92026 0.6506 0.0
N1240 N 0.31857 0.94761 0.54311 0.0
N1241 N 0.332 0.92265 0.61914 0.0
H1242 H 0.10734 0.40629 0.67057 0.0
H1243 H 0.08175 0.34832 0.49573 0.0
H1244 H 0.12943 0.33397 0.64186 0.0
H1245 H 0.12857 0.44964 0.5119 0.0
H1246 H 0.09595 0.34177 0.55086 0.0
H1247 H 0.11373 0.42389 0.6143 0.0
C1248 C 0.11424 0.39459 0.6527 0.0
C1249 C 0.11709 0.36811 0.66085 0.0
C1250 C 0.10358 0.36549 0.54214 0.0
C1251 C 0.12384 0.38778 0.59686 0.0
C1252 C 0.09533 0.36917 0.5109 0.0
C1253 C 0.10407 0.3995 0.49961 0.0
C1254 C 0.11968 0.39222 0.56244 0.0
C1255 C 0.12162 0.42589 0.51997 0.0
C1256 C 0.11794 0.40472 0.62069 0.0
C1257 C 0.12635 0.35408 0.6367 0.0
N1258 N 0.12831 0.42161 0.55088 0.0
N1259 N 0.12856 0.36354 0.60562 0.0
H1260 H 0.61555 0.70564 0.49631 0.0
H1261 H 0.63492 0.65981 0.67698 0.0
H1262 H 0.61992 0.62209 0.52249 0.0
H1263 H 0.67227 0.75715 0.64715 0.0
H1264 H 0.61328 0.64209 0.62265 0.0
H1265 H 0.62195 0.72124 0.55381 0.0
C1266 C 0.61754 0.69049 0.51416 0.0
C1267 C 0.61772 0.66282 0.50471 0.0
C1268 C 0.6258 0.6673 0.62822 0.0
C1269 C 0.62421 0.68 0.56999 0.0
C1270 C 0.63806 0.67748 0.65929 0.0
C1271 C 0.65613 0.7101 0.66653 0.0
C1272 C 0.63136 0.68982 0.60428 0.0
C1273 C 0.65896 0.73178 0.64256 0.0
C1274 C 0.62117 0.69937 0.54682 0.0
C1275 C 0.62024 0.6439 0.5287 0.0
N1276 N 0.64707 0.72126 0.61233 0.0
N1277 N 0.6234 0.65284 0.56021 0.0
H1278 H 0.465 0.44332 0.80594 0.0
H1279 H 0.36378 0.30069 0.68738 0.0
H1280 H 0.4027 0.34802 0.84004 0.0
H1281 H 0.45722 0.37483 0.65984 0.0
H1282 H 0.37518 0.32098 0.74287 0.0
H1283 H 0.46173 0.42154 0.75162 0.0
C1284 C 0.45114 0.41783 0.80224 0.0
C1285 C 0.4337 0.39756 0.82762 0.0
C1286 C 0.39324 0.33269 0.72469 0.0
C1287 C 0.42933 0.3728 0.7655 0.0
C1288 C 0.38664 0.32133 0.69298 0.0
C1289 C 0.40957 0.33616 0.66899 0.0
C1290 C 0.42269 0.35948 0.73236 0.0
C1291 C 0.43893 0.36268 0.67769 0.0
C1292 C 0.44925 0.40548 0.77121 0.0
C1293 C 0.41622 0.36469 0.82127 0.0
N1294 N 0.44457 0.37377 0.70868 0.0
N1295 N 0.41399 0.35343 0.79074 0.0
H1296 H 0.67704 0.10681 0.67389 0.0
H1297 H 0.56726 0.97725 0.80127 0.0
H1298 H 0.65156 1.00839 0.66386 0.0
H1299 H 0.64333 0.0696 0.83121 0.0
H1300 H 0.58427 0.9905 0.74504 0.0
H1301 H 0.65103 0.09487 0.72659 0.0
C1302 C 0.66561 0.08262 0.68261 0.0
C1303 C 0.66657 0.05852 0.66475 0.0
C1304 C 0.59679 1.00795 0.76397 0.0
C1305 C 0.63642 0.04481 0.72427 0.0
C1306 C 0.58703 1.00056 0.79592 0.0
C1307 C 0.60412 0.02233 0.82079 0.0
C1308 C 0.62322 0.03758 0.75699 0.0
C1309 C 0.6297 0.05215 0.81264 0.0
C1310 C 0.6509 0.07592 0.71258 0.0
C1311 C 0.65152 0.02762 0.67712 0.0
N1312 N 0.63854 0.05895 0.78132 0.0
N1313 N 0.6369 0.02157 0.70621 0.0
H1314 H 0.02336 0.58885 0.80182 0.0
H1315 H 0.97291 0.67933 0.68099 0.0
H1316 H 0.98732 0.64942 0.83397 0.0
H1317 H 0.95135 0.58399 0.65691 0.0
H1318 H 0.98587 0.67187 0.73602 0.0
H1319 H 1.00247 0.58811 0.74744 0.0
C1320 C 0.01064 0.60152 0.79769 0.0
C1321 C 1.00753 0.61961 0.8225 0.0
C1322 C 0.9782 0.65254 0.7187 0.0
C1323 C 0.98441 0.61933 0.76046 0.0
C1324 C 0.97107 0.65687 0.68721 0.0
C1325 C 0.96104 0.63224 0.66433 0.0
C1326 C 0.97598 0.62364 0.72731 0.0
C1327 C 0.95891 0.60353 0.6739 0.0
C1328 C 0.99881 0.60109 0.76667 0.0
C1329 C 0.99073 0.63548 0.81566 0.0
N1330 N 0.96665 0.60008 0.70471 0.0
N1331 N 0.98035 0.63544 0.78517 0.0
H1332 H 0.60515 0.56539 0.30017 0.0
H1333 H 0.74758 0.67932 0.18769 0.0
H1334 H 0.69669 0.63613 0.3384 0.0
H1335 H 0.68207 0.58246 0.1584 0.0
H1336 H 0.72395 0.66753 0.24143 0.0
H1337 H 0.62843 0.57417 0.24606 0.0
C1338 C 0.63015 0.58248 0.29727 0.0
C1339 C 0.649 0.60002 0.32383 0.0
C1340 C 0.71481 0.6489 0.22319 0.0
C1341 C 0.67533 0.61066 0.26223 0.0
C1342 C 0.72811 0.65564 0.19249 0.0
C1343 C 0.71684 0.63179 0.16861 0.0
C1344 C 0.68966 0.6183 0.22985 0.0
C1345 C 0.69159 0.60147 0.17622 0.0
C1346 C 0.64334 0.58747 0.26646 0.0
C1347 C 0.68124 0.62199 0.31868 0.0
N1348 N 0.67866 0.59561 0.20619 0.0
N1349 N 0.69327 0.62697 0.28842 0.0
H1350 H 0.43217 0.11966 0.18477 0.0
H1351 H 0.44796 0.99689 0.29836 0.0
H1352 H 0.38677 0.01923 0.16393 0.0
H1353 H 0.43148 0.06929 0.33917 0.0
H1354 H 0.4449 0.01521 0.24438 0.0
H1355 H 0.44953 0.11025 0.2377 0.0
C1356 C 0.42613 0.09574 0.19132 0.0
C1357 C 0.40772 0.07004 0.17047 0.0
C1358 C 0.44261 0.02741 0.26526 0.0
C1359 C 0.42819 0.05946 0.22965 0.0
C1360 C 0.44451 0.01714 0.29611 0.0
C1361 C 0.43932 0.03118 0.32339 0.0
C1362 C 0.43616 0.05226 0.26168 0.0
C1363 C 0.43516 0.0575 0.31879 0.0
C1364 C 0.43599 0.09045 0.2213 0.0
C1365 C 0.40048 0.0395 0.17971 0.0
N1366 N 0.43338 0.06707 0.28841 0.0
N1367 N 0.41089 0.03503 0.20863 0.0
H1368 H 0.98452 0.34585 0.33848 0.0
H1369 H 0.95477 0.37889 0.15736 0.0
H1370 H 0.02682 0.44206 0.30321 0.0
H1371 H 0.96737 0.30045 0.18533 0.0
H1372 H 0.96823 0.39985 0.21306 0.0
H1373 H 0.9631 0.3261 0.28461 0.0
C1374 C 0.98891 0.36292 0.31964 0.0
C1375 C 1.0081 0.39575 0.32536 0.0
C1376 C 0.96791 0.37803 0.20682 0.0
C1377 C 0.98333 0.37302 0.26364 0.0
C1378 C 0.96026 0.36607 0.17522 0.0
C1379 C 0.9602 0.33803 0.16677 0.0
C1380 C 0.97459 0.36126 0.2301 0.0
C1381 C 0.96747 0.32231 0.19073 0.0
C1382 C 0.97675 0.35153 0.28885 0.0
C1383 C 0.01247 0.41657 0.29987 0.0
N1384 N 0.97415 0.33402 0.22136 0.0
N1385 N 1.00037 0.40483 0.26994 0.0
H1386 H 0.30992 0.95204 0.36921 0.0
H1387 H 0.19931 0.78919 0.27451 0.0
H1388 H 0.34151 0.88582 0.3452 0.0
H1389 H 0.18111 0.86741 0.27798 0.0
H1390 H 0.24969 0.8221 0.30325 0.0
H1391 H 0.26083 0.91901 0.33939 0.0
C1392 C 0.30657 0.93046 0.35781 0.0
C1393 C 0.33009 0.92177 0.35988 0.0
C1394 C 0.23474 0.83208 0.29757 0.0
C1395 C 0.27339 0.88362 0.32539 0.0
C1396 C 0.20593 0.81332 0.28118 0.0
C1397 C 0.1859 0.82555 0.27374 0.0
C1398 C 0.24347 0.86321 0.30697 0.0
C1399 C 0.19578 0.85698 0.28307 0.0
C1400 C 0.27845 0.91165 0.34059 0.0
C1401 C 0.32414 0.89351 0.34432 0.0
N1402 N 0.22374 0.87462 0.29932 0.0
N1403 N 0.29632 0.87538 0.32783 0.0
H1404 H 0.17444 0.29678 0.28822 0.0
H1405 H 0.15739 0.44678 0.34192 0.0
H1406 H 0.25146 0.3937 0.28146 0.0
H1407 H 0.09221 0.34981 0.36902 0.0
H1408 H 0.19007 0.42832 0.31447 0.0
H1409 H 0.14159 0.31631 0.31243 0.0
C1410 C 0.18446 0.32215 0.29165 0.0
C1411 C 0.21592 0.34351 0.28284 0.0
C1412 C 0.16856 0.41118 0.32646 0.0
C1413 C 0.17823 0.36616 0.31058 0.0
C1414 C 0.14988 0.42171 0.34209 0.0
C1415 C 0.12199 0.39996 0.35807 0.0
C1416 C 0.15909 0.37862 0.32642 0.0
C1417 C 0.11352 0.36767 0.35734 0.0
C1418 C 0.16568 0.33331 0.30559 0.0
C1419 C 0.22744 0.37621 0.28798 0.0
N1420 N 0.13185 0.35808 0.34182 0.0
N1421 N 0.20865 0.38649 0.30144 0.0
H1422 H 0.7354 0.87943 0.2803 0.0
H1423 H 0.58671 0.72177 0.35158 0.0
H1424 H 0.63826 0.85762 0.26901 0.0
H1425 H 0.68371 0.75628 0.38186 0.0
H1426 H 0.60505 0.76863 0.3171 0.0
H1427 H 0.71687 0.83146 0.31306 0.0
C1428 C 0.71018 0.86445 0.28442 0.0
C1429 C 0.68841 0.87267 0.27174 0.0
C1430 C 0.6223 0.76595 0.33135 0.0
C1431 C 0.66697 0.81759 0.30939 0.0
C1432 C 0.61182 0.73917 0.35106 0.0
C1433 C 0.63361 0.73504 0.3699 0.0
C1434 C 0.65488 0.78868 0.33005 0.0
C1435 C 0.66594 0.75844 0.36803 0.0
C1436 C 0.69961 0.83713 0.3033 0.0
C1437 C 0.65598 0.85234 0.2782 0.0
N1438 N 0.67554 0.78407 0.34846 0.0
N1439 N 0.6463 0.82584 0.29645 0.0
H1440 H 0.8156 0.05006 0.17337 0.0
H1441 H 0.84109 0.22345 0.1334 0.0
H1442 H 0.75878 0.0871 0.21339 0.0
H1443 H 0.90569 0.19182 0.10355 0.0
H1444 H 0.80832 0.17196 0.15957 0.0
H1445 H 0.84703 0.10045 0.14469 0.0
C1446 C 0.80971 0.06866 0.17621 0.0
C1447 C 0.78448 0.06411 0.19606 0.0
C1448 C 0.82965 0.17631 0.14719 0.0
C1449 C 0.82024 0.1219 0.16302 0.0
C1450 C 0.84831 0.20571 0.13211 0.0
C1451 C 0.87636 0.21226 0.11625 0.0
C1452 C 0.83891 0.15309 0.14631 0.0
C1453 C 0.88442 0.18814 0.11556 0.0
C1454 C 0.82766 0.09746 0.15979 0.0
C1455 C 0.77801 0.08927 0.19858 0.0
N1456 N 0.8659 0.15982 0.13033 0.0
N1457 N 0.79565 0.11685 0.18232 0.0
H1458 H 0.83678 0.62934 0.12902 0.0
H1459 H 1.00679 0.77715 0.18062 0.0
H1460 H 0.86267 0.72753 0.1161 0.0
H1461 H 0.97595 0.67934 0.20348 0.0
H1462 H 0.95565 0.7594 0.15322 0.0
H1463 H 0.88931 0.64721 0.15291 0.0
C1464 C 0.85345 0.65461 0.13109 0.0
C1465 C 0.84508 0.67687 0.12057 0.0
C1466 C 0.96018 0.74187 0.16421 0.0
C1467 C 0.90541 0.69756 0.1479 0.0
C1468 C 0.98942 0.752 0.17981 0.0
C1469 C 0.99576 0.72982 0.19463 0.0
C1470 C 0.93718 0.7093 0.16325 0.0
C1471 C 0.97221 0.69747 0.19269 0.0
C1472 C 0.88347 0.66482 0.14478 0.0
C1473 C 0.86786 0.70938 0.12391 0.0
N1474 N 0.9441 0.68826 0.17739 0.0
N1475 N 0.89686 0.71869 0.13727 0.0
H1476 H 0.24782 0.1971 0.18891 0.0
H1477 H 0.39519 0.18051 0.12664 0.0
H1478 H 0.34563 0.26427 0.21295 0.0
H1479 H 0.29751 0.10492 0.1193 0.0
H1480 H 0.37739 0.21382 0.15351 0.0
H1481 H 0.26548 0.16517 0.15889 0.0
C1482 C 0.27297 0.20516 0.1879 0.0
C1483 C 0.29519 0.23336 0.20375 0.0
C1484 C 0.35986 0.18997 0.1459 0.0
C1485 C 0.31567 0.19699 0.1691 0.0
C1486 C 0.37001 0.17095 0.13039 0.0
C1487 C 0.34791 0.1397 0.12067 0.0
C1488 C 0.32731 0.17787 0.15158 0.0
C1489 C 0.31554 0.12875 0.1264 0.0
C1490 C 0.28307 0.1869 0.17076 0.0
C1491 C 0.32754 0.2426 0.20141 0.0
N1492 N 0.30629 0.14772 0.14141 0.0
N1493 N 0.33675 0.22456 0.18445 0.0
H1494 H 0.86098 0.1345 0.61157 0.0
H1495 H 0.98244 0.29967 0.69746 0.0
H1496 H 0.84606 0.21473 0.61778 0.0
H1497 H 1.0036 0.22418 0.68294 0.0
H1498 H 0.93216 0.26818 0.66918 0.0
H1499 H 0.91259 0.16615 0.63829 0.0
C1500 C 0.86856 0.15882 0.61845 0.0
C1501 C 0.84907 0.17198 0.61234 0.0
C1502 C 0.94773 0.25842 0.67208 0.0
C1503 C 0.90829 0.20833 0.64315 0.0
C1504 C 0.97658 0.2764 0.68837 0.0
C1505 C 0.99747 0.26459 0.69282 0.0
C1506 C 0.93929 0.22815 0.66009 0.0
C1507 C 0.98834 0.23429 0.68017 0.0
C1508 C 0.89809 0.17687 0.63372 0.0
C1509 C 0.86022 0.20358 0.62193 0.0
N1510 N 0.95987 0.21707 0.66448 0.0
N1511 N 0.88901 0.22061 0.63691 0.0
H1512 H 0.90321 0.72008 0.60565 0.0
H1513 H 0.74484 0.66542 0.70648 0.0
H1514 H 0.8371 0.62214 0.62867 0.0
H1515 H 0.80531 0.76196 0.67491 0.0
H1516 H 0.77839 0.64955 0.67832 0.0
H1517 H 0.86794 0.73572 0.6307 0.0
C1518 C 0.88121 0.70172 0.61588 0.0
C1519 C 0.8733 0.66958 0.61502 0.0
C1520 C 0.78437 0.6742 0.67742 0.0
C1521 C 0.83257 0.68773 0.6441 0.0
C1522 C 0.76521 0.68344 0.69364 0.0
C1523 C 0.77221 0.71529 0.69335 0.0
C1524 C 0.81109 0.69685 0.66072 0.0
C1525 C 0.79892 0.73721 0.67594 0.0
C1526 C 0.86103 0.7108 0.6302 0.0
C1527 C 0.84431 0.64713 0.62869 0.0
N1528 N 0.81744 0.72761 0.66048 0.0
N1529 N 0.82513 0.65665 0.64277 0.0
H1530 H 0.25818 0.0567 0.68512 0.0
H1531 H 0.40961 0.22337 0.63399 0.0
H1532 H 0.35331 0.08898 0.72043 0.0
H1533 H 0.31309 0.19243 0.60434 0.0
H1534 H 0.39034 0.17318 0.6632 0.0
H1535 H 0.27856 0.10535 0.65332 0.0
C1536 C 0.28333 0.074 0.68628 0.0
C1537 C 0.30394 0.06867 0.70574 0.0
C1538 C 0.37344 0.17737 0.65013 0.0
C1539 C 0.32763 0.12462 0.66905 0.0
C1540 C 0.38448 0.206 0.63328 0.0
C1541 C 0.36305 0.21241 0.61662 0.0
C1542 C 0.34072 0.15485 0.6503 0.0
C1543 C 0.33065 0.18885 0.61684 0.0
C1544 C 0.295 0.10182 0.66804 0.0
C1545 C 0.3364 0.09203 0.70601 0.0
N1546 N 0.32058 0.16137 0.6334 0.0
N1547 N 0.34718 0.11887 0.68803 0.0
H1548 H 0.17686 0.88776 0.79685 0.0
H1549 H 0.14931 0.71369 0.83653 0.0
H1550 H 0.24317 0.85694 0.77143 0.0
H1551 H 0.09358 0.75148 0.87763 0.0
H1552 H 0.18146 0.76431 0.80859 0.0
H1553 H 0.14309 0.83598 0.82218 0.0
C1554 C 0.18423 0.87011 0.79632 0.0
C1555 C 0.21307 0.87698 0.78202 0.0
C1556 C 0.16218 0.76147 0.82377 0.0
C1557 C 0.17447 0.81751 0.81108 0.0
C1558 C 0.14381 0.73253 0.83977 0.0
C1559 C 0.11868 0.72812 0.85972 0.0
C1560 C 0.15527 0.7862 0.82741 0.0
C1561 C 0.11274 0.75358 0.86275 0.0
C1562 C 0.16501 0.84057 0.81094 0.0
C1563 C 0.22131 0.853 0.78226 0.0
N1564 N 0.13076 0.78132 0.8468 0.0
N1565 N 0.20222 0.82452 0.7965 0.0
H1566 H 0.17839 0.30579 0.78257 0.0
H1567 H 0.34642 0.45307 0.83771 0.0
H1568 H 0.20466 0.40324 0.76413 0.0
H1569 H 0.30578 0.35886 0.87779 0.0
H1570 H 0.2973 0.43522 0.80615 0.0
H1571 H 0.22828 0.32468 0.81254 0.0
C1572 C 0.19473 0.33114 0.7846 0.0
C1573 C 0.18729 0.35294 0.77083 0.0
C1574 C 0.29924 0.41858 0.82198 0.0
C1575 C 0.24446 0.37477 0.80517 0.0
C1576 C 0.32724 0.42876 0.84003 0.0
C1577 C 0.33037 0.40754 0.86058 0.0
C1578 C 0.2744 0.38688 0.82419 0.0
C1579 C 0.30464 0.37623 0.86244 0.0
C1580 C 0.22314 0.34193 0.80187 0.0
C1581 C 0.20937 0.38556 0.7744 0.0
N1582 N 0.27795 0.36688 0.84441 0.0
N1583 N 0.23696 0.39549 0.79118 0.0
H1584 H 0.62405 0.76688 0.77574 0.0
H1585 H 0.67178 0.92283 0.88212 0.0
H1586 H 0.71899 0.84794 0.77959 0.0
H1587 H 0.57459 0.84984 0.86387 0.0
H1588 H 0.68962 0.89457 0.84688 0.0
H1589 H 0.60581 0.79578 0.80953 0.0
C1590 C 0.64109 0.79087 0.78348 0.0
C1591 C 0.67317 0.80499 0.77459 0.0
C1592 C 0.66439 0.88468 0.85056 0.0
C1593 C 0.6523 0.83822 0.81387 0.0
C1594 C 0.65411 0.90074 0.87086 0.0
C1595 C 0.62154 0.88869 0.87619 0.0
C1596 C 0.64203 0.85608 0.83548 0.0
C1597 C 0.5999 0.86004 0.86061 0.0
C1598 C 0.63059 0.80736 0.80286 0.0
C1599 C 0.69404 0.83611 0.78561 0.0
N1600 N 0.61053 0.8447 0.84109 0.0
N1601 N 0.68328 0.85157 0.80477 0.0
H1602 H 0.43688 0.42292 0.55178 0.0
H1603 H 0.58485 0.52607 0.43638 0.0
H1604 H 0.50116 0.39171 0.51984 0.0
H1605 H 0.51638 0.55386 0.46247 0.0
H1606 H 0.55413 0.47663 0.46585 0.0
H1607 H 0.46548 0.47063 0.51913 0.0
C1608 C 0.4571 0.42608 0.538 0.0
C1609 C 0.46667 0.40316 0.53883 0.0
C1610 C 0.54565 0.49339 0.46499 0.0
C1611 C 0.49964 0.45814 0.50099 0.0
C1612 C 0.56318 0.52173 0.44802 0.0
C1613 C 0.55333 0.54446 0.4468 0.0
C1614 C 0.51798 0.48747 0.4812 0.0
C1615 C 0.52498 0.53719 0.46256 0.0
C1616 C 0.47338 0.4534 0.5192 0.0
C1617 C 0.49294 0.40869 0.52013 0.0
N1618 N 0.50848 0.50951 0.47921 0.0
N1619 N 0.50851 0.43559 0.50211 0.0
H1620 H 0.67089 0.12494 0.51767 0.0
H1621 H 0.5197 0.9765 0.43355 0.0
H1622 H 0.64505 0.0267 0.53015 0.0
H1623 H 0.53388 0.07157 0.43321 0.0
H1624 H 0.56862 0.99595 0.46515 0.0
H1625 H 0.62333 0.10721 0.48346 0.0
C1626 C 0.65529 0.09973 0.51335 0.0
C1627 C 0.66208 0.07736 0.52703 0.0
C1628 C 0.56113 0.01262 0.45808 0.0
C1629 C 0.60787 0.05698 0.48766 0.0
C1630 C 0.53321 1.00152 0.43988 0.0
C1631 C 0.52259 0.02239 0.43065 0.0
C1632 C 0.57875 0.0449 0.46716 0.0
C1633 C 0.54115 0.05459 0.43974 0.0
C1634 C 0.62817 0.08963 0.4938 0.0
C1635 C 0.64095 0.04497 0.52039 0.0
N1636 N 0.56827 0.06485 0.45751 0.0
N1637 N 0.61501 0.03586 0.50123 0.0
H1638 H 0.06855 0.53449 0.43883 0.0
H1639 H 0.91814 0.53309 0.52036 0.0
H1640 H 0.97319 0.45426 0.43366 0.0
H1641 H 0.01521 0.60637 0.53858 0.0
H1642 H 0.93742 0.50547 0.4856 0.0
H1643 H 0.04906 0.56297 0.47204 0.0
C1644 C 0.04349 0.52294 0.4444 0.0
C1645 C 0.02253 0.49189 0.43326 0.0
C1646 C 0.95451 0.52757 0.49726 0.0
C1647 C 0.99999 0.5244 0.47152 0.0
C1648 C 0.94348 0.54336 0.51715 0.0
C1649 C 0.96502 0.57206 0.53268 0.0
C1650 C 0.98734 0.54063 0.4925 0.0
C1651 C 0.99764 0.58422 0.52738 0.0
C1652 C 0.03238 0.53917 0.46353 0.0
C1653 C 0.9903 0.47814 0.44156 0.0
N1654 N 1.00775 0.56853 0.50777 0.0
N1655 N 0.98009 0.49442 0.4601 0.0
H1656 H 0.51864 0.53841 0.93877 0.0
H1657 H 0.66624 0.53677 0.02454 0.0
H1658 H 0.53288 0.45765 0.93531 0.0
H1659 H 0.63968 0.6076 0.04412 0.0
H1660 H 0.62019 0.50945 0.98808 0.0
H1661 H 0.56607 0.56647 0.97317 0.0
C1662 C 0.53189 0.52668 0.94495 0.0
C1663 C 0.52172 0.4956 0.93404 0.0
C1664 C 0.62442 0.53093 0.00044 0.0
C1665 C 0.57602 0.52759 0.97365 0.0
C1666 C 0.6507 0.54652 0.02128 0.0
C1667 C 0.65678 0.57444 0.03761 0.0
C1668 C 0.60423 0.54349 -0.00441 0.0
C1669 C 0.63586 0.58604 0.03229 0.0
C1670 C 0.55888 0.54266 0.96477 0.0
C1671 C 0.53979 0.48157 0.94308 0.0
N1672 N 0.61064 0.5706 0.01171 0.0
N1673 N 0.566 0.49764 0.96232 0.0
H1674 H 0.50198 0.94658 0.97697 0.0
H1675 H 0.48251 0.09806 0.01762 0.0
H1676 H 0.56124 0.04017 0.9376 0.0
H1677 H 0.42637 1.00643 0.06204 0.0
H1678 H 0.50988 0.07634 0.98615 0.0
H1679 H 0.47176 0.96688 0.00591 0.0
C1680 C 0.50847 0.97124 0.9741 0.0
C1681 C 0.53436 0.99161 0.95481 0.0
C1682 C 0.49157 0.06098 0.0028 0.0
C1683 C 0.49997 0.01512 0.9881 0.0
C1684 C 0.47597 0.07343 0.02084 0.0
C1685 C 0.4522 0.05419 0.04273 0.0
C1686 C 0.48336 0.02897 0.00651 0.0
C1687 C 0.44467 0.02231 0.04566 0.0
C1688 C 0.4913 0.98289 0.99078 0.0
C1689 C 0.54164 0.02346 0.95224 0.0
N1690 N 0.46015 0.01076 0.02784 0.0
N1691 N 0.52469 0.03415 0.96869 0.0
H1692 H 0.06729 0.54125 0.93924 0.0
H1693 H 0.91706 0.39112 0.01967 0.0
H1694 H 0.97086 0.52189 0.92889 0.0
H1695 H 0.01442 0.41905 0.04211 0.0
H1696 H 0.93605 0.4369 0.9836 0.0
H1697 H 0.04816 0.49435 0.97377 0.0
C1698 C 0.04209 0.52702 0.94392 0.0
C1699 C 0.02072 0.53562 0.93094 0.0
C1700 C 0.95326 0.43304 -0.00352 0.0
C1701 C 0.99859 0.48183 0.97075 0.0
C1702 C 0.9424 0.40688 0.01714 0.0
C1703 C 0.96409 0.40119 0.03422 0.0
C1704 C 0.9861 0.45364 0.99254 0.0
C1705 C 0.99671 0.42247 0.02971 0.0
C1706 C 0.03118 0.5003 0.96381 0.0
C1707 C 0.98831 0.51628 0.9382 0.0
N1708 N 1.00665 0.44758 0.00934 0.0
N1709 N 0.9783 0.49043 0.95752 0.0
loop_
_geom_bond_atom_site_label_1
_geom_bond_atom_site_label_2
_geom_bond_distance
_geom_bond_site_symmetry_2
_ccdc_geom_bond_type
Co0 O2 2.143 1_655 S
Co0 O8 2.074 1_655 S
Co0 O11 2.093 . S
Co0 O24 2.097 . S
Co0 N41 2.151 1_655 S
Co0 N49 2.214 . S
Co1 O2 2.160 . S
Co1 O7 2.058 . S
Co1 O17 2.057 . S
Co1 O32 2.037 1_455 S
Co1 N36 2.145 . S
Co1 N57 2.257 . S
O2 Co0 2.143 1_455 S
O2 Co1 2.160 . S
C3 O4 1.276 . S
C3 O11 1.224 . S
O4 C3 1.276 . S
C5 O6 1.245 . S
C5 O17 1.232 . S
O6 C5 1.245 . S
O7 Co1 2.058 . S
O7 C33 1.269 . S
O8 Co0 2.074 1_455 S
O8 C33 1.257 . S
H9 C34 0.930 . S
H10 C40 0.930 . S
O11 Co0 2.093 . S
O11 C3 1.224 . S
H12 C44 0.929 . S
H13 C46 0.930 . S
H14 C47 0.930 . S
H15 C45 0.929 . S
H16 C48 0.928 . S
O17 Co1 2.057 . S
O17 C5 1.232 . S
H18 C37 0.929 . S
H19 C38 0.929 . S
H20 C50 0.931 . S
H21 C42 0.929 . S
H22 C51 0.930 . S
H23 C43 0.931 . S
O24 Co0 2.097 . S
O24 C52 1.214 . S
H25 C53 0.929 . S
H26 C54 0.929 . S
H27 C55 0.930 . S
H28 C56 0.929 . S
H29 C58 0.930 . S
H30 C35 0.930 . S
H31 C39 0.930 . S
O32 Co1 2.037 1_655 S
O32 C52 1.234 . S
C33 O7 1.269 . S
C33 O8 1.257 . S
C34 H9 0.930 . S
C34 C37 1.388 . S
C34 C39 1.418 . S
C35 H30 0.930 . S
C35 C38 1.404 . S
C35 C39 1.353 . S
N36 Co1 2.145 . S
N36 C37 1.397 . S
N36 C38 1.334 . S
C37 H18 0.929 . S
C37 C34 1.388 . S
C37 N36 1.397 . S
C38 H19 0.929 . S
C38 C35 1.404 . S
C38 N36 1.334 . S
C39 H31 0.930 . S
C39 C34 1.418 . S
C39 C35 1.353 . S
C40 H10 0.930 . S
C40 N41 1.330 . S
C40 C42 1.446 . S
N41 Co0 2.151 1_455 S
N41 C40 1.330 . S
N41 C45 1.418 . S
C42 H21 0.929 . S
C42 C40 1.446 . S
C42 C43 1.332 . S
C43 H23 0.931 . S
C43 C42 1.332 . S
C43 C44 1.267 . S
C44 H12 0.929 . S
C44 C43 1.267 . S
C44 C45 1.251 . S
C45 H15 0.929 . S
C45 N41 1.418 . S
C45 C44 1.251 . S
C46 H13 0.930 . S
C46 C48 1.406 . S
C46 C51 1.261 . S
C47 H14 0.930 . S
C47 N49 1.325 . S
C47 C50 1.357 . S
C48 H16 0.928 . S
C48 C46 1.406 . S
C48 N49 1.261 . S
N49 Co0 2.214 . S
N49 C47 1.325 . S
N49 C48 1.261 . S
C50 H20 0.931 . S
C50 C47 1.357 . S
C50 C51 1.312 . S
C51 H22 0.930 . S
C51 C46 1.261 . S
C51 C50 1.312 . S
C52 O24 1.214 . S
C52 O32 1.234 . S
C53 H25 0.929 . S
C53 C56 1.391 1_455 S
C53 C58 1.391 . S
C54 H26 0.929 . S
C54 C55 1.390 . S
C54 N57 1.391 1_655 S
C55 H27 0.930 . S
C55 C54 1.390 . S
C55 C56 1.392 . S
C56 H28 0.929 . S
C56 C53 1.391 1_655 S
C56 C55 1.392 . S
N57 Co1 2.257 . S
N57 C54 1.391 1_455 S
N57 C58 1.388 . S
C58 H29 0.930 . S
C58 C53 1.391 . S
C58 N57 1.388 . S
Co59 O61 2.143 . S
Co59 O67 2.074 . S
Co59 O70 2.093 . S
Co59 O83 2.097 . S
Co59 N100 2.151 . S
Co59 N108 2.214 . S
Co60 O61 2.160 . S
Co60 O66 2.058 . S
Co60 O76 2.057 . S
Co60 O91 2.037 . S
Co60 N95 2.145 . S
Co60 N116 2.257 . S
O61 Co59 2.143 . S
O61 Co60 2.160 . S
C62 O63 1.278 . S
C62 O70 1.224 . S
O63 C62 1.278 . S
C64 O65 1.245 . S
C64 O76 1.232 . S
O65 C64 1.245 . S
O66 Co60 2.058 . S
O66 C92 1.269 . S
O67 Co59 2.074 . S
O67 C92 1.257 . S
H68 C93 0.930 . S
H69 C99 0.930 . S
O70 Co59 2.093 . S
O70 C62 1.224 . S
H71 C103 0.929 . S
H72 C105 0.930 . S
H73 C106 0.930 . S
H74 C104 0.929 . S
H75 C107 0.928 . S
O76 Co60 2.057 . S
O76 C64 1.232 . S
H77 C96 0.929 . S
H78 C97 0.929 . S
H79 C109 0.931 . S
H80 C101 0.929 . S
H81 C110 0.930 . S
H82 C102 0.931 . S
O83 Co59 2.097 . S
O83 C111 1.214 . S
H84 C112 0.929 . S
H85 C113 0.929 . S
H86 C114 0.930 . S
H87 C115 0.929 . S
H88 C117 0.930 . S
H89 C94 0.930 . S
H90 C98 0.930 . S
O91 Co60 2.037 . S
O91 C111 1.234 . S
C92 O66 1.269 . S
C92 O67 1.257 . S
C93 H68 0.930 . S
C93 C96 1.388 . S
C93 C98 1.418 . S
C94 H89 0.930 . S
C94 C97 1.404 . S
C94 C98 1.353 . S
N95 Co60 2.145 . S
N95 C96 1.397 . S
N95 C97 1.334 . S
C96 H77 0.929 . S
C96 C93 1.388 . S
C96 N95 1.397 . S
C97 H78 0.929 . S
C97 C94 1.404 . S
C97 N95 1.334 . S
C98 H90 0.930 . S
C98 C93 1.418 . S
C98 C94 1.353 . S
C99 H69 0.930 . S
C99 N100 1.330 . S
C99 C101 1.446 . S
N100 Co59 2.151 . S
N100 C99 1.330 . S
N100 C104 1.418 . S
C101 H80 0.929 . S
C101 C99 1.446 . S
C101 C102 1.332 . S
C102 H82 0.931 . S
C102 C101 1.332 . S
C102 C103 1.267 . S
C103 H71 0.929 . S
C103 C102 1.267 . S
C103 C104 1.251 . S
C104 H74 0.929 . S
C104 N100 1.418 . S
C104 C103 1.251 . S
C105 H72 0.930 . S
C105 C107 1.406 . S
C105 C110 1.261 . S
C106 H73 0.930 . S
C106 N108 1.325 . S
C106 C109 1.357 . S
C107 H75 0.928 . S
C107 C105 1.406 . S
C107 N108 1.261 . S
N108 Co59 2.214 . S
N108 C106 1.325 . S
N108 C107 1.261 . S
C109 H79 0.931 . S
C109 C106 1.357 . S
C109 C110 1.312 . S
C110 H81 0.930 . S
C110 C105 1.261 . S
C110 C109 1.312 . S
C111 O83 1.214 . S
C111 O91 1.234 . S
C112 H84 0.929 . S
C112 C115 1.391 . S
C112 C117 1.391 . S
C113 H85 0.929 . S
C113 C114 1.390 . S
C113 N116 1.391 . S
C114 H86 0.930 . S
C114 C113 1.390 . S
C114 C115 1.392 . S
C115 H87 0.929 . S
C115 C112 1.391 . S
C115 C114 1.392 . S
N116 Co60 2.257 . S
N116 C113 1.391 . S
N116 C117 1.388 . S
C117 H88 0.930 . S
C117 C112 1.391 . S
C117 N116 1.388 . S
Co118 O120 2.143 . S
Co118 O126 2.074 . S
Co118 O129 2.093 . S
Co118 O142 2.097 . S
Co118 N159 2.151 . S
Co118 N167 2.214 . S
Co119 O120 2.160 . S
Co119 O125 2.058 1_545 S
Co119 O135 2.057 1_545 S
Co119 O150 2.037 . S
Co119 N154 2.134 1_545 S
Co119 N175 2.257 . S
O120 Co118 2.143 . S
O120 Co119 2.160 . S
C121 O122 1.278 . S
C121 O129 1.224 . S
O122 C121 1.278 . S
C123 O124 1.245 . S
C123 O135 1.232 . S
O124 C123 1.245 . S
O125 Co119 2.058 1_565 S
O125 C151 1.269 1_565 S
O126 Co118 2.074 . S
O126 C151 1.257 . S
H127 C152 0.930 . S
H128 C158 0.934 1_545 S
O129 Co118 2.093 . S
O129 C121 1.224 . S
H130 C162 0.929 . S
H131 C164 0.930 . S
H132 C165 0.930 . S
H133 C163 0.929 . S
H134 C166 0.928 . S
O135 Co119 2.057 1_565 S
O135 C123 1.232 . S
H136 C155 0.929 . S
H137 C156 0.929 . S
H138 C168 0.931 . S
H139 C160 0.929 . S
H140 C169 0.930 . S
H141 C161 0.931 . S
O142 Co118 2.097 . S
O142 C170 1.214 . S
H143 C171 0.929 . S
H144 C172 0.929 . S
H145 C173 0.930 . S
H146 C174 0.929 . S
H147 C176 0.945 . S
H148 C153 0.930 . S
H149 C157 0.930 . S
O150 Co119 2.037 . S
O150 C170 1.234 . S
C151 O125 1.269 1_545 S
C151 O126 1.257 . S
C152 H127 0.930 . S
C152 C155 1.388 . S
C152 C157 1.418 1_545 S
C153 H148 0.930 . S
C153 C156 1.404 . S
C153 C157 1.353 . S
N154 Co119 2.134 1_565 S
N154 C155 1.389 1_565 S
N154 C156 1.352 . S
C155 H136 0.929 . S
C155 C152 1.388 . S
C155 N154 1.389 1_545 S
C156 H137 0.929 . S
C156 C153 1.404 . S
C156 N154 1.352 . S
C157 H149 0.930 . S
C157 C152 1.418 1_565 S
C157 C153 1.353 . S
C158 H128 0.934 1_565 S
C158 N159 1.322 1_565 S
C158 C160 1.450 . S
N159 Co118 2.151 . S
N159 C158 1.322 1_545 S
N159 C163 1.418 . S
C160 H139 0.929 . S
C160 C158 1.450 . S
C160 C161 1.332 . S
C161 H141 0.931 . S
C161 C160 1.332 . S
C161 C162 1.267 . S
C162 H130 0.929 . S
C162 C161 1.267 . S
C162 C163 1.251 1_565 S
C163 H133 0.929 . S
C163 N159 1.418 . S
C163 C162 1.251 1_545 S
C164 H131 0.930 . S
C164 C166 1.406 . S
C164 C169 1.261 . S
C165 H132 0.930 . S
C165 N167 1.325 . S
C165 C168 1.357 . S
C166 H134 0.928 . S
C166 C164 1.406 . S
C166 N167 1.261 . S
N167 Co118 2.214 . S
N167 C165 1.325 . S
N167 C166 1.261 . S
C168 H138 0.931 . S
C168 C165 1.357 . S
C168 C169 1.312 . S
C169 H140 0.930 . S
C169 C164 1.261 . S
C169 C168 1.312 . S
C170 O142 1.214 . S
C170 O150 1.234 . S
C171 H143 0.929 . S
C171 C174 1.391 . S
C171 C176 1.391 . S
C172 H144 0.929 . S
C172 C173 1.390 . S
C172 N175 1.391 . S
C173 H145 0.930 . S
C173 C172 1.390 . S
C173 C174 1.392 . S
C174 H146 0.929 . S
C174 C171 1.391 . S
C174 C173 1.392 . S
N175 Co119 2.257 . S
N175 C172 1.391 . S
N175 C176 1.388 . S
C176 H147 0.945 . S
C176 C171 1.391 . S
C176 N175 1.388 . S
Co177 O179 2.143 . S
Co177 O185 2.074 . S
Co177 O188 2.093 1_455 S
Co177 O201 2.097 1_455 S
Co177 N218 2.151 . S
Co177 N226 2.214 1_455 S
Co178 O179 2.160 . S
Co178 O184 2.058 . S
Co178 O194 2.057 . S
Co178 O209 2.037 1_455 S
Co178 N213 2.145 . S
Co178 N234 2.257 . S
O179 Co177 2.143 . S
O179 Co178 2.160 . S
C180 O181 1.278 1_655 S
C180 O188 1.224 . S
O181 C180 1.278 1_455 S
C182 O183 1.245 . S
C182 O194 1.232 . S
O183 C182 1.245 . S
O184 Co178 2.058 . S
O184 C210 1.269 . S
O185 Co177 2.074 . S
O185 C210 1.257 . S
H186 C211 0.930 . S
H187 C217 0.930 . S
O188 Co177 2.093 1_655 S
O188 C180 1.224 . S
H189 C221 0.929 . S
H190 C223 0.930 . S
H191 C224 0.930 . S
H192 C222 0.929 . S
H193 C225 0.928 . S
O194 Co178 2.057 . S
O194 C182 1.232 . S
H195 C214 0.929 . S
H196 C215 0.929 . S
H197 C227 0.931 . S
H198 C219 0.929 . S
H199 C228 0.930 . S
H200 C220 0.931 . S
O201 Co177 2.097 1_655 S
O201 C229 1.214 . S
H202 C230 0.929 . S
H203 C231 0.929 . S
H204 C232 0.930 . S
H205 C233 0.929 . S
H206 C235 0.930 . S
H207 C212 0.930 . S
H208 C216 0.930 . S
O209 Co178 2.037 1_655 S
O209 C229 1.234 . S
C210 O184 1.269 . S
C210 O185 1.257 . S
C211 H186 0.930 . S
C211 C214 1.388 . S
C211 C216 1.418 . S
C212 H207 0.930 . S
C212 C215 1.404 . S
C212 C216 1.353 . S
N213 Co178 2.145 . S
N213 C214 1.397 . S
N213 C215 1.334 . S
C214 H195 0.929 . S
C214 C211 1.388 . S
C214 N213 1.397 . S
C215 H196 0.929 . S
C215 C212 1.404 . S
C215 N213 1.334 . S
C216 H208 0.930 . S
C216 C211 1.418 . S
C216 C212 1.353 . S
C217 H187 0.930 . S
C217 N218 1.330 . S
C217 C219 1.446 . S
N218 Co177 2.151 . S
N218 C217 1.330 . S
N218 C222 1.418 . S
C219 H198 0.929 . S
C219 C217 1.446 . S
C219 C220 1.332 . S
C220 H200 0.931 . S
C220 C219 1.332 . S
C220 C221 1.267 . S
C221 H189 0.929 . S
C221 C220 1.267 . S
C221 C222 1.251 . S
C222 H192 0.929 . S
C222 N218 1.418 . S
C222 C221 1.251 . S
C223 H190 0.930 . S
C223 C225 1.406 . S
C223 C228 1.261 . S
C224 H191 0.930 . S
C224 N226 1.325 . S
C224 C227 1.357 . S
C225 H193 0.928 . S
C225 C223 1.406 . S
C225 N226 1.261 . S
N226 Co177 2.214 1_655 S
N226 C224 1.325 . S
N226 C225 1.261 . S
C227 H197 0.931 . S
C227 C224 1.357 . S
C227 C228 1.312 . S
C228 H199 0.930 . S
C228 C223 1.261 . S
C228 C227 1.312 . S
C229 O201 1.214 . S
C229 O209 1.234 . S
C230 H202 0.929 . S
C230 C233 1.391 1_455 S
C230 C235 1.391 . S
C231 H203 0.929 . S
C231 C232 1.390 . S
C231 N234 1.391 1_655 S
C232 H204 0.930 . S
C232 C231 1.390 . S
C232 C233 1.392 . S
C233 H205 0.929 . S
C233 C230 1.391 1_655 S
C233 C232 1.392 . S
N234 Co178 2.257 . S
N234 C231 1.391 1_455 S
N234 C235 1.388 . S
C235 H206 0.930 . S
C235 C230 1.391 . S
C235 N234 1.388 . S
Co236 O238 2.143 . S
Co236 O244 2.074 . S
Co236 O247 2.093 . S
Co236 O260 2.097 . S
Co236 N277 2.151 . S
Co236 N285 2.214 . S
Co237 O238 2.160 . S
Co237 O243 2.058 . S
Co237 O253 2.057 . S
Co237 O268 2.037 . S
Co237 N272 2.145 . S
Co237 N293 2.257 . S
O238 Co236 2.143 . S
O238 Co237 2.160 . S
C239 O240 1.278 . S
C239 O247 1.224 . S
O240 C239 1.278 . S
C241 O242 1.245 . S
C241 O253 1.232 . S
O242 C241 1.245 . S
O243 Co237 2.058 . S
O243 C269 1.269 . S
O244 Co236 2.074 . S
O244 C269 1.257 . S
H245 C270 0.930 . S
H246 C276 0.930 . S
O247 Co236 2.093 . S
O247 C239 1.224 . S
H248 C280 0.929 . S
H249 C282 0.930 . S
H250 C283 0.930 . S
H251 C281 0.929 . S
H252 C284 0.928 . S
O253 Co237 2.057 . S
O253 C241 1.232 . S
H254 C273 0.929 . S
H255 C274 0.929 . S
H256 C286 0.931 . S
H257 C278 0.929 . S
H258 C287 0.930 . S
H259 C279 0.931 . S
O260 Co236 2.097 . S
O260 C288 1.214 . S
H261 C289 0.929 . S
H262 C290 0.929 . S
H263 C291 0.930 . S
H264 C292 0.929 . S
H265 C294 0.930 . S
H266 C271 0.930 . S
H267 C275 0.930 . S
O268 Co237 2.037 . S
O268 C288 1.234 . S
C269 O243 1.269 . S
C269 O244 1.257 . S
C270 H245 0.930 . S
C270 C273 1.388 . S
C270 C275 1.418 . S
C271 H266 0.930 . S
C271 C274 1.404 . S
C271 C275 1.353 . S
N272 Co237 2.145 . S
N272 C273 1.397 . S
N272 C274 1.334 . S
C273 H254 0.929 . S
C273 C270 1.388 . S
C273 N272 1.397 . S
C274 H255 0.929 . S
C274 C271 1.404 . S
C274 N272 1.334 . S
C275 H267 0.930 . S
C275 C270 1.418 . S
C275 C271 1.353 . S
C276 H246 0.930 . S
C276 N277 1.330 . S
C276 C278 1.446 . S
N277 Co236 2.151 . S
N277 C276 1.330 . S
N277 C281 1.418 . S
C278 H257 0.929 . S
C278 C276 1.446 . S
C278 C279 1.332 . S
C279 H259 0.931 . S
C279 C278 1.332 . S
C279 C280 1.267 . S
C280 H248 0.929 . S
C280 C279 1.267 . S
C280 C281 1.251 . S
C281 H251 0.929 . S
C281 N277 1.418 . S
C281 C280 1.251 . S
C282 H249 0.930 . S
C282 C284 1.406 . S
C282 C287 1.261 . S
C283 H250 0.930 . S
C283 N285 1.325 . S
C283 C286 1.357 . S
C284 H252 0.928 . S
C284 C282 1.406 . S
C284 N285 1.261 . S
N285 Co236 2.214 . S
N285 C283 1.325 . S
N285 C284 1.261 . S
C286 H256 0.931 . S
C286 C283 1.357 . S
C286 C287 1.312 . S
C287 H258 0.930 . S
C287 C282 1.261 . S
C287 C286 1.312 . S
C288 O260 1.214 . S
C288 O268 1.234 . S
C289 H261 0.929 . S
C289 C292 1.391 . S
C289 C294 1.391 . S
C290 H262 0.929 . S
C290 C291 1.390 . S
C290 N293 1.391 . S
C291 H263 0.930 . S
C291 C290 1.390 . S
C291 C292 1.392 . S
C292 H264 0.929 . S
C292 C289 1.391 . S
C292 C291 1.392 . S
N293 Co237 2.257 . S
N293 C290 1.391 . S
N293 C294 1.388 . S
C294 H265 0.930 . S
C294 C289 1.391 . S
C294 N293 1.388 . S
Co295 O297 2.143 1_565 S
Co295 O303 2.074 . S
Co295 O306 2.093 . S
Co295 O319 2.097 . S
Co295 N336 2.151 1_565 S
Co295 N344 2.214 . S
Co296 O297 2.160 . S
Co296 O302 2.058 . S
Co296 O312 2.057 . S
Co296 O327 2.037 1_545 S
Co296 N331 2.145 . S
Co296 N352 2.258 1_545 S
O297 Co295 2.143 1_545 S
O297 Co296 2.160 . S
C298 O299 1.278 . S
C298 O306 1.224 . S
O299 C298 1.278 . S
C300 O301 1.245 . S
C300 O312 1.232 . S
O301 C300 1.245 . S
O302 Co296 2.058 . S
O302 C328 1.269 . S
O303 Co295 2.074 . S
O303 C328 1.257 1_565 S
H304 C329 0.916 1_565 S
H305 C335 0.930 . S
O306 Co295 2.093 . S
O306 C298 1.224 . S
H307 C339 0.929 . S
H308 C341 0.930 . S
H309 C342 0.930 . S
H310 C340 0.929 . S
H311 C343 0.928 . S
O312 Co296 2.057 . S
O312 C300 1.232 . S
H313 C332 0.929 1_565 S
H314 C333 0.929 . S
H315 C345 0.931 . S
H316 C337 0.929 . S
H317 C346 0.930 . S
H318 C338 0.931 . S
O319 Co295 2.097 . S
O319 C347 1.214 . S
H320 C348 0.929 1_545 S
H321 C349 0.929 . S
H322 C350 0.930 . S
H323 C351 0.929 . S
H324 C353 0.930 . S
H325 C330 0.930 . S
H326 C334 0.930 . S
O327 Co296 2.037 1_565 S
O327 C347 1.234 . S
C328 O302 1.269 . S
C328 O303 1.257 1_545 S
C329 H304 0.916 1_545 S
C329 C332 1.388 . S
C329 C334 1.418 . S
C330 H325 0.930 . S
C330 C333 1.404 . S
C330 C334 1.353 . S
N331 Co296 2.145 . S
N331 C332 1.397 . S
N331 C333 1.334 . S
C332 H313 0.929 1_545 S
C332 C329 1.388 . S
C332 N331 1.397 . S
C333 H314 0.929 . S
C333 C330 1.404 . S
C333 N331 1.334 . S
C334 H326 0.930 . S
C334 C329 1.418 . S
C334 C330 1.353 . S
C335 H305 0.930 . S
C335 N336 1.330 . S
C335 C337 1.446 . S
N336 Co295 2.151 1_545 S
N336 C335 1.330 . S
N336 C340 1.418 . S
C337 H316 0.929 . S
C337 C335 1.446 . S
C337 C338 1.332 . S
C338 H318 0.931 . S
C338 C337 1.332 . S
C338 C339 1.267 . S
C339 H307 0.929 . S
C339 C338 1.267 . S
C339 C340 1.251 . S
C340 H310 0.929 . S
C340 N336 1.418 . S
C340 C339 1.251 . S
C341 H308 0.930 . S
C341 C343 1.406 . S
C341 C346 1.261 . S
C342 H309 0.930 . S
C342 N344 1.325 . S
C342 C345 1.357 . S
C343 H311 0.928 . S
C343 C341 1.406 . S
C343 N344 1.261 . S
N344 Co295 2.214 . S
N344 C342 1.325 . S
N344 C343 1.261 . S
C345 H315 0.931 . S
C345 C342 1.357 . S
C345 C346 1.312 . S
C346 H317 0.930 . S
C346 C341 1.261 . S
C346 C345 1.312 . S
C347 O319 1.214 . S
C347 O327 1.234 . S
C348 H320 0.929 1_565 S
C348 C351 1.391 . S
C348 C353 1.391 1_565 S
C349 H321 0.929 . S
C349 C350 1.390 . S
C349 N352 1.400 . S
C350 H322 0.930 . S
C350 C349 1.390 . S
C350 C351 1.392 . S
C351 H323 0.929 . S
C351 C348 1.391 . S
C351 C350 1.392 . S
N352 Co296 2.258 1_565 S
N352 C349 1.400 . S
N352 C353 1.382 1_565 S
C353 H324 0.930 . S
C353 C348 1.391 1_545 S
C353 N352 1.382 1_545 S
Co354 O356 2.143 . S
Co354 O362 2.074 . S
Co354 O365 2.093 . S
Co354 O378 2.097 . S
Co354 N395 2.151 . S
Co354 N403 2.214 . S
Co355 O356 2.160 . S
Co355 O361 2.058 . S
Co355 O371 2.057 . S
Co355 O386 2.037 . S
Co355 N390 2.145 . S
Co355 N411 2.257 . S
O356 Co354 2.143 . S
O356 Co355 2.160 . S
C357 O358 1.278 . S
C357 O365 1.224 . S
O358 C357 1.278 . S
C359 O360 1.245 . S
C359 O371 1.232 . S
O360 C359 1.245 . S
O361 Co355 2.058 . S
O361 C387 1.269 . S
O362 Co354 2.074 . S
O362 C387 1.257 . S
H363 C388 0.930 . S
H364 C394 0.930 . S
O365 Co354 2.093 . S
O365 C357 1.224 . S
H366 C398 0.929 . S
H367 C400 0.930 . S
H368 C401 0.930 . S
H369 C399 0.929 . S
H370 C402 0.928 . S
O371 Co355 2.057 . S
O371 C359 1.232 . S
H372 C391 0.929 . S
H373 C392 0.929 . S
H374 C404 0.931 . S
H375 C396 0.929 . S
H376 C405 0.930 . S
H377 C397 0.931 . S
O378 Co354 2.097 . S
O378 C406 1.214 . S
H379 C407 0.929 . S
H380 C408 0.929 . S
H381 C409 0.930 . S
H382 C410 0.929 . S
H383 C412 0.930 . S
H384 C389 0.930 . S
H385 C393 0.930 . S
O386 Co355 2.037 . S
O386 C406 1.234 . S
C387 O361 1.269 . S
C387 O362 1.257 . S
C388 H363 0.930 . S
C388 C391 1.388 . S
C388 C393 1.418 . S
C389 H384 0.930 . S
C389 C392 1.404 . S
C389 C393 1.353 . S
N390 Co355 2.145 . S
N390 C391 1.397 . S
N390 C392 1.334 . S
C391 H372 0.929 . S
C391 C388 1.388 . S
C391 N390 1.397 . S
C392 H373 0.929 . S
C392 C389 1.404 . S
C392 N390 1.334 . S
C393 H385 0.930 . S
C393 C388 1.418 . S
C393 C389 1.353 . S
C394 H364 0.930 . S
C394 N395 1.330 . S
C394 C396 1.446 . S
N395 Co354 2.151 . S
N395 C394 1.330 . S
N395 C399 1.418 . S
C396 H375 0.929 . S
C396 C394 1.446 . S
C396 C397 1.332 . S
C397 H377 0.931 . S
C397 C396 1.332 . S
C397 C398 1.267 . S
C398 H366 0.929 . S
C398 C397 1.267 . S
C398 C399 1.251 . S
C399 H369 0.929 . S
C399 N395 1.418 . S
C399 C398 1.251 . S
C400 H367 0.930 . S
C400 C402 1.406 1_565 S
C400 C405 1.261 . S
C401 H368 0.930 . S
C401 N403 1.325 . S
C401 C404 1.357 . S
C402 H370 0.928 . S
C402 C400 1.406 1_545 S
C402 N403 1.261 . S
N403 Co354 2.214 . S
N403 C401 1.325 . S
N403 C402 1.261 . S
C404 H374 0.931 . S
C404 C401 1.357 . S
C404 C405 1.312 1_545 S
C405 H376 0.930 . S
C405 C400 1.261 . S
C405 C404 1.312 1_565 S
C406 O378 1.214 . S
C406 O386 1.234 . S
C407 H379 0.929 . S
C407 C410 1.391 . S
C407 C412 1.391 . S
C408 H380 0.929 . S
C408 C409 1.390 . S
C408 N411 1.391 . S
C409 H381 0.930 . S
C409 C408 1.390 . S
C409 C410 1.392 . S
C410 H382 0.929 . S
C410 C407 1.391 . S
C410 C409 1.392 . S
N411 Co355 2.257 . S
N411 C408 1.391 . S
N411 C412 1.388 . S
C412 H383 0.930 . S
C412 C407 1.391 . S
C412 N411 1.388 . S
Co413 O415 2.143 . S
Co413 O421 2.074 . S
Co413 O424 2.093 . S
Co413 O437 2.097 . S
Co413 N454 2.125 1_655 S
Co413 N462 2.214 . S
Co414 O415 2.160 . S
Co414 O420 2.058 . S
Co414 O430 2.057 . S
Co414 O445 2.037 . S
Co414 N449 2.145 . S
Co414 N470 2.257 . S
O415 Co413 2.143 . S
O415 Co414 2.160 . S
C416 O417 1.278 . S
C416 O424 1.224 . S
O417 C416 1.278 . S
C418 O419 1.245 . S
C418 O430 1.232 . S
O419 C418 1.245 . S
O420 Co414 2.058 . S
O420 C446 1.269 . S
O421 Co413 2.074 . S
O421 C446 1.257 . S
H422 C447 0.930 . S
H423 C453 0.930 1_655 S
O424 Co413 2.093 . S
O424 C416 1.224 . S
H425 C457 0.929 . S
H426 C459 0.930 1_455 S
H427 C460 0.930 . S
H428 C458 0.929 . S
H429 C461 0.928 . S
O430 Co414 2.057 . S
O430 C418 1.232 . S
H431 C450 0.929 . S
H432 C451 0.929 . S
H433 C463 0.931 . S
H434 C455 0.929 . S
H435 C464 0.930 . S
H436 C456 0.931 . S
O437 Co413 2.097 . S
O437 C465 1.214 . S
H438 C466 0.929 . S
H439 C467 0.929 . S
H440 C468 0.930 . S
H441 C469 0.929 . S
H442 C471 0.930 . S
H443 C448 0.930 . S
H444 C452 0.930 . S
O445 Co414 2.037 . S
O445 C465 1.234 . S
C446 O420 1.269 . S
C446 O421 1.257 . S
C447 H422 0.930 . S
C447 C450 1.388 . S
C447 C452 1.418 . S
C448 H443 0.930 . S
C448 C451 1.404 . S
C448 C452 1.353 . S
N449 Co414 2.145 . S
N449 C450 1.397 . S
N449 C451 1.334 . S
C450 H431 0.929 . S
C450 C447 1.388 . S
C450 N449 1.397 . S
C451 H432 0.929 . S
C451 C448 1.404 . S
C451 N449 1.334 . S
C452 H444 0.930 . S
C452 C447 1.418 . S
C452 C448 1.353 . S
C453 H423 0.930 1_455 S
C453 N454 1.342 . S
C453 C455 1.446 . S
N454 Co413 2.125 1_455 S
N454 C453 1.342 . S
N454 C458 1.432 . S
C455 H434 0.929 . S
C455 C453 1.446 . S
C455 C456 1.332 . S
C456 H436 0.931 . S
C456 C455 1.332 . S
C456 C457 1.267 . S
C457 H425 0.929 . S
C457 C456 1.267 . S
C457 C458 1.251 . S
C458 H428 0.929 . S
C458 N454 1.432 . S
C458 C457 1.251 . S
C459 H426 0.930 1_655 S
C459 C461 1.406 . S
C459 C464 1.261 . S
C460 H427 0.930 . S
C460 N462 1.325 . S
C460 C463 1.357 . S
C461 H429 0.928 . S
C461 C459 1.406 . S
C461 N462 1.261 . S
N462 Co413 2.214 . S
N462 C460 1.325 . S
N462 C461 1.261 . S
C463 H433 0.931 . S
C463 C460 1.357 . S
C463 C464 1.312 . S
C464 H435 0.930 . S
C464 C459 1.261 . S
C464 C463 1.312 . S
C465 O437 1.214 . S
C465 O445 1.234 . S
C466 H438 0.929 . S
C466 C469 1.391 . S
C466 C471 1.391 . S
C467 H439 0.929 . S
C467 C468 1.390 . S
C467 N470 1.391 . S
C468 H440 0.930 . S
C468 C467 1.390 . S
C468 C469 1.392 . S
C469 H441 0.929 . S
C469 C466 1.391 . S
C469 C468 1.392 . S
N470 Co414 2.257 . S
N470 C467 1.391 . S
N470 C471 1.388 . S
C471 H442 0.930 . S
C471 C466 1.391 . S
C471 N470 1.388 . S
Co472 O474 2.143 . S
Co472 O480 2.074 . S
Co472 O483 2.093 . S
Co472 O496 2.097 . S
Co472 N513 2.151 . S
Co472 N521 2.214 . S
Co473 O474 2.160 . S
Co473 O479 2.058 . S
Co473 O489 2.057 . S
Co473 O504 2.037 . S
Co473 N508 2.145 . S
Co473 N529 2.257 . S
O474 Co472 2.143 . S
O474 Co473 2.160 . S
C475 O476 1.278 . S
C475 O483 1.224 . S
O476 C475 1.278 . S
C477 O478 1.245 . S
C477 O489 1.232 . S
O478 C477 1.245 . S
O479 Co473 2.058 . S
O479 C505 1.269 . S
O480 Co472 2.074 . S
O480 C505 1.257 . S
H481 C506 0.930 . S
H482 C512 0.930 . S
O483 Co472 2.093 . S
O483 C475 1.224 . S
H484 C516 0.929 . S
H485 C518 0.930 . S
H486 C519 0.930 . S
H487 C517 0.929 . S
H488 C520 0.928 . S
O489 Co473 2.057 . S
O489 C477 1.232 . S
H490 C509 0.929 . S
H491 C510 0.929 . S
H492 C522 0.931 . S
H493 C514 0.929 . S
H494 C523 0.930 . S
H495 C515 0.931 . S
O496 Co472 2.097 . S
O496 C524 1.214 . S
H497 C525 0.929 . S
H498 C526 0.929 . S
H499 C527 0.930 . S
H500 C528 0.929 . S
H501 C530 0.930 . S
H502 C507 0.930 . S
H503 C511 0.930 . S
O504 Co473 2.037 . S
O504 C524 1.234 . S
C505 O479 1.269 . S
C505 O480 1.257 . S
C506 H481 0.930 . S
C506 C509 1.388 . S
C506 C511 1.418 . S
C507 H502 0.930 . S
C507 C510 1.404 . S
C507 C511 1.353 . S
N508 Co473 2.145 . S
N508 C509 1.397 . S
N508 C510 1.334 . S
C509 H490 0.929 . S
C509 C506 1.388 . S
C509 N508 1.397 . S
C510 H491 0.929 . S
C510 C507 1.404 . S
C510 N508 1.334 . S
C511 H503 0.930 . S
C511 C506 1.418 . S
C511 C507 1.353 . S
C512 H482 0.930 . S
C512 N513 1.330 . S
C512 C514 1.446 . S
N513 Co472 2.151 . S
N513 C512 1.330 . S
N513 C517 1.418 . S
C514 H493 0.929 . S
C514 C512 1.446 . S
C514 C515 1.332 . S
C515 H495 0.931 . S
C515 C514 1.332 . S
C515 C516 1.267 . S
C516 H484 0.929 . S
C516 C515 1.267 . S
C516 C517 1.251 . S
C517 H487 0.929 . S
C517 N513 1.418 . S
C517 C516 1.251 . S
C518 H485 0.930 . S
C518 C520 1.406 . S
C518 C523 1.261 . S
C519 H486 0.930 . S
C519 N521 1.325 . S
C519 C522 1.357 . S
C520 H488 0.928 . S
C520 C518 1.406 . S
C520 N521 1.261 . S
N521 Co472 2.214 . S
N521 C519 1.325 . S
N521 C520 1.261 . S
C522 H492 0.931 . S
C522 C519 1.357 . S
C522 C523 1.312 . S
C523 H494 0.930 . S
C523 C518 1.261 . S
C523 C522 1.312 . S
C524 O496 1.214 . S
C524 O504 1.234 . S
C525 H497 0.929 . S
C525 C528 1.391 . S
C525 C530 1.391 . S
C526 H498 0.929 . S
C526 C527 1.390 . S
C526 N529 1.391 . S
C527 H499 0.930 . S
C527 C526 1.390 . S
C527 C528 1.392 . S
C528 H500 0.929 . S
C528 C525 1.391 . S
C528 C527 1.392 . S
N529 Co473 2.257 . S
N529 C526 1.391 . S
N529 C530 1.388 . S
C530 H501 0.930 . S
C530 C525 1.391 . S
C530 N529 1.388 . S
Co531 O533 2.143 . S
Co531 O539 2.074 . S
Co531 O542 2.093 . S
Co531 O555 2.097 . S
Co531 N572 2.151 . S
Co531 N580 2.214 . S
Co532 O533 2.160 . S
Co532 O538 2.058 . S
Co532 O548 2.057 . S
Co532 O563 2.037 . S
Co532 N567 2.145 . S
Co532 N588 2.257 . S
O533 Co531 2.143 . S
O533 Co532 2.160 . S
C534 O535 1.278 . S
C534 O542 1.224 . S
O535 C534 1.278 . S
C536 O537 1.245 . S
C536 O548 1.232 . S
O537 C536 1.245 . S
O538 Co532 2.058 . S
O538 C564 1.269 . S
O539 Co531 2.074 . S
O539 C564 1.257 . S
H540 C565 0.930 . S
H541 C571 0.930 . S
O542 Co531 2.093 . S
O542 C534 1.224 . S
H543 C575 0.929 . S
H544 C577 0.930 . S
H545 C578 0.930 . S
H546 C576 0.929 . S
H547 C579 0.928 . S
O548 Co532 2.057 . S
O548 C536 1.232 . S
H549 C568 0.929 . S
H550 C569 0.929 . S
H551 C581 0.931 . S
H552 C573 0.929 . S
H553 C582 0.930 . S
H554 C574 0.931 . S
O555 Co531 2.097 . S
O555 C583 1.214 . S
H556 C584 0.929 1_556 S
H557 C585 0.929 . S
H558 C586 0.930 . S
H559 C587 0.929 1_556 S
H560 C589 0.930 . S
H561 C566 0.930 . S
H562 C570 0.930 . S
O563 Co532 2.037 . S
O563 C583 1.234 . S
C564 O538 1.269 . S
C564 O539 1.257 . S
C565 H540 0.930 . S
C565 C568 1.388 . S
C565 C570 1.418 . S
C566 H561 0.930 . S
C566 C569 1.404 . S
C566 C570 1.353 . S
N567 Co532 2.145 . S
N567 C568 1.397 . S
N567 C569 1.334 . S
C568 H549 0.929 . S
C568 C565 1.388 . S
C568 N567 1.397 . S
C569 H550 0.929 . S
C569 C566 1.404 . S
C569 N567 1.334 . S
C570 H562 0.930 . S
C570 C565 1.418 . S
C570 C566 1.353 . S
C571 H541 0.930 . S
C571 N572 1.330 . S
C571 C573 1.446 . S
N572 Co531 2.151 . S
N572 C571 1.330 . S
N572 C576 1.418 . S
C573 H552 0.929 . S
C573 C571 1.446 . S
C573 C574 1.332 . S
C574 H554 0.931 . S
C574 C573 1.332 . S
C574 C575 1.267 . S
C575 H543 0.929 . S
C575 C574 1.267 . S
C575 C576 1.251 . S
C576 H546 0.929 . S
C576 N572 1.418 . S
C576 C575 1.251 . S
C577 H544 0.930 . S
C577 C579 1.406 . S
C577 C582 1.261 . S
C578 H545 0.930 . S
C578 N580 1.325 . S
C578 C581 1.357 . S
C579 H547 0.928 . S
C579 C577 1.406 . S
C579 N580 1.261 . S
N580 Co531 2.214 . S
N580 C578 1.325 . S
N580 C579 1.261 . S
C581 H551 0.931 . S
C581 C578 1.357 . S
C581 C582 1.312 . S
C582 H553 0.930 . S
C582 C577 1.261 . S
C582 C581 1.312 . S
C583 O555 1.214 . S
C583 O563 1.234 . S
C584 H556 0.929 1_554 S
C584 C587 1.391 . S
C584 C589 1.391 . S
C585 H557 0.929 . S
C585 C586 1.390 . S
C585 N588 1.391 . S
C586 H558 0.930 . S
C586 C585 1.390 . S
C586 C587 1.392 . S
C587 H559 0.929 1_554 S
C587 C584 1.391 . S
C587 C586 1.392 . S
N588 Co532 2.257 . S
N588 C585 1.391 . S
N588 C589 1.388 . S
C589 H560 0.930 . S
C589 C584 1.391 . S
C589 N588 1.388 . S
Co590 O592 2.143 . S
Co590 O598 2.074 . S
Co590 O601 2.093 . S
Co590 O614 2.097 . S
Co590 N631 2.129 1_545 S
Co590 N639 2.214 . S
Co591 O592 2.160 . S
Co591 O597 2.058 . S
Co591 O607 2.057 . S
Co591 O622 2.037 . S
Co591 N626 2.145 . S
Co591 N647 2.257 . S
O592 Co590 2.143 . S
O592 Co591 2.160 . S
C593 O594 1.278 . S
C593 O601 1.224 . S
O594 C593 1.278 . S
C595 O596 1.245 . S
C595 O607 1.232 . S
O596 C595 1.245 . S
O597 Co591 2.058 . S
O597 C623 1.269 . S
O598 Co590 2.074 . S
O598 C623 1.257 . S
H599 C624 0.930 . S
H600 C630 0.930 1_545 S
O601 Co590 2.093 . S
O601 C593 1.224 . S
H602 C634 0.929 . S
H603 C636 0.930 1_565 S
H604 C637 0.930 . S
H605 C635 0.929 . S
H606 C638 0.928 . S
O607 Co591 2.057 . S
O607 C595 1.232 . S
H608 C627 0.929 . S
H609 C628 0.929 . S
H610 C640 0.931 . S
H611 C632 0.929 . S
H612 C641 0.930 . S
H613 C633 0.931 . S
O614 Co590 2.097 . S
O614 C642 1.214 . S
H615 C643 0.929 1_556 S
H616 C644 0.929 . S
H617 C645 0.930 . S
H618 C646 0.929 . S
H619 C648 0.930 . S
H620 C625 0.930 . S
H621 C629 0.930 . S
O622 Co591 2.037 . S
O622 C642 1.234 . S
C623 O597 1.269 . S
C623 O598 1.257 . S
C624 H599 0.930 . S
C624 C627 1.388 . S
C624 C629 1.418 . S
C625 H620 0.930 . S
C625 C628 1.404 . S
C625 C629 1.353 . S
N626 Co591 2.145 . S
N626 C627 1.397 . S
N626 C628 1.334 . S
C627 H608 0.929 . S
C627 C624 1.388 . S
C627 N626 1.397 . S
C628 H609 0.929 . S
C628 C625 1.404 . S
C628 N626 1.334 . S
C629 H621 0.930 . S
C629 C624 1.418 . S
C629 C625 1.353 . S
C630 H600 0.930 1_565 S
C630 N631 1.339 . S
C630 C632 1.446 . S
N631 Co590 2.129 1_565 S
N631 C630 1.339 . S
N631 C635 1.431 . S
C632 H611 0.929 . S
C632 C630 1.446 . S
C632 C633 1.332 . S
C633 H613 0.931 . S
C633 C632 1.332 . S
C633 C634 1.267 . S
C634 H602 0.929 . S
C634 C633 1.267 . S
C634 C635 1.251 . S
C635 H605 0.929 . S
C635 N631 1.431 . S
C635 C634 1.251 . S
C636 H603 0.930 1_545 S
C636 C638 1.406 . S
C636 C641 1.261 . S
C637 H604 0.930 . S
C637 N639 1.325 . S
C637 C640 1.357 . S
C638 H606 0.928 . S
C638 C636 1.406 . S
C638 N639 1.261 . S
N639 Co590 2.214 . S
N639 C637 1.325 . S
N639 C638 1.261 . S
C640 H610 0.931 . S
C640 C637 1.357 . S
C640 C641 1.312 . S
C641 H612 0.930 . S
C641 C636 1.261 . S
C641 C640 1.312 . S
C642 O614 1.214 . S
C642 O622 1.234 . S
C643 H615 0.929 1_554 S
C643 C646 1.391 . S
C643 C648 1.391 . S
C644 H616 0.929 . S
C644 C645 1.390 . S
C644 N647 1.391 . S
C645 H617 0.930 . S
C645 C644 1.390 . S
C645 C646 1.392 . S
C646 H618 0.929 . S
C646 C643 1.391 . S
C646 C645 1.392 . S
N647 Co591 2.257 . S
N647 C644 1.391 . S
N647 C648 1.388 . S
C648 H619 0.930 . S
C648 C643 1.391 . S
C648 N647 1.388 . S
Co649 O651 2.143 . S
Co649 O657 2.074 . S
Co649 O660 2.093 . S
Co649 O673 2.097 . S
Co649 N690 2.151 1_655 S
Co649 N698 2.214 . S
Co650 O651 2.160 . S
Co650 O656 2.058 . S
Co650 O666 2.057 . S
Co650 O681 2.037 . S
Co650 N685 2.145 . S
Co650 N706 2.257 . S
O651 Co649 2.143 . S
O651 Co650 2.160 . S
C652 O653 1.278 . S
C652 O660 1.224 . S
O653 C652 1.278 . S
C654 O655 1.245 . S
C654 O666 1.232 . S
O655 C654 1.245 . S
O656 Co650 2.058 . S
O656 C682 1.269 . S
O657 Co649 2.074 . S
O657 C682 1.257 . S
H658 C683 0.930 . S
H659 C689 0.919 1_655 S
O660 Co649 2.093 . S
O660 C652 1.224 . S
H661 C693 0.929 . S
H662 C695 0.930 1_455 S
H663 C696 0.930 . S
H664 C694 0.929 . S
H665 C697 0.928 . S
O666 Co650 2.057 . S
O666 C654 1.232 . S
H667 C686 0.929 . S
H668 C687 0.929 . S
H669 C699 0.931 . S
H670 C691 0.929 . S
H671 C700 0.930 . S
H672 C692 0.931 . S
O673 Co649 2.097 . S
O673 C701 1.214 . S
H674 C702 0.929 . S
H675 C703 0.929 . S
H676 C704 0.930 . S
H677 C705 0.929 1_556 S
H678 C707 0.930 . S
H679 C684 0.930 . S
H680 C688 0.930 . S
O681 Co650 2.037 . S
O681 C701 1.234 . S
C682 O656 1.269 . S
C682 O657 1.257 . S
C683 H658 0.930 . S
C683 C686 1.388 . S
C683 C688 1.418 . S
C684 H679 0.930 . S
C684 C687 1.404 . S
C684 C688 1.353 . S
N685 Co650 2.145 . S
N685 C686 1.397 . S
N685 C687 1.334 . S
C686 H667 0.929 . S
C686 C683 1.388 . S
C686 N685 1.397 . S
C687 H668 0.929 . S
C687 C684 1.404 . S
C687 N685 1.334 . S
C688 H680 0.930 . S
C688 C683 1.418 . S
C688 C684 1.353 . S
C689 H659 0.919 1_455 S
C689 N690 1.330 . S
C689 C691 1.446 . S
N690 Co649 2.151 1_455 S
N690 C689 1.330 . S
N690 C694 1.418 . S
C691 H670 0.929 . S
C691 C689 1.446 . S
C691 C692 1.332 . S
C692 H672 0.931 . S
C692 C691 1.332 . S
C692 C693 1.267 . S
C693 H661 0.929 . S
C693 C692 1.267 . S
C693 C694 1.251 . S
C694 H664 0.929 . S
C694 N690 1.418 . S
C694 C693 1.251 . S
C695 H662 0.930 1_655 S
C695 C697 1.406 . S
C695 C700 1.261 . S
C696 H663 0.930 . S
C696 N698 1.325 . S
C696 C699 1.357 . S
C697 H665 0.928 . S
C697 C695 1.406 . S
C697 N698 1.261 . S
N698 Co649 2.214 . S
N698 C696 1.325 . S
N698 C697 1.261 . S
C699 H669 0.931 . S
C699 C696 1.357 . S
C699 C700 1.312 . S
C700 H671 0.930 . S
C700 C695 1.261 . S
C700 C699 1.312 . S
C701 O673 1.214 . S
C701 O681 1.234 . S
C702 H674 0.929 . S
C702 C705 1.391 1_556 S
C702 C707 1.391 1_556 S
C703 H675 0.929 . S
C703 C704 1.390 . S
C703 N706 1.391 . S
C704 H676 0.930 . S
C704 C703 1.390 . S
C704 C705 1.392 . S
C705 H677 0.929 1_554 S
C705 C702 1.391 1_554 S
C705 C704 1.392 . S
N706 Co650 2.257 . S
N706 C703 1.391 . S
N706 C707 1.388 . S
C707 H678 0.930 . S
C707 C702 1.391 1_554 S
C707 N706 1.388 . S
Co708 O710 2.143 . S
Co708 O716 2.074 . S
Co708 O719 2.093 . S
Co708 O732 2.097 . S
Co708 N749 2.151 . S
Co708 N757 2.214 . S
Co709 O710 2.160 . S
Co709 O715 2.058 . S
Co709 O725 2.057 . S
Co709 O740 2.037 . S
Co709 N744 2.145 . S
Co709 N765 2.257 . S
O710 Co708 2.143 . S
O710 Co709 2.160 . S
C711 O712 1.278 . S
C711 O719 1.224 . S
O712 C711 1.278 . S
C713 O714 1.245 . S
C713 O725 1.232 . S
O714 C713 1.245 . S
O715 Co709 2.058 . S
O715 C741 1.269 . S
O716 Co708 2.074 . S
O716 C741 1.257 . S
H717 C742 0.930 . S
H718 C748 0.930 . S
O719 Co708 2.093 . S
O719 C711 1.224 . S
H720 C752 0.929 . S
H721 C754 0.930 . S
H722 C755 0.930 . S
H723 C753 0.929 . S
H724 C756 0.928 . S
O725 Co709 2.057 . S
O725 C713 1.232 . S
H726 C745 0.929 . S
H727 C746 0.929 . S
H728 C758 0.931 . S
H729 C750 0.929 . S
H730 C759 0.930 . S
H731 C751 0.931 . S
O732 Co708 2.097 . S
O732 C760 1.214 . S
H733 C761 0.929 . S
H734 C762 0.929 . S
H735 C763 0.930 . S
H736 C764 0.929 1_554 S
H737 C766 0.930 . S
H738 C743 0.930 . S
H739 C747 0.930 . S
O740 Co709 2.037 . S
O740 C760 1.234 . S
C741 O715 1.269 . S
C741 O716 1.257 . S
C742 H717 0.930 . S
C742 C745 1.388 . S
C742 C747 1.418 . S
C743 H738 0.930 . S
C743 C746 1.404 . S
C743 C747 1.353 . S
N744 Co709 2.145 . S
N744 C745 1.397 . S
N744 C746 1.334 . S
C745 H726 0.929 . S
C745 C742 1.388 . S
C745 N744 1.397 . S
C746 H727 0.929 . S
C746 C743 1.404 . S
C746 N744 1.334 . S
C747 H739 0.930 . S
C747 C742 1.418 . S
C747 C743 1.353 . S
C748 H718 0.930 . S
C748 N749 1.330 . S
C748 C750 1.446 . S
N749 Co708 2.151 . S
N749 C748 1.330 . S
N749 C753 1.418 . S
C750 H729 0.929 . S
C750 C748 1.446 . S
C750 C751 1.332 . S
C751 H731 0.931 . S
C751 C750 1.332 . S
C751 C752 1.267 . S
C752 H720 0.929 . S
C752 C751 1.267 . S
C752 C753 1.251 . S
C753 H723 0.929 . S
C753 N749 1.418 . S
C753 C752 1.251 . S
C754 H721 0.930 . S
C754 C756 1.406 . S
C754 C759 1.261 . S
C755 H722 0.930 . S
C755 N757 1.325 . S
C755 C758 1.357 . S
C756 H724 0.928 . S
C756 C754 1.406 . S
C756 N757 1.261 . S
N757 Co708 2.214 . S
N757 C755 1.325 . S
N757 C756 1.261 . S
C758 H728 0.931 . S
C758 C755 1.357 . S
C758 C759 1.312 . S
C759 H730 0.930 . S
C759 C754 1.261 . S
C759 C758 1.312 . S
C760 O732 1.214 . S
C760 O740 1.234 . S
C761 H733 0.929 . S
C761 C764 1.391 1_554 S
C761 C766 1.391 1_554 S
C762 H734 0.929 . S
C762 C763 1.390 . S
C762 N765 1.391 . S
C763 H735 0.930 . S
C763 C762 1.390 . S
C763 C764 1.392 . S
C764 H736 0.929 1_556 S
C764 C761 1.391 1_556 S
C764 C763 1.392 . S
N765 Co709 2.257 . S
N765 C762 1.391 . S
N765 C766 1.388 . S
C766 H737 0.930 . S
C766 C761 1.391 1_556 S
C766 N765 1.388 . S
Co767 O769 2.143 . S
Co767 O775 2.074 . S
Co767 O778 2.093 . S
Co767 O791 2.097 . S
Co767 N808 2.151 . S
Co767 N816 2.214 1_565 S
Co768 O769 2.160 . S
Co768 O774 2.058 . S
Co768 O784 2.057 . S
Co768 O799 2.037 . S
Co768 N803 2.145 . S
Co768 N824 2.257 . S
O769 Co767 2.143 . S
O769 Co768 2.160 . S
C770 O771 1.278 . S
C770 O778 1.224 . S
O771 C770 1.278 . S
C772 O773 1.245 . S
C772 O784 1.232 . S
O773 C772 1.245 . S
O774 Co768 2.058 . S
O774 C800 1.269 . S
O775 Co767 2.074 . S
O775 C800 1.257 . S
H776 C801 0.930 . S
H777 C807 0.930 . S
O778 Co767 2.093 . S
O778 C770 1.224 . S
H779 C811 0.929 . S
H780 C813 0.930 . S
H781 C814 0.930 . S
H782 C812 0.929 . S
H783 C815 0.928 . S
O784 Co768 2.057 . S
O784 C772 1.232 . S
H785 C804 0.929 . S
H786 C805 0.929 . S
H787 C817 0.931 1_554 S
H788 C809 0.929 . S
H789 C818 0.930 . S
H790 C810 0.931 . S
O791 Co767 2.097 . S
O791 C819 1.214 . S
H792 C820 0.929 . S
H793 C821 0.929 . S
H794 C822 0.930 . S
H795 C823 0.929 . S
H796 C825 0.930 . S
H797 C802 0.930 . S
H798 C806 0.930 1_554 S
O799 Co768 2.037 . S
O799 C819 1.234 . S
C800 O774 1.269 . S
C800 O775 1.257 . S
C801 H776 0.930 . S
C801 C804 1.388 1_554 S
C801 C806 1.418 1_554 S
C802 H797 0.930 . S
C802 C805 1.404 . S
C802 C806 1.353 . S
N803 Co768 2.145 . S
N803 C804 1.397 . S
N803 C805 1.334 . S
C804 H785 0.929 . S
C804 C801 1.388 1_556 S
C804 N803 1.397 . S
C805 H786 0.929 . S
C805 C802 1.404 . S
C805 N803 1.334 . S
C806 H798 0.930 1_556 S
C806 C801 1.418 1_556 S
C806 C802 1.353 . S
C807 H777 0.930 . S
C807 N808 1.330 . S
C807 C809 1.446 1_565 S
N808 Co767 2.151 . S
N808 C807 1.330 . S
N808 C812 1.418 1_565 S
C809 H788 0.929 . S
C809 C807 1.446 1_545 S
C809 C810 1.332 . S
C810 H790 0.931 . S
C810 C809 1.332 . S
C810 C811 1.267 . S
C811 H779 0.929 . S
C811 C810 1.267 . S
C811 C812 1.251 . S
C812 H782 0.929 . S
C812 N808 1.418 1_545 S
C812 C811 1.251 . S
C813 H780 0.930 . S
C813 C815 1.406 . S
C813 C818 1.261 . S
C814 H781 0.930 . S
C814 N816 1.325 . S
C814 C817 1.357 . S
C815 H783 0.928 . S
C815 C813 1.406 . S
C815 N816 1.261 . S
N816 Co767 2.214 1_545 S
N816 C814 1.325 . S
N816 C815 1.261 . S
C817 H787 0.931 1_556 S
C817 C814 1.357 . S
C817 C818 1.312 . S
C818 H789 0.930 . S
C818 C813 1.261 . S
C818 C817 1.312 . S
C819 O791 1.214 . S
C819 O799 1.234 . S
C820 H792 0.929 . S
C820 C823 1.391 . S
C820 C825 1.391 . S
C821 H793 0.929 . S
C821 C822 1.390 . S
C821 N824 1.391 . S
C822 H794 0.930 . S
C822 C821 1.390 . S
C822 C823 1.392 . S
C823 H795 0.929 . S
C823 C820 1.391 . S
C823 C822 1.392 . S
N824 Co768 2.257 . S
N824 C821 1.391 . S
N824 C825 1.388 . S
C825 H796 0.930 . S
C825 C820 1.391 . S
C825 N824 1.388 . S
Co826 O828 2.143 . S
Co826 O834 2.074 . S
Co826 O837 2.093 . S
Co826 O850 2.097 . S
Co826 N867 2.151 . S
Co826 N875 2.214 . S
Co827 O828 2.160 . S
Co827 O833 2.058 . S
Co827 O843 2.057 . S
Co827 O858 2.037 . S
Co827 N862 2.145 . S
Co827 N883 2.257 . S
O828 Co826 2.143 . S
O828 Co827 2.160 . S
C829 O830 1.278 . S
C829 O837 1.224 . S
O830 C829 1.278 . S
C831 O832 1.245 . S
C831 O843 1.232 . S
O832 C831 1.245 . S
O833 Co827 2.058 . S
O833 C859 1.269 . S
O834 Co826 2.074 . S
O834 C859 1.257 . S
H835 C860 0.930 . S
H836 C866 0.930 . S
O837 Co826 2.093 . S
O837 C829 1.224 . S
H838 C870 0.929 . S
H839 C872 0.930 . S
H840 C873 0.930 . S
H841 C871 0.929 . S
H842 C874 0.928 . S
O843 Co827 2.057 . S
O843 C831 1.232 . S
H844 C863 0.929 . S
H845 C864 0.929 . S
H846 C876 0.931 . S
H847 C868 0.929 . S
H848 C877 0.930 . S
H849 C869 0.931 . S
O850 Co826 2.097 . S
O850 C878 1.214 . S
H851 C879 0.895 1_554 S
H852 C880 0.929 . S
H853 C881 0.930 . S
H854 C882 0.929 1_554 S
H855 C884 0.930 . S
H856 C861 0.930 . S
H857 C865 0.930 . S
O858 Co827 2.037 . S
O858 C878 1.234 . S
C859 O833 1.269 . S
C859 O834 1.257 . S
C860 H835 0.930 . S
C860 C863 1.388 . S
C860 C865 1.418 . S
C861 H856 0.930 . S
C861 C864 1.404 . S
C861 C865 1.353 . S
N862 Co827 2.145 . S
N862 C863 1.397 . S
N862 C864 1.334 . S
C863 H844 0.929 . S
C863 C860 1.388 . S
C863 N862 1.397 . S
C864 H845 0.929 . S
C864 C861 1.404 . S
C864 N862 1.334 . S
C865 H857 0.930 . S
C865 C860 1.418 . S
C865 C861 1.353 . S
C866 H836 0.930 . S
C866 N867 1.330 . S
C866 C868 1.446 1_455 S
N867 Co826 2.151 . S
N867 C866 1.330 . S
N867 C871 1.418 1_455 S
C868 H847 0.929 . S
C868 C866 1.446 1_655 S
C868 C869 1.332 . S
C869 H849 0.931 . S
C869 C868 1.332 . S
C869 C870 1.267 . S
C870 H838 0.929 . S
C870 C869 1.267 . S
C870 C871 1.251 . S
C871 H841 0.929 . S
C871 N867 1.418 1_655 S
C871 C870 1.251 . S
C872 H839 0.930 . S
C872 C874 1.406 . S
C872 C877 1.261 . S
C873 H840 0.930 . S
C873 N875 1.325 . S
C873 C876 1.357 . S
C874 H842 0.928 . S
C874 C872 1.406 . S
C874 N875 1.261 . S
N875 Co826 2.214 . S
N875 C873 1.325 . S
N875 C874 1.261 . S
C876 H846 0.931 . S
C876 C873 1.357 . S
C876 C877 1.312 . S
C877 H848 0.930 . S
C877 C872 1.261 . S
C877 C876 1.312 . S
C878 O850 1.214 . S
C878 O858 1.234 . S
C879 H851 0.895 1_556 S
C879 C882 1.400 . S
C879 C884 1.416 . S
C880 H852 0.929 . S
C880 C881 1.390 . S
C880 N883 1.391 . S
C881 H853 0.930 . S
C881 C880 1.390 . S
C881 C882 1.392 . S
C882 H854 0.929 1_556 S
C882 C879 1.400 . S
C882 C881 1.392 . S
N883 Co827 2.257 . S
N883 C880 1.391 . S
N883 C884 1.388 . S
C884 H855 0.930 . S
C884 C879 1.416 . S
C884 N883 1.388 . S
Co885 O887 2.143 . S
Co885 O893 2.074 . S
Co885 O896 2.093 . S
Co885 O909 2.097 . S
Co885 N926 2.151 . S
Co885 N934 2.214 . S
Co886 O887 2.160 . S
Co886 O892 2.058 . S
Co886 O902 2.057 . S
Co886 O917 2.037 . S
Co886 N921 2.145 . S
Co886 N942 2.257 . S
O887 Co885 2.143 . S
O887 Co886 2.160 . S
C888 O889 1.278 . S
C888 O896 1.224 . S
O889 C888 1.278 . S
C890 O891 1.245 . S
C890 O902 1.232 . S
O891 C890 1.245 . S
O892 Co886 2.058 . S
O892 C918 1.269 . S
O893 Co885 2.074 . S
O893 C918 1.257 . S
H894 C919 0.930 . S
H895 C925 0.904 1_565 S
O896 Co885 2.093 . S
O896 C888 1.224 . S
H897 C929 0.929 . S
H898 C931 0.930 . S
H899 C932 0.930 . S
H900 C930 0.929 . S
H901 C933 0.928 . S
O902 Co886 2.057 . S
O902 C890 1.232 . S
H903 C922 0.929 . S
H904 C923 0.929 . S
H905 C935 0.931 . S
H906 C927 0.929 . S
H907 C936 0.930 . S
H908 C928 0.931 . S
O909 Co885 2.097 . S
O909 C937 1.214 . S
H910 C938 0.929 . S
H911 C939 0.929 . S
H912 C940 0.930 . S
H913 C941 0.929 . S
H914 C943 0.930 . S
H915 C920 0.930 . S
H916 C924 0.930 . S
O917 Co886 2.037 . S
O917 C937 1.234 . S
C918 O892 1.269 . S
C918 O893 1.257 . S
C919 H894 0.930 . S
C919 C922 1.388 . S
C919 C924 1.418 . S
C920 H915 0.930 . S
C920 C923 1.404 . S
C920 C924 1.353 . S
N921 Co886 2.145 . S
N921 C922 1.397 . S
N921 C923 1.334 . S
C922 H903 0.929 . S
C922 C919 1.388 . S
C922 N921 1.397 . S
C923 H904 0.929 . S
C923 C920 1.404 . S
C923 N921 1.334 . S
C924 H916 0.930 . S
C924 C919 1.418 . S
C924 C920 1.353 . S
C925 H895 0.904 1_545 S
C925 N926 1.323 1_545 S
C925 C927 1.479 . S
N926 Co885 2.151 . S
N926 C925 1.323 1_565 S
N926 C930 1.418 1_565 S
C927 H906 0.929 . S
C927 C925 1.479 . S
C927 C928 1.332 . S
C928 H908 0.931 . S
C928 C927 1.332 . S
C928 C929 1.267 . S
C929 H897 0.929 . S
C929 C928 1.267 . S
C929 C930 1.251 . S
C930 H900 0.929 . S
C930 N926 1.418 1_545 S
C930 C929 1.251 . S
C931 H898 0.930 . S
C931 C933 1.406 . S
C931 C936 1.261 . S
C932 H899 0.930 . S
C932 N934 1.325 . S
C932 C935 1.357 . S
C933 H901 0.928 . S
C933 C931 1.406 . S
C933 N934 1.261 . S
N934 Co885 2.214 . S
N934 C932 1.325 . S
N934 C933 1.261 . S
C935 H905 0.931 . S
C935 C932 1.357 . S
C935 C936 1.312 . S
C936 H907 0.930 . S
C936 C931 1.261 . S
C936 C935 1.312 . S
C937 O909 1.214 . S
C937 O917 1.234 . S
C938 H910 0.929 . S
C938 C941 1.391 . S
C938 C943 1.391 . S
C939 H911 0.929 . S
C939 C940 1.390 . S
C939 N942 1.391 . S
C940 H912 0.930 . S
C940 C939 1.390 . S
C940 C941 1.392 . S
C941 H913 0.929 . S
C941 C938 1.391 . S
C941 C940 1.392 . S
N942 Co886 2.257 . S
N942 C939 1.391 . S
N942 C943 1.388 . S
C943 H914 0.930 . S
C943 C938 1.391 . S
C943 N942 1.388 . S
Co944 O946 2.143 . S
Co944 O952 2.074 . S
Co944 O955 2.093 . S
Co944 O968 2.097 . S
Co944 N985 2.151 . S
Co944 N993 2.214 . S
Co945 O946 2.160 . S
Co945 O951 2.058 . S
Co945 O961 2.057 . S
Co945 O976 2.037 . S
Co945 N980 2.145 . S
Co945 N1001 2.257 . S
O946 Co944 2.143 . S
O946 Co945 2.160 . S
C947 O948 1.278 . S
C947 O955 1.224 . S
O948 C947 1.278 . S
C949 O950 1.245 . S
C949 O961 1.232 . S
O950 C949 1.245 . S
O951 Co945 2.058 . S
O951 C977 1.269 . S
O952 Co944 2.074 . S
O952 C977 1.257 . S
H953 C978 0.930 . S
H954 C984 0.930 . S
O955 Co944 2.093 . S
O955 C947 1.224 . S
H956 C988 0.929 . S
H957 C990 0.930 . S
H958 C991 0.930 . S
H959 C989 0.928 . S
H960 C992 0.928 . S
O961 Co945 2.057 . S
O961 C949 1.232 . S
H962 C981 0.929 . S
H963 C982 0.929 . S
H964 C994 0.931 . S
H965 C986 0.929 . S
H966 C995 0.930 . S
H967 C987 0.931 . S
O968 Co944 2.097 . S
O968 C996 1.214 . S
H969 C997 0.929 . S
H970 C998 0.929 . S
H971 C999 0.930 . S
H972 C1000 0.929 . S
H973 C1002 0.930 . S
H974 C979 0.930 . S
H975 C983 0.930 . S
O976 Co945 2.037 . S
O976 C996 1.234 . S
C977 O951 1.269 . S
C977 O952 1.257 . S
C978 H953 0.930 . S
C978 C981 1.388 . S
C978 C983 1.418 . S
C979 H974 0.930 . S
C979 C982 1.404 . S
C979 C983 1.353 . S
N980 Co945 2.145 . S
N980 C981 1.397 . S
N980 C982 1.334 . S
C981 H962 0.929 . S
C981 C978 1.388 . S
C981 N980 1.397 . S
C982 H963 0.929 . S
C982 C979 1.404 . S
C982 N980 1.334 . S
C983 H975 0.930 . S
C983 C978 1.418 . S
C983 C979 1.353 . S
C984 H954 0.930 . S
C984 N985 1.330 . S
C984 C986 1.446 1_455 S
N985 Co944 2.151 . S
N985 C984 1.330 . S
N985 C989 1.416 . S
C986 H965 0.929 . S
C986 C984 1.446 1_655 S
C986 C987 1.332 . S
C987 H967 0.931 . S
C987 C986 1.332 . S
C987 C988 1.267 . S
C988 H956 0.929 . S
C988 C987 1.267 . S
C988 C989 1.254 1_655 S
C989 H959 0.928 . S
C989 N985 1.416 . S
C989 C988 1.254 1_455 S
C990 H957 0.930 . S
C990 C992 1.406 . S
C990 C995 1.261 . S
C991 H958 0.930 . S
C991 N993 1.325 . S
C991 C994 1.357 . S
C992 H960 0.928 . S
C992 C990 1.406 . S
C992 N993 1.261 . S
N993 Co944 2.214 . S
N993 C991 1.325 . S
N993 C992 1.261 . S
C994 H964 0.931 . S
C994 C991 1.357 . S
C994 C995 1.312 . S
C995 H966 0.930 . S
C995 C990 1.261 . S
C995 C994 1.312 . S
C996 O968 1.214 . S
C996 O976 1.234 . S
C997 H969 0.929 . S
C997 C1000 1.391 . S
C997 C1002 1.391 . S
C998 H970 0.929 . S
C998 C999 1.390 . S
C998 N1001 1.391 . S
C999 H971 0.930 . S
C999 C998 1.390 . S
C999 C1000 1.392 . S
C1000 H972 0.929 . S
C1000 C997 1.391 . S
C1000 C999 1.392 . S
N1001 Co945 2.257 . S
N1001 C998 1.391 . S
N1001 C1002 1.388 . S
C1002 H973 0.930 . S
C1002 C997 1.391 . S
C1002 N1001 1.388 . S
Co1003 O1005 2.143 . S
Co1003 O1011 2.074 . S
Co1003 O1014 2.093 . S
Co1003 O1027 2.097 . S
Co1003 N1044 2.151 . S
Co1003 N1052 2.214 . S
Co1004 O1005 2.160 . S
Co1004 O1010 2.058 . S
Co1004 O1020 2.057 . S
Co1004 O1035 2.037 . S
Co1004 N1039 2.145 . S
Co1004 N1060 2.257 . S
O1005 Co1003 2.143 . S
O1005 Co1004 2.160 . S
C1006 O1007 1.278 . S
C1006 O1014 1.224 . S
O1007 C1006 1.278 . S
C1008 O1009 1.245 . S
C1008 O1020 1.232 . S
O1009 C1008 1.245 . S
O1010 Co1004 2.058 . S
O1010 C1036 1.269 . S
O1011 Co1003 2.074 . S
O1011 C1036 1.257 . S
H1012 C1037 0.930 . S
H1013 C1043 0.930 . S
O1014 Co1003 2.093 . S
O1014 C1006 1.224 . S
H1015 C1047 0.929 . S
H1016 C1049 0.930 . S
H1017 C1050 0.930 . S
H1018 C1048 0.929 . S
H1019 C1051 0.928 . S
O1020 Co1004 2.057 . S
O1020 C1008 1.232 . S
H1021 C1040 0.929 . S
H1022 C1041 0.929 . S
H1023 C1053 0.931 . S
H1024 C1045 0.929 . S
H1025 C1054 0.930 . S
H1026 C1046 0.931 . S
O1027 Co1003 2.097 . S
O1027 C1055 1.214 . S
H1028 C1056 0.929 . S
H1029 C1057 0.929 . S
H1030 C1058 0.930 . S
H1031 C1059 0.929 . S
H1032 C1061 0.930 . S
H1033 C1038 0.930 . S
H1034 C1042 0.930 . S
O1035 Co1004 2.037 . S
O1035 C1055 1.234 . S
C1036 O1010 1.269 . S
C1036 O1011 1.257 . S
C1037 H1012 0.930 . S
C1037 C1040 1.388 . S
C1037 C1042 1.418 . S
C1038 H1033 0.930 . S
C1038 C1041 1.404 . S
C1038 C1042 1.353 . S
N1039 Co1004 2.145 . S
N1039 C1040 1.397 . S
N1039 C1041 1.334 . S
C1040 H1021 0.929 . S
C1040 C1037 1.388 . S
C1040 N1039 1.397 . S
C1041 H1022 0.929 . S
C1041 C1038 1.404 . S
C1041 N1039 1.334 . S
C1042 H1034 0.930 . S
C1042 C1037 1.418 . S
C1042 C1038 1.353 . S
C1043 H1013 0.930 . S
C1043 N1044 1.330 . S
C1043 C1045 1.446 . S
N1044 Co1003 2.151 . S
N1044 C1043 1.330 . S
N1044 C1048 1.418 . S
C1045 H1024 0.929 . S
C1045 C1043 1.446 . S
C1045 C1046 1.332 . S
C1046 H1026 0.931 . S
C1046 C1045 1.332 . S
C1046 C1047 1.267 . S
C1047 H1015 0.929 . S
C1047 C1046 1.267 . S
C1047 C1048 1.251 . S
C1048 H1018 0.929 . S
C1048 N1044 1.418 . S
C1048 C1047 1.251 . S
C1049 H1016 0.930 . S
C1049 C1051 1.406 . S
C1049 C1054 1.261 . S
C1050 H1017 0.930 . S
C1050 N1052 1.325 . S
C1050 C1053 1.357 . S
C1051 H1019 0.928 . S
C1051 C1049 1.406 . S
C1051 N1052 1.261 . S
N1052 Co1003 2.214 . S
N1052 C1050 1.325 . S
N1052 C1051 1.261 . S
C1053 H1023 0.931 . S
C1053 C1050 1.357 . S
C1053 C1054 1.312 . S
C1054 H1025 0.930 . S
C1054 C1049 1.261 . S
C1054 C1053 1.312 . S
C1055 O1027 1.214 . S
C1055 O1035 1.234 . S
C1056 H1028 0.929 . S
C1056 C1059 1.391 . S
C1056 C1061 1.391 . S
C1057 H1029 0.929 . S
C1057 C1058 1.390 . S
C1057 N1060 1.391 . S
C1058 H1030 0.930 . S
C1058 C1057 1.390 . S
C1058 C1059 1.392 . S
C1059 H1031 0.929 . S
C1059 C1056 1.391 . S
C1059 C1058 1.392 . S
N1060 Co1004 2.257 . S
N1060 C1057 1.391 . S
N1060 C1061 1.388 . S
C1061 H1032 0.930 . S
C1061 C1056 1.391 . S
C1061 N1060 1.388 . S
H1062 C1068 0.930 1_655 S
H1063 C1072 0.930 . S
H1064 C1077 0.929 . S
H1065 C1075 0.929 . S
H1066 C1070 0.929 . S
H1067 C1076 0.929 . S
C1068 H1062 0.930 1_455 S
C1068 C1069 1.367 . S
C1068 C1076 1.378 . S
C1069 C1068 1.367 . S
C1069 C1077 1.433 . S
C1070 H1066 0.929 . S
C1070 C1072 1.378 . S
C1070 C1074 1.350 . S
C1071 C1074 1.463 . S
C1071 C1076 1.350 . S
C1071 N1079 1.427 . S
C1072 H1063 0.930 . S
C1072 C1070 1.378 . S
C1072 C1073 1.367 . S
C1073 C1072 1.367 . S
C1073 C1075 1.433 . S
C1074 C1070 1.350 . S
C1074 C1071 1.463 . S
C1074 N1078 1.427 . S
C1075 H1065 0.929 . S
C1075 C1073 1.433 . S
C1075 N1078 1.384 . S
C1076 H1067 0.929 . S
C1076 C1068 1.378 . S
C1076 C1071 1.350 . S
C1077 H1064 0.929 . S
C1077 C1069 1.433 . S
C1077 N1079 1.384 . S
N1078 C1074 1.427 . S
N1078 C1075 1.384 . S
N1079 C1071 1.427 . S
N1079 C1077 1.384 . S
H1080 C1086 0.930 . S
H1081 C1090 0.930 . S
H1082 C1095 0.929 . S
H1083 C1093 0.929 . S
H1084 C1088 0.929 . S
H1085 C1094 0.929 . S
C1086 H1080 0.930 . S
C1086 C1087 1.367 . S
C1086 C1094 1.378 . S
C1087 C1086 1.367 . S
C1087 C1095 1.433 . S
C1088 H1084 0.929 . S
C1088 C1090 1.378 . S
C1088 C1092 1.350 . S
C1089 C1092 1.463 . S
C1089 C1094 1.350 . S
C1089 N1097 1.427 . S
C1090 H1081 0.930 . S
C1090 C1088 1.378 . S
C1090 C1091 1.367 . S
C1091 C1090 1.367 . S
C1091 C1093 1.433 . S
C1092 C1088 1.350 . S
C1092 C1089 1.463 . S
C1092 N1096 1.427 . S
C1093 H1083 0.929 . S
C1093 C1091 1.433 . S
C1093 N1096 1.384 . S
C1094 H1085 0.929 . S
C1094 C1086 1.378 . S
C1094 C1089 1.350 . S
C1095 H1082 0.929 . S
C1095 C1087 1.433 . S
C1095 N1097 1.384 . S
N1096 C1092 1.427 . S
N1096 C1093 1.384 . S
N1097 C1089 1.427 . S
N1097 C1095 1.384 . S
H1098 C1104 0.930 . S
H1099 C1108 0.930 . S
H1100 C1113 0.929 . S
H1101 C1111 0.929 . S
H1102 C1106 0.929 1_545 S
H1103 C1112 0.929 . S
C1104 H1098 0.930 . S
C1104 C1105 1.367 . S
C1104 C1112 1.378 . S
C1105 C1104 1.367 . S
C1105 C1113 1.433 1_565 S
C1106 H1102 0.929 1_565 S
C1106 C1108 1.378 . S
C1106 C1110 1.350 . S
C1107 C1110 1.463 . S
C1107 C1112 1.350 . S
C1107 N1115 1.427 1_565 S
C1108 H1099 0.930 . S
C1108 C1106 1.378 . S
C1108 C1109 1.367 . S
C1109 C1108 1.367 . S
C1109 C1111 1.433 . S
C1110 C1106 1.350 . S
C1110 C1107 1.463 . S
C1110 N1114 1.427 . S
C1111 H1101 0.929 . S
C1111 C1109 1.433 . S
C1111 N1114 1.384 . S
C1112 H1103 0.929 . S
C1112 C1104 1.378 . S
C1112 C1107 1.350 . S
C1113 H1100 0.929 . S
C1113 C1105 1.433 1_545 S
C1113 N1115 1.384 . S
N1114 C1110 1.427 . S
N1114 C1111 1.384 . S
N1115 C1107 1.427 1_545 S
N1115 C1113 1.384 . S
H1116 C1122 0.930 . S
H1117 C1126 0.930 . S
H1118 C1131 0.929 . S
H1119 C1129 0.929 . S
H1120 C1124 0.929 . S
H1121 C1130 0.929 . S
C1122 H1116 0.930 . S
C1122 C1123 1.367 . S
C1122 C1130 1.378 . S
C1123 C1122 1.367 . S
C1123 C1131 1.433 . S
C1124 H1120 0.929 . S
C1124 C1126 1.378 . S
C1124 C1128 1.350 . S
C1125 C1128 1.463 . S
C1125 C1130 1.350 . S
C1125 N1133 1.427 . S
C1126 H1117 0.930 . S
C1126 C1124 1.378 . S
C1126 C1127 1.367 . S
C1127 C1126 1.367 . S
C1127 C1129 1.433 . S
C1128 C1124 1.350 . S
C1128 C1125 1.463 . S
C1128 N1132 1.427 . S
C1129 H1119 0.929 . S
C1129 C1127 1.433 . S
C1129 N1132 1.384 . S
C1130 H1121 0.929 . S
C1130 C1122 1.378 . S
C1130 C1125 1.350 . S
C1131 H1118 0.929 . S
C1131 C1123 1.433 . S
C1131 N1133 1.384 . S
N1132 C1128 1.427 . S
N1132 C1129 1.384 . S
N1133 C1125 1.427 . S
N1133 C1131 1.384 . S
H1134 C1140 0.930 . S
H1135 C1144 0.930 . S
H1136 C1149 0.929 . S
H1137 C1147 0.929 . S
H1138 C1142 0.929 . S
H1139 C1148 0.929 1_455 S
C1140 H1134 0.930 . S
C1140 C1141 1.367 . S
C1140 C1148 1.378 . S
C1141 C1140 1.367 . S
C1141 C1149 1.433 . S
C1142 H1138 0.929 . S
C1142 C1144 1.378 . S
C1142 C1146 1.350 . S
C1143 C1146 1.463 . S
C1143 C1148 1.350 . S
C1143 N1151 1.427 . S
C1144 H1135 0.930 . S
C1144 C1142 1.378 . S
C1144 C1145 1.367 . S
C1145 C1144 1.367 . S
C1145 C1147 1.433 1_655 S
C1146 C1142 1.350 . S
C1146 C1143 1.463 . S
C1146 N1150 1.427 . S
C1147 H1137 0.929 . S
C1147 C1145 1.433 1_455 S
C1147 N1150 1.384 1_455 S
C1148 H1139 0.929 1_655 S
C1148 C1140 1.378 . S
C1148 C1143 1.350 . S
C1149 H1136 0.929 . S
C1149 C1141 1.433 . S
C1149 N1151 1.384 . S
N1150 C1146 1.427 . S
N1150 C1147 1.384 1_655 S
N1151 C1143 1.427 . S
N1151 C1149 1.384 . S
H1152 C1158 0.930 . S
H1153 C1162 0.930 . S
H1154 C1167 0.929 . S
H1155 C1165 0.929 . S
H1156 C1160 0.929 . S
H1157 C1166 0.929 . S
C1158 H1152 0.930 . S
C1158 C1159 1.367 . S
C1158 C1166 1.378 . S
C1159 C1158 1.367 . S
C1159 C1167 1.433 . S
C1160 H1156 0.929 . S
C1160 C1162 1.378 . S
C1160 C1164 1.350 . S
C1161 C1164 1.463 . S
C1161 C1166 1.350 . S
C1161 N1169 1.427 . S
C1162 H1153 0.930 . S
C1162 C1160 1.378 . S
C1162 C1163 1.367 . S
C1163 C1162 1.367 . S
C1163 C1165 1.433 . S
C1164 C1160 1.350 . S
C1164 C1161 1.463 . S
C1164 N1168 1.427 . S
C1165 H1155 0.929 . S
C1165 C1163 1.433 . S
C1165 N1168 1.384 . S
C1166 H1157 0.929 . S
C1166 C1158 1.378 . S
C1166 C1161 1.350 . S
C1167 H1154 0.929 . S
C1167 C1159 1.433 . S
C1167 N1169 1.384 . S
N1168 C1164 1.427 . S
N1168 C1165 1.384 . S
N1169 C1161 1.427 . S
N1169 C1167 1.384 . S
H1170 C1176 0.930 . S
H1171 C1180 0.918 1_554 S
H1172 C1185 0.929 . S
H1173 C1183 0.929 . S
H1174 C1178 0.929 . S
H1175 C1184 0.929 . S
C1176 H1170 0.930 . S
C1176 C1177 1.367 . S
C1176 C1184 1.378 . S
C1177 C1176 1.367 . S
C1177 C1185 1.433 . S
C1178 H1174 0.929 . S
C1178 C1180 1.378 . S
C1178 C1182 1.350 . S
C1179 C1182 1.463 . S
C1179 C1184 1.350 . S
C1179 N1187 1.427 . S
C1180 H1171 0.918 1_556 S
C1180 C1178 1.378 . S
C1180 C1181 1.367 . S
C1181 C1180 1.367 . S
C1181 C1183 1.433 . S
C1182 C1178 1.350 . S
C1182 C1179 1.463 . S
C1182 N1186 1.427 . S
C1183 H1173 0.929 . S
C1183 C1181 1.433 . S
C1183 N1186 1.384 . S
C1184 H1175 0.929 . S
C1184 C1176 1.378 . S
C1184 C1179 1.350 . S
C1185 H1172 0.929 . S
C1185 C1177 1.433 . S
C1185 N1187 1.384 . S
N1186 C1182 1.427 . S
N1186 C1183 1.384 . S
N1187 C1179 1.427 . S
N1187 C1185 1.384 . S
H1188 C1194 0.930 . S
H1189 C1198 0.930 . S
H1190 C1203 0.929 1_554 S
H1191 C1201 0.929 . S
H1192 C1196 0.929 . S
H1193 C1202 0.929 . S
C1194 H1188 0.930 . S
C1194 C1195 1.367 . S
C1194 C1202 1.378 . S
C1195 C1194 1.367 . S
C1195 C1203 1.433 . S
C1196 H1192 0.929 . S
C1196 C1198 1.378 . S
C1196 C1200 1.350 . S
C1197 C1200 1.463 . S
C1197 C1202 1.350 . S
C1197 N1205 1.427 . S
C1198 H1189 0.930 . S
C1198 C1196 1.378 . S
C1198 C1199 1.367 . S
C1199 C1198 1.367 . S
C1199 C1201 1.433 . S
C1200 C1196 1.350 . S
C1200 C1197 1.463 . S
C1200 N1204 1.427 . S
C1201 H1191 0.929 . S
C1201 C1199 1.433 . S
C1201 N1204 1.384 . S
C1202 H1193 0.929 . S
C1202 C1194 1.378 . S
C1202 C1197 1.350 . S
C1203 H1190 0.929 1_556 S
C1203 C1195 1.433 . S
C1203 N1205 1.384 . S
N1204 C1200 1.427 . S
N1204 C1201 1.384 . S
N1205 C1197 1.427 . S
N1205 C1203 1.384 . S
H1206 C1212 0.930 . S
H1207 C1216 0.930 . S
H1208 C1221 0.929 . S
H1209 C1219 0.929 1_565 S
H1210 C1214 0.929 . S
H1211 C1220 0.929 . S
C1212 H1206 0.930 . S
C1212 C1213 1.367 . S
C1212 C1220 1.378 . S
C1213 C1212 1.367 . S
C1213 C1221 1.433 . S
C1214 H1210 0.929 . S
C1214 C1216 1.378 . S
C1214 C1218 1.350 . S
C1215 C1218 1.463 . S
C1215 C1220 1.350 . S
C1215 N1223 1.427 . S
C1216 H1207 0.930 . S
C1216 C1214 1.378 . S
C1216 C1217 1.367 . S
C1217 C1216 1.367 . S
C1217 C1219 1.433 . S
C1218 C1214 1.350 . S
C1218 C1215 1.463 . S
C1218 N1222 1.427 . S
C1219 H1209 0.929 1_545 S
C1219 C1217 1.433 . S
C1219 N1222 1.384 . S
C1220 H1211 0.929 . S
C1220 C1212 1.378 . S
C1220 C1215 1.350 . S
C1221 H1208 0.929 . S
C1221 C1213 1.433 . S
C1221 N1223 1.384 . S
N1222 C1218 1.427 . S
N1222 C1219 1.384 . S
N1223 C1215 1.427 . S
N1223 C1221 1.384 . S
H1224 C1230 0.930 1_545 S
H1225 C1234 0.930 . S
H1226 C1239 0.929 . S
H1227 C1237 0.929 . S
H1228 C1232 0.929 . S
H1229 C1238 0.929 . S
C1230 H1224 0.930 1_565 S
C1230 C1231 1.367 . S
C1230 C1238 1.378 . S
C1231 C1230 1.367 . S
C1231 C1239 1.433 . S
C1232 H1228 0.929 . S
C1232 C1234 1.378 . S
C1232 C1236 1.350 . S
C1233 C1236 1.463 . S
C1233 C1238 1.350 . S
C1233 N1241 1.427 . S
C1234 H1225 0.930 . S
C1234 C1232 1.378 . S
C1234 C1235 1.367 . S
C1235 C1234 1.367 . S
C1235 C1237 1.433 . S
C1236 C1232 1.350 . S
C1236 C1233 1.463 . S
C1236 N1240 1.427 . S
C1237 H1227 0.929 . S
C1237 C1235 1.433 . S
C1237 N1240 1.384 . S
C1238 H1229 0.929 . S
C1238 C1230 1.378 . S
C1238 C1233 1.350 . S
C1239 H1226 0.929 . S
C1239 C1231 1.433 . S
C1239 N1241 1.384 . S
N1240 C1236 1.427 . S
N1240 C1237 1.384 . S
N1241 C1233 1.427 . S
N1241 C1239 1.384 . S
H1242 C1248 0.930 . S
H1243 C1252 0.930 . S
H1244 C1257 0.929 . S
H1245 C1255 0.929 . S
H1246 C1250 0.929 . S
H1247 C1256 0.929 . S
C1248 H1242 0.930 . S
C1248 C1249 1.367 . S
C1248 C1256 1.378 . S
C1249 C1248 1.367 . S
C1249 C1257 1.433 . S
C1250 H1246 0.929 . S
C1250 C1252 1.378 . S
C1250 C1254 1.350 . S
C1251 C1254 1.463 . S
C1251 C1256 1.350 . S
C1251 N1259 1.427 . S
C1252 H1243 0.930 . S
C1252 C1250 1.378 . S
C1252 C1253 1.367 . S
C1253 C1252 1.367 . S
C1253 C1255 1.433 . S
C1254 C1250 1.350 . S
C1254 C1251 1.463 . S
C1254 N1258 1.427 . S
C1255 H1245 0.929 . S
C1255 C1253 1.433 . S
C1255 N1258 1.384 . S
C1256 H1247 0.929 . S
C1256 C1248 1.378 . S
C1256 C1251 1.350 . S
C1257 H1244 0.929 . S
C1257 C1249 1.433 . S
C1257 N1259 1.384 . S
N1258 C1254 1.427 . S
N1258 C1255 1.384 . S
N1259 C1251 1.427 . S
N1259 C1257 1.384 . S
H1260 C1266 0.930 . S
H1261 C1270 0.930 . S
H1262 C1275 0.929 . S
H1263 C1273 0.929 . S
H1264 C1268 0.929 . S
H1265 C1274 0.929 . S
C1266 H1260 0.930 . S
C1266 C1267 1.367 . S
C1266 C1274 1.378 . S
C1267 C1266 1.367 . S
C1267 C1275 1.433 . S
C1268 H1264 0.929 . S
C1268 C1270 1.378 . S
C1268 C1272 1.350 . S
C1269 C1272 1.463 . S
C1269 C1274 1.350 . S
C1269 N1277 1.427 . S
C1270 H1261 0.930 . S
C1270 C1268 1.378 . S
C1270 C1271 1.367 . S
C1271 C1270 1.367 . S
C1271 C1273 1.433 . S
C1272 C1268 1.350 . S
C1272 C1269 1.463 . S
C1272 N1276 1.427 . S
C1273 H1263 0.929 . S
C1273 C1271 1.433 . S
C1273 N1276 1.384 . S
C1274 H1265 0.929 . S
C1274 C1266 1.378 . S
C1274 C1269 1.350 . S
C1275 H1262 0.929 . S
C1275 C1267 1.433 . S
C1275 N1277 1.384 . S
N1276 C1272 1.427 . S
N1276 C1273 1.384 . S
N1277 C1269 1.427 . S
N1277 C1275 1.384 . S
H1278 C1284 0.930 . S
H1279 C1288 0.930 . S
H1280 C1293 0.929 . S
H1281 C1291 0.929 . S
H1282 C1286 0.929 . S
H1283 C1292 0.929 . S
C1284 H1278 0.930 . S
C1284 C1285 1.367 . S
C1284 C1292 1.378 . S
C1285 C1284 1.367 . S
C1285 C1293 1.433 . S
C1286 H1282 0.929 . S
C1286 C1288 1.378 . S
C1286 C1290 1.350 . S
C1287 C1290 1.463 . S
C1287 C1292 1.350 . S
C1287 N1295 1.427 . S
C1288 H1279 0.930 . S
C1288 C1286 1.378 . S
C1288 C1289 1.367 . S
C1289 C1288 1.367 . S
C1289 C1291 1.433 . S
C1290 C1286 1.350 . S
C1290 C1287 1.463 . S
C1290 N1294 1.427 . S
C1291 H1281 0.929 . S
C1291 C1289 1.433 . S
C1291 N1294 1.384 . S
C1292 H1283 0.929 . S
C1292 C1284 1.378 . S
C1292 C1287 1.350 . S
C1293 H1280 0.929 . S
C1293 C1285 1.433 . S
C1293 N1295 1.384 . S
N1294 C1290 1.427 . S
N1294 C1291 1.384 . S
N1295 C1287 1.427 . S
N1295 C1293 1.384 . S
H1296 C1302 0.930 . S
H1297 C1306 0.930 . S
H1298 C1311 0.929 . S
H1299 C1309 0.929 . S
H1300 C1304 0.929 . S
H1301 C1310 0.929 . S
C1302 H1296 0.930 . S
C1302 C1303 1.367 . S
C1302 C1310 1.378 . S
C1303 C1302 1.367 . S
C1303 C1311 1.433 . S
C1304 H1300 0.929 . S
C1304 C1306 1.378 . S
C1304 C1308 1.350 1_565 S
C1305 C1308 1.463 . S
C1305 C1310 1.350 . S
C1305 N1313 1.427 . S
C1306 H1297 0.930 . S
C1306 C1304 1.378 . S
C1306 C1307 1.367 . S
C1307 C1306 1.367 . S
C1307 C1309 1.433 1_565 S
C1308 C1304 1.350 1_545 S
C1308 C1305 1.463 . S
C1308 N1312 1.427 . S
C1309 H1299 0.929 . S
C1309 C1307 1.433 1_545 S
C1309 N1312 1.384 . S
C1310 H1301 0.929 . S
C1310 C1302 1.378 . S
C1310 C1305 1.350 . S
C1311 H1298 0.929 . S
C1311 C1303 1.433 . S
C1311 N1313 1.384 . S
N1312 C1308 1.427 . S
N1312 C1309 1.384 . S
N1313 C1305 1.427 . S
N1313 C1311 1.384 . S
H1314 C1320 0.930 . S
H1315 C1324 0.930 1_455 S
H1316 C1329 0.929 . S
H1317 C1327 0.929 . S
H1318 C1322 0.929 . S
H1319 C1328 0.929 1_655 S
C1320 H1314 0.930 . S
C1320 C1321 1.367 . S
C1320 C1328 1.378 . S
C1321 C1320 1.367 . S
C1321 C1329 1.433 . S
C1322 H1318 0.929 . S
C1322 C1324 1.378 1_455 S
C1322 C1326 1.350 . S
C1323 C1326 1.463 . S
C1323 C1328 1.350 . S
C1323 N1331 1.427 . S
C1324 H1315 0.930 1_655 S
C1324 C1322 1.378 1_655 S
C1324 C1325 1.367 . S
C1325 C1324 1.367 . S
C1325 C1327 1.433 . S
C1326 C1322 1.350 . S
C1326 C1323 1.463 . S
C1326 N1330 1.427 1_455 S
C1327 H1317 0.929 . S
C1327 C1325 1.433 . S
C1327 N1330 1.384 . S
C1328 H1319 0.929 1_455 S
C1328 C1320 1.378 . S
C1328 C1323 1.350 . S
C1329 H1316 0.929 . S
C1329 C1321 1.433 . S
C1329 N1331 1.384 . S
N1330 C1326 1.427 1_655 S
N1330 C1327 1.384 . S
N1331 C1323 1.427 . S
N1331 C1329 1.384 . S
H1332 C1338 0.930 . S
H1333 C1342 0.930 . S
H1334 C1347 0.929 . S
H1335 C1345 0.929 . S
H1336 C1340 0.929 . S
H1337 C1346 0.929 . S
C1338 H1332 0.930 . S
C1338 C1339 1.367 . S
C1338 C1346 1.378 . S
C1339 C1338 1.367 . S
C1339 C1347 1.433 . S
C1340 H1336 0.929 . S
C1340 C1342 1.378 . S
C1340 C1344 1.350 . S
C1341 C1344 1.463 . S
C1341 C1346 1.350 . S
C1341 N1349 1.427 . S
C1342 H1333 0.930 . S
C1342 C1340 1.378 . S
C1342 C1343 1.367 . S
C1343 C1342 1.367 . S
C1343 C1345 1.433 . S
C1344 C1340 1.350 . S
C1344 C1341 1.463 . S
C1344 N1348 1.427 . S
C1345 H1335 0.929 . S
C1345 C1343 1.433 . S
C1345 N1348 1.384 . S
C1346 H1337 0.929 . S
C1346 C1338 1.378 . S
C1346 C1341 1.350 . S
C1347 H1334 0.929 . S
C1347 C1339 1.433 . S
C1347 N1349 1.384 . S
N1348 C1344 1.427 . S
N1348 C1345 1.384 . S
N1349 C1341 1.427 . S
N1349 C1347 1.384 . S
H1350 C1356 0.930 . S
H1351 C1360 0.930 . S
H1352 C1365 0.929 1_565 S
H1353 C1363 0.929 . S
H1354 C1358 0.929 . S
H1355 C1364 0.929 . S
C1356 H1350 0.930 . S
C1356 C1357 1.367 . S
C1356 C1364 1.378 . S
C1357 C1356 1.367 . S
C1357 C1365 1.433 . S
C1358 H1354 0.929 . S
C1358 C1360 1.378 . S
C1358 C1362 1.350 . S
C1359 C1362 1.463 1_545 S
C1359 C1364 1.350 . S
C1359 N1367 1.427 1_545 S
C1360 H1351 0.930 . S
C1360 C1358 1.378 . S
C1360 C1361 1.367 . S
C1361 C1360 1.367 . S
C1361 C1363 1.433 . S
C1362 C1358 1.350 . S
C1362 C1359 1.463 1_565 S
C1362 N1366 1.413 1_565 S
C1363 H1353 0.929 . S
C1363 C1361 1.433 . S
C1363 N1366 1.373 1_565 S
C1364 H1355 0.929 . S
C1364 C1356 1.378 . S
C1364 C1359 1.350 . S
C1365 H1352 0.929 1_545 S
C1365 C1357 1.433 . S
C1365 N1367 1.384 1_545 S
N1366 C1362 1.413 1_545 S
N1366 C1363 1.373 1_545 S
N1367 C1359 1.427 1_565 S
N1367 C1365 1.384 1_565 S
H1368 C1374 0.930 . S
H1369 C1378 0.930 . S
H1370 C1383 0.929 . S
H1371 C1381 0.929 . S
H1372 C1376 0.929 . S
H1373 C1382 0.929 . S
C1374 H1368 0.930 . S
C1374 C1375 1.367 . S
C1374 C1382 1.378 . S
C1375 C1374 1.367 . S
C1375 C1383 1.433 . S
C1376 H1372 0.929 . S
C1376 C1378 1.378 1_455 S
C1376 C1380 1.350 . S
C1377 C1380 1.463 . S
C1377 C1382 1.350 . S
C1377 N1385 1.427 . S
C1378 H1369 0.930 . S
C1378 C1376 1.378 1_655 S
C1378 C1379 1.367 . S
C1379 C1378 1.367 . S
C1379 C1381 1.433 . S
C1380 C1376 1.350 . S
C1380 C1377 1.463 . S
C1380 N1384 1.427 1_455 S
C1381 H1371 0.929 . S
C1381 C1379 1.433 . S
C1381 N1384 1.384 . S
C1382 H1373 0.929 . S
C1382 C1374 1.378 . S
C1382 C1377 1.350 . S
C1383 H1370 0.929 . S
C1383 C1375 1.433 . S
C1383 N1385 1.384 . S
N1384 C1380 1.427 1_655 S
N1384 C1381 1.384 . S
N1385 C1377 1.427 . S
N1385 C1383 1.384 . S
H1386 C1392 0.930 . S
H1387 C1396 0.930 . S
H1388 C1401 0.929 . S
H1389 C1399 0.929 . S
H1390 C1394 0.929 . S
H1391 C1400 0.929 . S
C1392 H1386 0.930 . S
C1392 C1393 1.367 . S
C1392 C1400 1.378 . S
C1393 C1392 1.367 . S
C1393 C1401 1.433 . S
C1394 H1390 0.929 . S
C1394 C1396 1.378 . S
C1394 C1398 1.350 . S
C1395 C1398 1.463 . S
C1395 C1400 1.350 . S
C1395 N1403 1.427 . S
C1396 H1387 0.930 . S
C1396 C1394 1.378 . S
C1396 C1397 1.367 . S
C1397 C1396 1.367 . S
C1397 C1399 1.433 . S
C1398 C1394 1.350 . S
C1398 C1395 1.463 . S
C1398 N1402 1.427 . S
C1399 H1389 0.929 . S
C1399 C1397 1.433 . S
C1399 N1402 1.384 . S
C1400 H1391 0.929 . S
C1400 C1392 1.378 . S
C1400 C1395 1.350 . S
C1401 H1388 0.929 . S
C1401 C1393 1.433 . S
C1401 N1403 1.384 . S
N1402 C1398 1.427 . S
N1402 C1399 1.384 . S
N1403 C1395 1.427 . S
N1403 C1401 1.384 . S
H1404 C1410 0.930 . S
H1405 C1414 0.930 . S
H1406 C1419 0.929 . S
H1407 C1417 0.929 . S
H1408 C1412 0.929 . S
H1409 C1418 0.929 . S
C1410 H1404 0.930 . S
C1410 C1411 1.367 . S
C1410 C1418 1.378 . S
C1411 C1410 1.367 . S
C1411 C1419 1.433 . S
C1412 H1408 0.929 . S
C1412 C1414 1.378 . S
C1412 C1416 1.350 . S
C1413 C1416 1.463 . S
C1413 C1418 1.350 . S
C1413 N1421 1.427 . S
C1414 H1405 0.930 . S
C1414 C1412 1.378 . S
C1414 C1415 1.367 . S
C1415 C1414 1.367 . S
C1415 C1417 1.433 . S
C1416 C1412 1.350 . S
C1416 C1413 1.463 . S
C1416 N1420 1.427 . S
C1417 H1407 0.929 . S
C1417 C1415 1.433 . S
C1417 N1420 1.384 . S
C1418 H1409 0.929 . S
C1418 C1410 1.378 . S
C1418 C1413 1.350 . S
C1419 H1406 0.929 . S
C1419 C1411 1.433 . S
C1419 N1421 1.384 . S
N1420 C1416 1.427 . S
N1420 C1417 1.384 . S
N1421 C1413 1.427 . S
N1421 C1419 1.384 . S
H1422 C1428 0.930 . S
H1423 C1432 0.930 . S
H1424 C1437 0.929 . S
H1425 C1435 0.929 . S
H1426 C1430 0.929 . S
H1427 C1436 0.929 . S
C1428 H1422 0.930 . S
C1428 C1429 1.367 . S
C1428 C1436 1.378 . S
C1429 C1428 1.367 . S
C1429 C1437 1.433 . S
C1430 H1426 0.929 . S
C1430 C1432 1.378 . S
C1430 C1434 1.350 . S
C1431 C1434 1.463 . S
C1431 C1436 1.350 . S
C1431 N1439 1.427 . S
C1432 H1423 0.930 . S
C1432 C1430 1.378 . S
C1432 C1433 1.367 . S
C1433 C1432 1.367 . S
C1433 C1435 1.433 . S
C1434 C1430 1.350 . S
C1434 C1431 1.463 . S
C1434 N1438 1.427 . S
C1435 H1425 0.929 . S
C1435 C1433 1.433 . S
C1435 N1438 1.384 . S
C1436 H1427 0.929 . S
C1436 C1428 1.378 . S
C1436 C1431 1.350 . S
C1437 H1424 0.929 . S
C1437 C1429 1.433 . S
C1437 N1439 1.384 . S
N1438 C1434 1.427 . S
N1438 C1435 1.384 . S
N1439 C1431 1.427 . S
N1439 C1437 1.384 . S
H1440 C1446 0.930 . S
H1441 C1450 0.930 . S
H1442 C1455 0.929 . S
H1443 C1453 0.929 . S
H1444 C1448 0.929 . S
H1445 C1454 0.929 . S
C1446 H1440 0.930 . S
C1446 C1447 1.367 . S
C1446 C1454 1.378 . S
C1447 C1446 1.367 . S
C1447 C1455 1.433 . S
C1448 H1444 0.929 . S
C1448 C1450 1.378 . S
C1448 C1452 1.350 . S
C1449 C1452 1.463 . S
C1449 C1454 1.350 . S
C1449 N1457 1.427 . S
C1450 H1441 0.930 . S
C1450 C1448 1.378 . S
C1450 C1451 1.367 . S
C1451 C1450 1.367 . S
C1451 C1453 1.433 . S
C1452 C1448 1.350 . S
C1452 C1449 1.463 . S
C1452 N1456 1.427 . S
C1453 H1443 0.929 . S
C1453 C1451 1.433 . S
C1453 N1456 1.384 . S
C1454 H1445 0.929 . S
C1454 C1446 1.378 . S
C1454 C1449 1.350 . S
C1455 H1442 0.929 . S
C1455 C1447 1.433 . S
C1455 N1457 1.384 . S
N1456 C1452 1.427 . S
N1456 C1453 1.384 . S
N1457 C1449 1.427 . S
N1457 C1455 1.384 . S
H1458 C1464 0.930 . S
H1459 C1468 0.930 . S
H1460 C1473 0.929 . S
H1461 C1471 0.929 . S
H1462 C1466 0.929 . S
H1463 C1472 0.929 . S
C1464 H1458 0.930 . S
C1464 C1465 1.367 . S
C1464 C1472 1.378 . S
C1465 C1464 1.367 . S
C1465 C1473 1.433 . S
C1466 H1462 0.929 . S
C1466 C1468 1.378 . S
C1466 C1470 1.350 . S
C1467 C1470 1.463 . S
C1467 C1472 1.350 . S
C1467 N1475 1.427 . S
C1468 H1459 0.930 . S
C1468 C1466 1.378 . S
C1468 C1469 1.367 . S
C1469 C1468 1.367 . S
C1469 C1471 1.433 . S
C1470 C1466 1.350 . S
C1470 C1467 1.463 . S
C1470 N1474 1.427 . S
C1471 H1461 0.929 . S
C1471 C1469 1.433 . S
C1471 N1474 1.384 . S
C1472 H1463 0.929 . S
C1472 C1464 1.378 . S
C1472 C1467 1.350 . S
C1473 H1460 0.929 . S
C1473 C1465 1.433 . S
C1473 N1475 1.384 . S
N1474 C1470 1.427 . S
N1474 C1471 1.384 . S
N1475 C1467 1.427 . S
N1475 C1473 1.384 . S
H1476 C1482 0.930 . S
H1477 C1486 0.930 . S
H1478 C1491 0.929 . S
H1479 C1489 0.929 . S
H1480 C1484 0.929 . S
H1481 C1490 0.929 . S
C1482 H1476 0.930 . S
C1482 C1483 1.367 . S
C1482 C1490 1.378 . S
C1483 C1482 1.367 . S
C1483 C1491 1.433 . S
C1484 H1480 0.929 . S
C1484 C1486 1.378 . S
C1484 C1488 1.350 . S
C1485 C1488 1.463 . S
C1485 C1490 1.350 . S
C1485 N1493 1.427 . S
C1486 H1477 0.930 . S
C1486 C1484 1.378 . S
C1486 C1487 1.367 . S
C1487 C1486 1.367 . S
C1487 C1489 1.433 . S
C1488 C1484 1.350 . S
C1488 C1485 1.463 . S
C1488 N1492 1.427 . S
C1489 H1479 0.929 . S
C1489 C1487 1.433 . S
C1489 N1492 1.384 . S
C1490 H1481 0.929 . S
C1490 C1482 1.378 . S
C1490 C1485 1.350 . S
C1491 H1478 0.929 . S
C1491 C1483 1.433 . S
C1491 N1493 1.384 . S
N1492 C1488 1.427 . S
N1492 C1489 1.384 . S
N1493 C1485 1.427 . S
N1493 C1491 1.384 . S
H1494 C1500 0.930 . S
H1495 C1504 0.930 . S
H1496 C1509 0.929 . S
H1497 C1507 0.929 . S
H1498 C1502 0.929 . S
H1499 C1508 0.929 . S
C1500 H1494 0.930 . S
C1500 C1501 1.367 . S
C1500 C1508 1.378 . S
C1501 C1500 1.367 . S
C1501 C1509 1.433 . S
C1502 H1498 0.929 . S
C1502 C1504 1.378 . S
C1502 C1506 1.350 . S
C1503 C1506 1.463 . S
C1503 C1508 1.350 . S
C1503 N1511 1.427 . S
C1504 H1495 0.930 . S
C1504 C1502 1.378 . S
C1504 C1505 1.367 . S
C1505 C1504 1.367 . S
C1505 C1507 1.433 . S
C1506 C1502 1.350 . S
C1506 C1503 1.463 . S
C1506 N1510 1.427 . S
C1507 H1497 0.929 . S
C1507 C1505 1.433 . S
C1507 N1510 1.384 . S
C1508 H1499 0.929 . S
C1508 C1500 1.378 . S
C1508 C1503 1.350 . S
C1509 H1496 0.929 . S
C1509 C1501 1.433 . S
C1509 N1511 1.384 . S
N1510 C1506 1.427 . S
N1510 C1507 1.384 . S
N1511 C1503 1.427 . S
N1511 C1509 1.384 . S
H1512 C1518 0.930 . S
H1513 C1522 0.930 . S
H1514 C1527 0.929 . S
H1515 C1525 0.929 . S
H1516 C1520 0.929 . S
H1517 C1526 0.929 . S
C1518 H1512 0.930 . S
C1518 C1519 1.367 . S
C1518 C1526 1.378 . S
C1519 C1518 1.367 . S
C1519 C1527 1.433 . S
C1520 H1516 0.929 . S
C1520 C1522 1.378 . S
C1520 C1524 1.350 . S
C1521 C1524 1.463 . S
C1521 C1526 1.350 . S
C1521 N1529 1.427 . S
C1522 H1513 0.930 . S
C1522 C1520 1.378 . S
C1522 C1523 1.367 . S
C1523 C1522 1.367 . S
C1523 C1525 1.433 . S
C1524 C1520 1.350 . S
C1524 C1521 1.463 . S
C1524 N1528 1.427 . S
C1525 H1515 0.929 . S
C1525 C1523 1.433 . S
C1525 N1528 1.384 . S
C1526 H1517 0.929 . S
C1526 C1518 1.378 . S
C1526 C1521 1.350 . S
C1527 H1514 0.929 . S
C1527 C1519 1.433 . S
C1527 N1529 1.384 . S
N1528 C1524 1.427 . S
N1528 C1525 1.384 . S
N1529 C1521 1.427 . S
N1529 C1527 1.384 . S
H1530 C1536 0.930 . S
H1531 C1540 0.930 . S
H1532 C1545 0.929 . S
H1533 C1543 0.929 . S
H1534 C1538 0.929 . S
H1535 C1544 0.929 . S
C1536 H1530 0.930 . S
C1536 C1537 1.367 . S
C1536 C1544 1.378 . S
C1537 C1536 1.367 . S
C1537 C1545 1.433 . S
C1538 H1534 0.929 . S
C1538 C1540 1.378 . S
C1538 C1542 1.350 . S
C1539 C1542 1.463 . S
C1539 C1544 1.350 . S
C1539 N1547 1.427 . S
C1540 H1531 0.930 . S
C1540 C1538 1.378 . S
C1540 C1541 1.367 . S
C1541 C1540 1.367 . S
C1541 C1543 1.433 . S
C1542 C1538 1.350 . S
C1542 C1539 1.463 . S
C1542 N1546 1.427 . S
C1543 H1533 0.929 . S
C1543 C1541 1.433 . S
C1543 N1546 1.384 . S
C1544 H1535 0.929 . S
C1544 C1536 1.378 . S
C1544 C1539 1.350 . S
C1545 H1532 0.929 . S
C1545 C1537 1.433 . S
C1545 N1547 1.384 . S
N1546 C1542 1.427 . S
N1546 C1543 1.384 . S
N1547 C1539 1.427 . S
N1547 C1545 1.384 . S
H1548 C1554 0.930 . S
H1549 C1558 0.930 . S
H1550 C1563 0.929 . S
H1551 C1561 0.929 . S
H1552 C1556 0.929 . S
H1553 C1562 0.929 . S
C1554 H1548 0.930 . S
C1554 C1555 1.367 . S
C1554 C1562 1.378 . S
C1555 C1554 1.367 . S
C1555 C1563 1.433 . S
C1556 H1552 0.929 . S
C1556 C1558 1.378 . S
C1556 C1560 1.350 . S
C1557 C1560 1.463 . S
C1557 C1562 1.350 . S
C1557 N1565 1.427 . S
C1558 H1549 0.930 . S
C1558 C1556 1.378 . S
C1558 C1559 1.367 . S
C1559 C1558 1.367 . S
C1559 C1561 1.433 . S
C1560 C1556 1.350 . S
C1560 C1557 1.463 . S
C1560 N1564 1.427 . S
C1561 H1551 0.929 . S
C1561 C1559 1.433 . S
C1561 N1564 1.384 . S
C1562 H1553 0.929 . S
C1562 C1554 1.378 . S
C1562 C1557 1.350 . S
C1563 H1550 0.929 . S
C1563 C1555 1.433 . S
C1563 N1565 1.384 . S
N1564 C1560 1.427 . S
N1564 C1561 1.384 . S
N1565 C1557 1.427 . S
N1565 C1563 1.384 . S
H1566 C1572 0.930 . S
H1567 C1576 0.930 . S
H1568 C1581 0.929 . S
H1569 C1579 0.929 . S
H1570 C1574 0.929 . S
H1571 C1580 0.929 . S
C1572 H1566 0.930 . S
C1572 C1573 1.367 . S
C1572 C1580 1.378 . S
C1573 C1572 1.367 . S
C1573 C1581 1.433 . S
C1574 H1570 0.929 . S
C1574 C1576 1.378 . S
C1574 C1578 1.350 . S
C1575 C1578 1.463 . S
C1575 C1580 1.350 . S
C1575 N1583 1.427 . S
C1576 H1567 0.930 . S
C1576 C1574 1.378 . S
C1576 C1577 1.367 . S
C1577 C1576 1.367 . S
C1577 C1579 1.433 . S
C1578 C1574 1.350 . S
C1578 C1575 1.463 . S
C1578 N1582 1.427 . S
C1579 H1569 0.929 . S
C1579 C1577 1.433 . S
C1579 N1582 1.384 . S
C1580 H1571 0.929 . S
C1580 C1572 1.378 . S
C1580 C1575 1.350 . S
C1581 H1568 0.929 . S
C1581 C1573 1.433 . S
C1581 N1583 1.384 . S
N1582 C1578 1.427 . S
N1582 C1579 1.384 . S
N1583 C1575 1.427 . S
N1583 C1581 1.384 . S
H1584 C1590 0.930 . S
H1585 C1594 0.930 . S
H1586 C1599 0.929 . S
H1587 C1597 0.929 . S
H1588 C1592 0.929 . S
H1589 C1598 0.929 . S
C1590 H1584 0.930 . S
C1590 C1591 1.367 . S
C1590 C1598 1.378 . S
C1591 C1590 1.367 . S
C1591 C1599 1.433 . S
C1592 H1588 0.929 . S
C1592 C1594 1.378 . S
C1592 C1596 1.350 . S
C1593 C1596 1.463 . S
C1593 C1598 1.350 . S
C1593 N1601 1.427 . S
C1594 H1585 0.930 . S
C1594 C1592 1.378 . S
C1594 C1595 1.367 . S
C1595 C1594 1.367 . S
C1595 C1597 1.433 . S
C1596 C1592 1.350 . S
C1596 C1593 1.463 . S
C1596 N1600 1.427 . S
C1597 H1587 0.929 . S
C1597 C1595 1.433 . S
C1597 N1600 1.384 . S
C1598 H1589 0.929 . S
C1598 C1590 1.378 . S
C1598 C1593 1.350 . S
C1599 H1586 0.929 . S
C1599 C1591 1.433 . S
C1599 N1601 1.384 . S
N1600 C1596 1.427 . S
N1600 C1597 1.384 . S
N1601 C1593 1.427 . S
N1601 C1599 1.384 . S
H1602 C1608 0.930 . S
H1603 C1612 0.930 . S
H1604 C1617 0.929 . S
H1605 C1615 0.929 . S
H1606 C1610 0.929 . S
H1607 C1616 0.929 . S
C1608 H1602 0.930 . S
C1608 C1609 1.367 . S
C1608 C1616 1.378 . S
C1609 C1608 1.367 . S
C1609 C1617 1.433 . S
C1610 H1606 0.929 . S
C1610 C1612 1.378 . S
C1610 C1614 1.350 . S
C1611 C1614 1.463 . S
C1611 C1616 1.350 . S
C1611 N1619 1.427 . S
C1612 H1603 0.930 . S
C1612 C1610 1.378 . S
C1612 C1613 1.367 . S
C1613 C1612 1.367 . S
C1613 C1615 1.433 . S
C1614 C1610 1.350 . S
C1614 C1611 1.463 . S
C1614 N1618 1.427 . S
C1615 H1605 0.929 . S
C1615 C1613 1.433 . S
C1615 N1618 1.384 . S
C1616 H1607 0.929 . S
C1616 C1608 1.378 . S
C1616 C1611 1.350 . S
C1617 H1604 0.929 . S
C1617 C1609 1.433 . S
C1617 N1619 1.384 . S
N1618 C1614 1.427 . S
N1618 C1615 1.384 . S
N1619 C1611 1.427 . S
N1619 C1617 1.384 . S
H1620 C1626 0.930 . S
H1621 C1630 0.930 . S
H1622 C1635 0.929 . S
H1623 C1633 0.929 . S
H1624 C1628 0.929 . S
H1625 C1634 0.929 . S
C1626 H1620 0.930 . S
C1626 C1627 1.367 . S
C1626 C1634 1.378 . S
C1627 C1626 1.367 . S
C1627 C1635 1.433 . S
C1628 H1624 0.929 . S
C1628 C1630 1.378 . S
C1628 C1632 1.350 1_565 S
C1629 C1632 1.463 . S
C1629 C1634 1.350 . S
C1629 N1637 1.427 . S
C1630 H1621 0.930 . S
C1630 C1628 1.378 . S
C1630 C1631 1.367 . S
C1631 C1630 1.367 . S
C1631 C1633 1.433 . S
C1632 C1628 1.350 1_545 S
C1632 C1629 1.463 . S
C1632 N1636 1.427 . S
C1633 H1623 0.929 . S
C1633 C1631 1.433 . S
C1633 N1636 1.384 1_565 S
C1634 H1625 0.929 . S
C1634 C1626 1.378 . S
C1634 C1629 1.350 . S
C1635 H1622 0.929 . S
C1635 C1627 1.433 . S
C1635 N1637 1.384 . S
N1636 C1632 1.427 . S
N1636 C1633 1.384 1_545 S
N1637 C1629 1.427 . S
N1637 C1635 1.384 . S
H1638 C1644 0.930 . S
H1639 C1648 0.930 . S
H1640 C1653 0.929 . S
H1641 C1651 0.929 . S
H1642 C1646 0.929 . S
H1643 C1652 0.929 . S
C1644 H1638 0.930 . S
C1644 C1645 1.367 . S
C1644 C1652 1.378 . S
C1645 C1644 1.367 . S
C1645 C1653 1.433 . S
C1646 H1642 0.929 . S
C1646 C1648 1.378 . S
C1646 C1650 1.350 1_655 S
C1647 C1650 1.463 . S
C1647 C1652 1.350 . S
C1647 N1655 1.427 . S
C1648 H1639 0.930 . S
C1648 C1646 1.378 . S
C1648 C1649 1.367 . S
C1649 C1648 1.367 . S
C1649 C1651 1.433 . S
C1650 C1646 1.350 1_455 S
C1650 C1647 1.463 . S
C1650 N1654 1.427 . S
C1651 H1641 0.929 . S
C1651 C1649 1.433 . S
C1651 N1654 1.384 1_655 S
C1652 H1643 0.929 . S
C1652 C1644 1.378 . S
C1652 C1647 1.350 . S
C1653 H1640 0.929 . S
C1653 C1645 1.433 . S
C1653 N1655 1.384 . S
N1654 C1650 1.427 . S
N1654 C1651 1.384 1_455 S
N1655 C1647 1.427 . S
N1655 C1653 1.384 . S
H1656 C1662 0.930 . S
H1657 C1666 0.930 . S
H1658 C1671 0.929 . S
H1659 C1669 0.929 . S
H1660 C1664 0.929 1_556 S
H1661 C1670 0.929 1_554 S
C1662 H1656 0.930 . S
C1662 C1663 1.367 . S
C1662 C1670 1.378 . S
C1663 C1662 1.367 . S
C1663 C1671 1.433 . S
C1664 H1660 0.929 1_554 S
C1664 C1666 1.378 . S
C1664 C1668 1.350 . S
C1665 C1668 1.463 1_556 S
C1665 C1670 1.350 . S
C1665 N1673 1.427 . S
C1666 H1657 0.930 . S
C1666 C1664 1.378 . S
C1666 C1667 1.367 . S
C1667 C1666 1.367 . S
C1667 C1669 1.433 . S
C1668 C1664 1.350 . S
C1668 C1665 1.463 1_554 S
C1668 N1672 1.427 . S
C1669 H1659 0.929 . S
C1669 C1667 1.433 . S
C1669 N1672 1.384 . S
C1670 H1661 0.929 1_556 S
C1670 C1662 1.378 . S
C1670 C1665 1.350 . S
C1671 H1658 0.929 . S
C1671 C1663 1.433 . S
C1671 N1673 1.384 . S
N1672 C1668 1.427 . S
N1672 C1669 1.384 . S
N1673 C1665 1.427 . S
N1673 C1671 1.384 . S
H1674 C1680 0.930 . S
H1675 C1684 0.930 . S
H1676 C1689 0.929 . S
H1677 C1687 0.929 . S
H1678 C1682 0.929 1_556 S
H1679 C1688 0.929 1_554 S
C1680 H1674 0.930 . S
C1680 C1681 1.367 . S
C1680 C1688 1.378 . S
C1681 C1680 1.367 . S
C1681 C1689 1.433 . S
C1682 H1678 0.929 1_554 S
C1682 C1684 1.378 . S
C1682 C1686 1.350 . S
C1683 C1686 1.463 1_566 S
C1683 C1688 1.350 . S
C1683 N1691 1.427 1_565 S
C1684 H1675 0.930 . S
C1684 C1682 1.378 . S
C1684 C1685 1.367 . S
C1685 C1684 1.367 . S
C1685 C1687 1.433 . S
C1686 C1682 1.350 . S
C1686 C1683 1.463 1_544 S
C1686 N1690 1.427 1_545 S
C1687 H1677 0.929 . S
C1687 C1685 1.433 . S
C1687 N1690 1.384 1_545 S
C1688 H1679 0.929 1_556 S
C1688 C1680 1.378 . S
C1688 C1683 1.350 . S
C1689 H1676 0.929 . S
C1689 C1681 1.433 . S
C1689 N1691 1.384 1_565 S
N1690 C1686 1.427 1_565 S
N1690 C1687 1.384 1_565 S
N1691 C1683 1.427 1_545 S
N1691 C1689 1.384 1_545 S
H1692 C1698 0.930 . S
H1693 C1702 0.930 . S
H1694 C1707 0.929 1_554 S
H1695 C1705 0.929 1_556 S
H1696 C1700 0.934 1_455 S
H1697 C1706 0.929 . S
C1698 H1692 0.930 . S
C1698 C1699 1.367 . S
C1698 C1706 1.378 . S
C1699 C1698 1.367 . S
C1699 C1707 1.433 . S
C1700 H1696 0.934 1_655 S
C1700 C1702 1.378 . S
C1700 C1704 1.350 1_655 S
C1701 C1704 1.463 1_556 S
C1701 C1706 1.350 . S
C1701 N1709 1.427 1_556 S
C1702 H1693 0.930 . S
C1702 C1700 1.378 . S
C1702 C1703 1.367 . S
C1703 C1702 1.367 . S
C1703 C1705 1.433 . S
C1704 C1700 1.350 1_455 S
C1704 C1701 1.463 1_554 S
C1704 N1708 1.427 1_454 S
C1705 H1695 0.929 1_554 S
C1705 C1703 1.433 . S
C1705 N1708 1.384 1_554 S
C1706 H1697 0.929 . S
C1706 C1698 1.378 . S
C1706 C1701 1.350 . S
C1707 H1694 0.929 1_556 S
C1707 C1699 1.433 . S
C1707 N1709 1.384 1_556 S
N1708 C1704 1.427 1_656 S
N1708 C1705 1.384 1_556 S
N1709 C1701 1.427 1_554 S
N1709 C1707 1.384 1_554 S
C1069 C33 1.242 . S
C1073 C829 1.240 1_554 S
C1087 C711 1.184 1_554 S
C1091 C62 1.184 . S
C1105 C151 1.449 1_565 S
C1109 C800 1.446 1_554 S
C1123 C387 1.178 . S
C1127 C121 1.176 . S
C1141 C416 1.155 . S
C1145 C3 1.154 . S
C1159 C475 1.365 . S
C1163 C92 1.368 . S
C1177 C180 1.157 . S
C1181 C652 1.157 1_556 S
C1195 C534 1.043 1_556 S
C1199 C239 1.040 . S
C1213 C593 1.328 1_556 S
C1217 C328 1.330 . S
C1231 C298 1.229 . S
C1235 C888 1.223 . S
C1249 C210 1.202 . S
C1253 C947 1.199 . S
C1267 C1036 1.465 . S
C1271 C269 1.462 . S
C1285 C741 1.314 . S
C1289 C505 1.312 . S
C1303 C357 1.219 . S
C1307 C770 1.220 . S
C1321 C859 1.532 . S
C1325 C446 1.527 . S
C1339 C1006 1.366 . S
C1343 C564 1.367 . S
C1357 C623 1.317 . S
C1361 C918 1.317 . S
C1375 C977 1.553 . S
C1379 C682 1.552 . S
C1393 C937 1.932 . S
C1397 C5 1.897 . S
C1411 C111 1.765 . S
C1415 C996 1.774 . S
C1429 C123 1.610 . S
C1433 C1008 1.616 . S
C1447 C170 1.576 . S
C1451 C701 1.567 . S
C1465 C583 1.983 . S
C1469 C52 1.982 . S
C1483 C64 1.775 . S
C1487 C642 1.815 . S
C1501 C359 1.949 . S
C1505 C229 1.979 . S
C1519 C465 1.572 . S
C1523 C288 1.563 . S
C1537 C300 1.723 . S
C1541 C524 1.763 . S
C1555 C347 1.779 . S
C1559 C878 1.788 . S
C1573 C182 1.806 . S
C1577 C760 1.846 . S
C1591 C241 1.833 . S
C1595 C772 1.845 . S
C1609 C477 1.681 . S
C1613 C1055 1.712 . S
C1627 C406 2.027 . S
C1631 C890 2.025 . S
C1645 C949 1.851 . S
C1649 C418 1.856 . S
C1663 C713 2.003 . S
C1667 C536 1.975 . S
C1681 C819 1.659 . S
C1685 C595 1.642 . S
C1699 C831 1.777 . S
C1703 C654 1.788 . S
