# Generated by pormake.
# Topology uoa, (4)-cn, num edge types: 1
# Building blocks:
#     Node 0, Type 0, BuildingBlock: MUDLON_clean_sbu_0, # of connection points: 4
#     Node 1, Type 0, BuildingBlock: MUDLON_clean_sbu_0, # of connection points: 4
#     Node 2, Type 0, BuildingBlock: MUDLON_clean_sbu_0, # of connection points: 4
#     Node 3, Type 0, BuildingBlock: MUDLON_clean_sbu_0, # of connection points: 4
#     Node 4, Type 0, BuildingBlock: MUDLON_clean_sbu_0, # of connection points: 4
#     Node 5, Type 0, BuildingBlock: MUDLON_clean_sbu_0, # of connection points: 4
#     Node 6, Type 0, BuildingBlock: MUDLON_clean_sbu_0, # of connection points: 4
#     Node 7, Type 0, BuildingBlock: MUDLON_clean_sbu_0, # of connection points: 4
#     Node 8, Type 0, BuildingBlock: MUDLON_clean_sbu_0, # of connection points: 4
#     Node 9, Type 0, BuildingBlock: MUDLON_clean_sbu_0, # of connection points: 4
#     Node 10, Type 0, BuildingBlock: MUDLON_clean_sbu_0, # of connection points: 4
#     Node 11, Type 0, BuildingBlock: MUDLON_clean_sbu_0, # of connection points: 4
#     Node 12, Type 0, BuildingBlock: MUDLON_clean_sbu_0, # of connection points: 4
#     Node 13, Type 0, BuildingBlock: MUDLON_clean_sbu_0, # of connection points: 4
#     Node 14, Type 0, BuildingBlock: MUDLON_clean_sbu_0, # of connection points: 4
#     Node 15, Type 0, BuildingBlock: MUDLON_clean_sbu_0, # of connection points: 4
#     Node 16, Type 0, BuildingBlock: MUDLON_clean_sbu_0, # of connection points: 4
#     Node 17, Type 0, BuildingBlock: MUDLON_clean_sbu_0, # of connection points: 4
#     Node 18, Type 0, BuildingBlock: MUDLON_clean_sbu_0, # of connection points: 4
#     Node 19, Type 0, BuildingBlock: MUDLON_clean_sbu_0, # of connection points: 4
#     Node 20, Type 0, BuildingBlock: MUDLON_clean_sbu_0, # of connection points: 4
#     Node 21, Type 0, BuildingBlock: MUDLON_clean_sbu_0, # of connection points: 4
#     Node 22, Type 0, BuildingBlock: MUDLON_clean_sbu_0, # of connection points: 4
#     Node 23, Type 0, BuildingBlock: MUDLON_clean_sbu_0, # of connection points: 4
#     Node 24, Type 0, BuildingBlock: MUDLON_clean_sbu_0, # of connection points: 4
#     Node 25, Type 0, BuildingBlock: MUDLON_clean_sbu_0, # of connection points: 4
#     Node 26, Type 0, BuildingBlock: MUDLON_clean_sbu_0, # of connection points: 4
#     Node 27, Type 0, BuildingBlock: MUDLON_clean_sbu_0, # of connection points: 4
#     Node 28, Type 0, BuildingBlock: MUDLON_clean_sbu_0, # of connection points: 4
#     Node 29, Type 0, BuildingBlock: MUDLON_clean_sbu_0, # of connection points: 4
#     Node 30, Type 0, BuildingBlock: MUDLON_clean_sbu_0, # of connection points: 4
#     Node 31, Type 0, BuildingBlock: MUDLON_clean_sbu_0, # of connection points: 4
#     Edge 32, Type (0, 0), None
#     Edge 33, Type (0, 0), None
#     Edge 34, Type (0, 0), None
#     Edge 35, Type (0, 0), None
#     Edge 36, Type (0, 0), None
#     Edge 37, Type (0, 0), None
#     Edge 38, Type (0, 0), None
#     Edge 39, Type (0, 0), None
#     Edge 40, Type (0, 0), None
#     Edge 41, Type (0, 0), None
#     Edge 42, Type (0, 0), None
#     Edge 43, Type (0, 0), None
#     Edge 44, Type (0, 0), None
#     Edge 45, Type (0, 0), None
#     Edge 46, Type (0, 0), None
#     Edge 47, Type (0, 0), None
#     Edge 48, Type (0, 0), None
#     Edge 49, Type (0, 0), None
#     Edge 50, Type (0, 0), None
#     Edge 51, Type (0, 0), None
#     Edge 52, Type (0, 0), None
#     Edge 53, Type (0, 0), None
#     Edge 54, Type (0, 0), None
#     Edge 55, Type (0, 0), None
#     Edge 56, Type (0, 0), None
#     Edge 57, Type (0, 0), None
#     Edge 58, Type (0, 0), None
#     Edge 59, Type (0, 0), None
#     Edge 60, Type (0, 0), None
#     Edge 61, Type (0, 0), None
#     Edge 62, Type (0, 0), None
#     Edge 63, Type (0, 0), None
#     Edge 64, Type (0, 0), None
#     Edge 65, Type (0, 0), None
#     Edge 66, Type (0, 0), None
#     Edge 67, Type (0, 0), None
#     Edge 68, Type (0, 0), None
#     Edge 69, Type (0, 0), None
#     Edge 70, Type (0, 0), None
#     Edge 71, Type (0, 0), None
#     Edge 72, Type (0, 0), None
#     Edge 73, Type (0, 0), None
#     Edge 74, Type (0, 0), None
#     Edge 75, Type (0, 0), None
#     Edge 76, Type (0, 0), None
#     Edge 77, Type (0, 0), None
#     Edge 78, Type (0, 0), None
#     Edge 79, Type (0, 0), None
#     Edge 80, Type (0, 0), None
#     Edge 81, Type (0, 0), None
#     Edge 82, Type (0, 0), None
#     Edge 83, Type (0, 0), None
#     Edge 84, Type (0, 0), None
#     Edge 85, Type (0, 0), None
#     Edge 86, Type (0, 0), None
#     Edge 87, Type (0, 0), None
#     Edge 88, Type (0, 0), None
#     Edge 89, Type (0, 0), None
#     Edge 90, Type (0, 0), None
#     Edge 91, Type (0, 0), None
#     Edge 92, Type (0, 0), None
#     Edge 93, Type (0, 0), None
#     Edge 94, Type (0, 0), None
#     Edge 95, Type (0, 0), None
# Relax obj value: 0.110
# Max RMSD: 0.248
# Mean RMSD: 0.248
data_MOF--net-uoa--node1-MUDLON_clean_sbu_0--edge1-none
_symmetry_space_group_name_H-M    P1
_symmetry_Int_Tables_number       1
_symmetry_cell_setting            triclinic
loop_
_symmetry_equiv_pos_as_xyz
'x, y, z'
_cell_length_a     36.833958
_cell_length_b     36.818341
_cell_length_c     13.897505
_cell_angle_alpha  90.001801
_cell_angle_beta   89.999995
_cell_angle_gamma 89.999041
loop_
_atom_site_label
_atom_site_type_symbol
_atom_site_fract_x
_atom_site_fract_y
_atom_site_fract_z
_atom_type_partial_charge
Mg0 Mg 0.03293 0.09802 0.04703 0.0
C1 C 0.0046 0.02358 0.01588 0.0
O2 O 0.97444 0.04203 0.02823 0.0
C3 C 0.10642 0.12325 0.13024 0.0
O4 O 0.09699 0.10399 0.20567 0.0
C5 C 0.01867 0.11266 0.84268 0.0
O6 O 0.04761 0.09183 0.83987 0.0
O7 O 0.00533 0.12131 0.92384 0.0
O8 O 0.03498 0.04006 0.01935 0.0
O9 O 1.00121 0.10221 0.17864 0.0
C10 C 0.00848 0.12076 0.25333 0.0
O11 O 0.03607 0.1433 0.25353 0.0
O12 O 0.08596 0.12393 0.05668 0.0
Mg13 Mg 0.1595 0.78287 0.29301 0.0
C14 C 0.13676 0.75877 0.49934 0.0
O15 O 0.11479 0.78682 0.49978 0.0
C16 C 0.14469 0.76872 0.08866 0.0
O17 O 0.16502 0.79802 0.08578 0.0
C18 C 0.13441 0.85666 0.37501 0.0
O19 O 0.15404 0.84761 0.4501 0.0
O20 O 0.13345 0.83587 0.30212 0.0
O21 O 0.155 0.75111 0.42442 0.0
O22 O 0.21751 0.78501 0.26652 0.0
C23 C 0.23416 0.7547 0.2653 0.0
O24 O 0.21587 0.72453 0.27901 0.0
O25 O 0.13645 0.75513 0.16981 0.0
Mg26 Mg 0.4747 0.90991 0.54703 0.0
C27 C 0.50303 0.98434 0.51588 0.0
O28 O 0.53319 0.96589 0.52822 0.0
C29 C 0.40121 0.88467 0.63024 0.0
O30 O 0.41064 0.90393 0.70568 0.0
C31 C 0.48896 0.89526 0.34268 0.0
O32 O 0.46003 0.9161 0.33987 0.0
O33 O 0.5023 0.88661 0.42383 0.0
O34 O 0.47265 0.96787 0.51935 0.0
O35 O 0.50642 0.90571 0.67864 0.0
C36 C 0.49915 0.88716 0.75333 0.0
O37 O 0.47156 0.86463 0.75353 0.0
O38 O 0.42167 0.88399 0.55668 0.0
Mg39 Mg 0.34813 0.22505 0.79302 0.0
C40 C 0.37087 0.24915 0.99935 0.0
O41 O 0.39284 0.2211 0.99979 0.0
C42 C 0.36294 0.2392 0.58867 0.0
O43 O 0.34261 0.2099 0.58578 0.0
C44 C 0.37322 0.15126 0.87501 0.0
O45 O 0.35359 0.16031 0.95011 0.0
O46 O 0.37418 0.17205 0.80212 0.0
O47 O 0.35263 0.25681 0.92444 0.0
O48 O 0.29012 0.22291 0.76653 0.0
C49 C 0.27346 0.25322 0.76532 0.0
O50 O 0.29176 0.28339 0.77903 0.0
O51 O 0.37117 0.25279 0.66982 0.0
Mg52 Mg 0.03292 0.9099 0.46726 0.0
C53 C 0.0046 0.98434 0.4984 0.0
O54 O 0.97444 0.9659 0.48606 0.0
C55 C 0.10641 0.88466 0.38404 0.0
O56 O 0.09699 0.90392 0.30859 0.0
C57 C 0.01866 0.89526 0.6716 0.0
O58 O 0.0476 0.91609 0.67441 0.0
O59 O 0.00532 0.88661 0.59045 0.0
O60 O 0.03497 0.96786 0.49494 0.0
O61 O 1.0012 0.90571 0.33564 0.0
C62 C 0.00847 0.88716 0.26095 0.0
O63 O 0.03606 0.86462 0.26075 0.0
O64 O 0.08595 0.88399 0.4576 0.0
Mg65 Mg 0.34813 0.78289 0.72126 0.0
C66 C 0.37087 0.75879 0.51493 0.0
O67 O 0.39283 0.78684 0.51449 0.0
C68 C 0.36294 0.76874 0.92561 0.0
O69 O 0.3426 0.79803 0.9285 0.0
C70 C 0.3732 0.85668 0.63927 0.0
O71 O 0.35358 0.84764 0.56416 0.0
O72 O 0.37417 0.83588 0.71216 0.0
O73 O 0.35263 0.75113 0.58985 0.0
O74 O 0.29012 0.78502 0.74775 0.0
C75 C 0.27346 0.7547 0.74896 0.0
O76 O 0.29177 0.72454 0.73526 0.0
O77 O 0.37118 0.75515 0.84446 0.0
Mg78 Mg 0.47471 0.09802 0.96726 0.0
C79 C 0.50303 0.02358 0.9984 0.0
O80 O 0.53319 0.04203 0.98606 0.0
C81 C 0.40122 0.12326 0.88404 0.0
O82 O 0.41064 0.104 0.80858 0.0
C83 C 0.48896 0.11266 0.1716 0.0
O84 O 0.46003 0.09183 0.17441 0.0
O85 O 0.5023 0.12131 0.09045 0.0
O86 O 0.47266 0.04006 0.99493 0.0
O87 O 0.50643 0.10221 0.83564 0.0
C88 C 0.49916 0.12076 0.76095 0.0
O89 O 0.47157 0.1433 0.76076 0.0
O90 O 0.42168 0.12393 0.9576 0.0
Mg91 Mg 0.1595 0.22504 0.22127 0.0
C92 C 0.13676 0.24913 0.01495 0.0
O93 O 0.1148 0.22108 0.0145 0.0
C94 C 0.14469 0.23918 0.42563 0.0
O95 O 0.16502 0.20989 0.42851 0.0
C96 C 0.13443 0.15125 0.13927 0.0
O97 O 0.15405 0.16029 0.06416 0.0
O98 O 0.13346 0.17204 0.21216 0.0
O99 O 0.155 0.2568 0.08987 0.0
O100 O 0.21751 0.22291 0.24777 0.0
C101 C 0.23416 0.25322 0.24898 0.0
O102 O 0.21586 0.28339 0.23528 0.0
O103 O 0.13645 0.25278 0.34448 0.0
Mg104 Mg 0.97471 0.9099 0.96725 0.0
C105 C 0.99915 0.88715 0.76095 0.0
O106 O 0.97155 0.86463 0.76073 0.0
C107 C 0.98896 0.89527 0.1716 0.0
O108 O 0.96003 0.9161 0.17441 0.0
C109 C 0.90121 0.88467 0.88405 0.0
O110 O 0.91064 0.90393 0.80862 0.0
O111 O 0.92167 0.88399 0.9576 0.0
O112 O 0.00643 0.9057 0.83564 0.0
O113 O 0.97266 0.96786 0.99492 0.0
C114 C 1.00303 0.98433 0.99838 0.0
O115 O 0.03319 0.96589 0.98604 0.0
O116 O 1.0023 0.88661 0.09045 0.0
Mg117 Mg 0.84814 0.22505 0.72127 0.0
C118 C 0.77347 0.25322 0.74896 0.0
O119 O 0.79177 0.28339 0.73526 0.0
C120 C 0.87322 0.15126 0.63927 0.0
O121 O 0.85359 0.16031 0.56418 0.0
C122 C 0.86294 0.2392 0.92562 0.0
O123 O 0.84261 0.20991 0.9285 0.0
O124 O 0.87118 0.25279 0.84448 0.0
O125 O 0.79012 0.22291 0.74775 0.0
O126 O 0.85263 0.25681 0.58986 0.0
C127 C 0.87088 0.24915 0.51494 0.0
O128 O 0.89284 0.2211 0.5145 0.0
O129 O 0.87419 0.17206 0.71216 0.0
Mg130 Mg 0.53293 0.09802 0.46725 0.0
C131 C 0.50848 0.12077 0.26095 0.0
O132 O 0.53607 0.1433 0.26074 0.0
C133 C 0.51867 0.11265 0.67161 0.0
O134 O 0.5476 0.09181 0.67441 0.0
C135 C 0.60642 0.12325 0.38404 0.0
O136 O 0.59699 0.10399 0.30861 0.0
O137 O 0.58596 0.12393 0.4576 0.0
O138 O 0.5012 0.10222 0.33564 0.0
O139 O 0.53497 0.04006 0.49491 0.0
C140 C 0.5046 0.02359 0.49839 0.0
O141 O 0.47444 0.04203 0.48605 0.0
O142 O 0.50533 0.12131 0.59046 0.0
Mg143 Mg 0.6595 0.78287 0.22126 0.0
C144 C 0.73417 0.7547 0.24895 0.0
O145 O 0.71587 0.72453 0.23524 0.0
C146 C 0.63441 0.85666 0.13927 0.0
O147 O 0.65404 0.84761 0.06417 0.0
C148 C 0.64469 0.76872 0.42561 0.0
O149 O 0.66502 0.79801 0.42849 0.0
O150 O 0.63646 0.75513 0.34446 0.0
O151 O 0.71751 0.78501 0.24774 0.0
O152 O 0.655 0.75111 0.08985 0.0
C153 C 0.63675 0.75877 0.01493 0.0
O154 O 0.61479 0.78682 0.01449 0.0
O155 O 0.63345 0.83587 0.21216 0.0
Mg156 Mg 0.97471 0.09802 0.54703 0.0
C157 C 0.99916 0.12077 0.75334 0.0
O158 O 0.97156 0.1433 0.75355 0.0
C159 C 0.98897 0.11265 0.34268 0.0
O160 O 0.96004 0.09182 0.33987 0.0
C161 C 0.90122 0.12326 0.63024 0.0
O162 O 0.91064 0.104 0.70569 0.0
O163 O 0.92168 0.12394 0.55668 0.0
O164 O 0.00644 0.10222 0.67864 0.0
O165 O 0.97266 0.04006 0.51936 0.0
C166 C 1.00304 0.02359 0.5159 0.0
O167 O 0.0332 0.04203 0.52824 0.0
O168 O 1.00231 0.12132 0.42383 0.0
Mg169 Mg 0.6595 0.22504 0.29303 0.0
C170 C 0.73417 0.25322 0.26533 0.0
O171 O 0.71586 0.28339 0.27904 0.0
C172 C 0.63443 0.15125 0.37502 0.0
O173 O 0.65405 0.16029 0.45013 0.0
C174 C 0.6447 0.23918 0.08867 0.0
O175 O 0.66503 0.2099 0.08579 0.0
O176 O 0.63646 0.25278 0.16982 0.0
O177 O 0.71751 0.22291 0.26654 0.0
O178 O 0.655 0.2568 0.42444 0.0
C179 C 0.63676 0.24913 0.49935 0.0
O180 O 0.6148 0.22108 0.49979 0.0
O181 O 0.63346 0.17204 0.30213 0.0
Mg182 Mg 0.53292 0.9099 0.04703 0.0
C183 C 0.50847 0.88716 0.25333 0.0
O184 O 0.53607 0.86462 0.25354 0.0
C185 C 0.51866 0.89527 0.84268 0.0
O186 O 0.54759 0.9161 0.83987 0.0
C187 C 0.60641 0.88466 0.13024 0.0
O188 O 0.59699 0.90392 0.2057 0.0
O189 O 0.58595 0.88398 0.05668 0.0
O190 O 0.5012 0.9057 0.17864 0.0
O191 O 0.53497 0.96786 0.01937 0.0
C192 C 0.50459 0.98433 0.0159 0.0
O193 O 0.47443 0.96589 0.02823 0.0
O194 O 0.50533 0.88661 0.92383 0.0
Mg195 Mg 0.84813 0.78288 0.79301 0.0
C196 C 0.77347 0.7547 0.76532 0.0
O197 O 0.79177 0.72453 0.77902 0.0
C198 C 0.8732 0.85667 0.87501 0.0
O199 O 0.85358 0.84763 0.95012 0.0
C200 C 0.86294 0.76874 0.58866 0.0
O201 O 0.8426 0.79803 0.58578 0.0
O202 O 0.87118 0.75514 0.6698 0.0
O203 O 0.79012 0.78501 0.76653 0.0
O204 O 0.85263 0.75112 0.92442 0.0
C205 C 0.87088 0.75879 0.99934 0.0
O206 O 0.89283 0.78684 0.99978 0.0
O207 O 0.87417 0.83588 0.80212 0.0
Mg208 Mg 0.53293 0.59802 0.54702 0.0
C209 C 0.5046 0.52358 0.51588 0.0
O210 O 0.47444 0.54203 0.52823 0.0
C211 C 0.60642 0.62325 0.63023 0.0
O212 O 0.59699 0.60399 0.70566 0.0
C213 C 0.51867 0.61266 0.34267 0.0
O214 O 0.54761 0.59183 0.33987 0.0
O215 O 0.50533 0.62131 0.42383 0.0
O216 O 0.53498 0.54006 0.51934 0.0
O217 O 0.50121 0.60221 0.67863 0.0
C218 C 0.50848 0.62076 0.75333 0.0
O219 O 0.53608 0.64329 0.75353 0.0
O220 O 0.58596 0.62393 0.55667 0.0
Mg221 Mg 0.65949 0.28287 0.79303 0.0
C222 C 0.63675 0.25877 0.99936 0.0
O223 O 0.61479 0.28683 0.99982 0.0
C224 C 0.6447 0.26872 0.58867 0.0
O225 O 0.66503 0.29801 0.58579 0.0
C226 C 0.63441 0.35666 0.87502 0.0
O227 O 0.65404 0.34762 0.95011 0.0
O228 O 0.63344 0.33587 0.80213 0.0
O229 O 0.65499 0.25111 0.92443 0.0
O230 O 0.7175 0.28501 0.76656 0.0
C231 C 0.73416 0.2547 0.76535 0.0
O232 O 0.71586 0.22453 0.77905 0.0
O233 O 0.63645 0.25513 0.66982 0.0
Mg234 Mg 0.9747 0.40991 0.04703 0.0
C235 C 1.00303 0.48434 0.01588 0.0
O236 O 0.03319 0.46589 0.02822 0.0
C237 C 0.90121 0.38467 0.13025 0.0
O238 O 0.91064 0.40393 0.20569 0.0
C239 C 0.98895 0.39526 0.84268 0.0
O240 O 0.96002 0.4161 0.83988 0.0
O241 O 1.00229 0.38661 0.92383 0.0
O242 O 0.97265 0.46787 0.01935 0.0
O243 O 0.00642 0.40571 0.17864 0.0
C244 C 0.99915 0.38716 0.25333 0.0
O245 O 0.97156 0.36462 0.25353 0.0
O246 O 0.92167 0.384 0.05668 0.0
Mg247 Mg 0.84814 0.72505 0.29301 0.0
C248 C 0.87088 0.74915 0.49934 0.0
O249 O 0.89284 0.72109 0.49979 0.0
C250 C 0.86293 0.7392 0.08865 0.0
O251 O 0.8426 0.70991 0.08577 0.0
C252 C 0.87322 0.65126 0.375 0.0
O253 O 0.85359 0.66031 0.45009 0.0
O254 O 0.87419 0.67205 0.30211 0.0
O255 O 0.85264 0.75681 0.42442 0.0
O256 O 0.79013 0.72291 0.26654 0.0
C257 C 0.77347 0.75323 0.26534 0.0
O258 O 0.79177 0.7834 0.27904 0.0
O259 O 0.87118 0.75279 0.1698 0.0
Mg260 Mg 0.53292 0.4099 0.96726 0.0
C261 C 0.5046 0.48434 0.9984 0.0
O262 O 0.47444 0.4659 0.98605 0.0
C263 C 0.60641 0.38466 0.88405 0.0
O264 O 0.59699 0.40392 0.8086 0.0
C265 C 0.51866 0.39526 0.17161 0.0
O266 O 0.5476 0.41609 0.17442 0.0
O267 O 0.50532 0.38661 0.09045 0.0
O268 O 0.53497 0.46786 0.99494 0.0
O269 O 0.5012 0.40571 0.83565 0.0
C270 C 0.50847 0.38716 0.76096 0.0
O271 O 0.53607 0.36463 0.76076 0.0
O272 O 0.58595 0.38398 0.95761 0.0
Mg273 Mg 0.84814 0.28288 0.22127 0.0
C274 C 0.87088 0.25879 0.01494 0.0
O275 O 0.89283 0.28685 0.01449 0.0
C276 C 0.86293 0.26874 0.42563 0.0
O277 O 0.84259 0.29802 0.42851 0.0
C278 C 0.8732 0.35668 0.13928 0.0
O279 O 0.85358 0.34764 0.06417 0.0
O280 O 0.87418 0.33588 0.21217 0.0
O281 O 0.85264 0.25112 0.08986 0.0
O282 O 0.79012 0.28501 0.24774 0.0
C283 C 0.77347 0.2547 0.24895 0.0
O284 O 0.79177 0.22453 0.23524 0.0
O285 O 0.87118 0.25515 0.34448 0.0
Mg286 Mg 0.97471 0.59802 0.46725 0.0
C287 C 1.00303 0.52358 0.4984 0.0
O288 O 0.03319 0.54203 0.48607 0.0
C289 C 0.90122 0.62326 0.38403 0.0
O290 O 0.91064 0.604 0.30857 0.0
C291 C 0.98896 0.61266 0.6716 0.0
O292 O 0.96003 0.59183 0.67441 0.0
O293 O 1.0023 0.62131 0.59045 0.0
O294 O 0.97266 0.54006 0.49493 0.0
O295 O 0.00643 0.60221 0.33564 0.0
C296 C 0.99916 0.62076 0.26095 0.0
O297 O 0.97157 0.6433 0.26076 0.0
O298 O 0.92168 0.62393 0.45759 0.0
Mg299 Mg 0.6595 0.72504 0.72125 0.0
C300 C 0.63675 0.74913 0.51493 0.0
O301 O 0.6148 0.72107 0.51446 0.0
C302 C 0.64471 0.73919 0.92561 0.0
O303 O 0.66504 0.7099 0.92849 0.0
C304 C 0.63443 0.65125 0.63926 0.0
O305 O 0.65405 0.66028 0.56415 0.0
O306 O 0.63345 0.67204 0.71214 0.0
O307 O 0.65499 0.7568 0.58985 0.0
O308 O 0.71751 0.72291 0.74772 0.0
C309 C 0.73416 0.75322 0.74893 0.0
O310 O 0.71586 0.78339 0.73523 0.0
O311 O 0.63645 0.75278 0.84447 0.0
Mg312 Mg 0.47471 0.4099 0.46726 0.0
C313 C 0.49915 0.38715 0.26095 0.0
O314 O 0.47155 0.36463 0.26074 0.0
C315 C 0.48896 0.39527 0.67161 0.0
O316 O 0.46003 0.4161 0.67442 0.0
C317 C 0.40121 0.38467 0.38406 0.0
O318 O 0.41064 0.40393 0.30863 0.0
O319 O 0.42167 0.38399 0.45761 0.0
O320 O 0.50643 0.4057 0.33565 0.0
O321 O 0.47266 0.46786 0.49493 0.0
C322 C 0.50303 0.48433 0.49839 0.0
O323 O 0.53319 0.46589 0.48604 0.0
O324 O 0.5023 0.38661 0.59046 0.0
Mg325 Mg 0.34814 0.72505 0.22124 0.0
C326 C 0.27347 0.75323 0.24892 0.0
O327 O 0.29177 0.7834 0.23522 0.0
C328 C 0.37322 0.65126 0.13926 0.0
O329 O 0.35359 0.66031 0.06417 0.0
C330 C 0.36292 0.7392 0.42561 0.0
O331 O 0.34259 0.70991 0.42849 0.0
O332 O 0.37117 0.75279 0.34447 0.0
O333 O 0.29013 0.72292 0.24771 0.0
O334 O 0.35265 0.75682 0.08985 0.0
C335 C 0.37089 0.74915 0.01493 0.0
O336 O 0.39284 0.72109 0.01447 0.0
O337 O 0.37419 0.67206 0.21215 0.0
Mg338 Mg 0.03293 0.59802 0.96725 0.0
C339 C 0.00848 0.62077 0.76095 0.0
O340 O 0.03607 0.6433 0.76074 0.0
C341 C 0.01867 0.61265 0.1716 0.0
O342 O 0.0476 0.59181 0.17441 0.0
C343 C 0.10642 0.62325 0.88403 0.0
O344 O 0.09699 0.60399 0.8086 0.0
O345 O 0.08596 0.62393 0.9576 0.0
O346 O 1.0012 0.60222 0.83564 0.0
O347 O 0.03497 0.54006 0.99491 0.0
C348 C 0.0046 0.52359 0.99839 0.0
O349 O 0.97444 0.54203 0.98605 0.0
O350 O 0.00534 0.62131 0.09045 0.0
Mg351 Mg 0.15949 0.28287 0.72126 0.0
C352 C 0.23416 0.25469 0.74893 0.0
O353 O 0.21586 0.22452 0.73523 0.0
C354 C 0.13441 0.35666 0.63928 0.0
O355 O 0.15404 0.34761 0.56419 0.0
C356 C 0.1447 0.26872 0.92563 0.0
O357 O 0.16504 0.29801 0.92851 0.0
O358 O 0.13645 0.25513 0.84448 0.0
O359 O 0.2175 0.28501 0.74773 0.0
O360 O 0.15498 0.25111 0.58986 0.0
C361 C 0.13674 0.25877 0.51495 0.0
O362 O 0.11479 0.28683 0.51449 0.0
O363 O 0.13344 0.33586 0.71217 0.0
Mg364 Mg 0.47471 0.59802 0.04702 0.0
C365 C 0.49916 0.62077 0.25333 0.0
O366 O 0.47156 0.6433 0.25355 0.0
C367 C 0.48897 0.61265 0.84267 0.0
O368 O 0.46004 0.59182 0.83986 0.0
C369 C 0.40122 0.62326 0.13023 0.0
O370 O 0.41064 0.604 0.20568 0.0
O371 O 0.42168 0.62394 0.05667 0.0
O372 O 0.50644 0.60222 0.17863 0.0
O373 O 0.47266 0.54006 0.01936 0.0
C374 C 0.50304 0.52359 0.0159 0.0
O375 O 0.5332 0.54203 0.02824 0.0
O376 O 0.50231 0.62132 0.92382 0.0
Mg377 Mg 0.15949 0.72504 0.79302 0.0
C378 C 0.23416 0.75322 0.76535 0.0
O379 O 0.21585 0.78339 0.77905 0.0
C380 C 0.13442 0.65125 0.875 0.0
O381 O 0.15405 0.66028 0.95011 0.0
C382 C 0.14471 0.73919 0.58866 0.0
O383 O 0.16505 0.7099 0.58577 0.0
O384 O 0.13645 0.75278 0.6698 0.0
O385 O 0.21751 0.72291 0.76655 0.0
O386 O 0.15498 0.7568 0.92442 0.0
C387 C 0.13674 0.74914 0.99934 0.0
O388 O 0.1148 0.72107 0.9998 0.0
O389 O 0.13345 0.67204 0.80212 0.0
Mg390 Mg 0.03292 0.4099 0.54703 0.0
C391 C 0.00847 0.38716 0.75333 0.0
O392 O 0.03606 0.36462 0.75354 0.0
C393 C 0.01866 0.39527 0.34268 0.0
O394 O 0.04759 0.4161 0.33987 0.0
C395 C 0.10641 0.38466 0.63025 0.0
O396 O 0.09699 0.40392 0.70571 0.0
O397 O 0.08595 0.38398 0.55669 0.0
O398 O 1.00119 0.4057 0.67864 0.0
O399 O 0.03497 0.46786 0.51937 0.0
C400 C 0.00459 0.48433 0.5159 0.0
O401 O 0.97443 0.46589 0.52823 0.0
O402 O 0.00533 0.38661 0.42383 0.0
Mg403 Mg 0.34813 0.28288 0.29304 0.0
C404 C 0.27347 0.2547 0.26537 0.0
O405 O 0.29177 0.22453 0.27906 0.0
C406 C 0.3732 0.35667 0.37503 0.0
O407 O 0.35358 0.34764 0.45013 0.0
C408 C 0.36292 0.26873 0.08868 0.0
O409 O 0.34258 0.29802 0.0858 0.0
O410 O 0.37117 0.25514 0.16982 0.0
O411 O 0.29012 0.28501 0.26657 0.0
O412 O 0.35265 0.25112 0.42444 0.0
C413 C 0.37089 0.25878 0.49936 0.0
O414 O 0.39283 0.28685 0.49982 0.0
O415 O 0.37418 0.33588 0.30214 0.0
loop_
_geom_bond_atom_site_label_1
_geom_bond_atom_site_label_2
_geom_bond_distance
_geom_bond_site_symmetry_2
_ccdc_geom_bond_type
Mg0 O7 2.141 1_554 S
Mg0 O8 2.048 . S
Mg0 O9 2.048 . S
Mg0 O12 2.141 . S
C1 O2 1.313 . S
C1 O8 1.195 1_655 S
O2 C1 1.313 . S
C3 O4 1.245 . S
C3 O12 1.289 . S
O4 C3 1.245 . S
C5 O6 1.245 1_455 S
C5 O7 1.289 . S
O6 C5 1.245 1_655 S
O7 Mg0 2.141 1_556 S
O7 C5 1.289 . S
O8 Mg0 2.048 . S
O8 C1 1.195 1_455 S
O9 Mg0 2.048 . S
O9 C10 1.195 . S
C10 O9 1.195 . S
C10 O11 1.313 1_455 S
O11 C10 1.313 1_655 S
O12 Mg0 2.141 . S
O12 C3 1.289 . S
Mg13 O20 2.141 . S
Mg13 O21 2.048 . S
Mg13 O22 2.048 . S
Mg13 O25 2.141 . S
C14 O15 1.313 . S
C14 O21 1.195 . S
O15 C14 1.313 . S
C16 O17 1.245 . S
C16 O25 1.289 . S
O17 C16 1.245 . S
C18 O19 1.245 . S
C18 O20 1.289 . S
O19 C18 1.245 . S
O20 Mg13 2.141 . S
O20 C18 1.289 . S
O21 Mg13 2.048 . S
O21 C14 1.195 . S
O22 Mg13 2.048 . S
O22 C23 1.195 . S
C23 O22 1.195 . S
C23 O24 1.313 . S
O24 C23 1.313 . S
O25 Mg13 2.141 . S
O25 C16 1.289 . S
Mg26 O33 2.141 . S
Mg26 O34 2.048 . S
Mg26 O35 2.048 . S
Mg26 O38 2.141 . S
C27 O28 1.313 . S
C27 O34 1.195 . S
O28 C27 1.313 . S
C29 O30 1.245 . S
C29 O38 1.289 . S
O30 C29 1.245 . S
C31 O32 1.245 . S
C31 O33 1.289 . S
O32 C31 1.245 . S
O33 Mg26 2.141 . S
O33 C31 1.289 . S
O34 Mg26 2.048 . S
O34 C27 1.195 . S
O35 Mg26 2.048 . S
O35 C36 1.195 . S
C36 O35 1.195 . S
C36 O37 1.313 . S
O37 C36 1.313 . S
O38 Mg26 2.141 . S
O38 C29 1.289 . S
Mg39 O46 2.141 . S
Mg39 O47 2.048 . S
Mg39 O48 2.048 . S
Mg39 O51 2.141 . S
C40 O41 1.313 1_554 S
C40 O47 1.195 1_554 S
O41 C40 1.313 1_556 S
C42 O43 1.245 . S
C42 O51 1.289 . S
O43 C42 1.245 . S
C44 O45 1.245 . S
C44 O46 1.289 . S
O45 C44 1.245 . S
O46 Mg39 2.141 . S
O46 C44 1.289 . S
O47 Mg39 2.048 . S
O47 C40 1.195 1_556 S
O48 Mg39 2.048 . S
O48 C49 1.195 . S
C49 O48 1.195 . S
C49 O50 1.313 . S
O50 C49 1.313 . S
O51 Mg39 2.141 . S
O51 C42 1.289 . S
Mg52 O59 2.141 . S
Mg52 O60 2.048 . S
Mg52 O61 2.048 . S
Mg52 O64 2.141 . S
C53 O54 1.313 . S
C53 O60 1.195 1_655 S
O54 C53 1.313 . S
C55 O56 1.245 . S
C55 O64 1.289 . S
O56 C55 1.245 . S
C57 O58 1.245 1_455 S
C57 O59 1.289 . S
O58 C57 1.245 1_655 S
O59 Mg52 2.141 . S
O59 C57 1.289 . S
O60 Mg52 2.048 . S
O60 C53 1.195 1_455 S
O61 Mg52 2.048 . S
O61 C62 1.195 . S
C62 O61 1.195 . S
C62 O63 1.313 1_455 S
O63 C62 1.313 1_655 S
O64 Mg52 2.141 . S
O64 C55 1.289 . S
Mg65 O72 2.141 . S
Mg65 O73 2.048 . S
Mg65 O74 2.048 . S
Mg65 O77 2.141 . S
C66 O67 1.313 . S
C66 O73 1.195 . S
O67 C66 1.313 . S
C68 O69 1.245 . S
C68 O77 1.289 . S
O69 C68 1.245 . S
C70 O71 1.245 . S
C70 O72 1.289 . S
O71 C70 1.245 . S
O72 Mg65 2.141 . S
O72 C70 1.289 . S
O73 Mg65 2.048 . S
O73 C66 1.195 . S
O74 Mg65 2.048 . S
O74 C75 1.195 . S
C75 O74 1.195 . S
C75 O76 1.313 . S
O76 C75 1.313 . S
O77 Mg65 2.141 . S
O77 C68 1.289 . S
Mg78 O85 2.141 1_556 S
Mg78 O86 2.048 . S
Mg78 O87 2.048 . S
Mg78 O90 2.141 . S
C79 O80 1.313 . S
C79 O86 1.195 . S
O80 C79 1.313 . S
C81 O82 1.245 . S
C81 O90 1.289 . S
O82 C81 1.245 . S
C83 O84 1.245 . S
C83 O85 1.289 . S
O84 C83 1.245 . S
O85 Mg78 2.141 1_554 S
O85 C83 1.289 . S
O86 Mg78 2.048 . S
O86 C79 1.195 . S
O87 Mg78 2.048 . S
O87 C88 1.195 . S
C88 O87 1.195 . S
C88 O89 1.313 . S
O89 C88 1.313 . S
O90 Mg78 2.141 . S
O90 C81 1.289 . S
Mg91 O98 2.141 . S
Mg91 O99 2.048 . S
Mg91 O100 2.048 . S
Mg91 O103 2.141 . S
C92 O93 1.313 1_556 S
C92 O99 1.195 1_556 S
O93 C92 1.313 1_554 S
C94 O95 1.245 . S
C94 O103 1.289 . S
O95 C94 1.245 . S
C96 O97 1.245 . S
C96 O98 1.289 . S
O97 C96 1.245 . S
O98 Mg91 2.141 . S
O98 C96 1.289 . S
O99 Mg91 2.048 . S
O99 C92 1.195 1_554 S
O100 Mg91 2.048 . S
O100 C101 1.195 . S
C101 O100 1.195 . S
C101 O102 1.313 . S
O102 C101 1.313 . S
O103 Mg91 2.141 . S
O103 C94 1.289 . S
Mg104 O111 2.141 . S
Mg104 O112 2.048 . S
Mg104 O113 2.048 . S
Mg104 O116 2.141 1_556 S
C105 O106 1.313 1_655 S
C105 O112 1.195 . S
O106 C105 1.313 1_455 S
C107 O108 1.245 1_655 S
C107 O116 1.289 . S
O108 C107 1.245 1_455 S
C109 O110 1.245 . S
C109 O111 1.289 . S
O110 C109 1.245 . S
O111 Mg104 2.141 . S
O111 C109 1.289 . S
O112 Mg104 2.048 . S
O112 C105 1.195 . S
O113 Mg104 2.048 . S
O113 C114 1.195 1_655 S
C114 O113 1.195 1_455 S
C114 O115 1.313 . S
O115 C114 1.313 . S
O116 Mg104 2.141 1_554 S
O116 C107 1.289 . S
Mg117 O124 2.141 . S
Mg117 O125 2.048 . S
Mg117 O126 2.048 . S
Mg117 O129 2.141 . S
C118 O119 1.313 . S
C118 O125 1.195 . S
O119 C118 1.313 . S
C120 O121 1.245 . S
C120 O129 1.289 . S
O121 C120 1.245 . S
C122 O123 1.245 . S
C122 O124 1.289 . S
O123 C122 1.245 . S
O124 Mg117 2.141 . S
O124 C122 1.289 . S
O125 Mg117 2.048 . S
O125 C118 1.195 . S
O126 Mg117 2.048 . S
O126 C127 1.195 . S
C127 O126 1.195 . S
C127 O128 1.313 . S
O128 C127 1.313 . S
O129 Mg117 2.141 . S
O129 C120 1.289 . S
Mg130 O137 2.141 . S
Mg130 O138 2.048 . S
Mg130 O139 2.048 . S
Mg130 O142 2.141 . S
C131 O132 1.313 . S
C131 O138 1.195 . S
O132 C131 1.313 . S
C133 O134 1.245 . S
C133 O142 1.289 . S
O134 C133 1.245 . S
C135 O136 1.245 . S
C135 O137 1.289 . S
O136 C135 1.245 . S
O137 Mg130 2.141 . S
O137 C135 1.289 . S
O138 Mg130 2.048 . S
O138 C131 1.195 . S
O139 Mg130 2.048 . S
O139 C140 1.195 . S
C140 O139 1.195 . S
C140 O141 1.313 . S
O141 C140 1.313 . S
O142 Mg130 2.141 . S
O142 C133 1.289 . S
Mg143 O150 2.141 . S
Mg143 O151 2.048 . S
Mg143 O152 2.048 . S
Mg143 O155 2.141 . S
C144 O145 1.313 . S
C144 O151 1.195 . S
O145 C144 1.313 . S
C146 O147 1.245 . S
C146 O155 1.289 . S
O147 C146 1.245 . S
C148 O149 1.245 . S
C148 O150 1.289 . S
O149 C148 1.245 . S
O150 Mg143 2.141 . S
O150 C148 1.289 . S
O151 Mg143 2.048 . S
O151 C144 1.195 . S
O152 Mg143 2.048 . S
O152 C153 1.195 1_554 S
C153 O152 1.195 1_556 S
C153 O154 1.313 1_556 S
O154 C153 1.313 1_554 S
O155 Mg143 2.141 . S
O155 C146 1.289 . S
Mg156 O163 2.141 . S
Mg156 O164 2.048 . S
Mg156 O165 2.048 . S
Mg156 O168 2.141 . S
C157 O158 1.313 1_655 S
C157 O164 1.195 . S
O158 C157 1.313 1_455 S
C159 O160 1.245 1_655 S
C159 O168 1.289 . S
O160 C159 1.245 1_455 S
C161 O162 1.245 . S
C161 O163 1.289 . S
O162 C161 1.245 . S
O163 Mg156 2.141 . S
O163 C161 1.289 . S
O164 Mg156 2.048 . S
O164 C157 1.195 . S
O165 Mg156 2.048 . S
O165 C166 1.195 1_655 S
C166 O165 1.195 1_455 S
C166 O167 1.313 . S
O167 C166 1.313 . S
O168 Mg156 2.141 . S
O168 C159 1.289 . S
Mg169 O176 2.141 . S
Mg169 O177 2.048 . S
Mg169 O178 2.048 . S
Mg169 O181 2.141 . S
C170 O171 1.313 . S
C170 O177 1.195 . S
O171 C170 1.313 . S
C172 O173 1.245 . S
C172 O181 1.289 . S
O173 C172 1.245 . S
C174 O175 1.245 . S
C174 O176 1.289 . S
O175 C174 1.245 . S
O176 Mg169 2.141 . S
O176 C174 1.289 . S
O177 Mg169 2.048 . S
O177 C170 1.195 . S
O178 Mg169 2.048 . S
O178 C179 1.195 . S
C179 O178 1.195 . S
C179 O180 1.313 . S
O180 C179 1.313 . S
O181 Mg169 2.141 . S
O181 C172 1.289 . S
Mg182 O189 2.141 . S
Mg182 O190 2.048 . S
Mg182 O191 2.048 . S
Mg182 O194 2.141 1_554 S
C183 O184 1.313 . S
C183 O190 1.195 . S
O184 C183 1.313 . S
C185 O186 1.245 . S
C185 O194 1.289 . S
O186 C185 1.245 . S
C187 O188 1.245 . S
C187 O189 1.289 . S
O188 C187 1.245 . S
O189 Mg182 2.141 . S
O189 C187 1.289 . S
O190 Mg182 2.048 . S
O190 C183 1.195 . S
O191 Mg182 2.048 . S
O191 C192 1.195 . S
C192 O191 1.195 . S
C192 O193 1.313 . S
O193 C192 1.313 . S
O194 Mg182 2.141 1_556 S
O194 C185 1.289 . S
Mg195 O202 2.141 . S
Mg195 O203 2.048 . S
Mg195 O204 2.048 . S
Mg195 O207 2.141 . S
C196 O197 1.313 . S
C196 O203 1.195 . S
O197 C196 1.313 . S
C198 O199 1.245 . S
C198 O207 1.289 . S
O199 C198 1.245 . S
C200 O201 1.245 . S
C200 O202 1.289 . S
O201 C200 1.245 . S
O202 Mg195 2.141 . S
O202 C200 1.289 . S
O203 Mg195 2.048 . S
O203 C196 1.195 . S
O204 Mg195 2.048 . S
O204 C205 1.195 1_556 S
C205 O204 1.195 1_554 S
C205 O206 1.313 1_554 S
O206 C205 1.313 1_556 S
O207 Mg195 2.141 . S
O207 C198 1.289 . S
Mg208 O215 2.141 . S
Mg208 O216 2.048 . S
Mg208 O217 2.048 . S
Mg208 O220 2.141 . S
C209 O210 1.313 . S
C209 O216 1.195 . S
O210 C209 1.313 . S
C211 O212 1.245 . S
C211 O220 1.289 . S
O212 C211 1.245 . S
C213 O214 1.245 . S
C213 O215 1.289 . S
O214 C213 1.245 . S
O215 Mg208 2.141 . S
O215 C213 1.289 . S
O216 Mg208 2.048 . S
O216 C209 1.195 . S
O217 Mg208 2.048 . S
O217 C218 1.195 . S
C218 O217 1.195 . S
C218 O219 1.313 . S
O219 C218 1.313 . S
O220 Mg208 2.141 . S
O220 C211 1.289 . S
Mg221 O228 2.141 . S
Mg221 O229 2.048 . S
Mg221 O230 2.048 . S
Mg221 O233 2.141 . S
C222 O223 1.313 1_554 S
C222 O229 1.195 1_554 S
O223 C222 1.313 1_556 S
C224 O225 1.245 . S
C224 O233 1.289 . S
O225 C224 1.245 . S
C226 O227 1.245 . S
C226 O228 1.289 . S
O227 C226 1.245 . S
O228 Mg221 2.141 . S
O228 C226 1.289 . S
O229 Mg221 2.048 . S
O229 C222 1.195 1_556 S
O230 Mg221 2.048 . S
O230 C231 1.195 . S
C231 O230 1.195 . S
C231 O232 1.313 . S
O232 C231 1.313 . S
O233 Mg221 2.141 . S
O233 C224 1.289 . S
Mg234 O241 2.141 1_554 S
Mg234 O242 2.048 . S
Mg234 O243 2.048 . S
Mg234 O246 2.141 . S
C235 O236 1.313 . S
C235 O242 1.195 1_455 S
O236 C235 1.313 . S
C237 O238 1.245 . S
C237 O246 1.289 . S
O238 C237 1.245 . S
C239 O240 1.245 1_655 S
C239 O241 1.289 . S
O240 C239 1.245 1_455 S
O241 Mg234 2.141 1_556 S
O241 C239 1.289 . S
O242 Mg234 2.048 . S
O242 C235 1.195 1_655 S
O243 Mg234 2.048 . S
O243 C244 1.195 . S
C244 O243 1.195 . S
C244 O245 1.313 1_655 S
O245 C244 1.313 1_455 S
O246 Mg234 2.141 . S
O246 C237 1.289 . S
Mg247 O254 2.141 . S
Mg247 O255 2.048 . S
Mg247 O256 2.048 . S
Mg247 O259 2.141 . S
C248 O249 1.313 . S
C248 O255 1.195 . S
O249 C248 1.313 . S
C250 O251 1.245 . S
C250 O259 1.289 . S
O251 C250 1.245 . S
C252 O253 1.245 . S
C252 O254 1.289 . S
O253 C252 1.245 . S
O254 Mg247 2.141 . S
O254 C252 1.289 . S
O255 Mg247 2.048 . S
O255 C248 1.195 . S
O256 Mg247 2.048 . S
O256 C257 1.195 . S
C257 O256 1.195 . S
C257 O258 1.313 . S
O258 C257 1.313 . S
O259 Mg247 2.141 . S
O259 C250 1.289 . S
Mg260 O267 2.141 1_556 S
Mg260 O268 2.048 . S
Mg260 O269 2.048 . S
Mg260 O272 2.141 . S
C261 O262 1.313 . S
C261 O268 1.195 . S
O262 C261 1.313 . S
C263 O264 1.245 . S
C263 O272 1.289 . S
O264 C263 1.245 . S
C265 O266 1.245 . S
C265 O267 1.289 . S
O266 C265 1.245 . S
O267 Mg260 2.141 1_554 S
O267 C265 1.289 . S
O268 Mg260 2.048 . S
O268 C261 1.195 . S
O269 Mg260 2.048 . S
O269 C270 1.195 . S
C270 O269 1.195 . S
C270 O271 1.313 . S
O271 C270 1.313 . S
O272 Mg260 2.141 . S
O272 C263 1.289 . S
Mg273 O280 2.141 . S
Mg273 O281 2.048 . S
Mg273 O282 2.048 . S
Mg273 O285 2.141 . S
C274 O275 1.313 1_556 S
C274 O281 1.195 1_556 S
O275 C274 1.313 1_554 S
C276 O277 1.245 . S
C276 O285 1.289 . S
O277 C276 1.245 . S
C278 O279 1.245 . S
C278 O280 1.289 . S
O279 C278 1.245 . S
O280 Mg273 2.141 . S
O280 C278 1.289 . S
O281 Mg273 2.048 . S
O281 C274 1.195 1_554 S
O282 Mg273 2.048 . S
O282 C283 1.195 . S
C283 O282 1.195 . S
C283 O284 1.313 . S
O284 C283 1.313 . S
O285 Mg273 2.141 . S
O285 C276 1.289 . S
Mg286 O293 2.141 . S
Mg286 O294 2.048 . S
Mg286 O295 2.048 . S
Mg286 O298 2.141 . S
C287 O288 1.313 . S
C287 O294 1.195 1_455 S
O288 C287 1.313 . S
C289 O290 1.245 . S
C289 O298 1.289 . S
O290 C289 1.245 . S
C291 O292 1.245 1_655 S
C291 O293 1.289 . S
O292 C291 1.245 1_455 S
O293 Mg286 2.141 . S
O293 C291 1.289 . S
O294 Mg286 2.048 . S
O294 C287 1.195 1_655 S
O295 Mg286 2.048 . S
O295 C296 1.195 . S
C296 O295 1.195 . S
C296 O297 1.313 1_655 S
O297 C296 1.313 1_455 S
O298 Mg286 2.141 . S
O298 C289 1.289 . S
Mg299 O306 2.141 . S
Mg299 O307 2.048 . S
Mg299 O308 2.048 . S
Mg299 O311 2.141 . S
C300 O301 1.313 . S
C300 O307 1.195 . S
O301 C300 1.313 . S
C302 O303 1.245 . S
C302 O311 1.289 . S
O303 C302 1.245 . S
C304 O305 1.245 . S
C304 O306 1.289 . S
O305 C304 1.245 . S
O306 Mg299 2.141 . S
O306 C304 1.289 . S
O307 Mg299 2.048 . S
O307 C300 1.195 . S
O308 Mg299 2.048 . S
O308 C309 1.195 . S
C309 O308 1.195 . S
C309 O310 1.313 . S
O310 C309 1.313 . S
O311 Mg299 2.141 . S
O311 C302 1.289 . S
Mg312 O319 2.141 . S
Mg312 O320 2.048 . S
Mg312 O321 2.048 . S
Mg312 O324 2.141 . S
C313 O314 1.313 . S
C313 O320 1.195 . S
O314 C313 1.313 . S
C315 O316 1.245 . S
C315 O324 1.289 . S
O316 C315 1.245 . S
C317 O318 1.245 . S
C317 O319 1.289 . S
O318 C317 1.245 . S
O319 Mg312 2.141 . S
O319 C317 1.289 . S
O320 Mg312 2.048 . S
O320 C313 1.195 . S
O321 Mg312 2.048 . S
O321 C322 1.195 . S
C322 O321 1.195 . S
C322 O323 1.313 . S
O323 C322 1.313 . S
O324 Mg312 2.141 . S
O324 C315 1.289 . S
Mg325 O332 2.141 . S
Mg325 O333 2.048 . S
Mg325 O334 2.048 . S
Mg325 O337 2.141 . S
C326 O327 1.313 . S
C326 O333 1.195 . S
O327 C326 1.313 . S
C328 O329 1.245 . S
C328 O337 1.289 . S
O329 C328 1.245 . S
C330 O331 1.245 . S
C330 O332 1.289 . S
O331 C330 1.245 . S
O332 Mg325 2.141 . S
O332 C330 1.289 . S
O333 Mg325 2.048 . S
O333 C326 1.195 . S
O334 Mg325 2.048 . S
O334 C335 1.195 1_554 S
C335 O334 1.195 1_556 S
C335 O336 1.313 1_556 S
O336 C335 1.313 1_554 S
O337 Mg325 2.141 . S
O337 C328 1.289 . S
Mg338 O345 2.141 . S
Mg338 O346 2.048 . S
Mg338 O347 2.048 . S
Mg338 O350 2.141 1_556 S
C339 O340 1.313 1_455 S
C339 O346 1.195 . S
O340 C339 1.313 1_655 S
C341 O342 1.245 1_455 S
C341 O350 1.289 . S
O342 C341 1.245 1_655 S
C343 O344 1.245 . S
C343 O345 1.289 . S
O344 C343 1.245 . S
O345 Mg338 2.141 . S
O345 C343 1.289 . S
O346 Mg338 2.048 . S
O346 C339 1.195 . S
O347 Mg338 2.048 . S
O347 C348 1.195 1_455 S
C348 O347 1.195 1_655 S
C348 O349 1.313 . S
O349 C348 1.313 . S
O350 Mg338 2.141 1_554 S
O350 C341 1.289 . S
Mg351 O358 2.141 . S
Mg351 O359 2.048 . S
Mg351 O360 2.048 . S
Mg351 O363 2.141 . S
C352 O353 1.313 . S
C352 O359 1.195 . S
O353 C352 1.313 . S
C354 O355 1.245 . S
C354 O363 1.289 . S
O355 C354 1.245 . S
C356 O357 1.245 . S
C356 O358 1.289 . S
O357 C356 1.245 . S
O358 Mg351 2.141 . S
O358 C356 1.289 . S
O359 Mg351 2.048 . S
O359 C352 1.195 . S
O360 Mg351 2.048 . S
O360 C361 1.195 . S
C361 O360 1.195 . S
C361 O362 1.313 . S
O362 C361 1.313 . S
O363 Mg351 2.141 . S
O363 C354 1.289 . S
Mg364 O371 2.141 . S
Mg364 O372 2.048 . S
Mg364 O373 2.048 . S
Mg364 O376 2.141 1_554 S
C365 O366 1.313 . S
C365 O372 1.195 . S
O366 C365 1.313 . S
C367 O368 1.245 . S
C367 O376 1.289 . S
O368 C367 1.245 . S
C369 O370 1.245 . S
C369 O371 1.289 . S
O370 C369 1.245 . S
O371 Mg364 2.141 . S
O371 C369 1.289 . S
O372 Mg364 2.048 . S
O372 C365 1.195 . S
O373 Mg364 2.048 . S
O373 C374 1.195 . S
C374 O373 1.195 . S
C374 O375 1.313 . S
O375 C374 1.313 . S
O376 Mg364 2.141 1_556 S
O376 C367 1.289 . S
Mg377 O384 2.141 . S
Mg377 O385 2.048 . S
Mg377 O386 2.048 . S
Mg377 O389 2.141 . S
C378 O379 1.313 . S
C378 O385 1.195 . S
O379 C378 1.313 . S
C380 O381 1.245 . S
C380 O389 1.289 . S
O381 C380 1.245 . S
C382 O383 1.245 . S
C382 O384 1.289 . S
O383 C382 1.245 . S
O384 Mg377 2.141 . S
O384 C382 1.289 . S
O385 Mg377 2.048 . S
O385 C378 1.195 . S
O386 Mg377 2.048 . S
O386 C387 1.195 1_556 S
C387 O386 1.195 1_554 S
C387 O388 1.313 1_554 S
O388 C387 1.313 1_556 S
O389 Mg377 2.141 . S
O389 C380 1.289 . S
Mg390 O397 2.141 . S
Mg390 O398 2.048 . S
Mg390 O399 2.048 . S
Mg390 O402 2.141 . S
C391 O392 1.313 1_455 S
C391 O398 1.195 . S
O392 C391 1.313 1_655 S
C393 O394 1.245 1_455 S
C393 O402 1.289 . S
O394 C393 1.245 1_655 S
C395 O396 1.245 . S
C395 O397 1.289 . S
O396 C395 1.245 . S
O397 Mg390 2.141 . S
O397 C395 1.289 . S
O398 Mg390 2.048 . S
O398 C391 1.195 . S
O399 Mg390 2.048 . S
O399 C400 1.195 1_455 S
C400 O399 1.195 1_655 S
C400 O401 1.313 . S
O401 C400 1.313 . S
O402 Mg390 2.141 . S
O402 C393 1.289 . S
Mg403 O410 2.141 . S
Mg403 O411 2.048 . S
Mg403 O412 2.048 . S
Mg403 O415 2.141 . S
C404 O405 1.313 . S
C404 O411 1.195 . S
O405 C404 1.313 . S
C406 O407 1.245 . S
C406 O415 1.289 . S
O407 C406 1.245 . S
C408 O409 1.245 . S
C408 O410 1.289 . S
O409 C408 1.245 . S
O410 Mg403 2.141 . S
O410 C408 1.289 . S
O411 Mg403 2.048 . S
O411 C404 1.195 . S
O412 Mg403 2.048 . S
O412 C413 1.195 . S
C413 O412 1.195 . S
C413 O414 1.313 . S
O414 C413 1.313 . S
O415 Mg403 2.141 . S
O415 C406 1.289 . S
C157 C5 1.533 1_655 S
C387 C16 1.806 . S
C183 C31 1.533 . S
C413 C42 1.806 . S
C105 C57 1.533 1_655 S
C68 C335 1.806 . S
C83 C131 1.533 . S
C361 C94 1.806 . S
C62 C107 1.533 1_455 S
C274 C122 1.806 . S
C88 C133 1.533 . S
C300 C148 1.806 . S
C159 C10 1.533 1_655 S
C174 C222 1.806 . S
C36 C185 1.533 . S
C200 C248 1.806 . S
C365 C213 1.533 . S
C179 C224 1.806 . S
C391 C239 1.533 1_455 S
C250 C205 1.806 . S
C265 C313 1.533 . S
C276 C127 1.806 . S
C339 C291 1.533 1_455 S
C153 C302 1.806 . S
C270 C315 1.533 . S
C330 C66 1.806 . S
C341 C296 1.533 1_455 S
C356 C92 1.806 . S
C218 C367 1.533 . S
C14 C382 1.806 . S
C244 C393 1.533 1_655 S
C408 C40 1.806 . S
C1 C114 3.032 1_644 S
C23 C326 2.591 . S
C140 C27 3.032 1_545 S
C49 C352 2.591 . S
C53 C166 3.032 1_665 S
C378 C75 2.591 . S
C192 C79 3.032 1_564 S
C101 C404 2.591 . S
C118 C231 2.591 . S
C144 C257 2.591 . S
C170 C283 2.591 . S
C309 C196 2.591 . S
C209 C322 3.032 . S
C235 C348 3.032 1_454 S
C261 C374 3.032 1_556 S
C400 C287 3.033 1_655 S
C3 C96 2.085 . S
C18 C55 2.085 . S
C70 C29 2.085 . S
C81 C44 2.085 . S
C198 C109 2.085 . S
C161 C120 2.085 . S
C172 C135 2.085 . S
C187 C146 2.085 . S
C211 C304 2.085 . S
C263 C226 2.085 . S
C278 C237 2.085 . S
C289 C252 2.085 . S
C406 C317 2.085 . S
C328 C369 2.085 . S
C343 C380 2.085 . S
C395 C354 2.085 . S
