# Generated by pormake.
# Topology vmn, (7)-cn, num edge types: 1
# Building blocks:
#     Node 0, Type 0, BuildingBlock: HICVOG_clean_sbu_0, # of connection points: 7
#     Node 1, Type 0, BuildingBlock: HICVOG_clean_sbu_0, # of connection points: 7
#     Node 2, Type 0, BuildingBlock: HICVOG_clean_sbu_0, # of connection points: 7
#     Node 3, Type 0, BuildingBlock: HICVOG_clean_sbu_0, # of connection points: 7
#     Node 4, Type 0, BuildingBlock: HICVOG_clean_sbu_0, # of connection points: 7
#     Node 5, Type 0, BuildingBlock: HICVOG_clean_sbu_0, # of connection points: 7
#     Node 6, Type 0, BuildingBlock: HICVOG_clean_sbu_0, # of connection points: 7
#     Node 7, Type 0, BuildingBlock: HICVOG_clean_sbu_0, # of connection points: 7
#     Edge 8, Type (0, 0), BuildingBlock: TEMPAE_clean_linker_10, # of connection points: 2
#     Edge 9, Type (0, 0), BuildingBlock: TEMPAE_clean_linker_10, # of connection points: 2
#     Edge 10, Type (0, 0), BuildingBlock: TEMPAE_clean_linker_10, # of connection points: 2
#     Edge 11, Type (0, 0), BuildingBlock: TEMPAE_clean_linker_10, # of connection points: 2
#     Edge 12, Type (0, 0), BuildingBlock: TEMPAE_clean_linker_10, # of connection points: 2
#     Edge 13, Type (0, 0), BuildingBlock: TEMPAE_clean_linker_10, # of connection points: 2
#     Edge 14, Type (0, 0), BuildingBlock: TEMPAE_clean_linker_10, # of connection points: 2
#     Edge 15, Type (0, 0), BuildingBlock: TEMPAE_clean_linker_10, # of connection points: 2
#     Edge 16, Type (0, 0), BuildingBlock: TEMPAE_clean_linker_10, # of connection points: 2
#     Edge 17, Type (0, 0), BuildingBlock: TEMPAE_clean_linker_10, # of connection points: 2
#     Edge 18, Type (0, 0), BuildingBlock: TEMPAE_clean_linker_10, # of connection points: 2
#     Edge 19, Type (0, 0), BuildingBlock: TEMPAE_clean_linker_10, # of connection points: 2
#     Edge 20, Type (0, 0), BuildingBlock: TEMPAE_clean_linker_10, # of connection points: 2
#     Edge 21, Type (0, 0), BuildingBlock: TEMPAE_clean_linker_10, # of connection points: 2
#     Edge 22, Type (0, 0), BuildingBlock: TEMPAE_clean_linker_10, # of connection points: 2
#     Edge 23, Type (0, 0), BuildingBlock: TEMPAE_clean_linker_10, # of connection points: 2
#     Edge 24, Type (0, 0), BuildingBlock: TEMPAE_clean_linker_10, # of connection points: 2
#     Edge 25, Type (0, 0), BuildingBlock: TEMPAE_clean_linker_10, # of connection points: 2
#     Edge 26, Type (0, 0), BuildingBlock: TEMPAE_clean_linker_10, # of connection points: 2
#     Edge 27, Type (0, 0), BuildingBlock: TEMPAE_clean_linker_10, # of connection points: 2
#     Edge 28, Type (0, 0), BuildingBlock: TEMPAE_clean_linker_10, # of connection points: 2
#     Edge 29, Type (0, 0), BuildingBlock: TEMPAE_clean_linker_10, # of connection points: 2
#     Edge 30, Type (0, 0), BuildingBlock: TEMPAE_clean_linker_10, # of connection points: 2
#     Edge 31, Type (0, 0), BuildingBlock: TEMPAE_clean_linker_10, # of connection points: 2
#     Edge 32, Type (0, 0), BuildingBlock: TEMPAE_clean_linker_10, # of connection points: 2
#     Edge 33, Type (0, 0), BuildingBlock: TEMPAE_clean_linker_10, # of connection points: 2
#     Edge 34, Type (0, 0), BuildingBlock: TEMPAE_clean_linker_10, # of connection points: 2
#     Edge 35, Type (0, 0), BuildingBlock: TEMPAE_clean_linker_10, # of connection points: 2
# Relax obj value: 0.162
# Max RMSD: 0.218
# Mean RMSD: 0.218
data_MOF--net-vmn--node1-HICVOG_clean_sbu_0--edge1-TEMPAE_clean_linker_10
_symmetry_space_group_name_H-M    P1
_symmetry_Int_Tables_number       1
_symmetry_cell_setting            triclinic
loop_
_symmetry_equiv_pos_as_xyz
'x, y, z'
_cell_length_a     39.425235
_cell_length_b     31.883088
_cell_length_c     29.184773
_cell_angle_alpha  90.111267
_cell_angle_beta   97.942483
_cell_angle_gamma 89.96906
loop_
_atom_site_label
_atom_site_type_symbol
_atom_site_fract_x
_atom_site_fract_y
_atom_site_fract_z
_atom_type_partial_charge
Zn0 Zn 0.96138 0.3629 0.18415 0.0
C1 C 1.01183 0.33408 0.30955 0.0
N2 N 1.00593 0.37456 0.31888 0.0
C3 C 0.99159 0.38959 0.27779 0.0
N4 N 0.98798 0.35919 0.24511 0.0
N5 N 1.0021 0.32455 0.26445 0.0
C6 C 0.02148 0.20698 0.2707 0.0
O7 O 0.99108 0.22136 0.27625 0.0
O8 O 0.96863 0.41801 0.15561 0.0
Zn9 Zn 0.03425 0.29156 0.23238 0.0
N10 N 0.9128 0.35497 0.18786 0.0
C11 C 0.86895 0.34357 0.2348 0.0
C12 C 0.90334 0.34937 0.23046 0.0
C13 C 0.88905 0.35498 0.14909 0.0
N14 N 0.84531 0.34347 0.19633 0.0
C15 C 0.85406 0.34906 0.15319 0.0
O16 O 0.02099 0.28533 0.16255 0.0
C17 C 0.99893 0.29821 0.12957 0.0
O18 O 0.97592 0.32457 0.13605 0.0
H19 H 0.92237 0.34937 0.2609 0.0
H20 H 0.8976 0.35874 0.1157 0.0
C21 C 0.10893 0.30388 0.24069 0.0
C22 C 0.13859 0.32906 0.24264 0.0
C23 C 0.1042 0.38997 0.24435 0.0
C24 C 0.07506 0.36513 0.2417 0.0
N25 N 0.07769 0.32263 0.23999 0.0
N26 N 0.13511 0.37147 0.24444 0.0
H27 H 0.11046 0.27009 0.23817 0.0
C28 C 0.99779 0.42126 0.1423 0.0
O29 O 0.02075 0.39185 0.15352 0.0
O30 O 0.04293 0.23162 0.25591 0.0
H31 H 0.05048 0.37999 0.24005 0.0
H32 H 0.86106 0.33905 0.2685 0.0
H33 H 0.10223 0.42379 0.24558 0.0
Zn34 Zn 0.55746 0.36139 0.84437 0.0
C35 C 0.51403 0.33863 0.71415 0.0
N36 N 0.52281 0.3786 0.70706 0.0
C37 C 0.53516 0.3919 0.74981 0.0
N38 N 0.53422 0.36114 0.78146 0.0
N39 N 0.51974 0.3278 0.7594 0.0
C40 C 0.50302 0.2023 0.78237 0.0
O41 O 0.52418 0.21377 0.81904 0.0
O42 O 0.55931 0.41811 0.87251 0.0
Zn43 Zn 0.48699 0.29076 0.78595 0.0
N44 N 0.60405 0.34062 0.84578 0.0
C45 C 0.64491 0.30525 0.80689 0.0
C46 C 0.61189 0.32044 0.80757 0.0
C47 C 0.62812 0.34634 0.88363 0.0
N48 N 0.66886 0.31083 0.84448 0.0
C49 C 0.66175 0.33107 0.88321 0.0
O50 O 0.49279 0.28578 0.85707 0.0
C51 C 0.51041 0.30242 0.89237 0.0
O52 O 0.53355 0.32925 0.88855 0.0
H53 H 0.59261 0.3161 0.77782 0.0
H54 H 0.62079 0.36193 0.9137 0.0
C55 C 0.41188 0.29718 0.76561 0.0
C56 C 0.38106 0.31986 0.75436 0.0
C57 C 0.41307 0.38268 0.75256 0.0
C58 C 0.44328 0.3604 0.76456 0.0
N59 N 0.4424 0.31803 0.7699 0.0
N60 N 0.38281 0.362 0.74775 0.0
H61 H 0.41168 0.26358 0.7707 0.0
C62 C 0.53146 0.43737 0.87486 0.0
O63 O 0.50261 0.42155 0.85401 0.0
O64 O 0.48495 0.23052 0.75967 0.0
H65 H 0.46723 0.3771 0.76983 0.0
H66 H 0.6515 0.28906 0.77672 0.0
H67 H 0.41362 0.41628 0.74767 0.0
Zn68 Zn 0.99037 0.74516 0.78621 0.0
C69 C 0.0344 0.64367 0.75008 0.0
N70 N 0.02222 0.65649 0.70721 0.0
C71 C 0.01609 0.69758 0.71289 0.0
N72 N 0.02355 0.70963 0.75777 0.0
N73 N 0.03645 0.67589 0.78052 0.0
C74 C 0.02692 0.61241 0.87961 0.0
O75 O 1.00067 0.6324 0.85701 0.0
O76 O 0.98627 0.8071 0.76661 0.0
Zn77 Zn 0.06249 0.67628 0.84189 0.0
N78 N 0.94549 0.7182 0.77111 0.0
C79 C 0.91504 0.65446 0.75261 0.0
C80 C 0.94567 0.67598 0.76432 0.0
C81 C 0.91527 0.73961 0.76856 0.0
N82 N 0.88508 0.67574 0.74943 0.0
C83 C 0.88406 0.71773 0.75751 0.0
O84 O 0.04551 0.71442 0.88759 0.0
C85 C 0.02017 0.73793 0.89165 0.0
O86 O 0.99863 0.74864 0.85704 0.0
H87 H 0.96937 0.65884 0.76821 0.0
H88 H 0.91559 0.77309 0.77478 0.0
C89 C 0.13467 0.68412 0.87772 0.0
C90 C 0.16982 0.6873 0.87367 0.0
C91 C 0.15554 0.69341 0.79218 0.0
C92 C 0.12087 0.69011 0.79635 0.0
N93 N 0.11104 0.68521 0.83885 0.0
N94 N 0.17911 0.69166 0.8307 0.0
H95 H 0.12621 0.67955 0.9111 0.0
C96 C 0.99894 0.83019 0.73771 0.0
O97 O 0.01973 0.81367 0.71117 0.0
O98 O 0.0571 0.62314 0.87437 0.0
H99 H 0.10196 0.69077 0.76578 0.0
H100 H 0.91504 0.62097 0.74659 0.0
H101 H 0.16372 0.69697 0.75851 0.0
Zn102 Zn 0.54198 0.74923 0.24317 0.0
C103 C 0.48781 0.65176 0.2708 0.0
N104 N 0.49928 0.66029 0.31522 0.0
C105 C 0.51096 0.69993 0.31372 0.0
N106 N 0.50745 0.71505 0.26971 0.0
N107 N 0.4916 0.68502 0.24338 0.0
C108 C 0.50775 0.64367 0.12646 0.0
O109 O 0.53188 0.66992 0.14342 0.0
O110 O 0.54907 0.80979 0.26714 0.0
Zn111 Zn 0.46729 0.69204 0.18128 0.0
N112 N 0.58521 0.71859 0.25691 0.0
C113 C 0.6122 0.65231 0.27281 0.0
C114 C 0.58275 0.6764 0.26251 0.0
C115 C 0.61647 0.73753 0.25968 0.0
N116 N 0.64324 0.67113 0.27616 0.0
C117 C 0.64647 0.7131 0.26953 0.0
O118 O 0.47817 0.7452 0.1483 0.0
C119 C 0.50789 0.75585 0.14031 0.0
O120 O 0.53364 0.75418 0.17202 0.0
H121 H 0.5581 0.66132 0.25886 0.0
H122 H 0.61786 0.77107 0.25468 0.0
C123 C 0.39525 0.68918 0.14321 0.0
C124 C 0.3599 0.68503 0.14553 0.0
C125 C 0.37181 0.68383 0.22751 0.0
C126 C 0.40667 0.6881 0.22506 0.0
N127 N 0.41789 0.69007 0.1831 0.0
N128 N 0.34936 0.68216 0.18789 0.0
H129 H 0.40475 0.69068 0.11018 0.0
C130 C 0.52576 0.83648 0.27197 0.0
O131 O 0.49352 0.82482 0.26473 0.0
O132 O 0.47857 0.64526 0.14011 0.0
H133 H 0.4246 0.6895 0.25652 0.0
H134 H 0.61044 0.6188 0.27777 0.0
H135 H 0.36263 0.68176 0.26069 0.0
Zn136 Zn 0.46371 0.84949 0.68271 0.0
C137 C 0.50895 0.8427 0.81409 0.0
N138 N 0.49678 0.88211 0.81578 0.0
C139 C 0.48509 0.89051 0.77143 0.0
N140 N 0.48929 0.85738 0.74386 0.0
N141 N 0.50551 0.82763 0.77007 0.0
C142 C 0.55763 0.70565 0.74554 0.0
O143 O 0.57018 0.71923 0.70888 0.0
O144 O 0.47093 0.89835 0.64249 0.0
Zn145 Zn 0.53959 0.79257 0.74417 0.0
N146 N 0.41485 0.84752 0.68731 0.0
C147 C 0.37012 0.84603 0.73435 0.0
C148 C 0.40484 0.84463 0.72993 0.0
C149 C 0.39126 0.85083 0.64858 0.0
N150 N 0.34666 0.84999 0.69593 0.0
C151 C 0.35608 0.85218 0.65284 0.0
O152 O 0.53097 0.78719 0.67293 0.0
C153 C 0.50578 0.78592 0.64038 0.0
O154 O 0.47613 0.79867 0.64643 0.0
H155 H 0.42367 0.8417 0.76038 0.0
H156 H 0.39991 0.85348 0.61508 0.0
C157 C 0.61472 0.80384 0.7578 0.0
C158 C 0.64445 0.82903 0.7618 0.0
C159 C 0.61008 0.88962 0.7661 0.0
C160 C 0.58081 0.86482 0.76105 0.0
N161 N 0.58343 0.82244 0.75714 0.0
N162 N 0.64104 0.87128 0.76592 0.0
H163 H 0.61634 0.77028 0.75333 0.0
C164 C 0.49839 0.90011 0.62448 0.0
O165 O 0.52292 0.8729 0.6366 0.0
O166 O 0.54314 0.73209 0.76944 0.0
H167 H 0.55612 0.87965 0.75906 0.0
H168 H 0.36183 0.84417 0.76811 0.0
H169 H 0.60816 0.92334 0.76909 0.0
Zn170 Zn 0.99352 0.79069 0.28768 0.0
C171 C 0.03523 0.89156 0.24291 0.0
N172 N 0.02309 0.87512 0.20146 0.0
C173 C 0.017 0.83492 0.21147 0.0
N174 N 0.02462 0.82669 0.25717 0.0
N175 N 0.0376 0.86196 0.27655 0.0
C176 C 0.01581 0.9171 0.38022 0.0
O177 O 0.99681 0.88391 0.36881 0.0
O178 O 0.98953 0.73049 0.26187 0.0
Zn179 Zn 0.0611 0.86745 0.33937 0.0
N180 N 0.9486 0.81892 0.27852 0.0
C181 C 0.91997 0.88503 0.27305 0.0
C182 C 0.94986 0.86151 0.27607 0.0
C183 C 0.91788 0.79885 0.2776 0.0
N184 N 0.88965 0.86522 0.27322 0.0
C185 C 0.8875 0.82271 0.27543 0.0
O186 O 0.04986 0.82537 0.38565 0.0
C187 C 0.02785 0.79754 0.39138 0.0
O188 O 1.00619 0.78446 0.35798 0.0
H189 H 0.97396 0.87752 0.27757 0.0
H190 H 0.91713 0.76507 0.28013 0.0
C191 C 0.13282 0.86777 0.38018 0.0
C192 C 0.16843 0.8699 0.37895 0.0
C193 C 0.15792 0.87169 0.29688 0.0
C194 C 0.12282 0.86929 0.29825 0.0
N195 N 0.1108 0.86803 0.33972 0.0
N196 N 0.1798 0.87211 0.33706 0.0
H197 H 0.12268 0.86671 0.41278 0.0
C198 C 0.97585 0.70413 0.28662 0.0
O199 O 0.96478 0.7177 0.32442 0.0
O200 O 0.04552 0.91927 0.36834 0.0
H201 H 0.10526 0.86906 0.26638 0.0
H202 H 0.9209 0.91891 0.27141 0.0
H203 H 0.16775 0.87327 0.26411 0.0
Zn204 Zn 0.48641 0.25207 0.28379 0.0
C205 C 0.53764 0.15091 0.25195 0.0
N206 N 0.52926 0.16525 0.20862 0.0
C207 C 0.51909 0.20482 0.21509 0.0
N208 N 0.52045 0.21461 0.26044 0.0
N209 N 0.5334 0.18105 0.28351 0.0
C210 C 0.52362 0.11308 0.3803 0.0
O211 O 0.49648 0.13167 0.35804 0.0
O212 O 0.48512 0.31179 0.25646 0.0
Zn213 Zn 0.55571 0.18273 0.34697 0.0
N214 N 0.44203 0.22449 0.26606 0.0
C215 C 0.41318 0.16017 0.24493 0.0
C216 C 0.4432 0.18243 0.25833 0.0
C217 C 0.41135 0.24499 0.26248 0.0
N218 N 0.38279 0.18054 0.24085 0.0
C219 C 0.38071 0.22233 0.24959 0.0
O220 O 0.53313 0.2193 0.38907 0.0
C221 C 0.5094 0.2458 0.3909 0.0
O222 O 0.49089 0.25923 0.35461 0.0
H223 H 0.46723 0.1659 0.26264 0.0
H224 H 0.4109 0.27836 0.26925 0.0
C225 C 0.62699 0.19554 0.38711 0.0
C226 C 0.66139 0.20745 0.38567 0.0
C227 C 0.64663 0.22505 0.30621 0.0
C228 C 0.61287 0.21333 0.30792 0.0
N229 N 0.60359 0.1988 0.34813 0.0
N230 N 0.66989 0.2219 0.34485 0.0
H231 H 0.61858 0.18452 0.41869 0.0
C232 C 0.5037 0.33975 0.27893 0.0
O233 O 0.52487 0.32805 0.31545 0.0
O234 O 0.55307 0.12821 0.37803 0.0
H235 H 0.59418 0.2159 0.2773 0.0
H236 H 0.41397 0.12683 0.23824 0.0
H237 H 0.65434 0.23668 0.27442 0.0
Zn238 Zn 0.03554 0.24551 0.73434 0.0
C239 C 0.99181 0.14517 0.7728 0.0
N240 N 1.00539 0.15835 0.81506 0.0
C241 C 1.01135 0.19937 0.80869 0.0
N242 N 1.00255 0.21093 0.76399 0.0
N243 N 0.98885 0.17712 0.74209 0.0
C244 C 0.98862 0.10987 0.64181 0.0
O245 O 0.01681 0.12946 0.6591 0.0
O246 O 0.0431 0.30618 0.75758 0.0
Zn247 Zn 0.96135 0.17825 0.6817 0.0
N248 N 0.07923 0.21512 0.74355 0.0
C249 C 0.10616 0.14804 0.74644 0.0
C250 C 0.07683 0.17256 0.74362 0.0
C251 C 0.1104 0.23425 0.74555 0.0
N252 N 0.13702 0.16692 0.74781 0.0
C253 C 0.14024 0.2094 0.74728 0.0
O254 O 0.98077 0.21235 0.63464 0.0
C255 C 1.00454 0.23793 0.62964 0.0
O256 O 0.02517 0.25144 0.66391 0.0
H257 H 0.05227 0.15748 0.74026 0.0
H258 H 0.11173 0.2681 0.74383 0.0
C259 C 0.88974 0.19279 0.64917 0.0
C260 C 0.85578 0.2045 0.65367 0.0
C261 C 0.87404 0.22111 0.73279 0.0
C262 C 0.90738 0.2093 0.72809 0.0
N263 N 0.91464 0.19545 0.68649 0.0
N264 N 0.84922 0.21847 0.69573 0.0
H265 H 0.89669 0.18222 0.6165 0.0
C266 C 0.02725 0.32956 0.78304 0.0
O267 O 1.00157 0.31407 0.80179 0.0
O268 O 0.96002 0.12321 0.65094 0.0
H269 H 0.92733 0.21111 0.75741 0.0
H270 H 0.10438 0.11418 0.74649 0.0
H271 H 0.86787 0.23227 0.76568 0.0
C272 C 0.01555 0.96399 0.22124 0.0
C273 C 0.03792 0.93788 0.25 0.0
C274 C 0.01556 1.00769 0.22731 0.0
C275 C 0.03809 0.0262 0.26371 0.0
C276 C 0.06113 1.00016 0.29259 0.0
C277 C 0.06134 0.95649 0.28453 0.0
C278 C 0.991 0.034 0.19498 0.0
C279 C 0.08549 1.01811 0.3322 0.0
C280 C 0.05478 0.14331 0.25245 0.0
C281 C 0.02877 0.16116 0.27458 0.0
C282 C 0.05885 0.09952 0.25004 0.0
C283 C 0.03696 0.07269 0.27124 0.0
C284 C 1.0118 0.09068 0.29575 0.0
C285 C 1.00788 0.13454 0.29677 0.0
C286 C 0.0851 0.08198 0.22211 0.0
C287 C 0.98735 0.06418 0.31881 0.0
H288 H 0.99739 0.95015 0.19413 0.0
H289 H 0.07974 0.93711 0.30552 0.0
H290 H 0.97147 0.04799 0.21435 0.0
H291 H 1.00486 0.06017 0.18073 0.0
H292 H 0.9776 1.01539 0.16571 0.0
H293 H 0.09473 0.99366 0.35803 0.0
H294 H 0.10808 0.03153 0.31873 0.0
H295 H 0.07319 0.04362 0.34997 0.0
H296 H 0.07094 0.16351 0.23491 0.0
H297 H 0.98777 0.14791 0.3141 0.0
H298 H 0.07198 0.06377 0.19236 0.0
H299 H 0.10254 0.06017 0.24346 0.0
H300 H 0.10069 0.10695 0.20864 0.0
H301 H 0.96221 0.06327 0.29641 0.0
H302 H 0.98302 0.07846 0.35227 0.0
H303 H 0.99636 0.03153 0.3251 0.0
C304 C 0.49978 0.9538 0.7282 0.0
C305 C 0.4781 0.9343 0.75593 0.0
C306 C 0.50106 0.99783 0.72456 0.0
C307 C 0.48044 0.02308 0.74975 0.0
C308 C 0.45681 1.00334 0.77523 0.0
C309 C 0.45619 0.95926 0.77839 0.0
C310 C 0.5264 1.01738 0.69666 0.0
C311 C 0.43407 0.02881 0.80223 0.0
C312 C 0.51724 0.12677 0.79926 0.0
C313 C 0.49847 0.15671 0.77099 0.0
C314 C 0.5119 0.08353 0.79206 0.0
C315 C 0.48727 0.0693 0.75534 0.0
C316 C 0.46891 0.09924 0.72565 0.0
C317 C 0.47455 0.14254 0.73399 0.0
C318 C 0.53219 0.05302 0.82467 0.0
C319 C 0.44241 0.08582 0.68606 0.0
H320 H 0.51789 0.93485 0.71252 0.0
H321 H 0.43996 0.94435 0.80069 0.0
H322 H 0.54706 0.03308 0.72023 0.0
H323 H 0.53826 0.99379 0.67573 0.0
H324 H 0.5136 0.04172 0.6732 0.0
H325 H 0.41443 1.00916 0.81576 0.0
H326 H 0.44994 0.04421 0.83191 0.0
H327 H 0.42098 0.05391 0.78019 0.0
H328 H 0.53582 0.13708 0.82792 0.0
H329 H 0.45981 0.16525 0.71191 0.0
H330 H 0.54623 0.03071 0.80491 0.0
H331 H 0.51455 0.03436 0.84308 0.0
H332 H 0.55098 0.06904 0.85082 0.0
H333 H 0.45002 0.05644 0.66978 0.0
H334 H 0.43793 0.11057 0.65915 0.0
H335 H 0.41785 0.07983 0.6994 0.0
C336 C 0.95938 0.08125 0.73873 0.0
C337 C 0.98933 0.0998 0.76126 0.0
C338 C 0.9579 0.0376 0.72985 0.0
C339 C 0.98664 1.01189 0.74537 0.0
C340 C 0.01679 0.03081 0.76839 0.0
C341 C 0.01773 0.07431 0.77588 0.0
C342 C 0.9256 1.01898 0.70413 0.0
C343 C 0.04804 1.00499 0.78587 0.0
C344 C 0.97831 0.89578 0.77322 0.0
C345 C 0.99242 0.87631 0.73696 0.0
C346 C 0.97484 0.93969 0.77524 0.0
C347 C 0.98528 0.96503 0.73986 0.0
C348 C 0.99805 0.94536 0.7021 0.0
C349 C 1.00157 0.90139 0.70116 0.0
C350 C 0.96158 0.95907 0.81655 0.0
C351 C 1.00875 0.97081 0.66312 0.0
H352 H 0.93714 0.10078 0.72834 0.0
H353 H 0.0409 0.08855 0.79359 0.0
H354 H 0.93157 1.00218 0.67288 0.0
H355 H 0.91478 0.99564 0.72623 0.0
H356 H 0.90587 0.04321 0.69331 0.0
H357 H 0.06952 0.02453 0.80283 0.0
H358 H 0.04144 0.98143 0.81115 0.0
H359 H 0.05694 0.98761 0.75679 0.0
H360 H 0.97107 0.87681 0.80108 0.0
H361 H 1.01199 0.88669 0.67261 0.0
H362 H 0.94048 0.9813 0.80509 0.0
H363 H 0.98238 0.97721 0.83717 0.0
H364 H 0.95213 0.93513 0.83934 0.0
H365 H 0.98614 0.98759 0.64501 0.0
H366 H 0.01995 0.95109 0.63761 0.0
H367 H 0.02792 0.99472 0.67694 0.0
C368 C 0.55879 0.90052 0.25515 0.0
C369 C 0.53434 0.88164 0.27908 0.0
C370 C 0.56328 0.94441 0.2556 0.0
C371 C 0.54368 0.97002 0.28192 0.0
C372 C 0.52085 0.95055 0.30887 0.0
C373 C 0.51595 0.9068 0.30641 0.0
C374 C 0.5872 0.96351 0.22527 0.0
C375 C 0.5012 0.97604 0.33983 0.0
C376 C 0.56602 0.08741 0.29375 0.0
C377 C 0.54055 0.10505 0.26126 0.0
C378 C 0.56698 0.04365 0.30212 0.0
C379 C 0.54305 1.01682 0.27552 0.0
C380 C 0.51813 0.03469 0.24153 0.0
C381 C 0.51701 0.07831 0.23525 0.0
C382 C 0.59309 0.02629 0.33995 0.0
C383 C 0.49234 1.00771 0.21174 0.0
H384 H 0.57292 0.88122 0.23369 0.0
H385 H 0.49734 0.89227 0.32543 0.0
H386 H 0.572 0.98069 0.19636 0.0
H387 H 0.60451 0.98653 0.24511 0.0
H388 H 0.60297 0.93945 0.21046 0.0
H389 H 0.48331 0.95658 0.35703 0.0
H390 H 0.51971 0.99118 0.36687 0.0
H391 H 0.48641 1.00127 0.31997 0.0
H392 H 0.58511 0.10774 0.31256 0.0
H393 H 0.49735 0.09168 0.20979 0.0
H394 H 0.60842 1.0013 0.32608 0.0
H395 H 0.57975 1.01182 0.36704 0.0
H396 H 0.61069 0.05093 0.35633 0.0
H397 H 0.50572 0.98325 0.19388 0.0
H398 H 0.4758 0.02624 0.18524 0.0
H399 H 0.47569 0.99143 0.23376 0.0
C400 C 0.54541 0.64318 0.79429 0.0
C401 C 0.55838 0.65975 0.7557 0.0
C402 C 0.5439 0.5994 0.80118 0.0
C403 C 0.5554 0.57151 0.76859 0.0
C404 C 0.56964 0.58826 0.73058 0.0
C405 C 0.57112 0.6319 0.72481 0.0
C406 C 0.52919 0.58299 0.84263 0.0
C407 C 0.58175 0.56004 0.69446 0.0
C408 C 0.5706 0.4534 0.78398 0.0
C409 C 0.54014 0.43721 0.76013 0.0
C410 C 0.57512 0.49714 0.79013 0.0
C411 C 0.54909 0.52517 0.77046 0.0
C412 C 0.51808 0.50856 0.74718 0.0
C413 C 0.51403 0.46498 0.74248 0.0
C414 C 0.60812 0.51338 0.8164 0.0
C415 C 0.48971 0.53685 0.7251 0.0
H416 H 0.53584 0.66435 0.81863 0.0
H417 H 0.58138 0.64413 0.69495 0.0
H418 H 0.50685 0.56256 0.83121 0.0
H419 H 0.54862 0.56358 0.86412 0.0
H420 H 0.52085 0.60861 0.86436 0.0
H421 H 0.59393 0.57787 0.66841 0.0
H422 H 0.60045 0.5368 0.71106 0.0
H423 H 0.55969 0.54231 0.67618 0.0
H424 H 0.59098 0.43198 0.79715 0.0
H425 H 0.49044 0.45248 0.72395 0.0
H426 H 0.6027 0.53715 0.84224 0.0
H427 H 0.62338 0.52899 0.79213 0.0
H428 H 0.6238 0.48785 0.83451 0.0
H429 H 0.4826 0.55985 0.7507 0.0
H430 H 0.46642 0.51903 0.71077 0.0
H431 H 0.49872 0.55487 0.6966 0.0
C432 C 0.95833 0.45281 0.24376 0.0
C433 C 0.98754 0.43535 0.26944 0.0
C434 C 0.95493 0.4967 0.23841 0.0
C435 C 0.98082 0.52365 0.26065 0.0
C436 C 1.01056 0.50587 0.28596 0.0
C437 C 0.01354 0.46214 0.28988 0.0
C438 C 0.92325 0.51425 0.21005 0.0
C439 C 0.03874 0.53307 0.31061 0.0
C440 C 0.98834 0.64134 0.23838 0.0
C441 C 0.97409 0.65838 0.27581 0.0
C442 C 0.98905 0.59755 0.2312 0.0
C443 C 0.9755 0.57015 0.26243 0.0
C444 C 0.95989 0.58742 0.29907 0.0
C445 C 0.95926 0.63107 0.30513 0.0
C446 C 1.00572 0.5808 0.19143 0.0
C447 C 0.94539 0.55969 0.33354 0.0
H448 H 0.9379 0.43232 0.22863 0.0
H449 H 0.03628 0.44877 0.30967 0.0
H450 H 0.90682 0.52935 0.23326 0.0
H451 H 0.93031 0.5387 0.18604 0.0
H452 H 0.9081 0.48952 0.18961 0.0
H453 H 0.06095 0.51437 0.32694 0.0
H454 H 0.04785 0.55551 0.28601 0.0
H455 H 0.02869 0.55173 0.33793 0.0
H456 H 0.99972 0.66207 0.21536 0.0
H457 H 0.94792 0.64372 0.33399 0.0
H458 H 0.99204 0.55274 0.17604 0.0
H459 H 0.03243 0.57137 0.20423 0.0
H460 H 1.00646 0.60476 0.16399 0.0
H461 H 0.92687 0.53702 0.31534 0.0
H462 H 0.93228 0.57797 0.35839 0.0
H463 H 0.96636 0.54128 0.3534 0.0
C464 C 0.47607 0.39988 0.23049 0.0
C465 C 0.49957 0.38539 0.26775 0.0
C466 C 0.47074 0.44328 0.2225 0.0
C467 C 0.48901 0.47294 0.25274 0.0
C468 C 0.51327 0.45838 0.28967 0.0
C469 C 0.51829 0.41509 0.29654 0.0
C470 C 0.44492 0.45734 0.18247 0.0
C471 C 0.53351 0.4886 0.32281 0.0
C472 C 0.50259 0.58843 0.22741 0.0
C473 C 0.48081 0.60799 0.25503 0.0
C474 C 0.50352 0.54443 0.22305 0.0
C475 C 0.48245 0.51922 0.2475 0.0
C476 C 0.45882 0.53906 0.27305 0.0
C477 C 0.45854 0.58312 0.27684 0.0
C478 C 0.52908 0.52486 0.19541 0.0
C479 C 0.43583 0.5137 0.29966 0.0
H480 H 0.46146 0.37734 0.20795 0.0
H481 H 0.53657 0.40453 0.32539 0.0
H482 H 0.42234 0.47101 0.19587 0.0
H483 H 0.45593 0.48218 0.16241 0.0
H484 H 0.43612 0.43101 0.15879 0.0
H485 H 0.55206 0.47233 0.34899 0.0
H486 H 0.54781 0.51091 0.30351 0.0
H487 H 0.51581 0.50729 0.34118 0.0
H488 H 0.52108 0.60725 0.21248 0.0
H489 H 0.44225 0.59806 0.29913 0.0
H490 H 0.51623 0.50143 0.17074 0.0
H491 H 0.54906 0.50807 0.21897 0.0
H492 H 0.54183 0.54858 0.17579 0.0
H493 H 0.42321 0.48814 0.27777 0.0
H494 H 0.41578 0.53336 0.31236 0.0
H495 H 0.45143 0.49892 0.32992 0.0
C496 C 0.02253 0.40036 0.82011 0.0
C497 C 0.03491 0.37537 0.78639 0.0
C498 C 0.02636 0.44432 0.82026 0.0
C499 C 0.0424 0.46405 0.78539 0.0
C500 C 0.05634 0.43876 0.75259 0.0
C501 C 0.0527 0.39485 0.75374 0.0
C502 C 1.01199 0.4698 0.85666 0.0
C503 C 0.07321 0.45818 0.71436 0.0
C504 C 1.01036 0.57183 0.7435 0.0
C505 C 0.03717 0.5984 0.76189 0.0
C506 C 1.01166 0.52846 0.75159 0.0
C507 C 0.04049 0.51077 0.77916 0.0
C508 C 0.0676 0.53755 0.79842 0.0
C509 C 0.06586 0.58104 0.7889 0.0
C510 C 0.98226 0.50145 0.72984 0.0
C511 C 0.09848 0.52023 0.82871 0.0
H512 H 1.00918 0.38561 0.8459 0.0
H513 H 0.06242 0.37594 0.72752 0.0
H514 H 0.03192 0.49122 0.87405 0.0
H515 H 0.9905 0.48946 0.84017 0.0
H516 H 1.00245 0.44974 0.88321 0.0
H517 H 0.08557 0.43435 0.69429 0.0
H518 H 0.05372 0.47524 0.69028 0.0
H519 H 0.09283 0.48136 0.72874 0.0
H520 H 0.98815 0.58512 0.72242 0.0
H521 H 0.08698 0.60134 0.80225 0.0
H522 H 0.97107 0.48406 0.75703 0.0
H523 H 0.99169 0.47789 0.70657 0.0
H524 H 0.96164 0.52011 0.70951 0.0
H525 H 0.09028 0.50207 0.85766 0.0
H526 H 0.11633 0.54536 0.84328 0.0
H527 H 0.11249 0.49834 0.80844 0.0
C528 C 0.98423 0.48941 0.10266 0.0
C529 C 1.00305 0.45207 0.10679 0.0
C530 C 0.98739 0.5175 0.06666 0.0
C531 C 1.00872 0.5068 0.03318 0.0
C532 C 0.02741 0.4688 0.03693 0.0
C533 C 0.02486 0.44224 0.0743 0.0
C534 C 0.96827 0.55865 0.06472 0.0
C535 C 0.04952 0.45575 1.00097 0.0
C536 C 0.99369 0.55827 0.91538 0.0
C537 C 0.02193 0.58506 0.91826 0.0
C538 C 0.98893 0.53242 0.95275 0.0
C539 C 1.01205 0.53538 0.99434 0.0
C540 C 0.03965 0.56399 0.99799 0.0
C541 C 0.04467 0.58792 0.95948 0.0
C542 C 0.9597 0.50142 0.94748 0.0
C543 C 0.06395 0.56915 0.04242 0.0
H544 H 0.9671 0.49659 0.12762 0.0
H545 H 0.03892 0.41291 0.077 0.0
H546 H 0.98689 0.58491 0.0692 0.0
H547 H 0.95252 0.56268 0.03049 0.0
H548 H 0.95135 0.5611 0.09206 0.0
H549 H 0.06131 0.42437 1.00819 0.0
H550 H 0.03393 0.45491 0.96629 0.0
H551 H 0.07025 0.47899 0.99948 0.0
H552 H 0.97596 0.55672 0.88353 0.0
H553 H 0.06595 0.60973 0.96199 0.0
H554 H 0.94209 0.5084 0.97303 0.0
H555 H 0.9697 0.4692 0.95464 0.0
H556 H 0.94487 0.50203 0.91223 0.0
H557 H 0.04937 0.57519 0.07168 0.0
H558 H 0.08232 0.5953 0.04055 0.0
H559 H 0.0787 0.53979 0.05028 0.0
C560 C 0.49862 0.57517 0.08618 0.0
C561 C 0.51351 0.61503 0.08903 0.0
C562 C 0.50329 0.54798 0.04986 0.0
C563 C 0.52199 0.56193 0.01466 0.0
C564 C 0.53667 0.6025 0.01712 0.0
C565 C 0.53268 0.62841 0.05481 0.0
C566 C 0.48839 0.5043 0.04931 0.0
C567 C 0.55562 0.61906 0.97937 0.0
C568 C 0.55763 0.47759 0.94369 0.0
C569 C 0.531 0.47293 0.90691 0.0
C570 C 0.55539 0.5072 0.97859 0.0
C571 C 0.52637 0.53364 0.97565 0.0
C572 C 0.50046 0.53091 0.93703 0.0
C573 C 0.50274 0.49989 0.90349 0.0
C574 C 0.5832 0.5087 0.01974 0.0
C575 C 0.46994 0.55998 0.93177 0.0
H576 H 0.48374 0.56509 0.11277 0.0
H577 H 0.54359 0.65968 0.05674 0.0
H578 H 0.46904 0.50013 0.01825 0.0
H579 H 0.50882 0.48068 0.04728 0.0
H580 H 0.47605 0.49776 0.08054 0.0
H581 H 0.56886 0.64917 0.9892 0.0
H582 H 0.57478 0.596 0.97055 0.0
H583 H 0.53713 0.62431 0.94768 0.0
H584 H 0.57945 0.45658 0.9466 0.0
H585 H 0.48232 0.49655 0.87476 0.0
H586 H 0.57228 0.50027 0.05157 0.0
H587 H 0.59364 0.54093 0.02467 0.0
H588 H 0.60463 0.48687 0.01596 0.0
H589 H 0.45356 0.55294 0.95878 0.0
H590 H 0.45419 0.5569 0.8973 0.0
H591 H 0.47852 0.59303 0.93665 0.0
C592 C 0.54698 0.06913 0.44734 0.0
C593 C 0.51989 0.07862 0.41255 0.0
C594 C 0.54306 0.03925 0.48116 0.0
C595 C 0.51174 1.01731 0.47903 0.0
C596 C 0.48473 0.02554 0.44297 0.0
C597 C 0.48887 0.0569 0.41062 0.0
C598 C 0.57214 0.03191 0.5198 0.0
C599 C 0.45157 1.00127 0.43858 0.0
C600 C 0.51658 0.91731 0.54895 0.0
C601 C 0.50155 0.93004 0.58743 0.0
C602 C 0.51898 0.94503 0.51242 0.0
C603 C 0.50709 0.98668 0.51556 0.0
C604 C 0.49213 0.9997 0.55465 0.0
C605 C 0.48874 0.97075 0.58972 0.0
C606 C 0.53359 0.92948 0.47026 0.0
C607 C 0.48063 0.04443 0.56004 0.0
H608 H 0.57094 0.08613 0.4492 0.0
H609 H 0.468 0.06404 0.38351 0.0
H610 H 0.56321 0.03748 0.55375 0.0
H611 H 0.5808 0.99883 0.51931 0.0
H612 H 0.59443 0.05263 0.51715 0.0
H613 H 0.43448 1.00873 0.40608 0.0
H614 H 0.4569 0.96707 0.4394 0.0
H615 H 0.43779 1.00852 0.4683 0.0
H616 H 0.52568 0.88533 0.54692 0.0
H617 H 0.4769 0.98021 0.61951 0.0
H618 H 0.5528 0.95174 0.46004 0.0
H619 H 0.51267 0.92707 0.44074 0.0
H620 H 0.54584 0.8982 0.47602 0.0
H621 H 0.50279 0.06593 0.56021 0.0
H622 H 0.46937 0.0493 0.59246 0.0
H623 H 0.46135 0.05342 0.53036 0.0
C624 C 0.9889 0.93125 0.45031 0.0
C625 C 1.00631 0.94628 0.41501 0.0
C626 C 0.98424 0.95679 0.48793 0.0
C627 C 0.99608 0.99869 0.48894 0.0
C628 C 1.01199 1.01466 0.45202 0.0
C629 C 0.01768 0.9878 0.41592 0.0
C630 C 0.96851 0.93821 0.52768 0.0
C631 C 0.02357 0.05979 0.45109 0.0
C632 C 0.96123 0.07397 0.57086 0.0
C633 C 0.98954 0.07856 0.60524 0.0
C634 C 0.96305 0.04821 0.53247 0.0
C635 C 0.99336 0.02527 0.52968 0.0
C636 C 0.02153 0.02848 0.56527 0.0
C637 C 0.0196 0.05612 0.60211 0.0
C638 C 0.9331 0.04679 0.49413 0.0
C639 C 0.05374 1.00302 0.56427 0.0
H640 H 0.98065 0.8988 0.44988 0.0
H641 H 0.03135 0.99905 0.38867 0.0
H642 H 0.98808 0.93704 0.55885 0.0
H643 H 0.94721 0.95811 0.53633 0.0
H644 H 0.95869 0.90593 0.52005 0.0
H645 H 0.03439 0.0675 0.41894 0.0
H646 H 1.00165 0.08103 0.45393 0.0
H647 H 0.04334 0.0663 0.48113 0.0
H648 H 0.93817 0.09206 0.57281 0.0
H649 H 0.04147 0.05985 0.62873 0.0
H650 H 0.92385 1.01412 0.48835 0.0
H651 H 0.94139 0.05774 0.46135 0.0
H652 H 0.91139 0.06665 0.50175 0.0
H653 H 0.04726 0.96942 0.55815 0.0
H654 H 0.07166 1.00581 0.59704 0.0
H655 H 0.06714 1.01371 0.53539 0.0
C656 C 0.82937 0.36903 0.07111 0.0
C657 C 0.82644 0.34775 0.11253 0.0
C658 C 0.80268 0.36813 0.0336 0.0
C659 C 0.77223 0.34556 0.03747 0.0
C660 C 0.76903 0.32432 0.07918 0.0
C661 C 0.79602 0.32573 0.11602 0.0
C662 C 0.80708 0.39132 0.98976 0.0
C663 C 0.73714 0.29971 0.08483 0.0
C664 C 0.69 0.36831 0.95558 0.0
C665 C 0.68955 0.33539 0.92337 0.0
C666 C 0.71688 0.37231 0.99256 0.0
C667 C 0.74409 0.34286 0.99753 0.0
C668 C 0.74391 0.30983 0.96504 0.0
C669 C 0.7168 0.30655 0.92853 0.0
C670 C 0.71615 0.40808 0.02637 0.0
C671 C 0.77227 0.27761 0.96905 0.0
H672 H 0.85221 0.38705 0.06806 0.0
H673 H 0.79332 0.30907 0.14765 0.0
H674 H 0.80533 0.36899 0.96032 0.0
H675 H 0.78617 0.41454 0.9816 0.0
H676 H 0.83203 0.40795 0.99241 0.0
H677 H 0.73832 0.28568 0.11982 0.0
H678 H 0.71431 0.32036 0.07866 0.0
H679 H 0.73344 0.27415 0.05877 0.0
H680 H 0.66974 0.39149 0.95162 0.0
H681 H 0.71687 0.28092 0.90409 0.0
H682 H 0.73967 0.42732 0.02724 0.0
H683 H 0.71581 0.39558 0.06175 0.0
H684 H 0.69348 0.42869 0.01744 0.0
H685 H 0.79736 0.29334 0.96902 0.0
H686 H 0.76877 0.25435 0.9404 0.0
H687 H 0.77334 0.2606 1.00235 0.0
C688 C 0.33419 0.712 0.06738 0.0
C689 C 0.33377 0.68333 0.10367 0.0
C690 C 0.30747 0.7129 0.02995 0.0
C691 C 0.28013 0.68376 0.02821 0.0
C692 C 0.28019 0.654 0.06418 0.0
C693 C 0.30669 0.65458 0.10173 0.0
C694 C 0.30804 0.74574 0.99288 0.0
C695 C 0.25218 0.62159 0.06315 0.0
C696 C 0.19406 0.70704 0.95528 0.0
C697 C 0.19706 0.68516 0.9143 0.0
C698 C 0.22103 0.70731 0.99239 0.0
C699 C 0.25141 0.68434 0.98888 0.0
C700 C 0.25419 0.66151 0.94789 0.0
C701 C 0.22724 0.6627 0.91095 0.0
C702 C 0.21727 0.73279 0.03504 0.0
C703 C 0.28562 0.63567 0.94307 0.0
H704 H 0.35476 0.73475 0.06911 0.0
H705 H 0.30631 0.63232 0.1297 0.0
H706 H 0.30768 0.73052 0.95862 0.0
H707 H 0.28476 0.76559 0.99099 0.0
H708 H 0.33097 0.76627 0.99937 0.0
H709 H 0.25683 0.59938 0.09263 0.0
H710 H 0.2272 0.6373 0.06426 0.0
H711 H 0.25001 0.60344 0.03039 0.0
H712 H 0.17105 0.72503 0.95779 0.0
H713 H 0.22964 0.64564 0.87938 0.0
H714 H 0.23833 0.75606 0.04133 0.0
H715 H 0.21932 0.71207 0.06578 0.0
H716 H 0.19241 0.74968 0.03199 0.0
H717 H 0.30853 0.65617 0.9459 0.0
H718 H 0.28334 0.61865 0.90953 0.0
H719 H 0.29004 0.61245 0.97156 0.0
C720 C 0.30057 0.88225 0.6153 0.0
C721 C 0.32905 0.85651 0.61222 0.0
C722 C 0.27385 0.88575 0.57824 0.0
C723 C 0.2751 0.86203 0.53743 0.0
C724 C 0.30371 0.83572 0.53423 0.0
C725 C 0.33052 0.83363 0.57144 0.0
C726 C 0.24436 0.91502 0.58271 0.0
C727 C 0.30576 0.80926 0.49175 0.0
C728 C 0.19129 0.84193 0.45785 0.0
C729 C 0.19403 0.86981 0.42143 0.0
C730 C 0.21746 0.839 0.49581 0.0
C731 C 0.24672 0.8652 0.49787 0.0
C732 C 0.24902 0.89427 0.46181 0.0
C733 C 0.22293 0.89579 0.42382 0.0
C734 C 0.21428 0.80702 0.53304 0.0
C735 C 0.27922 0.92357 0.46312 0.0
H736 H 0.29935 0.90007 0.6467 0.0
H737 H 0.35215 0.81312 0.56915 0.0
H738 H 0.2418 0.9383 0.55422 0.0
H739 H 0.22004 0.8971 0.57961 0.0
H740 H 0.24766 0.93211 0.61624 0.0
H741 H 0.32927 0.78964 0.4951 0.0
H742 H 0.28307 0.78839 0.48534 0.0
H743 H 0.30541 0.82965 0.46095 0.0
H744 H 0.16931 0.82126 0.45582 0.0
H745 H 0.22512 0.91746 0.39579 0.0
H746 H 0.21575 0.82269 0.56721 0.0
H747 H 0.23593 0.78453 0.53513 0.0
H748 H 0.18988 0.78919 0.52654 0.0
H749 H 0.28249 0.94183 0.49585 0.0
H750 H 0.2763 0.94583 0.4336 0.0
H751 H 0.30304 0.90522 0.46227 0.0
C752 C 0.79822 0.22872 0.61545 0.0
C753 C 0.82704 0.20291 0.61439 0.0
C754 C 0.7705 0.22807 0.57959 0.0
C755 C 0.77133 0.20091 0.54135 0.0
C756 C 0.80002 0.17433 0.54014 0.0
C757 C 0.82743 0.17552 0.57664 0.0
C758 C 0.74048 0.25699 0.58233 0.0
C759 C 0.80191 0.14486 0.50002 0.0
C760 C 0.68721 0.17762 0.46349 0.0
C761 C 0.68871 0.20565 0.42669 0.0
C762 C 0.7139 0.17556 0.50094 0.0
C763 C 0.74291 0.20196 0.50166 0.0
C764 C 0.74459 0.23018 0.4647 0.0
C765 C 0.71761 0.23167 0.42791 0.0
C766 C 0.71114 0.14502 0.5397 0.0
C767 C 0.77493 0.25898 0.46401 0.0
H768 H 0.79743 0.25004 0.64425 0.0
H769 H 0.84887 0.15448 0.57564 0.0
H770 H 0.73813 0.27953 0.55314 0.0
H771 H 0.71634 0.2387 0.57911 0.0
H772 H 0.74308 0.27499 0.61526 0.0
H773 H 0.82549 0.12536 0.50478 0.0
H774 H 0.77931 0.12379 0.49555 0.0
H775 H 0.80133 0.16308 0.46756 0.0
H776 H 0.6656 0.15659 0.4628 0.0
H777 H 0.7192 0.25361 0.39996 0.0
H778 H 0.71242 0.16213 0.57303 0.0
H779 H 0.73305 0.12287 0.54297 0.0
H780 H 0.68695 0.1267 0.53414 0.0
H781 H 0.77762 0.27985 0.49476 0.0
H782 H 0.77256 0.27876 0.43243 0.0
H783 H 0.79883 0.24029 0.46582 0.0
C784 C 0.33807 0.27118 0.27842 0.0
C785 C 0.34616 0.2416 0.24599 0.0
C786 C 0.30417 0.28523 0.27806 0.0
C787 C 0.2779 0.26969 0.24417 0.0
C788 C 0.28618 0.24072 0.21064 0.0
C789 C 0.32008 0.22684 0.2122 0.0
C790 C 0.2963 0.31591 0.31461 0.0
C791 C 0.25914 0.224 0.17337 0.0
C792 C 0.18466 0.2752 0.26552 0.0
C793 C 0.17337 0.31163 0.24123 0.0
C794 C 0.21871 0.26129 0.26708 0.0
C795 C 0.24178 0.28403 0.24328 0.0
C796 C 0.23022 0.32028 0.21794 0.0
C797 C 0.19632 0.33377 0.21755 0.0
C798 C 0.23019 0.22269 0.29485 0.0
C799 C 0.25371 0.34496 0.19131 0.0
H800 H 0.35792 0.28209 0.30519 0.0
H801 H 0.3262 0.20401 0.18699 0.0
H802 H 0.28429 0.34458 0.29808 0.0
H803 H 0.27763 0.30182 0.33527 0.0
H804 H 0.31957 0.32514 0.3384 0.0
H805 H 0.26997 0.20253 0.1491 0.0
H806 H 0.23931 0.20681 0.18932 0.0
H807 H 0.24614 0.25036 0.15327 0.0
H808 H 0.16724 0.25834 0.28452 0.0
H809 H 0.1877 0.36186 0.19851 0.0
H810 H 0.25173 0.23077 0.32206 0.0
H811 H 0.23975 0.19873 0.27217 0.0
H812 H 0.20923 0.20866 0.31159 0.0
H813 H 0.2759 0.35692 0.21527 0.0
H814 H 0.24054 0.37199 0.17258 0.0
H815 H 0.26397 0.32431 0.16584 0.0
C816 C 0.32023 0.31555 0.71781 0.0
C817 C 0.34669 0.30019 0.75059 0.0
C818 C 0.28648 0.30115 0.71634 0.0
C819 C 0.27878 0.2711 0.74898 0.0
C820 C 0.30545 0.25501 0.78186 0.0
C821 C 0.33917 0.26957 0.7821 0.0
C822 C 0.259 0.31846 0.68011 0.0
C823 C 0.29819 0.22319 0.81748 0.0
C824 C 0.18599 0.26329 0.77167 0.0
C825 C 0.17486 0.22732 0.74626 0.0
C826 C 0.21986 0.27777 0.7732 0.0
C827 C 0.24287 0.25613 0.74817 0.0
C828 C 0.23146 0.22035 0.72174 0.0
C829 C 0.19776 0.20623 0.72145 0.0
C830 C 0.23122 0.31579 0.8022 0.0
C831 C 0.25487 0.19688 0.69378 0.0
H832 H 0.32593 0.33921 0.69335 0.0
H833 H 0.35934 0.2582 0.80812 0.0
H834 H 0.24604 0.29247 0.65925 0.0
H835 H 0.23923 0.33485 0.69706 0.0
H836 H 0.2694 0.3408 0.65642 0.0
H837 H 0.32172 0.21375 0.84061 0.0
H838 H 0.2796 0.23636 0.83895 0.0
H839 H 0.28634 0.19477 0.8001 0.0
H840 H 0.16858 0.27932 0.79148 0.0
H841 H 0.18922 0.17852 0.70152 0.0
H842 H 0.24027 0.34058 0.78018 0.0
H843 H 0.2531 0.30738 0.82873 0.0
H844 H 0.21035 0.32889 0.81988 0.0
H845 H 0.26466 0.21845 0.66884 0.0
H846 H 0.2418 0.17014 0.67428 0.0
H847 H 0.27737 0.18469 0.71695 0.0
C848 C 0.8232 0.72498 0.72186 0.0
C849 C 0.85006 0.73813 0.75541 0.0
C850 C 0.78972 0.73993 0.72181 0.0
C851 C 0.78266 0.76812 0.75681 0.0
C852 C 0.80976 0.782 0.79049 0.0
C853 C 0.84323 0.76708 0.78919 0.0
C854 C 0.7618 0.72511 0.68462 0.0
C855 C 0.8032 0.81166 0.82868 0.0
C856 C 0.70194 0.83453 0.73606 0.0
C857 C 0.67912 0.81172 0.7593 0.0
C858 C 0.73553 0.82053 0.73467 0.0
C859 C 0.74693 0.78315 0.7579 0.0
C860 C 0.72403 0.75989 0.78149 0.0
C861 C 0.69025 0.77427 0.78157 0.0
C862 C 0.75879 0.84576 0.70824 0.0
C863 C 0.73537 0.72015 0.80718 0.0
H864 H 0.82839 0.7026 0.69568 0.0
H865 H 0.86373 0.77671 0.81574 0.0
H866 H 0.74213 0.70754 0.7005 0.0
H867 H 0.74883 0.75242 0.6663 0.0
H868 H 0.77178 0.7045 0.65881 0.0
H869 H 0.82702 0.81969 0.85201 0.0
H870 H 0.7914 0.84106 0.81374 0.0
H871 H 0.7848 0.79725 0.84955 0.0
H872 H 0.6934 0.8634 0.71855 0.0
H873 H 0.67292 0.75686 0.80018 0.0
H874 H 0.76808 0.82588 0.6813 0.0
H875 H 0.78161 0.85638 0.73193 0.0
H876 H 0.74576 0.87372 0.69127 0.0
H877 H 0.74378 0.69673 0.78295 0.0
H878 H 0.71468 0.70608 0.82442 0.0
H879 H 0.75767 0.72682 0.83378 0.0
C880 C 0.70784 0.71443 0.30452 0.0
C881 C 0.68146 0.731 0.27246 0.0
C882 C 0.74179 0.72817 0.30604 0.0
C883 C 0.74977 0.75874 0.27411 0.0
C884 C 0.72325 0.77569 0.24164 0.0
C885 C 0.68934 0.76184 0.2414 0.0
C886 C 0.76912 0.70994 0.34185 0.0
C887 C 0.7308 0.808 0.20668 0.0
C888 C 0.83049 0.82401 0.30273 0.0
C889 C 0.85339 0.80374 0.27727 0.0
C890 C 0.79698 0.80925 0.30261 0.0
C891 C 0.78574 0.77375 0.27557 0.0
C892 C 0.80883 0.7528 0.25008 0.0
C893 C 0.84255 0.76785 0.25154 0.0
C894 C 0.77351 0.83194 0.33113 0.0
C895 C 0.79766 0.71514 0.22039 0.0
H896 H 0.70188 0.69059 0.32863 0.0
H897 H 0.66923 0.77414 0.21589 0.0
H898 H 0.78905 0.69423 0.32458 0.0
H899 H 0.78193 0.73541 0.36373 0.0
H900 H 0.7586 0.68683 0.3646 0.0
H901 H 0.70746 0.81749 0.1832 0.0
H902 H 0.74229 0.83633 0.2247 0.0
H903 H 0.74979 0.79532 0.18552 0.0
H904 H 0.83884 0.85166 0.32287 0.0
H905 H 0.85999 0.75246 0.23127 0.0
H906 H 0.76345 0.80971 0.35518 0.0
H907 H 0.75119 0.84485 0.30818 0.0
H908 H 0.78662 0.8581 0.35165 0.0
H909 H 0.78826 0.6901 0.24177 0.0
H910 H 0.81873 0.7022 0.20296 0.0
H911 H 0.77607 0.72394 0.1936 0.0
C912 C 0.04253 0.24021 0.87461 0.0
C913 C 1.01175 0.22805 0.84825 0.0
C914 C 0.04272 0.25713 0.91932 0.0
C915 C 1.01155 0.26021 0.93837 0.0
C916 C 0.98032 0.24986 0.9106 0.0
C917 C 0.98084 0.23431 0.86577 0.0
C918 C 0.0764 0.26938 0.94706 0.0
C919 C 0.94653 0.252 0.92943 0.0
C920 C 1.01182 0.24756 0.06829 0.0
C921 C 1.00328 0.28807 0.08121 0.0
C922 C 0.01524 0.23824 0.02198 0.0
C923 C 1.01141 0.27061 0.98827 0.0
C924 C 1.00443 0.31203 1.00179 0.0
C925 C 0.99979 0.32005 0.04786 0.0
C926 C 0.02178 0.19344 1.00881 0.0
C927 C 1.00163 0.34779 0.96759 0.0
H928 H 0.06646 0.23462 0.86123 0.0
H929 H 0.95713 0.22402 0.84551 0.0
H930 H 0.07392 0.29952 0.96539 0.0
H931 H 0.08421 0.24513 0.97363 0.0
H932 H 0.09702 0.27243 0.92489 0.0
H933 H 0.92444 0.24479 0.90263 0.0
H934 H 0.94665 0.2292 0.95815 0.0
H935 H 0.9427 0.28362 0.94374 0.0
H936 H 0.01473 0.22294 0.09412 0.0
H937 H 0.9939 0.35167 0.05801 0.0
H938 H 0.04542 0.19155 0.99228 0.0
H939 H 1.0003 0.18214 0.98314 0.0
H940 H 0.02449 0.17206 0.03912 0.0
H941 H 0.02531 0.34969 0.95108 0.0
H942 H 0.99755 0.37847 0.98412 0.0
H943 H 0.98006 0.3422 0.9396 0.0
C944 C 0.5409 0.24482 0.15387 0.0
C945 C 0.51278 0.23399 0.17583 0.0
C946 C 0.53653 0.25986 0.10833 0.0
C947 C 0.50305 0.26463 0.08414 0.0
C948 C 0.47441 0.25683 0.10754 0.0
C949 C 0.47962 0.24092 0.15306 0.0
C950 C 0.56789 0.26745 0.08501 0.0
C951 C 0.43832 0.26275 0.08361 0.0
C952 C 0.50319 0.32508 0.97218 0.0
C953 C 0.50327 0.29256 0.93969 0.0
C954 C 0.50028 0.31669 0.01872 0.0
C955 C 0.49868 0.2746 0.03359 0.0
C956 C 0.49738 0.2417 1.00047 0.0
C957 C 0.49914 0.25114 0.9537 0.0
C958 C 0.50056 0.35281 0.05232 0.0
C959 C 0.49633 0.19634 0.01489 0.0
H960 H 0.56653 0.23849 0.17126 0.0
H961 H 0.45786 0.23153 0.16964 0.0
H962 H 0.56835 0.2447 0.05626 0.0
H963 H 0.56711 0.29935 0.06984 0.0
H964 H 0.59205 0.26412 0.10929 0.0
H965 H 0.41944 0.26284 0.10858 0.0
H966 H 0.43599 0.29258 0.06389 0.0
H967 H 0.4317 0.23683 0.05858 0.0
H968 H 0.50595 0.35726 0.96125 0.0
H969 H 0.4993 0.22601 0.92864 0.0
H970 H 0.52562 0.35396 0.07486 0.0
H971 H 0.48049 0.34846 0.07507 0.0
H972 H 0.49637 0.38343 0.03429 0.0
H973 H 0.52048 0.1883 0.03745 0.0
H974 H 0.4932 0.17465 0.98476 0.0
H975 H 0.47499 0.1911 0.0353 0.0
C976 C 1.0091 0.71409 0.96913 0.0
C977 C 0.01335 0.74735 0.93905 0.0
C978 C 1.00516 0.72143 0.01559 0.0
C979 C 1.00691 0.76303 0.03285 0.0
C980 C 1.01068 0.7968 1.00221 0.0
C981 C 0.01327 0.78856 0.95539 0.0
C982 C 1.00004 0.68455 0.0463 0.0
C983 C 0.01355 0.84155 0.01932 0.0
C984 C 0.97989 0.80111 0.14605 0.0
C985 C 1.01156 0.80348 0.17427 0.0
C986 C 0.97735 0.78423 0.10107 0.0
C987 C 1.00748 0.77138 0.0834 0.0
C988 C 0.03912 0.77117 0.11312 0.0
C989 C 0.04063 0.78673 0.15841 0.0
C990 C 0.94287 0.78309 0.07139 0.0
C991 C 0.07203 0.75861 0.09576 0.0
H992 H 1.00904 0.68214 0.95625 0.0
H993 H 0.01679 0.81414 0.93208 0.0
H994 H 0.02388 0.67862 0.07033 0.0
H995 H 0.97943 0.69127 0.06761 0.0
H996 H 0.99342 0.65549 0.02594 0.0
H997 H 0.01633 0.86416 0.99117 0.0
H998 H 0.99056 0.85021 0.03524 0.0
H999 H 0.03607 0.84471 0.04649 0.0
H1000 H 0.95753 0.8149 0.15803 0.0
H1001 H 0.06527 0.78972 0.17987 0.0
H1002 H 0.93958 0.75338 0.05139 0.0
H1003 H 0.94102 0.8093 0.04623 0.0
H1004 H 0.92158 0.78623 0.09245 0.0
H1005 H 0.06924 0.72764 0.07835 0.0
H1006 H 0.09394 0.75708 0.12408 0.0
H1007 H 0.07818 0.7818 0.06981 0.0
C1008 C 0.48602 0.78064 0.06003 0.0
C1009 C 0.51305 0.76498 0.09166 0.0
C1010 C 0.48995 0.78778 0.01347 0.0
C1011 C 0.52142 0.77793 0.99749 0.0
C1012 C 0.54841 0.76063 0.02891 0.0
C1013 C 0.54414 0.75512 0.07571 0.0
C1014 C 0.46055 0.80674 0.98155 0.0
C1015 C 0.58191 0.7482 0.01325 0.0
C1016 C 0.51327 0.77889 0.86535 0.0
C1017 C 0.52246 0.82046 0.85748 0.0
C1018 C 0.51556 0.76301 0.91091 0.0
C1019 C 0.5267 0.78964 0.94918 0.0
C1020 C 0.53904 0.83019 0.94081 0.0
C1021 C 0.53703 0.84485 0.89522 0.0
C1022 C 0.50345 0.71895 0.918 0.0
C1023 C 0.55125 0.85982 0.98008 0.0
H1024 H 0.46182 0.78796 0.0719 0.0
H1025 H 0.56494 0.74205 0.0996 0.0
H1026 H 0.46854 0.83722 0.96816 0.0
H1027 H 0.45329 0.78587 0.95135 0.0
H1028 H 0.43761 0.81203 0.99906 0.0
H1029 H 0.59737 0.72764 0.03885 0.0
H1030 H 0.5774 0.7316 0.9795 0.0
H1031 H 0.5971 0.77673 1.00846 0.0
H1032 H 0.50167 0.75995 0.83649 0.0
H1033 H 0.54438 0.87696 0.88934 0.0
H1034 H 0.47638 0.71987 0.92444 0.0
H1035 H 0.51878 0.70407 0.94842 0.0
H1036 H 0.50488 0.69909 0.88699 0.0
H1037 H 0.52927 0.86895 0.99798 0.0
H1038 H 0.56286 0.88877 0.96791 0.0
H1039 H 0.57041 0.84425 1.00591 0.0
C1040 C 0.54224 0.78748 0.57622 0.0
C1041 C 0.51183 0.77523 0.59248 0.0
C1042 C 0.54688 0.78139 0.52961 0.0
C1043 C 0.52108 0.76106 0.4988 0.0
C1044 C 0.49048 0.74827 0.51528 0.0
C1045 C 0.48602 0.75615 0.56156 0.0
C1046 C 0.57908 0.79739 0.51307 0.0
C1047 C 0.46243 0.72599 0.48403 0.0
C1048 C 0.51108 0.76219 0.36664 0.0
C1049 C 0.52364 0.7224 0.35737 0.0
C1050 C 0.51271 0.77704 0.41254 0.0
C1051 C 0.52644 0.75097 0.45002 0.0
C1052 C 0.54168 0.71229 0.44038 0.0
C1053 C 0.54034 0.69876 0.39432 0.0
C1054 C 0.49696 0.81904 0.42071 0.0
C1055 C 0.5564 0.68314 0.47879 0.0
H1056 H 0.56197 0.80324 0.5996 0.0
H1057 H 0.46234 0.747 0.57376 0.0
H1058 H 0.5938 0.77083 0.50112 0.0
H1059 H 0.57233 0.81859 0.48306 0.0
H1060 H 0.59581 0.81467 0.54055 0.0
H1061 H 0.44061 0.71713 0.50237 0.0
H1062 H 0.45269 0.74646 0.45443 0.0
H1063 H 0.47275 0.69715 0.46967 0.0
H1064 H 0.4972 0.78007 0.33868 0.0
H1065 H 0.54991 0.6678 0.38743 0.0
H1066 H 0.50979 0.83422 0.4527 0.0
H1067 H 0.46958 0.81456 0.42448 0.0
H1068 H 0.49825 0.84045 0.39103 0.0
H1069 H 0.57423 0.70022 0.50508 0.0
H1070 H 0.57029 0.65627 0.46574 0.0
H1071 H 0.53534 0.67063 0.49641 0.0
C1072 C 0.98503 0.73824 0.64676 0.0
C1073 C 0.01579 0.72567 0.6729 0.0
C1074 C 0.98473 0.75456 0.60179 0.0
C1075 C 0.01571 0.75654 0.58216 0.0
C1076 C 0.04692 0.74543 0.6095 0.0
C1077 C 0.04656 0.73056 0.6546 0.0
C1078 C 0.9511 0.76764 0.57453 0.0
C1079 C 0.08051 0.74639 0.59008 0.0
C1080 C 0.01451 0.74592 0.45157 0.0
C1081 C 0.0237 0.78644 0.43963 0.0
C1082 C 1.01115 0.73591 0.49776 0.0
C1083 C 0.01573 0.7676 0.53238 0.0
C1084 C 0.02339 0.80903 0.51986 0.0
C1085 C 0.02791 0.81772 0.47394 0.0
C1086 C 1.00385 0.6911 0.5098 0.0
C1087 C 0.02708 0.84414 0.55504 0.0
H1088 H 0.96117 0.73359 0.66063 0.0
H1089 H 0.07022 0.71985 0.67459 0.0
H1090 H 0.95386 0.79802 0.55693 0.0
H1091 H 0.94299 0.74393 0.54736 0.0
H1092 H 0.93057 0.77065 0.59686 0.0
H1093 H 0.10261 0.738 0.61635 0.0
H1094 H 0.07949 0.72398 0.56077 0.0
H1095 H 0.08507 0.77802 0.57642 0.0
H1096 H 1.01098 0.72182 0.42509 0.0
H1097 H 0.03429 0.84938 0.46467 0.0
H1098 H 0.98041 0.68959 0.52681 0.0
H1099 H 0.02532 0.67878 0.53476 0.0
H1100 H 1.00037 0.67035 0.47888 0.0
H1101 H 1.00366 0.84624 0.57211 0.0
H1102 H 0.03145 0.875 0.53923 0.0
H1103 H 0.04883 0.83764 0.58247 0.0
C1104 C 0.47383 0.31791 0.64482 0.0
C1105 C 0.5041 0.31022 0.67477 0.0
C1106 C 0.4696 0.30306 0.59892 0.0
C1107 C 0.49694 0.2817 0.58212 0.0
C1108 C 0.52666 0.27154 0.61332 0.0
C1109 C 0.52965 0.2855 0.65946 0.0
C1110 C 0.4369 0.31303 0.56756 0.0
C1111 C 0.55676 0.24955 0.59702 0.0
C1112 C 0.48933 0.22654 0.4651 0.0
C1113 C 0.5015 0.25737 0.43728 0.0
C1114 C 0.48601 0.23461 0.51168 0.0
C1115 C 0.49624 0.27403 0.53135 0.0
C1116 C 0.50793 0.30556 0.50291 0.0
C1117 C 0.51007 0.29696 0.45602 0.0
C1118 C 0.47253 0.20052 0.54014 0.0
C1119 C 0.51977 0.34774 0.52256 0.0
H1120 H 0.45436 0.3378 0.65643 0.0
H1121 H 0.55347 0.28065 0.68228 0.0
H1122 H 0.44152 0.3391 0.5441 0.0
H1123 H 0.42817 0.28552 0.54571 0.0
H1124 H 0.41609 0.32258 0.58749 0.0
H1125 H 0.57663 0.24074 0.6262 0.0
H1126 H 0.54829 0.22084 0.57721 0.0
H1127 H 0.5686 0.27058 0.57343 0.0
H1128 H 0.48301 0.19574 0.45054 0.0
H1129 H 0.51999 0.32048 0.43461 0.0
H1130 H 0.45222 0.21316 0.55912 0.0
H1131 H 0.49344 0.18877 0.56631 0.0
H1132 H 0.46196 0.1736 0.5185 0.0
H1133 H 0.499 0.36314 0.53843 0.0
H1134 H 0.5277 0.36899 0.49585 0.0
H1135 H 0.54177 0.34348 0.55029 0.0
C1136 C 0.98612 0.28831 0.36278 0.0
C1137 C 0.01591 0.30347 0.3475 0.0
C1138 C 0.98668 0.27305 0.40797 0.0
C1139 C 0.01806 0.27193 0.4382 0.0
C1140 C 0.04879 0.28334 0.42122 0.0
C1141 C 0.04724 0.29999 0.37631 0.0
C1142 C 0.95318 0.26211 0.42461 0.0
C1143 C 0.08298 0.28071 0.45146 0.0
C1144 C 0.01218 0.28858 0.56634 0.0
C1145 C 1.01072 0.2473 0.58195 0.0
C1146 C 0.01506 0.297 0.51968 0.0
C1147 C 0.01792 0.26328 0.4885 0.0
C1148 C 0.01826 0.22153 0.50498 0.0
C1149 C 0.0139 0.21406 0.55124 0.0
C1150 C 0.01362 0.34195 0.50334 0.0
C1151 C 0.02257 0.1847 0.47368 0.0
H1152 H 0.96178 0.29215 0.34082 0.0
H1153 H 0.07016 0.31254 0.36474 0.0
H1154 H 0.95478 0.23094 0.4415 0.0
H1155 H 0.9476 0.28546 0.45084 0.0
H1156 H 0.93143 0.26183 0.396 0.0
H1157 H 0.10461 0.28293 0.43088 0.0
H1158 H 0.08532 0.30681 0.47689 0.0
H1159 H 0.08522 0.25087 0.47118 0.0
H1160 H 1.00961 0.31418 0.59013 0.0
H1161 H 0.01308 0.18204 0.56357 0.0
H1162 H 0.99148 0.34622 0.47582 0.0
H1163 H 0.03708 0.34976 0.4881 0.0
H1164 H 1.01115 0.36448 0.53178 0.0
H1165 H 0.99884 0.18018 0.44898 0.0
H1166 H 0.02799 0.15514 0.49348 0.0
H1167 H 0.04373 0.1906 0.45308 0.0
loop_
_geom_bond_atom_site_label_1
_geom_bond_atom_site_label_2
_geom_bond_distance
_geom_bond_site_symmetry_2
_ccdc_geom_bond_type
Zn0 N4 2.017 1_655 S
Zn0 O8 2.019 . S
Zn0 N10 2.119 . S
Zn0 O18 1.975 1_655 S
C1 N2 1.334 . S
C1 N5 1.336 . S
N2 C1 1.334 . S
N2 C3 1.334 1_455 S
C3 N2 1.334 1_655 S
C3 N4 1.329 1_655 S
N4 Zn0 2.017 1_455 S
N4 C3 1.329 1_455 S
N4 N5 1.363 . S
N5 C1 1.336 . S
N5 N4 1.363 . S
N5 Zn9 2.020 . S
C6 O7 1.244 1_455 S
C6 O30 1.257 . S
O7 C6 1.244 1_655 S
O8 Zn0 2.019 . S
O8 C28 1.257 1_655 S
Zn9 N5 2.020 . S
Zn9 O16 1.975 . S
Zn9 N25 2.119 . S
Zn9 O30 2.019 . S
N10 Zn0 2.119 . S
N10 C12 1.334 . S
N10 C13 1.328 . S
C11 C12 1.391 . S
C11 N14 1.329 . S
C11 H32 0.930 . S
C12 N10 1.334 . S
C12 C11 1.391 . S
C12 H19 0.930 . S
C13 N10 1.328 . S
C13 C15 1.392 . S
C13 H20 0.930 . S
N14 C11 1.329 . S
N14 C15 1.331 . S
C15 C13 1.392 . S
C15 N14 1.331 . S
O16 Zn9 1.975 . S
O16 C17 1.252 . S
C17 O16 1.252 . S
C17 O18 1.252 . S
O18 Zn0 1.975 1_455 S
O18 C17 1.252 . S
H19 C12 0.930 . S
H20 C13 0.930 . S
C21 C22 1.392 . S
C21 N25 1.328 . S
C21 H27 0.930 . S
C22 C21 1.392 . S
C22 N26 1.331 . S
C23 C24 1.391 . S
C23 N26 1.329 . S
C23 H33 0.930 . S
C24 C23 1.391 . S
C24 N25 1.334 . S
C24 H31 0.930 . S
N25 Zn9 2.119 . S
N25 C21 1.328 . S
N25 C24 1.334 . S
N26 C22 1.331 . S
N26 C23 1.329 . S
H27 C21 0.930 . S
C28 O8 1.257 1_455 S
C28 O29 1.244 . S
O29 C28 1.244 . S
O30 C6 1.257 . S
O30 Zn9 2.019 . S
H31 C24 0.930 . S
H32 C11 0.930 . S
H33 C23 0.930 . S
Zn34 N38 2.020 . S
Zn34 O42 2.019 . S
Zn34 N44 2.119 . S
Zn34 O52 1.975 . S
C35 N36 1.334 . S
C35 N39 1.336 . S
N36 C35 1.334 . S
N36 C37 1.334 . S
C37 N36 1.334 . S
C37 N38 1.336 . S
N38 Zn34 2.020 . S
N38 C37 1.336 . S
N38 N39 1.354 . S
N39 C35 1.336 . S
N39 N38 1.354 . S
N39 Zn43 2.020 . S
C40 O41 1.244 . S
C40 O64 1.257 . S
O41 C40 1.244 . S
O42 Zn34 2.019 . S
O42 C62 1.257 . S
Zn43 N39 2.020 . S
Zn43 O50 1.975 . S
Zn43 N59 2.119 . S
Zn43 O64 2.019 . S
N44 Zn34 2.119 . S
N44 C46 1.334 . S
N44 C47 1.328 . S
C45 C46 1.391 . S
C45 N48 1.329 . S
C45 H66 0.930 . S
C46 N44 1.334 . S
C46 C45 1.391 . S
C46 H53 0.930 . S
C47 N44 1.328 . S
C47 C49 1.392 . S
C47 H54 0.930 . S
N48 C45 1.329 . S
N48 C49 1.331 . S
C49 C47 1.392 . S
C49 N48 1.331 . S
O50 Zn43 1.975 . S
O50 C51 1.252 . S
C51 O50 1.252 . S
C51 O52 1.252 . S
O52 Zn34 1.975 . S
O52 C51 1.252 . S
H53 C46 0.930 . S
H54 C47 0.930 . S
C55 C56 1.392 . S
C55 N59 1.328 . S
C55 H61 0.930 . S
C56 C55 1.392 . S
C56 N60 1.331 . S
C57 C58 1.391 . S
C57 N60 1.329 . S
C57 H67 0.930 . S
C58 C57 1.391 . S
C58 N59 1.334 . S
C58 H65 0.930 . S
N59 Zn43 2.119 . S
N59 C55 1.328 . S
N59 C58 1.334 . S
N60 C56 1.331 . S
N60 C57 1.329 . S
H61 C55 0.930 . S
C62 O42 1.257 . S
C62 O63 1.244 . S
O63 C62 1.244 . S
O64 C40 1.257 . S
O64 Zn43 2.019 . S
H65 C58 0.930 . S
H66 C45 0.930 . S
H67 C57 0.930 . S
Zn68 N72 2.020 . S
Zn68 O76 2.019 . S
Zn68 N78 2.119 . S
Zn68 O86 1.975 . S
C69 N70 1.334 1_455 S
C69 N73 1.329 1_455 S
N70 C69 1.334 1_655 S
N70 C71 1.334 . S
C71 N70 1.334 . S
C71 N72 1.336 . S
N72 Zn68 2.020 . S
N72 C71 1.336 . S
N72 N73 1.363 . S
N73 C69 1.329 1_655 S
N73 N72 1.363 . S
N73 Zn77 2.017 1_655 S
C74 O75 1.244 . S
C74 O98 1.257 1_655 S
O75 C74 1.244 . S
O76 Zn68 2.019 . S
O76 C96 1.257 . S
Zn77 N73 2.017 1_455 S
Zn77 O84 1.975 1_455 S
Zn77 N93 2.119 . S
Zn77 O98 2.019 . S
N78 Zn68 2.119 . S
N78 C80 1.334 . S
N78 C81 1.328 . S
C79 C80 1.391 . S
C79 N82 1.329 . S
C79 H100 0.930 . S
C80 N78 1.334 . S
C80 C79 1.391 . S
C80 H87 0.930 . S
C81 N78 1.328 . S
C81 C83 1.392 . S
C81 H88 0.930 . S
N82 C79 1.329 . S
N82 C83 1.331 . S
C83 C81 1.392 . S
C83 N82 1.331 . S
O84 Zn77 1.975 1_655 S
O84 C85 1.252 . S
C85 O84 1.252 . S
C85 O86 1.252 . S
O86 Zn68 1.975 . S
O86 C85 1.252 . S
H87 C80 0.930 . S
H88 C81 0.930 . S
C89 C90 1.392 . S
C89 N93 1.328 . S
C89 H95 0.930 . S
C90 C89 1.392 . S
C90 N94 1.331 . S
C91 C92 1.391 . S
C91 N94 1.329 . S
C91 H101 0.930 . S
C92 C91 1.391 . S
C92 N93 1.334 . S
C92 H99 0.930 . S
N93 Zn77 2.119 . S
N93 C89 1.328 . S
N93 C92 1.334 . S
N94 C90 1.331 . S
N94 C91 1.329 . S
H95 C89 0.930 . S
C96 O76 1.257 . S
C96 O97 1.244 1_655 S
O97 C96 1.244 1_455 S
O98 C74 1.257 1_455 S
O98 Zn77 2.019 . S
H99 C92 0.930 . S
H100 C79 0.930 . S
H101 C91 0.930 . S
Zn102 N106 2.020 . S
Zn102 O110 2.019 . S
Zn102 N112 2.119 . S
Zn102 O120 1.975 . S
C103 N104 1.334 . S
C103 N107 1.336 . S
N104 C103 1.334 . S
N104 C105 1.334 . S
C105 N104 1.334 . S
C105 N106 1.336 . S
N106 Zn102 2.020 . S
N106 C105 1.336 . S
N106 N107 1.354 . S
N107 C103 1.336 . S
N107 N106 1.354 . S
N107 Zn111 2.020 . S
C108 O109 1.244 . S
C108 O132 1.257 . S
O109 C108 1.244 . S
O110 Zn102 2.019 . S
O110 C130 1.257 . S
Zn111 N107 2.020 . S
Zn111 O118 1.975 . S
Zn111 N127 2.119 . S
Zn111 O132 2.019 . S
N112 Zn102 2.119 . S
N112 C114 1.334 . S
N112 C115 1.328 . S
C113 C114 1.391 . S
C113 N116 1.329 . S
C113 H134 0.930 . S
C114 N112 1.334 . S
C114 C113 1.391 . S
C114 H121 0.930 . S
C115 N112 1.328 . S
C115 C117 1.392 . S
C115 H122 0.930 . S
N116 C113 1.329 . S
N116 C117 1.331 . S
C117 C115 1.392 . S
C117 N116 1.331 . S
O118 Zn111 1.975 . S
O118 C119 1.252 . S
C119 O118 1.252 . S
C119 O120 1.252 . S
O120 Zn102 1.975 . S
O120 C119 1.252 . S
H121 C114 0.930 . S
H122 C115 0.930 . S
C123 C124 1.392 . S
C123 N127 1.328 . S
C123 H129 0.930 . S
C124 C123 1.392 . S
C124 N128 1.331 . S
C125 C126 1.391 . S
C125 N128 1.329 . S
C125 H135 0.930 . S
C126 C125 1.391 . S
C126 N127 1.334 . S
C126 H133 0.930 . S
N127 Zn111 2.119 . S
N127 C123 1.328 . S
N127 C126 1.334 . S
N128 C124 1.331 . S
N128 C125 1.329 . S
H129 C123 0.930 . S
C130 O110 1.257 . S
C130 O131 1.244 . S
O131 C130 1.244 . S
O132 C108 1.257 . S
O132 Zn111 2.019 . S
H133 C126 0.930 . S
H134 C113 0.930 . S
H135 C125 0.930 . S
Zn136 N140 2.020 . S
Zn136 O144 2.019 . S
Zn136 N146 2.119 . S
Zn136 O154 1.975 . S
C137 N138 1.334 . S
C137 N141 1.336 . S
N138 C137 1.334 . S
N138 C139 1.334 . S
C139 N138 1.334 . S
C139 N140 1.336 . S
N140 Zn136 2.020 . S
N140 C139 1.336 . S
N140 N141 1.354 . S
N141 C137 1.336 . S
N141 N140 1.354 . S
N141 Zn145 2.020 . S
C142 O143 1.244 . S
C142 O166 1.257 . S
O143 C142 1.244 . S
O144 Zn136 2.019 . S
O144 C164 1.257 . S
Zn145 N141 2.020 . S
Zn145 O152 1.975 . S
Zn145 N161 2.119 . S
Zn145 O166 2.019 . S
N146 Zn136 2.119 . S
N146 C148 1.334 . S
N146 C149 1.328 . S
C147 C148 1.391 . S
C147 N150 1.329 . S
C147 H168 0.930 . S
C148 N146 1.334 . S
C148 C147 1.391 . S
C148 H155 0.930 . S
C149 N146 1.328 . S
C149 C151 1.392 . S
C149 H156 0.930 . S
N150 C147 1.329 . S
N150 C151 1.331 . S
C151 C149 1.392 . S
C151 N150 1.331 . S
O152 Zn145 1.975 . S
O152 C153 1.252 . S
C153 O152 1.252 . S
C153 O154 1.252 . S
O154 Zn136 1.975 . S
O154 C153 1.252 . S
H155 C148 0.930 . S
H156 C149 0.930 . S
C157 C158 1.392 . S
C157 N161 1.328 . S
C157 H163 0.930 . S
C158 C157 1.392 . S
C158 N162 1.331 . S
C159 C160 1.391 . S
C159 N162 1.329 . S
C159 H169 0.930 . S
C160 C159 1.391 . S
C160 N161 1.334 . S
C160 H167 0.930 . S
N161 Zn145 2.119 . S
N161 C157 1.328 . S
N161 C160 1.334 . S
N162 C158 1.331 . S
N162 C159 1.329 . S
H163 C157 0.930 . S
C164 O144 1.257 . S
C164 O165 1.244 . S
O165 C164 1.244 . S
O166 C142 1.257 . S
O166 Zn145 2.019 . S
H167 C160 0.930 . S
H168 C147 0.930 . S
H169 C159 0.930 . S
Zn170 N174 2.020 . S
Zn170 O178 2.019 . S
Zn170 N180 2.119 . S
Zn170 O188 1.975 . S
C171 N172 1.334 1_455 S
C171 N175 1.329 1_455 S
N172 C171 1.334 1_655 S
N172 C173 1.334 . S
C173 N172 1.334 . S
C173 N174 1.336 . S
N174 Zn170 2.020 . S
N174 C173 1.336 . S
N174 N175 1.363 . S
N175 C171 1.329 1_655 S
N175 N174 1.363 . S
N175 Zn179 2.017 1_655 S
C176 O177 1.244 . S
C176 O200 1.257 1_655 S
O177 C176 1.244 . S
O178 Zn170 2.019 . S
O178 C198 1.257 . S
Zn179 N175 2.017 1_455 S
Zn179 O186 1.975 1_455 S
Zn179 N195 2.119 . S
Zn179 O200 2.019 . S
N180 Zn170 2.119 . S
N180 C182 1.334 . S
N180 C183 1.328 . S
C181 C182 1.391 . S
C181 N184 1.329 . S
C181 H202 0.930 . S
C182 N180 1.334 . S
C182 C181 1.391 . S
C182 H189 0.930 . S
C183 N180 1.328 . S
C183 C185 1.392 . S
C183 H190 0.930 . S
N184 C181 1.329 . S
N184 C185 1.331 . S
C185 C183 1.392 . S
C185 N184 1.331 . S
O186 Zn179 1.975 1_655 S
O186 C187 1.252 . S
C187 O186 1.252 . S
C187 O188 1.252 . S
O188 Zn170 1.975 . S
O188 C187 1.252 . S
H189 C182 0.930 . S
H190 C183 0.930 . S
C191 C192 1.392 . S
C191 N195 1.328 . S
C191 H197 0.930 . S
C192 C191 1.392 . S
C192 N196 1.331 . S
C193 C194 1.391 . S
C193 N196 1.329 . S
C193 H203 0.930 . S
C194 C193 1.391 . S
C194 N195 1.334 . S
C194 H201 0.930 . S
N195 Zn179 2.119 . S
N195 C191 1.328 . S
N195 C194 1.334 . S
N196 C192 1.331 . S
N196 C193 1.329 . S
H197 C191 0.930 . S
C198 O178 1.257 . S
C198 O199 1.244 1_655 S
O199 C198 1.244 1_455 S
O200 C176 1.257 1_455 S
O200 Zn179 2.019 . S
H201 C194 0.930 . S
H202 C181 0.930 . S
H203 C193 0.930 . S
Zn204 N208 2.020 . S
Zn204 O212 2.019 . S
Zn204 N214 2.119 . S
Zn204 O222 1.975 . S
C205 N206 1.334 . S
C205 N209 1.336 . S
N206 C205 1.334 . S
N206 C207 1.334 . S
C207 N206 1.334 . S
C207 N208 1.336 . S
N208 Zn204 2.020 . S
N208 C207 1.336 . S
N208 N209 1.354 . S
N209 C205 1.336 . S
N209 N208 1.354 . S
N209 Zn213 2.020 . S
C210 O211 1.244 . S
C210 O234 1.257 . S
O211 C210 1.244 . S
O212 Zn204 2.019 . S
O212 C232 1.257 . S
Zn213 N209 2.020 . S
Zn213 O220 1.975 . S
Zn213 N229 2.119 . S
Zn213 O234 2.019 . S
N214 Zn204 2.119 . S
N214 C216 1.334 . S
N214 C217 1.328 . S
C215 C216 1.391 . S
C215 N218 1.329 . S
C215 H236 0.930 . S
C216 N214 1.334 . S
C216 C215 1.391 . S
C216 H223 0.930 . S
C217 N214 1.328 . S
C217 C219 1.392 . S
C217 H224 0.930 . S
N218 C215 1.329 . S
N218 C219 1.331 . S
C219 C217 1.392 . S
C219 N218 1.331 . S
O220 Zn213 1.975 . S
O220 C221 1.252 . S
C221 O220 1.252 . S
C221 O222 1.252 . S
O222 Zn204 1.975 . S
O222 C221 1.252 . S
H223 C216 0.930 . S
H224 C217 0.930 . S
C225 C226 1.392 . S
C225 N229 1.328 . S
C225 H231 0.930 . S
C226 C225 1.392 . S
C226 N230 1.331 . S
C227 C228 1.391 . S
C227 N230 1.329 . S
C227 H237 0.930 . S
C228 C227 1.391 . S
C228 N229 1.334 . S
C228 H235 0.930 . S
N229 Zn213 2.119 . S
N229 C225 1.328 . S
N229 C228 1.334 . S
N230 C226 1.331 . S
N230 C227 1.329 . S
H231 C225 0.930 . S
C232 O212 1.257 . S
C232 O233 1.244 . S
O233 C232 1.244 . S
O234 C210 1.257 . S
O234 Zn213 2.019 . S
H235 C228 0.930 . S
H236 C215 0.930 . S
H237 C227 0.930 . S
Zn238 N242 2.020 . S
Zn238 O246 2.019 . S
Zn238 N248 2.119 . S
Zn238 O256 1.975 . S
C239 N240 1.334 1_655 S
C239 N243 1.329 1_655 S
N240 C239 1.334 1_455 S
N240 C241 1.334 . S
C241 N240 1.334 . S
C241 N242 1.336 . S
N242 Zn238 2.020 . S
N242 C241 1.336 . S
N242 N243 1.363 . S
N243 C239 1.329 1_455 S
N243 N242 1.363 . S
N243 Zn247 2.017 1_455 S
C244 O245 1.244 . S
C244 O268 1.257 1_455 S
O245 C244 1.244 . S
O246 Zn238 2.019 . S
O246 C266 1.257 . S
Zn247 N243 2.017 1_655 S
Zn247 O254 1.975 1_655 S
Zn247 N263 2.119 . S
Zn247 O268 2.019 . S
N248 Zn238 2.119 . S
N248 C250 1.334 . S
N248 C251 1.328 . S
C249 C250 1.391 . S
C249 N252 1.329 . S
C249 H270 0.930 . S
C250 N248 1.334 . S
C250 C249 1.391 . S
C250 H257 0.930 . S
C251 N248 1.328 . S
C251 C253 1.392 . S
C251 H258 0.930 . S
N252 C249 1.329 . S
N252 C253 1.331 . S
C253 C251 1.392 . S
C253 N252 1.331 . S
O254 Zn247 1.975 1_455 S
O254 C255 1.252 . S
C255 O254 1.252 . S
C255 O256 1.252 . S
O256 Zn238 1.975 . S
O256 C255 1.252 . S
H257 C250 0.930 . S
H258 C251 0.930 . S
C259 C260 1.392 . S
C259 N263 1.328 . S
C259 H265 0.930 . S
C260 C259 1.392 . S
C260 N264 1.331 . S
C261 C262 1.391 . S
C261 N264 1.329 . S
C261 H271 0.930 . S
C262 C261 1.391 . S
C262 N263 1.334 . S
C262 H269 0.930 . S
N263 Zn247 2.119 . S
N263 C259 1.328 . S
N263 C262 1.334 . S
N264 C260 1.331 . S
N264 C261 1.329 . S
H265 C259 0.930 . S
C266 O246 1.257 . S
C266 O267 1.244 1_455 S
O267 C266 1.244 1_655 S
O268 C244 1.257 1_655 S
O268 Zn247 2.019 . S
H269 C262 0.930 . S
H270 C249 0.930 . S
H271 C261 0.930 . S
C272 C273 1.391 1_655 S
C272 C274 1.394 . S
C272 H288 0.931 . S
C273 C272 1.391 1_455 S
C273 C277 1.376 . S
C274 C272 1.394 . S
C274 C275 1.369 1_665 S
C274 C278 1.531 1_565 S
C275 C274 1.369 1_445 S
C275 C276 1.410 . S
C275 C283 1.503 . S
C276 C275 1.410 . S
C276 C277 1.392 1_545 S
C276 C279 1.511 . S
C277 C273 1.376 . S
C277 C276 1.392 1_565 S
C277 H289 0.929 . S
C278 C274 1.531 1_545 S
C278 H290 0.960 . S
C278 H291 0.962 . S
C278 H292 0.960 1_545 S
C279 C276 1.511 . S
C279 H293 0.961 . S
C279 H294 0.961 . S
C279 H295 0.961 . S
C280 C281 1.370 . S
C280 C282 1.363 . S
C280 H296 0.931 . S
C281 C280 1.370 . S
C281 C285 1.408 1_455 S
C282 C280 1.363 . S
C282 C283 1.370 . S
C282 C286 1.524 . S
C283 C275 1.503 . S
C283 C282 1.370 . S
C283 C284 1.403 1_455 S
C284 C283 1.403 1_655 S
C284 C285 1.404 . S
C284 C287 1.539 . S
C285 C281 1.408 1_655 S
C285 C284 1.404 . S
C285 H297 0.930 . S
C286 C282 1.524 . S
C286 H298 0.956 . S
C286 H299 0.961 . S
C286 H300 0.961 . S
C287 C284 1.539 . S
C287 H301 0.958 . S
C287 H302 0.961 . S
C287 H303 0.960 . S
H288 C272 0.931 . S
H289 C277 0.929 . S
H290 C278 0.960 . S
H291 C278 0.962 . S
H292 C278 0.960 1_565 S
H293 C279 0.961 . S
H294 C279 0.961 . S
H295 C279 0.961 . S
H296 C280 0.931 . S
H297 C285 0.930 . S
H298 C286 0.956 . S
H299 C286 0.961 . S
H300 C286 0.961 . S
H301 C287 0.958 . S
H302 C287 0.961 . S
H303 C287 0.960 . S
C304 C305 1.391 . S
C304 C306 1.394 1_565 S
C304 H320 0.931 . S
C305 C304 1.391 . S
C305 C309 1.376 . S
C306 C304 1.394 1_545 S
C306 C307 1.369 . S
C306 C310 1.531 . S
C307 C306 1.369 . S
C307 C308 1.410 1_545 S
C307 C315 1.503 . S
C308 C307 1.410 1_565 S
C308 C309 1.392 . S
C308 C311 1.511 . S
C309 C305 1.376 . S
C309 C308 1.392 . S
C309 H321 0.929 . S
C310 C306 1.531 . S
C310 H322 0.960 . S
C310 H323 0.962 . S
C310 H324 0.960 . S
C311 C308 1.511 . S
C311 H325 0.961 . S
C311 H326 0.961 1_565 S
C311 H327 0.960 1_565 S
C312 C313 1.370 . S
C312 C314 1.363 . S
C312 H328 0.931 . S
C313 C312 1.370 . S
C313 C317 1.408 . S
C314 C312 1.363 . S
C314 C315 1.370 . S
C314 C318 1.524 . S
C315 C307 1.503 . S
C315 C314 1.370 . S
C315 C316 1.403 . S
C316 C315 1.403 . S
C316 C317 1.404 . S
C316 C319 1.539 . S
C317 C313 1.408 . S
C317 C316 1.404 . S
C317 H329 0.930 . S
C318 C314 1.524 . S
C318 H330 0.956 . S
C318 H331 0.961 . S
C318 H332 0.961 . S
C319 C316 1.539 . S
C319 H333 0.958 . S
C319 H334 0.961 . S
C319 H335 0.960 . S
H320 C304 0.931 . S
H321 C309 0.929 . S
H322 C310 0.960 . S
H323 C310 0.962 . S
H324 C310 0.960 . S
H325 C311 0.961 . S
H326 C311 0.961 1_545 S
H327 C311 0.960 1_545 S
H328 C312 0.931 . S
H329 C317 0.930 . S
H330 C318 0.956 . S
H331 C318 0.961 . S
H332 C318 0.961 . S
H333 C319 0.958 . S
H334 C319 0.961 . S
H335 C319 0.960 . S
C336 C337 1.391 . S
C336 C338 1.394 . S
C336 H352 0.931 . S
C337 C336 1.391 . S
C337 C341 1.376 1_655 S
C338 C336 1.394 . S
C338 C339 1.369 1_545 S
C338 C342 1.531 1_545 S
C339 C338 1.369 1_565 S
C339 C340 1.410 1_665 S
C339 C347 1.503 . S
C340 C339 1.410 1_445 S
C340 C341 1.392 . S
C340 C343 1.511 1_545 S
C341 C337 1.376 1_455 S
C341 C340 1.392 . S
C341 H353 0.929 . S
C342 C338 1.531 1_565 S
C342 H354 0.960 . S
C342 H355 0.962 . S
C342 H356 0.960 . S
C343 C340 1.511 1_565 S
C343 H357 0.961 1_565 S
C343 H358 0.961 . S
C343 H359 0.961 . S
C344 C345 1.370 . S
C344 C346 1.363 . S
C344 H360 0.931 . S
C345 C344 1.370 . S
C345 C349 1.408 . S
C346 C344 1.363 . S
C346 C347 1.370 . S
C346 C350 1.524 . S
C347 C339 1.503 . S
C347 C346 1.370 . S
C347 C348 1.403 . S
C348 C347 1.403 . S
C348 C349 1.404 . S
C348 C351 1.539 1_655 S
C349 C345 1.408 . S
C349 C348 1.404 . S
C349 H361 0.930 1_655 S
C350 C346 1.524 . S
C350 H362 0.956 . S
C350 H363 0.961 . S
C350 H364 0.961 . S
C351 C348 1.539 1_455 S
C351 H365 0.958 1_455 S
C351 H366 0.961 . S
C351 H367 0.960 . S
H352 C336 0.931 . S
H353 C341 0.929 . S
H354 C342 0.960 . S
H355 C342 0.962 . S
H356 C342 0.960 . S
H357 C343 0.961 1_545 S
H358 C343 0.961 . S
H359 C343 0.961 . S
H360 C344 0.931 . S
H361 C349 0.930 1_455 S
H362 C350 0.956 . S
H363 C350 0.961 . S
H364 C350 0.961 . S
H365 C351 0.958 1_655 S
H366 C351 0.961 . S
H367 C351 0.960 . S
C368 C369 1.391 . S
C368 C370 1.394 . S
C368 H384 0.931 . S
C369 C368 1.391 . S
C369 C373 1.376 . S
C370 C368 1.394 . S
C370 C371 1.369 . S
C370 C374 1.531 . S
C371 C370 1.369 . S
C371 C372 1.410 . S
C371 C379 1.503 . S
C372 C371 1.410 . S
C372 C373 1.392 . S
C372 C375 1.511 . S
C373 C369 1.376 . S
C373 C372 1.392 . S
C373 H385 0.929 . S
C374 C370 1.531 . S
C374 H386 0.960 . S
C374 H387 0.962 . S
C374 H388 0.960 . S
C375 C372 1.511 . S
C375 H389 0.961 . S
C375 H390 0.961 . S
C375 H391 0.961 . S
C376 C377 1.370 . S
C376 C378 1.363 1_545 S
C376 H392 0.931 . S
C377 C376 1.370 . S
C377 C381 1.408 . S
C378 C376 1.363 1_565 S
C378 C379 1.370 . S
C378 C382 1.524 . S
C379 C371 1.503 . S
C379 C378 1.370 . S
C379 C380 1.403 1_565 S
C380 C379 1.403 1_545 S
C380 C381 1.404 . S
C380 C383 1.539 . S
C381 C377 1.408 . S
C381 C380 1.404 . S
C381 H393 0.930 . S
C382 C378 1.524 . S
C382 H394 0.956 . S
C382 H395 0.961 . S
C382 H396 0.961 . S
C383 C380 1.539 . S
C383 H397 0.958 . S
C383 H398 0.961 . S
C383 H399 0.960 1_545 S
H384 C368 0.931 . S
H385 C373 0.929 . S
H386 C374 0.960 . S
H387 C374 0.962 . S
H388 C374 0.960 . S
H389 C375 0.961 . S
H390 C375 0.961 . S
H391 C375 0.961 . S
H392 C376 0.931 . S
H393 C381 0.930 . S
H394 C382 0.956 . S
H395 C382 0.961 . S
H396 C382 0.961 . S
H397 C383 0.958 . S
H398 C383 0.961 . S
H399 C383 0.960 1_565 S
C400 C401 1.391 . S
C400 C402 1.394 . S
C400 H416 0.931 . S
C401 C400 1.391 . S
C401 C405 1.376 . S
C402 C400 1.394 . S
C402 C403 1.369 . S
C402 C406 1.531 . S
C403 C402 1.369 . S
C403 C404 1.410 . S
C403 C411 1.503 . S
C404 C403 1.410 . S
C404 C405 1.392 . S
C404 C407 1.511 . S
C405 C401 1.376 . S
C405 C404 1.392 . S
C405 H417 0.929 . S
C406 C402 1.531 . S
C406 H418 0.960 . S
C406 H419 0.962 . S
C406 H420 0.960 . S
C407 C404 1.511 . S
C407 H421 0.961 . S
C407 H422 0.961 . S
C407 H423 0.961 . S
C408 C409 1.370 . S
C408 C410 1.363 . S
C408 H424 0.931 . S
C409 C408 1.370 . S
C409 C413 1.408 . S
C410 C408 1.363 . S
C410 C411 1.370 . S
C410 C414 1.524 . S
C411 C403 1.503 . S
C411 C410 1.370 . S
C411 C412 1.403 . S
C412 C411 1.403 . S
C412 C413 1.404 . S
C412 C415 1.539 . S
C413 C409 1.408 . S
C413 C412 1.404 . S
C413 H425 0.930 . S
C414 C410 1.524 . S
C414 H426 0.956 . S
C414 H427 0.961 . S
C414 H428 0.961 . S
C415 C412 1.539 . S
C415 H429 0.958 . S
C415 H430 0.961 . S
C415 H431 0.960 . S
H416 C400 0.931 . S
H417 C405 0.929 . S
H418 C406 0.960 . S
H419 C406 0.962 . S
H420 C406 0.960 . S
H421 C407 0.961 . S
H422 C407 0.961 . S
H423 C407 0.961 . S
H424 C408 0.931 . S
H425 C413 0.930 . S
H426 C414 0.956 . S
H427 C414 0.961 . S
H428 C414 0.961 . S
H429 C415 0.958 . S
H430 C415 0.961 . S
H431 C415 0.960 . S
C432 C433 1.391 . S
C432 C434 1.394 . S
C432 H448 0.931 . S
C433 C432 1.391 . S
C433 C437 1.376 1_655 S
C434 C432 1.394 . S
C434 C435 1.369 . S
C434 C438 1.531 . S
C435 C434 1.369 . S
C435 C436 1.410 1_655 S
C435 C443 1.503 . S
C436 C435 1.410 1_455 S
C436 C437 1.392 . S
C436 C439 1.511 . S
C437 C433 1.376 1_455 S
C437 C436 1.392 . S
C437 H449 0.929 . S
C438 C434 1.531 . S
C438 H450 0.960 . S
C438 H451 0.962 . S
C438 H452 0.960 . S
C439 C436 1.511 . S
C439 H453 0.961 . S
C439 H454 0.961 . S
C439 H455 0.961 . S
C440 C441 1.370 . S
C440 C442 1.363 . S
C440 H456 0.931 . S
C441 C440 1.370 . S
C441 C445 1.408 . S
C442 C440 1.363 . S
C442 C443 1.370 . S
C442 C446 1.524 . S
C443 C435 1.503 . S
C443 C442 1.370 . S
C443 C444 1.403 . S
C444 C443 1.403 . S
C444 C445 1.404 . S
C444 C447 1.539 . S
C445 C441 1.408 . S
C445 C444 1.404 . S
C445 H457 0.930 . S
C446 C442 1.524 . S
C446 H458 0.956 . S
C446 H459 0.961 1_655 S
C446 H460 0.961 . S
C447 C444 1.539 . S
C447 H461 0.958 . S
C447 H462 0.961 . S
C447 H463 0.960 . S
H448 C432 0.931 . S
H449 C437 0.929 . S
H450 C438 0.960 . S
H451 C438 0.962 . S
H452 C438 0.960 . S
H453 C439 0.961 . S
H454 C439 0.961 . S
H455 C439 0.961 . S
H456 C440 0.931 . S
H457 C445 0.930 . S
H458 C446 0.956 . S
H459 C446 0.961 1_455 S
H460 C446 0.961 . S
H461 C447 0.958 . S
H462 C447 0.961 . S
H463 C447 0.960 . S
C464 C465 1.391 . S
C464 C466 1.394 . S
C464 H480 0.931 . S
C465 C464 1.391 . S
C465 C469 1.376 . S
C466 C464 1.394 . S
C466 C467 1.369 . S
C466 C470 1.531 . S
C467 C466 1.369 . S
C467 C468 1.410 . S
C467 C475 1.503 . S
C468 C467 1.410 . S
C468 C469 1.392 . S
C468 C471 1.511 . S
C469 C465 1.376 . S
C469 C468 1.392 . S
C469 H481 0.929 . S
C470 C466 1.531 . S
C470 H482 0.960 . S
C470 H483 0.962 . S
C470 H484 0.960 . S
C471 C468 1.511 . S
C471 H485 0.961 . S
C471 H486 0.961 . S
C471 H487 0.961 . S
C472 C473 1.370 . S
C472 C474 1.363 . S
C472 H488 0.931 . S
C473 C472 1.370 . S
C473 C477 1.408 . S
C474 C472 1.363 . S
C474 C475 1.370 . S
C474 C478 1.524 . S
C475 C467 1.503 . S
C475 C474 1.370 . S
C475 C476 1.403 . S
C476 C475 1.403 . S
C476 C477 1.404 . S
C476 C479 1.539 . S
C477 C473 1.408 . S
C477 C476 1.404 . S
C477 H489 0.930 . S
C478 C474 1.524 . S
C478 H490 0.956 . S
C478 H491 0.961 . S
C478 H492 0.961 . S
C479 C476 1.539 . S
C479 H493 0.958 . S
C479 H494 0.961 . S
C479 H495 0.960 . S
H480 C464 0.931 . S
H481 C469 0.929 . S
H482 C470 0.960 . S
H483 C470 0.962 . S
H484 C470 0.960 . S
H485 C471 0.961 . S
H486 C471 0.961 . S
H487 C471 0.961 . S
H488 C472 0.931 . S
H489 C477 0.930 . S
H490 C478 0.956 . S
H491 C478 0.961 . S
H492 C478 0.961 . S
H493 C479 0.958 . S
H494 C479 0.961 . S
H495 C479 0.960 . S
C496 C497 1.391 1_655 S
C496 C498 1.394 . S
C496 H512 0.931 . S
C497 C496 1.391 1_455 S
C497 C501 1.376 . S
C498 C496 1.394 . S
C498 C499 1.369 1_655 S
C498 C502 1.531 . S
C499 C498 1.369 1_455 S
C499 C500 1.410 . S
C499 C507 1.503 . S
C500 C499 1.410 . S
C500 C501 1.392 . S
C500 C503 1.511 . S
C501 C497 1.376 . S
C501 C500 1.392 . S
C501 H513 0.929 . S
C502 C498 1.531 . S
C502 H514 0.960 . S
C502 H515 0.962 . S
C502 H516 0.960 . S
C503 C500 1.511 . S
C503 H517 0.961 . S
C503 H518 0.961 . S
C503 H519 0.961 . S
C504 C505 1.370 . S
C504 C506 1.363 . S
C504 H520 0.933 . S
C505 C504 1.370 . S
C505 C509 1.408 . S
C506 C504 1.363 . S
C506 C507 1.370 . S
C506 C510 1.525 . S
C507 C499 1.503 . S
C507 C506 1.370 . S
C507 C508 1.403 . S
C508 C507 1.403 . S
C508 C509 1.404 . S
C508 C511 1.539 . S
C509 C505 1.408 . S
C509 C508 1.404 . S
C509 H521 0.930 . S
C510 C506 1.525 . S
C510 H522 0.952 1_455 S
C510 H523 0.964 . S
C510 H524 0.961 1_455 S
C511 C508 1.539 . S
C511 H525 0.958 . S
C511 H526 0.961 . S
C511 H527 0.960 . S
H512 C496 0.931 . S
H513 C501 0.929 . S
H514 C502 0.960 . S
H515 C502 0.962 . S
H516 C502 0.960 . S
H517 C503 0.961 . S
H518 C503 0.961 . S
H519 C503 0.961 . S
H520 C504 0.933 . S
H521 C509 0.930 . S
H522 C510 0.952 1_655 S
H523 C510 0.964 . S
H524 C510 0.961 1_655 S
H525 C511 0.958 . S
H526 C511 0.961 . S
H527 C511 0.960 . S
C528 C529 1.391 1_655 S
C528 C530 1.394 . S
C528 H544 0.931 . S
C529 C528 1.391 1_455 S
C529 C533 1.376 . S
C530 C528 1.394 . S
C530 C531 1.369 1_655 S
C530 C534 1.531 . S
C531 C530 1.369 1_455 S
C531 C532 1.410 . S
C531 C539 1.503 1_454 S
C532 C531 1.410 . S
C532 C533 1.392 . S
C532 C535 1.511 . S
C533 C529 1.376 . S
C533 C532 1.392 . S
C533 H545 0.929 . S
C534 C530 1.531 . S
C534 H546 0.960 . S
C534 H547 0.962 . S
C534 H548 0.960 . S
C535 C532 1.511 . S
C535 H549 0.961 . S
C535 H550 0.961 1_554 S
C535 H551 0.961 . S
C536 C537 1.370 . S
C536 C538 1.363 . S
C536 H552 0.931 . S
C537 C536 1.370 . S
C537 C541 1.408 . S
C538 C536 1.363 . S
C538 C539 1.370 . S
C538 C542 1.524 . S
C539 C531 1.503 1_656 S
C539 C538 1.370 . S
C539 C540 1.403 1_655 S
C540 C539 1.403 1_455 S
C540 C541 1.404 1_455 S
C540 C543 1.539 1_556 S
C541 C537 1.408 . S
C541 C540 1.404 1_655 S
C541 H553 0.928 1_655 S
C542 C538 1.524 . S
C542 H554 0.956 . S
C542 H555 0.961 1_655 S
C542 H556 0.961 . S
C543 C540 1.539 1_554 S
C543 H557 0.958 1_455 S
C543 H558 0.961 . S
C543 H559 0.960 . S
H544 C528 0.931 . S
H545 C533 0.929 . S
H546 C534 0.960 . S
H547 C534 0.962 . S
H548 C534 0.960 . S
H549 C535 0.961 . S
H550 C535 0.961 1_556 S
H551 C535 0.961 . S
H552 C536 0.931 . S
H553 C541 0.928 1_455 S
H554 C542 0.956 . S
H555 C542 0.961 1_455 S
H556 C542 0.961 . S
H557 C543 0.958 1_655 S
H558 C543 0.961 . S
H559 C543 0.960 . S
C560 C561 1.391 . S
C560 C562 1.394 . S
C560 H576 0.931 . S
C561 C560 1.391 . S
C561 C565 1.376 . S
C562 C560 1.394 . S
C562 C563 1.369 . S
C562 C566 1.531 . S
C563 C562 1.369 . S
C563 C564 1.410 . S
C563 C571 1.503 1_554 S
C564 C563 1.410 . S
C564 C565 1.392 . S
C564 C567 1.511 1_554 S
C565 C561 1.376 . S
C565 C564 1.392 . S
C565 H577 0.929 . S
C566 C562 1.531 . S
C566 H578 0.960 . S
C566 H579 0.962 . S
C566 H580 0.960 . S
C567 C564 1.511 1_556 S
C567 H581 0.961 . S
C567 H582 0.961 . S
C567 H583 0.961 . S
C568 C569 1.370 . S
C568 C570 1.363 . S
C568 H584 0.931 . S
C569 C568 1.370 . S
C569 C573 1.408 . S
C570 C568 1.363 . S
C570 C571 1.370 . S
C570 C574 1.524 1_556 S
C571 C563 1.503 1_556 S
C571 C570 1.370 . S
C571 C572 1.403 . S
C572 C571 1.403 . S
C572 C573 1.404 . S
C572 C575 1.539 . S
C573 C569 1.408 . S
C573 C572 1.404 . S
C573 H585 0.930 . S
C574 C570 1.524 1_554 S
C574 H586 0.956 . S
C574 H587 0.961 . S
C574 H588 0.961 . S
C575 C572 1.539 . S
C575 H589 0.958 . S
C575 H590 0.961 . S
C575 H591 0.960 . S
H576 C560 0.931 . S
H577 C565 0.929 . S
H578 C566 0.960 . S
H579 C566 0.962 . S
H580 C566 0.960 . S
H581 C567 0.961 . S
H582 C567 0.961 . S
H583 C567 0.961 . S
H584 C568 0.931 . S
H585 C573 0.930 . S
H586 C574 0.956 . S
H587 C574 0.961 . S
H588 C574 0.961 . S
H589 C575 0.958 . S
H590 C575 0.961 . S
H591 C575 0.960 . S
C592 C593 1.391 . S
C592 C594 1.394 . S
C592 H608 0.931 . S
C593 C592 1.391 . S
C593 C597 1.376 . S
C594 C592 1.394 . S
C594 C595 1.369 . S
C594 C598 1.531 . S
C595 C594 1.369 . S
C595 C596 1.410 . S
C595 C603 1.503 1_545 S
C596 C595 1.410 . S
C596 C597 1.392 . S
C596 C599 1.511 1_545 S
C597 C593 1.376 . S
C597 C596 1.392 . S
C597 H609 0.929 . S
C598 C594 1.531 . S
C598 H610 0.960 . S
C598 H611 0.962 . S
C598 H612 0.960 . S
C599 C596 1.511 1_565 S
C599 H613 0.961 . S
C599 H614 0.961 . S
C599 H615 0.961 . S
C600 C601 1.370 . S
C600 C602 1.363 . S
C600 H616 0.931 . S
C601 C600 1.370 . S
C601 C605 1.408 . S
C602 C600 1.363 . S
C602 C603 1.370 . S
C602 C606 1.524 . S
C603 C595 1.503 1_565 S
C603 C602 1.370 . S
C603 C604 1.403 . S
C604 C603 1.403 . S
C604 C605 1.404 . S
C604 C607 1.539 1_565 S
C605 C601 1.408 . S
C605 C604 1.404 . S
C605 H617 0.930 . S
C606 C602 1.524 . S
C606 H618 0.956 . S
C606 H619 0.961 . S
C606 H620 0.961 . S
C607 C604 1.539 1_545 S
C607 H621 0.958 . S
C607 H622 0.961 . S
C607 H623 0.960 . S
H608 C592 0.931 . S
H609 C597 0.929 . S
H610 C598 0.960 . S
H611 C598 0.962 . S
H612 C598 0.960 . S
H613 C599 0.961 . S
H614 C599 0.961 . S
H615 C599 0.961 . S
H616 C600 0.931 . S
H617 C605 0.930 . S
H618 C606 0.956 . S
H619 C606 0.961 . S
H620 C606 0.961 . S
H621 C607 0.958 . S
H622 C607 0.961 . S
H623 C607 0.960 . S
C624 C625 1.391 . S
C624 C626 1.394 . S
C624 H640 0.931 . S
C625 C624 1.391 . S
C625 C629 1.376 1_655 S
C626 C624 1.394 . S
C626 C627 1.369 1_655 S
C626 C630 1.531 . S
C627 C626 1.369 1_455 S
C627 C628 1.410 . S
C627 C635 1.503 1_565 S
C628 C627 1.410 . S
C628 C629 1.392 . S
C628 C631 1.511 1_565 S
C629 C625 1.376 1_455 S
C629 C628 1.392 . S
C629 H641 0.929 . S
C630 C626 1.531 . S
C630 H642 0.960 . S
C630 H643 0.962 . S
C630 H644 0.960 . S
C631 C628 1.511 1_545 S
C631 H645 0.961 . S
C631 H646 0.961 . S
C631 H647 0.961 . S
C632 C633 1.370 1_655 S
C632 C634 1.363 . S
C632 H648 0.931 . S
C633 C632 1.370 1_455 S
C633 C637 1.408 . S
C634 C632 1.363 . S
C634 C635 1.370 1_655 S
C634 C638 1.524 . S
C635 C627 1.503 1_545 S
C635 C634 1.370 1_455 S
C635 C636 1.403 . S
C636 C635 1.403 . S
C636 C637 1.404 . S
C636 C639 1.539 1_545 S
C637 C633 1.408 . S
C637 C636 1.404 . S
C637 H649 0.930 . S
C638 C634 1.524 . S
C638 H650 0.956 . S
C638 H651 0.961 . S
C638 H652 0.961 . S
C639 C636 1.539 1_565 S
C639 H653 0.958 . S
C639 H654 0.961 . S
C639 H655 0.960 . S
H640 C624 0.931 . S
H641 C629 0.929 . S
H642 C630 0.960 . S
H643 C630 0.962 . S
H644 C630 0.960 . S
H645 C631 0.961 . S
H646 C631 0.961 . S
H647 C631 0.961 . S
H648 C632 0.931 . S
H649 C637 0.930 . S
H650 C638 0.956 . S
H651 C638 0.961 . S
H652 C638 0.961 . S
H653 C639 0.958 . S
H654 C639 0.961 . S
H655 C639 0.960 . S
C656 C657 1.391 . S
C656 C658 1.394 1_554 S
C656 H672 0.931 1_554 S
C657 C656 1.391 . S
C657 C661 1.376 . S
C658 C656 1.394 1_556 S
C658 C659 1.369 1_556 S
C658 C662 1.531 . S
C659 C658 1.369 1_554 S
C659 C660 1.410 . S
C659 C667 1.503 1_554 S
C660 C659 1.410 . S
C660 C661 1.392 . S
C660 C663 1.511 . S
C661 C657 1.376 . S
C661 C660 1.392 . S
C661 H673 0.929 . S
C662 C658 1.531 . S
C662 H674 0.960 . S
C662 H675 0.962 . S
C662 H676 0.960 . S
C663 C660 1.511 . S
C663 H677 0.961 . S
C663 H678 0.961 . S
C663 H679 0.961 . S
C664 C665 1.370 . S
C664 C666 1.362 1_556 S
C664 H680 0.931 . S
C665 C664 1.370 . S
C665 C669 1.408 . S
C666 C664 1.362 1_554 S
C666 C667 1.368 1_554 S
C666 C670 1.528 . S
C667 C659 1.503 1_556 S
C667 C666 1.368 1_556 S
C667 C668 1.403 . S
C668 C667 1.403 . S
C668 C669 1.404 . S
C668 C671 1.539 . S
C669 C665 1.408 . S
C669 C668 1.404 . S
C669 H681 0.930 . S
C670 C666 1.528 . S
C670 H682 0.956 . S
C670 H683 0.961 . S
C670 H684 0.961 . S
C671 C668 1.539 . S
C671 H685 0.958 . S
C671 H686 0.961 . S
C671 H687 0.960 . S
H672 C656 0.931 1_556 S
H673 C661 0.929 . S
H674 C662 0.960 . S
H675 C662 0.962 . S
H676 C662 0.960 . S
H677 C663 0.961 . S
H678 C663 0.961 . S
H679 C663 0.961 . S
H680 C664 0.931 . S
H681 C669 0.930 . S
H682 C670 0.956 . S
H683 C670 0.961 . S
H684 C670 0.961 . S
H685 C671 0.958 . S
H686 C671 0.961 . S
H687 C671 0.960 . S
C688 C689 1.393 . S
C688 C690 1.393 1_554 S
C688 H704 0.929 1_554 S
C689 C688 1.393 . S
C689 C693 1.376 . S
C690 C688 1.393 1_556 S
C690 C691 1.369 1_556 S
C690 C694 1.531 . S
C691 C690 1.369 1_554 S
C691 C692 1.410 . S
C691 C699 1.503 1_554 S
C692 C691 1.410 . S
C692 C693 1.392 . S
C692 C695 1.511 . S
C693 C689 1.376 . S
C693 C692 1.392 . S
C693 H705 0.929 . S
C694 C690 1.531 . S
C694 H706 0.960 . S
C694 H707 0.962 . S
C694 H708 0.960 . S
C695 C692 1.511 . S
C695 H709 0.961 . S
C695 H710 0.961 . S
C695 H711 0.961 . S
C696 C697 1.370 . S
C696 C698 1.363 . S
C696 H712 0.931 . S
C697 C696 1.370 . S
C697 C701 1.408 . S
C698 C696 1.363 . S
C698 C699 1.370 . S
C698 C702 1.524 1_556 S
C699 C691 1.503 1_556 S
C699 C698 1.370 . S
C699 C700 1.403 . S
C700 C699 1.403 . S
C700 C701 1.404 . S
C700 C703 1.539 . S
C701 C697 1.408 . S
C701 C700 1.404 . S
C701 H713 0.930 . S
C702 C698 1.524 1_554 S
C702 H714 0.956 . S
C702 H715 0.961 . S
C702 H716 0.961 . S
C703 C700 1.539 . S
C703 H717 0.958 . S
C703 H718 0.961 . S
C703 H719 0.960 . S
H704 C688 0.929 1_556 S
H705 C693 0.929 . S
H706 C694 0.960 . S
H707 C694 0.962 . S
H708 C694 0.960 . S
H709 C695 0.961 . S
H710 C695 0.961 . S
H711 C695 0.961 . S
H712 C696 0.931 . S
H713 C701 0.930 . S
H714 C702 0.956 . S
H715 C702 0.961 . S
H716 C702 0.961 . S
H717 C703 0.958 . S
H718 C703 0.961 . S
H719 C703 0.960 . S
C720 C721 1.391 . S
C720 C722 1.394 . S
C720 H736 0.931 . S
C721 C720 1.391 . S
C721 C725 1.376 . S
C722 C720 1.394 . S
C722 C723 1.369 . S
C722 C726 1.531 . S
C723 C722 1.369 . S
C723 C724 1.410 . S
C723 C731 1.503 . S
C724 C723 1.410 . S
C724 C725 1.392 . S
C724 C727 1.511 . S
C725 C721 1.376 . S
C725 C724 1.392 . S
C725 H737 0.929 . S
C726 C722 1.531 . S
C726 H738 0.960 . S
C726 H739 0.962 . S
C726 H740 0.960 . S
C727 C724 1.511 . S
C727 H741 0.961 . S
C727 H742 0.961 . S
C727 H743 0.961 . S
C728 C729 1.370 . S
C728 C730 1.363 . S
C728 H744 0.931 . S
C729 C728 1.370 . S
C729 C733 1.408 . S
C730 C728 1.363 . S
C730 C731 1.370 . S
C730 C734 1.524 . S
C731 C723 1.503 . S
C731 C730 1.370 . S
C731 C732 1.403 . S
C732 C731 1.403 . S
C732 C733 1.404 . S
C732 C735 1.539 . S
C733 C729 1.408 . S
C733 C732 1.404 . S
C733 H745 0.930 . S
C734 C730 1.524 . S
C734 H746 0.956 . S
C734 H747 0.961 . S
C734 H748 0.961 . S
C735 C732 1.539 . S
C735 H749 0.958 . S
C735 H750 0.961 . S
C735 H751 0.960 . S
H736 C720 0.931 . S
H737 C725 0.929 . S
H738 C726 0.960 . S
H739 C726 0.962 . S
H740 C726 0.960 . S
H741 C727 0.961 . S
H742 C727 0.961 . S
H743 C727 0.961 . S
H744 C728 0.931 . S
H745 C733 0.930 . S
H746 C734 0.956 . S
H747 C734 0.961 . S
H748 C734 0.961 . S
H749 C735 0.958 . S
H750 C735 0.961 . S
H751 C735 0.960 . S
C752 C753 1.391 . S
C752 C754 1.394 . S
C752 H768 0.931 . S
C753 C752 1.391 . S
C753 C757 1.376 . S
C754 C752 1.394 . S
C754 C755 1.369 . S
C754 C758 1.531 . S
C755 C754 1.369 . S
C755 C756 1.410 . S
C755 C763 1.503 . S
C756 C755 1.410 . S
C756 C757 1.392 . S
C756 C759 1.511 . S
C757 C753 1.376 . S
C757 C756 1.392 . S
C757 H769 0.929 . S
C758 C754 1.531 . S
C758 H770 0.960 . S
C758 H771 0.962 . S
C758 H772 0.960 . S
C759 C756 1.511 . S
C759 H773 0.961 . S
C759 H774 0.961 . S
C759 H775 0.961 . S
C760 C761 1.370 . S
C760 C762 1.363 . S
C760 H776 0.931 . S
C761 C760 1.370 . S
C761 C765 1.408 . S
C762 C760 1.363 . S
C762 C763 1.370 . S
C762 C766 1.524 . S
C763 C755 1.503 . S
C763 C762 1.370 . S
C763 C764 1.403 . S
C764 C763 1.403 . S
C764 C765 1.404 . S
C764 C767 1.539 . S
C765 C761 1.408 . S
C765 C764 1.404 . S
C765 H777 0.930 . S
C766 C762 1.524 . S
C766 H778 0.956 . S
C766 H779 0.961 . S
C766 H780 0.961 . S
C767 C764 1.539 . S
C767 H781 0.958 . S
C767 H782 0.961 . S
C767 H783 0.960 . S
H768 C752 0.931 . S
H769 C757 0.929 . S
H770 C758 0.960 . S
H771 C758 0.962 . S
H772 C758 0.960 . S
H773 C759 0.961 . S
H774 C759 0.961 . S
H775 C759 0.961 . S
H776 C760 0.931 . S
H777 C765 0.930 . S
H778 C766 0.956 . S
H779 C766 0.961 . S
H780 C766 0.961 . S
H781 C767 0.958 . S
H782 C767 0.961 . S
H783 C767 0.960 . S
C784 C785 1.391 . S
C784 C786 1.394 . S
C784 H800 0.931 . S
C785 C784 1.391 . S
C785 C789 1.376 . S
C786 C784 1.394 . S
C786 C787 1.369 . S
C786 C790 1.531 . S
C787 C786 1.369 . S
C787 C788 1.410 . S
C787 C795 1.503 . S
C788 C787 1.410 . S
C788 C789 1.392 . S
C788 C791 1.511 . S
C789 C785 1.376 . S
C789 C788 1.392 . S
C789 H801 0.929 . S
C790 C786 1.531 . S
C790 H802 0.960 . S
C790 H803 0.962 . S
C790 H804 0.960 . S
C791 C788 1.511 . S
C791 H805 0.961 . S
C791 H806 0.961 . S
C791 H807 0.961 . S
C792 C793 1.370 . S
C792 C794 1.363 . S
C792 H808 0.931 . S
C793 C792 1.370 . S
C793 C797 1.408 . S
C794 C792 1.363 . S
C794 C795 1.370 . S
C794 C798 1.524 . S
C795 C787 1.503 . S
C795 C794 1.370 . S
C795 C796 1.403 . S
C796 C795 1.403 . S
C796 C797 1.404 . S
C796 C799 1.539 . S
C797 C793 1.408 . S
C797 C796 1.404 . S
C797 H809 0.930 . S
C798 C794 1.524 . S
C798 H810 0.956 . S
C798 H811 0.961 . S
C798 H812 0.961 . S
C799 C796 1.539 . S
C799 H813 0.958 . S
C799 H814 0.961 . S
C799 H815 0.960 . S
H800 C784 0.931 . S
H801 C789 0.929 . S
H802 C790 0.960 . S
H803 C790 0.962 . S
H804 C790 0.960 . S
H805 C791 0.961 . S
H806 C791 0.961 . S
H807 C791 0.961 . S
H808 C792 0.931 . S
H809 C797 0.930 . S
H810 C798 0.956 . S
H811 C798 0.961 . S
H812 C798 0.961 . S
H813 C799 0.958 . S
H814 C799 0.961 . S
H815 C799 0.960 . S
C816 C817 1.391 . S
C816 C818 1.394 . S
C816 H832 0.931 . S
C817 C816 1.391 . S
C817 C821 1.376 . S
C818 C816 1.394 . S
C818 C819 1.369 . S
C818 C822 1.531 . S
C819 C818 1.369 . S
C819 C820 1.410 . S
C819 C827 1.503 . S
C820 C819 1.410 . S
C820 C821 1.392 . S
C820 C823 1.511 . S
C821 C817 1.376 . S
C821 C820 1.392 . S
C821 H833 0.929 . S
C822 C818 1.531 . S
C822 H834 0.960 . S
C822 H835 0.962 . S
C822 H836 0.960 . S
C823 C820 1.511 . S
C823 H837 0.961 . S
C823 H838 0.961 . S
C823 H839 0.961 . S
C824 C825 1.370 . S
C824 C826 1.363 . S
C824 H840 0.931 . S
C825 C824 1.370 . S
C825 C829 1.408 . S
C826 C824 1.363 . S
C826 C827 1.370 . S
C826 C830 1.524 . S
C827 C819 1.503 . S
C827 C826 1.370 . S
C827 C828 1.403 . S
C828 C827 1.403 . S
C828 C829 1.404 . S
C828 C831 1.539 . S
C829 C825 1.408 . S
C829 C828 1.404 . S
C829 H841 0.930 . S
C830 C826 1.524 . S
C830 H842 0.956 . S
C830 H843 0.961 . S
C830 H844 0.961 . S
C831 C828 1.539 . S
C831 H845 0.958 . S
C831 H846 0.961 . S
C831 H847 0.960 . S
H832 C816 0.931 . S
H833 C821 0.929 . S
H834 C822 0.960 . S
H835 C822 0.962 . S
H836 C822 0.960 . S
H837 C823 0.961 . S
H838 C823 0.961 . S
H839 C823 0.961 . S
H840 C824 0.931 . S
H841 C829 0.930 . S
H842 C830 0.956 . S
H843 C830 0.961 . S
H844 C830 0.961 . S
H845 C831 0.958 . S
H846 C831 0.961 . S
H847 C831 0.960 . S
C848 C849 1.391 . S
C848 C850 1.394 . S
C848 H864 0.931 . S
C849 C848 1.391 . S
C849 C853 1.376 . S
C850 C848 1.394 . S
C850 C851 1.369 . S
C850 C854 1.531 . S
C851 C850 1.369 . S
C851 C852 1.410 . S
C851 C859 1.503 . S
C852 C851 1.410 . S
C852 C853 1.392 . S
C852 C855 1.511 . S
C853 C849 1.376 . S
C853 C852 1.392 . S
C853 H865 0.929 . S
C854 C850 1.531 . S
C854 H866 0.960 . S
C854 H867 0.962 . S
C854 H868 0.960 . S
C855 C852 1.511 . S
C855 H869 0.961 . S
C855 H870 0.961 . S
C855 H871 0.961 . S
C856 C857 1.370 . S
C856 C858 1.363 . S
C856 H872 0.931 . S
C857 C856 1.370 . S
C857 C861 1.408 . S
C858 C856 1.363 . S
C858 C859 1.370 . S
C858 C862 1.524 . S
C859 C851 1.503 . S
C859 C858 1.370 . S
C859 C860 1.403 . S
C860 C859 1.403 . S
C860 C861 1.404 . S
C860 C863 1.539 . S
C861 C857 1.408 . S
C861 C860 1.404 . S
C861 H873 0.930 . S
C862 C858 1.524 . S
C862 H874 0.956 . S
C862 H875 0.961 . S
C862 H876 0.961 . S
C863 C860 1.539 . S
C863 H877 0.958 . S
C863 H878 0.961 . S
C863 H879 0.960 . S
H864 C848 0.931 . S
H865 C853 0.929 . S
H866 C854 0.960 . S
H867 C854 0.962 . S
H868 C854 0.960 . S
H869 C855 0.961 . S
H870 C855 0.961 . S
H871 C855 0.961 . S
H872 C856 0.931 . S
H873 C861 0.930 . S
H874 C862 0.956 . S
H875 C862 0.961 . S
H876 C862 0.961 . S
H877 C863 0.958 . S
H878 C863 0.961 . S
H879 C863 0.960 . S
C880 C881 1.391 . S
C880 C882 1.394 . S
C880 H896 0.931 . S
C881 C880 1.391 . S
C881 C885 1.376 . S
C882 C880 1.394 . S
C882 C883 1.369 . S
C882 C886 1.531 . S
C883 C882 1.369 . S
C883 C884 1.410 . S
C883 C891 1.503 . S
C884 C883 1.410 . S
C884 C885 1.392 . S
C884 C887 1.511 . S
C885 C881 1.376 . S
C885 C884 1.392 . S
C885 H897 0.929 . S
C886 C882 1.531 . S
C886 H898 0.960 . S
C886 H899 0.962 . S
C886 H900 0.960 . S
C887 C884 1.511 . S
C887 H901 0.961 . S
C887 H902 0.961 . S
C887 H903 0.961 . S
C888 C889 1.370 . S
C888 C890 1.363 . S
C888 H904 0.931 . S
C889 C888 1.370 . S
C889 C893 1.408 . S
C890 C888 1.363 . S
C890 C891 1.370 . S
C890 C894 1.524 . S
C891 C883 1.503 . S
C891 C890 1.370 . S
C891 C892 1.403 . S
C892 C891 1.403 . S
C892 C893 1.404 . S
C892 C895 1.539 . S
C893 C889 1.408 . S
C893 C892 1.404 . S
C893 H905 0.930 . S
C894 C890 1.524 . S
C894 H906 0.956 . S
C894 H907 0.961 . S
C894 H908 0.961 . S
C895 C892 1.539 . S
C895 H909 0.958 . S
C895 H910 0.961 . S
C895 H911 0.960 . S
H896 C880 0.931 . S
H897 C885 0.929 . S
H898 C886 0.960 . S
H899 C886 0.962 . S
H900 C886 0.960 . S
H901 C887 0.961 . S
H902 C887 0.961 . S
H903 C887 0.961 . S
H904 C888 0.931 . S
H905 C893 0.930 . S
H906 C894 0.956 . S
H907 C894 0.961 . S
H908 C894 0.961 . S
H909 C895 0.958 . S
H910 C895 0.961 . S
H911 C895 0.960 . S
C912 C913 1.391 . S
C912 C914 1.394 . S
C912 H928 0.931 . S
C913 C912 1.391 . S
C913 C917 1.376 1_455 S
C914 C912 1.394 . S
C914 C915 1.369 . S
C914 C918 1.531 . S
C915 C914 1.369 . S
C915 C916 1.410 1_455 S
C915 C923 1.503 . S
C916 C915 1.410 1_655 S
C916 C917 1.392 . S
C916 C919 1.511 . S
C917 C913 1.376 1_655 S
C917 C916 1.392 . S
C917 H929 0.929 . S
C918 C914 1.531 . S
C918 H930 0.960 . S
C918 H931 0.962 . S
C918 H932 0.960 . S
C919 C916 1.511 . S
C919 H933 0.961 . S
C919 H934 0.961 . S
C919 H935 0.961 . S
C920 C921 1.370 . S
C920 C922 1.363 1_554 S
C920 H936 0.931 . S
C921 C920 1.370 . S
C921 C925 1.395 1_454 S
C922 C920 1.363 1_556 S
C922 C923 1.370 . S
C922 C926 1.524 . S
C923 C915 1.503 . S
C923 C922 1.370 . S
C923 C924 1.391 1_455 S
C924 C923 1.391 1_655 S
C924 C925 1.402 . S
C924 C927 1.550 . S
C925 C921 1.395 1_656 S
C925 C924 1.402 . S
C925 H937 0.948 1_556 S
C926 C922 1.524 . S
C926 H938 0.956 . S
C926 H939 0.961 . S
C926 H940 0.961 . S
C927 C924 1.550 . S
C927 H941 0.958 . S
C927 H942 0.961 . S
C927 H943 0.960 . S
H928 C912 0.931 . S
H929 C917 0.929 . S
H930 C918 0.960 . S
H931 C918 0.962 . S
H932 C918 0.960 . S
H933 C919 0.961 . S
H934 C919 0.961 . S
H935 C919 0.961 . S
H936 C920 0.931 . S
H937 C925 0.948 1_554 S
H938 C926 0.956 . S
H939 C926 0.961 . S
H940 C926 0.961 . S
H941 C927 0.958 . S
H942 C927 0.961 . S
H943 C927 0.960 . S
C944 C945 1.391 . S
C944 C946 1.394 . S
C944 H960 0.931 . S
C945 C944 1.391 . S
C945 C949 1.376 . S
C946 C944 1.394 . S
C946 C947 1.369 . S
C946 C950 1.531 . S
C947 C946 1.369 . S
C947 C948 1.410 . S
C947 C955 1.503 . S
C948 C947 1.410 . S
C948 C949 1.392 . S
C948 C951 1.511 . S
C949 C945 1.376 . S
C949 C948 1.392 . S
C949 H961 0.929 . S
C950 C946 1.531 . S
C950 H962 0.960 . S
C950 H963 0.962 . S
C950 H964 0.960 . S
C951 C948 1.511 . S
C951 H965 0.961 . S
C951 H966 0.961 . S
C951 H967 0.961 . S
C952 C953 1.370 1_554 S
C952 C954 1.363 . S
C952 H968 0.931 . S
C953 C952 1.370 1_556 S
C953 C957 1.408 . S
C954 C952 1.363 . S
C954 C955 1.370 . S
C954 C958 1.524 . S
C955 C947 1.503 . S
C955 C954 1.370 . S
C955 C956 1.403 . S
C956 C955 1.403 . S
C956 C957 1.404 1_554 S
C956 C959 1.539 . S
C957 C953 1.408 . S
C957 C956 1.404 1_556 S
C957 H969 0.930 . S
C958 C954 1.524 . S
C958 H970 0.956 . S
C958 H971 0.961 . S
C958 H972 0.961 . S
C959 C956 1.539 . S
C959 H973 0.958 . S
C959 H974 0.961 1_554 S
C959 H975 0.960 . S
H960 C944 0.931 . S
H961 C949 0.929 . S
H962 C950 0.960 . S
H963 C950 0.962 . S
H964 C950 0.960 . S
H965 C951 0.961 . S
H966 C951 0.961 . S
H967 C951 0.961 . S
H968 C952 0.931 . S
H969 C957 0.930 . S
H970 C958 0.956 . S
H971 C958 0.961 . S
H972 C958 0.961 . S
H973 C959 0.958 . S
H974 C959 0.961 1_556 S
H975 C959 0.960 . S
C976 C977 1.391 1_554 S
C976 C978 1.394 . S
C976 H992 0.931 1_554 S
C977 C976 1.391 1_556 S
C977 C981 1.367 1_655 S
C978 C976 1.394 . S
C978 C979 1.369 . S
C978 C982 1.531 . S
C979 C978 1.369 . S
C979 C980 1.410 1_655 S
C979 C987 1.503 . S
C980 C979 1.410 1_455 S
C980 C981 1.391 1_554 S
C980 C983 1.511 . S
C981 C977 1.367 1_455 S
C981 C980 1.391 1_556 S
C981 H993 0.940 . S
C982 C978 1.531 . S
C982 H994 0.960 . S
C982 H995 0.962 . S
C982 H996 0.960 . S
C983 C980 1.511 . S
C983 H997 0.961 . S
C983 H998 0.961 . S
C983 H999 0.961 . S
C984 C985 1.370 . S
C984 C986 1.363 . S
C984 H1000 0.931 . S
C985 C984 1.370 . S
C985 C989 1.408 1_655 S
C986 C984 1.363 . S
C986 C987 1.370 . S
C986 C990 1.524 . S
C987 C979 1.503 . S
C987 C986 1.370 . S
C987 C988 1.403 1_655 S
C988 C987 1.403 1_455 S
C988 C989 1.404 . S
C988 C991 1.539 . S
C989 C985 1.408 1_455 S
C989 C988 1.404 . S
C989 H1001 0.930 . S
C990 C986 1.524 . S
C990 H1002 0.956 . S
C990 H1003 0.961 . S
C990 H1004 0.961 . S
C991 C988 1.539 . S
C991 H1005 0.958 . S
C991 H1006 0.961 . S
C991 H1007 0.960 . S
H992 C976 0.931 1_556 S
H993 C981 0.940 . S
H994 C982 0.960 . S
H995 C982 0.962 . S
H996 C982 0.960 . S
H997 C983 0.961 . S
H998 C983 0.961 . S
H999 C983 0.961 . S
H1000 C984 0.931 . S
H1001 C989 0.930 . S
H1002 C990 0.956 . S
H1003 C990 0.961 . S
H1004 C990 0.961 . S
H1005 C991 0.958 . S
H1006 C991 0.961 . S
H1007 C991 0.960 . S
C1008 C1009 1.391 . S
C1008 C1010 1.394 1_554 S
C1008 H1024 0.931 . S
C1009 C1008 1.391 . S
C1009 C1013 1.376 . S
C1010 C1008 1.394 1_556 S
C1010 C1011 1.369 . S
C1010 C1014 1.531 . S
C1011 C1010 1.369 . S
C1011 C1012 1.410 . S
C1011 C1019 1.503 . S
C1012 C1011 1.410 . S
C1012 C1013 1.392 1_556 S
C1012 C1015 1.511 . S
C1013 C1009 1.376 . S
C1013 C1012 1.392 1_554 S
C1013 H1025 0.929 . S
C1014 C1010 1.531 . S
C1014 H1026 0.960 . S
C1014 H1027 0.962 . S
C1014 H1028 0.960 . S
C1015 C1012 1.511 . S
C1015 H1029 0.961 . S
C1015 H1030 0.961 . S
C1015 H1031 0.961 . S
C1016 C1017 1.370 . S
C1016 C1018 1.363 . S
C1016 H1032 0.931 . S
C1017 C1016 1.370 . S
C1017 C1021 1.408 . S
C1018 C1016 1.363 . S
C1018 C1019 1.370 . S
C1018 C1022 1.524 . S
C1019 C1011 1.503 . S
C1019 C1018 1.370 . S
C1019 C1020 1.403 . S
C1020 C1019 1.403 . S
C1020 C1021 1.404 . S
C1020 C1023 1.539 . S
C1021 C1017 1.408 . S
C1021 C1020 1.404 . S
C1021 H1033 0.930 . S
C1022 C1018 1.524 . S
C1022 H1034 0.956 . S
C1022 H1035 0.961 . S
C1022 H1036 0.961 . S
C1023 C1020 1.539 . S
C1023 H1037 0.958 . S
C1023 H1038 0.961 . S
C1023 H1039 0.960 . S
H1024 C1008 0.931 . S
H1025 C1013 0.929 . S
H1026 C1014 0.960 . S
H1027 C1014 0.962 . S
H1028 C1014 0.960 . S
H1029 C1015 0.961 . S
H1030 C1015 0.961 . S
H1031 C1015 0.961 . S
H1032 C1016 0.931 . S
H1033 C1021 0.930 . S
H1034 C1022 0.956 . S
H1035 C1022 0.961 . S
H1036 C1022 0.961 . S
H1037 C1023 0.958 . S
H1038 C1023 0.961 . S
H1039 C1023 0.960 . S
C1040 C1041 1.391 . S
C1040 C1042 1.394 . S
C1040 H1056 0.931 . S
C1041 C1040 1.391 . S
C1041 C1045 1.376 . S
C1042 C1040 1.394 . S
C1042 C1043 1.369 . S
C1042 C1046 1.531 . S
C1043 C1042 1.369 . S
C1043 C1044 1.410 . S
C1043 C1051 1.503 . S
C1044 C1043 1.410 . S
C1044 C1045 1.392 . S
C1044 C1047 1.511 . S
C1045 C1041 1.376 . S
C1045 C1044 1.392 . S
C1045 H1057 0.929 . S
C1046 C1042 1.531 . S
C1046 H1058 0.960 . S
C1046 H1059 0.962 . S
C1046 H1060 0.960 . S
C1047 C1044 1.511 . S
C1047 H1061 0.961 . S
C1047 H1062 0.961 . S
C1047 H1063 0.961 . S
C1048 C1049 1.370 . S
C1048 C1050 1.363 . S
C1048 H1064 0.931 . S
C1049 C1048 1.370 . S
C1049 C1053 1.408 . S
C1050 C1048 1.363 . S
C1050 C1051 1.370 . S
C1050 C1054 1.524 . S
C1051 C1043 1.503 . S
C1051 C1050 1.370 . S
C1051 C1052 1.403 . S
C1052 C1051 1.403 . S
C1052 C1053 1.404 . S
C1052 C1055 1.539 . S
C1053 C1049 1.408 . S
C1053 C1052 1.404 . S
C1053 H1065 0.930 . S
C1054 C1050 1.524 . S
C1054 H1066 0.956 . S
C1054 H1067 0.961 . S
C1054 H1068 0.961 . S
C1055 C1052 1.539 . S
C1055 H1069 0.958 . S
C1055 H1070 0.961 . S
C1055 H1071 0.960 . S
H1056 C1040 0.931 . S
H1057 C1045 0.929 . S
H1058 C1046 0.960 . S
H1059 C1046 0.962 . S
H1060 C1046 0.960 . S
H1061 C1047 0.961 . S
H1062 C1047 0.961 . S
H1063 C1047 0.961 . S
H1064 C1048 0.931 . S
H1065 C1053 0.930 . S
H1066 C1054 0.956 . S
H1067 C1054 0.961 . S
H1068 C1054 0.961 . S
H1069 C1055 0.958 . S
H1070 C1055 0.961 . S
H1071 C1055 0.960 . S
C1072 C1073 1.391 . S
C1072 C1074 1.394 . S
C1072 H1088 0.931 . S
C1073 C1072 1.391 . S
C1073 C1077 1.376 1_655 S
C1074 C1072 1.394 . S
C1074 C1075 1.369 . S
C1074 C1078 1.531 . S
C1075 C1074 1.369 . S
C1075 C1076 1.410 1_655 S
C1075 C1083 1.503 . S
C1076 C1075 1.410 1_455 S
C1076 C1077 1.392 . S
C1076 C1079 1.511 . S
C1077 C1073 1.376 1_455 S
C1077 C1076 1.392 . S
C1077 H1089 0.929 . S
C1078 C1074 1.531 . S
C1078 H1090 0.960 . S
C1078 H1091 0.962 . S
C1078 H1092 0.960 . S
C1079 C1076 1.511 . S
C1079 H1093 0.961 . S
C1079 H1094 0.961 . S
C1079 H1095 0.961 . S
C1080 C1081 1.370 . S
C1080 C1082 1.363 . S
C1080 H1096 0.931 . S
C1081 C1080 1.370 . S
C1081 C1085 1.400 1_655 S
C1082 C1080 1.363 . S
C1082 C1083 1.370 . S
C1082 C1086 1.524 . S
C1083 C1075 1.503 . S
C1083 C1082 1.370 . S
C1083 C1084 1.397 1_655 S
C1084 C1083 1.397 1_455 S
C1084 C1085 1.402 . S
C1084 C1087 1.544 . S
C1085 C1081 1.400 1_455 S
C1085 C1084 1.402 . S
C1085 H1097 0.942 . S
C1086 C1082 1.524 . S
C1086 H1098 0.956 . S
C1086 H1099 0.961 . S
C1086 H1100 0.961 . S
C1087 C1084 1.544 . S
C1087 H1101 0.958 . S
C1087 H1102 0.961 . S
C1087 H1103 0.960 . S
H1088 C1072 0.931 . S
H1089 C1077 0.929 . S
H1090 C1078 0.960 . S
H1091 C1078 0.962 . S
H1092 C1078 0.960 . S
H1093 C1079 0.961 . S
H1094 C1079 0.961 . S
H1095 C1079 0.961 . S
H1096 C1080 0.931 . S
H1097 C1085 0.942 . S
H1098 C1086 0.956 . S
H1099 C1086 0.961 . S
H1100 C1086 0.961 . S
H1101 C1087 0.958 . S
H1102 C1087 0.961 . S
H1103 C1087 0.960 . S
C1104 C1105 1.391 . S
C1104 C1106 1.394 . S
C1104 H1120 0.931 . S
C1105 C1104 1.391 . S
C1105 C1109 1.376 . S
C1106 C1104 1.394 . S
C1106 C1107 1.369 . S
C1106 C1110 1.531 . S
C1107 C1106 1.369 . S
C1107 C1108 1.410 . S
C1107 C1115 1.503 . S
C1108 C1107 1.410 . S
C1108 C1109 1.392 . S
C1108 C1111 1.511 . S
C1109 C1105 1.376 . S
C1109 C1108 1.392 . S
C1109 H1121 0.929 . S
C1110 C1106 1.531 . S
C1110 H1122 0.960 . S
C1110 H1123 0.962 . S
C1110 H1124 0.960 . S
C1111 C1108 1.511 . S
C1111 H1125 0.961 . S
C1111 H1126 0.961 . S
C1111 H1127 0.961 . S
C1112 C1113 1.370 . S
C1112 C1114 1.363 . S
C1112 H1128 0.931 . S
C1113 C1112 1.370 . S
C1113 C1117 1.408 . S
C1114 C1112 1.363 . S
C1114 C1115 1.370 . S
C1114 C1118 1.524 . S
C1115 C1107 1.503 . S
C1115 C1114 1.370 . S
C1115 C1116 1.403 . S
C1116 C1115 1.403 . S
C1116 C1117 1.404 . S
C1116 C1119 1.539 . S
C1117 C1113 1.408 . S
C1117 C1116 1.404 . S
C1117 H1129 0.930 . S
C1118 C1114 1.524 . S
C1118 H1130 0.956 . S
C1118 H1131 0.961 . S
C1118 H1132 0.961 . S
C1119 C1116 1.539 . S
C1119 H1133 0.958 . S
C1119 H1134 0.961 . S
C1119 H1135 0.960 . S
H1120 C1104 0.931 . S
H1121 C1109 0.929 . S
H1122 C1110 0.960 . S
H1123 C1110 0.962 . S
H1124 C1110 0.960 . S
H1125 C1111 0.961 . S
H1126 C1111 0.961 . S
H1127 C1111 0.961 . S
H1128 C1112 0.931 . S
H1129 C1117 0.930 . S
H1130 C1118 0.956 . S
H1131 C1118 0.961 . S
H1132 C1118 0.961 . S
H1133 C1119 0.958 . S
H1134 C1119 0.961 . S
H1135 C1119 0.960 . S
C1136 C1137 1.391 . S
C1136 C1138 1.394 . S
C1136 H1152 0.931 1_455 S
C1137 C1136 1.391 . S
C1137 C1141 1.376 . S
C1138 C1136 1.394 . S
C1138 C1139 1.369 . S
C1138 C1142 1.531 1_455 S
C1139 C1138 1.369 . S
C1139 C1140 1.410 . S
C1139 C1147 1.503 . S
C1140 C1139 1.410 . S
C1140 C1141 1.392 . S
C1140 C1143 1.511 . S
C1141 C1137 1.376 . S
C1141 C1140 1.392 . S
C1141 H1153 0.929 . S
C1142 C1138 1.531 1_655 S
C1142 H1154 0.960 . S
C1142 H1155 0.962 . S
C1142 H1156 0.960 . S
C1143 C1140 1.511 . S
C1143 H1157 0.961 . S
C1143 H1158 0.961 . S
C1143 H1159 0.961 . S
C1144 C1145 1.370 1_655 S
C1144 C1146 1.362 1_655 S
C1144 H1160 0.931 . S
C1145 C1144 1.370 1_455 S
C1145 C1149 1.408 . S
C1146 C1144 1.362 1_455 S
C1146 C1147 1.377 . S
C1146 C1150 1.520 1_455 S
C1147 C1139 1.503 . S
C1147 C1146 1.377 . S
C1147 C1148 1.403 . S
C1148 C1147 1.403 . S
C1148 C1149 1.404 . S
C1148 C1151 1.539 . S
C1149 C1145 1.408 . S
C1149 C1148 1.404 . S
C1149 H1161 0.930 . S
C1150 C1146 1.520 1_655 S
C1150 H1162 0.956 . S
C1150 H1163 0.961 . S
C1150 H1164 0.961 . S
C1151 C1148 1.539 . S
C1151 H1165 0.958 . S
C1151 H1166 0.961 . S
C1151 H1167 0.960 . S
H1152 C1136 0.931 1_655 S
H1153 C1141 0.929 . S
H1154 C1142 0.960 . S
H1155 C1142 0.962 . S
H1156 C1142 0.960 . S
H1157 C1143 0.961 . S
H1158 C1143 0.961 . S
H1159 C1143 0.961 . S
H1160 C1144 0.931 . S
H1161 C1149 0.930 . S
H1162 C1150 0.956 . S
H1163 C1150 0.961 . S
H1164 C1150 0.961 . S
H1165 C1151 0.958 . S
H1166 C1151 0.961 . S
H1167 C1151 0.960 . S
C273 C171 1.892 . S
C281 C6 1.973 . S
C305 C139 1.912 . S
C313 C40 1.970 . S
C337 C239 1.899 . S
C345 C96 1.973 . S
C369 C130 1.962 . S
C377 C205 1.886 . S
C401 C142 1.970 . S
C409 C37 1.890 . S
C433 C3 1.877 . S
C441 C198 1.969 . S
C465 C232 1.962 . S
C473 C103 1.898 . S
C497 C266 1.971 . S
C505 C69 1.906 . S
C529 C28 0.353 . S
C537 C74 0.208 . S
C561 C108 0.173 . S
C569 C62 0.292 . S
C593 C210 0.255 . S
C601 C164 0.257 . S
C625 C176 0.172 . S
C633 C244 0.287 . S
C657 C15 2.071 . S
C665 C49 2.081 . S
C689 C124 2.114 . S
C697 C90 2.102 . S
C721 C151 2.114 . S
C729 C192 2.098 . S
C753 C260 2.065 . S
C761 C226 2.081 . S
C785 C219 1.129 . S
C793 C22 1.088 . S
C817 C56 1.109 . S
C825 C253 1.090 . S
C849 C83 1.070 . S
C857 C158 1.106 . S
C881 C117 1.046 . S
C889 C185 1.117 . S
C913 C241 1.801 . S
C921 C17 1.875 . S
C945 C207 1.779 . S
C953 C51 1.880 . S
C977 C85 1.868 . S
C985 C173 1.796 . S
C1009 C119 1.880 . S
C1017 C137 1.797 . S
C1041 C153 1.879 . S
C1049 C105 1.799 . S
C1073 C71 1.801 . S
C1081 C187 1.875 . S
C1105 C35 1.769 . S
C1113 C221 1.878 . S
C1137 C1 1.825 . S
C1145 C255 1.877 . S
