# Generated by pormake.
# Topology uox, (4)-cn, num edge types: 1
# Building blocks:
#     Node 0, Type 0, BuildingBlock: ICAMEG_clean_sbu_1, # of connection points: 4
#     Node 1, Type 0, BuildingBlock: ICAMEG_clean_sbu_1, # of connection points: 4
#     Node 2, Type 0, BuildingBlock: ICAMEG_clean_sbu_1, # of connection points: 4
#     Node 3, Type 0, BuildingBlock: ICAMEG_clean_sbu_1, # of connection points: 4
#     Node 4, Type 0, BuildingBlock: ICAMEG_clean_sbu_1, # of connection points: 4
#     Node 5, Type 0, BuildingBlock: ICAMEG_clean_sbu_1, # of connection points: 4
#     Node 6, Type 0, BuildingBlock: ICAMEG_clean_sbu_1, # of connection points: 4
#     Node 7, Type 0, BuildingBlock: ICAMEG_clean_sbu_1, # of connection points: 4
#     Node 8, Type 0, BuildingBlock: ICAMEG_clean_sbu_1, # of connection points: 4
#     Node 9, Type 0, BuildingBlock: ICAMEG_clean_sbu_1, # of connection points: 4
#     Node 10, Type 0, BuildingBlock: ICAMEG_clean_sbu_1, # of connection points: 4
#     Node 11, Type 0, BuildingBlock: ICAMEG_clean_sbu_1, # of connection points: 4
#     Node 12, Type 0, BuildingBlock: ICAMEG_clean_sbu_1, # of connection points: 4
#     Node 13, Type 0, BuildingBlock: ICAMEG_clean_sbu_1, # of connection points: 4
#     Node 14, Type 0, BuildingBlock: ICAMEG_clean_sbu_1, # of connection points: 4
#     Node 15, Type 0, BuildingBlock: ICAMEG_clean_sbu_1, # of connection points: 4
#     Node 16, Type 0, BuildingBlock: ICAMEG_clean_sbu_1, # of connection points: 4
#     Node 17, Type 0, BuildingBlock: ICAMEG_clean_sbu_1, # of connection points: 4
#     Node 18, Type 0, BuildingBlock: ICAMEG_clean_sbu_1, # of connection points: 4
#     Node 19, Type 0, BuildingBlock: ICAMEG_clean_sbu_1, # of connection points: 4
#     Node 20, Type 0, BuildingBlock: ICAMEG_clean_sbu_1, # of connection points: 4
#     Node 21, Type 0, BuildingBlock: ICAMEG_clean_sbu_1, # of connection points: 4
#     Node 22, Type 0, BuildingBlock: ICAMEG_clean_sbu_1, # of connection points: 4
#     Node 23, Type 0, BuildingBlock: ICAMEG_clean_sbu_1, # of connection points: 4
#     Node 24, Type 0, BuildingBlock: ICAMEG_clean_sbu_1, # of connection points: 4
#     Node 25, Type 0, BuildingBlock: ICAMEG_clean_sbu_1, # of connection points: 4
#     Node 26, Type 0, BuildingBlock: ICAMEG_clean_sbu_1, # of connection points: 4
#     Node 27, Type 0, BuildingBlock: ICAMEG_clean_sbu_1, # of connection points: 4
#     Node 28, Type 0, BuildingBlock: ICAMEG_clean_sbu_1, # of connection points: 4
#     Node 29, Type 0, BuildingBlock: ICAMEG_clean_sbu_1, # of connection points: 4
#     Node 30, Type 0, BuildingBlock: ICAMEG_clean_sbu_1, # of connection points: 4
#     Node 31, Type 0, BuildingBlock: ICAMEG_clean_sbu_1, # of connection points: 4
#     Edge 32, Type (0, 0), BuildingBlock: AJUNOK_clean_linker_0, # of connection points: 2
#     Edge 33, Type (0, 0), BuildingBlock: AJUNOK_clean_linker_0, # of connection points: 2
#     Edge 34, Type (0, 0), BuildingBlock: AJUNOK_clean_linker_0, # of connection points: 2
#     Edge 35, Type (0, 0), BuildingBlock: AJUNOK_clean_linker_0, # of connection points: 2
#     Edge 36, Type (0, 0), BuildingBlock: AJUNOK_clean_linker_0, # of connection points: 2
#     Edge 37, Type (0, 0), BuildingBlock: AJUNOK_clean_linker_0, # of connection points: 2
#     Edge 38, Type (0, 0), BuildingBlock: AJUNOK_clean_linker_0, # of connection points: 2
#     Edge 39, Type (0, 0), BuildingBlock: AJUNOK_clean_linker_0, # of connection points: 2
#     Edge 40, Type (0, 0), BuildingBlock: AJUNOK_clean_linker_0, # of connection points: 2
#     Edge 41, Type (0, 0), BuildingBlock: AJUNOK_clean_linker_0, # of connection points: 2
#     Edge 42, Type (0, 0), BuildingBlock: AJUNOK_clean_linker_0, # of connection points: 2
#     Edge 43, Type (0, 0), BuildingBlock: AJUNOK_clean_linker_0, # of connection points: 2
#     Edge 44, Type (0, 0), BuildingBlock: AJUNOK_clean_linker_0, # of connection points: 2
#     Edge 45, Type (0, 0), BuildingBlock: AJUNOK_clean_linker_0, # of connection points: 2
#     Edge 46, Type (0, 0), BuildingBlock: AJUNOK_clean_linker_0, # of connection points: 2
#     Edge 47, Type (0, 0), BuildingBlock: AJUNOK_clean_linker_0, # of connection points: 2
#     Edge 48, Type (0, 0), BuildingBlock: AJUNOK_clean_linker_0, # of connection points: 2
#     Edge 49, Type (0, 0), BuildingBlock: AJUNOK_clean_linker_0, # of connection points: 2
#     Edge 50, Type (0, 0), BuildingBlock: AJUNOK_clean_linker_0, # of connection points: 2
#     Edge 51, Type (0, 0), BuildingBlock: AJUNOK_clean_linker_0, # of connection points: 2
#     Edge 52, Type (0, 0), BuildingBlock: AJUNOK_clean_linker_0, # of connection points: 2
#     Edge 53, Type (0, 0), BuildingBlock: AJUNOK_clean_linker_0, # of connection points: 2
#     Edge 54, Type (0, 0), BuildingBlock: AJUNOK_clean_linker_0, # of connection points: 2
#     Edge 55, Type (0, 0), BuildingBlock: AJUNOK_clean_linker_0, # of connection points: 2
#     Edge 56, Type (0, 0), BuildingBlock: AJUNOK_clean_linker_0, # of connection points: 2
#     Edge 57, Type (0, 0), BuildingBlock: AJUNOK_clean_linker_0, # of connection points: 2
#     Edge 58, Type (0, 0), BuildingBlock: AJUNOK_clean_linker_0, # of connection points: 2
#     Edge 59, Type (0, 0), BuildingBlock: AJUNOK_clean_linker_0, # of connection points: 2
#     Edge 60, Type (0, 0), BuildingBlock: AJUNOK_clean_linker_0, # of connection points: 2
#     Edge 61, Type (0, 0), BuildingBlock: AJUNOK_clean_linker_0, # of connection points: 2
#     Edge 62, Type (0, 0), BuildingBlock: AJUNOK_clean_linker_0, # of connection points: 2
#     Edge 63, Type (0, 0), BuildingBlock: AJUNOK_clean_linker_0, # of connection points: 2
#     Edge 64, Type (0, 0), BuildingBlock: AJUNOK_clean_linker_0, # of connection points: 2
#     Edge 65, Type (0, 0), BuildingBlock: AJUNOK_clean_linker_0, # of connection points: 2
#     Edge 66, Type (0, 0), BuildingBlock: AJUNOK_clean_linker_0, # of connection points: 2
#     Edge 67, Type (0, 0), BuildingBlock: AJUNOK_clean_linker_0, # of connection points: 2
#     Edge 68, Type (0, 0), BuildingBlock: AJUNOK_clean_linker_0, # of connection points: 2
#     Edge 69, Type (0, 0), BuildingBlock: AJUNOK_clean_linker_0, # of connection points: 2
#     Edge 70, Type (0, 0), BuildingBlock: AJUNOK_clean_linker_0, # of connection points: 2
#     Edge 71, Type (0, 0), BuildingBlock: AJUNOK_clean_linker_0, # of connection points: 2
#     Edge 72, Type (0, 0), BuildingBlock: AJUNOK_clean_linker_0, # of connection points: 2
#     Edge 73, Type (0, 0), BuildingBlock: AJUNOK_clean_linker_0, # of connection points: 2
#     Edge 74, Type (0, 0), BuildingBlock: AJUNOK_clean_linker_0, # of connection points: 2
#     Edge 75, Type (0, 0), BuildingBlock: AJUNOK_clean_linker_0, # of connection points: 2
#     Edge 76, Type (0, 0), BuildingBlock: AJUNOK_clean_linker_0, # of connection points: 2
#     Edge 77, Type (0, 0), BuildingBlock: AJUNOK_clean_linker_0, # of connection points: 2
#     Edge 78, Type (0, 0), BuildingBlock: AJUNOK_clean_linker_0, # of connection points: 2
#     Edge 79, Type (0, 0), BuildingBlock: AJUNOK_clean_linker_0, # of connection points: 2
#     Edge 80, Type (0, 0), BuildingBlock: AJUNOK_clean_linker_0, # of connection points: 2
#     Edge 81, Type (0, 0), BuildingBlock: AJUNOK_clean_linker_0, # of connection points: 2
#     Edge 82, Type (0, 0), BuildingBlock: AJUNOK_clean_linker_0, # of connection points: 2
#     Edge 83, Type (0, 0), BuildingBlock: AJUNOK_clean_linker_0, # of connection points: 2
#     Edge 84, Type (0, 0), BuildingBlock: AJUNOK_clean_linker_0, # of connection points: 2
#     Edge 85, Type (0, 0), BuildingBlock: AJUNOK_clean_linker_0, # of connection points: 2
#     Edge 86, Type (0, 0), BuildingBlock: AJUNOK_clean_linker_0, # of connection points: 2
#     Edge 87, Type (0, 0), BuildingBlock: AJUNOK_clean_linker_0, # of connection points: 2
#     Edge 88, Type (0, 0), BuildingBlock: AJUNOK_clean_linker_0, # of connection points: 2
#     Edge 89, Type (0, 0), BuildingBlock: AJUNOK_clean_linker_0, # of connection points: 2
#     Edge 90, Type (0, 0), BuildingBlock: AJUNOK_clean_linker_0, # of connection points: 2
#     Edge 91, Type (0, 0), BuildingBlock: AJUNOK_clean_linker_0, # of connection points: 2
#     Edge 92, Type (0, 0), BuildingBlock: AJUNOK_clean_linker_0, # of connection points: 2
#     Edge 93, Type (0, 0), BuildingBlock: AJUNOK_clean_linker_0, # of connection points: 2
#     Edge 94, Type (0, 0), BuildingBlock: AJUNOK_clean_linker_0, # of connection points: 2
#     Edge 95, Type (0, 0), BuildingBlock: AJUNOK_clean_linker_0, # of connection points: 2
# Relax obj value: 0.072
# Max RMSD: 0.112
# Mean RMSD: 0.112
data_MOF--net-uox--node1-ICAMEG_clean_sbu_1--edge1-AJUNOK_clean_linker_0
_symmetry_space_group_name_H-M    P1
_symmetry_Int_Tables_number       1
_symmetry_cell_setting            triclinic
loop_
_symmetry_equiv_pos_as_xyz
'x, y, z'
_cell_length_a     35.94191
_cell_length_b     35.943572
_cell_length_c     63.488571
_cell_angle_alpha  90.01795
_cell_angle_beta   90.000188
_cell_angle_gamma 90.013374
loop_
_atom_site_label
_atom_site_type_symbol
_atom_site_fract_x
_atom_site_fract_y
_atom_site_fract_z
_atom_type_partial_charge
Co0 Co 0.42742 0.05031 0.14323 0.0
Co1 Co 0.43253 0.09901 0.18964 0.0
O2 O 0.41915 0.05383 0.17384 0.0
C3 C 0.34933 0.02309 0.14759 0.0
O4 O 0.34286 0.04956 0.16135 0.0
C5 C 0.46031 0.03699 0.21786 0.0
O6 O 0.47153 0.0183 0.20127 0.0
O7 O 0.48508 0.09591 0.1791 0.0
O8 O 0.47359 0.08111 0.1454 0.0
H9 H 0.49223 0.22438 0.19829 0.0
H10 H 0.41542 0.98121 0.16764 0.0
O11 O 0.3815 0.01926 0.13953 0.0
H12 H 0.54015 0.96799 0.13616 0.0
H13 H 0.43121 0.98447 0.0732 0.0
H14 H 0.4491 0.10399 0.10993 0.0
H15 H 0.50232 0.02393 0.1293 0.0
H16 H 0.42191 0.98904 0.1116 0.0
O17 O 0.44552 0.06894 0.21553 0.0
H18 H 0.47416 0.16765 0.1791 0.0
H19 H 0.4199 0.126 0.23366 0.0
H20 H 0.459 0.10061 0.07157 0.0
H21 H 0.45218 0.92462 0.17477 0.0
H22 H 0.45004 0.04049 0.05293 0.0
H23 H 0.51507 0.91782 0.15901 0.0
O24 O 0.39766 0.09633 0.13841 0.0
H25 H 0.31445 0.04713 0.22014 0.0
H26 H 0.37573 0.15965 0.19244 0.0
H27 H 0.31044 0.16311 0.20413 0.0
H28 H 0.27937 0.10657 0.21817 0.0
H29 H 0.3796 0.04485 0.20803 0.0
H30 H 0.43758 0.18231 0.25349 0.0
H31 H 0.4739 0.2321 0.23576 0.0
O32 O 0.41885 0.13139 0.16496 0.0
C33 C 0.49493 0.0937 0.15979 0.0
C34 C 0.47634 0.20298 0.20618 0.0
C35 C 0.44572 0.17932 0.23716 0.0
N36 N 0.44591 0.14355 0.20521 0.0
C37 C 0.46598 0.17076 0.19538 0.0
C38 C 0.43589 0.14743 0.22587 0.0
C39 C 0.46608 0.20725 0.22721 0.0
C40 C 0.44261 0.97825 0.16056 0.0
N41 N 0.45664 0.00575 0.14802 0.0
C42 C 0.46336 0.94623 0.16472 0.0
C43 C 0.49867 0.94246 0.15591 0.0
C44 C 0.51277 0.97062 0.1431 0.0
C45 C 0.49126 1.00228 0.13932 0.0
C46 C 0.43532 0.01079 0.08115 0.0
C47 C 0.4455 0.07767 0.10199 0.0
C48 C 0.43006 0.01357 0.10289 0.0
N49 N 0.43537 0.04669 0.11306 0.0
C50 C 0.45099 0.07595 0.08023 0.0
C51 C 0.4459 0.04223 0.06979 0.0
C52 C 0.40197 0.12781 0.14735 0.0
C53 C 0.32771 0.07199 0.21412 0.0
C54 C 0.36237 0.13489 0.19838 0.0
C55 C 0.32542 0.13704 0.20507 0.0
C56 C 0.30802 0.10532 0.21296 0.0
N57 N 0.38151 0.10209 0.19955 0.0
C58 C 0.36464 0.0709 0.20731 0.0
Co59 Co 0.21033 0.17859 0.39463 0.0
Co60 Co 0.16218 0.18171 0.44138 0.0
O61 O 0.2074 0.16977 0.42524 0.0
C62 C 0.23859 0.10102 0.39894 0.0
O63 O 0.2124 0.09467 0.41288 0.0
C64 C 0.22432 0.20963 0.46972 0.0
O65 O 0.24338 0.22039 0.45318 0.0
O66 O 0.16376 0.23444 0.43109 0.0
O67 O 0.17877 0.22425 0.39724 0.0
H68 H 0.03555 0.23814 0.45084 0.0
H69 H 0.28005 0.16715 0.41858 0.0
O70 O 0.24195 0.13302 0.39059 0.0
H71 H 0.29089 0.29262 0.38778 0.0
H72 H 0.27494 0.18416 0.32428 0.0
H73 H 0.15606 0.20108 0.36179 0.0
H74 H 0.23533 0.25412 0.38106 0.0
H75 H 0.27104 0.17392 0.36263 0.0
O76 O 0.19223 0.19512 0.46728 0.0
H77 H 0.0924 0.22177 0.43134 0.0
H78 H 0.13604 0.16758 0.48542 0.0
H79 H 0.15877 0.21193 0.32351 0.0
H80 H 0.33629 0.20458 0.42556 0.0
H81 H 0.21856 0.20345 0.30447 0.0
H82 H 0.34189 0.26784 0.41014 0.0
O83 O 0.16469 0.14824 0.38974 0.0
H84 H 0.21745 0.0647 0.47125 0.0
H85 H 0.10311 0.12324 0.44406 0.0
H86 H 0.10148 0.05775 0.4555 0.0
H87 H 0.15894 0.02806 0.46929 0.0
H88 H 0.21791 0.13 0.45936 0.0
H89 H 0.07953 0.18344 0.50554 0.0
H90 H 0.02867 0.21884 0.48822 0.0
O91 O 0.12975 0.1676 0.41677 0.0
C92 C 0.16572 0.24478 0.41186 0.0
C93 C 0.05738 0.22259 0.45856 0.0
C94 C 0.08214 0.19196 0.48926 0.0
N95 N 0.11753 0.19366 0.45719 0.0
C96 C 0.0897 0.21323 0.44758 0.0
C97 C 0.11413 0.18316 0.4778 0.0
C98 C 0.0536 0.21181 0.47953 0.0
C99 C 0.28249 0.19451 0.41165 0.0
N100 N 0.25453 0.20838 0.39938 0.0
C101 C 0.31431 0.21563 0.41573 0.0
C102 C 0.31741 0.25116 0.4071 0.0
C103 C 0.28878 0.26509 0.39457 0.0
C104 C 0.25734 0.2432 0.39087 0.0
C105 C 0.24875 0.18802 0.3324 0.0
C106 C 0.18224 0.19762 0.35368 0.0
C107 C 0.24635 0.18219 0.35411 0.0
N108 N 0.2134 0.18718 0.36449 0.0
C109 C 0.18357 0.20367 0.33197 0.0
C110 C 0.21711 0.19886 0.3213 0.0
C111 C 0.13331 0.15153 0.39892 0.0
C112 C 0.1922 0.07735 0.46534 0.0
C113 C 0.12827 0.11048 0.44988 0.0
C114 C 0.12715 0.07341 0.45643 0.0
C115 C 0.15938 0.05679 0.46419 0.0
N116 N 0.16056 0.13048 0.45104 0.0
C117 C 0.19225 0.11438 0.45867 0.0
Co118 Co 0.08296 0.96288 0.64354 0.0
Co119 Co 0.07391 0.91372 0.68944 0.0
O120 O 0.08991 0.95878 0.67425 0.0
C121 C 0.16139 0.98957 0.64933 0.0
O122 O 0.16644 0.96508 0.66438 0.0
C123 C 0.04955 0.97612 0.71888 0.0
O124 O 0.04216 0.99772 0.70274 0.0
O125 O 0.02192 0.92025 0.67862 0.0
O126 O 0.03567 0.93338 0.64502 0.0
H127 H 1.00297 0.7943 0.69789 0.0
H128 H 0.09588 0.03157 0.66816 0.0
O129 O 0.1299 0.99269 0.64035 0.0
H130 H 0.97321 0.04862 0.63474 0.0
H131 H 0.08408 0.02904 0.57358 0.0
H132 H 0.06162 0.90984 0.60981 0.0
H133 H 0.00947 0.9914 0.6286 0.0
H134 H 0.09123 0.02417 0.6121 0.0
O135 O 0.06185 0.94328 0.71578 0.0
H136 H 0.02473 0.84995 0.67908 0.0
H137 H 0.08794 0.88296 0.73243 0.0
H138 H 0.05368 0.91359 0.57131 0.0
H139 H 0.06074 0.08948 0.67454 0.0
H140 H 0.065 0.97353 0.55292 0.0
H141 H 0.99889 0.09821 0.65781 0.0
O142 O 0.11167 0.91613 0.63909 0.0
H143 H 0.19351 0.95681 0.72239 0.0
H144 H 0.12782 0.85031 0.69051 0.0
H145 H 0.19247 0.84255 0.70265 0.0
H146 H 0.22572 0.896 0.71883 0.0
H147 H 0.12902 0.96354 0.70968 0.0
H148 H 0.06718 0.8273 0.75178 0.0
H149 H 0.02473 0.78227 0.73447 0.0
O150 O 0.08601 0.88125 0.66438 0.0
C151 C 0.01304 0.92216 0.65915 0.0
C152 C 0.0218 0.81342 0.70558 0.0
C153 C 0.05777 0.83203 0.73581 0.0
N154 N 0.0579 0.86955 0.70452 0.0
C155 C 0.03418 0.84511 0.69499 0.0
C156 C 0.06943 0.86351 0.72476 0.0
C157 C 0.03388 0.8068 0.72609 0.0
C158 C 0.06913 0.03536 0.66068 0.0
N159 N 0.05481 0.00823 0.64799 0.0
C160 C 0.0493 0.06812 0.66441 0.0
C161 C 0.01457 0.07297 0.65505 0.0
C162 C 1.00013 0.04514 0.64212 0.0
C163 C 0.02074 0.01275 0.63876 0.0
C164 C 0.07891 1.0028 0.58142 0.0
C165 C 0.0662 0.9361 0.60198 0.0
C166 C 0.08295 0.99985 0.60324 0.0
N167 N 0.0764 0.96683 0.61326 0.0
C168 C 0.06183 0.93802 0.58014 0.0
C169 C 0.06822 0.97165 0.56984 0.0
C170 C 0.10452 0.88453 0.64726 0.0
C171 C 0.17928 0.93328 0.71543 0.0
C172 C 0.14217 0.87382 0.69735 0.0
C173 C 0.17874 0.86919 0.70429 0.0
C174 C 0.19736 0.89917 0.71339 0.0
N175 N 0.12458 0.90736 0.69945 0.0
C176 C 0.14269 0.93688 0.70831 0.0
Co177 Co 0.30103 0.83373 0.89474 0.0
Co178 Co 0.34876 0.82749 0.94164 0.0
O179 O 0.30363 0.84062 0.92555 0.0
C180 C 0.27216 0.91132 0.90015 0.0
O181 O 0.29636 0.91703 0.91527 0.0
C182 C 0.28492 0.80112 0.96944 0.0
O183 O 0.26333 0.79731 0.95292 0.0
O184 O 0.34748 0.77552 0.93015 0.0
O185 O 0.33207 0.78752 0.89664 0.0
H186 H 0.47508 0.76994 0.95049 0.0
H187 H 0.23051 0.84461 0.91801 0.0
O188 O 0.26983 0.87971 0.89122 0.0
H189 H 0.21955 0.72104 0.88482 0.0
H190 H 0.23782 0.83353 0.82391 0.0
H191 H 0.35596 0.81384 0.86175 0.0
H192 H 0.27592 0.75908 0.87967 0.0
H193 H 0.24082 0.84034 0.86251 0.0
O194 O 0.31855 0.81171 0.9671 0.0
H195 H 0.41862 0.78796 0.93103 0.0
H196 H 0.37449 0.83889 0.986 0.0
H197 H 0.35413 0.80634 0.82317 0.0
H198 H 0.17338 0.8077 0.92334 0.0
H199 H 0.29474 0.81628 0.80397 0.0
H200 H 0.16771 0.74538 0.90673 0.0
O201 O 0.34677 0.86414 0.89076 0.0
H202 H 0.29314 0.94202 0.97439 0.0
H203 H 0.40772 0.88567 0.94608 0.0
H204 H 0.40933 0.95005 0.95938 0.0
H205 H 0.35177 0.97861 0.97378 0.0
H206 H 0.29267 0.87794 0.96057 0.0
H207 H 0.43037 0.82102 1.00612 0.0
H208 H 0.48127 0.78635 0.98833 0.0
O209 O 0.38152 0.84356 0.91756 0.0
C210 C 0.34528 0.76601 0.91079 0.0
C211 C 0.45316 0.78503 0.95843 0.0
C212 C 0.42804 0.81368 0.98964 0.0
N213 N 0.39323 0.81445 0.95735 0.0
C214 C 0.4211 0.79537 0.94747 0.0
C215 C 0.39638 0.8236 0.97818 0.0
C216 C 0.45658 0.79424 0.97966 0.0
C217 C 0.22808 0.81766 0.91059 0.0
N218 N 0.25648 0.80404 0.89856 0.0
C219 C 0.19574 0.79682 0.91372 0.0
C220 C 0.19261 0.76183 0.90443 0.0
C221 C 0.2217 0.74814 0.89216 0.0
C222 C 0.25363 0.76974 0.88938 0.0
C223 C 0.26384 0.82898 0.8321 0.0
C224 C 0.32992 0.81778 0.85355 0.0
C225 C 0.26572 0.83282 0.85396 0.0
N226 N 0.29848 0.82709 0.86443 0.0
C227 C 0.32909 0.81367 0.83168 0.0
C228 C 0.29578 0.8193 0.82092 0.0
C229 C 0.37801 0.86065 0.90001 0.0
C230 C 0.31844 0.92985 0.96822 0.0
C231 C 0.38249 0.89797 0.95211 0.0
C232 C 0.38361 0.9344 0.95973 0.0
C233 C 0.35132 0.95039 0.96783 0.0
N234 N 0.35015 0.87795 0.95257 0.0
C235 C 0.31838 0.89348 0.96047 0.0
Co236 Co 0.42362 0.95924 0.37848 0.0
Co237 Co 0.42949 0.91185 0.33148 0.0
O238 O 0.41635 0.95686 0.34765 0.0
C239 C 0.34683 0.99028 0.37262 0.0
O240 O 0.34133 0.96773 0.35667 0.0
C241 C 0.45632 0.97522 0.30348 0.0
O242 O 0.46113 0.99672 0.31997 0.0
O243 O 0.48156 0.91377 0.34265 0.0
O244 O 0.46953 0.92788 0.37641 0.0
H245 H 0.48755 0.78582 0.32257 0.0
H246 H 0.41304 0.02979 0.35518 0.0
O247 O 0.37788 0.9907 0.38223 0.0
H248 H 0.53689 0.04002 0.3881 0.0
H249 H 0.42491 0.02224 0.44939 0.0
H250 H 0.44438 0.9043 0.41134 0.0
H251 H 0.49849 0.98393 0.39338 0.0
H252 H 0.41728 0.01929 0.41084 0.0
O253 O 0.44467 0.94198 0.3059 0.0
H254 H 0.46975 0.84237 0.34197 0.0
H255 H 0.41735 0.88571 0.28725 0.0
H256 H 0.45276 0.90609 0.44983 0.0
H257 H 0.4503 0.08664 0.34972 0.0
H258 H 0.44292 0.96539 0.46916 0.0
H259 H 0.51277 0.09194 0.3662 0.0
O260 O 0.39313 0.91346 0.38254 0.0
H261 H 0.31443 0.96606 0.29864 0.0
H262 H 0.37144 0.85254 0.32785 0.0
H263 H 0.30694 0.85032 0.31478 0.0
H264 H 0.27805 0.90734 0.29993 0.0
H265 H 0.37865 0.96718 0.31229 0.0
H266 H 0.4349 0.82965 0.26719 0.0
H267 H 0.47016 0.77908 0.28489 0.0
O268 O 0.41422 0.87905 0.35571 0.0
C269 C 0.49093 0.91544 0.36202 0.0
C270 C 0.47217 0.80757 0.31467 0.0
C271 C 0.44266 0.83221 0.2836 0.0
N272 N 0.44256 0.86739 0.31577 0.0
C273 C 0.46198 0.83971 0.32559 0.0
C274 C 0.43292 0.86397 0.29503 0.0
C275 C 0.46242 0.80385 0.29353 0.0
C276 C 0.44004 0.03207 0.36256 0.0
N277 N 0.45352 1.00363 0.3746 0.0
C278 C 0.46108 0.06425 0.35934 0.0
C279 C 0.49615 0.06717 0.36856 0.0
C280 C 0.50972 0.03803 0.38083 0.0
C281 C 0.4879 0.00627 0.38369 0.0
C282 C 0.42938 0.99626 0.44115 0.0
C283 C 0.44045 0.93028 0.41957 0.0
C284 C 0.42504 0.99439 0.41931 0.0
N285 N 0.43068 0.96168 0.40878 0.0
C286 C 0.44507 0.9311 0.4414 0.0
C287 C 0.43949 0.96436 0.45223 0.0
C288 C 0.39726 0.88221 0.37332 0.0
C289 C 0.32674 0.941 0.30503 0.0
C290 C 0.35898 0.87756 0.32165 0.0
C291 C 0.32249 0.87609 0.31415 0.0
C292 C 0.30632 0.90807 0.30579 0.0
N293 N 0.37887 0.90996 0.32084 0.0
C294 C 0.36317 0.94142 0.31268 0.0
Co295 Co 0.30131 0.17533 0.63087 0.0
Co296 Co 0.34912 0.1854 0.58454 0.0
O297 O 0.30455 0.16892 0.60007 0.0
C298 C 0.27316 0.09763 0.62418 0.0
O299 O 0.29696 0.09308 0.60873 0.0
C300 C 0.28507 0.20791 0.55577 0.0
O301 O 0.26306 0.21227 0.57208 0.0
O302 O 0.34267 0.23713 0.59575 0.0
O303 O 0.3309 0.22254 0.6294 0.0
H304 H 0.46828 0.2566 0.57578 0.0
H305 H 0.23165 0.16289 0.60699 0.0
O306 O 0.27138 0.1284 0.63403 0.0
H307 H 0.21612 0.28511 0.64118 0.0
H308 H 0.23712 0.17361 0.70143 0.0
H309 H 0.3553 0.19634 0.66417 0.0
H310 H 0.27351 0.2487 0.64643 0.0
H311 H 0.24098 0.16647 0.66286 0.0
O312 O 0.31881 0.19801 0.55854 0.0
H313 H 0.41314 0.23418 0.59484 0.0
H314 H 0.37847 0.17312 0.54103 0.0
H315 H 0.35258 0.20418 0.70271 0.0
H316 H 0.17355 0.19814 0.60155 0.0
H317 H 0.29315 0.19276 0.72161 0.0
H318 H 0.16557 0.25978 0.61867 0.0
O319 O 0.34815 0.14649 0.63468 0.0
H320 H 0.30566 0.06621 0.55124 0.0
H321 H 0.41279 0.13198 0.58239 0.0
H322 H 0.42059 0.06766 0.56967 0.0
H323 H 0.36682 0.03438 0.55386 0.0
H324 H 0.29893 0.13036 0.56447 0.0
H325 H 0.43345 0.19482 0.52135 0.0
H326 H 0.47904 0.23663 0.53877 0.0
O327 O 0.38232 0.17282 0.60928 0.0
C328 C 0.3415 0.24552 0.6153 0.0
C329 C 0.44889 0.23813 0.56803 0.0
C330 C 0.42927 0.2035 0.53751 0.0
N331 N 0.39281 0.20196 0.56919 0.0
C332 C 0.41754 0.22532 0.57878 0.0
C333 C 0.39818 0.1913 0.54874 0.0
C334 C 0.45482 0.227 0.54728 0.0
C335 C 0.22821 0.18952 0.61465 0.0
N336 N 0.25588 0.20366 0.62704 0.0
C337 C 0.19533 0.20943 0.61144 0.0
C338 C 0.1909 0.24404 0.62102 0.0
C339 C 0.21926 0.25829 0.63363 0.0
C340 C 0.25177 0.2376 0.63647 0.0
C341 C 0.26315 0.17877 0.69336 0.0
C342 C 0.32927 0.19163 0.67224 0.0
C343 C 0.26553 0.17472 0.67152 0.0
N344 N 0.29826 0.18139 0.66121 0.0
C345 C 0.32793 0.19597 0.69408 0.0
C346 C 0.29459 0.18953 0.70468 0.0
C347 C 0.37954 0.15401 0.62633 0.0
C348 C 0.32933 0.08047 0.55801 0.0
C349 C 0.38916 0.11762 0.57569 0.0
C350 C 0.3938 0.08123 0.56843 0.0
C351 C 0.36363 0.06259 0.55954 0.0
N352 N 0.35543 0.13501 0.5741 0.0
C353 C 0.32574 0.11688 0.56543 0.0
Co354 Co 0.08626 0.0504 0.87938 0.0
Co355 Co 0.08201 0.09886 0.83199 0.0
O356 O 0.09347 0.05374 0.84853 0.0
C357 C 0.16401 0.02208 0.8737 0.0
O358 O 0.16973 0.04705 0.85898 0.0
C359 C 0.05133 0.03525 0.80528 0.0
O360 O 0.04823 0.01399 0.82197 0.0
O361 O 0.03092 0.10183 0.84476 0.0
O362 O 0.04003 0.08085 0.87764 0.0
H363 H 0.03416 0.22931 0.82396 0.0
H364 H 0.09864 0.98053 0.85562 0.0
O365 O 0.13256 0.01965 0.88278 0.0
H366 H 0.97414 0.96749 0.8874 0.0
H367 H 0.08464 0.98431 0.94936 0.0
H368 H 0.06431 0.10358 0.91287 0.0
H369 H 0.01149 0.02401 0.89351 0.0
H370 H 0.09336 0.98917 0.91094 0.0
O371 O 0.062 0.0689 0.80737 0.0
H372 H 0.05063 0.17218 0.84329 0.0
H373 H 0.08761 0.12165 0.78653 0.0
H374 H 0.05492 0.09995 0.95128 0.0
H375 H 0.06243 0.92327 0.84934 0.0
H376 H 0.06512 0.03993 0.9698 0.0
H377 H 0.99963 0.91657 0.86523 0.0
O378 O 0.11572 0.09668 0.88411 0.0
H379 H 0.19045 0.03157 0.79961 0.0
H380 H 0.14068 0.15412 0.82003 0.0
H381 H 0.20308 0.15006 0.80407 0.0
H382 H 0.22841 0.08839 0.79377 0.0
H383 H 0.12835 0.03695 0.81568 0.0
H384 H 0.0709 0.178 0.76656 0.0
H385 H 0.04412 0.23246 0.7853 0.0
O386 O 0.10353 0.131 0.85522 0.0
C387 C 0.0202 0.09691 0.86374 0.0
C388 C 0.04585 0.20581 0.81562 0.0
C389 C 0.0664 0.17697 0.7834 0.0
N390 N 0.07024 0.1436 0.81611 0.0
C391 C 0.05539 0.17341 0.8265 0.0
C392 C 0.0756 0.14503 0.79479 0.0
C393 C 0.05142 0.20753 0.79393 0.0
C394 C 0.07152 0.97762 0.86278 0.0
N395 N 0.05724 0.00556 0.87492 0.0
C396 C 0.05106 0.94522 0.85909 0.0
C397 C 0.0158 0.94151 0.86796 0.0
C398 C 1.00145 0.97009 0.88038 0.0
C399 C 0.02268 1.00212 0.8837 0.0
C400 C 0.08005 0.01061 0.94148 0.0
C401 C 0.06859 0.07738 0.92079 0.0
C402 C 0.08502 0.01356 0.91972 0.0
N403 N 0.0791 0.04664 0.90963 0.0
C404 C 0.06333 0.07548 0.94255 0.0
C405 C 0.06909 0.04182 0.95293 0.0
C406 C 0.11721 0.12706 0.87375 0.0
C407 C 0.17984 0.05859 0.80414 0.0
C408 C 0.1517 0.12717 0.81587 0.0
C409 C 0.18695 0.12505 0.80668 0.0
C410 C 0.20112 0.09047 0.80087 0.0
N411 N 0.13112 0.0958 0.81925 0.0
C412 C 0.14465 0.06184 0.81329 0.0
Co413 Co 0.20748 0.8381 0.12852 0.0
Co414 Co 0.15864 0.82601 0.0827 0.0
O415 O 0.20294 0.84416 0.0978 0.0
C416 C 0.24019 0.91432 0.1197 0.0
O417 O 0.22601 0.91485 0.10068 0.0
C418 C 0.22154 0.80019 0.05473 0.0
O419 O 0.23987 0.78913 0.07149 0.0
O420 O 0.16702 0.7747 0.09397 0.0
O421 O 0.1797 0.78977 0.12742 0.0
H422 H 0.04076 0.75203 0.07506 0.0
H423 H 0.27521 0.85161 0.1029 0.0
O424 O 0.23551 0.88631 0.13167 0.0
H425 H 0.29685 0.73161 0.13842 0.0
H426 H 0.27343 0.84305 0.1985 0.0
H427 H 0.1551 0.81587 0.16237 0.0
H428 H 0.23884 0.76658 0.14452 0.0
H429 H 0.26841 0.84913 0.15993 0.0
O430 O 0.18935 0.8146 0.05681 0.0
H431 H 0.09577 0.77616 0.09374 0.0
H432 H 0.12909 0.83553 0.03907 0.0
H433 H 0.15902 0.80896 0.20093 0.0
H434 H 0.33374 0.81775 0.09649 0.0
H435 H 0.21853 0.82264 0.21927 0.0
H436 H 0.34485 0.75723 0.11429 0.0
O437 O 0.15981 0.86528 0.13263 0.0
H438 H 0.19636 0.94581 0.04789 0.0
H439 H 0.09304 0.87704 0.08097 0.0
H440 H 0.08237 0.94068 0.0679 0.0
H441 H 0.13421 0.97549 0.05113 0.0
H442 H 0.20599 0.88229 0.06151 0.0
H443 H 0.07435 0.81211 0.0198 0.0
H444 H 0.02958 0.77032 0.03783 0.0
O445 O 0.12562 0.83773 0.10761 0.0
C446 C 0.16925 0.7664 0.11349 0.0
C447 C 0.05989 0.77048 0.06706 0.0
C448 C 0.07879 0.80416 0.03605 0.0
N449 N 0.11535 0.80769 0.06764 0.0
C450 C 0.09111 0.78426 0.07757 0.0
C451 C 0.10974 0.81733 0.04705 0.0
C452 C 0.05368 0.78066 0.04618 0.0
C453 C 0.28001 0.82557 0.11093 0.0
N454 N 0.25378 0.81134 0.12425 0.0
C455 C 0.31315 0.8064 0.10714 0.0
C456 C 0.31932 0.77241 0.11709 0.0
C457 C 0.2924 0.75801 0.13062 0.0
C458 C 0.25957 0.77792 0.13399 0.0
C459 C 0.2474 0.83685 0.19069 0.0
C460 C 0.18119 0.82147 0.17019 0.0
C461 C 0.24436 0.84028 0.16884 0.0
N462 N 0.2116 0.83238 0.15884 0.0
C463 C 0.1832 0.81768 0.19205 0.0
C464 C 0.21658 0.82541 0.20233 0.0
C465 C 0.12842 0.85703 0.12449 0.0
C466 C 0.17354 0.93093 0.05515 0.0
C467 C 0.11589 0.89211 0.07393 0.0
C468 C 0.1096 0.92809 0.06644 0.0
C469 C 0.13868 0.94758 0.05701 0.0
N470 N 0.15019 0.87597 0.07209 0.0
C471 C 0.17879 0.89489 0.06282 0.0
Co472 Co 0.58792 0.95879 0.88006 0.0
Co473 Co 0.57576 0.91177 0.8336 0.0
O474 O 0.59329 0.95597 0.84915 0.0
C475 C 0.66561 0.98674 0.87273 0.0
O476 O 0.66952 0.9636 0.85691 0.0
C477 C 0.55262 0.97617 0.80542 0.0
O478 O 0.5489 0.99801 0.82185 0.0
O479 O 0.5246 0.91863 0.84542 0.0
O480 O 0.5403 0.9298 0.87896 0.0
H481 H 0.50303 0.79317 0.82542 0.0
H482 H 0.60024 0.02861 0.85634 0.0
O483 O 0.6352 0.98821 0.88294 0.0
H484 H 0.4794 0.045 0.89193 0.0
H485 H 0.5923 0.02188 0.95092 0.0
H486 H 0.56778 0.9044 0.9133 0.0
H487 H 0.51539 0.98719 0.89656 0.0
H488 H 0.59817 0.01859 0.91227 0.0
O489 O 0.56248 0.9424 0.80792 0.0
H490 H 0.52704 0.84788 0.84441 0.0
H491 H 0.58572 0.88272 0.7898 0.0
H492 H 0.56124 0.90655 0.95192 0.0
H493 H 0.56541 0.08713 0.85151 0.0
H494 H 0.57354 0.96563 0.97101 0.0
H495 H 0.50446 0.09554 0.86933 0.0
O496 O 0.61644 0.91161 0.88335 0.0
H497 H 0.69411 0.95482 0.79923 0.0
H498 H 0.62841 0.84756 0.83022 0.0
H499 H 0.69216 0.83945 0.8167 0.0
H500 H 0.72542 0.89329 0.80098 0.0
H501 H 0.63052 0.96182 0.81326 0.0
H502 H 0.56234 0.82832 0.77021 0.0
H503 H 0.52082 0.78294 0.78805 0.0
O504 O 0.58902 0.87832 0.85797 0.0
C505 C 0.51672 0.91979 0.86503 0.0
C506 C 0.52123 0.81262 0.81748 0.0
C507 C 0.55452 0.83235 0.78651 0.0
N508 N 0.55807 0.86836 0.81833 0.0
C509 C 0.53492 0.84372 0.82816 0.0
C510 C 0.56767 0.86313 0.7977 0.0
C511 C 0.5312 0.80692 0.79652 0.0
C512 C 0.57392 0.03223 0.8643 0.0
N513 N 0.55994 1.00457 0.87675 0.0
C514 C 0.55424 0.06535 0.86144 0.0
C515 C 0.52002 0.07003 0.87141 0.0
C516 C 0.50592 0.04167 0.88408 0.0
C517 C 0.52637 0.00892 0.88657 0.0
C518 C 0.58674 0.99601 0.94278 0.0
C519 C 0.57287 0.93028 0.92145 0.0
C520 C 0.59006 0.99395 0.92089 0.0
N521 N 0.58287 0.96142 0.91048 0.0
C522 C 0.56926 0.9313 0.94334 0.0
C523 C 0.57621 0.96444 0.95404 0.0
C524 C 0.60861 0.88051 0.87475 0.0
C525 C 0.67986 0.93111 0.80598 0.0
C526 C 0.64276 0.87121 0.82357 0.0
C527 C 0.67882 0.8664 0.81585 0.0
C528 C 0.69744 0.8966 0.807 0.0
N529 N 0.62566 0.90514 0.82248 0.0
C530 C 0.64377 0.93487 0.81384 0.0
Co531 Co 0.79729 0.83543 0.62973 0.0
Co532 Co 0.84548 0.82754 0.58311 0.0
O533 O 0.80027 0.8414 0.59887 0.0
C534 C 0.76879 0.91254 0.62305 0.0
O535 O 0.79405 0.91753 0.60841 0.0
C536 C 0.78168 0.80221 0.55482 0.0
O537 O 0.75926 0.80007 0.57107 0.0
O538 O 0.84334 0.77586 0.595 0.0
O539 O 0.82839 0.78926 0.62845 0.0
H540 H 0.97132 0.76859 0.57566 0.0
H541 H 0.72703 0.8456 0.60606 0.0
O542 O 0.76607 0.88149 0.63254 0.0
H543 H 0.71585 0.72286 0.64017 0.0
H544 H 0.73279 0.83654 0.70019 0.0
H545 H 0.85163 0.81624 0.66317 0.0
H546 H 0.77203 0.76118 0.64531 0.0
H547 H 0.73661 0.84311 0.66158 0.0
O548 O 0.81564 0.81146 0.55751 0.0
H549 H 0.91459 0.78755 0.59449 0.0
H550 H 0.87236 0.83774 0.53885 0.0
H551 H 0.849 0.80906 0.70175 0.0
H552 H 0.67007 0.80842 0.60075 0.0
H553 H 0.78923 0.81926 0.72053 0.0
H554 H 0.6643 0.7465 0.61781 0.0
O555 O 0.84305 0.8659 0.63365 0.0
H556 H 0.7914 0.94208 0.5496 0.0
H557 H 0.90513 0.885 0.57851 0.0
H558 H 0.90753 0.94915 0.56491 0.0
H559 H 0.85038 0.97809 0.55023 0.0
H560 H 0.79015 0.87823 0.56368 0.0
H561 H 0.92862 0.81897 0.51932 0.0
H562 H 0.97874 0.78423 0.53776 0.0
O563 O 0.87801 0.8439 0.60729 0.0
C564 C 0.84116 0.76715 0.61448 0.0
C565 C 0.94979 0.78373 0.56742 0.0
C566 C 0.92577 0.81197 0.53582 0.0
N567 N 0.89013 0.81369 0.5678 0.0
C568 C 0.91755 0.79458 0.57803 0.0
C569 C 0.8939 0.82239 0.54694 0.0
C570 C 0.95388 0.79249 0.54617 0.0
C571 C 0.72455 0.81884 0.6137 0.0
N572 N 0.7528 0.8056 0.62597 0.0
C573 C 0.69231 0.79784 0.61056 0.0
C574 C 0.68912 0.76308 0.62011 0.0
C575 C 0.71805 0.74978 0.63264 0.0
C576 C 0.74987 0.77154 0.63541 0.0
C577 C 0.75897 0.83191 0.69218 0.0
C578 C 0.82545 0.82036 0.67119 0.0
C579 C 0.76132 0.83564 0.67032 0.0
N580 N 0.79426 0.82968 0.66008 0.0
C581 C 0.82416 0.81642 0.69305 0.0
C582 C 0.79064 0.82221 0.70358 0.0
C583 C 0.87443 0.86169 0.62462 0.0
C584 C 0.81652 0.92974 0.55587 0.0
C585 C 0.88009 0.89744 0.57232 0.0
C586 C 0.88165 0.93375 0.56454 0.0
C587 C 0.8496 0.94995 0.55628 0.0
N588 N 0.84757 0.87774 0.57184 0.0
C589 C 0.81604 0.89347 0.56377 0.0
Co590 Co 0.92494 0.05168 0.37984 0.0
Co591 Co 0.93361 0.09974 0.33362 0.0
O592 O 0.91768 0.05508 0.34917 0.0
C593 C 0.84676 0.02403 0.37453 0.0
O594 O 0.84087 0.04915 0.35992 0.0
C595 C 0.95922 0.03691 0.30533 0.0
O596 O 0.97012 0.01802 0.32191 0.0
O597 O 0.98569 0.0936 0.34442 0.0
O598 O 0.97183 0.08164 0.37811 0.0
H599 H 1.00336 0.2198 0.32453 0.0
H600 H 0.91286 0.9826 0.35545 0.0
O601 O 0.87847 0.02127 0.38329 0.0
H602 H 0.0359 0.9675 0.38874 0.0
H603 H 0.92599 0.98687 0.45021 0.0
H604 H 0.94559 0.10578 0.41315 0.0
H605 H 0.99877 0.02415 0.39491 0.0
H606 H 0.91786 0.99094 0.41171 0.0
O607 O 0.94521 0.06921 0.30768 0.0
H608 H 0.98176 0.16438 0.34372 0.0
H609 H 0.9211 0.12846 0.29002 0.0
H610 H 0.9544 0.10287 0.45161 0.0
H611 H 0.94893 0.92531 0.34898 0.0
H612 H 0.94458 0.04307 0.47041 0.0
H613 H 0.01097 0.91755 0.36566 0.0
O614 O 0.89573 0.09825 0.38391 0.0
H615 H 0.81338 0.05552 0.30191 0.0
H616 H 0.88012 0.16336 0.33159 0.0
H617 H 0.81533 0.17081 0.31959 0.0
H618 H 0.78154 0.11667 0.30456 0.0
H619 H 0.87808 0.04918 0.31435 0.0
H620 H 0.94188 0.18371 0.27025 0.0
H621 H 0.98303 0.23002 0.28754 0.0
O622 O 0.92142 0.13275 0.35843 0.0
C623 C 0.99452 0.09243 0.36391 0.0
C624 C 0.98514 0.20004 0.31685 0.0
C625 C 0.95069 0.17973 0.28639 0.0
N626 N 0.94971 0.14346 0.31815 0.0
C627 C 0.97279 0.16856 0.32766 0.0
C628 C 0.939 0.1485 0.29768 0.0
C629 C 0.97382 0.20569 0.2961 0.0
C630 C 0.93968 0.97923 0.36292 0.0
N631 N 0.95361 0.00659 0.3756 0.0
C632 C 0.96004 0.94681 0.35913 0.0
C633 C 0.99487 0.94251 0.36846 0.0
C634 C 0.00889 0.97054 0.3814 0.0
C635 C 0.98778 1.0026 0.38479 0.0
C636 C 0.93049 0.01305 0.44218 0.0
C637 C 0.9416 0.07959 0.42117 0.0
C638 C 0.9259 0.01555 0.42038 0.0
N639 N 0.93174 0.04848 0.41012 0.0
C640 C 0.94648 0.07814 0.44297 0.0
C641 C 0.94092 0.04459 0.45351 0.0
C642 C 0.90256 0.12971 0.37544 0.0
C643 C 0.82785 0.07935 0.30836 0.0
C644 C 0.86557 0.13959 0.32518 0.0
C645 C 0.82891 0.14403 0.31834 0.0
C646 C 0.80998 0.11365 0.30989 0.0
N647 N 0.88294 0.10587 0.3236 0.0
C648 C 0.86455 0.07597 0.31534 0.0
Co649 Co 0.71144 0.17649 0.12876 0.0
Co650 Co 0.66217 0.18334 0.08264 0.0
O651 O 0.70748 0.16898 0.09808 0.0
C652 C 0.73905 0.09858 0.12335 0.0
O653 O 0.71407 0.09285 0.10864 0.0
C654 C 0.72401 0.21091 0.05412 0.0
O655 O 0.7431 0.22179 0.07063 0.0
O656 O 0.66634 0.23556 0.09353 0.0
O657 O 0.68095 0.22299 0.1271 0.0
H658 H 0.53766 0.24522 0.07529 0.0
H659 H 0.78012 0.16472 0.10395 0.0
O660 O 0.74216 0.13027 0.13207 0.0
H661 H 0.79476 0.28835 0.13663 0.0
H662 H 0.77786 0.17731 0.19864 0.0
H663 H 0.65821 0.19746 0.16245 0.0
H664 H 0.73858 0.25075 0.14332 0.0
H665 H 0.773 0.16977 0.16014 0.0
O666 O 0.69195 0.19638 0.05661 0.0
H667 H 0.59448 0.22587 0.09394 0.0
H668 H 0.63401 0.172 0.03874 0.0
H669 H 0.6619 0.2057 0.20093 0.0
H670 H 0.83693 0.20126 0.09696 0.0
H671 H 0.72208 0.19555 0.2193 0.0
H672 H 0.84445 0.26359 0.11332 0.0
O673 O 0.66531 0.14688 0.13347 0.0
H674 H 0.71092 0.06548 0.05025 0.0
H675 H 0.60059 0.12752 0.08013 0.0
H676 H 0.59556 0.06275 0.06773 0.0
H677 H 0.65098 0.03131 0.05257 0.0
H678 H 0.71484 0.13007 0.06318 0.0
H679 H 0.57756 0.19092 0.01945 0.0
H680 H 0.52877 0.22769 0.03777 0.0
O681 O 0.63004 0.16966 0.10746 0.0
C682 C 0.66861 0.24488 0.11291 0.0
C683 C 0.5586 0.22913 0.06713 0.0
C684 C 0.58106 0.19872 0.0358 0.0
N685 N 0.61754 0.19774 0.06748 0.0
C686 C 0.59088 0.21806 0.07763 0.0
C687 C 0.61303 0.18817 0.04679 0.0
C688 C 0.55369 0.21933 0.04608 0.0
C689 C 0.78339 0.19167 0.11127 0.0
N690 N 0.75616 0.20552 0.12407 0.0
C691 C 0.81554 0.21229 0.1072 0.0
C692 C 0.8197 0.24729 0.11635 0.0
C693 C 0.79182 0.26121 0.12942 0.0
C694 C 0.76002 0.23984 0.1331 0.0
C695 C 0.75152 0.18197 0.19081 0.0
C696 C 0.68457 0.19342 0.17027 0.0
C697 C 0.74858 0.17771 0.16901 0.0
N698 N 0.71542 0.1836 0.15899 0.0
C699 C 0.68646 0.19795 0.19209 0.0
C700 C 0.72021 0.1922 0.20239 0.0
C701 C 0.63371 0.15203 0.12484 0.0
C702 C 0.68656 0.0789 0.05678 0.0
C703 C 0.6249 0.11397 0.07375 0.0
C704 C 0.62185 0.07732 0.06665 0.0
C705 C 0.65294 0.05972 0.05812 0.0
N706 N 0.65798 0.13261 0.0724 0.0
C707 C 0.68856 0.11553 0.06404 0.0
Co708 Co 0.5823 0.05181 0.64458 0.0
Co709 Co 0.58073 0.09919 0.69168 0.0
O710 O 0.59194 0.05432 0.6751 0.0
C711 C 0.66014 0.02352 0.64817 0.0
O712 O 0.66671 0.04851 0.66276 0.0
C713 C 0.55143 0.03731 0.71965 0.0
O714 O 0.53909 0.01923 0.70309 0.0
O715 O 0.52771 0.09841 0.68174 0.0
O716 O 0.53644 0.08273 0.64783 0.0
H717 H 0.52676 0.22637 0.70308 0.0
H718 H 0.59509 0.98202 0.66824 0.0
O719 O 0.62801 0.02073 0.63991 0.0
H720 H 0.46905 0.97001 0.6383 0.0
H721 H 0.57637 0.98836 0.57389 0.0
H722 H 0.55776 0.10615 0.61224 0.0
H723 H 0.50677 0.02607 0.63147 0.0
H724 H 0.58706 0.99169 0.6122 0.0
O725 O 0.56753 0.06862 0.71731 0.0
H726 H 0.54108 0.16977 0.68282 0.0
H727 H 0.59656 0.12353 0.73579 0.0
H728 H 0.54632 0.10396 0.574 0.0
H729 H 0.55844 0.92533 0.67534 0.0
H730 H 0.55572 0.04474 0.55453 0.0
H731 H 0.4949 0.91912 0.66035 0.0
O732 O 0.61197 0.09792 0.63959 0.0
H733 H 0.69742 0.04222 0.72096 0.0
H734 H 0.64006 0.15743 0.6942 0.0
H735 H 0.70567 0.15817 0.70543 0.0
H736 H 0.73476 0.10028 0.71903 0.0
H737 H 0.63203 0.04261 0.70919 0.0
H738 H 0.5827 0.17968 0.75663 0.0
H739 H 0.54786 0.23179 0.74026 0.0
O740 O 0.59445 0.13218 0.66731 0.0
C741 C 0.51653 0.09593 0.66268 0.0
C742 C 0.54211 0.204 0.71039 0.0
C743 C 0.57344 0.17773 0.74045 0.0
N744 N 0.56972 0.14339 0.70807 0.0
C745 C 0.55031 0.17183 0.69899 0.0
C746 C 0.58108 0.14593 0.72858 0.0
C747 C 0.55387 0.20696 0.73124 0.0
C748 C 0.5676 0.97933 0.66151 0.0
N749 N 0.55315 0.00721 0.64939 0.0
C750 C 0.54692 0.94725 0.66564 0.0
C751 C 0.51125 0.94382 0.65726 0.0
C752 C 0.49671 0.97238 0.6449 0.0
C753 C 0.51817 1.00409 0.64113 0.0
C754 C 0.57211 0.0143 0.5822 0.0
C755 C 0.56156 0.0802 0.60395 0.0
C756 C 0.57819 0.01639 0.6039 0.0
N757 N 0.57284 0.04906 0.6145 0.0
C758 C 0.55518 0.07916 0.58226 0.0
C759 C 0.56051 0.04594 0.57135 0.0
C760 C 0.60931 0.12907 0.64911 0.0
C761 C 0.68505 0.06765 0.71511 0.0
C762 C 0.65258 0.13206 0.69986 0.0
C763 C 0.68972 0.13268 0.70632 0.0
C764 C 0.706 0.10021 0.71398 0.0
N765 N 0.63219 0.10001 0.701 0.0
C766 C 0.64797 0.06808 0.70851 0.0
Co767 Co 0.70658 0.83774 0.39456 0.0
Co768 Co 0.65794 0.82602 0.44048 0.0
O769 O 0.70228 0.84402 0.4253 0.0
C770 C 0.73818 0.91467 0.40263 0.0
O771 O 0.72205 0.9165 0.42112 0.0
C772 C 0.72086 0.80073 0.46882 0.0
O773 O 0.73981 0.78993 0.45223 0.0
O774 O 0.66613 0.77453 0.42928 0.0
O775 O 0.67853 0.78959 0.3958 0.0
H776 H 0.54 0.75222 0.44837 0.0
H777 H 0.77456 0.85147 0.4198 0.0
O778 O 0.73494 0.88572 0.39124 0.0
H779 H 0.7954 0.73068 0.38493 0.0
H780 H 0.77223 0.84155 0.32445 0.0
H781 H 0.65383 0.81572 0.36083 0.0
H782 H 0.73744 0.76576 0.37881 0.0
H783 H 0.76745 0.848 0.36302 0.0
O784 O 0.68855 0.81475 0.46645 0.0
H785 H 0.59497 0.77614 0.4296 0.0
H786 H 0.62835 0.83611 0.48407 0.0
H787 H 0.65752 0.80844 0.32228 0.0
H788 H 0.83306 0.81749 0.42622 0.0
H789 H 0.71705 0.82145 0.30382 0.0
H790 H 0.84374 0.75658 0.40874 0.0
O791 O 0.65898 0.86514 0.39048 0.0
H792 H 0.69618 0.94603 0.47491 0.0
H793 H 0.59247 0.87724 0.4422 0.0
H794 H 0.58204 0.94102 0.45515 0.0
H795 H 0.63408 0.97583 0.47174 0.0
H796 H 0.70558 0.88239 0.46139 0.0
H797 H 0.57362 0.81292 0.50343 0.0
H798 H 0.52883 0.77093 0.48554 0.0
O799 O 0.62489 0.83767 0.41557 0.0
C800 C 0.66807 0.76625 0.40974 0.0
C801 C 0.55913 0.77076 0.45631 0.0
C802 C 0.57804 0.80478 0.4872 0.0
N803 N 0.61461 0.80793 0.4556 0.0
C804 C 0.59034 0.78442 0.44574 0.0
C805 C 0.609 0.81782 0.47615 0.0
C806 C 0.55293 0.78118 0.47716 0.0
C807 C 0.77919 0.82522 0.41194 0.0
N808 N 0.75276 0.81081 0.3988 0.0
C809 C 0.8123 0.806 0.41572 0.0
C810 C 0.81824 0.7718 0.40595 0.0
C811 C 0.79111 0.75724 0.39259 0.0
C812 C 0.75832 0.7772 0.38922 0.0
C813 C 0.74618 0.83564 0.33232 0.0
C814 C 0.67994 0.82102 0.35296 0.0
C815 C 0.74328 0.83927 0.35417 0.0
N816 N 0.71049 0.83175 0.36423 0.0
C817 C 0.68182 0.81702 0.33111 0.0
C818 C 0.71521 0.82437 0.32076 0.0
C819 C 0.62761 0.85694 0.39868 0.0
C820 C 0.67327 0.93114 0.46773 0.0
C821 C 0.6154 0.89231 0.44917 0.0
C822 C 0.60925 0.92837 0.45659 0.0
C823 C 0.63844 0.94786 0.46592 0.0
N824 N 0.64967 0.87609 0.45098 0.0
C825 C 0.67839 0.89503 0.46013 0.0
Co826 Co 0.92548 0.96053 0.14429 0.0
Co827 Co 0.9298 0.91238 0.19111 0.0
O828 O 0.9174 0.95761 0.17502 0.0
C829 C 0.84793 0.98853 0.14922 0.0
O830 O 0.84201 0.96276 0.16346 0.0
C831 C 0.95601 0.97546 0.21954 0.0
O832 O 0.96107 0.99713 0.20316 0.0
O833 O 0.98214 0.91394 0.18034 0.0
O834 O 0.97137 0.9293 0.14659 0.0
H835 H 0.98651 0.78564 0.20001 0.0
H836 H 0.91379 0.0307 0.16783 0.0
O837 O 0.87965 0.99176 0.14053 0.0
H838 H 0.03871 0.0419 0.13633 0.0
H839 H 0.9289 0.02506 0.07388 0.0
H840 H 0.94754 0.90638 0.11128 0.0
H841 H 1.00073 0.98574 0.13035 0.0
H842 H 0.91966 0.02116 0.1123 0.0
O843 O 0.94456 0.94218 0.21693 0.0
H844 H 0.96966 0.8426 0.18067 0.0
H845 H 0.91646 0.88593 0.23516 0.0
H846 H 0.95742 0.90908 0.07291 0.0
H847 H 0.95062 0.08762 0.17397 0.0
H848 H 0.94805 0.96877 0.05392 0.0
H849 H 0.01362 0.0934 0.15822 0.0
O850 O 0.89535 0.91472 0.1396 0.0
H851 H 0.81393 0.96779 0.22235 0.0
H852 H 0.87126 0.85348 0.19428 0.0
H853 H 0.8062 0.85191 0.20651 0.0
H854 H 0.77714 0.90935 0.22075 0.0
H855 H 0.87875 0.9682 0.20966 0.0
H856 H 0.93312 0.82955 0.25516 0.0
H857 H 0.96831 0.77881 0.23755 0.0
O858 O 0.91487 0.87997 0.16665 0.0
C859 C 0.99214 0.9162 0.16108 0.0
C860 C 0.97118 0.80751 0.20786 0.0
C861 C 0.94124 0.83218 0.23881 0.0
N862 N 0.94213 0.86764 0.20676 0.0
C863 C 0.96151 0.83986 0.19698 0.0
C864 C 0.93201 0.86412 0.22742 0.0
C865 C 0.96096 0.80372 0.22893 0.0
C866 C 0.94103 0.03319 0.16076 0.0
N867 N 0.95506 1.00498 0.14873 0.0
C868 C 0.96182 0.06541 0.16436 0.0
C869 C 0.99719 0.06861 0.15555 0.0
C870 C 0.0113 0.0397 0.14329 0.0
C871 C 0.98973 0.00789 0.14004 0.0
C872 C 0.93315 0.99891 0.08197 0.0
C873 C 0.94374 0.93251 0.10319 0.0
C874 C 0.9279 0.99651 0.10373 0.0
N875 N 0.93336 0.96361 0.11408 0.0
C876 C 0.94922 0.93385 0.08143 0.0
C877 C 0.94391 0.96733 0.07079 0.0
C878 C 0.89879 0.88341 0.1488 0.0
C879 C 0.82632 0.94254 0.21625 0.0
C880 C 0.85877 0.87864 0.2003 0.0
C881 C 0.82194 0.87755 0.2073 0.0
C882 C 0.80567 0.90977 0.21531 0.0
N883 N 0.87888 0.91087 0.20131 0.0
C884 C 0.8631 0.94256 0.20914 0.0
Co885 Co 0.8016 0.17572 0.89297 0.0
Co886 Co 0.84889 0.18343 0.93991 0.0
O887 O 0.80424 0.16898 0.92379 0.0
C888 C 0.77442 0.09746 0.89836 0.0
O889 O 0.79869 0.09221 0.9135 0.0
C890 C 0.78452 0.20797 0.96807 0.0
O891 O 0.76234 0.2108 0.95174 0.0
O892 O 0.84596 0.23536 0.92846 0.0
O893 O 0.83146 0.22259 0.89486 0.0
H894 H 0.9735 0.24468 0.94919 0.0
H895 H 0.73137 0.16312 0.91627 0.0
O896 O 0.77154 0.12902 0.88944 0.0
H897 H 0.71743 0.2864 0.88314 0.0
H898 H 0.73824 0.17467 0.82218 0.0
H899 H 0.85602 0.19689 0.85994 0.0
H900 H 0.77464 0.2497 0.87791 0.0
H901 H 0.74153 0.16771 0.86076 0.0
O902 O 0.81836 0.19827 0.96547 0.0
H903 H 0.91747 0.22559 0.92959 0.0
H904 H 0.87498 0.17191 0.98413 0.0
H905 H 0.85389 0.20459 0.82138 0.0
H906 H 0.67342 0.19866 0.92167 0.0
H907 H 0.79467 0.19338 0.80222 0.0
H908 H 0.66626 0.26084 0.9051 0.0
O909 O 0.84828 0.14661 0.889 0.0
H910 H 0.79682 0.06719 0.97256 0.0
H911 H 0.90947 0.12683 0.94389 0.0
H912 H 0.91296 0.0624 0.95699 0.0
H913 H 0.85637 0.03219 0.97156 0.0
H914 H 0.79446 0.13136 0.95894 0.0
H915 H 0.9305 0.19053 1.00432 0.0
H916 H 0.98038 0.22693 0.98683 0.0
O917 O 0.88216 0.16865 0.9158 0.0
C918 C 0.84377 0.24455 0.90904 0.0
C919 C 0.95204 0.22868 0.95698 0.0
C920 C 0.92787 0.19836 0.98792 0.0
N921 N 0.89294 0.19766 0.95568 0.0
C922 C 0.92022 0.2178 0.94596 0.0
C923 C 0.89642 0.18801 0.97642 0.0
C924 C 0.95585 0.2188 0.97809 0.0
C925 C 0.72828 0.19 0.90885 0.0
N926 N 0.75631 0.20428 0.89679 0.0
C927 C 0.69548 0.21006 0.91204 0.0
C928 C 0.69151 0.24498 0.90276 0.0
C929 C 0.72023 0.25935 0.89046 0.0
C930 C 0.75263 0.2385 0.88763 0.0
C931 C 0.76417 0.17978 0.83036 0.0
C932 C 0.83005 0.1924 0.85176 0.0
C933 C 0.76623 0.17584 0.85221 0.0
N934 N 0.79888 0.18228 0.86265 0.0
C935 C 0.82905 0.19662 0.82991 0.0
C936 C 0.79584 0.19027 0.81917 0.0
C937 C 0.87941 0.15155 0.89821 0.0
C938 C 0.8217 0.08009 0.96632 0.0
C939 C 0.88466 0.11381 0.95002 0.0
C940 C 0.88684 0.07735 0.95751 0.0
C941 C 0.8551 0.06044 0.96571 0.0
N942 N 0.85182 0.13296 0.95071 0.0
C943 C 0.82058 0.11651 0.95869 0.0
Co944 Co 0.92759 0.55249 0.64693 0.0
Co945 Co 0.93473 0.60269 0.69254 0.0
O946 O 0.92129 0.557 0.67749 0.0
C947 C 0.8495 0.5255 0.65228 0.0
O948 O 0.8418 0.55629 0.66254 0.0
C949 C 0.96508 0.54157 0.72035 0.0
O950 O 0.9763 0.52349 0.70355 0.0
O951 O 0.9867 0.60017 0.68095 0.0
O952 O 0.97327 0.5843 0.64762 0.0
H953 H 0.99288 0.72902 0.69955 0.0
H954 H 0.91875 0.48397 0.67241 0.0
O955 O 0.88223 0.52008 0.64524 0.0
H956 H 0.0413 0.47201 0.63815 0.0
H957 H 0.92818 0.48352 0.57784 0.0
H958 H 0.94548 0.60513 0.6124 0.0
H959 H 1.00204 0.52709 0.6317 0.0
H960 H 0.92185 0.48963 0.61635 0.0
O961 O 0.94952 0.57323 0.71834 0.0
H962 H 0.97502 0.67165 0.68096 0.0
H963 H 0.92374 0.6302 0.73649 0.0
H964 H 0.95247 0.60027 0.57388 0.0
H965 H 0.95692 0.4282 0.6791 0.0
H966 H 0.94375 0.5391 0.55632 0.0
H967 H 0.01874 0.42202 0.66196 0.0
O968 O 0.89675 0.59791 0.64217 0.0
H969 H 0.81885 0.54965 0.72507 0.0
H970 H 0.8773 0.66258 0.69598 0.0
H971 H 0.81255 0.66534 0.70866 0.0
H972 H 0.78291 0.6086 0.7234 0.0
H973 H 0.88342 0.54805 0.71198 0.0
H974 H 0.94079 0.68736 0.75565 0.0
H975 H 0.9752 0.73745 0.73715 0.0
O976 O 0.91918 0.63426 0.66785 0.0
C977 C 0.99535 0.59764 0.66144 0.0
C978 C 0.97757 0.70761 0.70778 0.0
C979 C 0.94845 0.68413 0.73927 0.0
N980 N 0.9482 0.64768 0.70758 0.0
C981 C 0.96742 0.67499 0.69732 0.0
C982 C 0.93895 0.65178 0.72834 0.0
C983 C 0.96781 0.71222 0.72886 0.0
C984 C 0.94545 0.4813 0.66472 0.0
N985 N 0.95807 0.5087 0.65162 0.0
C986 C 0.96701 0.44973 0.66864 0.0
C987 C 1.00171 0.44632 0.65905 0.0
C988 C 0.01441 0.47438 0.64571 0.0
C989 C 0.9921 0.50557 0.64217 0.0
C990 C 0.93206 0.51032 0.58529 0.0
C991 C 0.94189 0.57838 0.60492 0.0
C992 C 0.92837 0.51397 0.6071 0.0
N993 N 0.93339 0.54768 0.61665 0.0
C994 C 0.94577 0.57582 0.58308 0.0
C995 C 0.94083 0.54151 0.57324 0.0
C996 C 0.90125 0.62982 0.65062 0.0
C997 C 0.83148 0.57459 0.71873 0.0
C998 C 0.86456 0.63773 0.70224 0.0
C999 C 0.82791 0.63949 0.70948 0.0
C1000 C 0.81131 0.60765 0.71776 0.0
N1001 N 0.8842 0.60521 0.70327 0.0
C1002 C 0.86809 0.57389 0.71136 0.0
Co1003 Co 0.71298 0.67605 0.89499 0.0
Co1004 Co 0.66 0.67956 0.9402 0.0
O1005 O 0.70685 0.66748 0.92551 0.0
C1006 C 0.74207 0.59866 0.90029 0.0
O1007 O 0.71609 0.59192 0.9143 0.0
C1008 C 0.72012 0.70851 0.96958 0.0
O1009 O 0.74112 0.71653 0.9533 0.0
O1010 O 0.66203 0.7319 0.92943 0.0
O1011 O 0.68093 0.72159 0.89626 0.0
H1012 H 0.53193 0.7345 0.94492 0.0
H1013 H 0.78071 0.66509 0.92076 0.0
O1014 O 0.74521 0.63074 0.89202 0.0
H1015 H 0.79345 0.7905 0.89012 0.0
H1016 H 0.7849 0.68136 0.82693 0.0
H1017 H 0.6619 0.69643 0.86017 0.0
H1018 H 0.73855 0.75183 0.88213 0.0
H1019 H 0.77713 0.67203 0.86515 0.0
O1020 O 0.68776 0.69477 0.96671 0.0
H1021 H 0.59076 0.7179 0.92743 0.0
H1022 H 0.63006 0.66755 0.9837 0.0
H1023 H 0.66847 0.70659 0.82196 0.0
H1024 H 0.83637 0.70262 0.92893 0.0
H1025 H 0.73036 0.69897 0.80507 0.0
H1026 H 0.84291 0.76588 0.91361 0.0
O1027 O 0.66835 0.64519 0.88889 0.0
H1028 H 0.71318 0.5648 0.97385 0.0
H1029 H 0.60094 0.62116 0.94261 0.0
H1030 H 0.59819 0.55689 0.95609 0.0
H1031 H 0.6546 0.52827 0.97183 0.0
H1032 H 0.71468 0.62901 0.96018 0.0
H1033 H 0.57182 0.68421 1.00194 0.0
H1034 H 0.52212 0.71783 0.98249 0.0
O1035 O 0.62983 0.66343 0.91482 0.0
C1036 C 0.6663 0.74221 0.91035 0.0
C1037 C 0.55331 0.71991 0.95359 0.0
C1038 C 0.57574 0.6917 0.98558 0.0
N1039 N 0.61386 0.6918 0.95452 0.0
C1040 C 0.58669 0.71034 0.94374 0.0
C1041 C 0.60875 0.68251 0.9752 0.0
C1042 C 0.54786 0.71054 0.97466 0.0
C1043 C 0.78357 0.69244 0.91388 0.0
N1044 N 0.75646 0.70622 0.90098 0.0
C1045 C 0.81505 0.71363 0.91863 0.0
C1046 C 0.81867 0.74914 0.91006 0.0
C1047 C 0.7909 0.76299 0.8969 0.0
C1048 C 0.7598 0.74102 0.89251 0.0
C1049 C 0.75782 0.68492 0.83412 0.0
C1050 C 0.68895 0.69351 0.853 0.0
C1051 C 0.75323 0.67963 0.85576 0.0
N1052 N 0.71913 0.68416 0.86495 0.0
C1053 C 0.69249 0.69911 0.83132 0.0
C1054 C 0.72721 0.69479 0.82186 0.0
C1055 C 0.63619 0.64724 0.89723 0.0
C1056 C 0.68839 0.57697 0.96705 0.0
C1057 C 0.62563 0.6089 0.94941 0.0
C1058 C 0.62388 0.57252 0.95706 0.0
C1059 C 0.65553 0.55649 0.9659 0.0
N1060 N 0.65793 0.62887 0.95067 0.0
C1061 C 0.68906 0.61335 0.95934 0.0
Co1062 Co 0.5848 0.46135 0.14348 0.0
Co1063 Co 0.5779 0.41269 0.18987 0.0
O1064 O 0.59208 0.45771 0.17416 0.0
C1065 C 0.66281 0.48775 0.14903 0.0
O1066 O 0.66812 0.46162 0.16314 0.0
C1067 C 0.54943 0.47522 0.21746 0.0
O1068 O 0.53909 0.49368 0.20062 0.0
O1069 O 0.5258 0.41597 0.17871 0.0
O1070 O 0.53816 0.43113 0.14518 0.0
H1071 H 0.51727 0.28768 0.19795 0.0
H1072 H 0.59699 0.53032 0.16801 0.0
O1073 O 0.63125 0.49175 0.14027 0.0
H1074 H 0.47338 0.54514 0.13537 0.0
H1075 H 0.58406 0.52733 0.07348 0.0
H1076 H 0.5636 0.40797 0.10992 0.0
H1077 H 0.51066 0.48869 0.12887 0.0
H1078 H 0.59204 0.52259 0.11197 0.0
O1079 O 0.564 0.44307 0.21552 0.0
H1080 H 0.53645 0.34416 0.17889 0.0
H1081 H 0.5885 0.38601 0.23411 0.0
H1082 H 0.55501 0.41151 0.07145 0.0
H1083 H 0.5608 0.58741 0.17478 0.0
H1084 H 0.56527 0.47155 0.05297 0.0
H1085 H 0.49847 0.59502 0.15845 0.0
O1086 O 0.61414 0.41503 0.13892 0.0
H1087 H 0.69482 0.46407 0.22204 0.0
H1088 H 0.63429 0.35184 0.19342 0.0
H1089 H 0.69901 0.34807 0.20607 0.0
H1090 H 0.72969 0.40446 0.22058 0.0
H1091 H 0.63028 0.46667 0.20895 0.0
H1092 H 0.5697 0.32994 0.2538 0.0
H1093 H 0.53392 0.28018 0.23569 0.0
O1094 O 0.59243 0.38007 0.16538 0.0
C1095 C 0.5164 0.4185 0.15935 0.0
C1096 C 0.53293 0.30906 0.20602 0.0
C1097 C 0.5623 0.33283 0.23736 0.0
N1098 N 0.56369 0.36833 0.20533 0.0
C1099 C 0.54392 0.34113 0.19529 0.0
C1100 C 0.57278 0.36458 0.22614 0.0
C1101 C 0.54225 0.30492 0.22719 0.0
C1102 C 0.57006 0.53363 0.16068 0.0
N1103 N 0.55602 0.50629 0.14801 0.0
C1104 C 0.54962 0.56593 0.16464 0.0
C1105 C 0.51462 0.57015 0.1555 0.0
C1106 C 0.50052 0.54216 0.14257 0.0
C1107 C 0.52171 0.51021 0.13899 0.0
C1108 C 0.57937 0.50105 0.08137 0.0
C1109 C 0.56774 0.43427 0.10203 0.0
C1110 C 0.58388 0.49818 0.10316 0.0
N1111 N 0.57785 0.46511 0.11324 0.0
C1112 C 0.56301 0.43607 0.08023 0.0
C1113 C 0.56883 0.46974 0.06986 0.0
C1114 C 0.60964 0.38359 0.14786 0.0
C1115 C 0.68173 0.43928 0.21581 0.0
C1116 C 0.6475 0.37654 0.19954 0.0
C1117 C 0.68412 0.37421 0.20678 0.0
C1118 C 0.7013 0.40585 0.21494 0.0
N1119 N 0.62848 0.40943 0.20043 0.0
C1120 C 0.64513 0.44054 0.20846 0.0
Co1121 Co 0.79961 0.33498 0.39616 0.0
Co1122 Co 0.85101 0.32728 0.44119 0.0
O1123 O 0.80591 0.34325 0.42644 0.0
C1124 C 0.77847 0.41583 0.39664 0.0
O1125 O 0.81205 0.42432 0.40322 0.0
C1126 C 0.79037 0.2992 0.46968 0.0
O1127 O 0.77371 0.2851 0.4531 0.0
O1128 O 0.84392 0.27513 0.43085 0.0
O1129 O 0.82913 0.28772 0.3973 0.0
H1130 H 0.9711 0.25723 0.44863 0.0
H1131 H 0.7333 0.34872 0.42277 0.0
O1132 O 0.76931 0.38189 0.39395 0.0
H1133 H 0.71298 0.22518 0.39099 0.0
H1134 H 0.72745 0.3345 0.32816 0.0
H1135 H 0.84931 0.31136 0.36128 0.0
H1136 H 0.76938 0.26136 0.38261 0.0
H1137 H 0.73595 0.34343 0.36637 0.0
O1138 O 0.8212 0.31635 0.46747 0.0
H1139 H 0.91482 0.27878 0.43029 0.0
H1140 H 0.88167 0.33988 0.48436 0.0
H1141 H 0.84196 0.30169 0.32308 0.0
H1142 H 0.67635 0.31361 0.43146 0.0
H1143 H 0.78065 0.3133 0.30625 0.0
H1144 H 0.66597 0.25132 0.41556 0.0
O1145 O 0.84664 0.3627 0.39027 0.0
H1146 H 0.80928 0.44909 0.472 0.0
H1147 H 0.9153 0.37994 0.44203 0.0
H1148 H 0.92394 0.44509 0.45316 0.0
H1149 H 0.87071 0.48009 0.46832 0.0
H1150 H 0.80177 0.38394 0.46049 0.0
H1151 H 0.93774 0.31894 0.50338 0.0
H1152 H 0.98311 0.27749 0.48545 0.0
O1153 O 0.8827 0.33878 0.41573 0.0
C1154 C 0.84109 0.26571 0.41153 0.0
C1155 C 0.95181 0.27554 0.45659 0.0
C1156 C 0.933 0.31011 0.4873 0.0
N1157 N 0.89531 0.31111 0.45608 0.0
C1158 C 0.91987 0.28792 0.44624 0.0
C1159 C 0.9013 0.32188 0.47645 0.0
C1160 C 0.95844 0.28685 0.47724 0.0
C1161 C 0.72878 0.3218 0.41562 0.0
N1162 N 0.75454 0.3072 0.40213 0.0
C1163 C 0.69656 0.30199 0.42067 0.0
C1164 C 0.69079 0.26701 0.41177 0.0
C1165 C 0.71717 0.25231 0.398 0.0
C1166 C 0.74909 0.27289 0.39335 0.0
C1167 C 0.75427 0.32925 0.33531 0.0
C1168 C 0.82249 0.31619 0.35413 0.0
C1169 C 0.75928 0.33434 0.35694 0.0
N1170 N 0.79303 0.32757 0.3661 0.0
C1171 C 0.81852 0.3108 0.33246 0.0
C1172 C 0.78413 0.31735 0.32303 0.0
C1173 C 0.8786 0.35627 0.3983 0.0
C1174 C 0.83271 0.43409 0.46548 0.0
C1175 C 0.89196 0.395 0.44856 0.0
C1176 C 0.89705 0.43187 0.45487 0.0
C1177 C 0.86718 0.45149 0.46339 0.0
N1178 N 0.85809 0.37808 0.45074 0.0
C1179 C 0.82866 0.39717 0.45901 0.0
Co1180 Co 0.92928 0.46083 0.87981 0.0
Co1181 Co 0.93466 0.41354 0.83275 0.0
O1182 O 0.92196 0.45849 0.84904 0.0
C1183 C 0.85193 0.48934 0.87447 0.0
O1184 O 0.84625 0.46401 0.85995 0.0
C1185 C 0.96245 0.47703 0.80526 0.0
O1186 O 0.96799 0.49782 0.82196 0.0
O1187 O 0.98676 0.41469 0.84395 0.0
O1188 O 0.97524 0.42958 0.87765 0.0
H1189 H 0.99121 0.28681 0.8233 0.0
H1190 H 0.91834 0.53146 0.85663 0.0
O1191 O 0.88345 0.49215 0.88345 0.0
H1192 H 0.04251 0.54177 0.88917 0.0
H1193 H 0.93141 0.524 0.95066 0.0
H1194 H 0.94989 0.40584 0.91264 0.0
H1195 H 1.00425 0.4856 0.89451 0.0
H1196 H 0.92315 0.52091 0.91214 0.0
O1197 O 0.95017 0.44394 0.80735 0.0
H1198 H 0.97399 0.34337 0.84297 0.0
H1199 H 0.92255 0.38826 0.78837 0.0
H1200 H 0.95875 0.40773 0.95112 0.0
H1201 H 0.95545 0.58839 0.85113 0.0
H1202 H 0.94948 0.46716 0.9704 0.0
H1203 H 0.01808 0.59373 0.8674 0.0
O1204 O 0.89887 0.41507 0.88392 0.0
H1205 H 0.81984 0.47014 0.80099 0.0
H1206 H 0.87602 0.35493 0.82857 0.0
H1207 H 0.81127 0.35392 0.81581 0.0
H1208 H 0.78278 0.41182 0.80182 0.0
H1209 H 0.88434 0.46998 0.81419 0.0
H1210 H 0.93963 0.33236 0.76804 0.0
H1211 H 0.97413 0.28105 0.78554 0.0
O1212 O 0.91892 0.38064 0.85684 0.0
C1213 C 0.99643 0.41662 0.86328 0.0
C1214 C 0.97619 0.30896 0.8155 0.0
C1215 C 0.94726 0.33453 0.78449 0.0
N1216 N 0.94729 0.36914 0.81685 0.0
C1217 C 0.9663 0.34105 0.82657 0.0
C1218 C 0.93779 0.3662 0.79607 0.0
C1219 C 0.9666 0.30575 0.79431 0.0
C1220 C 0.94541 0.53376 0.86393 0.0
N1221 N 0.95907 0.50529 0.87589 0.0
C1222 C 0.96637 0.56598 0.86068 0.0
C1223 C 1.00153 0.56893 0.86979 0.0
C1224 C 0.01527 0.53976 0.88198 0.0
C1225 C 0.99354 0.50796 0.88488 0.0
C1226 C 0.93564 0.49797 0.94242 0.0
C1227 C 0.94617 0.43187 0.92087 0.0
C1228 C 0.93095 0.49603 0.92061 0.0
N1229 N 0.93641 0.46328 0.91009 0.0
C1230 C 0.95106 0.43274 0.94268 0.0
C1231 C 0.94579 0.46607 0.9535 0.0
C1232 C 0.9023 0.3839 0.87455 0.0
C1233 C 0.83198 0.4447 0.80698 0.0
C1234 C 0.86377 0.38028 0.82266 0.0
C1235 C 0.82713 0.37951 0.81536 0.0
C1236 C 0.81118 0.41199 0.80749 0.0
N1237 N 0.88403 0.41246 0.8221 0.0
C1238 C 0.86857 0.44439 0.81438 0.0
Co1239 Co 0.79941 0.67537 0.12933 0.0
Co1240 Co 0.84669 0.68308 0.08251 0.0
O1241 O 0.80209 0.66862 0.09857 0.0
C1242 C 0.77236 0.59739 0.12378 0.0
O1243 O 0.79708 0.59215 0.10887 0.0
C1244 C 0.7827 0.70994 0.05517 0.0
O1245 O 0.76333 0.7182 0.07205 0.0
O1246 O 0.84367 0.73507 0.09396 0.0
O1247 O 0.82951 0.72206 0.12755 0.0
H1248 H 0.97155 0.74379 0.07327 0.0
H1249 H 0.72949 0.66348 0.10564 0.0
O1250 O 0.76914 0.6289 0.1327 0.0
H1251 H 0.71579 0.78648 0.13917 0.0
H1252 H 0.73598 0.6741 0.2001 0.0
H1253 H 0.85389 0.69602 0.16243 0.0
H1254 H 0.7726 0.74926 0.14466 0.0
H1255 H 0.73925 0.66745 0.16149 0.0
O1256 O 0.81566 0.69726 0.05709 0.0
H1257 H 0.9155 0.72478 0.09287 0.0
H1258 H 0.87208 0.67259 0.03808 0.0
H1259 H 0.85178 0.7034 0.20101 0.0
H1260 H 0.67201 0.69961 0.09989 0.0
H1261 H 0.79249 0.69234 0.22012 0.0
H1262 H 0.66496 0.76164 0.11669 0.0
O1263 O 0.84584 0.64596 0.13322 0.0
H1264 H 0.79492 0.56658 0.04998 0.0
H1265 H 0.90752 0.6268 0.07833 0.0
H1266 H 0.91121 0.56235 0.06525 0.0
H1267 H 0.85464 0.53184 0.05085 0.0
H1268 H 0.79237 0.63079 0.06357 0.0
H1269 H 0.92767 0.69104 0.0179 0.0
H1270 H 0.97799 0.72661 0.0355 0.0
O1271 O 0.88008 0.66834 0.10664 0.0
C1272 C 0.8417 0.74413 0.1134 0.0
C1273 C 0.9499 0.7281 0.06543 0.0
C1274 C 0.92522 0.69857 0.03435 0.0
N1275 N 0.89058 0.69747 0.06668 0.0
C1276 C 0.91808 0.71725 0.07646 0.0
C1277 C 0.89375 0.6883 0.04585 0.0
C1278 C 0.95346 0.71856 0.04425 0.0
C1279 C 0.72644 0.69029 0.11316 0.0
N1280 N 0.7543 0.70419 0.1255 0.0
C1281 C 0.69391 0.71069 0.10978 0.0
C1282 C 0.69001 0.74552 0.11917 0.0
C1283 C 0.71853 0.75949 0.13177 0.0
C1284 C 0.75069 0.73834 0.13476 0.0
C1285 C 0.76194 0.67915 0.19194 0.0
C1286 C 0.8279 0.69163 0.17059 0.0
C1287 C 0.76398 0.67541 0.17008 0.0
N1288 N 0.79666 0.68179 0.15966 0.0
C1289 C 0.82691 0.69565 0.19246 0.0
C1290 C 0.79365 0.68938 0.20317 0.0
C1291 C 0.87705 0.65078 0.12409 0.0
C1292 C 0.81979 0.57959 0.05617 0.0
C1293 C 0.88272 0.61364 0.0723 0.0
C1294 C 0.88501 0.57718 0.0648 0.0
C1295 C 0.85328 0.5601 0.0567 0.0
N1296 N 0.84977 0.6326 0.07172 0.0
C1297 C 0.81855 0.61602 0.0638 0.0
Co1298 Co 0.58586 0.54965 0.37677 0.0
Co1299 Co 0.57763 0.60062 0.33135 0.0
O1300 O 0.59249 0.55506 0.34619 0.0
C1301 C 0.66634 0.52753 0.37493 0.0
O1302 O 0.67466 0.5606 0.36753 0.0
C1303 C 0.55035 0.53881 0.3027 0.0
O1304 O 0.543 0.51805 0.31918 0.0
O1305 O 0.52581 0.59614 0.34279 0.0
O1306 O 0.53888 0.5797 0.37607 0.0
H1307 H 0.51506 0.725 0.32567 0.0
H1308 H 0.59792 0.48178 0.35111 0.0
O1309 O 0.63253 0.51888 0.37852 0.0
H1310 H 0.47541 0.46455 0.3847 0.0
H1311 H 0.58838 0.47943 0.44541 0.0
H1312 H 0.56458 0.60054 0.41156 0.0
H1313 H 0.51225 0.52119 0.39144 0.0
H1314 H 0.59509 0.48667 0.40697 0.0
O1315 O 0.56337 0.57152 0.30522 0.0
H1316 H 0.53524 0.66782 0.34364 0.0
H1317 H 0.58796 0.63017 0.28768 0.0
H1318 H 0.55728 0.59447 0.45 0.0
H1319 H 0.56223 0.42444 0.34419 0.0
H1320 H 0.56922 0.53355 0.46719 0.0
H1321 H 0.50044 0.41561 0.36098 0.0
O1322 O 0.61465 0.5962 0.38209 0.0
H1323 H 0.69512 0.55158 0.29873 0.0
H1324 H 0.63317 0.66238 0.3281 0.0
H1325 H 0.69782 0.66728 0.31548 0.0
H1326 H 0.72922 0.61161 0.3006 0.0
H1327 H 0.63058 0.54787 0.31176 0.0
H1328 H 0.56801 0.68691 0.269 0.0
H1329 H 0.53139 0.73496 0.28805 0.0
O1330 O 0.59232 0.63213 0.35623 0.0
C1331 C 0.51672 0.59262 0.36216 0.0
C1332 C 0.53102 0.70438 0.31718 0.0
C1333 C 0.5607 0.68295 0.28539 0.0
N1334 N 0.56274 0.64564 0.31673 0.0
C1335 C 0.54257 0.6719 0.32729 0.0
C1336 C 0.57179 0.65079 0.29602 0.0
C1337 C 0.54017 0.7099 0.29608 0.0
C1338 C 0.57122 0.47797 0.35865 0.0
N1339 N 0.55722 0.50478 0.37168 0.0
C1340 C 0.55107 0.44552 0.35459 0.0
C1341 C 0.51637 0.44061 0.36399 0.0
C1342 C 0.50229 0.46808 0.37728 0.0
C1343 C 0.52321 0.50017 0.38096 0.0
C1344 C 0.58299 0.50609 0.43809 0.0
C1345 C 0.56951 0.57386 0.41888 0.0
C1346 C 0.58679 0.51038 0.41633 0.0
N1347 N 0.57987 0.54393 0.40698 0.0
C1348 C 0.56547 0.57063 0.44068 0.0
C1349 C 0.57223 0.53646 0.45031 0.0
C1350 C 0.60983 0.62799 0.37361 0.0
C1351 C 0.68172 0.57605 0.30514 0.0
C1352 C 0.64667 0.638 0.32178 0.0
C1353 C 0.68326 0.64096 0.31458 0.0
C1354 C 0.70085 0.60973 0.30622 0.0
N1355 N 0.62804 0.6049 0.32063 0.0
C1356 C 0.64514 0.57415 0.31248 0.0
Co1357 Co 0.70871 0.33745 0.62717 0.0
Co1358 Co 0.65971 0.32881 0.58032 0.0
O1359 O 0.70432 0.34252 0.59644 0.0
C1360 C 0.73332 0.41338 0.6398 0.0
O1361 O 0.70388 0.41494 0.65203 0.0
C1362 C 0.72478 0.29976 0.55433 0.0
O1363 O 0.74632 0.29979 0.57098 0.0
O1364 O 0.65849 0.27854 0.59415 0.0
O1365 O 0.67949 0.29018 0.62685 0.0
H1366 H 0.53152 0.27525 0.57275 0.0
H1367 H 0.77753 0.34937 0.6022 0.0
O1368 O 0.73839 0.3851 0.62793 0.0
H1369 H 0.79531 0.22893 0.63793 0.0
H1370 H 0.77761 0.34201 0.69632 0.0
H1371 H 0.65741 0.31677 0.6618 0.0
H1372 H 0.73752 0.26474 0.643 0.0
H1373 H 0.77113 0.34781 0.6578 0.0
O1374 O 0.69049 0.30838 0.55613 0.0
H1375 H 0.58762 0.29503 0.59199 0.0
H1376 H 0.63706 0.33159 0.53485 0.0
H1377 H 0.6626 0.31049 0.70036 0.0
H1378 H 0.83619 0.31496 0.59714 0.0
H1379 H 0.72309 0.32319 0.71788 0.0
H1380 H 0.84529 0.25414 0.61499 0.0
O1381 O 0.66143 0.36552 0.63152 0.0
H1382 H 0.72336 0.43858 0.5469 0.0
H1383 H 0.60245 0.3844 0.5667 0.0
H1384 H 0.60434 0.4463 0.55013 0.0
H1385 H 0.66519 0.47382 0.54003 0.0
H1386 H 0.72016 0.37705 0.56379 0.0
H1387 H 0.58161 0.31182 0.51497 0.0
H1388 H 0.52812 0.28381 0.53394 0.0
O1389 O 0.62681 0.35045 0.6032 0.0
C1390 C 0.66382 0.26908 0.61333 0.0
C1391 C 0.55447 0.28765 0.5643 0.0
C1392 C 0.58267 0.30805 0.53187 0.0
N1393 N 0.61555 0.31462 0.5646 0.0
C1394 C 0.58632 0.299 0.57513 0.0
C1395 C 0.61411 0.31898 0.54321 0.0
C1396 C 0.55266 0.29233 0.54253 0.0
C1397 C 0.78155 0.32327 0.61032 0.0
N1398 N 0.75424 0.30931 0.62302 0.0
C1399 C 0.81471 0.30374 0.60726 0.0
C1400 C 0.81975 0.26959 0.61724 0.0
C1401 C 0.79169 0.25541 0.63008 0.0
C1402 C 0.75893 0.27574 0.63279 0.0
C1403 C 0.7511 0.33644 0.68888 0.0
C1404 C 0.68375 0.32235 0.66931 0.0
C1405 C 0.74723 0.33972 0.66707 0.0
N1406 N 0.71382 0.33273 0.65755 0.0
C1407 C 0.68657 0.31874 0.69115 0.0
C1408 C 0.7205 0.32587 0.70097 0.0
C1409 C 0.63071 0.36536 0.62144 0.0
C1410 C 0.69669 0.42703 0.55137 0.0
C1411 C 0.62904 0.39647 0.56282 0.0
C1412 C 0.62993 0.43141 0.55321 0.0
C1413 C 0.66405 0.44678 0.54751 0.0
N1414 N 0.66113 0.37736 0.56676 0.0
C1415 C 0.69467 0.39216 0.56101 0.0
Co1416 Co 0.08196 0.45812 0.3782 0.0
Co1417 Co 0.07659 0.40922 0.33199 0.0
O1418 O 0.09102 0.45412 0.34772 0.0
C1419 C 0.1602 0.48512 0.3735 0.0
O1420 O 0.16595 0.4594 0.3592 0.0
C1421 C 0.0504 0.47123 0.3034 0.0
O1422 O 0.03751 0.48921 0.31986 0.0
O1423 O 0.02389 0.41471 0.34182 0.0
O1424 O 0.03516 0.42812 0.37572 0.0
H1425 H 0.00955 0.2879 0.32172 0.0
H1426 H 0.09567 0.52661 0.35354 0.0
O1427 O 0.12848 0.48844 0.38219 0.0
H1428 H 0.97077 0.54273 0.38437 0.0
H1429 H 0.0775 0.52429 0.44812 0.0
H1430 H 0.0576 0.40516 0.41128 0.0
H1431 H 0.00739 0.48615 0.39165 0.0
H1432 H 0.08825 0.51927 0.40986 0.0
O1433 O 0.06589 0.43961 0.30587 0.0
H1434 H 0.02891 0.34384 0.34123 0.0
H1435 H 0.09194 0.38071 0.28866 0.0
H1436 H 0.04613 0.40904 0.44949 0.0
H1437 H 0.06012 0.58379 0.34597 0.0
H1438 H 0.0561 0.46895 0.46818 0.0
H1439 H 0.99716 0.59206 0.3614 0.0
O1440 O 0.11074 0.41154 0.38322 0.0
H1441 H 0.19762 0.45476 0.3019 0.0
H1442 H 0.13121 0.3465 0.33131 0.0
H1443 H 0.1967 0.33987 0.32042 0.0
H1444 H 0.23033 0.39422 0.30552 0.0
H1445 H 0.13223 0.4603 0.31327 0.0
H1446 H 0.07337 0.32502 0.26856 0.0
H1447 H 0.03218 0.27797 0.28514 0.0
O1448 O 0.08779 0.37644 0.35711 0.0
C1449 C 0.01373 0.41673 0.36106 0.0
C1450 C 0.02783 0.30797 0.31437 0.0
C1451 C 0.06358 0.32887 0.28454 0.0
N1452 N 0.06205 0.36523 0.31626 0.0
C1453 C 0.03893 0.33972 0.32537 0.0
C1454 C 0.07401 0.36035 0.29601 0.0
C1455 C 0.04043 0.30248 0.29385 0.0
C1456 C 0.06844 0.53021 0.36048 0.0
N1457 N 0.05371 0.50319 0.3731 0.0
C1458 C 0.04838 0.56256 0.35607 0.0
C1459 C 0.01303 0.56715 0.3647 0.0
C1460 C 0.99819 0.53947 0.37757 0.0
C1461 C 0.01903 0.50745 0.3816 0.0
C1462 C 0.07299 0.49805 0.44015 0.0
C1463 C 0.06178 0.43138 0.41925 0.0
C1464 C 0.07911 0.49501 0.41849 0.0
N1465 N 0.07328 0.46201 0.40829 0.0
C1466 C 0.05535 0.43339 0.44092 0.0
C1467 C 0.06097 0.467 0.45139 0.0
C1468 C 0.10492 0.37991 0.37469 0.0
C1469 C 0.18323 0.43084 0.3083 0.0
C1470 C 0.1457 0.37037 0.32498 0.0
C1471 C 0.18275 0.3664 0.31875 0.0
C1472 C 0.20159 0.39689 0.31037 0.0
N1473 N 0.12786 0.40376 0.32287 0.0
C1474 C 0.14614 0.43376 0.31466 0.0
Co1475 Co 0.30002 0.33449 0.1286 0.0
Co1476 Co 0.34888 0.32858 0.08224 0.0
O1477 O 0.30363 0.34209 0.09793 0.0
C1478 C 0.27257 0.41226 0.12332 0.0
O1479 O 0.29864 0.41807 0.10924 0.0
C1480 C 0.28727 0.29922 0.05426 0.0
O1481 O 0.26886 0.28791 0.07092 0.0
O1482 O 0.34601 0.2763 0.09316 0.0
O1483 O 0.33076 0.28822 0.12675 0.0
H1484 H 0.47447 0.26925 0.07405 0.0
H1485 H 0.23107 0.34599 0.10397 0.0
O1486 O 0.26903 0.38055 0.13197 0.0
H1487 H 0.2175 0.22202 0.13632 0.0
H1488 H 0.23397 0.33222 0.19858 0.0
H1489 H 0.35357 0.31348 0.1621 0.0
H1490 H 0.27345 0.25996 0.14302 0.0
H1491 H 0.23866 0.34071 0.16013 0.0
O1492 O 0.31889 0.31477 0.05647 0.0
H1493 H 0.41767 0.28749 0.0931 0.0
H1494 H 0.37583 0.34035 0.03815 0.0
H1495 H 0.35008 0.30439 0.20052 0.0
H1496 H 0.17448 0.3091 0.09698 0.0
H1497 H 0.28991 0.31379 0.21904 0.0
H1498 H 0.1675 0.24659 0.11318 0.0
O1499 O 0.34604 0.36433 0.1333 0.0
H1500 H 0.29648 0.44538 0.05053 0.0
H1501 H 0.40917 0.38572 0.07911 0.0
H1502 H 0.41231 0.45067 0.06681 0.0
H1503 H 0.35569 0.48092 0.05233 0.0
H1504 H 0.29451 0.38062 0.06328 0.0
H1505 H 0.43222 0.32252 0.01847 0.0
H1506 H 0.48216 0.28682 0.03645 0.0
O1507 O 0.38118 0.343 0.10682 0.0
C1508 C 0.34355 0.2667 0.1125 0.0
C1509 C 0.45303 0.28488 0.06604 0.0
C1510 C 0.42926 0.31472 0.03484 0.0
N1511 N 0.39347 0.31507 0.06679 0.0
C1512 C 0.42076 0.29533 0.07676 0.0
C1513 C 0.39732 0.32465 0.04606 0.0
C1514 C 0.45727 0.29471 0.04494 0.0
C1515 C 0.22803 0.31897 0.11123 0.0
N1516 N 0.25543 0.30522 0.12395 0.0
C1517 C 0.19601 0.29815 0.10715 0.0
C1518 C 0.19215 0.26305 0.11622 0.0
C1519 C 0.22021 0.24923 0.12919 0.0
C1520 C 0.25187 0.2708 0.13288 0.0
C1521 C 0.26031 0.32792 0.19069 0.0
C1522 C 0.32723 0.31726 0.16999 0.0
C1523 C 0.26315 0.33273 0.16891 0.0
N1524 N 0.29629 0.32717 0.15882 0.0
C1525 C 0.32545 0.31224 0.19178 0.0
C1526 C 0.2917 0.31757 0.20215 0.0
C1527 C 0.37754 0.36005 0.12438 0.0
C1528 C 0.32138 0.43249 0.05675 0.0
C1529 C 0.38437 0.39874 0.073 0.0
C1530 C 0.38634 0.43549 0.06595 0.0
C1531 C 0.35458 0.45243 0.05781 0.0
N1532 N 0.3517 0.37935 0.07193 0.0
C1533 C 0.32047 0.39576 0.06392 0.0
Co1534 Co 0.42962 0.54644 0.88115 0.0
Co1535 Co 0.43332 0.59616 0.8341 0.0
O1536 O 0.42013 0.55169 0.85064 0.0
C1537 C 0.34842 0.52748 0.877 0.0
O1538 O 0.34487 0.5515 0.86158 0.0
C1539 C 0.4635 0.53271 0.80746 0.0
O1540 O 0.47232 0.51404 0.82451 0.0
O1541 O 0.48534 0.59613 0.84567 0.0
O1542 O 0.48024 0.56916 0.87757 0.0
H1543 H 0.48704 0.72404 0.82427 0.0
H1544 H 0.4068 0.48299 0.85435 0.0
O1545 O 0.37971 0.52274 0.88596 0.0
H1546 H 0.52326 0.44275 0.88843 0.0
H1547 H 0.42582 0.48176 0.95162 0.0
H1548 H 0.46468 0.59463 0.91336 0.0
H1549 H 0.49566 0.50385 0.89664 0.0
H1550 H 0.41452 0.48757 0.91347 0.0
O1551 O 0.44927 0.56506 0.80909 0.0
H1552 H 0.46999 0.6678 0.84424 0.0
H1553 H 0.42345 0.61944 0.78917 0.0
H1554 H 0.47696 0.58971 0.95146 0.0
H1555 H 0.43289 0.42134 0.84589 0.0
H1556 H 0.45743 0.53297 0.97086 0.0
H1557 H 0.49174 0.40096 0.86286 0.0
O1558 O 0.40749 0.59652 0.88727 0.0
H1559 H 0.31967 0.53765 0.80203 0.0
H1560 H 0.37451 0.65423 0.82865 0.0
H1561 H 0.31009 0.65437 0.81535 0.0
H1562 H 0.28227 0.59575 0.80185 0.0
H1563 H 0.38382 0.53872 0.81575 0.0
H1564 H 0.44011 0.67514 0.76858 0.0
H1565 H 0.47203 0.72802 0.78614 0.0
O1566 O 0.41687 0.62909 0.85768 0.0
C1567 C 0.49895 0.58636 0.86348 0.0
C1568 C 0.47313 0.70121 0.81643 0.0
C1569 C 0.44685 0.67372 0.78517 0.0
N1570 N 0.44593 0.64023 0.81789 0.0
C1571 C 0.46344 0.66925 0.82766 0.0
C1572 C 0.43764 0.64216 0.7969 0.0
C1573 C 0.46474 0.7034 0.79504 0.0
C1574 C 0.43245 0.47438 0.86177 0.0
N1575 N 0.45039 0.49755 0.8755 0.0
C1576 C 0.44707 0.4394 0.85694 0.0
C1577 C 0.48009 0.428 0.86644 0.0
C1578 C 0.49785 0.45147 0.88073 0.0
C1579 C 0.48242 0.48628 0.88513 0.0
C1580 C 0.4345 0.5066 0.94333 0.0
C1581 C 0.45639 0.5697 0.92164 0.0
C1582 C 0.42805 0.51013 0.92173 0.0
N1583 N 0.43917 0.54133 0.91113 0.0
C1584 C 0.46329 0.56714 0.94324 0.0
C1585 C 0.45227 0.53533 0.95412 0.0
C1586 C 0.40631 0.62681 0.87681 0.0
C1587 C 0.3315 0.56339 0.80782 0.0
C1588 C 0.36253 0.62859 0.823 0.0
C1589 C 0.32608 0.62885 0.81537 0.0
C1590 C 0.31051 0.59598 0.80777 0.0
N1591 N 0.38295 0.59652 0.82302 0.0
C1592 C 0.36788 0.5642 0.81553 0.0
Co1593 Co 0.20951 0.6831 0.62665 0.0
Co1594 Co 0.15909 0.68548 0.58073 0.0
O1595 O 0.20497 0.67376 0.59622 0.0
C1596 C 0.23504 0.60433 0.62398 0.0
O1597 O 0.20449 0.59681 0.61346 0.0
C1598 C 0.22062 0.71187 0.55151 0.0
O1599 O 0.24155 0.72006 0.56779 0.0
O1600 O 0.16111 0.73834 0.59079 0.0
O1601 O 0.17788 0.7287 0.62444 0.0
H1602 H 0.03214 0.74184 0.57267 0.0
H1603 H 0.27855 0.67082 0.60209 0.0
O1604 O 0.24144 0.63756 0.62997 0.0
H1605 H 0.29055 0.79713 0.63166 0.0
H1606 H 0.27827 0.69101 0.69566 0.0
H1607 H 0.15687 0.70507 0.66045 0.0
H1608 H 0.23494 0.75914 0.63906 0.0
H1609 H 0.27229 0.68075 0.65741 0.0
O1610 O 0.18799 0.69882 0.55435 0.0
H1611 H 0.08979 0.72583 0.5915 0.0
H1612 H 0.1309 0.67019 0.53725 0.0
H1613 H 0.16159 0.71608 0.69865 0.0
H1614 H 0.33493 0.70763 0.59458 0.0
H1615 H 0.22265 0.70896 0.71655 0.0
H1616 H 0.34112 0.77133 0.60935 0.0
O1617 O 0.16397 0.65308 0.6325 0.0
H1618 H 0.21331 0.56768 0.55121 0.0
H1619 H 0.09988 0.62707 0.57904 0.0
H1620 H 0.09782 0.5613 0.5681 0.0
H1621 H 0.15483 0.53118 0.55401 0.0
H1622 H 0.2142 0.63329 0.56256 0.0
H1623 H 0.0737 0.68593 0.51774 0.0
H1624 H 0.02368 0.72191 0.5355 0.0
O1625 O 0.12776 0.67168 0.60584 0.0
C1626 C 0.16413 0.74899 0.60992 0.0
C1627 C 0.05362 0.72614 0.56475 0.0
C1628 C 0.077 0.6948 0.53393 0.0
N1629 N 0.11375 0.69714 0.56549 0.0
C1630 C 0.08638 0.71696 0.57535 0.0
C1631 C 0.10941 0.6861 0.54503 0.0
C1632 C 0.04895 0.71496 0.5439 0.0
C1633 C 0.28122 0.69836 0.60875 0.0
N1634 N 0.25351 0.71276 0.62102 0.0
C1635 C 0.31313 0.71915 0.60436 0.0
C1636 C 0.31655 0.75491 0.61262 0.0
C1637 C 0.28816 0.76942 0.62512 0.0
C1638 C 0.25665 0.74783 0.62917 0.0
C1639 C 0.2515 0.69413 0.68806 0.0
C1640 C 0.18355 0.70207 0.66807 0.0
C1641 C 0.24792 0.68814 0.66642 0.0
N1642 N 0.21425 0.69212 0.65669 0.0
C1643 C 0.18605 0.70827 0.68974 0.0
C1644 C 0.22029 0.70424 0.69977 0.0
C1645 C 0.13215 0.65615 0.62379 0.0
C1646 C 0.18826 0.58052 0.55727 0.0
C1647 C 0.12483 0.61415 0.57303 0.0
C1648 C 0.12348 0.57691 0.56679 0.0
C1649 C 0.15546 0.56004 0.55887 0.0
N1650 N 0.15709 0.63409 0.57136 0.0
C1651 C 0.18856 0.61771 0.56364 0.0
Co1652 Co 0.08518 0.55004 0.14292 0.0
Co1653 Co 0.07744 0.59764 0.18974 0.0
O1654 O 0.09153 0.55268 0.17378 0.0
C1655 C 0.16262 0.52148 0.14895 0.0
O1656 O 0.16788 0.54568 0.16413 0.0
C1657 C 0.05261 0.53336 0.21775 0.0
O1658 O 0.05035 0.51124 0.20137 0.0
O1659 O 0.02573 0.59512 0.17802 0.0
O1660 O 0.03886 0.5809 0.14445 0.0
H1661 H 0.01762 0.7231 0.1978 0.0
H1662 H 0.09587 0.47954 0.16624 0.0
O1663 O 0.1313 0.51908 0.13974 0.0
H1664 H 0.97296 0.46817 0.13232 0.0
H1665 H 0.08689 0.48679 0.0721 0.0
H1666 H 0.06537 0.60476 0.10979 0.0
H1667 H 0.01094 0.52463 0.12738 0.0
H1668 H 0.09297 0.48989 0.11073 0.0
O1669 O 0.06182 0.56737 0.21525 0.0
H1670 H 0.03689 0.66666 0.17868 0.0
H1671 H 0.08755 0.62406 0.2341 0.0
H1672 H 0.05858 0.60282 0.07118 0.0
H1673 H 0.05904 0.42231 0.17135 0.0
H1674 H 0.06945 0.5435 0.05205 0.0
H1675 H 0.99703 0.41644 0.15439 0.0
O1676 O 0.11544 0.5959 0.13915 0.0
H1677 H 0.19259 0.54452 0.22311 0.0
H1678 H 0.13435 0.65779 0.19439 0.0
H1679 H 0.19846 0.66079 0.20802 0.0
H1680 H 0.22797 0.60388 0.22262 0.0
H1681 H 0.12877 0.54266 0.20895 0.0
H1682 H 0.06845 0.67991 0.25389 0.0
H1683 H 0.0333 0.73003 0.2357 0.0
O1684 O 0.09334 0.63053 0.16563 0.0
C1685 C 0.01678 0.59317 0.15857 0.0
C1686 C 0.03292 0.70151 0.20591 0.0
C1687 C 0.06142 0.67724 0.23738 0.0
N1688 N 0.06331 0.64203 0.20524 0.0
C1689 C 0.04396 0.66947 0.19515 0.0
C1690 C 0.07203 0.64559 0.22611 0.0
C1691 C 0.04172 0.70535 0.22717 0.0
C1692 C 0.06907 0.47702 0.15865 0.0
N1693 N 0.05559 0.50537 0.14654 0.0
C1694 C 0.04827 0.44463 0.16167 0.0
C1695 C 0.01346 0.44138 0.15218 0.0
C1696 C 0.99992 0.47041 0.13982 0.0
C1697 C 0.02148 0.50239 0.13716 0.0
C1698 C 0.08195 0.51276 0.08025 0.0
C1699 C 0.06972 0.57876 0.10163 0.0
C1700 C 0.08539 0.51471 0.10214 0.0
N1701 N 0.07917 0.54742 0.11256 0.0
C1702 C 0.06601 0.57786 0.07974 0.0
C1703 C 0.07217 0.54459 0.06902 0.0
C1704 C 0.11113 0.62716 0.14829 0.0
C1705 C 0.18 0.56953 0.21685 0.0
C1706 C 0.14706 0.63284 0.20051 0.0
C1707 C 0.18334 0.63474 0.20832 0.0
C1708 C 0.19986 0.60283 0.21653 0.0
N1709 N 0.12771 0.6001 0.2009 0.0
C1710 C 0.14377 0.56869 0.20891 0.0
Co1711 Co 0.21564 0.33802 0.89503 0.0
Co1712 Co 0.1629 0.32621 0.94026 0.0
O1713 O 0.20806 0.34401 0.92566 0.0
C1714 C 0.23931 0.4178 0.90315 0.0
O1715 O 0.22088 0.41907 0.92096 0.0
C1716 C 0.22565 0.29999 0.96861 0.0
O1717 O 0.24725 0.29533 0.95215 0.0
O1718 O 0.16856 0.27511 0.9279 0.0
O1719 O 0.19188 0.28756 0.89593 0.0
H1720 H 0.04006 0.26008 0.94464 0.0
H1721 H 0.2786 0.35858 0.92271 0.0
O1722 O 0.23989 0.38821 0.89216 0.0
H1723 H 0.31733 0.24197 0.88824 0.0
H1724 H 0.28661 0.34732 0.82673 0.0
H1725 H 0.16866 0.30965 0.86018 0.0
H1726 H 0.25674 0.27047 0.88007 0.0
H1727 H 0.27795 0.35389 0.86506 0.0
O1728 O 0.19227 0.31115 0.96611 0.0
H1729 H 0.09687 0.2826 0.92711 0.0
H1730 H 0.133 0.33315 0.98403 0.0
H1731 H 0.17631 0.30226 0.82182 0.0
H1732 H 0.33984 0.33158 0.9311 0.0
H1733 H 0.23563 0.32118 0.80484 0.0
H1734 H 0.35951 0.2727 0.9139 0.0
O1735 O 0.16636 0.36129 0.88888 0.0
H1736 H 0.20653 0.4413 0.97789 0.0
H1737 H 0.09986 0.3802 0.94346 0.0
H1738 H 0.0923 0.44318 0.95816 0.0
H1739 H 0.14585 0.47411 0.97564 0.0
H1740 H 0.21306 0.37862 0.96256 0.0
H1741 H 0.0766 0.31102 1.00222 0.0
H1742 H 0.02949 0.27447 0.98247 0.0
O1743 O 0.1313 0.3412 0.91572 0.0
C1744 C 0.17665 0.26539 0.90906 0.0
C1745 C 0.06028 0.27608 0.95343 0.0
C1746 C 0.08085 0.30461 0.98574 0.0
N1747 N 0.11831 0.30909 0.95453 0.0
C1748 C 0.09256 0.2889 0.94358 0.0
C1749 C 0.11282 0.31693 0.97537 0.0
C1750 C 0.05442 0.28409 0.97465 0.0
C1751 C 0.28703 0.33312 0.91503 0.0
N1752 N 0.26384 0.31592 0.90102 0.0
C1753 C 0.32172 0.31789 0.91991 0.0
C1754 C 0.33271 0.28483 0.91028 0.0
C1755 C 0.30902 0.26754 0.89593 0.0
C1756 C 0.27453 0.28359 0.89147 0.0
C1757 C 0.26068 0.33886 0.83395 0.0
C1758 C 0.19466 0.31771 0.85294 0.0
C1759 C 0.25558 0.34256 0.85566 0.0
N1760 N 0.22294 0.33182 0.86491 0.0
C1761 C 0.19879 0.31356 0.8312 0.0
C1762 C 0.23206 0.3242 0.82168 0.0
C1763 C 0.13487 0.3568 0.89777 0.0
C1764 C 0.18297 0.42809 0.97034 0.0
C1765 C 0.12342 0.3936 0.95078 0.0
C1766 C 0.11891 0.4292 0.95921 0.0
C1767 C 0.14894 0.44651 0.96905 0.0
N1768 N 0.15689 0.37569 0.9521 0.0
C1769 C 0.18644 0.3925 0.96173 0.0
Co1770 Co 0.4205 0.46291 0.64995 0.0
Co1771 Co 0.43733 0.40809 0.69325 0.0
O1772 O 0.41805 0.45383 0.68041 0.0
C1773 C 0.34341 0.48579 0.63925 0.0
O1774 O 0.34291 0.45782 0.62595 0.0
C1775 C 0.46519 0.46913 0.72217 0.0
O1776 O 0.47126 0.49043 0.70575 0.0
O1777 O 0.4872 0.41614 0.6797 0.0
O1778 O 0.46953 0.43643 0.64785 0.0
H1779 H 0.50635 0.28684 0.69289 0.0
H1780 H 0.40776 0.52556 0.67936 0.0
O1781 O 0.37147 0.49024 0.65139 0.0
H1782 H 0.52243 0.5581 0.64094 0.0
H1783 H 0.40859 0.54044 0.58405 0.0
H1784 H 0.43857 0.41655 0.61272 0.0
H1785 H 0.48924 0.49969 0.63326 0.0
H1786 H 0.40662 0.52905 0.62233 0.0
O1787 O 0.45311 0.43608 0.71952 0.0
H1788 H 0.48144 0.34439 0.67745 0.0
H1789 H 0.43417 0.37465 0.73632 0.0
H1790 H 0.44074 0.42669 0.57435 0.0
H1791 H 0.43956 0.58472 0.68726 0.0
H1792 H 0.42575 0.48903 0.55977 0.0
H1793 H 0.49745 0.60127 0.66804 0.0
O1794 O 0.39424 0.41485 0.6443 0.0
H1795 H 0.32254 0.44727 0.73262 0.0
H1796 H 0.38573 0.3431 0.697 0.0
H1797 H 0.32368 0.33322 0.71251 0.0
H1798 H 0.29171 0.38552 0.7306 0.0
H1799 H 0.38443 0.45603 0.71661 0.0
H1800 H 0.45881 0.31739 0.75251 0.0
H1801 H 0.49485 0.27279 0.73072 0.0
O1802 O 0.42117 0.37788 0.66822 0.0
C1803 C 0.49394 0.42267 0.66024 0.0
C1804 C 0.4906 0.3059 0.70259 0.0
C1805 C 0.46397 0.32313 0.73603 0.0
N1806 N 0.45645 0.36293 0.70597 0.0
C1807 C 0.47642 0.33861 0.69391 0.0
C1808 C 0.45026 0.35562 0.72681 0.0
C1809 C 0.48422 0.29812 0.72379 0.0
C1810 C 0.43264 0.53278 0.67072 0.0
N1811 N 0.44645 0.50924 0.65574 0.0
C1812 C 0.45066 0.56623 0.67536 0.0
C1813 C 0.48317 0.57545 0.6646 0.0
C1814 C 0.49722 0.55123 0.64943 0.0
C1815 C 0.47843 0.51804 0.64521 0.0
C1816 C 0.41526 0.51317 0.59021 0.0
C1817 C 0.43196 0.44375 0.60651 0.0
C1818 C 0.41425 0.50656 0.61188 0.0
N1819 N 0.42265 0.47218 0.61979 0.0
C1820 C 0.43326 0.44933 0.58476 0.0
C1821 C 0.42486 0.48431 0.57659 0.0
C1822 C 0.4016 0.38263 0.65163 0.0
C1823 C 0.33621 0.42425 0.72482 0.0
C1824 C 0.3719 0.36607 0.70464 0.0
C1825 C 0.33681 0.36027 0.7135 0.0
C1826 C 0.31891 0.38961 0.72366 0.0
N1827 N 0.38878 0.40008 0.70591 0.0
C1828 C 0.37131 0.42901 0.71577 0.0
Co1829 Co 0.29888 0.67299 0.3922 0.0
Co1830 Co 0.34666 0.68095 0.43886 0.0
O1831 O 0.30192 0.6663 0.42297 0.0
C1832 C 0.26997 0.5954 0.39849 0.0
O1833 O 0.29317 0.59053 0.4142 0.0
C1834 C 0.28355 0.70957 0.4661 0.0
O1835 O 0.26491 0.71908 0.44916 0.0
O1836 O 0.34338 0.73284 0.4274 0.0
O1837 O 0.32894 0.71982 0.39385 0.0
H1838 H 0.47151 0.74189 0.44747 0.0
H1839 H 0.22944 0.66126 0.41637 0.0
O1840 O 0.26848 0.62641 0.38887 0.0
H1841 H 0.21505 0.78403 0.3827 0.0
H1842 H 0.23473 0.67165 0.32164 0.0
H1843 H 0.35292 0.69402 0.35896 0.0
H1844 H 0.2717 0.74672 0.37686 0.0
H1845 H 0.23842 0.66489 0.36022 0.0
O1846 O 0.31587 0.69531 0.46429 0.0
H1847 H 0.41525 0.72265 0.42815 0.0
H1848 H 0.37256 0.67093 0.48325 0.0
H1849 H 0.35039 0.7015 0.3204 0.0
H1850 H 0.17214 0.69748 0.42248 0.0
H1851 H 0.29096 0.69022 0.30146 0.0
H1852 H 0.16475 0.7594 0.40563 0.0
O1853 O 0.34536 0.64362 0.38815 0.0
H1854 H 0.29554 0.56498 0.47226 0.0
H1855 H 0.40756 0.62468 0.44287 0.0
H1856 H 0.4115 0.56044 0.45622 0.0
H1857 H 0.35522 0.53019 0.47115 0.0
H1858 H 0.29274 0.62897 0.45836 0.0
H1859 H 0.42841 0.68962 0.50316 0.0
H1860 H 0.47849 0.72506 0.48524 0.0
O1861 O 0.3798 0.66609 0.41465 0.0
C1862 C 0.34109 0.74196 0.40799 0.0
C1863 C 0.44999 0.72625 0.45544 0.0
C1864 C 0.42574 0.69699 0.4867 0.0
N1865 N 0.3907 0.69554 0.45451 0.0
C1866 C 0.41805 0.71527 0.44457 0.0
C1867 C 0.39413 0.68658 0.47535 0.0
C1868 C 0.45384 0.71691 0.47663 0.0
C1869 C 0.22623 0.688 0.40881 0.0
N1870 N 0.25379 0.70178 0.39622 0.0
C1871 C 0.1938 0.70846 0.4124 0.0
C1872 C 0.18971 0.74323 0.40297 0.0
C1873 C 0.21794 0.75708 0.39012 0.0
C1874 C 0.25 0.73587 0.38692 0.0
C1875 C 0.26076 0.67677 0.32971 0.0
C1876 C 0.32687 0.68948 0.35088 0.0
C1877 C 0.26304 0.67295 0.35157 0.0
N1878 N 0.2958 0.67942 0.36189 0.0
C1879 C 0.32564 0.69359 0.32902 0.0
C1880 C 0.29231 0.68719 0.3184 0.0
C1881 C 0.37666 0.64852 0.3972 0.0
C1882 C 0.32027 0.57787 0.46583 0.0
C1883 C 0.38287 0.61161 0.4491 0.0
C1884 C 0.38531 0.57528 0.45676 0.0
C1885 C 0.35374 0.55835 0.46516 0.0
N1886 N 0.34994 0.63059 0.44978 0.0
C1887 C 0.3189 0.61417 0.45802 0.0
C1888 C 0.4572 0.02895 0.27795 0.0
C1889 C 0.46073 0.99049 0.28167 0.0
C1890 C 0.45781 0.04361 0.25739 0.0
C1891 C 0.46251 0.02061 0.23955 0.0
H1892 H 0.45277 0.04788 0.29099 0.0
H1893 H 0.45415 0.07333 0.2555 0.0
S1894 S 0.47572 0.91814 0.24069 0.0
N1895 N 0.47106 0.92985 0.2657 0.0
N1896 N 0.47241 0.95731 0.22724 0.0
C1897 C 0.46737 0.98223 0.24309 0.0
C1898 C 0.46638 0.96724 0.26404 0.0
C1899 C 0.23173 0.20698 0.52991 0.0
C1900 C 0.27007 0.2113 0.53381 0.0
C1901 C 0.21731 0.2071 0.50927 0.0
C1902 C 0.24043 0.21206 0.4915 0.0
H1903 H 0.21269 0.20242 0.54288 0.0
H1904 H 0.18768 0.20292 0.50727 0.0
S1905 S 0.34268 0.22707 0.49307 0.0
N1906 N 0.33072 0.22246 0.51804 0.0
N1907 N 0.30375 0.2229 0.47947 0.0
C1908 C 0.2787 0.21757 0.49521 0.0
C1909 C 0.29344 0.21709 0.51624 0.0
C1910 C 0.04787 0.0432 0.76575 0.0
C1911 C 0.04692 0.01948 0.78349 0.0
C1912 C 0.04746 0.02912 0.74502 0.0
C1913 C 0.04642 0.9906 0.74098 0.0
H1914 H 0.04959 0.07304 0.76782 0.0
H1915 H 0.04913 0.04866 0.73207 0.0
S1916 S 0.04036 0.91634 0.78159 0.0
N1917 N 0.04252 0.95527 0.79534 0.0
N1918 N 0.04168 0.92903 0.75663 0.0
C1919 C 0.04411 0.9666 0.75853 0.0
C1920 C 0.04431 0.98093 0.77965 0.0
C1921 C 0.2308 0.80204 0.99469 0.0
C1922 C 0.26923 0.79749 0.9912 0.0
C1923 C 0.21577 0.80231 0.01516 0.0
C1924 C 0.23834 0.79754 0.03317 0.0
H1925 H 0.21219 0.80658 0.98152 0.0
H1926 H 0.1861 0.80666 0.01686 0.0
S1927 S 0.34052 0.78202 0.03269 0.0
N1928 N 0.32935 0.78626 1.00758 0.0
N1929 N 0.30121 0.78658 0.0459 0.0
C1930 C 0.27668 0.79176 0.02987 0.0
C1931 C 0.29205 0.79182 1.009 0.0
C1932 C 0.55426 0.02961 0.77974 0.0
C1933 C 0.54897 0.99141 0.78356 0.0
C1934 C 0.55433 0.04409 0.75914 0.0
C1935 C 0.54861 0.02116 0.74135 0.0
H1936 H 0.55953 0.04845 0.79272 0.0
H1937 H 0.5593 0.0736 0.75717 0.0
S1938 S 0.5307 0.91943 0.74279 0.0
N1939 N 0.53587 0.93114 0.76776 0.0
N1940 N 0.53583 0.95828 0.72922 0.0
C1941 C 0.542 0.98308 0.745 0.0
C1942 C 0.54227 0.96826 0.766 0.0
C1943 C 0.71402 0.8037 0.50834 0.0
C1944 C 0.73704 0.79826 0.49057 0.0
C1945 C 0.72843 0.80359 0.52896 0.0
C1946 C 0.76666 0.79846 0.53288 0.0
H1947 H 0.68448 0.80848 0.50635 0.0
H1948 H 0.70946 0.80866 0.54191 0.0
S1949 S 0.83892 0.78102 0.49216 0.0
N1950 N 0.8001 0.78602 0.47855 0.0
N1951 N 0.82706 0.78591 0.51713 0.0
C1952 C 0.78991 0.79209 0.51533 0.0
C1953 C 0.77518 0.79192 0.49429 0.0
C1954 C 0.95692 0.04362 0.26579 0.0
C1955 C 0.96128 0.02054 0.28362 0.0
C1956 C 0.95654 0.02903 0.2452 0.0
C1957 C 0.95996 0.99057 0.24143 0.0
H1958 H 0.95341 0.07335 0.26772 0.0
H1959 H 0.95242 0.04805 0.23218 0.0
S1960 S 0.9739 0.91798 0.28236 0.0
N1961 N 0.97061 0.95712 0.29586 0.0
N1962 N 0.96967 0.92981 0.25736 0.0
C1963 C 0.96517 0.96722 0.25905 0.0
C1964 C 0.96593 0.98213 0.28003 0.0
C1965 C 0.73125 0.20718 0.99395 0.0
C1966 C 0.76949 0.21209 0.98998 0.0
C1967 C 0.71691 0.20754 0.0146 0.0
C1968 C 0.74 0.21328 0.03231 0.0
H1969 H 0.71226 0.20189 0.98105 0.0
H1970 H 0.68737 0.20283 0.01666 0.0
S1971 S 0.84191 0.23034 0.0305 0.0
N1972 N 0.82996 0.22492 1.00558 0.0
N1973 N 0.80313 0.22569 0.04419 0.0
C1974 C 0.77814 0.21949 0.02851 0.0
C1975 C 0.7928 0.21883 1.00747 0.0
C1976 C 0.96345 0.54699 0.75994 0.0
C1977 C 0.96785 0.52457 0.74185 0.0
C1978 C 0.96317 0.53163 0.78035 0.0
C1979 C 0.96668 0.49305 0.78363 0.0
H1980 H 0.95973 0.57676 0.75837 0.0
H1981 H 0.95893 0.55011 0.79362 0.0
S1982 S 0.98087 0.42205 0.74182 0.0
N1983 N 0.97745 0.46167 0.72881 0.0
N1984 N 0.97663 0.43293 0.76697 0.0
C1985 C 0.97203 0.47038 0.76573 0.0
C1986 C 0.97274 0.48607 0.74495 0.0
C1987 C 0.78887 0.71124 0.01557 0.0
C1988 C 0.76588 0.71267 0.03358 0.0
C1989 C 0.77396 0.71119 0.99504 0.0
C1990 C 0.73527 0.71199 0.99151 0.0
H1991 H 0.81882 0.70976 0.01728 0.0
H1992 H 0.79299 0.70939 0.98185 0.0
S1993 S 0.66263 0.71771 0.03304 0.0
N1994 N 0.70214 0.71645 0.04628 0.0
N1995 N 0.67427 0.71604 1.0079 0.0
C1996 C 0.71194 0.71426 1.00933 0.0
C1997 C 0.72715 0.71473 0.03026 0.0
C1998 C 0.54937 0.48455 0.27752 0.0
C1999 C 0.54687 0.52319 0.28091 0.0
C2000 C 0.5495 0.46942 0.25705 0.0
C2001 C 0.54653 0.49213 0.23899 0.0
H2002 H 0.55242 0.46581 0.29077 0.0
H2003 H 0.55233 0.43956 0.25542 0.0
S2004 S 0.53667 0.595 0.23921 0.0
N2005 N 0.53952 0.58375 0.26436 0.0
N2006 N 0.53943 0.55543 0.22609 0.0
C2007 C 0.54273 0.53074 0.24218 0.0
C2008 C 0.54304 0.54619 0.26304 0.0
C2009 C 0.77928 0.30374 0.52954 0.0
C2010 C 0.74137 0.29564 0.53283 0.0
C2011 C 0.79479 0.30431 0.50919 0.0
C2012 C 0.77328 0.29633 0.49115 0.0
H2013 H 0.79698 0.31097 0.54273 0.0
H2014 H 0.82393 0.31149 0.50762 0.0
S2015 S 0.6731 0.2708 0.4912 0.0
N2016 N 0.6831 0.27756 0.51629 0.0
N2017 N 0.71214 0.27844 0.47819 0.0
C2018 C 0.7356 0.28693 0.49427 0.0
C2019 C 0.71972 0.28667 0.51502 0.0
C2020 C 0.05444 0.46502 0.26389 0.0
C2021 C 0.04831 0.48769 0.28172 0.0
C2022 C 0.05446 0.47975 0.24334 0.0
C2023 C 0.04887 0.51796 0.2396 0.0
H2024 H 0.05957 0.43552 0.26578 0.0
H2025 H 0.05999 0.46106 0.23032 0.0
S2026 S 0.02997 0.58938 0.28058 0.0
N2027 N 0.03515 0.55041 0.29402 0.0
N2028 N 0.03541 0.57798 0.25557 0.0
C2029 C 0.04195 0.54087 0.25723 0.0
C2030 C 0.04158 0.5258 0.27817 0.0
C2031 C 0.29394 0.30085 0.01473 0.0
C2032 C 0.27099 0.29612 0.03259 0.0
C2033 C 0.27932 0.30064 0.99416 0.0
C2034 C 0.24096 0.29621 0.99044 0.0
H2035 H 0.32357 0.3052 0.01662 0.0
H2036 H 0.29818 0.3052 0.9811 0.0
S2037 S 0.16883 0.28066 0.03146 0.0
N2038 N 0.20788 0.28514 0.04492 0.0
N2039 N 0.1805 0.28496 1.00643 0.0
C2040 C 0.21778 0.29047 1.00809 0.0
C2041 C 0.23273 0.29032 0.02905 0.0
C2042 C 0.46532 0.53845 0.76787 0.0
C2043 C 0.46739 0.51574 0.78598 0.0
C2044 C 0.46604 0.52331 0.74741 0.0
C2045 C 0.46837 0.48465 0.74403 0.0
H2046 H 0.46264 0.56833 0.76946 0.0
H2047 H 0.46356 0.5421 0.73415 0.0
S2048 S 0.47652 0.4128 0.78588 0.0
N2049 N 0.47356 0.4524 0.79896 0.0
N2050 N 0.47471 0.42406 0.76069 0.0
C2051 C 0.47144 0.46164 0.76196 0.0
C2052 C 0.47106 0.47711 0.78282 0.0
C2053 C 0.27464 0.71229 0.52616 0.0
C2054 C 0.23599 0.7144 0.52962 0.0
C2055 C 0.28962 0.71138 0.50567 0.0
C2056 C 0.26674 0.71316 0.48762 0.0
H2057 H 0.29354 0.71018 0.5394 0.0
H2058 H 0.31951 0.70894 0.504 0.0
S2059 S 0.16372 0.72143 0.48794 0.0
N2060 N 0.1752 0.71998 0.5131 0.0
N2061 N 0.20324 0.71864 0.47477 0.0
C2062 C 0.2281 0.71651 0.49085 0.0
C2063 C 0.2128 0.71699 0.51174 0.0
C2064 C 0.31714 0.98669 0.11945 0.0
C2065 C 0.31927 0.99765 0.14073 0.0
C2066 C 0.29031 0.96101 0.11256 0.0
C2067 C 0.26536 0.9445 0.12682 0.0
H2068 H 0.33652 0.99795 0.10803 0.0
H2069 H 0.29007 0.95299 0.09611 0.0
S2070 S 0.25919 0.96396 0.18414 0.0
N2071 N 0.29346 0.99087 0.17585 0.0
N2072 N 0.24398 0.94148 0.16313 0.0
C2073 C 0.26698 0.95548 0.1481 0.0
C2074 C 0.29366 0.98238 0.155 0.0
C2075 C 0.27307 0.06587 0.37109 0.0
C2076 C 0.26444 0.07104 0.39254 0.0
C2077 C 0.29862 0.03854 0.36462 0.0
C2078 C 0.31737 0.01638 0.37944 0.0
H2079 H 0.25992 0.0831 0.35923 0.0
H2080 H 0.3047 0.03563 0.34799 0.0
S2081 S 0.30488 0.01907 0.43743 0.0
N2082 N 0.27604 0.05119 0.42849 0.0
N2083 N 0.32537 1.00113 0.41646 0.0
C2084 C 0.30897 0.02128 0.40091 0.0
C2085 C 0.28213 0.04826 0.40743 0.0
C2086 C 0.21372 0.03324 0.6577 0.0
C2087 C 0.19201 0.0145 0.64265 0.0
C2088 C 0.24032 0.05981 0.65154 0.0
C2089 C 0.24703 0.06755 0.63012 0.0
H2090 H 0.20912 0.02841 0.67434 0.0
H2091 H 0.25561 0.0746 0.66364 0.0
S2092 S 0.19877 0.02465 0.58461 0.0
N2093 N 0.1794 1.00499 0.60542 0.0
N2094 N 0.23049 0.05362 0.59389 0.0
C2095 C 0.22645 0.04801 0.61493 0.0
C2096 C 0.19863 0.02183 0.6212 0.0
C2097 C 0.20005 0.98854 0.90154 0.0
C2098 C 0.19387 0.99598 0.88003 0.0
C2099 C 0.22662 0.96221 0.90803 0.0
C2100 C 0.24692 0.94147 0.8932 0.0
H2101 H 0.1841 1.00311 0.91345 0.0
H2102 H 0.2303 0.95708 0.92471 0.0
S2103 S 0.24116 0.95034 0.83507 0.0
N2104 N 0.2109 0.98116 0.844 0.0
N2105 N 0.25951 0.93046 0.85611 0.0
C2106 C 0.2411 0.94875 0.87167 0.0
C2107 C 0.21492 0.97635 0.8651 0.0
C2108 C 0.73055 0.0452 0.90648 0.0
C2109 C 0.74939 0.06702 0.89153 0.0
C2110 C 0.70383 0.01885 0.9002 0.0
C2111 C 0.69599 0.0125 0.87875 0.0
H2112 H 0.73541 0.04955 0.92314 0.0
H2113 H 0.68897 1.00349 0.91224 0.0
S2114 S 0.7392 0.06108 0.83346 0.0
N2115 N 0.75899 0.08003 0.85436 0.0
N2116 N 0.71001 0.02943 0.8426 0.0
C2117 C 0.71566 0.03314 0.86366 0.0
C2118 C 0.74203 0.06071 0.87005 0.0
C2119 C 0.71105 0.9784 0.65648 0.0
C2120 C 0.68968 0.99748 0.64142 0.0
C2121 C 0.73684 0.95107 0.65035 0.0
C2122 C 0.74308 0.9429 0.62894 0.0
H2123 H 0.70685 0.98366 0.67312 0.0
H2124 H 0.75198 0.93613 0.66244 0.0
S2125 S 0.6954 0.98629 0.58343 0.0
N2126 N 0.67673 0.0067 0.60422 0.0
N2127 N 0.72651 0.95668 0.59271 0.0
C2128 C 0.72281 0.96267 0.61374 0.0
C2129 C 0.69573 0.98961 0.61998 0.0
C2130 C 0.78675 0.96311 0.40975 0.0
C2131 C 0.7632 0.94492 0.39538 0.0
C2132 C 0.81339 0.98898 0.40283 0.0
C2133 C 0.8167 0.9985 0.38138 0.0
H2134 H 0.78558 0.95626 0.42635 0.0
H2135 H 0.83174 1.00152 0.41438 0.0
S2136 S 0.7604 0.96014 0.33756 0.0
N2137 N 0.74436 0.9388 0.35874 0.0
N2138 N 0.79343 0.9885 0.34593 0.0
C2139 C 0.79243 0.98154 0.36696 0.0
C2140 C 0.76598 0.95445 0.37391 0.0
C2141 C 0.7845 0.04784 0.11517 0.0
C2142 C 0.76427 0.06837 0.13011 0.0
C2143 C 0.81138 0.02174 0.12152 0.0
C2144 C 0.81792 0.01441 0.143 0.0
H2145 H 0.78054 0.05299 0.0985 0.0
H2146 H 0.82729 0.00728 0.10955 0.0
S2147 S 0.77101 0.05963 0.1882 0.0
N2148 N 0.75215 0.07935 0.16726 0.0
N2149 N 0.80135 0.02904 0.17913 0.0
C2150 C 0.79694 0.03381 0.15804 0.0
C2151 C 0.77045 0.06117 0.15161 0.0
C2152 C 0.75505 0.47673 0.65136 0.0
C2153 C 0.76296 0.44216 0.64189 0.0
C2154 C 0.78302 0.50351 0.6546 0.0
C2155 C 0.82018 0.49677 0.64865 0.0
H2156 H 0.72699 0.4832 0.65637 0.0
H2157 H 0.77538 0.52964 0.66191 0.0
S2158 S 0.85603 0.4098 0.62417 0.0
N2159 N 0.81107 0.40237 0.62713 0.0
N2160 N 0.86339 0.4521 0.63333 0.0
C2161 C 0.82847 0.46216 0.63927 0.0
C2162 C 0.79998 0.43507 0.63585 0.0
C2163 C 0.81462 0.52194 0.90213 0.0
C2164 C 0.8219 0.51526 0.88065 0.0
C2165 C 0.78754 0.54788 0.90846 0.0
C2166 C 0.76787 0.56894 0.89351 0.0
H2167 H 0.83003 0.50701 0.91412 0.0
H2168 H 0.78292 0.55242 0.92512 0.0
S2169 S 0.77676 0.56212 0.83542 0.0
N2170 N 0.8067 0.53116 0.84451 0.0
N2171 N 0.75719 0.58119 0.85635 0.0
C2172 C 0.77488 0.56247 0.87202 0.0
C2173 C 0.80154 0.53526 0.86559 0.0
C2174 C 0.72698 0.54678 0.11533 0.0
C2175 C 0.74728 0.56698 0.13039 0.0
C2176 C 0.69994 0.52075 0.12155 0.0
C2177 C 0.69329 0.51316 0.14299 0.0
H2178 H 0.73093 0.55222 0.0987 0.0
H2179 H 0.68391 0.50663 0.1095 0.0
S2180 S 0.74046 0.55735 0.18843 0.0
N2181 N 0.75947 0.57727 0.16759 0.0
N2182 N 0.70993 0.52708 0.17919 0.0
C2183 C 0.71442 0.53214 0.15814 0.0
C2184 C 0.74108 0.55943 0.15185 0.0
C2185 C 0.71311 0.43583 0.38892 0.0
C2186 C 0.75085 0.44541 0.39149 0.0
C2187 C 0.68633 0.46248 0.38344 0.0
C2188 C 0.69602 0.49998 0.38002 0.0
H2189 H 0.70396 0.4074 0.39123 0.0
H2190 H 0.65772 0.45343 0.38181 0.0
S2191 S 0.79104 0.53984 0.38456 0.0
N2192 N 0.79654 0.49531 0.39014 0.0
N2193 N 0.74625 0.54535 0.37968 0.0
C2194 C 0.73368 0.51003 0.38242 0.0
C2195 C 0.76101 0.48284 0.38823 0.0
C2196 C 0.1965 0.51951 0.40093 0.0
C2197 C 0.19027 0.51118 0.37954 0.0
C2198 C 0.22356 0.54563 0.40707 0.0
C2199 C 0.24434 0.56527 0.39196 0.0
H2200 H 0.18025 0.50576 0.41302 0.0
H2201 H 0.22726 0.55148 0.42368 0.0
S2202 S 0.23851 0.55387 0.33398 0.0
N2203 N 0.20768 0.52403 0.34332 0.0
N2204 N 0.2572 0.57436 0.35474 0.0
C2205 C 0.23842 0.55713 0.37054 0.0
C2206 C 0.21174 0.52973 0.36435 0.0
C2207 C 0.23847 0.44816 0.15096 0.0
C2208 C 0.2468 0.44241 0.12952 0.0
C2209 C 0.2124 0.47509 0.15727 0.0
C2210 C 0.19286 0.4962 0.1423 0.0
H2211 H 0.25213 0.43158 0.16293 0.0
H2212 H 0.20646 0.4784 0.1739 0.0
S2213 S 0.20444 0.49185 0.0843 0.0
N2214 N 0.23419 0.46073 0.09342 0.0
N2215 N 0.18391 0.51005 0.10518 0.0
C2216 C 0.20107 0.49085 0.12085 0.0
C2217 C 0.22841 0.46429 0.11447 0.0
C2218 C 0.31178 0.49464 0.90486 0.0
C2219 C 0.31696 0.50335 0.88342 0.0
C2220 C 0.28496 0.46853 0.9113 0.0
C2221 C 0.26318 0.44932 0.89646 0.0
H2222 H 0.32911 0.50763 0.91674 0.0
H2223 H 0.28259 0.462 0.92791 0.0
S2224 S 0.26533 0.46251 0.83849 0.0
N2225 N 0.29705 0.49176 0.84747 0.0
N2226 N 0.24769 0.4417 0.85943 0.0
C2227 C 0.26756 0.45836 0.87502 0.0
C2228 C 0.29415 0.48565 0.86853 0.0
C2229 C 0.28216 0.50916 0.62547 0.0
C2230 C 0.3147 0.51557 0.63732 0.0
C2231 C 0.25645 0.53776 0.62146 0.0
C2232 C 0.26225 0.57418 0.62899 0.0
H2233 H 0.27667 0.48187 0.61892 0.0
H2234 H 0.2321 0.53128 0.61211 0.0
S2235 S 0.3429 0.60576 0.6611 0.0
N2236 N 0.35086 0.56121 0.65686 0.0
N2237 N 0.3031 0.61477 0.64922 0.0
C2238 C 0.29445 0.58085 0.64113 0.0
C2239 C 0.32045 0.55164 0.64535 0.0
C2240 C 0.38895 0.19611 0.14848 0.0
C2241 C 0.38737 0.1624 0.1372 0.0
C2242 C 0.37508 0.22921 0.1401 0.0
C2243 C 0.35931 0.23071 0.11984 0.0
H2244 H 0.40086 0.19723 0.16413 0.0
H2245 H 0.37704 0.25405 0.14967 0.0
S2246 S 0.35004 0.15132 0.08293 0.0
N2247 N 0.36956 0.13301 0.10408 0.0
N2248 N 0.3441 0.19596 0.08819 0.0
C2249 C 0.35841 0.19771 0.10796 0.0
C2250 C 0.37217 0.16346 0.11667 0.0
C2251 C 0.0654 0.1367 0.40034 0.0
C2252 C 0.09882 0.13658 0.38878 0.0
C2253 C 0.0324 0.12255 0.39196 0.0
C2254 C 0.03065 0.10791 0.37141 0.0
H2255 H 0.06441 0.14773 0.4162 0.0
H2256 H 0.00783 0.12351 0.40179 0.0
S2257 S 0.10928 0.10296 0.3337 0.0
N2258 N 0.12769 0.12154 0.3551 0.0
N2259 N 0.06495 0.09555 0.3392 0.0
C2260 C 0.06339 0.10849 0.35928 0.0
C2261 C 0.09755 0.12256 0.36799 0.0
C2262 C 0.14371 0.8515 0.61983 0.0
C2263 C 0.11737 0.84989 0.63636 0.0
C2264 C 0.15769 0.81887 0.61031 0.0
C2265 C 0.14569 0.78358 0.61697 0.0
H2266 H 0.15444 0.87809 0.61458 0.0
H2267 H 0.17899 0.82121 0.59832 0.0
S2268 S 0.07436 0.76339 0.65753 0.0
N2269 N 0.07785 0.80915 0.65741 0.0
N2270 N 0.1041 0.74868 0.63959 0.0
C2271 C 0.11833 0.78156 0.63267 0.0
C2272 C 0.10416 0.81445 0.64234 0.0
C2273 C 0.47873 0.89068 0.89342 0.0
C2274 C 0.48047 0.90519 0.87285 0.0
C2275 C 0.44574 0.87642 0.90178 0.0
C2276 C 0.41237 0.8764 0.89017 0.0
H2277 H 0.50334 0.8897 0.90323 0.0
H2278 H 0.4467 0.86524 0.9176 0.0
S2279 S 0.40165 0.91095 0.83529 0.0
N2280 N 0.44602 0.9181 0.84076 0.0
N2281 N 0.38333 0.89215 0.85664 0.0
C2282 C 0.41353 0.89085 0.86947 0.0
C2283 C 0.44765 0.90492 0.86078 0.0
C2284 C 0.37047 0.78055 0.37999 0.0
C2285 C 0.35586 0.77837 0.40052 0.0
C2286 C 0.38377 0.81397 0.37166 0.0
C2287 C 0.38269 0.84736 0.38326 0.0
H2288 H 0.37206 0.75598 0.37017 0.0
H2289 H 0.39493 0.81333 0.35583 0.0
S2290 S 0.34798 0.85687 0.43818 0.0
N2291 N 0.34205 0.81233 0.43266 0.0
N2292 N 0.3663 0.8758 0.41685 0.0
C2293 C 0.36844 0.84569 0.40398 0.0
C2294 C 0.35532 0.81113 0.41264 0.0
C2295 C 0.41354 0.11422 0.6531 0.0
C2296 C 0.41448 0.14149 0.63705 0.0
C2297 C 0.44652 0.10066 0.66243 0.0
C2298 C 0.48149 0.1141 0.65612 0.0
H2299 H 0.38724 0.10242 0.65807 0.0
H2300 H 0.44472 0.07855 0.67398 0.0
S2301 S 0.49983 0.18815 0.61688 0.0
N2302 N 0.45418 0.18332 0.61682 0.0
N2303 N 0.5153 0.1579 0.63433 0.0
C2304 C 0.4828 0.14237 0.64092 0.0
C2305 C 0.44957 0.15606 0.63141 0.0
C2306 C 0.12536 0.17209 0.904 0.0
C2307 C 0.1355 0.15986 0.8837 0.0
C2308 C 0.13984 0.20537 0.91254 0.0
C2309 C 0.16512 0.22772 0.90113 0.0
H2310 H 0.10507 0.15663 0.91305 0.0
H2311 H 0.13012 0.2142 0.92789 0.0
S2312 S 0.20462 0.20437 0.84853 0.0
N2313 N 0.1757 0.17 0.85373 0.0
N2314 N 0.20184 0.2325 0.86896 0.0
C2315 C 0.17668 0.21447 0.88122 0.0
C2316 C 0.16215 0.18065 0.87273 0.0
C2317 C 0.09478 0.89631 0.15157 0.0
C2318 C 0.09353 0.86977 0.13513 0.0
C2319 C 0.06197 0.91024 0.16087 0.0
C2320 C 0.02686 0.89805 0.15405 0.0
H2321 H 0.12123 0.90721 0.15694 0.0
H2322 H 0.06405 0.93163 0.17283 0.0
S2323 S 0.00756 0.82606 0.1137 0.0
N2324 N 0.05331 0.82981 0.11401 0.0
N2325 N 0.99246 0.85596 0.13146 0.0
C2326 C 0.02516 0.87049 0.13844 0.0
C2327 C 0.05825 0.85634 0.12899 0.0
C2328 C 0.65896 0.81213 0.91149 0.0
C2329 C 0.64916 0.77736 0.903 0.0
C2330 C 0.64549 0.84546 0.90249 0.0
C2331 C 0.62164 0.84509 0.88477 0.0
H2332 H 0.67804 0.81362 0.92467 0.0
H2333 H 0.65437 0.87164 0.90928 0.0
S2334 S 0.58482 0.76014 0.85845 0.0
N2335 N 0.61221 0.74425 0.87722 0.0
N2336 N 0.58693 0.80581 0.86037 0.0
C2337 C 0.6107 0.81007 0.87683 0.0
C2338 C 0.62445 0.77654 0.88593 0.0
C2339 C 0.97533 0.89136 0.63123 0.0
C2340 C 0.97692 0.90679 0.6516 0.0
C2341 C 0.94235 0.87683 0.62297 0.0
C2342 C 0.90885 0.87744 0.63446 0.0
H2343 H 1.00003 0.88994 0.62152 0.0
H2344 H 0.94343 0.86501 0.6073 0.0
S2345 S 0.89793 0.91396 0.68894 0.0
N2346 N 0.94235 0.92087 0.68347 0.0
N2347 N 0.87968 0.89441 0.66777 0.0
C2348 C 0.90995 0.89259 0.65501 0.0
C2349 C 0.94405 0.90694 0.66361 0.0
C2350 C 0.84746 0.19578 0.4112 0.0
C2351 C 0.85889 0.231 0.40413 0.0
C2352 C 0.86213 0.16304 0.40216 0.0
C2353 C 0.88882 0.16449 0.38581 0.0
H2354 H 0.82625 0.19353 0.42325 0.0
H2355 H 0.85182 0.13647 0.4077 0.0
S2356 S 0.93113 0.25086 0.364 0.0
N2357 N 0.9005 0.26572 0.38141 0.0
N2358 N 0.92829 0.20507 0.36462 0.0
C2359 C 0.90151 0.19991 0.37944 0.0
C2360 C 0.88649 0.2329 0.38854 0.0
C2361 C 0.56506 0.14082 0.12428 0.0
C2362 C 0.59912 0.13766 0.13511 0.0
C2363 C 0.53196 0.12705 0.13273 0.0
C2364 C 0.53084 0.10979 0.1526 0.0
H2365 H 0.56368 0.15382 0.10892 0.0
H2366 H 0.50682 0.13016 0.12351 0.0
S2367 S 0.61124 0.09616 0.18832 0.0
N2368 N 0.62924 0.11688 0.16744 0.0
N2369 N 0.56631 0.09154 0.18345 0.0
C2370 C 0.56419 0.10738 0.16407 0.0
C2371 C 0.59842 0.12107 0.15529 0.0
C2372 C 0.638 0.23023 0.64235 0.0
C2373 C 0.64945 0.23279 0.62122 0.0
C2374 C 0.62501 0.19685 0.65091 0.0
C2375 C 0.62341 0.16388 0.63894 0.0
H2376 H 0.6386 0.25445 0.65247 0.0
H2377 H 0.61622 0.19719 0.66721 0.0
S2378 S 0.64952 0.15553 0.58247 0.0
N2379 N 0.65747 0.19968 0.58816 0.0
N2380 N 0.63398 0.13628 0.60439 0.0
C2381 C 0.6346 0.16595 0.61764 0.0
C2382 C 0.64729 0.20047 0.60876 0.0
C2383 C 0.56083 0.90976 0.36227 0.0
C2384 C 0.52576 0.8976 0.36919 0.0
C2385 C 0.59373 0.89599 0.37156 0.0
C2386 C 0.59263 0.86961 0.38807 0.0
H2387 H 0.56282 0.93098 0.35022 0.0
H2388 H 0.62013 0.90686 0.36611 0.0
S2389 S 0.50685 0.82589 0.40973 0.0
N2390 N 0.49159 0.85561 0.39193 0.0
N2391 N 0.55258 0.82977 0.40936 0.0
C2392 C 0.55739 0.8562 0.39431 0.0
C2393 C 0.52422 0.87019 0.38488 0.0
C2394 C 0.87115 0.78216 0.1416 0.0
C2395 C 0.85692 0.7803 0.12097 0.0
C2396 C 0.88463 0.81534 0.15013 0.0
C2397 C 0.88423 0.8488 0.13861 0.0
H2398 H 0.87224 0.75755 0.15139 0.0
H2399 H 0.89535 0.81447 0.16605 0.0
S2400 S 0.85114 0.85907 0.08341 0.0
N2401 N 0.84441 0.81459 0.08879 0.0
N2402 N 0.86917 0.87763 0.10493 0.0
C2403 C 0.87054 0.84743 0.11775 0.0
C2404 C 0.85715 0.81311 0.10891 0.0
C2405 C 0.98166 0.12695 0.89147 0.0
C2406 C 0.98395 0.11214 0.87101 0.0
C2407 C 0.948 0.13968 0.89982 0.0
C2408 C 0.91457 0.13774 0.88828 0.0
H2409 H 0.00629 0.12897 0.90121 0.0
H2410 H 0.94845 0.15097 0.91563 0.0
S2411 S 0.90552 0.10192 0.83354 0.0
N2412 N 0.95021 0.09709 0.839 0.0
N2413 N 0.88631 0.12021 0.8548 0.0
C2414 C 0.91644 0.12329 0.86759 0.0
C2415 C 0.95121 0.11081 0.85893 0.0
C2416 C 0.87301 0.73074 0.64249 0.0
C2417 C 0.85705 0.73146 0.62226 0.0
C2418 C 0.88725 0.698 0.65118 0.0
C2419 C 0.88582 0.6639 0.64027 0.0
H2420 H 0.87492 0.75593 0.65178 0.0
H2421 H 0.89939 0.69974 0.66675 0.0
S2422 S 0.84763 0.65066 0.58634 0.0
N2423 N 0.84155 0.69545 0.59111 0.0
N2424 N 0.86756 0.63324 0.60761 0.0
C2425 C 0.87022 0.66414 0.61983 0.0
C2426 C 0.85614 0.698 0.61079 0.0
C2427 C 0.58332 0.6491 0.87145 0.0
C2428 C 0.60448 0.62941 0.88635 0.0
C2429 C 0.55035 0.63404 0.86299 0.0
C2430 C 0.53727 0.59878 0.86928 0.0
H2431 H 0.59171 0.67668 0.8667 0.0
H2432 H 0.53421 0.65093 0.85225 0.0
S2433 S 0.58672 0.53358 0.90503 0.0
N2434 N 0.61303 0.57123 0.90491 0.0
N2435 N 0.55139 0.54286 0.88927 0.0
C2436 C 0.55979 0.57799 0.88314 0.0
C2437 C 0.59331 0.5933 0.8916 0.0
C2438 C 0.62305 0.31533 0.14903 0.0
C2439 C 0.62451 0.34904 0.13776 0.0
C2440 C 0.63711 0.28228 0.14063 0.0
C2441 C 0.65293 0.28086 0.12037 0.0
H2442 H 0.61106 0.31417 0.16465 0.0
H2443 H 0.6352 0.25741 0.15018 0.0
S2444 S 0.6621 0.36036 0.08356 0.0
N2445 N 0.64242 0.37854 0.10471 0.0
N2446 N 0.66816 0.31574 0.08879 0.0
C2447 C 0.65378 0.3139 0.10854 0.0
C2448 C 0.63985 0.34807 0.11726 0.0
C2449 C 0.91109 0.39773 0.37175 0.0
C2450 C 0.9128 0.3692 0.38704 0.0
C2451 C 0.94366 0.41217 0.36236 0.0
C2452 C 0.97892 0.39844 0.36792 0.0
H2453 H 0.88455 0.4099 0.36752 0.0
H2454 H 0.94135 0.43512 0.35138 0.0
S2455 S 0.99894 0.32097 0.40471 0.0
N2456 N 0.9533 0.32564 0.40547 0.0
N2457 N 0.01366 0.35293 0.38805 0.0
C2458 C 0.9809 0.36891 0.38231 0.0
C2459 C 0.9481 0.35424 0.3918 0.0
C2460 C 0.88708 0.31607 0.87266 0.0
C2461 C 0.88706 0.3493 0.88441 0.0
C2462 C 0.87319 0.28288 0.88096 0.0
C2463 C 0.85896 0.28078 0.90158 0.0
H2464 H 0.89791 0.31539 0.85676 0.0
H2465 H 0.87408 0.25843 0.87103 0.0
S2466 S 0.85357 0.35896 0.93957 0.0
N2467 N 0.8719 0.37772 0.91821 0.0
N2468 N 0.84651 0.31464 0.93393 0.0
C2469 C 0.85937 0.31339 0.91383 0.0
C2470 C 0.87311 0.34773 0.90521 0.0
C2471 C 0.97872 0.62382 0.13076 0.0
C2472 C 0.98059 0.6084 0.1511 0.0
C2473 C 0.94541 0.63756 0.12247 0.0
C2474 C 0.91189 0.63606 0.13394 0.0
H2475 H 1.00343 0.6257 0.12106 0.0
H2476 H 0.94619 0.64935 0.10679 0.0
S2477 S 0.90166 0.59897 0.18833 0.0
N2478 N 0.94626 0.59326 0.1829 0.0
N2479 N 0.88303 0.61822 0.16719 0.0
C2480 C 0.9133 0.62092 0.15448 0.0
C2481 C 0.94771 0.60741 0.16309 0.0
C2482 C 0.62307 0.69631 0.37304 0.0
C2483 C 0.62481 0.66227 0.38398 0.0
C2484 C 0.63712 0.72917 0.38167 0.0
C2485 C 0.65321 0.73013 0.40187 0.0
H2486 H 0.61078 0.69791 0.35751 0.0
H2487 H 0.63482 0.75428 0.37236 0.0
S2488 S 0.66319 0.64959 0.4379 0.0
N2489 N 0.64334 0.63191 0.41666 0.0
N2490 N 0.669 0.69439 0.43306 0.0
C2491 C 0.65441 0.69673 0.41338 0.0
C2492 C 0.64051 0.66272 0.40439 0.0
C2493 C 0.58964 0.37681 0.65317 0.0
C2494 C 0.59747 0.38264 0.63165 0.0
C2495 C 0.55677 0.39058 0.66253 0.0
C2496 C 0.53054 0.41122 0.65081 0.0
H2497 H 0.60842 0.36052 0.66275 0.0
H2498 H 0.55156 0.38422 0.67893 0.0
S2499 S 0.54098 0.43872 0.59454 0.0
N2500 N 0.57828 0.41365 0.59965 0.0
N2501 N 0.51712 0.43935 0.61669 0.0
C2502 C 0.53921 0.41865 0.6295 0.0
C2503 C 0.57241 0.40443 0.62008 0.0
C2504 C 0.14496 0.34722 0.40184 0.0
C2505 C 0.11794 0.34543 0.38567 0.0
C2506 C 0.1593 0.31468 0.41129 0.0
C2507 C 0.14694 0.27932 0.40496 0.0
H2508 H 0.15601 0.37386 0.40678 0.0
H2509 H 0.18117 0.31715 0.42294 0.0
S2510 S 0.0735 0.25882 0.36565 0.0
N2511 N 0.07731 0.30456 0.36542 0.0
N2512 N 0.10402 0.24425 0.38321 0.0
C2513 C 0.1188 0.27716 0.3897 0.0
C2514 C 0.10436 0.30996 0.38005 0.0
C2515 C 0.44574 0.37354 0.12318 0.0
C2516 C 0.41207 0.37488 0.1345 0.0
C2517 C 0.47883 0.38744 0.13159 0.0
C2518 C 0.48036 0.40298 0.15191 0.0
H2519 H 0.44686 0.36175 0.1075 0.0
H2520 H 0.50365 0.38562 0.12199 0.0
S2521 S 0.40102 0.4117 0.18889 0.0
N2522 N 0.38271 0.39234 0.16767 0.0
N2523 N 0.44563 0.41781 0.18362 0.0
C2524 C 0.44737 0.4037 0.1638 0.0
C2525 C 0.41313 0.38994 0.15506 0.0
C2526 C 0.36977 0.72571 0.88193 0.0
C2527 C 0.36099 0.72973 0.90343 0.0
C2528 C 0.38467 0.69278 0.87386 0.0
C2529 C 0.3911 0.66149 0.8867 0.0
H2530 H 0.36556 0.74843 0.87102 0.0
H2531 H 0.39108 0.69216 0.85722 0.0
S2532 S 0.37411 0.65726 0.94441 0.0
N2533 N 0.36099 0.69971 0.93775 0.0
N2534 N 0.38829 0.63708 0.92245 0.0
C2535 C 0.38276 0.66496 0.90836 0.0
C2536 C 0.36796 0.69912 0.91672 0.0
C2537 C 0.03147 0.6279 0.63274 0.0
C2538 C 0.03085 0.61362 0.65338 0.0
C2539 C 0.06406 0.64171 0.62367 0.0
C2540 C 0.09814 0.64161 0.63462 0.0
H2541 H 0.00633 0.62866 0.62337 0.0
H2542 H 0.06227 0.65237 0.60776 0.0
S2543 S 0.11156 0.60866 0.68963 0.0
N2544 N 0.06689 0.60149 0.68498 0.0
N2545 N 0.12883 0.62688 0.66783 0.0
C2546 C 0.09797 0.62797 0.65551 0.0
C2547 C 0.06425 0.61424 0.66491 0.0
C2548 C 0.12583 0.69514 0.15002 0.0
C2549 C 0.12664 0.66168 0.1385 0.0
C2550 C 0.1399 0.72827 0.1417 0.0
C2551 C 0.15499 0.73002 0.12127 0.0
H2552 H 0.11414 0.69609 0.16572 0.0
H2553 H 0.13826 0.75297 0.15141 0.0
S2554 S 0.16291 0.65104 0.08395 0.0
N2555 N 0.14375 0.63261 0.10517 0.0
N2556 N 0.16928 0.69555 0.08938 0.0
C2557 C 0.1555 0.69713 0.10928 0.0
C2558 C 0.14166 0.66288 0.11793 0.0
C2559 C 0.0663 0.36857 0.89854 0.0
C2560 C 0.10021 0.37093 0.88747 0.0
C2561 C 0.03332 0.38299 0.8903 0.0
C2562 C 0.03217 0.40008 0.87039 0.0
H2563 H 0.06494 0.35576 0.91395 0.0
H2564 H 0.00833 0.38054 0.89971 0.0
S2565 S 0.11201 0.41133 0.83398 0.0
N2566 N 0.13002 0.39051 0.85481 0.0
N2567 N 0.06731 0.41703 0.83917 0.0
C2568 C 0.06529 0.40152 0.85864 0.0
C2569 C 0.09941 0.38718 0.86721 0.0
C2570 C 0.37652 0.28117 0.64233 0.0
C2571 C 0.35757 0.28118 0.62295 0.0
C2572 C 0.391 0.31382 0.65101 0.0
C2573 C 0.38679 0.34853 0.64097 0.0
H2574 H 0.38054 0.25549 0.65095 0.0
H2575 H 0.40543 0.31153 0.66591 0.0
S2576 S 0.34121 0.3635 0.58907 0.0
N2577 N 0.33694 0.31833 0.59325 0.0
N2578 N 0.36351 0.38035 0.60974 0.0
C2579 C 0.36858 0.34891 0.62123 0.0
C2580 C 0.35422 0.31517 0.61219 0.0
C2581 C 0.47841 0.62183 0.39036 0.0
C2582 C 0.48037 0.6071 0.36985 0.0
C2583 C 0.44503 0.63521 0.39876 0.0
C2584 C 0.41152 0.63397 0.38726 0.0
H2585 H 0.50311 0.62354 0.40006 0.0
H2586 H 0.44578 0.6466 0.41454 0.0
S2587 S 0.40151 0.59848 0.33251 0.0
N2588 N 0.44613 0.5928 0.33789 0.0
N2589 N 0.38276 0.61697 0.35384 0.0
C2590 C 0.413 0.61941 0.36659 0.0
C2591 C 0.44749 0.60632 0.35785 0.0
loop_
_geom_bond_atom_site_label_1
_geom_bond_atom_site_label_2
_geom_bond_distance
_geom_bond_site_symmetry_2
_ccdc_geom_bond_type
Co0 O2 2.143 . S
Co0 O8 2.074 . S
Co0 O11 2.093 . S
Co0 O24 2.097 . S
Co0 N41 2.151 1_545 S
Co0 N49 2.214 . S
Co1 O2 2.160 . S
Co1 O7 2.058 . S
Co1 O17 2.057 . S
Co1 O32 2.037 . S
Co1 N36 2.145 . S
Co1 N57 2.257 . S
O2 Co0 2.143 . S
O2 Co1 2.160 . S
C3 O4 1.278 1_565 S
C3 O11 1.224 1_565 S
O4 C3 1.278 1_545 S
C5 O6 1.245 1_545 S
C5 O17 1.232 . S
O6 C5 1.245 1_565 S
O7 Co1 2.058 . S
O7 C33 1.269 . S
O8 Co0 2.074 . S
O8 C33 1.257 . S
H9 C34 0.930 . S
H10 C40 0.930 . S
O11 Co0 2.093 . S
O11 C3 1.224 1_545 S
H12 C44 0.929 . S
H13 C46 0.930 . S
H14 C47 0.930 . S
H15 C45 0.929 1_545 S
H16 C48 0.928 1_565 S
O17 Co1 2.057 . S
O17 C5 1.232 . S
H18 C37 0.929 . S
H19 C38 0.929 . S
H20 C50 0.931 . S
H21 C42 0.929 . S
H22 C51 0.930 . S
H23 C43 0.931 . S
O24 Co0 2.097 . S
O24 C52 1.214 . S
H25 C53 0.929 . S
H26 C54 0.929 . S
H27 C55 0.930 . S
H28 C56 0.929 . S
H29 C58 0.930 . S
H30 C35 0.930 . S
H31 C39 0.930 . S
O32 Co1 2.037 . S
O32 C52 1.234 . S
C33 O7 1.269 . S
C33 O8 1.257 . S
C34 H9 0.930 . S
C34 C37 1.388 . S
C34 C39 1.418 . S
C35 H30 0.930 . S
C35 C38 1.404 . S
C35 C39 1.353 . S
N36 Co1 2.145 . S
N36 C37 1.397 . S
N36 C38 1.334 . S
C37 H18 0.929 . S
C37 C34 1.388 . S
C37 N36 1.397 . S
C38 H19 0.929 . S
C38 C35 1.404 . S
C38 N36 1.334 . S
C39 H31 0.930 . S
C39 C34 1.418 . S
C39 C35 1.353 . S
C40 H10 0.930 . S
C40 N41 1.330 . S
C40 C42 1.446 . S
N41 Co0 2.151 1_565 S
N41 C40 1.330 . S
N41 C45 1.418 . S
C42 H21 0.929 . S
C42 C40 1.446 . S
C42 C43 1.332 . S
C43 H23 0.931 . S
C43 C42 1.332 . S
C43 C44 1.267 . S
C44 H12 0.929 . S
C44 C43 1.267 . S
C44 C45 1.251 . S
C45 H15 0.929 1_565 S
C45 N41 1.418 . S
C45 C44 1.251 . S
C46 H13 0.930 . S
C46 C48 1.406 . S
C46 C51 1.261 . S
C47 H14 0.930 . S
C47 N49 1.325 . S
C47 C50 1.357 . S
C48 H16 0.928 1_545 S
C48 C46 1.406 . S
C48 N49 1.261 . S
N49 Co0 2.214 . S
N49 C47 1.325 . S
N49 C48 1.261 . S
C50 H20 0.931 . S
C50 C47 1.357 . S
C50 C51 1.312 . S
C51 H22 0.930 . S
C51 C46 1.261 . S
C51 C50 1.312 . S
C52 O24 1.214 . S
C52 O32 1.234 . S
C53 H25 0.929 . S
C53 C56 1.391 . S
C53 C58 1.391 . S
C54 H26 0.929 . S
C54 C55 1.390 . S
C54 N57 1.391 . S
C55 H27 0.930 . S
C55 C54 1.390 . S
C55 C56 1.392 . S
C56 H28 0.929 . S
C56 C53 1.391 . S
C56 C55 1.392 . S
N57 Co1 2.257 . S
N57 C54 1.391 . S
N57 C58 1.388 . S
C58 H29 0.930 . S
C58 C53 1.391 . S
C58 N57 1.388 . S
Co59 O61 2.143 . S
Co59 O67 2.074 . S
Co59 O70 2.093 . S
Co59 O83 2.097 . S
Co59 N100 2.151 . S
Co59 N108 2.214 . S
Co60 O61 2.160 . S
Co60 O66 2.058 . S
Co60 O76 2.057 . S
Co60 O91 2.037 . S
Co60 N95 2.145 . S
Co60 N116 2.257 . S
O61 Co59 2.143 . S
O61 Co60 2.160 . S
C62 O63 1.278 . S
C62 O70 1.224 . S
O63 C62 1.278 . S
C64 O65 1.245 . S
C64 O76 1.232 . S
O65 C64 1.245 . S
O66 Co60 2.058 . S
O66 C92 1.269 . S
O67 Co59 2.074 . S
O67 C92 1.257 . S
H68 C93 0.930 . S
H69 C99 0.930 . S
O70 Co59 2.093 . S
O70 C62 1.224 . S
H71 C103 0.929 . S
H72 C105 0.930 . S
H73 C106 0.930 . S
H74 C104 0.929 . S
H75 C107 0.928 . S
O76 Co60 2.057 . S
O76 C64 1.232 . S
H77 C96 0.929 . S
H78 C97 0.929 . S
H79 C109 0.931 . S
H80 C101 0.929 . S
H81 C110 0.930 . S
H82 C102 0.931 . S
O83 Co59 2.097 . S
O83 C111 1.214 . S
H84 C112 0.929 . S
H85 C113 0.929 . S
H86 C114 0.930 . S
H87 C115 0.929 . S
H88 C117 0.930 . S
H89 C94 0.930 . S
H90 C98 0.930 . S
O91 Co60 2.037 . S
O91 C111 1.234 . S
C92 O66 1.269 . S
C92 O67 1.257 . S
C93 H68 0.930 . S
C93 C96 1.388 . S
C93 C98 1.418 . S
C94 H89 0.930 . S
C94 C97 1.404 . S
C94 C98 1.353 . S
N95 Co60 2.145 . S
N95 C96 1.397 . S
N95 C97 1.334 . S
C96 H77 0.929 . S
C96 C93 1.388 . S
C96 N95 1.397 . S
C97 H78 0.929 . S
C97 C94 1.404 . S
C97 N95 1.334 . S
C98 H90 0.930 . S
C98 C93 1.418 . S
C98 C94 1.353 . S
C99 H69 0.930 . S
C99 N100 1.330 . S
C99 C101 1.446 . S
N100 Co59 2.151 . S
N100 C99 1.330 . S
N100 C104 1.418 . S
C101 H80 0.929 . S
C101 C99 1.446 . S
C101 C102 1.332 . S
C102 H82 0.931 . S
C102 C101 1.332 . S
C102 C103 1.267 . S
C103 H71 0.929 . S
C103 C102 1.267 . S
C103 C104 1.251 . S
C104 H74 0.929 . S
C104 N100 1.418 . S
C104 C103 1.251 . S
C105 H72 0.930 . S
C105 C107 1.406 . S
C105 C110 1.261 . S
C106 H73 0.930 . S
C106 N108 1.325 . S
C106 C109 1.357 . S
C107 H75 0.928 . S
C107 C105 1.406 . S
C107 N108 1.261 . S
N108 Co59 2.214 . S
N108 C106 1.325 . S
N108 C107 1.261 . S
C109 H79 0.931 . S
C109 C106 1.357 . S
C109 C110 1.312 . S
C110 H81 0.930 . S
C110 C105 1.261 . S
C110 C109 1.312 . S
C111 O83 1.214 . S
C111 O91 1.234 . S
C112 H84 0.929 . S
C112 C115 1.391 . S
C112 C117 1.391 . S
C113 H85 0.929 . S
C113 C114 1.390 . S
C113 N116 1.391 . S
C114 H86 0.930 . S
C114 C113 1.390 . S
C114 C115 1.392 . S
C115 H87 0.929 . S
C115 C112 1.391 . S
C115 C114 1.392 . S
N116 Co60 2.257 . S
N116 C113 1.391 . S
N116 C117 1.388 . S
C117 H88 0.930 . S
C117 C112 1.391 . S
C117 N116 1.388 . S
Co118 O120 2.143 . S
Co118 O126 2.074 . S
Co118 O129 2.093 . S
Co118 O142 2.097 . S
Co118 N159 2.151 1_565 S
Co118 N167 2.214 . S
Co119 O120 2.160 . S
Co119 O125 2.058 . S
Co119 O135 2.057 . S
Co119 O150 2.037 . S
Co119 N154 2.145 . S
Co119 N175 2.257 . S
O120 Co118 2.143 . S
O120 Co119 2.160 . S
C121 O122 1.278 1_545 S
C121 O129 1.224 1_545 S
O122 C121 1.278 1_565 S
C123 O124 1.245 1_565 S
C123 O135 1.232 . S
O124 C123 1.245 1_545 S
O125 Co119 2.058 . S
O125 C151 1.277 . S
O126 Co118 2.074 . S
O126 C151 1.272 . S
H127 C152 0.930 . S
H128 C158 0.930 . S
O129 Co118 2.093 . S
O129 C121 1.224 1_565 S
H130 C162 0.929 . S
H131 C164 0.930 . S
H132 C165 0.930 . S
H133 C163 0.933 1_565 S
H134 C166 0.928 1_545 S
O135 Co119 2.057 . S
O135 C123 1.232 . S
H136 C155 0.929 . S
H137 C156 0.929 . S
H138 C168 0.931 . S
H139 C160 0.929 . S
H140 C169 0.930 . S
H141 C161 0.931 . S
O142 Co118 2.097 . S
O142 C170 1.214 . S
H143 C171 0.929 . S
H144 C172 0.929 . S
H145 C173 0.930 . S
H146 C174 0.929 . S
H147 C176 0.930 . S
H148 C153 0.930 . S
H149 C157 0.930 . S
O150 Co119 2.037 . S
O150 C170 1.234 . S
C151 O125 1.277 . S
C151 O126 1.272 . S
C152 H127 0.930 . S
C152 C155 1.388 . S
C152 C157 1.418 . S
C153 H148 0.930 . S
C153 C156 1.404 . S
C153 C157 1.353 . S
N154 Co119 2.145 . S
N154 C155 1.397 . S
N154 C156 1.334 . S
C155 H136 0.929 . S
C155 C152 1.388 . S
C155 N154 1.397 . S
C156 H137 0.929 . S
C156 C153 1.404 . S
C156 N154 1.334 . S
C157 H149 0.930 . S
C157 C152 1.418 . S
C157 C153 1.353 . S
C158 H128 0.930 . S
C158 N159 1.330 . S
C158 C160 1.446 . S
N159 Co118 2.151 1_545 S
N159 C158 1.330 . S
N159 C163 1.408 1_455 S
C160 H139 0.929 . S
C160 C158 1.446 . S
C160 C161 1.332 1_455 S
C161 H141 0.931 . S
C161 C160 1.332 1_655 S
C161 C162 1.267 . S
C162 H130 0.929 . S
C162 C161 1.267 . S
C162 C163 1.257 . S
C163 H133 0.933 1_545 S
C163 N159 1.408 1_655 S
C163 C162 1.257 . S
C164 H131 0.930 . S
C164 C166 1.406 . S
C164 C169 1.261 . S
C165 H132 0.930 . S
C165 N167 1.325 . S
C165 C168 1.357 . S
C166 H134 0.928 1_565 S
C166 C164 1.406 . S
C166 N167 1.261 . S
N167 Co118 2.214 . S
N167 C165 1.325 . S
N167 C166 1.261 . S
C168 H138 0.931 . S
C168 C165 1.357 . S
C168 C169 1.312 . S
C169 H140 0.930 . S
C169 C164 1.261 . S
C169 C168 1.312 . S
C170 O142 1.214 . S
C170 O150 1.234 . S
C171 H143 0.929 . S
C171 C174 1.391 . S
C171 C176 1.391 . S
C172 H144 0.929 . S
C172 C173 1.390 . S
C172 N175 1.391 . S
C173 H145 0.930 . S
C173 C172 1.390 . S
C173 C174 1.392 . S
C174 H146 0.929 . S
C174 C171 1.391 . S
C174 C173 1.392 . S
N175 Co119 2.257 . S
N175 C172 1.391 . S
N175 C176 1.388 . S
C176 H147 0.930 . S
C176 C171 1.391 . S
C176 N175 1.388 . S
Co177 O179 2.143 . S
Co177 O185 2.074 . S
Co177 O188 2.093 . S
Co177 O201 2.097 . S
Co177 N218 2.151 . S
Co177 N226 2.214 . S
Co178 O179 2.160 . S
Co178 O184 2.058 . S
Co178 O194 2.057 . S
Co178 O209 2.037 . S
Co178 N213 2.145 . S
Co178 N234 2.257 . S
O179 Co177 2.143 . S
O179 Co178 2.160 . S
C180 O181 1.278 . S
C180 O188 1.224 . S
O181 C180 1.278 . S
C182 O183 1.245 . S
C182 O194 1.232 . S
O183 C182 1.245 . S
O184 Co178 2.058 . S
O184 C210 1.269 . S
O185 Co177 2.074 . S
O185 C210 1.257 . S
H186 C211 0.930 . S
H187 C217 0.930 . S
O188 Co177 2.093 . S
O188 C180 1.224 . S
H189 C221 0.929 . S
H190 C223 0.930 . S
H191 C224 0.930 . S
H192 C222 0.929 . S
H193 C225 0.928 . S
O194 Co178 2.057 . S
O194 C182 1.232 . S
H195 C214 0.929 . S
H196 C215 0.929 . S
H197 C227 0.931 . S
H198 C219 0.929 . S
H199 C228 0.930 . S
H200 C220 0.931 . S
O201 Co177 2.097 . S
O201 C229 1.214 . S
H202 C230 0.929 . S
H203 C231 0.929 . S
H204 C232 0.930 . S
H205 C233 0.929 . S
H206 C235 0.930 . S
H207 C212 0.930 . S
H208 C216 0.930 . S
O209 Co178 2.037 . S
O209 C229 1.234 . S
C210 O184 1.269 . S
C210 O185 1.257 . S
C211 H186 0.930 . S
C211 C214 1.388 . S
C211 C216 1.418 . S
C212 H207 0.930 . S
C212 C215 1.404 . S
C212 C216 1.353 . S
N213 Co178 2.145 . S
N213 C214 1.397 . S
N213 C215 1.334 . S
C214 H195 0.929 . S
C214 C211 1.388 . S
C214 N213 1.397 . S
C215 H196 0.929 . S
C215 C212 1.404 . S
C215 N213 1.334 . S
C216 H208 0.930 . S
C216 C211 1.418 . S
C216 C212 1.353 . S
C217 H187 0.930 . S
C217 N218 1.330 . S
C217 C219 1.446 . S
N218 Co177 2.151 . S
N218 C217 1.330 . S
N218 C222 1.418 . S
C219 H198 0.929 . S
C219 C217 1.446 . S
C219 C220 1.332 . S
C220 H200 0.931 . S
C220 C219 1.332 . S
C220 C221 1.267 . S
C221 H189 0.929 . S
C221 C220 1.267 . S
C221 C222 1.251 . S
C222 H192 0.929 . S
C222 N218 1.418 . S
C222 C221 1.251 . S
C223 H190 0.930 . S
C223 C225 1.406 . S
C223 C228 1.261 . S
C224 H191 0.930 . S
C224 N226 1.325 . S
C224 C227 1.357 . S
C225 H193 0.928 . S
C225 C223 1.406 . S
C225 N226 1.261 . S
N226 Co177 2.214 . S
N226 C224 1.325 . S
N226 C225 1.261 . S
C227 H197 0.931 . S
C227 C224 1.357 . S
C227 C228 1.312 . S
C228 H199 0.930 . S
C228 C223 1.261 . S
C228 C227 1.312 . S
C229 O201 1.214 . S
C229 O209 1.234 . S
C230 H202 0.929 . S
C230 C233 1.391 . S
C230 C235 1.391 . S
C231 H203 0.929 . S
C231 C232 1.390 . S
C231 N234 1.391 . S
C232 H204 0.930 . S
C232 C231 1.390 . S
C232 C233 1.392 . S
C233 H205 0.929 . S
C233 C230 1.391 . S
C233 C232 1.392 . S
N234 Co178 2.257 . S
N234 C231 1.391 . S
N234 C235 1.388 . S
C235 H206 0.930 . S
C235 C230 1.391 . S
C235 N234 1.388 . S
Co236 O238 2.143 . S
Co236 O244 2.074 . S
Co236 O247 2.093 . S
Co236 O260 2.097 . S
Co236 N277 2.151 1_565 S
Co236 N285 2.214 . S
Co237 O238 2.160 . S
Co237 O243 2.058 . S
Co237 O253 2.057 . S
Co237 O268 2.037 . S
Co237 N272 2.145 . S
Co237 N293 2.257 . S
O238 Co236 2.143 . S
O238 Co237 2.160 . S
C239 O240 1.278 1_545 S
C239 O247 1.224 1_545 S
O240 C239 1.278 1_565 S
C241 O242 1.245 1_565 S
C241 O253 1.232 . S
O242 C241 1.245 1_545 S
O243 Co237 2.058 . S
O243 C269 1.269 . S
O244 Co236 2.074 . S
O244 C269 1.257 . S
H245 C270 0.930 . S
H246 C276 0.930 . S
O247 Co236 2.093 . S
O247 C239 1.224 1_565 S
H248 C280 0.929 . S
H249 C282 0.930 . S
H250 C283 0.930 . S
H251 C281 0.929 1_565 S
H252 C284 0.928 1_545 S
O253 Co237 2.057 . S
O253 C241 1.232 . S
H254 C273 0.929 . S
H255 C274 0.929 . S
H256 C286 0.931 . S
H257 C278 0.929 . S
H258 C287 0.930 . S
H259 C279 0.931 . S
O260 Co236 2.097 . S
O260 C288 1.214 . S
H261 C289 0.929 . S
H262 C290 0.929 . S
H263 C291 0.930 . S
H264 C292 0.929 . S
H265 C294 0.930 . S
H266 C271 0.930 . S
H267 C275 0.930 . S
O268 Co237 2.037 . S
O268 C288 1.234 . S
C269 O243 1.269 . S
C269 O244 1.257 . S
C270 H245 0.930 . S
C270 C273 1.388 . S
C270 C275 1.418 . S
C271 H266 0.930 . S
C271 C274 1.404 . S
C271 C275 1.353 . S
N272 Co237 2.145 . S
N272 C273 1.397 . S
N272 C274 1.334 . S
C273 H254 0.929 . S
C273 C270 1.388 . S
C273 N272 1.397 . S
C274 H255 0.929 . S
C274 C271 1.404 . S
C274 N272 1.334 . S
C275 H267 0.930 . S
C275 C270 1.418 . S
C275 C271 1.353 . S
C276 H246 0.930 . S
C276 N277 1.330 . S
C276 C278 1.446 . S
N277 Co236 2.151 1_545 S
N277 C276 1.330 . S
N277 C281 1.418 . S
C278 H257 0.929 . S
C278 C276 1.446 . S
C278 C279 1.332 . S
C279 H259 0.931 . S
C279 C278 1.332 . S
C279 C280 1.267 . S
C280 H248 0.929 . S
C280 C279 1.267 . S
C280 C281 1.251 . S
C281 H251 0.929 1_545 S
C281 N277 1.418 . S
C281 C280 1.251 . S
C282 H249 0.930 . S
C282 C284 1.406 . S
C282 C287 1.261 . S
C283 H250 0.930 . S
C283 N285 1.325 . S
C283 C286 1.357 . S
C284 H252 0.928 1_565 S
C284 C282 1.406 . S
C284 N285 1.261 . S
N285 Co236 2.214 . S
N285 C283 1.325 . S
N285 C284 1.261 . S
C286 H256 0.931 . S
C286 C283 1.357 . S
C286 C287 1.312 . S
C287 H258 0.930 . S
C287 C282 1.261 . S
C287 C286 1.312 . S
C288 O260 1.214 . S
C288 O268 1.234 . S
C289 H261 0.929 . S
C289 C292 1.391 . S
C289 C294 1.391 . S
C290 H262 0.929 . S
C290 C291 1.390 . S
C290 N293 1.391 . S
C291 H263 0.930 . S
C291 C290 1.390 . S
C291 C292 1.392 . S
C292 H264 0.929 . S
C292 C289 1.391 . S
C292 C291 1.392 . S
N293 Co237 2.257 . S
N293 C290 1.391 . S
N293 C294 1.388 . S
C294 H265 0.930 . S
C294 C289 1.391 . S
C294 N293 1.388 . S
Co295 O297 2.143 . S
Co295 O303 2.074 . S
Co295 O306 2.093 . S
Co295 O319 2.097 . S
Co295 N336 2.151 . S
Co295 N344 2.214 . S
Co296 O297 2.160 . S
Co296 O302 2.058 . S
Co296 O312 2.057 . S
Co296 O327 2.037 . S
Co296 N331 2.145 . S
Co296 N352 2.257 . S
O297 Co295 2.143 . S
O297 Co296 2.160 . S
C298 O299 1.278 . S
C298 O306 1.224 . S
O299 C298 1.278 . S
C300 O301 1.245 . S
C300 O312 1.232 . S
O301 C300 1.245 . S
O302 Co296 2.058 . S
O302 C328 1.269 . S
O303 Co295 2.074 . S
O303 C328 1.257 . S
H304 C329 0.930 . S
H305 C335 0.930 . S
O306 Co295 2.093 . S
O306 C298 1.224 . S
H307 C339 0.929 . S
H308 C341 0.930 . S
H309 C342 0.930 . S
H310 C340 0.929 . S
H311 C343 0.928 . S
O312 Co296 2.057 . S
O312 C300 1.232 . S
H313 C332 0.929 . S
H314 C333 0.929 . S
H315 C345 0.931 . S
H316 C337 0.929 . S
H317 C346 0.930 . S
H318 C338 0.931 . S
O319 Co295 2.097 . S
O319 C347 1.214 . S
H320 C348 0.929 . S
H321 C349 0.929 . S
H322 C350 0.930 . S
H323 C351 0.929 . S
H324 C353 0.930 . S
H325 C330 0.930 . S
H326 C334 0.930 . S
O327 Co296 2.037 . S
O327 C347 1.234 . S
C328 O302 1.269 . S
C328 O303 1.257 . S
C329 H304 0.930 . S
C329 C332 1.388 . S
C329 C334 1.418 . S
C330 H325 0.930 . S
C330 C333 1.404 . S
C330 C334 1.353 . S
N331 Co296 2.145 . S
N331 C332 1.397 . S
N331 C333 1.334 . S
C332 H313 0.929 . S
C332 C329 1.388 . S
C332 N331 1.397 . S
C333 H314 0.929 . S
C333 C330 1.404 . S
C333 N331 1.334 . S
C334 H326 0.930 . S
C334 C329 1.418 . S
C334 C330 1.353 . S
C335 H305 0.930 . S
C335 N336 1.330 . S
C335 C337 1.446 . S
N336 Co295 2.151 . S
N336 C335 1.330 . S
N336 C340 1.418 . S
C337 H316 0.929 . S
C337 C335 1.446 . S
C337 C338 1.332 . S
C338 H318 0.931 . S
C338 C337 1.332 . S
C338 C339 1.267 . S
C339 H307 0.929 . S
C339 C338 1.267 . S
C339 C340 1.251 . S
C340 H310 0.929 . S
C340 N336 1.418 . S
C340 C339 1.251 . S
C341 H308 0.930 . S
C341 C343 1.406 . S
C341 C346 1.261 . S
C342 H309 0.930 . S
C342 N344 1.325 . S
C342 C345 1.357 . S
C343 H311 0.928 . S
C343 C341 1.406 . S
C343 N344 1.261 . S
N344 Co295 2.214 . S
N344 C342 1.325 . S
N344 C343 1.261 . S
C345 H315 0.931 . S
C345 C342 1.357 . S
C345 C346 1.312 . S
C346 H317 0.930 . S
C346 C341 1.261 . S
C346 C345 1.312 . S
C347 O319 1.214 . S
C347 O327 1.234 . S
C348 H320 0.929 . S
C348 C351 1.391 . S
C348 C353 1.391 . S
C349 H321 0.929 . S
C349 C350 1.390 . S
C349 N352 1.391 . S
C350 H322 0.930 . S
C350 C349 1.390 . S
C350 C351 1.392 . S
C351 H323 0.929 . S
C351 C348 1.391 . S
C351 C350 1.392 . S
N352 Co296 2.257 . S
N352 C349 1.391 . S
N352 C353 1.388 . S
C353 H324 0.930 . S
C353 C348 1.391 . S
C353 N352 1.388 . S
Co354 O356 2.143 . S
Co354 O362 2.074 . S
Co354 O365 2.093 . S
Co354 O378 2.097 . S
Co354 N395 2.151 1_545 S
Co354 N403 2.214 . S
Co355 O356 2.160 . S
Co355 O361 2.058 . S
Co355 O371 2.057 . S
Co355 O386 2.037 . S
Co355 N390 2.145 . S
Co355 N411 2.257 . S
O356 Co354 2.143 . S
O356 Co355 2.160 . S
C357 O358 1.278 1_565 S
C357 O365 1.224 1_565 S
O358 C357 1.278 1_545 S
C359 O360 1.245 1_545 S
C359 O371 1.232 . S
O360 C359 1.245 1_565 S
O361 Co355 2.058 . S
O361 C387 1.277 . S
O362 Co354 2.074 . S
O362 C387 1.272 . S
H363 C388 0.930 . S
H364 C394 0.930 . S
O365 Co354 2.093 . S
O365 C357 1.224 1_545 S
H366 C398 0.929 . S
H367 C400 0.930 . S
H368 C401 0.930 . S
H369 C399 0.933 1_545 S
H370 C402 0.928 1_565 S
O371 Co355 2.057 . S
O371 C359 1.232 . S
H372 C391 0.929 . S
H373 C392 0.929 . S
H374 C404 0.931 . S
H375 C396 0.929 . S
H376 C405 0.930 . S
H377 C397 0.931 . S
O378 Co354 2.097 . S
O378 C406 1.214 . S
H379 C407 0.929 . S
H380 C408 0.929 . S
H381 C409 0.930 . S
H382 C410 0.929 . S
H383 C412 0.930 . S
H384 C389 0.930 . S
H385 C393 0.930 . S
O386 Co355 2.037 . S
O386 C406 1.234 . S
C387 O361 1.277 . S
C387 O362 1.272 . S
C388 H363 0.930 . S
C388 C391 1.388 . S
C388 C393 1.418 . S
C389 H384 0.930 . S
C389 C392 1.404 . S
C389 C393 1.353 . S
N390 Co355 2.145 . S
N390 C391 1.397 . S
N390 C392 1.334 . S
C391 H372 0.929 . S
C391 C388 1.388 . S
C391 N390 1.397 . S
C392 H373 0.929 . S
C392 C389 1.404 . S
C392 N390 1.334 . S
C393 H385 0.930 . S
C393 C388 1.418 . S
C393 C389 1.353 . S
C394 H364 0.930 . S
C394 N395 1.330 . S
C394 C396 1.446 . S
N395 Co354 2.151 1_565 S
N395 C394 1.330 . S
N395 C399 1.408 1_455 S
C396 H375 0.929 . S
C396 C394 1.446 . S
C396 C397 1.332 1_455 S
C397 H377 0.931 . S
C397 C396 1.332 1_655 S
C397 C398 1.267 . S
C398 H366 0.929 . S
C398 C397 1.267 . S
C398 C399 1.257 . S
C399 H369 0.933 1_565 S
C399 N395 1.408 1_655 S
C399 C398 1.257 . S
C400 H367 0.930 . S
C400 C402 1.406 . S
C400 C405 1.261 . S
C401 H368 0.930 . S
C401 N403 1.325 . S
C401 C404 1.357 . S
C402 H370 0.928 1_545 S
C402 C400 1.406 . S
C402 N403 1.261 . S
N403 Co354 2.214 . S
N403 C401 1.325 . S
N403 C402 1.261 . S
C404 H374 0.931 . S
C404 C401 1.357 . S
C404 C405 1.312 . S
C405 H376 0.930 . S
C405 C400 1.261 . S
C405 C404 1.312 . S
C406 O378 1.214 . S
C406 O386 1.234 . S
C407 H379 0.929 . S
C407 C410 1.391 . S
C407 C412 1.391 . S
C408 H380 0.929 . S
C408 C409 1.390 . S
C408 N411 1.391 . S
C409 H381 0.930 . S
C409 C408 1.390 . S
C409 C410 1.392 . S
C410 H382 0.929 . S
C410 C407 1.391 . S
C410 C409 1.392 . S
N411 Co355 2.257 . S
N411 C408 1.391 . S
N411 C412 1.388 . S
C412 H383 0.930 . S
C412 C407 1.391 . S
C412 N411 1.388 . S
Co413 O415 2.143 . S
Co413 O421 2.074 . S
Co413 O424 2.093 . S
Co413 O437 2.097 . S
Co413 N454 2.151 . S
Co413 N462 2.214 . S
Co414 O415 2.160 . S
Co414 O420 2.058 . S
Co414 O430 2.057 . S
Co414 O445 2.037 . S
Co414 N449 2.145 . S
Co414 N470 2.257 . S
O415 Co413 2.143 . S
O415 Co414 2.160 . S
C416 O417 1.278 . S
C416 O424 1.224 . S
O417 C416 1.278 . S
C418 O419 1.245 . S
C418 O430 1.232 . S
O419 C418 1.245 . S
O420 Co414 2.058 . S
O420 C446 1.269 . S
O421 Co413 2.074 . S
O421 C446 1.257 . S
H422 C447 0.930 . S
H423 C453 0.930 . S
O424 Co413 2.093 . S
O424 C416 1.224 . S
H425 C457 0.929 . S
H426 C459 0.930 . S
H427 C460 0.930 . S
H428 C458 0.929 . S
H429 C461 0.928 . S
O430 Co414 2.057 . S
O430 C418 1.232 . S
H431 C450 0.929 . S
H432 C451 0.929 . S
H433 C463 0.931 . S
H434 C455 0.929 . S
H435 C464 0.930 . S
H436 C456 0.931 . S
O437 Co413 2.097 . S
O437 C465 1.214 . S
H438 C466 0.929 . S
H439 C467 0.929 . S
H440 C468 0.930 . S
H441 C469 0.929 . S
H442 C471 0.930 . S
H443 C448 0.930 . S
H444 C452 0.930 . S
O445 Co414 2.037 . S
O445 C465 1.234 . S
C446 O420 1.269 . S
C446 O421 1.257 . S
C447 H422 0.930 . S
C447 C450 1.388 . S
C447 C452 1.418 . S
C448 H443 0.930 . S
C448 C451 1.404 . S
C448 C452 1.353 . S
N449 Co414 2.145 . S
N449 C450 1.397 . S
N449 C451 1.334 . S
C450 H431 0.929 . S
C450 C447 1.388 . S
C450 N449 1.397 . S
C451 H432 0.929 . S
C451 C448 1.404 . S
C451 N449 1.334 . S
C452 H444 0.930 . S
C452 C447 1.418 . S
C452 C448 1.353 . S
C453 H423 0.930 . S
C453 N454 1.330 . S
C453 C455 1.446 . S
N454 Co413 2.151 . S
N454 C453 1.330 . S
N454 C458 1.418 . S
C455 H434 0.929 . S
C455 C453 1.446 . S
C455 C456 1.332 . S
C456 H436 0.931 . S
C456 C455 1.332 . S
C456 C457 1.267 . S
C457 H425 0.929 . S
C457 C456 1.267 . S
C457 C458 1.251 . S
C458 H428 0.929 . S
C458 N454 1.418 . S
C458 C457 1.251 . S
C459 H426 0.930 . S
C459 C461 1.406 . S
C459 C464 1.261 . S
C460 H427 0.930 . S
C460 N462 1.325 . S
C460 C463 1.357 . S
C461 H429 0.928 . S
C461 C459 1.406 . S
C461 N462 1.261 . S
N462 Co413 2.214 . S
N462 C460 1.325 . S
N462 C461 1.261 . S
C463 H433 0.931 . S
C463 C460 1.357 . S
C463 C464 1.312 . S
C464 H435 0.930 . S
C464 C459 1.261 . S
C464 C463 1.312 . S
C465 O437 1.214 . S
C465 O445 1.234 . S
C466 H438 0.929 . S
C466 C469 1.391 . S
C466 C471 1.391 . S
C467 H439 0.929 . S
C467 C468 1.390 . S
C467 N470 1.391 . S
C468 H440 0.930 . S
C468 C467 1.390 . S
C468 C469 1.392 . S
C469 H441 0.929 . S
C469 C466 1.391 . S
C469 C468 1.392 . S
N470 Co414 2.257 . S
N470 C467 1.391 . S
N470 C471 1.388 . S
C471 H442 0.930 . S
C471 C466 1.391 . S
C471 N470 1.388 . S
Co472 O474 2.143 . S
Co472 O480 2.074 . S
Co472 O483 2.093 . S
Co472 O496 2.097 . S
Co472 N513 2.151 1_565 S
Co472 N521 2.214 . S
Co473 O474 2.160 . S
Co473 O479 2.058 . S
Co473 O489 2.057 . S
Co473 O504 2.037 . S
Co473 N508 2.145 . S
Co473 N529 2.257 . S
O474 Co472 2.143 . S
O474 Co473 2.160 . S
C475 O476 1.278 1_545 S
C475 O483 1.224 1_545 S
O476 C475 1.278 1_565 S
C477 O478 1.245 1_565 S
C477 O489 1.232 . S
O478 C477 1.245 1_545 S
O479 Co473 2.058 . S
O479 C505 1.269 . S
O480 Co472 2.074 . S
O480 C505 1.257 . S
H481 C506 0.930 . S
H482 C512 0.930 . S
O483 Co472 2.093 . S
O483 C475 1.224 1_565 S
H484 C516 0.929 . S
H485 C518 0.930 . S
H486 C519 0.930 . S
H487 C517 0.929 1_565 S
H488 C520 0.928 1_545 S
O489 Co473 2.057 . S
O489 C477 1.232 . S
H490 C509 0.929 . S
H491 C510 0.929 . S
H492 C522 0.931 . S
H493 C514 0.929 . S
H494 C523 0.930 . S
H495 C515 0.931 . S
O496 Co472 2.097 . S
O496 C524 1.214 . S
H497 C525 0.929 . S
H498 C526 0.929 . S
H499 C527 0.930 . S
H500 C528 0.929 . S
H501 C530 0.930 . S
H502 C507 0.930 . S
H503 C511 0.930 . S
O504 Co473 2.037 . S
O504 C524 1.234 . S
C505 O479 1.269 . S
C505 O480 1.257 . S
C506 H481 0.930 . S
C506 C509 1.388 . S
C506 C511 1.418 . S
C507 H502 0.930 . S
C507 C510 1.404 . S
C507 C511 1.353 . S
N508 Co473 2.145 . S
N508 C509 1.397 . S
N508 C510 1.334 . S
C509 H490 0.929 . S
C509 C506 1.388 . S
C509 N508 1.397 . S
C510 H491 0.929 . S
C510 C507 1.404 . S
C510 N508 1.334 . S
C511 H503 0.930 . S
C511 C506 1.418 . S
C511 C507 1.353 . S
C512 H482 0.930 . S
C512 N513 1.330 . S
C512 C514 1.446 . S
N513 Co472 2.151 1_545 S
N513 C512 1.330 . S
N513 C517 1.418 . S
C514 H493 0.929 . S
C514 C512 1.446 . S
C514 C515 1.332 . S
C515 H495 0.931 . S
C515 C514 1.332 . S
C515 C516 1.267 . S
C516 H484 0.929 . S
C516 C515 1.267 . S
C516 C517 1.251 . S
C517 H487 0.929 1_545 S
C517 N513 1.418 . S
C517 C516 1.251 . S
C518 H485 0.930 . S
C518 C520 1.406 . S
C518 C523 1.261 . S
C519 H486 0.930 . S
C519 N521 1.325 . S
C519 C522 1.357 . S
C520 H488 0.928 1_565 S
C520 C518 1.406 . S
C520 N521 1.261 . S
N521 Co472 2.214 . S
N521 C519 1.325 . S
N521 C520 1.261 . S
C522 H492 0.931 . S
C522 C519 1.357 . S
C522 C523 1.312 . S
C523 H494 0.930 . S
C523 C518 1.261 . S
C523 C522 1.312 . S
C524 O496 1.214 . S
C524 O504 1.234 . S
C525 H497 0.929 . S
C525 C528 1.391 . S
C525 C530 1.391 . S
C526 H498 0.929 . S
C526 C527 1.390 . S
C526 N529 1.391 . S
C527 H499 0.930 . S
C527 C526 1.390 . S
C527 C528 1.392 . S
C528 H500 0.929 . S
C528 C525 1.391 . S
C528 C527 1.392 . S
N529 Co473 2.257 . S
N529 C526 1.391 . S
N529 C530 1.388 . S
C530 H501 0.930 . S
C530 C525 1.391 . S
C530 N529 1.388 . S
Co531 O533 2.143 . S
Co531 O539 2.074 . S
Co531 O542 2.093 . S
Co531 O555 2.097 . S
Co531 N572 2.151 . S
Co531 N580 2.214 . S
Co532 O533 2.160 . S
Co532 O538 2.058 . S
Co532 O548 2.057 . S
Co532 O563 2.037 . S
Co532 N567 2.145 . S
Co532 N588 2.257 . S
O533 Co531 2.143 . S
O533 Co532 2.160 . S
C534 O535 1.278 . S
C534 O542 1.224 . S
O535 C534 1.278 . S
C536 O537 1.245 . S
C536 O548 1.232 . S
O537 C536 1.245 . S
O538 Co532 2.058 . S
O538 C564 1.269 . S
O539 Co531 2.074 . S
O539 C564 1.257 . S
H540 C565 0.930 . S
H541 C571 0.930 . S
O542 Co531 2.093 . S
O542 C534 1.224 . S
H543 C575 0.929 . S
H544 C577 0.930 . S
H545 C578 0.930 . S
H546 C576 0.929 . S
H547 C579 0.928 . S
O548 Co532 2.057 . S
O548 C536 1.232 . S
H549 C568 0.929 . S
H550 C569 0.929 . S
H551 C581 0.931 . S
H552 C573 0.929 . S
H553 C582 0.930 . S
H554 C574 0.931 . S
O555 Co531 2.097 . S
O555 C583 1.214 . S
H556 C584 0.929 . S
H557 C585 0.929 . S
H558 C586 0.930 . S
H559 C587 0.929 . S
H560 C589 0.930 . S
H561 C566 0.930 . S
H562 C570 0.930 . S
O563 Co532 2.037 . S
O563 C583 1.234 . S
C564 O538 1.269 . S
C564 O539 1.257 . S
C565 H540 0.930 . S
C565 C568 1.388 . S
C565 C570 1.418 . S
C566 H561 0.930 . S
C566 C569 1.404 . S
C566 C570 1.353 . S
N567 Co532 2.145 . S
N567 C568 1.397 . S
N567 C569 1.334 . S
C568 H549 0.929 . S
C568 C565 1.388 . S
C568 N567 1.397 . S
C569 H550 0.929 . S
C569 C566 1.404 . S
C569 N567 1.334 . S
C570 H562 0.930 . S
C570 C565 1.418 . S
C570 C566 1.353 . S
C571 H541 0.930 . S
C571 N572 1.330 . S
C571 C573 1.446 . S
N572 Co531 2.151 . S
N572 C571 1.330 . S
N572 C576 1.418 . S
C573 H552 0.929 . S
C573 C571 1.446 . S
C573 C574 1.332 . S
C574 H554 0.931 . S
C574 C573 1.332 . S
C574 C575 1.267 . S
C575 H543 0.929 . S
C575 C574 1.267 . S
C575 C576 1.251 . S
C576 H546 0.929 . S
C576 N572 1.418 . S
C576 C575 1.251 . S
C577 H544 0.930 . S
C577 C579 1.406 . S
C577 C582 1.261 . S
C578 H545 0.930 . S
C578 N580 1.325 . S
C578 C581 1.357 . S
C579 H547 0.928 . S
C579 C577 1.406 . S
C579 N580 1.261 . S
N580 Co531 2.214 . S
N580 C578 1.325 . S
N580 C579 1.261 . S
C581 H551 0.931 . S
C581 C578 1.357 . S
C581 C582 1.312 . S
C582 H553 0.930 . S
C582 C577 1.261 . S
C582 C581 1.312 . S
C583 O555 1.214 . S
C583 O563 1.234 . S
C584 H556 0.929 . S
C584 C587 1.391 . S
C584 C589 1.391 . S
C585 H557 0.929 . S
C585 C586 1.390 . S
C585 N588 1.391 . S
C586 H558 0.930 . S
C586 C585 1.390 . S
C586 C587 1.392 . S
C587 H559 0.929 . S
C587 C584 1.391 . S
C587 C586 1.392 . S
N588 Co532 2.257 . S
N588 C585 1.391 . S
N588 C589 1.388 . S
C589 H560 0.930 . S
C589 C584 1.391 . S
C589 N588 1.388 . S
Co590 O592 2.143 . S
Co590 O598 2.074 . S
Co590 O601 2.093 . S
Co590 O614 2.097 . S
Co590 N631 2.151 1_545 S
Co590 N639 2.214 . S
Co591 O592 2.160 . S
Co591 O597 2.058 . S
Co591 O607 2.057 . S
Co591 O622 2.037 . S
Co591 N626 2.145 . S
Co591 N647 2.257 . S
O592 Co590 2.143 . S
O592 Co591 2.160 . S
C593 O594 1.278 1_565 S
C593 O601 1.224 1_565 S
O594 C593 1.278 1_545 S
C595 O596 1.245 1_545 S
C595 O607 1.232 . S
O596 C595 1.245 1_565 S
O597 Co591 2.058 . S
O597 C623 1.277 . S
O598 Co590 2.074 . S
O598 C623 1.272 . S
H599 C624 0.930 . S
H600 C630 0.930 . S
O601 Co590 2.093 . S
O601 C593 1.224 1_545 S
H602 C634 0.929 . S
H603 C636 0.930 . S
H604 C637 0.930 . S
H605 C635 0.933 1_545 S
H606 C638 0.928 1_565 S
O607 Co591 2.057 . S
O607 C595 1.232 . S
H608 C627 0.929 . S
H609 C628 0.929 . S
H610 C640 0.931 . S
H611 C632 0.929 . S
H612 C641 0.930 . S
H613 C633 0.931 . S
O614 Co590 2.097 . S
O614 C642 1.214 . S
H615 C643 0.929 . S
H616 C644 0.929 . S
H617 C645 0.930 . S
H618 C646 0.929 . S
H619 C648 0.930 . S
H620 C625 0.930 . S
H621 C629 0.930 . S
O622 Co591 2.037 . S
O622 C642 1.234 . S
C623 O597 1.277 . S
C623 O598 1.272 . S
C624 H599 0.930 . S
C624 C627 1.388 . S
C624 C629 1.418 . S
C625 H620 0.930 . S
C625 C628 1.404 . S
C625 C629 1.353 . S
N626 Co591 2.145 . S
N626 C627 1.397 . S
N626 C628 1.334 . S
C627 H608 0.929 . S
C627 C624 1.388 . S
C627 N626 1.397 . S
C628 H609 0.929 . S
C628 C625 1.404 . S
C628 N626 1.334 . S
C629 H621 0.930 . S
C629 C624 1.418 . S
C629 C625 1.353 . S
C630 H600 0.930 . S
C630 N631 1.330 . S
C630 C632 1.446 . S
N631 Co590 2.151 1_565 S
N631 C630 1.330 . S
N631 C635 1.408 1_655 S
C632 H611 0.929 . S
C632 C630 1.446 . S
C632 C633 1.332 1_655 S
C633 H613 0.931 . S
C633 C632 1.332 1_455 S
C633 C634 1.267 . S
C634 H602 0.929 . S
C634 C633 1.267 . S
C634 C635 1.257 . S
C635 H605 0.933 1_565 S
C635 N631 1.408 1_455 S
C635 C634 1.257 . S
C636 H603 0.930 . S
C636 C638 1.406 . S
C636 C641 1.261 . S
C637 H604 0.930 . S
C637 N639 1.325 . S
C637 C640 1.357 . S
C638 H606 0.928 1_545 S
C638 C636 1.406 . S
C638 N639 1.261 . S
N639 Co590 2.214 . S
N639 C637 1.325 . S
N639 C638 1.261 . S
C640 H610 0.931 . S
C640 C637 1.357 . S
C640 C641 1.312 . S
C641 H612 0.930 . S
C641 C636 1.261 . S
C641 C640 1.312 . S
C642 O614 1.214 . S
C642 O622 1.234 . S
C643 H615 0.929 . S
C643 C646 1.391 . S
C643 C648 1.391 . S
C644 H616 0.929 . S
C644 C645 1.390 . S
C644 N647 1.391 . S
C645 H617 0.930 . S
C645 C644 1.390 . S
C645 C646 1.392 . S
C646 H618 0.929 . S
C646 C643 1.391 . S
C646 C645 1.392 . S
N647 Co591 2.257 . S
N647 C644 1.391 . S
N647 C648 1.388 . S
C648 H619 0.930 . S
C648 C643 1.391 . S
C648 N647 1.388 . S
Co649 O651 2.143 . S
Co649 O657 2.074 . S
Co649 O660 2.093 . S
Co649 O673 2.097 . S
Co649 N690 2.151 . S
Co649 N698 2.214 . S
Co650 O651 2.160 . S
Co650 O656 2.058 . S
Co650 O666 2.057 . S
Co650 O681 2.037 . S
Co650 N685 2.145 . S
Co650 N706 2.257 . S
O651 Co649 2.143 . S
O651 Co650 2.160 . S
C652 O653 1.278 . S
C652 O660 1.224 . S
O653 C652 1.278 . S
C654 O655 1.245 . S
C654 O666 1.232 . S
O655 C654 1.245 . S
O656 Co650 2.058 . S
O656 C682 1.269 . S
O657 Co649 2.074 . S
O657 C682 1.257 . S
H658 C683 0.930 . S
H659 C689 0.930 . S
O660 Co649 2.093 . S
O660 C652 1.224 . S
H661 C693 0.929 . S
H662 C695 0.930 . S
H663 C696 0.930 . S
H664 C694 0.929 . S
H665 C697 0.928 . S
O666 Co650 2.057 . S
O666 C654 1.232 . S
H667 C686 0.929 . S
H668 C687 0.929 . S
H669 C699 0.931 . S
H670 C691 0.929 . S
H671 C700 0.930 . S
H672 C692 0.931 . S
O673 Co649 2.097 . S
O673 C701 1.214 . S
H674 C702 0.929 . S
H675 C703 0.929 . S
H676 C704 0.930 . S
H677 C705 0.929 . S
H678 C707 0.930 . S
H679 C684 0.930 . S
H680 C688 0.930 . S
O681 Co650 2.037 . S
O681 C701 1.234 . S
C682 O656 1.269 . S
C682 O657 1.257 . S
C683 H658 0.930 . S
C683 C686 1.388 . S
C683 C688 1.418 . S
C684 H679 0.930 . S
C684 C687 1.404 . S
C684 C688 1.353 . S
N685 Co650 2.145 . S
N685 C686 1.397 . S
N685 C687 1.334 . S
C686 H667 0.929 . S
C686 C683 1.388 . S
C686 N685 1.397 . S
C687 H668 0.929 . S
C687 C684 1.404 . S
C687 N685 1.334 . S
C688 H680 0.930 . S
C688 C683 1.418 . S
C688 C684 1.353 . S
C689 H659 0.930 . S
C689 N690 1.330 . S
C689 C691 1.446 . S
N690 Co649 2.151 . S
N690 C689 1.330 . S
N690 C694 1.418 . S
C691 H670 0.929 . S
C691 C689 1.446 . S
C691 C692 1.332 . S
C692 H672 0.931 . S
C692 C691 1.332 . S
C692 C693 1.267 . S
C693 H661 0.929 . S
C693 C692 1.267 . S
C693 C694 1.251 . S
C694 H664 0.929 . S
C694 N690 1.418 . S
C694 C693 1.251 . S
C695 H662 0.930 . S
C695 C697 1.406 . S
C695 C700 1.261 . S
C696 H663 0.930 . S
C696 N698 1.325 . S
C696 C699 1.357 . S
C697 H665 0.928 . S
C697 C695 1.406 . S
C697 N698 1.261 . S
N698 Co649 2.214 . S
N698 C696 1.325 . S
N698 C697 1.261 . S
C699 H669 0.931 . S
C699 C696 1.357 . S
C699 C700 1.312 . S
C700 H671 0.930 . S
C700 C695 1.261 . S
C700 C699 1.312 . S
C701 O673 1.214 . S
C701 O681 1.234 . S
C702 H674 0.929 . S
C702 C705 1.391 . S
C702 C707 1.391 . S
C703 H675 0.929 . S
C703 C704 1.390 . S
C703 N706 1.391 . S
C704 H676 0.930 . S
C704 C703 1.390 . S
C704 C705 1.392 . S
C705 H677 0.929 . S
C705 C702 1.391 . S
C705 C704 1.392 . S
N706 Co650 2.257 . S
N706 C703 1.391 . S
N706 C707 1.388 . S
C707 H678 0.930 . S
C707 C702 1.391 . S
C707 N706 1.388 . S
Co708 O710 2.143 . S
Co708 O716 2.074 . S
Co708 O719 2.093 . S
Co708 O732 2.097 . S
Co708 N749 2.151 1_545 S
Co708 N757 2.214 . S
Co709 O710 2.160 . S
Co709 O715 2.058 . S
Co709 O725 2.057 . S
Co709 O740 2.037 . S
Co709 N744 2.145 . S
Co709 N765 2.257 . S
O710 Co708 2.143 . S
O710 Co709 2.160 . S
C711 O712 1.278 1_565 S
C711 O719 1.224 1_565 S
O712 C711 1.278 1_545 S
C713 O714 1.245 1_545 S
C713 O725 1.232 . S
O714 C713 1.245 1_565 S
O715 Co709 2.058 . S
O715 C741 1.269 . S
O716 Co708 2.074 . S
O716 C741 1.257 . S
H717 C742 0.930 . S
H718 C748 0.930 . S
O719 Co708 2.093 . S
O719 C711 1.224 1_545 S
H720 C752 0.929 . S
H721 C754 0.930 . S
H722 C755 0.930 . S
H723 C753 0.929 1_545 S
H724 C756 0.928 1_565 S
O725 Co709 2.057 . S
O725 C713 1.232 . S
H726 C745 0.929 . S
H727 C746 0.929 . S
H728 C758 0.931 . S
H729 C750 0.929 . S
H730 C759 0.930 . S
H731 C751 0.931 . S
O732 Co708 2.097 . S
O732 C760 1.214 . S
H733 C761 0.929 . S
H734 C762 0.929 . S
H735 C763 0.930 . S
H736 C764 0.929 . S
H737 C766 0.930 . S
H738 C743 0.930 . S
H739 C747 0.930 . S
O740 Co709 2.037 . S
O740 C760 1.234 . S
C741 O715 1.269 . S
C741 O716 1.257 . S
C742 H717 0.930 . S
C742 C745 1.388 . S
C742 C747 1.418 . S
C743 H738 0.930 . S
C743 C746 1.404 . S
C743 C747 1.353 . S
N744 Co709 2.145 . S
N744 C745 1.397 . S
N744 C746 1.334 . S
C745 H726 0.929 . S
C745 C742 1.388 . S
C745 N744 1.397 . S
C746 H727 0.929 . S
C746 C743 1.404 . S
C746 N744 1.334 . S
C747 H739 0.930 . S
C747 C742 1.418 . S
C747 C743 1.353 . S
C748 H718 0.930 . S
C748 N749 1.330 . S
C748 C750 1.446 . S
N749 Co708 2.151 1_565 S
N749 C748 1.330 . S
N749 C753 1.418 . S
C750 H729 0.929 . S
C750 C748 1.446 . S
C750 C751 1.332 . S
C751 H731 0.931 . S
C751 C750 1.332 . S
C751 C752 1.267 . S
C752 H720 0.929 . S
C752 C751 1.267 . S
C752 C753 1.251 . S
C753 H723 0.929 1_565 S
C753 N749 1.418 . S
C753 C752 1.251 . S
C754 H721 0.930 . S
C754 C756 1.406 . S
C754 C759 1.261 . S
C755 H722 0.930 . S
C755 N757 1.325 . S
C755 C758 1.357 . S
C756 H724 0.928 1_545 S
C756 C754 1.406 . S
C756 N757 1.261 . S
N757 Co708 2.214 . S
N757 C755 1.325 . S
N757 C756 1.261 . S
C758 H728 0.931 . S
C758 C755 1.357 . S
C758 C759 1.312 . S
C759 H730 0.930 . S
C759 C754 1.261 . S
C759 C758 1.312 . S
C760 O732 1.214 . S
C760 O740 1.234 . S
C761 H733 0.929 . S
C761 C764 1.391 . S
C761 C766 1.391 . S
C762 H734 0.929 . S
C762 C763 1.390 . S
C762 N765 1.391 . S
C763 H735 0.930 . S
C763 C762 1.390 . S
C763 C764 1.392 . S
C764 H736 0.929 . S
C764 C761 1.391 . S
C764 C763 1.392 . S
N765 Co709 2.257 . S
N765 C762 1.391 . S
N765 C766 1.388 . S
C766 H737 0.930 . S
C766 C761 1.391 . S
C766 N765 1.388 . S
Co767 O769 2.143 . S
Co767 O775 2.074 . S
Co767 O778 2.093 . S
Co767 O791 2.097 . S
Co767 N808 2.151 . S
Co767 N816 2.214 . S
Co768 O769 2.160 . S
Co768 O774 2.058 . S
Co768 O784 2.057 . S
Co768 O799 2.037 . S
Co768 N803 2.145 . S
Co768 N824 2.257 . S
O769 Co767 2.143 . S
O769 Co768 2.160 . S
C770 O771 1.278 . S
C770 O778 1.224 . S
O771 C770 1.278 . S
C772 O773 1.245 . S
C772 O784 1.232 . S
O773 C772 1.245 . S
O774 Co768 2.058 . S
O774 C800 1.269 . S
O775 Co767 2.074 . S
O775 C800 1.257 . S
H776 C801 0.930 . S
H777 C807 0.930 . S
O778 Co767 2.093 . S
O778 C770 1.224 . S
H779 C811 0.929 . S
H780 C813 0.930 . S
H781 C814 0.930 . S
H782 C812 0.929 . S
H783 C815 0.928 . S
O784 Co768 2.057 . S
O784 C772 1.232 . S
H785 C804 0.929 . S
H786 C805 0.929 . S
H787 C817 0.931 . S
H788 C809 0.929 . S
H789 C818 0.930 . S
H790 C810 0.931 . S
O791 Co767 2.097 . S
O791 C819 1.214 . S
H792 C820 0.929 . S
H793 C821 0.929 . S
H794 C822 0.930 . S
H795 C823 0.929 . S
H796 C825 0.930 . S
H797 C802 0.930 . S
H798 C806 0.930 . S
O799 Co768 2.037 . S
O799 C819 1.234 . S
C800 O774 1.269 . S
C800 O775 1.257 . S
C801 H776 0.930 . S
C801 C804 1.388 . S
C801 C806 1.418 . S
C802 H797 0.930 . S
C802 C805 1.404 . S
C802 C806 1.353 . S
N803 Co768 2.145 . S
N803 C804 1.397 . S
N803 C805 1.334 . S
C804 H785 0.929 . S
C804 C801 1.388 . S
C804 N803 1.397 . S
C805 H786 0.929 . S
C805 C802 1.404 . S
C805 N803 1.334 . S
C806 H798 0.930 . S
C806 C801 1.418 . S
C806 C802 1.353 . S
C807 H777 0.930 . S
C807 N808 1.330 . S
C807 C809 1.446 . S
N808 Co767 2.151 . S
N808 C807 1.330 . S
N808 C812 1.418 . S
C809 H788 0.929 . S
C809 C807 1.446 . S
C809 C810 1.332 . S
C810 H790 0.931 . S
C810 C809 1.332 . S
C810 C811 1.267 . S
C811 H779 0.929 . S
C811 C810 1.267 . S
C811 C812 1.251 . S
C812 H782 0.929 . S
C812 N808 1.418 . S
C812 C811 1.251 . S
C813 H780 0.930 . S
C813 C815 1.406 . S
C813 C818 1.261 . S
C814 H781 0.930 . S
C814 N816 1.325 . S
C814 C817 1.357 . S
C815 H783 0.928 . S
C815 C813 1.406 . S
C815 N816 1.261 . S
N816 Co767 2.214 . S
N816 C814 1.325 . S
N816 C815 1.261 . S
C817 H787 0.931 . S
C817 C814 1.357 . S
C817 C818 1.312 . S
C818 H789 0.930 . S
C818 C813 1.261 . S
C818 C817 1.312 . S
C819 O791 1.214 . S
C819 O799 1.234 . S
C820 H792 0.929 . S
C820 C823 1.391 . S
C820 C825 1.391 . S
C821 H793 0.929 . S
C821 C822 1.390 . S
C821 N824 1.391 . S
C822 H794 0.930 . S
C822 C821 1.390 . S
C822 C823 1.392 . S
C823 H795 0.929 . S
C823 C820 1.391 . S
C823 C822 1.392 . S
N824 Co768 2.257 . S
N824 C821 1.391 . S
N824 C825 1.388 . S
C825 H796 0.930 . S
C825 C820 1.391 . S
C825 N824 1.388 . S
Co826 O828 2.143 . S
Co826 O834 2.074 . S
Co826 O837 2.093 . S
Co826 O850 2.097 . S
Co826 N867 2.151 1_565 S
Co826 N875 2.214 . S
Co827 O828 2.160 . S
Co827 O833 2.058 . S
Co827 O843 2.057 . S
Co827 O858 2.037 . S
Co827 N862 2.145 . S
Co827 N883 2.257 . S
O828 Co826 2.143 . S
O828 Co827 2.160 . S
C829 O830 1.278 1_545 S
C829 O837 1.224 1_545 S
O830 C829 1.278 1_565 S
C831 O832 1.245 1_565 S
C831 O843 1.232 . S
O832 C831 1.245 1_545 S
O833 Co827 2.058 . S
O833 C859 1.277 . S
O834 Co826 2.074 . S
O834 C859 1.272 . S
H835 C860 0.930 . S
H836 C866 0.930 . S
O837 Co826 2.093 . S
O837 C829 1.224 1_565 S
H838 C870 0.929 . S
H839 C872 0.930 . S
H840 C873 0.930 . S
H841 C871 0.933 1_565 S
H842 C874 0.928 1_545 S
O843 Co827 2.057 . S
O843 C831 1.232 . S
H844 C863 0.929 . S
H845 C864 0.929 . S
H846 C876 0.931 . S
H847 C868 0.929 . S
H848 C877 0.930 . S
H849 C869 0.931 . S
O850 Co826 2.097 . S
O850 C878 1.214 . S
H851 C879 0.929 . S
H852 C880 0.929 . S
H853 C881 0.930 . S
H854 C882 0.929 . S
H855 C884 0.930 . S
H856 C861 0.930 . S
H857 C865 0.930 . S
O858 Co827 2.037 . S
O858 C878 1.234 . S
C859 O833 1.277 . S
C859 O834 1.272 . S
C860 H835 0.930 . S
C860 C863 1.388 . S
C860 C865 1.418 . S
C861 H856 0.930 . S
C861 C864 1.404 . S
C861 C865 1.353 . S
N862 Co827 2.145 . S
N862 C863 1.397 . S
N862 C864 1.334 . S
C863 H844 0.929 . S
C863 C860 1.388 . S
C863 N862 1.397 . S
C864 H845 0.929 . S
C864 C861 1.404 . S
C864 N862 1.334 . S
C865 H857 0.930 . S
C865 C860 1.418 . S
C865 C861 1.353 . S
C866 H836 0.930 . S
C866 N867 1.330 . S
C866 C868 1.446 . S
N867 Co826 2.151 1_545 S
N867 C866 1.330 . S
N867 C871 1.408 1_655 S
C868 H847 0.929 . S
C868 C866 1.446 . S
C868 C869 1.332 1_655 S
C869 H849 0.931 . S
C869 C868 1.332 1_455 S
C869 C870 1.267 . S
C870 H838 0.929 . S
C870 C869 1.267 . S
C870 C871 1.257 . S
C871 H841 0.933 1_545 S
C871 N867 1.408 1_455 S
C871 C870 1.257 . S
C872 H839 0.930 . S
C872 C874 1.406 . S
C872 C877 1.261 . S
C873 H840 0.930 . S
C873 N875 1.325 . S
C873 C876 1.357 . S
C874 H842 0.928 1_565 S
C874 C872 1.406 . S
C874 N875 1.261 . S
N875 Co826 2.214 . S
N875 C873 1.325 . S
N875 C874 1.261 . S
C876 H846 0.931 . S
C876 C873 1.357 . S
C876 C877 1.312 . S
C877 H848 0.930 . S
C877 C872 1.261 . S
C877 C876 1.312 . S
C878 O850 1.214 . S
C878 O858 1.234 . S
C879 H851 0.929 . S
C879 C882 1.391 . S
C879 C884 1.391 . S
C880 H852 0.929 . S
C880 C881 1.390 . S
C880 N883 1.391 . S
C881 H853 0.930 . S
C881 C880 1.390 . S
C881 C882 1.392 . S
C882 H854 0.929 . S
C882 C879 1.391 . S
C882 C881 1.392 . S
N883 Co827 2.257 . S
N883 C880 1.391 . S
N883 C884 1.388 . S
C884 H855 0.930 . S
C884 C879 1.391 . S
C884 N883 1.388 . S
Co885 O887 2.143 . S
Co885 O893 2.074 . S
Co885 O896 2.093 . S
Co885 O909 2.097 . S
Co885 N926 2.151 . S
Co885 N934 2.214 . S
Co886 O887 2.160 . S
Co886 O892 2.058 . S
Co886 O902 2.057 . S
Co886 O917 2.037 . S
Co886 N921 2.145 . S
Co886 N942 2.257 . S
O887 Co885 2.143 . S
O887 Co886 2.160 . S
C888 O889 1.278 . S
C888 O896 1.224 . S
O889 C888 1.278 . S
C890 O891 1.245 . S
C890 O902 1.232 . S
O891 C890 1.245 . S
O892 Co886 2.058 . S
O892 C918 1.269 . S
O893 Co885 2.074 . S
O893 C918 1.257 . S
H894 C919 0.930 . S
H895 C925 0.930 . S
O896 Co885 2.093 . S
O896 C888 1.224 . S
H897 C929 0.929 . S
H898 C931 0.930 . S
H899 C932 0.930 . S
H900 C930 0.929 . S
H901 C933 0.928 . S
O902 Co886 2.057 . S
O902 C890 1.232 . S
H903 C922 0.929 . S
H904 C923 0.929 . S
H905 C935 0.931 . S
H906 C927 0.929 . S
H907 C936 0.930 . S
H908 C928 0.931 . S
O909 Co885 2.097 . S
O909 C937 1.214 . S
H910 C938 0.929 . S
H911 C939 0.929 . S
H912 C940 0.930 . S
H913 C941 0.929 . S
H914 C943 0.930 . S
H915 C920 0.930 . S
H916 C924 0.930 . S
O917 Co886 2.037 . S
O917 C937 1.234 . S
C918 O892 1.269 . S
C918 O893 1.257 . S
C919 H894 0.930 . S
C919 C922 1.388 . S
C919 C924 1.418 . S
C920 H915 0.930 . S
C920 C923 1.404 . S
C920 C924 1.353 . S
N921 Co886 2.145 . S
N921 C922 1.397 . S
N921 C923 1.334 . S
C922 H903 0.929 . S
C922 C919 1.388 . S
C922 N921 1.397 . S
C923 H904 0.929 . S
C923 C920 1.404 . S
C923 N921 1.334 . S
C924 H916 0.930 . S
C924 C919 1.418 . S
C924 C920 1.353 . S
C925 H895 0.930 . S
C925 N926 1.330 . S
C925 C927 1.446 . S
N926 Co885 2.151 . S
N926 C925 1.330 . S
N926 C930 1.418 . S
C927 H906 0.929 . S
C927 C925 1.446 . S
C927 C928 1.332 . S
C928 H908 0.931 . S
C928 C927 1.332 . S
C928 C929 1.267 . S
C929 H897 0.929 . S
C929 C928 1.267 . S
C929 C930 1.251 . S
C930 H900 0.929 . S
C930 N926 1.418 . S
C930 C929 1.251 . S
C931 H898 0.930 . S
C931 C933 1.406 . S
C931 C936 1.261 . S
C932 H899 0.930 . S
C932 N934 1.325 . S
C932 C935 1.357 . S
C933 H901 0.928 . S
C933 C931 1.406 . S
C933 N934 1.261 . S
N934 Co885 2.214 . S
N934 C932 1.325 . S
N934 C933 1.261 . S
C935 H905 0.931 . S
C935 C932 1.357 . S
C935 C936 1.312 . S
C936 H907 0.930 . S
C936 C931 1.261 . S
C936 C935 1.312 . S
C937 O909 1.214 . S
C937 O917 1.234 . S
C938 H910 0.929 . S
C938 C941 1.391 . S
C938 C943 1.391 . S
C939 H911 0.929 . S
C939 C940 1.390 . S
C939 N942 1.391 . S
C940 H912 0.930 . S
C940 C939 1.390 . S
C940 C941 1.392 . S
C941 H913 0.929 . S
C941 C938 1.391 . S
C941 C940 1.392 . S
N942 Co886 2.257 . S
N942 C939 1.391 . S
N942 C943 1.388 . S
C943 H914 0.930 . S
C943 C938 1.391 . S
C943 N942 1.388 . S
Co944 O946 2.143 . S
Co944 O952 2.074 . S
Co944 O955 2.093 . S
Co944 O968 2.097 . S
Co944 N985 2.151 . S
Co944 N993 2.214 . S
Co945 O946 2.160 . S
Co945 O951 2.058 . S
Co945 O961 2.057 . S
Co945 O976 2.037 . S
Co945 N980 2.145 . S
Co945 N1001 2.257 . S
O946 Co944 2.143 . S
O946 Co945 2.160 . S
C947 O948 1.278 . S
C947 O955 1.224 . S
O948 C947 1.278 . S
C949 O950 1.245 . S
C949 O961 1.232 . S
O950 C949 1.245 . S
O951 Co945 2.058 . S
O951 C977 1.277 . S
O952 Co944 2.074 . S
O952 C977 1.272 . S
H953 C978 0.930 . S
H954 C984 0.930 . S
O955 Co944 2.093 . S
O955 C947 1.224 . S
H956 C988 0.929 . S
H957 C990 0.930 . S
H958 C991 0.930 . S
H959 C989 0.933 . S
H960 C992 0.928 . S
O961 Co945 2.057 . S
O961 C949 1.232 . S
H962 C981 0.929 . S
H963 C982 0.929 . S
H964 C994 0.931 . S
H965 C986 0.929 . S
H966 C995 0.930 . S
H967 C987 0.931 . S
O968 Co944 2.097 . S
O968 C996 1.214 . S
H969 C997 0.929 . S
H970 C998 0.929 . S
H971 C999 0.930 . S
H972 C1000 0.929 . S
H973 C1002 0.930 . S
H974 C979 0.930 . S
H975 C983 0.930 . S
O976 Co945 2.037 . S
O976 C996 1.234 . S
C977 O951 1.277 . S
C977 O952 1.272 . S
C978 H953 0.930 . S
C978 C981 1.388 . S
C978 C983 1.418 . S
C979 H974 0.930 . S
C979 C982 1.404 . S
C979 C983 1.353 . S
N980 Co945 2.145 . S
N980 C981 1.397 . S
N980 C982 1.334 . S
C981 H962 0.929 . S
C981 C978 1.388 . S
C981 N980 1.397 . S
C982 H963 0.929 . S
C982 C979 1.404 . S
C982 N980 1.334 . S
C983 H975 0.930 . S
C983 C978 1.418 . S
C983 C979 1.353 . S
C984 H954 0.930 . S
C984 N985 1.330 . S
C984 C986 1.446 . S
N985 Co944 2.151 . S
N985 C984 1.330 . S
N985 C989 1.408 1_655 S
C986 H965 0.929 . S
C986 C984 1.446 . S
C986 C987 1.332 1_655 S
C987 H967 0.931 . S
C987 C986 1.332 1_455 S
C987 C988 1.267 . S
C988 H956 0.929 . S
C988 C987 1.267 . S
C988 C989 1.257 . S
C989 H959 0.933 . S
C989 N985 1.408 1_455 S
C989 C988 1.257 . S
C990 H957 0.930 . S
C990 C992 1.406 . S
C990 C995 1.261 . S
C991 H958 0.930 . S
C991 N993 1.325 . S
C991 C994 1.357 . S
C992 H960 0.928 . S
C992 C990 1.406 . S
C992 N993 1.261 . S
N993 Co944 2.214 . S
N993 C991 1.325 . S
N993 C992 1.261 . S
C994 H964 0.931 . S
C994 C991 1.357 . S
C994 C995 1.312 . S
C995 H966 0.930 . S
C995 C990 1.261 . S
C995 C994 1.312 . S
C996 O968 1.214 . S
C996 O976 1.234 . S
C997 H969 0.929 . S
C997 C1000 1.391 . S
C997 C1002 1.391 . S
C998 H970 0.929 . S
C998 C999 1.390 . S
C998 N1001 1.391 . S
C999 H971 0.930 . S
C999 C998 1.390 . S
C999 C1000 1.392 . S
C1000 H972 0.929 . S
C1000 C997 1.391 . S
C1000 C999 1.392 . S
N1001 Co945 2.257 . S
N1001 C998 1.391 . S
N1001 C1002 1.388 . S
C1002 H973 0.930 . S
C1002 C997 1.391 . S
C1002 N1001 1.388 . S
Co1003 O1005 2.143 . S
Co1003 O1011 2.074 . S
Co1003 O1014 2.093 . S
Co1003 O1027 2.097 . S
Co1003 N1044 2.151 . S
Co1003 N1052 2.214 . S
Co1004 O1005 2.160 . S
Co1004 O1010 2.058 . S
Co1004 O1020 2.057 . S
Co1004 O1035 2.037 . S
Co1004 N1039 2.145 . S
Co1004 N1060 2.257 . S
O1005 Co1003 2.143 . S
O1005 Co1004 2.160 . S
C1006 O1007 1.278 . S
C1006 O1014 1.224 . S
O1007 C1006 1.278 . S
C1008 O1009 1.245 . S
C1008 O1020 1.232 . S
O1009 C1008 1.245 . S
O1010 Co1004 2.058 . S
O1010 C1036 1.269 . S
O1011 Co1003 2.074 . S
O1011 C1036 1.257 . S
H1012 C1037 0.930 . S
H1013 C1043 0.930 . S
O1014 Co1003 2.093 . S
O1014 C1006 1.224 . S
H1015 C1047 0.929 . S
H1016 C1049 0.930 . S
H1017 C1050 0.930 . S
H1018 C1048 0.929 . S
H1019 C1051 0.928 . S
O1020 Co1004 2.057 . S
O1020 C1008 1.232 . S
H1021 C1040 0.929 . S
H1022 C1041 0.929 . S
H1023 C1053 0.931 . S
H1024 C1045 0.929 . S
H1025 C1054 0.930 . S
H1026 C1046 0.931 . S
O1027 Co1003 2.097 . S
O1027 C1055 1.214 . S
H1028 C1056 0.929 . S
H1029 C1057 0.929 . S
H1030 C1058 0.930 . S
H1031 C1059 0.929 . S
H1032 C1061 0.930 . S
H1033 C1038 0.930 . S
H1034 C1042 0.930 . S
O1035 Co1004 2.037 . S
O1035 C1055 1.234 . S
C1036 O1010 1.269 . S
C1036 O1011 1.257 . S
C1037 H1012 0.930 . S
C1037 C1040 1.388 . S
C1037 C1042 1.418 . S
C1038 H1033 0.930 . S
C1038 C1041 1.404 . S
C1038 C1042 1.353 . S
N1039 Co1004 2.145 . S
N1039 C1040 1.397 . S
N1039 C1041 1.334 . S
C1040 H1021 0.929 . S
C1040 C1037 1.388 . S
C1040 N1039 1.397 . S
C1041 H1022 0.929 . S
C1041 C1038 1.404 . S
C1041 N1039 1.334 . S
C1042 H1034 0.930 . S
C1042 C1037 1.418 . S
C1042 C1038 1.353 . S
C1043 H1013 0.930 . S
C1043 N1044 1.330 . S
C1043 C1045 1.446 . S
N1044 Co1003 2.151 . S
N1044 C1043 1.330 . S
N1044 C1048 1.418 . S
C1045 H1024 0.929 . S
C1045 C1043 1.446 . S
C1045 C1046 1.332 . S
C1046 H1026 0.931 . S
C1046 C1045 1.332 . S
C1046 C1047 1.267 . S
C1047 H1015 0.929 . S
C1047 C1046 1.267 . S
C1047 C1048 1.251 . S
C1048 H1018 0.929 . S
C1048 N1044 1.418 . S
C1048 C1047 1.251 . S
C1049 H1016 0.930 . S
C1049 C1051 1.406 . S
C1049 C1054 1.261 . S
C1050 H1017 0.930 . S
C1050 N1052 1.325 . S
C1050 C1053 1.357 . S
C1051 H1019 0.928 . S
C1051 C1049 1.406 . S
C1051 N1052 1.261 . S
N1052 Co1003 2.214 . S
N1052 C1050 1.325 . S
N1052 C1051 1.261 . S
C1053 H1023 0.931 . S
C1053 C1050 1.357 . S
C1053 C1054 1.312 . S
C1054 H1025 0.930 . S
C1054 C1049 1.261 . S
C1054 C1053 1.312 . S
C1055 O1027 1.214 . S
C1055 O1035 1.234 . S
C1056 H1028 0.929 . S
C1056 C1059 1.391 . S
C1056 C1061 1.391 . S
C1057 H1029 0.929 . S
C1057 C1058 1.390 . S
C1057 N1060 1.391 . S
C1058 H1030 0.930 . S
C1058 C1057 1.390 . S
C1058 C1059 1.392 . S
C1059 H1031 0.929 . S
C1059 C1056 1.391 . S
C1059 C1058 1.392 . S
N1060 Co1004 2.257 . S
N1060 C1057 1.391 . S
N1060 C1061 1.388 . S
C1061 H1032 0.930 . S
C1061 C1056 1.391 . S
C1061 N1060 1.388 . S
Co1062 O1064 2.143 . S
Co1062 O1070 2.074 . S
Co1062 O1073 2.093 . S
Co1062 O1086 2.097 . S
Co1062 N1103 2.151 . S
Co1062 N1111 2.214 . S
Co1063 O1064 2.160 . S
Co1063 O1069 2.058 . S
Co1063 O1079 2.057 . S
Co1063 O1094 2.037 . S
Co1063 N1098 2.145 . S
Co1063 N1119 2.257 . S
O1064 Co1062 2.143 . S
O1064 Co1063 2.160 . S
C1065 O1066 1.278 . S
C1065 O1073 1.224 . S
O1066 C1065 1.278 . S
C1067 O1068 1.245 . S
C1067 O1079 1.232 . S
O1068 C1067 1.245 . S
O1069 Co1063 2.058 . S
O1069 C1095 1.269 . S
O1070 Co1062 2.074 . S
O1070 C1095 1.257 . S
H1071 C1096 0.930 . S
H1072 C1102 0.930 . S
O1073 Co1062 2.093 . S
O1073 C1065 1.224 . S
H1074 C1106 0.929 . S
H1075 C1108 0.930 . S
H1076 C1109 0.930 . S
H1077 C1107 0.929 . S
H1078 C1110 0.928 . S
O1079 Co1063 2.057 . S
O1079 C1067 1.232 . S
H1080 C1099 0.929 . S
H1081 C1100 0.929 . S
H1082 C1112 0.931 . S
H1083 C1104 0.929 . S
H1084 C1113 0.930 . S
H1085 C1105 0.931 . S
O1086 Co1062 2.097 . S
O1086 C1114 1.214 . S
H1087 C1115 0.929 . S
H1088 C1116 0.929 . S
H1089 C1117 0.930 . S
H1090 C1118 0.929 . S
H1091 C1120 0.930 . S
H1092 C1097 0.930 . S
H1093 C1101 0.930 . S
O1094 Co1063 2.037 . S
O1094 C1114 1.234 . S
C1095 O1069 1.269 . S
C1095 O1070 1.257 . S
C1096 H1071 0.930 . S
C1096 C1099 1.388 . S
C1096 C1101 1.418 . S
C1097 H1092 0.930 . S
C1097 C1100 1.404 . S
C1097 C1101 1.353 . S
N1098 Co1063 2.145 . S
N1098 C1099 1.397 . S
N1098 C1100 1.334 . S
C1099 H1080 0.929 . S
C1099 C1096 1.388 . S
C1099 N1098 1.397 . S
C1100 H1081 0.929 . S
C1100 C1097 1.404 . S
C1100 N1098 1.334 . S
C1101 H1093 0.930 . S
C1101 C1096 1.418 . S
C1101 C1097 1.353 . S
C1102 H1072 0.930 . S
C1102 N1103 1.330 . S
C1102 C1104 1.446 . S
N1103 Co1062 2.151 . S
N1103 C1102 1.330 . S
N1103 C1107 1.418 . S
C1104 H1083 0.929 . S
C1104 C1102 1.446 . S
C1104 C1105 1.332 . S
C1105 H1085 0.931 . S
C1105 C1104 1.332 . S
C1105 C1106 1.267 . S
C1106 H1074 0.929 . S
C1106 C1105 1.267 . S
C1106 C1107 1.251 . S
C1107 H1077 0.929 . S
C1107 N1103 1.418 . S
C1107 C1106 1.251 . S
C1108 H1075 0.930 . S
C1108 C1110 1.406 . S
C1108 C1113 1.261 . S
C1109 H1076 0.930 . S
C1109 N1111 1.325 . S
C1109 C1112 1.357 . S
C1110 H1078 0.928 . S
C1110 C1108 1.406 . S
C1110 N1111 1.261 . S
N1111 Co1062 2.214 . S
N1111 C1109 1.325 . S
N1111 C1110 1.261 . S
C1112 H1082 0.931 . S
C1112 C1109 1.357 . S
C1112 C1113 1.312 . S
C1113 H1084 0.930 . S
C1113 C1108 1.261 . S
C1113 C1112 1.312 . S
C1114 O1086 1.214 . S
C1114 O1094 1.234 . S
C1115 H1087 0.929 . S
C1115 C1118 1.391 . S
C1115 C1120 1.391 . S
C1116 H1088 0.929 . S
C1116 C1117 1.390 . S
C1116 N1119 1.391 . S
C1117 H1089 0.930 . S
C1117 C1116 1.390 . S
C1117 C1118 1.392 . S
C1118 H1090 0.929 . S
C1118 C1115 1.391 . S
C1118 C1117 1.392 . S
N1119 Co1063 2.257 . S
N1119 C1116 1.391 . S
N1119 C1120 1.388 . S
C1120 H1091 0.930 . S
C1120 C1115 1.391 . S
C1120 N1119 1.388 . S
Co1121 O1123 2.143 . S
Co1121 O1129 2.074 . S
Co1121 O1132 2.093 . S
Co1121 O1145 2.097 . S
Co1121 N1162 2.151 . S
Co1121 N1170 2.214 . S
Co1122 O1123 2.160 . S
Co1122 O1128 2.058 . S
Co1122 O1138 2.057 . S
Co1122 O1153 2.037 . S
Co1122 N1157 2.145 . S
Co1122 N1178 2.257 . S
O1123 Co1121 2.143 . S
O1123 Co1122 2.160 . S
C1124 O1125 1.278 . S
C1124 O1132 1.224 . S
O1125 C1124 1.278 . S
C1126 O1127 1.245 . S
C1126 O1138 1.232 . S
O1127 C1126 1.245 . S
O1128 Co1122 2.058 . S
O1128 C1154 1.269 . S
O1129 Co1121 2.074 . S
O1129 C1154 1.257 . S
H1130 C1155 0.930 . S
H1131 C1161 0.930 . S
O1132 Co1121 2.093 . S
O1132 C1124 1.224 . S
H1133 C1165 0.929 . S
H1134 C1167 0.930 . S
H1135 C1168 0.930 . S
H1136 C1166 0.929 . S
H1137 C1169 0.928 . S
O1138 Co1122 2.057 . S
O1138 C1126 1.232 . S
H1139 C1158 0.929 . S
H1140 C1159 0.929 . S
H1141 C1171 0.931 . S
H1142 C1163 0.929 . S
H1143 C1172 0.930 . S
H1144 C1164 0.931 . S
O1145 Co1121 2.097 . S
O1145 C1173 1.214 . S
H1146 C1174 0.929 . S
H1147 C1175 0.929 . S
H1148 C1176 0.930 . S
H1149 C1177 0.929 . S
H1150 C1179 0.930 . S
H1151 C1156 0.930 . S
H1152 C1160 0.930 . S
O1153 Co1122 2.037 . S
O1153 C1173 1.234 . S
C1154 O1128 1.269 . S
C1154 O1129 1.257 . S
C1155 H1130 0.930 . S
C1155 C1158 1.388 . S
C1155 C1160 1.418 . S
C1156 H1151 0.930 . S
C1156 C1159 1.404 . S
C1156 C1160 1.353 . S
N1157 Co1122 2.145 . S
N1157 C1158 1.397 . S
N1157 C1159 1.334 . S
C1158 H1139 0.929 . S
C1158 C1155 1.388 . S
C1158 N1157 1.397 . S
C1159 H1140 0.929 . S
C1159 C1156 1.404 . S
C1159 N1157 1.334 . S
C1160 H1152 0.930 . S
C1160 C1155 1.418 . S
C1160 C1156 1.353 . S
C1161 H1131 0.930 . S
C1161 N1162 1.330 . S
C1161 C1163 1.446 . S
N1162 Co1121 2.151 . S
N1162 C1161 1.330 . S
N1162 C1166 1.418 . S
C1163 H1142 0.929 . S
C1163 C1161 1.446 . S
C1163 C1164 1.332 . S
C1164 H1144 0.931 . S
C1164 C1163 1.332 . S
C1164 C1165 1.267 . S
C1165 H1133 0.929 . S
C1165 C1164 1.267 . S
C1165 C1166 1.251 . S
C1166 H1136 0.929 . S
C1166 N1162 1.418 . S
C1166 C1165 1.251 . S
C1167 H1134 0.930 . S
C1167 C1169 1.406 . S
C1167 C1172 1.261 . S
C1168 H1135 0.930 . S
C1168 N1170 1.325 . S
C1168 C1171 1.357 . S
C1169 H1137 0.928 . S
C1169 C1167 1.406 . S
C1169 N1170 1.261 . S
N1170 Co1121 2.214 . S
N1170 C1168 1.325 . S
N1170 C1169 1.261 . S
C1171 H1141 0.931 . S
C1171 C1168 1.357 . S
C1171 C1172 1.312 . S
C1172 H1143 0.930 . S
C1172 C1167 1.261 . S
C1172 C1171 1.312 . S
C1173 O1145 1.214 . S
C1173 O1153 1.234 . S
C1174 H1146 0.929 . S
C1174 C1177 1.391 . S
C1174 C1179 1.391 . S
C1175 H1147 0.929 . S
C1175 C1176 1.390 . S
C1175 N1178 1.391 . S
C1176 H1148 0.930 . S
C1176 C1175 1.390 . S
C1176 C1177 1.392 . S
C1177 H1149 0.929 . S
C1177 C1174 1.391 . S
C1177 C1176 1.392 . S
N1178 Co1122 2.257 . S
N1178 C1175 1.391 . S
N1178 C1179 1.388 . S
C1179 H1150 0.930 . S
C1179 C1174 1.391 . S
C1179 N1178 1.388 . S
Co1180 O1182 2.143 . S
Co1180 O1188 2.074 . S
Co1180 O1191 2.093 . S
Co1180 O1204 2.097 . S
Co1180 N1221 2.151 . S
Co1180 N1229 2.214 . S
Co1181 O1182 2.160 . S
Co1181 O1187 2.058 . S
Co1181 O1197 2.057 . S
Co1181 O1212 2.037 . S
Co1181 N1216 2.145 . S
Co1181 N1237 2.257 . S
O1182 Co1180 2.143 . S
O1182 Co1181 2.160 . S
C1183 O1184 1.278 . S
C1183 O1191 1.224 . S
O1184 C1183 1.278 . S
C1185 O1186 1.245 . S
C1185 O1197 1.232 . S
O1186 C1185 1.245 . S
O1187 Co1181 2.058 . S
O1187 C1213 1.277 . S
O1188 Co1180 2.074 . S
O1188 C1213 1.272 . S
H1189 C1214 0.930 . S
H1190 C1220 0.930 . S
O1191 Co1180 2.093 . S
O1191 C1183 1.224 . S
H1192 C1224 0.929 . S
H1193 C1226 0.930 . S
H1194 C1227 0.930 . S
H1195 C1225 0.933 . S
H1196 C1228 0.928 . S
O1197 Co1181 2.057 . S
O1197 C1185 1.232 . S
H1198 C1217 0.929 . S
H1199 C1218 0.929 . S
H1200 C1230 0.931 . S
H1201 C1222 0.929 . S
H1202 C1231 0.930 . S
H1203 C1223 0.931 . S
O1204 Co1180 2.097 . S
O1204 C1232 1.214 . S
H1205 C1233 0.929 . S
H1206 C1234 0.929 . S
H1207 C1235 0.930 . S
H1208 C1236 0.929 . S
H1209 C1238 0.930 . S
H1210 C1215 0.930 . S
H1211 C1219 0.930 . S
O1212 Co1181 2.037 . S
O1212 C1232 1.234 . S
C1213 O1187 1.277 . S
C1213 O1188 1.272 . S
C1214 H1189 0.930 . S
C1214 C1217 1.388 . S
C1214 C1219 1.418 . S
C1215 H1210 0.930 . S
C1215 C1218 1.404 . S
C1215 C1219 1.353 . S
N1216 Co1181 2.145 . S
N1216 C1217 1.397 . S
N1216 C1218 1.334 . S
C1217 H1198 0.929 . S
C1217 C1214 1.388 . S
C1217 N1216 1.397 . S
C1218 H1199 0.929 . S
C1218 C1215 1.404 . S
C1218 N1216 1.334 . S
C1219 H1211 0.930 . S
C1219 C1214 1.418 . S
C1219 C1215 1.353 . S
C1220 H1190 0.930 . S
C1220 N1221 1.330 . S
C1220 C1222 1.446 . S
N1221 Co1180 2.151 . S
N1221 C1220 1.330 . S
N1221 C1225 1.408 1_655 S
C1222 H1201 0.929 . S
C1222 C1220 1.446 . S
C1222 C1223 1.332 1_655 S
C1223 H1203 0.931 . S
C1223 C1222 1.332 1_455 S
C1223 C1224 1.267 . S
C1224 H1192 0.929 . S
C1224 C1223 1.267 . S
C1224 C1225 1.257 . S
C1225 H1195 0.933 . S
C1225 N1221 1.408 1_455 S
C1225 C1224 1.257 . S
C1226 H1193 0.930 . S
C1226 C1228 1.406 . S
C1226 C1231 1.261 . S
C1227 H1194 0.930 . S
C1227 N1229 1.325 . S
C1227 C1230 1.357 . S
C1228 H1196 0.928 . S
C1228 C1226 1.406 . S
C1228 N1229 1.261 . S
N1229 Co1180 2.214 . S
N1229 C1227 1.325 . S
N1229 C1228 1.261 . S
C1230 H1200 0.931 . S
C1230 C1227 1.357 . S
C1230 C1231 1.312 . S
C1231 H1202 0.930 . S
C1231 C1226 1.261 . S
C1231 C1230 1.312 . S
C1232 O1204 1.214 . S
C1232 O1212 1.234 . S
C1233 H1205 0.929 . S
C1233 C1236 1.391 . S
C1233 C1238 1.391 . S
C1234 H1206 0.929 . S
C1234 C1235 1.390 . S
C1234 N1237 1.391 . S
C1235 H1207 0.930 . S
C1235 C1234 1.390 . S
C1235 C1236 1.392 . S
C1236 H1208 0.929 . S
C1236 C1233 1.391 . S
C1236 C1235 1.392 . S
N1237 Co1181 2.257 . S
N1237 C1234 1.391 . S
N1237 C1238 1.388 . S
C1238 H1209 0.930 . S
C1238 C1233 1.391 . S
C1238 N1237 1.388 . S
Co1239 O1241 2.143 . S
Co1239 O1247 2.074 . S
Co1239 O1250 2.093 . S
Co1239 O1263 2.097 . S
Co1239 N1280 2.151 . S
Co1239 N1288 2.214 . S
Co1240 O1241 2.160 . S
Co1240 O1246 2.058 . S
Co1240 O1256 2.057 . S
Co1240 O1271 2.037 . S
Co1240 N1275 2.145 . S
Co1240 N1296 2.257 . S
O1241 Co1239 2.143 . S
O1241 Co1240 2.160 . S
C1242 O1243 1.278 . S
C1242 O1250 1.224 . S
O1243 C1242 1.278 . S
C1244 O1245 1.245 . S
C1244 O1256 1.232 . S
O1245 C1244 1.245 . S
O1246 Co1240 2.058 . S
O1246 C1272 1.269 . S
O1247 Co1239 2.074 . S
O1247 C1272 1.257 . S
H1248 C1273 0.930 . S
H1249 C1279 0.930 . S
O1250 Co1239 2.093 . S
O1250 C1242 1.224 . S
H1251 C1283 0.929 . S
H1252 C1285 0.930 . S
H1253 C1286 0.930 . S
H1254 C1284 0.929 . S
H1255 C1287 0.928 . S
O1256 Co1240 2.057 . S
O1256 C1244 1.232 . S
H1257 C1276 0.929 . S
H1258 C1277 0.929 . S
H1259 C1289 0.931 . S
H1260 C1281 0.929 . S
H1261 C1290 0.930 . S
H1262 C1282 0.931 . S
O1263 Co1239 2.097 . S
O1263 C1291 1.214 . S
H1264 C1292 0.929 . S
H1265 C1293 0.929 . S
H1266 C1294 0.930 . S
H1267 C1295 0.929 . S
H1268 C1297 0.930 . S
H1269 C1274 0.930 . S
H1270 C1278 0.930 . S
O1271 Co1240 2.037 . S
O1271 C1291 1.234 . S
C1272 O1246 1.269 . S
C1272 O1247 1.257 . S
C1273 H1248 0.930 . S
C1273 C1276 1.388 . S
C1273 C1278 1.418 . S
C1274 H1269 0.930 . S
C1274 C1277 1.404 . S
C1274 C1278 1.353 . S
N1275 Co1240 2.145 . S
N1275 C1276 1.397 . S
N1275 C1277 1.334 . S
C1276 H1257 0.929 . S
C1276 C1273 1.388 . S
C1276 N1275 1.397 . S
C1277 H1258 0.929 . S
C1277 C1274 1.404 . S
C1277 N1275 1.334 . S
C1278 H1270 0.930 . S
C1278 C1273 1.418 . S
C1278 C1274 1.353 . S
C1279 H1249 0.930 . S
C1279 N1280 1.330 . S
C1279 C1281 1.446 . S
N1280 Co1239 2.151 . S
N1280 C1279 1.330 . S
N1280 C1284 1.418 . S
C1281 H1260 0.929 . S
C1281 C1279 1.446 . S
C1281 C1282 1.332 . S
C1282 H1262 0.931 . S
C1282 C1281 1.332 . S
C1282 C1283 1.267 . S
C1283 H1251 0.929 . S
C1283 C1282 1.267 . S
C1283 C1284 1.251 . S
C1284 H1254 0.929 . S
C1284 N1280 1.418 . S
C1284 C1283 1.251 . S
C1285 H1252 0.930 . S
C1285 C1287 1.406 . S
C1285 C1290 1.261 . S
C1286 H1253 0.930 . S
C1286 N1288 1.325 . S
C1286 C1289 1.357 . S
C1287 H1255 0.928 . S
C1287 C1285 1.406 . S
C1287 N1288 1.261 . S
N1288 Co1239 2.214 . S
N1288 C1286 1.325 . S
N1288 C1287 1.261 . S
C1289 H1259 0.931 . S
C1289 C1286 1.357 . S
C1289 C1290 1.312 . S
C1290 H1261 0.930 . S
C1290 C1285 1.261 . S
C1290 C1289 1.312 . S
C1291 O1263 1.214 . S
C1291 O1271 1.234 . S
C1292 H1264 0.929 . S
C1292 C1295 1.391 . S
C1292 C1297 1.391 . S
C1293 H1265 0.929 . S
C1293 C1294 1.390 . S
C1293 N1296 1.391 . S
C1294 H1266 0.930 . S
C1294 C1293 1.390 . S
C1294 C1295 1.392 . S
C1295 H1267 0.929 . S
C1295 C1292 1.391 . S
C1295 C1294 1.392 . S
N1296 Co1240 2.257 . S
N1296 C1293 1.391 . S
N1296 C1297 1.388 . S
C1297 H1268 0.930 . S
C1297 C1292 1.391 . S
C1297 N1296 1.388 . S
Co1298 O1300 2.143 . S
Co1298 O1306 2.074 . S
Co1298 O1309 2.093 . S
Co1298 O1322 2.097 . S
Co1298 N1339 2.151 . S
Co1298 N1347 2.214 . S
Co1299 O1300 2.160 . S
Co1299 O1305 2.058 . S
Co1299 O1315 2.057 . S
Co1299 O1330 2.037 . S
Co1299 N1334 2.145 . S
Co1299 N1355 2.257 . S
O1300 Co1298 2.143 . S
O1300 Co1299 2.160 . S
C1301 O1302 1.278 . S
C1301 O1309 1.224 . S
O1302 C1301 1.278 . S
C1303 O1304 1.245 . S
C1303 O1315 1.232 . S
O1304 C1303 1.245 . S
O1305 Co1299 2.058 . S
O1305 C1331 1.269 . S
O1306 Co1298 2.074 . S
O1306 C1331 1.257 . S
H1307 C1332 0.930 . S
H1308 C1338 0.930 . S
O1309 Co1298 2.093 . S
O1309 C1301 1.224 . S
H1310 C1342 0.929 . S
H1311 C1344 0.930 . S
H1312 C1345 0.930 . S
H1313 C1343 0.929 . S
H1314 C1346 0.928 . S
O1315 Co1299 2.057 . S
O1315 C1303 1.232 . S
H1316 C1335 0.929 . S
H1317 C1336 0.929 . S
H1318 C1348 0.931 . S
H1319 C1340 0.929 . S
H1320 C1349 0.930 . S
H1321 C1341 0.931 . S
O1322 Co1298 2.097 . S
O1322 C1350 1.214 . S
H1323 C1351 0.929 . S
H1324 C1352 0.929 . S
H1325 C1353 0.930 . S
H1326 C1354 0.929 . S
H1327 C1356 0.930 . S
H1328 C1333 0.930 . S
H1329 C1337 0.930 . S
O1330 Co1299 2.037 . S
O1330 C1350 1.234 . S
C1331 O1305 1.269 . S
C1331 O1306 1.257 . S
C1332 H1307 0.930 . S
C1332 C1335 1.388 . S
C1332 C1337 1.418 . S
C1333 H1328 0.930 . S
C1333 C1336 1.404 . S
C1333 C1337 1.353 . S
N1334 Co1299 2.145 . S
N1334 C1335 1.397 . S
N1334 C1336 1.334 . S
C1335 H1316 0.929 . S
C1335 C1332 1.388 . S
C1335 N1334 1.397 . S
C1336 H1317 0.929 . S
C1336 C1333 1.404 . S
C1336 N1334 1.334 . S
C1337 H1329 0.930 . S
C1337 C1332 1.418 . S
C1337 C1333 1.353 . S
C1338 H1308 0.930 . S
C1338 N1339 1.330 . S
C1338 C1340 1.446 . S
N1339 Co1298 2.151 . S
N1339 C1338 1.330 . S
N1339 C1343 1.418 . S
C1340 H1319 0.929 . S
C1340 C1338 1.446 . S
C1340 C1341 1.332 . S
C1341 H1321 0.931 . S
C1341 C1340 1.332 . S
C1341 C1342 1.267 . S
C1342 H1310 0.929 . S
C1342 C1341 1.267 . S
C1342 C1343 1.251 . S
C1343 H1313 0.929 . S
C1343 N1339 1.418 . S
C1343 C1342 1.251 . S
C1344 H1311 0.930 . S
C1344 C1346 1.406 . S
C1344 C1349 1.261 . S
C1345 H1312 0.930 . S
C1345 N1347 1.325 . S
C1345 C1348 1.357 . S
C1346 H1314 0.928 . S
C1346 C1344 1.406 . S
C1346 N1347 1.261 . S
N1347 Co1298 2.214 . S
N1347 C1345 1.325 . S
N1347 C1346 1.261 . S
C1348 H1318 0.931 . S
C1348 C1345 1.357 . S
C1348 C1349 1.312 . S
C1349 H1320 0.930 . S
C1349 C1344 1.261 . S
C1349 C1348 1.312 . S
C1350 O1322 1.214 . S
C1350 O1330 1.234 . S
C1351 H1323 0.929 . S
C1351 C1354 1.391 . S
C1351 C1356 1.391 . S
C1352 H1324 0.929 . S
C1352 C1353 1.390 . S
C1352 N1355 1.391 . S
C1353 H1325 0.930 . S
C1353 C1352 1.390 . S
C1353 C1354 1.392 . S
C1354 H1326 0.929 . S
C1354 C1351 1.391 . S
C1354 C1353 1.392 . S
N1355 Co1299 2.257 . S
N1355 C1352 1.391 . S
N1355 C1356 1.388 . S
C1356 H1327 0.930 . S
C1356 C1351 1.391 . S
C1356 N1355 1.388 . S
Co1357 O1359 2.143 . S
Co1357 O1365 2.074 . S
Co1357 O1368 2.093 . S
Co1357 O1381 2.097 . S
Co1357 N1398 2.151 . S
Co1357 N1406 2.214 . S
Co1358 O1359 2.160 . S
Co1358 O1364 2.058 . S
Co1358 O1374 2.057 . S
Co1358 O1389 2.037 . S
Co1358 N1393 2.145 . S
Co1358 N1414 2.257 . S
O1359 Co1357 2.143 . S
O1359 Co1358 2.160 . S
C1360 O1361 1.278 . S
C1360 O1368 1.224 . S
O1361 C1360 1.278 . S
C1362 O1363 1.245 . S
C1362 O1374 1.232 . S
O1363 C1362 1.245 . S
O1364 Co1358 2.058 . S
O1364 C1390 1.269 . S
O1365 Co1357 2.074 . S
O1365 C1390 1.257 . S
H1366 C1391 0.930 . S
H1367 C1397 0.930 . S
O1368 Co1357 2.093 . S
O1368 C1360 1.224 . S
H1369 C1401 0.929 . S
H1370 C1403 0.930 . S
H1371 C1404 0.930 . S
H1372 C1402 0.929 . S
H1373 C1405 0.928 . S
O1374 Co1358 2.057 . S
O1374 C1362 1.232 . S
H1375 C1394 0.929 . S
H1376 C1395 0.929 . S
H1377 C1407 0.931 . S
H1378 C1399 0.929 . S
H1379 C1408 0.930 . S
H1380 C1400 0.931 . S
O1381 Co1357 2.097 . S
O1381 C1409 1.214 . S
H1382 C1410 0.929 . S
H1383 C1411 0.929 . S
H1384 C1412 0.930 . S
H1385 C1413 0.929 . S
H1386 C1415 0.930 . S
H1387 C1392 0.930 . S
H1388 C1396 0.930 . S
O1389 Co1358 2.037 . S
O1389 C1409 1.234 . S
C1390 O1364 1.269 . S
C1390 O1365 1.257 . S
C1391 H1366 0.930 . S
C1391 C1394 1.388 . S
C1391 C1396 1.418 . S
C1392 H1387 0.930 . S
C1392 C1395 1.404 . S
C1392 C1396 1.353 . S
N1393 Co1358 2.145 . S
N1393 C1394 1.397 . S
N1393 C1395 1.334 . S
C1394 H1375 0.929 . S
C1394 C1391 1.388 . S
C1394 N1393 1.397 . S
C1395 H1376 0.929 . S
C1395 C1392 1.404 . S
C1395 N1393 1.334 . S
C1396 H1388 0.930 . S
C1396 C1391 1.418 . S
C1396 C1392 1.353 . S
C1397 H1367 0.930 . S
C1397 N1398 1.330 . S
C1397 C1399 1.446 . S
N1398 Co1357 2.151 . S
N1398 C1397 1.330 . S
N1398 C1402 1.418 . S
C1399 H1378 0.929 . S
C1399 C1397 1.446 . S
C1399 C1400 1.332 . S
C1400 H1380 0.931 . S
C1400 C1399 1.332 . S
C1400 C1401 1.267 . S
C1401 H1369 0.929 . S
C1401 C1400 1.267 . S
C1401 C1402 1.251 . S
C1402 H1372 0.929 . S
C1402 N1398 1.418 . S
C1402 C1401 1.251 . S
C1403 H1370 0.930 . S
C1403 C1405 1.406 . S
C1403 C1408 1.261 . S
C1404 H1371 0.930 . S
C1404 N1406 1.325 . S
C1404 C1407 1.357 . S
C1405 H1373 0.928 . S
C1405 C1403 1.406 . S
C1405 N1406 1.261 . S
N1406 Co1357 2.214 . S
N1406 C1404 1.325 . S
N1406 C1405 1.261 . S
C1407 H1377 0.931 . S
C1407 C1404 1.357 . S
C1407 C1408 1.312 . S
C1408 H1379 0.930 . S
C1408 C1403 1.261 . S
C1408 C1407 1.312 . S
C1409 O1381 1.214 . S
C1409 O1389 1.234 . S
C1410 H1382 0.929 . S
C1410 C1413 1.391 . S
C1410 C1415 1.391 . S
C1411 H1383 0.929 . S
C1411 C1412 1.390 . S
C1411 N1414 1.391 . S
C1412 H1384 0.930 . S
C1412 C1411 1.390 . S
C1412 C1413 1.392 . S
C1413 H1385 0.929 . S
C1413 C1410 1.391 . S
C1413 C1412 1.392 . S
N1414 Co1358 2.257 . S
N1414 C1411 1.391 . S
N1414 C1415 1.388 . S
C1415 H1386 0.930 . S
C1415 C1410 1.391 . S
C1415 N1414 1.388 . S
Co1416 O1418 2.143 . S
Co1416 O1424 2.074 . S
Co1416 O1427 2.093 . S
Co1416 O1440 2.097 . S
Co1416 N1457 2.151 . S
Co1416 N1465 2.214 . S
Co1417 O1418 2.160 . S
Co1417 O1423 2.058 . S
Co1417 O1433 2.057 . S
Co1417 O1448 2.037 . S
Co1417 N1452 2.145 . S
Co1417 N1473 2.257 . S
O1418 Co1416 2.143 . S
O1418 Co1417 2.160 . S
C1419 O1420 1.278 . S
C1419 O1427 1.224 . S
O1420 C1419 1.278 . S
C1421 O1422 1.245 . S
C1421 O1433 1.232 . S
O1422 C1421 1.245 . S
O1423 Co1417 2.058 . S
O1423 C1449 1.277 . S
O1424 Co1416 2.074 . S
O1424 C1449 1.272 . S
H1425 C1450 0.930 . S
H1426 C1456 0.930 . S
O1427 Co1416 2.093 . S
O1427 C1419 1.224 . S
H1428 C1460 0.929 . S
H1429 C1462 0.930 . S
H1430 C1463 0.930 . S
H1431 C1461 0.933 . S
H1432 C1464 0.928 . S
O1433 Co1417 2.057 . S
O1433 C1421 1.232 . S
H1434 C1453 0.929 . S
H1435 C1454 0.929 . S
H1436 C1466 0.931 . S
H1437 C1458 0.929 . S
H1438 C1467 0.930 . S
H1439 C1459 0.931 . S
O1440 Co1416 2.097 . S
O1440 C1468 1.214 . S
H1441 C1469 0.929 . S
H1442 C1470 0.929 . S
H1443 C1471 0.930 . S
H1444 C1472 0.929 . S
H1445 C1474 0.930 . S
H1446 C1451 0.930 . S
H1447 C1455 0.930 . S
O1448 Co1417 2.037 . S
O1448 C1468 1.234 . S
C1449 O1423 1.277 . S
C1449 O1424 1.272 . S
C1450 H1425 0.930 . S
C1450 C1453 1.388 . S
C1450 C1455 1.418 . S
C1451 H1446 0.930 . S
C1451 C1454 1.404 . S
C1451 C1455 1.353 . S
N1452 Co1417 2.145 . S
N1452 C1453 1.397 . S
N1452 C1454 1.334 . S
C1453 H1434 0.929 . S
C1453 C1450 1.388 . S
C1453 N1452 1.397 . S
C1454 H1435 0.929 . S
C1454 C1451 1.404 . S
C1454 N1452 1.334 . S
C1455 H1447 0.930 . S
C1455 C1450 1.418 . S
C1455 C1451 1.353 . S
C1456 H1426 0.930 . S
C1456 N1457 1.330 . S
C1456 C1458 1.446 . S
N1457 Co1416 2.151 . S
N1457 C1456 1.330 . S
N1457 C1461 1.408 1_455 S
C1458 H1437 0.929 . S
C1458 C1456 1.446 . S
C1458 C1459 1.332 1_455 S
C1459 H1439 0.931 . S
C1459 C1458 1.332 1_655 S
C1459 C1460 1.267 . S
C1460 H1428 0.929 . S
C1460 C1459 1.267 . S
C1460 C1461 1.257 . S
C1461 H1431 0.933 . S
C1461 N1457 1.408 1_655 S
C1461 C1460 1.257 . S
C1462 H1429 0.930 . S
C1462 C1464 1.406 . S
C1462 C1467 1.261 . S
C1463 H1430 0.930 . S
C1463 N1465 1.325 . S
C1463 C1466 1.357 . S
C1464 H1432 0.928 . S
C1464 C1462 1.406 . S
C1464 N1465 1.261 . S
N1465 Co1416 2.214 . S
N1465 C1463 1.325 . S
N1465 C1464 1.261 . S
C1466 H1436 0.931 . S
C1466 C1463 1.357 . S
C1466 C1467 1.312 . S
C1467 H1438 0.930 . S
C1467 C1462 1.261 . S
C1467 C1466 1.312 . S
C1468 O1440 1.214 . S
C1468 O1448 1.234 . S
C1469 H1441 0.929 . S
C1469 C1472 1.391 . S
C1469 C1474 1.391 . S
C1470 H1442 0.929 . S
C1470 C1471 1.390 . S
C1470 N1473 1.391 . S
C1471 H1443 0.930 . S
C1471 C1470 1.390 . S
C1471 C1472 1.392 . S
C1472 H1444 0.929 . S
C1472 C1469 1.391 . S
C1472 C1471 1.392 . S
N1473 Co1417 2.257 . S
N1473 C1470 1.391 . S
N1473 C1474 1.388 . S
C1474 H1445 0.930 . S
C1474 C1469 1.391 . S
C1474 N1473 1.388 . S
Co1475 O1477 2.143 . S
Co1475 O1483 2.074 . S
Co1475 O1486 2.093 . S
Co1475 O1499 2.097 . S
Co1475 N1516 2.151 . S
Co1475 N1524 2.214 . S
Co1476 O1477 2.160 . S
Co1476 O1482 2.058 . S
Co1476 O1492 2.057 . S
Co1476 O1507 2.037 . S
Co1476 N1511 2.145 . S
Co1476 N1532 2.257 . S
O1477 Co1475 2.143 . S
O1477 Co1476 2.160 . S
C1478 O1479 1.278 . S
C1478 O1486 1.224 . S
O1479 C1478 1.278 . S
C1480 O1481 1.245 . S
C1480 O1492 1.232 . S
O1481 C1480 1.245 . S
O1482 Co1476 2.058 . S
O1482 C1508 1.269 . S
O1483 Co1475 2.074 . S
O1483 C1508 1.257 . S
H1484 C1509 0.930 . S
H1485 C1515 0.930 . S
O1486 Co1475 2.093 . S
O1486 C1478 1.224 . S
H1487 C1519 0.929 . S
H1488 C1521 0.930 . S
H1489 C1522 0.930 . S
H1490 C1520 0.929 . S
H1491 C1523 0.928 . S
O1492 Co1476 2.057 . S
O1492 C1480 1.232 . S
H1493 C1512 0.929 . S
H1494 C1513 0.929 . S
H1495 C1525 0.931 . S
H1496 C1517 0.929 . S
H1497 C1526 0.930 . S
H1498 C1518 0.931 . S
O1499 Co1475 2.097 . S
O1499 C1527 1.214 . S
H1500 C1528 0.929 . S
H1501 C1529 0.929 . S
H1502 C1530 0.930 . S
H1503 C1531 0.929 . S
H1504 C1533 0.930 . S
H1505 C1510 0.930 . S
H1506 C1514 0.930 . S
O1507 Co1476 2.037 . S
O1507 C1527 1.234 . S
C1508 O1482 1.269 . S
C1508 O1483 1.257 . S
C1509 H1484 0.930 . S
C1509 C1512 1.388 . S
C1509 C1514 1.418 . S
C1510 H1505 0.930 . S
C1510 C1513 1.404 . S
C1510 C1514 1.353 . S
N1511 Co1476 2.145 . S
N1511 C1512 1.397 . S
N1511 C1513 1.334 . S
C1512 H1493 0.929 . S
C1512 C1509 1.388 . S
C1512 N1511 1.397 . S
C1513 H1494 0.929 . S
C1513 C1510 1.404 . S
C1513 N1511 1.334 . S
C1514 H1506 0.930 . S
C1514 C1509 1.418 . S
C1514 C1510 1.353 . S
C1515 H1485 0.930 . S
C1515 N1516 1.330 . S
C1515 C1517 1.446 . S
N1516 Co1475 2.151 . S
N1516 C1515 1.330 . S
N1516 C1520 1.418 . S
C1517 H1496 0.929 . S
C1517 C1515 1.446 . S
C1517 C1518 1.332 . S
C1518 H1498 0.931 . S
C1518 C1517 1.332 . S
C1518 C1519 1.267 . S
C1519 H1487 0.929 . S
C1519 C1518 1.267 . S
C1519 C1520 1.251 . S
C1520 H1490 0.929 . S
C1520 N1516 1.418 . S
C1520 C1519 1.251 . S
C1521 H1488 0.930 . S
C1521 C1523 1.406 . S
C1521 C1526 1.261 . S
C1522 H1489 0.930 . S
C1522 N1524 1.325 . S
C1522 C1525 1.357 . S
C1523 H1491 0.928 . S
C1523 C1521 1.406 . S
C1523 N1524 1.261 . S
N1524 Co1475 2.214 . S
N1524 C1522 1.325 . S
N1524 C1523 1.261 . S
C1525 H1495 0.931 . S
C1525 C1522 1.357 . S
C1525 C1526 1.312 . S
C1526 H1497 0.930 . S
C1526 C1521 1.261 . S
C1526 C1525 1.312 . S
C1527 O1499 1.214 . S
C1527 O1507 1.234 . S
C1528 H1500 0.929 . S
C1528 C1531 1.391 . S
C1528 C1533 1.391 . S
C1529 H1501 0.929 . S
C1529 C1530 1.390 . S
C1529 N1532 1.391 . S
C1530 H1502 0.930 . S
C1530 C1529 1.390 . S
C1530 C1531 1.392 . S
C1531 H1503 0.929 . S
C1531 C1528 1.391 . S
C1531 C1530 1.392 . S
N1532 Co1476 2.257 . S
N1532 C1529 1.391 . S
N1532 C1533 1.388 . S
C1533 H1504 0.930 . S
C1533 C1528 1.391 . S
C1533 N1532 1.388 . S
Co1534 O1536 2.143 . S
Co1534 O1542 2.074 . S
Co1534 O1545 2.093 . S
Co1534 O1558 2.097 . S
Co1534 N1575 2.151 . S
Co1534 N1583 2.214 . S
Co1535 O1536 2.160 . S
Co1535 O1541 2.058 . S
Co1535 O1551 2.057 . S
Co1535 O1566 2.037 . S
Co1535 N1570 2.145 . S
Co1535 N1591 2.257 . S
O1536 Co1534 2.143 . S
O1536 Co1535 2.160 . S
C1537 O1538 1.278 . S
C1537 O1545 1.224 . S
O1538 C1537 1.278 . S
C1539 O1540 1.245 . S
C1539 O1551 1.232 . S
O1540 C1539 1.245 . S
O1541 Co1535 2.058 . S
O1541 C1567 1.269 . S
O1542 Co1534 2.074 . S
O1542 C1567 1.257 . S
H1543 C1568 0.930 . S
H1544 C1574 0.930 . S
O1545 Co1534 2.093 . S
O1545 C1537 1.224 . S
H1546 C1578 0.929 . S
H1547 C1580 0.930 . S
H1548 C1581 0.930 . S
H1549 C1579 0.929 . S
H1550 C1582 0.928 . S
O1551 Co1535 2.057 . S
O1551 C1539 1.232 . S
H1552 C1571 0.929 . S
H1553 C1572 0.929 . S
H1554 C1584 0.931 . S
H1555 C1576 0.929 . S
H1556 C1585 0.930 . S
H1557 C1577 0.931 . S
O1558 Co1534 2.097 . S
O1558 C1586 1.214 . S
H1559 C1587 0.929 . S
H1560 C1588 0.929 . S
H1561 C1589 0.930 . S
H1562 C1590 0.929 . S
H1563 C1592 0.930 . S
H1564 C1569 0.930 . S
H1565 C1573 0.930 . S
O1566 Co1535 2.037 . S
O1566 C1586 1.234 . S
C1567 O1541 1.269 . S
C1567 O1542 1.257 . S
C1568 H1543 0.930 . S
C1568 C1571 1.388 . S
C1568 C1573 1.418 . S
C1569 H1564 0.930 . S
C1569 C1572 1.404 . S
C1569 C1573 1.353 . S
N1570 Co1535 2.145 . S
N1570 C1571 1.397 . S
N1570 C1572 1.334 . S
C1571 H1552 0.929 . S
C1571 C1568 1.388 . S
C1571 N1570 1.397 . S
C1572 H1553 0.929 . S
C1572 C1569 1.404 . S
C1572 N1570 1.334 . S
C1573 H1565 0.930 . S
C1573 C1568 1.418 . S
C1573 C1569 1.353 . S
C1574 H1544 0.930 . S
C1574 N1575 1.330 . S
C1574 C1576 1.446 . S
N1575 Co1534 2.151 . S
N1575 C1574 1.330 . S
N1575 C1579 1.418 . S
C1576 H1555 0.929 . S
C1576 C1574 1.446 . S
C1576 C1577 1.332 . S
C1577 H1557 0.931 . S
C1577 C1576 1.332 . S
C1577 C1578 1.267 . S
C1578 H1546 0.929 . S
C1578 C1577 1.267 . S
C1578 C1579 1.251 . S
C1579 H1549 0.929 . S
C1579 N1575 1.418 . S
C1579 C1578 1.251 . S
C1580 H1547 0.930 . S
C1580 C1582 1.406 . S
C1580 C1585 1.261 . S
C1581 H1548 0.930 . S
C1581 N1583 1.325 . S
C1581 C1584 1.357 . S
C1582 H1550 0.928 . S
C1582 C1580 1.406 . S
C1582 N1583 1.261 . S
N1583 Co1534 2.214 . S
N1583 C1581 1.325 . S
N1583 C1582 1.261 . S
C1584 H1554 0.931 . S
C1584 C1581 1.357 . S
C1584 C1585 1.312 . S
C1585 H1556 0.930 . S
C1585 C1580 1.261 . S
C1585 C1584 1.312 . S
C1586 O1558 1.214 . S
C1586 O1566 1.234 . S
C1587 H1559 0.929 . S
C1587 C1590 1.391 . S
C1587 C1592 1.391 . S
C1588 H1560 0.929 . S
C1588 C1589 1.390 . S
C1588 N1591 1.391 . S
C1589 H1561 0.930 . S
C1589 C1588 1.390 . S
C1589 C1590 1.392 . S
C1590 H1562 0.929 . S
C1590 C1587 1.391 . S
C1590 C1589 1.392 . S
N1591 Co1535 2.257 . S
N1591 C1588 1.391 . S
N1591 C1592 1.388 . S
C1592 H1563 0.930 . S
C1592 C1587 1.391 . S
C1592 N1591 1.388 . S
Co1593 O1595 2.143 . S
Co1593 O1601 2.074 . S
Co1593 O1604 2.093 . S
Co1593 O1617 2.097 . S
Co1593 N1634 2.151 . S
Co1593 N1642 2.214 . S
Co1594 O1595 2.160 . S
Co1594 O1600 2.058 . S
Co1594 O1610 2.057 . S
Co1594 O1625 2.037 . S
Co1594 N1629 2.145 . S
Co1594 N1650 2.257 . S
O1595 Co1593 2.143 . S
O1595 Co1594 2.160 . S
C1596 O1597 1.278 . S
C1596 O1604 1.224 . S
O1597 C1596 1.278 . S
C1598 O1599 1.245 . S
C1598 O1610 1.232 . S
O1599 C1598 1.245 . S
O1600 Co1594 2.058 . S
O1600 C1626 1.269 . S
O1601 Co1593 2.074 . S
O1601 C1626 1.257 . S
H1602 C1627 0.930 . S
H1603 C1633 0.930 . S
O1604 Co1593 2.093 . S
O1604 C1596 1.224 . S
H1605 C1637 0.929 . S
H1606 C1639 0.930 . S
H1607 C1640 0.930 . S
H1608 C1638 0.929 . S
H1609 C1641 0.928 . S
O1610 Co1594 2.057 . S
O1610 C1598 1.232 . S
H1611 C1630 0.929 . S
H1612 C1631 0.929 . S
H1613 C1643 0.931 . S
H1614 C1635 0.929 . S
H1615 C1644 0.930 . S
H1616 C1636 0.931 . S
O1617 Co1593 2.097 . S
O1617 C1645 1.214 . S
H1618 C1646 0.929 . S
H1619 C1647 0.929 . S
H1620 C1648 0.930 . S
H1621 C1649 0.929 . S
H1622 C1651 0.930 . S
H1623 C1628 0.930 . S
H1624 C1632 0.930 . S
O1625 Co1594 2.037 . S
O1625 C1645 1.234 . S
C1626 O1600 1.269 . S
C1626 O1601 1.257 . S
C1627 H1602 0.930 . S
C1627 C1630 1.388 . S
C1627 C1632 1.418 . S
C1628 H1623 0.930 . S
C1628 C1631 1.404 . S
C1628 C1632 1.353 . S
N1629 Co1594 2.145 . S
N1629 C1630 1.397 . S
N1629 C1631 1.334 . S
C1630 H1611 0.929 . S
C1630 C1627 1.388 . S
C1630 N1629 1.397 . S
C1631 H1612 0.929 . S
C1631 C1628 1.404 . S
C1631 N1629 1.334 . S
C1632 H1624 0.930 . S
C1632 C1627 1.418 . S
C1632 C1628 1.353 . S
C1633 H1603 0.930 . S
C1633 N1634 1.330 . S
C1633 C1635 1.446 . S
N1634 Co1593 2.151 . S
N1634 C1633 1.330 . S
N1634 C1638 1.418 . S
C1635 H1614 0.929 . S
C1635 C1633 1.446 . S
C1635 C1636 1.332 . S
C1636 H1616 0.931 . S
C1636 C1635 1.332 . S
C1636 C1637 1.267 . S
C1637 H1605 0.929 . S
C1637 C1636 1.267 . S
C1637 C1638 1.251 . S
C1638 H1608 0.929 . S
C1638 N1634 1.418 . S
C1638 C1637 1.251 . S
C1639 H1606 0.930 . S
C1639 C1641 1.406 . S
C1639 C1644 1.261 . S
C1640 H1607 0.930 . S
C1640 N1642 1.325 . S
C1640 C1643 1.357 . S
C1641 H1609 0.928 . S
C1641 C1639 1.406 . S
C1641 N1642 1.261 . S
N1642 Co1593 2.214 . S
N1642 C1640 1.325 . S
N1642 C1641 1.261 . S
C1643 H1613 0.931 . S
C1643 C1640 1.357 . S
C1643 C1644 1.312 . S
C1644 H1615 0.930 . S
C1644 C1639 1.261 . S
C1644 C1643 1.312 . S
C1645 O1617 1.214 . S
C1645 O1625 1.234 . S
C1646 H1618 0.929 . S
C1646 C1649 1.391 . S
C1646 C1651 1.391 . S
C1647 H1619 0.929 . S
C1647 C1648 1.390 . S
C1647 N1650 1.391 . S
C1648 H1620 0.930 . S
C1648 C1647 1.390 . S
C1648 C1649 1.392 . S
C1649 H1621 0.929 . S
C1649 C1646 1.391 . S
C1649 C1648 1.392 . S
N1650 Co1594 2.257 . S
N1650 C1647 1.391 . S
N1650 C1651 1.388 . S
C1651 H1622 0.930 . S
C1651 C1646 1.391 . S
C1651 N1650 1.388 . S
Co1652 O1654 2.143 . S
Co1652 O1660 2.074 . S
Co1652 O1663 2.093 . S
Co1652 O1676 2.097 . S
Co1652 N1693 2.151 . S
Co1652 N1701 2.214 . S
Co1653 O1654 2.160 . S
Co1653 O1659 2.058 . S
Co1653 O1669 2.057 . S
Co1653 O1684 2.037 . S
Co1653 N1688 2.145 . S
Co1653 N1709 2.257 . S
O1654 Co1652 2.143 . S
O1654 Co1653 2.160 . S
C1655 O1656 1.278 . S
C1655 O1663 1.224 . S
O1656 C1655 1.278 . S
C1657 O1658 1.245 . S
C1657 O1669 1.232 . S
O1658 C1657 1.245 . S
O1659 Co1653 2.058 . S
O1659 C1685 1.277 . S
O1660 Co1652 2.074 . S
O1660 C1685 1.272 . S
H1661 C1686 0.930 . S
H1662 C1692 0.930 . S
O1663 Co1652 2.093 . S
O1663 C1655 1.224 . S
H1664 C1696 0.929 . S
H1665 C1698 0.930 . S
H1666 C1699 0.930 . S
H1667 C1697 0.933 . S
H1668 C1700 0.928 . S
O1669 Co1653 2.057 . S
O1669 C1657 1.232 . S
H1670 C1689 0.929 . S
H1671 C1690 0.929 . S
H1672 C1702 0.931 . S
H1673 C1694 0.929 . S
H1674 C1703 0.930 . S
H1675 C1695 0.931 . S
O1676 Co1652 2.097 . S
O1676 C1704 1.214 . S
H1677 C1705 0.929 . S
H1678 C1706 0.929 . S
H1679 C1707 0.930 . S
H1680 C1708 0.929 . S
H1681 C1710 0.930 . S
H1682 C1687 0.930 . S
H1683 C1691 0.930 . S
O1684 Co1653 2.037 . S
O1684 C1704 1.234 . S
C1685 O1659 1.277 . S
C1685 O1660 1.272 . S
C1686 H1661 0.930 . S
C1686 C1689 1.388 . S
C1686 C1691 1.418 . S
C1687 H1682 0.930 . S
C1687 C1690 1.404 . S
C1687 C1691 1.353 . S
N1688 Co1653 2.145 . S
N1688 C1689 1.397 . S
N1688 C1690 1.334 . S
C1689 H1670 0.929 . S
C1689 C1686 1.388 . S
C1689 N1688 1.397 . S
C1690 H1671 0.929 . S
C1690 C1687 1.404 . S
C1690 N1688 1.334 . S
C1691 H1683 0.930 . S
C1691 C1686 1.418 . S
C1691 C1687 1.353 . S
C1692 H1662 0.930 . S
C1692 N1693 1.330 . S
C1692 C1694 1.446 . S
N1693 Co1652 2.151 . S
N1693 C1692 1.330 . S
N1693 C1697 1.408 1_455 S
C1694 H1673 0.929 . S
C1694 C1692 1.446 . S
C1694 C1695 1.332 1_455 S
C1695 H1675 0.931 . S
C1695 C1694 1.332 1_655 S
C1695 C1696 1.267 . S
C1696 H1664 0.929 . S
C1696 C1695 1.267 . S
C1696 C1697 1.257 . S
C1697 H1667 0.933 . S
C1697 N1693 1.408 1_655 S
C1697 C1696 1.257 . S
C1698 H1665 0.930 . S
C1698 C1700 1.406 . S
C1698 C1703 1.261 . S
C1699 H1666 0.930 . S
C1699 N1701 1.325 . S
C1699 C1702 1.357 . S
C1700 H1668 0.928 . S
C1700 C1698 1.406 . S
C1700 N1701 1.261 . S
N1701 Co1652 2.214 . S
N1701 C1699 1.325 . S
N1701 C1700 1.261 . S
C1702 H1672 0.931 . S
C1702 C1699 1.357 . S
C1702 C1703 1.312 . S
C1703 H1674 0.930 . S
C1703 C1698 1.261 . S
C1703 C1702 1.312 . S
C1704 O1676 1.214 . S
C1704 O1684 1.234 . S
C1705 H1677 0.929 . S
C1705 C1708 1.391 . S
C1705 C1710 1.391 . S
C1706 H1678 0.929 . S
C1706 C1707 1.390 . S
C1706 N1709 1.391 . S
C1707 H1679 0.930 . S
C1707 C1706 1.390 . S
C1707 C1708 1.392 . S
C1708 H1680 0.929 . S
C1708 C1705 1.391 . S
C1708 C1707 1.392 . S
N1709 Co1653 2.257 . S
N1709 C1706 1.391 . S
N1709 C1710 1.388 . S
C1710 H1681 0.930 . S
C1710 C1705 1.391 . S
C1710 N1709 1.388 . S
Co1711 O1713 2.143 . S
Co1711 O1719 2.074 . S
Co1711 O1722 2.093 . S
Co1711 O1735 2.097 . S
Co1711 N1752 2.151 . S
Co1711 N1760 2.214 . S
Co1712 O1713 2.160 . S
Co1712 O1718 2.058 . S
Co1712 O1728 2.057 . S
Co1712 O1743 2.037 . S
Co1712 N1747 2.145 . S
Co1712 N1768 2.257 . S
O1713 Co1711 2.143 . S
O1713 Co1712 2.160 . S
C1714 O1715 1.278 . S
C1714 O1722 1.224 . S
O1715 C1714 1.278 . S
C1716 O1717 1.245 . S
C1716 O1728 1.232 . S
O1717 C1716 1.245 . S
O1718 Co1712 2.058 . S
O1718 C1744 1.269 . S
O1719 Co1711 2.074 . S
O1719 C1744 1.257 . S
H1720 C1745 0.930 . S
H1721 C1751 0.930 . S
O1722 Co1711 2.093 . S
O1722 C1714 1.224 . S
H1723 C1755 0.929 . S
H1724 C1757 0.930 . S
H1725 C1758 0.930 . S
H1726 C1756 0.929 . S
H1727 C1759 0.928 . S
O1728 Co1712 2.057 . S
O1728 C1716 1.232 . S
H1729 C1748 0.929 . S
H1730 C1749 0.929 . S
H1731 C1761 0.931 . S
H1732 C1753 0.929 . S
H1733 C1762 0.930 . S
H1734 C1754 0.931 . S
O1735 Co1711 2.097 . S
O1735 C1763 1.214 . S
H1736 C1764 0.929 . S
H1737 C1765 0.929 . S
H1738 C1766 0.930 . S
H1739 C1767 0.929 . S
H1740 C1769 0.930 . S
H1741 C1746 0.930 . S
H1742 C1750 0.930 . S
O1743 Co1712 2.037 . S
O1743 C1763 1.234 . S
C1744 O1718 1.269 . S
C1744 O1719 1.257 . S
C1745 H1720 0.930 . S
C1745 C1748 1.388 . S
C1745 C1750 1.418 . S
C1746 H1741 0.930 . S
C1746 C1749 1.404 . S
C1746 C1750 1.353 . S
N1747 Co1712 2.145 . S
N1747 C1748 1.397 . S
N1747 C1749 1.334 . S
C1748 H1729 0.929 . S
C1748 C1745 1.388 . S
C1748 N1747 1.397 . S
C1749 H1730 0.929 . S
C1749 C1746 1.404 . S
C1749 N1747 1.334 . S
C1750 H1742 0.930 . S
C1750 C1745 1.418 . S
C1750 C1746 1.353 . S
C1751 H1721 0.930 . S
C1751 N1752 1.330 . S
C1751 C1753 1.446 . S
N1752 Co1711 2.151 . S
N1752 C1751 1.330 . S
N1752 C1756 1.418 . S
C1753 H1732 0.929 . S
C1753 C1751 1.446 . S
C1753 C1754 1.332 . S
C1754 H1734 0.931 . S
C1754 C1753 1.332 . S
C1754 C1755 1.267 . S
C1755 H1723 0.929 . S
C1755 C1754 1.267 . S
C1755 C1756 1.251 . S
C1756 H1726 0.929 . S
C1756 N1752 1.418 . S
C1756 C1755 1.251 . S
C1757 H1724 0.930 . S
C1757 C1759 1.406 . S
C1757 C1762 1.261 . S
C1758 H1725 0.930 . S
C1758 N1760 1.325 . S
C1758 C1761 1.357 . S
C1759 H1727 0.928 . S
C1759 C1757 1.406 . S
C1759 N1760 1.261 . S
N1760 Co1711 2.214 . S
N1760 C1758 1.325 . S
N1760 C1759 1.261 . S
C1761 H1731 0.931 . S
C1761 C1758 1.357 . S
C1761 C1762 1.312 . S
C1762 H1733 0.930 . S
C1762 C1757 1.261 . S
C1762 C1761 1.312 . S
C1763 O1735 1.214 . S
C1763 O1743 1.234 . S
C1764 H1736 0.929 . S
C1764 C1767 1.391 . S
C1764 C1769 1.391 . S
C1765 H1737 0.929 . S
C1765 C1766 1.390 . S
C1765 N1768 1.391 . S
C1766 H1738 0.930 . S
C1766 C1765 1.390 . S
C1766 C1767 1.392 . S
C1767 H1739 0.929 . S
C1767 C1764 1.391 . S
C1767 C1766 1.392 . S
N1768 Co1712 2.257 . S
N1768 C1765 1.391 . S
N1768 C1769 1.388 . S
C1769 H1740 0.930 . S
C1769 C1764 1.391 . S
C1769 N1768 1.388 . S
Co1770 O1772 2.143 . S
Co1770 O1778 2.074 . S
Co1770 O1781 2.093 . S
Co1770 O1794 2.097 . S
Co1770 N1811 2.151 . S
Co1770 N1819 2.214 . S
Co1771 O1772 2.160 . S
Co1771 O1777 2.058 . S
Co1771 O1787 2.057 . S
Co1771 O1802 2.037 . S
Co1771 N1806 2.145 . S
Co1771 N1827 2.257 . S
O1772 Co1770 2.143 . S
O1772 Co1771 2.160 . S
C1773 O1774 1.278 . S
C1773 O1781 1.224 . S
O1774 C1773 1.278 . S
C1775 O1776 1.245 . S
C1775 O1787 1.232 . S
O1776 C1775 1.245 . S
O1777 Co1771 2.058 . S
O1777 C1803 1.269 . S
O1778 Co1770 2.074 . S
O1778 C1803 1.257 . S
H1779 C1804 0.930 . S
H1780 C1810 0.930 . S
O1781 Co1770 2.093 . S
O1781 C1773 1.224 . S
H1782 C1814 0.929 . S
H1783 C1816 0.930 . S
H1784 C1817 0.930 . S
H1785 C1815 0.929 . S
H1786 C1818 0.928 . S
O1787 Co1771 2.057 . S
O1787 C1775 1.232 . S
H1788 C1807 0.929 . S
H1789 C1808 0.929 . S
H1790 C1820 0.931 . S
H1791 C1812 0.929 . S
H1792 C1821 0.930 . S
H1793 C1813 0.931 . S
O1794 Co1770 2.097 . S
O1794 C1822 1.214 . S
H1795 C1823 0.929 . S
H1796 C1824 0.929 . S
H1797 C1825 0.930 . S
H1798 C1826 0.929 . S
H1799 C1828 0.930 . S
H1800 C1805 0.930 . S
H1801 C1809 0.930 . S
O1802 Co1771 2.037 . S
O1802 C1822 1.234 . S
C1803 O1777 1.269 . S
C1803 O1778 1.257 . S
C1804 H1779 0.930 . S
C1804 C1807 1.388 . S
C1804 C1809 1.418 . S
C1805 H1800 0.930 . S
C1805 C1808 1.404 . S
C1805 C1809 1.353 . S
N1806 Co1771 2.145 . S
N1806 C1807 1.397 . S
N1806 C1808 1.334 . S
C1807 H1788 0.929 . S
C1807 C1804 1.388 . S
C1807 N1806 1.397 . S
C1808 H1789 0.929 . S
C1808 C1805 1.404 . S
C1808 N1806 1.334 . S
C1809 H1801 0.930 . S
C1809 C1804 1.418 . S
C1809 C1805 1.353 . S
C1810 H1780 0.930 . S
C1810 N1811 1.330 . S
C1810 C1812 1.446 . S
N1811 Co1770 2.151 . S
N1811 C1810 1.330 . S
N1811 C1815 1.418 . S
C1812 H1791 0.929 . S
C1812 C1810 1.446 . S
C1812 C1813 1.332 . S
C1813 H1793 0.931 . S
C1813 C1812 1.332 . S
C1813 C1814 1.267 . S
C1814 H1782 0.929 . S
C1814 C1813 1.267 . S
C1814 C1815 1.251 . S
C1815 H1785 0.929 . S
C1815 N1811 1.418 . S
C1815 C1814 1.251 . S
C1816 H1783 0.930 . S
C1816 C1818 1.406 . S
C1816 C1821 1.261 . S
C1817 H1784 0.930 . S
C1817 N1819 1.325 . S
C1817 C1820 1.357 . S
C1818 H1786 0.928 . S
C1818 C1816 1.406 . S
C1818 N1819 1.261 . S
N1819 Co1770 2.214 . S
N1819 C1817 1.325 . S
N1819 C1818 1.261 . S
C1820 H1790 0.931 . S
C1820 C1817 1.357 . S
C1820 C1821 1.312 . S
C1821 H1792 0.930 . S
C1821 C1816 1.261 . S
C1821 C1820 1.312 . S
C1822 O1794 1.214 . S
C1822 O1802 1.234 . S
C1823 H1795 0.929 . S
C1823 C1826 1.391 . S
C1823 C1828 1.391 . S
C1824 H1796 0.929 . S
C1824 C1825 1.390 . S
C1824 N1827 1.391 . S
C1825 H1797 0.930 . S
C1825 C1824 1.390 . S
C1825 C1826 1.392 . S
C1826 H1798 0.929 . S
C1826 C1823 1.391 . S
C1826 C1825 1.392 . S
N1827 Co1771 2.257 . S
N1827 C1824 1.391 . S
N1827 C1828 1.388 . S
C1828 H1799 0.930 . S
C1828 C1823 1.391 . S
C1828 N1827 1.388 . S
Co1829 O1831 2.143 . S
Co1829 O1837 2.074 . S
Co1829 O1840 2.093 . S
Co1829 O1853 2.097 . S
Co1829 N1870 2.151 . S
Co1829 N1878 2.214 . S
Co1830 O1831 2.160 . S
Co1830 O1836 2.058 . S
Co1830 O1846 2.057 . S
Co1830 O1861 2.037 . S
Co1830 N1865 2.145 . S
Co1830 N1886 2.257 . S
O1831 Co1829 2.143 . S
O1831 Co1830 2.160 . S
C1832 O1833 1.278 . S
C1832 O1840 1.224 . S
O1833 C1832 1.278 . S
C1834 O1835 1.245 . S
C1834 O1846 1.232 . S
O1835 C1834 1.245 . S
O1836 Co1830 2.058 . S
O1836 C1862 1.269 . S
O1837 Co1829 2.074 . S
O1837 C1862 1.257 . S
H1838 C1863 0.930 . S
H1839 C1869 0.930 . S
O1840 Co1829 2.093 . S
O1840 C1832 1.224 . S
H1841 C1873 0.929 . S
H1842 C1875 0.930 . S
H1843 C1876 0.930 . S
H1844 C1874 0.929 . S
H1845 C1877 0.928 . S
O1846 Co1830 2.057 . S
O1846 C1834 1.232 . S
H1847 C1866 0.929 . S
H1848 C1867 0.929 . S
H1849 C1879 0.931 . S
H1850 C1871 0.929 . S
H1851 C1880 0.930 . S
H1852 C1872 0.931 . S
O1853 Co1829 2.097 . S
O1853 C1881 1.214 . S
H1854 C1882 0.929 . S
H1855 C1883 0.929 . S
H1856 C1884 0.930 . S
H1857 C1885 0.929 . S
H1858 C1887 0.930 . S
H1859 C1864 0.930 . S
H1860 C1868 0.930 . S
O1861 Co1830 2.037 . S
O1861 C1881 1.234 . S
C1862 O1836 1.269 . S
C1862 O1837 1.257 . S
C1863 H1838 0.930 . S
C1863 C1866 1.388 . S
C1863 C1868 1.418 . S
C1864 H1859 0.930 . S
C1864 C1867 1.404 . S
C1864 C1868 1.353 . S
N1865 Co1830 2.145 . S
N1865 C1866 1.397 . S
N1865 C1867 1.334 . S
C1866 H1847 0.929 . S
C1866 C1863 1.388 . S
C1866 N1865 1.397 . S
C1867 H1848 0.929 . S
C1867 C1864 1.404 . S
C1867 N1865 1.334 . S
C1868 H1860 0.930 . S
C1868 C1863 1.418 . S
C1868 C1864 1.353 . S
C1869 H1839 0.930 . S
C1869 N1870 1.330 . S
C1869 C1871 1.446 . S
N1870 Co1829 2.151 . S
N1870 C1869 1.330 . S
N1870 C1874 1.418 . S
C1871 H1850 0.929 . S
C1871 C1869 1.446 . S
C1871 C1872 1.332 . S
C1872 H1852 0.931 . S
C1872 C1871 1.332 . S
C1872 C1873 1.267 . S
C1873 H1841 0.929 . S
C1873 C1872 1.267 . S
C1873 C1874 1.251 . S
C1874 H1844 0.929 . S
C1874 N1870 1.418 . S
C1874 C1873 1.251 . S
C1875 H1842 0.930 . S
C1875 C1877 1.406 . S
C1875 C1880 1.261 . S
C1876 H1843 0.930 . S
C1876 N1878 1.325 . S
C1876 C1879 1.357 . S
C1877 H1845 0.928 . S
C1877 C1875 1.406 . S
C1877 N1878 1.261 . S
N1878 Co1829 2.214 . S
N1878 C1876 1.325 . S
N1878 C1877 1.261 . S
C1879 H1849 0.931 . S
C1879 C1876 1.357 . S
C1879 C1880 1.312 . S
C1880 H1851 0.930 . S
C1880 C1875 1.261 . S
C1880 C1879 1.312 . S
C1881 O1853 1.214 . S
C1881 O1861 1.234 . S
C1882 H1854 0.929 . S
C1882 C1885 1.391 . S
C1882 C1887 1.391 . S
C1883 H1855 0.929 . S
C1883 C1884 1.390 . S
C1883 N1886 1.391 . S
C1884 H1856 0.930 . S
C1884 C1883 1.390 . S
C1884 C1885 1.392 . S
C1885 H1857 0.929 . S
C1885 C1882 1.391 . S
C1885 C1884 1.392 . S
N1886 Co1830 2.257 . S
N1886 C1883 1.391 . S
N1886 C1887 1.388 . S
C1887 H1858 0.930 . S
C1887 C1882 1.391 . S
C1887 N1886 1.388 . S
C1888 C1889 1.369 1_545 S
C1888 C1890 1.419 . S
C1888 H1892 0.930 . S
C1889 C1888 1.369 1_565 S
C1889 C1898 1.429 . S
C1890 C1888 1.419 . S
C1890 C1891 1.363 . S
C1890 H1893 0.929 . S
C1891 C1890 1.363 . S
C1891 C1897 1.428 1_545 S
H1892 C1888 0.930 . S
H1893 C1890 0.929 . S
S1894 N1895 1.613 . S
S1894 N1896 1.610 . S
N1895 S1894 1.613 . S
N1895 C1898 1.350 . S
N1896 S1894 1.610 . S
N1896 C1897 1.351 . S
C1897 C1891 1.428 1_565 S
C1897 N1896 1.351 . S
C1897 C1898 1.434 . S
C1898 C1889 1.429 . S
C1898 N1895 1.350 . S
C1898 C1897 1.434 . S
C1899 C1900 1.369 . S
C1899 C1901 1.419 . S
C1899 H1903 0.930 . S
C1900 C1899 1.369 . S
C1900 C1909 1.429 . S
C1901 C1899 1.419 . S
C1901 C1902 1.363 . S
C1901 H1904 0.929 . S
C1902 C1901 1.363 . S
C1902 C1908 1.428 . S
H1903 C1899 0.930 . S
H1904 C1901 0.929 . S
S1905 N1906 1.613 . S
S1905 N1907 1.610 . S
N1906 S1905 1.613 . S
N1906 C1909 1.350 . S
N1907 S1905 1.610 . S
N1907 C1908 1.351 . S
C1908 C1902 1.428 . S
C1908 N1907 1.351 . S
C1908 C1909 1.434 . S
C1909 C1900 1.429 . S
C1909 N1906 1.350 . S
C1909 C1908 1.434 . S
C1910 C1911 1.369 . S
C1910 C1912 1.419 . S
C1910 H1914 0.930 . S
C1911 C1910 1.369 . S
C1911 C1920 1.429 1_545 S
C1912 C1910 1.419 . S
C1912 C1913 1.363 1_545 S
C1912 H1915 0.929 . S
C1913 C1912 1.363 1_565 S
C1913 C1919 1.428 . S
H1914 C1910 0.930 . S
H1915 C1912 0.929 . S
S1916 N1917 1.613 1_655 S
S1916 N1918 1.610 1_655 S
N1917 S1916 1.613 1_455 S
N1917 C1920 1.350 . S
N1918 S1916 1.610 1_455 S
N1918 C1919 1.351 . S
C1919 C1913 1.428 . S
C1919 N1918 1.351 . S
C1919 C1920 1.434 . S
C1920 C1911 1.429 1_565 S
C1920 N1917 1.350 . S
C1920 C1919 1.434 . S
C1921 C1922 1.369 . S
C1921 C1923 1.419 1_556 S
C1921 H1925 0.930 . S
C1922 C1921 1.369 . S
C1922 C1931 1.429 . S
C1923 C1921 1.419 1_554 S
C1923 C1924 1.363 . S
C1923 H1926 0.929 . S
C1924 C1923 1.363 . S
C1924 C1930 1.428 . S
H1925 C1921 0.930 . S
H1926 C1923 0.929 . S
S1927 N1928 1.613 1_554 S
S1927 N1929 1.610 . S
N1928 S1927 1.613 1_556 S
N1928 C1931 1.350 . S
N1929 S1927 1.610 . S
N1929 C1930 1.351 . S
C1930 C1924 1.428 . S
C1930 N1929 1.351 . S
C1930 C1931 1.434 1_554 S
C1931 C1922 1.429 . S
C1931 N1928 1.350 . S
C1931 C1930 1.434 1_556 S
C1932 C1933 1.369 1_545 S
C1932 C1934 1.419 . S
C1932 H1936 0.930 . S
C1933 C1932 1.369 1_565 S
C1933 C1942 1.429 . S
C1934 C1932 1.419 . S
C1934 C1935 1.363 . S
C1934 H1937 0.929 . S
C1935 C1934 1.363 . S
C1935 C1941 1.428 1_545 S
H1936 C1932 0.930 . S
H1937 C1934 0.929 . S
S1938 N1939 1.613 . S
S1938 N1940 1.610 . S
N1939 S1938 1.613 . S
N1939 C1942 1.350 . S
N1940 S1938 1.610 . S
N1940 C1941 1.351 . S
C1941 C1935 1.428 1_565 S
C1941 N1940 1.351 . S
C1941 C1942 1.434 . S
C1942 C1933 1.429 . S
C1942 N1939 1.350 . S
C1942 C1941 1.434 . S
C1943 C1944 1.369 . S
C1943 C1945 1.419 . S
C1943 H1947 0.930 . S
C1944 C1943 1.369 . S
C1944 C1953 1.429 . S
C1945 C1943 1.419 . S
C1945 C1946 1.363 . S
C1945 H1948 0.929 . S
C1946 C1945 1.363 . S
C1946 C1952 1.428 . S
H1947 C1943 0.930 . S
H1948 C1945 0.929 . S
S1949 N1950 1.613 . S
S1949 N1951 1.610 . S
N1950 S1949 1.613 . S
N1950 C1953 1.350 . S
N1951 S1949 1.610 . S
N1951 C1952 1.351 . S
C1952 C1946 1.428 . S
C1952 N1951 1.351 . S
C1952 C1953 1.434 . S
C1953 C1944 1.429 . S
C1953 N1950 1.350 . S
C1953 C1952 1.434 . S
C1954 C1955 1.369 . S
C1954 C1956 1.419 . S
C1954 H1958 0.930 . S
C1955 C1954 1.369 . S
C1955 C1964 1.429 1_545 S
C1956 C1954 1.419 . S
C1956 C1957 1.363 1_545 S
C1956 H1959 0.929 . S
C1957 C1956 1.363 1_565 S
C1957 C1963 1.428 . S
H1958 C1954 0.930 . S
H1959 C1956 0.929 . S
S1960 N1961 1.613 . S
S1960 N1962 1.610 . S
N1961 S1960 1.613 . S
N1961 C1964 1.350 . S
N1962 S1960 1.610 . S
N1962 C1963 1.351 . S
C1963 C1957 1.428 . S
C1963 N1962 1.351 . S
C1963 C1964 1.434 . S
C1964 C1955 1.429 1_565 S
C1964 N1961 1.350 . S
C1964 C1963 1.434 . S
C1965 C1966 1.369 . S
C1965 C1967 1.419 1_556 S
C1965 H1969 0.930 . S
C1966 C1965 1.369 . S
C1966 C1975 1.429 . S
C1967 C1965 1.419 1_554 S
C1967 C1968 1.363 . S
C1967 H1970 0.929 . S
C1968 C1967 1.363 . S
C1968 C1974 1.428 . S
H1969 C1965 0.930 . S
H1970 C1967 0.929 . S
S1971 N1972 1.613 1_554 S
S1971 N1973 1.610 . S
N1972 S1971 1.613 1_556 S
N1972 C1975 1.350 . S
N1973 S1971 1.610 . S
N1973 C1974 1.351 . S
C1974 C1968 1.428 . S
C1974 N1973 1.351 . S
C1974 C1975 1.434 1_554 S
C1975 C1966 1.429 . S
C1975 N1972 1.350 . S
C1975 C1974 1.434 1_556 S
C1976 C1977 1.369 . S
C1976 C1978 1.419 . S
C1976 H1980 0.930 . S
C1977 C1976 1.369 . S
C1977 C1986 1.429 . S
C1978 C1976 1.419 . S
C1978 C1979 1.363 . S
C1978 H1981 0.929 . S
C1979 C1978 1.363 . S
C1979 C1985 1.428 . S
H1980 C1976 0.930 . S
H1981 C1978 0.929 . S
S1982 N1983 1.613 . S
S1982 N1984 1.610 . S
N1983 S1982 1.613 . S
N1983 C1986 1.350 . S
N1984 S1982 1.610 . S
N1984 C1985 1.351 . S
C1985 C1979 1.428 . S
C1985 N1984 1.351 . S
C1985 C1986 1.434 . S
C1986 C1977 1.429 . S
C1986 N1983 1.350 . S
C1986 C1985 1.434 . S
C1987 C1988 1.369 . S
C1987 C1989 1.419 1_554 S
C1987 H1991 0.930 . S
C1988 C1987 1.369 . S
C1988 C1997 1.429 . S
C1989 C1987 1.419 1_556 S
C1989 C1990 1.363 . S
C1989 H1992 0.929 . S
C1990 C1989 1.363 . S
C1990 C1996 1.428 . S
H1991 C1987 0.930 . S
H1992 C1989 0.929 . S
S1993 N1994 1.613 . S
S1993 N1995 1.610 1_554 S
N1994 S1993 1.613 . S
N1994 C1997 1.350 . S
N1995 S1993 1.610 1_556 S
N1995 C1996 1.351 . S
C1996 C1990 1.428 . S
C1996 N1995 1.351 . S
C1996 C1997 1.434 1_556 S
C1997 C1988 1.429 . S
C1997 N1994 1.350 . S
C1997 C1996 1.434 1_554 S
C1998 C1999 1.369 . S
C1998 C2000 1.419 . S
C1998 H2002 0.930 . S
C1999 C1998 1.369 . S
C1999 C2008 1.429 . S
C2000 C1998 1.419 . S
C2000 C2001 1.363 . S
C2000 H2003 0.929 . S
C2001 C2000 1.363 . S
C2001 C2007 1.428 . S
H2002 C1998 0.930 . S
H2003 C2000 0.929 . S
S2004 N2005 1.613 . S
S2004 N2006 1.610 . S
N2005 S2004 1.613 . S
N2005 C2008 1.350 . S
N2006 S2004 1.610 . S
N2006 C2007 1.351 . S
C2007 C2001 1.428 . S
C2007 N2006 1.351 . S
C2007 C2008 1.434 . S
C2008 C1999 1.429 . S
C2008 N2005 1.350 . S
C2008 C2007 1.434 . S
C2009 C2010 1.369 . S
C2009 C2011 1.419 . S
C2009 H2013 0.930 . S
C2010 C2009 1.369 . S
C2010 C2019 1.429 . S
C2011 C2009 1.419 . S
C2011 C2012 1.363 . S
C2011 H2014 0.929 . S
C2012 C2011 1.363 . S
C2012 C2018 1.428 . S
H2013 C2009 0.930 . S
H2014 C2011 0.929 . S
S2015 N2016 1.613 . S
S2015 N2017 1.610 . S
N2016 S2015 1.613 . S
N2016 C2019 1.350 . S
N2017 S2015 1.610 . S
N2017 C2018 1.351 . S
C2018 C2012 1.428 . S
C2018 N2017 1.351 . S
C2018 C2019 1.434 . S
C2019 C2010 1.429 . S
C2019 N2016 1.350 . S
C2019 C2018 1.434 . S
C2020 C2021 1.369 . S
C2020 C2022 1.419 . S
C2020 H2024 0.913 1_455 S
C2021 C2020 1.369 . S
C2021 C2030 1.429 . S
C2022 C2020 1.419 . S
C2022 C2023 1.363 . S
C2022 H2025 0.929 1_455 S
C2023 C2022 1.363 . S
C2023 C2029 1.428 . S
H2024 C2020 0.913 1_655 S
H2025 C2022 0.929 1_655 S
S2026 N2027 1.613 . S
S2026 N2028 1.610 . S
N2027 S2026 1.613 . S
N2027 C2030 1.350 . S
N2028 S2026 1.610 . S
N2028 C2029 1.351 . S
C2029 C2023 1.428 . S
C2029 N2028 1.351 . S
C2029 C2030 1.434 . S
C2030 C2021 1.429 . S
C2030 N2027 1.350 . S
C2030 C2029 1.434 . S
C2031 C2032 1.369 . S
C2031 C2033 1.419 1_554 S
C2031 H2035 0.930 . S
C2032 C2031 1.369 . S
C2032 C2041 1.429 . S
C2033 C2031 1.419 1_556 S
C2033 C2034 1.363 . S
C2033 H2036 0.929 . S
C2034 C2033 1.363 . S
C2034 C2040 1.428 . S
H2035 C2031 0.930 . S
H2036 C2033 0.929 . S
S2037 N2038 1.613 . S
S2037 N2039 1.610 1_554 S
N2038 S2037 1.613 . S
N2038 C2041 1.350 . S
N2039 S2037 1.610 1_556 S
N2039 C2040 1.351 . S
C2040 C2034 1.428 . S
C2040 N2039 1.351 . S
C2040 C2041 1.434 1_556 S
C2041 C2032 1.429 . S
C2041 N2038 1.350 . S
C2041 C2040 1.434 1_554 S
C2042 C2043 1.369 . S
C2042 C2044 1.419 . S
C2042 H2046 0.930 . S
C2043 C2042 1.369 . S
C2043 C2052 1.429 . S
C2044 C2042 1.419 . S
C2044 C2045 1.363 . S
C2044 H2047 0.929 . S
C2045 C2044 1.363 . S
C2045 C2051 1.428 . S
H2046 C2042 0.930 . S
H2047 C2044 0.929 . S
S2048 N2049 1.613 . S
S2048 N2050 1.610 . S
N2049 S2048 1.613 . S
N2049 C2052 1.350 . S
N2050 S2048 1.610 . S
N2050 C2051 1.351 . S
C2051 C2045 1.428 . S
C2051 N2050 1.351 . S
C2051 C2052 1.434 . S
C2052 C2043 1.429 . S
C2052 N2049 1.350 . S
C2052 C2051 1.434 . S
C2053 C2054 1.369 . S
C2053 C2055 1.419 . S
C2053 H2057 0.930 . S
C2054 C2053 1.369 . S
C2054 C2063 1.429 . S
C2055 C2053 1.419 . S
C2055 C2056 1.363 . S
C2055 H2058 0.929 . S
C2056 C2055 1.363 . S
C2056 C2062 1.428 . S
H2057 C2053 0.930 . S
H2058 C2055 0.929 . S
S2059 N2060 1.613 . S
S2059 N2061 1.610 . S
N2060 S2059 1.613 . S
N2060 C2063 1.350 . S
N2061 S2059 1.610 . S
N2061 C2062 1.351 . S
C2062 C2056 1.428 . S
C2062 N2061 1.351 . S
C2062 C2063 1.434 . S
C2063 C2054 1.429 . S
C2063 N2060 1.350 . S
C2063 C2062 1.434 . S
C2064 C2065 1.369 . S
C2064 C2066 1.419 . S
C2064 H2068 0.930 . S
C2065 C2064 1.369 . S
C2065 C2074 1.429 . S
C2066 C2064 1.419 . S
C2066 C2067 1.363 . S
C2066 H2069 0.929 . S
C2067 C2066 1.363 . S
C2067 C2073 1.428 . S
H2068 C2064 0.930 . S
H2069 C2066 0.929 . S
S2070 N2071 1.613 . S
S2070 N2072 1.610 . S
N2071 S2070 1.613 . S
N2071 C2074 1.350 . S
N2072 S2070 1.610 . S
N2072 C2073 1.351 . S
C2073 C2067 1.428 . S
C2073 N2072 1.351 . S
C2073 C2074 1.434 . S
C2074 C2065 1.429 . S
C2074 N2071 1.350 . S
C2074 C2073 1.434 . S
C2075 C2076 1.369 . S
C2075 C2077 1.419 . S
C2075 H2079 0.930 . S
C2076 C2075 1.369 . S
C2076 C2085 1.429 . S
C2077 C2075 1.419 . S
C2077 C2078 1.363 . S
C2077 H2080 0.929 . S
C2078 C2077 1.363 . S
C2078 C2084 1.428 . S
H2079 C2075 0.930 . S
H2080 C2077 0.929 . S
S2081 N2082 1.613 . S
S2081 N2083 1.610 . S
N2082 S2081 1.613 . S
N2082 C2085 1.350 . S
N2083 S2081 1.610 . S
N2083 C2084 1.351 . S
C2084 C2078 1.428 . S
C2084 N2083 1.351 . S
C2084 C2085 1.434 . S
C2085 C2076 1.429 . S
C2085 N2082 1.350 . S
C2085 C2084 1.434 . S
C2086 C2087 1.369 . S
C2086 C2088 1.419 . S
C2086 H2090 0.930 . S
C2087 C2086 1.369 . S
C2087 C2096 1.429 . S
C2088 C2086 1.419 . S
C2088 C2089 1.363 . S
C2088 H2091 0.929 . S
C2089 C2088 1.363 . S
C2089 C2095 1.428 . S
H2090 C2086 0.930 . S
H2091 C2088 0.929 . S
S2092 N2093 1.613 . S
S2092 N2094 1.610 . S
N2093 S2092 1.613 . S
N2093 C2096 1.350 . S
N2094 S2092 1.610 . S
N2094 C2095 1.351 . S
C2095 C2089 1.428 . S
C2095 N2094 1.351 . S
C2095 C2096 1.434 . S
C2096 C2087 1.429 . S
C2096 N2093 1.350 . S
C2096 C2095 1.434 . S
C2097 C2098 1.369 . S
C2097 C2099 1.419 . S
C2097 H2101 0.930 . S
C2098 C2097 1.369 . S
C2098 C2107 1.429 . S
C2099 C2097 1.419 . S
C2099 C2100 1.363 . S
C2099 H2102 0.929 . S
C2100 C2099 1.363 . S
C2100 C2106 1.428 . S
H2101 C2097 0.930 . S
H2102 C2099 0.929 . S
S2103 N2104 1.613 . S
S2103 N2105 1.610 . S
N2104 S2103 1.613 . S
N2104 C2107 1.350 . S
N2105 S2103 1.610 . S
N2105 C2106 1.351 . S
C2106 C2100 1.428 . S
C2106 N2105 1.351 . S
C2106 C2107 1.434 . S
C2107 C2098 1.429 . S
C2107 N2104 1.350 . S
C2107 C2106 1.434 . S
C2108 C2109 1.369 . S
C2108 C2110 1.419 . S
C2108 H2112 0.930 . S
C2109 C2108 1.369 . S
C2109 C2118 1.429 . S
C2110 C2108 1.419 . S
C2110 C2111 1.363 . S
C2110 H2113 0.929 . S
C2111 C2110 1.363 . S
C2111 C2117 1.428 . S
H2112 C2108 0.930 . S
H2113 C2110 0.929 . S
S2114 N2115 1.613 . S
S2114 N2116 1.610 . S
N2115 S2114 1.613 . S
N2115 C2118 1.350 . S
N2116 S2114 1.610 . S
N2116 C2117 1.351 . S
C2117 C2111 1.428 . S
C2117 N2116 1.351 . S
C2117 C2118 1.434 . S
C2118 C2109 1.429 . S
C2118 N2115 1.350 . S
C2118 C2117 1.434 . S
C2119 C2120 1.369 . S
C2119 C2121 1.419 . S
C2119 H2123 0.930 . S
C2120 C2119 1.369 . S
C2120 C2129 1.429 . S
C2121 C2119 1.419 . S
C2121 C2122 1.363 . S
C2121 H2124 0.929 . S
C2122 C2121 1.363 . S
C2122 C2128 1.428 . S
H2123 C2119 0.930 . S
H2124 C2121 0.929 . S
S2125 N2126 1.613 . S
S2125 N2127 1.610 . S
N2126 S2125 1.613 . S
N2126 C2129 1.350 . S
N2127 S2125 1.610 . S
N2127 C2128 1.351 . S
C2128 C2122 1.428 . S
C2128 N2127 1.351 . S
C2128 C2129 1.434 . S
C2129 C2120 1.429 . S
C2129 N2126 1.350 . S
C2129 C2128 1.434 . S
C2130 C2131 1.369 . S
C2130 C2132 1.419 . S
C2130 H2134 0.930 . S
C2131 C2130 1.369 . S
C2131 C2140 1.429 . S
C2132 C2130 1.419 . S
C2132 C2133 1.363 . S
C2132 H2135 0.929 . S
C2133 C2132 1.363 . S
C2133 C2139 1.428 . S
H2134 C2130 0.930 . S
H2135 C2132 0.929 . S
S2136 N2137 1.613 . S
S2136 N2138 1.610 . S
N2137 S2136 1.613 . S
N2137 C2140 1.350 . S
N2138 S2136 1.610 . S
N2138 C2139 1.351 . S
C2139 C2133 1.428 . S
C2139 N2138 1.351 . S
C2139 C2140 1.434 . S
C2140 C2131 1.429 . S
C2140 N2137 1.350 . S
C2140 C2139 1.434 . S
C2141 C2142 1.369 . S
C2141 C2143 1.419 . S
C2141 H2145 0.930 . S
C2142 C2141 1.369 . S
C2142 C2151 1.429 . S
C2143 C2141 1.419 . S
C2143 C2144 1.363 . S
C2143 H2146 0.929 . S
C2144 C2143 1.363 . S
C2144 C2150 1.428 . S
H2145 C2141 0.930 . S
H2146 C2143 0.929 . S
S2147 N2148 1.613 . S
S2147 N2149 1.610 . S
N2148 S2147 1.613 . S
N2148 C2151 1.350 . S
N2149 S2147 1.610 . S
N2149 C2150 1.351 . S
C2150 C2144 1.428 . S
C2150 N2149 1.351 . S
C2150 C2151 1.434 . S
C2151 C2142 1.429 . S
C2151 N2148 1.350 . S
C2151 C2150 1.434 . S
C2152 C2153 1.369 . S
C2152 C2154 1.419 . S
C2152 H2156 0.930 . S
C2153 C2152 1.369 . S
C2153 C2162 1.429 . S
C2154 C2152 1.419 . S
C2154 C2155 1.363 . S
C2154 H2157 0.929 . S
C2155 C2154 1.363 . S
C2155 C2161 1.428 . S
H2156 C2152 0.930 . S
H2157 C2154 0.929 . S
S2158 N2159 1.613 . S
S2158 N2160 1.610 . S
N2159 S2158 1.613 . S
N2159 C2162 1.350 . S
N2160 S2158 1.610 . S
N2160 C2161 1.351 . S
C2161 C2155 1.428 . S
C2161 N2160 1.351 . S
C2161 C2162 1.434 . S
C2162 C2153 1.429 . S
C2162 N2159 1.350 . S
C2162 C2161 1.434 . S
C2163 C2164 1.369 . S
C2163 C2165 1.419 . S
C2163 H2167 0.930 . S
C2164 C2163 1.369 . S
C2164 C2173 1.429 . S
C2165 C2163 1.419 . S
C2165 C2166 1.363 . S
C2165 H2168 0.929 . S
C2166 C2165 1.363 . S
C2166 C2172 1.428 . S
H2167 C2163 0.930 . S
H2168 C2165 0.929 . S
S2169 N2170 1.613 . S
S2169 N2171 1.610 . S
N2170 S2169 1.613 . S
N2170 C2173 1.350 . S
N2171 S2169 1.610 . S
N2171 C2172 1.351 . S
C2172 C2166 1.428 . S
C2172 N2171 1.351 . S
C2172 C2173 1.434 . S
C2173 C2164 1.429 . S
C2173 N2170 1.350 . S
C2173 C2172 1.434 . S
C2174 C2175 1.369 . S
C2174 C2176 1.419 . S
C2174 H2178 0.930 . S
C2175 C2174 1.369 . S
C2175 C2184 1.429 . S
C2176 C2174 1.419 . S
C2176 C2177 1.363 . S
C2176 H2179 0.929 . S
C2177 C2176 1.363 . S
C2177 C2183 1.428 . S
H2178 C2174 0.930 . S
H2179 C2176 0.929 . S
S2180 N2181 1.613 . S
S2180 N2182 1.610 . S
N2181 S2180 1.613 . S
N2181 C2184 1.350 . S
N2182 S2180 1.610 . S
N2182 C2183 1.351 . S
C2183 C2177 1.428 . S
C2183 N2182 1.351 . S
C2183 C2184 1.434 . S
C2184 C2175 1.429 . S
C2184 N2181 1.350 . S
C2184 C2183 1.434 . S
C2185 C2186 1.369 . S
C2185 C2187 1.419 . S
C2185 H2189 0.930 . S
C2186 C2185 1.369 . S
C2186 C2195 1.429 . S
C2187 C2185 1.419 . S
C2187 C2188 1.363 . S
C2187 H2190 0.929 . S
C2188 C2187 1.363 . S
C2188 C2194 1.428 . S
H2189 C2185 0.930 . S
H2190 C2187 0.929 . S
S2191 N2192 1.613 . S
S2191 N2193 1.610 . S
N2192 S2191 1.613 . S
N2192 C2195 1.350 . S
N2193 S2191 1.610 . S
N2193 C2194 1.351 . S
C2194 C2188 1.428 . S
C2194 N2193 1.351 . S
C2194 C2195 1.434 . S
C2195 C2186 1.429 . S
C2195 N2192 1.350 . S
C2195 C2194 1.434 . S
C2196 C2197 1.369 . S
C2196 C2198 1.419 . S
C2196 H2200 0.930 . S
C2197 C2196 1.369 . S
C2197 C2206 1.429 . S
C2198 C2196 1.419 . S
C2198 C2199 1.363 . S
C2198 H2201 0.929 . S
C2199 C2198 1.363 . S
C2199 C2205 1.428 . S
H2200 C2196 0.930 . S
H2201 C2198 0.929 . S
S2202 N2203 1.613 . S
S2202 N2204 1.610 . S
N2203 S2202 1.613 . S
N2203 C2206 1.350 . S
N2204 S2202 1.610 . S
N2204 C2205 1.351 . S
C2205 C2199 1.428 . S
C2205 N2204 1.351 . S
C2205 C2206 1.434 . S
C2206 C2197 1.429 . S
C2206 N2203 1.350 . S
C2206 C2205 1.434 . S
C2207 C2208 1.369 . S
C2207 C2209 1.419 . S
C2207 H2211 0.930 . S
C2208 C2207 1.369 . S
C2208 C2217 1.429 . S
C2209 C2207 1.419 . S
C2209 C2210 1.363 . S
C2209 H2212 0.929 . S
C2210 C2209 1.363 . S
C2210 C2216 1.428 . S
H2211 C2207 0.930 . S
H2212 C2209 0.929 . S
S2213 N2214 1.613 . S
S2213 N2215 1.610 . S
N2214 S2213 1.613 . S
N2214 C2217 1.350 . S
N2215 S2213 1.610 . S
N2215 C2216 1.351 . S
C2216 C2210 1.428 . S
C2216 N2215 1.351 . S
C2216 C2217 1.434 . S
C2217 C2208 1.429 . S
C2217 N2214 1.350 . S
C2217 C2216 1.434 . S
C2218 C2219 1.369 . S
C2218 C2220 1.419 . S
C2218 H2222 0.930 . S
C2219 C2218 1.369 . S
C2219 C2228 1.429 . S
C2220 C2218 1.419 . S
C2220 C2221 1.363 . S
C2220 H2223 0.929 . S
C2221 C2220 1.363 . S
C2221 C2227 1.428 . S
H2222 C2218 0.930 . S
H2223 C2220 0.929 . S
S2224 N2225 1.613 . S
S2224 N2226 1.610 . S
N2225 S2224 1.613 . S
N2225 C2228 1.350 . S
N2226 S2224 1.610 . S
N2226 C2227 1.351 . S
C2227 C2221 1.428 . S
C2227 N2226 1.351 . S
C2227 C2228 1.434 . S
C2228 C2219 1.429 . S
C2228 N2225 1.350 . S
C2228 C2227 1.434 . S
C2229 C2230 1.369 . S
C2229 C2231 1.419 . S
C2229 H2233 0.930 . S
C2230 C2229 1.369 . S
C2230 C2239 1.429 . S
C2231 C2229 1.419 . S
C2231 C2232 1.363 . S
C2231 H2234 0.929 . S
C2232 C2231 1.363 . S
C2232 C2238 1.428 . S
H2233 C2229 0.930 . S
H2234 C2231 0.929 . S
S2235 N2236 1.613 . S
S2235 N2237 1.610 . S
N2236 S2235 1.613 . S
N2236 C2239 1.350 . S
N2237 S2235 1.610 . S
N2237 C2238 1.351 . S
C2238 C2232 1.428 . S
C2238 N2237 1.351 . S
C2238 C2239 1.434 . S
C2239 C2230 1.429 . S
C2239 N2236 1.350 . S
C2239 C2238 1.434 . S
C2240 C2241 1.369 . S
C2240 C2242 1.419 . S
C2240 H2244 0.930 . S
C2241 C2240 1.369 . S
C2241 C2250 1.429 . S
C2242 C2240 1.419 . S
C2242 C2243 1.363 . S
C2242 H2245 0.929 . S
C2243 C2242 1.363 . S
C2243 C2249 1.428 . S
H2244 C2240 0.930 . S
H2245 C2242 0.929 . S
S2246 N2247 1.613 . S
S2246 N2248 1.610 . S
N2247 S2246 1.613 . S
N2247 C2250 1.350 . S
N2248 S2246 1.610 . S
N2248 C2249 1.351 . S
C2249 C2243 1.428 . S
C2249 N2248 1.351 . S
C2249 C2250 1.434 . S
C2250 C2241 1.429 . S
C2250 N2247 1.350 . S
C2250 C2249 1.434 . S
C2251 C2252 1.369 . S
C2251 C2253 1.419 . S
C2251 H2255 0.930 . S
C2252 C2251 1.369 . S
C2252 C2261 1.429 . S
C2253 C2251 1.419 . S
C2253 C2254 1.363 . S
C2253 H2256 0.929 . S
C2254 C2253 1.363 . S
C2254 C2260 1.428 . S
H2255 C2251 0.930 . S
H2256 C2253 0.929 . S
S2257 N2258 1.613 . S
S2257 N2259 1.610 . S
N2258 S2257 1.613 . S
N2258 C2261 1.350 . S
N2259 S2257 1.610 . S
N2259 C2260 1.351 . S
C2260 C2254 1.428 . S
C2260 N2259 1.351 . S
C2260 C2261 1.434 . S
C2261 C2252 1.429 . S
C2261 N2258 1.350 . S
C2261 C2260 1.434 . S
C2262 C2263 1.369 . S
C2262 C2264 1.419 . S
C2262 H2266 0.930 . S
C2263 C2262 1.369 . S
C2263 C2272 1.429 . S
C2264 C2262 1.419 . S
C2264 C2265 1.363 . S
C2264 H2267 0.929 . S
C2265 C2264 1.363 . S
C2265 C2271 1.428 . S
H2266 C2262 0.930 . S
H2267 C2264 0.929 . S
S2268 N2269 1.613 . S
S2268 N2270 1.610 . S
N2269 S2268 1.613 . S
N2269 C2272 1.350 . S
N2270 S2268 1.610 . S
N2270 C2271 1.351 . S
C2271 C2265 1.428 . S
C2271 N2270 1.351 . S
C2271 C2272 1.434 . S
C2272 C2263 1.429 . S
C2272 N2269 1.350 . S
C2272 C2271 1.434 . S
C2273 C2274 1.369 . S
C2273 C2275 1.419 . S
C2273 H2277 0.930 . S
C2274 C2273 1.369 . S
C2274 C2283 1.429 . S
C2275 C2273 1.419 . S
C2275 C2276 1.363 . S
C2275 H2278 0.929 . S
C2276 C2275 1.363 . S
C2276 C2282 1.428 . S
H2277 C2273 0.930 . S
H2278 C2275 0.929 . S
S2279 N2280 1.613 . S
S2279 N2281 1.610 . S
N2280 S2279 1.613 . S
N2280 C2283 1.350 . S
N2281 S2279 1.610 . S
N2281 C2282 1.351 . S
C2282 C2276 1.428 . S
C2282 N2281 1.351 . S
C2282 C2283 1.434 . S
C2283 C2274 1.429 . S
C2283 N2280 1.350 . S
C2283 C2282 1.434 . S
C2284 C2285 1.369 . S
C2284 C2286 1.419 . S
C2284 H2288 0.930 . S
C2285 C2284 1.369 . S
C2285 C2294 1.429 . S
C2286 C2284 1.419 . S
C2286 C2287 1.363 . S
C2286 H2289 0.929 . S
C2287 C2286 1.363 . S
C2287 C2293 1.428 . S
H2288 C2284 0.930 . S
H2289 C2286 0.929 . S
S2290 N2291 1.613 . S
S2290 N2292 1.610 . S
N2291 S2290 1.613 . S
N2291 C2294 1.350 . S
N2292 S2290 1.610 . S
N2292 C2293 1.351 . S
C2293 C2287 1.428 . S
C2293 N2292 1.351 . S
C2293 C2294 1.434 . S
C2294 C2285 1.429 . S
C2294 N2291 1.350 . S
C2294 C2293 1.434 . S
C2295 C2296 1.369 . S
C2295 C2297 1.419 . S
C2295 H2299 0.930 . S
C2296 C2295 1.369 . S
C2296 C2305 1.429 . S
C2297 C2295 1.419 . S
C2297 C2298 1.363 . S
C2297 H2300 0.929 . S
C2298 C2297 1.363 . S
C2298 C2304 1.428 . S
H2299 C2295 0.930 . S
H2300 C2297 0.929 . S
S2301 N2302 1.613 . S
S2301 N2303 1.610 . S
N2302 S2301 1.613 . S
N2302 C2305 1.350 . S
N2303 S2301 1.610 . S
N2303 C2304 1.351 . S
C2304 C2298 1.428 . S
C2304 N2303 1.351 . S
C2304 C2305 1.434 . S
C2305 C2296 1.429 . S
C2305 N2302 1.350 . S
C2305 C2304 1.434 . S
C2306 C2307 1.369 . S
C2306 C2308 1.419 . S
C2306 H2310 0.930 . S
C2307 C2306 1.369 . S
C2307 C2316 1.429 . S
C2308 C2306 1.419 . S
C2308 C2309 1.363 . S
C2308 H2311 0.929 . S
C2309 C2308 1.363 . S
C2309 C2315 1.428 . S
H2310 C2306 0.930 . S
H2311 C2308 0.929 . S
S2312 N2313 1.613 . S
S2312 N2314 1.610 . S
N2313 S2312 1.613 . S
N2313 C2316 1.350 . S
N2314 S2312 1.610 . S
N2314 C2315 1.351 . S
C2315 C2309 1.428 . S
C2315 N2314 1.351 . S
C2315 C2316 1.434 . S
C2316 C2307 1.429 . S
C2316 N2313 1.350 . S
C2316 C2315 1.434 . S
C2317 C2318 1.369 . S
C2317 C2319 1.419 . S
C2317 H2321 0.930 . S
C2318 C2317 1.369 . S
C2318 C2327 1.429 . S
C2319 C2317 1.419 . S
C2319 C2320 1.363 . S
C2319 H2322 0.929 . S
C2320 C2319 1.363 . S
C2320 C2326 1.428 . S
H2321 C2317 0.930 . S
H2322 C2319 0.929 . S
S2323 N2324 1.613 . S
S2323 N2325 1.610 . S
N2324 S2323 1.613 . S
N2324 C2327 1.350 . S
N2325 S2323 1.610 . S
N2325 C2326 1.351 . S
C2326 C2320 1.428 . S
C2326 N2325 1.351 . S
C2326 C2327 1.434 . S
C2327 C2318 1.429 . S
C2327 N2324 1.350 . S
C2327 C2326 1.434 . S
C2328 C2329 1.369 . S
C2328 C2330 1.419 . S
C2328 H2332 0.930 . S
C2329 C2328 1.369 . S
C2329 C2338 1.429 . S
C2330 C2328 1.419 . S
C2330 C2331 1.363 . S
C2330 H2333 0.929 . S
C2331 C2330 1.363 . S
C2331 C2337 1.428 . S
H2332 C2328 0.930 . S
H2333 C2330 0.929 . S
S2334 N2335 1.613 . S
S2334 N2336 1.610 . S
N2335 S2334 1.613 . S
N2335 C2338 1.350 . S
N2336 S2334 1.610 . S
N2336 C2337 1.351 . S
C2337 C2331 1.428 . S
C2337 N2336 1.351 . S
C2337 C2338 1.434 . S
C2338 C2329 1.429 . S
C2338 N2335 1.350 . S
C2338 C2337 1.434 . S
C2339 C2340 1.369 . S
C2339 C2341 1.419 . S
C2339 H2343 0.930 . S
C2340 C2339 1.369 . S
C2340 C2349 1.429 . S
C2341 C2339 1.419 . S
C2341 C2342 1.363 . S
C2341 H2344 0.929 . S
C2342 C2341 1.363 . S
C2342 C2348 1.428 . S
H2343 C2339 0.930 . S
H2344 C2341 0.929 . S
S2345 N2346 1.613 . S
S2345 N2347 1.610 . S
N2346 S2345 1.613 . S
N2346 C2349 1.350 . S
N2347 S2345 1.610 . S
N2347 C2348 1.351 . S
C2348 C2342 1.428 . S
C2348 N2347 1.351 . S
C2348 C2349 1.434 . S
C2349 C2340 1.429 . S
C2349 N2346 1.350 . S
C2349 C2348 1.434 . S
C2350 C2351 1.369 . S
C2350 C2352 1.419 . S
C2350 H2354 0.930 . S
C2351 C2350 1.369 . S
C2351 C2360 1.429 . S
C2352 C2350 1.419 . S
C2352 C2353 1.363 . S
C2352 H2355 0.929 . S
C2353 C2352 1.363 . S
C2353 C2359 1.428 . S
H2354 C2350 0.930 . S
H2355 C2352 0.929 . S
S2356 N2357 1.613 . S
S2356 N2358 1.610 . S
N2357 S2356 1.613 . S
N2357 C2360 1.350 . S
N2358 S2356 1.610 . S
N2358 C2359 1.351 . S
C2359 C2353 1.428 . S
C2359 N2358 1.351 . S
C2359 C2360 1.434 . S
C2360 C2351 1.429 . S
C2360 N2357 1.350 . S
C2360 C2359 1.434 . S
C2361 C2362 1.369 . S
C2361 C2363 1.419 . S
C2361 H2365 0.930 . S
C2362 C2361 1.369 . S
C2362 C2371 1.429 . S
C2363 C2361 1.419 . S
C2363 C2364 1.363 . S
C2363 H2366 0.929 . S
C2364 C2363 1.363 . S
C2364 C2370 1.428 . S
H2365 C2361 0.930 . S
H2366 C2363 0.929 . S
S2367 N2368 1.613 . S
S2367 N2369 1.610 . S
N2368 S2367 1.613 . S
N2368 C2371 1.350 . S
N2369 S2367 1.610 . S
N2369 C2370 1.351 . S
C2370 C2364 1.428 . S
C2370 N2369 1.351 . S
C2370 C2371 1.434 . S
C2371 C2362 1.429 . S
C2371 N2368 1.350 . S
C2371 C2370 1.434 . S
C2372 C2373 1.369 . S
C2372 C2374 1.419 . S
C2372 H2376 0.930 . S
C2373 C2372 1.369 . S
C2373 C2382 1.429 . S
C2374 C2372 1.419 . S
C2374 C2375 1.363 . S
C2374 H2377 0.929 . S
C2375 C2374 1.363 . S
C2375 C2381 1.428 . S
H2376 C2372 0.930 . S
H2377 C2374 0.929 . S
S2378 N2379 1.613 . S
S2378 N2380 1.610 . S
N2379 S2378 1.613 . S
N2379 C2382 1.350 . S
N2380 S2378 1.610 . S
N2380 C2381 1.351 . S
C2381 C2375 1.428 . S
C2381 N2380 1.351 . S
C2381 C2382 1.434 . S
C2382 C2373 1.429 . S
C2382 N2379 1.350 . S
C2382 C2381 1.434 . S
C2383 C2384 1.369 . S
C2383 C2385 1.419 . S
C2383 H2387 0.930 . S
C2384 C2383 1.369 . S
C2384 C2393 1.429 . S
C2385 C2383 1.419 . S
C2385 C2386 1.363 . S
C2385 H2388 0.929 . S
C2386 C2385 1.363 . S
C2386 C2392 1.428 . S
H2387 C2383 0.930 . S
H2388 C2385 0.929 . S
S2389 N2390 1.613 . S
S2389 N2391 1.610 . S
N2390 S2389 1.613 . S
N2390 C2393 1.350 . S
N2391 S2389 1.610 . S
N2391 C2392 1.351 . S
C2392 C2386 1.428 . S
C2392 N2391 1.351 . S
C2392 C2393 1.434 . S
C2393 C2384 1.429 . S
C2393 N2390 1.350 . S
C2393 C2392 1.434 . S
C2394 C2395 1.369 . S
C2394 C2396 1.419 . S
C2394 H2398 0.930 . S
C2395 C2394 1.369 . S
C2395 C2404 1.429 . S
C2396 C2394 1.419 . S
C2396 C2397 1.363 . S
C2396 H2399 0.929 . S
C2397 C2396 1.363 . S
C2397 C2403 1.428 . S
H2398 C2394 0.930 . S
H2399 C2396 0.929 . S
S2400 N2401 1.613 . S
S2400 N2402 1.610 . S
N2401 S2400 1.613 . S
N2401 C2404 1.350 . S
N2402 S2400 1.610 . S
N2402 C2403 1.351 . S
C2403 C2397 1.428 . S
C2403 N2402 1.351 . S
C2403 C2404 1.434 . S
C2404 C2395 1.429 . S
C2404 N2401 1.350 . S
C2404 C2403 1.434 . S
C2405 C2406 1.369 . S
C2405 C2407 1.419 . S
C2405 H2409 0.930 . S
C2406 C2405 1.369 . S
C2406 C2415 1.429 . S
C2407 C2405 1.419 . S
C2407 C2408 1.363 . S
C2407 H2410 0.929 . S
C2408 C2407 1.363 . S
C2408 C2414 1.428 . S
H2409 C2405 0.930 . S
H2410 C2407 0.929 . S
S2411 N2412 1.613 . S
S2411 N2413 1.610 . S
N2412 S2411 1.613 . S
N2412 C2415 1.350 . S
N2413 S2411 1.610 . S
N2413 C2414 1.351 . S
C2414 C2408 1.428 . S
C2414 N2413 1.351 . S
C2414 C2415 1.434 . S
C2415 C2406 1.429 . S
C2415 N2412 1.350 . S
C2415 C2414 1.434 . S
C2416 C2417 1.369 . S
C2416 C2418 1.419 . S
C2416 H2420 0.930 . S
C2417 C2416 1.369 . S
C2417 C2426 1.429 . S
C2418 C2416 1.419 . S
C2418 C2419 1.363 . S
C2418 H2421 0.929 . S
C2419 C2418 1.363 . S
C2419 C2425 1.428 . S
H2420 C2416 0.930 . S
H2421 C2418 0.929 . S
S2422 N2423 1.613 . S
S2422 N2424 1.610 . S
N2423 S2422 1.613 . S
N2423 C2426 1.350 . S
N2424 S2422 1.610 . S
N2424 C2425 1.351 . S
C2425 C2419 1.428 . S
C2425 N2424 1.351 . S
C2425 C2426 1.434 . S
C2426 C2417 1.429 . S
C2426 N2423 1.350 . S
C2426 C2425 1.434 . S
C2427 C2428 1.369 . S
C2427 C2429 1.419 . S
C2427 H2431 0.930 . S
C2428 C2427 1.369 . S
C2428 C2437 1.429 . S
C2429 C2427 1.419 . S
C2429 C2430 1.363 . S
C2429 H2432 0.929 . S
C2430 C2429 1.363 . S
C2430 C2436 1.428 . S
H2431 C2427 0.930 . S
H2432 C2429 0.929 . S
S2433 N2434 1.613 . S
S2433 N2435 1.610 . S
N2434 S2433 1.613 . S
N2434 C2437 1.350 . S
N2435 S2433 1.610 . S
N2435 C2436 1.351 . S
C2436 C2430 1.428 . S
C2436 N2435 1.351 . S
C2436 C2437 1.434 . S
C2437 C2428 1.429 . S
C2437 N2434 1.350 . S
C2437 C2436 1.434 . S
C2438 C2439 1.369 . S
C2438 C2440 1.419 . S
C2438 H2442 0.930 . S
C2439 C2438 1.369 . S
C2439 C2448 1.429 . S
C2440 C2438 1.419 . S
C2440 C2441 1.363 . S
C2440 H2443 0.929 . S
C2441 C2440 1.363 . S
C2441 C2447 1.428 . S
H2442 C2438 0.930 . S
H2443 C2440 0.929 . S
S2444 N2445 1.613 . S
S2444 N2446 1.610 . S
N2445 S2444 1.613 . S
N2445 C2448 1.350 . S
N2446 S2444 1.610 . S
N2446 C2447 1.351 . S
C2447 C2441 1.428 . S
C2447 N2446 1.351 . S
C2447 C2448 1.434 . S
C2448 C2439 1.429 . S
C2448 N2445 1.350 . S
C2448 C2447 1.434 . S
C2449 C2450 1.369 . S
C2449 C2451 1.419 . S
C2449 H2453 0.930 . S
C2450 C2449 1.369 . S
C2450 C2459 1.429 . S
C2451 C2449 1.419 . S
C2451 C2452 1.363 . S
C2451 H2454 0.929 . S
C2452 C2451 1.363 . S
C2452 C2458 1.428 . S
H2453 C2449 0.930 . S
H2454 C2451 0.929 . S
S2455 N2456 1.613 . S
S2455 N2457 1.610 . S
N2456 S2455 1.613 . S
N2456 C2459 1.350 . S
N2457 S2455 1.610 . S
N2457 C2458 1.351 . S
C2458 C2452 1.428 . S
C2458 N2457 1.351 . S
C2458 C2459 1.434 . S
C2459 C2450 1.429 . S
C2459 N2456 1.350 . S
C2459 C2458 1.434 . S
C2460 C2461 1.369 . S
C2460 C2462 1.419 . S
C2460 H2464 0.930 . S
C2461 C2460 1.369 . S
C2461 C2470 1.429 . S
C2462 C2460 1.419 . S
C2462 C2463 1.363 . S
C2462 H2465 0.929 . S
C2463 C2462 1.363 . S
C2463 C2469 1.428 . S
H2464 C2460 0.930 . S
H2465 C2462 0.929 . S
S2466 N2467 1.613 . S
S2466 N2468 1.610 . S
N2467 S2466 1.613 . S
N2467 C2470 1.350 . S
N2468 S2466 1.610 . S
N2468 C2469 1.351 . S
C2469 C2463 1.428 . S
C2469 N2468 1.351 . S
C2469 C2470 1.434 . S
C2470 C2461 1.429 . S
C2470 N2467 1.350 . S
C2470 C2469 1.434 . S
C2471 C2472 1.369 . S
C2471 C2473 1.419 . S
C2471 H2475 0.930 . S
C2472 C2471 1.369 . S
C2472 C2481 1.429 . S
C2473 C2471 1.419 . S
C2473 C2474 1.363 . S
C2473 H2476 0.929 . S
C2474 C2473 1.363 . S
C2474 C2480 1.428 . S
H2475 C2471 0.930 . S
H2476 C2473 0.929 . S
S2477 N2478 1.613 . S
S2477 N2479 1.610 . S
N2478 S2477 1.613 . S
N2478 C2481 1.350 . S
N2479 S2477 1.610 . S
N2479 C2480 1.351 . S
C2480 C2474 1.428 . S
C2480 N2479 1.351 . S
C2480 C2481 1.434 . S
C2481 C2472 1.429 . S
C2481 N2478 1.350 . S
C2481 C2480 1.434 . S
C2482 C2483 1.369 . S
C2482 C2484 1.419 . S
C2482 H2486 0.930 . S
C2483 C2482 1.369 . S
C2483 C2492 1.429 . S
C2484 C2482 1.419 . S
C2484 C2485 1.363 . S
C2484 H2487 0.929 . S
C2485 C2484 1.363 . S
C2485 C2491 1.428 . S
H2486 C2482 0.930 . S
H2487 C2484 0.929 . S
S2488 N2489 1.613 . S
S2488 N2490 1.610 . S
N2489 S2488 1.613 . S
N2489 C2492 1.350 . S
N2490 S2488 1.610 . S
N2490 C2491 1.351 . S
C2491 C2485 1.428 . S
C2491 N2490 1.351 . S
C2491 C2492 1.434 . S
C2492 C2483 1.429 . S
C2492 N2489 1.350 . S
C2492 C2491 1.434 . S
C2493 C2494 1.369 . S
C2493 C2495 1.419 . S
C2493 H2497 0.930 . S
C2494 C2493 1.369 . S
C2494 C2503 1.429 . S
C2495 C2493 1.419 . S
C2495 C2496 1.363 . S
C2495 H2498 0.929 . S
C2496 C2495 1.363 . S
C2496 C2502 1.428 . S
H2497 C2493 0.930 . S
H2498 C2495 0.929 . S
S2499 N2500 1.613 . S
S2499 N2501 1.610 . S
N2500 S2499 1.613 . S
N2500 C2503 1.350 . S
N2501 S2499 1.610 . S
N2501 C2502 1.351 . S
C2502 C2496 1.428 . S
C2502 N2501 1.351 . S
C2502 C2503 1.434 . S
C2503 C2494 1.429 . S
C2503 N2500 1.350 . S
C2503 C2502 1.434 . S
C2504 C2505 1.369 . S
C2504 C2506 1.419 . S
C2504 H2508 0.930 . S
C2505 C2504 1.369 . S
C2505 C2514 1.429 . S
C2506 C2504 1.419 . S
C2506 C2507 1.363 . S
C2506 H2509 0.929 . S
C2507 C2506 1.363 . S
C2507 C2513 1.428 . S
H2508 C2504 0.930 . S
H2509 C2506 0.929 . S
S2510 N2511 1.613 . S
S2510 N2512 1.610 . S
N2511 S2510 1.613 . S
N2511 C2514 1.350 . S
N2512 S2510 1.610 . S
N2512 C2513 1.351 . S
C2513 C2507 1.428 . S
C2513 N2512 1.351 . S
C2513 C2514 1.434 . S
C2514 C2505 1.429 . S
C2514 N2511 1.350 . S
C2514 C2513 1.434 . S
C2515 C2516 1.369 . S
C2515 C2517 1.419 . S
C2515 H2519 0.930 . S
C2516 C2515 1.369 . S
C2516 C2525 1.429 . S
C2517 C2515 1.419 . S
C2517 C2518 1.363 . S
C2517 H2520 0.929 . S
C2518 C2517 1.363 . S
C2518 C2524 1.428 . S
H2519 C2515 0.930 . S
H2520 C2517 0.929 . S
S2521 N2522 1.613 . S
S2521 N2523 1.610 . S
N2522 S2521 1.613 . S
N2522 C2525 1.350 . S
N2523 S2521 1.610 . S
N2523 C2524 1.351 . S
C2524 C2518 1.428 . S
C2524 N2523 1.351 . S
C2524 C2525 1.434 . S
C2525 C2516 1.429 . S
C2525 N2522 1.350 . S
C2525 C2524 1.434 . S
C2526 C2527 1.369 . S
C2526 C2528 1.419 . S
C2526 H2530 0.930 . S
C2527 C2526 1.369 . S
C2527 C2536 1.429 . S
C2528 C2526 1.419 . S
C2528 C2529 1.363 . S
C2528 H2531 0.929 . S
C2529 C2528 1.363 . S
C2529 C2535 1.428 . S
H2530 C2526 0.930 . S
H2531 C2528 0.929 . S
S2532 N2533 1.613 . S
S2532 N2534 1.610 . S
N2533 S2532 1.613 . S
N2533 C2536 1.350 . S
N2534 S2532 1.610 . S
N2534 C2535 1.351 . S
C2535 C2529 1.428 . S
C2535 N2534 1.351 . S
C2535 C2536 1.434 . S
C2536 C2527 1.429 . S
C2536 N2533 1.350 . S
C2536 C2535 1.434 . S
C2537 C2538 1.369 . S
C2537 C2539 1.419 . S
C2537 H2541 0.930 . S
C2538 C2537 1.369 . S
C2538 C2547 1.429 . S
C2539 C2537 1.419 . S
C2539 C2540 1.363 . S
C2539 H2542 0.929 . S
C2540 C2539 1.363 . S
C2540 C2546 1.428 . S
H2541 C2537 0.930 . S
H2542 C2539 0.929 . S
S2543 N2544 1.613 . S
S2543 N2545 1.610 . S
N2544 S2543 1.613 . S
N2544 C2547 1.350 . S
N2545 S2543 1.610 . S
N2545 C2546 1.351 . S
C2546 C2540 1.428 . S
C2546 N2545 1.351 . S
C2546 C2547 1.434 . S
C2547 C2538 1.429 . S
C2547 N2544 1.350 . S
C2547 C2546 1.434 . S
C2548 C2549 1.369 . S
C2548 C2550 1.419 . S
C2548 H2552 0.930 . S
C2549 C2548 1.369 . S
C2549 C2558 1.429 . S
C2550 C2548 1.419 . S
C2550 C2551 1.363 . S
C2550 H2553 0.929 . S
C2551 C2550 1.363 . S
C2551 C2557 1.428 . S
H2552 C2548 0.930 . S
H2553 C2550 0.929 . S
S2554 N2555 1.613 . S
S2554 N2556 1.610 . S
N2555 S2554 1.613 . S
N2555 C2558 1.350 . S
N2556 S2554 1.610 . S
N2556 C2557 1.351 . S
C2557 C2551 1.428 . S
C2557 N2556 1.351 . S
C2557 C2558 1.434 . S
C2558 C2549 1.429 . S
C2558 N2555 1.350 . S
C2558 C2557 1.434 . S
C2559 C2560 1.369 . S
C2559 C2561 1.419 . S
C2559 H2563 0.930 . S
C2560 C2559 1.369 . S
C2560 C2569 1.429 . S
C2561 C2559 1.419 . S
C2561 C2562 1.363 . S
C2561 H2564 0.929 . S
C2562 C2561 1.363 . S
C2562 C2568 1.428 . S
H2563 C2559 0.930 . S
H2564 C2561 0.929 . S
S2565 N2566 1.613 . S
S2565 N2567 1.610 . S
N2566 S2565 1.613 . S
N2566 C2569 1.350 . S
N2567 S2565 1.610 . S
N2567 C2568 1.351 . S
C2568 C2562 1.428 . S
C2568 N2567 1.351 . S
C2568 C2569 1.434 . S
C2569 C2560 1.429 . S
C2569 N2566 1.350 . S
C2569 C2568 1.434 . S
C2570 C2571 1.369 . S
C2570 C2572 1.419 . S
C2570 H2574 0.930 . S
C2571 C2570 1.369 . S
C2571 C2580 1.429 . S
C2572 C2570 1.419 . S
C2572 C2573 1.363 . S
C2572 H2575 0.929 . S
C2573 C2572 1.363 . S
C2573 C2579 1.428 . S
H2574 C2570 0.930 . S
H2575 C2572 0.929 . S
S2576 N2577 1.613 . S
S2576 N2578 1.610 . S
N2577 S2576 1.613 . S
N2577 C2580 1.350 . S
N2578 S2576 1.610 . S
N2578 C2579 1.351 . S
C2579 C2573 1.428 . S
C2579 N2578 1.351 . S
C2579 C2580 1.434 . S
C2580 C2571 1.429 . S
C2580 N2577 1.350 . S
C2580 C2579 1.434 . S
C2581 C2582 1.369 . S
C2581 C2583 1.419 . S
C2581 H2585 0.930 . S
C2582 C2581 1.369 . S
C2582 C2591 1.429 . S
C2583 C2581 1.419 . S
C2583 C2584 1.363 . S
C2583 H2586 0.929 . S
C2584 C2583 1.363 . S
C2584 C2590 1.428 . S
H2585 C2581 0.930 . S
H2586 C2583 0.929 . S
S2587 N2588 1.613 . S
S2587 N2589 1.610 . S
N2588 S2587 1.613 . S
N2588 C2591 1.350 . S
N2589 S2587 1.610 . S
N2589 C2590 1.351 . S
C2590 C2584 1.428 . S
C2590 N2589 1.351 . S
C2590 C2591 1.434 . S
C2591 C2582 1.429 . S
C2591 N2588 1.350 . S
C2591 C2590 1.434 . S
C1889 C241 1.607 . S
C1891 C5 1.609 . S
C1900 C300 1.607 . S
C1902 C64 1.609 . S
C1911 C359 1.610 . S
C1913 C123 1.608 . S
C1922 C182 1.608 . S
C1924 C418 1.610 . S
C1933 C477 1.607 . S
C1935 C713 1.610 . S
C1944 C772 1.610 . S
C1946 C536 1.608 . S
C1955 C595 1.610 . S
C1957 C831 1.608 . S
C1966 C890 1.608 . S
C1968 C654 1.608 . S
C1977 C949 1.609 . S
C1979 C1185 1.608 . S
C1988 C1244 1.609 . S
C1990 C1008 1.608 . S
C1999 C1303 1.608 . S
C2001 C1067 1.610 . S
C2010 C1362 1.610 . S
C2012 C1126 1.610 . S
C2021 C1421 1.609 . S
C2023 C1657 1.608 . S
C2032 C1480 1.610 . S
C2034 C1716 1.609 . S
C2043 C1539 1.610 . S
C2045 C1775 1.608 . S
C2054 C1598 1.607 . S
C2056 C1834 1.609 . S
C2065 C3 1.412 . S
C2067 C416 1.411 . S
C2076 C62 1.414 . S
C2078 C239 1.413 . S
C2087 C121 1.412 . S
C2089 C298 1.414 . S
C2098 C357 1.413 . S
C2100 C180 1.412 . S
C2109 C888 1.414 . S
C2111 C475 1.414 . S
C2120 C711 1.414 . S
C2122 C534 1.414 . S
C2131 C770 1.413 . S
C2133 C593 1.414 . S
C2142 C652 1.414 . S
C2144 C829 1.414 . S
C2153 C1360 1.415 . S
C2155 C947 1.414 . S
C2164 C1183 1.414 . S
C2166 C1006 1.413 . S
C2175 C1242 1.413 . S
C2177 C1065 1.414 . S
C2186 C1124 1.412 . S
C2188 C1301 1.411 . S
C2197 C1419 1.414 . S
C2199 C1832 1.413 . S
C2208 C1478 1.411 . S
C2210 C1655 1.411 . S
C2219 C1537 1.413 . S
C2221 C1714 1.412 . S
C2230 C1773 1.415 . S
C2232 C1596 1.414 . S
C2241 C52 1.588 . S
C2243 C1508 1.586 . S
C2252 C111 1.588 . S
C2254 C623 1.563 1_455 S
C2263 C170 1.587 . S
C2265 C1626 1.584 . S
C2274 C505 1.586 . S
C2276 C229 1.588 . S
C2285 C1862 1.587 . S
C2287 C288 1.587 . S
C2296 C347 1.587 . S
C2298 C741 1.584 . S
C2307 C406 1.586 . S
C2309 C1744 1.585 . S
C2318 C465 1.586 . S
C2320 C859 1.562 1_455 S
C2329 C1036 1.583 . S
C2331 C524 1.588 . S
C2340 C151 1.563 1_655 S
C2342 C583 1.588 . S
C2351 C1154 1.585 . S
C2353 C642 1.586 . S
C2362 C701 1.589 . S
C2364 C33 1.584 . S
C2373 C1390 1.587 . S
C2375 C760 1.587 . S
C2384 C269 1.583 . S
C2386 C819 1.587 . S
C2395 C1272 1.586 . S
C2397 C878 1.588 . S
C2406 C387 1.564 1_655 S
C2408 C937 1.587 . S
C2417 C564 1.586 . S
C2419 C996 1.588 . S
C2428 C1055 1.586 . S
C2430 C1567 1.585 . S
C2439 C1114 1.587 . S
C2441 C682 1.586 . S
C2450 C1173 1.586 . S
C2452 C1449 1.561 1_655 S
C2461 C1232 1.589 . S
C2463 C918 1.585 . S
C2472 C1685 1.563 1_655 S
C2474 C1291 1.588 . S
C2483 C1350 1.588 . S
C2485 C800 1.586 . S
C2494 C1409 1.586 . S
C2496 C1803 1.585 . S
C2505 C1468 1.589 . S
C2507 C92 1.584 . S
C2516 C1527 1.587 . S
C2518 C1095 1.586 . S
C2527 C210 1.583 . S
C2529 C1586 1.589 . S
C2538 C977 1.560 1_455 S
C2540 C1645 1.589 . S
C2549 C1704 1.589 . S
C2551 C446 1.585 . S
C2560 C1763 1.588 . S
C2562 C1213 1.563 1_455 S
C2571 C328 1.584 . S
C2573 C1822 1.589 . S
C2582 C1331 1.586 . S
C2584 C1881 1.588 . S
