# Generated by pormake.
# Topology wjr, (5)-cn, num edge types: 1
# Building blocks:
#     Node 0, Type 0, BuildingBlock: XOMCOT_clean_sbu_1, # of connection points: 5
#     Node 1, Type 0, BuildingBlock: XOMCOT_clean_sbu_1, # of connection points: 5
#     Node 2, Type 0, BuildingBlock: XOMCOT_clean_sbu_1, # of connection points: 5
#     Node 3, Type 0, BuildingBlock: XOMCOT_clean_sbu_1, # of connection points: 5
#     Node 4, Type 0, BuildingBlock: XOMCOT_clean_sbu_1, # of connection points: 5
#     Node 5, Type 0, BuildingBlock: XOMCOT_clean_sbu_1, # of connection points: 5
#     Node 6, Type 0, BuildingBlock: XOMCOT_clean_sbu_1, # of connection points: 5
#     Node 7, Type 0, BuildingBlock: XOMCOT_clean_sbu_1, # of connection points: 5
#     Node 8, Type 0, BuildingBlock: XOMCOT_clean_sbu_1, # of connection points: 5
#     Node 9, Type 0, BuildingBlock: XOMCOT_clean_sbu_1, # of connection points: 5
#     Node 10, Type 0, BuildingBlock: XOMCOT_clean_sbu_1, # of connection points: 5
#     Node 11, Type 0, BuildingBlock: XOMCOT_clean_sbu_1, # of connection points: 5
#     Node 12, Type 0, BuildingBlock: XOMCOT_clean_sbu_1, # of connection points: 5
#     Node 13, Type 0, BuildingBlock: XOMCOT_clean_sbu_1, # of connection points: 5
#     Node 14, Type 0, BuildingBlock: XOMCOT_clean_sbu_1, # of connection points: 5
#     Node 15, Type 0, BuildingBlock: XOMCOT_clean_sbu_1, # of connection points: 5
#     Node 16, Type 0, BuildingBlock: XOMCOT_clean_sbu_1, # of connection points: 5
#     Node 17, Type 0, BuildingBlock: XOMCOT_clean_sbu_1, # of connection points: 5
#     Node 18, Type 0, BuildingBlock: XOMCOT_clean_sbu_1, # of connection points: 5
#     Node 19, Type 0, BuildingBlock: XOMCOT_clean_sbu_1, # of connection points: 5
#     Node 20, Type 0, BuildingBlock: XOMCOT_clean_sbu_1, # of connection points: 5
#     Node 21, Type 0, BuildingBlock: XOMCOT_clean_sbu_1, # of connection points: 5
#     Node 22, Type 0, BuildingBlock: XOMCOT_clean_sbu_1, # of connection points: 5
#     Node 23, Type 0, BuildingBlock: XOMCOT_clean_sbu_1, # of connection points: 5
#     Edge 24, Type (0, 0), BuildingBlock: KIFKEQ_clean_linker_1, # of connection points: 2
#     Edge 25, Type (0, 0), BuildingBlock: KIFKEQ_clean_linker_1, # of connection points: 2
#     Edge 26, Type (0, 0), BuildingBlock: KIFKEQ_clean_linker_1, # of connection points: 2
#     Edge 27, Type (0, 0), BuildingBlock: KIFKEQ_clean_linker_1, # of connection points: 2
#     Edge 28, Type (0, 0), BuildingBlock: KIFKEQ_clean_linker_1, # of connection points: 2
#     Edge 29, Type (0, 0), BuildingBlock: KIFKEQ_clean_linker_1, # of connection points: 2
#     Edge 30, Type (0, 0), BuildingBlock: KIFKEQ_clean_linker_1, # of connection points: 2
#     Edge 31, Type (0, 0), BuildingBlock: KIFKEQ_clean_linker_1, # of connection points: 2
#     Edge 32, Type (0, 0), BuildingBlock: KIFKEQ_clean_linker_1, # of connection points: 2
#     Edge 33, Type (0, 0), BuildingBlock: KIFKEQ_clean_linker_1, # of connection points: 2
#     Edge 34, Type (0, 0), BuildingBlock: KIFKEQ_clean_linker_1, # of connection points: 2
#     Edge 35, Type (0, 0), BuildingBlock: KIFKEQ_clean_linker_1, # of connection points: 2
#     Edge 36, Type (0, 0), BuildingBlock: KIFKEQ_clean_linker_1, # of connection points: 2
#     Edge 37, Type (0, 0), BuildingBlock: KIFKEQ_clean_linker_1, # of connection points: 2
#     Edge 38, Type (0, 0), BuildingBlock: KIFKEQ_clean_linker_1, # of connection points: 2
#     Edge 39, Type (0, 0), BuildingBlock: KIFKEQ_clean_linker_1, # of connection points: 2
#     Edge 40, Type (0, 0), BuildingBlock: KIFKEQ_clean_linker_1, # of connection points: 2
#     Edge 41, Type (0, 0), BuildingBlock: KIFKEQ_clean_linker_1, # of connection points: 2
#     Edge 42, Type (0, 0), BuildingBlock: KIFKEQ_clean_linker_1, # of connection points: 2
#     Edge 43, Type (0, 0), BuildingBlock: KIFKEQ_clean_linker_1, # of connection points: 2
#     Edge 44, Type (0, 0), BuildingBlock: KIFKEQ_clean_linker_1, # of connection points: 2
#     Edge 45, Type (0, 0), BuildingBlock: KIFKEQ_clean_linker_1, # of connection points: 2
#     Edge 46, Type (0, 0), BuildingBlock: KIFKEQ_clean_linker_1, # of connection points: 2
#     Edge 47, Type (0, 0), BuildingBlock: KIFKEQ_clean_linker_1, # of connection points: 2
#     Edge 48, Type (0, 0), BuildingBlock: KIFKEQ_clean_linker_1, # of connection points: 2
#     Edge 49, Type (0, 0), BuildingBlock: KIFKEQ_clean_linker_1, # of connection points: 2
#     Edge 50, Type (0, 0), BuildingBlock: KIFKEQ_clean_linker_1, # of connection points: 2
#     Edge 51, Type (0, 0), BuildingBlock: KIFKEQ_clean_linker_1, # of connection points: 2
#     Edge 52, Type (0, 0), BuildingBlock: KIFKEQ_clean_linker_1, # of connection points: 2
#     Edge 53, Type (0, 0), BuildingBlock: KIFKEQ_clean_linker_1, # of connection points: 2
#     Edge 54, Type (0, 0), BuildingBlock: KIFKEQ_clean_linker_1, # of connection points: 2
#     Edge 55, Type (0, 0), BuildingBlock: KIFKEQ_clean_linker_1, # of connection points: 2
#     Edge 56, Type (0, 0), BuildingBlock: KIFKEQ_clean_linker_1, # of connection points: 2
#     Edge 57, Type (0, 0), BuildingBlock: KIFKEQ_clean_linker_1, # of connection points: 2
#     Edge 58, Type (0, 0), BuildingBlock: KIFKEQ_clean_linker_1, # of connection points: 2
#     Edge 59, Type (0, 0), BuildingBlock: KIFKEQ_clean_linker_1, # of connection points: 2
#     Edge 60, Type (0, 0), BuildingBlock: KIFKEQ_clean_linker_1, # of connection points: 2
#     Edge 61, Type (0, 0), BuildingBlock: KIFKEQ_clean_linker_1, # of connection points: 2
#     Edge 62, Type (0, 0), BuildingBlock: KIFKEQ_clean_linker_1, # of connection points: 2
#     Edge 63, Type (0, 0), BuildingBlock: KIFKEQ_clean_linker_1, # of connection points: 2
#     Edge 64, Type (0, 0), BuildingBlock: KIFKEQ_clean_linker_1, # of connection points: 2
#     Edge 65, Type (0, 0), BuildingBlock: KIFKEQ_clean_linker_1, # of connection points: 2
#     Edge 66, Type (0, 0), BuildingBlock: KIFKEQ_clean_linker_1, # of connection points: 2
#     Edge 67, Type (0, 0), BuildingBlock: KIFKEQ_clean_linker_1, # of connection points: 2
#     Edge 68, Type (0, 0), BuildingBlock: KIFKEQ_clean_linker_1, # of connection points: 2
#     Edge 69, Type (0, 0), BuildingBlock: KIFKEQ_clean_linker_1, # of connection points: 2
#     Edge 70, Type (0, 0), BuildingBlock: KIFKEQ_clean_linker_1, # of connection points: 2
#     Edge 71, Type (0, 0), BuildingBlock: KIFKEQ_clean_linker_1, # of connection points: 2
#     Edge 72, Type (0, 0), BuildingBlock: KIFKEQ_clean_linker_1, # of connection points: 2
#     Edge 73, Type (0, 0), BuildingBlock: KIFKEQ_clean_linker_1, # of connection points: 2
#     Edge 74, Type (0, 0), BuildingBlock: KIFKEQ_clean_linker_1, # of connection points: 2
#     Edge 75, Type (0, 0), BuildingBlock: KIFKEQ_clean_linker_1, # of connection points: 2
#     Edge 76, Type (0, 0), BuildingBlock: KIFKEQ_clean_linker_1, # of connection points: 2
#     Edge 77, Type (0, 0), BuildingBlock: KIFKEQ_clean_linker_1, # of connection points: 2
#     Edge 78, Type (0, 0), BuildingBlock: KIFKEQ_clean_linker_1, # of connection points: 2
#     Edge 79, Type (0, 0), BuildingBlock: KIFKEQ_clean_linker_1, # of connection points: 2
#     Edge 80, Type (0, 0), BuildingBlock: KIFKEQ_clean_linker_1, # of connection points: 2
#     Edge 81, Type (0, 0), BuildingBlock: KIFKEQ_clean_linker_1, # of connection points: 2
#     Edge 82, Type (0, 0), BuildingBlock: KIFKEQ_clean_linker_1, # of connection points: 2
#     Edge 83, Type (0, 0), BuildingBlock: KIFKEQ_clean_linker_1, # of connection points: 2
# Relax obj value: 0.613
# Max RMSD: 0.257
# Mean RMSD: 0.257
data_MOF--net-wjr--node1-XOMCOT_clean_sbu_1--edge1-KIFKEQ_clean_linker_1
_symmetry_space_group_name_H-M    P1
_symmetry_Int_Tables_number       1
_symmetry_cell_setting            triclinic
loop_
_symmetry_equiv_pos_as_xyz
'x, y, z'
_cell_length_a     64.172152
_cell_length_b     64.151054
_cell_length_c     48.530319
_cell_angle_alpha  89.916993
_cell_angle_beta   90.066903
_cell_angle_gamma 119.9997
loop_
_atom_site_label
_atom_site_type_symbol
_atom_site_fract_x
_atom_site_fract_y
_atom_site_fract_z
_atom_type_partial_charge
C0 C 0.46366 0.15326 0.13584 0.0
C1 C 0.46325 0.17352 0.14455 0.0
N2 N 0.47772 0.18266 0.16676 0.0
N3 N 0.47836 0.1495 0.15233 0.0
C4 C 0.48704 0.16803 0.17051 0.0
H5 H 0.45262 0.14114 0.11971 0.0
Co6 Co 0.4803 0.12104 0.15376 0.0
C7 C 0.50612 0.13586 0.21026 0.0
O8 O 0.48736 0.12751 0.22654 0.0
N9 N 0.48282 0.09243 0.15668 0.0
C10 C 0.48248 0.06212 0.17954 0.0
C11 C 0.48008 0.08197 0.18162 0.0
C12 C 0.48709 0.07815 0.13949 0.0
N13 N 0.48669 0.05932 0.15307 0.0
O14 O 0.50665 0.13494 0.1282 0.0
H15 H 0.47598 0.08802 0.20049 0.0
H16 H 0.49006 0.08125 0.11755 0.0
O17 O 0.50349 0.13383 0.1841 0.0
C18 C 0.49813 0.13103 0.10381 0.0
O19 O 0.47473 0.11802 0.10047 0.0
N20 N 0.4521 0.10646 0.17557 0.0
C21 C 0.40826 0.07805 0.20206 0.0
C22 C 0.42443 0.10122 0.21181 0.0
C23 C 0.44597 0.11555 0.19758 0.0
C24 C 0.43518 0.0853 0.16403 0.0
C25 C 0.41338 0.07062 0.17714 0.0
H26 H 0.45768 0.13366 0.20465 0.0
H27 H 0.43901 0.07926 0.14489 0.0
H28 H 0.4982 0.16956 0.18787 0.0
H29 H 0.4521 0.18014 0.13594 0.0
H30 H 0.48137 0.05067 0.19654 0.0
H31 H 0.42064 0.10799 0.23045 0.0
H32 H 0.40128 0.05305 0.16853 0.0
C33 C 0.3111 0.47141 0.13137 0.0
C34 C 0.2925 0.47328 0.14279 0.0
N35 N 0.29874 0.48198 0.16861 0.0
N36 N 0.32921 0.47895 0.14969 0.0
C37 C 0.32132 0.48571 0.17205 0.0
H38 H 0.31098 0.46395 0.11137 0.0
Co39 Co 0.35581 0.4748 0.14365 0.0
C40 C 0.39117 0.50466 0.18614 0.0
O41 O 0.39607 0.48733 0.19057 0.0
N42 N 0.38263 0.46998 0.13611 0.0
C43 C 0.40264 0.45167 0.1224 0.0
C44 C 0.38041 0.44901 0.12721 0.0
C45 C 0.40683 0.48552 0.13505 0.0
N46 N 0.41945 0.47464 0.12746 0.0
O47 O 0.36525 0.49649 0.11292 0.0
H48 H 0.36374 0.4327 0.12327 0.0
H49 H 0.41507 0.50453 0.13954 0.0
O50 O 0.37546 0.50191 0.16809 0.0
C51 C 0.36167 0.48602 0.0897 0.0
O52 O 0.35208 0.46252 0.08902 0.0
N53 N 0.34504 0.45204 0.17288 0.0
C54 C 0.33673 0.41629 0.21096 0.0
C55 C 0.34217 0.43927 0.21984 0.0
C56 C 0.34605 0.45687 0.20043 0.0
C57 C 0.33451 0.42868 0.16451 0.0
C58 C 0.33104 0.41054 0.18304 0.0
H59 H 0.3511 0.47455 0.20789 0.0
H60 H 0.3301 0.4243 0.14304 0.0
H61 H 0.33134 0.49206 0.19102 0.0
H62 H 0.27536 0.46782 0.13304 0.0
H63 H 0.40604 0.4375 0.11598 0.0
H64 H 0.34498 0.44411 0.24144 0.0
H65 H 0.32566 0.39279 0.17513 0.0
C66 C 0.86355 0.30629 0.15679 0.0
C67 C 0.84582 0.284 0.16539 0.0
N68 N 0.82591 0.28515 0.17161 0.0
N69 N 0.85527 0.32185 0.1579 0.0
C70 C 0.83193 0.30814 0.1654 0.0
H71 H 0.88204 0.31137 0.15251 0.0
Co72 Co 0.8757 0.35567 0.15665 0.0
C73 C 0.84068 0.35449 0.20311 0.0
O74 O 0.8305 0.33272 0.21362 0.0
N75 N 0.89658 0.38978 0.15577 0.0
C76 C 0.91707 0.42744 0.17145 0.0
C77 C 0.89976 0.40431 0.17744 0.0
C78 C 0.91306 0.40472 0.13699 0.0
N79 N 0.92563 0.42783 0.1461 0.0
O80 O 0.85704 0.35797 0.12723 0.0
H81 H 0.89124 0.39837 0.1973 0.0
H82 H 0.91634 0.39866 0.11753 0.0
O83 O 0.85613 0.36066 0.1837 0.0
C84 C 0.85863 0.3486 0.10478 0.0
O85 O 0.87194 0.33833 0.10419 0.0
N86 N 0.89508 0.35339 0.18398 0.0
C87 C 0.92703 0.34931 0.21964 0.0
C88 C 0.90264 0.33938 0.22661 0.0
C89 C 0.88699 0.34172 0.20853 0.0
C90 C 0.9184 0.36217 0.17631 0.0
C91 C 0.93476 0.36086 0.19401 0.0
H92 H 0.86828 0.33322 0.21383 0.0
H93 H 0.92441 0.37026 0.15622 0.0
H94 H 0.81996 0.31528 0.16765 0.0
H95 H 0.84844 0.26885 0.16911 0.0
H96 H 0.92398 0.44263 0.1854 0.0
H97 H 0.89552 0.32958 0.24566 0.0
H98 H 0.95337 0.36919 0.18761 0.0
C99 C 0.56092 0.84629 0.1605 0.0
C100 C 0.56102 0.82947 0.1779 0.0
N101 N 0.5425 0.82209 0.19561 0.0
N102 N 0.5424 0.84967 0.16692 0.0
C103 C 0.5312 0.83435 0.18827 0.0
H104 H 0.57445 0.85658 0.14517 0.0
Co105 Co 0.53989 0.87531 0.1513 0.0
C106 C 0.51762 0.88515 0.20005 0.0
O107 O 0.53664 0.90636 0.20434 0.0
N108 N 0.53744 0.90097 0.13439 0.0
C109 C 0.54221 0.92752 0.1016 0.0
C110 C 0.54601 0.90889 0.10877 0.0
C111 C 0.52739 0.91447 0.14174 0.0
N112 N 0.53042 0.93095 0.12235 0.0
O113 O 0.51365 0.8534 0.1285 0.0
H114 H 0.55484 0.9017 0.09619 0.0
H115 H 0.51791 0.91249 0.16072 0.0
O116 O 0.51703 0.87212 0.17984 0.0
C117 C 0.51969 0.84506 0.10812 0.0
O118 O 0.54204 0.84974 0.10651 0.0
N119 N 0.56735 0.8972 0.17195 0.0
C120 C 0.61025 0.93003 0.19826 0.0
C121 C 0.59242 0.90986 0.2124 0.0
C122 C 0.5712 0.89362 0.19886 0.0
C123 C 0.58549 0.91534 0.15733 0.0
C124 C 0.60666 0.93226 0.17013 0.0
H125 H 0.55759 0.87852 0.21033 0.0
H126 H 0.58386 0.91689 0.13547 0.0
H127 H 0.51638 0.83366 0.19967 0.0
H128 H 0.57435 0.82383 0.17824 0.0
H129 H 0.54737 0.93752 0.08244 0.0
H130 H 0.59458 0.90673 0.23387 0.0
H131 H 0.61971 0.94729 0.15799 0.0
C132 C 0.70321 0.54745 0.14894 0.0
C133 C 0.72583 0.55186 0.15595 0.0
N134 N 0.72398 0.53165 0.16693 0.0
N135 N 0.6869 0.52461 0.15553 0.0
C136 C 0.70025 0.51512 0.16495 0.0
H137 H 0.69872 0.56073 0.14188 0.0
Co138 Co 0.65395 0.5144 0.15921 0.0
C139 C 0.65272 0.47672 0.20318 0.0
O140 O 0.67403 0.48591 0.2148 0.0
N141 N 0.62075 0.50486 0.1636 0.0
C142 C 0.58728 0.49525 0.18703 0.0
C143 C 0.60954 0.49739 0.18819 0.0
C144 C 0.60465 0.5075 0.1478 0.0
N145 N 0.58413 0.50186 0.16176 0.0
O146 O 0.64663 0.49286 0.1288 0.0
H147 H 0.6175 0.49491 0.20663 0.0
H148 H 0.60838 0.51478 0.12714 0.0
O149 O 0.64867 0.48864 0.18487 0.0
C150 C 0.64579 0.50293 0.10652 0.0
O151 O 0.64988 0.52513 0.10763 0.0
N152 N 0.66129 0.5369 0.18702 0.0
C153 C 0.66299 0.57048 0.22434 0.0
C154 C 0.66885 0.55305 0.2327 0.0
C155 C 0.668 0.53639 0.21355 0.0
C156 C 0.65791 0.55508 0.17802 0.0
C157 C 0.65852 0.57199 0.19633 0.0
H158 H 0.67181 0.52273 0.22041 0.0
H159 H 0.65318 0.55548 0.1567 0.0
H160 H 0.69267 0.49675 0.17149 0.0
H161 H 0.74209 0.56921 0.1548 0.0
H162 H 0.5746 0.4898 0.20391 0.0
H163 H 0.67292 0.5516 0.25404 0.0
H164 H 0.65369 0.58492 0.18883 0.0
C165 C 0.16146 0.69725 0.13309 0.0
C166 C 0.17853 0.7182 0.14532 0.0
N167 N 0.18997 0.71261 0.16461 0.0
N168 N 0.16117 0.67808 0.14513 0.0
C169 C 0.17982 0.68838 0.16331 0.0
H170 H 0.14999 0.69627 0.11625 0.0
Co171 Co 0.13907 0.64521 0.13494 0.0
C172 C 0.15468 0.63566 0.18921 0.0
O173 O 0.14987 0.65086 0.20193 0.0
N174 N 0.11773 0.61281 0.12404 0.0
C175 C 0.10541 0.57467 0.11297 0.0
C176 C 0.12506 0.59694 0.11804 0.0
C177 C 0.09333 0.5996 0.12222 0.0
N178 N 0.08536 0.57621 0.11584 0.0
O179 O 0.16219 0.64713 0.10882 0.0
H180 H 0.14359 0.60107 0.11829 0.0
H181 H 0.08156 0.60679 0.12624 0.0
O182 O 0.15179 0.63283 0.16313 0.0
C183 C 0.15791 0.65457 0.08638 0.0
O184 O 0.13984 0.65872 0.08551 0.0
N185 N 0.11518 0.64389 0.15864 0.0
C186 C 0.07569 0.64136 0.18553 0.0
C187 C 0.08331 0.6249 0.1918 0.0
C188 C 0.10304 0.62634 0.17794 0.0
C189 C 0.10715 0.65927 0.15167 0.0
C190 C 0.08791 0.65879 0.16537 0.0
H191 H 0.10765 0.61252 0.18162 0.0
H192 H 0.11459 0.67104 0.13424 0.0
H193 H 0.18617 0.67862 0.17543 0.0
H194 H 0.18224 0.73619 0.14034 0.0
H195 H 0.10583 0.5583 0.10888 0.0
H196 H 0.0737 0.61066 0.20671 0.0
H197 H 0.08176 0.67104 0.1591 0.0
C198 C 0.84518 0.53462 0.35967 0.0
C199 C 0.82605 0.53276 0.34487 0.0
N200 N 0.82708 0.52557 0.31908 0.0
N201 N 0.85837 0.52851 0.34354 0.0
C202 C 0.84661 0.52271 0.31898 0.0
H203 H 0.84983 0.54141 0.38043 0.0
Co204 Co 0.88918 0.53374 0.35302 0.0
C205 C 0.89542 0.49967 0.31704 0.0
O206 O 0.91825 0.51538 0.31276 0.0
N207 N 0.92065 0.53981 0.36342 0.0
C208 C 0.959 0.56078 0.37677 0.0
C209 C 0.93892 0.56196 0.36974 0.0
C210 C 0.93008 0.52522 0.3682 0.0
N211 N 0.95364 0.53768 0.37564 0.0
O212 O 0.87625 0.51421 0.38525 0.0
H213 H 0.9379 0.57822 0.36988 0.0
H214 H 0.91988 0.50583 0.36633 0.0
O215 O 0.88266 0.50528 0.33208 0.0
C216 C 0.87934 0.52742 0.40614 0.0
O217 O 0.89099 0.55091 0.40279 0.0
N218 N 0.90186 0.55463 0.32255 0.0
C219 C 0.92771 0.59089 0.28439 0.0
C220 C 0.91534 0.56667 0.27624 0.0
C221 C 0.90209 0.54883 0.29553 0.0
C222 C 0.91038 0.57807 0.32966 0.0
C223 C 0.92386 0.5966 0.31106 0.0
H224 H 0.89256 0.53054 0.28843 0.0
H225 H 0.90781 0.58243 0.35043 0.0
H226 H 0.85305 0.51799 0.30082 0.0
H227 H 0.81297 0.53735 0.35231 0.0
H228 H 0.97638 0.576 0.38191 0.0
H229 H 0.9171 0.56124 0.25566 0.0
H230 H 0.9322 0.61512 0.31792 0.0
C231 C 0.30942 0.83921 0.35476 0.0
C232 C 0.2916 0.81966 0.34099 0.0
N233 N 0.29832 0.82075 0.31447 0.0
N234 N 0.32737 0.85268 0.33711 0.0
C235 C 0.3202 0.84088 0.31272 0.0
H236 H 0.30887 0.84387 0.37605 0.0
Co237 Co 0.35317 0.88302 0.34587 0.0
C238 C 0.38904 0.89318 0.30149 0.0
O239 O 0.3935 0.91544 0.29888 0.0
N240 N 0.37935 0.91413 0.35552 0.0
C241 C 0.40003 0.95272 0.36802 0.0
C242 C 0.37751 0.93328 0.36373 0.0
C243 C 0.4034 0.92229 0.35654 0.0
N244 N 0.41641 0.94594 0.36321 0.0
O245 O 0.36373 0.86873 0.37322 0.0
H246 H 0.36095 0.93337 0.36687 0.0
H247 H 0.4113 0.9113 0.35156 0.0
O248 O 0.37325 0.87885 0.31866 0.0
C249 C 0.35979 0.87304 0.39767 0.0
O250 O 0.34991 0.88646 0.40145 0.0
N251 N 0.34096 0.89676 0.32085 0.0
C252 C 0.32742 0.92635 0.29366 0.0
C253 C 0.33768 0.91475 0.27905 0.0
C254 C 0.34357 0.89931 0.29294 0.0
C255 C 0.32712 0.90418 0.3341 0.0
C256 C 0.32035 0.91925 0.32102 0.0
H257 H 0.35106 0.89037 0.28126 0.0
H258 H 0.32292 0.89987 0.35567 0.0
H259 H 0.33015 0.84759 0.2937 0.0
H260 H 0.2747 0.80601 0.34969 0.0
H261 H 0.40399 0.9705 0.37438 0.0
H262 H 0.34266 0.91866 0.25759 0.0
H263 H 0.31099 0.92638 0.33278 0.0
C264 C 0.45285 0.29366 0.35381 0.0
C265 C 0.45091 0.2753 0.33751 0.0
N266 N 0.46936 0.28436 0.31948 0.0
N267 N 0.47259 0.31441 0.34656 0.0
C268 C 0.48252 0.30812 0.32575 0.0
H269 H 0.43991 0.29221 0.36905 0.0
Co270 Co 0.47872 0.34445 0.36063 0.0
C271 C 0.5056 0.37288 0.31025 0.0
O272 O 0.48849 0.37675 0.30146 0.0
N273 N 0.48485 0.37448 0.37553 0.0
C274 C 0.48929 0.40112 0.40776 0.0
C275 C 0.48526 0.3783 0.40291 0.0
C276 C 0.48836 0.39539 0.36416 0.0
N277 N 0.49123 0.41197 0.38337 0.0
O278 O 0.50326 0.34577 0.38484 0.0
H279 H 0.48212 0.36505 0.41856 0.0
H280 H 0.48835 0.39838 0.34234 0.0
O281 O 0.50325 0.36122 0.33247 0.0
C282 C 0.49568 0.33176 0.40566 0.0
O283 O 0.47259 0.31608 0.40736 0.0
N284 N 0.45317 0.34216 0.33883 0.0
C285 C 0.41397 0.33943 0.31054 0.0
C286 C 0.42929 0.33271 0.29769 0.0
C287 C 0.44858 0.33387 0.31231 0.0
C288 C 0.43696 0.34629 0.3524 0.0
C289 C 0.41758 0.34555 0.33855 0.0
H290 H 0.46045 0.32917 0.30177 0.0
H291 H 0.43924 0.35066 0.37409 0.0
H292 H 0.49796 0.32098 0.31399 0.0
H293 H 0.43644 0.2568 0.33835 0.0
H294 H 0.48981 0.40876 0.42779 0.0
H295 H 0.42676 0.32715 0.27631 0.0
H296 H 0.40614 0.35066 0.34952 0.0
C297 C 0.1623 0.45556 0.35543 0.0
C298 C 0.17834 0.4534 0.33868 0.0
N299 N 0.18771 0.47196 0.32077 0.0
N300 N 0.16139 0.47541 0.34833 0.0
C301 C 0.17729 0.48522 0.32723 0.0
H302 H 0.15136 0.44304 0.37134 0.0
Co303 Co 0.13925 0.48296 0.36445 0.0
C304 C 0.12926 0.50206 0.31206 0.0
O305 O 0.10728 0.48394 0.30902 0.0
N306 N 0.11707 0.4906 0.38147 0.0
C307 C 0.09757 0.49623 0.41599 0.0
C308 C 0.11587 0.49195 0.40908 0.0
C309 C 0.09913 0.49422 0.37209 0.0
N310 N 0.08686 0.49767 0.39269 0.0
O311 O 0.1649 0.51073 0.38213 0.0
H312 H 0.12724 0.48929 0.42343 0.0
H313 H 0.09487 0.49414 0.3507 0.0
O314 O 0.14211 0.50288 0.33261 0.0
C315 C 0.17596 0.5069 0.40157 0.0
O316 O 0.17224 0.48499 0.40498 0.0
N317 N 0.1138 0.45454 0.34946 0.0
C318 C 0.0729 0.41342 0.33131 0.0
C319 C 0.09255 0.426 0.31357 0.0
C320 C 0.11318 0.44639 0.32329 0.0
C321 C 0.09623 0.44047 0.3678 0.0
C322 C 0.07537 0.4201 0.35905 0.0
H323 H 0.12794 0.45651 0.30925 0.0
H324 H 0.09794 0.44544 0.38928 0.0
H325 H 0.1803 0.50106 0.31595 0.0
H326 H 0.18248 0.439 0.33936 0.0
H327 H 0.0923 0.49753 0.43679 0.0
H328 H 0.09144 0.42112 0.29204 0.0
H329 H 0.06089 0.41024 0.37359 0.0
C330 C 0.70759 0.1585 0.36038 0.0
C331 C 0.72577 0.17814 0.34702 0.0
N332 N 0.71731 0.18082 0.32261 0.0
N333 N 0.68772 0.14873 0.34452 0.0
C334 C 0.69405 0.16304 0.3219 0.0
H335 H 0.70925 0.15078 0.37952 0.0
Co336 Co 0.66129 0.11805 0.35046 0.0
C337 C 0.62766 0.11238 0.30563 0.0
O338 O 0.62381 0.09061 0.3005 0.0
N339 N 0.63429 0.08642 0.35713 0.0
C340 C 0.61251 0.04733 0.36738 0.0
C341 C 0.6353 0.06659 0.36447 0.0
C342 C 0.61028 0.07869 0.3573 0.0
N343 N 0.59667 0.0548 0.36262 0.0
O344 O 0.65075 0.13023 0.38017 0.0
H345 H 0.65143 0.06587 0.36841 0.0
H346 H 0.60287 0.09024 0.35305 0.0
O347 O 0.64224 0.12502 0.32472 0.0
C348 C 0.65377 0.12314 0.40359 0.0
O349 O 0.66327 0.10916 0.40473 0.0
N350 N 0.67344 0.10628 0.32288 0.0
C351 C 0.68861 0.08183 0.28817 0.0
C352 C 0.68208 0.09816 0.27739 0.0
C353 C 0.67449 0.11017 0.2951 0.0
C354 C 0.68458 0.09483 0.33368 0.0
C355 C 0.69132 0.0816 0.31692 0.0
H356 H 0.66898 0.12201 0.28616 0.0
H357 H 0.68709 0.09494 0.35572 0.0
H358 H 0.6825 0.15939 0.3042 0.0
H359 H 0.74416 0.18881 0.3541 0.0
H360 H 0.60796 0.02922 0.37309 0.0
H361 H 0.6818 0.10101 0.25546 0.0
H362 H 0.69721 0.07038 0.3269 0.0
C363 C 0.54493 0.69103 0.37012 0.0
C364 C 0.54886 0.71275 0.35997 0.0
N365 N 0.52935 0.70894 0.3455 0.0
N366 N 0.52333 0.67314 0.36143 0.0
C367 C 0.51379 0.68504 0.34797 0.0
H368 H 0.55733 0.68872 0.38301 0.0
Co369 Co 0.51011 0.63927 0.36732 0.0
C370 C 0.48597 0.63781 0.31388 0.0
O371 O 0.50632 0.65436 0.30289 0.0
N372 N 0.49636 0.60561 0.37336 0.0
C373 C 0.46784 0.56722 0.3775 0.0
C374 C 0.47251 0.59055 0.37638 0.0
C375 C 0.50589 0.59086 0.37319 0.0
N376 N 0.48879 0.56728 0.37522 0.0
O377 O 0.48987 0.64057 0.3955 0.0
H378 H 0.45918 0.59615 0.37702 0.0
H379 H 0.52485 0.59717 0.37034 0.0
O380 O 0.48555 0.63151 0.339 0.0
C381 C 0.49871 0.63906 0.41846 0.0
O382 O 0.51837 0.63751 0.41832 0.0
N383 N 0.5317 0.638 0.3421 0.0
C384 C 0.56615 0.6309 0.31544 0.0
C385 C 0.54249 0.6201 0.30545 0.0
C386 C 0.52539 0.62341 0.31946 0.0
C387 C 0.55455 0.64824 0.35219 0.0
C388 C 0.57217 0.64542 0.33888 0.0
H389 H 0.50683 0.6126 0.31331 0.0
H390 H 0.55869 0.6568 0.37206 0.0
H391 H 0.49567 0.67645 0.34005 0.0
H392 H 0.56528 0.72985 0.36227 0.0
H393 H 0.45023 0.55139 0.37958 0.0
H394 H 0.53692 0.60816 0.28783 0.0
H395 H 0.58987 0.65304 0.34813 0.0
C396 C 0.54084 0.84475 0.86607 0.0
C397 C 0.54278 0.82804 0.85016 0.0
N398 N 0.53233 0.82654 0.82558 0.0
N399 N 0.52901 0.85367 0.85177 0.0
C400 C 0.5241 0.84223 0.82712 0.0
H401 H 0.54776 0.85019 0.88672 0.0
Co402 Co 0.52227 0.87716 0.8649 0.0
C403 C 0.48496 0.87586 0.82867 0.0
O404 O 0.49534 0.89939 0.83032 0.0
N405 N 0.51513 0.90105 0.8789 0.0
C406 C 0.49384 0.91587 0.89868 0.0
C407 C 0.49459 0.89538 0.8926 0.0
C408 C 0.52651 0.92549 0.87691 0.0
N409 N 0.51385 0.93487 0.88867 0.0
O410 O 0.5029 0.85561 0.89365 0.0
H411 H 0.48026 0.8773 0.89688 0.0
H412 H 0.54331 0.93631 0.86625 0.0
O413 O 0.49422 0.86464 0.8406 0.0
C414 C 0.51416 0.86242 0.91646 0.0
O415 O 0.53609 0.88107 0.91648 0.0
N416 N 0.54326 0.89844 0.83854 0.0
C417 C 0.58092 0.93178 0.80573 0.0
C418 C 0.55886 0.91477 0.79391 0.0
C419 C 0.54024 0.89818 0.81068 0.0
C420 C 0.56503 0.91356 0.85008 0.0
C421 C 0.58389 0.93076 0.83426 0.0
H422 H 0.52374 0.88498 0.80102 0.0
H423 H 0.56745 0.91271 0.87204 0.0
H424 H 0.51448 0.84511 0.81062 0.0
H425 H 0.55167 0.81812 0.856 0.0
H426 H 0.47902 0.91657 0.90838 0.0
H427 H 0.55596 0.91411 0.77188 0.0
H428 H 0.60037 0.94345 0.84457 0.0
C429 C 0.70848 0.55192 0.86516 0.0
C430 C 0.72684 0.55332 0.84931 0.0
N431 N 0.71755 0.53484 0.83139 0.0
N432 N 0.68749 0.53266 0.85742 0.0
C433 C 0.69365 0.52232 0.83693 0.0
H434 H 0.71006 0.56503 0.88026 0.0
Co435 Co 0.65762 0.52786 0.87044 0.0
C436 C 0.63085 0.50736 0.81757 0.0
O437 O 0.62922 0.52652 0.81203 0.0
N438 N 0.62772 0.52292 0.88445 0.0
C439 C 0.60231 0.52158 0.9166 0.0
C440 C 0.62485 0.52488 0.91168 0.0
C441 C 0.6063 0.51809 0.87327 0.0
N442 N 0.59057 0.51738 0.89241 0.0
O443 O 0.6531 0.50091 0.89255 0.0
H444 H 0.63859 0.52897 0.92703 0.0
H445 H 0.60228 0.51574 0.85158 0.0
O446 O 0.64095 0.50606 0.83971 0.0
C447 C 0.66688 0.50599 0.91346 0.0
O448 O 0.68502 0.52802 0.91601 0.0
N449 N 0.66304 0.5559 0.85101 0.0
C450 C 0.66986 0.59813 0.82584 0.0
C451 C 0.67717 0.58337 0.81268 0.0
C452 C 0.67369 0.56241 0.82563 0.0
C453 C 0.65853 0.57153 0.86527 0.0
C454 C 0.6611 0.59227 0.85288 0.0
H455 H 0.67853 0.55087 0.81455 0.0
H456 H 0.65249 0.56791 0.88637 0.0
H457 H 0.68073 0.50726 0.82474 0.0
H458 H 0.74546 0.56757 0.84995 0.0
H459 H 0.59513 0.5222 0.93655 0.0
H460 H 0.68495 0.58752 0.79224 0.0
H461 H 0.65536 0.603 0.86427 0.0
C462 C 0.15974 0.71525 0.84816 0.0
C463 C 0.17661 0.73356 0.83211 0.0
N464 N 0.18668 0.72446 0.81513 0.0
N465 N 0.1591 0.69452 0.84168 0.0
C466 C 0.17603 0.70077 0.82171 0.0
H467 H 0.14774 0.71666 0.8627 0.0
Co468 Co 0.13477 0.66435 0.85498 0.0
C469 C 0.13283 0.63659 0.80411 0.0
O470 O 0.11133 0.63187 0.79624 0.0
N471 N 0.11029 0.63407 0.86903 0.0
C472 C 0.08851 0.60652 0.90075 0.0
C473 C 0.10803 0.62901 0.89622 0.0
C474 C 0.09139 0.61429 0.85751 0.0
N475 N 0.07792 0.59715 0.87638 0.0
O476 O 0.15777 0.66167 0.87828 0.0
H477 H 0.11949 0.64126 0.912 0.0
H478 H 0.08705 0.61263 0.83592 0.0
O479 O 0.14224 0.64842 0.82612 0.0
C480 C 0.16921 0.67722 0.89696 0.0
O481 O 0.16659 0.69618 0.8989 0.0
N482 N 0.11207 0.66776 0.83362 0.0
C483 C 0.07781 0.67459 0.80574 0.0
C484 C 0.09974 0.68034 0.79317 0.0
C485 C 0.11653 0.67669 0.80736 0.0
C486 C 0.09186 0.66414 0.84699 0.0
C487 C 0.07422 0.66675 0.83327 0.0
H488 H 0.13297 0.68072 0.79695 0.0
H489 H 0.08913 0.65885 0.86843 0.0
H490 H 0.1791 0.68793 0.81062 0.0
H491 H 0.18047 0.75202 0.83226 0.0
H492 H 0.08211 0.59812 0.92067 0.0
H493 H 0.10391 0.68733 0.77237 0.0
H494 H 0.0577 0.66201 0.8441 0.0
C495 C 0.47177 0.16211 0.85602 0.0
C496 C 0.46791 0.18043 0.84787 0.0
N497 N 0.48925 0.19991 0.84145 0.0
N498 N 0.49542 0.16956 0.85449 0.0
C499 C 0.50569 0.19303 0.84704 0.0
H500 H 0.45792 0.14376 0.86013 0.0
Co501 Co 0.50652 0.14724 0.85367 0.0
C502 C 0.54625 0.18448 0.8127 0.0
O503 O 0.53763 0.19748 0.80222 0.0
N504 N 0.51724 0.12435 0.85199 0.0
C505 C 0.53194 0.10292 0.83256 0.0
C506 C 0.5266 0.12084 0.82867 0.0
C507 C 0.51626 0.10737 0.8696 0.0
N508 N 0.52545 0.09435 0.85826 0.0
O509 O 0.52523 0.16111 0.88648 0.0
H510 H 0.52858 0.13006 0.80937 0.0
H511 H 0.50863 0.10425 0.89005 0.0
O512 O 0.5338 0.16777 0.82998 0.0
C513 C 0.51208 0.14912 0.90682 0.0
O514 O 0.48986 0.13208 0.90182 0.0
N515 N 0.4865 0.13193 0.8237 0.0
C516 C 0.45551 0.10088 0.78376 0.0
C517 C 0.47327 0.12441 0.77674 0.0
C518 C 0.48854 0.13984 0.79719 0.0
C519 C 0.46831 0.10981 0.83113 0.0
C520 C 0.45268 0.09395 0.81152 0.0
H521 H 0.50218 0.15769 0.79146 0.0
H522 H 0.46668 0.10408 0.85238 0.0
H523 H 0.52482 0.20468 0.84485 0.0
H524 H 0.4504 0.17853 0.84435 0.0
H525 H 0.53903 0.09591 0.81717 0.0
H526 H 0.47576 0.13057 0.75558 0.0
H527 H 0.43943 0.07592 0.81793 0.0
C528 C 0.30286 0.44967 0.84341 0.0
C529 C 0.28582 0.45029 0.82688 0.0
N530 N 0.29679 0.46963 0.81019 0.0
N531 N 0.32467 0.4686 0.83753 0.0
C532 C 0.32036 0.48074 0.81741 0.0
H533 H 0.29979 0.43551 0.85778 0.0
Co534 Co 0.35301 0.47071 0.852 0.0
C535 C 0.38553 0.49672 0.80481 0.0
O536 O 0.38951 0.47896 0.79925 0.0
N537 N 0.38113 0.47263 0.8679 0.0
C538 C 0.40182 0.4676 0.90163 0.0
C539 C 0.37976 0.46407 0.89362 0.0
C540 C 0.40471 0.48187 0.86097 0.0
N541 N 0.41768 0.47883 0.88109 0.0
O542 O 0.35706 0.49554 0.87705 0.0
H543 H 0.36346 0.45554 0.90579 0.0
H544 H 0.41266 0.49142 0.84214 0.0
O545 O 0.37206 0.49511 0.82498 0.0
C546 C 0.34266 0.48975 0.89737 0.0
O547 O 0.32361 0.46813 0.89799 0.0
N548 N 0.34826 0.44502 0.82869 0.0
C549 C 0.34083 0.40548 0.79697 0.0
C550 C 0.33734 0.42366 0.78564 0.0
C551 C 0.34123 0.44327 0.80177 0.0
C552 C 0.34939 0.42638 0.84067 0.0
C553 C 0.34642 0.40685 0.82513 0.0
H554 H 0.33929 0.45739 0.79222 0.0
H555 H 0.35286 0.42656 0.86242 0.0
H556 H 0.33439 0.49616 0.80666 0.0
H557 H 0.26687 0.43691 0.82645 0.0
H558 H 0.4057 0.46198 0.92107 0.0
H559 H 0.33214 0.42314 0.76432 0.0
H560 H 0.34931 0.39343 0.83515 0.0
C561 C 0.85625 0.32113 0.853 0.0
C562 C 0.83843 0.29916 0.84358 0.0
N563 N 0.81914 0.30109 0.83668 0.0
N564 N 0.84875 0.33737 0.85149 0.0
C565 C 0.82549 0.32406 0.84313 0.0
H566 H 0.87386 0.32492 0.85953 0.0
Co567 Co 0.86794 0.37137 0.85704 0.0
C568 C 0.83658 0.37003 0.80989 0.0
O569 O 0.83847 0.35314 0.79675 0.0
N570 N 0.88693 0.40523 0.86273 0.0
C571 C 0.89644 0.44337 0.86889 0.0
C572 C 0.87793 0.41991 0.86755 0.0
C573 C 0.91114 0.42033 0.86162 0.0
N574 N 0.91743 0.44376 0.86501 0.0
O575 O 0.84879 0.36853 0.88859 0.0
H576 H 0.859 0.41392 0.86976 0.0
H577 H 0.9239 0.41436 0.85766 0.0
O578 O 0.84692 0.37749 0.83326 0.0
C579 C 0.86105 0.3721 0.91052 0.0
O580 O 0.88334 0.3766 0.90847 0.0
N581 N 0.88843 0.37433 0.82793 0.0
C582 C 0.92724 0.38443 0.79351 0.0
C583 C 0.90961 0.39006 0.78544 0.0
C584 C 0.8911 0.38597 0.80348 0.0
C585 C 0.90517 0.36842 0.83593 0.0
C586 C 0.9246 0.37317 0.8191 0.0
H587 H 0.88032 0.39394 0.79835 0.0
H588 H 0.90467 0.36197 0.85662 0.0
H589 H 0.8136 0.33131 0.84065 0.0
H590 H 0.84027 0.28347 0.84031 0.0
H591 H 0.89449 0.45893 0.87261 0.0
H592 H 0.91075 0.39891 0.76605 0.0
H593 H 0.93822 0.36956 0.82711 0.0
C594 C 0.16421 0.47702 0.64242 0.0
C595 C 0.18116 0.47148 0.65161 0.0
N596 N 0.1992 0.49115 0.66362 0.0
N597 N 0.17089 0.49992 0.64925 0.0
C598 C 0.19306 0.50837 0.66056 0.0
H599 H 0.14781 0.46473 0.63183 0.0
Co600 Co 0.1514 0.51452 0.64451 0.0
C601 C 0.18148 0.54382 0.69266 0.0
O602 O 0.17857 0.52475 0.70615 0.0
N603 N 0.13204 0.52903 0.63944 0.0
C604 C 0.12176 0.55725 0.6348 0.0
C605 C 0.1406 0.55277 0.63559 0.0
C606 C 0.10775 0.51938 0.64037 0.0
N607 N 0.10101 0.53627 0.63795 0.0
O608 O 0.17047 0.53162 0.61326 0.0
H609 H 0.15946 0.56609 0.63373 0.0
H610 H 0.09527 0.50044 0.64368 0.0
O611 O 0.17221 0.54134 0.66868 0.0
C612 C 0.15847 0.52293 0.59119 0.0
O613 O 0.13651 0.50447 0.59305 0.0
N614 N 0.13103 0.49637 0.67353 0.0
C615 C 0.09185 0.46746 0.70744 0.0
C616 C 0.10847 0.49127 0.71482 0.0
C617 C 0.12715 0.5057 0.69697 0.0
C618 C 0.11541 0.47312 0.66637 0.0
C619 C 0.09583 0.45834 0.683 0.0
H620 H 0.13698 0.52471 0.70114 0.0
H621 H 0.11658 0.46666 0.64628 0.0
H622 H 0.20467 0.52681 0.66669 0.0
H623 H 0.17959 0.4539 0.65073 0.0
H624 H 0.12329 0.5747 0.63198 0.0
H625 H 0.10628 0.49935 0.73335 0.0
H626 H 0.08299 0.44057 0.67552 0.0
C627 C 0.70763 0.17486 0.64651 0.0
C628 C 0.7228 0.19454 0.66218 0.0
N629 N 0.71344 0.19164 0.68767 0.0
N630 N 0.68852 0.15948 0.66181 0.0
C631 C 0.69261 0.17028 0.68684 0.0
H632 H 0.71096 0.17171 0.62555 0.0
Co633 Co 0.664 0.12858 0.65103 0.0
C634 C 0.62374 0.12013 0.68957 0.0
O635 O 0.61603 0.09704 0.69273 0.0
N636 N 0.63954 0.09725 0.63954 0.0
C637 C 0.62342 0.05988 0.62331 0.0
C638 C 0.64434 0.08022 0.63048 0.0
C639 C 0.61529 0.08695 0.63611 0.0
N640 N 0.60491 0.06389 0.62691 0.0
O641 O 0.65563 0.14178 0.62041 0.0
H642 H 0.66202 0.08234 0.62847 0.0
H643 H 0.60545 0.09627 0.63997 0.0
O644 O 0.64176 0.13291 0.67406 0.0
C645 C 0.6665 0.14159 0.59855 0.0
O646 O 0.68184 0.13372 0.59996 0.0
N647 N 0.67354 0.11525 0.67964 0.0
C648 C 0.68114 0.08391 0.71172 0.0
C649 C 0.67015 0.09611 0.72307 0.0
C650 C 0.66687 0.11214 0.70671 0.0
C651 C 0.68842 0.10738 0.67033 0.0
C652 C 0.69199 0.09108 0.68577 0.0
H653 H 0.65806 0.12096 0.71574 0.0
H654 H 0.69569 0.112 0.6497 0.0
H655 H 0.68076 0.16247 0.70431 0.0
H656 H 0.73999 0.20932 0.65561 0.0
H657 H 0.62214 0.0433 0.61626 0.0
H658 H 0.66223 0.09178 0.74344 0.0
H659 H 0.70148 0.08279 0.67668 0.0
C660 C 0.56299 0.70671 0.66185 0.0
C661 C 0.56448 0.7279 0.6703 0.0
N662 N 0.54239 0.72333 0.67803 0.0
N663 N 0.54011 0.68859 0.66441 0.0
C664 C 0.52786 0.69948 0.67316 0.0
H665 H 0.57803 0.70432 0.65656 0.0
Co666 Co 0.53095 0.65554 0.664 0.0
C667 C 0.49473 0.65112 0.71081 0.0
O668 O 0.5043 0.67165 0.72415 0.0
N669 N 0.52183 0.62218 0.6648 0.0
C670 C 0.51172 0.58723 0.68518 0.0
C671 C 0.51417 0.60944 0.68851 0.0
C672 C 0.52414 0.6069 0.64718 0.0
N673 N 0.51823 0.58549 0.65937 0.0
O674 O 0.50853 0.6497 0.63478 0.0
H675 H 0.51189 0.61626 0.70792 0.0
H676 H 0.53137 0.61188 0.62655 0.0
O677 O 0.50593 0.64816 0.69089 0.0
C678 C 0.51925 0.65898 0.61215 0.0
O679 O 0.54289 0.67055 0.61171 0.0
N680 N 0.55431 0.66156 0.69052 0.0
C681 C 0.59311 0.66937 0.72351 0.0
C682 C 0.57555 0.67445 0.73341 0.0
C683 C 0.55628 0.67052 0.71645 0.0
C684 C 0.57174 0.65763 0.68019 0.0
C685 C 0.59107 0.66108 0.69637 0.0
H686 H 0.54335 0.67503 0.72405 0.0
H687 H 0.5704 0.65142 0.6592 0.0
H688 H 0.50878 0.68986 0.67718 0.0
H689 H 0.58102 0.74484 0.67292 0.0
H690 H 0.50632 0.57359 0.70103 0.0
H691 H 0.57667 0.68136 0.75402 0.0
H692 H 0.60386 0.65652 0.6878 0.0
C693 C 0.85433 0.56013 0.65034 0.0
C694 C 0.83511 0.55933 0.66367 0.0
N695 N 0.82408 0.53902 0.67886 0.0
N696 N 0.85562 0.54036 0.65672 0.0
C697 C 0.83686 0.52773 0.67417 0.0
H698 H 0.86731 0.57477 0.63769 0.0
Co699 Co 0.88187 0.5368 0.64536 0.0
C700 C 0.88301 0.51054 0.69603 0.0
O701 O 0.9039 0.52809 0.70447 0.0
N702 N 0.90828 0.53342 0.63284 0.0
C703 C 0.93334 0.53287 0.60139 0.0
C704 C 0.91349 0.53528 0.60571 0.0
C705 C 0.92579 0.53029 0.64468 0.0
N706 N 0.9412 0.52976 0.62592 0.0
O707 O 0.86154 0.51183 0.61973 0.0
H708 H 0.90372 0.53878 0.58994 0.0
H709 H 0.92761 0.52869 0.66649 0.0
O710 O 0.87381 0.51242 0.6735 0.0
C711 C 0.85283 0.51768 0.59951 0.0
O712 O 0.85609 0.53955 0.59853 0.0
N713 N 0.90213 0.56248 0.66883 0.0
C714 C 0.93305 0.60296 0.69987 0.0
C715 C 0.91065 0.58561 0.71043 0.0
C716 C 0.89545 0.56556 0.69458 0.0
C717 C 0.92289 0.58017 0.65742 0.0
C718 C 0.93885 0.60021 0.67273 0.0
H719 H 0.87852 0.55222 0.70338 0.0
H720 H 0.92735 0.57878 0.6363 0.0
H721 H 0.83325 0.51114 0.6841 0.0
H722 H 0.83051 0.57342 0.66339 0.0
H723 H 0.94182 0.53417 0.58171 0.0
H724 H 0.90497 0.58724 0.73092 0.0
H725 H 0.95587 0.61298 0.66348 0.0
C726 C 0.31582 0.86385 0.64645 0.0
C727 C 0.29461 0.84621 0.65759 0.0
N728 N 0.29764 0.82786 0.66574 0.0
N729 N 0.33271 0.85715 0.64787 0.0
C730 C 0.32052 0.83452 0.65857 0.0
H731 H 0.3184 0.88054 0.63814 0.0
Co732 Co 0.36604 0.87574 0.63725 0.0
C733 C 0.36792 0.85369 0.6902 0.0
O734 O 0.35239 0.85917 0.70073 0.0
N735 N 0.39884 0.89368 0.62642 0.0
C736 C 0.43537 0.90169 0.61314 0.0
C737 C 0.41219 0.8838 0.61862 0.0
C738 C 0.41457 0.9178 0.62572 0.0
N739 N 0.43689 0.92306 0.61783 0.0
O740 O 0.36099 0.85173 0.61037 0.0
H741 H 0.40567 0.86467 0.6176 0.0
H742 H 0.40998 0.93136 0.63111 0.0
O743 O 0.37498 0.85948 0.66527 0.0
C744 C 0.3486 0.8513 0.58962 0.0
O745 O 0.338 0.86429 0.59031 0.0
N746 N 0.37131 0.90093 0.66123 0.0
C747 C 0.38457 0.9453 0.68534 0.0
C748 C 0.39298 0.93055 0.69605 0.0
C749 C 0.38662 0.90869 0.6833 0.0
C750 C 0.36347 0.91538 0.65029 0.0
C751 C 0.36939 0.93735 0.66235 0.0
H752 H 0.39567 0.89925 0.68996 0.0
H753 H 0.35429 0.91084 0.63068 0.0
H754 H 0.3285 0.82335 0.66203 0.0
H755 H 0.27854 0.84741 0.66073 0.0
H756 H 0.45022 0.8992 0.60714 0.0
H757 H 0.40527 0.93633 0.71337 0.0
H758 H 0.36349 0.94871 0.6526 0.0
C759 C 0.47131 0.30683 0.64766 0.0
C760 C 0.47087 0.28943 0.66454 0.0
N761 N 0.48746 0.30021 0.68455 0.0
N762 N 0.48826 0.32873 0.65651 0.0
C763 C 0.49824 0.32408 0.67875 0.0
H764 H 0.45872 0.30373 0.6312 0.0
Co765 Co 0.49004 0.35731 0.64286 0.0
C766 C 0.51152 0.38725 0.69305 0.0
O767 O 0.49243 0.38938 0.69707 0.0
N768 N 0.49182 0.38588 0.62796 0.0
C769 C 0.48641 0.40833 0.59666 0.0
C770 C 0.48345 0.386 0.60244 0.0
C771 C 0.50071 0.40894 0.63678 0.0
N772 N 0.49727 0.42283 0.61832 0.0
O773 O 0.51619 0.36279 0.61892 0.0
H774 H 0.47517 0.37054 0.58896 0.0
H775 H 0.50953 0.41574 0.65626 0.0
O776 O 0.51284 0.37592 0.67208 0.0
C777 C 0.50857 0.34989 0.59726 0.0
O778 O 0.48545 0.33463 0.59483 0.0
N779 N 0.46256 0.35044 0.66444 0.0
C780 C 0.42019 0.33935 0.69273 0.0
C781 C 0.43808 0.33608 0.70523 0.0
C782 C 0.45906 0.34177 0.69083 0.0
C783 C 0.44426 0.35127 0.65112 0.0
C784 C 0.42335 0.34655 0.665 0.0
H785 H 0.47286 0.3401 0.70154 0.0
H786 H 0.44565 0.35569 0.62956 0.0
H787 H 0.51133 0.33794 0.69212 0.0
H788 H 0.45829 0.27032 0.66299 0.0
H789 H 0.4811 0.41351 0.57785 0.0
H790 H 0.43628 0.32967 0.72622 0.0
H791 H 0.41021 0.34928 0.65406 0.0
H792 H 0.46614 0.01441 0.17403 0.0
H793 H 0.51431 0.05926 0.11001 0.0
H794 H 0.47641 0.98391 0.16491 0.0
H795 H 0.52326 0.02726 0.09871 0.0
H796 H 0.48719 0.92389 0.13873 0.0
H797 H 0.474 0.95344 0.14047 0.0
H798 H 0.54414 0.00834 0.1118 0.0
H799 H 0.55625 0.97792 0.10805 0.0
C800 C 0.47878 0.01765 0.15759 0.0
C801 C 0.48982 0.03969 0.14324 0.0
C802 C 0.48443 0.99973 0.15191 0.0
C803 C 0.50087 1.00271 0.13101 0.0
C804 C 0.51092 0.02427 0.11541 0.0
C805 C 0.50552 0.04257 0.12153 0.0
C806 C 0.49966 0.94229 0.13274 0.0
C807 C 0.52276 0.94864 0.12348 0.0
C808 C 0.49224 0.95945 0.13389 0.0
C809 C 0.50803 0.9838 0.12676 0.0
C810 C 0.53116 0.98995 0.11714 0.0
C811 C 0.53828 0.97254 0.11521 0.0
H812 H 0.56517 0.49623 0.11012 0.0
H813 H 0.55606 0.51203 0.19414 0.0
H814 H 0.52745 0.49486 0.09757 0.0
H815 H 0.51825 0.50942 0.18228 0.0
H816 H 0.44411 0.45821 0.09762 0.0
H817 H 0.48583 0.46897 0.10312 0.0
H818 H 0.49628 0.52471 0.1607 0.0
H819 H 0.45385 0.51279 0.15642 0.0
C820 C 0.55527 0.49962 0.12583 0.0
C821 C 0.56347 0.50375 0.15323 0.0
C822 C 0.53348 0.49859 0.11876 0.0
C823 C 0.51941 0.50174 0.13893 0.0
C824 C 0.52842 0.50709 0.16599 0.0
C825 C 0.55008 0.50819 0.17295 0.0
C826 C 0.45523 0.47278 0.1115 0.0
C827 C 0.44528 0.4842 0.12708 0.0
C828 C 0.47944 0.47924 0.11435 0.0
C829 C 0.49464 0.49753 0.1327 0.0
C830 C 0.4851 0.51012 0.14686 0.0
C831 C 0.46075 0.5035 0.14415 0.0
H832 H 0.04788 0.57021 0.14753 0.0
H833 H 0.06744 0.5362 0.08412 0.0
H834 H 0.00828 0.5343 0.15102 0.0
H835 H 0.02759 0.50048 0.08672 0.0
H836 H 0.93305 0.47287 0.14353 0.0
H837 H 0.9705 0.5095 0.13233 0.0
H838 H 1.00352 0.46665 0.11367 0.0
H839 H 0.96541 0.43001 0.12378 0.0
C840 C 0.04351 0.55525 0.13386 0.0
C841 C 0.06091 0.55611 0.11561 0.0
C842 C 0.02069 0.53453 0.13577 0.0
C843 C 0.01443 0.51411 0.11922 0.0
C844 C 0.03167 0.51543 0.10028 0.0
C845 C 0.05456 0.53603 0.09862 0.0
C846 C 0.94821 0.47136 0.13636 0.0
C847 C 0.94627 0.4486 0.13436 0.0
C848 C 0.96986 0.49239 0.1303 0.0
C849 C 0.99048 0.49138 0.12252 0.0
C850 C 0.98815 0.4684 0.1193 0.0
C851 C 0.96627 0.44727 0.125 0.0
H852 H 0.06827 0.51329 0.43302 0.0
H853 H 0.05822 0.49114 0.34765 0.0
H854 H 0.03435 0.51972 0.43007 0.0
H855 H 0.02485 0.49897 0.34437 0.0
H856 H 0.95304 0.49849 0.35274 0.0
H857 H 0.98404 0.48693 0.35721 0.0
H858 H 0.0243 0.54719 0.41181 0.0
H859 H 0.99313 0.55782 0.40834 0.0
C860 C 0.05895 0.50972 0.41353 0.0
C861 C 0.06644 0.50166 0.3906 0.0
C862 C 0.03945 0.51374 0.41175 0.0
C863 C 0.02676 0.51014 0.38689 0.0
C864 C 0.03394 0.50178 0.36398 0.0
C865 C 0.05344 0.49759 0.36579 0.0
C866 C 0.9683 0.50893 0.36609 0.0
C867 C 0.97054 0.52917 0.38007 0.0
C868 C 0.98629 0.50252 0.36839 0.0
C869 C 1.00691 0.51612 0.38484 0.0
C870 C 0.0087 0.53598 0.39923 0.0
C871 C 0.99083 0.54231 0.39698 0.0
H872 H 0.45042 0.93384 0.37519 0.0
H873 H 0.44126 0.99345 0.35081 0.0
H874 H 0.49403 0.9605 0.37568 0.0
H875 H 0.48462 0.01993 0.35048 0.0
H876 H 0.57125 0.00811 0.34736 0.0
H877 H 0.52787 0.98193 0.3475 0.0
H878 H 0.51947 0.04071 0.37756 0.0
H879 H 0.56318 0.06712 0.37659 0.0
C880 C 0.45773 0.95258 0.36972 0.0
C881 C 0.44229 0.96148 0.36318 0.0
C882 C 0.48278 0.96794 0.3699 0.0
C883 C 0.4931 0.99257 0.36316 0.0
C884 C 0.47754 1.00132 0.3564 0.0
C885 C 0.45256 0.98604 0.35651 0.0
C886 C 0.56017 0.01543 0.35416 0.0
C887 C 0.57074 0.03971 0.36217 0.0
C888 C 0.53518 1.00034 0.35435 0.0
C889 C 0.5199 0.00896 0.36279 0.0
C890 C 0.5305 0.03338 0.37059 0.0
C891 C 0.5556 0.04859 0.37011 0.0
H892 H 0.51289 0.45029 0.41786 0.0
H893 H 0.47608 0.42775 0.33973 0.0
H894 H 0.51431 0.4888 0.41357 0.0
H895 H 0.4782 0.46668 0.33496 0.0
H896 H 0.45615 0.52311 0.35601 0.0
H897 H 0.45912 0.48686 0.35592 0.0
H898 H 0.53103 0.52695 0.38922 0.0
H899 H 0.52771 0.56339 0.39006 0.0
C900 C 0.50522 0.45358 0.39964 0.0
C901 C 0.49409 0.43567 0.37931 0.0
C902 C 0.50631 0.47587 0.39702 0.0
C903 C 0.49625 0.48095 0.374 0.0
C904 C 0.48585 0.46334 0.35318 0.0
C905 C 0.48484 0.44104 0.35576 0.0
C906 C 0.47259 0.52428 0.36348 0.0
C907 C 0.49155 0.54622 0.37347 0.0
C908 C 0.47443 0.50345 0.36305 0.0
C909 C 0.49529 0.50381 0.37261 0.0
C910 C 0.51456 0.52589 0.38198 0.0
C911 C 0.51276 0.54685 0.38227 0.0
H912 H 0.56171 0.0852 0.85224 0.0
H913 H 0.49117 0.05694 0.88778 0.0
H914 H 0.5612 0.04782 0.86289 0.0
H915 H 0.49008 0.01894 0.89782 0.0
H916 H 0.53784 0.96838 0.84905 0.0
H917 H 0.54218 0.00823 0.84541 0.0
H918 H 0.50498 0.99711 0.92294 0.0
H919 H 0.50031 0.95704 0.92621 0.0
C920 C 0.54616 0.07096 0.86264 0.0
C921 C 0.52644 0.07391 0.86908 0.0
C922 C 0.54573 0.04942 0.86851 0.0
C923 C 0.52541 0.03002 0.88075 0.0
C924 C 0.50614 0.03346 0.88854 0.0
C925 C 0.50671 0.05523 0.88287 0.0
C926 C 0.53096 0.97459 0.86555 0.0
C927 C 0.51867 0.95944 0.88787 0.0
C928 C 0.53344 0.99752 0.86351 0.0
C929 C 0.52388 0.00605 0.88386 0.0
C930 C 0.5122 0.99111 0.9066 0.0
C931 C 0.5096 0.96813 0.90854 0.0
H932 H 0.44636 0.48706 0.92575 0.0
H933 H 0.44711 0.48684 0.83679 0.0
H934 H 0.4879 0.49662 0.92659 0.0
H935 H 0.4895 0.49762 0.83761 0.0
H936 H 0.55809 0.49083 0.85248 0.0
H937 H 0.51656 0.48255 0.84815 0.0
H938 H 0.52739 0.52803 0.91854 0.0
H939 H 0.56835 0.53579 0.92303 0.0
C940 C 0.45534 0.48908 0.90626 0.0
C941 C 0.44305 0.48596 0.88119 0.0
C942 C 0.47947 0.49494 0.90674 0.0
C943 C 0.49238 0.49809 0.88217 0.0
C944 C 0.48021 0.49516 0.857 0.0
C945 C 0.4559 0.48924 0.85651 0.0
C946 C 0.55161 0.49918 0.86685 0.0
C947 C 0.56653 0.51368 0.88837 0.0
C948 C 0.52777 0.49449 0.86436 0.0
C949 C 0.51829 0.50429 0.88324 0.0
C950 C 0.53363 0.51953 0.90405 0.0
C951 C 0.55727 0.52405 0.90663 0.0
H952 H 0.92879 0.48929 0.85104 0.0
H953 H 0.96051 0.44682 0.87655 0.0
H954 H 0.96816 0.52546 0.85201 0.0
H955 H 1.00026 0.48311 0.87675 0.0
H956 H 0.06095 0.55704 0.90815 0.0
H957 H 0.0229 0.51954 0.90348 0.0
H958 H 1.007 0.54692 0.8299 0.0
H959 H 0.04489 0.58483 0.83509 0.0
C960 C 0.94415 0.4876 0.85686 0.0
C961 C 0.94125 0.465 0.86405 0.0
C962 C 0.96691 0.50842 0.85705 0.0
C963 C 0.98758 0.50741 0.86452 0.0
C964 C 0.98478 0.48473 0.8712 0.0
C965 C 0.96196 0.46382 0.87085 0.0
C966 C 0.04936 0.55515 0.89098 0.0
C967 C 0.05605 0.57421 0.87216 0.0
C968 C 0.02757 0.53343 0.88811 0.0
C969 C 0.01166 0.53004 0.86635 0.0
C970 C 0.01858 0.54889 0.84713 0.0
C971 C 0.04049 0.57062 0.84993 0.0
H972 H 0.9599 0.51002 0.59161 0.0
H973 H 0.97108 0.54495 0.67049 0.0
H974 H 0.99756 0.50978 0.59685 0.0
H975 H 0.00873 0.54436 0.67605 0.0
H976 H 0.05868 0.49693 0.62283 0.0
H977 H 0.01866 0.49295 0.62258 0.0
H978 H 0.04893 0.56483 0.65546 0.0
H979 H 0.0886 0.56856 0.65615 0.0
C980 C 0.97033 0.51753 0.61019 0.0
C981 C 0.96246 0.52769 0.63051 0.0
C982 C 0.99187 0.51717 0.61334 0.0
C983 C 1.00638 0.52713 0.63683 0.0
C984 C 0.99821 0.53674 0.65753 0.0
C985 C 0.97648 0.53689 0.65449 0.0
C986 C 0.05673 0.51175 0.63029 0.0
C987 C 0.07701 0.53315 0.63922 0.0
C988 C 0.03379 0.50957 0.62996 0.0
C989 C 0.03045 0.52862 0.63889 0.0
C990 C 0.05065 0.54969 0.64863 0.0
C991 C 0.07354 0.55195 0.6487 0.0
H992 H 0.58611 0.02319 0.59593 0.0
H993 H 0.56558 0.06418 0.6485 0.0
H994 H 0.54498 0.99138 0.59342 0.0
H995 H 0.5234 0.03271 0.64411 0.0
H996 H 0.4543 0.95784 0.65696 0.0
H997 H 0.4942 0.99406 0.65778 0.0
H998 H 0.5077 0.97714 0.57577 0.0
H999 H 0.46874 0.94033 0.57628 0.0
C1000 C 0.57282 0.02563 0.60685 0.0
C1001 C 0.57959 0.04636 0.62283 0.0
C1002 C 0.54881 0.00733 0.60495 0.0
C1003 C 0.53036 0.00916 0.61841 0.0
C1004 C 0.53694 0.03029 0.63369 0.0
C1005 C 0.56122 0.0486 0.63593 0.0
C1006 C 0.46585 0.96218 0.63909 0.0
C1007 C 0.45861 0.94623 0.61666 0.0
C1008 C 0.48875 0.983 0.63944 0.0
C1009 C 0.50477 0.9886 0.61707 0.0
C1010 C 0.49656 0.97325 0.59391 0.0
C1011 C 0.47404 0.95221 0.59394 0.0
H1012 H 0.47292 0.44358 0.59688 0.0
H1013 H 0.53463 0.45857 0.6465 0.0
H1014 H 0.48124 0.48469 0.60351 0.0
H1015 H 0.54367 0.5 0.65239 0.0
H1016 H 0.53372 0.56009 0.68839 0.0
H1017 H 0.5303 0.52198 0.67633 0.0
H1018 H 0.50474 0.5265 0.5953 0.0
H1019 H 0.50708 0.56466 0.60839 0.0
C1020 C 0.48854 0.4558 0.60885 0.0
C1021 C 0.50299 0.44764 0.62135 0.0
C1022 C 0.49344 0.47954 0.61255 0.0
C1023 C 0.51312 0.49598 0.62865 0.0
C1024 C 0.528 0.48792 0.64039 0.0
C1025 C 0.52288 0.46408 0.637 0.0
C1026 C 0.52748 0.55306 0.6679 0.0
C1027 C 0.52033 0.56531 0.6495 0.0
C1028 C 0.52577 0.53117 0.66079 0.0
C1029 C 0.51708 0.52072 0.63479 0.0
C1030 C 0.5111 0.53363 0.61571 0.0
C1031 C 0.51275 0.5557 0.62298 0.0
H1032 H 0.43401 0.24527 0.29329 0.0
H1033 H 0.51065 0.29462 0.2922 0.0
H1034 H 0.43798 0.22308 0.25537 0.0
H1035 H 0.51457 0.27258 0.2531 0.0
H1036 H 0.5123 0.20762 0.20552 0.0
H1037 H 0.51156 0.23389 0.24135 0.0
H1038 H 0.4459 0.22595 0.20702 0.0
H1039 H 0.446 0.19903 0.1721 0.0
C1040 C 0.45181 0.25141 0.28507 0.0
C1041 C 0.47206 0.27169 0.29622 0.0
C1042 C 0.45404 0.23881 0.26287 0.0
C1043 C 0.47658 0.24602 0.25089 0.0
C1044 C 0.49692 0.26637 0.26187 0.0
C1045 C 0.49467 0.27914 0.28417 0.0
C1046 C 0.49766 0.21142 0.20556 0.0
C1047 C 0.47903 0.20072 0.18589 0.0
C1048 C 0.4974 0.22676 0.22602 0.0
C1049 C 0.4785 0.23186 0.22743 0.0
C1050 C 0.46051 0.22209 0.20701 0.0
C1051 C 0.46074 0.20677 0.18663 0.0
H1052 H 0.24996 0.45566 0.17041 0.0
H1053 H 0.31157 0.51044 0.21444 0.0
H1054 H 0.22351 0.45548 0.20616 0.0
H1055 H 0.28476 0.50985 0.25087 0.0
H1056 H 0.22269 0.51405 0.29849 0.0
H1057 H 0.25037 0.51863 0.26082 0.0
H1058 H 0.21631 0.44132 0.25443 0.0
H1059 H 0.18888 0.43685 0.29141 0.0
C1060 C 0.25794 0.46795 0.1875 0.0
C1061 C 0.28305 0.48308 0.18936 0.0
C1062 C 0.24269 0.46764 0.20824 0.0
C1063 C 0.25198 0.4825 0.23153 0.0
C1064 C 0.277 0.49824 0.23314 0.0
C1065 C 0.29238 0.49842 0.21238 0.0
C1066 C 0.22111 0.49811 0.28884 0.0
C1067 C 0.20365 0.47509 0.29807 0.0
C1068 C 0.23706 0.50071 0.26746 0.0
C1069 C 0.23554 0.48034 0.25455 0.0
C1070 C 0.21788 0.45741 0.26368 0.0
C1071 C 0.20226 0.45484 0.28511 0.0
H1072 H 0.79138 0.29143 0.19775 0.0
H1073 H 0.81372 0.23881 0.18418 0.0
H1074 H 0.76342 0.26559 0.23298 0.0
H1075 H 0.78603 0.21345 0.21964 0.0
H1076 H 0.7638 0.19533 0.31063 0.0
H1077 H 0.78709 0.21918 0.27132 0.0
H1078 H 0.72605 0.22422 0.24275 0.0
H1079 H 0.70254 0.20016 0.28247 0.0
C1080 C 0.79039 0.27441 0.20188 0.0
C1081 C 0.80586 0.26794 0.18847 0.0
C1082 C 0.77415 0.25951 0.22217 0.0
C1083 C 0.77295 0.23776 0.22963 0.0
C1084 C 0.78701 0.23043 0.21491 0.0
C1085 C 0.80302 0.24514 0.19449 0.0
C1086 C 0.75536 0.20171 0.29621 0.0
C1087 C 0.73131 0.19594 0.29985 0.0
C1088 C 0.76864 0.21515 0.27344 0.0
C1089 C 0.75838 0.22345 0.25375 0.0
C1090 C 0.73447 0.2181 0.25756 0.0
C1091 C 0.721 0.20427 0.28022 0.0
H1092 H 0.57645 0.82145 0.22781 0.0
H1093 H 0.49965 0.78908 0.21805 0.0
H1094 H 0.57054 0.79478 0.26632 0.0
H1095 H 0.49354 0.76209 0.25718 0.0
H1096 H 0.49972 0.69897 0.30103 0.0
H1097 H 0.50061 0.72745 0.26713 0.0
H1098 H 0.55575 0.78626 0.31414 0.0
H1099 H 0.5547 0.7579 0.34831 0.0
C1100 C 0.55823 0.8086 0.23397 0.0
C1101 C 0.5385 0.8072 0.21966 0.0
C1102 C 0.55483 0.79345 0.2563 0.0
C1103 C 0.53156 0.77626 0.26496 0.0
C1104 C 0.51171 0.77505 0.25096 0.0
C1105 C 0.51516 0.79055 0.2287 0.0
C1106 C 0.51165 0.71797 0.30463 0.0
C1107 C 0.52736 0.72596 0.32747 0.0
C1108 C 0.51215 0.73435 0.28506 0.0
C1109 C 0.52846 0.75915 0.28767 0.0
C1110 C 0.54327 0.76724 0.31119 0.0
C1111 C 0.54268 0.75092 0.33082 0.0
H1112 H 0.7241 0.49107 0.18439 0.0
H1113 H 0.76417 0.56872 0.19025 0.0
H1114 H 0.74994 0.48869 0.21989 0.0
H1115 H 0.78998 0.56618 0.22476 0.0
H1116 H 0.80585 0.55262 0.31217 0.0
H1117 H 0.78242 0.55296 0.27313 0.0
H1118 H 0.79268 0.49888 0.23272 0.0
H1119 H 0.81613 0.49823 0.27252 0.0
C1120 C 0.7385 0.50764 0.19283 0.0
C1121 C 0.7416 0.53008 0.18438 0.0
C1122 C 0.75345 0.50624 0.2131 0.0
C1123 C 0.7718 0.52724 0.22554 0.0
C1124 C 0.77574 0.54962 0.21602 0.0
C1125 C 0.76095 0.55104 0.1958 0.0
C1126 C 0.80297 0.54054 0.29521 0.0
C1127 C 0.81282 0.52526 0.2957 0.0
C1128 C 0.78974 0.54098 0.27256 0.0
C1129 C 0.7858 0.52611 0.24961 0.0
C1130 C 0.79534 0.51053 0.25008 0.0
C1131 C 0.80888 0.51027 0.27279 0.0
H1132 H 0.3135 0.80749 0.26893 0.0
H1133 H 0.24994 0.79899 0.30955 0.0
H1134 H 0.2883 0.78117 0.23139 0.0
H1135 H 0.22498 0.77299 0.27233 0.0
H1136 H 0.19234 0.75261 0.18605 0.0
H1137 H 0.21974 0.77902 0.22145 0.0
H1138 H 0.25419 0.73603 0.22468 0.0
H1139 H 0.22656 0.70938 0.18897 0.0
C1140 C 0.2942 0.80005 0.26981 0.0
C1141 C 0.28373 0.80526 0.29228 0.0
C1142 C 0.27978 0.78487 0.24846 0.0
C1143 C 0.25465 0.77504 0.24887 0.0
C1144 C 0.24428 0.78039 0.27129 0.0
C1145 C 0.25858 0.79514 0.29276 0.0
C1146 C 0.20593 0.74891 0.19397 0.0
C1147 C 0.20724 0.72886 0.18457 0.0
C1148 C 0.22152 0.76395 0.21447 0.0
C1149 C 0.23908 0.75959 0.22596 0.0
C1150 C 0.2409 0.73992 0.21613 0.0
C1151 C 0.22499 0.72458 0.19584 0.0
H1152 H 0.52627 0.78177 0.82767 0.0
H1153 H 0.53554 0.83773 0.77119 0.0
H1154 H 0.526 0.75724 0.78904 0.0
H1155 H 0.53551 0.8132 0.73231 0.0
H1156 H 0.56833 0.77235 0.68148 0.0
H1157 H 0.56368 0.79763 0.71567 0.0
H1158 H 0.49997 0.73559 0.74696 0.0
H1159 H 0.50429 0.71038 0.71283 0.0
C1160 C 0.5282 0.78879 0.80696 0.0
C1161 C 0.53096 0.81169 0.8025 0.0
C1162 C 0.52786 0.77467 0.7848 0.0
C1163 C 0.53068 0.78324 0.75758 0.0
C1164 C 0.53334 0.80612 0.75304 0.0
C1165 C 0.5332 0.82008 0.77525 0.0
C1166 C 0.55319 0.76404 0.69544 0.0
C1167 C 0.53716 0.73899 0.6947 0.0
C1168 C 0.55045 0.77863 0.71495 0.0
C1169 C 0.53172 0.76853 0.73438 0.0
C1170 C 0.51487 0.74384 0.73261 0.0
C1171 C 0.51738 0.72934 0.71287 0.0
H1172 H 0.79004 0.55211 0.67627 0.0
H1173 H 0.81421 0.51251 0.72621 0.0
H1174 H 0.76198 0.54822 0.71228 0.0
H1175 H 0.78539 0.5081 0.76221 0.0
H1176 H 0.71485 0.49391 0.81146 0.0
H1177 H 0.73843 0.49098 0.77295 0.0
H1178 H 0.77191 0.56767 0.76027 0.0
H1179 H 0.74885 0.5705 0.79847 0.0
C1180 C 0.78927 0.54239 0.69484 0.0
C1181 C 0.80484 0.53308 0.69845 0.0
C1182 C 0.77306 0.54008 0.71546 0.0
C1183 C 0.77167 0.52813 0.74025 0.0
C1184 C 0.78602 0.51736 0.74328 0.0
C1185 C 0.80251 0.51987 0.72262 0.0
C1186 C 0.72718 0.51001 0.80023 0.0
C1187 C 0.73013 0.53244 0.80801 0.0
C1188 C 0.74076 0.50839 0.77839 0.0
C1189 C 0.75699 0.5291 0.76353 0.0
C1190 C 0.75946 0.55136 0.77111 0.0
C1191 C 0.74636 0.55302 0.79311 0.0
H1192 H 0.24904 0.80506 0.66521 0.0
H1193 H 0.30914 0.80619 0.70658 0.0
H1194 H 0.22174 0.77718 0.69973 0.0
H1195 H 0.28176 0.77826 0.74138 0.0
H1196 H 0.22018 0.71567 0.79175 0.0
H1197 H 0.24689 0.73736 0.75285 0.0
H1198 H 0.21538 0.783 0.74778 0.0
H1199 H 0.18875 0.76131 0.78571 0.0
C1200 C 0.25639 0.79913 0.68153 0.0
C1201 C 0.28132 0.8081 0.68324 0.0
C1202 C 0.24075 0.78319 0.70141 0.0
C1203 C 0.24956 0.77579 0.7237 0.0
C1204 C 0.27432 0.78351 0.72448 0.0
C1205 C 0.29003 0.7995 0.70447 0.0
C1206 C 0.21893 0.73024 0.78214 0.0
C1207 C 0.20243 0.73684 0.79209 0.0
C1208 C 0.23431 0.74276 0.75998 0.0
C1209 C 0.23323 0.76187 0.74702 0.0
C1210 C 0.21655 0.7682 0.7569 0.0
C1211 C 0.20144 0.75592 0.77903 0.0
H1212 H 0.52838 0.2308 0.81017 0.0
H1213 H 0.45763 0.21623 0.83449 0.0
H1214 H 0.52928 0.25761 0.77417 0.0
H1215 H 0.45882 0.24345 0.79892 0.0
H1216 H 0.45222 0.25987 0.7089 0.0
H1217 H 0.45506 0.23973 0.74967 0.0
H1218 H 0.52963 0.29447 0.75934 0.0
H1219 H 0.5269 0.31456 0.71743 0.0
C1220 C 0.51308 0.23335 0.80821 0.0
C1221 C 0.49241 0.22016 0.82468 0.0
C1222 C 0.51371 0.24903 0.78753 0.0
C1223 C 0.49381 0.25219 0.78294 0.0
C1224 C 0.47415 0.24082 0.80111 0.0
C1225 C 0.47349 0.22514 0.82166 0.0
C1226 C 0.46937 0.26763 0.71939 0.0
C1227 C 0.48945 0.28876 0.70945 0.0
C1228 C 0.47089 0.25621 0.74322 0.0
C1229 C 0.49253 0.26547 0.75811 0.0
C1230 C 0.51268 0.28672 0.74838 0.0
C1231 C 0.5111 0.29833 0.72444 0.0
H1232 H 0.22231 0.52144 0.70659 0.0
H1233 H 0.21893 0.4623 0.66049 0.0
H1234 H 0.24901 0.51828 0.73998 0.0
H1235 H 0.24556 0.45913 0.69393 0.0
H1236 H 0.25997 0.43721 0.77883 0.0
H1237 H 0.23983 0.44504 0.74132 0.0
H1238 H 0.2886 0.52141 0.75003 0.0
H1239 H 0.30873 0.51341 0.78841 0.0
C1240 C 0.22764 0.50812 0.70313 0.0
C1241 C 0.21808 0.49191 0.68087 0.0
C1242 C 0.24301 0.5063 0.7224 0.0
C1243 C 0.24919 0.48821 0.71996 0.0
C1244 C 0.24077 0.47294 0.69684 0.0
C1245 C 0.22547 0.47478 0.67759 0.0
C1246 C 0.26641 0.45571 0.77295 0.0
C1247 C 0.28581 0.4747 0.78696 0.0
C1248 C 0.25502 0.46021 0.75108 0.0
C1249 C 0.26258 0.48387 0.74246 0.0
C1250 C 0.28221 0.50297 0.75621 0.0
C1251 C 0.29384 0.49841 0.77807 0.0
H1252 H 0.7442 0.23976 0.68698 0.0
H1253 H 0.70879 0.17889 0.74187 0.0
H1254 H 0.76648 0.26543 0.7256 0.0
H1255 H 0.7307 0.2048 0.78088 0.0
H1256 H 0.80029 0.25261 0.83285 0.0
H1257 H 0.77184 0.2258 0.79842 0.0
H1258 H 0.76358 0.28433 0.7673 0.0
H1259 H 0.79251 0.31127 0.80107 0.0
C1260 C 0.74101 0.23187 0.70735 0.0
C1261 C 0.72479 0.20717 0.71118 0.0
C1262 C 0.75362 0.24669 0.72964 0.0
C1263 C 0.75048 0.23727 0.7565 0.0
C1264 C 0.73377 0.21266 0.76049 0.0
C1265 C 0.72101 0.19783 0.73814 0.0
C1266 C 0.79228 0.25976 0.81884 0.0
C1267 C 0.7991 0.28431 0.81968 0.0
C1268 C 0.77575 0.24428 0.79918 0.0
C1269 C 0.76558 0.25291 0.77974 0.0
C1270 C 0.77136 0.27712 0.78157 0.0
C1271 C 0.78782 0.29257 0.80127 0.0
H1272 H 0.36194 0.04672 0.18572 0.0
H1273 H 0.40902 0.06876 0.25644 0.0
H1274 H 0.33291 0.01043 0.21024 0.0
H1275 H 0.38069 0.03255 0.2806 0.0
H1276 H 0.32173 0.93577 0.23943 0.0
H1277 H 0.33425 0.97502 0.21977 0.0
H1278 H 0.34427 1.00515 0.30156 0.0
H1279 H 0.33389 0.96652 0.32119 0.0
C1280 C 0.36577 0.04408 0.20678 0.0
C1281 C 0.38789 0.06034 0.21905 0.0
C1282 C 0.34922 0.02325 0.22077 0.0
C1283 C 0.35462 0.01819 0.24719 0.0
C1284 C 0.37568 0.03577 0.2604 0.0
C1285 C 0.39207 0.05666 0.24652 0.0
C1286 C 0.32642 0.95068 0.2533 0.0
C1287 C 0.32757 0.94794 0.28192 0.0
C1288 C 0.33323 0.97324 0.24198 0.0
C1289 C 0.34094 0.99351 0.25907 0.0
C1290 C 0.33913 0.9901 0.28775 0.0
C1291 C 0.33277 0.96768 0.29905 0.0
H1292 H 0.3715 0.42991 0.25013 0.0
H1293 H 0.31255 0.3664 0.21295 0.0
H1294 H 0.38401 0.40492 0.27415 0.0
H1295 H 0.32608 0.34142 0.23678 0.0
H1296 H 0.36854 0.32931 0.32604 0.0
H1297 H 0.34366 0.34325 0.30302 0.0
H1298 H 0.39414 0.37073 0.23572 0.0
H1299 H 0.41937 0.35767 0.25865 0.0
C1300 C 0.36064 0.41059 0.2477 0.0
C1301 C 0.34094 0.40025 0.22945 0.0
C1302 C 0.36804 0.39634 0.26133 0.0
C1303 C 0.356 0.37146 0.25707 0.0
C1304 C 0.33551 0.36068 0.24027 0.0
C1305 C 0.32795 0.375 0.22657 0.0
C1306 C 0.3741 0.33792 0.30609 0.0
C1307 C 0.39612 0.34264 0.29436 0.0
C1308 C 0.35972 0.3456 0.29287 0.0
C1309 C 0.36711 0.35787 0.26771 0.0
C1310 C 0.38807 0.361 0.25502 0.0
C1311 C 0.40245 0.35343 0.26817 0.0
H1312 H 0.03148 0.41331 0.34057 0.0
H1313 H 0.06061 0.37519 0.2966 0.0
H1314 H 0.99356 0.39018 0.31719 0.0
H1315 H 0.02175 0.35059 0.27385 0.0
H1316 H 0.96779 0.34701 0.20787 0.0
H1317 H 1.0008 0.35609 0.2387 0.0
H1318 H 0.95808 0.35604 0.30762 0.0
H1319 H 0.92623 0.35004 0.27632 0.0
C1320 C 0.02941 0.39925 0.32656 0.0
C1321 C 0.04895 0.39606 0.32028 0.0
C1322 C 1.00749 0.38576 0.31318 0.0
C1323 C 1.00439 0.36841 0.29341 0.0
C1324 C 0.02357 0.36412 0.2885 0.0
C1325 C 0.04578 0.37806 0.30158 0.0
C1326 C 0.96545 0.34917 0.22957 0.0
C1327 C 0.94464 0.34886 0.23928 0.0
C1328 C 0.9843 0.35383 0.24747 0.0
C1329 C 0.98251 0.35756 0.27571 0.0
C1330 C 0.96052 0.35424 0.28586 0.0
C1331 C 0.94197 0.35035 0.26784 0.0
H1332 H 0.65603 0.96078 0.1784 0.0
H1333 H 0.61214 0.94484 0.2517 0.0
H1334 H 0.68498 0.99975 0.19801 0.0
H1335 H 0.64212 0.98269 0.2717 0.0
H1336 H 0.71144 0.05501 0.29715 0.0
H1337 H 0.7002 0.01637 0.27594 0.0
H1338 H 0.65747 0.02777 0.21589 0.0
H1339 H 0.66611 0.06469 0.23807 0.0
C1340 C 0.65279 0.96513 0.19891 0.0
C1341 C 0.63118 0.94986 0.21298 0.0
C1342 C 0.66967 0.98724 0.21025 0.0
C1343 C 0.66565 0.99393 0.23626 0.0
C1344 C 0.64566 0.97759 0.2517 0.0
C1345 C 0.62846 0.95583 0.24013 0.0
C1346 C 0.69966 0.04951 0.27943 0.0
C1347 C 0.68899 0.06298 0.27033 0.0
C1348 C 0.69369 0.02754 0.26702 0.0
C1349 C 0.67801 0.01934 0.24448 0.0
C1350 C 0.66983 0.03401 0.23318 0.0
C1351 C 0.67501 0.05543 0.24606 0.0
H1352 H 0.61424 0.66074 0.30543 0.0
H1353 H 0.55748 0.58648 0.30039 0.0
H1354 H 0.64326 0.64924 0.28932 0.0
H1355 H 0.58605 0.57521 0.28354 0.0
H1356 H 0.63981 0.55432 0.27346 0.0
H1357 H 0.62024 0.57187 0.29972 0.0
H1358 H 0.65189 0.63422 0.24649 0.0
H1359 H 0.67262 0.61724 0.22099 0.0
C1360 C 0.60798 0.64202 0.30077 0.0
C1361 C 0.58357 0.62453 0.30391 0.0
C1362 C 0.62455 0.63547 0.29155 0.0
C1363 C 0.61699 0.6113 0.28555 0.0
C1364 C 0.59255 0.59391 0.28858 0.0
C1365 C 0.57606 0.60044 0.2977 0.0
C1366 C 0.64351 0.57224 0.26803 0.0
C1367 C 0.65737 0.58416 0.24472 0.0
C1368 C 0.63197 0.58212 0.28285 0.0
C1369 C 0.63391 0.60401 0.27456 0.0
C1370 C 0.64988 0.61721 0.25322 0.0
C1371 C 0.66161 0.60739 0.23849 0.0
H1372 H 0.92874 0.59576 0.22804 0.0
H1373 H 0.9719 0.62631 0.30125 0.0
H1374 H 0.96528 0.61396 0.20013 0.0
H1375 H 1.00803 0.64501 0.27325 0.0
H1376 H 0.07017 0.6761 0.21116 0.0
H1377 H 0.03309 0.67175 0.23138 0.0
H1378 H 0.99473 0.59717 0.20636 0.0
H1379 H 0.03162 0.60144 0.18662 0.0
C1380 C 0.94587 0.60704 0.23806 0.0
C1381 C 0.94748 0.60891 0.26694 0.0
C1382 C 0.96672 0.61751 0.22208 0.0
C1383 C 0.98936 0.63034 0.23473 0.0
C1384 C 0.99074 0.63514 0.26305 0.0
C1385 C 0.96993 0.62445 0.27908 0.0
C1386 C 0.05371 0.65886 0.20997 0.0
C1387 C 0.05363 0.63897 0.19779 0.0
C1388 C 0.0326 0.65645 0.22132 0.0
C1389 C 0.0111 0.63427 0.21998 0.0
C1390 C 0.011 0.6146 0.20715 0.0
C1391 C 0.03211 0.61689 0.19629 0.0
H1392 H 0.6302 0.95372 0.81257 0.0
H1393 H 0.57565 0.9544 0.76056 0.0
H1394 H 0.66104 0.98948 0.78875 0.0
H1395 H 0.60664 0.98887 0.73594 0.0
H1396 H 0.66609 0.04155 0.68529 0.0
H1397 H 0.64643 1.00173 0.70622 0.0
H1398 H 0.66468 0.03389 0.78704 0.0
H1399 H 0.68447 0.07402 0.76613 0.0
C1400 C 0.62472 0.96121 0.79596 0.0
C1401 C 0.60024 0.9512 0.78881 0.0
C1402 C 0.64247 0.98151 0.78219 0.0
C1403 C 0.63614 0.99171 0.76052 0.0
C1404 C 0.61198 0.98103 0.75235 0.0
C1405 C 0.59421 0.96115 0.76645 0.0
C1406 C 0.66693 0.04022 0.70748 0.0
C1407 C 0.67661 0.06092 0.72413 0.0
C1408 C 0.6555 0.01739 0.71941 0.0
C1409 C 0.65386 0.01489 0.74814 0.0
C1410 C 0.66582 0.03545 0.76479 0.0
C1411 C 0.67702 0.05836 0.75286 0.0
H1412 H 0.67532 0.6408 0.84643 0.0
H1413 H 0.66161 0.60027 0.77073 0.0
H1414 H 0.66338 0.66719 0.82365 0.0
H1415 H 0.65163 0.62768 0.74797 0.0
H1416 H 0.5898 0.65758 0.7782 0.0
H1417 H 0.61755 0.64977 0.80435 0.0
H1418 H 0.66702 0.67436 0.7359 0.0
H1419 H 0.63989 0.68347 0.71 0.0
C1420 C 0.67031 0.63773 0.8249 0.0
C1421 C 0.66886 0.61787 0.81073 0.0
C1422 C 0.66381 0.65309 0.81185 0.0
C1423 C 0.65659 0.64936 0.78419 0.0
C1424 C 0.65744 0.63109 0.76929 0.0
C1425 C 0.66328 0.61537 0.78244 0.0
C1426 C 0.60704 0.66241 0.76909 0.0
C1427 C 0.61231 0.67055 0.7417 0.0
C1428 C 0.62294 0.65792 0.78413 0.0
C1429 C 0.6442 0.66124 0.77192 0.0
C1430 C 0.6506 0.67154 0.7456 0.0
C1431 C 0.63493 0.67645 0.73074 0.0
H1432 H 0.04219 0.68348 0.82412 0.0
H1433 H 0.06817 0.66554 0.75061 0.0
H1434 H 1.00524 0.67423 0.79971 0.0
H1435 H 0.03237 0.65831 0.72622 0.0
H1436 H 0.94038 0.60091 0.75519 0.0
H1437 H 0.97546 0.6285 0.78158 0.0
H1438 H 1.00341 0.67599 0.71146 0.0
H1439 H 0.96738 0.64912 0.68515 0.0
C1440 C 0.04041 0.67812 0.80272 0.0
C1441 C 0.05809 0.67471 0.78966 0.0
C1442 C 0.01941 0.67325 0.7887 0.0
C1443 C 0.01613 0.66566 0.76118 0.0
C1444 C 0.03469 0.66453 0.74736 0.0
C1445 C 0.05532 0.66874 0.76148 0.0
C1446 C 0.95326 0.61773 0.74562 0.0
C1447 C 0.95125 0.6224 0.71769 0.0
C1448 C 0.97343 0.63358 0.76087 0.0
C1449 C 0.99212 0.65416 0.74838 0.0
C1450 C 0.98919 0.6601 0.7214 0.0
C1451 C 0.96873 0.64451 0.70629 0.0
H1452 H 0.40799 0.06585 0.78424 0.0
H1453 H 0.47278 0.09399 0.73539 0.0
H1454 H 0.38942 0.02958 0.75612 0.0
H1455 H 0.4538 0.05827 0.70645 0.0
H1456 H 0.35903 0.96834 0.69471 0.0
H1457 H 0.37434 0.0092 0.71219 0.0
H1458 H 0.44559 0.01817 0.71813 0.0
H1459 H 0.43056 0.97799 0.69974 0.0
C1460 C 0.418 0.06457 0.767 0.0
C1461 C 0.44202 0.08252 0.7624 0.0
C1462 C 0.40729 0.04388 0.75073 0.0
C1463 C 0.42036 0.04085 0.72946 0.0
C1464 C 0.44349 0.05988 0.72313 0.0
C1465 C 0.45425 0.08051 0.73948 0.0
C1466 C 0.378 0.9792 0.69952 0.0
C1467 C 0.39355 0.96988 0.69622 0.0
C1468 C 0.38673 1.00252 0.7096 0.0
C1469 C 0.41118 0.01696 0.7164 0.0
C1470 C 0.42674 0.0077 0.71264 0.0
C1471 C 0.41804 0.98447 0.70262 0.0
H1472 H 0.32884 0.35891 0.81075 0.0
H1473 H 0.35399 0.40931 0.74255 0.0
H1474 H 0.34018 0.33325 0.78538 0.0
H1475 H 0.36317 0.38265 0.71689 0.0
H1476 H 0.41941 0.34869 0.74783 0.0
H1477 H 0.38975 0.35438 0.77196 0.0
H1478 H 0.34558 0.33451 0.699 0.0
H1479 H 0.3743 0.32658 0.67496 0.0
C1480 C 0.33616 0.36433 0.79022 0.0
C1481 C 0.34116 0.38671 0.7792 0.0
C1482 C 0.34221 0.34936 0.7756 0.0
C1483 C 0.35247 0.35608 0.74932 0.0
C1484 C 0.35494 0.37697 0.73703 0.0
C1485 C 0.3496 0.39227 0.75188 0.0
C1486 C 0.40293 0.34423 0.73706 0.0
C1487 C 0.39972 0.33767 0.70903 0.0
C1488 C 0.38589 0.34757 0.75105 0.0
C1489 C 0.36556 0.34496 0.73721 0.0
C1490 C 0.36122 0.33661 0.70999 0.0
C1491 C 0.37794 0.33253 0.69616 0.0
H1492 H 0.06389 0.41823 0.71414 0.0
H1493 H 0.06669 0.48526 0.73472 0.0
H1494 H 0.02306 0.39611 0.73207 0.0
H1495 H 0.02761 0.46331 0.75537 0.0
H1496 H 0.94982 0.42515 0.76156 0.0
H1497 H 0.98853 0.44236 0.73995 0.0
H1498 H 0.99721 0.38376 0.77036 0.0
H1499 H 0.95674 0.36467 0.78928 0.0
C1500 C 0.05606 0.4283 0.7228 0.0
C1501 C 0.06873 0.45365 0.72258 0.0
C1502 C 0.03272 0.41556 0.73344 0.0
C1503 C 0.02176 0.42791 0.7446 0.0
C1504 C 0.03507 0.45315 0.74604 0.0
C1505 C 0.05798 0.46583 0.73477 0.0
C1506 C 0.95934 0.41524 0.7629 0.0
C1507 C 0.94992 0.39344 0.77752 0.0
C1508 C 0.98203 0.42557 0.75102 0.0
C1509 C 0.99644 0.41495 0.75425 0.0
C1510 C 0.9867 0.39256 0.76762 0.0
C1511 C 0.96357 0.38178 0.77884 0.0
H1512 H 0.546 0.14097 0.18372 0.0
H1513 H 0.5194 0.14479 0.26428 0.0
H1514 H 0.58082 0.14181 0.20508 0.0
H1515 H 0.55409 0.14541 0.28552 0.0
H1516 H 0.62324 0.15182 0.31679 0.0
H1517 H 0.59901 0.16527 0.29156 0.0
H1518 H 0.57949 0.10809 0.23251 0.0
H1519 H 0.60354 0.09473 0.25749 0.0
C1520 C 0.54788 0.14265 0.20591 0.0
C1521 C 0.5297 0.14231 0.22238 0.0
C1522 C 0.56777 0.14302 0.21812 0.0
C1523 C 0.56992 0.14327 0.24694 0.0
C1524 C 0.55294 0.14527 0.26325 0.0
C1525 C 0.53298 0.14475 0.25107 0.0
C1526 C 0.61403 0.14237 0.2982 0.0
C1527 C 0.61502 0.12204 0.28928 0.0
C1528 C 0.60019 0.15006 0.2838 0.0
C1529 C 0.58744 0.13776 0.26007 0.0
C1530 C 0.58939 0.11816 0.25051 0.0
C1531 C 0.60296 0.11033 0.26501 0.0
H1532 H 0.48229 0.64245 0.2583 0.0
H1533 H 0.44377 0.5976 0.32798 0.0
H1534 H 0.4545 0.61105 0.22705 0.0
H1535 H 0.41608 0.56637 0.29665 0.0
H1536 H 0.41242 0.50852 0.23561 0.0
H1537 H 0.42966 0.54266 0.26672 0.0
H1538 H 0.4105 0.58256 0.21041 0.0
H1539 H 0.39278 0.54791 0.17895 0.0
C1540 C 0.4675 0.62623 0.26699 0.0
C1541 C 0.46564 0.62224 0.29562 0.0
C1542 C 0.45152 0.60831 0.24905 0.0
C1543 C 0.43351 0.58616 0.25951 0.0
C1544 C 0.43011 0.58319 0.28813 0.0
C1545 C 0.44597 0.60111 0.30604 0.0
C1546 C 0.41175 0.52449 0.2298 0.0
C1547 C 0.4014 0.52562 0.20475 0.0
C1548 C 0.42138 0.54395 0.2478 0.0
C1549 C 0.42113 0.56511 0.24109 0.0
C1550 C 0.41077 0.56635 0.21607 0.0
C1551 C 0.40072 0.54661 0.19812 0.0
H1552 H 0.8497 0.46141 0.32263 0.0
H1553 H 0.91436 0.48797 0.27367 0.0
H1554 H 0.82996 0.42537 0.2936 0.0
H1555 H 0.89464 0.45231 0.24487 0.0
H1556 H 0.82836 0.35437 0.25698 0.0
H1557 H 0.83731 0.38974 0.28442 0.0
H1558 H 0.85946 0.43349 0.21084 0.0
H1559 H 0.85028 0.39812 0.1833 0.0
C1560 C 0.85967 0.45957 0.30572 0.0
C1561 C 0.88361 0.47746 0.30047 0.0
C1562 C 0.84835 0.43903 0.28913 0.0
C1563 C 0.86068 0.43632 0.26682 0.0
C1564 C 0.88457 0.45421 0.26162 0.0
C1565 C 0.89595 0.4745 0.27834 0.0
C1566 C 0.83433 0.37136 0.24653 0.0
C1567 C 0.83932 0.37371 0.21814 0.0
C1568 C 0.83945 0.39159 0.26226 0.0
C1569 C 0.84959 0.41434 0.24976 0.0
C1570 C 0.8521 0.41617 0.22098 0.0
C1571 C 0.84683 0.39596 0.20527 0.0
H1572 H 0.40377 0.86171 0.3169 0.0
H1573 H 0.40655 0.90739 0.24988 0.0
H1574 H 0.43227 0.85341 0.29229 0.0
H1575 H 0.4343 0.89844 0.22503 0.0
H1576 H 0.47139 0.86212 0.18134 0.0
H1577 H 0.43602 0.85815 0.20559 0.0
H1578 H 0.47919 0.88953 0.27835 0.0
H1579 H 0.51465 0.89425 0.25394 0.0
C1580 C 0.40997 0.86942 0.29663 0.0
C1581 C 0.40317 0.88528 0.28527 0.0
C1582 C 0.42622 0.8647 0.28265 0.0
C1583 C 0.43523 0.87521 0.25682 0.0
C1584 C 0.42733 0.88995 0.24481 0.0
C1585 C 0.41164 0.89517 0.25907 0.0
C1586 C 0.47312 0.86759 0.20272 0.0
C1587 C 0.49565 0.87856 0.21584 0.0
C1588 C 0.45298 0.86537 0.21649 0.0
C1589 C 0.45503 0.87347 0.24376 0.0
C1590 C 0.4772 0.88294 0.25741 0.0
C1591 C 0.49743 0.88574 0.24345 0.0
H1592 H 0.6063 0.45253 0.18476 0.0
H1593 H 0.65252 0.45123 0.24867 0.0
H1594 H 0.57133 0.42373 0.21013 0.0
H1595 H 0.61752 0.42032 0.27296 0.0
H1596 H 0.55163 0.39811 0.3287 0.0
H1597 H 0.58794 0.41854 0.30081 0.0
H1598 H 0.54531 0.38696 0.22728 0.0
H1599 H 0.509 0.36849 0.25533 0.0
C1600 C 0.60901 0.44576 0.20408 0.0
C1601 C 0.63213 0.45503 0.2153 0.0
C1602 C 0.58885 0.42876 0.21852 0.0
C1603 C 0.59135 0.41987 0.24413 0.0
C1604 C 0.61472 0.42735 0.25389 0.0
C1605 C 0.63488 0.4449 0.23976 0.0
C1606 C 0.55024 0.39548 0.30658 0.0
C1607 C 0.52771 0.38217 0.29398 0.0
C1608 C 0.57106 0.40699 0.29049 0.0
C1609 C 0.56975 0.40479 0.26152 0.0
C1610 C 0.54712 0.38986 0.24932 0.0
C1611 C 0.52629 0.37907 0.26535 0.0
H1612 H 0.16319 0.63725 0.24448 0.0
H1613 H 0.15606 0.59601 0.17113 0.0
H1614 H 0.16254 0.60554 0.27275 0.0
H1615 H 0.15569 0.56442 0.1995 0.0
H1616 H 0.11047 0.50239 0.26196 0.0
H1617 H 0.12308 0.53625 0.2308 0.0
H1618 H 0.1817 0.5811 0.28554 0.0
H1619 H 0.16896 0.54701 0.31706 0.0
C1620 C 0.16205 0.62168 0.23434 0.0
C1621 C 0.15923 0.61894 0.20561 0.0
C1622 C 0.16185 0.60359 0.25054 0.0
C1623 C 0.15875 0.58239 0.23833 0.0
C1624 C 0.15776 0.58045 0.20946 0.0
C1625 C 0.15807 0.59859 0.19323 0.0
C1626 C 0.12621 0.51938 0.26727 0.0
C1627 C 0.13855 0.52212 0.29212 0.0
C1628 C 0.13359 0.53873 0.24924 0.0
C1629 C 0.1534 0.56131 0.25573 0.0
C1630 C 0.1663 0.56389 0.28012 0.0
C1631 C 0.15903 0.5444 0.2981 0.0
H1632 H 0.47485 0.84092 0.79018 0.0
H1633 H 0.44726 0.88307 0.82798 0.0
H1634 H 0.44222 0.82594 0.75585 0.0
H1635 H 0.41468 0.86789 0.79453 0.0
H1636 H 0.3532 0.83377 0.74094 0.0
H1637 H 0.37798 0.82988 0.77638 0.0
H1638 H 0.43561 0.85116 0.71764 0.0
H1639 H 0.41081 0.85501 0.682 0.0
C1640 C 0.46136 0.84632 0.79161 0.0
C1641 C 0.4634 0.86312 0.81149 0.0
C1642 C 0.44285 0.83787 0.77201 0.0
C1643 C 0.42591 0.84567 0.77267 0.0
C1644 C 0.42725 0.86127 0.79376 0.0
C1645 C 0.44595 0.87008 0.81279 0.0
C1646 C 0.37092 0.837 0.73536 0.0
C1647 C 0.38035 0.84533 0.70893 0.0
C1648 C 0.38502 0.83466 0.75563 0.0
C1649 C 0.40878 0.8406 0.74981 0.0
C1650 C 0.41729 0.84638 0.72262 0.0
C1651 C 0.40314 0.84872 0.70226 0.0
H1652 H 0.50947 0.39483 0.74749 0.0
H1653 H 0.55946 0.40756 0.68139 0.0
H1654 H 0.54289 0.42013 0.77801 0.0
H1655 H 0.59308 0.43346 0.71197 0.0
H1656 H 0.62588 0.50854 0.76234 0.0
H1657 H 0.60053 0.47484 0.73219 0.0
H1658 H 0.58278 0.42573 0.80062 0.0
H1659 H 0.6087 0.45959 0.83084 0.0
C1660 C 0.52768 0.40275 0.73968 0.0
C1661 C 0.53197 0.39954 0.71209 0.0
C1662 C 0.54679 0.41701 0.7572 0.0
C1663 C 0.5705 0.42868 0.74729 0.0
C1664 C 0.57491 0.42456 0.72004 0.0
C1665 C 0.55575 0.4098 0.70262 0.0
C1666 C 0.61703 0.49047 0.77077 0.0
C1667 C 0.61897 0.4866 0.7989 0.0
C1668 C 0.60272 0.4712 0.75349 0.0
C1669 C 0.58973 0.44776 0.76415 0.0
C1670 C 0.5927 0.44369 0.79198 0.0
C1671 C 0.60749 0.46298 0.80919 0.0
H1672 H 0.18956 0.55146 0.748 0.0
H1673 H 0.18686 0.58613 0.67271 0.0
H1674 H 0.18476 0.5808 0.77468 0.0
H1675 H 0.1821 0.61553 0.69954 0.0
H1676 H 0.1221 0.61833 0.75214 0.0
H1677 H 0.14352 0.60357 0.72448 0.0
H1678 H 0.19651 0.62295 0.78897 0.0
H1679 H 0.17496 0.63779 0.81692 0.0
C1680 C 0.18886 0.56585 0.73713 0.0
C1681 C 0.18761 0.56592 0.70822 0.0
C1682 C 0.18618 0.58274 0.75248 0.0
C1683 C 0.18233 0.59995 0.7391 0.0
C1684 C 0.18443 0.60202 0.7103 0.0
C1685 C 0.18718 0.58519 0.69496 0.0
C1686 C 0.13842 0.61967 0.76037 0.0
C1687 C 0.14666 0.62891 0.78684 0.0
C1688 C 0.1509 0.61152 0.74436 0.0
C1689 C 0.1718 0.61231 0.75452 0.0
C1690 C 0.18046 0.62218 0.78067 0.0
C1691 C 0.16808 0.63058 0.79664 0.0
H1692 H 0.57312 0.16489 0.83056 0.0
H1693 H 0.56262 0.20045 0.76066 0.0
H1694 H 0.59528 0.15169 0.80132 0.0
H1695 H 0.58495 0.18754 0.73166 0.0
H1696 H 0.6364 0.16765 0.68956 0.0
H1697 H 0.62344 0.18814 0.72173 0.0
H1698 H 0.57843 0.12077 0.76359 0.0
H1699 H 0.59139 0.10026 0.73164 0.0
C1700 C 0.57604 0.17037 0.80913 0.0
C1701 C 0.56551 0.18305 0.79772 0.0
C1702 C 0.58862 0.16274 0.7924 0.0
C1703 C 0.59128 0.16809 0.7641 0.0
C1704 C 0.58308 0.18306 0.75339 0.0
C1705 C 0.57032 0.19051 0.77006 0.0
C1706 C 0.62368 0.15718 0.70558 0.0
C1707 C 0.61483 0.13228 0.70797 0.0
C1708 C 0.61634 0.16896 0.72401 0.0
C1709 C 0.60018 0.15611 0.74533 0.0
C1710 C 0.5913 0.13123 0.74768 0.0
C1711 C 0.59849 0.11942 0.72916 0.0
H1712 H 0.38127 0.53688 0.81021 0.0
H1713 H 0.41721 0.5072 0.76258 0.0
H1714 H 0.40315 0.57467 0.78482 0.0
H1715 H 0.43929 0.54497 0.73772 0.0
H1716 H 0.46579 0.60895 0.68431 0.0
H1717 H 0.43522 0.57134 0.70488 0.0
H1718 H 0.44501 0.60739 0.78298 0.0
H1719 H 0.4753 0.64512 0.76228 0.0
C1720 C 0.39375 0.53838 0.79426 0.0
C1721 C 0.39767 0.51912 0.78853 0.0
C1722 C 0.40629 0.56002 0.77978 0.0
C1723 C 0.42291 0.56279 0.75928 0.0
C1724 C 0.42631 0.54329 0.75309 0.0
C1725 C 0.4138 0.52169 0.76752 0.0
C1726 C 0.4611 0.60892 0.70576 0.0
C1727 C 0.47323 0.62984 0.72185 0.0
C1728 C 0.44367 0.58738 0.71754 0.0
C1729 C 0.43804 0.58633 0.74565 0.0
C1730 C 0.44888 0.60765 0.76123 0.0
C1731 C 0.46629 0.62926 0.74939 0.0
H1732 H 0.84145 0.46874 0.68352 0.0
H1733 H 0.89415 0.50371 0.74808 0.0
H1734 H 0.8206 0.43253 0.71206 0.0
H1735 H 0.87356 0.46777 0.77622 0.0
H1736 H 0.83201 0.40756 0.82923 0.0
H1737 H 0.83612 0.44119 0.80173 0.0
H1738 H 0.83203 0.4025 0.72729 0.0
H1739 H 0.82761 0.36878 0.75465 0.0
C1740 C 0.84847 0.46877 0.70383 0.0
C1741 C 0.86962 0.48896 0.71343 0.0
C1742 C 0.83649 0.44809 0.72015 0.0
C1743 C 0.84533 0.44739 0.74643 0.0
C1744 C 0.866 0.4679 0.75629 0.0
C1745 C 0.87802 0.48841 0.73998 0.0
C1746 C 0.8312 0.40589 0.807 0.0
C1747 C 0.83039 0.3859 0.79411 0.0
C1748 C 0.83362 0.42519 0.79127 0.0
C1749 C 0.83516 0.42473 0.76243 0.0
C1750 C 0.83105 0.40343 0.7495 0.0
C1751 C 0.82859 0.3841 0.76524 0.0
H1752 H 0.52724 0.118 0.07727 0.0
H1753 H 0.50028 0.16741 0.07392 0.0
H1754 H 0.54039 0.12742 0.02915 0.0
H1755 H 0.51318 0.17685 0.02602 0.0
H1756 H 0.50628 0.1131 0.94004 0.0
H1757 H 0.51284 0.11445 0.9894 0.0
H1758 H 0.54384 0.1917 0.98817 0.0
H1759 H 0.53739 0.19021 0.93798 0.0
C1760 C 0.52517 0.1317 0.06659 0.0
C1761 C 0.51306 0.14223 0.07925 0.0
C1762 C 0.53244 0.13694 0.03899 0.0
C1763 C 0.52764 0.15274 0.0236 0.0
C1764 C 0.51744 0.16484 0.03722 0.0
C1765 C 0.51003 0.15945 0.06469 0.0
C1766 C 0.5152 0.13048 0.95014 0.0
C1767 C 0.52133 0.15154 0.93523 0.0
C1768 C 0.51911 0.13129 0.97849 0.0
C1769 C 0.52886 0.15318 0.99287 0.0
C1770 C 0.53626 0.17454 0.97769 0.0
C1771 C 0.53273 0.17375 0.949 0.0
H1772 H 0.38679 0.48222 0.04769 0.0
H1773 H 0.34826 0.51818 0.07236 0.0
H1774 H 0.38779 0.49515 1.00031 0.0
H1775 H 0.34875 0.5309 0.02441 0.0
H1776 H 0.314 0.49134 0.93736 0.0
H1777 H 0.32512 0.50186 0.98546 0.0
H1778 H 0.39965 0.52827 0.96492 0.0
H1779 H 0.38849 0.51787 0.91659 0.0
C1780 C 0.37925 0.49363 0.04301 0.0
C1781 C 0.36744 0.49922 0.06347 0.0
C1782 C 0.37993 0.50118 0.01591 0.0
C1783 C 0.36829 0.51401 0.00859 0.0
C1784 C 0.35789 0.52106 0.0295 0.0
C1785 C 0.3577 0.51391 0.05688 0.0
C1786 C 0.33288 0.50036 0.94293 0.0
C1787 C 0.35033 0.50353 0.92335 0.0
C1788 C 0.33929 0.5065 0.97048 0.0
C1789 C 0.36322 0.51558 0.97902 0.0
C1790 C 0.38104 0.52115 0.95891 0.0
C1791 C 0.37466 0.51532 0.93122 0.0
H1792 H 0.85336 0.38628 0.08713 0.0
H1793 H 0.84056 0.316 0.06364 0.0
H1794 H 0.84517 0.39334 0.03961 0.0
H1795 H 0.83214 0.3228 0.01661 0.0
H1796 H 0.88295 0.4045 0.95092 0.0
H1797 H 0.87304 0.39897 0.99975 0.0
H1798 H 0.80821 0.33198 0.98182 0.0
H1799 H 0.81813 0.33788 0.93246 0.0
C1800 C 0.84791 0.37203 0.07207 0.0
C1801 C 0.84785 0.35073 0.07884 0.0
C1802 C 0.84329 0.37607 0.04491 0.0
C1803 C 0.83813 0.35866 0.02436 0.0
C1804 C 0.83582 0.33647 0.03195 0.0
C1805 C 0.84084 0.33264 0.05885 0.0
C1806 C 0.86612 0.38905 0.95734 0.0
C1807 C 0.85134 0.37153 0.93812 0.0
C1808 C 0.86034 0.38595 0.98529 0.0
C1809 C 0.83991 0.36497 0.99466 0.0
C1810 C 0.82409 0.34831 0.97514 0.0
C1811 C 0.82968 0.3517 0.94696 0.0
H1812 H 0.48567 0.8557 0.08989 0.0
H1813 H 0.52078 0.81534 0.06932 0.0
H1814 H 0.47235 0.85266 0.04209 0.0
H1815 H 0.50785 0.81255 0.02174 0.0
H1816 H 0.49037 0.81571 0.93483 0.0
H1817 H 0.47942 0.80282 0.983 0.0
H1818 H 0.501 0.87604 0.00561 0.0
H1819 H 0.51184 0.88855 0.95808 0.0
C1820 C 0.48962 0.84527 0.07547 0.0
C1821 C 0.50462 0.83613 0.08313 0.0
C1822 C 0.48215 0.84367 0.04804 0.0
C1823 C 0.48949 0.83283 0.02797 0.0
C1824 C 0.50182 0.821 0.03657 0.0
C1825 C 0.50938 0.82272 0.06387 0.0
C1826 C 0.49192 0.82872 0.95009 0.0
C1827 C 0.50212 0.8531 0.94306 0.0
C1828 C 0.48576 0.82143 0.9776 0.0
C1829 C 0.48943 0.83841 0.99821 0.0
C1830 C 0.49761 0.86238 0.99037 0.0
C1831 C 0.50407 0.86964 0.96315 0.0
H1832 H 0.66227 0.47359 0.08712 0.0
H1833 H 0.62029 0.50653 0.06452 0.0
H1834 H 0.66259 0.46253 0.03869 0.0
H1835 H 0.62031 0.49542 0.01668 0.0
H1836 H 0.62101 0.47632 0.93197 0.0
H1837 H 0.61001 0.46459 0.98009 0.0
H1838 H 0.68471 0.49108 0.99999 0.0
H1839 H 0.69559 0.50278 0.95214 0.0
C1840 C 0.65242 0.47768 0.07197 0.0
C1841 C 0.64144 0.49109 0.07939 0.0
C1842 C 0.65266 0.47146 0.04428 0.0
C1843 C 0.64153 0.47814 0.02379 0.0
C1844 C 0.62881 0.4897 0.03186 0.0
C1845 C 0.62896 0.49627 0.05928 0.0
C1846 C 0.63489 0.47855 0.94636 0.0
C1847 C 0.6592 0.49074 0.93843 0.0
C1848 C 0.62863 0.47203 0.97399 0.0
C1849 C 0.64654 0.47732 0.99397 0.0
C1850 C 0.67044 0.48667 0.9852 0.0
C1851 C 0.67671 0.49344 0.95773 0.0
H1852 H 0.15404 0.63358 0.92144 0.0
H1853 H 0.20853 0.70856 0.92611 0.0
H1854 H 0.16169 0.62808 0.96929 0.0
H1855 H 0.21747 0.70283 0.9734 0.0
H1856 H 0.1782 0.69516 0.05683 0.0
H1857 H 0.19145 0.69979 0.00949 0.0
H1858 H 0.18244 0.6283 0.01109 0.0
H1859 H 0.16881 0.62381 0.05921 0.0
C1860 C 0.16852 0.64859 0.93227 0.0
C1861 C 0.1802 0.67167 0.92045 0.0
C1862 C 0.17304 0.64543 0.95976 0.0
C1863 C 0.18964 0.66525 0.97556 0.0
C1864 C 0.20397 0.68738 0.96212 0.0
C1865 C 0.19901 0.69066 0.93496 0.0
C1866 C 0.17996 0.68081 0.04738 0.0
C1867 C 0.17252 0.65918 0.06146 0.0
C1868 C 0.18771 0.68346 0.02018 0.0
C1869 C 0.18792 0.66434 0.00622 0.0
C1870 C 0.18232 0.6433 0.02115 0.0
C1871 C 0.17476 0.64078 0.04871 0.0
H1872 H 0.86377 0.54783 0.44288 0.0
H1873 H 0.87006 0.48459 0.43028 0.0
H1874 H 0.84914 0.53465 0.48912 0.0
H1875 H 0.85528 0.47115 0.47757 0.0
H1876 H 0.87361 0.4943 0.57483 0.0
H1877 H 0.87335 0.48816 0.5251 0.0
H1878 H 0.81544 0.50356 0.51619 0.0
H1879 H 0.81659 0.51085 0.56557 0.0
C1880 C 0.86174 0.53088 0.44997 0.0
C1881 C 0.86824 0.51733 0.4331 0.0
C1882 C 0.85303 0.52313 0.47644 0.0
C1883 C 0.85077 0.50168 0.48699 0.0
C1884 C 0.85671 0.48769 0.46991 0.0
C1885 C 0.86511 0.49533 0.44295 0.0
C1886 C 0.8601 0.49527 0.56239 0.0
C1887 C 0.84548 0.50359 0.57382 0.0
C1888 C 0.85993 0.49173 0.53386 0.0
C1889 C 0.84488 0.49614 0.51667 0.0
C1890 C 0.82766 0.50064 0.52887 0.0
C1891 C 0.82816 0.50463 0.55716 0.0
H1892 H 0.33484 0.82641 0.4141 0.0
H1893 H 0.39355 0.89616 0.43664 0.0
H1894 H 0.33388 0.81189 0.46118 0.0
H1895 H 0.39301 0.88178 0.48337 0.0
H1896 H 0.38885 0.85427 0.56675 0.0
H1897 H 0.39548 0.85246 0.51732 0.0
H1898 H 0.32026 0.82707 0.50202 0.0
H1899 H 0.31384 0.82935 0.55111 0.0
C1900 C 0.3483 0.83821 0.4288 0.0
C1901 C 0.36443 0.86227 0.42191 0.0
C1902 C 0.34766 0.82999 0.45573 0.0
C1903 C 0.36333 0.8457 0.476 0.0
C1904 C 0.38094 0.86912 0.46819 0.0
C1905 C 0.38127 0.8774 0.44147 0.0
C1906 C 0.37356 0.84725 0.55293 0.0
C1907 C 0.35085 0.84205 0.56265 0.0
C1908 C 0.3774 0.84639 0.52463 0.0
C1909 C 0.35845 0.83984 0.50577 0.0
C1910 C 0.33519 0.832 0.51598 0.0
C1911 C 0.33149 0.83334 0.54412 0.0
H1912 H 0.53337 0.37475 0.42391 0.0
H1913 H 0.49027 0.29956 0.44488 0.0
H1914 H 0.54883 0.38363 0.47119 0.0
H1915 H 0.50495 0.3082 0.49173 0.0
H1916 H 0.52486 0.32183 0.57573 0.0
H1917 H 0.53353 0.32046 0.52701 0.0
H1918 H 0.53007 0.38524 0.51296 0.0
H1919 H 0.52283 0.3871 0.56189 0.0
C1920 C 0.52788 0.36001 0.43833 0.0
C1921 C 0.51046 0.33647 0.4308 0.0
C1922 C 0.5365 0.36512 0.46553 0.0
C1923 C 0.52795 0.34674 0.48559 0.0
C1924 C 0.51227 0.3229 0.47708 0.0
C1925 C 0.50365 0.31788 0.4501 0.0
C1926 C 0.5274 0.33649 0.56241 0.0
C1927 C 0.52344 0.35468 0.57249 0.0
C1928 C 0.53195 0.33554 0.53438 0.0
C1929 C 0.53177 0.35231 0.51573 0.0
C1930 C 0.53046 0.37202 0.52651 0.0
C1931 C 0.52638 0.37319 0.55467 0.0
H1932 H 0.16713 0.5431 0.41595 0.0
H1933 H 0.20631 0.50776 0.44117 0.0
H1934 H 0.1706 0.55878 0.46254 0.0
H1935 H 0.20937 0.52296 0.48766 0.0
H1936 H 0.20531 0.54397 0.57314 0.0
H1937 H 0.21884 0.55239 0.52495 0.0
H1938 H 0.14647 0.53192 0.49967 0.0
H1939 H 0.13329 0.52369 0.54717 0.0
C1940 C 0.1774 0.53955 0.43107 0.0
C1941 C 0.1859 0.52367 0.42513 0.0
C1942 C 0.17923 0.54838 0.45786 0.0
C1943 C 0.18963 0.54153 0.47902 0.0
C1944 C 0.20116 0.52855 0.47197 0.0
C1945 C 0.19929 0.5197 0.44527 0.0
C1946 C 0.19259 0.542 0.55725 0.0
C1947 C 0.16821 0.53282 0.5637 0.0
C1948 C 0.20027 0.54676 0.52972 0.0
C1949 C 0.18374 0.54275 0.5084 0.0
C1950 C 0.15983 0.53554 0.51544 0.0
C1951 C 0.15216 0.53051 0.5427 0.0
H1952 H 0.66983 0.1686 0.42287 0.0
H1953 H 0.62485 0.09359 0.44332 0.0
H1954 H 0.66866 0.17941 0.4712 0.0
H1955 H 0.62315 0.10421 0.49116 0.0
H1956 H 0.62207 0.12698 0.57663 0.0
H1957 H 0.61305 0.12717 0.52742 0.0
H1958 H 0.68913 0.1687 0.50999 0.0
H1959 H 0.69798 0.16799 0.55872 0.0
C1960 C 0.65882 0.15458 0.43746 0.0
C1961 C 0.6474 0.13031 0.42959 0.0
C1962 C 0.65823 0.16071 0.46507 0.0
C1963 C 0.64585 0.14265 0.48496 0.0
C1964 C 0.63259 0.11856 0.47633 0.0
C1965 C 0.63362 0.11244 0.44897 0.0
C1966 C 0.63674 0.13693 0.56233 0.0
C1967 C 0.6607 0.14744 0.57128 0.0
C1968 C 0.63161 0.13694 0.53423 0.0
C1969 C 0.65039 0.14791 0.51486 0.0
C1970 C 0.67427 0.16036 0.52438 0.0
C1971 C 0.67936 0.15986 0.55226 0.0
H1972 H 0.53308 0.69158 0.5711 0.0
H1973 H 0.47653 0.62071 0.59438 0.0
H1974 H 0.5174 0.68518 0.52444 0.0
H1975 H 0.46064 0.61407 0.54713 0.0
H1976 H 0.48473 0.60424 0.45655 0.0
H1977 H 0.48015 0.60846 0.50564 0.0
H1978 H 0.48528 0.67728 0.49064 0.0
H1979 H 0.48983 0.6728 0.44112 0.0
C1980 C 0.51685 0.67482 0.56634 0.0
C1981 C 0.50618 0.65652 0.5862 0.0
C1982 C 0.50768 0.67123 0.53962 0.0
C1983 C 0.4878 0.64906 0.53196 0.0
C1984 C 0.47604 0.63132 0.5524 0.0
C1985 C 0.48505 0.63512 0.57942 0.0
C1986 C 0.48375 0.61973 0.46366 0.0
C1987 C 0.4876 0.63819 0.44523 0.0
C1988 C 0.48106 0.62216 0.4918 0.0
C1989 C 0.48265 0.64335 0.50214 0.0
C1990 C 0.48416 0.66081 0.48329 0.0
C1991 C 0.48654 0.6582 0.45496 0.0
loop_
_geom_bond_atom_site_label_1
_geom_bond_atom_site_label_2
_geom_bond_distance
_geom_bond_site_symmetry_2
_ccdc_geom_bond_type
C0 C1 1.351 . S
C0 N3 1.368 . S
C0 H5 0.931 . S
C1 C0 1.351 . S
C1 N2 1.373 . S
C1 H29 0.930 . S
N2 C1 1.373 . S
N2 C4 1.340 . S
N3 C0 1.368 . S
N3 C4 1.321 . S
N3 Co6 2.135 . S
C4 N2 1.340 . S
C4 N3 1.321 . S
C4 H28 0.930 . S
H5 C0 0.931 . S
Co6 N3 2.135 . S
Co6 N9 2.121 . S
Co6 O14 2.055 . S
Co6 O17 2.039 . S
Co6 N20 2.140 . S
C7 O8 1.227 . S
C7 O17 1.265 . S
O8 C7 1.227 . S
N9 Co6 2.121 . S
N9 C11 1.375 . S
N9 C12 1.313 . S
C10 C11 1.338 . S
C10 N13 1.377 . S
C10 H30 0.930 . S
C11 N9 1.375 . S
C11 C10 1.338 . S
C11 H15 0.931 . S
C12 N9 1.313 . S
C12 N13 1.344 . S
C12 H16 0.930 . S
N13 C10 1.377 . S
N13 C12 1.344 . S
O14 Co6 2.055 . S
O14 C18 1.253 . S
H15 C11 0.931 . S
H16 C12 0.930 . S
O17 Co6 2.039 . S
O17 C7 1.265 . S
C18 O14 1.253 . S
C18 O19 1.227 . S
O19 C18 1.227 . S
N20 Co6 2.140 . S
N20 C23 1.346 . S
N20 C24 1.345 . S
C21 C22 1.387 . S
C21 C25 1.391 . S
C22 C21 1.387 . S
C22 C23 1.369 . S
C22 H31 0.929 . S
C23 N20 1.346 . S
C23 C22 1.369 . S
C23 H26 0.928 . S
C24 N20 1.345 . S
C24 C25 1.371 . S
C24 H27 0.931 . S
C25 C21 1.391 . S
C25 C24 1.371 . S
C25 H32 0.930 . S
H26 C23 0.928 . S
H27 C24 0.931 . S
H28 C4 0.930 . S
H29 C1 0.930 . S
H30 C10 0.930 . S
H31 C22 0.929 . S
H32 C25 0.930 . S
C33 C34 1.351 . S
C33 N36 1.368 . S
C33 H38 0.931 . S
C34 C33 1.351 . S
C34 N35 1.373 . S
C34 H62 0.930 . S
N35 C34 1.373 . S
N35 C37 1.340 . S
N36 C33 1.368 . S
N36 C37 1.321 . S
N36 Co39 2.135 . S
C37 N35 1.340 . S
C37 N36 1.321 . S
C37 H61 0.930 . S
H38 C33 0.931 . S
Co39 N36 2.135 . S
Co39 N42 2.121 . S
Co39 O47 2.055 . S
Co39 O50 2.039 . S
Co39 N53 2.140 . S
C40 O41 1.227 . S
C40 O50 1.265 . S
O41 C40 1.227 . S
N42 Co39 2.121 . S
N42 C44 1.375 . S
N42 C45 1.313 . S
C43 C44 1.338 . S
C43 N46 1.377 . S
C43 H63 0.930 . S
C44 N42 1.375 . S
C44 C43 1.338 . S
C44 H48 0.931 . S
C45 N42 1.313 . S
C45 N46 1.344 . S
C45 H49 0.930 . S
N46 C43 1.377 . S
N46 C45 1.344 . S
O47 Co39 2.055 . S
O47 C51 1.253 . S
H48 C44 0.931 . S
H49 C45 0.930 . S
O50 Co39 2.039 . S
O50 C40 1.265 . S
C51 O47 1.253 . S
C51 O52 1.227 . S
O52 C51 1.227 . S
N53 Co39 2.140 . S
N53 C56 1.346 . S
N53 C57 1.345 . S
C54 C55 1.387 . S
C54 C58 1.391 . S
C55 C54 1.387 . S
C55 C56 1.369 . S
C55 H64 0.929 . S
C56 N53 1.346 . S
C56 C55 1.369 . S
C56 H59 0.928 . S
C57 N53 1.345 . S
C57 C58 1.371 . S
C57 H60 0.931 . S
C58 C54 1.391 . S
C58 C57 1.371 . S
C58 H65 0.930 . S
H59 C56 0.928 . S
H60 C57 0.931 . S
H61 C37 0.930 . S
H62 C34 0.930 . S
H63 C43 0.930 . S
H64 C55 0.929 . S
H65 C58 0.930 . S
C66 C67 1.351 . S
C66 N69 1.368 . S
C66 H71 0.931 . S
C67 C66 1.351 . S
C67 N68 1.373 . S
C67 H95 0.930 . S
N68 C67 1.373 . S
N68 C70 1.340 . S
N69 C66 1.368 . S
N69 C70 1.321 . S
N69 Co72 2.135 . S
C70 N68 1.340 . S
C70 N69 1.321 . S
C70 H94 0.930 . S
H71 C66 0.931 . S
Co72 N69 2.135 . S
Co72 N75 2.121 . S
Co72 O80 2.055 . S
Co72 O83 2.039 . S
Co72 N86 2.140 . S
C73 O74 1.227 . S
C73 O83 1.265 . S
O74 C73 1.227 . S
N75 Co72 2.121 . S
N75 C77 1.375 . S
N75 C78 1.313 . S
C76 C77 1.338 . S
C76 N79 1.377 . S
C76 H96 0.930 . S
C77 N75 1.375 . S
C77 C76 1.338 . S
C77 H81 0.931 . S
C78 N75 1.313 . S
C78 N79 1.344 . S
C78 H82 0.930 . S
N79 C76 1.377 . S
N79 C78 1.344 . S
O80 Co72 2.055 . S
O80 C84 1.253 . S
H81 C77 0.931 . S
H82 C78 0.930 . S
O83 Co72 2.039 . S
O83 C73 1.265 . S
C84 O80 1.253 . S
C84 O85 1.227 . S
O85 C84 1.227 . S
N86 Co72 2.140 . S
N86 C89 1.346 . S
N86 C90 1.345 . S
C87 C88 1.387 . S
C87 C91 1.391 . S
C88 C87 1.387 . S
C88 C89 1.369 . S
C88 H97 0.929 . S
C89 N86 1.346 . S
C89 C88 1.369 . S
C89 H92 0.928 . S
C90 N86 1.345 . S
C90 C91 1.371 . S
C90 H93 0.931 . S
C91 C87 1.391 . S
C91 C90 1.371 . S
C91 H98 0.930 . S
H92 C89 0.928 . S
H93 C90 0.931 . S
H94 C70 0.930 . S
H95 C67 0.930 . S
H96 C76 0.930 . S
H97 C88 0.929 . S
H98 C91 0.930 . S
C99 C100 1.351 . S
C99 N102 1.368 . S
C99 H104 0.931 . S
C100 C99 1.351 . S
C100 N101 1.373 . S
C100 H128 0.930 . S
N101 C100 1.373 . S
N101 C103 1.340 . S
N102 C99 1.368 . S
N102 C103 1.321 . S
N102 Co105 2.135 . S
C103 N101 1.340 . S
C103 N102 1.321 . S
C103 H127 0.930 . S
H104 C99 0.931 . S
Co105 N102 2.135 . S
Co105 N108 2.121 . S
Co105 O113 2.055 . S
Co105 O116 2.039 . S
Co105 N119 2.140 . S
C106 O107 1.227 . S
C106 O116 1.265 . S
O107 C106 1.227 . S
N108 Co105 2.121 . S
N108 C110 1.375 . S
N108 C111 1.313 . S
C109 C110 1.338 . S
C109 N112 1.377 . S
C109 H129 0.930 . S
C110 N108 1.375 . S
C110 C109 1.338 . S
C110 H114 0.931 . S
C111 N108 1.313 . S
C111 N112 1.344 . S
C111 H115 0.930 . S
N112 C109 1.377 . S
N112 C111 1.344 . S
O113 Co105 2.055 . S
O113 C117 1.253 . S
H114 C110 0.931 . S
H115 C111 0.930 . S
O116 Co105 2.039 . S
O116 C106 1.265 . S
C117 O113 1.253 . S
C117 O118 1.227 . S
O118 C117 1.227 . S
N119 Co105 2.140 . S
N119 C122 1.346 . S
N119 C123 1.345 . S
C120 C121 1.387 . S
C120 C124 1.391 . S
C121 C120 1.387 . S
C121 C122 1.369 . S
C121 H130 0.929 . S
C122 N119 1.346 . S
C122 C121 1.369 . S
C122 H125 0.928 . S
C123 N119 1.345 . S
C123 C124 1.371 . S
C123 H126 0.931 . S
C124 C120 1.391 . S
C124 C123 1.371 . S
C124 H131 0.930 . S
H125 C122 0.928 . S
H126 C123 0.931 . S
H127 C103 0.930 . S
H128 C100 0.930 . S
H129 C109 0.930 . S
H130 C121 0.929 . S
H131 C124 0.930 . S
C132 C133 1.351 . S
C132 N135 1.368 . S
C132 H137 0.931 . S
C133 C132 1.351 . S
C133 N134 1.373 . S
C133 H161 0.930 . S
N134 C133 1.373 . S
N134 C136 1.340 . S
N135 C132 1.368 . S
N135 C136 1.321 . S
N135 Co138 2.135 . S
C136 N134 1.340 . S
C136 N135 1.321 . S
C136 H160 0.930 . S
H137 C132 0.931 . S
Co138 N135 2.135 . S
Co138 N141 2.121 . S
Co138 O146 2.055 . S
Co138 O149 2.039 . S
Co138 N152 2.140 . S
C139 O140 1.227 . S
C139 O149 1.265 . S
O140 C139 1.227 . S
N141 Co138 2.121 . S
N141 C143 1.375 . S
N141 C144 1.313 . S
C142 C143 1.338 . S
C142 N145 1.377 . S
C142 H162 0.930 . S
C143 N141 1.375 . S
C143 C142 1.338 . S
C143 H147 0.931 . S
C144 N141 1.313 . S
C144 N145 1.344 . S
C144 H148 0.930 . S
N145 C142 1.377 . S
N145 C144 1.344 . S
O146 Co138 2.055 . S
O146 C150 1.253 . S
H147 C143 0.931 . S
H148 C144 0.930 . S
O149 Co138 2.039 . S
O149 C139 1.265 . S
C150 O146 1.253 . S
C150 O151 1.227 . S
O151 C150 1.227 . S
N152 Co138 2.140 . S
N152 C155 1.346 . S
N152 C156 1.345 . S
C153 C154 1.387 . S
C153 C157 1.391 . S
C154 C153 1.387 . S
C154 C155 1.369 . S
C154 H163 0.929 . S
C155 N152 1.346 . S
C155 C154 1.369 . S
C155 H158 0.928 . S
C156 N152 1.345 . S
C156 C157 1.371 . S
C156 H159 0.931 . S
C157 C153 1.391 . S
C157 C156 1.371 . S
C157 H164 0.930 . S
H158 C155 0.928 . S
H159 C156 0.931 . S
H160 C136 0.930 . S
H161 C133 0.930 . S
H162 C142 0.930 . S
H163 C154 0.929 . S
H164 C157 0.930 . S
C165 C166 1.351 . S
C165 N168 1.368 . S
C165 H170 0.931 . S
C166 C165 1.351 . S
C166 N167 1.373 . S
C166 H194 0.930 . S
N167 C166 1.373 . S
N167 C169 1.340 . S
N168 C165 1.368 . S
N168 C169 1.321 . S
N168 Co171 2.135 . S
C169 N167 1.340 . S
C169 N168 1.321 . S
C169 H193 0.930 . S
H170 C165 0.931 . S
Co171 N168 2.135 . S
Co171 N174 2.121 . S
Co171 O179 2.055 . S
Co171 O182 2.039 . S
Co171 N185 2.140 . S
C172 O173 1.227 . S
C172 O182 1.265 . S
O173 C172 1.227 . S
N174 Co171 2.121 . S
N174 C176 1.375 . S
N174 C177 1.313 . S
C175 C176 1.338 . S
C175 N178 1.377 . S
C175 H195 0.930 . S
C176 N174 1.375 . S
C176 C175 1.338 . S
C176 H180 0.931 . S
C177 N174 1.313 . S
C177 N178 1.344 . S
C177 H181 0.930 . S
N178 C175 1.377 . S
N178 C177 1.344 . S
O179 Co171 2.055 . S
O179 C183 1.253 . S
H180 C176 0.931 . S
H181 C177 0.930 . S
O182 Co171 2.039 . S
O182 C172 1.265 . S
C183 O179 1.253 . S
C183 O184 1.227 . S
O184 C183 1.227 . S
N185 Co171 2.140 . S
N185 C188 1.346 . S
N185 C189 1.345 . S
C186 C187 1.387 . S
C186 C190 1.391 . S
C187 C186 1.387 . S
C187 C188 1.369 . S
C187 H196 0.929 . S
C188 N185 1.346 . S
C188 C187 1.369 . S
C188 H191 0.928 . S
C189 N185 1.345 . S
C189 C190 1.371 . S
C189 H192 0.931 . S
C190 C186 1.391 . S
C190 C189 1.371 . S
C190 H197 0.930 . S
H191 C188 0.928 . S
H192 C189 0.931 . S
H193 C169 0.930 . S
H194 C166 0.930 . S
H195 C175 0.930 . S
H196 C187 0.929 . S
H197 C190 0.930 . S
C198 C199 1.351 . S
C198 N201 1.368 . S
C198 H203 0.931 . S
C199 C198 1.351 . S
C199 N200 1.373 . S
C199 H227 0.930 . S
N200 C199 1.373 . S
N200 C202 1.340 . S
N201 C198 1.368 . S
N201 C202 1.321 . S
N201 Co204 2.135 . S
C202 N200 1.340 . S
C202 N201 1.321 . S
C202 H226 0.930 . S
H203 C198 0.931 . S
Co204 N201 2.135 . S
Co204 N207 2.121 . S
Co204 O212 2.055 . S
Co204 O215 2.039 . S
Co204 N218 2.140 . S
C205 O206 1.227 . S
C205 O215 1.265 . S
O206 C205 1.227 . S
N207 Co204 2.121 . S
N207 C209 1.375 . S
N207 C210 1.313 . S
C208 C209 1.338 . S
C208 N211 1.377 . S
C208 H228 0.930 . S
C209 N207 1.375 . S
C209 C208 1.338 . S
C209 H213 0.931 . S
C210 N207 1.313 . S
C210 N211 1.344 . S
C210 H214 0.930 . S
N211 C208 1.377 . S
N211 C210 1.344 . S
O212 Co204 2.055 . S
O212 C216 1.253 . S
H213 C209 0.931 . S
H214 C210 0.930 . S
O215 Co204 2.039 . S
O215 C205 1.265 . S
C216 O212 1.253 . S
C216 O217 1.227 . S
O217 C216 1.227 . S
N218 Co204 2.140 . S
N218 C221 1.346 . S
N218 C222 1.345 . S
C219 C220 1.387 . S
C219 C223 1.391 . S
C220 C219 1.387 . S
C220 C221 1.369 . S
C220 H229 0.929 . S
C221 N218 1.346 . S
C221 C220 1.369 . S
C221 H224 0.928 . S
C222 N218 1.345 . S
C222 C223 1.371 . S
C222 H225 0.931 . S
C223 C219 1.391 . S
C223 C222 1.371 . S
C223 H230 0.930 . S
H224 C221 0.928 . S
H225 C222 0.931 . S
H226 C202 0.930 . S
H227 C199 0.930 . S
H228 C208 0.930 . S
H229 C220 0.929 . S
H230 C223 0.930 . S
C231 C232 1.351 . S
C231 N234 1.368 . S
C231 H236 0.931 . S
C232 C231 1.351 . S
C232 N233 1.373 . S
C232 H260 0.930 . S
N233 C232 1.373 . S
N233 C235 1.340 . S
N234 C231 1.368 . S
N234 C235 1.321 . S
N234 Co237 2.135 . S
C235 N233 1.340 . S
C235 N234 1.321 . S
C235 H259 0.930 . S
H236 C231 0.931 . S
Co237 N234 2.135 . S
Co237 N240 2.121 . S
Co237 O245 2.055 . S
Co237 O248 2.039 . S
Co237 N251 2.140 . S
C238 O239 1.227 . S
C238 O248 1.265 . S
O239 C238 1.227 . S
N240 Co237 2.121 . S
N240 C242 1.375 . S
N240 C243 1.313 . S
C241 C242 1.338 . S
C241 N244 1.377 . S
C241 H261 0.930 . S
C242 N240 1.375 . S
C242 C241 1.338 . S
C242 H246 0.931 . S
C243 N240 1.313 . S
C243 N244 1.344 . S
C243 H247 0.930 . S
N244 C241 1.377 . S
N244 C243 1.344 . S
O245 Co237 2.055 . S
O245 C249 1.253 . S
H246 C242 0.931 . S
H247 C243 0.930 . S
O248 Co237 2.039 . S
O248 C238 1.265 . S
C249 O245 1.253 . S
C249 O250 1.227 . S
O250 C249 1.227 . S
N251 Co237 2.140 . S
N251 C254 1.346 . S
N251 C255 1.345 . S
C252 C253 1.387 . S
C252 C256 1.391 . S
C253 C252 1.387 . S
C253 C254 1.369 . S
C253 H262 0.929 . S
C254 N251 1.346 . S
C254 C253 1.369 . S
C254 H257 0.928 . S
C255 N251 1.345 . S
C255 C256 1.371 . S
C255 H258 0.931 . S
C256 C252 1.391 . S
C256 C255 1.371 . S
C256 H263 0.930 . S
H257 C254 0.928 . S
H258 C255 0.931 . S
H259 C235 0.930 . S
H260 C232 0.930 . S
H261 C241 0.930 . S
H262 C253 0.929 . S
H263 C256 0.930 . S
C264 C265 1.351 . S
C264 N267 1.368 . S
C264 H269 0.931 . S
C265 C264 1.351 . S
C265 N266 1.373 . S
C265 H293 0.930 . S
N266 C265 1.373 . S
N266 C268 1.340 . S
N267 C264 1.368 . S
N267 C268 1.321 . S
N267 Co270 2.135 . S
C268 N266 1.340 . S
C268 N267 1.321 . S
C268 H292 0.930 . S
H269 C264 0.931 . S
Co270 N267 2.135 . S
Co270 N273 2.121 . S
Co270 O278 2.055 . S
Co270 O281 2.039 . S
Co270 N284 2.140 . S
C271 O272 1.227 . S
C271 O281 1.265 . S
O272 C271 1.227 . S
N273 Co270 2.121 . S
N273 C275 1.375 . S
N273 C276 1.313 . S
C274 C275 1.338 . S
C274 N277 1.377 . S
C274 H294 0.930 . S
C275 N273 1.375 . S
C275 C274 1.338 . S
C275 H279 0.931 . S
C276 N273 1.313 . S
C276 N277 1.344 . S
C276 H280 0.930 . S
N277 C274 1.377 . S
N277 C276 1.344 . S
O278 Co270 2.055 . S
O278 C282 1.253 . S
H279 C275 0.931 . S
H280 C276 0.930 . S
O281 Co270 2.039 . S
O281 C271 1.265 . S
C282 O278 1.253 . S
C282 O283 1.227 . S
O283 C282 1.227 . S
N284 Co270 2.140 . S
N284 C287 1.346 . S
N284 C288 1.345 . S
C285 C286 1.387 . S
C285 C289 1.391 . S
C286 C285 1.387 . S
C286 C287 1.369 . S
C286 H295 0.929 . S
C287 N284 1.346 . S
C287 C286 1.369 . S
C287 H290 0.928 . S
C288 N284 1.345 . S
C288 C289 1.371 . S
C288 H291 0.931 . S
C289 C285 1.391 . S
C289 C288 1.371 . S
C289 H296 0.930 . S
H290 C287 0.928 . S
H291 C288 0.931 . S
H292 C268 0.930 . S
H293 C265 0.930 . S
H294 C274 0.930 . S
H295 C286 0.929 . S
H296 C289 0.930 . S
C297 C298 1.351 . S
C297 N300 1.368 . S
C297 H302 0.931 . S
C298 C297 1.351 . S
C298 N299 1.373 . S
C298 H326 0.930 . S
N299 C298 1.373 . S
N299 C301 1.340 . S
N300 C297 1.368 . S
N300 C301 1.321 . S
N300 Co303 2.135 . S
C301 N299 1.340 . S
C301 N300 1.321 . S
C301 H325 0.930 . S
H302 C297 0.931 . S
Co303 N300 2.135 . S
Co303 N306 2.121 . S
Co303 O311 2.055 . S
Co303 O314 2.039 . S
Co303 N317 2.140 . S
C304 O305 1.227 . S
C304 O314 1.265 . S
O305 C304 1.227 . S
N306 Co303 2.121 . S
N306 C308 1.375 . S
N306 C309 1.313 . S
C307 C308 1.338 . S
C307 N310 1.377 . S
C307 H327 0.930 . S
C308 N306 1.375 . S
C308 C307 1.338 . S
C308 H312 0.931 . S
C309 N306 1.313 . S
C309 N310 1.344 . S
C309 H313 0.930 . S
N310 C307 1.377 . S
N310 C309 1.344 . S
O311 Co303 2.055 . S
O311 C315 1.253 . S
H312 C308 0.931 . S
H313 C309 0.930 . S
O314 Co303 2.039 . S
O314 C304 1.265 . S
C315 O311 1.253 . S
C315 O316 1.227 . S
O316 C315 1.227 . S
N317 Co303 2.140 . S
N317 C320 1.346 . S
N317 C321 1.345 . S
C318 C319 1.387 . S
C318 C322 1.391 . S
C319 C318 1.387 . S
C319 C320 1.369 . S
C319 H328 0.929 . S
C320 N317 1.346 . S
C320 C319 1.369 . S
C320 H323 0.928 . S
C321 N317 1.345 . S
C321 C322 1.371 . S
C321 H324 0.931 . S
C322 C318 1.391 . S
C322 C321 1.371 . S
C322 H329 0.930 . S
H323 C320 0.928 . S
H324 C321 0.931 . S
H325 C301 0.930 . S
H326 C298 0.930 . S
H327 C307 0.930 . S
H328 C319 0.929 . S
H329 C322 0.930 . S
C330 C331 1.351 . S
C330 N333 1.368 . S
C330 H335 0.931 . S
C331 C330 1.351 . S
C331 N332 1.373 . S
C331 H359 0.930 . S
N332 C331 1.373 . S
N332 C334 1.340 . S
N333 C330 1.368 . S
N333 C334 1.321 . S
N333 Co336 2.135 . S
C334 N332 1.340 . S
C334 N333 1.321 . S
C334 H358 0.930 . S
H335 C330 0.931 . S
Co336 N333 2.135 . S
Co336 N339 2.121 . S
Co336 O344 2.055 . S
Co336 O347 2.039 . S
Co336 N350 2.140 . S
C337 O338 1.227 . S
C337 O347 1.265 . S
O338 C337 1.227 . S
N339 Co336 2.121 . S
N339 C341 1.375 . S
N339 C342 1.313 . S
C340 C341 1.338 . S
C340 N343 1.377 . S
C340 H360 0.930 . S
C341 N339 1.375 . S
C341 C340 1.338 . S
C341 H345 0.931 . S
C342 N339 1.313 . S
C342 N343 1.344 . S
C342 H346 0.930 . S
N343 C340 1.377 . S
N343 C342 1.344 . S
O344 Co336 2.055 . S
O344 C348 1.253 . S
H345 C341 0.931 . S
H346 C342 0.930 . S
O347 Co336 2.039 . S
O347 C337 1.265 . S
C348 O344 1.253 . S
C348 O349 1.227 . S
O349 C348 1.227 . S
N350 Co336 2.140 . S
N350 C353 1.346 . S
N350 C354 1.345 . S
C351 C352 1.387 . S
C351 C355 1.391 . S
C352 C351 1.387 . S
C352 C353 1.369 . S
C352 H361 0.929 . S
C353 N350 1.346 . S
C353 C352 1.369 . S
C353 H356 0.928 . S
C354 N350 1.345 . S
C354 C355 1.371 . S
C354 H357 0.931 . S
C355 C351 1.391 . S
C355 C354 1.371 . S
C355 H362 0.930 . S
H356 C353 0.928 . S
H357 C354 0.931 . S
H358 C334 0.930 . S
H359 C331 0.930 . S
H360 C340 0.930 . S
H361 C352 0.929 . S
H362 C355 0.930 . S
C363 C364 1.351 . S
C363 N366 1.368 . S
C363 H368 0.931 . S
C364 C363 1.351 . S
C364 N365 1.373 . S
C364 H392 0.930 . S
N365 C364 1.373 . S
N365 C367 1.340 . S
N366 C363 1.368 . S
N366 C367 1.321 . S
N366 Co369 2.135 . S
C367 N365 1.340 . S
C367 N366 1.321 . S
C367 H391 0.930 . S
H368 C363 0.931 . S
Co369 N366 2.135 . S
Co369 N372 2.121 . S
Co369 O377 2.055 . S
Co369 O380 2.039 . S
Co369 N383 2.140 . S
C370 O371 1.227 . S
C370 O380 1.265 . S
O371 C370 1.227 . S
N372 Co369 2.121 . S
N372 C374 1.375 . S
N372 C375 1.313 . S
C373 C374 1.338 . S
C373 N376 1.377 . S
C373 H393 0.930 . S
C374 N372 1.375 . S
C374 C373 1.338 . S
C374 H378 0.931 . S
C375 N372 1.313 . S
C375 N376 1.344 . S
C375 H379 0.930 . S
N376 C373 1.377 . S
N376 C375 1.344 . S
O377 Co369 2.055 . S
O377 C381 1.253 . S
H378 C374 0.931 . S
H379 C375 0.930 . S
O380 Co369 2.039 . S
O380 C370 1.265 . S
C381 O377 1.253 . S
C381 O382 1.227 . S
O382 C381 1.227 . S
N383 Co369 2.140 . S
N383 C386 1.346 . S
N383 C387 1.345 . S
C384 C385 1.387 . S
C384 C388 1.391 . S
C385 C384 1.387 . S
C385 C386 1.369 . S
C385 H394 0.929 . S
C386 N383 1.346 . S
C386 C385 1.369 . S
C386 H389 0.928 . S
C387 N383 1.345 . S
C387 C388 1.371 . S
C387 H390 0.931 . S
C388 C384 1.391 . S
C388 C387 1.371 . S
C388 H395 0.930 . S
H389 C386 0.928 . S
H390 C387 0.931 . S
H391 C367 0.930 . S
H392 C364 0.930 . S
H393 C373 0.930 . S
H394 C385 0.929 . S
H395 C388 0.930 . S
C396 C397 1.351 . S
C396 N399 1.368 . S
C396 H401 0.931 . S
C397 C396 1.351 . S
C397 N398 1.373 . S
C397 H425 0.930 . S
N398 C397 1.373 . S
N398 C400 1.340 . S
N399 C396 1.368 . S
N399 C400 1.321 . S
N399 Co402 2.135 . S
C400 N398 1.340 . S
C400 N399 1.321 . S
C400 H424 0.930 . S
H401 C396 0.931 . S
Co402 N399 2.135 . S
Co402 N405 2.121 . S
Co402 O410 2.055 . S
Co402 O413 2.039 . S
Co402 N416 2.140 . S
C403 O404 1.227 . S
C403 O413 1.265 . S
O404 C403 1.227 . S
N405 Co402 2.121 . S
N405 C407 1.375 . S
N405 C408 1.313 . S
C406 C407 1.338 . S
C406 N409 1.377 . S
C406 H426 0.930 . S
C407 N405 1.375 . S
C407 C406 1.338 . S
C407 H411 0.931 . S
C408 N405 1.313 . S
C408 N409 1.344 . S
C408 H412 0.930 . S
N409 C406 1.377 . S
N409 C408 1.344 . S
O410 Co402 2.055 . S
O410 C414 1.253 . S
H411 C407 0.931 . S
H412 C408 0.930 . S
O413 Co402 2.039 . S
O413 C403 1.265 . S
C414 O410 1.253 . S
C414 O415 1.227 . S
O415 C414 1.227 . S
N416 Co402 2.140 . S
N416 C419 1.346 . S
N416 C420 1.345 . S
C417 C418 1.387 . S
C417 C421 1.391 . S
C418 C417 1.387 . S
C418 C419 1.369 . S
C418 H427 0.929 . S
C419 N416 1.346 . S
C419 C418 1.369 . S
C419 H422 0.928 . S
C420 N416 1.345 . S
C420 C421 1.371 . S
C420 H423 0.931 . S
C421 C417 1.391 . S
C421 C420 1.371 . S
C421 H428 0.930 . S
H422 C419 0.928 . S
H423 C420 0.931 . S
H424 C400 0.930 . S
H425 C397 0.930 . S
H426 C406 0.930 . S
H427 C418 0.929 . S
H428 C421 0.930 . S
C429 C430 1.351 . S
C429 N432 1.368 . S
C429 H434 0.931 . S
C430 C429 1.351 . S
C430 N431 1.373 . S
C430 H458 0.930 . S
N431 C430 1.373 . S
N431 C433 1.340 . S
N432 C429 1.368 . S
N432 C433 1.321 . S
N432 Co435 2.135 . S
C433 N431 1.340 . S
C433 N432 1.321 . S
C433 H457 0.930 . S
H434 C429 0.931 . S
Co435 N432 2.135 . S
Co435 N438 2.121 . S
Co435 O443 2.055 . S
Co435 O446 2.039 . S
Co435 N449 2.140 . S
C436 O437 1.227 . S
C436 O446 1.265 . S
O437 C436 1.227 . S
N438 Co435 2.121 . S
N438 C440 1.375 . S
N438 C441 1.313 . S
C439 C440 1.338 . S
C439 N442 1.377 . S
C439 H459 0.930 . S
C440 N438 1.375 . S
C440 C439 1.338 . S
C440 H444 0.931 . S
C441 N438 1.313 . S
C441 N442 1.344 . S
C441 H445 0.930 . S
N442 C439 1.377 . S
N442 C441 1.344 . S
O443 Co435 2.055 . S
O443 C447 1.253 . S
H444 C440 0.931 . S
H445 C441 0.930 . S
O446 Co435 2.039 . S
O446 C436 1.265 . S
C447 O443 1.253 . S
C447 O448 1.227 . S
O448 C447 1.227 . S
N449 Co435 2.140 . S
N449 C452 1.346 . S
N449 C453 1.345 . S
C450 C451 1.387 . S
C450 C454 1.391 . S
C451 C450 1.387 . S
C451 C452 1.369 . S
C451 H460 0.929 . S
C452 N449 1.346 . S
C452 C451 1.369 . S
C452 H455 0.928 . S
C453 N449 1.345 . S
C453 C454 1.371 . S
C453 H456 0.931 . S
C454 C450 1.391 . S
C454 C453 1.371 . S
C454 H461 0.930 . S
H455 C452 0.928 . S
H456 C453 0.931 . S
H457 C433 0.930 . S
H458 C430 0.930 . S
H459 C439 0.930 . S
H460 C451 0.929 . S
H461 C454 0.930 . S
C462 C463 1.351 . S
C462 N465 1.368 . S
C462 H467 0.931 . S
C463 C462 1.351 . S
C463 N464 1.373 . S
C463 H491 0.930 . S
N464 C463 1.373 . S
N464 C466 1.340 . S
N465 C462 1.368 . S
N465 C466 1.321 . S
N465 Co468 2.135 . S
C466 N464 1.340 . S
C466 N465 1.321 . S
C466 H490 0.930 . S
H467 C462 0.931 . S
Co468 N465 2.135 . S
Co468 N471 2.121 . S
Co468 O476 2.055 . S
Co468 O479 2.039 . S
Co468 N482 2.140 . S
C469 O470 1.227 . S
C469 O479 1.265 . S
O470 C469 1.227 . S
N471 Co468 2.121 . S
N471 C473 1.375 . S
N471 C474 1.313 . S
C472 C473 1.338 . S
C472 N475 1.377 . S
C472 H492 0.930 . S
C473 N471 1.375 . S
C473 C472 1.338 . S
C473 H477 0.931 . S
C474 N471 1.313 . S
C474 N475 1.344 . S
C474 H478 0.930 . S
N475 C472 1.377 . S
N475 C474 1.344 . S
O476 Co468 2.055 . S
O476 C480 1.253 . S
H477 C473 0.931 . S
H478 C474 0.930 . S
O479 Co468 2.039 . S
O479 C469 1.265 . S
C480 O476 1.253 . S
C480 O481 1.227 . S
O481 C480 1.227 . S
N482 Co468 2.140 . S
N482 C485 1.346 . S
N482 C486 1.345 . S
C483 C484 1.387 . S
C483 C487 1.391 . S
C484 C483 1.387 . S
C484 C485 1.369 . S
C484 H493 0.929 . S
C485 N482 1.346 . S
C485 C484 1.369 . S
C485 H488 0.928 . S
C486 N482 1.345 . S
C486 C487 1.371 . S
C486 H489 0.931 . S
C487 C483 1.391 . S
C487 C486 1.371 . S
C487 H494 0.930 . S
H488 C485 0.928 . S
H489 C486 0.931 . S
H490 C466 0.930 . S
H491 C463 0.930 . S
H492 C472 0.930 . S
H493 C484 0.929 . S
H494 C487 0.930 . S
C495 C496 1.351 . S
C495 N498 1.368 . S
C495 H500 0.931 . S
C496 C495 1.351 . S
C496 N497 1.373 . S
C496 H524 0.930 . S
N497 C496 1.373 . S
N497 C499 1.340 . S
N498 C495 1.368 . S
N498 C499 1.321 . S
N498 Co501 2.135 . S
C499 N497 1.340 . S
C499 N498 1.321 . S
C499 H523 0.930 . S
H500 C495 0.931 . S
Co501 N498 2.135 . S
Co501 N504 2.121 . S
Co501 O509 2.055 . S
Co501 O512 2.039 . S
Co501 N515 2.140 . S
C502 O503 1.227 . S
C502 O512 1.265 . S
O503 C502 1.227 . S
N504 Co501 2.121 . S
N504 C506 1.375 . S
N504 C507 1.313 . S
C505 C506 1.338 . S
C505 N508 1.377 . S
C505 H525 0.930 . S
C506 N504 1.375 . S
C506 C505 1.338 . S
C506 H510 0.931 . S
C507 N504 1.313 . S
C507 N508 1.344 . S
C507 H511 0.930 . S
N508 C505 1.377 . S
N508 C507 1.344 . S
O509 Co501 2.055 . S
O509 C513 1.253 . S
H510 C506 0.931 . S
H511 C507 0.930 . S
O512 Co501 2.039 . S
O512 C502 1.265 . S
C513 O509 1.253 . S
C513 O514 1.227 . S
O514 C513 1.227 . S
N515 Co501 2.140 . S
N515 C518 1.346 . S
N515 C519 1.345 . S
C516 C517 1.387 . S
C516 C520 1.391 . S
C517 C516 1.387 . S
C517 C518 1.369 . S
C517 H526 0.929 . S
C518 N515 1.346 . S
C518 C517 1.369 . S
C518 H521 0.928 . S
C519 N515 1.345 . S
C519 C520 1.371 . S
C519 H522 0.931 . S
C520 C516 1.391 . S
C520 C519 1.371 . S
C520 H527 0.930 . S
H521 C518 0.928 . S
H522 C519 0.931 . S
H523 C499 0.930 . S
H524 C496 0.930 . S
H525 C505 0.930 . S
H526 C517 0.929 . S
H527 C520 0.930 . S
C528 C529 1.351 . S
C528 N531 1.368 . S
C528 H533 0.931 . S
C529 C528 1.351 . S
C529 N530 1.373 . S
C529 H557 0.930 . S
N530 C529 1.373 . S
N530 C532 1.340 . S
N531 C528 1.368 . S
N531 C532 1.321 . S
N531 Co534 2.135 . S
C532 N530 1.340 . S
C532 N531 1.321 . S
C532 H556 0.930 . S
H533 C528 0.931 . S
Co534 N531 2.135 . S
Co534 N537 2.121 . S
Co534 O542 2.055 . S
Co534 O545 2.039 . S
Co534 N548 2.140 . S
C535 O536 1.227 . S
C535 O545 1.265 . S
O536 C535 1.227 . S
N537 Co534 2.121 . S
N537 C539 1.375 . S
N537 C540 1.313 . S
C538 C539 1.338 . S
C538 N541 1.377 . S
C538 H558 0.930 . S
C539 N537 1.375 . S
C539 C538 1.338 . S
C539 H543 0.931 . S
C540 N537 1.313 . S
C540 N541 1.344 . S
C540 H544 0.930 . S
N541 C538 1.377 . S
N541 C540 1.344 . S
O542 Co534 2.055 . S
O542 C546 1.253 . S
H543 C539 0.931 . S
H544 C540 0.930 . S
O545 Co534 2.039 . S
O545 C535 1.265 . S
C546 O542 1.253 . S
C546 O547 1.227 . S
O547 C546 1.227 . S
N548 Co534 2.140 . S
N548 C551 1.346 . S
N548 C552 1.345 . S
C549 C550 1.387 . S
C549 C553 1.391 . S
C550 C549 1.387 . S
C550 C551 1.369 . S
C550 H559 0.929 . S
C551 N548 1.346 . S
C551 C550 1.369 . S
C551 H554 0.928 . S
C552 N548 1.345 . S
C552 C553 1.371 . S
C552 H555 0.931 . S
C553 C549 1.391 . S
C553 C552 1.371 . S
C553 H560 0.930 . S
H554 C551 0.928 . S
H555 C552 0.931 . S
H556 C532 0.930 . S
H557 C529 0.930 . S
H558 C538 0.930 . S
H559 C550 0.929 . S
H560 C553 0.930 . S
C561 C562 1.351 . S
C561 N564 1.368 . S
C561 H566 0.931 . S
C562 C561 1.351 . S
C562 N563 1.373 . S
C562 H590 0.930 . S
N563 C562 1.373 . S
N563 C565 1.340 . S
N564 C561 1.368 . S
N564 C565 1.321 . S
N564 Co567 2.135 . S
C565 N563 1.340 . S
C565 N564 1.321 . S
C565 H589 0.930 . S
H566 C561 0.931 . S
Co567 N564 2.135 . S
Co567 N570 2.121 . S
Co567 O575 2.055 . S
Co567 O578 2.039 . S
Co567 N581 2.140 . S
C568 O569 1.227 . S
C568 O578 1.265 . S
O569 C568 1.227 . S
N570 Co567 2.121 . S
N570 C572 1.375 . S
N570 C573 1.313 . S
C571 C572 1.338 . S
C571 N574 1.377 . S
C571 H591 0.930 . S
C572 N570 1.375 . S
C572 C571 1.338 . S
C572 H576 0.931 . S
C573 N570 1.313 . S
C573 N574 1.344 . S
C573 H577 0.930 . S
N574 C571 1.377 . S
N574 C573 1.344 . S
O575 Co567 2.055 . S
O575 C579 1.253 . S
H576 C572 0.931 . S
H577 C573 0.930 . S
O578 Co567 2.039 . S
O578 C568 1.265 . S
C579 O575 1.253 . S
C579 O580 1.227 . S
O580 C579 1.227 . S
N581 Co567 2.140 . S
N581 C584 1.346 . S
N581 C585 1.345 . S
C582 C583 1.387 . S
C582 C586 1.391 . S
C583 C582 1.387 . S
C583 C584 1.369 . S
C583 H592 0.929 . S
C584 N581 1.346 . S
C584 C583 1.369 . S
C584 H587 0.928 . S
C585 N581 1.345 . S
C585 C586 1.371 . S
C585 H588 0.931 . S
C586 C582 1.391 . S
C586 C585 1.371 . S
C586 H593 0.930 . S
H587 C584 0.928 . S
H588 C585 0.931 . S
H589 C565 0.930 . S
H590 C562 0.930 . S
H591 C571 0.930 . S
H592 C583 0.929 . S
H593 C586 0.930 . S
C594 C595 1.351 . S
C594 N597 1.368 . S
C594 H599 0.931 . S
C595 C594 1.351 . S
C595 N596 1.373 . S
C595 H623 0.930 . S
N596 C595 1.373 . S
N596 C598 1.340 . S
N597 C594 1.368 . S
N597 C598 1.321 . S
N597 Co600 2.135 . S
C598 N596 1.340 . S
C598 N597 1.321 . S
C598 H622 0.930 . S
H599 C594 0.931 . S
Co600 N597 2.135 . S
Co600 N603 2.121 . S
Co600 O608 2.055 . S
Co600 O611 2.039 . S
Co600 N614 2.140 . S
C601 O602 1.227 . S
C601 O611 1.265 . S
O602 C601 1.227 . S
N603 Co600 2.121 . S
N603 C605 1.375 . S
N603 C606 1.313 . S
C604 C605 1.338 . S
C604 N607 1.377 . S
C604 H624 0.930 . S
C605 N603 1.375 . S
C605 C604 1.338 . S
C605 H609 0.931 . S
C606 N603 1.313 . S
C606 N607 1.344 . S
C606 H610 0.930 . S
N607 C604 1.377 . S
N607 C606 1.344 . S
O608 Co600 2.055 . S
O608 C612 1.253 . S
H609 C605 0.931 . S
H610 C606 0.930 . S
O611 Co600 2.039 . S
O611 C601 1.265 . S
C612 O608 1.253 . S
C612 O613 1.227 . S
O613 C612 1.227 . S
N614 Co600 2.140 . S
N614 C617 1.346 . S
N614 C618 1.345 . S
C615 C616 1.387 . S
C615 C619 1.391 . S
C616 C615 1.387 . S
C616 C617 1.369 . S
C616 H625 0.929 . S
C617 N614 1.346 . S
C617 C616 1.369 . S
C617 H620 0.928 . S
C618 N614 1.345 . S
C618 C619 1.371 . S
C618 H621 0.931 . S
C619 C615 1.391 . S
C619 C618 1.371 . S
C619 H626 0.930 . S
H620 C617 0.928 . S
H621 C618 0.931 . S
H622 C598 0.930 . S
H623 C595 0.930 . S
H624 C604 0.930 . S
H625 C616 0.929 . S
H626 C619 0.930 . S
C627 C628 1.351 . S
C627 N630 1.368 . S
C627 H632 0.931 . S
C628 C627 1.351 . S
C628 N629 1.373 . S
C628 H656 0.930 . S
N629 C628 1.373 . S
N629 C631 1.340 . S
N630 C627 1.368 . S
N630 C631 1.321 . S
N630 Co633 2.135 . S
C631 N629 1.340 . S
C631 N630 1.321 . S
C631 H655 0.930 . S
H632 C627 0.931 . S
Co633 N630 2.135 . S
Co633 N636 2.121 . S
Co633 O641 2.055 . S
Co633 O644 2.039 . S
Co633 N647 2.140 . S
C634 O635 1.227 . S
C634 O644 1.265 . S
O635 C634 1.227 . S
N636 Co633 2.121 . S
N636 C638 1.375 . S
N636 C639 1.313 . S
C637 C638 1.338 . S
C637 N640 1.377 . S
C637 H657 0.930 . S
C638 N636 1.375 . S
C638 C637 1.338 . S
C638 H642 0.931 . S
C639 N636 1.313 . S
C639 N640 1.344 . S
C639 H643 0.930 . S
N640 C637 1.377 . S
N640 C639 1.344 . S
O641 Co633 2.055 . S
O641 C645 1.253 . S
H642 C638 0.931 . S
H643 C639 0.930 . S
O644 Co633 2.039 . S
O644 C634 1.265 . S
C645 O641 1.253 . S
C645 O646 1.227 . S
O646 C645 1.227 . S
N647 Co633 2.140 . S
N647 C650 1.346 . S
N647 C651 1.345 . S
C648 C649 1.387 . S
C648 C652 1.391 . S
C649 C648 1.387 . S
C649 C650 1.369 . S
C649 H658 0.929 . S
C650 N647 1.346 . S
C650 C649 1.369 . S
C650 H653 0.928 . S
C651 N647 1.345 . S
C651 C652 1.371 . S
C651 H654 0.931 . S
C652 C648 1.391 . S
C652 C651 1.371 . S
C652 H659 0.930 . S
H653 C650 0.928 . S
H654 C651 0.931 . S
H655 C631 0.930 . S
H656 C628 0.930 . S
H657 C637 0.930 . S
H658 C649 0.929 . S
H659 C652 0.930 . S
C660 C661 1.351 . S
C660 N663 1.368 . S
C660 H665 0.931 . S
C661 C660 1.351 . S
C661 N662 1.373 . S
C661 H689 0.930 . S
N662 C661 1.373 . S
N662 C664 1.340 . S
N663 C660 1.368 . S
N663 C664 1.321 . S
N663 Co666 2.135 . S
C664 N662 1.340 . S
C664 N663 1.321 . S
C664 H688 0.930 . S
H665 C660 0.931 . S
Co666 N663 2.135 . S
Co666 N669 2.121 . S
Co666 O674 2.055 . S
Co666 O677 2.039 . S
Co666 N680 2.140 . S
C667 O668 1.227 . S
C667 O677 1.265 . S
O668 C667 1.227 . S
N669 Co666 2.121 . S
N669 C671 1.375 . S
N669 C672 1.313 . S
C670 C671 1.338 . S
C670 N673 1.377 . S
C670 H690 0.930 . S
C671 N669 1.375 . S
C671 C670 1.338 . S
C671 H675 0.931 . S
C672 N669 1.313 . S
C672 N673 1.344 . S
C672 H676 0.930 . S
N673 C670 1.377 . S
N673 C672 1.344 . S
O674 Co666 2.055 . S
O674 C678 1.253 . S
H675 C671 0.931 . S
H676 C672 0.930 . S
O677 Co666 2.039 . S
O677 C667 1.265 . S
C678 O674 1.253 . S
C678 O679 1.227 . S
O679 C678 1.227 . S
N680 Co666 2.140 . S
N680 C683 1.346 . S
N680 C684 1.345 . S
C681 C682 1.387 . S
C681 C685 1.391 . S
C682 C681 1.387 . S
C682 C683 1.369 . S
C682 H691 0.929 . S
C683 N680 1.346 . S
C683 C682 1.369 . S
C683 H686 0.928 . S
C684 N680 1.345 . S
C684 C685 1.371 . S
C684 H687 0.931 . S
C685 C681 1.391 . S
C685 C684 1.371 . S
C685 H692 0.930 . S
H686 C683 0.928 . S
H687 C684 0.931 . S
H688 C664 0.930 . S
H689 C661 0.930 . S
H690 C670 0.930 . S
H691 C682 0.929 . S
H692 C685 0.930 . S
C693 C694 1.351 . S
C693 N696 1.368 . S
C693 H698 0.931 . S
C694 C693 1.351 . S
C694 N695 1.373 . S
C694 H722 0.930 . S
N695 C694 1.373 . S
N695 C697 1.340 . S
N696 C693 1.368 . S
N696 C697 1.321 . S
N696 Co699 2.135 . S
C697 N695 1.340 . S
C697 N696 1.321 . S
C697 H721 0.930 . S
H698 C693 0.931 . S
Co699 N696 2.135 . S
Co699 N702 2.121 . S
Co699 O707 2.055 . S
Co699 O710 2.039 . S
Co699 N713 2.140 . S
C700 O701 1.227 . S
C700 O710 1.265 . S
O701 C700 1.227 . S
N702 Co699 2.121 . S
N702 C704 1.375 . S
N702 C705 1.313 . S
C703 C704 1.338 . S
C703 N706 1.377 . S
C703 H723 0.930 . S
C704 N702 1.375 . S
C704 C703 1.338 . S
C704 H708 0.931 . S
C705 N702 1.313 . S
C705 N706 1.344 . S
C705 H709 0.930 . S
N706 C703 1.377 . S
N706 C705 1.344 . S
O707 Co699 2.055 . S
O707 C711 1.253 . S
H708 C704 0.931 . S
H709 C705 0.930 . S
O710 Co699 2.039 . S
O710 C700 1.265 . S
C711 O707 1.253 . S
C711 O712 1.227 . S
O712 C711 1.227 . S
N713 Co699 2.140 . S
N713 C716 1.346 . S
N713 C717 1.345 . S
C714 C715 1.387 . S
C714 C718 1.391 . S
C715 C714 1.387 . S
C715 C716 1.369 . S
C715 H724 0.929 . S
C716 N713 1.346 . S
C716 C715 1.369 . S
C716 H719 0.928 . S
C717 N713 1.345 . S
C717 C718 1.371 . S
C717 H720 0.931 . S
C718 C714 1.391 . S
C718 C717 1.371 . S
C718 H725 0.930 . S
H719 C716 0.928 . S
H720 C717 0.931 . S
H721 C697 0.930 . S
H722 C694 0.930 . S
H723 C703 0.930 . S
H724 C715 0.929 . S
H725 C718 0.930 . S
C726 C727 1.351 . S
C726 N729 1.368 . S
C726 H731 0.931 . S
C727 C726 1.351 . S
C727 N728 1.373 . S
C727 H755 0.930 . S
N728 C727 1.373 . S
N728 C730 1.340 . S
N729 C726 1.368 . S
N729 C730 1.321 . S
N729 Co732 2.135 . S
C730 N728 1.340 . S
C730 N729 1.321 . S
C730 H754 0.930 . S
H731 C726 0.931 . S
Co732 N729 2.135 . S
Co732 N735 2.121 . S
Co732 O740 2.055 . S
Co732 O743 2.039 . S
Co732 N746 2.140 . S
C733 O734 1.227 . S
C733 O743 1.265 . S
O734 C733 1.227 . S
N735 Co732 2.121 . S
N735 C737 1.375 . S
N735 C738 1.313 . S
C736 C737 1.338 . S
C736 N739 1.377 . S
C736 H756 0.930 . S
C737 N735 1.375 . S
C737 C736 1.338 . S
C737 H741 0.931 . S
C738 N735 1.313 . S
C738 N739 1.344 . S
C738 H742 0.930 . S
N739 C736 1.377 . S
N739 C738 1.344 . S
O740 Co732 2.055 . S
O740 C744 1.253 . S
H741 C737 0.931 . S
H742 C738 0.930 . S
O743 Co732 2.039 . S
O743 C733 1.265 . S
C744 O740 1.253 . S
C744 O745 1.227 . S
O745 C744 1.227 . S
N746 Co732 2.140 . S
N746 C749 1.346 . S
N746 C750 1.345 . S
C747 C748 1.387 . S
C747 C751 1.391 . S
C748 C747 1.387 . S
C748 C749 1.369 . S
C748 H757 0.929 . S
C749 N746 1.346 . S
C749 C748 1.369 . S
C749 H752 0.928 . S
C750 N746 1.345 . S
C750 C751 1.371 . S
C750 H753 0.931 . S
C751 C747 1.391 . S
C751 C750 1.371 . S
C751 H758 0.930 . S
H752 C749 0.928 . S
H753 C750 0.931 . S
H754 C730 0.930 . S
H755 C727 0.930 . S
H756 C736 0.930 . S
H757 C748 0.929 . S
H758 C751 0.930 . S
C759 C760 1.351 . S
C759 N762 1.368 . S
C759 H764 0.931 . S
C760 C759 1.351 . S
C760 N761 1.373 . S
C760 H788 0.930 . S
N761 C760 1.373 . S
N761 C763 1.340 . S
N762 C759 1.368 . S
N762 C763 1.321 . S
N762 Co765 2.135 . S
C763 N761 1.340 . S
C763 N762 1.321 . S
C763 H787 0.930 . S
H764 C759 0.931 . S
Co765 N762 2.135 . S
Co765 N768 2.121 . S
Co765 O773 2.055 . S
Co765 O776 2.039 . S
Co765 N779 2.140 . S
C766 O767 1.227 . S
C766 O776 1.265 . S
O767 C766 1.227 . S
N768 Co765 2.121 . S
N768 C770 1.375 . S
N768 C771 1.313 . S
C769 C770 1.338 . S
C769 N772 1.377 . S
C769 H789 0.930 . S
C770 N768 1.375 . S
C770 C769 1.338 . S
C770 H774 0.931 . S
C771 N768 1.313 . S
C771 N772 1.344 . S
C771 H775 0.930 . S
N772 C769 1.377 . S
N772 C771 1.344 . S
O773 Co765 2.055 . S
O773 C777 1.253 . S
H774 C770 0.931 . S
H775 C771 0.930 . S
O776 Co765 2.039 . S
O776 C766 1.265 . S
C777 O773 1.253 . S
C777 O778 1.227 . S
O778 C777 1.227 . S
N779 Co765 2.140 . S
N779 C782 1.346 . S
N779 C783 1.345 . S
C780 C781 1.387 . S
C780 C784 1.391 . S
C781 C780 1.387 . S
C781 C782 1.369 . S
C781 H790 0.929 . S
C782 N779 1.346 . S
C782 C781 1.369 . S
C782 H785 0.928 . S
C783 N779 1.345 . S
C783 C784 1.371 . S
C783 H786 0.931 . S
C784 C780 1.391 . S
C784 C783 1.371 . S
C784 H791 0.930 . S
H785 C782 0.928 . S
H786 C783 0.931 . S
H787 C763 0.930 . S
H788 C760 0.930 . S
H789 C769 0.930 . S
H790 C781 0.929 . S
H791 C784 0.930 . S
H792 C800 0.950 . S
H793 C805 0.950 . S
H794 C802 0.950 . S
H795 C804 0.950 . S
H796 C806 0.950 . S
H797 C808 0.950 . S
H798 C810 0.950 . S
H799 C811 0.950 . S
C800 H792 0.950 . S
C800 C801 1.386 . S
C800 C802 1.391 . S
C801 C800 1.386 . S
C801 C805 1.393 . S
C802 H794 0.950 . S
C802 C800 1.391 . S
C802 C803 1.400 . S
C803 C802 1.400 . S
C803 C804 1.398 . S
C803 C809 1.491 1_545 S
C804 H795 0.950 . S
C804 C803 1.398 . S
C804 C805 1.391 . S
C805 H793 0.950 . S
C805 C801 1.393 . S
C805 C804 1.391 . S
C806 H796 0.950 . S
C806 C807 1.386 . S
C806 C808 1.391 . S
C807 C806 1.386 . S
C807 C811 1.393 . S
C808 H797 0.950 . S
C808 C806 1.391 . S
C808 C809 1.400 . S
C809 C803 1.491 1_565 S
C809 C808 1.400 . S
C809 C810 1.398 . S
C810 H798 0.950 . S
C810 C809 1.398 . S
C810 C811 1.391 . S
C811 H799 0.950 . S
C811 C807 1.393 . S
C811 C810 1.391 . S
H812 C820 0.950 . S
H813 C825 0.950 . S
H814 C822 0.950 . S
H815 C824 0.950 . S
H816 C826 0.950 . S
H817 C828 0.950 . S
H818 C830 0.950 . S
H819 C831 0.950 . S
C820 H812 0.950 . S
C820 C821 1.386 . S
C820 C822 1.391 . S
C821 C820 1.386 . S
C821 C825 1.393 . S
C822 H814 0.950 . S
C822 C820 1.391 . S
C822 C823 1.400 . S
C823 C822 1.400 . S
C823 C824 1.398 . S
C823 C829 1.491 . S
C824 H815 0.950 . S
C824 C823 1.398 . S
C824 C825 1.391 . S
C825 H813 0.950 . S
C825 C821 1.393 . S
C825 C824 1.391 . S
C826 H816 0.950 . S
C826 C827 1.386 . S
C826 C828 1.391 . S
C827 C826 1.386 . S
C827 C831 1.393 . S
C828 H817 0.950 . S
C828 C826 1.391 . S
C828 C829 1.400 . S
C829 C823 1.491 . S
C829 C828 1.400 . S
C829 C830 1.398 . S
C830 H818 0.950 . S
C830 C829 1.398 . S
C830 C831 1.391 . S
C831 H819 0.950 . S
C831 C827 1.393 . S
C831 C830 1.391 . S
H832 C840 0.950 . S
H833 C845 0.950 . S
H834 C842 0.950 . S
H835 C844 0.950 . S
H836 C846 0.950 . S
H837 C848 0.950 . S
H838 C850 0.950 . S
H839 C851 0.950 . S
C840 H832 0.950 . S
C840 C841 1.386 . S
C840 C842 1.391 . S
C841 C840 1.386 . S
C841 C845 1.393 . S
C842 H834 0.950 . S
C842 C840 1.391 . S
C842 C843 1.400 . S
C843 C842 1.400 . S
C843 C844 1.398 . S
C843 C849 1.491 1_455 S
C844 H835 0.950 . S
C844 C843 1.398 . S
C844 C845 1.391 . S
C845 H833 0.950 . S
C845 C841 1.393 . S
C845 C844 1.391 . S
C846 H836 0.950 . S
C846 C847 1.386 . S
C846 C848 1.391 . S
C847 C846 1.386 . S
C847 C851 1.393 . S
C848 H837 0.950 . S
C848 C846 1.391 . S
C848 C849 1.400 . S
C849 C843 1.491 1_655 S
C849 C848 1.400 . S
C849 C850 1.398 . S
C850 H838 0.950 . S
C850 C849 1.398 . S
C850 C851 1.391 . S
C851 H839 0.950 . S
C851 C847 1.393 . S
C851 C850 1.391 . S
H852 C860 0.950 . S
H853 C865 0.950 . S
H854 C862 0.950 . S
H855 C864 0.950 1_655 S
H856 C866 0.950 . S
H857 C868 0.950 . S
H858 C870 0.950 1_455 S
H859 C871 0.950 . S
C860 H852 0.950 . S
C860 C861 1.386 . S
C860 C862 1.391 . S
C861 C860 1.386 . S
C861 C865 1.393 . S
C862 H854 0.950 . S
C862 C860 1.391 . S
C862 C863 1.400 . S
C863 C862 1.400 . S
C863 C864 1.398 . S
C863 C869 1.491 1_455 S
C864 H855 0.950 1_455 S
C864 C863 1.398 . S
C864 C865 1.391 . S
C865 H853 0.950 . S
C865 C861 1.393 . S
C865 C864 1.391 . S
C866 H856 0.950 . S
C866 C867 1.386 . S
C866 C868 1.391 . S
C867 C866 1.386 . S
C867 C871 1.393 . S
C868 H857 0.950 . S
C868 C866 1.391 . S
C868 C869 1.400 . S
C869 C863 1.491 1_655 S
C869 C868 1.400 . S
C869 C870 1.398 . S
C870 H858 0.950 1_655 S
C870 C869 1.398 . S
C870 C871 1.391 . S
C871 H859 0.950 . S
C871 C867 1.393 . S
C871 C870 1.391 . S
H872 C880 0.950 . S
H873 C885 0.950 . S
H874 C882 0.950 . S
H875 C884 0.950 . S
H876 C886 0.950 . S
H877 C888 0.950 . S
H878 C890 0.950 . S
H879 C891 0.950 . S
C880 H872 0.950 . S
C880 C881 1.386 . S
C880 C882 1.391 . S
C881 C880 1.386 . S
C881 C885 1.393 . S
C882 H874 0.950 . S
C882 C880 1.391 . S
C882 C883 1.400 . S
C883 C882 1.400 . S
C883 C884 1.398 . S
C883 C889 1.491 1_565 S
C884 H875 0.950 . S
C884 C883 1.398 . S
C884 C885 1.391 . S
C885 H873 0.950 . S
C885 C881 1.393 . S
C885 C884 1.391 . S
C886 H876 0.950 . S
C886 C887 1.386 . S
C886 C888 1.391 . S
C887 C886 1.386 . S
C887 C891 1.393 . S
C888 H877 0.950 . S
C888 C886 1.391 . S
C888 C889 1.400 . S
C889 C883 1.491 1_545 S
C889 C888 1.400 . S
C889 C890 1.398 . S
C890 H878 0.950 . S
C890 C889 1.398 . S
C890 C891 1.391 . S
C891 H879 0.950 . S
C891 C887 1.393 . S
C891 C890 1.391 . S
H892 C900 0.950 . S
H893 C905 0.950 . S
H894 C902 0.950 . S
H895 C904 0.950 . S
H896 C906 0.950 . S
H897 C908 0.950 . S
H898 C910 0.950 . S
H899 C911 0.950 . S
C900 H892 0.950 . S
C900 C901 1.386 . S
C900 C902 1.391 . S
C901 C900 1.386 . S
C901 C905 1.393 . S
C902 H894 0.950 . S
C902 C900 1.391 . S
C902 C903 1.400 . S
C903 C902 1.400 . S
C903 C904 1.398 . S
C903 C909 1.491 . S
C904 H895 0.950 . S
C904 C903 1.398 . S
C904 C905 1.391 . S
C905 H893 0.950 . S
C905 C901 1.393 . S
C905 C904 1.391 . S
C906 H896 0.950 . S
C906 C907 1.386 . S
C906 C908 1.391 . S
C907 C906 1.386 . S
C907 C911 1.393 . S
C908 H897 0.950 . S
C908 C906 1.391 . S
C908 C909 1.400 . S
C909 C903 1.491 . S
C909 C908 1.400 . S
C909 C910 1.398 . S
C910 H898 0.950 . S
C910 C909 1.398 . S
C910 C911 1.391 . S
C911 H899 0.950 . S
C911 C907 1.393 . S
C911 C910 1.391 . S
H912 C920 0.950 . S
H913 C925 0.950 . S
H914 C922 0.950 . S
H915 C924 0.950 . S
H916 C926 0.950 . S
H917 C928 0.950 . S
H918 C930 0.950 . S
H919 C931 0.950 . S
C920 H912 0.950 . S
C920 C921 1.386 . S
C920 C922 1.391 . S
C921 C920 1.386 . S
C921 C925 1.393 . S
C922 H914 0.950 . S
C922 C920 1.391 . S
C922 C923 1.400 . S
C923 C922 1.400 . S
C923 C924 1.398 . S
C923 C929 1.491 1_545 S
C924 H915 0.950 . S
C924 C923 1.398 . S
C924 C925 1.391 . S
C925 H913 0.950 . S
C925 C921 1.393 . S
C925 C924 1.391 . S
C926 H916 0.950 . S
C926 C927 1.386 . S
C926 C928 1.391 . S
C927 C926 1.386 . S
C927 C931 1.393 . S
C928 H917 0.950 . S
C928 C926 1.391 . S
C928 C929 1.400 . S
C929 C923 1.491 1_565 S
C929 C928 1.400 . S
C929 C930 1.398 . S
C930 H918 0.950 . S
C930 C929 1.398 . S
C930 C931 1.391 . S
C931 H919 0.950 . S
C931 C927 1.393 . S
C931 C930 1.391 . S
H932 C940 0.950 . S
H933 C945 0.950 . S
H934 C942 0.950 . S
H935 C944 0.950 . S
H936 C946 0.950 . S
H937 C948 0.950 . S
H938 C950 0.950 . S
H939 C951 0.950 . S
C940 H932 0.950 . S
C940 C941 1.386 . S
C940 C942 1.391 . S
C941 C940 1.386 . S
C941 C945 1.393 . S
C942 H934 0.950 . S
C942 C940 1.391 . S
C942 C943 1.400 . S
C943 C942 1.400 . S
C943 C944 1.398 . S
C943 C949 1.491 . S
C944 H935 0.950 . S
C944 C943 1.398 . S
C944 C945 1.391 . S
C945 H933 0.950 . S
C945 C941 1.393 . S
C945 C944 1.391 . S
C946 H936 0.950 . S
C946 C947 1.386 . S
C946 C948 1.391 . S
C947 C946 1.386 . S
C947 C951 1.393 . S
C948 H937 0.950 . S
C948 C946 1.391 . S
C948 C949 1.400 . S
C949 C943 1.491 . S
C949 C948 1.400 . S
C949 C950 1.398 . S
C950 H938 0.950 . S
C950 C949 1.398 . S
C950 C951 1.391 . S
C951 H939 0.950 . S
C951 C947 1.393 . S
C951 C950 1.391 . S
H952 C960 0.950 . S
H953 C965 0.950 . S
H954 C962 0.950 . S
H955 C964 0.950 . S
H956 C966 0.950 . S
H957 C968 0.950 . S
H958 C970 0.950 . S
H959 C971 0.950 . S
C960 H952 0.950 . S
C960 C961 1.386 . S
C960 C962 1.391 . S
C961 C960 1.386 . S
C961 C965 1.393 . S
C962 H954 0.950 . S
C962 C960 1.391 . S
C962 C963 1.400 . S
C963 C962 1.400 . S
C963 C964 1.398 . S
C963 C969 1.491 1_655 S
C964 H955 0.950 . S
C964 C963 1.398 . S
C964 C965 1.391 . S
C965 H953 0.950 . S
C965 C961 1.393 . S
C965 C964 1.391 . S
C966 H956 0.950 . S
C966 C967 1.386 . S
C966 C968 1.391 . S
C967 C966 1.386 . S
C967 C971 1.393 . S
C968 H957 0.950 . S
C968 C966 1.391 . S
C968 C969 1.400 . S
C969 C963 1.491 1_455 S
C969 C968 1.400 . S
C969 C970 1.398 . S
C970 H958 0.950 . S
C970 C969 1.398 . S
C970 C971 1.391 . S
C971 H959 0.950 . S
C971 C967 1.393 . S
C971 C970 1.391 . S
H972 C980 0.950 . S
H973 C985 0.950 . S
H974 C982 0.950 . S
H975 C984 0.950 . S
H976 C986 0.950 . S
H977 C988 0.950 . S
H978 C990 0.950 . S
H979 C991 0.950 . S
C980 H972 0.950 . S
C980 C981 1.386 . S
C980 C982 1.391 . S
C981 C980 1.386 . S
C981 C985 1.393 . S
C982 H974 0.950 . S
C982 C980 1.391 . S
C982 C983 1.400 . S
C983 C982 1.400 . S
C983 C984 1.398 . S
C983 C989 1.491 1_655 S
C984 H975 0.950 . S
C984 C983 1.398 . S
C984 C985 1.391 . S
C985 H973 0.950 . S
C985 C981 1.393 . S
C985 C984 1.391 . S
C986 H976 0.950 . S
C986 C987 1.386 . S
C986 C988 1.391 . S
C987 C986 1.386 . S
C987 C991 1.393 . S
C988 H977 0.950 . S
C988 C986 1.391 . S
C988 C989 1.400 . S
C989 C983 1.491 1_455 S
C989 C988 1.400 . S
C989 C990 1.398 . S
C990 H978 0.950 . S
C990 C989 1.398 . S
C990 C991 1.391 . S
C991 H979 0.950 . S
C991 C987 1.393 . S
C991 C990 1.391 . S
H992 C1000 0.950 . S
H993 C1005 0.950 . S
H994 C1002 0.950 1_565 S
H995 C1004 0.950 . S
H996 C1006 0.950 . S
H997 C1008 0.950 1_545 S
H998 C1010 0.950 . S
H999 C1011 0.950 . S
C1000 H992 0.950 . S
C1000 C1001 1.386 . S
C1000 C1002 1.391 . S
C1001 C1000 1.386 . S
C1001 C1005 1.393 . S
C1002 H994 0.950 1_545 S
C1002 C1000 1.391 . S
C1002 C1003 1.400 . S
C1003 C1002 1.400 . S
C1003 C1004 1.398 . S
C1003 C1009 1.491 1_545 S
C1004 H995 0.950 . S
C1004 C1003 1.398 . S
C1004 C1005 1.391 . S
C1005 H993 0.950 . S
C1005 C1001 1.393 . S
C1005 C1004 1.391 . S
C1006 H996 0.950 . S
C1006 C1007 1.386 . S
C1006 C1008 1.391 . S
C1007 C1006 1.386 . S
C1007 C1011 1.393 . S
C1008 H997 0.950 1_565 S
C1008 C1006 1.391 . S
C1008 C1009 1.400 . S
C1009 C1003 1.491 1_565 S
C1009 C1008 1.400 . S
C1009 C1010 1.398 . S
C1010 H998 0.950 . S
C1010 C1009 1.398 . S
C1010 C1011 1.391 . S
C1011 H999 0.950 . S
C1011 C1007 1.393 . S
C1011 C1010 1.391 . S
H1012 C1020 0.950 . S
H1013 C1025 0.950 . S
H1014 C1022 0.950 . S
H1015 C1024 0.950 . S
H1016 C1026 0.950 . S
H1017 C1028 0.950 . S
H1018 C1030 0.950 . S
H1019 C1031 0.950 . S
C1020 H1012 0.950 . S
C1020 C1021 1.386 . S
C1020 C1022 1.391 . S
C1021 C1020 1.386 . S
C1021 C1025 1.393 . S
C1022 H1014 0.950 . S
C1022 C1020 1.391 . S
C1022 C1023 1.400 . S
C1023 C1022 1.400 . S
C1023 C1024 1.398 . S
C1023 C1029 1.491 . S
C1024 H1015 0.950 . S
C1024 C1023 1.398 . S
C1024 C1025 1.391 . S
C1025 H1013 0.950 . S
C1025 C1021 1.393 . S
C1025 C1024 1.391 . S
C1026 H1016 0.950 . S
C1026 C1027 1.386 . S
C1026 C1028 1.391 . S
C1027 C1026 1.386 . S
C1027 C1031 1.393 . S
C1028 H1017 0.950 . S
C1028 C1026 1.391 . S
C1028 C1029 1.400 . S
C1029 C1023 1.491 . S
C1029 C1028 1.400 . S
C1029 C1030 1.398 . S
C1030 H1018 0.950 . S
C1030 C1029 1.398 . S
C1030 C1031 1.391 . S
C1031 H1019 0.950 . S
C1031 C1027 1.393 . S
C1031 C1030 1.391 . S
H1032 C1040 0.950 . S
H1033 C1045 0.950 . S
H1034 C1042 0.950 . S
H1035 C1044 0.950 . S
H1036 C1046 0.950 . S
H1037 C1048 0.950 . S
H1038 C1050 0.950 . S
H1039 C1051 0.950 . S
C1040 H1032 0.950 . S
C1040 C1041 1.386 . S
C1040 C1042 1.391 . S
C1041 C1040 1.386 . S
C1041 C1045 1.393 . S
C1042 H1034 0.950 . S
C1042 C1040 1.391 . S
C1042 C1043 1.400 . S
C1043 C1042 1.400 . S
C1043 C1044 1.398 . S
C1043 C1049 1.491 . S
C1044 H1035 0.950 . S
C1044 C1043 1.398 . S
C1044 C1045 1.391 . S
C1045 H1033 0.950 . S
C1045 C1041 1.393 . S
C1045 C1044 1.391 . S
C1046 H1036 0.950 . S
C1046 C1047 1.386 . S
C1046 C1048 1.391 . S
C1047 C1046 1.386 . S
C1047 C1051 1.393 . S
C1048 H1037 0.950 . S
C1048 C1046 1.391 . S
C1048 C1049 1.400 . S
C1049 C1043 1.491 . S
C1049 C1048 1.400 . S
C1049 C1050 1.398 . S
C1050 H1038 0.950 . S
C1050 C1049 1.398 . S
C1050 C1051 1.391 . S
C1051 H1039 0.950 . S
C1051 C1047 1.393 . S
C1051 C1050 1.391 . S
H1052 C1060 0.950 . S
H1053 C1065 0.950 . S
H1054 C1062 0.950 . S
H1055 C1064 0.950 . S
H1056 C1066 0.950 . S
H1057 C1068 0.950 . S
H1058 C1070 0.950 . S
H1059 C1071 0.950 . S
C1060 H1052 0.950 . S
C1060 C1061 1.386 . S
C1060 C1062 1.391 . S
C1061 C1060 1.386 . S
C1061 C1065 1.393 . S
C1062 H1054 0.950 . S
C1062 C1060 1.391 . S
C1062 C1063 1.400 . S
C1063 C1062 1.400 . S
C1063 C1064 1.398 . S
C1063 C1069 1.491 . S
C1064 H1055 0.950 . S
C1064 C1063 1.398 . S
C1064 C1065 1.391 . S
C1065 H1053 0.950 . S
C1065 C1061 1.393 . S
C1065 C1064 1.391 . S
C1066 H1056 0.950 . S
C1066 C1067 1.386 . S
C1066 C1068 1.391 . S
C1067 C1066 1.386 . S
C1067 C1071 1.393 . S
C1068 H1057 0.950 . S
C1068 C1066 1.391 . S
C1068 C1069 1.400 . S
C1069 C1063 1.491 . S
C1069 C1068 1.400 . S
C1069 C1070 1.398 . S
C1070 H1058 0.950 . S
C1070 C1069 1.398 . S
C1070 C1071 1.391 . S
C1071 H1059 0.950 . S
C1071 C1067 1.393 . S
C1071 C1070 1.391 . S
H1072 C1080 0.950 . S
H1073 C1085 0.950 . S
H1074 C1082 0.950 . S
H1075 C1084 0.950 . S
H1076 C1086 0.950 . S
H1077 C1088 0.950 . S
H1078 C1090 0.950 . S
H1079 C1091 0.950 . S
C1080 H1072 0.950 . S
C1080 C1081 1.386 . S
C1080 C1082 1.391 . S
C1081 C1080 1.386 . S
C1081 C1085 1.393 . S
C1082 H1074 0.950 . S
C1082 C1080 1.391 . S
C1082 C1083 1.400 . S
C1083 C1082 1.400 . S
C1083 C1084 1.398 . S
C1083 C1089 1.491 . S
C1084 H1075 0.950 . S
C1084 C1083 1.398 . S
C1084 C1085 1.391 . S
C1085 H1073 0.950 . S
C1085 C1081 1.393 . S
C1085 C1084 1.391 . S
C1086 H1076 0.950 . S
C1086 C1087 1.386 . S
C1086 C1088 1.391 . S
C1087 C1086 1.386 . S
C1087 C1091 1.393 . S
C1088 H1077 0.950 . S
C1088 C1086 1.391 . S
C1088 C1089 1.400 . S
C1089 C1083 1.491 . S
C1089 C1088 1.400 . S
C1089 C1090 1.398 . S
C1090 H1078 0.950 . S
C1090 C1089 1.398 . S
C1090 C1091 1.391 . S
C1091 H1079 0.950 . S
C1091 C1087 1.393 . S
C1091 C1090 1.391 . S
H1092 C1100 0.950 . S
H1093 C1105 0.950 . S
H1094 C1102 0.950 . S
H1095 C1104 0.950 . S
H1096 C1106 0.950 . S
H1097 C1108 0.950 . S
H1098 C1110 0.950 . S
H1099 C1111 0.950 . S
C1100 H1092 0.950 . S
C1100 C1101 1.386 . S
C1100 C1102 1.391 . S
C1101 C1100 1.386 . S
C1101 C1105 1.393 . S
C1102 H1094 0.950 . S
C1102 C1100 1.391 . S
C1102 C1103 1.400 . S
C1103 C1102 1.400 . S
C1103 C1104 1.398 . S
C1103 C1109 1.491 . S
C1104 H1095 0.950 . S
C1104 C1103 1.398 . S
C1104 C1105 1.391 . S
C1105 H1093 0.950 . S
C1105 C1101 1.393 . S
C1105 C1104 1.391 . S
C1106 H1096 0.950 . S
C1106 C1107 1.386 . S
C1106 C1108 1.391 . S
C1107 C1106 1.386 . S
C1107 C1111 1.393 . S
C1108 H1097 0.950 . S
C1108 C1106 1.391 . S
C1108 C1109 1.400 . S
C1109 C1103 1.491 . S
C1109 C1108 1.400 . S
C1109 C1110 1.398 . S
C1110 H1098 0.950 . S
C1110 C1109 1.398 . S
C1110 C1111 1.391 . S
C1111 H1099 0.950 . S
C1111 C1107 1.393 . S
C1111 C1110 1.391 . S
H1112 C1120 0.950 . S
H1113 C1125 0.950 . S
H1114 C1122 0.950 . S
H1115 C1124 0.950 . S
H1116 C1126 0.950 . S
H1117 C1128 0.950 . S
H1118 C1130 0.950 . S
H1119 C1131 0.950 . S
C1120 H1112 0.950 . S
C1120 C1121 1.386 . S
C1120 C1122 1.391 . S
C1121 C1120 1.386 . S
C1121 C1125 1.393 . S
C1122 H1114 0.950 . S
C1122 C1120 1.391 . S
C1122 C1123 1.400 . S
C1123 C1122 1.400 . S
C1123 C1124 1.398 . S
C1123 C1129 1.491 . S
C1124 H1115 0.950 . S
C1124 C1123 1.398 . S
C1124 C1125 1.391 . S
C1125 H1113 0.950 . S
C1125 C1121 1.393 . S
C1125 C1124 1.391 . S
C1126 H1116 0.950 . S
C1126 C1127 1.386 . S
C1126 C1128 1.391 . S
C1127 C1126 1.386 . S
C1127 C1131 1.393 . S
C1128 H1117 0.950 . S
C1128 C1126 1.391 . S
C1128 C1129 1.400 . S
C1129 C1123 1.491 . S
C1129 C1128 1.400 . S
C1129 C1130 1.398 . S
C1130 H1118 0.950 . S
C1130 C1129 1.398 . S
C1130 C1131 1.391 . S
C1131 H1119 0.950 . S
C1131 C1127 1.393 . S
C1131 C1130 1.391 . S
H1132 C1140 0.950 . S
H1133 C1145 0.950 . S
H1134 C1142 0.950 . S
H1135 C1144 0.950 . S
H1136 C1146 0.950 . S
H1137 C1148 0.950 . S
H1138 C1150 0.950 . S
H1139 C1151 0.950 . S
C1140 H1132 0.950 . S
C1140 C1141 1.386 . S
C1140 C1142 1.391 . S
C1141 C1140 1.386 . S
C1141 C1145 1.393 . S
C1142 H1134 0.950 . S
C1142 C1140 1.391 . S
C1142 C1143 1.400 . S
C1143 C1142 1.400 . S
C1143 C1144 1.398 . S
C1143 C1149 1.491 . S
C1144 H1135 0.950 . S
C1144 C1143 1.398 . S
C1144 C1145 1.391 . S
C1145 H1133 0.950 . S
C1145 C1141 1.393 . S
C1145 C1144 1.391 . S
C1146 H1136 0.950 . S
C1146 C1147 1.386 . S
C1146 C1148 1.391 . S
C1147 C1146 1.386 . S
C1147 C1151 1.393 . S
C1148 H1137 0.950 . S
C1148 C1146 1.391 . S
C1148 C1149 1.400 . S
C1149 C1143 1.491 . S
C1149 C1148 1.400 . S
C1149 C1150 1.398 . S
C1150 H1138 0.950 . S
C1150 C1149 1.398 . S
C1150 C1151 1.391 . S
C1151 H1139 0.950 . S
C1151 C1147 1.393 . S
C1151 C1150 1.391 . S
H1152 C1160 0.950 . S
H1153 C1165 0.950 . S
H1154 C1162 0.950 . S
H1155 C1164 0.950 . S
H1156 C1166 0.950 . S
H1157 C1168 0.950 . S
H1158 C1170 0.950 . S
H1159 C1171 0.950 . S
C1160 H1152 0.950 . S
C1160 C1161 1.386 . S
C1160 C1162 1.391 . S
C1161 C1160 1.386 . S
C1161 C1165 1.393 . S
C1162 H1154 0.950 . S
C1162 C1160 1.391 . S
C1162 C1163 1.400 . S
C1163 C1162 1.400 . S
C1163 C1164 1.398 . S
C1163 C1169 1.491 . S
C1164 H1155 0.950 . S
C1164 C1163 1.398 . S
C1164 C1165 1.391 . S
C1165 H1153 0.950 . S
C1165 C1161 1.393 . S
C1165 C1164 1.391 . S
C1166 H1156 0.950 . S
C1166 C1167 1.386 . S
C1166 C1168 1.391 . S
C1167 C1166 1.386 . S
C1167 C1171 1.393 . S
C1168 H1157 0.950 . S
C1168 C1166 1.391 . S
C1168 C1169 1.400 . S
C1169 C1163 1.491 . S
C1169 C1168 1.400 . S
C1169 C1170 1.398 . S
C1170 H1158 0.950 . S
C1170 C1169 1.398 . S
C1170 C1171 1.391 . S
C1171 H1159 0.950 . S
C1171 C1167 1.393 . S
C1171 C1170 1.391 . S
H1172 C1180 0.950 . S
H1173 C1185 0.950 . S
H1174 C1182 0.950 . S
H1175 C1184 0.950 . S
H1176 C1186 0.950 . S
H1177 C1188 0.950 . S
H1178 C1190 0.950 . S
H1179 C1191 0.950 . S
C1180 H1172 0.950 . S
C1180 C1181 1.386 . S
C1180 C1182 1.391 . S
C1181 C1180 1.386 . S
C1181 C1185 1.393 . S
C1182 H1174 0.950 . S
C1182 C1180 1.391 . S
C1182 C1183 1.400 . S
C1183 C1182 1.400 . S
C1183 C1184 1.398 . S
C1183 C1189 1.491 . S
C1184 H1175 0.950 . S
C1184 C1183 1.398 . S
C1184 C1185 1.391 . S
C1185 H1173 0.950 . S
C1185 C1181 1.393 . S
C1185 C1184 1.391 . S
C1186 H1176 0.950 . S
C1186 C1187 1.386 . S
C1186 C1188 1.391 . S
C1187 C1186 1.386 . S
C1187 C1191 1.393 . S
C1188 H1177 0.950 . S
C1188 C1186 1.391 . S
C1188 C1189 1.400 . S
C1189 C1183 1.491 . S
C1189 C1188 1.400 . S
C1189 C1190 1.398 . S
C1190 H1178 0.950 . S
C1190 C1189 1.398 . S
C1190 C1191 1.391 . S
C1191 H1179 0.950 . S
C1191 C1187 1.393 . S
C1191 C1190 1.391 . S
H1192 C1200 0.950 . S
H1193 C1205 0.950 . S
H1194 C1202 0.950 . S
H1195 C1204 0.950 . S
H1196 C1206 0.950 . S
H1197 C1208 0.950 . S
H1198 C1210 0.950 . S
H1199 C1211 0.950 . S
C1200 H1192 0.950 . S
C1200 C1201 1.386 . S
C1200 C1202 1.391 . S
C1201 C1200 1.386 . S
C1201 C1205 1.393 . S
C1202 H1194 0.950 . S
C1202 C1200 1.391 . S
C1202 C1203 1.400 . S
C1203 C1202 1.400 . S
C1203 C1204 1.398 . S
C1203 C1209 1.491 . S
C1204 H1195 0.950 . S
C1204 C1203 1.398 . S
C1204 C1205 1.391 . S
C1205 H1193 0.950 . S
C1205 C1201 1.393 . S
C1205 C1204 1.391 . S
C1206 H1196 0.950 . S
C1206 C1207 1.386 . S
C1206 C1208 1.391 . S
C1207 C1206 1.386 . S
C1207 C1211 1.393 . S
C1208 H1197 0.950 . S
C1208 C1206 1.391 . S
C1208 C1209 1.400 . S
C1209 C1203 1.491 . S
C1209 C1208 1.400 . S
C1209 C1210 1.398 . S
C1210 H1198 0.950 . S
C1210 C1209 1.398 . S
C1210 C1211 1.391 . S
C1211 H1199 0.950 . S
C1211 C1207 1.393 . S
C1211 C1210 1.391 . S
H1212 C1220 0.950 . S
H1213 C1225 0.950 . S
H1214 C1222 0.950 . S
H1215 C1224 0.950 . S
H1216 C1226 0.950 . S
H1217 C1228 0.950 . S
H1218 C1230 0.950 . S
H1219 C1231 0.950 . S
C1220 H1212 0.950 . S
C1220 C1221 1.386 . S
C1220 C1222 1.391 . S
C1221 C1220 1.386 . S
C1221 C1225 1.393 . S
C1222 H1214 0.950 . S
C1222 C1220 1.391 . S
C1222 C1223 1.400 . S
C1223 C1222 1.400 . S
C1223 C1224 1.398 . S
C1223 C1229 1.491 . S
C1224 H1215 0.950 . S
C1224 C1223 1.398 . S
C1224 C1225 1.391 . S
C1225 H1213 0.950 . S
C1225 C1221 1.393 . S
C1225 C1224 1.391 . S
C1226 H1216 0.950 . S
C1226 C1227 1.386 . S
C1226 C1228 1.391 . S
C1227 C1226 1.386 . S
C1227 C1231 1.393 . S
C1228 H1217 0.950 . S
C1228 C1226 1.391 . S
C1228 C1229 1.400 . S
C1229 C1223 1.491 . S
C1229 C1228 1.400 . S
C1229 C1230 1.398 . S
C1230 H1218 0.950 . S
C1230 C1229 1.398 . S
C1230 C1231 1.391 . S
C1231 H1219 0.950 . S
C1231 C1227 1.393 . S
C1231 C1230 1.391 . S
H1232 C1240 0.950 . S
H1233 C1245 0.950 . S
H1234 C1242 0.950 . S
H1235 C1244 0.950 . S
H1236 C1246 0.950 . S
H1237 C1248 0.950 . S
H1238 C1250 0.950 . S
H1239 C1251 0.950 . S
C1240 H1232 0.950 . S
C1240 C1241 1.386 . S
C1240 C1242 1.391 . S
C1241 C1240 1.386 . S
C1241 C1245 1.393 . S
C1242 H1234 0.950 . S
C1242 C1240 1.391 . S
C1242 C1243 1.400 . S
C1243 C1242 1.400 . S
C1243 C1244 1.398 . S
C1243 C1249 1.491 . S
C1244 H1235 0.950 . S
C1244 C1243 1.398 . S
C1244 C1245 1.391 . S
C1245 H1233 0.950 . S
C1245 C1241 1.393 . S
C1245 C1244 1.391 . S
C1246 H1236 0.950 . S
C1246 C1247 1.386 . S
C1246 C1248 1.391 . S
C1247 C1246 1.386 . S
C1247 C1251 1.393 . S
C1248 H1237 0.950 . S
C1248 C1246 1.391 . S
C1248 C1249 1.400 . S
C1249 C1243 1.491 . S
C1249 C1248 1.400 . S
C1249 C1250 1.398 . S
C1250 H1238 0.950 . S
C1250 C1249 1.398 . S
C1250 C1251 1.391 . S
C1251 H1239 0.950 . S
C1251 C1247 1.393 . S
C1251 C1250 1.391 . S
H1252 C1260 0.950 . S
H1253 C1265 0.950 . S
H1254 C1262 0.950 . S
H1255 C1264 0.950 . S
H1256 C1266 0.950 . S
H1257 C1268 0.950 . S
H1258 C1270 0.950 . S
H1259 C1271 0.950 . S
C1260 H1252 0.950 . S
C1260 C1261 1.386 . S
C1260 C1262 1.391 . S
C1261 C1260 1.386 . S
C1261 C1265 1.393 . S
C1262 H1254 0.950 . S
C1262 C1260 1.391 . S
C1262 C1263 1.400 . S
C1263 C1262 1.400 . S
C1263 C1264 1.398 . S
C1263 C1269 1.491 . S
C1264 H1255 0.950 . S
C1264 C1263 1.398 . S
C1264 C1265 1.391 . S
C1265 H1253 0.950 . S
C1265 C1261 1.393 . S
C1265 C1264 1.391 . S
C1266 H1256 0.950 . S
C1266 C1267 1.386 . S
C1266 C1268 1.391 . S
C1267 C1266 1.386 . S
C1267 C1271 1.393 . S
C1268 H1257 0.950 . S
C1268 C1266 1.391 . S
C1268 C1269 1.400 . S
C1269 C1263 1.491 . S
C1269 C1268 1.400 . S
C1269 C1270 1.398 . S
C1270 H1258 0.950 . S
C1270 C1269 1.398 . S
C1270 C1271 1.391 . S
C1271 H1259 0.950 . S
C1271 C1267 1.393 . S
C1271 C1270 1.391 . S
H1272 C1280 0.950 . S
H1273 C1285 0.950 . S
H1274 C1282 0.950 . S
H1275 C1284 0.950 . S
H1276 C1286 0.950 . S
H1277 C1288 0.950 . S
H1278 C1290 0.950 . S
H1279 C1291 0.950 . S
C1280 H1272 0.950 . S
C1280 C1281 1.386 . S
C1280 C1282 1.391 . S
C1281 C1280 1.386 . S
C1281 C1285 1.393 . S
C1282 H1274 0.950 . S
C1282 C1280 1.391 . S
C1282 C1283 1.400 . S
C1283 C1282 1.400 . S
C1283 C1284 1.398 . S
C1283 C1289 1.491 1_545 S
C1284 H1275 0.950 . S
C1284 C1283 1.398 . S
C1284 C1285 1.391 . S
C1285 H1273 0.950 . S
C1285 C1281 1.393 . S
C1285 C1284 1.391 . S
C1286 H1276 0.950 . S
C1286 C1287 1.386 . S
C1286 C1288 1.391 . S
C1287 C1286 1.386 . S
C1287 C1291 1.393 . S
C1288 H1277 0.950 . S
C1288 C1286 1.391 . S
C1288 C1289 1.400 . S
C1289 C1283 1.491 1_565 S
C1289 C1288 1.400 . S
C1289 C1290 1.398 . S
C1290 H1278 0.950 . S
C1290 C1289 1.398 . S
C1290 C1291 1.391 . S
C1291 H1279 0.950 . S
C1291 C1287 1.393 . S
C1291 C1290 1.391 . S
H1292 C1300 0.950 . S
H1293 C1305 0.950 . S
H1294 C1302 0.950 . S
H1295 C1304 0.950 . S
H1296 C1306 0.950 . S
H1297 C1308 0.950 . S
H1298 C1310 0.950 . S
H1299 C1311 0.950 . S
C1300 H1292 0.950 . S
C1300 C1301 1.386 . S
C1300 C1302 1.391 . S
C1301 C1300 1.386 . S
C1301 C1305 1.393 . S
C1302 H1294 0.950 . S
C1302 C1300 1.391 . S
C1302 C1303 1.400 . S
C1303 C1302 1.400 . S
C1303 C1304 1.398 . S
C1303 C1309 1.491 . S
C1304 H1295 0.950 . S
C1304 C1303 1.398 . S
C1304 C1305 1.391 . S
C1305 H1293 0.950 . S
C1305 C1301 1.393 . S
C1305 C1304 1.391 . S
C1306 H1296 0.950 . S
C1306 C1307 1.386 . S
C1306 C1308 1.391 . S
C1307 C1306 1.386 . S
C1307 C1311 1.393 . S
C1308 H1297 0.950 . S
C1308 C1306 1.391 . S
C1308 C1309 1.400 . S
C1309 C1303 1.491 . S
C1309 C1308 1.400 . S
C1309 C1310 1.398 . S
C1310 H1298 0.950 . S
C1310 C1309 1.398 . S
C1310 C1311 1.391 . S
C1311 H1299 0.950 . S
C1311 C1307 1.393 . S
C1311 C1310 1.391 . S
H1312 C1320 0.950 . S
H1313 C1325 0.950 . S
H1314 C1322 0.950 1_655 S
H1315 C1324 0.950 . S
H1316 C1326 0.950 . S
H1317 C1328 0.950 1_455 S
H1318 C1330 0.950 . S
H1319 C1331 0.950 . S
C1320 H1312 0.950 . S
C1320 C1321 1.386 . S
C1320 C1322 1.391 . S
C1321 C1320 1.386 . S
C1321 C1325 1.393 . S
C1322 H1314 0.950 1_455 S
C1322 C1320 1.391 . S
C1322 C1323 1.400 . S
C1323 C1322 1.400 . S
C1323 C1324 1.398 . S
C1323 C1329 1.491 1_455 S
C1324 H1315 0.950 . S
C1324 C1323 1.398 . S
C1324 C1325 1.391 . S
C1325 H1313 0.950 . S
C1325 C1321 1.393 . S
C1325 C1324 1.391 . S
C1326 H1316 0.950 . S
C1326 C1327 1.386 . S
C1326 C1328 1.391 . S
C1327 C1326 1.386 . S
C1327 C1331 1.393 . S
C1328 H1317 0.950 1_655 S
C1328 C1326 1.391 . S
C1328 C1329 1.400 . S
C1329 C1323 1.491 1_655 S
C1329 C1328 1.400 . S
C1329 C1330 1.398 . S
C1330 H1318 0.950 . S
C1330 C1329 1.398 . S
C1330 C1331 1.391 . S
C1331 H1319 0.950 . S
C1331 C1327 1.393 . S
C1331 C1330 1.391 . S
H1332 C1340 0.950 . S
H1333 C1345 0.950 . S
H1334 C1342 0.958 . S
H1335 C1344 0.950 . S
H1336 C1346 0.950 . S
H1337 C1348 0.958 . S
H1338 C1350 0.950 . S
H1339 C1351 0.950 . S
C1340 H1332 0.950 . S
C1340 C1341 1.386 . S
C1340 C1342 1.391 . S
C1341 C1340 1.386 . S
C1341 C1345 1.393 . S
C1342 H1334 0.958 . S
C1342 C1340 1.391 . S
C1342 C1343 1.400 . S
C1343 C1342 1.400 . S
C1343 C1344 1.398 . S
C1343 C1349 1.491 1_565 S
C1344 H1335 0.950 . S
C1344 C1343 1.398 . S
C1344 C1345 1.391 . S
C1345 H1333 0.950 . S
C1345 C1341 1.393 . S
C1345 C1344 1.391 . S
C1346 H1336 0.950 . S
C1346 C1347 1.386 . S
C1346 C1348 1.391 . S
C1347 C1346 1.386 . S
C1347 C1351 1.393 . S
C1348 H1337 0.958 . S
C1348 C1346 1.391 . S
C1348 C1349 1.400 . S
C1349 C1343 1.491 1_545 S
C1349 C1348 1.400 . S
C1349 C1350 1.398 . S
C1350 H1338 0.950 . S
C1350 C1349 1.398 . S
C1350 C1351 1.391 . S
C1351 H1339 0.950 . S
C1351 C1347 1.393 . S
C1351 C1350 1.391 . S
H1352 C1360 0.950 . S
H1353 C1365 0.950 . S
H1354 C1362 0.950 . S
H1355 C1364 0.950 . S
H1356 C1366 0.950 . S
H1357 C1368 0.950 . S
H1358 C1370 0.950 . S
H1359 C1371 0.950 . S
C1360 H1352 0.950 . S
C1360 C1361 1.386 . S
C1360 C1362 1.391 . S
C1361 C1360 1.386 . S
C1361 C1365 1.393 . S
C1362 H1354 0.950 . S
C1362 C1360 1.391 . S
C1362 C1363 1.400 . S
C1363 C1362 1.400 . S
C1363 C1364 1.398 . S
C1363 C1369 1.491 . S
C1364 H1355 0.950 . S
C1364 C1363 1.398 . S
C1364 C1365 1.391 . S
C1365 H1353 0.950 . S
C1365 C1361 1.393 . S
C1365 C1364 1.391 . S
C1366 H1356 0.950 . S
C1366 C1367 1.386 . S
C1366 C1368 1.391 . S
C1367 C1366 1.386 . S
C1367 C1371 1.393 . S
C1368 H1357 0.950 . S
C1368 C1366 1.391 . S
C1368 C1369 1.400 . S
C1369 C1363 1.491 . S
C1369 C1368 1.400 . S
C1369 C1370 1.398 . S
C1370 H1358 0.950 . S
C1370 C1369 1.398 . S
C1370 C1371 1.391 . S
C1371 H1359 0.950 . S
C1371 C1367 1.393 . S
C1371 C1370 1.391 . S
H1372 C1380 0.950 . S
H1373 C1385 0.950 . S
H1374 C1382 0.950 . S
H1375 C1384 0.950 . S
H1376 C1386 0.950 . S
H1377 C1388 0.950 . S
H1378 C1390 0.950 . S
H1379 C1391 0.950 . S
C1380 H1372 0.950 . S
C1380 C1381 1.386 . S
C1380 C1382 1.391 . S
C1381 C1380 1.386 . S
C1381 C1385 1.393 . S
C1382 H1374 0.950 . S
C1382 C1380 1.391 . S
C1382 C1383 1.400 . S
C1383 C1382 1.400 . S
C1383 C1384 1.398 . S
C1383 C1389 1.491 1_655 S
C1384 H1375 0.950 . S
C1384 C1383 1.398 . S
C1384 C1385 1.391 . S
C1385 H1373 0.950 . S
C1385 C1381 1.393 . S
C1385 C1384 1.391 . S
C1386 H1376 0.950 . S
C1386 C1387 1.386 . S
C1386 C1388 1.391 . S
C1387 C1386 1.386 . S
C1387 C1391 1.393 . S
C1388 H1377 0.950 . S
C1388 C1386 1.391 . S
C1388 C1389 1.400 . S
C1389 C1383 1.491 1_455 S
C1389 C1388 1.400 . S
C1389 C1390 1.398 . S
C1390 H1378 0.950 . S
C1390 C1389 1.398 . S
C1390 C1391 1.391 . S
C1391 H1379 0.950 . S
C1391 C1387 1.393 . S
C1391 C1390 1.391 . S
H1392 C1400 0.950 . S
H1393 C1405 0.950 . S
H1394 C1402 0.950 1_545 S
H1395 C1404 0.950 . S
H1396 C1406 0.950 . S
H1397 C1408 0.950 1_565 S
H1398 C1410 0.950 . S
H1399 C1411 0.950 . S
C1400 H1392 0.950 . S
C1400 C1401 1.386 . S
C1400 C1402 1.391 . S
C1401 C1400 1.386 . S
C1401 C1405 1.393 . S
C1402 H1394 0.950 1_565 S
C1402 C1400 1.391 . S
C1402 C1403 1.400 . S
C1403 C1402 1.400 . S
C1403 C1404 1.398 . S
C1403 C1409 1.491 1_565 S
C1404 H1395 0.950 . S
C1404 C1403 1.398 . S
C1404 C1405 1.391 . S
C1405 H1393 0.950 . S
C1405 C1401 1.393 . S
C1405 C1404 1.391 . S
C1406 H1396 0.950 . S
C1406 C1407 1.386 . S
C1406 C1408 1.391 . S
C1407 C1406 1.386 . S
C1407 C1411 1.393 . S
C1408 H1397 0.950 1_545 S
C1408 C1406 1.391 . S
C1408 C1409 1.400 . S
C1409 C1403 1.491 1_545 S
C1409 C1408 1.400 . S
C1409 C1410 1.398 . S
C1410 H1398 0.950 . S
C1410 C1409 1.398 . S
C1410 C1411 1.391 . S
C1411 H1399 0.950 . S
C1411 C1407 1.393 . S
C1411 C1410 1.391 . S
H1412 C1420 0.950 . S
H1413 C1425 0.950 . S
H1414 C1422 0.950 . S
H1415 C1424 0.950 . S
H1416 C1426 0.950 . S
H1417 C1428 0.950 . S
H1418 C1430 0.950 . S
H1419 C1431 0.950 . S
C1420 H1412 0.950 . S
C1420 C1421 1.386 . S
C1420 C1422 1.391 . S
C1421 C1420 1.386 . S
C1421 C1425 1.393 . S
C1422 H1414 0.950 . S
C1422 C1420 1.391 . S
C1422 C1423 1.400 . S
C1423 C1422 1.400 . S
C1423 C1424 1.398 . S
C1423 C1429 1.491 . S
C1424 H1415 0.950 . S
C1424 C1423 1.398 . S
C1424 C1425 1.391 . S
C1425 H1413 0.950 . S
C1425 C1421 1.393 . S
C1425 C1424 1.391 . S
C1426 H1416 0.950 . S
C1426 C1427 1.386 . S
C1426 C1428 1.391 . S
C1427 C1426 1.386 . S
C1427 C1431 1.393 . S
C1428 H1417 0.950 . S
C1428 C1426 1.391 . S
C1428 C1429 1.400 . S
C1429 C1423 1.491 . S
C1429 C1428 1.400 . S
C1429 C1430 1.398 . S
C1430 H1418 0.950 . S
C1430 C1429 1.398 . S
C1430 C1431 1.391 . S
C1431 H1419 0.950 . S
C1431 C1427 1.393 . S
C1431 C1430 1.391 . S
H1432 C1440 0.950 . S
H1433 C1445 0.950 . S
H1434 C1442 0.950 . S
H1435 C1444 0.950 . S
H1436 C1446 0.950 . S
H1437 C1448 0.950 . S
H1438 C1450 0.950 . S
H1439 C1451 0.950 . S
C1440 H1432 0.950 . S
C1440 C1441 1.386 . S
C1440 C1442 1.391 . S
C1441 C1440 1.386 . S
C1441 C1445 1.393 . S
C1442 H1434 0.950 . S
C1442 C1440 1.391 . S
C1442 C1443 1.400 . S
C1443 C1442 1.400 . S
C1443 C1444 1.398 . S
C1443 C1449 1.491 1_455 S
C1444 H1435 0.950 . S
C1444 C1443 1.398 . S
C1444 C1445 1.391 . S
C1445 H1433 0.950 . S
C1445 C1441 1.393 . S
C1445 C1444 1.391 . S
C1446 H1436 0.950 . S
C1446 C1447 1.386 . S
C1446 C1448 1.391 . S
C1447 C1446 1.386 . S
C1447 C1451 1.393 . S
C1448 H1437 0.950 . S
C1448 C1446 1.391 . S
C1448 C1449 1.400 . S
C1449 C1443 1.491 1_655 S
C1449 C1448 1.400 . S
C1449 C1450 1.398 . S
C1450 H1438 0.950 . S
C1450 C1449 1.398 . S
C1450 C1451 1.391 . S
C1451 H1439 0.950 . S
C1451 C1447 1.393 . S
C1451 C1450 1.391 . S
H1452 C1460 0.950 . S
H1453 C1465 0.950 . S
H1454 C1462 0.950 1_565 S
H1455 C1464 0.950 . S
H1456 C1466 0.950 . S
H1457 C1468 0.950 1_545 S
H1458 C1470 0.950 . S
H1459 C1471 0.950 . S
C1460 H1452 0.950 . S
C1460 C1461 1.386 . S
C1460 C1462 1.391 . S
C1461 C1460 1.386 . S
C1461 C1465 1.393 . S
C1462 H1454 0.950 1_545 S
C1462 C1460 1.391 . S
C1462 C1463 1.400 . S
C1463 C1462 1.400 . S
C1463 C1464 1.398 . S
C1463 C1469 1.491 1_545 S
C1464 H1455 0.950 . S
C1464 C1463 1.398 . S
C1464 C1465 1.391 . S
C1465 H1453 0.950 . S
C1465 C1461 1.393 . S
C1465 C1464 1.391 . S
C1466 H1456 0.950 . S
C1466 C1467 1.386 . S
C1466 C1468 1.391 . S
C1467 C1466 1.386 . S
C1467 C1471 1.393 . S
C1468 H1457 0.950 1_565 S
C1468 C1466 1.391 . S
C1468 C1469 1.400 . S
C1469 C1463 1.491 1_565 S
C1469 C1468 1.400 . S
C1469 C1470 1.398 . S
C1470 H1458 0.950 . S
C1470 C1469 1.398 . S
C1470 C1471 1.391 . S
C1471 H1459 0.950 . S
C1471 C1467 1.393 . S
C1471 C1470 1.391 . S
H1472 C1480 0.950 . S
H1473 C1485 0.950 . S
H1474 C1482 0.950 . S
H1475 C1484 0.950 . S
H1476 C1486 0.950 . S
H1477 C1488 0.950 . S
H1478 C1490 0.950 . S
H1479 C1491 0.950 . S
C1480 H1472 0.950 . S
C1480 C1481 1.386 . S
C1480 C1482 1.391 . S
C1481 C1480 1.386 . S
C1481 C1485 1.393 . S
C1482 H1474 0.950 . S
C1482 C1480 1.391 . S
C1482 C1483 1.400 . S
C1483 C1482 1.400 . S
C1483 C1484 1.398 . S
C1483 C1489 1.491 . S
C1484 H1475 0.950 . S
C1484 C1483 1.398 . S
C1484 C1485 1.391 . S
C1485 H1473 0.950 . S
C1485 C1481 1.393 . S
C1485 C1484 1.391 . S
C1486 H1476 0.950 . S
C1486 C1487 1.386 . S
C1486 C1488 1.391 . S
C1487 C1486 1.386 . S
C1487 C1491 1.393 . S
C1488 H1477 0.950 . S
C1488 C1486 1.391 . S
C1488 C1489 1.400 . S
C1489 C1483 1.491 . S
C1489 C1488 1.400 . S
C1489 C1490 1.398 . S
C1490 H1478 0.950 . S
C1490 C1489 1.398 . S
C1490 C1491 1.391 . S
C1491 H1479 0.950 . S
C1491 C1487 1.393 . S
C1491 C1490 1.391 . S
H1492 C1500 0.950 . S
H1493 C1505 0.950 . S
H1494 C1502 0.950 . S
H1495 C1504 0.950 1_655 S
H1496 C1506 0.950 . S
H1497 C1508 0.950 . S
H1498 C1510 0.950 1_455 S
H1499 C1511 0.950 . S
C1500 H1492 0.950 . S
C1500 C1501 1.386 . S
C1500 C1502 1.391 . S
C1501 C1500 1.386 . S
C1501 C1505 1.393 . S
C1502 H1494 0.950 . S
C1502 C1500 1.391 . S
C1502 C1503 1.400 . S
C1503 C1502 1.400 . S
C1503 C1504 1.398 . S
C1503 C1509 1.491 1_455 S
C1504 H1495 0.950 1_455 S
C1504 C1503 1.398 . S
C1504 C1505 1.391 . S
C1505 H1493 0.950 . S
C1505 C1501 1.393 . S
C1505 C1504 1.391 . S
C1506 H1496 0.950 . S
C1506 C1507 1.386 . S
C1506 C1508 1.391 . S
C1507 C1506 1.386 . S
C1507 C1511 1.393 . S
C1508 H1497 0.950 . S
C1508 C1506 1.391 . S
C1508 C1509 1.400 . S
C1509 C1503 1.491 1_655 S
C1509 C1508 1.400 . S
C1509 C1510 1.398 . S
C1510 H1498 0.950 1_655 S
C1510 C1509 1.398 . S
C1510 C1511 1.391 . S
C1511 H1499 0.950 . S
C1511 C1507 1.393 . S
C1511 C1510 1.391 . S
H1512 C1520 0.950 . S
H1513 C1525 0.950 . S
H1514 C1522 0.950 . S
H1515 C1524 0.950 . S
H1516 C1526 0.950 . S
H1517 C1528 0.950 . S
H1518 C1530 0.950 . S
H1519 C1531 0.950 . S
C1520 H1512 0.950 . S
C1520 C1521 1.386 . S
C1520 C1522 1.391 . S
C1521 C1520 1.386 . S
C1521 C1525 1.393 . S
C1522 H1514 0.950 . S
C1522 C1520 1.391 . S
C1522 C1523 1.400 . S
C1523 C1522 1.400 . S
C1523 C1524 1.398 . S
C1523 C1529 1.491 . S
C1524 H1515 0.950 . S
C1524 C1523 1.398 . S
C1524 C1525 1.391 . S
C1525 H1513 0.950 . S
C1525 C1521 1.393 . S
C1525 C1524 1.391 . S
C1526 H1516 0.950 . S
C1526 C1527 1.386 . S
C1526 C1528 1.391 . S
C1527 C1526 1.386 . S
C1527 C1531 1.393 . S
C1528 H1517 0.950 . S
C1528 C1526 1.391 . S
C1528 C1529 1.400 . S
C1529 C1523 1.491 . S
C1529 C1528 1.400 . S
C1529 C1530 1.398 . S
C1530 H1518 0.950 . S
C1530 C1529 1.398 . S
C1530 C1531 1.391 . S
C1531 H1519 0.950 . S
C1531 C1527 1.393 . S
C1531 C1530 1.391 . S
H1532 C1540 0.950 . S
H1533 C1545 0.950 . S
H1534 C1542 0.950 . S
H1535 C1544 0.950 . S
H1536 C1546 0.950 . S
H1537 C1548 0.950 . S
H1538 C1550 0.950 . S
H1539 C1551 0.950 . S
C1540 H1532 0.950 . S
C1540 C1541 1.386 . S
C1540 C1542 1.391 . S
C1541 C1540 1.386 . S
C1541 C1545 1.393 . S
C1542 H1534 0.950 . S
C1542 C1540 1.391 . S
C1542 C1543 1.400 . S
C1543 C1542 1.400 . S
C1543 C1544 1.398 . S
C1543 C1549 1.491 . S
C1544 H1535 0.950 . S
C1544 C1543 1.398 . S
C1544 C1545 1.391 . S
C1545 H1533 0.950 . S
C1545 C1541 1.393 . S
C1545 C1544 1.391 . S
C1546 H1536 0.950 . S
C1546 C1547 1.386 . S
C1546 C1548 1.391 . S
C1547 C1546 1.386 . S
C1547 C1551 1.393 . S
C1548 H1537 0.950 . S
C1548 C1546 1.391 . S
C1548 C1549 1.400 . S
C1549 C1543 1.491 . S
C1549 C1548 1.400 . S
C1549 C1550 1.398 . S
C1550 H1538 0.950 . S
C1550 C1549 1.398 . S
C1550 C1551 1.391 . S
C1551 H1539 0.950 . S
C1551 C1547 1.393 . S
C1551 C1550 1.391 . S
H1552 C1560 0.950 . S
H1553 C1565 0.950 . S
H1554 C1562 0.950 . S
H1555 C1564 0.950 . S
H1556 C1566 0.950 . S
H1557 C1568 0.950 . S
H1558 C1570 0.950 . S
H1559 C1571 0.950 . S
C1560 H1552 0.950 . S
C1560 C1561 1.386 . S
C1560 C1562 1.391 . S
C1561 C1560 1.386 . S
C1561 C1565 1.393 . S
C1562 H1554 0.950 . S
C1562 C1560 1.391 . S
C1562 C1563 1.400 . S
C1563 C1562 1.400 . S
C1563 C1564 1.398 . S
C1563 C1569 1.491 . S
C1564 H1555 0.950 . S
C1564 C1563 1.398 . S
C1564 C1565 1.391 . S
C1565 H1553 0.950 . S
C1565 C1561 1.393 . S
C1565 C1564 1.391 . S
C1566 H1556 0.950 . S
C1566 C1567 1.386 . S
C1566 C1568 1.391 . S
C1567 C1566 1.386 . S
C1567 C1571 1.393 . S
C1568 H1557 0.950 . S
C1568 C1566 1.391 . S
C1568 C1569 1.400 . S
C1569 C1563 1.491 . S
C1569 C1568 1.400 . S
C1569 C1570 1.398 . S
C1570 H1558 0.950 . S
C1570 C1569 1.398 . S
C1570 C1571 1.391 . S
C1571 H1559 0.950 . S
C1571 C1567 1.393 . S
C1571 C1570 1.391 . S
H1572 C1580 0.950 . S
H1573 C1585 0.950 . S
H1574 C1582 0.950 . S
H1575 C1584 0.950 . S
H1576 C1586 0.950 . S
H1577 C1588 0.950 . S
H1578 C1590 0.950 . S
H1579 C1591 0.950 . S
C1580 H1572 0.950 . S
C1580 C1581 1.386 . S
C1580 C1582 1.391 . S
C1581 C1580 1.386 . S
C1581 C1585 1.393 . S
C1582 H1574 0.950 . S
C1582 C1580 1.391 . S
C1582 C1583 1.400 . S
C1583 C1582 1.400 . S
C1583 C1584 1.398 . S
C1583 C1589 1.491 . S
C1584 H1575 0.950 . S
C1584 C1583 1.398 . S
C1584 C1585 1.391 . S
C1585 H1573 0.950 . S
C1585 C1581 1.393 . S
C1585 C1584 1.391 . S
C1586 H1576 0.950 . S
C1586 C1587 1.386 . S
C1586 C1588 1.391 . S
C1587 C1586 1.386 . S
C1587 C1591 1.393 . S
C1588 H1577 0.950 . S
C1588 C1586 1.391 . S
C1588 C1589 1.400 . S
C1589 C1583 1.491 . S
C1589 C1588 1.400 . S
C1589 C1590 1.398 . S
C1590 H1578 0.950 . S
C1590 C1589 1.398 . S
C1590 C1591 1.391 . S
C1591 H1579 0.950 . S
C1591 C1587 1.393 . S
C1591 C1590 1.391 . S
H1592 C1600 0.950 . S
H1593 C1605 0.950 . S
H1594 C1602 0.950 . S
H1595 C1604 0.950 . S
H1596 C1606 0.950 . S
H1597 C1608 0.950 . S
H1598 C1610 0.950 . S
H1599 C1611 0.950 . S
C1600 H1592 0.950 . S
C1600 C1601 1.386 . S
C1600 C1602 1.391 . S
C1601 C1600 1.386 . S
C1601 C1605 1.393 . S
C1602 H1594 0.950 . S
C1602 C1600 1.391 . S
C1602 C1603 1.400 . S
C1603 C1602 1.400 . S
C1603 C1604 1.398 . S
C1603 C1609 1.491 . S
C1604 H1595 0.950 . S
C1604 C1603 1.398 . S
C1604 C1605 1.391 . S
C1605 H1593 0.950 . S
C1605 C1601 1.393 . S
C1605 C1604 1.391 . S
C1606 H1596 0.950 . S
C1606 C1607 1.386 . S
C1606 C1608 1.391 . S
C1607 C1606 1.386 . S
C1607 C1611 1.393 . S
C1608 H1597 0.950 . S
C1608 C1606 1.391 . S
C1608 C1609 1.400 . S
C1609 C1603 1.491 . S
C1609 C1608 1.400 . S
C1609 C1610 1.398 . S
C1610 H1598 0.950 . S
C1610 C1609 1.398 . S
C1610 C1611 1.391 . S
C1611 H1599 0.950 . S
C1611 C1607 1.393 . S
C1611 C1610 1.391 . S
H1612 C1620 0.950 . S
H1613 C1625 0.950 . S
H1614 C1622 0.950 . S
H1615 C1624 0.950 . S
H1616 C1626 0.950 . S
H1617 C1628 0.950 . S
H1618 C1630 0.950 . S
H1619 C1631 0.950 . S
C1620 H1612 0.950 . S
C1620 C1621 1.386 . S
C1620 C1622 1.391 . S
C1621 C1620 1.386 . S
C1621 C1625 1.393 . S
C1622 H1614 0.950 . S
C1622 C1620 1.391 . S
C1622 C1623 1.400 . S
C1623 C1622 1.400 . S
C1623 C1624 1.398 . S
C1623 C1629 1.491 . S
C1624 H1615 0.950 . S
C1624 C1623 1.398 . S
C1624 C1625 1.391 . S
C1625 H1613 0.950 . S
C1625 C1621 1.393 . S
C1625 C1624 1.391 . S
C1626 H1616 0.950 . S
C1626 C1627 1.386 . S
C1626 C1628 1.391 . S
C1627 C1626 1.386 . S
C1627 C1631 1.393 . S
C1628 H1617 0.950 . S
C1628 C1626 1.391 . S
C1628 C1629 1.400 . S
C1629 C1623 1.491 . S
C1629 C1628 1.400 . S
C1629 C1630 1.398 . S
C1630 H1618 0.950 . S
C1630 C1629 1.398 . S
C1630 C1631 1.391 . S
C1631 H1619 0.950 . S
C1631 C1627 1.393 . S
C1631 C1630 1.391 . S
H1632 C1640 0.950 . S
H1633 C1645 0.950 . S
H1634 C1642 0.950 . S
H1635 C1644 0.950 . S
H1636 C1646 0.950 . S
H1637 C1648 0.950 . S
H1638 C1650 0.950 . S
H1639 C1651 0.950 . S
C1640 H1632 0.950 . S
C1640 C1641 1.386 . S
C1640 C1642 1.391 . S
C1641 C1640 1.386 . S
C1641 C1645 1.393 . S
C1642 H1634 0.950 . S
C1642 C1640 1.391 . S
C1642 C1643 1.400 . S
C1643 C1642 1.400 . S
C1643 C1644 1.398 . S
C1643 C1649 1.491 . S
C1644 H1635 0.950 . S
C1644 C1643 1.398 . S
C1644 C1645 1.391 . S
C1645 H1633 0.950 . S
C1645 C1641 1.393 . S
C1645 C1644 1.391 . S
C1646 H1636 0.950 . S
C1646 C1647 1.386 . S
C1646 C1648 1.391 . S
C1647 C1646 1.386 . S
C1647 C1651 1.393 . S
C1648 H1637 0.950 . S
C1648 C1646 1.391 . S
C1648 C1649 1.400 . S
C1649 C1643 1.491 . S
C1649 C1648 1.400 . S
C1649 C1650 1.398 . S
C1650 H1638 0.950 . S
C1650 C1649 1.398 . S
C1650 C1651 1.391 . S
C1651 H1639 0.950 . S
C1651 C1647 1.393 . S
C1651 C1650 1.391 . S
H1652 C1660 0.950 . S
H1653 C1665 0.950 . S
H1654 C1662 0.950 . S
H1655 C1664 0.950 . S
H1656 C1666 0.950 . S
H1657 C1668 0.950 . S
H1658 C1670 0.950 . S
H1659 C1671 0.950 . S
C1660 H1652 0.950 . S
C1660 C1661 1.386 . S
C1660 C1662 1.391 . S
C1661 C1660 1.386 . S
C1661 C1665 1.393 . S
C1662 H1654 0.950 . S
C1662 C1660 1.391 . S
C1662 C1663 1.400 . S
C1663 C1662 1.400 . S
C1663 C1664 1.398 . S
C1663 C1669 1.491 . S
C1664 H1655 0.950 . S
C1664 C1663 1.398 . S
C1664 C1665 1.391 . S
C1665 H1653 0.950 . S
C1665 C1661 1.393 . S
C1665 C1664 1.391 . S
C1666 H1656 0.950 . S
C1666 C1667 1.386 . S
C1666 C1668 1.391 . S
C1667 C1666 1.386 . S
C1667 C1671 1.393 . S
C1668 H1657 0.950 . S
C1668 C1666 1.391 . S
C1668 C1669 1.400 . S
C1669 C1663 1.491 . S
C1669 C1668 1.400 . S
C1669 C1670 1.398 . S
C1670 H1658 0.950 . S
C1670 C1669 1.398 . S
C1670 C1671 1.391 . S
C1671 H1659 0.950 . S
C1671 C1667 1.393 . S
C1671 C1670 1.391 . S
H1672 C1680 0.950 . S
H1673 C1685 0.950 . S
H1674 C1682 0.950 . S
H1675 C1684 0.950 . S
H1676 C1686 0.950 . S
H1677 C1688 0.950 . S
H1678 C1690 0.950 . S
H1679 C1691 0.950 . S
C1680 H1672 0.950 . S
C1680 C1681 1.386 . S
C1680 C1682 1.391 . S
C1681 C1680 1.386 . S
C1681 C1685 1.393 . S
C1682 H1674 0.950 . S
C1682 C1680 1.391 . S
C1682 C1683 1.400 . S
C1683 C1682 1.400 . S
C1683 C1684 1.398 . S
C1683 C1689 1.491 . S
C1684 H1675 0.950 . S
C1684 C1683 1.398 . S
C1684 C1685 1.391 . S
C1685 H1673 0.950 . S
C1685 C1681 1.393 . S
C1685 C1684 1.391 . S
C1686 H1676 0.950 . S
C1686 C1687 1.386 . S
C1686 C1688 1.391 . S
C1687 C1686 1.386 . S
C1687 C1691 1.393 . S
C1688 H1677 0.950 . S
C1688 C1686 1.391 . S
C1688 C1689 1.400 . S
C1689 C1683 1.491 . S
C1689 C1688 1.400 . S
C1689 C1690 1.398 . S
C1690 H1678 0.950 . S
C1690 C1689 1.398 . S
C1690 C1691 1.391 . S
C1691 H1679 0.950 . S
C1691 C1687 1.393 . S
C1691 C1690 1.391 . S
H1692 C1700 0.950 . S
H1693 C1705 0.950 . S
H1694 C1702 0.950 . S
H1695 C1704 0.950 . S
H1696 C1706 0.950 . S
H1697 C1708 0.950 . S
H1698 C1710 0.950 . S
H1699 C1711 0.950 . S
C1700 H1692 0.950 . S
C1700 C1701 1.386 . S
C1700 C1702 1.391 . S
C1701 C1700 1.386 . S
C1701 C1705 1.393 . S
C1702 H1694 0.950 . S
C1702 C1700 1.391 . S
C1702 C1703 1.400 . S
C1703 C1702 1.400 . S
C1703 C1704 1.398 . S
C1703 C1709 1.491 . S
C1704 H1695 0.950 . S
C1704 C1703 1.398 . S
C1704 C1705 1.391 . S
C1705 H1693 0.950 . S
C1705 C1701 1.393 . S
C1705 C1704 1.391 . S
C1706 H1696 0.950 . S
C1706 C1707 1.386 . S
C1706 C1708 1.391 . S
C1707 C1706 1.386 . S
C1707 C1711 1.393 . S
C1708 H1697 0.950 . S
C1708 C1706 1.391 . S
C1708 C1709 1.400 . S
C1709 C1703 1.491 . S
C1709 C1708 1.400 . S
C1709 C1710 1.398 . S
C1710 H1698 0.950 . S
C1710 C1709 1.398 . S
C1710 C1711 1.391 . S
C1711 H1699 0.950 . S
C1711 C1707 1.393 . S
C1711 C1710 1.391 . S
H1712 C1720 0.950 . S
H1713 C1725 0.950 . S
H1714 C1722 0.950 . S
H1715 C1724 0.950 . S
H1716 C1726 0.950 . S
H1717 C1728 0.950 . S
H1718 C1730 0.950 . S
H1719 C1731 0.950 . S
C1720 H1712 0.950 . S
C1720 C1721 1.386 . S
C1720 C1722 1.391 . S
C1721 C1720 1.386 . S
C1721 C1725 1.393 . S
C1722 H1714 0.950 . S
C1722 C1720 1.391 . S
C1722 C1723 1.400 . S
C1723 C1722 1.400 . S
C1723 C1724 1.398 . S
C1723 C1729 1.491 . S
C1724 H1715 0.950 . S
C1724 C1723 1.398 . S
C1724 C1725 1.391 . S
C1725 H1713 0.950 . S
C1725 C1721 1.393 . S
C1725 C1724 1.391 . S
C1726 H1716 0.950 . S
C1726 C1727 1.386 . S
C1726 C1728 1.391 . S
C1727 C1726 1.386 . S
C1727 C1731 1.393 . S
C1728 H1717 0.950 . S
C1728 C1726 1.391 . S
C1728 C1729 1.400 . S
C1729 C1723 1.491 . S
C1729 C1728 1.400 . S
C1729 C1730 1.398 . S
C1730 H1718 0.950 . S
C1730 C1729 1.398 . S
C1730 C1731 1.391 . S
C1731 H1719 0.950 . S
C1731 C1727 1.393 . S
C1731 C1730 1.391 . S
H1732 C1740 0.950 . S
H1733 C1745 0.950 . S
H1734 C1742 0.950 . S
H1735 C1744 0.950 . S
H1736 C1746 0.950 . S
H1737 C1748 0.950 . S
H1738 C1750 0.950 . S
H1739 C1751 0.950 . S
C1740 H1732 0.950 . S
C1740 C1741 1.386 . S
C1740 C1742 1.391 . S
C1741 C1740 1.386 . S
C1741 C1745 1.393 . S
C1742 H1734 0.950 . S
C1742 C1740 1.391 . S
C1742 C1743 1.400 . S
C1743 C1742 1.400 . S
C1743 C1744 1.398 . S
C1743 C1749 1.491 . S
C1744 H1735 0.950 . S
C1744 C1743 1.398 . S
C1744 C1745 1.391 . S
C1745 H1733 0.950 . S
C1745 C1741 1.393 . S
C1745 C1744 1.391 . S
C1746 H1736 0.950 . S
C1746 C1747 1.386 . S
C1746 C1748 1.391 . S
C1747 C1746 1.386 . S
C1747 C1751 1.393 . S
C1748 H1737 0.950 . S
C1748 C1746 1.391 . S
C1748 C1749 1.400 . S
C1749 C1743 1.491 . S
C1749 C1748 1.400 . S
C1749 C1750 1.398 . S
C1750 H1738 0.950 . S
C1750 C1749 1.398 . S
C1750 C1751 1.391 . S
C1751 H1739 0.950 . S
C1751 C1747 1.393 . S
C1751 C1750 1.391 . S
H1752 C1760 0.950 . S
H1753 C1765 0.950 . S
H1754 C1762 0.950 . S
H1755 C1764 0.950 . S
H1756 C1766 0.950 . S
H1757 C1768 0.950 . S
H1758 C1770 0.950 . S
H1759 C1771 0.950 . S
C1760 H1752 0.950 . S
C1760 C1761 1.386 . S
C1760 C1762 1.391 . S
C1761 C1760 1.386 . S
C1761 C1765 1.393 . S
C1762 H1754 0.950 . S
C1762 C1760 1.391 . S
C1762 C1763 1.400 . S
C1763 C1762 1.400 . S
C1763 C1764 1.398 . S
C1763 C1769 1.491 1_554 S
C1764 H1755 0.950 . S
C1764 C1763 1.398 . S
C1764 C1765 1.391 . S
C1765 H1753 0.950 . S
C1765 C1761 1.393 . S
C1765 C1764 1.391 . S
C1766 H1756 0.950 . S
C1766 C1767 1.386 . S
C1766 C1768 1.391 . S
C1767 C1766 1.386 . S
C1767 C1771 1.393 . S
C1768 H1757 0.950 . S
C1768 C1766 1.391 . S
C1768 C1769 1.400 . S
C1769 C1763 1.491 1_556 S
C1769 C1768 1.400 . S
C1769 C1770 1.398 . S
C1770 H1758 0.950 . S
C1770 C1769 1.398 . S
C1770 C1771 1.391 . S
C1771 H1759 0.950 . S
C1771 C1767 1.393 . S
C1771 C1770 1.391 . S
H1772 C1780 0.950 . S
H1773 C1785 0.950 . S
H1774 C1782 0.950 . S
H1775 C1784 0.950 . S
H1776 C1786 0.950 . S
H1777 C1788 0.950 . S
H1778 C1790 0.950 . S
H1779 C1791 0.950 . S
C1780 H1772 0.950 . S
C1780 C1781 1.386 . S
C1780 C1782 1.391 . S
C1781 C1780 1.386 . S
C1781 C1785 1.393 . S
C1782 H1774 0.950 . S
C1782 C1780 1.391 . S
C1782 C1783 1.400 . S
C1783 C1782 1.400 . S
C1783 C1784 1.398 . S
C1783 C1789 1.491 1_554 S
C1784 H1775 0.950 . S
C1784 C1783 1.398 . S
C1784 C1785 1.391 . S
C1785 H1773 0.950 . S
C1785 C1781 1.393 . S
C1785 C1784 1.391 . S
C1786 H1776 0.950 . S
C1786 C1787 1.386 . S
C1786 C1788 1.391 . S
C1787 C1786 1.386 . S
C1787 C1791 1.393 . S
C1788 H1777 0.950 . S
C1788 C1786 1.391 . S
C1788 C1789 1.400 . S
C1789 C1783 1.491 1_556 S
C1789 C1788 1.400 . S
C1789 C1790 1.398 . S
C1790 H1778 0.950 . S
C1790 C1789 1.398 . S
C1790 C1791 1.391 . S
C1791 H1779 0.950 . S
C1791 C1787 1.393 . S
C1791 C1790 1.391 . S
H1792 C1800 0.950 . S
H1793 C1805 0.950 . S
H1794 C1802 0.950 . S
H1795 C1804 0.950 . S
H1796 C1806 0.950 . S
H1797 C1808 0.950 . S
H1798 C1810 0.950 . S
H1799 C1811 0.950 . S
C1800 H1792 0.950 . S
C1800 C1801 1.386 . S
C1800 C1802 1.391 . S
C1801 C1800 1.386 . S
C1801 C1805 1.393 . S
C1802 H1794 0.950 . S
C1802 C1800 1.391 . S
C1802 C1803 1.400 . S
C1803 C1802 1.400 . S
C1803 C1804 1.398 . S
C1803 C1809 1.491 1_554 S
C1804 H1795 0.950 . S
C1804 C1803 1.398 . S
C1804 C1805 1.391 . S
C1805 H1793 0.950 . S
C1805 C1801 1.393 . S
C1805 C1804 1.391 . S
C1806 H1796 0.950 . S
C1806 C1807 1.386 . S
C1806 C1808 1.391 . S
C1807 C1806 1.386 . S
C1807 C1811 1.393 . S
C1808 H1797 0.950 . S
C1808 C1806 1.391 . S
C1808 C1809 1.400 . S
C1809 C1803 1.491 1_556 S
C1809 C1808 1.400 . S
C1809 C1810 1.398 . S
C1810 H1798 0.950 . S
C1810 C1809 1.398 . S
C1810 C1811 1.391 . S
C1811 H1799 0.950 . S
C1811 C1807 1.393 . S
C1811 C1810 1.391 . S
H1812 C1820 0.950 . S
H1813 C1825 0.950 . S
H1814 C1822 0.950 . S
H1815 C1824 0.950 . S
H1816 C1826 0.950 . S
H1817 C1828 0.950 . S
H1818 C1830 0.950 . S
H1819 C1831 0.950 . S
C1820 H1812 0.950 . S
C1820 C1821 1.386 . S
C1820 C1822 1.391 . S
C1821 C1820 1.386 . S
C1821 C1825 1.393 . S
C1822 H1814 0.950 . S
C1822 C1820 1.391 . S
C1822 C1823 1.400 . S
C1823 C1822 1.400 . S
C1823 C1824 1.398 . S
C1823 C1829 1.491 1_554 S
C1824 H1815 0.950 . S
C1824 C1823 1.398 . S
C1824 C1825 1.391 . S
C1825 H1813 0.950 . S
C1825 C1821 1.393 . S
C1825 C1824 1.391 . S
C1826 H1816 0.950 . S
C1826 C1827 1.386 . S
C1826 C1828 1.391 . S
C1827 C1826 1.386 . S
C1827 C1831 1.393 . S
C1828 H1817 0.950 . S
C1828 C1826 1.391 . S
C1828 C1829 1.400 . S
C1829 C1823 1.491 1_556 S
C1829 C1828 1.400 . S
C1829 C1830 1.398 . S
C1830 H1818 0.950 . S
C1830 C1829 1.398 . S
C1830 C1831 1.391 . S
C1831 H1819 0.950 . S
C1831 C1827 1.393 . S
C1831 C1830 1.391 . S
H1832 C1840 0.950 . S
H1833 C1845 0.950 . S
H1834 C1842 0.950 . S
H1835 C1844 0.950 . S
H1836 C1846 0.950 . S
H1837 C1848 0.950 . S
H1838 C1850 0.950 . S
H1839 C1851 0.950 . S
C1840 H1832 0.950 . S
C1840 C1841 1.386 . S
C1840 C1842 1.391 . S
C1841 C1840 1.386 . S
C1841 C1845 1.393 . S
C1842 H1834 0.950 . S
C1842 C1840 1.391 . S
C1842 C1843 1.400 . S
C1843 C1842 1.400 . S
C1843 C1844 1.398 . S
C1843 C1849 1.491 1_554 S
C1844 H1835 0.950 . S
C1844 C1843 1.398 . S
C1844 C1845 1.391 . S
C1845 H1833 0.950 . S
C1845 C1841 1.393 . S
C1845 C1844 1.391 . S
C1846 H1836 0.950 . S
C1846 C1847 1.386 . S
C1846 C1848 1.391 . S
C1847 C1846 1.386 . S
C1847 C1851 1.393 . S
C1848 H1837 0.950 . S
C1848 C1846 1.391 . S
C1848 C1849 1.400 . S
C1849 C1843 1.491 1_556 S
C1849 C1848 1.400 . S
C1849 C1850 1.398 . S
C1850 H1838 0.950 . S
C1850 C1849 1.398 . S
C1850 C1851 1.391 . S
C1851 H1839 0.950 . S
C1851 C1847 1.393 . S
C1851 C1850 1.391 . S
H1852 C1860 0.950 . S
H1853 C1865 0.950 . S
H1854 C1862 0.950 . S
H1855 C1864 0.950 . S
H1856 C1866 0.950 . S
H1857 C1868 0.950 . S
H1858 C1870 0.950 . S
H1859 C1871 0.950 . S
C1860 H1852 0.950 . S
C1860 C1861 1.386 . S
C1860 C1862 1.391 . S
C1861 C1860 1.386 . S
C1861 C1865 1.393 . S
C1862 H1854 0.950 . S
C1862 C1860 1.391 . S
C1862 C1863 1.400 . S
C1863 C1862 1.400 . S
C1863 C1864 1.398 . S
C1863 C1869 1.491 1_556 S
C1864 H1855 0.950 . S
C1864 C1863 1.398 . S
C1864 C1865 1.391 . S
C1865 H1853 0.950 . S
C1865 C1861 1.393 . S
C1865 C1864 1.391 . S
C1866 H1856 0.950 . S
C1866 C1867 1.386 . S
C1866 C1868 1.391 . S
C1867 C1866 1.386 . S
C1867 C1871 1.393 . S
C1868 H1857 0.950 . S
C1868 C1866 1.391 . S
C1868 C1869 1.400 . S
C1869 C1863 1.491 1_554 S
C1869 C1868 1.400 . S
C1869 C1870 1.398 . S
C1870 H1858 0.950 . S
C1870 C1869 1.398 . S
C1870 C1871 1.391 . S
C1871 H1859 0.950 . S
C1871 C1867 1.393 . S
C1871 C1870 1.391 . S
H1872 C1880 0.950 . S
H1873 C1885 0.950 . S
H1874 C1882 0.950 . S
H1875 C1884 0.950 . S
H1876 C1886 0.950 . S
H1877 C1888 0.950 . S
H1878 C1890 0.950 . S
H1879 C1891 0.950 . S
C1880 H1872 0.950 . S
C1880 C1881 1.386 . S
C1880 C1882 1.391 . S
C1881 C1880 1.386 . S
C1881 C1885 1.393 . S
C1882 H1874 0.950 . S
C1882 C1880 1.391 . S
C1882 C1883 1.400 . S
C1883 C1882 1.400 . S
C1883 C1884 1.398 . S
C1883 C1889 1.491 . S
C1884 H1875 0.950 . S
C1884 C1883 1.398 . S
C1884 C1885 1.391 . S
C1885 H1873 0.950 . S
C1885 C1881 1.393 . S
C1885 C1884 1.391 . S
C1886 H1876 0.950 . S
C1886 C1887 1.386 . S
C1886 C1888 1.391 . S
C1887 C1886 1.386 . S
C1887 C1891 1.393 . S
C1888 H1877 0.950 . S
C1888 C1886 1.391 . S
C1888 C1889 1.400 . S
C1889 C1883 1.491 . S
C1889 C1888 1.400 . S
C1889 C1890 1.398 . S
C1890 H1878 0.950 . S
C1890 C1889 1.398 . S
C1890 C1891 1.391 . S
C1891 H1879 0.950 . S
C1891 C1887 1.393 . S
C1891 C1890 1.391 . S
H1892 C1900 0.950 . S
H1893 C1905 0.950 . S
H1894 C1902 0.950 . S
H1895 C1904 0.950 . S
H1896 C1906 0.950 . S
H1897 C1908 0.950 . S
H1898 C1910 0.950 . S
H1899 C1911 0.950 . S
C1900 H1892 0.950 . S
C1900 C1901 1.386 . S
C1900 C1902 1.391 . S
C1901 C1900 1.386 . S
C1901 C1905 1.393 . S
C1902 H1894 0.950 . S
C1902 C1900 1.391 . S
C1902 C1903 1.400 . S
C1903 C1902 1.400 . S
C1903 C1904 1.398 . S
C1903 C1909 1.491 . S
C1904 H1895 0.950 . S
C1904 C1903 1.398 . S
C1904 C1905 1.391 . S
C1905 H1893 0.950 . S
C1905 C1901 1.393 . S
C1905 C1904 1.391 . S
C1906 H1896 0.950 . S
C1906 C1907 1.386 . S
C1906 C1908 1.391 . S
C1907 C1906 1.386 . S
C1907 C1911 1.393 . S
C1908 H1897 0.950 . S
C1908 C1906 1.391 . S
C1908 C1909 1.400 . S
C1909 C1903 1.491 . S
C1909 C1908 1.400 . S
C1909 C1910 1.398 . S
C1910 H1898 0.950 . S
C1910 C1909 1.398 . S
C1910 C1911 1.391 . S
C1911 H1899 0.950 . S
C1911 C1907 1.393 . S
C1911 C1910 1.391 . S
H1912 C1920 0.950 . S
H1913 C1925 0.950 . S
H1914 C1922 0.950 . S
H1915 C1924 0.950 . S
H1916 C1926 0.950 . S
H1917 C1928 0.950 . S
H1918 C1930 0.950 . S
H1919 C1931 0.950 . S
C1920 H1912 0.950 . S
C1920 C1921 1.386 . S
C1920 C1922 1.391 . S
C1921 C1920 1.386 . S
C1921 C1925 1.393 . S
C1922 H1914 0.950 . S
C1922 C1920 1.391 . S
C1922 C1923 1.400 . S
C1923 C1922 1.400 . S
C1923 C1924 1.398 . S
C1923 C1929 1.491 . S
C1924 H1915 0.950 . S
C1924 C1923 1.398 . S
C1924 C1925 1.391 . S
C1925 H1913 0.950 . S
C1925 C1921 1.393 . S
C1925 C1924 1.391 . S
C1926 H1916 0.950 . S
C1926 C1927 1.386 . S
C1926 C1928 1.391 . S
C1927 C1926 1.386 . S
C1927 C1931 1.393 . S
C1928 H1917 0.950 . S
C1928 C1926 1.391 . S
C1928 C1929 1.400 . S
C1929 C1923 1.491 . S
C1929 C1928 1.400 . S
C1929 C1930 1.398 . S
C1930 H1918 0.950 . S
C1930 C1929 1.398 . S
C1930 C1931 1.391 . S
C1931 H1919 0.950 . S
C1931 C1927 1.393 . S
C1931 C1930 1.391 . S
H1932 C1940 0.950 . S
H1933 C1945 0.950 . S
H1934 C1942 0.950 . S
H1935 C1944 0.950 . S
H1936 C1946 0.950 . S
H1937 C1948 0.950 . S
H1938 C1950 0.950 . S
H1939 C1951 0.950 . S
C1940 H1932 0.950 . S
C1940 C1941 1.386 . S
C1940 C1942 1.391 . S
C1941 C1940 1.386 . S
C1941 C1945 1.393 . S
C1942 H1934 0.950 . S
C1942 C1940 1.391 . S
C1942 C1943 1.400 . S
C1943 C1942 1.400 . S
C1943 C1944 1.398 . S
C1943 C1949 1.491 . S
C1944 H1935 0.950 . S
C1944 C1943 1.398 . S
C1944 C1945 1.391 . S
C1945 H1933 0.950 . S
C1945 C1941 1.393 . S
C1945 C1944 1.391 . S
C1946 H1936 0.950 . S
C1946 C1947 1.386 . S
C1946 C1948 1.391 . S
C1947 C1946 1.386 . S
C1947 C1951 1.393 . S
C1948 H1937 0.950 . S
C1948 C1946 1.391 . S
C1948 C1949 1.400 . S
C1949 C1943 1.491 . S
C1949 C1948 1.400 . S
C1949 C1950 1.398 . S
C1950 H1938 0.950 . S
C1950 C1949 1.398 . S
C1950 C1951 1.391 . S
C1951 H1939 0.950 . S
C1951 C1947 1.393 . S
C1951 C1950 1.391 . S
H1952 C1960 0.950 . S
H1953 C1965 0.950 . S
H1954 C1962 0.950 . S
H1955 C1964 0.950 . S
H1956 C1966 0.950 . S
H1957 C1968 0.950 . S
H1958 C1970 0.950 . S
H1959 C1971 0.950 . S
C1960 H1952 0.950 . S
C1960 C1961 1.386 . S
C1960 C1962 1.391 . S
C1961 C1960 1.386 . S
C1961 C1965 1.393 . S
C1962 H1954 0.950 . S
C1962 C1960 1.391 . S
C1962 C1963 1.400 . S
C1963 C1962 1.400 . S
C1963 C1964 1.398 . S
C1963 C1969 1.491 . S
C1964 H1955 0.950 . S
C1964 C1963 1.398 . S
C1964 C1965 1.391 . S
C1965 H1953 0.950 . S
C1965 C1961 1.393 . S
C1965 C1964 1.391 . S
C1966 H1956 0.950 . S
C1966 C1967 1.386 . S
C1966 C1968 1.391 . S
C1967 C1966 1.386 . S
C1967 C1971 1.393 . S
C1968 H1957 0.950 . S
C1968 C1966 1.391 . S
C1968 C1969 1.400 . S
C1969 C1963 1.491 . S
C1969 C1968 1.400 . S
C1969 C1970 1.398 . S
C1970 H1958 0.950 . S
C1970 C1969 1.398 . S
C1970 C1971 1.391 . S
C1971 H1959 0.950 . S
C1971 C1967 1.393 . S
C1971 C1970 1.391 . S
H1972 C1980 0.950 . S
H1973 C1985 0.950 . S
H1974 C1982 0.950 . S
H1975 C1984 0.950 . S
H1976 C1986 0.950 . S
H1977 C1988 0.950 . S
H1978 C1990 0.950 . S
H1979 C1991 0.950 . S
C1980 H1972 0.950 . S
C1980 C1981 1.386 . S
C1980 C1982 1.391 . S
C1981 C1980 1.386 . S
C1981 C1985 1.393 . S
C1982 H1974 0.950 . S
C1982 C1980 1.391 . S
C1982 C1983 1.400 . S
C1983 C1982 1.400 . S
C1983 C1984 1.398 . S
C1983 C1989 1.491 . S
C1984 H1975 0.950 . S
C1984 C1983 1.398 . S
C1984 C1985 1.391 . S
C1985 H1973 0.950 . S
C1985 C1981 1.393 . S
C1985 C1984 1.391 . S
C1986 H1976 0.950 . S
C1986 C1987 1.386 . S
C1986 C1988 1.391 . S
C1987 C1986 1.386 . S
C1987 C1991 1.393 . S
C1988 H1977 0.950 . S
C1988 C1986 1.391 . S
C1988 C1989 1.400 . S
C1989 C1983 1.491 . S
C1989 C1988 1.400 . S
C1989 C1990 1.398 . S
C1990 H1978 0.950 . S
C1990 C1989 1.398 . S
C1990 C1991 1.391 . S
C1991 H1979 0.950 . S
C1991 C1987 1.393 . S
C1991 C1990 1.391 . S
C801 N13 0.851 . S
C807 N112 0.846 . S
C821 N145 0.831 . S
C827 N46 0.842 . S
C841 N178 0.846 . S
C847 N79 0.851 . S
C861 N310 0.811 . S
C867 N211 0.871 . S
C881 N244 0.832 . S
C887 N343 0.842 . S
C901 N277 0.857 . S
C907 N376 0.818 . S
C921 N508 0.839 . S
C927 N409 0.857 . S
C941 N541 0.873 . S
C947 N442 0.812 . S
C961 N574 0.828 . S
C967 N475 0.846 . S
C981 N706 0.841 . S
C987 N607 0.832 . S
C1001 N640 0.812 . S
C1007 N739 0.872 . S
C1021 N772 0.811 . S
C1027 N673 0.871 . S
C1041 N266 1.785 . S
C1047 N2 1.786 . S
C1061 N35 1.786 . S
C1067 N299 1.785 . S
C1081 N68 1.782 . S
C1087 N332 1.784 . S
C1101 N101 1.785 . S
C1107 N365 1.786 . S
C1121 N134 1.783 . S
C1127 N200 1.782 . S
C1141 N233 1.783 . S
C1147 N167 1.782 . S
C1161 N398 1.785 . S
C1167 N662 1.783 . S
C1181 N695 1.782 . S
C1187 N431 1.783 . S
C1201 N728 1.782 . S
C1207 N464 1.783 . S
C1221 N497 1.785 . S
C1227 N761 1.785 . S
C1241 N596 1.786 . S
C1247 N530 1.785 . S
C1261 N629 1.785 . S
C1267 N563 1.784 . S
C1281 C21 0.634 . S
C1287 C252 0.656 . S
C1301 C54 0.673 . S
C1307 C285 0.621 . S
C1321 C318 0.623 . S
C1327 C87 0.671 . S
C1341 C120 0.621 . S
C1347 C351 0.669 . S
C1361 C384 0.641 . S
C1367 C153 0.648 . S
C1381 C219 0.663 . S
C1387 C186 0.633 . S
C1401 C417 0.676 . S
C1407 C648 0.616 . S
C1421 C450 0.632 . S
C1427 C681 0.663 . S
C1441 C483 0.644 . S
C1447 C714 0.652 . S
C1461 C516 0.676 . S
C1467 C747 0.617 . S
C1481 C549 0.644 . S
C1487 C780 0.652 . S
C1501 C615 0.617 . S
C1507 C582 0.676 . S
C1521 C7 0.969 . S
C1527 C337 0.958 . S
C1541 C370 0.974 . S
C1547 C40 0.987 . S
C1561 C205 0.960 . S
C1567 C73 0.989 . S
C1581 C238 0.976 . S
C1587 C106 0.955 . S
C1601 C139 0.989 . S
C1607 C271 0.960 . S
C1621 C172 0.969 . S
C1627 C304 0.989 . S
C1641 C403 0.986 . S
C1647 C733 0.956 . S
C1661 C766 0.985 . S
C1667 C436 0.976 . S
C1681 C601 0.979 . S
C1687 C469 0.983 . S
C1701 C502 0.958 . S
C1707 C634 0.969 . S
C1721 C535 0.975 . S
C1727 C667 0.986 . S
C1741 C700 0.956 . S
C1747 C568 0.974 . S
C1761 C18 1.152 . S
C1767 C513 1.168 . S
C1781 C51 1.166 . S
C1787 C546 1.154 . S
C1801 C84 1.152 . S
C1807 C579 1.168 . S
C1821 C117 1.166 . S
C1827 C414 1.154 . S
C1841 C150 1.160 . S
C1847 C447 1.160 . S
C1861 C480 1.160 . S
C1867 C183 1.160 . S
C1881 C216 1.165 . S
C1887 C711 1.155 . S
C1901 C249 1.155 . S
C1907 C744 1.165 . S
C1921 C282 1.167 . S
C1927 C777 1.153 . S
C1941 C315 1.157 . S
C1947 C612 1.163 . S
C1961 C348 1.164 . S
C1967 C645 1.156 . S
C1981 C678 1.157 . S
C1987 C381 1.163 . S
