# Generated by pormake.
# Topology wjd, (6)-cn, num edge types: 1
# Building blocks:
#     Node 0, Type 0, BuildingBlock: INOVEN_clean_sbu_0, # of connection points: 6
#     Node 1, Type 0, BuildingBlock: INOVEN_clean_sbu_0, # of connection points: 6
#     Node 2, Type 0, BuildingBlock: INOVEN_clean_sbu_0, # of connection points: 6
#     Node 3, Type 0, BuildingBlock: INOVEN_clean_sbu_0, # of connection points: 6
#     Node 4, Type 0, BuildingBlock: INOVEN_clean_sbu_0, # of connection points: 6
#     Node 5, Type 0, BuildingBlock: INOVEN_clean_sbu_0, # of connection points: 6
#     Node 6, Type 0, BuildingBlock: INOVEN_clean_sbu_0, # of connection points: 6
#     Node 7, Type 0, BuildingBlock: INOVEN_clean_sbu_0, # of connection points: 6
#     Node 8, Type 0, BuildingBlock: INOVEN_clean_sbu_0, # of connection points: 6
#     Node 9, Type 0, BuildingBlock: INOVEN_clean_sbu_0, # of connection points: 6
#     Node 10, Type 0, BuildingBlock: INOVEN_clean_sbu_0, # of connection points: 6
#     Node 11, Type 0, BuildingBlock: INOVEN_clean_sbu_0, # of connection points: 6
#     Edge 12, Type (0, 0), BuildingBlock: AJUNOK_clean_linker_0, # of connection points: 2
#     Edge 13, Type (0, 0), BuildingBlock: AJUNOK_clean_linker_0, # of connection points: 2
#     Edge 14, Type (0, 0), BuildingBlock: AJUNOK_clean_linker_0, # of connection points: 2
#     Edge 15, Type (0, 0), BuildingBlock: AJUNOK_clean_linker_0, # of connection points: 2
#     Edge 16, Type (0, 0), BuildingBlock: AJUNOK_clean_linker_0, # of connection points: 2
#     Edge 17, Type (0, 0), BuildingBlock: AJUNOK_clean_linker_0, # of connection points: 2
#     Edge 18, Type (0, 0), BuildingBlock: AJUNOK_clean_linker_0, # of connection points: 2
#     Edge 19, Type (0, 0), BuildingBlock: AJUNOK_clean_linker_0, # of connection points: 2
#     Edge 20, Type (0, 0), BuildingBlock: AJUNOK_clean_linker_0, # of connection points: 2
#     Edge 21, Type (0, 0), BuildingBlock: AJUNOK_clean_linker_0, # of connection points: 2
#     Edge 22, Type (0, 0), BuildingBlock: AJUNOK_clean_linker_0, # of connection points: 2
#     Edge 23, Type (0, 0), BuildingBlock: AJUNOK_clean_linker_0, # of connection points: 2
#     Edge 24, Type (0, 0), BuildingBlock: AJUNOK_clean_linker_0, # of connection points: 2
#     Edge 25, Type (0, 0), BuildingBlock: AJUNOK_clean_linker_0, # of connection points: 2
#     Edge 26, Type (0, 0), BuildingBlock: AJUNOK_clean_linker_0, # of connection points: 2
#     Edge 27, Type (0, 0), BuildingBlock: AJUNOK_clean_linker_0, # of connection points: 2
#     Edge 28, Type (0, 0), BuildingBlock: AJUNOK_clean_linker_0, # of connection points: 2
#     Edge 29, Type (0, 0), BuildingBlock: AJUNOK_clean_linker_0, # of connection points: 2
#     Edge 30, Type (0, 0), BuildingBlock: AJUNOK_clean_linker_0, # of connection points: 2
#     Edge 31, Type (0, 0), BuildingBlock: AJUNOK_clean_linker_0, # of connection points: 2
#     Edge 32, Type (0, 0), BuildingBlock: AJUNOK_clean_linker_0, # of connection points: 2
#     Edge 33, Type (0, 0), BuildingBlock: AJUNOK_clean_linker_0, # of connection points: 2
#     Edge 34, Type (0, 0), BuildingBlock: AJUNOK_clean_linker_0, # of connection points: 2
#     Edge 35, Type (0, 0), BuildingBlock: AJUNOK_clean_linker_0, # of connection points: 2
#     Edge 36, Type (0, 0), BuildingBlock: AJUNOK_clean_linker_0, # of connection points: 2
#     Edge 37, Type (0, 0), BuildingBlock: AJUNOK_clean_linker_0, # of connection points: 2
#     Edge 38, Type (0, 0), BuildingBlock: AJUNOK_clean_linker_0, # of connection points: 2
#     Edge 39, Type (0, 0), BuildingBlock: AJUNOK_clean_linker_0, # of connection points: 2
#     Edge 40, Type (0, 0), BuildingBlock: AJUNOK_clean_linker_0, # of connection points: 2
#     Edge 41, Type (0, 0), BuildingBlock: AJUNOK_clean_linker_0, # of connection points: 2
#     Edge 42, Type (0, 0), BuildingBlock: AJUNOK_clean_linker_0, # of connection points: 2
#     Edge 43, Type (0, 0), BuildingBlock: AJUNOK_clean_linker_0, # of connection points: 2
#     Edge 44, Type (0, 0), BuildingBlock: AJUNOK_clean_linker_0, # of connection points: 2
#     Edge 45, Type (0, 0), BuildingBlock: AJUNOK_clean_linker_0, # of connection points: 2
#     Edge 46, Type (0, 0), BuildingBlock: AJUNOK_clean_linker_0, # of connection points: 2
#     Edge 47, Type (0, 0), BuildingBlock: AJUNOK_clean_linker_0, # of connection points: 2
# Relax obj value: 0.105
# Max RMSD: 0.237
# Mean RMSD: 0.237
data_MOF--net-wjd--node1-INOVEN_clean_sbu_0--edge1-AJUNOK_clean_linker_0
_symmetry_space_group_name_H-M    P1
_symmetry_Int_Tables_number       1
_symmetry_cell_setting            triclinic
loop_
_symmetry_equiv_pos_as_xyz
'x, y, z'
_cell_length_a     32.204357
_cell_length_b     32.276171
_cell_length_c     37.965377
_cell_angle_alpha  89.806095
_cell_angle_beta   90.572507
_cell_angle_gamma 119.89587
loop_
_atom_site_label
_atom_site_type_symbol
_atom_site_fract_x
_atom_site_fract_y
_atom_site_fract_z
_atom_type_partial_charge
Gd0 Gd 0.40054 0.18741 0.1094 0.0
Gd1 Gd 0.34807 0.09572 0.14248 0.0
C2 C 0.46087 0.14298 0.13773 0.0
C3 C 0.45882 0.27475 0.08902 0.0
C4 C 0.50168 0.32172 0.09687 0.0
C5 C 0.52359 0.35375 0.06901 0.0
C6 C 0.51833 0.33703 0.13141 0.0
C7 C 0.57724 0.41652 0.10988 0.0
C8 C 0.55593 0.3839 0.13784 0.0
C9 C 0.56077 0.40043 0.07537 0.0
C10 C 0.36473 0.10977 0.06353 0.0
C11 C 0.29507 0.15841 0.12415 0.0
C12 C 0.27456 1.01047 0.14162 0.0
C13 C 0.22142 0.98534 0.14421 0.0
C14 C 0.19698 0.96152 0.1749 0.0
C15 C 0.19432 0.9812 0.11361 0.0
C16 C 0.12045 0.92747 0.14325 0.0
C17 C 0.14473 0.95281 0.11321 0.0
C18 C 0.1467 0.93286 0.17446 0.0
C19 C 0.38572 0.16045 0.19385 0.0
O20 O 0.45699 0.18148 0.1395 0.0
O21 O 0.42102 0.10064 0.13499 0.0
O22 O 0.4644 0.23856 0.08069 0.0
O23 O 0.42086 0.26222 0.10806 0.0
O24 O 0.36434 0.14906 0.0571 0.0
O25 O 0.38493 0.11482 0.09271 0.0
O26 O 0.29427 0.12215 0.14086 0.0
O27 O 0.33304 0.18911 0.10713 0.0
O28 O 0.30254 0.02725 0.16966 0.0
O29 O 0.29087 0.03925 0.11473 0.0
O30 O 0.38335 0.11881 0.19401 0.0
O31 O 0.36886 0.16713 0.16472 0.0
H32 H 0.51109 0.343 0.04218 0.0
H33 H 0.50192 0.31299 0.15339 0.0
H34 H 0.56843 0.39447 0.16464 0.0
H35 H 0.57603 0.42433 0.05317 0.0
H36 H 0.21671 0.9636 0.19873 0.0
H37 H 0.21143 0.99834 0.08917 0.0
H38 H 0.12535 0.94907 0.08882 0.0
H39 H 0.12862 0.91306 0.19787 0.0
Gd40 Gd 0.80677 0.7245 0.3897 0.0
Gd41 Gd 0.84052 0.66585 0.42134 0.0
C42 C 0.92233 0.77097 0.40703 0.0
C43 C 0.79175 0.79618 0.38716 0.0
C44 C 0.81992 0.84922 0.38575 0.0
C45 C 0.8171 0.87443 0.35644 0.0
C46 C 0.84586 0.87531 0.41578 0.0
C47 C 0.86189 0.94978 0.38844 0.0
C48 C 0.86632 0.9248 0.4171 0.0
C49 C 0.83818 0.92442 0.3577 0.0
C50 C 0.82748 0.68251 0.3376 0.0
C51 C 0.73647 0.61187 0.39198 0.0
C52 C 0.86382 0.60315 0.44324 0.0
C53 C 0.8698 0.56161 0.4344 0.0
C54 C 0.86642 0.5304 0.4615 0.0
C55 C 0.88318 0.55497 0.40066 0.0
C56 C 0.8925 0.4883 0.42205 0.0
C57 C 0.89416 0.51853 0.39452 0.0
C58 C 0.87741 0.49412 0.45542 0.0
C59 C 0.80172 0.70421 0.46792 0.0
O60 O 0.88682 0.77809 0.39737 0.0
O61 O 0.91335 0.72845 0.41672 0.0
O62 O 0.78746 0.77063 0.35909 0.0
O63 O 0.79838 0.77793 0.41583 0.0
O64 O 0.79128 0.68996 0.33775 0.0
O65 O 0.85267 0.69824 0.36609 0.0
O66 O 0.77709 0.61166 0.39077 0.0
O67 O 0.73728 0.65312 0.39669 0.0
O68 O 0.82067 0.59691 0.44576 0.0
O69 O 0.89379 0.64428 0.42935 0.0
O70 O 0.84074 0.70288 0.47394 0.0
O71 O 0.78637 0.68522 0.43862 0.0
H72 H 0.79713 0.8554 0.33313 0.0
H73 H 0.84892 0.85752 0.43908 0.0
H74 H 0.88444 0.94353 0.44106 0.0
H75 H 0.83393 0.94297 0.33535 0.0
H76 H 0.85627 0.53478 0.48776 0.0
H77 H 0.88622 0.57861 0.37927 0.0
H78 H 0.90528 0.51486 0.36844 0.0
H79 H 0.87422 0.47069 0.47698 0.0
Gd80 Gd 0.87942 0.22418 0.10704 0.0
Gd81 Gd 0.9743 0.26021 0.13901 0.0
C82 C 0.92908 0.32933 0.13728 0.0
C83 C 0.79407 0.20049 0.08315 0.0
C84 C 0.74552 0.18986 0.09364 0.0
C85 C 0.70692 0.1645 0.07021 0.0
C86 C 0.73705 0.20533 0.12594 0.0
C87 C 0.65216 0.17073 0.11078 0.0
C88 C 0.69078 0.19608 0.13433 0.0
C89 C 0.66067 0.15486 0.07872 0.0
C90 C 0.95608 0.26091 0.06054 0.0
C91 C 0.90409 0.14563 0.12933 0.0
C92 C 0.06112 0.27731 0.13345 0.0
C93 C 0.08927 0.25276 0.13838 0.0
C94 C 0.12151 0.26347 0.16668 0.0
C95 C 0.08715 0.2211 0.11196 0.0
C96 C 0.15094 0.2143 0.14033 0.0
C97 C 0.11749 0.20218 0.11299 0.0
C98 C 0.15209 0.2441 0.16774 0.0
C99 C 0.91784 0.22855 0.19536 0.0
O100 O 0.88812 0.28887 0.13492 0.0
O101 O 0.97044 0.32924 0.13604 0.0
O102 O 0.829 0.24455 0.08624 0.0
O103 O 0.80716 0.16952 0.09195 0.0
O104 O 0.91637 0.22115 0.05569 0.0
O105 O 0.95271 0.27753 0.08938 0.0
O106 O 0.94861 0.18125 0.12895 0.0
O107 O 0.86851 0.15407 0.12596 0.0
O108 O 0.04781 0.29315 0.16059 0.0
O109 O 1.02776 0.25747 0.10932 0.0
O110 O 0.96415 0.24941 0.19609 0.0
O111 O 0.90104 0.22583 0.164 0.0
H112 H 0.71267 0.15254 0.04503 0.0
H113 H 0.76622 0.22496 0.14443 0.0
H114 H 0.68513 0.20894 0.15913 0.0
H115 H 0.63173 0.13601 0.0599 0.0
H116 H 0.12423 0.28795 0.18721 0.0
H117 H 0.06325 0.21204 0.08943 0.0
H118 H 0.11593 0.17921 0.09164 0.0
H119 H 0.17805 0.25413 0.18899 0.0
Gd120 Gd 0.34508 0.0949 0.39296 0.0
Gd121 Gd 0.40089 0.18998 0.42281 0.0
C122 C 0.2932 0.15922 0.40952 0.0
C123 C 0.27617 1.00695 0.38965 0.0
C124 C 0.22282 0.98123 0.38805 0.0
C125 C 0.19832 0.94894 0.36051 0.0
C126 C 0.19583 0.98494 0.41571 0.0
C127 C 0.122 0.92143 0.38998 0.0
C128 C 0.14597 0.95529 0.41664 0.0
C129 C 0.1484 0.91923 0.36152 0.0
C130 C 0.38351 0.15842 0.34022 0.0
C131 C 0.45819 0.14043 0.39683 0.0
C132 C 0.46124 0.27782 0.44156 0.0
C133 C 0.50503 0.3235 0.43277 0.0
C134 C 0.53324 0.35377 0.46027 0.0
C135 C 0.51612 0.33996 0.39792 0.0
C136 C 0.58034 0.41778 0.41857 0.0
C137 C 0.55345 0.3865 0.39092 0.0
C138 C 0.57056 0.40021 0.4533 0.0
C139 C 0.36328 0.11549 0.47105 0.0
O140 O 0.28908 0.11851 0.39841 0.0
O141 O 0.33425 0.19418 0.42083 0.0
O142 O 0.30026 0.03044 0.36179 0.0
O143 O 0.29555 0.0297 0.41897 0.0
O144 O 0.3806 0.11667 0.3414 0.0
O145 O 0.36666 0.16581 0.36853 0.0
O146 O 0.45732 0.18074 0.39549 0.0
O147 O 0.41753 0.09929 0.40053 0.0
O148 O 0.46541 0.24132 0.45169 0.0
O149 O 0.42326 0.26525 0.42195 0.0
O150 O 0.36318 0.15532 0.47508 0.0
O151 O 0.38348 0.11816 0.44258 0.0
H152 H 0.21801 0.94522 0.33896 0.0
H153 H 0.21332 1.00935 0.43748 0.0
H154 H 0.12642 0.95712 0.43909 0.0
H155 H 0.1306 0.89303 0.34082 0.0
H156 H 0.52546 0.34196 0.48737 0.0
H157 H 0.49498 0.31742 0.37617 0.0
H158 H 0.56017 0.39858 0.36385 0.0
H159 H 0.59147 0.42248 0.47521 0.0
Gd160 Gd 0.84969 0.67176 0.10818 0.0
Gd161 Gd 0.80445 0.72325 0.13934 0.0
C162 C 0.73909 0.61059 0.12922 0.0
C163 C 0.88285 0.61546 0.09058 0.0
C164 C 0.88327 0.57023 0.09786 0.0
C165 C 0.90185 0.55262 0.07234 0.0
C166 C 0.87096 0.54751 0.13088 0.0
C167 C 0.8992 0.49265 0.11333 0.0
C168 C 0.87852 0.50896 0.13842 0.0
C169 C 0.90959 0.51435 0.07989 0.0
C170 C 0.8187 0.71745 0.0615 0.0
C171 C 0.9217 0.77827 0.12601 0.0
C172 C 0.78261 0.78992 0.14652 0.0
C173 C 0.80948 0.84331 0.14497 0.0
C174 C 0.82245 0.87061 0.1761 0.0
C175 C 0.82043 0.86763 0.11244 0.0
C176 C 0.85216 0.94458 0.14235 0.0
C177 C 0.84165 0.91761 0.11119 0.0
C178 C 0.8437 0.92055 0.17481 0.0
C179 C 0.82626 0.67842 0.19006 0.0
O180 O 0.78034 0.61138 0.12767 0.0
O181 O 0.73735 0.65085 0.13077 0.0
O182 O 0.84535 0.61377 0.07542 0.0
O183 O 0.90215 0.64896 0.11448 0.0
O184 O 0.85924 0.71822 0.05854 0.0
O185 O 0.79796 0.69242 0.08774 0.0
O186 O 0.88331 0.78163 0.13334 0.0
O187 O 0.91808 0.73757 0.117 0.0
O188 O 0.7909 0.7694 0.17338 0.0
O189 O 0.77747 0.76712 0.11696 0.0
O190 O 0.78716 0.68092 0.18847 0.0
O191 O 0.85265 0.69976 0.16347 0.0
H192 H 0.91176 0.56946 0.04671 0.0
H193 H 0.85677 0.56041 0.15115 0.0
H194 H 0.86963 0.4929 0.16434 0.0
H195 H 0.92409 0.50195 0.0595 0.0
H196 H 0.81507 0.85326 0.20157 0.0
H197 H 0.81137 0.84802 0.08783 0.0
H198 H 0.84782 0.93495 0.08576 0.0
H199 H 0.85243 0.94033 0.19932 0.0
Gd200 Gd 0.97679 0.26494 0.39268 0.0
Gd201 Gd 0.88109 0.22218 0.42268 0.0
C202 C 0.91307 0.14845 0.40491 0.0
C203 C 0.06555 0.28783 0.38353 0.0
C204 C 0.09297 0.26199 0.38419 0.0
C205 C 0.13242 0.2765 0.36197 0.0
C206 C 0.08173 0.22443 0.40801 0.0
C207 C 0.15124 0.21918 0.3894 0.0
C208 C 0.11093 0.20372 0.41093 0.0
C209 C 0.16113 0.25516 0.3644 0.0
C210 C 0.91175 0.24754 0.34111 0.0
C211 C 0.93107 0.33141 0.40184 0.0
C212 C 0.79333 0.19322 0.44249 0.0
C213 C 0.7475 0.19217 0.43429 0.0
C214 C 0.71772 0.18923 0.46211 0.0
C215 C 0.73045 0.18869 0.39954 0.0
C216 C 0.65319 0.17547 0.42088 0.0
C217 C 0.68393 0.18064 0.39293 0.0
C218 C 0.67129 0.18119 0.45554 0.0
C219 C 0.95613 0.24911 0.47041 0.0
O220 O 0.95577 0.18632 0.39965 0.0
O221 O 0.8758 0.15282 0.41185 0.0
O222 O 1.03536 0.27849 0.35744 0.0
O223 O 0.04844 0.29174 0.41363 0.0
O224 O 0.95366 0.28571 0.34377 0.0
O225 O 0.90506 0.21939 0.36704 0.0
O226 O 0.89043 0.29066 0.40019 0.0
O227 O 0.97244 0.33185 0.40414 0.0
O228 O 0.83014 0.23306 0.45356 0.0
O229 O 0.80568 0.16912 0.42172 0.0
O230 O 0.91567 0.20955 0.4725 0.0
O231 O 0.95358 0.27185 0.44462 0.0
H232 H 0.1417 0.30516 0.34326 0.0
H233 H 0.05086 0.2116 0.4248 0.0
H234 H 0.10222 0.1758 0.43021 0.0
H235 H 0.19212 0.268 0.3476 0.0
H236 H 0.72989 0.19177 0.48914 0.0
H237 H 0.75254 0.19075 0.37752 0.0
H238 H 0.67141 0.17683 0.36592 0.0
H239 H 0.6494 0.17903 0.4777 0.0
Gd240 Gd 0.11066 0.32925 0.63855 0.0
Gd241 Gd 0.20898 0.38218 0.6051 0.0
C242 C 0.17623 0.27692 0.6286 0.0
C243 C 1.02086 0.26449 0.63696 0.0
C244 C 0.99318 0.21129 0.63897 0.0
C245 C 0.96284 0.18792 0.6675 0.0
C246 C 0.99411 0.18332 0.61084 0.0
C247 C 0.93174 0.11076 0.63802 0.0
C248 C 0.9638 0.1338 0.61041 0.0
C249 C 0.93258 0.13804 0.66713 0.0
C250 C 0.17164 0.35903 0.69345 0.0
C251 C 0.16053 0.44354 0.63018 0.0
C252 C 0.29579 0.44031 0.5839 0.0
C253 C 0.34068 0.48494 0.5933 0.0
C254 C 0.36886 0.51588 0.5664 0.0
C255 C 0.35843 0.49461 0.62808 0.0
C256 C 0.43382 0.56256 0.60825 0.0
C257 C 0.40442 0.533 0.63545 0.0
C258 C 0.41475 0.55437 0.57377 0.0
C259 C 0.13059 0.337 0.56029 0.0
O260 O 0.13329 0.2722 0.6335 0.0
O261 O 0.21318 0.31809 0.62006 0.0
O262 O 1.04185 0.28919 0.66551 0.0
O263 O 0.04731 0.28197 0.60909 0.0
O264 O 0.12538 0.33727 0.69578 0.0
O265 O 0.18535 0.36752 0.6613 0.0
O266 O 0.20064 0.44208 0.62714 0.0
O267 O 0.11832 0.40357 0.63342 0.0
O268 O 0.25866 0.44347 0.57346 0.0
O269 O 0.284 0.40301 0.60382 0.0
O270 O 0.16978 0.33554 0.55615 0.0
O271 O 0.13605 0.36155 0.5872 0.0
H272 H 0.96136 0.20834 0.68954 0.0
H273 H 1.01715 0.19969 0.58841 0.0
H274 H 0.9644 0.11357 0.58789 0.0
H275 H 0.90825 0.12109 0.6888 0.0
H276 H 0.35592 0.50943 0.5394 0.0
H277 H 0.33745 0.47155 0.64943 0.0
H278 H 0.41765 0.53847 0.66235 0.0
H279 H 0.4355 0.57738 0.55234 0.0
Gd280 Gd 0.23836 0.86222 0.92278 0.0
Gd281 Gd 0.26737 0.95409 0.88869 0.0
C282 C 0.34338 0.91464 0.89427 0.0
C283 C 0.21314 0.77652 0.94553 0.0
C284 C 0.20727 0.72928 0.93613 0.0
C285 C 0.20064 0.69684 0.96319 0.0
C286 C 0.20443 0.71451 0.90099 0.0
C287 C 0.18572 0.63453 0.92029 0.0
C288 C 0.194 0.66769 0.89317 0.0
C289 C 0.19018 0.65015 0.95542 0.0
C290 C 0.27231 0.94071 0.9687 0.0
C291 C 0.15768 0.88633 0.90664 0.0
C292 C 0.29175 0.04251 0.87691 0.0
C293 C 0.26688 0.07051 0.87227 0.0
C294 C 0.28851 0.11325 0.85303 0.0
C295 C 0.22697 0.06027 0.8934 0.0
C296 C 0.23513 0.13739 0.8796 0.0
C297 C 0.2118 0.09367 0.8974 0.0
C298 C 0.27236 0.14622 0.85634 0.0
C299 C 0.22497 0.88108 0.84078 0.0
O300 O 0.30514 0.87247 0.8986 0.0
O301 O 0.33945 0.9539 0.89105 0.0
O302 O 0.25645 0.8129 0.94912 0.0
O303 O 0.18381 0.78825 0.93044 0.0
O304 O 0.23668 0.89854 0.97535 0.0
O305 O 0.2877 0.93791 0.93933 0.0
O306 O 0.19302 0.93069 0.91028 0.0
O307 O 0.16766 0.85181 0.90459 0.0
O308 O 0.29218 1.015 0.85164 0.0
O309 O 0.28378 1.02202 0.90739 0.0
O310 O 0.21712 0.91651 0.84361 0.0
O311 O 0.25336 0.88464 0.86556 0.0
H312 H 0.20273 0.7074 0.9905 0.0
H313 H 0.20932 0.73883 0.87963 0.0
H314 H 0.19126 0.65705 0.86583 0.0
H315 H 0.18567 0.62628 0.97701 0.0
H316 H 0.3195 0.12232 0.83698 0.0
H317 H 0.20934 0.02771 0.90874 0.0
H318 H 0.18271 0.08595 0.91519 0.0
H319 H 0.29056 0.17972 0.84216 0.0
Gd320 Gd 0.73786 0.7947 0.64162 0.0
Gd321 Gd 0.67987 0.82722 0.61099 0.0
C322 C 0.78423 0.90922 0.62672 0.0
C323 C 0.81342 0.78692 0.63879 0.0
C324 C 0.86577 0.81169 0.64458 0.0
C325 C 0.88604 0.79511 0.66983 0.0
C326 C 0.8961 0.84696 0.62044 0.0
C327 C 0.96464 0.84377 0.64364 0.0
C328 C 0.94484 0.8626 0.61992 0.0
C329 C 0.93528 0.81145 0.66962 0.0
C330 C 0.69397 0.8082 0.69505 0.0
C331 C 0.62622 0.72173 0.63614 0.0
C332 C 0.61983 0.85523 0.59161 0.0
C333 C 0.57887 0.86267 0.59901 0.0
C334 C 0.55993 0.87677 0.57108 0.0
C335 C 0.56203 0.86156 0.63324 0.0
C336 C 0.50737 0.88821 0.61103 0.0
C337 C 0.52643 0.87399 0.63916 0.0
C338 C 0.52518 0.88985 0.57699 0.0
C339 C 0.71812 0.78977 0.5627 0.0
O340 O 0.78762 0.8756 0.64405 0.0
O341 O 0.74522 0.89855 0.60913 0.0
O342 O 0.78324 0.76841 0.6651 0.0
O343 O 0.79961 0.80667 0.61476 0.0
O344 O 0.70452 0.77418 0.69297 0.0
O345 O 0.70869 0.83642 0.66796 0.0
O346 O 0.62441 0.76138 0.63787 0.0
O347 O 0.66833 0.72429 0.63153 0.0
O348 O 0.6125 0.81227 0.58526 0.0
O349 O 0.65962 0.88177 0.60889 0.0
O350 O 0.71479 0.82765 0.55723 0.0
O351 O 0.69962 0.7739 0.59193 0.0
H352 H 0.8636 0.7679 0.68857 0.0
H353 H 0.88201 0.86058 0.6003 0.0
H354 H 0.96648 0.88734 0.59953 0.0
H355 H 0.95004 0.79732 0.68883 0.0
H356 H 0.5731 0.87903 0.54458 0.0
H357 H 0.57675 0.85165 0.65536 0.0
H358 H 0.51365 0.87221 0.6657 0.0
H359 H 0.51289 0.9021 0.55477 0.0
Gd360 Gd 0.2057 0.38734 0.92292 0.0
Gd361 Gd 0.11911 0.33346 0.88597 0.0
C362 C 0.15425 0.44261 0.89532 0.0
C363 C 0.29241 0.4469 0.94511 0.0
C364 C 0.33922 0.48781 0.9347 0.0
C365 C 0.37573 0.50928 0.96023 0.0
C366 C 0.34958 0.50302 0.89952 0.0
C367 C 0.4326 0.55972 0.91569 0.0
C368 C 0.39587 0.53903 0.89015 0.0
C369 C 0.42194 0.54485 0.95085 0.0
C370 C 0.12591 0.34477 0.96671 0.0
C371 C 0.18578 0.28606 0.9023 0.0
C372 C 0.04342 0.25176 0.88315 0.0
C373 C 1.00157 0.20343 0.88556 0.0
C374 C 0.97531 0.17971 0.85533 0.0
C375 C 0.9932 0.17777 0.91725 0.0
C376 C 0.93421 0.10504 0.88823 0.0
C377 C 0.9598 0.12916 0.91859 0.0
C378 C 0.94216 0.13076 0.85657 0.0
C379 C 0.18414 0.38113 0.83703 0.0
O380 O 0.19593 0.44438 0.89688 0.0
O381 O 0.11418 0.40043 0.89622 0.0
O382 O 0.25618 0.45394 0.94961 0.0
O383 O 0.27986 0.40629 0.92962 0.0
O384 O 0.16738 0.34979 0.97469 0.0
O385 O 0.13052 0.36536 0.93788 0.0
O386 O 0.15548 0.28905 0.88049 0.0
O387 O 0.20882 0.31993 0.92539 0.0
O388 O 0.04874 0.28558 0.86087 0.0
O389 O 0.07689 0.26452 0.90734 0.0
O390 O 0.13971 0.3717 0.8358 0.0
O391 O 0.19286 0.36361 0.86503 0.0
H392 H 0.36866 0.49797 0.98748 0.0
H393 H 0.32208 0.48674 0.87932 0.0
H394 H 0.40311 0.55058 0.86298 0.0
H395 H 0.44939 0.561 0.9711 0.0
H396 H 0.98208 0.19839 0.83044 0.0
H397 H 1.01328 0.19504 0.941 0.0
H398 H 0.95397 0.11044 0.94339 0.0
H399 H 0.92345 0.11281 0.83259 0.0
Gd400 Gd 0.2671 0.9537 0.6456 0.0
Gd401 Gd 0.24485 0.86675 0.6105 0.0
C402 C 0.16117 0.8896 0.62097 0.0
C403 C 0.28698 0.03622 0.67199 0.0
C404 C 0.26609 0.06783 0.66617 0.0
C405 C 0.285 0.11162 0.68406 0.0
C406 C 0.22662 0.05435 0.64332 0.0
C407 C 0.22856 0.12982 0.65392 0.0
C408 C 0.20865 0.08543 0.63672 0.0
C409 C 0.26634 0.14224 0.67809 0.0
C410 C 0.23036 0.87782 0.69119 0.0
C411 C 0.34729 0.92045 0.63768 0.0
C412 C 0.20903 0.77868 0.58808 0.0
C413 C 0.20346 0.73083 0.59601 0.0
C414 C 0.19459 0.6991 0.56802 0.0
C415 C 0.2038 0.71493 0.63056 0.0
C416 C 0.18695 0.63647 0.60856 0.0
C417 C 0.1956 0.66825 0.63676 0.0
C418 C 0.18619 0.65266 0.57416 0.0
C419 C 0.28062 0.94598 0.56579 0.0
O420 O 0.19574 0.9345 0.62126 0.0
O421 O 0.17218 0.8557 0.62168 0.0
O422 O 0.31108 0.03162 0.64629 0.0
O423 O 0.2588 0.99541 0.68682 0.0
O424 O 0.21535 0.9077 0.68696 0.0
O425 O 0.26183 0.8868 0.66795 0.0
O426 O 0.30967 0.8777 0.63855 0.0
O427 O 0.34087 0.95823 0.63674 0.0
O428 O 0.25124 0.81341 0.57923 0.0
O429 O 0.18593 0.79348 0.6077 0.0
O430 O 0.28973 0.91131 0.56365 0.0
O431 O 0.2502 0.93565 0.58983 0.0
H432 H 0.31446 0.12233 0.70253 0.0
H433 H 0.2108 1.02055 0.62954 0.0
H434 H 0.1796 0.07504 0.6179 0.0
H435 H 0.28189 0.17604 0.69198 0.0
H436 H 0.19343 0.71004 0.54118 0.0
H437 H 0.21018 0.73847 0.65273 0.0
H438 H 0.1966 0.65721 0.66357 0.0
H439 H 0.17853 0.62914 0.55177 0.0
Gd440 Gd 0.68368 0.83315 0.92516 0.0
Gd441 Gd 0.74002 0.79302 0.89468 0.0
C442 C 0.6237 0.72465 0.89882 0.0
C443 C 0.62781 0.86567 0.94472 0.0
C444 C 0.5845 0.86943 0.93662 0.0
C445 C 0.56694 0.88688 0.96289 0.0
C446 C 0.56337 0.86083 0.90282 0.0
C447 C 0.50784 0.8875 0.92211 0.0
C448 C 0.52533 0.86964 0.89568 0.0
C449 C 0.52964 0.89623 0.95572 0.0
C450 C 0.73536 0.80922 0.97209 0.0
C451 C 0.78744 0.90594 0.90468 0.0
C452 C 0.79913 0.76097 0.88928 0.0
C453 C 0.85266 0.78447 0.88952 0.0
C454 C 0.87971 0.80186 0.85857 0.0
C455 C 0.87742 0.78969 0.92152 0.0
C456 C 0.95441 0.82742 0.89167 0.0
C457 C 0.92743 0.81112 0.92261 0.0
C458 C 0.92995 0.82308 0.85965 0.0
C459 C 0.71447 0.83621 0.84373 0.0
O460 O 0.62311 0.76347 0.90839 0.0
O461 O 0.66493 0.72558 0.89234 0.0
O462 O 0.62268 0.82487 0.95568 0.0
O463 O 0.66457 0.88863 0.92404 0.0
O464 O 0.73323 0.84816 0.97435 0.0
O465 O 0.70991 0.78622 0.94647 0.0
O466 O 0.79542 0.8699 0.90986 0.0
O467 O 0.74367 0.89813 0.90355 0.0
O468 O 0.77731 0.76653 0.8618 0.0
O469 O 0.78019 0.76331 0.91895 0.0
O470 O 0.7559 0.83903 0.84688 0.0
O471 O 0.68809 0.81126 0.86919 0.0
H472 H 0.58311 0.89467 0.98895 0.0
H473 H 0.57664 0.84793 0.88191 0.0
H474 H 0.50953 0.86235 0.86953 0.0
H475 H 0.51862 0.91138 0.97654 0.0
H476 H 0.8621 0.7988 0.83348 0.0
H477 H 0.85805 0.7766 0.94592 0.0
H478 H 0.94491 0.81353 0.94767 0.0
H479 H 0.94966 0.83594 0.83535 0.0
C480 C 0.21542 0.21142 0.10709 0.0
C481 C 0.18728 0.19935 0.13755 0.0
C482 C 0.24924 0.19683 0.10267 0.0
C483 C 0.25579 0.16906 0.12833 0.0
H484 H 0.21152 0.23274 0.0866 0.0
H485 H 0.27057 0.20763 0.07897 0.0
S486 S 0.19059 0.12774 0.21279 0.0
N487 N 0.16767 0.15804 0.1937 0.0
N488 N 0.23133 0.13013 0.18545 0.0
C489 C 0.22749 0.15628 0.15882 0.0
C490 C 0.19333 0.17172 0.16348 0.0
C491 C 1.0332 0.89242 0.38789 0.0
C492 C 0.07122 0.88374 0.39465 0.0
C493 C 0.98515 0.85613 0.39238 0.0
C494 C 0.97347 0.81005 0.40419 0.0
H495 H 1.04066 0.92727 0.37875 0.0
H496 H 0.95702 0.86423 0.38631 0.0
S497 S 0.06152 0.77098 0.427 0.0
N498 N 0.09478 0.82705 0.41446 0.0
N499 N 1.00553 0.75915 0.42347 0.0
C500 C 1.01182 0.80169 0.41162 0.0
C501 C 0.06035 0.83843 0.40671 0.0
C502 C 0.91865 0.07714 0.11629 0.0
C503 C 0.89335 0.09548 0.13448 0.0
C504 C 0.90567 0.02849 0.1191 0.0
C505 C 0.86779 0.99676 0.14095 0.0
H506 H 0.94761 0.10012 0.09894 0.0
H507 H 0.9253 1.01558 0.104 0.0
S508 S 0.79256 0.02816 0.19574 0.0
N509 N 0.83011 0.07865 0.17602 0.0
N510 N 0.80628 0.98814 0.18172 0.0
C511 C 0.84341 1.01531 0.16002 0.0
C512 C 0.85603 0.06435 0.15668 0.0
C513 C 0.24013 0.18887 0.43266 0.0
C514 C 0.25298 0.16881 0.40494 0.0
C515 C 0.20593 0.20341 0.42767 0.0
C516 C 0.18447 0.19991 0.39447 0.0
H517 H 0.25709 0.19388 0.4583 0.0
H518 H 0.19744 0.21908 0.44968 0.0
S519 S 0.20742 0.15167 0.31301 0.0
N520 N 0.24202 0.14658 0.3431 0.0
N521 N 0.1789 0.17516 0.33342 0.0
C522 C 0.19714 0.17998 0.36654 0.0
C523 C 0.23108 0.16411 0.37185 0.0
C524 C 0.05559 0.85447 0.11464 0.0
C525 C 0.06906 0.89092 0.13977 0.0
C526 C 1.00765 0.81952 0.10968 0.0
C527 C 0.97089 0.81968 0.12938 0.0
H528 H 0.08255 0.85262 0.09893 0.0
H529 H 0.99944 0.79175 0.09038 0.0
S530 S 0.98722 0.90863 0.19763 0.0
N531 N 1.04214 0.92612 0.18405 0.0
N532 N 0.95132 0.86026 0.17454 0.0
C533 C 0.98369 0.85657 0.1541 0.0
C534 C 1.03296 0.89208 0.15947 0.0
C535 C 0.85976 1.01591 0.42048 0.0
C536 C 0.87777 1.00127 0.39249 0.0
C537 C 0.87281 0.06395 0.42487 0.0
C538 C 0.90518 0.0994 0.4019 0.0
H539 H 0.83443 0.98981 0.43868 0.0
H540 H 0.85697 0.07336 0.44624 0.0
S541 S 0.96317 0.07987 0.32489 0.0
N542 N 0.92982 1.02591 0.34163 0.0
N543 N 0.95519 0.11673 0.35032 0.0
C544 C 0.92433 0.0855 0.37428 0.0
C545 C 0.91029 0.03626 0.3694 0.0
C546 C 0.23304 0.19822 0.61921 0.0
C547 C 0.21132 0.16405 0.64596 0.0
C548 C 0.22019 0.23345 0.61309 0.0
C549 C 0.18465 0.23564 0.63319 0.0
H550 H 0.26098 0.1984 0.60343 0.0
H551 H 0.23882 0.25968 0.59271 0.0
S552 S 0.11691 0.15389 0.70624 0.0
N553 N 0.15253 0.13419 0.69255 0.0
N554 N 0.12786 0.19984 0.68083 0.0
C555 C 0.16182 0.20078 0.65939 0.0
C556 C 0.17534 0.16521 0.66587 0.0
C557 C 0.08591 0.89449 0.92225 0.0
C558 C 0.10721 0.8749 0.90084 0.0
C559 C 1.03678 0.87987 0.91868 0.0
C560 C 1.00741 0.84602 0.89298 0.0
H561 H 0.10686 0.91993 0.94269 0.0
H562 H 1.02153 0.89481 0.93643 0.0
S563 S 0.04727 0.7871 0.82853 0.0
N564 N 0.09588 0.82184 0.85191 0.0
N565 N 1.00449 0.79514 0.84486 0.0
C566 C 1.02903 0.82779 0.87055 0.0
C567 C 0.0786 0.84198 0.8746 0.0
C568 C 0.85545 0.97715 0.65743 0.0
C569 C 0.82317 0.96018 0.62864 0.0
C570 C 0.89035 1.02589 0.66062 0.0
C571 C 0.89487 0.05923 0.63476 0.0
H572 H 0.85308 0.95283 0.67807 0.0
H573 H 0.91414 0.03754 0.68332 0.0
S574 S 0.82017 0.03354 0.55399 0.0
N575 N 0.79875 0.98119 0.57361 0.0
N576 N 0.86428 0.07201 0.57955 0.0
C577 C 0.86331 0.04267 0.60571 0.0
C578 C 0.82753 0.99341 0.60266 0.0
C579 C 0.18649 0.22186 0.86584 0.0
C580 C 0.19718 0.24704 0.89797 0.0
C581 C 0.1994 0.1869 0.85992 0.0
C582 C 0.22181 0.17444 0.8864 0.0
H583 H 0.1684 0.22948 0.84486 0.0
H584 H 0.19134 0.16911 0.83456 0.0
S585 S 0.25264 0.22493 0.97672 0.0
N586 N 0.2291 0.25455 0.95747 0.0
N587 N 0.25131 0.18721 0.94679 0.0
C588 C 0.23083 0.19758 0.91922 0.0
C589 C 0.21894 0.23421 0.92493 0.0
C590 C 0.09823 0.91308 0.62598 0.0
C591 C 0.1105 0.87696 0.62485 0.0
C592 C 0.05119 0.90222 0.63276 0.0
C593 C 1.01472 0.85488 0.6388 0.0
H594 H 0.12516 0.95012 0.62198 0.0
H595 H 0.04335 0.93118 0.63348 0.0
S596 S 1.02707 0.74663 0.63668 0.0
N597 N 0.0815 0.79134 0.6292 0.0
N598 N 0.99326 0.7713 0.64135 0.0
C599 C 1.02622 0.81831 0.63715 0.0
C600 C 0.074 0.82923 0.63021 0.0
C601 C 0.9084 1.02063 0.90676 0.0
C602 C 0.89785 0.05357 0.89019 0.0
C603 C 0.87317 0.97226 0.91049 0.0
C604 C 0.82623 0.95554 0.89805 0.0
H605 H 0.94403 0.03244 0.91715 0.0
H606 H 0.88238 0.94828 0.924 0.0
S607 S 0.78096 0.02753 0.85198 0.0
N608 N 0.83746 0.06604 0.86128 0.0
N609 N 0.77188 0.97569 0.86696 0.0
C610 C 0.81579 0.98813 0.88066 0.0
C611 C 0.85142 0.037 0.87707 0.0
C612 C 0.33659 0.14059 0.28463 0.0
C613 C 0.3765 0.17368 0.30459 0.0
C614 C 0.3369 0.14154 0.24763 0.0
C615 C 0.3773 0.17538 0.22892 0.0
H616 H 0.30696 0.11059 0.2976 0.0
H617 H 0.30756 0.11211 0.23364 0.0
S618 S 0.48478 0.27797 0.26859 0.0
N619 N 0.45293 0.24736 0.30294 0.0
N620 N 0.45375 0.24881 0.23318 0.0
C621 C 0.41456 0.2124 0.24845 0.0
C622 C 0.41412 0.2116 0.28636 0.0
C623 C 0.82947 0.63979 0.28347 0.0
C624 C 0.84715 0.68306 0.30218 0.0
C625 C 0.82865 0.63872 0.24623 0.0
C626 C 0.84559 0.68089 0.22628 0.0
H627 H 0.81176 0.60619 0.29758 0.0
H628 H 0.81053 0.60435 0.23307 0.0
S629 S 0.89627 0.80342 0.26245 0.0
N630 N 0.88354 0.76918 0.29769 0.0
N631 N 0.88216 0.7672 0.22824 0.0
C632 C 0.86664 0.72458 0.24471 0.0
C633 C 0.8674 0.72565 0.28249 0.0
C634 C 0.88907 0.18572 0.25258 0.0
C635 C 0.89236 0.22144 0.22929 0.0
C636 C 0.8884 0.19075 0.28957 0.0
C637 C 0.89203 0.23229 0.30466 0.0
H638 H 0.89201 0.156 0.24231 0.0
H639 H 0.89049 0.16456 0.30629 0.0
S640 S 0.89659 0.33396 0.25547 0.0
N641 N 0.89449 0.29731 0.22434 0.0
N642 N 0.89417 0.30731 0.29324 0.0
C643 C 0.89087 0.26598 0.28159 0.0
C644 C 0.89083 0.26047 0.24411 0.0
C645 C 0.20797 0.41741 0.7424 0.0
C646 C 0.20114 0.37525 0.72624 0.0
C647 C 0.21048 0.4225 0.77941 0.0
C648 C 0.20644 0.38575 0.80185 0.0
H649 H 0.2053 0.44409 0.72668 0.0
H650 H 0.20995 0.45309 0.79057 0.0
S651 S 0.19529 0.2712 0.77239 0.0
N652 N 0.19607 0.29858 0.73538 0.0
N653 N 0.20149 0.30832 0.80455 0.0
C654 C 0.20538 0.34597 0.78583 0.0
C655 C 0.20249 0.34068 0.74815 0.0
C656 C 0.19158 0.83571 0.78422 0.0
C657 C 0.23128 0.86909 0.80413 0.0
C658 C 0.19335 0.83441 0.74709 0.0
C659 C 0.23487 0.86639 0.72851 0.0
H660 H 0.1579 0.81285 0.79717 0.0
H661 H 0.16078 0.81083 0.73268 0.0
S662 S 0.34783 0.96165 0.76828 0.0
N663 N 0.31321 0.93485 0.80238 0.0
N664 N 0.31642 0.93236 0.73312 0.0
C665 C 0.27548 0.89822 0.74832 0.0
C666 C 0.27369 0.89962 0.78597 0.0
C667 C 0.71593 0.86569 0.74639 0.0
C668 C 0.68606 0.82027 0.73148 0.0
C669 C 0.72127 0.87195 0.78344 0.0
C670 C 0.69637 0.83331 0.80688 0.0
H671 H 0.73876 0.89546 0.72956 0.0
H672 H 0.74779 0.90653 0.79375 0.0
S673 S 0.6118 0.70795 0.78107 0.0
N674 N 0.62923 0.73681 0.74329 0.0
N675 N 0.63902 0.74877 0.81202 0.0
C676 C 0.66367 0.78877 0.79218 0.0
C677 C 0.65855 0.78229 0.75476 0.0
C678 C 0.32268 0.03037 0.98115 0.0
C679 C 0.29843 0.98289 0.9938 0.0
C680 C 0.34177 0.07056 1.00358 0.0
C681 C 0.34569 0.06604 0.03998 0.0
H682 H 0.32982 0.03753 0.95393 0.0
H683 H 0.35628 0.10575 0.99198 0.0
S684 S 0.31697 0.95157 0.08416 0.0
N685 N 0.29241 0.93473 0.0446 0.0
N686 N 0.34344 1.01053 0.08479 0.0
C687 C 0.33203 1.01933 0.05219 0.0
C688 C 0.30533 0.97782 0.02987 0.0
C689 C 0.7874 0.72872 0.52814 0.0
C690 C 0.77674 0.72235 0.49196 0.0
C691 C 0.76495 0.7462 0.55075 0.0
C692 C 0.73671 0.7656 0.53805 0.0
H693 H 0.81144 0.7178 0.53949 0.0
H694 H 0.76893 0.74263 0.57839 0.0
S695 S 0.68313 0.74119 0.44851 0.0
N696 N 0.71978 0.71926 0.44773 0.0
N697 N 0.68993 0.76572 0.48781 0.0
C698 C 0.72327 0.75662 0.50231 0.0
C699 C 0.74062 0.73225 0.48008 0.0
C700 C 0.08661 0.3329 0.02681 0.0
C701 C 0.0821 0.32576 0.99008 0.0
C702 C 0.04585 0.3156 0.0487 0.0
C703 C 0.99878 0.28454 0.03598 0.0
H704 H 0.12185 0.35388 0.03859 0.0
H705 H 0.05172 0.32706 0.07584 0.0
S706 S 0.96572 0.26721 0.94139 0.0
N707 N 1.02484 0.29884 0.94146 0.0
N708 N 0.95001 0.25648 0.98311 0.0
C709 C 0.99364 0.27927 0.99921 0.0
C710 C 1.03472 0.30178 0.97641 0.0
C711 C 0.34317 0.03038 0.48707 0.0
C712 C 0.34336 0.07308 0.49576 0.0
C713 C 0.32258 0.98976 0.50947 0.0
C714 C 0.30094 0.98954 0.54175 0.0
H715 H 0.35904 0.02815 0.46264 0.0
H716 H 0.32346 0.95811 0.50125 0.0
S717 S 0.29856 0.09482 0.57871 0.0
N718 N 0.32532 0.11417 0.54066 0.0
N719 N 0.28419 0.03809 0.5814 0.0
C720 C 0.30193 0.03249 0.55079 0.0
C721 C 0.32385 0.07404 0.52834 0.0
C722 C 0.82736 0.78376 0.01921 0.0
C723 C 0.79827 0.74198 0.03885 0.0
C724 C 0.80741 0.80719 0.99922 0.0
C725 C 0.75745 0.78957 0.99764 0.0
H726 H 0.86583 0.79858 0.01934 0.0
H727 H 0.83116 0.83844 0.98397 0.0
S728 S 0.66539 0.68129 0.04338 0.0
N729 N 0.71648 0.68457 0.05502 0.0
N730 N 0.67978 0.72734 0.01717 0.0
C731 C 0.72827 0.74792 0.01697 0.0
C732 C 0.74839 0.72461 0.03762 0.0
C733 C 0.07466 0.27498 0.51512 0.0
C734 C 0.08559 0.3139 0.53766 0.0
C735 C 1.0315 0.25235 0.495 0.0
C736 C 0.99789 0.26828 0.49579 0.0
H737 H 0.09939 0.26155 0.51324 0.0
H738 H 1.02474 0.22265 0.47819 0.0
S739 S 1.00773 0.36724 0.55114 0.0
N740 N 0.05725 0.3658 0.56023 0.0
N741 N 0.97806 0.32456 0.5218 0.0
C742 C 1.00818 0.30679 0.51829 0.0
C743 C 0.05143 0.32923 0.53924 0.0
C744 C 0.56396 0.11759 0.12322 0.0
C745 C 0.60378 0.16364 0.11859 0.0
C746 C 0.51799 0.11085 0.13027 0.0
C747 C 0.51012 0.14995 0.13276 0.0
H748 H 0.56844 0.08657 0.12144 0.0
H749 H 0.48842 0.07479 0.13342 0.0
S750 S 0.60262 0.2778 0.11847 0.0
N751 N 0.63206 0.24843 0.11442 0.0
N752 N 0.54696 0.23684 0.12732 0.0
C753 C 0.55003 0.19629 0.12735 0.0
C754 C 0.59645 0.20285 0.12035 0.0
C755 C 0.68742 0.52528 0.37638 0.0
C756 C 0.69223 0.56462 0.39574 0.0
C757 C 0.65094 0.47836 0.38358 0.0
C758 C 0.61816 0.46845 0.41103 0.0
H759 H 0.71291 0.53071 0.35595 0.0
H760 H 0.64937 0.44942 0.36818 0.0
S761 S 0.61668 0.55879 0.47076 0.0
N762 N 0.66195 0.59051 0.44417 0.0
N763 N 0.59337 0.50266 0.45783 0.0
C764 C 0.62262 0.50762 0.43065 0.0
C765 C 0.6595 0.55553 0.42294 0.0
C766 C 0.88275 0.37245 0.14481 0.0
C767 C 0.92612 0.37426 0.13581 0.0
C768 C 0.87483 0.41094 0.13821 0.0
C769 C 0.90969 0.45313 0.12191 0.0
H770 H 0.85384 0.34031 0.15627 0.0
H771 H 0.84038 0.40691 0.1449 0.0
S772 S 1.03027 0.47751 0.09434 0.0
N773 N 1.00498 0.42284 0.11059 0.0
N774 N 0.99045 0.4952 0.09847 0.0
C775 C 0.95374 0.45601 0.11359 0.0
C776 C 0.96192 0.4168 0.12056 0.0
C777 C 0.54528 0.17953 0.38142 0.0
C778 C 0.50601 0.14394 0.40011 0.0
C779 C 0.59232 0.18882 0.3878 0.0
C780 C 0.60243 0.16375 0.41382 0.0
H781 H 0.53969 0.20106 0.36206 0.0
H782 H 0.62122 0.21694 0.37294 0.0
S783 S 0.51242 0.06804 0.47108 0.0
N784 N 0.48049 0.08405 0.44614 0.0
N785 N 0.5685 0.10142 0.45839 0.0
C786 C 0.56334 0.12796 0.43269 0.0
C787 C 0.51534 0.11803 0.42574 0.0
C788 C 0.65738 0.48591 0.09356 0.0
C789 C 0.61739 0.46675 0.11588 0.0
C790 C 0.69552 0.53273 0.09788 0.0
C791 C 0.69543 0.56305 0.12442 0.0
H792 H 0.65976 0.46423 0.07282 0.0
H793 H 0.72569 0.54529 0.08024 0.0
S794 S 0.6 0.53133 0.19005 0.0
N795 N 0.58029 0.48257 0.16576 0.0
N796 N 0.65236 0.57081 0.17358 0.0
C797 C 0.65576 0.54498 0.14677 0.0
C798 C 0.61683 0.49679 0.14267 0.0
C799 C 0.88784 0.4201 0.38652 0.0
C800 C 0.90618 0.45074 0.41594 0.0
C801 C 0.89802 0.38294 0.38122 0.0
C802 C 0.92805 0.37567 0.40453 0.0
H803 H 0.86399 0.42375 0.36808 0.0
H804 H 0.8814 0.359 0.35906 0.0
S805 S 0.98548 0.44542 0.48549 0.0
N806 N 0.95631 0.47099 0.46867 0.0
N807 N 0.97556 0.40154 0.45827 0.0
C808 C 0.9475 0.40647 0.43357 0.0
C809 C 0.93651 0.44381 0.4394 0.0
C810 C 0.14778 0.5557 0.64003 0.0
C811 C 0.17987 0.58708 0.61447 0.0
C812 C 0.14003 0.5087 0.64472 0.0
C813 C 0.16474 0.49157 0.62443 0.0
H814 H 0.12809 0.56737 0.65628 0.0
H815 H 0.1154 0.48611 0.66478 0.0
S816 S 0.2525 0.55896 0.55401 0.0
N817 N 0.23663 0.59691 0.56901 0.0
N818 N 0.22161 0.50969 0.57711 0.0
C819 C 0.1966 0.52261 0.59875 0.0
C820 C 0.20432 0.56994 0.59398 0.0
C821 C 0.42612 0.92901 0.8778 0.0
C822 C 0.38944 0.91591 0.90257 0.0
C823 C 0.46432 0.91984 0.8841 0.0
C824 C 0.46699 0.89684 0.91521 0.0
H825 H 0.42442 0.94478 0.85299 0.0
H826 H 0.49182 0.93061 0.86436 0.0
S827 S 0.37808 0.85366 0.98748 0.0
N828 N 0.35854 0.87935 0.95942 0.0
N829 N 0.42735 0.85936 0.97001 0.0
C830 C 0.43014 0.88358 0.93992 0.0
C831 C 0.39231 0.89384 0.9339 0.0
C832 C 0.54075 0.66893 0.65269 0.0
C833 C 0.57985 0.67672 0.63179 0.0
C834 C 0.49406 0.63171 0.64522 0.0
C835 C 0.48422 0.60128 0.61599 0.0
H836 H 0.54614 0.69263 0.67457 0.0
H837 H 0.46519 0.62773 0.66188 0.0
S838 S 0.5741 0.60812 0.55201 0.0
N839 N 0.60568 0.65185 0.58017 0.0
N840 N 0.51826 0.58189 0.56596 0.0
C841 C 0.52322 0.60874 0.59487 0.0
C842 C 0.57089 0.64633 0.60284 0.0
C843 C 0.20024 0.57559 0.88695 0.0
C844 C 0.17342 0.58421 0.91197 0.0
C845 C 0.1916 0.52913 0.88022 0.0
C846 C 0.15514 0.48902 0.89763 0.0
H847 H 0.22947 0.60521 0.87342 0.0
H848 H 0.21474 0.52471 0.86193 0.0
S849 S 0.07394 0.49136 0.96507 0.0
N850 N 0.1079 0.54796 0.95375 0.0
N851 N 0.09194 0.46088 0.94093 0.0
C852 C 0.12712 0.49675 0.92195 0.0
C853 C 0.13627 0.54421 0.92921 0.0
C854 C 0.43232 0.93919 0.65101 0.0
C855 C 0.39266 0.92179 0.62797 0.0
C856 C 0.46964 0.92882 0.64532 0.0
C857 C 0.46839 0.90031 0.61661 0.0
H858 H 0.4335 0.95899 0.67433 0.0
H859 H 0.49936 0.94268 0.66384 0.0
S860 S 0.37094 0.84481 0.54951 0.0
N861 N 0.35477 0.87522 0.57529 0.0
N862 N 0.42244 0.85376 0.56578 0.0
C863 C 0.42886 0.88318 0.59341 0.0
C864 C 0.39177 0.89443 0.59881 0.0
C865 C 0.53425 0.68539 0.89992 0.0
C866 C 0.5754 0.68032 0.89728 0.0
C867 C 0.48833 0.64609 0.9046 0.0
C868 C 0.481 0.59963 0.90658 0.0
H869 H 0.53737 0.72039 0.89957 0.0
H870 H 0.45846 0.65229 0.90784 0.0
S871 S 0.57407 0.5648 0.89757 0.0
N872 N 0.60422 0.62373 0.89444 0.0
N873 N 0.51735 0.54957 0.90308 0.0
C874 C 0.52086 0.59325 0.90236 0.0
C875 C 0.56808 0.63356 0.89757 0.0
loop_
_geom_bond_atom_site_label_1
_geom_bond_atom_site_label_2
_geom_bond_distance
_geom_bond_site_symmetry_2
_ccdc_geom_bond_type
Gd0 C3 2.818 . S
Gd0 O20 2.377 . S
Gd0 O22 2.448 . S
Gd0 O23 2.506 . S
Gd0 O24 2.435 . S
Gd0 O25 2.717 . S
Gd0 O27 2.395 . S
Gd0 O31 2.327 . S
Gd1 C12 2.822 . S
Gd1 O21 2.395 . S
Gd1 O25 2.327 . S
Gd1 O26 2.377 . S
Gd1 O28 2.448 . S
Gd1 O29 2.506 . S
Gd1 O30 2.435 . S
Gd1 O31 2.717 . S
C2 O20 1.240 . S
C2 O21 1.240 . S
C3 Gd0 2.818 . S
C3 C4 1.510 . S
C3 O22 1.249 . S
C3 O23 1.252 . S
C4 C3 1.510 . S
C4 C5 1.404 . S
C4 C6 1.352 . S
C5 C4 1.404 . S
C5 C9 1.389 . S
C5 H32 0.930 . S
C6 C4 1.352 . S
C6 C8 1.374 . S
C6 H33 0.931 . S
C7 C8 1.359 . S
C7 C9 1.364 . S
C8 C6 1.374 . S
C8 C7 1.359 . S
C8 H34 0.931 . S
C9 C5 1.389 . S
C9 C7 1.364 . S
C9 H35 0.931 . S
C10 O24 1.256 . S
C10 O25 1.257 . S
C11 O26 1.240 . S
C11 O27 1.240 . S
C12 Gd1 2.822 . S
C12 C13 1.507 1_545 S
C12 O28 1.250 . S
C12 O29 1.254 . S
C13 C12 1.507 1_565 S
C13 C14 1.404 . S
C13 C15 1.352 . S
C14 C13 1.404 . S
C14 C18 1.389 . S
C14 H36 0.930 . S
C15 C13 1.352 . S
C15 C17 1.374 . S
C15 H37 0.931 . S
C16 C17 1.359 . S
C16 C18 1.364 . S
C17 C15 1.374 . S
C17 C16 1.359 . S
C17 H38 0.931 . S
C18 C14 1.389 . S
C18 C16 1.364 . S
C18 H39 0.931 . S
C19 O30 1.256 . S
C19 O31 1.257 . S
O20 Gd0 2.377 . S
O20 C2 1.240 . S
O21 Gd1 2.395 . S
O21 C2 1.240 . S
O22 Gd0 2.448 . S
O22 C3 1.249 . S
O23 Gd0 2.506 . S
O23 C3 1.252 . S
O24 Gd0 2.435 . S
O24 C10 1.256 . S
O25 Gd0 2.717 . S
O25 Gd1 2.327 . S
O25 C10 1.257 . S
O26 Gd1 2.377 . S
O26 C11 1.240 . S
O27 Gd0 2.395 . S
O27 C11 1.240 . S
O28 Gd1 2.448 . S
O28 C12 1.250 . S
O29 Gd1 2.506 . S
O29 C12 1.254 . S
O30 Gd1 2.435 . S
O30 C19 1.256 . S
O31 Gd0 2.327 . S
O31 Gd1 2.717 . S
O31 C19 1.257 . S
H32 C5 0.930 . S
H33 C6 0.931 . S
H34 C8 0.931 . S
H35 C9 0.931 . S
H36 C14 0.930 . S
H37 C15 0.931 . S
H38 C17 0.931 . S
H39 C18 0.931 . S
Gd40 C43 2.818 . S
Gd40 O60 2.377 . S
Gd40 O62 2.448 . S
Gd40 O63 2.506 . S
Gd40 O64 2.435 . S
Gd40 O65 2.717 . S
Gd40 O67 2.395 . S
Gd40 O71 2.327 . S
Gd41 C52 2.818 . S
Gd41 O61 2.395 . S
Gd41 O65 2.327 . S
Gd41 O66 2.377 . S
Gd41 O68 2.448 . S
Gd41 O69 2.506 . S
Gd41 O70 2.435 . S
Gd41 O71 2.717 . S
C42 O60 1.240 . S
C42 O61 1.240 . S
C43 Gd40 2.818 . S
C43 C44 1.510 . S
C43 O62 1.249 . S
C43 O63 1.252 . S
C44 C43 1.510 . S
C44 C45 1.404 . S
C44 C46 1.352 . S
C45 C44 1.404 . S
C45 C49 1.389 . S
C45 H72 0.930 . S
C46 C44 1.352 . S
C46 C48 1.374 . S
C46 H73 0.931 . S
C47 C48 1.359 . S
C47 C49 1.364 . S
C48 C46 1.374 . S
C48 C47 1.359 . S
C48 H74 0.931 . S
C49 C45 1.389 . S
C49 C47 1.364 . S
C49 H75 0.931 . S
C50 O64 1.256 . S
C50 O65 1.257 . S
C51 O66 1.240 . S
C51 O67 1.240 . S
C52 Gd41 2.818 . S
C52 C53 1.510 . S
C52 O68 1.249 . S
C52 O69 1.252 . S
C53 C52 1.510 . S
C53 C54 1.404 . S
C53 C55 1.352 . S
C54 C53 1.404 . S
C54 C58 1.389 . S
C54 H76 0.930 . S
C55 C53 1.352 . S
C55 C57 1.374 . S
C55 H77 0.931 . S
C56 C57 1.359 . S
C56 C58 1.364 . S
C57 C55 1.374 . S
C57 C56 1.359 . S
C57 H78 0.931 . S
C58 C54 1.389 . S
C58 C56 1.364 . S
C58 H79 0.931 . S
C59 O70 1.256 . S
C59 O71 1.257 . S
O60 Gd40 2.377 . S
O60 C42 1.240 . S
O61 Gd41 2.395 . S
O61 C42 1.240 . S
O62 Gd40 2.448 . S
O62 C43 1.249 . S
O63 Gd40 2.506 . S
O63 C43 1.252 . S
O64 Gd40 2.435 . S
O64 C50 1.256 . S
O65 Gd40 2.717 . S
O65 Gd41 2.327 . S
O65 C50 1.257 . S
O66 Gd41 2.377 . S
O66 C51 1.240 . S
O67 Gd40 2.395 . S
O67 C51 1.240 . S
O68 Gd41 2.448 . S
O68 C52 1.249 . S
O69 Gd41 2.506 . S
O69 C52 1.252 . S
O70 Gd41 2.435 . S
O70 C59 1.256 . S
O71 Gd40 2.327 . S
O71 Gd41 2.717 . S
O71 C59 1.257 . S
H72 C45 0.930 . S
H73 C46 0.931 . S
H74 C48 0.931 . S
H75 C49 0.931 . S
H76 C54 0.930 . S
H77 C55 0.931 . S
H78 C57 0.931 . S
H79 C58 0.931 . S
Gd80 C83 2.818 . S
Gd80 O100 2.377 . S
Gd80 O102 2.448 . S
Gd80 O103 2.506 . S
Gd80 O104 2.435 . S
Gd80 O105 2.717 . S
Gd80 O107 2.395 . S
Gd80 O111 2.327 . S
Gd81 C92 2.830 . S
Gd81 O101 2.395 . S
Gd81 O105 2.327 . S
Gd81 O106 2.377 . S
Gd81 O108 2.448 . S
Gd81 O109 2.506 . S
Gd81 O110 2.435 . S
Gd81 O111 2.717 . S
C82 O100 1.240 . S
C82 O101 1.240 . S
C83 Gd80 2.818 . S
C83 C84 1.510 . S
C83 O102 1.249 . S
C83 O103 1.252 . S
C84 C83 1.510 . S
C84 C85 1.404 . S
C84 C86 1.352 . S
C85 C84 1.404 . S
C85 C89 1.389 . S
C85 H112 0.930 . S
C86 C84 1.352 . S
C86 C88 1.374 . S
C86 H113 0.931 . S
C87 C88 1.359 . S
C87 C89 1.364 . S
C88 C86 1.374 . S
C88 C87 1.359 . S
C88 H114 0.931 . S
C89 C85 1.389 . S
C89 C87 1.364 . S
C89 H115 0.931 . S
C90 O104 1.256 . S
C90 O105 1.257 . S
C91 O106 1.240 . S
C91 O107 1.240 . S
C92 Gd81 2.830 . S
C92 C93 1.498 1_655 S
C92 O108 1.255 . S
C92 O109 1.257 . S
C93 C92 1.498 1_455 S
C93 C94 1.404 . S
C93 C95 1.352 . S
C94 C93 1.404 . S
C94 C98 1.389 . S
C94 H116 0.930 . S
C95 C93 1.352 . S
C95 C97 1.374 . S
C95 H117 0.931 . S
C96 C97 1.359 . S
C96 C98 1.364 . S
C97 C95 1.374 . S
C97 C96 1.359 . S
C97 H118 0.931 . S
C98 C94 1.389 . S
C98 C96 1.364 . S
C98 H119 0.931 . S
C99 O110 1.256 . S
C99 O111 1.257 . S
O100 Gd80 2.377 . S
O100 C82 1.240 . S
O101 Gd81 2.395 . S
O101 C82 1.240 . S
O102 Gd80 2.448 . S
O102 C83 1.249 . S
O103 Gd80 2.506 . S
O103 C83 1.252 . S
O104 Gd80 2.435 . S
O104 C90 1.256 . S
O105 Gd80 2.717 . S
O105 Gd81 2.327 . S
O105 C90 1.257 . S
O106 Gd81 2.377 . S
O106 C91 1.240 . S
O107 Gd80 2.395 . S
O107 C91 1.240 . S
O108 Gd81 2.448 . S
O108 C92 1.255 . S
O109 Gd81 2.506 . S
O109 C92 1.257 . S
O110 Gd81 2.435 . S
O110 C99 1.256 . S
O111 Gd80 2.327 . S
O111 Gd81 2.717 . S
O111 C99 1.257 . S
H112 C85 0.930 . S
H113 C86 0.931 . S
H114 C88 0.931 . S
H115 C89 0.931 . S
H116 C94 0.930 . S
H117 C95 0.931 . S
H118 C97 0.931 . S
H119 C98 0.931 . S
Gd120 C123 2.822 . S
Gd120 O140 2.377 . S
Gd120 O142 2.448 . S
Gd120 O143 2.506 . S
Gd120 O144 2.435 . S
Gd120 O145 2.717 . S
Gd120 O147 2.395 . S
Gd120 O151 2.327 . S
Gd121 C132 2.818 . S
Gd121 O141 2.395 . S
Gd121 O145 2.327 . S
Gd121 O146 2.377 . S
Gd121 O148 2.448 . S
Gd121 O149 2.506 . S
Gd121 O150 2.435 . S
Gd121 O151 2.717 . S
C122 O140 1.240 . S
C122 O141 1.240 . S
C123 Gd120 2.822 . S
C123 C124 1.507 1_545 S
C123 O142 1.250 . S
C123 O143 1.254 . S
C124 C123 1.507 1_565 S
C124 C125 1.404 . S
C124 C126 1.352 . S
C125 C124 1.404 . S
C125 C129 1.389 . S
C125 H152 0.930 . S
C126 C124 1.352 . S
C126 C128 1.374 . S
C126 H153 0.931 . S
C127 C128 1.359 . S
C127 C129 1.364 . S
C128 C126 1.374 . S
C128 C127 1.359 . S
C128 H154 0.931 . S
C129 C125 1.389 . S
C129 C127 1.364 . S
C129 H155 0.931 . S
C130 O144 1.256 . S
C130 O145 1.257 . S
C131 O146 1.240 . S
C131 O147 1.240 . S
C132 Gd121 2.818 . S
C132 C133 1.510 . S
C132 O148 1.249 . S
C132 O149 1.252 . S
C133 C132 1.510 . S
C133 C134 1.404 . S
C133 C135 1.352 . S
C134 C133 1.404 . S
C134 C138 1.389 . S
C134 H156 0.930 . S
C135 C133 1.352 . S
C135 C137 1.374 . S
C135 H157 0.931 . S
C136 C137 1.359 . S
C136 C138 1.364 . S
C137 C135 1.374 . S
C137 C136 1.359 . S
C137 H158 0.931 . S
C138 C134 1.389 . S
C138 C136 1.364 . S
C138 H159 0.931 . S
C139 O150 1.256 . S
C139 O151 1.257 . S
O140 Gd120 2.377 . S
O140 C122 1.240 . S
O141 Gd121 2.395 . S
O141 C122 1.240 . S
O142 Gd120 2.448 . S
O142 C123 1.250 . S
O143 Gd120 2.506 . S
O143 C123 1.254 . S
O144 Gd120 2.435 . S
O144 C130 1.256 . S
O145 Gd120 2.717 . S
O145 Gd121 2.327 . S
O145 C130 1.257 . S
O146 Gd121 2.377 . S
O146 C131 1.240 . S
O147 Gd120 2.395 . S
O147 C131 1.240 . S
O148 Gd121 2.448 . S
O148 C132 1.249 . S
O149 Gd121 2.506 . S
O149 C132 1.252 . S
O150 Gd121 2.435 . S
O150 C139 1.256 . S
O151 Gd120 2.327 . S
O151 Gd121 2.717 . S
O151 C139 1.257 . S
H152 C125 0.930 . S
H153 C126 0.931 . S
H154 C128 0.931 . S
H155 C129 0.931 . S
H156 C134 0.930 . S
H157 C135 0.931 . S
H158 C137 0.931 . S
H159 C138 0.931 . S
Gd160 C163 2.818 . S
Gd160 O180 2.377 . S
Gd160 O182 2.448 . S
Gd160 O183 2.506 . S
Gd160 O184 2.435 . S
Gd160 O185 2.717 . S
Gd160 O187 2.395 . S
Gd160 O191 2.327 . S
Gd161 C172 2.818 . S
Gd161 O181 2.395 . S
Gd161 O185 2.327 . S
Gd161 O186 2.377 . S
Gd161 O188 2.448 . S
Gd161 O189 2.506 . S
Gd161 O190 2.435 . S
Gd161 O191 2.717 . S
C162 O180 1.240 . S
C162 O181 1.240 . S
C163 Gd160 2.818 . S
C163 C164 1.510 . S
C163 O182 1.249 . S
C163 O183 1.252 . S
C164 C163 1.510 . S
C164 C165 1.404 . S
C164 C166 1.352 . S
C165 C164 1.404 . S
C165 C169 1.389 . S
C165 H192 0.930 . S
C166 C164 1.352 . S
C166 C168 1.374 . S
C166 H193 0.931 . S
C167 C168 1.359 . S
C167 C169 1.364 . S
C168 C166 1.374 . S
C168 C167 1.359 . S
C168 H194 0.931 . S
C169 C165 1.389 . S
C169 C167 1.364 . S
C169 H195 0.931 . S
C170 O184 1.256 . S
C170 O185 1.257 . S
C171 O186 1.240 . S
C171 O187 1.240 . S
C172 Gd161 2.818 . S
C172 C173 1.510 . S
C172 O188 1.249 . S
C172 O189 1.252 . S
C173 C172 1.510 . S
C173 C174 1.404 . S
C173 C175 1.352 . S
C174 C173 1.404 . S
C174 C178 1.389 . S
C174 H196 0.930 . S
C175 C173 1.352 . S
C175 C177 1.374 . S
C175 H197 0.931 . S
C176 C177 1.359 . S
C176 C178 1.364 . S
C177 C175 1.374 . S
C177 C176 1.359 . S
C177 H198 0.931 . S
C178 C174 1.389 . S
C178 C176 1.364 . S
C178 H199 0.931 . S
C179 O190 1.256 . S
C179 O191 1.257 . S
O180 Gd160 2.377 . S
O180 C162 1.240 . S
O181 Gd161 2.395 . S
O181 C162 1.240 . S
O182 Gd160 2.448 . S
O182 C163 1.249 . S
O183 Gd160 2.506 . S
O183 C163 1.252 . S
O184 Gd160 2.435 . S
O184 C170 1.256 . S
O185 Gd160 2.717 . S
O185 Gd161 2.327 . S
O185 C170 1.257 . S
O186 Gd161 2.377 . S
O186 C171 1.240 . S
O187 Gd160 2.395 . S
O187 C171 1.240 . S
O188 Gd161 2.448 . S
O188 C172 1.249 . S
O189 Gd161 2.506 . S
O189 C172 1.252 . S
O190 Gd161 2.435 . S
O190 C179 1.256 . S
O191 Gd160 2.327 . S
O191 Gd161 2.717 . S
O191 C179 1.257 . S
H192 C165 0.930 . S
H193 C166 0.931 . S
H194 C168 0.931 . S
H195 C169 0.931 . S
H196 C174 0.930 . S
H197 C175 0.931 . S
H198 C177 0.931 . S
H199 C178 0.931 . S
Gd200 C203 2.830 . S
Gd200 O220 2.377 . S
Gd200 O222 2.448 . S
Gd200 O223 2.506 . S
Gd200 O224 2.435 . S
Gd200 O225 2.717 . S
Gd200 O227 2.395 . S
Gd200 O231 2.327 . S
Gd201 C212 2.818 . S
Gd201 O221 2.395 . S
Gd201 O225 2.327 . S
Gd201 O226 2.377 . S
Gd201 O228 2.448 . S
Gd201 O229 2.506 . S
Gd201 O230 2.435 . S
Gd201 O231 2.717 . S
C202 O220 1.240 . S
C202 O221 1.240 . S
C203 Gd200 2.830 . S
C203 C204 1.498 1_655 S
C203 O222 1.255 . S
C203 O223 1.257 . S
C204 C203 1.498 1_455 S
C204 C205 1.404 . S
C204 C206 1.352 . S
C205 C204 1.404 . S
C205 C209 1.389 . S
C205 H232 0.930 . S
C206 C204 1.352 . S
C206 C208 1.374 . S
C206 H233 0.931 . S
C207 C208 1.359 . S
C207 C209 1.364 . S
C208 C206 1.374 . S
C208 C207 1.359 . S
C208 H234 0.931 . S
C209 C205 1.389 . S
C209 C207 1.364 . S
C209 H235 0.931 . S
C210 O224 1.256 . S
C210 O225 1.257 . S
C211 O226 1.240 . S
C211 O227 1.240 . S
C212 Gd201 2.818 . S
C212 C213 1.510 . S
C212 O228 1.249 . S
C212 O229 1.252 . S
C213 C212 1.510 . S
C213 C214 1.404 . S
C213 C215 1.352 . S
C214 C213 1.404 . S
C214 C218 1.389 . S
C214 H236 0.930 . S
C215 C213 1.352 . S
C215 C217 1.374 . S
C215 H237 0.931 . S
C216 C217 1.359 . S
C216 C218 1.364 . S
C217 C215 1.374 . S
C217 C216 1.359 . S
C217 H238 0.931 . S
C218 C214 1.389 . S
C218 C216 1.364 . S
C218 H239 0.931 . S
C219 O230 1.256 . S
C219 O231 1.257 . S
O220 Gd200 2.377 . S
O220 C202 1.240 . S
O221 Gd201 2.395 . S
O221 C202 1.240 . S
O222 Gd200 2.448 . S
O222 C203 1.255 . S
O223 Gd200 2.506 . S
O223 C203 1.257 . S
O224 Gd200 2.435 . S
O224 C210 1.256 . S
O225 Gd200 2.717 . S
O225 Gd201 2.327 . S
O225 C210 1.257 . S
O226 Gd201 2.377 . S
O226 C211 1.240 . S
O227 Gd200 2.395 . S
O227 C211 1.240 . S
O228 Gd201 2.448 . S
O228 C212 1.249 . S
O229 Gd201 2.506 . S
O229 C212 1.252 . S
O230 Gd201 2.435 . S
O230 C219 1.256 . S
O231 Gd200 2.327 . S
O231 Gd201 2.717 . S
O231 C219 1.257 . S
H232 C205 0.930 . S
H233 C206 0.931 . S
H234 C208 0.931 . S
H235 C209 0.931 . S
H236 C214 0.930 . S
H237 C215 0.931 . S
H238 C217 0.931 . S
H239 C218 0.931 . S
Gd240 C243 2.822 . S
Gd240 O260 2.377 . S
Gd240 O262 2.448 . S
Gd240 O263 2.506 . S
Gd240 O264 2.435 . S
Gd240 O265 2.717 . S
Gd240 O267 2.395 . S
Gd240 O271 2.327 . S
Gd241 C252 2.818 . S
Gd241 O261 2.395 . S
Gd241 O265 2.327 . S
Gd241 O266 2.377 . S
Gd241 O268 2.448 . S
Gd241 O269 2.506 . S
Gd241 O270 2.435 . S
Gd241 O271 2.717 . S
C242 O260 1.240 . S
C242 O261 1.240 . S
C243 Gd240 2.822 . S
C243 C244 1.507 1_455 S
C243 O262 1.250 . S
C243 O263 1.254 . S
C244 C243 1.507 1_655 S
C244 C245 1.404 . S
C244 C246 1.352 . S
C245 C244 1.404 . S
C245 C249 1.389 . S
C245 H272 0.930 . S
C246 C244 1.352 . S
C246 C248 1.374 . S
C246 H273 0.931 . S
C247 C248 1.359 . S
C247 C249 1.364 . S
C248 C246 1.374 . S
C248 C247 1.359 . S
C248 H274 0.931 . S
C249 C245 1.389 . S
C249 C247 1.364 . S
C249 H275 0.931 . S
C250 O264 1.256 . S
C250 O265 1.257 . S
C251 O266 1.240 . S
C251 O267 1.240 . S
C252 Gd241 2.818 . S
C252 C253 1.510 . S
C252 O268 1.249 . S
C252 O269 1.252 . S
C253 C252 1.510 . S
C253 C254 1.404 . S
C253 C255 1.352 . S
C254 C253 1.404 . S
C254 C258 1.389 . S
C254 H276 0.930 . S
C255 C253 1.352 . S
C255 C257 1.374 . S
C255 H277 0.931 . S
C256 C257 1.359 . S
C256 C258 1.364 . S
C257 C255 1.374 . S
C257 C256 1.359 . S
C257 H278 0.931 . S
C258 C254 1.389 . S
C258 C256 1.364 . S
C258 H279 0.931 . S
C259 O270 1.256 . S
C259 O271 1.257 . S
O260 Gd240 2.377 . S
O260 C242 1.240 . S
O261 Gd241 2.395 . S
O261 C242 1.240 . S
O262 Gd240 2.448 . S
O262 C243 1.250 . S
O263 Gd240 2.506 . S
O263 C243 1.254 . S
O264 Gd240 2.435 . S
O264 C250 1.256 . S
O265 Gd240 2.717 . S
O265 Gd241 2.327 . S
O265 C250 1.257 . S
O266 Gd241 2.377 . S
O266 C251 1.240 . S
O267 Gd240 2.395 . S
O267 C251 1.240 . S
O268 Gd241 2.448 . S
O268 C252 1.249 . S
O269 Gd241 2.506 . S
O269 C252 1.252 . S
O270 Gd241 2.435 . S
O270 C259 1.256 . S
O271 Gd240 2.327 . S
O271 Gd241 2.717 . S
O271 C259 1.257 . S
H272 C245 0.930 . S
H273 C246 0.931 . S
H274 C248 0.931 . S
H275 C249 0.931 . S
H276 C254 0.930 . S
H277 C255 0.931 . S
H278 C257 0.931 . S
H279 C258 0.931 . S
Gd280 C283 2.818 . S
Gd280 O300 2.377 . S
Gd280 O302 2.448 . S
Gd280 O303 2.506 . S
Gd280 O304 2.435 . S
Gd280 O305 2.717 . S
Gd280 O307 2.395 . S
Gd280 O311 2.327 . S
Gd281 C292 2.830 . S
Gd281 O301 2.395 . S
Gd281 O305 2.327 . S
Gd281 O306 2.377 . S
Gd281 O308 2.448 . S
Gd281 O309 2.506 . S
Gd281 O310 2.435 . S
Gd281 O311 2.717 . S
C282 O300 1.240 . S
C282 O301 1.240 . S
C283 Gd280 2.818 . S
C283 C284 1.510 . S
C283 O302 1.249 . S
C283 O303 1.252 . S
C284 C283 1.510 . S
C284 C285 1.404 . S
C284 C286 1.352 . S
C285 C284 1.404 . S
C285 C289 1.389 . S
C285 H312 0.930 . S
C286 C284 1.352 . S
C286 C288 1.374 . S
C286 H313 0.931 . S
C287 C288 1.359 . S
C287 C289 1.364 . S
C288 C286 1.374 . S
C288 C287 1.359 . S
C288 H314 0.931 . S
C289 C285 1.389 . S
C289 C287 1.364 . S
C289 H315 0.931 . S
C290 O304 1.256 . S
C290 O305 1.257 . S
C291 O306 1.240 . S
C291 O307 1.240 . S
C292 Gd281 2.830 . S
C292 C293 1.498 1_565 S
C292 O308 1.255 . S
C292 O309 1.257 . S
C293 C292 1.498 1_545 S
C293 C294 1.404 . S
C293 C295 1.352 . S
C294 C293 1.404 . S
C294 C298 1.389 . S
C294 H316 0.930 . S
C295 C293 1.352 . S
C295 C297 1.374 . S
C295 H317 0.931 . S
C296 C297 1.359 . S
C296 C298 1.364 . S
C297 C295 1.374 . S
C297 C296 1.359 . S
C297 H318 0.931 . S
C298 C294 1.389 . S
C298 C296 1.364 . S
C298 H319 0.931 . S
C299 O310 1.256 . S
C299 O311 1.257 . S
O300 Gd280 2.377 . S
O300 C282 1.240 . S
O301 Gd281 2.395 . S
O301 C282 1.240 . S
O302 Gd280 2.448 . S
O302 C283 1.249 . S
O303 Gd280 2.506 . S
O303 C283 1.252 . S
O304 Gd280 2.435 . S
O304 C290 1.256 . S
O305 Gd280 2.717 . S
O305 Gd281 2.327 . S
O305 C290 1.257 . S
O306 Gd281 2.377 . S
O306 C291 1.240 . S
O307 Gd280 2.395 . S
O307 C291 1.240 . S
O308 Gd281 2.448 . S
O308 C292 1.255 . S
O309 Gd281 2.506 . S
O309 C292 1.257 . S
O310 Gd281 2.435 . S
O310 C299 1.256 . S
O311 Gd280 2.327 . S
O311 Gd281 2.717 . S
O311 C299 1.257 . S
H312 C285 0.930 . S
H313 C286 0.931 . S
H314 C288 0.931 . S
H315 C289 0.931 . S
H316 C294 0.930 . S
H317 C295 0.931 . S
H318 C297 0.931 . S
H319 C298 0.931 . S
Gd320 C323 2.818 . S
Gd320 O340 2.377 . S
Gd320 O342 2.448 . S
Gd320 O343 2.506 . S
Gd320 O344 2.435 . S
Gd320 O345 2.717 . S
Gd320 O347 2.395 . S
Gd320 O351 2.327 . S
Gd321 C332 2.818 . S
Gd321 O341 2.395 . S
Gd321 O345 2.327 . S
Gd321 O346 2.377 . S
Gd321 O348 2.448 . S
Gd321 O349 2.506 . S
Gd321 O350 2.435 . S
Gd321 O351 2.717 . S
C322 O340 1.240 . S
C322 O341 1.240 . S
C323 Gd320 2.818 . S
C323 C324 1.510 . S
C323 O342 1.249 . S
C323 O343 1.252 . S
C324 C323 1.510 . S
C324 C325 1.404 . S
C324 C326 1.352 . S
C325 C324 1.404 . S
C325 C329 1.389 . S
C325 H352 0.930 . S
C326 C324 1.352 . S
C326 C328 1.374 . S
C326 H353 0.931 . S
C327 C328 1.359 . S
C327 C329 1.364 . S
C328 C326 1.374 . S
C328 C327 1.359 . S
C328 H354 0.931 . S
C329 C325 1.389 . S
C329 C327 1.364 . S
C329 H355 0.931 . S
C330 O344 1.256 . S
C330 O345 1.257 . S
C331 O346 1.240 . S
C331 O347 1.240 . S
C332 Gd321 2.818 . S
C332 C333 1.510 . S
C332 O348 1.249 . S
C332 O349 1.252 . S
C333 C332 1.510 . S
C333 C334 1.404 . S
C333 C335 1.352 . S
C334 C333 1.404 . S
C334 C338 1.389 . S
C334 H356 0.930 . S
C335 C333 1.352 . S
C335 C337 1.374 . S
C335 H357 0.931 . S
C336 C337 1.359 . S
C336 C338 1.364 . S
C337 C335 1.374 . S
C337 C336 1.359 . S
C337 H358 0.931 . S
C338 C334 1.389 . S
C338 C336 1.364 . S
C338 H359 0.931 . S
C339 O350 1.256 . S
C339 O351 1.257 . S
O340 Gd320 2.377 . S
O340 C322 1.240 . S
O341 Gd321 2.395 . S
O341 C322 1.240 . S
O342 Gd320 2.448 . S
O342 C323 1.249 . S
O343 Gd320 2.506 . S
O343 C323 1.252 . S
O344 Gd320 2.435 . S
O344 C330 1.256 . S
O345 Gd320 2.717 . S
O345 Gd321 2.327 . S
O345 C330 1.257 . S
O346 Gd321 2.377 . S
O346 C331 1.240 . S
O347 Gd320 2.395 . S
O347 C331 1.240 . S
O348 Gd321 2.448 . S
O348 C332 1.249 . S
O349 Gd321 2.506 . S
O349 C332 1.252 . S
O350 Gd321 2.435 . S
O350 C339 1.256 . S
O351 Gd320 2.327 . S
O351 Gd321 2.717 . S
O351 C339 1.257 . S
H352 C325 0.930 . S
H353 C326 0.931 . S
H354 C328 0.931 . S
H355 C329 0.931 . S
H356 C334 0.930 . S
H357 C335 0.931 . S
H358 C337 0.931 . S
H359 C338 0.931 . S
Gd360 C363 2.818 . S
Gd360 O380 2.377 . S
Gd360 O382 2.448 . S
Gd360 O383 2.506 . S
Gd360 O384 2.435 . S
Gd360 O385 2.717 . S
Gd360 O387 2.395 . S
Gd360 O391 2.327 . S
Gd361 C372 2.822 . S
Gd361 O381 2.395 . S
Gd361 O385 2.327 . S
Gd361 O386 2.377 . S
Gd361 O388 2.448 . S
Gd361 O389 2.506 . S
Gd361 O390 2.435 . S
Gd361 O391 2.717 . S
C362 O380 1.240 . S
C362 O381 1.240 . S
C363 Gd360 2.818 . S
C363 C364 1.510 . S
C363 O382 1.249 . S
C363 O383 1.252 . S
C364 C363 1.510 . S
C364 C365 1.404 . S
C364 C366 1.352 . S
C365 C364 1.404 . S
C365 C369 1.389 . S
C365 H392 0.930 . S
C366 C364 1.352 . S
C366 C368 1.374 . S
C366 H393 0.931 . S
C367 C368 1.359 . S
C367 C369 1.364 . S
C368 C366 1.374 . S
C368 C367 1.359 . S
C368 H394 0.931 . S
C369 C365 1.389 . S
C369 C367 1.364 . S
C369 H395 0.931 . S
C370 O384 1.256 . S
C370 O385 1.257 . S
C371 O386 1.240 . S
C371 O387 1.240 . S
C372 Gd361 2.822 . S
C372 C373 1.507 1_455 S
C372 O388 1.250 . S
C372 O389 1.254 . S
C373 C372 1.507 1_655 S
C373 C374 1.404 . S
C373 C375 1.352 . S
C374 C373 1.404 . S
C374 C378 1.389 . S
C374 H396 0.930 . S
C375 C373 1.352 . S
C375 C377 1.374 . S
C375 H397 0.931 . S
C376 C377 1.359 . S
C376 C378 1.364 . S
C377 C375 1.374 . S
C377 C376 1.359 . S
C377 H398 0.931 . S
C378 C374 1.389 . S
C378 C376 1.364 . S
C378 H399 0.931 . S
C379 O390 1.256 . S
C379 O391 1.257 . S
O380 Gd360 2.377 . S
O380 C362 1.240 . S
O381 Gd361 2.395 . S
O381 C362 1.240 . S
O382 Gd360 2.448 . S
O382 C363 1.249 . S
O383 Gd360 2.506 . S
O383 C363 1.252 . S
O384 Gd360 2.435 . S
O384 C370 1.256 . S
O385 Gd360 2.717 . S
O385 Gd361 2.327 . S
O385 C370 1.257 . S
O386 Gd361 2.377 . S
O386 C371 1.240 . S
O387 Gd360 2.395 . S
O387 C371 1.240 . S
O388 Gd361 2.448 . S
O388 C372 1.250 . S
O389 Gd361 2.506 . S
O389 C372 1.254 . S
O390 Gd361 2.435 . S
O390 C379 1.256 . S
O391 Gd360 2.327 . S
O391 Gd361 2.717 . S
O391 C379 1.257 . S
H392 C365 0.930 . S
H393 C366 0.931 . S
H394 C368 0.931 . S
H395 C369 0.931 . S
H396 C374 0.930 . S
H397 C375 0.931 . S
H398 C377 0.931 . S
H399 C378 0.931 . S
Gd400 C403 2.830 . S
Gd400 O420 2.377 . S
Gd400 O422 2.448 . S
Gd400 O423 2.506 . S
Gd400 O424 2.435 . S
Gd400 O425 2.717 . S
Gd400 O427 2.395 . S
Gd400 O431 2.327 . S
Gd401 C412 2.818 . S
Gd401 O421 2.395 . S
Gd401 O425 2.327 . S
Gd401 O426 2.377 . S
Gd401 O428 2.448 . S
Gd401 O429 2.506 . S
Gd401 O430 2.435 . S
Gd401 O431 2.717 . S
C402 O420 1.240 . S
C402 O421 1.240 . S
C403 Gd400 2.830 . S
C403 C404 1.498 1_565 S
C403 O422 1.255 . S
C403 O423 1.257 . S
C404 C403 1.498 1_545 S
C404 C405 1.404 . S
C404 C406 1.352 . S
C405 C404 1.404 . S
C405 C409 1.389 . S
C405 H432 0.930 . S
C406 C404 1.352 . S
C406 C408 1.374 . S
C406 H433 0.931 . S
C407 C408 1.359 . S
C407 C409 1.364 . S
C408 C406 1.374 . S
C408 C407 1.359 . S
C408 H434 0.931 . S
C409 C405 1.389 . S
C409 C407 1.364 . S
C409 H435 0.931 . S
C410 O424 1.256 . S
C410 O425 1.257 . S
C411 O426 1.240 . S
C411 O427 1.240 . S
C412 Gd401 2.818 . S
C412 C413 1.510 . S
C412 O428 1.249 . S
C412 O429 1.252 . S
C413 C412 1.510 . S
C413 C414 1.404 . S
C413 C415 1.352 . S
C414 C413 1.404 . S
C414 C418 1.389 . S
C414 H436 0.930 . S
C415 C413 1.352 . S
C415 C417 1.374 . S
C415 H437 0.931 . S
C416 C417 1.359 . S
C416 C418 1.364 . S
C417 C415 1.374 . S
C417 C416 1.359 . S
C417 H438 0.931 . S
C418 C414 1.389 . S
C418 C416 1.364 . S
C418 H439 0.931 . S
C419 O430 1.256 . S
C419 O431 1.257 . S
O420 Gd400 2.377 . S
O420 C402 1.240 . S
O421 Gd401 2.395 . S
O421 C402 1.240 . S
O422 Gd400 2.448 . S
O422 C403 1.255 . S
O423 Gd400 2.506 . S
O423 C403 1.257 . S
O424 Gd400 2.435 . S
O424 C410 1.256 . S
O425 Gd400 2.717 . S
O425 Gd401 2.327 . S
O425 C410 1.257 . S
O426 Gd401 2.377 . S
O426 C411 1.240 . S
O427 Gd400 2.395 . S
O427 C411 1.240 . S
O428 Gd401 2.448 . S
O428 C412 1.249 . S
O429 Gd401 2.506 . S
O429 C412 1.252 . S
O430 Gd401 2.435 . S
O430 C419 1.256 . S
O431 Gd400 2.327 . S
O431 Gd401 2.717 . S
O431 C419 1.257 . S
H432 C405 0.930 . S
H433 C406 0.931 . S
H434 C408 0.931 . S
H435 C409 0.931 . S
H436 C414 0.930 . S
H437 C415 0.931 . S
H438 C417 0.931 . S
H439 C418 0.931 . S
Gd440 C443 2.818 . S
Gd440 O460 2.377 . S
Gd440 O462 2.448 . S
Gd440 O463 2.506 . S
Gd440 O464 2.435 . S
Gd440 O465 2.717 . S
Gd440 O467 2.395 . S
Gd440 O471 2.327 . S
Gd441 C452 2.818 . S
Gd441 O461 2.395 . S
Gd441 O465 2.327 . S
Gd441 O466 2.377 . S
Gd441 O468 2.448 . S
Gd441 O469 2.506 . S
Gd441 O470 2.435 . S
Gd441 O471 2.717 . S
C442 O460 1.240 . S
C442 O461 1.240 . S
C443 Gd440 2.818 . S
C443 C444 1.510 . S
C443 O462 1.249 . S
C443 O463 1.252 . S
C444 C443 1.510 . S
C444 C445 1.404 . S
C444 C446 1.352 . S
C445 C444 1.404 . S
C445 C449 1.389 . S
C445 H472 0.930 . S
C446 C444 1.352 . S
C446 C448 1.374 . S
C446 H473 0.931 . S
C447 C448 1.359 . S
C447 C449 1.364 . S
C448 C446 1.374 . S
C448 C447 1.359 . S
C448 H474 0.931 . S
C449 C445 1.389 . S
C449 C447 1.364 . S
C449 H475 0.931 . S
C450 O464 1.256 . S
C450 O465 1.257 . S
C451 O466 1.240 . S
C451 O467 1.240 . S
C452 Gd441 2.818 . S
C452 C453 1.510 . S
C452 O468 1.249 . S
C452 O469 1.252 . S
C453 C452 1.510 . S
C453 C454 1.404 . S
C453 C455 1.352 . S
C454 C453 1.404 . S
C454 C458 1.389 . S
C454 H476 0.930 . S
C455 C453 1.352 . S
C455 C457 1.374 . S
C455 H477 0.931 . S
C456 C457 1.359 . S
C456 C458 1.364 . S
C457 C455 1.374 . S
C457 C456 1.359 . S
C457 H478 0.931 . S
C458 C454 1.389 . S
C458 C456 1.364 . S
C458 H479 0.931 . S
C459 O470 1.256 . S
C459 O471 1.257 . S
O460 Gd440 2.377 . S
O460 C442 1.240 . S
O461 Gd441 2.395 . S
O461 C442 1.240 . S
O462 Gd440 2.448 . S
O462 C443 1.249 . S
O463 Gd440 2.506 . S
O463 C443 1.252 . S
O464 Gd440 2.435 . S
O464 C450 1.256 . S
O465 Gd440 2.717 . S
O465 Gd441 2.327 . S
O465 C450 1.257 . S
O466 Gd441 2.377 . S
O466 C451 1.240 . S
O467 Gd440 2.395 . S
O467 C451 1.240 . S
O468 Gd441 2.448 . S
O468 C452 1.249 . S
O469 Gd441 2.506 . S
O469 C452 1.252 . S
O470 Gd441 2.435 . S
O470 C459 1.256 . S
O471 Gd440 2.327 . S
O471 Gd441 2.717 . S
O471 C459 1.257 . S
H472 C445 0.930 . S
H473 C446 0.931 . S
H474 C448 0.931 . S
H475 C449 0.931 . S
H476 C454 0.930 . S
H477 C455 0.931 . S
H478 C457 0.931 . S
H479 C458 0.931 . S
C480 C481 1.369 . S
C480 C482 1.419 . S
C480 H484 0.930 . S
C481 C480 1.369 . S
C481 C490 1.429 . S
C482 C480 1.419 . S
C482 C483 1.363 . S
C482 H485 0.929 . S
C483 C482 1.363 . S
C483 C489 1.428 . S
H484 C480 0.930 . S
H485 C482 0.929 . S
S486 N487 1.613 . S
S486 N488 1.610 . S
N487 S486 1.613 . S
N487 C490 1.350 . S
N488 S486 1.610 . S
N488 C489 1.351 . S
C489 C483 1.428 . S
C489 N488 1.351 . S
C489 C490 1.434 . S
C490 C481 1.429 . S
C490 N487 1.350 . S
C490 C489 1.434 . S
C491 C492 1.369 1_655 S
C491 C493 1.419 . S
C491 H495 0.930 . S
C492 C491 1.369 1_455 S
C492 C501 1.429 . S
C493 C491 1.419 . S
C493 C494 1.363 . S
C493 H496 0.929 . S
C494 C493 1.363 . S
C494 C500 1.428 . S
H495 C491 0.930 . S
H496 C493 0.929 . S
S497 N498 1.613 . S
S497 N499 1.610 1_455 S
N498 S497 1.613 . S
N498 C501 1.350 . S
N499 S497 1.610 1_655 S
N499 C500 1.351 . S
C500 C494 1.428 . S
C500 N499 1.351 . S
C500 C501 1.434 1_655 S
C501 C492 1.429 . S
C501 N498 1.350 . S
C501 C500 1.434 1_455 S
C502 C503 1.369 . S
C502 C504 1.419 1_545 S
C502 H506 0.930 . S
C503 C502 1.369 . S
C503 C512 1.429 . S
C504 C502 1.419 1_565 S
C504 C505 1.363 . S
C504 H507 0.929 . S
C505 C504 1.363 . S
C505 C511 1.428 1_565 S
H506 C502 0.930 . S
H507 C504 0.929 . S
S508 N509 1.613 . S
S508 N510 1.610 1_545 S
N509 S508 1.613 . S
N509 C512 1.350 . S
N510 S508 1.610 1_565 S
N510 C511 1.351 1_565 S
C511 C505 1.428 1_545 S
C511 N510 1.351 1_545 S
C511 C512 1.434 . S
C512 C503 1.429 . S
C512 N509 1.350 . S
C512 C511 1.434 . S
C513 C514 1.369 . S
C513 C515 1.419 . S
C513 H517 0.930 . S
C514 C513 1.369 . S
C514 C523 1.429 . S
C515 C513 1.419 . S
C515 C516 1.363 . S
C515 H518 0.929 . S
C516 C515 1.363 . S
C516 C522 1.428 . S
H517 C513 0.930 . S
H518 C515 0.929 . S
S519 N520 1.613 . S
S519 N521 1.610 . S
N520 S519 1.613 . S
N520 C523 1.350 . S
N521 S519 1.610 . S
N521 C522 1.351 . S
C522 C516 1.428 . S
C522 N521 1.351 . S
C522 C523 1.434 . S
C523 C514 1.429 . S
C523 N520 1.350 . S
C523 C522 1.434 . S
C524 C525 1.369 . S
C524 C526 1.419 1_455 S
C524 H528 0.930 . S
C525 C524 1.369 . S
C525 C534 1.429 1_455 S
C526 C524 1.419 1_655 S
C526 C527 1.363 . S
C526 H529 0.929 . S
C527 C526 1.363 . S
C527 C533 1.428 . S
H528 C524 0.930 . S
H529 C526 0.929 . S
S530 N531 1.613 . S
S530 N532 1.610 . S
N531 S530 1.613 . S
N531 C534 1.350 . S
N532 S530 1.610 . S
N532 C533 1.351 . S
C533 C527 1.428 . S
C533 N532 1.351 . S
C533 C534 1.434 . S
C534 C525 1.429 1_655 S
C534 N531 1.350 . S
C534 C533 1.434 . S
C535 C536 1.369 . S
C535 C537 1.419 1_565 S
C535 H539 0.930 . S
C536 C535 1.369 . S
C536 C545 1.429 1_565 S
C537 C535 1.419 1_545 S
C537 C538 1.363 . S
C537 H540 0.929 . S
C538 C537 1.363 . S
C538 C544 1.428 . S
H539 C535 0.930 . S
H540 C537 0.929 . S
S541 N542 1.613 . S
S541 N543 1.610 . S
N542 S541 1.613 . S
N542 C545 1.350 . S
N543 S541 1.610 . S
N543 C544 1.351 . S
C544 C538 1.428 . S
C544 N543 1.351 . S
C544 C545 1.434 . S
C545 C536 1.429 1_545 S
C545 N542 1.350 . S
C545 C544 1.434 . S
C546 C547 1.369 . S
C546 C548 1.419 . S
C546 H550 0.930 . S
C547 C546 1.369 . S
C547 C556 1.429 . S
C548 C546 1.419 . S
C548 C549 1.363 . S
C548 H551 0.929 . S
C549 C548 1.363 . S
C549 C555 1.428 . S
H550 C546 0.930 . S
H551 C548 0.929 . S
S552 N553 1.613 . S
S552 N554 1.610 . S
N553 S552 1.613 . S
N553 C556 1.350 . S
N554 S552 1.610 . S
N554 C555 1.351 . S
C555 C549 1.428 . S
C555 N554 1.351 . S
C555 C556 1.434 . S
C556 C547 1.429 . S
C556 N553 1.350 . S
C556 C555 1.434 . S
C557 C558 1.369 . S
C557 C559 1.419 1_455 S
C557 H561 0.930 . S
C558 C557 1.369 . S
C558 C567 1.429 . S
C559 C557 1.419 1_655 S
C559 C560 1.363 . S
C559 H562 0.929 . S
C560 C559 1.363 . S
C560 C566 1.428 1_655 S
H561 C557 0.930 . S
H562 C559 0.929 . S
S563 N564 1.613 . S
S563 N565 1.610 1_455 S
N564 S563 1.613 . S
N564 C567 1.350 . S
N565 S563 1.610 1_655 S
N565 C566 1.351 1_655 S
C566 C560 1.428 1_455 S
C566 N565 1.351 1_455 S
C566 C567 1.434 . S
C567 C558 1.429 . S
C567 N564 1.350 . S
C567 C566 1.434 . S
C568 C569 1.369 . S
C568 C570 1.419 . S
C568 H572 0.930 . S
C569 C568 1.369 . S
C569 C578 1.429 . S
C570 C568 1.419 . S
C570 C571 1.363 1_565 S
C570 H573 0.929 . S
C571 C570 1.363 1_545 S
C571 C577 1.428 . S
H572 C568 0.930 . S
H573 C570 0.929 . S
S574 N575 1.613 1_545 S
S574 N576 1.610 . S
N575 S574 1.613 1_565 S
N575 C578 1.350 . S
N576 S574 1.610 . S
N576 C577 1.351 . S
C577 C571 1.428 . S
C577 N576 1.351 . S
C577 C578 1.434 1_545 S
C578 C569 1.429 . S
C578 N575 1.350 . S
C578 C577 1.434 1_565 S
C579 C580 1.369 . S
C579 C581 1.419 . S
C579 H583 0.930 . S
C580 C579 1.369 . S
C580 C589 1.429 . S
C581 C579 1.419 . S
C581 C582 1.363 . S
C581 H584 0.929 . S
C582 C581 1.363 . S
C582 C588 1.428 . S
H583 C579 0.930 . S
H584 C581 0.929 . S
S585 N586 1.613 . S
S585 N587 1.610 . S
N586 S585 1.613 . S
N586 C589 1.350 . S
N587 S585 1.610 . S
N587 C588 1.351 . S
C588 C582 1.428 . S
C588 N587 1.351 . S
C588 C589 1.434 . S
C589 C580 1.429 . S
C589 N586 1.350 . S
C589 C588 1.434 . S
C590 C591 1.369 . S
C590 C592 1.419 . S
C590 H594 0.930 . S
C591 C590 1.369 . S
C591 C600 1.429 . S
C592 C590 1.419 . S
C592 C593 1.363 1_455 S
C592 H595 0.951 . S
C593 C592 1.363 1_655 S
C593 C599 1.428 . S
H594 C590 0.930 . S
H595 C592 0.951 . S
S596 N597 1.613 1_655 S
S596 N598 1.610 . S
N597 S596 1.613 1_455 S
N597 C600 1.350 . S
N598 S596 1.610 . S
N598 C599 1.351 . S
C599 C593 1.428 . S
C599 N598 1.351 . S
C599 C600 1.434 1_655 S
C600 C591 1.429 . S
C600 N597 1.350 . S
C600 C599 1.434 1_455 S
C601 C602 1.369 1_565 S
C601 C603 1.419 . S
C601 H605 0.930 1_565 S
C602 C601 1.369 1_545 S
C602 C611 1.428 . S
C603 C601 1.419 . S
C603 C604 1.363 . S
C603 H606 0.929 . S
C604 C603 1.363 . S
C604 C610 1.428 . S
H605 C601 0.930 1_545 S
H606 C603 0.929 . S
S607 N608 1.613 1_565 S
S607 N609 1.610 . S
N608 S607 1.613 1_545 S
N608 C611 1.364 . S
N609 S607 1.610 . S
N609 C610 1.351 . S
C610 C604 1.428 . S
C610 N609 1.351 . S
C610 C611 1.421 1_565 S
C611 C602 1.428 . S
C611 N608 1.364 . S
C611 C610 1.421 1_545 S
C612 C613 1.369 . S
C612 C614 1.419 . S
C612 H616 0.930 . S
C613 C612 1.369 . S
C613 C622 1.429 . S
C614 C612 1.419 . S
C614 C615 1.363 . S
C614 H617 0.929 . S
C615 C614 1.363 . S
C615 C621 1.428 . S
H616 C612 0.930 . S
H617 C614 0.929 . S
S618 N619 1.613 . S
S618 N620 1.610 . S
N619 S618 1.613 . S
N619 C622 1.350 . S
N620 S618 1.610 . S
N620 C621 1.351 . S
C621 C615 1.428 . S
C621 N620 1.351 . S
C621 C622 1.434 . S
C622 C613 1.429 . S
C622 N619 1.350 . S
C622 C621 1.434 . S
C623 C624 1.369 . S
C623 C625 1.419 . S
C623 H627 0.930 . S
C624 C623 1.369 . S
C624 C633 1.429 . S
C625 C623 1.419 . S
C625 C626 1.363 . S
C625 H628 0.929 . S
C626 C625 1.363 . S
C626 C632 1.428 . S
H627 C623 0.930 . S
H628 C625 0.929 . S
S629 N630 1.613 . S
S629 N631 1.610 . S
N630 S629 1.613 . S
N630 C633 1.350 . S
N631 S629 1.610 . S
N631 C632 1.351 . S
C632 C626 1.428 . S
C632 N631 1.351 . S
C632 C633 1.434 . S
C633 C624 1.429 . S
C633 N630 1.350 . S
C633 C632 1.434 . S
C634 C635 1.369 . S
C634 C636 1.419 . S
C634 H638 0.930 . S
C635 C634 1.369 . S
C635 C644 1.429 . S
C636 C634 1.419 . S
C636 C637 1.363 . S
C636 H639 0.929 . S
C637 C636 1.363 . S
C637 C643 1.428 . S
H638 C634 0.930 . S
H639 C636 0.929 . S
S640 N641 1.613 . S
S640 N642 1.610 . S
N641 S640 1.613 . S
N641 C644 1.350 . S
N642 S640 1.610 . S
N642 C643 1.351 . S
C643 C637 1.428 . S
C643 N642 1.351 . S
C643 C644 1.434 . S
C644 C635 1.429 . S
C644 N641 1.350 . S
C644 C643 1.434 . S
C645 C646 1.369 . S
C645 C647 1.419 . S
C645 H649 0.930 . S
C646 C645 1.369 . S
C646 C655 1.429 . S
C647 C645 1.419 . S
C647 C648 1.363 . S
C647 H650 0.929 . S
C648 C647 1.363 . S
C648 C654 1.428 . S
H649 C645 0.930 . S
H650 C647 0.929 . S
S651 N652 1.613 . S
S651 N653 1.610 . S
N652 S651 1.613 . S
N652 C655 1.350 . S
N653 S651 1.610 . S
N653 C654 1.351 . S
C654 C648 1.428 . S
C654 N653 1.351 . S
C654 C655 1.434 . S
C655 C646 1.429 . S
C655 N652 1.350 . S
C655 C654 1.434 . S
C656 C657 1.369 . S
C656 C658 1.419 . S
C656 H660 0.930 . S
C657 C656 1.369 . S
C657 C666 1.429 . S
C658 C656 1.419 . S
C658 C659 1.363 . S
C658 H661 0.929 . S
C659 C658 1.363 . S
C659 C665 1.428 . S
H660 C656 0.930 . S
H661 C658 0.929 . S
S662 N663 1.613 . S
S662 N664 1.610 . S
N663 S662 1.613 . S
N663 C666 1.350 . S
N664 S662 1.610 . S
N664 C665 1.351 . S
C665 C659 1.428 . S
C665 N664 1.351 . S
C665 C666 1.434 . S
C666 C657 1.429 . S
C666 N663 1.350 . S
C666 C665 1.434 . S
C667 C668 1.369 . S
C667 C669 1.419 . S
C667 H671 0.930 . S
C668 C667 1.369 . S
C668 C677 1.429 . S
C669 C667 1.419 . S
C669 C670 1.363 . S
C669 H672 0.929 . S
C670 C669 1.363 . S
C670 C676 1.428 . S
H671 C667 0.930 . S
H672 C669 0.929 . S
S673 N674 1.613 . S
S673 N675 1.610 . S
N674 S673 1.613 . S
N674 C677 1.350 . S
N675 S673 1.610 . S
N675 C676 1.351 . S
C676 C670 1.428 . S
C676 N675 1.351 . S
C676 C677 1.434 . S
C677 C668 1.429 . S
C677 N674 1.350 . S
C677 C676 1.434 . S
C678 C679 1.369 . S
C678 C680 1.419 1_565 S
C678 H682 0.930 . S
C679 C678 1.369 . S
C679 C688 1.429 1_556 S
C680 C678 1.419 1_545 S
C680 C681 1.363 1_556 S
C680 H683 0.929 . S
C681 C680 1.363 1_554 S
C681 C687 1.428 . S
H682 C678 0.930 . S
H683 C680 0.929 . S
S684 N685 1.613 . S
S684 N686 1.610 1_565 S
N685 S684 1.613 . S
N685 C688 1.350 . S
N686 S684 1.610 1_545 S
N686 C687 1.351 . S
C687 C681 1.428 . S
C687 N686 1.351 . S
C687 C688 1.434 1_545 S
C688 C679 1.429 1_554 S
C688 N685 1.350 . S
C688 C687 1.434 1_565 S
C689 C690 1.369 . S
C689 C691 1.419 . S
C689 H693 0.930 . S
C690 C689 1.369 . S
C690 C699 1.429 . S
C691 C689 1.419 . S
C691 C692 1.363 . S
C691 H694 0.929 . S
C692 C691 1.363 . S
C692 C698 1.428 . S
H693 C689 0.930 . S
H694 C691 0.929 . S
S695 N696 1.613 . S
S695 N697 1.610 . S
N696 S695 1.613 . S
N696 C699 1.350 . S
N697 S695 1.610 . S
N697 C698 1.351 . S
C698 C692 1.428 . S
C698 N697 1.351 . S
C698 C699 1.434 . S
C699 C690 1.429 . S
C699 N696 1.350 . S
C699 C698 1.434 . S
C700 C701 1.369 1_554 S
C700 C702 1.419 1_455 S
C700 H704 0.930 . S
C701 C700 1.369 1_556 S
C701 C710 1.429 . S
C702 C700 1.419 1_655 S
C702 C703 1.363 . S
C702 H705 0.929 . S
C703 C702 1.363 . S
C703 C709 1.428 1_554 S
H704 C700 0.930 . S
H705 C702 0.929 . S
S706 N707 1.613 1_655 S
S706 N708 1.610 . S
N707 S706 1.613 1_455 S
N707 C710 1.350 . S
N708 S706 1.610 . S
N708 C709 1.351 . S
C709 C703 1.428 1_556 S
C709 N708 1.351 . S
C709 C710 1.434 1_655 S
C710 C701 1.429 . S
C710 N707 1.350 . S
C710 C709 1.434 1_455 S
C711 C712 1.369 . S
C711 C713 1.419 1_545 S
C711 H715 0.930 . S
C712 C711 1.369 . S
C712 C721 1.429 . S
C713 C711 1.419 1_565 S
C713 C714 1.363 . S
C713 H716 0.929 . S
C714 C713 1.363 . S
C714 C720 1.428 . S
H715 C711 0.930 . S
H716 C713 0.929 . S
S717 N718 1.613 . S
S717 N719 1.610 1_545 S
N718 S717 1.613 . S
N718 C721 1.350 . S
N719 S717 1.610 1_565 S
N719 C720 1.351 . S
C720 C714 1.428 . S
C720 N719 1.351 . S
C720 C721 1.434 1_565 S
C721 C712 1.429 . S
C721 N718 1.350 . S
C721 C720 1.434 1_545 S
C722 C723 1.369 1_556 S
C722 C724 1.419 . S
C722 H726 0.930 . S
C723 C722 1.369 1_554 S
C723 C732 1.429 . S
C724 C722 1.419 . S
C724 C725 1.363 . S
C724 H727 0.929 . S
C725 C724 1.363 . S
C725 C731 1.428 1_556 S
H726 C722 0.930 . S
H727 C724 0.929 . S
S728 N729 1.613 . S
S728 N730 1.610 . S
N729 S728 1.613 . S
N729 C732 1.350 . S
N730 S728 1.610 . S
N730 C731 1.351 . S
C731 C725 1.428 1_554 S
C731 N730 1.351 . S
C731 C732 1.434 . S
C732 C723 1.429 . S
C732 N729 1.350 . S
C732 C731 1.434 . S
C733 C734 1.369 . S
C733 C735 1.419 1_455 S
C733 H737 0.930 . S
C734 C733 1.369 . S
C734 C743 1.429 . S
C735 C733 1.419 1_655 S
C735 C736 1.363 . S
C735 H738 0.929 . S
C736 C735 1.363 . S
C736 C742 1.428 . S
H737 C733 0.930 . S
H738 C735 0.929 . S
S739 N740 1.613 1_655 S
S739 N741 1.610 . S
N740 S739 1.613 1_455 S
N740 C743 1.350 . S
N741 S739 1.610 . S
N741 C742 1.351 . S
C742 C736 1.428 . S
C742 N741 1.351 . S
C742 C743 1.434 1_655 S
C743 C734 1.429 . S
C743 N740 1.350 . S
C743 C742 1.434 1_455 S
C744 C745 1.369 . S
C744 C746 1.419 . S
C744 H748 0.930 . S
C745 C744 1.369 . S
C745 C754 1.429 . S
C746 C744 1.419 . S
C746 C747 1.363 . S
C746 H749 0.929 . S
C747 C746 1.363 . S
C747 C753 1.428 . S
H748 C744 0.930 . S
H749 C746 0.929 . S
S750 N751 1.613 . S
S750 N752 1.610 . S
N751 S750 1.613 . S
N751 C754 1.350 . S
N752 S750 1.610 . S
N752 C753 1.351 . S
C753 C747 1.428 . S
C753 N752 1.351 . S
C753 C754 1.434 . S
C754 C745 1.429 . S
C754 N751 1.350 . S
C754 C753 1.434 . S
C755 C756 1.369 . S
C755 C757 1.419 . S
C755 H759 0.930 . S
C756 C755 1.369 . S
C756 C765 1.429 . S
C757 C755 1.419 . S
C757 C758 1.363 . S
C757 H760 0.929 . S
C758 C757 1.363 . S
C758 C764 1.428 . S
H759 C755 0.930 . S
H760 C757 0.929 . S
S761 N762 1.613 . S
S761 N763 1.610 . S
N762 S761 1.613 . S
N762 C765 1.350 . S
N763 S761 1.610 . S
N763 C764 1.351 . S
C764 C758 1.428 . S
C764 N763 1.351 . S
C764 C765 1.434 . S
C765 C756 1.429 . S
C765 N762 1.350 . S
C765 C764 1.434 . S
C766 C767 1.369 . S
C766 C768 1.419 . S
C766 H770 0.930 . S
C767 C766 1.369 . S
C767 C776 1.429 . S
C768 C766 1.419 . S
C768 C769 1.363 . S
C768 H771 0.929 . S
C769 C768 1.363 . S
C769 C775 1.428 . S
H770 C766 0.930 . S
H771 C768 0.929 . S
S772 N773 1.613 . S
S772 N774 1.610 . S
N773 S772 1.613 . S
N773 C776 1.350 . S
N774 S772 1.610 . S
N774 C775 1.351 . S
C775 C769 1.428 . S
C775 N774 1.351 . S
C775 C776 1.434 . S
C776 C767 1.429 . S
C776 N773 1.350 . S
C776 C775 1.434 . S
C777 C778 1.369 . S
C777 C779 1.419 . S
C777 H781 0.930 . S
C778 C777 1.369 . S
C778 C787 1.429 . S
C779 C777 1.419 . S
C779 C780 1.363 . S
C779 H782 0.929 . S
C780 C779 1.363 . S
C780 C786 1.428 . S
H781 C777 0.930 . S
H782 C779 0.929 . S
S783 N784 1.613 . S
S783 N785 1.610 . S
N784 S783 1.613 . S
N784 C787 1.350 . S
N785 S783 1.610 . S
N785 C786 1.351 . S
C786 C780 1.428 . S
C786 N785 1.351 . S
C786 C787 1.434 . S
C787 C778 1.429 . S
C787 N784 1.350 . S
C787 C786 1.434 . S
C788 C789 1.369 . S
C788 C790 1.419 . S
C788 H792 0.930 . S
C789 C788 1.369 . S
C789 C798 1.429 . S
C790 C788 1.419 . S
C790 C791 1.363 . S
C790 H793 0.929 . S
C791 C790 1.363 . S
C791 C797 1.428 . S
H792 C788 0.930 . S
H793 C790 0.929 . S
S794 N795 1.613 . S
S794 N796 1.610 . S
N795 S794 1.613 . S
N795 C798 1.350 . S
N796 S794 1.610 . S
N796 C797 1.351 . S
C797 C791 1.428 . S
C797 N796 1.351 . S
C797 C798 1.434 . S
C798 C789 1.429 . S
C798 N795 1.350 . S
C798 C797 1.434 . S
C799 C800 1.369 . S
C799 C801 1.419 . S
C799 H803 0.930 . S
C800 C799 1.369 . S
C800 C809 1.429 . S
C801 C799 1.419 . S
C801 C802 1.363 . S
C801 H804 0.929 . S
C802 C801 1.363 . S
C802 C808 1.428 . S
H803 C799 0.930 . S
H804 C801 0.929 . S
S805 N806 1.613 . S
S805 N807 1.610 . S
N806 S805 1.613 . S
N806 C809 1.350 . S
N807 S805 1.610 . S
N807 C808 1.351 . S
C808 C802 1.428 . S
C808 N807 1.351 . S
C808 C809 1.434 . S
C809 C800 1.429 . S
C809 N806 1.350 . S
C809 C808 1.434 . S
C810 C811 1.369 . S
C810 C812 1.419 . S
C810 H814 0.930 . S
C811 C810 1.369 . S
C811 C820 1.429 . S
C812 C810 1.419 . S
C812 C813 1.363 . S
C812 H815 0.929 . S
C813 C812 1.363 . S
C813 C819 1.428 . S
H814 C810 0.930 . S
H815 C812 0.929 . S
S816 N817 1.613 . S
S816 N818 1.610 . S
N817 S816 1.613 . S
N817 C820 1.350 . S
N818 S816 1.610 . S
N818 C819 1.351 . S
C819 C813 1.428 . S
C819 N818 1.351 . S
C819 C820 1.434 . S
C820 C811 1.429 . S
C820 N817 1.350 . S
C820 C819 1.434 . S
C821 C822 1.369 . S
C821 C823 1.419 . S
C821 H825 0.930 . S
C822 C821 1.369 . S
C822 C831 1.429 . S
C823 C821 1.419 . S
C823 C824 1.363 . S
C823 H826 0.929 . S
C824 C823 1.363 . S
C824 C830 1.428 . S
H825 C821 0.930 . S
H826 C823 0.929 . S
S827 N828 1.613 . S
S827 N829 1.610 . S
N828 S827 1.613 . S
N828 C831 1.350 . S
N829 S827 1.610 . S
N829 C830 1.351 . S
C830 C824 1.428 . S
C830 N829 1.351 . S
C830 C831 1.434 . S
C831 C822 1.429 . S
C831 N828 1.350 . S
C831 C830 1.434 . S
C832 C833 1.369 . S
C832 C834 1.419 . S
C832 H836 0.930 . S
C833 C832 1.369 . S
C833 C842 1.429 . S
C834 C832 1.419 . S
C834 C835 1.363 . S
C834 H837 0.929 . S
C835 C834 1.363 . S
C835 C841 1.428 . S
H836 C832 0.930 . S
H837 C834 0.929 . S
S838 N839 1.613 . S
S838 N840 1.610 . S
N839 S838 1.613 . S
N839 C842 1.350 . S
N840 S838 1.610 . S
N840 C841 1.351 . S
C841 C835 1.428 . S
C841 N840 1.351 . S
C841 C842 1.434 . S
C842 C833 1.429 . S
C842 N839 1.350 . S
C842 C841 1.434 . S
C843 C844 1.369 . S
C843 C845 1.419 . S
C843 H847 0.930 . S
C844 C843 1.369 . S
C844 C853 1.429 . S
C845 C843 1.419 . S
C845 C846 1.363 . S
C845 H848 0.929 . S
C846 C845 1.363 . S
C846 C852 1.428 . S
H847 C843 0.930 . S
H848 C845 0.929 . S
S849 N850 1.613 . S
S849 N851 1.610 . S
N850 S849 1.613 . S
N850 C853 1.350 . S
N851 S849 1.610 . S
N851 C852 1.351 . S
C852 C846 1.428 . S
C852 N851 1.351 . S
C852 C853 1.434 . S
C853 C844 1.429 . S
C853 N850 1.350 . S
C853 C852 1.434 . S
C854 C855 1.369 . S
C854 C856 1.419 . S
C854 H858 0.930 . S
C855 C854 1.369 . S
C855 C864 1.429 . S
C856 C854 1.419 . S
C856 C857 1.363 . S
C856 H859 0.929 . S
C857 C856 1.363 . S
C857 C863 1.428 . S
H858 C854 0.930 . S
H859 C856 0.929 . S
S860 N861 1.613 . S
S860 N862 1.610 . S
N861 S860 1.613 . S
N861 C864 1.350 . S
N862 S860 1.610 . S
N862 C863 1.351 . S
C863 C857 1.428 . S
C863 N862 1.351 . S
C863 C864 1.434 . S
C864 C855 1.429 . S
C864 N861 1.350 . S
C864 C863 1.434 . S
C865 C866 1.369 . S
C865 C867 1.419 . S
C865 H869 0.930 . S
C866 C865 1.369 . S
C866 C875 1.429 . S
C867 C865 1.419 . S
C867 C868 1.363 . S
C867 H870 0.929 . S
C868 C867 1.363 . S
C868 C874 1.428 . S
H869 C865 0.930 . S
H870 C867 0.929 . S
S871 N872 1.613 . S
S871 N873 1.610 . S
N872 S871 1.613 . S
N872 C875 1.350 . S
N873 S871 1.610 . S
N873 C874 1.351 . S
C874 C868 1.428 . S
C874 N873 1.351 . S
C874 C875 1.434 . S
C875 C866 1.429 . S
C875 N872 1.350 . S
C875 C874 1.434 . S
C481 C96 1.424 . S
C483 C11 1.377 . S
C492 C127 1.422 . S
C494 C42 1.377 . S
C503 C91 1.375 . S
C505 C176 1.423 . S
C514 C122 1.375 . S
C516 C207 1.423 . S
C525 C16 1.423 . S
C527 C171 1.379 . S
C536 C47 1.421 . S
C538 C202 1.380 . S
C547 C407 1.421 . S
C549 C242 1.381 . S
C558 C291 1.375 . S
C560 C456 1.423 . S
C569 C322 1.383 . S
C571 C247 1.418 . S
C580 C371 1.381 . S
C582 C296 1.418 . S
C591 C402 1.377 . S
C593 C327 1.420 . S
C602 C376 1.422 . S
C604 C451 1.376 . S
C613 C130 1.707 . S
C615 C19 1.706 . S
C624 C50 1.697 . S
C626 C179 1.698 . S
C635 C99 1.698 . S
C637 C210 1.699 . S
C646 C250 1.699 . S
C648 C379 1.700 . S
C657 C299 1.697 . S
C659 C410 1.698 . S
C668 C330 1.699 . S
C670 C459 1.699 . S
C679 C290 2.544 . S
C681 C10 2.540 . S
C690 C59 2.539 . S
C692 C339 2.543 . S
C701 C370 2.539 . S
C703 C90 2.543 . S
C712 C139 2.544 . S
C714 C419 2.540 . S
C723 C170 2.541 . S
C725 C450 2.542 . S
C734 C259 2.539 . S
C736 C219 2.543 . S
C745 C87 1.786 . S
C747 C2 1.827 . S
C756 C51 1.826 . S
C758 C136 1.783 . S
C767 C82 1.830 . S
C769 C167 1.780 . S
C778 C131 1.826 . S
C780 C216 1.783 . S
C789 C7 1.779 . S
C791 C162 1.830 . S
C800 C56 1.781 . S
C802 C211 1.827 . S
C811 C416 1.787 . S
C813 C251 1.825 . S
C822 C282 1.824 . S
C824 C447 1.786 . S
C833 C331 1.825 . S
C835 C256 1.784 . S
C844 C287 1.783 . S
C846 C362 1.827 . S
C855 C411 1.824 . S
C857 C336 1.787 . S
C866 C442 1.830 . S
C868 C367 1.780 . S
