# Generated by pormake.
# Topology yff, (5)-cn, num edge types: 1
# Building blocks:
#     Node 0, Type 0, BuildingBlock: BEQFEK_clean_sbu_0, # of connection points: 5
#     Node 1, Type 0, BuildingBlock: BEQFEK_clean_sbu_0, # of connection points: 5
#     Node 2, Type 0, BuildingBlock: BEQFEK_clean_sbu_0, # of connection points: 5
#     Node 3, Type 0, BuildingBlock: BEQFEK_clean_sbu_0, # of connection points: 5
#     Node 4, Type 0, BuildingBlock: BEQFEK_clean_sbu_0, # of connection points: 5
#     Node 5, Type 0, BuildingBlock: BEQFEK_clean_sbu_0, # of connection points: 5
#     Node 6, Type 0, BuildingBlock: BEQFEK_clean_sbu_0, # of connection points: 5
#     Node 7, Type 0, BuildingBlock: BEQFEK_clean_sbu_0, # of connection points: 5
#     Node 8, Type 0, BuildingBlock: BEQFEK_clean_sbu_0, # of connection points: 5
#     Node 9, Type 0, BuildingBlock: BEQFEK_clean_sbu_0, # of connection points: 5
#     Node 10, Type 0, BuildingBlock: BEQFEK_clean_sbu_0, # of connection points: 5
#     Node 11, Type 0, BuildingBlock: BEQFEK_clean_sbu_0, # of connection points: 5
#     Node 12, Type 0, BuildingBlock: BEQFEK_clean_sbu_0, # of connection points: 5
#     Node 13, Type 0, BuildingBlock: BEQFEK_clean_sbu_0, # of connection points: 5
#     Node 14, Type 0, BuildingBlock: BEQFEK_clean_sbu_0, # of connection points: 5
#     Node 15, Type 0, BuildingBlock: BEQFEK_clean_sbu_0, # of connection points: 5
#     Edge 16, Type (0, 0), BuildingBlock: AJUNOK_clean_linker_0, # of connection points: 2
#     Edge 17, Type (0, 0), BuildingBlock: AJUNOK_clean_linker_0, # of connection points: 2
#     Edge 18, Type (0, 0), BuildingBlock: AJUNOK_clean_linker_0, # of connection points: 2
#     Edge 19, Type (0, 0), BuildingBlock: AJUNOK_clean_linker_0, # of connection points: 2
#     Edge 20, Type (0, 0), BuildingBlock: AJUNOK_clean_linker_0, # of connection points: 2
#     Edge 21, Type (0, 0), BuildingBlock: AJUNOK_clean_linker_0, # of connection points: 2
#     Edge 22, Type (0, 0), BuildingBlock: AJUNOK_clean_linker_0, # of connection points: 2
#     Edge 23, Type (0, 0), BuildingBlock: AJUNOK_clean_linker_0, # of connection points: 2
#     Edge 24, Type (0, 0), BuildingBlock: AJUNOK_clean_linker_0, # of connection points: 2
#     Edge 25, Type (0, 0), BuildingBlock: AJUNOK_clean_linker_0, # of connection points: 2
#     Edge 26, Type (0, 0), BuildingBlock: AJUNOK_clean_linker_0, # of connection points: 2
#     Edge 27, Type (0, 0), BuildingBlock: AJUNOK_clean_linker_0, # of connection points: 2
#     Edge 28, Type (0, 0), BuildingBlock: AJUNOK_clean_linker_0, # of connection points: 2
#     Edge 29, Type (0, 0), BuildingBlock: AJUNOK_clean_linker_0, # of connection points: 2
#     Edge 30, Type (0, 0), BuildingBlock: AJUNOK_clean_linker_0, # of connection points: 2
#     Edge 31, Type (0, 0), BuildingBlock: AJUNOK_clean_linker_0, # of connection points: 2
#     Edge 32, Type (0, 0), BuildingBlock: AJUNOK_clean_linker_0, # of connection points: 2
#     Edge 33, Type (0, 0), BuildingBlock: AJUNOK_clean_linker_0, # of connection points: 2
#     Edge 34, Type (0, 0), BuildingBlock: AJUNOK_clean_linker_0, # of connection points: 2
#     Edge 35, Type (0, 0), BuildingBlock: AJUNOK_clean_linker_0, # of connection points: 2
#     Edge 36, Type (0, 0), BuildingBlock: AJUNOK_clean_linker_0, # of connection points: 2
#     Edge 37, Type (0, 0), BuildingBlock: AJUNOK_clean_linker_0, # of connection points: 2
#     Edge 38, Type (0, 0), BuildingBlock: AJUNOK_clean_linker_0, # of connection points: 2
#     Edge 39, Type (0, 0), BuildingBlock: AJUNOK_clean_linker_0, # of connection points: 2
#     Edge 40, Type (0, 0), BuildingBlock: AJUNOK_clean_linker_0, # of connection points: 2
#     Edge 41, Type (0, 0), BuildingBlock: AJUNOK_clean_linker_0, # of connection points: 2
#     Edge 42, Type (0, 0), BuildingBlock: AJUNOK_clean_linker_0, # of connection points: 2
#     Edge 43, Type (0, 0), BuildingBlock: AJUNOK_clean_linker_0, # of connection points: 2
#     Edge 44, Type (0, 0), BuildingBlock: AJUNOK_clean_linker_0, # of connection points: 2
#     Edge 45, Type (0, 0), BuildingBlock: AJUNOK_clean_linker_0, # of connection points: 2
#     Edge 46, Type (0, 0), BuildingBlock: AJUNOK_clean_linker_0, # of connection points: 2
#     Edge 47, Type (0, 0), BuildingBlock: AJUNOK_clean_linker_0, # of connection points: 2
#     Edge 48, Type (0, 0), BuildingBlock: AJUNOK_clean_linker_0, # of connection points: 2
#     Edge 49, Type (0, 0), BuildingBlock: AJUNOK_clean_linker_0, # of connection points: 2
#     Edge 50, Type (0, 0), BuildingBlock: AJUNOK_clean_linker_0, # of connection points: 2
#     Edge 51, Type (0, 0), BuildingBlock: AJUNOK_clean_linker_0, # of connection points: 2
#     Edge 52, Type (0, 0), BuildingBlock: AJUNOK_clean_linker_0, # of connection points: 2
#     Edge 53, Type (0, 0), BuildingBlock: AJUNOK_clean_linker_0, # of connection points: 2
#     Edge 54, Type (0, 0), BuildingBlock: AJUNOK_clean_linker_0, # of connection points: 2
#     Edge 55, Type (0, 0), BuildingBlock: AJUNOK_clean_linker_0, # of connection points: 2
# Relax obj value: 0.553
# Max RMSD: 0.296
# Mean RMSD: 0.281
data_MOF--net-yff--node1-BEQFEK_clean_sbu_0--edge1-AJUNOK_clean_linker_0
_symmetry_space_group_name_H-M    P1
_symmetry_Int_Tables_number       1
_symmetry_cell_setting            triclinic
loop_
_symmetry_equiv_pos_as_xyz
'x, y, z'
_cell_length_a     53.390821
_cell_length_b     51.406162
_cell_length_c     21.110882
_cell_angle_alpha  89.684944
_cell_angle_beta   89.253526
_cell_angle_gamma 88.903737
loop_
_atom_site_label
_atom_site_type_symbol
_atom_site_fract_x
_atom_site_fract_y
_atom_site_fract_z
_atom_type_partial_charge
Co0 Co 0.07147 0.03883 0.2884 0.0
Co1 Co 0.12911 0.03596 0.26331 0.0
C2 C 0.1002 0.98828 0.25534 0.0
O3 O 0.08132 1.00303 0.2652 0.0
O4 O 0.12228 0.99731 0.25457 0.0
C5 C 0.04714 0.01785 0.38511 0.0
O6 O 0.07037 0.00913 0.38735 0.0
C7 C 0.18553 0.03 0.26613 0.0
C8 C 0.19559 0.06598 0.21509 0.0
C9 C 0.2059 0.04386 0.24282 0.0
N10 N 0.16423 0.04328 0.25177 0.0
N11 N 0.17058 0.06486 0.22186 0.0
C12 C 0.18635 1.0042 0.29908 0.0
H13 H 0.16751 0.99552 0.30103 0.0
H14 H 0.19291 1.00687 0.34822 0.0
H15 H 0.19987 0.99089 0.2746 0.0
C16 C 0.08714 0.06874 0.39622 0.0
N17 N 0.09318 0.05491 0.34438 0.0
N18 N 0.11735 0.04986 0.3428 0.0
C19 C 0.1272 0.0588 0.3972 0.0
C20 C 0.10821 0.07127 0.4326 0.0
C21 C 0.06118 0.07831 0.4127 0.0
H22 H 0.04902 0.07825 0.37054 0.0
H23 H 0.05314 0.0659 0.45072 0.0
H24 H 0.06167 0.09845 0.43112 0.0
O25 O 0.06978 0.06033 0.21265 0.0
O26 O 0.11088 0.05696 0.1935 0.0
H27 H 0.16599 0.06566 0.37997 0.0
H28 H 0.15746 0.06293 0.46311 0.0
C29 C 0.15404 0.05531 0.41494 0.0
H30 H 0.15931 0.03435 0.41283 0.0
H31 H 0.15776 0.07881 0.20542 0.0
O32 O 0.04072 0.03258 0.33897 0.0
C33 C 0.08899 0.06576 0.17887 0.0
Co34 Co 0.48142 0.06049 0.7902 0.0
Co35 Co 0.47881 0.12004 0.77103 0.0
C36 C 0.52682 0.09325 0.75309 0.0
O37 O 0.51459 0.07263 0.76174 0.0
O38 O 0.51615 0.11555 0.75724 0.0
C39 C 0.50568 0.0336 0.87826 0.0
O40 O 0.51434 0.05731 0.88013 0.0
C41 C 0.48128 0.17745 0.77715 0.0
C42 C 0.44195 0.18797 0.75553 0.0
C43 C 0.46479 0.19848 0.77046 0.0
N44 N 0.46865 0.15556 0.76633 0.0
N45 N 0.44521 0.16203 0.75323 0.0
C46 C 0.50792 0.17782 0.79809 0.0
H47 H 0.5121 0.16057 0.82825 0.0
H48 H 0.5118 0.19591 0.8244 0.0
H49 H 0.52043 0.17675 0.75576 0.0
C50 C 0.45413 0.07436 0.90637 0.0
N51 N 0.46604 0.08135 0.85271 0.0
N52 N 0.46817 0.10671 0.85089 0.0
C53 C 0.45896 0.11659 0.90592 0.0
C54 C 0.44958 0.09625 0.9425 0.0
C55 C 0.44738 0.04704 0.92372 0.0
H56 H 0.44743 0.03444 0.88131 0.0
H57 H 0.46084 0.03927 0.95898 0.0
H58 H 0.42849 0.04667 0.94609 0.0
O59 O 0.4587 0.05889 0.71903 0.0
O60 O 0.45869 0.10176 0.70364 0.0
H61 H 0.44447 0.15519 0.89351 0.0
H62 H 0.45407 0.14775 0.97343 0.0
C63 C 0.4587 0.14481 0.92252 0.0
H64 H 0.47721 0.1532 0.91104 0.0
H65 H 0.43131 0.14864 0.7438 0.0
O66 O 0.49015 0.02805 0.83516 0.0
C67 C 0.45129 0.07906 0.68864 0.0
Co68 Co 0.45165 0.47581 0.30358 0.0
Co69 Co 0.3949 0.48096 0.27441 0.0
C70 C 0.42451 0.5275 0.27232 0.0
O71 O 0.44276 0.51211 0.28322 0.0
O72 O 0.40233 0.51916 0.26785 0.0
C73 C 0.47564 0.49458 0.40238 0.0
O74 O 0.45262 0.50393 0.40584 0.0
C75 C 0.33945 0.48696 0.28398 0.0
C76 C 0.3279 0.45509 0.22165 0.0
C77 C 0.31858 0.47468 0.26053 0.0
N78 N 0.36016 0.47505 0.26008 0.0
N79 N 0.35303 0.45615 0.22255 0.0
C80 C 0.33968 0.51038 0.32569 0.0
H81 H 0.35914 0.51663 0.33389 0.0
H82 H 0.33053 0.50603 0.37184 0.0
H83 H 0.32875 0.52645 0.30324 0.0
C84 C 0.43301 0.44558 0.40869 0.0
N85 N 0.42836 0.45951 0.35626 0.0
N86 N 0.40453 0.46611 0.35427 0.0
C87 C 0.39367 0.45829 0.40936 0.0
C88 C 0.41153 0.44497 0.4454 0.0
C89 C 0.45827 0.43477 0.42632 0.0
H90 H 0.47108 0.43417 0.38457 0.0
H91 H 0.46631 0.44674 0.46432 0.0
H92 H 0.45642 0.41474 0.4454 0.0
O93 O 0.45449 0.45585 0.22665 0.0
O94 O 0.4139 0.46057 0.20524 0.0
H95 H 0.35439 0.45792 0.39149 0.0
H96 H 0.36237 0.45468 0.47432 0.0
C97 C 0.36724 0.46439 0.42882 0.0
H98 H 0.36489 0.48574 0.4343 0.0
H99 H 0.36536 0.44365 0.19823 0.0
O100 O 0.4818 0.48018 0.35543 0.0
C101 C 0.43586 0.45151 0.19141 0.0
Co102 Co 0.01633 0.37734 0.77759 0.0
Co103 Co 0.0669 0.36882 0.85235 0.0
C104 C 0.03713 0.32311 0.81172 0.0
O105 O 0.02083 0.33818 0.78572 0.0
O106 O 0.05599 0.33228 0.84009 0.0
C107 C 0.96123 0.38542 0.76884 0.0
O108 O 0.95949 0.37405 0.82458 0.0
C109 C 0.10013 0.35989 0.96231 0.0
C110 C 0.12428 0.39385 0.95128 0.0
C111 C 0.11724 0.37503 0.99527 0.0
N112 N 0.09596 0.37088 0.90525 0.0
N113 N 0.11144 0.39038 0.89787 0.0
C114 C 0.08924 0.33434 0.98108 0.0
H115 H 0.09093 0.32086 0.94036 0.0
H116 H 0.06894 0.33685 0.99178 0.0
H117 H 0.09924 0.32552 0.0219 0.0
C118 C 1.00697 0.41474 0.8834 0.0
N119 N 0.02012 0.39497 0.85585 0.0
N120 N 0.04021 0.38979 0.88966 0.0
C121 C 0.03934 0.40505 0.94162 0.0
C122 C 0.01845 0.42125 0.9393 0.0
C123 C 0.98692 0.43062 0.85178 0.0
H124 H 0.98888 0.42948 0.79957 0.0
H125 H 0.96844 0.42338 0.86728 0.0
H126 H 0.98778 0.45134 0.866 0.0
O127 O 0.04172 0.39164 0.71841 0.0
O128 O 0.07756 0.38465 0.76884 0.0
H129 H 0.07577 0.4131 0.97568 0.0
H130 H 0.05143 0.4158 0.03526 0.0
C131 C 0.05808 0.40465 0.99324 0.0
H132 H 0.0611 0.38431 0.00806 0.0
H133 H 0.11145 0.40294 0.85888 0.0
O134 O 0.98268 0.3869 0.74187 0.0
C135 C 0.06546 0.39334 0.72126 0.0
Co136 Co 0.5761 0.97624 0.69045 0.0
Co137 Co 0.63365 0.97965 0.71512 0.0
C138 C 0.60304 0.02694 0.72083 0.0
O139 O 0.58501 0.01193 0.71068 0.0
O140 O 0.62555 0.01825 0.72356 0.0
C141 C 0.54725 0.99692 0.59846 0.0
O142 O 0.5693 1.00737 0.58975 0.0
C143 C 0.69015 0.98343 0.7072 0.0
C144 C 0.69998 0.9438 0.74062 0.0
C145 C 0.71038 0.96647 0.71753 0.0
N146 N 0.66881 0.97108 0.72299 0.0
N147 N 0.67503 0.94752 0.74343 0.0
C148 C 0.69104 0.01007 0.67871 0.0
H149 H 0.67222 0.0164 0.66226 0.0
H150 H 0.70473 0.01035 0.63868 0.0
H151 H 0.69741 0.02391 0.715 0.0
C152 C 0.59384 0.94819 0.58012 0.0
N153 N 0.59869 0.96089 0.63363 0.0
N154 N 0.62258 0.96632 0.63568 0.0
C155 C 0.63336 0.95886 0.58008 0.0
C156 C 0.61533 0.94698 0.54336 0.0
C157 C 0.56855 0.93862 0.56225 0.0
H158 H 0.55612 0.93702 0.60451 0.0
H159 H 0.56003 0.95205 0.52691 0.0
H160 H 0.57038 0.91921 0.53981 0.0
O161 O 0.5754 0.95536 0.7668 0.0
O162 O 0.61606 0.95907 0.78632 0.0
H163 H 0.67245 0.95176 0.59298 0.0
H164 H 0.66383 0.95833 0.51175 0.0
C165 C 0.66002 0.96359 0.56194 0.0
H166 H 0.6643 0.98436 0.56959 0.0
H167 H 0.6621 0.93364 0.7578 0.0
O168 O 0.54426 0.98128 0.64491 0.0
C169 C 0.59436 0.95029 0.801 0.0
Co170 Co 0.54273 0.56215 0.19691 0.0
Co171 Co 0.54397 0.62127 0.22458 0.0
C172 C 0.49658 0.5955 0.23542 0.0
O173 O 0.50935 0.57503 0.22357 0.0
O174 O 0.50674 0.61768 0.23646 0.0
C175 C 0.51962 0.53877 0.10263 0.0
O176 O 0.51193 0.56318 0.10157 0.0
C177 C 0.54241 0.67893 0.22293 0.0
C178 C 0.58126 0.68663 0.25157 0.0
C179 C 0.55913 0.69878 0.23328 0.0
N180 N 0.55425 0.65611 0.23475 0.0
N181 N 0.57736 0.66091 0.25222 0.0
C182 C 0.51644 0.68129 0.19757 0.0
H183 H 0.51208 0.66393 0.16906 0.0
H184 H 0.51419 0.69922 0.16848 0.0
H185 H 0.50291 0.68225 0.23787 0.0
C186 C 0.57139 0.57836 0.08658 0.0
N187 N 0.55902 0.58432 0.14031 0.0
N188 N 0.55559 0.60958 0.14401 0.0
C189 C 0.56422 0.62043 0.08964 0.0
C190 C 0.57467 0.60082 0.05171 0.0
C191 C 0.57864 0.55129 0.06657 0.0
H192 H 0.57846 0.53775 0.10759 0.0
H193 H 0.56556 0.54465 0.02986 0.0
H194 H 0.59771 0.55106 0.04511 0.0
O195 O 0.56386 0.55789 0.27045 0.0
O196 O 0.56304 0.60036 0.29091 0.0
H197 H 0.57368 0.65988 0.10697 0.0
H198 H 0.56847 0.65264 0.02445 0.0
C199 C 0.56209 0.64873 0.0738 0.0
H200 H 0.54236 0.65545 0.08012 0.0
H201 H 0.5907 0.64652 0.26314 0.0
O202 O 0.53451 0.53137 0.1463 0.0
C203 C 0.57033 0.57708 0.30416 0.0
Co204 Co 0.94507 0.52562 0.67233 0.0
Co205 Co 0.88806 0.53037 0.69854 0.0
C206 C 0.91248 0.4792 0.70627 0.0
O207 O 0.93253 0.49103 0.6936 0.0
O208 O 0.89159 0.49147 0.7108 0.0
C209 C 0.97265 0.50244 0.58092 0.0
O210 O 0.94986 0.49434 0.57116 0.0
C211 C 0.8326 0.52826 0.69685 0.0
C212 C 0.82282 0.56898 0.72135 0.0
C213 C 0.81242 0.54532 0.70665 0.0
N214 N 0.85387 0.54133 0.7059 0.0
N215 N 0.84784 0.56561 0.7206 0.0
C216 C 0.83196 0.50068 0.67488 0.0
H217 H 0.84804 0.49655 0.64238 0.0
H218 H 0.81411 0.49668 0.65071 0.0
H219 H 0.83381 0.48751 0.71645 0.0
C220 C 0.93177 0.55573 0.56065 0.0
N221 N 0.92512 0.5435 0.61433 0.0
N222 N 0.90068 0.54167 0.61766 0.0
C223 C 0.89109 0.55102 0.56277 0.0
C224 C 0.91067 0.5604 0.52515 0.0
C225 C 0.95812 0.56224 0.54213 0.0
H226 H 0.97041 0.56203 0.58402 0.0
H227 H 0.96524 0.54816 0.50625 0.0
H228 H 0.95867 0.58186 0.52011 0.0
O229 O 0.94764 0.54679 0.74727 0.0
O230 O 0.90669 0.5497 0.76771 0.0
H231 H 0.85363 0.56509 0.57705 0.0
H232 H 0.86099 0.55602 0.49617 0.0
C233 C 0.86393 0.55084 0.54668 0.0
H234 H 0.85627 0.53134 0.557 0.0
H235 H 0.86087 0.57997 0.7295 0.0
O236 O 0.97649 0.51722 0.62791 0.0
C237 C 0.92934 0.55531 0.78092 0.0
Co238 Co 0.98434 0.94369 0.18307 0.0
Co239 Co 0.9868 0.88364 0.20927 0.0
C240 C 0.03247 0.914 0.21885 0.0
O241 O 0.01824 0.93338 0.20765 0.0
O242 O 0.02399 0.89094 0.21995 0.0
C243 C 1.00625 0.97072 0.09009 0.0
O244 O 0.01547 0.94691 0.08608 0.0
C245 C 0.99244 0.82504 0.20187 0.0
C246 C 0.9545 0.81427 0.23401 0.0
C247 C 0.97702 0.80376 0.21203 0.0
N248 N 0.97946 0.84701 0.2173 0.0
N249 N 0.9569 0.84021 0.23694 0.0
C250 C 0.01826 0.82472 0.17365 0.0
H251 H 0.02197 0.84344 0.14916 0.0
H252 H 0.02074 0.80825 0.14019 0.0
H253 H 0.03204 0.82221 0.21218 0.0
C254 C 0.95723 0.92705 0.0736 0.0
N255 N 0.96997 0.92105 0.12612 0.0
N256 N 0.97431 0.89587 0.12905 0.0
C257 C 0.96579 0.88522 0.07497 0.0
C258 C 0.95449 0.90482 0.03843 0.0
C259 C 0.9485 0.95398 0.05583 0.0
H260 H 0.96144 0.96213 0.01964 0.0
H261 H 0.92962 0.95351 0.03464 0.0
H262 H 0.94757 0.96675 0.09794 0.0
O263 O 0.96303 0.94511 0.25797 0.0
O264 O 0.96595 0.90258 0.27895 0.0
H265 H 0.95647 0.84561 0.09195 0.0
H266 H 0.96235 0.8534 0.00946 0.0
C267 C 0.96828 0.85704 0.05879 0.0
H268 H 0.988 0.85042 0.06497 0.0
H269 H 0.94283 0.85344 0.25077 0.0
O270 O 0.99057 0.976 0.13457 0.0
C271 C 0.9575 0.92554 0.29242 0.0
Co272 Co 0.95251 0.9756 0.68697 0.0
Co273 Co 0.89479 0.97771 0.71076 0.0
C274 C 0.92306 0.02563 0.72094 0.0
O275 O 0.94201 0.01102 0.71066 0.0
O276 O 0.90099 0.01649 0.72138 0.0
C277 C 0.97852 0.99776 0.5937 0.0
O278 O 0.9554 1.00661 0.58824 0.0
C279 C 0.83834 0.98186 0.70394 0.0
C280 C 0.82929 0.94208 0.73558 0.0
C281 C 0.81845 0.96509 0.714 0.0
N282 N 0.85989 0.9691 0.7185 0.0
N283 N 0.85415 0.94543 0.7378 0.0
C284 C 0.83701 0.00878 0.67707 0.0
H285 H 0.85548 0.01435 0.65699 0.0
H286 H 0.82243 0.01016 0.64011 0.0
H287 H 0.83173 0.02258 0.71544 0.0
C288 C 0.93767 0.9468 0.57647 0.0
N289 N 0.93143 0.96001 0.62913 0.0
N290 N 0.9072 0.96468 0.63096 0.0
C291 C 0.89747 0.95606 0.57612 0.0
C292 C 0.91663 0.94424 0.54001 0.0
C293 C 0.96377 0.93788 0.55933 0.0
H294 H 0.97588 0.93745 0.60157 0.0
H295 H 0.97166 0.95103 0.52263 0.0
H296 H 0.96355 0.91805 0.53899 0.0
O297 O 0.95381 0.95357 0.76173 0.0
O298 O 0.91266 0.95643 0.78044 0.0
H299 H 0.85902 0.94677 0.59 0.0
H300 H 0.86759 0.95365 0.5085 0.0
C301 C 0.87057 0.95923 0.55853 0.0
H302 H 0.86437 0.97971 0.56613 0.0
H303 H 0.86734 0.93127 0.75115 0.0
O304 O 0.98376 0.98238 0.63951 0.0
C305 C 0.93458 0.94772 0.79495 0.0
Co306 Co 0.54335 0.94827 0.19928 0.0
Co307 Co 0.54542 0.88899 0.22209 0.0
C308 C 0.49761 0.91607 0.23839 0.0
O309 O 0.51006 0.93647 0.22843 0.0
O310 O 0.50806 0.89363 0.2353 0.0
C311 C 0.51982 0.97169 0.1054 0.0
O312 O 0.51241 0.9475 0.1069 0.0
C313 C 0.54357 0.83146 0.21926 0.0
C314 C 0.58264 0.82167 0.24526 0.0
C315 C 0.56017 0.81071 0.22882 0.0
N316 N 0.55578 0.85362 0.23 0.0
N317 N 0.57906 0.84759 0.24567 0.0
C318 C 0.51732 0.83057 0.19566 0.0
H319 H 0.51327 0.84777 0.16521 0.0
H320 H 0.51422 0.81241 0.16889 0.0
H321 H 0.50415 0.83133 0.23672 0.0
C322 C 0.5723 0.93315 0.08722 0.0
N323 N 0.55968 0.92659 0.1401 0.0
N324 N 0.55672 0.90137 0.14193 0.0
C325 C 0.56603 0.89117 0.08732 0.0
C326 C 0.57637 0.91116 0.05104 0.0
C327 C 0.57963 0.96031 0.07002 0.0
H328 H 0.57833 0.97328 0.11174 0.0
H329 H 0.5674 0.96781 0.0317 0.0
H330 H 0.59918 0.96038 0.05167 0.0
O331 O 0.56547 0.95107 0.2714 0.0
O332 O 0.56507 0.90828 0.28871 0.0
H333 H 0.57799 0.85182 0.10227 0.0
H334 H 0.57118 0.85973 0.02064 0.0
C335 C 0.56527 0.863 0.07061 0.0
H336 H 0.54604 0.85574 0.07859 0.0
H337 H 0.59266 0.86125 0.25549 0.0
O338 O 0.53433 0.97936 0.14886 0.0
C339 C 0.57249 0.93106 0.3031 0.0
Co340 Co 0.57199 0.53228 0.69788 0.0
Co341 Co 0.62927 0.5294 0.72202 0.0
C342 C 0.6013 0.48197 0.73095 0.0
O343 O 0.58251 0.49675 0.72077 0.0
O344 O 0.6234 0.49088 0.73201 0.0
C345 C 0.5451 0.51071 0.60683 0.0
O346 O 0.56794 0.50117 0.59947 0.0
C347 C 0.68523 0.52587 0.71551 0.0
C348 C 0.69361 0.56607 0.74412 0.0
C349 C 0.70475 0.54299 0.72406 0.0
N350 N 0.66355 0.53848 0.72986 0.0
N351 N 0.66881 0.56237 0.74744 0.0
C352 C 0.68687 0.49891 0.68943 0.0
H353 H 0.66915 0.49399 0.66577 0.0
H354 H 0.70293 0.4969 0.65576 0.0
H355 H 0.68977 0.48495 0.72903 0.0
C356 C 0.58864 0.55998 0.58546 0.0
N357 N 0.59387 0.54752 0.63973 0.0
N358 N 0.61796 0.54225 0.64228 0.0
C359 C 0.62862 0.54963 0.58672 0.0
C360 C 0.61024 0.56124 0.54916 0.0
C361 C 0.56298 0.56899 0.56616 0.0
H362 H 0.5554 0.55524 0.53126 0.0
H363 H 0.56396 0.58831 0.54267 0.0
H364 H 0.55022 0.57055 0.60787 0.0
O365 O 0.57014 0.55396 0.77232 0.0
O366 O 0.61097 0.55027 0.79099 0.0
H367 H 0.6675 0.55617 0.60079 0.0
H368 H 0.65933 0.55062 0.51914 0.0
C369 C 0.65549 0.54484 0.56902 0.0
H370 H 0.66029 0.52394 0.57576 0.0
H371 H 0.65533 0.57646 0.75991 0.0
O372 O 0.54064 0.52638 0.65239 0.0
C373 C 0.5891 0.55929 0.80547 0.0
Co374 Co 0.98237 0.55003 0.1765 0.0
Co375 Co 0.98639 0.61081 0.19613 0.0
C376 C 0.03139 0.57703 0.20971 0.0
O377 O 0.01707 0.55819 0.19866 0.0
O378 O 0.02301 0.60052 0.21058 0.0
C379 C 1.00182 0.51218 0.09763 0.0
O380 O 0.01564 0.53245 0.08461 0.0
C381 C 0.99274 0.66964 0.19052 0.0
C382 C 0.95372 0.68126 0.21433 0.0
C383 C 0.97686 0.69137 0.19888 0.0
N384 N 0.97934 0.6479 0.20076 0.0
N385 N 0.95612 0.65523 0.21524 0.0
C386 C 0.01953 0.66937 0.16912 0.0
H387 H 0.02377 0.6516 0.14101 0.0
H388 H 0.02373 0.68704 0.14073 0.0
H389 H 0.03169 0.66892 0.21133 0.0
C390 C 0.9582 0.56739 0.06045 0.0
N391 N 0.97037 0.57275 0.1139 0.0
N392 N 0.97427 0.59791 0.11708 0.0
C393 C 0.96567 0.60917 0.06326 0.0
C394 C 0.95494 0.59012 0.02615 0.0
C395 C 0.95025 0.54073 0.04172 0.0
H396 H 0.94627 0.52877 0.08435 0.0
H397 H 0.96541 0.53129 0.01315 0.0
H398 H 0.9332 0.54155 0.01243 0.0
O399 O 0.96019 0.55303 0.25085 0.0
O400 O 0.9645 0.59549 0.26573 0.0
H401 H 0.95322 0.64838 0.07749 0.0
H402 H 0.96352 0.64144 -0.00252 0.0
C403 C 0.96728 0.63753 0.04828 0.0
H404 H 0.9861 0.6446 0.06062 0.0
H405 H 0.9417 0.64232 0.22482 0.0
O406 O 0.98477 0.51437 0.1401 0.0
C407 C 0.95497 0.57372 0.28171 0.0
Co408 Co 0.44741 0.03465 0.30546 0.0
Co409 Co 0.39012 0.02969 0.27956 0.0
C410 C 0.42132 0.9831 0.27601 0.0
O411 O 0.43889 0.99873 0.28577 0.0
O412 O 0.3986 0.99114 0.27295 0.0
C413 C 0.47409 0.01407 0.40061 0.0
O414 O 0.45144 1.00481 0.40708 0.0
C415 C 0.33373 0.02482 0.27473 0.0
C416 C 0.32439 0.06452 0.24075 0.0
C417 C 0.31378 0.04103 0.25689 0.0
N418 N 0.35514 0.03825 0.26865 0.0
N419 N 0.34922 0.06201 0.24899 0.0
C420 C 0.33271 0.99672 0.29275 0.0
H421 H 0.33377 0.98482 0.24906 0.0
H422 H 0.34888 0.99129 0.32292 0.0
H423 H 0.31486 0.99244 0.31781 0.0
C424 C 0.42854 0.06354 0.41314 0.0
N425 N 0.42415 0.05034 0.36009 0.0
N426 N 0.40052 0.04392 0.35833 0.0
C427 C 0.38948 0.0512 0.41369 0.0
C428 C 0.40703 0.06405 0.45005 0.0
C429 C 0.45363 0.07359 0.43114 0.0
H430 H 0.46627 0.07476 0.38918 0.0
H431 H 0.46208 0.06069 0.46773 0.0
H432 H 0.45146 0.09326 0.45205 0.0
O433 O 0.44861 0.05485 0.2279 0.0
O434 O 0.40812 0.04958 0.20836 0.0
H435 H 0.35026 0.05844 0.40511 0.0
H436 H 0.35972 0.04814 0.48339 0.0
C437 C 0.36306 0.04528 0.43186 0.0
H438 H 0.35882 0.02501 0.4184 0.0
H439 H 0.36228 0.07647 0.24019 0.0
O440 O 0.47854 0.02948 0.35435 0.0
C441 C 0.42956 0.05877 0.19306 0.0
Co442 Co 0.48182 0.44765 0.79219 0.0
Co443 Co 0.4817 0.38802 0.7719 0.0
C444 C 0.52877 0.41437 0.75888 0.0
O445 O 0.51566 0.43491 0.7676 0.0
O446 O 0.51893 0.39201 0.7607 0.0
C447 C 0.50406 0.47406 0.88325 0.0
O448 O 0.51313 0.45017 0.8869 0.0
C449 C 0.48365 0.33017 0.77686 0.0
C450 C 0.44409 0.32233 0.7552 0.0
C451 C 0.46665 0.31027 0.7701 0.0
N452 N 0.47153 0.35294 0.76617 0.0
N453 N 0.44797 0.34804 0.753 0.0
C454 C 0.51026 0.32793 0.79772 0.0
H455 H 0.51511 0.34507 0.8265 0.0
H456 H 0.51351 0.30976 0.82531 0.0
H457 H 0.52274 0.32765 0.75526 0.0
C458 C 0.45383 0.43292 0.9056 0.0
N459 N 0.46608 0.42634 0.85205 0.0
N460 N 0.46997 0.4011 0.85088 0.0
C461 C 0.46181 0.39097 0.90649 0.0
C462 C 0.45114 0.41097 0.94273 0.0
C463 C 0.44595 0.46009 0.92317 0.0
H464 H 0.44558 0.47296 0.88088 0.0
H465 H 0.45897 0.4677 0.95882 0.0
H466 H 0.42698 0.46012 0.94524 0.0
O467 O 0.46043 0.44994 0.71845 0.0
O468 O 0.46219 0.40713 0.70334 0.0
H469 H 0.45178 0.35127 0.89629 0.0
H470 H 0.46017 0.36001 0.97596 0.0
C471 C 0.46464 0.36298 0.92496 0.0
H472 H 0.48405 0.35608 0.91441 0.0
H473 H 0.43437 0.36237 0.74383 0.0
O474 O 0.48899 0.47979 0.83864 0.0
C475 C 0.45428 0.42989 0.68739 0.0
Co476 Co 0.08121 0.45711 0.31817 0.0
Co477 Co 0.13796 0.46639 0.32656 0.0
C478 C 0.10561 0.50812 0.27822 0.0
O479 O 0.0887 0.49119 0.27939 0.0
O480 O 0.12716 0.5031 0.301 0.0
C481 C 0.04784 0.48226 0.38653 0.0
O482 O 0.06947 0.4937 0.39135 0.0
C483 C 0.1919 0.47874 0.31665 0.0
C484 C 0.20876 0.44505 0.36697 0.0
C485 C 0.21469 0.46743 0.3338 0.0
N486 N 0.17337 0.4637 0.33895 0.0
N487 N 0.18364 0.44359 0.36884 0.0
C488 C 0.18765 0.50344 0.28023 0.0
H489 H 0.17845 0.49897 0.23482 0.0
H490 H 0.17478 0.51645 0.30759 0.0
H491 H 0.20545 0.51365 0.27078 0.0
C492 C 0.08862 0.43701 0.445 0.0
N493 N 0.09816 0.44818 0.39269 0.0
N494 N 0.1212 0.4553 0.40279 0.0
C495 C 0.12652 0.45009 0.46442 0.0
C496 C 0.10583 0.43833 0.4929 0.0
C497 C 0.06377 0.42395 0.44834 0.0
H498 H 0.05759 0.41852 0.4003 0.0
H499 H 0.0496 0.43726 0.47017 0.0
H500 H 0.06501 0.40626 0.47864 0.0
O501 O 0.08957 0.43082 0.25615 0.0
O502 O 0.13026 0.44012 0.25628 0.0
H503 H 0.16226 0.43939 0.50139 0.0
H504 H 0.14601 0.4645 0.54475 0.0
C505 C 0.15023 0.4571 0.4964 0.0
H506 H 0.16042 0.47197 0.46848 0.0
H507 H 0.1735 0.42841 0.38889 0.0
O508 O 0.04633 0.46303 0.34872 0.0
C509 C 0.11185 0.42714 0.23498 0.0
Co510 Co 0.04092 0.07143 0.78775 0.0
Co511 Co 0.03652 0.13154 0.7653 0.0
C512 C 0.99154 0.09963 0.75655 0.0
O513 O 1.00629 0.08046 0.7657 0.0
O514 O 0.99953 0.12287 0.75639 0.0
C515 C 0.0212 0.04237 0.88047 0.0
O516 O 0.01075 0.06557 0.88658 0.0
C517 C 0.02937 0.18945 0.78201 0.0
C518 C 0.06096 0.20371 0.72388 0.0
C519 C 0.04116 0.212 0.76195 0.0
N520 N 0.04163 0.1687 0.75659 0.0
N521 N 0.06043 0.17755 0.72176 0.0
C522 C 1.00694 0.18784 0.82476 0.0
H523 H 1.00273 0.16727 0.83622 0.0
H524 H 0.01028 0.19881 0.8689 0.0
H525 H 0.99061 0.19715 0.80112 0.0
C526 C 0.06823 0.08779 0.89732 0.0
N527 N 0.05513 0.09407 0.84551 0.0
N528 N 0.05003 0.11917 0.84467 0.0
C529 C 0.0583 0.12927 0.89971 0.0
C530 C 0.07021 0.10954 0.93453 0.0
C531 C 0.07809 0.06099 0.91249 0.0
H532 H 0.07919 0.04882 0.86936 0.0
H533 H 0.06583 0.05186 0.94878 0.0
H534 H 0.0971 0.06197 0.93269 0.0
O535 O 0.06175 0.07123 0.71186 0.0
O536 O 0.05757 0.11388 0.69381 0.0
H537 H 0.06165 0.16996 0.88078 0.0
H538 H 0.06494 0.16102 0.96347 0.0
C539 C 0.05478 0.157 0.91912 0.0
H540 H 0.03453 0.16119 0.92672 0.0
H541 H 0.07324 0.16567 0.6972 0.0
O542 O 0.03648 0.03838 0.83442 0.0
C543 C 0.06657 0.09133 0.67853 0.0
C544 C 0.98782 0.01245 0.48361 0.0
C545 C 0.99665 1.00313 0.5423 0.0
C546 C 1.00422 0.01716 0.43289 0.0
C547 C 0.03005 0.01267 0.43896 0.0
H548 H 0.96798 0.01588 0.47625 0.0
H549 H 0.99655 0.02414 0.38854 0.0
S550 S 0.06286 0.98988 0.58409 0.0
N551 N 0.03291 0.99057 0.60444 0.0
N552 N 0.06396 0.99945 0.5094 0.0
C553 C 0.03921 1.00365 0.49774 0.0
C554 C 0.02246 0.99885 0.54935 0.0
C555 C 0.52547 0.02489 0.98229 0.0
C556 C 0.51006 0.01632 0.93317 0.0
C557 C 0.52791 0.01078 0.03861 0.0
C558 C 0.51522 0.98742 0.04789 0.0
H559 H 0.53554 0.04291 0.97785 0.0
H560 H 0.54011 0.01814 0.07472 0.0
S561 S 0.47268 0.95629 0.93375 0.0
N562 N 0.48202 0.98291 0.89727 0.0
N563 N 0.48671 0.95611 0.00291 0.0
C564 C 0.4999 0.97843 -0.0011 0.0
C565 C 0.49738 0.99289 0.9415 0.0
C566 C 0.53425 0.4932 0.50121 0.0
C567 C 0.52653 0.506 0.55723 0.0
C568 C 0.51776 0.4897 0.45128 0.0
C569 C 0.49285 0.49877 0.45546 0.0
H570 H 0.55334 0.48606 0.49524 0.0
H571 H 0.52467 0.47992 0.40904 0.0
S572 S 0.4628 0.53215 0.59362 0.0
N573 N 0.49207 0.52686 0.61503 0.0
N574 N 0.46085 0.5202 0.52152 0.0
C575 C 0.48469 0.51119 0.51177 0.0
C576 C 0.50157 0.5148 0.56258 0.0
C577 C 0.02801 0.48447 0.02565 0.0
C578 C 1.00536 0.48826 0.05951 0.0
C579 C 0.0319 0.46287 0.98659 0.0
C580 C 0.01329 0.44423 0.97962 0.0
H581 H 0.04297 0.49831 0.0293 0.0
H582 H 0.04964 0.46076 0.9614 0.0
S583 S 0.95043 0.44513 0.05585 0.0
N584 N 0.9638 0.47161 0.08235 0.0
N585 N 0.9713 0.43087 0.00842 0.0
C586 C 0.99047 0.44775 0.01243 0.0
C587 C 0.9865 0.46974 0.05276 0.0
C588 C 0.53183 0.01964 0.50153 0.0
C589 C 0.52781 1.00118 0.55005 0.0
C590 C 0.51462 0.0234 0.45279 0.0
C591 C 0.4927 0.00882 0.45056 0.0
H592 H 0.54849 0.03133 0.50084 0.0
H593 H 0.51846 0.03803 0.41703 0.0
S594 S 0.47368 0.9573 0.56485 0.0
N595 N 0.50048 0.96778 0.59208 0.0
N596 N 0.46813 0.97463 0.50036 0.0
C597 C 0.48849 0.99013 0.49853 0.0
C598 C 0.50601 0.98638 0.54834 0.0
C599 C 0.52865 0.49921 0.03793 0.0
C600 C 0.51444 0.52209 0.04784 0.0
C601 C 0.52564 0.48439 0.98341 0.0
C602 C 0.50823 0.49178 0.9367 0.0
H603 H 0.54254 0.49288 0.07195 0.0
H604 H 0.53703 0.46685 0.97821 0.0
S605 S 0.46551 0.54949 0.94146 0.0
N606 N 0.48164 0.55112 0.00742 0.0
N607 N 0.47616 0.52321 0.90468 0.0
C608 C 0.4938 0.51457 0.94606 0.0
C609 C 0.49679 0.52967 0.00179 0.0
C610 C 0.98884 0.47791 0.48708 0.0
C611 C 0.99215 0.49755 0.53231 0.0
C612 C 1.00647 0.47355 0.43848 0.0
C613 C 0.02792 0.48881 0.43323 0.0
H614 H 0.97259 0.46564 0.48942 0.0
H615 H 1.00348 0.45781 0.40568 0.0
S616 S 0.04453 0.54375 0.53802 0.0
N617 N 0.01795 0.53295 0.56764 0.0
N618 N 0.05095 0.52516 0.47631 0.0
C619 C 0.0311 0.50897 0.47744 0.0
C620 C 0.01328 0.5132 0.5271 0.0
C621 C 0.99557 0.01123 0.02994 0.0
C622 C 0.01122 0.98926 0.03796 0.0
C623 C 0.99867 0.02783 0.9779 0.0
C624 C 0.01753 0.02314 0.93181 0.0
H625 H 0.98053 0.01545 0.06346 0.0
H626 H 0.98613 0.04455 0.974 0.0
S627 S 0.0643 0.96888 0.93255 0.0
N628 N 0.04693 0.96409 -0.00335 0.0
N629 N 0.05255 0.99531 0.89857 0.0
C630 C 0.03344 1.00133 0.9394 0.0
C631 C 0.03037 0.98444 0.99262 0.0
C632 C 0.0612 0.09076 0.10393 0.0
C633 C 0.08551 0.0822 0.12093 0.0
C634 C 0.05671 0.10326 0.0458 0.0
C635 C 0.07632 0.10786 0.00253 0.0
H636 H 0.04521 0.08654 0.13407 0.0
H637 H 0.03749 0.10724 0.03229 0.0
S638 S 0.14368 0.09322 0.02676 0.0
N639 N 0.12983 0.08228 0.09176 0.0
N640 N 0.12109 0.10574 0.9827 0.0
C641 C 0.10086 0.1016 0.02093 0.0
C642 C 0.10553 0.08873 0.07997 0.0
C643 C 0.42787 0.05084 0.61385 0.0
C644 C 0.43417 0.07596 0.63409 0.0
C645 C 0.41499 0.04711 0.55725 0.0
C646 C 0.4079 0.06834 0.51891 0.0
H647 H 0.43429 0.03375 0.63962 0.0
H648 H 0.4129 0.02743 0.54019 0.0
S649 S 0.41562 0.13804 0.555 0.0
N650 N 0.42884 0.12257 0.61501 0.0
N651 N 0.40499 0.1152 0.50829 0.0
C652 C 0.41171 0.09351 0.5415 0.0
C653 C 0.42486 0.09742 0.59905 0.0
C654 C 0.4192 0.4305 0.09393 0.0
C655 C 0.43975 0.43607 0.13256 0.0
C656 C 0.42268 0.41898 0.03434 0.0
C657 C 0.44676 0.41238 0.01157 0.0
H658 H 0.40036 0.43629 0.10819 0.0
H659 H 0.40665 0.41711 0.00386 0.0
S660 S 0.50659 0.42029 0.09516 0.0
N661 N 0.48505 0.43182 0.1449 0.0
N662 N 0.49122 0.41035 0.03274 0.0
C663 C 0.46723 0.41595 0.05118 0.0
C664 C 0.46383 0.42779 0.1117 0.0
C665 C 0.11116 0.40819 0.58599 0.0
C666 C 0.1005 0.43097 0.55967 0.0
C667 C 0.10063 0.39664 0.64074 0.0
C668 C 0.0788 0.40724 0.66957 0.0
H669 H 0.12665 0.39837 0.5619 0.0
H670 H 0.10866 0.37851 0.6582 0.0
S671 S 0.0461 0.46863 0.62388 0.0
N672 N 0.06898 0.46533 0.57099 0.0
N673 N 0.04876 0.44329 0.67187 0.0
C674 C 0.06907 0.43086 0.64584 0.0
C675 C 0.08006 0.44283 0.59143 0.0
C676 C 0.61056 0.93197 0.90372 0.0
C677 C 0.59084 0.93479 0.86032 0.0
C678 C 0.60657 0.92099 0.96398 0.0
C679 C 0.58282 0.91227 0.98287 0.0
H680 H 0.62886 0.93966 0.89268 0.0
H681 H 0.62166 0.92121 -0.0022 0.0
S682 S 0.52588 0.91142 0.88497 0.0
N683 N 0.54729 0.92473 0.83862 0.0
N684 N 0.54007 0.90461 0.9522 0.0
C685 C 0.56358 0.91284 0.93845 0.0
C686 C 0.5675 0.92403 0.87714 0.0
C687 C 0.59351 0.59381 0.39753 0.0
C688 C 0.58607 0.5725 0.36088 0.0
C689 C 0.60498 0.59008 0.45627 0.0
C690 C 0.60963 0.56497 0.48013 0.0
H691 H 0.58915 0.61357 0.38269 0.0
H692 H 0.60817 0.60688 0.48567 0.0
S693 S 0.59726 0.50271 0.40024 0.0
N694 N 0.58703 0.52525 0.35038 0.0
N695 N 0.60847 0.51858 0.46109 0.0
C696 C 0.60449 0.54359 0.44184 0.0
C697 C 0.59268 0.54726 0.38216 0.0
C698 C 0.92216 0.58444 0.94527 0.0
C699 C 0.94689 0.59095 0.95959 0.0
C700 C 0.91616 0.57451 0.88565 0.0
C701 C 0.93476 0.57072 0.8385 0.0
H702 H 0.90788 0.58474 0.98221 0.0
H703 H 0.89722 0.56809 0.87826 0.0
S704 S 1.00138 0.58988 0.84962 0.0
N705 N 0.98923 0.59654 0.92012 0.0
N706 N 0.97818 0.57854 0.80751 0.0
C707 C 0.95902 0.57988 0.85046 0.0
C708 C 0.96501 0.58992 0.91116 0.0
C709 C 0.93702 0.909 0.39269 0.0
C710 C 0.94174 0.9298 0.35064 0.0
C711 C 0.92553 0.91328 0.4521 0.0
C712 C 0.91816 0.93842 0.47154 0.0
H713 H 0.94353 0.88947 0.38137 0.0
H714 H 0.92429 0.89713 0.48513 0.0
S715 S 0.92299 0.99905 0.37724 0.0
N716 N 0.93529 0.97628 0.33087 0.0
N717 N 0.91413 0.98393 0.44271 0.0
C718 C 0.92076 0.95898 0.42828 0.0
C719 C 0.93249 0.95477 0.36787 0.0
C720 C 0.96723 0.90974 0.92644 0.0
C721 C 0.94788 0.90564 0.97074 0.0
C722 C 0.96248 0.92212 0.86833 0.0
C723 C 0.93816 0.93102 0.85237 0.0
H724 H 0.9865 0.9056 0.9392 0.0
H725 H 0.97833 0.92607 0.83746 0.0
S726 S 0.8805 0.92101 0.94916 0.0
N727 N 0.90326 0.9084 0.99253 0.0
N728 N 0.89401 0.9315 0.88324 0.0
C729 C 0.91832 0.92478 0.89414 0.0
C730 C 0.92325 0.91207 0.95324 0.0
C731 C 0.60787 0.96345 0.43546 0.0
C732 C 0.61459 0.94237 0.47464 0.0
C733 C 0.59541 0.95954 0.37832 0.0
C734 C 0.58916 0.93436 0.35844 0.0
H735 H 0.60998 0.98319 0.45207 0.0
H736 H 0.58929 0.97653 0.35173 0.0
S737 S 0.60671 0.87255 0.44024 0.0
N738 N 0.61713 0.89556 0.4868 0.0
N739 N 0.59405 0.88781 0.37917 0.0
C740 C 0.59805 0.91301 0.39459 0.0
C741 C 0.61078 0.91712 0.45265 0.0
C742 C 0.60317 0.59293 0.96041 0.0
C743 C 0.57924 0.60029 0.98289 0.0
C744 C 0.60638 0.58096 0.90129 0.0
C745 C 0.58569 0.57572 0.86286 0.0
H746 H 0.61919 0.59428 0.99114 0.0
H747 H 0.62506 0.57437 0.88755 0.0
S748 S 0.51941 0.59465 0.89804 0.0
N749 N 0.53495 0.60419 0.96059 0.0
N750 N 0.54064 0.58193 0.84919 0.0
C751 C 0.56189 0.58518 0.8828 0.0
C752 C 0.55877 0.59749 0.94285 0.0
C753 C 0.92846 0.54788 0.35741 0.0
C754 C 0.93805 0.57214 0.33838 0.0
C755 C 0.91577 0.5449 0.4155 0.0
C756 C 0.91209 0.56602 0.45663 0.0
H757 H 0.93207 0.53065 0.32919 0.0
H758 H 0.91099 0.52546 0.431 0.0
S759 S 0.92942 0.63431 0.42572 0.0
N760 N 0.93969 0.61841 0.36247 0.0
N761 N 0.91608 0.61239 0.47186 0.0
C762 C 0.91929 0.59074 0.4358 0.0
C763 C 0.93228 0.5939 0.37671 0.0
C764 C 0.46139 0.09325 0.05499 0.0
C765 C 0.44233 0.09529 0.01008 0.0
C766 C 0.45673 0.08265 0.1152 0.0
C767 C 0.43282 0.07351 0.13259 0.0
H768 H 0.48047 0.09793 0.04177 0.0
H769 H 0.47239 0.08036 0.14696 0.0
S770 S 0.37587 0.07801 0.0335 0.0
N771 N 0.39831 0.09002 0.9881 0.0
N772 N 0.38919 0.07021 0.10134 0.0
C773 C 0.41315 0.07744 0.08942 0.0
C774 C 0.418 0.08832 0.02815 0.0
C775 C 0.43116 0.45826 0.60968 0.0
C776 C 0.43789 0.4331 0.63127 0.0
C777 C 0.41873 0.46199 0.55219 0.0
C778 C 0.41254 0.44074 0.51432 0.0
H779 H 0.43684 0.47532 0.63528 0.0
H780 H 0.41618 0.48166 0.53434 0.0
S781 S 0.42195 0.37103 0.55318 0.0
N782 N 0.43413 0.38649 0.61345 0.0
N783 N 0.41113 0.3939 0.505 0.0
C784 C 0.41693 0.41558 0.53785 0.0
C785 C 0.42961 0.41165 0.59632 0.0
C786 C 0.13872 0.39668 0.0846 0.0
C787 C 0.11937 0.38025 0.06499 0.0
C788 C 0.13705 0.4106 0.14161 0.0
C789 C 0.11604 0.40852 0.18195 0.0
H790 H 0.15442 0.40054 0.0531 0.0
H791 H 0.15155 0.42436 0.15185 0.0
S792 S 0.06374 0.36276 0.16388 0.0
N793 N 0.08097 0.3589 0.09919 0.0
N794 N 0.07817 0.38475 0.20571 0.0
C795 C 0.09818 0.38981 0.16732 0.0
C796 C 0.09981 0.37563 0.10922 0.0
C797 C 0.10317 0.058 0.54464 0.0
C798 C 0.10672 0.07814 0.50052 0.0
C799 C 0.09132 0.06276 0.60326 0.0
C800 C 0.08236 0.08788 0.62002 0.0
H801 H 0.10756 0.03805 0.53154 0.0
H802 H 0.08794 0.04624 0.63405 0.0
S803 S 0.09053 0.14784 0.52349 0.0
N804 N 0.10309 0.12442 0.47949 0.0
N805 N 0.0808 0.13364 0.58949 0.0
C806 C 0.08776 0.10853 0.57811 0.0
C807 C 0.09999 0.10359 0.51853 0.0
C808 C 0.07222 0.93139 0.17763 0.0
C809 C 0.05904 0.92028 0.22913 0.0
C810 C 0.08973 0.95114 0.18674 0.0
C811 C 0.09482 0.9603 0.24775 0.0
H812 H 0.06644 0.92742 0.12966 0.0
H813 H 0.09673 0.96153 0.14557 0.0
S814 S 0.06899 0.93434 0.3986 0.0
N815 N 0.05516 0.91731 0.34336 0.0
N816 N 0.08833 0.9539 0.36063 0.0
C817 C 0.08443 0.94681 0.29969 0.0
C818 C 0.0665 0.92686 0.29038 0.0
C819 C 0.5883 0.06293 0.78885 0.0
C820 C 0.59592 0.05467 0.72813 0.0
C821 C 0.56774 0.08018 0.79692 0.0
C822 C 0.55417 0.08967 0.74455 0.0
H823 H 0.59573 0.05314 0.83034 0.0
H824 H 0.56036 0.08318 0.84444 0.0
S825 S 0.57047 0.07881 0.57588 0.0
N826 N 0.59159 0.06141 0.61497 0.0
N827 N 0.5527 0.09334 0.63027 0.0
C828 C 0.56402 0.0847 0.68389 0.0
C829 C 0.58508 0.06737 0.67568 0.0
C830 C 0.43668 0.56434 0.20424 0.0
C831 C 0.43076 0.55518 0.26531 0.0
C832 C 0.45581 0.58243 0.19482 0.0
C833 C 0.46957 0.5918 0.24617 0.0
H834 H 0.42917 0.55478 0.16318 0.0
H835 H 0.46223 0.58614 0.14675 0.0
S836 S 0.45724 0.5782 0.41581 0.0
N837 N 0.43669 0.56052 0.37816 0.0
N838 N 0.47282 0.59418 0.36031 0.0
C839 C 0.46113 0.58584 0.30758 0.0
C840 C 0.44161 0.56756 0.31718 0.0
C841 C 0.91285 0.44002 0.77647 0.0
C842 C 0.91496 0.45077 0.71535 0.0
C843 C 0.92544 0.41655 0.792 0.0
C844 C 0.94103 0.4036 0.74723 0.0
H845 H 0.90366 0.45106 0.81397 0.0
H846 H 0.92507 0.41015 0.84096 0.0
S847 S 0.94751 0.42073 0.57713 0.0
N848 N 0.92942 0.4441 0.60715 0.0
N849 N 0.95368 0.40068 0.63653 0.0
C850 C 0.94061 0.41255 0.68429 0.0
C851 C 0.92746 0.43603 0.66838 0.0
C852 C 0.9572 0.08625 0.68695 0.0
C853 C 0.9649 0.09301 0.74803 0.0
C854 C 0.93929 0.06688 0.67803 0.0
C855 C 0.92849 0.05352 0.72982 0.0
H856 H 0.96742 0.09336 0.64589 0.0
H857 H 0.93641 0.05994 0.63033 0.0
S858 S 0.93892 0.06744 0.89912 0.0
N859 N 0.95741 0.0878 0.86089 0.0
N860 N 0.9241 0.05126 0.84402 0.0
C861 C 0.93359 0.06257 0.7908 0.0
C862 C 0.95172 0.08236 0.7999 0.0
C863 C 0.46254 0.92701 0.3115 0.0
C864 C 0.47045 0.92007 0.25007 0.0
C865 C 0.44215 0.94432 0.32113 0.0
C866 C 0.42921 0.95552 0.2696 0.0
H867 H 0.47411 0.92188 0.35166 0.0
H868 H 0.43887 0.95183 0.36845 0.0
S869 S 0.43911 0.93899 0.10076 0.0
N870 N 0.46088 0.92179 0.13809 0.0
N871 N 0.42289 0.95467 0.15627 0.0
C872 C 0.43462 0.94572 0.20901 0.0
C873 C 0.45527 0.92795 0.1992 0.0
C874 C 0.5882 0.44528 0.798 0.0
C875 C 0.59573 0.45409 0.73771 0.0
C876 C 0.56865 0.4275 0.80491 0.0
C877 C 0.55599 0.41812 0.75177 0.0
H878 H 0.59476 0.45498 0.83993 0.0
H879 H 0.56109 0.42406 0.85204 0.0
S880 S 0.57265 0.43063 0.58393 0.0
N881 N 0.59257 0.4481 0.62425 0.0
N882 N 0.55543 0.41528 0.63734 0.0
C883 C 0.56596 0.42367 0.6916 0.0
C884 C 0.58605 0.4415 0.68458 0.0
C885 C 0.07036 0.55405 0.17577 0.0
C886 C 0.05802 0.56988 0.22112 0.0
C887 C 0.08971 0.5366 0.19288 0.0
C888 C 0.09754 0.53432 0.25603 0.0
H889 H 0.06307 0.55296 0.1282 0.0
H890 H 0.09639 0.52261 0.15805 0.0
S891 S 0.0747 0.5749 0.39015 0.0
N892 N 0.05764 0.58498 0.3297 0.0
N893 N 0.0941 0.55221 0.36199 0.0
C894 C 0.08761 0.55238 0.3 0.0
C895 C 0.0678 0.57018 0.28253 0.0
C896 C 0.24536 0.03021 0.30013 0.0
C897 C 0.23321 0.03757 0.24371 0.0
C898 C 0.27175 0.02931 0.30343 0.0
C899 C 0.28674 0.03566 0.25039 0.0
H900 H 0.23451 0.02684 0.34296 0.0
H901 H 0.28041 0.02532 0.34867 0.0
S902 S 0.26418 0.05261 0.08981 0.0
N903 N 0.23834 0.04862 0.13231 0.0
N904 N 0.28757 0.04702 0.13872 0.0
C905 C 0.27478 0.04139 0.19303 0.0
C906 C 0.24813 0.04231 0.18964 0.0
C907 C 0.45104 0.24127 0.81306 0.0
C908 C 0.46894 0.22655 0.77871 0.0
C909 C 0.45154 0.26843 0.8131 0.0
C910 C 0.46995 0.28191 0.77877 0.0
H911 H 0.43595 0.23172 0.83828 0.0
H912 H 0.4368 0.27902 0.83831 0.0
S913 S 0.52108 0.25246 0.681 0.0
N914 N 0.50579 0.22732 0.70998 0.0
N915 N 0.50672 0.27862 0.71007 0.0
C916 C 0.4886 0.26747 0.74623 0.0
C917 C 0.48809 0.23968 0.74619 0.0
C918 C 0.28455 0.47703 0.34271 0.0
C919 C 0.29189 0.47812 0.27856 0.0
C920 C 0.25923 0.47505 0.36031 0.0
C921 C 0.2404 0.47437 0.31445 0.0
H922 H 0.29849 0.47588 0.37945 0.0
H923 H 0.25442 0.47297 0.41008 0.0
S924 S 0.24988 0.47693 0.14027 0.0
N925 N 0.27838 0.47887 0.16919 0.0
N926 N 0.23079 0.47505 0.20225 0.0
C927 C 0.24742 0.47632 0.25027 0.0
C928 C 0.27319 0.47815 0.23236 0.0
C929 C 0.02354 0.28378 0.75126 0.0
C930 C 0.03518 0.2943 0.80473 0.0
C931 C 0.02439 0.25686 0.73921 0.0
C932 C 0.03637 0.23938 0.78091 0.0
H933 H 0.01475 0.29655 0.71675 0.0
H934 H 0.01636 0.24975 0.6959 0.0
S935 S 0.06757 0.25618 0.93045 0.0
N936 N 0.05759 0.28445 0.90189 0.0
N937 N 0.05884 0.23403 0.87925 0.0
C938 C 0.04697 0.24935 0.83592 0.0
C939 C 0.04643 0.27674 0.84788 0.0
C940 C 0.75101 0.9902 0.72985 0.0
C941 C 0.73758 0.96951 0.70421 0.0
C942 C 0.77748 0.98985 0.72903 0.0
C943 C 0.7912 0.96879 0.70257 0.0
H944 H 0.74111 1.00583 0.7543 0.0
H945 H 0.78718 1.00523 0.75287 0.0
S946 S 0.76475 0.91229 0.61987 0.0
N947 N 0.73998 0.92924 0.6447 0.0
N948 N 0.78931 0.92858 0.64318 0.0
C949 C 0.77787 0.94911 0.67272 0.0
C950 C 0.75116 0.94947 0.67353 0.0
C951 C 0.57509 0.74051 0.19175 0.0
C952 C 0.55605 0.72711 0.22389 0.0
C953 C 0.57532 0.76768 0.19062 0.0
C954 C 0.55654 0.78249 0.22164 0.0
H955 H 0.59043 0.72989 0.16904 0.0
H956 H 0.59084 0.77719 0.16706 0.0
S957 S 0.5026 0.75673 0.31305 0.0
N958 N 0.5178 0.73051 0.28712 0.0
N959 N 0.51828 0.78182 0.28526 0.0
C960 C 0.53685 0.76939 0.25211 0.0
C961 C 0.5366 0.74159 0.25316 0.0
C962 C 0.77021 0.56003 0.67235 0.0
C963 C 0.78518 0.54099 0.70234 0.0
C964 C 0.74407 0.55943 0.67642 0.0
C965 C 0.73185 0.53975 0.7106 0.0
H966 H 0.7788 0.57611 0.64741 0.0
H967 H 0.73333 0.57509 0.6546 0.0
S968 S 0.76234 0.48527 0.79776 0.0
N969 N 0.78589 0.50171 0.76701 0.0
N970 N 0.73654 0.5005 0.77418 0.0
C971 C 0.74647 0.51994 0.73864 0.0
C972 C 0.77323 0.52058 0.73466 0.0
C973 C 0.96258 0.7352 0.16209 0.0
C974 C 0.98119 0.71982 0.19164 0.0
C975 C 0.96252 0.76242 0.16549 0.0
C976 C 0.98113 0.7756 0.19832 0.0
H977 H 0.94719 0.72605 0.13842 0.0
H978 H 0.9471 0.77323 0.14438 0.0
S979 S 0.03464 0.74479 0.28233 0.0
N980 N 0.01928 0.71999 0.25346 0.0
N981 N 0.01929 0.77132 0.25913 0.0
C982 C 1.00066 0.76067 0.22528 0.0
C983 C 1.00067 0.73274 0.22209 0.0
loop_
_geom_bond_atom_site_label_1
_geom_bond_atom_site_label_2
_geom_bond_distance
_geom_bond_site_symmetry_2
_ccdc_geom_bond_type
Co0 O3 1.970 1_545 S
Co0 N17 1.989 . S
Co0 O25 1.967 . S
Co0 O32 1.920 . S
Co1 O4 1.966 1_545 S
Co1 N10 2.022 . S
Co1 N18 1.993 . S
Co1 O26 1.941 . S
C2 O3 1.258 . S
C2 O4 1.263 . S
O3 Co0 1.970 1_565 S
O3 C2 1.258 . S
O4 Co1 1.966 1_565 S
O4 C2 1.263 . S
C5 O6 1.235 1_545 S
C5 O32 1.289 . S
O6 C5 1.235 1_565 S
C7 C9 1.400 . S
C7 N10 1.351 . S
C7 C12 1.501 1_545 S
C8 C9 1.387 . S
C8 N11 1.341 . S
C9 C7 1.400 . S
C9 C8 1.387 . S
N10 Co1 2.022 . S
N10 C7 1.351 . S
N10 N11 1.365 . S
N11 C8 1.341 . S
N11 N10 1.365 . S
N11 H31 0.862 . S
C12 C7 1.501 1_565 S
C12 H13 0.961 . S
C12 H14 0.961 . S
C12 H15 0.960 . S
H13 C12 0.961 . S
H14 C12 0.961 . S
H15 C12 0.960 . S
C16 N17 1.342 . S
C16 C20 1.401 . S
C16 C21 1.499 . S
N17 Co0 1.989 . S
N17 C16 1.342 . S
N17 N18 1.388 . S
N18 Co1 1.993 . S
N18 N17 1.388 . S
N18 C19 1.346 . S
C19 N18 1.346 . S
C19 C20 1.396 . S
C19 C29 1.510 . S
C20 C16 1.401 . S
C20 C19 1.396 . S
C21 C16 1.499 . S
C21 H22 0.959 . S
C21 H23 0.960 . S
C21 H24 0.961 . S
H22 C21 0.959 . S
H23 C21 0.960 . S
H24 C21 0.961 . S
O25 Co0 1.967 . S
O25 C33 1.258 . S
O26 Co1 1.941 . S
O26 C33 1.266 . S
H27 C29 0.959 . S
H28 C29 0.961 . S
C29 C19 1.510 . S
C29 H27 0.959 . S
C29 H28 0.961 . S
C29 H30 0.960 . S
H30 C29 0.960 . S
H31 N11 0.862 . S
O32 Co0 1.920 . S
O32 C5 1.289 . S
C33 O25 1.258 . S
C33 O26 1.266 . S
Co34 O37 1.970 . S
Co34 N51 1.989 . S
Co34 O59 1.967 . S
Co34 O66 1.920 . S
Co35 O38 1.966 . S
Co35 N44 2.022 . S
Co35 N52 1.993 . S
Co35 O60 1.941 . S
C36 O37 1.258 . S
C36 O38 1.263 . S
O37 Co34 1.970 . S
O37 C36 1.258 . S
O38 Co35 1.966 . S
O38 C36 1.263 . S
C39 O40 1.235 . S
C39 O66 1.289 . S
O40 C39 1.235 . S
C41 C43 1.400 . S
C41 N44 1.351 . S
C41 C46 1.501 . S
C42 C43 1.387 . S
C42 N45 1.341 . S
C43 C41 1.400 . S
C43 C42 1.387 . S
N44 Co35 2.022 . S
N44 C41 1.351 . S
N44 N45 1.365 . S
N45 C42 1.341 . S
N45 N44 1.365 . S
N45 H65 0.862 . S
C46 C41 1.501 . S
C46 H47 0.961 . S
C46 H48 0.961 . S
C46 H49 0.960 . S
H47 C46 0.961 . S
H48 C46 0.961 . S
H49 C46 0.960 . S
C50 N51 1.342 1_554 S
C50 C54 1.401 . S
C50 C55 1.499 . S
N51 Co34 1.989 . S
N51 C50 1.342 1_556 S
N51 N52 1.388 . S
N52 Co35 1.993 . S
N52 N51 1.388 . S
N52 C53 1.346 . S
C53 N52 1.346 . S
C53 C54 1.396 1_556 S
C53 C63 1.510 . S
C54 C50 1.401 . S
C54 C53 1.396 1_554 S
C55 C50 1.499 . S
C55 H56 0.959 . S
C55 H57 0.960 . S
C55 H58 0.961 . S
H56 C55 0.959 . S
H57 C55 0.960 . S
H58 C55 0.961 . S
O59 Co34 1.967 . S
O59 C67 1.258 . S
O60 Co35 1.941 . S
O60 C67 1.266 . S
H61 C63 0.959 1_554 S
H62 C63 0.961 1_554 S
C63 C53 1.510 . S
C63 H61 0.959 1_556 S
C63 H62 0.961 1_556 S
C63 H64 0.960 . S
H64 C63 0.960 . S
H65 N45 0.862 . S
O66 Co34 1.920 . S
O66 C39 1.289 . S
C67 O59 1.258 . S
C67 O60 1.266 . S
Co68 O71 1.970 . S
Co68 N85 1.989 . S
Co68 O93 1.967 . S
Co68 O100 1.920 . S
Co69 O72 1.966 . S
Co69 N78 2.022 . S
Co69 N86 1.993 . S
Co69 O94 1.941 . S
C70 O71 1.258 . S
C70 O72 1.263 . S
O71 Co68 1.970 . S
O71 C70 1.258 . S
O72 Co69 1.966 . S
O72 C70 1.263 . S
C73 O74 1.235 . S
C73 O100 1.289 . S
O74 C73 1.235 . S
C75 C77 1.400 . S
C75 N78 1.351 . S
C75 C80 1.501 . S
C76 C77 1.387 . S
C76 N79 1.341 . S
C77 C75 1.400 . S
C77 C76 1.387 . S
N78 Co69 2.022 . S
N78 C75 1.351 . S
N78 N79 1.365 . S
N79 C76 1.341 . S
N79 N78 1.365 . S
N79 H99 0.862 . S
C80 C75 1.501 . S
C80 H81 0.961 . S
C80 H82 0.961 . S
C80 H83 0.960 . S
H81 C80 0.961 . S
H82 C80 0.961 . S
H83 C80 0.960 . S
C84 N85 1.342 . S
C84 C88 1.401 . S
C84 C89 1.499 . S
N85 Co68 1.989 . S
N85 C84 1.342 . S
N85 N86 1.388 . S
N86 Co69 1.993 . S
N86 N85 1.388 . S
N86 C87 1.346 . S
C87 N86 1.346 . S
C87 C88 1.396 . S
C87 C97 1.510 . S
C88 C84 1.401 . S
C88 C87 1.396 . S
C89 C84 1.499 . S
C89 H90 0.959 . S
C89 H91 0.960 . S
C89 H92 0.961 . S
H90 C89 0.959 . S
H91 C89 0.960 . S
H92 C89 0.961 . S
O93 Co68 1.967 . S
O93 C101 1.258 . S
O94 Co69 1.941 . S
O94 C101 1.266 . S
H95 C97 0.959 . S
H96 C97 0.961 . S
C97 C87 1.510 . S
C97 H95 0.959 . S
C97 H96 0.961 . S
C97 H98 0.960 . S
H98 C97 0.960 . S
H99 N79 0.862 . S
O100 Co68 1.920 . S
O100 C73 1.289 . S
C101 O93 1.258 . S
C101 O94 1.266 . S
Co102 O105 1.970 . S
Co102 N119 1.989 . S
Co102 O127 1.967 . S
Co102 O134 1.920 1_455 S
Co103 O106 1.966 . S
Co103 N112 2.019 1_556 S
Co103 N120 1.993 . S
Co103 O128 1.941 . S
C104 O105 1.258 . S
C104 O106 1.263 . S
O105 Co102 1.970 . S
O105 C104 1.258 . S
O106 Co103 1.966 . S
O106 C104 1.263 . S
C107 O108 1.235 . S
C107 O134 1.289 . S
O108 C107 1.235 . S
C109 C111 1.400 . S
C109 N112 1.354 . S
C109 C114 1.501 . S
C110 C111 1.387 . S
C110 N113 1.341 . S
C111 C109 1.400 . S
C111 C110 1.387 . S
N112 Co103 2.019 1_554 S
N112 C109 1.354 . S
N112 N113 1.366 . S
N113 C110 1.341 . S
N113 N112 1.366 . S
N113 H133 0.862 1_554 S
C114 C109 1.501 . S
C114 H115 0.961 . S
C114 H116 0.961 . S
C114 H117 0.960 . S
H115 C114 0.961 . S
H116 C114 0.961 . S
H117 C114 0.960 . S
C118 N119 1.342 1_655 S
C118 C122 1.401 1_655 S
C118 C123 1.499 . S
N119 Co102 1.989 . S
N119 C118 1.342 1_455 S
N119 N120 1.388 . S
N120 Co103 1.993 . S
N120 N119 1.388 . S
N120 C121 1.346 . S
C121 N120 1.346 . S
C121 C122 1.396 . S
C121 C131 1.510 1_556 S
C122 C118 1.401 1_455 S
C122 C121 1.396 . S
C123 C118 1.499 . S
C123 H124 0.959 . S
C123 H125 0.960 . S
C123 H126 0.961 . S
H124 C123 0.959 . S
H125 C123 0.960 . S
H126 C123 0.961 . S
O127 Co102 1.967 . S
O127 C135 1.258 . S
O128 Co103 1.941 . S
O128 C135 1.266 . S
H129 C131 0.959 . S
H130 C131 0.961 . S
C131 C121 1.510 1_554 S
C131 H129 0.959 . S
C131 H130 0.961 . S
C131 H132 0.960 . S
H132 C131 0.960 . S
H133 N113 0.862 1_556 S
O134 Co102 1.920 1_655 S
O134 C107 1.289 . S
C135 O127 1.258 . S
C135 O128 1.266 . S
Co136 O139 1.970 1_565 S
Co136 N153 1.989 . S
Co136 O161 1.967 . S
Co136 O168 1.920 . S
Co137 O140 1.966 1_565 S
Co137 N146 2.022 . S
Co137 N154 1.993 . S
Co137 O162 1.941 . S
C138 O139 1.258 . S
C138 O140 1.263 . S
O139 Co136 1.970 1_545 S
O139 C138 1.258 . S
O140 Co137 1.966 1_545 S
O140 C138 1.263 . S
C141 O142 1.235 1_565 S
C141 O168 1.289 . S
O142 C141 1.235 1_545 S
C143 C145 1.400 . S
C143 N146 1.351 . S
C143 C148 1.501 1_565 S
C144 C145 1.387 . S
C144 N147 1.341 . S
C145 C143 1.400 . S
C145 C144 1.387 . S
N146 Co137 2.022 . S
N146 C143 1.351 . S
N146 N147 1.365 . S
N147 C144 1.341 . S
N147 N146 1.365 . S
N147 H167 0.862 . S
C148 C143 1.501 1_545 S
C148 H149 0.961 . S
C148 H150 0.961 . S
C148 H151 0.960 . S
H149 C148 0.961 . S
H150 C148 0.961 . S
H151 C148 0.960 . S
C152 N153 1.342 . S
C152 C156 1.401 . S
C152 C157 1.499 . S
N153 Co136 1.989 . S
N153 C152 1.342 . S
N153 N154 1.388 . S
N154 Co137 1.993 . S
N154 N153 1.388 . S
N154 C155 1.346 . S
C155 N154 1.346 . S
C155 C156 1.396 . S
C155 C165 1.510 . S
C156 C152 1.401 . S
C156 C155 1.396 . S
C157 C152 1.499 . S
C157 H158 0.959 . S
C157 H159 0.960 . S
C157 H160 0.961 . S
H158 C157 0.959 . S
H159 C157 0.960 . S
H160 C157 0.961 . S
O161 Co136 1.967 . S
O161 C169 1.258 . S
O162 Co137 1.941 . S
O162 C169 1.266 . S
H163 C165 0.959 . S
H164 C165 0.961 . S
C165 C155 1.510 . S
C165 H163 0.959 . S
C165 H164 0.961 . S
C165 H166 0.960 . S
H166 C165 0.960 . S
H167 N147 0.862 . S
O168 Co136 1.920 . S
O168 C141 1.289 . S
C169 O161 1.258 . S
C169 O162 1.266 . S
Co170 O173 1.970 . S
Co170 N187 1.989 . S
Co170 O195 1.967 . S
Co170 O202 1.920 . S
Co171 O174 1.966 . S
Co171 N180 2.022 . S
Co171 N188 1.993 . S
Co171 O196 1.941 . S
C172 O173 1.258 . S
C172 O174 1.263 . S
O173 Co170 1.970 . S
O173 C172 1.258 . S
O174 Co171 1.966 . S
O174 C172 1.263 . S
C175 O176 1.235 . S
C175 O202 1.289 . S
O176 C175 1.235 . S
C177 C179 1.400 . S
C177 N180 1.351 . S
C177 C182 1.501 . S
C178 C179 1.387 . S
C178 N181 1.341 . S
C179 C177 1.400 . S
C179 C178 1.387 . S
N180 Co171 2.022 . S
N180 C177 1.351 . S
N180 N181 1.365 . S
N181 C178 1.341 . S
N181 N180 1.365 . S
N181 H201 0.862 . S
C182 C177 1.501 . S
C182 H183 0.961 . S
C182 H184 0.961 . S
C182 H185 0.960 . S
H183 C182 0.961 . S
H184 C182 0.961 . S
H185 C182 0.960 . S
C186 N187 1.342 1_556 S
C186 C190 1.401 . S
C186 C191 1.499 . S
N187 Co170 1.989 . S
N187 C186 1.342 1_554 S
N187 N188 1.388 . S
N188 Co171 1.993 . S
N188 N187 1.388 . S
N188 C189 1.346 . S
C189 N188 1.346 . S
C189 C190 1.396 1_554 S
C189 C199 1.511 . S
C190 C186 1.401 . S
C190 C189 1.396 1_556 S
C191 C186 1.499 . S
C191 H192 0.959 . S
C191 H193 0.960 . S
C191 H194 0.961 . S
H192 C191 0.959 . S
H193 C191 0.960 . S
H194 C191 0.961 . S
O195 Co170 1.967 . S
O195 C203 1.258 . S
O196 Co171 1.941 . S
O196 C203 1.266 . S
H197 C199 0.958 1_556 S
H198 C199 0.952 1_556 S
C199 C189 1.511 . S
C199 H197 0.958 1_554 S
C199 H198 0.952 1_554 S
C199 H200 0.969 . S
H200 C199 0.969 . S
H201 N181 0.862 . S
O202 Co170 1.920 . S
O202 C175 1.289 . S
C203 O195 1.258 . S
C203 O196 1.266 . S
Co204 O207 1.970 . S
Co204 N221 1.989 . S
Co204 O229 1.967 . S
Co204 O236 1.920 . S
Co205 O208 1.966 . S
Co205 N214 2.022 . S
Co205 N222 1.993 . S
Co205 O230 1.941 . S
C206 O207 1.258 . S
C206 O208 1.263 . S
O207 Co204 1.970 . S
O207 C206 1.258 . S
O208 Co205 1.966 . S
O208 C206 1.263 . S
C209 O210 1.235 . S
C209 O236 1.289 . S
O210 C209 1.235 . S
C211 C213 1.400 . S
C211 N214 1.351 . S
C211 C216 1.501 . S
C212 C213 1.387 . S
C212 N215 1.341 . S
C213 C211 1.400 . S
C213 C212 1.387 . S
N214 Co205 2.022 . S
N214 C211 1.351 . S
N214 N215 1.365 . S
N215 C212 1.341 . S
N215 N214 1.365 . S
N215 H235 0.862 . S
C216 C211 1.501 . S
C216 H217 0.961 . S
C216 H218 0.961 . S
C216 H219 0.960 . S
H217 C216 0.961 . S
H218 C216 0.961 . S
H219 C216 0.960 . S
C220 N221 1.342 . S
C220 C224 1.401 . S
C220 C225 1.499 . S
N221 Co204 1.989 . S
N221 C220 1.342 . S
N221 N222 1.388 . S
N222 Co205 1.993 . S
N222 N221 1.388 . S
N222 C223 1.346 . S
C223 N222 1.346 . S
C223 C224 1.396 . S
C223 C233 1.510 . S
C224 C220 1.401 . S
C224 C223 1.396 . S
C225 C220 1.499 . S
C225 H226 0.959 . S
C225 H227 0.960 . S
C225 H228 0.961 . S
H226 C225 0.959 . S
H227 C225 0.960 . S
H228 C225 0.961 . S
O229 Co204 1.967 . S
O229 C237 1.258 . S
O230 Co205 1.941 . S
O230 C237 1.266 . S
H231 C233 0.959 . S
H232 C233 0.961 . S
C233 C223 1.510 . S
C233 H231 0.959 . S
C233 H232 0.961 . S
C233 H234 0.960 . S
H234 C233 0.960 . S
H235 N215 0.862 . S
O236 Co204 1.920 . S
O236 C209 1.289 . S
C237 O229 1.258 . S
C237 O230 1.266 . S
Co238 O241 1.970 1_655 S
Co238 N255 1.989 . S
Co238 O263 1.967 . S
Co238 O270 1.920 . S
Co239 O242 1.966 1_655 S
Co239 N248 2.022 . S
Co239 N256 1.993 . S
Co239 O264 1.941 . S
C240 O241 1.258 . S
C240 O242 1.263 . S
O241 Co238 1.970 1_455 S
O241 C240 1.258 . S
O242 Co239 1.966 1_455 S
O242 C240 1.263 . S
C243 O244 1.235 1_655 S
C243 O270 1.289 . S
O244 C243 1.235 1_455 S
C245 C247 1.400 . S
C245 N248 1.351 . S
C245 C250 1.501 1_655 S
C246 C247 1.387 . S
C246 N249 1.341 . S
C247 C245 1.400 . S
C247 C246 1.387 . S
N248 Co239 2.022 . S
N248 C245 1.351 . S
N248 N249 1.365 . S
N249 C246 1.341 . S
N249 N248 1.365 . S
N249 H269 0.862 . S
C250 C245 1.501 1_455 S
C250 H251 0.961 . S
C250 H252 0.961 . S
C250 H253 0.960 . S
H251 C250 0.961 . S
H252 C250 0.961 . S
H253 C250 0.960 . S
C254 N255 1.342 1_556 S
C254 C258 1.401 . S
C254 C259 1.499 . S
N255 Co238 1.989 . S
N255 C254 1.342 1_554 S
N255 N256 1.388 . S
N256 Co239 1.993 . S
N256 N255 1.388 . S
N256 C257 1.346 1_554 S
C257 N256 1.346 1_556 S
C257 C258 1.396 . S
C257 C267 1.510 . S
C258 C254 1.401 . S
C258 C257 1.396 . S
C259 C254 1.499 . S
C259 H260 0.959 . S
C259 H261 0.960 . S
C259 H262 0.961 . S
H260 C259 0.959 . S
H261 C259 0.960 . S
H262 C259 0.961 . S
O263 Co238 1.967 . S
O263 C271 1.258 . S
O264 Co239 1.941 . S
O264 C271 1.266 . S
H265 C267 0.959 . S
H266 C267 0.961 . S
C267 C257 1.510 . S
C267 H265 0.959 . S
C267 H266 0.961 . S
C267 H268 0.960 1_556 S
H268 C267 0.960 1_554 S
H269 N249 0.862 . S
O270 Co238 1.920 . S
O270 C243 1.289 . S
C271 O263 1.258 . S
C271 O264 1.266 . S
Co272 O275 1.970 1_565 S
Co272 N289 1.989 . S
Co272 O297 1.967 . S
Co272 O304 1.920 . S
Co273 O276 1.966 1_565 S
Co273 N282 2.022 . S
Co273 N290 1.993 . S
Co273 O298 1.941 . S
C274 O275 1.258 . S
C274 O276 1.263 . S
O275 Co272 1.970 1_545 S
O275 C274 1.258 . S
O276 Co273 1.966 1_545 S
O276 C274 1.263 . S
C277 O278 1.235 1_565 S
C277 O304 1.289 . S
O278 C277 1.235 1_545 S
C279 C281 1.400 . S
C279 N282 1.351 . S
C279 C284 1.501 1_565 S
C280 C281 1.387 . S
C280 N283 1.341 . S
C281 C279 1.400 . S
C281 C280 1.387 . S
N282 Co273 2.022 . S
N282 C279 1.351 . S
N282 N283 1.365 . S
N283 C280 1.341 . S
N283 N282 1.365 . S
N283 H303 0.862 . S
C284 C279 1.501 1_545 S
C284 H285 0.961 . S
C284 H286 0.961 . S
C284 H287 0.960 . S
H285 C284 0.961 . S
H286 C284 0.961 . S
H287 C284 0.960 . S
C288 N289 1.342 . S
C288 C292 1.401 . S
C288 C293 1.499 . S
N289 Co272 1.989 . S
N289 C288 1.342 . S
N289 N290 1.388 . S
N290 Co273 1.993 . S
N290 N289 1.388 . S
N290 C291 1.346 . S
C291 N290 1.346 . S
C291 C292 1.396 . S
C291 C301 1.510 . S
C292 C288 1.401 . S
C292 C291 1.396 . S
C293 C288 1.499 . S
C293 H294 0.959 . S
C293 H295 0.960 . S
C293 H296 0.961 . S
H294 C293 0.959 . S
H295 C293 0.960 . S
H296 C293 0.961 . S
O297 Co272 1.967 . S
O297 C305 1.258 . S
O298 Co273 1.941 . S
O298 C305 1.266 . S
H299 C301 0.959 . S
H300 C301 0.961 . S
C301 C291 1.510 . S
C301 H299 0.959 . S
C301 H300 0.961 . S
C301 H302 0.960 . S
H302 C301 0.960 . S
H303 N283 0.862 . S
O304 Co272 1.920 . S
O304 C277 1.289 . S
C305 O297 1.258 . S
C305 O298 1.266 . S
Co306 O309 1.970 . S
Co306 N323 1.989 . S
Co306 O331 1.967 . S
Co306 O338 1.920 . S
Co307 O310 1.966 . S
Co307 N316 2.022 . S
Co307 N324 1.993 . S
Co307 O332 1.941 . S
C308 O309 1.258 . S
C308 O310 1.263 . S
O309 Co306 1.970 . S
O309 C308 1.258 . S
O310 Co307 1.966 . S
O310 C308 1.263 . S
C311 O312 1.235 . S
C311 O338 1.289 . S
O312 C311 1.235 . S
C313 C315 1.400 . S
C313 N316 1.351 . S
C313 C318 1.501 . S
C314 C315 1.387 . S
C314 N317 1.341 . S
C315 C313 1.400 . S
C315 C314 1.387 . S
N316 Co307 2.022 . S
N316 C313 1.351 . S
N316 N317 1.365 . S
N317 C314 1.341 . S
N317 N316 1.365 . S
N317 H337 0.862 . S
C318 C313 1.501 . S
C318 H319 0.961 . S
C318 H320 0.961 . S
C318 H321 0.960 . S
H319 C318 0.961 . S
H320 C318 0.961 . S
H321 C318 0.960 . S
C322 N323 1.342 1_556 S
C322 C326 1.401 . S
C322 C327 1.499 . S
N323 Co306 1.989 . S
N323 C322 1.342 1_554 S
N323 N324 1.388 . S
N324 Co307 1.993 . S
N324 N323 1.388 . S
N324 C325 1.346 . S
C325 N324 1.346 . S
C325 C326 1.396 1_554 S
C325 C335 1.510 1_554 S
C326 C322 1.401 . S
C326 C325 1.396 1_556 S
C327 C322 1.499 . S
C327 H328 0.959 . S
C327 H329 0.960 . S
C327 H330 0.961 . S
H328 C327 0.959 . S
H329 C327 0.960 . S
H330 C327 0.961 . S
O331 Co306 1.967 . S
O331 C339 1.258 . S
O332 Co307 1.941 . S
O332 C339 1.266 . S
H333 C335 0.959 . S
H334 C335 0.961 . S
C335 C325 1.510 1_556 S
C335 H333 0.959 . S
C335 H334 0.961 . S
C335 H336 0.960 1_556 S
H336 C335 0.960 1_554 S
H337 N317 0.862 . S
O338 Co306 1.920 . S
O338 C311 1.289 . S
C339 O331 1.258 . S
C339 O332 1.266 . S
Co340 O343 1.970 . S
Co340 N357 1.989 . S
Co340 O365 1.967 . S
Co340 O372 1.920 . S
Co341 O344 1.966 . S
Co341 N350 2.022 . S
Co341 N358 1.993 . S
Co341 O366 1.941 . S
C342 O343 1.258 . S
C342 O344 1.263 . S
O343 Co340 1.970 . S
O343 C342 1.258 . S
O344 Co341 1.966 . S
O344 C342 1.263 . S
C345 O346 1.235 . S
C345 O372 1.289 . S
O346 C345 1.235 . S
C347 C349 1.400 . S
C347 N350 1.351 . S
C347 C352 1.501 . S
C348 C349 1.387 . S
C348 N351 1.341 . S
C349 C347 1.400 . S
C349 C348 1.387 . S
N350 Co341 2.022 . S
N350 C347 1.351 . S
N350 N351 1.365 . S
N351 C348 1.341 . S
N351 N350 1.365 . S
N351 H371 0.862 . S
C352 C347 1.501 . S
C352 H353 0.961 . S
C352 H354 0.961 . S
C352 H355 0.960 . S
H353 C352 0.961 . S
H354 C352 0.961 . S
H355 C352 0.960 . S
C356 N357 1.342 . S
C356 C360 1.401 . S
C356 C361 1.499 . S
N357 Co340 1.989 . S
N357 C356 1.342 . S
N357 N358 1.388 . S
N358 Co341 1.993 . S
N358 N357 1.388 . S
N358 C359 1.346 . S
C359 N358 1.346 . S
C359 C360 1.396 . S
C359 C369 1.510 . S
C360 C356 1.401 . S
C360 C359 1.396 . S
C361 C356 1.499 . S
C361 H362 0.959 . S
C361 H363 0.960 . S
C361 H364 0.961 . S
H362 C361 0.959 . S
H363 C361 0.960 . S
H364 C361 0.961 . S
O365 Co340 1.967 . S
O365 C373 1.258 . S
O366 Co341 1.941 . S
O366 C373 1.266 . S
H367 C369 0.959 . S
H368 C369 0.961 . S
C369 C359 1.510 . S
C369 H367 0.959 . S
C369 H368 0.961 . S
C369 H370 0.960 . S
H370 C369 0.960 . S
H371 N351 0.862 . S
O372 Co340 1.920 . S
O372 C345 1.289 . S
C373 O365 1.258 . S
C373 O366 1.266 . S
Co374 O377 1.970 1_655 S
Co374 N391 1.989 . S
Co374 O399 1.967 . S
Co374 O406 1.920 . S
Co375 O378 1.966 1_655 S
Co375 N384 2.022 . S
Co375 N392 1.993 . S
Co375 O400 1.941 . S
C376 O377 1.258 . S
C376 O378 1.263 . S
O377 Co374 1.970 1_455 S
O377 C376 1.258 . S
O378 Co375 1.966 1_455 S
O378 C376 1.263 . S
C379 O380 1.235 1_655 S
C379 O406 1.289 . S
O380 C379 1.235 1_455 S
C381 C383 1.400 . S
C381 N384 1.351 . S
C381 C386 1.501 1_655 S
C382 C383 1.387 . S
C382 N385 1.341 . S
C383 C381 1.400 . S
C383 C382 1.387 . S
N384 Co375 2.022 . S
N384 C381 1.351 . S
N384 N385 1.365 . S
N385 C382 1.341 . S
N385 N384 1.365 . S
N385 H405 0.862 . S
C386 C381 1.501 1_455 S
C386 H387 0.961 . S
C386 H388 0.961 . S
C386 H389 0.960 . S
H387 C386 0.961 . S
H388 C386 0.961 . S
H389 C386 0.960 . S
C390 N391 1.342 1_556 S
C390 C394 1.401 . S
C390 C395 1.499 . S
N391 Co374 1.989 . S
N391 C390 1.342 1_554 S
N391 N392 1.388 . S
N392 Co375 1.993 . S
N392 N391 1.388 . S
N392 C393 1.346 . S
C393 N392 1.346 . S
C393 C394 1.396 1_554 S
C393 C403 1.510 1_554 S
C394 C390 1.401 . S
C394 C393 1.396 1_556 S
C395 C390 1.499 . S
C395 H396 0.959 . S
C395 H397 0.960 . S
C395 H398 0.961 . S
H396 C395 0.959 . S
H397 C395 0.960 . S
H398 C395 0.961 . S
O399 Co374 1.967 . S
O399 C407 1.258 . S
O400 Co375 1.941 . S
O400 C407 1.266 . S
H401 C403 0.959 . S
H402 C403 0.961 . S
C403 C393 1.510 1_556 S
C403 H401 0.959 . S
C403 H402 0.961 . S
C403 H404 0.960 1_556 S
H404 C403 0.960 1_554 S
H405 N385 0.862 . S
O406 Co374 1.920 . S
O406 C379 1.289 . S
C407 O399 1.258 . S
C407 O400 1.266 . S
Co408 O411 1.970 1_545 S
Co408 N425 1.989 . S
Co408 O433 1.967 . S
Co408 O440 1.920 . S
Co409 O412 1.966 1_545 S
Co409 N418 2.022 . S
Co409 N426 1.993 . S
Co409 O434 1.941 . S
C410 O411 1.258 . S
C410 O412 1.263 . S
O411 Co408 1.970 1_565 S
O411 C410 1.258 . S
O412 Co409 1.966 1_565 S
O412 C410 1.263 . S
C413 O414 1.235 1_545 S
C413 O440 1.289 . S
O414 C413 1.235 1_565 S
C415 C417 1.400 . S
C415 N418 1.351 . S
C415 C420 1.501 1_545 S
C416 C417 1.387 . S
C416 N419 1.341 . S
C417 C415 1.400 . S
C417 C416 1.387 . S
N418 Co409 2.022 . S
N418 C415 1.351 . S
N418 N419 1.365 . S
N419 C416 1.341 . S
N419 N418 1.365 . S
N419 H439 0.862 . S
C420 C415 1.501 1_565 S
C420 H421 0.961 . S
C420 H422 0.961 . S
C420 H423 0.960 . S
H421 C420 0.961 . S
H422 C420 0.961 . S
H423 C420 0.960 . S
C424 N425 1.342 . S
C424 C428 1.401 . S
C424 C429 1.499 . S
N425 Co408 1.989 . S
N425 C424 1.342 . S
N425 N426 1.388 . S
N426 Co409 1.993 . S
N426 N425 1.388 . S
N426 C427 1.346 . S
C427 N426 1.346 . S
C427 C428 1.396 . S
C427 C437 1.510 . S
C428 C424 1.401 . S
C428 C427 1.396 . S
C429 C424 1.499 . S
C429 H430 0.959 . S
C429 H431 0.960 . S
C429 H432 0.961 . S
H430 C429 0.959 . S
H431 C429 0.960 . S
H432 C429 0.961 . S
O433 Co408 1.967 . S
O433 C441 1.258 . S
O434 Co409 1.941 . S
O434 C441 1.266 . S
H435 C437 0.959 . S
H436 C437 0.961 . S
C437 C427 1.510 . S
C437 H435 0.959 . S
C437 H436 0.961 . S
C437 H438 0.960 . S
H438 C437 0.960 . S
H439 N419 0.862 . S
O440 Co408 1.920 . S
O440 C413 1.289 . S
C441 O433 1.258 . S
C441 O434 1.266 . S
Co442 O445 1.970 . S
Co442 N459 1.989 . S
Co442 O467 1.967 . S
Co442 O474 1.920 . S
Co443 O446 1.966 . S
Co443 N452 2.022 . S
Co443 N460 1.993 . S
Co443 O468 1.941 . S
C444 O445 1.258 . S
C444 O446 1.263 . S
O445 Co442 1.970 . S
O445 C444 1.258 . S
O446 Co443 1.966 . S
O446 C444 1.263 . S
C447 O448 1.235 . S
C447 O474 1.289 . S
O448 C447 1.235 . S
C449 C451 1.400 . S
C449 N452 1.351 . S
C449 C454 1.501 . S
C450 C451 1.387 . S
C450 N453 1.341 . S
C451 C449 1.400 . S
C451 C450 1.387 . S
N452 Co443 2.022 . S
N452 C449 1.351 . S
N452 N453 1.365 . S
N453 C450 1.341 . S
N453 N452 1.365 . S
N453 H473 0.862 . S
C454 C449 1.501 . S
C454 H455 0.961 . S
C454 H456 0.961 . S
C454 H457 0.960 . S
H455 C454 0.961 . S
H456 C454 0.961 . S
H457 C454 0.960 . S
C458 N459 1.342 1_554 S
C458 C462 1.401 . S
C458 C463 1.499 . S
N459 Co442 1.989 . S
N459 C458 1.342 1_556 S
N459 N460 1.388 . S
N460 Co443 1.993 . S
N460 N459 1.388 . S
N460 C461 1.346 1_556 S
C461 N460 1.346 1_554 S
C461 C462 1.396 . S
C461 C471 1.510 . S
C462 C458 1.401 . S
C462 C461 1.396 . S
C463 C458 1.499 . S
C463 H464 0.959 . S
C463 H465 0.960 . S
C463 H466 0.961 . S
H464 C463 0.959 . S
H465 C463 0.960 . S
H466 C463 0.961 . S
O467 Co442 1.967 . S
O467 C475 1.258 . S
O468 Co443 1.941 . S
O468 C475 1.266 . S
H469 C471 0.959 . S
H470 C471 0.961 . S
C471 C461 1.510 . S
C471 H469 0.959 . S
C471 H470 0.961 . S
C471 H472 0.960 1_554 S
H472 C471 0.960 1_556 S
H473 N453 0.862 . S
O474 Co442 1.920 . S
O474 C447 1.289 . S
C475 O467 1.258 . S
C475 O468 1.266 . S
Co476 O479 1.970 . S
Co476 N493 1.989 . S
Co476 O501 1.967 . S
Co476 O508 1.920 . S
Co477 O480 1.966 . S
Co477 N486 2.022 . S
Co477 N494 1.993 . S
Co477 O502 1.941 . S
C478 O479 1.258 . S
C478 O480 1.263 . S
O479 Co476 1.970 . S
O479 C478 1.258 . S
O480 Co477 1.966 . S
O480 C478 1.263 . S
C481 O482 1.235 . S
C481 O508 1.289 . S
O482 C481 1.235 . S
C483 C485 1.400 . S
C483 N486 1.351 . S
C483 C488 1.501 . S
C484 C485 1.387 . S
C484 N487 1.341 . S
C485 C483 1.400 . S
C485 C484 1.387 . S
N486 Co477 2.022 . S
N486 C483 1.351 . S
N486 N487 1.365 . S
N487 C484 1.341 . S
N487 N486 1.365 . S
N487 H507 0.862 . S
C488 C483 1.501 . S
C488 H489 0.961 . S
C488 H490 0.961 . S
C488 H491 0.960 . S
H489 C488 0.961 . S
H490 C488 0.961 . S
H491 C488 0.960 . S
C492 N493 1.342 . S
C492 C496 1.401 . S
C492 C497 1.499 . S
N493 Co476 1.989 . S
N493 C492 1.342 . S
N493 N494 1.388 . S
N494 Co477 1.993 . S
N494 N493 1.388 . S
N494 C495 1.346 . S
C495 N494 1.346 . S
C495 C496 1.396 . S
C495 C505 1.510 . S
C496 C492 1.401 . S
C496 C495 1.396 . S
C497 C492 1.499 . S
C497 H498 0.959 . S
C497 H499 0.960 . S
C497 H500 0.961 . S
H498 C497 0.959 . S
H499 C497 0.960 . S
H500 C497 0.961 . S
O501 Co476 1.967 . S
O501 C509 1.258 . S
O502 Co477 1.941 . S
O502 C509 1.266 . S
H503 C505 0.959 . S
H504 C505 0.961 . S
C505 C495 1.510 . S
C505 H503 0.959 . S
C505 H504 0.961 . S
C505 H506 0.960 . S
H506 C505 0.960 . S
H507 N487 0.862 . S
O508 Co476 1.920 . S
O508 C481 1.289 . S
C509 O501 1.258 . S
C509 O502 1.266 . S
Co510 O513 1.970 1_455 S
Co510 N527 1.989 . S
Co510 O535 1.967 . S
Co510 O542 1.920 . S
Co511 O514 1.966 1_455 S
Co511 N520 2.022 . S
Co511 N528 1.993 . S
Co511 O536 1.941 . S
C512 O513 1.258 . S
C512 O514 1.263 . S
O513 Co510 1.970 1_655 S
O513 C512 1.258 . S
O514 Co511 1.966 1_655 S
O514 C512 1.263 . S
C515 O516 1.235 1_455 S
C515 O542 1.289 . S
O516 C515 1.235 1_655 S
C517 C519 1.400 . S
C517 N520 1.351 . S
C517 C522 1.501 1_455 S
C518 C519 1.387 . S
C518 N521 1.341 . S
C519 C517 1.400 . S
C519 C518 1.387 . S
N520 Co511 2.022 . S
N520 C517 1.351 . S
N520 N521 1.365 . S
N521 C518 1.341 . S
N521 N520 1.365 . S
N521 H541 0.862 . S
C522 C517 1.501 1_655 S
C522 H523 0.961 . S
C522 H524 0.961 . S
C522 H525 0.960 . S
H523 C522 0.961 . S
H524 C522 0.961 . S
H525 C522 0.960 . S
C526 N527 1.342 1_554 S
C526 C530 1.401 . S
C526 C531 1.499 . S
N527 Co510 1.989 . S
N527 C526 1.342 1_556 S
N527 N528 1.388 . S
N528 Co511 1.993 . S
N528 N527 1.388 . S
N528 C529 1.346 . S
C529 N528 1.346 . S
C529 C530 1.396 1_556 S
C529 C539 1.510 . S
C530 C526 1.401 . S
C530 C529 1.396 1_554 S
C531 C526 1.499 . S
C531 H532 0.959 1_554 S
C531 H533 0.960 . S
C531 H534 0.961 . S
H532 C531 0.959 1_556 S
H533 C531 0.960 . S
H534 C531 0.961 . S
O535 Co510 1.967 . S
O535 C543 1.258 . S
O536 Co511 1.941 . S
O536 C543 1.266 . S
H537 C539 0.959 . S
H538 C539 0.961 1_554 S
C539 C529 1.510 . S
C539 H537 0.959 . S
C539 H538 0.961 1_556 S
C539 H540 0.960 . S
H540 C539 0.960 . S
H541 N521 0.862 . S
O542 Co510 1.920 . S
O542 C515 1.289 . S
C543 O535 1.258 . S
C543 O536 1.266 . S
C544 C545 1.369 . S
C544 C546 1.421 . S
C544 H548 0.930 . S
C545 C544 1.369 . S
C545 C554 1.429 1_665 S
C546 C544 1.421 . S
C546 C547 1.360 1_665 S
C546 H549 0.930 . S
C547 C546 1.360 1_445 S
C547 C553 1.428 . S
H548 C544 0.930 . S
H549 C546 0.930 . S
S550 N551 1.613 . S
S550 N552 1.610 . S
N551 S550 1.613 . S
N551 C554 1.350 . S
N552 S550 1.610 . S
N552 C553 1.351 . S
C553 C547 1.428 . S
C553 N552 1.351 . S
C553 C554 1.434 . S
C554 C545 1.429 1_445 S
C554 N551 1.350 . S
C554 C553 1.434 . S
C555 C556 1.349 1_545 S
C555 C557 1.419 1_556 S
C555 H559 0.930 . S
C556 C555 1.349 1_565 S
C556 C565 1.456 . S
C557 C555 1.419 1_554 S
C557 C558 1.363 1_545 S
C557 H560 0.929 . S
C558 C557 1.363 1_565 S
C558 C564 1.428 . S
H559 C555 0.930 . S
H560 C557 0.929 . S
S561 N562 1.613 1_554 S
S561 N563 1.610 . S
N562 S561 1.613 1_556 S
N562 C565 1.350 . S
N563 S561 1.610 . S
N563 C564 1.351 . S
C564 C558 1.428 . S
C564 N563 1.351 . S
C564 C565 1.434 1_554 S
C565 C556 1.456 . S
C565 N562 1.350 . S
C565 C564 1.434 1_556 S
C566 C567 1.369 . S
C566 C568 1.419 . S
C566 H570 0.930 . S
C567 C566 1.369 . S
C567 C576 1.429 . S
C568 C566 1.419 . S
C568 C569 1.363 . S
C568 H571 0.929 . S
C569 C568 1.363 . S
C569 C575 1.428 . S
H570 C566 0.930 . S
H571 C568 0.929 . S
S572 N573 1.613 . S
S572 N574 1.610 . S
N573 S572 1.613 . S
N573 C576 1.350 . S
N574 S572 1.610 . S
N574 C575 1.351 . S
C575 C569 1.428 . S
C575 N574 1.351 . S
C575 C576 1.434 . S
C576 C567 1.429 . S
C576 N573 1.350 . S
C576 C575 1.434 . S
C577 C578 1.369 1_455 S
C577 C579 1.425 . S
C577 H581 0.930 . S
C578 C577 1.369 1_655 S
C578 C587 1.429 . S
C579 C577 1.425 . S
C579 C580 1.360 1_554 S
C579 H582 0.926 1_554 S
C580 C579 1.360 1_556 S
C580 C586 1.428 1_456 S
H581 C577 0.930 . S
H582 C579 0.926 1_556 S
S583 N584 1.613 . S
S583 N585 1.609 . S
N584 S583 1.613 . S
N584 C587 1.350 . S
N585 S583 1.609 . S
N585 C586 1.351 . S
C586 C580 1.428 1_654 S
C586 N585 1.351 . S
C586 C587 1.434 . S
C587 C578 1.429 . S
C587 N584 1.350 . S
C587 C586 1.434 . S
C588 C589 1.369 1_545 S
C588 C590 1.419 . S
C588 H592 0.930 . S
C589 C588 1.369 1_565 S
C589 C598 1.429 . S
C590 C588 1.419 . S
C590 C591 1.363 . S
C590 H593 0.929 . S
C591 C590 1.363 . S
C591 C597 1.428 1_545 S
H592 C588 0.930 . S
H593 C590 0.929 . S
S594 N595 1.613 . S
S594 N596 1.610 . S
N595 S594 1.613 . S
N595 C598 1.350 . S
N596 S594 1.610 . S
N596 C597 1.351 . S
C597 C591 1.428 1_565 S
C597 N596 1.351 . S
C597 C598 1.434 . S
C598 C589 1.429 . S
C598 N595 1.350 . S
C598 C597 1.434 . S
C599 C600 1.369 . S
C599 C601 1.419 1_554 S
C599 H603 0.930 . S
C600 C599 1.369 . S
C600 C609 1.429 . S
C601 C599 1.419 1_556 S
C601 C602 1.363 . S
C601 H604 0.929 . S
C602 C601 1.363 . S
C602 C608 1.428 1_556 S
H603 C599 0.930 . S
H604 C601 0.929 . S
S605 N606 1.613 . S
S605 N607 1.610 . S
N606 S605 1.613 . S
N606 C609 1.350 . S
N607 S605 1.610 . S
N607 C608 1.351 . S
C608 C602 1.428 1_554 S
C608 N607 1.351 . S
C608 C609 1.434 . S
C609 C600 1.429 . S
C609 N606 1.350 . S
C609 C608 1.434 . S
C610 C611 1.369 . S
C610 C612 1.419 1_655 S
C610 H614 0.930 . S
C611 C610 1.369 . S
C611 C620 1.429 1_655 S
C612 C610 1.419 1_455 S
C612 C613 1.363 . S
C612 H615 0.929 . S
C613 C612 1.363 . S
C613 C619 1.428 . S
H614 C610 0.930 . S
H615 C612 0.929 . S
S616 N617 1.620 . S
S616 N618 1.610 . S
N617 S616 1.620 . S
N617 C620 1.351 . S
N618 S616 1.610 . S
N618 C619 1.351 . S
C619 C613 1.428 . S
C619 N618 1.351 . S
C619 C620 1.434 . S
C620 C611 1.429 1_455 S
C620 N617 1.351 . S
C620 C619 1.434 . S
C621 C622 1.369 1_545 S
C621 C623 1.419 1_554 S
C621 H625 0.930 . S
C622 C621 1.369 1_565 S
C622 C631 1.429 1_655 S
C623 C621 1.419 1_556 S
C623 C624 1.363 1_655 S
C623 H626 0.929 . S
C624 C623 1.363 1_455 S
C624 C630 1.428 . S
H625 C621 0.930 . S
H626 C623 0.929 . S
S627 N628 1.613 . S
S627 N629 1.610 1_564 S
N628 S627 1.613 . S
N628 C631 1.350 . S
N629 S627 1.610 1_546 S
N629 C630 1.351 . S
C630 C624 1.428 . S
C630 N629 1.351 . S
C630 C631 1.434 1_546 S
C631 C622 1.429 1_455 S
C631 N628 1.350 . S
C631 C630 1.434 1_564 S
C632 C633 1.369 . S
C632 C634 1.419 . S
C632 H636 0.930 . S
C633 C632 1.369 . S
C633 C642 1.429 . S
C634 C632 1.419 . S
C634 C635 1.363 . S
C634 H637 0.929 . S
C635 C634 1.363 . S
C635 C641 1.428 . S
H636 C632 0.930 . S
H637 C634 0.929 . S
S638 N639 1.613 . S
S638 N640 1.610 . S
N639 S638 1.613 . S
N639 C642 1.350 . S
N640 S638 1.610 . S
N640 C641 1.351 . S
C641 C635 1.428 . S
C641 N640 1.351 . S
C641 C642 1.434 . S
C642 C633 1.429 . S
C642 N639 1.350 . S
C642 C641 1.434 . S
C643 C644 1.369 . S
C643 C645 1.419 . S
C643 H647 0.930 . S
C644 C643 1.369 . S
C644 C653 1.429 . S
C645 C643 1.419 . S
C645 C646 1.363 . S
C645 H648 0.929 . S
C646 C645 1.363 . S
C646 C652 1.428 . S
H647 C643 0.930 . S
H648 C645 0.929 . S
S649 N650 1.613 . S
S649 N651 1.610 . S
N650 S649 1.613 . S
N650 C653 1.350 . S
N651 S649 1.610 . S
N651 C652 1.351 . S
C652 C646 1.428 . S
C652 N651 1.351 . S
C652 C653 1.434 . S
C653 C644 1.429 . S
C653 N650 1.350 . S
C653 C652 1.434 . S
C654 C655 1.369 . S
C654 C656 1.419 . S
C654 H658 0.930 . S
C655 C654 1.369 . S
C655 C664 1.429 . S
C656 C654 1.419 . S
C656 C657 1.363 . S
C656 H659 0.929 . S
C657 C656 1.363 . S
C657 C663 1.428 . S
H658 C654 0.930 . S
H659 C656 0.929 . S
S660 N661 1.613 . S
S660 N662 1.610 . S
N661 S660 1.613 . S
N661 C664 1.350 . S
N662 S660 1.610 . S
N662 C663 1.351 . S
C663 C657 1.428 . S
C663 N662 1.351 . S
C663 C664 1.434 . S
C664 C655 1.429 . S
C664 N661 1.350 . S
C664 C663 1.434 . S
C665 C666 1.369 . S
C665 C667 1.419 . S
C665 H669 0.930 . S
C666 C665 1.369 . S
C666 C675 1.429 . S
C667 C665 1.419 . S
C667 C668 1.363 . S
C667 H670 0.929 . S
C668 C667 1.363 . S
C668 C674 1.428 . S
H669 C665 0.930 . S
H670 C667 0.929 . S
S671 N672 1.613 . S
S671 N673 1.610 . S
N672 S671 1.613 . S
N672 C675 1.350 . S
N673 S671 1.610 . S
N673 C674 1.351 . S
C674 C668 1.428 . S
C674 N673 1.351 . S
C674 C675 1.434 . S
C675 C666 1.429 . S
C675 N672 1.350 . S
C675 C674 1.434 . S
C676 C677 1.369 . S
C676 C678 1.419 . S
C676 H680 0.930 . S
C677 C676 1.369 . S
C677 C686 1.429 . S
C678 C676 1.419 . S
C678 C679 1.363 . S
C678 H681 0.929 . S
C679 C678 1.363 . S
C679 C685 1.428 . S
H680 C676 0.930 . S
H681 C678 0.929 . S
S682 N683 1.613 . S
S682 N684 1.610 . S
N683 S682 1.613 . S
N683 C686 1.350 . S
N684 S682 1.610 . S
N684 C685 1.351 . S
C685 C679 1.428 . S
C685 N684 1.351 . S
C685 C686 1.434 . S
C686 C677 1.429 . S
C686 N683 1.350 . S
C686 C685 1.434 . S
C687 C688 1.369 . S
C687 C689 1.419 . S
C687 H691 0.930 . S
C688 C687 1.369 . S
C688 C697 1.429 . S
C689 C687 1.419 . S
C689 C690 1.363 . S
C689 H692 0.929 . S
C690 C689 1.363 . S
C690 C696 1.428 . S
H691 C687 0.930 . S
H692 C689 0.929 . S
S693 N694 1.613 . S
S693 N695 1.610 . S
N694 S693 1.613 . S
N694 C697 1.350 . S
N695 S693 1.610 . S
N695 C696 1.351 . S
C696 C690 1.428 . S
C696 N695 1.351 . S
C696 C697 1.434 . S
C697 C688 1.429 . S
C697 N694 1.350 . S
C697 C696 1.434 . S
C698 C699 1.369 . S
C698 C700 1.419 . S
C698 H702 0.930 . S
C699 C698 1.369 . S
C699 C708 1.429 . S
C700 C698 1.419 . S
C700 C701 1.363 . S
C700 H703 0.929 . S
C701 C700 1.363 . S
C701 C707 1.428 . S
H702 C698 0.930 . S
H703 C700 0.929 . S
S704 N705 1.613 . S
S704 N706 1.610 . S
N705 S704 1.613 . S
N705 C708 1.350 . S
N706 S704 1.610 . S
N706 C707 1.351 . S
C707 C701 1.428 . S
C707 N706 1.351 . S
C707 C708 1.434 . S
C708 C699 1.429 . S
C708 N705 1.350 . S
C708 C707 1.434 . S
C709 C710 1.369 . S
C709 C711 1.419 . S
C709 H713 0.930 . S
C710 C709 1.369 . S
C710 C719 1.429 . S
C711 C709 1.419 . S
C711 C712 1.363 . S
C711 H714 0.929 . S
C712 C711 1.363 . S
C712 C718 1.428 . S
H713 C709 0.930 . S
H714 C711 0.929 . S
S715 N716 1.613 . S
S715 N717 1.610 . S
N716 S715 1.613 . S
N716 C719 1.350 . S
N717 S715 1.610 . S
N717 C718 1.351 . S
C718 C712 1.428 . S
C718 N717 1.351 . S
C718 C719 1.434 . S
C719 C710 1.429 . S
C719 N716 1.350 . S
C719 C718 1.434 . S
C720 C721 1.369 . S
C720 C722 1.419 . S
C720 H724 0.930 . S
C721 C720 1.369 . S
C721 C730 1.429 . S
C722 C720 1.419 . S
C722 C723 1.363 . S
C722 H725 0.929 . S
C723 C722 1.363 . S
C723 C729 1.428 . S
H724 C720 0.930 . S
H725 C722 0.929 . S
S726 N727 1.613 . S
S726 N728 1.610 . S
N727 S726 1.613 . S
N727 C730 1.350 . S
N728 S726 1.610 . S
N728 C729 1.351 . S
C729 C723 1.428 . S
C729 N728 1.351 . S
C729 C730 1.434 . S
C730 C721 1.429 . S
C730 N727 1.350 . S
C730 C729 1.434 . S
C731 C732 1.369 . S
C731 C733 1.419 . S
C731 H735 0.930 . S
C732 C731 1.369 . S
C732 C741 1.429 . S
C733 C731 1.419 . S
C733 C734 1.363 . S
C733 H736 0.929 . S
C734 C733 1.363 . S
C734 C740 1.428 . S
H735 C731 0.930 . S
H736 C733 0.929 . S
S737 N738 1.613 . S
S737 N739 1.610 . S
N738 S737 1.613 . S
N738 C741 1.350 . S
N739 S737 1.610 . S
N739 C740 1.351 . S
C740 C734 1.428 . S
C740 N739 1.351 . S
C740 C741 1.434 . S
C741 C732 1.429 . S
C741 N738 1.350 . S
C741 C740 1.434 . S
C742 C743 1.369 . S
C742 C744 1.419 . S
C742 H746 0.930 . S
C743 C742 1.369 . S
C743 C752 1.429 . S
C744 C742 1.419 . S
C744 C745 1.363 . S
C744 H747 0.929 . S
C745 C744 1.363 . S
C745 C751 1.428 . S
H746 C742 0.930 . S
H747 C744 0.929 . S
S748 N749 1.613 . S
S748 N750 1.610 . S
N749 S748 1.613 . S
N749 C752 1.350 . S
N750 S748 1.610 . S
N750 C751 1.351 . S
C751 C745 1.428 . S
C751 N750 1.351 . S
C751 C752 1.434 . S
C752 C743 1.429 . S
C752 N749 1.350 . S
C752 C751 1.434 . S
C753 C754 1.369 . S
C753 C755 1.419 . S
C753 H757 0.930 . S
C754 C753 1.369 . S
C754 C763 1.429 . S
C755 C753 1.419 . S
C755 C756 1.363 . S
C755 H758 0.929 . S
C756 C755 1.363 . S
C756 C762 1.428 . S
H757 C753 0.930 . S
H758 C755 0.929 . S
S759 N760 1.613 . S
S759 N761 1.610 . S
N760 S759 1.613 . S
N760 C763 1.350 . S
N761 S759 1.610 . S
N761 C762 1.351 . S
C762 C756 1.428 . S
C762 N761 1.351 . S
C762 C763 1.434 . S
C763 C754 1.429 . S
C763 N760 1.350 . S
C763 C762 1.434 . S
C764 C765 1.369 . S
C764 C766 1.419 . S
C764 H768 0.930 . S
C765 C764 1.369 . S
C765 C774 1.429 . S
C766 C764 1.419 . S
C766 C767 1.363 . S
C766 H769 0.929 . S
C767 C766 1.363 . S
C767 C773 1.428 . S
H768 C764 0.930 . S
H769 C766 0.929 . S
S770 N771 1.613 . S
S770 N772 1.610 . S
N771 S770 1.613 . S
N771 C774 1.350 . S
N772 S770 1.610 . S
N772 C773 1.351 . S
C773 C767 1.428 . S
C773 N772 1.351 . S
C773 C774 1.434 . S
C774 C765 1.429 . S
C774 N771 1.350 . S
C774 C773 1.434 . S
C775 C776 1.369 . S
C775 C777 1.419 . S
C775 H779 0.930 . S
C776 C775 1.369 . S
C776 C785 1.429 . S
C777 C775 1.419 . S
C777 C778 1.363 . S
C777 H780 0.929 . S
C778 C777 1.363 . S
C778 C784 1.428 . S
H779 C775 0.930 . S
H780 C777 0.929 . S
S781 N782 1.613 . S
S781 N783 1.610 . S
N782 S781 1.613 . S
N782 C785 1.350 . S
N783 S781 1.610 . S
N783 C784 1.351 . S
C784 C778 1.428 . S
C784 N783 1.351 . S
C784 C785 1.434 . S
C785 C776 1.429 . S
C785 N782 1.350 . S
C785 C784 1.434 . S
C786 C787 1.369 . S
C786 C788 1.419 . S
C786 H790 0.930 . S
C787 C786 1.369 . S
C787 C796 1.429 . S
C788 C786 1.419 . S
C788 C789 1.363 . S
C788 H791 0.929 . S
C789 C788 1.363 . S
C789 C795 1.428 . S
H790 C786 0.930 . S
H791 C788 0.929 . S
S792 N793 1.613 . S
S792 N794 1.610 . S
N793 S792 1.613 . S
N793 C796 1.350 . S
N794 S792 1.610 . S
N794 C795 1.351 . S
C795 C789 1.428 . S
C795 N794 1.351 . S
C795 C796 1.434 . S
C796 C787 1.429 . S
C796 N793 1.350 . S
C796 C795 1.434 . S
C797 C798 1.369 . S
C797 C799 1.419 . S
C797 H801 0.930 . S
C798 C797 1.369 . S
C798 C807 1.429 . S
C799 C797 1.419 . S
C799 C800 1.363 . S
C799 H802 0.929 . S
C800 C799 1.363 . S
C800 C806 1.428 . S
H801 C797 0.930 . S
H802 C799 0.929 . S
S803 N804 1.613 . S
S803 N805 1.610 . S
N804 S803 1.613 . S
N804 C807 1.350 . S
N805 S803 1.610 . S
N805 C806 1.351 . S
C806 C800 1.428 . S
C806 N805 1.351 . S
C806 C807 1.434 . S
C807 C798 1.429 . S
C807 N804 1.350 . S
C807 C806 1.434 . S
C808 C809 1.369 . S
C808 C810 1.419 . S
C808 H812 0.930 . S
C809 C808 1.369 . S
C809 C818 1.429 . S
C810 C808 1.419 . S
C810 C811 1.363 . S
C810 H813 0.929 . S
C811 C810 1.363 . S
C811 C817 1.428 . S
H812 C808 0.930 . S
H813 C810 0.929 . S
S814 N815 1.613 . S
S814 N816 1.610 . S
N815 S814 1.613 . S
N815 C818 1.350 . S
N816 S814 1.610 . S
N816 C817 1.351 . S
C817 C811 1.428 . S
C817 N816 1.351 . S
C817 C818 1.434 . S
C818 C809 1.429 . S
C818 N815 1.350 . S
C818 C817 1.434 . S
C819 C820 1.369 . S
C819 C821 1.419 . S
C819 H823 0.930 . S
C820 C819 1.369 . S
C820 C829 1.429 . S
C821 C819 1.419 . S
C821 C822 1.363 . S
C821 H824 0.929 . S
C822 C821 1.363 . S
C822 C828 1.428 . S
H823 C819 0.930 . S
H824 C821 0.929 . S
S825 N826 1.613 . S
S825 N827 1.610 . S
N826 S825 1.613 . S
N826 C829 1.350 . S
N827 S825 1.610 . S
N827 C828 1.351 . S
C828 C822 1.428 . S
C828 N827 1.351 . S
C828 C829 1.434 . S
C829 C820 1.429 . S
C829 N826 1.350 . S
C829 C828 1.434 . S
C830 C831 1.369 . S
C830 C832 1.419 . S
C830 H834 0.930 . S
C831 C830 1.369 . S
C831 C840 1.429 . S
C832 C830 1.419 . S
C832 C833 1.363 . S
C832 H835 0.929 . S
C833 C832 1.363 . S
C833 C839 1.428 . S
H834 C830 0.930 . S
H835 C832 0.929 . S
S836 N837 1.613 . S
S836 N838 1.610 . S
N837 S836 1.613 . S
N837 C840 1.350 . S
N838 S836 1.610 . S
N838 C839 1.351 . S
C839 C833 1.428 . S
C839 N838 1.351 . S
C839 C840 1.434 . S
C840 C831 1.429 . S
C840 N837 1.350 . S
C840 C839 1.434 . S
C841 C842 1.369 . S
C841 C843 1.419 . S
C841 H845 0.930 . S
C842 C841 1.369 . S
C842 C851 1.429 . S
C843 C841 1.419 . S
C843 C844 1.363 . S
C843 H846 0.929 . S
C844 C843 1.363 . S
C844 C850 1.428 . S
H845 C841 0.930 . S
H846 C843 0.929 . S
S847 N848 1.613 . S
S847 N849 1.610 . S
N848 S847 1.613 . S
N848 C851 1.350 . S
N849 S847 1.610 . S
N849 C850 1.351 . S
C850 C844 1.428 . S
C850 N849 1.351 . S
C850 C851 1.434 . S
C851 C842 1.429 . S
C851 N848 1.350 . S
C851 C850 1.434 . S
C852 C853 1.369 . S
C852 C854 1.419 . S
C852 H856 0.930 . S
C853 C852 1.369 . S
C853 C862 1.429 . S
C854 C852 1.419 . S
C854 C855 1.363 . S
C854 H857 0.929 . S
C855 C854 1.363 . S
C855 C861 1.428 . S
H856 C852 0.930 . S
H857 C854 0.929 . S
S858 N859 1.613 . S
S858 N860 1.610 . S
N859 S858 1.613 . S
N859 C862 1.350 . S
N860 S858 1.610 . S
N860 C861 1.351 . S
C861 C855 1.428 . S
C861 N860 1.351 . S
C861 C862 1.434 . S
C862 C853 1.429 . S
C862 N859 1.350 . S
C862 C861 1.434 . S
C863 C864 1.369 . S
C863 C865 1.419 . S
C863 H867 0.930 . S
C864 C863 1.369 . S
C864 C873 1.429 . S
C865 C863 1.419 . S
C865 C866 1.363 . S
C865 H868 0.929 . S
C866 C865 1.363 . S
C866 C872 1.428 . S
H867 C863 0.930 . S
H868 C865 0.929 . S
S869 N870 1.613 . S
S869 N871 1.610 . S
N870 S869 1.613 . S
N870 C873 1.350 . S
N871 S869 1.610 . S
N871 C872 1.351 . S
C872 C866 1.428 . S
C872 N871 1.351 . S
C872 C873 1.434 . S
C873 C864 1.429 . S
C873 N870 1.350 . S
C873 C872 1.434 . S
C874 C875 1.369 . S
C874 C876 1.419 . S
C874 H878 0.930 . S
C875 C874 1.369 . S
C875 C884 1.429 . S
C876 C874 1.419 . S
C876 C877 1.363 . S
C876 H879 0.929 . S
C877 C876 1.363 . S
C877 C883 1.428 . S
H878 C874 0.930 . S
H879 C876 0.929 . S
S880 N881 1.613 . S
S880 N882 1.610 . S
N881 S880 1.613 . S
N881 C884 1.350 . S
N882 S880 1.610 . S
N882 C883 1.351 . S
C883 C877 1.428 . S
C883 N882 1.351 . S
C883 C884 1.434 . S
C884 C875 1.429 . S
C884 N881 1.350 . S
C884 C883 1.434 . S
C885 C886 1.369 . S
C885 C887 1.419 . S
C885 H889 0.930 . S
C886 C885 1.369 . S
C886 C895 1.429 . S
C887 C885 1.419 . S
C887 C888 1.363 . S
C887 H890 0.929 . S
C888 C887 1.363 . S
C888 C894 1.428 . S
H889 C885 0.930 . S
H890 C887 0.929 . S
S891 N892 1.613 . S
S891 N893 1.610 . S
N892 S891 1.613 . S
N892 C895 1.350 . S
N893 S891 1.610 . S
N893 C894 1.351 . S
C894 C888 1.428 . S
C894 N893 1.351 . S
C894 C895 1.434 . S
C895 C886 1.429 . S
C895 N892 1.350 . S
C895 C894 1.434 . S
C896 C897 1.349 1_565 S
C896 C898 1.422 . S
C896 H900 0.948 . S
C897 C896 1.349 1_545 S
C897 C906 1.429 . S
C898 C896 1.422 . S
C898 C899 1.363 1_565 S
C898 H901 0.929 . S
C899 C898 1.363 1_545 S
C899 C905 1.428 . S
H900 C896 0.948 . S
H901 C898 0.929 . S
S902 N903 1.613 . S
S902 N904 1.610 . S
N903 S902 1.613 . S
N903 C906 1.350 . S
N904 S902 1.610 . S
N904 C905 1.351 . S
C905 C899 1.428 . S
C905 N904 1.351 . S
C905 C906 1.434 . S
C906 C897 1.429 . S
C906 N903 1.350 . S
C906 C905 1.434 . S
C907 C908 1.369 . S
C907 C909 1.419 . S
C907 H911 0.930 . S
C908 C907 1.369 . S
C908 C917 1.429 . S
C909 C907 1.419 . S
C909 C910 1.363 . S
C909 H912 0.929 . S
C910 C909 1.363 . S
C910 C916 1.428 . S
H911 C907 0.930 . S
H912 C909 0.929 . S
S913 N914 1.613 . S
S913 N915 1.610 . S
N914 S913 1.613 . S
N914 C917 1.350 . S
N915 S913 1.610 . S
N915 C916 1.351 . S
C916 C910 1.428 . S
C916 N915 1.351 . S
C916 C917 1.434 . S
C917 C908 1.429 . S
C917 N914 1.350 . S
C917 C916 1.434 . S
C918 C919 1.369 . S
C918 C920 1.419 . S
C918 H922 0.930 . S
C919 C918 1.369 . S
C919 C928 1.429 . S
C920 C918 1.419 . S
C920 C921 1.363 . S
C920 H923 0.929 . S
C921 C920 1.363 . S
C921 C927 1.428 . S
H922 C918 0.930 . S
H923 C920 0.929 . S
S924 N925 1.613 . S
S924 N926 1.610 . S
N925 S924 1.613 . S
N925 C928 1.350 . S
N926 S924 1.610 . S
N926 C927 1.351 . S
C927 C921 1.428 . S
C927 N926 1.351 . S
C927 C928 1.434 . S
C928 C919 1.429 . S
C928 N925 1.350 . S
C928 C927 1.434 . S
C929 C930 1.369 1_655 S
C929 C931 1.419 . S
C929 H933 0.930 . S
C930 C929 1.369 1_455 S
C930 C939 1.429 . S
C931 C929 1.419 . S
C931 C932 1.363 1_655 S
C931 H934 0.929 . S
C932 C931 1.363 1_455 S
C932 C938 1.428 . S
H933 C929 0.930 . S
H934 C931 0.929 . S
S935 N936 1.613 . S
S935 N937 1.610 . S
N936 S935 1.613 . S
N936 C939 1.350 . S
N937 S935 1.610 . S
N937 C938 1.351 . S
C938 C932 1.428 . S
C938 N937 1.351 . S
C938 C939 1.434 . S
C939 C930 1.429 . S
C939 N936 1.350 . S
C939 C938 1.434 . S
C940 C941 1.369 . S
C940 C942 1.419 . S
C940 H944 0.930 1_565 S
C941 C940 1.369 . S
C941 C950 1.429 . S
C942 C940 1.419 . S
C942 C943 1.363 . S
C942 H945 0.929 1_565 S
C943 C942 1.363 . S
C943 C949 1.428 . S
H944 C940 0.930 1_545 S
H945 C942 0.929 1_545 S
S946 N947 1.613 . S
S946 N948 1.610 . S
N947 S946 1.613 . S
N947 C950 1.350 . S
N948 S946 1.610 . S
N948 C949 1.351 . S
C949 C943 1.428 . S
C949 N948 1.351 . S
C949 C950 1.434 . S
C950 C941 1.429 . S
C950 N947 1.350 . S
C950 C949 1.434 . S
C951 C952 1.369 . S
C951 C953 1.419 . S
C951 H955 0.930 . S
C952 C951 1.369 . S
C952 C961 1.429 . S
C953 C951 1.419 . S
C953 C954 1.363 . S
C953 H956 0.929 . S
C954 C953 1.363 . S
C954 C960 1.428 . S
H955 C951 0.930 . S
H956 C953 0.929 . S
S957 N958 1.613 . S
S957 N959 1.610 . S
N958 S957 1.613 . S
N958 C961 1.350 . S
N959 S957 1.610 . S
N959 C960 1.351 . S
C960 C954 1.428 . S
C960 N959 1.351 . S
C960 C961 1.434 . S
C961 C952 1.429 . S
C961 N958 1.350 . S
C961 C960 1.434 . S
C962 C963 1.369 . S
C962 C964 1.419 . S
C962 H966 0.930 . S
C963 C962 1.369 . S
C963 C972 1.429 . S
C964 C962 1.419 . S
C964 C965 1.363 . S
C964 H967 0.929 . S
C965 C964 1.363 . S
C965 C971 1.428 . S
H966 C962 0.930 . S
H967 C964 0.929 . S
S968 N969 1.613 . S
S968 N970 1.610 . S
N969 S968 1.613 . S
N969 C972 1.350 . S
N970 S968 1.610 . S
N970 C971 1.351 . S
C971 C965 1.428 . S
C971 N970 1.351 . S
C971 C972 1.434 . S
C972 C963 1.429 . S
C972 N969 1.350 . S
C972 C971 1.434 . S
C973 C974 1.369 . S
C973 C975 1.419 . S
C973 H977 0.930 . S
C974 C973 1.369 . S
C974 C983 1.425 1_655 S
C975 C973 1.419 . S
C975 C976 1.363 . S
C975 H978 0.929 . S
C976 C975 1.363 . S
C976 C982 1.428 1_655 S
H977 C973 0.930 . S
H978 C975 0.929 . S
S979 N980 1.613 . S
S979 N981 1.610 . S
N980 S979 1.613 . S
N980 C983 1.353 . S
N981 S979 1.610 . S
N981 C982 1.351 . S
C982 C976 1.428 1_455 S
C982 N981 1.351 . S
C982 C983 1.435 . S
C983 C974 1.425 1_455 S
C983 N980 1.353 . S
C983 C982 1.435 . S
C545 C277 0.724 . S
C547 C5 0.714 . S
C556 C39 0.704 1_565 S
C558 C311 0.734 . S
C567 C345 0.712 . S
C569 C73 0.680 . S
C578 C379 0.576 . S
C580 C122 0.492 . S
C589 C141 0.711 . S
C591 C413 0.702 . S
C600 C175 0.749 . S
C602 C447 0.728 . S
C611 C209 0.683 . S
C613 C481 0.690 . S
C622 C243 0.708 . S
C624 C515 0.710 . S
C633 C33 1.857 . S
C635 C530 1.720 . S
C644 C67 1.702 . S
C646 C428 1.581 . S
C655 C101 1.736 . S
C657 C462 1.611 . S
C666 C496 1.576 . S
C668 C135 1.686 . S
C677 C169 1.675 . S
C679 C326 1.560 . S
C688 C203 1.674 . S
C690 C360 1.553 . S
C699 C394 1.726 . S
C701 C237 1.797 . S
C710 C271 1.755 . S
C712 C292 1.629 . S
C721 C258 1.592 . S
C723 C305 1.718 . S
C732 C156 1.582 . S
C734 C339 1.704 . S
C743 C190 1.576 . S
C745 C373 1.686 . S
C754 C407 1.472 . S
C756 C224 1.341 . S
C765 C54 1.556 . S
C767 C441 1.665 . S
C776 C475 1.672 . S
C778 C88 1.552 . S
C787 C111 1.199 . S
C789 C509 1.412 . S
C798 C20 1.653 . S
C800 C543 1.777 . S
C809 C240 1.959 . S
C811 C2 1.975 . S
C820 C138 1.894 . S
C822 C36 1.921 . S
C831 C70 1.894 . S
C833 C172 1.940 . S
C842 C206 1.545 . S
C844 C107 1.506 . S
C853 C512 2.068 . S
C855 C274 2.113 . S
C864 C308 1.933 . S
C866 C410 1.903 . S
C875 C342 1.883 . S
C877 C444 1.898 . S
C886 C376 2.152 . S
C888 C478 2.122 . S
C897 C9 1.337 . S
C899 C417 1.280 . S
C908 C43 1.055 . S
C910 C451 1.027 . S
C919 C77 1.213 . S
C921 C485 1.308 . S
C930 C104 1.508 . S
C932 C519 1.424 . S
C941 C145 1.294 . S
C943 C281 1.307 . S
C952 C179 1.063 . S
C954 C315 1.079 . S
C963 C213 1.236 . S
C965 C349 1.228 . S
C974 C383 1.532 . S
C976 C247 1.496 . S
