# Generated by pormake.
# Topology fcq, (5)-cn, num edge types: 1
# Building blocks:
#     Node 0, Type 0, BuildingBlock: BEQFEK_clean_sbu_0, # of connection points: 5
#     Node 1, Type 0, BuildingBlock: BEQFEK_clean_sbu_0, # of connection points: 5
#     Node 2, Type 0, BuildingBlock: BEQFEK_clean_sbu_0, # of connection points: 5
#     Node 3, Type 0, BuildingBlock: BEQFEK_clean_sbu_0, # of connection points: 5
#     Node 4, Type 0, BuildingBlock: BEQFEK_clean_sbu_0, # of connection points: 5
#     Node 5, Type 0, BuildingBlock: BEQFEK_clean_sbu_0, # of connection points: 5
#     Node 6, Type 0, BuildingBlock: BEQFEK_clean_sbu_0, # of connection points: 5
#     Node 7, Type 0, BuildingBlock: BEQFEK_clean_sbu_0, # of connection points: 5
#     Node 8, Type 0, BuildingBlock: BEQFEK_clean_sbu_0, # of connection points: 5
#     Node 9, Type 0, BuildingBlock: BEQFEK_clean_sbu_0, # of connection points: 5
#     Node 10, Type 0, BuildingBlock: BEQFEK_clean_sbu_0, # of connection points: 5
#     Node 11, Type 0, BuildingBlock: BEQFEK_clean_sbu_0, # of connection points: 5
#     Node 12, Type 0, BuildingBlock: BEQFEK_clean_sbu_0, # of connection points: 5
#     Node 13, Type 0, BuildingBlock: BEQFEK_clean_sbu_0, # of connection points: 5
#     Node 14, Type 0, BuildingBlock: BEQFEK_clean_sbu_0, # of connection points: 5
#     Node 15, Type 0, BuildingBlock: BEQFEK_clean_sbu_0, # of connection points: 5
#     Node 16, Type 0, BuildingBlock: BEQFEK_clean_sbu_0, # of connection points: 5
#     Node 17, Type 0, BuildingBlock: BEQFEK_clean_sbu_0, # of connection points: 5
#     Node 18, Type 0, BuildingBlock: BEQFEK_clean_sbu_0, # of connection points: 5
#     Node 19, Type 0, BuildingBlock: BEQFEK_clean_sbu_0, # of connection points: 5
#     Node 20, Type 0, BuildingBlock: BEQFEK_clean_sbu_0, # of connection points: 5
#     Node 21, Type 0, BuildingBlock: BEQFEK_clean_sbu_0, # of connection points: 5
#     Node 22, Type 0, BuildingBlock: BEQFEK_clean_sbu_0, # of connection points: 5
#     Node 23, Type 0, BuildingBlock: BEQFEK_clean_sbu_0, # of connection points: 5
#     Node 24, Type 0, BuildingBlock: BEQFEK_clean_sbu_0, # of connection points: 5
#     Node 25, Type 0, BuildingBlock: BEQFEK_clean_sbu_0, # of connection points: 5
#     Node 26, Type 0, BuildingBlock: BEQFEK_clean_sbu_0, # of connection points: 5
#     Node 27, Type 0, BuildingBlock: BEQFEK_clean_sbu_0, # of connection points: 5
#     Node 28, Type 0, BuildingBlock: BEQFEK_clean_sbu_0, # of connection points: 5
#     Node 29, Type 0, BuildingBlock: BEQFEK_clean_sbu_0, # of connection points: 5
#     Node 30, Type 0, BuildingBlock: BEQFEK_clean_sbu_0, # of connection points: 5
#     Node 31, Type 0, BuildingBlock: BEQFEK_clean_sbu_0, # of connection points: 5
#     Node 32, Type 0, BuildingBlock: BEQFEK_clean_sbu_0, # of connection points: 5
#     Node 33, Type 0, BuildingBlock: BEQFEK_clean_sbu_0, # of connection points: 5
#     Node 34, Type 0, BuildingBlock: BEQFEK_clean_sbu_0, # of connection points: 5
#     Node 35, Type 0, BuildingBlock: BEQFEK_clean_sbu_0, # of connection points: 5
#     Node 36, Type 0, BuildingBlock: BEQFEK_clean_sbu_0, # of connection points: 5
#     Node 37, Type 0, BuildingBlock: BEQFEK_clean_sbu_0, # of connection points: 5
#     Node 38, Type 0, BuildingBlock: BEQFEK_clean_sbu_0, # of connection points: 5
#     Node 39, Type 0, BuildingBlock: BEQFEK_clean_sbu_0, # of connection points: 5
#     Node 40, Type 0, BuildingBlock: BEQFEK_clean_sbu_0, # of connection points: 5
#     Node 41, Type 0, BuildingBlock: BEQFEK_clean_sbu_0, # of connection points: 5
#     Node 42, Type 0, BuildingBlock: BEQFEK_clean_sbu_0, # of connection points: 5
#     Node 43, Type 0, BuildingBlock: BEQFEK_clean_sbu_0, # of connection points: 5
#     Node 44, Type 0, BuildingBlock: BEQFEK_clean_sbu_0, # of connection points: 5
#     Node 45, Type 0, BuildingBlock: BEQFEK_clean_sbu_0, # of connection points: 5
#     Node 46, Type 0, BuildingBlock: BEQFEK_clean_sbu_0, # of connection points: 5
#     Node 47, Type 0, BuildingBlock: BEQFEK_clean_sbu_0, # of connection points: 5
#     Edge 48, Type (0, 0), BuildingBlock: XIVTED_clean_linker_0, # of connection points: 2
#     Edge 49, Type (0, 0), BuildingBlock: XIVTED_clean_linker_0, # of connection points: 2
#     Edge 50, Type (0, 0), BuildingBlock: XIVTED_clean_linker_0, # of connection points: 2
#     Edge 51, Type (0, 0), BuildingBlock: XIVTED_clean_linker_0, # of connection points: 2
#     Edge 52, Type (0, 0), BuildingBlock: XIVTED_clean_linker_0, # of connection points: 2
#     Edge 53, Type (0, 0), BuildingBlock: XIVTED_clean_linker_0, # of connection points: 2
#     Edge 54, Type (0, 0), BuildingBlock: XIVTED_clean_linker_0, # of connection points: 2
#     Edge 55, Type (0, 0), BuildingBlock: XIVTED_clean_linker_0, # of connection points: 2
#     Edge 56, Type (0, 0), BuildingBlock: XIVTED_clean_linker_0, # of connection points: 2
#     Edge 57, Type (0, 0), BuildingBlock: XIVTED_clean_linker_0, # of connection points: 2
#     Edge 58, Type (0, 0), BuildingBlock: XIVTED_clean_linker_0, # of connection points: 2
#     Edge 59, Type (0, 0), BuildingBlock: XIVTED_clean_linker_0, # of connection points: 2
#     Edge 60, Type (0, 0), BuildingBlock: XIVTED_clean_linker_0, # of connection points: 2
#     Edge 61, Type (0, 0), BuildingBlock: XIVTED_clean_linker_0, # of connection points: 2
#     Edge 62, Type (0, 0), BuildingBlock: XIVTED_clean_linker_0, # of connection points: 2
#     Edge 63, Type (0, 0), BuildingBlock: XIVTED_clean_linker_0, # of connection points: 2
#     Edge 64, Type (0, 0), BuildingBlock: XIVTED_clean_linker_0, # of connection points: 2
#     Edge 65, Type (0, 0), BuildingBlock: XIVTED_clean_linker_0, # of connection points: 2
#     Edge 66, Type (0, 0), BuildingBlock: XIVTED_clean_linker_0, # of connection points: 2
#     Edge 67, Type (0, 0), BuildingBlock: XIVTED_clean_linker_0, # of connection points: 2
#     Edge 68, Type (0, 0), BuildingBlock: XIVTED_clean_linker_0, # of connection points: 2
#     Edge 69, Type (0, 0), BuildingBlock: XIVTED_clean_linker_0, # of connection points: 2
#     Edge 70, Type (0, 0), BuildingBlock: XIVTED_clean_linker_0, # of connection points: 2
#     Edge 71, Type (0, 0), BuildingBlock: XIVTED_clean_linker_0, # of connection points: 2
#     Edge 72, Type (0, 0), BuildingBlock: XIVTED_clean_linker_0, # of connection points: 2
#     Edge 73, Type (0, 0), BuildingBlock: XIVTED_clean_linker_0, # of connection points: 2
#     Edge 74, Type (0, 0), BuildingBlock: XIVTED_clean_linker_0, # of connection points: 2
#     Edge 75, Type (0, 0), BuildingBlock: XIVTED_clean_linker_0, # of connection points: 2
#     Edge 76, Type (0, 0), BuildingBlock: XIVTED_clean_linker_0, # of connection points: 2
#     Edge 77, Type (0, 0), BuildingBlock: XIVTED_clean_linker_0, # of connection points: 2
#     Edge 78, Type (0, 0), BuildingBlock: XIVTED_clean_linker_0, # of connection points: 2
#     Edge 79, Type (0, 0), BuildingBlock: XIVTED_clean_linker_0, # of connection points: 2
#     Edge 80, Type (0, 0), BuildingBlock: XIVTED_clean_linker_0, # of connection points: 2
#     Edge 81, Type (0, 0), BuildingBlock: XIVTED_clean_linker_0, # of connection points: 2
#     Edge 82, Type (0, 0), BuildingBlock: XIVTED_clean_linker_0, # of connection points: 2
#     Edge 83, Type (0, 0), BuildingBlock: XIVTED_clean_linker_0, # of connection points: 2
#     Edge 84, Type (0, 0), BuildingBlock: XIVTED_clean_linker_0, # of connection points: 2
#     Edge 85, Type (0, 0), BuildingBlock: XIVTED_clean_linker_0, # of connection points: 2
#     Edge 86, Type (0, 0), BuildingBlock: XIVTED_clean_linker_0, # of connection points: 2
#     Edge 87, Type (0, 0), BuildingBlock: XIVTED_clean_linker_0, # of connection points: 2
#     Edge 88, Type (0, 0), BuildingBlock: XIVTED_clean_linker_0, # of connection points: 2
#     Edge 89, Type (0, 0), BuildingBlock: XIVTED_clean_linker_0, # of connection points: 2
#     Edge 90, Type (0, 0), BuildingBlock: XIVTED_clean_linker_0, # of connection points: 2
#     Edge 91, Type (0, 0), BuildingBlock: XIVTED_clean_linker_0, # of connection points: 2
#     Edge 92, Type (0, 0), BuildingBlock: XIVTED_clean_linker_0, # of connection points: 2
#     Edge 93, Type (0, 0), BuildingBlock: XIVTED_clean_linker_0, # of connection points: 2
#     Edge 94, Type (0, 0), BuildingBlock: XIVTED_clean_linker_0, # of connection points: 2
#     Edge 95, Type (0, 0), BuildingBlock: XIVTED_clean_linker_0, # of connection points: 2
#     Edge 96, Type (0, 0), BuildingBlock: XIVTED_clean_linker_0, # of connection points: 2
#     Edge 97, Type (0, 0), BuildingBlock: XIVTED_clean_linker_0, # of connection points: 2
#     Edge 98, Type (0, 0), BuildingBlock: XIVTED_clean_linker_0, # of connection points: 2
#     Edge 99, Type (0, 0), BuildingBlock: XIVTED_clean_linker_0, # of connection points: 2
#     Edge 100, Type (0, 0), BuildingBlock: XIVTED_clean_linker_0, # of connection points: 2
#     Edge 101, Type (0, 0), BuildingBlock: XIVTED_clean_linker_0, # of connection points: 2
#     Edge 102, Type (0, 0), BuildingBlock: XIVTED_clean_linker_0, # of connection points: 2
#     Edge 103, Type (0, 0), BuildingBlock: XIVTED_clean_linker_0, # of connection points: 2
#     Edge 104, Type (0, 0), BuildingBlock: XIVTED_clean_linker_0, # of connection points: 2
#     Edge 105, Type (0, 0), BuildingBlock: XIVTED_clean_linker_0, # of connection points: 2
#     Edge 106, Type (0, 0), BuildingBlock: XIVTED_clean_linker_0, # of connection points: 2
#     Edge 107, Type (0, 0), BuildingBlock: XIVTED_clean_linker_0, # of connection points: 2
#     Edge 108, Type (0, 0), BuildingBlock: XIVTED_clean_linker_0, # of connection points: 2
#     Edge 109, Type (0, 0), BuildingBlock: XIVTED_clean_linker_0, # of connection points: 2
#     Edge 110, Type (0, 0), BuildingBlock: XIVTED_clean_linker_0, # of connection points: 2
#     Edge 111, Type (0, 0), BuildingBlock: XIVTED_clean_linker_0, # of connection points: 2
#     Edge 112, Type (0, 0), BuildingBlock: XIVTED_clean_linker_0, # of connection points: 2
#     Edge 113, Type (0, 0), BuildingBlock: XIVTED_clean_linker_0, # of connection points: 2
#     Edge 114, Type (0, 0), BuildingBlock: XIVTED_clean_linker_0, # of connection points: 2
#     Edge 115, Type (0, 0), BuildingBlock: XIVTED_clean_linker_0, # of connection points: 2
#     Edge 116, Type (0, 0), BuildingBlock: XIVTED_clean_linker_0, # of connection points: 2
#     Edge 117, Type (0, 0), BuildingBlock: XIVTED_clean_linker_0, # of connection points: 2
#     Edge 118, Type (0, 0), BuildingBlock: XIVTED_clean_linker_0, # of connection points: 2
#     Edge 119, Type (0, 0), BuildingBlock: XIVTED_clean_linker_0, # of connection points: 2
#     Edge 120, Type (0, 0), BuildingBlock: XIVTED_clean_linker_0, # of connection points: 2
#     Edge 121, Type (0, 0), BuildingBlock: XIVTED_clean_linker_0, # of connection points: 2
#     Edge 122, Type (0, 0), BuildingBlock: XIVTED_clean_linker_0, # of connection points: 2
#     Edge 123, Type (0, 0), BuildingBlock: XIVTED_clean_linker_0, # of connection points: 2
#     Edge 124, Type (0, 0), BuildingBlock: XIVTED_clean_linker_0, # of connection points: 2
#     Edge 125, Type (0, 0), BuildingBlock: XIVTED_clean_linker_0, # of connection points: 2
#     Edge 126, Type (0, 0), BuildingBlock: XIVTED_clean_linker_0, # of connection points: 2
#     Edge 127, Type (0, 0), BuildingBlock: XIVTED_clean_linker_0, # of connection points: 2
#     Edge 128, Type (0, 0), BuildingBlock: XIVTED_clean_linker_0, # of connection points: 2
#     Edge 129, Type (0, 0), BuildingBlock: XIVTED_clean_linker_0, # of connection points: 2
#     Edge 130, Type (0, 0), BuildingBlock: XIVTED_clean_linker_0, # of connection points: 2
#     Edge 131, Type (0, 0), BuildingBlock: XIVTED_clean_linker_0, # of connection points: 2
#     Edge 132, Type (0, 0), BuildingBlock: XIVTED_clean_linker_0, # of connection points: 2
#     Edge 133, Type (0, 0), BuildingBlock: XIVTED_clean_linker_0, # of connection points: 2
#     Edge 134, Type (0, 0), BuildingBlock: XIVTED_clean_linker_0, # of connection points: 2
#     Edge 135, Type (0, 0), BuildingBlock: XIVTED_clean_linker_0, # of connection points: 2
#     Edge 136, Type (0, 0), BuildingBlock: XIVTED_clean_linker_0, # of connection points: 2
#     Edge 137, Type (0, 0), BuildingBlock: XIVTED_clean_linker_0, # of connection points: 2
#     Edge 138, Type (0, 0), BuildingBlock: XIVTED_clean_linker_0, # of connection points: 2
#     Edge 139, Type (0, 0), BuildingBlock: XIVTED_clean_linker_0, # of connection points: 2
#     Edge 140, Type (0, 0), BuildingBlock: XIVTED_clean_linker_0, # of connection points: 2
#     Edge 141, Type (0, 0), BuildingBlock: XIVTED_clean_linker_0, # of connection points: 2
#     Edge 142, Type (0, 0), BuildingBlock: XIVTED_clean_linker_0, # of connection points: 2
#     Edge 143, Type (0, 0), BuildingBlock: XIVTED_clean_linker_0, # of connection points: 2
#     Edge 144, Type (0, 0), BuildingBlock: XIVTED_clean_linker_0, # of connection points: 2
#     Edge 145, Type (0, 0), BuildingBlock: XIVTED_clean_linker_0, # of connection points: 2
#     Edge 146, Type (0, 0), BuildingBlock: XIVTED_clean_linker_0, # of connection points: 2
#     Edge 147, Type (0, 0), BuildingBlock: XIVTED_clean_linker_0, # of connection points: 2
#     Edge 148, Type (0, 0), BuildingBlock: XIVTED_clean_linker_0, # of connection points: 2
#     Edge 149, Type (0, 0), BuildingBlock: XIVTED_clean_linker_0, # of connection points: 2
#     Edge 150, Type (0, 0), BuildingBlock: XIVTED_clean_linker_0, # of connection points: 2
#     Edge 151, Type (0, 0), BuildingBlock: XIVTED_clean_linker_0, # of connection points: 2
#     Edge 152, Type (0, 0), BuildingBlock: XIVTED_clean_linker_0, # of connection points: 2
#     Edge 153, Type (0, 0), BuildingBlock: XIVTED_clean_linker_0, # of connection points: 2
#     Edge 154, Type (0, 0), BuildingBlock: XIVTED_clean_linker_0, # of connection points: 2
#     Edge 155, Type (0, 0), BuildingBlock: XIVTED_clean_linker_0, # of connection points: 2
#     Edge 156, Type (0, 0), BuildingBlock: XIVTED_clean_linker_0, # of connection points: 2
#     Edge 157, Type (0, 0), BuildingBlock: XIVTED_clean_linker_0, # of connection points: 2
#     Edge 158, Type (0, 0), BuildingBlock: XIVTED_clean_linker_0, # of connection points: 2
#     Edge 159, Type (0, 0), BuildingBlock: XIVTED_clean_linker_0, # of connection points: 2
#     Edge 160, Type (0, 0), BuildingBlock: XIVTED_clean_linker_0, # of connection points: 2
#     Edge 161, Type (0, 0), BuildingBlock: XIVTED_clean_linker_0, # of connection points: 2
#     Edge 162, Type (0, 0), BuildingBlock: XIVTED_clean_linker_0, # of connection points: 2
#     Edge 163, Type (0, 0), BuildingBlock: XIVTED_clean_linker_0, # of connection points: 2
#     Edge 164, Type (0, 0), BuildingBlock: XIVTED_clean_linker_0, # of connection points: 2
#     Edge 165, Type (0, 0), BuildingBlock: XIVTED_clean_linker_0, # of connection points: 2
#     Edge 166, Type (0, 0), BuildingBlock: XIVTED_clean_linker_0, # of connection points: 2
#     Edge 167, Type (0, 0), BuildingBlock: XIVTED_clean_linker_0, # of connection points: 2
# Relax obj value: 0.400
# Max RMSD: 0.237
# Mean RMSD: 0.237
data_MOF--net-fcq--node1-BEQFEK_clean_sbu_0--edge1-XIVTED_clean_linker_0
_symmetry_space_group_name_H-M    P1
_symmetry_Int_Tables_number       1
_symmetry_cell_setting            triclinic
loop_
_symmetry_equiv_pos_as_xyz
'x, y, z'
_cell_length_a     69.505653
_cell_length_b     69.497769
_cell_length_c     69.515085
_cell_angle_alpha  90.012038
_cell_angle_beta   90.021846
_cell_angle_gamma 90.011248
loop_
_atom_site_label
_atom_site_type_symbol
_atom_site_fract_x
_atom_site_fract_y
_atom_site_fract_z
_atom_type_partial_charge
Co0 Co 0.18394 0.19394 0.41872 0.0
Co1 Co 0.15751 0.17072 0.39084 0.0
C2 C 0.15491 0.16621 0.43372 0.0
O3 O 0.16776 0.17889 0.43677 0.0
O4 O 0.14999 0.16164 0.41672 0.0
C5 C 0.19411 0.2183 0.45014 0.0
O6 O 0.17629 0.2151 0.45555 0.0
C7 C 0.12036 0.15839 0.37709 0.0
C8 C 0.12749 0.14122 0.35131 0.0
C9 C 0.11238 0.14669 0.36311 0.0
N10 N 0.1393 0.15987 0.3737 0.0
N11 N 0.14348 0.14983 0.35811 0.0
C12 C 0.11076 0.16583 0.39489 0.0
H13 H 0.10867 0.15377 0.40514 0.0
H14 H 0.11968 0.17711 0.4018 0.0
H15 H 0.09643 0.17191 0.39147 0.0
C16 C 0.1658 0.22668 0.39885 0.0
N17 N 0.16872 0.20769 0.4011 0.0
N18 N 0.15727 0.19812 0.38943 0.0
C19 C 0.14648 0.21087 0.37952 0.0
C20 C 0.15156 0.2293 0.3852 0.0
C21 C 0.17509 0.24189 0.41095 0.0
H22 H 0.19082 0.23936 0.41162 0.0
H23 H 0.16923 0.24105 0.42576 0.0
H24 H 0.17237 0.25653 0.40524 0.0
O25 O 0.2017 0.17647 0.4051 0.0
O26 O 0.18324 0.15973 0.38507 0.0
H27 H 0.13603 0.19362 0.35616 0.0
H28 H 0.1273 0.21816 0.35621 0.0
C29 C 0.13111 0.20566 0.36538 0.0
H30 H 0.11806 0.20103 0.37328 0.0
H31 H 0.15737 0.14805 0.3527 0.0
O32 O 0.20007 0.21121 0.43438 0.0
C33 C 0.19966 0.16358 0.39225 0.0
Co34 Co 0.44354 0.55944 0.8254 0.0
Co35 Co 0.42172 0.58787 0.85282 0.0
C36 C 0.41626 0.58872 0.80992 0.0
O37 O 0.42837 0.57529 0.80722 0.0
O38 O 0.41231 0.59468 0.82676 0.0
C39 C 0.46679 0.54826 0.79378 0.0
O40 O 0.46377 0.56611 0.78833 0.0
C41 C 0.40588 0.62434 0.86667 0.0
C42 C 0.40726 0.62101 0.89825 0.0
C43 C 0.4027 0.634 0.88383 0.0
N44 N 0.41264 0.60669 0.87072 0.0
N45 N 0.41317 0.60468 0.88963 0.0
C46 C 0.40075 0.63085 0.84678 0.0
H47 H 0.3912 0.61997 0.84016 0.0
H48 H 0.41401 0.63203 0.83796 0.0
H49 H 0.39286 0.64467 0.8466 0.0
C50 C 0.47732 0.57762 0.84335 0.0
N51 N 0.45819 0.57503 0.84192 0.0
N52 N 0.44927 0.58736 0.85317 0.0
C53 C 0.46257 0.59855 0.86186 0.0
C54 C 0.48075 0.59268 0.85597 0.0
C55 C 0.49174 0.5674 0.83104 0.0
H56 H 0.4905 0.57276 0.81608 0.0
H57 H 0.50671 0.56979 0.83588 0.0
H58 H 0.48871 0.55173 0.83109 0.0
O59 O 0.42604 0.54276 0.84017 0.0
O60 O 0.4101 0.56258 0.85956 0.0
H61 H 0.47109 0.62271 0.87975 0.0
H62 H 0.44806 0.62506 0.86779 0.0
C63 C 0.45798 0.61491 0.87508 0.0
H64 H 0.45072 0.60922 0.88807 0.0
H65 H 0.41794 0.59229 0.89664 0.0
O66 O 0.45992 0.54249 0.80969 0.0
C67 C 0.41341 0.54575 0.85307 0.0
Co68 Co 0.80737 0.2998 0.41867 0.0
Co69 Co 0.83612 0.3212 0.39132 0.0
C70 C 0.83655 0.32762 0.43393 0.0
O71 O 0.823 0.31561 0.43665 0.0
O72 O 0.84283 0.3312 0.41712 0.0
C73 C 0.79641 0.27654 0.45036 0.0
O74 O 0.81431 0.27944 0.45569 0.0
C75 C 0.87112 0.33942 0.3769 0.0
C76 C 0.87115 0.33125 0.3462 0.0
C77 C 0.88207 0.34016 0.36029 0.0
N78 N 0.85477 0.32988 0.37307 0.0
N79 N 0.85467 0.32537 0.35458 0.0
C80 C 0.87538 0.34889 0.39575 0.0
H81 H 0.8624 0.35672 0.40064 0.0
H82 H 0.87911 0.33777 0.40658 0.0
H83 H 0.88731 0.35942 0.39462 0.0
C84 C 0.82646 0.26585 0.4024 0.0
N85 N 0.82334 0.28493 0.40282 0.0
N86 N 0.83619 0.29367 0.39201 0.0
C87 C 0.84839 0.28031 0.3849 0.0
C88 C 0.84254 0.26231 0.39125 0.0
C89 C 0.81453 0.25127 0.41281 0.0
H90 H 0.79916 0.25549 0.41246 0.0
H91 H 0.81933 0.25043 0.428 0.0
H92 H 0.81611 0.23681 0.40621 0.0
O93 O 0.79066 0.31663 0.40338 0.0
O94 O 0.8107 0.33239 0.38412 0.0
H95 H 0.86363 0.28762 0.35927 0.0
H96 H 0.87709 0.27264 0.3755 0.0
C97 C 0.86679 0.2848 0.37465 0.0
H98 H 0.87358 0.29775 0.381 0.0
H99 H 0.84369 0.31764 0.34786 0.0
O100 O 0.79053 0.28354 0.43455 0.0
C101 C 0.79378 0.32906 0.39033 0.0
Co102 Co 0.55215 0.93498 0.82384 0.0
Co103 Co 0.5722 0.90673 0.8528 0.0
C104 C 0.58021 0.90551 0.81025 0.0
O105 O 0.56833 0.91896 0.80665 0.0
O106 O 0.58306 0.89971 0.82738 0.0
C107 C 0.52961 0.94605 0.79149 0.0
O108 O 0.53248 0.92815 0.78612 0.0
C109 C 0.58647 0.87016 0.86772 0.0
C110 C 0.58321 0.87345 0.89916 0.0
C111 C 0.58835 0.86041 0.88499 0.0
N112 N 0.57993 0.88796 0.87138 0.0
N113 N 0.57821 0.88994 0.89023 0.0
C114 C 0.59236 0.86343 0.84814 0.0
H115 H 0.57962 0.86311 0.83852 0.0
H116 H 0.5994 0.84916 0.84828 0.0
H117 H 0.60292 0.87379 0.84229 0.0
C118 C 0.51737 0.91688 0.83978 0.0
N119 N 0.53654 0.91954 0.83953 0.0
N120 N 0.54473 0.90727 0.8514 0.0
C121 C 0.53092 0.89608 0.85927 0.0
C122 C 0.51321 0.90185 0.8521 0.0
C123 C 0.50325 0.92835 0.82826 0.0
H124 H 0.50746 0.94372 0.82819 0.0
H125 H 0.50312 0.92295 0.81325 0.0
H126 H 0.48851 0.92703 0.83425 0.0
O127 O 0.5688 0.95168 0.83947 0.0
O128 O 0.58357 0.93207 0.85998 0.0
H129 H 0.54009 0.88365 0.88581 0.0
H130 H 0.5216 0.87006 0.87375 0.0
C131 C 0.53474 0.87884 0.87159 0.0
H132 H 0.54592 0.86975 0.86476 0.0
H133 H 0.57321 0.90239 0.89696 0.0
O134 O 0.53651 0.95186 0.80738 0.0
C135 C 0.58068 0.94882 0.8531 0.0
Co136 Co 0.18639 0.80331 0.07686 0.0
Co137 Co 0.1552 0.82347 0.10224 0.0
C138 C 0.15637 0.82976 0.06002 0.0
O139 O 0.17074 0.81852 0.05816 0.0
O140 O 0.1489 0.83302 0.07638 0.0
C141 C 0.19833 0.7795 0.04618 0.0
O142 O 0.18019 0.7812 0.04115 0.0
C143 C 0.12039 0.84242 0.11579 0.0
C144 C 0.1166 0.83018 0.14485 0.0
C145 C 0.10777 0.84167 0.13117 0.0
N146 N 0.13563 0.83127 0.1198 0.0
N147 N 0.13352 0.82434 0.13739 0.0
C148 C 0.11873 0.85456 0.0981 0.0
H149 H 0.13303 0.86063 0.09446 0.0
H150 H 0.11371 0.84552 0.08592 0.0
H151 H 0.1085 0.86663 0.10022 0.0
C152 C 0.16819 0.76863 0.09239 0.0
N153 N 0.17051 0.78782 0.0922 0.0
N154 N 0.15613 0.79602 0.10134 0.0
C155 C 0.14347 0.78223 0.10657 0.0
C156 C 0.15079 0.76441 0.10114 0.0
C157 C 0.18242 0.75459 0.08437 0.0
H158 H 0.19724 0.7603 0.08587 0.0
H159 H 0.17936 0.75214 0.06892 0.0
H160 H 0.18139 0.74057 0.09195 0.0
O161 O 0.20177 0.82082 0.09259 0.0
O162 O 0.17985 0.83602 0.1102 0.0
H163 H 0.12326 0.78668 0.12929 0.0
H164 H 0.11334 0.77473 0.10862 0.0
C165 C 0.1234 0.78619 0.11334 0.0
H166 H 0.11824 0.80014 0.10762 0.0
H167 H 0.14322 0.81496 0.14396 0.0
O168 O 0.20414 0.78754 0.06153 0.0
C169 C 0.19725 0.83339 0.10507 0.0
Co170 Co 0.05192 0.55864 0.1671 0.0
Co171 Co 0.07373 0.58784 0.14061 0.0
C172 C 0.07894 0.58818 0.18327 0.0
O173 O 0.06696 0.57452 0.18553 0.0
O174 O 0.083 0.59457 0.16662 0.0
C175 C 0.02797 0.54772 0.1982 0.0
O176 O 0.03062 0.56572 0.20335 0.0
C177 C 0.08852 0.6246 0.12665 0.0
C178 C 0.08892 0.62038 0.09513 0.0
C179 C 0.09232 0.63386 0.10941 0.0
N180 N 0.08264 0.60662 0.12274 0.0
N181 N 0.08306 0.6041 0.10389 0.0
C182 C 0.09189 0.63196 0.14664 0.0
H183 H 0.07815 0.63181 0.15475 0.0
H184 H 0.09821 0.64656 0.14692 0.0
H185 H 0.10215 0.62225 0.15401 0.0
C186 C 0.01822 0.57661 0.14877 0.0
N187 N 0.03733 0.57424 0.15059 0.0
N188 N 0.0463 0.58725 0.14016 0.0
C189 C 0.03305 0.5988 0.13193 0.0
C190 C 0.0149 0.59229 0.137 0.0
C191 C 0.00342 0.56531 0.15957 0.0
H192 H 0.00744 0.54987 0.15977 0.0
H193 H 0.00274 0.57064 0.17459 0.0
H194 H 0.98895 0.56688 0.15302 0.0
O195 O 0.06956 0.54218 0.15233 0.0
O196 O 0.08551 0.56268 0.13368 0.0
H197 H 0.04511 0.61231 0.10713 0.0
H198 H 0.02439 0.62459 0.1167 0.0
C199 C 0.0376 0.61649 0.12055 0.0
H200 H 0.04731 0.62592 0.129 0.0
H201 H 0.07906 0.59138 0.097 0.0
O202 O 0.03537 0.5417 0.18262 0.0
C203 C 0.08232 0.54566 0.13969 0.0
Co204 Co 0.80831 0.69237 0.07656 0.0
Co205 Co 0.83647 0.67037 0.10385 0.0
C206 C 0.83643 0.66403 0.06109 0.0
O207 O 0.82347 0.67663 0.05828 0.0
O208 O 0.84233 0.66008 0.07794 0.0
C209 C 0.79695 0.71582 0.04509 0.0
O210 O 0.81468 0.71265 0.03936 0.0
C211 C 0.87367 0.65587 0.11538 0.0
C212 C 0.87003 0.64929 0.14625 0.0
C213 C 0.88309 0.64845 0.13123 0.0
N214 N 0.85574 0.66068 0.12061 0.0
N215 N 0.8536 0.65678 0.13911 0.0
C216 C 0.88195 0.65951 0.09583 0.0
H217 H 0.87534 0.67253 0.08937 0.0
H218 H 0.89778 0.66146 0.09658 0.0
H219 H 0.8788 0.64702 0.0864 0.0
C220 C 0.82806 0.72588 0.09328 0.0
N221 N 0.82465 0.70686 0.09244 0.0
N222 N 0.83676 0.69782 0.10385 0.0
C223 C 0.84841 0.71093 0.11223 0.0
C224 C 0.84333 0.72908 0.10562 0.0
C225 C 0.8172 0.74074 0.08211 0.0
H226 H 0.80163 0.73731 0.08218 0.0
H227 H 0.82238 0.74078 0.06702 0.0
H228 H 0.81934 0.75532 0.08828 0.0
O229 O 0.79156 0.67539 0.0919 0.0
O230 O 0.81117 0.65952 0.11154 0.0
H231 H 0.86029 0.69683 0.13687 0.0
H232 H 0.8723 0.71905 0.13059 0.0
C233 C 0.8652 0.706 0.12478 0.0
H234 H 0.87585 0.69771 0.1163 0.0
H235 H 0.84092 0.65909 0.1468 0.0
O236 O 0.79136 0.70895 0.06107 0.0
C237 C 0.79438 0.66301 0.10509 0.0
Co238 Co 0.94129 0.93662 0.1686 0.0
Co239 Co 0.91933 0.90857 0.14121 0.0
C240 C 0.91428 0.90722 0.18406 0.0
O241 O 0.92649 0.92054 0.18691 0.0
O242 O 0.91005 0.90172 0.16715 0.0
C243 C 0.9654 0.94776 0.19971 0.0
O244 O 0.96276 0.92985 0.20517 0.0
C245 C 0.90654 0.87086 0.12946 0.0
C246 C 0.89648 0.87524 0.09964 0.0
C247 C 0.89812 0.86149 0.11402 0.0
N248 N 0.90948 0.8893 0.12458 0.0
N249 N 0.90349 0.89188 0.10672 0.0
C250 C 0.91286 0.8623 0.14821 0.0
H251 H 0.92528 0.87038 0.15413 0.0
H252 H 0.91694 0.84697 0.14637 0.0
H253 H 0.90087 0.86319 0.1587 0.0
C254 C 0.97482 0.91803 0.15086 0.0
N255 N 0.95577 0.9211 0.15191 0.0
N256 N 0.94681 0.90891 0.14051 0.0
C257 C 0.96002 0.89748 0.132 0.0
C258 C 0.97816 0.90276 0.13856 0.0
C259 C 0.98962 0.92906 0.16197 0.0
H260 H 0.98587 0.94456 0.16215 0.0
H261 H 0.99004 0.92366 0.17697 0.0
H262 H 0.00413 0.92731 0.15553 0.0
O263 O 0.92366 0.95333 0.15404 0.0
O264 O 0.9077 0.93383 0.13433 0.0
H265 H 0.94416 0.88469 0.10884 0.0
H266 H 0.96809 0.87505 0.11189 0.0
C267 C 0.95524 0.88057 0.11954 0.0
H268 H 0.94941 0.86883 0.12859 0.0
H269 H 0.90404 0.905 0.09945 0.0
O270 O 0.95789 0.95355 0.18409 0.0
C271 C 0.91107 0.95056 0.14104 0.0
Co272 Co 0.42152 0.18585 0.19296 0.0
Co273 Co 0.39318 0.15771 0.17198 0.0
C274 C 0.4358 0.15614 0.16538 0.0
O275 O 0.43901 0.16962 0.17735 0.0
O276 O 0.41879 0.1504 0.16184 0.0
C277 C 0.45356 0.19686 0.21604 0.0
O278 O 0.45894 0.17895 0.21327 0.0
C279 C 0.37789 0.12159 0.15678 0.0
C280 C 0.34645 0.12594 0.15876 0.0
C281 C 0.36036 0.11253 0.15389 0.0
N282 N 0.37454 0.13937 0.16357 0.0
N283 N 0.35572 0.14197 0.16456 0.0
C284 C 0.39751 0.11422 0.15177 0.0
H285 H 0.40436 0.12442 0.14164 0.0
H286 H 0.40646 0.11347 0.16497 0.0
H287 H 0.39716 0.09999 0.14463 0.0
C288 C 0.40466 0.16764 0.22714 0.0
N289 N 0.40531 0.17047 0.20803 0.0
N290 N 0.39377 0.15814 0.19945 0.0
C291 C 0.38572 0.14673 0.21295 0.0
C292 C 0.39243 0.1524 0.23088 0.0
C293 C 0.4159 0.17899 0.24158 0.0
H294 H 0.41606 0.1944 0.23749 0.0
H295 H 0.43091 0.17361 0.24196 0.0
H296 H 0.40962 0.17755 0.25619 0.0
O297 O 0.40647 0.20271 0.17598 0.0
O298 O 0.38643 0.18312 0.1606 0.0
H299 H 0.3597 0.13394 0.20279 0.0
H300 H 0.37134 0.12041 0.22162 0.0
C301 C 0.37381 0.12932 0.20861 0.0
H302 H 0.38114 0.12044 0.19758 0.0
H303 H 0.34922 0.15456 0.16949 0.0
O304 O 0.43772 0.20264 0.20899 0.0
C305 C 0.39317 0.19987 0.16375 0.0
Co306 Co 0.43681 0.3275 0.05259 0.0
Co307 Co 0.40884 0.35492 0.07462 0.0
C308 C 0.40834 0.31206 0.0805 0.0
O309 O 0.42134 0.30913 0.06796 0.0
O310 O 0.40274 0.32898 0.08454 0.0
C311 C 0.44784 0.29624 0.02873 0.0
O312 O 0.43003 0.29069 0.03183 0.0
C313 C 0.37151 0.36615 0.08876 0.0
C314 C 0.37503 0.39682 0.0963 0.0
C315 C 0.36198 0.38175 0.09649 0.0
N316 N 0.3895 0.37153 0.08437 0.0
N317 N 0.39157 0.38991 0.08883 0.0
C318 C 0.36327 0.34668 0.08451 0.0
H319 H 0.37011 0.34049 0.07149 0.0
H320 H 0.34748 0.34753 0.08226 0.0
H321 H 0.3661 0.33699 0.09686 0.0
C322 C 0.41742 0.34476 0.01914 0.0
N323 N 0.42075 0.34374 0.03815 0.0
N324 N 0.40873 0.3552 0.04723 0.0
C325 C 0.39719 0.36378 0.03416 0.0
C326 C 0.40226 0.35726 0.01599 0.0
C327 C 0.42816 0.33356 0.00421 0.0
H328 H 0.44372 0.33342 0.00766 0.0
H329 H 0.42278 0.31854 0.00403 0.0
H330 H 0.42611 0.33987 0.98968 0.0
O331 O 0.45358 0.34252 0.06989 0.0
O332 O 0.43409 0.36235 0.08569 0.0
H333 H 0.38533 0.38818 0.0487 0.0
H334 H 0.37366 0.38262 0.02612 0.0
C335 C 0.38046 0.37638 0.03913 0.0
H336 H 0.36956 0.36779 0.04697 0.0
H337 H 0.40428 0.39767 0.08696 0.0
O338 O 0.45365 0.31204 0.03587 0.0
C339 C 0.45083 0.3557 0.08231 0.0
Co340 Co 0.57783 0.31014 0.19345 0.0
Co341 Co 0.60537 0.33768 0.17115 0.0
C342 C 0.56244 0.33914 0.16609 0.0
O343 O 0.55942 0.32614 0.1786 0.0
O344 O 0.57942 0.34438 0.16183 0.0
C345 C 0.54683 0.29868 0.21763 0.0
O346 O 0.5411 0.3165 0.21501 0.0
C347 C 0.61681 0.37528 0.15833 0.0
C348 C 0.64623 0.37098 0.14712 0.0
C349 C 0.63186 0.38465 0.14928 0.0
N350 N 0.62187 0.35688 0.16113 0.0
N351 N 0.6395 0.35434 0.15449 0.0
C352 C 0.59825 0.38379 0.16524 0.0
H353 H 0.59289 0.3758 0.17798 0.0
H354 H 0.60012 0.39919 0.16903 0.0
H355 H 0.5873 0.38265 0.15368 0.0
C356 C 0.59679 0.32821 0.22678 0.0
N357 N 0.59485 0.32554 0.20773 0.0
N358 N 0.60629 0.3375 0.19853 0.0
C359 C 0.61564 0.34844 0.21157 0.0
C360 C 0.60991 0.34283 0.22981 0.0
C361 C 0.58505 0.31815 0.24176 0.0
H362 H 0.58463 0.3025 0.23869 0.0
H363 H 0.57015 0.32381 0.24137 0.0
H364 H 0.59099 0.32046 0.25639 0.0
O365 O 0.59218 0.29329 0.17573 0.0
O366 O 0.61218 0.31243 0.15972 0.0
H367 H 0.63941 0.35981 0.1956 0.0
H368 H 0.63712 0.3694 0.21971 0.0
C369 C 0.62908 0.36454 0.20678 0.0
H370 H 0.62073 0.37685 0.20104 0.0
H371 H 0.6468 0.34123 0.15474 0.0
O372 O 0.56258 0.29317 0.2102 0.0
C373 C 0.60523 0.29582 0.16315 0.0
Co374 Co 0.55887 0.16939 0.04992 0.0
Co375 Co 0.58765 0.14249 0.07153 0.0
C376 C 0.58738 0.18517 0.07777 0.0
O377 O 0.57412 0.18786 0.06545 0.0
O378 O 0.59346 0.16838 0.08162 0.0
C379 C 0.54729 0.20072 0.02647 0.0
O380 O 0.56513 0.2063 0.02929 0.0
C381 C 0.6254 0.13156 0.08507 0.0
C382 C 0.62174 0.10121 0.09373 0.0
C383 C 0.635 0.11611 0.09321 0.0
N384 N 0.60727 0.12616 0.08122 0.0
N385 N 0.60513 0.10798 0.08635 0.0
C386 C 0.63352 0.15085 0.07988 0.0
H387 H 0.62579 0.15695 0.06733 0.0
H388 H 0.64908 0.14974 0.07646 0.0
H389 H 0.63168 0.16083 0.09221 0.0
C390 C 0.57825 0.1529 0.01618 0.0
N391 N 0.57513 0.15362 0.03523 0.0
N392 N 0.58767 0.14252 0.04407 0.0
C393 C 0.59943 0.13458 0.03081 0.0
C394 C 0.59394 0.14115 0.01272 0.0
C395 C 0.56657 0.16347 0.0015 0.0
H396 H 0.55114 0.16312 0.00551 0.0
H397 H 0.57139 0.17867 0.00089 0.0
H398 H 0.5683 0.15699 0.98701 0.0
O399 O 0.54246 0.15386 0.06697 0.0
O400 O 0.5625 0.1345 0.08265 0.0
H401 H 0.61254 0.11096 0.04562 0.0
H402 H 0.62338 0.11627 0.0226 0.0
C403 C 0.6167 0.12264 0.03559 0.0
H404 H 0.62757 0.13178 0.04282 0.0
H405 H 0.59231 0.10029 0.08503 0.0
O406 O 0.54168 0.18483 0.03354 0.0
C407 C 0.54558 0.14069 0.07929 0.0
Co408 Co 0.41952 0.80834 0.29937 0.0
Co409 Co 0.39165 0.83622 0.32081 0.0
C410 C 0.43446 0.83733 0.32699 0.0
O411 O 0.4377 0.82419 0.31466 0.0
O412 O 0.41743 0.84275 0.33076 0.0
C413 C 0.45095 0.79656 0.27592 0.0
O414 O 0.45701 0.81421 0.27895 0.0
C415 C 0.38006 0.8739 0.33365 0.0
C416 C 0.35003 0.86977 0.34316 0.0
C417 C 0.3646 0.88334 0.34191 0.0
N418 N 0.375 0.85555 0.33041 0.0
N419 N 0.35701 0.85312 0.33606 0.0
C420 C 0.39902 0.88231 0.32778 0.0
H421 H 0.40503 0.87434 0.31533 0.0
H422 H 0.39744 0.89773 0.32392 0.0
H423 H 0.40931 0.8811 0.33991 0.0
C424 C 0.40256 0.82722 0.26554 0.0
N425 N 0.40322 0.82402 0.28459 0.0
N426 N 0.39156 0.83607 0.29338 0.0
C427 C 0.38321 0.84751 0.28008 0.0
C428 C 0.39017 0.8424 0.26204 0.0
C429 C 0.41399 0.81629 0.25093 0.0
H430 H 0.41391 0.80074 0.25448 0.0
H431 H 0.42906 0.82153 0.25107 0.0
H432 H 0.40801 0.81827 0.23626 0.0
O433 O 0.40458 0.79166 0.31672 0.0
O434 O 0.38437 0.81102 0.33217 0.0
H435 H 0.35947 0.85986 0.29537 0.0
H436 H 0.3633 0.87009 0.27181 0.0
C437 C 0.37052 0.86427 0.28476 0.0
H438 H 0.37932 0.8759 0.2912 0.0
H439 H 0.3496 0.84009 0.33526 0.0
O440 O 0.43496 0.79124 0.28298 0.0
C441 C 0.39127 0.79434 0.32899 0.0
Co442 Co 0.05914 0.3264 0.9425 0.0
Co443 Co 0.08734 0.35342 0.92018 0.0
C444 C 0.08738 0.31047 0.91467 0.0
O445 O 0.07443 0.30775 0.9273 0.0
O446 O 0.09314 0.32731 0.91048 0.0
C447 C 0.04718 0.29545 0.96644 0.0
O448 O 0.06482 0.28935 0.96349 0.0
C449 C 0.12481 0.36421 0.90589 0.0
C450 C 0.12161 0.39493 0.89842 0.0
C451 C 0.13451 0.37974 0.89819 0.0
N452 N 0.10687 0.36976 0.9103 0.0
N453 N 0.105 0.38817 0.90587 0.0
C454 C 0.13285 0.34467 0.91016 0.0
H455 H 0.126 0.33861 0.92324 0.0
H456 H 0.14866 0.34534 0.91232 0.0
H457 H 0.12982 0.33496 0.89786 0.0
C458 C 0.0787 0.34372 0.97577 0.0
N459 N 0.07533 0.34262 0.95677 0.0
N460 N 0.08743 0.35393 0.9476 0.0
C461 C 0.09905 0.3625 0.96061 0.0
C462 C 0.09396 0.35612 0.97883 0.0
C463 C 0.06791 0.33265 0.99075 0.0
H464 H 0.05232 0.33273 0.9874 0.0
H465 H 0.07306 0.31755 0.99084 0.0
H466 H 0.07013 0.33889 0.00528 0.0
O467 O 0.0426 0.34135 0.925 0.0
O468 O 0.06216 0.36091 0.90894 0.0
H469 H 0.1111 0.38673 0.94596 0.0
H470 H 0.12282 0.38111 0.9685 0.0
C471 C 0.11589 0.37491 0.95554 0.0
H472 H 0.12667 0.36619 0.94766 0.0
H473 H 0.09237 0.39606 0.90778 0.0
O474 O 0.04192 0.3114 0.95925 0.0
C475 C 0.0454 0.35435 0.91242 0.0
Co476 Co 0.57415 0.68356 0.30218 0.0
Co477 Co 0.60197 0.6565 0.32465 0.0
C478 C 0.55899 0.65469 0.32975 0.0
O479 O 0.55591 0.66766 0.31722 0.0
O480 O 0.576 0.64955 0.33405 0.0
C481 C 0.54296 0.69464 0.278 0.0
O482 O 0.5369 0.67705 0.28137 0.0
C483 C 0.61394 0.61903 0.33751 0.0
C484 C 0.64346 0.6237 0.34834 0.0
C485 C 0.62927 0.60981 0.34626 0.0
N486 N 0.61869 0.63753 0.33479 0.0
N487 N 0.63637 0.6403 0.34123 0.0
C488 C 0.59546 0.6103 0.33067 0.0
H489 H 0.5898 0.61837 0.31811 0.0
H490 H 0.59755 0.59499 0.32662 0.0
H491 H 0.58463 0.61108 0.34237 0.0
C492 C 0.59216 0.66448 0.26902 0.0
N493 N 0.59098 0.66791 0.288 0.0
N494 N 0.60285 0.65639 0.29721 0.0
C495 C 0.61197 0.64518 0.28421 0.0
C496 C 0.60526 0.64983 0.26599 0.0
C497 C 0.58033 0.67442 0.25401 0.0
H498 H 0.57999 0.6901 0.2569 0.0
H499 H 0.56542 0.66877 0.25449 0.0
H500 H 0.58626 0.67197 0.23939 0.0
O501 O 0.5885 0.70077 0.31961 0.0
O502 O 0.60859 0.68196 0.33589 0.0
H503 H 0.63573 0.63401 0.30038 0.0
H504 H 0.63361 0.62425 0.27636 0.0
C505 C 0.62548 0.62917 0.28917 0.0
H506 H 0.61715 0.61684 0.29489 0.0
H507 H 0.6435 0.65351 0.34094 0.0
O508 O 0.55883 0.70018 0.28516 0.0
C509 C 0.60155 0.69848 0.33225 0.0
Co510 Co 0.93497 0.1698 0.9433 0.0
Co511 Co 0.90783 0.14153 0.9214 0.0
C512 C 0.90624 0.18432 0.91509 0.0
O513 O 0.91924 0.18759 0.92755 0.0
O514 O 0.9009 0.16725 0.91125 0.0
C515 C 0.94586 0.20179 0.96652 0.0
O516 O 0.92821 0.20757 0.96299 0.0
C517 C 0.87061 0.1288 0.90827 0.0
C518 C 0.87598 0.09926 0.89784 0.0
C519 C 0.86181 0.11323 0.89943 0.0
N520 N 0.88911 0.12436 0.91147 0.0
N521 N 0.89229 0.10666 0.90529 0.0
C522 C 0.86156 0.1473 0.91462 0.0
H523 H 0.86942 0.15332 0.92715 0.0
H524 H 0.84624 0.14508 0.91853 0.0
H525 H 0.86237 0.15792 0.90273 0.0
C526 C 0.91573 0.15262 0.97683 0.0
N527 N 0.91914 0.15342 0.95782 0.0
N528 N 0.90759 0.14138 0.94886 0.0
C529 C 0.8964 0.13249 0.96204 0.0
C530 C 0.90109 0.13956 0.98013 0.0
C531 C 0.92589 0.16458 0.99158 0.0
H532 H 0.94153 0.16484 0.98852 0.0
H533 H 0.92031 0.17952 0.99096 0.0
H534 H 0.92358 0.15885 0.0063 0.0
O535 O 0.9523 0.15489 0.92647 0.0
O536 O 0.93336 0.13461 0.9106 0.0
H537 H 0.8854 0.1083 0.9464 0.0
H538 H 0.87539 0.11103 0.97026 0.0
C539 C 0.88045 0.11883 0.9573 0.0
H540 H 0.86817 0.12698 0.95122 0.0
H541 H 0.9056 0.09977 0.90591 0.0
O542 O 0.95149 0.18571 0.95993 0.0
C543 C 0.94994 0.14154 0.91416 0.0
Co544 Co 0.19444 0.41986 0.18434 0.0
Co545 Co 0.17184 0.39218 0.15712 0.0
C546 C 0.16744 0.43516 0.15491 0.0
O547 O 0.17988 0.4382 0.16799 0.0
O548 O 0.16301 0.41816 0.14985 0.0
C549 C 0.21876 0.45089 0.19588 0.0
O550 O 0.2161 0.4568 0.17812 0.0
C551 C 0.15925 0.37994 0.11964 0.0
C552 C 0.14753 0.35082 0.12464 0.0
C553 C 0.15013 0.36473 0.11056 0.0
N554 N 0.16167 0.37539 0.13822 0.0
N555 N 0.15471 0.35795 0.14119 0.0
C556 C 0.16663 0.39813 0.11074 0.0
H557 H 0.17925 0.40357 0.11887 0.0
H558 H 0.17075 0.39573 0.0955 0.0
H559 H 0.1552 0.40926 0.11128 0.0
C560 C 0.22754 0.40013 0.16678 0.0
N561 N 0.2085 0.40237 0.16931 0.0
N562 N 0.19919 0.39081 0.15755 0.0
C563 C 0.21215 0.38103 0.14691 0.0
C564 C 0.23045 0.38663 0.15247 0.0
C565 C 0.24259 0.41205 0.17654 0.0
H566 H 0.23972 0.41256 0.19222 0.0
H567 H 0.24198 0.42693 0.17081 0.0
H568 H 0.25724 0.40623 0.17408 0.0
O569 O 0.17644 0.40604 0.20132 0.0
O570 O 0.16016 0.38602 0.18241 0.0
H571 H 0.19575 0.35732 0.13596 0.0
H572 H 0.22003 0.35879 0.12668 0.0
C573 C 0.20724 0.36726 0.13112 0.0
H574 H 0.20188 0.37539 0.1185 0.0
H575 H 0.15465 0.35104 0.15451 0.0
O576 O 0.21134 0.43508 0.20125 0.0
C577 C 0.16365 0.39316 0.19892 0.0
Co578 Co 0.19198 0.57358 0.31073 0.0
Co579 Co 0.17001 0.60157 0.33819 0.0
C580 C 0.1643 0.55866 0.33965 0.0
O581 O 0.17684 0.55538 0.32674 0.0
O582 O 0.16026 0.57573 0.34478 0.0
C583 C 0.21591 0.54229 0.29923 0.0
O584 O 0.21303 0.53638 0.31695 0.0
C585 C 0.15678 0.61305 0.37571 0.0
C586 C 0.14726 0.6431 0.37178 0.0
C587 C 0.14835 0.62835 0.38515 0.0
N588 N 0.16032 0.61828 0.35749 0.0
N589 N 0.15472 0.63631 0.35519 0.0
C590 C 0.16229 0.59399 0.38413 0.0
H591 H 0.17524 0.58823 0.37678 0.0
H592 H 0.16521 0.59533 0.39977 0.0
H593 H 0.15028 0.58368 0.3821 0.0
C594 C 0.22555 0.5923 0.32866 0.0
N595 N 0.20646 0.59043 0.32613 0.0
N596 N 0.19739 0.60198 0.33808 0.0
C597 C 0.21054 0.61129 0.34892 0.0
C598 C 0.22873 0.60548 0.34322 0.0
C599 C 0.24038 0.58045 0.31849 0.0
H600 H 0.23731 0.58026 0.30284 0.0
H601 H 0.23973 0.56548 0.32395 0.0
H602 H 0.25512 0.58607 0.32088 0.0
O603 O 0.17451 0.58824 0.29384 0.0
O604 O 0.15879 0.60862 0.31284 0.0
H605 H 0.19539 0.63582 0.35971 0.0
H606 H 0.21892 0.63231 0.37029 0.0
C607 C 0.20583 0.62493 0.36488 0.0
H608 H 0.19909 0.61687 0.37687 0.0
H609 H 0.15568 0.64386 0.34225 0.0
O610 O 0.20865 0.55815 0.2938 0.0
C611 C 0.16218 0.60156 0.29627 0.0
Co612 Co 0.8226 0.54882 0.93466 0.0
Co613 Co 0.85044 0.5714 0.90768 0.0
C614 C 0.80751 0.5769 0.90623 0.0
O615 O 0.80442 0.56422 0.91904 0.0
O616 O 0.82452 0.58112 0.90102 0.0
C617 C 0.7912 0.52481 0.9454 0.0
O618 O 0.78561 0.52791 0.92761 0.0
C619 C 0.86222 0.58485 0.87036 0.0
C620 C 0.89179 0.5955 0.87503 0.0
C621 C 0.87748 0.59379 0.86122 0.0
N622 N 0.86712 0.58168 0.88874 0.0
N623 N 0.88484 0.588 0.8915 0.0
C624 C 0.84362 0.57832 0.86162 0.0
H625 H 0.838 0.56557 0.86941 0.0
H626 H 0.84554 0.57469 0.8462 0.0
H627 H 0.83284 0.59004 0.86283 0.0
C628 C 0.84041 0.51571 0.91515 0.0
N629 N 0.83922 0.53467 0.91874 0.0
N630 N 0.85111 0.54397 0.9073 0.0
C631 C 0.86029 0.53106 0.89604 0.0
C632 C 0.85359 0.51281 0.90055 0.0
C633 C 0.82862 0.50062 0.925 0.0
H634 H 0.82813 0.50351 0.94067 0.0
H635 H 0.81375 0.501 0.91924 0.0
H636 H 0.83467 0.48604 0.92258 0.0
O637 O 0.83721 0.56597 0.95198 0.0
O638 O 0.85732 0.58223 0.93318 0.0
H639 H 0.88429 0.54712 0.88527 0.0
H640 H 0.88179 0.52338 0.87489 0.0
C641 C 0.87386 0.53619 0.88015 0.0
H642 H 0.86563 0.54239 0.86799 0.0
H643 H 0.89206 0.5874 0.90465 0.0
O644 O 0.80703 0.53189 0.95117 0.0
C645 C 0.85037 0.57851 0.94972 0.0
Co646 Co 0.80012 0.91803 0.30595 0.0
Co647 Co 0.82023 0.89032 0.33526 0.0
C648 C 0.82817 0.93249 0.33554 0.0
O649 O 0.81644 0.93545 0.32178 0.0
O650 O 0.83111 0.91566 0.34208 0.0
C651 C 0.77754 0.9503 0.29545 0.0
O652 O 0.78005 0.95489 0.31362 0.0
C653 C 0.83867 0.87477 0.36965 0.0
C654 C 0.82827 0.84474 0.37024 0.0
C655 C 0.83876 0.85815 0.3806 0.0
N656 N 0.82808 0.87164 0.35382 0.0
N657 N 0.82219 0.85354 0.35405 0.0
C658 C 0.8496 0.89294 0.37343 0.0
H659 H 0.83945 0.90441 0.37792 0.0
H660 H 0.86071 0.89098 0.3847 0.0
H661 H 0.8569 0.89751 0.36002 0.0
C662 C 0.76543 0.90285 0.32457 0.0
N663 N 0.78456 0.90268 0.32175 0.0
N664 N 0.79282 0.89214 0.33512 0.0
C665 C 0.77917 0.88605 0.34752 0.0
C666 C 0.76137 0.89261 0.34116 0.0
C667 C 0.7513 0.91265 0.3116 0.0
H668 H 0.75632 0.91195 0.29648 0.0
H669 H 0.74993 0.92795 0.31588 0.0
H670 H 0.73692 0.90579 0.31265 0.0
O671 O 0.81661 0.90225 0.28944 0.0
O672 O 0.83141 0.88275 0.30996 0.0
H673 H 0.78454 0.86105 0.36454 0.0
H674 H 0.77171 0.8797 0.37707 0.0
C675 C 0.78334 0.87683 0.36654 0.0
H676 H 0.79706 0.88238 0.37246 0.0
H677 H 0.81347 0.84739 0.34349 0.0
O678 O 0.78453 0.93464 0.28915 0.0
C679 C 0.8286 0.88889 0.29292 0.0
Co680 Co 0.66793 0.44146 0.43598 0.0
Co681 Co 0.63979 0.41918 0.40897 0.0
C682 C 0.68271 0.41314 0.40773 0.0
O683 O 0.68602 0.42591 0.42041 0.0
O684 O 0.66563 0.40906 0.40265 0.0
C685 C 0.69934 0.4654 0.44675 0.0
O686 O 0.70489 0.46232 0.42895 0.0
C687 C 0.62844 0.40533 0.37165 0.0
C688 C 0.59808 0.39674 0.37532 0.0
C689 C 0.61301 0.39723 0.36213 0.0
N690 N 0.62311 0.40927 0.38976 0.0
N691 N 0.6049 0.40419 0.39191 0.0
C692 C 0.64769 0.41032 0.36333 0.0
H693 H 0.65367 0.42325 0.37053 0.0
H694 H 0.64656 0.41305 0.34763 0.0
H695 H 0.65772 0.39812 0.36562 0.0
C696 C 0.65051 0.47476 0.41652 0.0
N697 N 0.65148 0.45579 0.42006 0.0
N698 N 0.63962 0.44662 0.40848 0.0
C699 C 0.63079 0.45961 0.39704 0.0
C700 C 0.63761 0.47781 0.40168 0.0
C701 C 0.66208 0.48975 0.42678 0.0
H702 H 0.66247 0.48657 0.4424 0.0
H703 H 0.67699 0.48965 0.42114 0.0
H704 H 0.6559 0.50432 0.42461 0.0
O705 O 0.65308 0.42446 0.45316 0.0
O706 O 0.6326 0.40847 0.43449 0.0
H707 H 0.60626 0.44459 0.38605 0.0
H708 H 0.61069 0.46752 0.37456 0.0
C709 C 0.61756 0.45456 0.38083 0.0
H710 H 0.62584 0.44715 0.3694 0.0
H711 H 0.59721 0.40561 0.40473 0.0
O712 O 0.68356 0.45824 0.45256 0.0
C713 C 0.63971 0.41213 0.45099 0.0
Co714 Co 0.30193 0.57288 0.68472 0.0
Co715 Co 0.3225 0.60128 0.65638 0.0
C716 C 0.32922 0.55865 0.6546 0.0
O717 O 0.31755 0.55542 0.66834 0.0
O718 O 0.33252 0.57568 0.64875 0.0
C719 C 0.27898 0.54076 0.69577 0.0
O720 O 0.282 0.53516 0.67797 0.0
C721 C 0.3403 0.6168 0.62167 0.0
C722 C 0.33122 0.64724 0.62205 0.0
C723 C 0.34049 0.63355 0.61092 0.0
N724 N 0.33068 0.62011 0.63808 0.0
N725 N 0.32566 0.63846 0.63844 0.0
C726 C 0.35044 0.59835 0.61723 0.0
H727 H 0.33975 0.58725 0.61303 0.0
H728 H 0.36115 0.60009 0.60554 0.0
H729 H 0.35816 0.59344 0.63028 0.0
C730 C 0.26747 0.58949 0.6669 0.0
N731 N 0.28663 0.58905 0.66949 0.0
N732 N 0.29498 0.60035 0.6568 0.0
C733 C 0.28125 0.60781 0.64521 0.0
C734 C 0.26344 0.60118 0.65134 0.0
C735 C 0.25325 0.57863 0.67888 0.0
H736 H 0.25775 0.57879 0.69418 0.0
H737 H 0.25258 0.56351 0.67383 0.0
H738 H 0.23866 0.58503 0.67769 0.0
O739 O 0.31884 0.58798 0.70155 0.0
O740 O 0.33405 0.60799 0.68181 0.0
H741 H 0.2876 0.63408 0.63065 0.0
H742 H 0.27283 0.61786 0.61697 0.0
C743 C 0.28516 0.61873 0.62707 0.0
H744 H 0.29813 0.61294 0.61986 0.0
H745 H 0.31777 0.64481 0.64952 0.0
O746 O 0.28596 0.55665 0.70149 0.0
C747 C 0.33101 0.60131 0.69861 0.0
Co748 Co 0.8251 0.44311 0.55923 0.0
Co749 Co 0.85406 0.42198 0.58659 0.0
C750 C 0.81121 0.41573 0.58893 0.0
O751 O 0.8076 0.42793 0.57579 0.0
O752 O 0.82839 0.41204 0.59399 0.0
C753 C 0.79287 0.46575 0.54793 0.0
O754 O 0.78716 0.46251 0.56565 0.0
C755 C 0.86856 0.40849 0.62357 0.0
C756 C 0.89989 0.40628 0.61861 0.0
C757 C 0.88584 0.4042 0.63259 0.0
N758 N 0.87229 0.41338 0.60525 0.0
N759 N 0.89102 0.41192 0.60232 0.0
C760 C 0.84859 0.40616 0.63136 0.0
H761 H 0.84063 0.41992 0.62987 0.0
H762 H 0.8482 0.40129 0.64648 0.0
H763 H 0.84106 0.39506 0.62278 0.0
C764 C 0.84304 0.47727 0.57661 0.0
N765 N 0.8419 0.45812 0.57411 0.0
N766 N 0.85393 0.44946 0.58589 0.0
C767 C 0.86294 0.46297 0.59656 0.0
C768 C 0.85637 0.48099 0.59098 0.0
C769 C 0.82983 0.49138 0.56709 0.0
H770 H 0.81505 0.48918 0.57264 0.0
H771 H 0.83394 0.5065 0.56989 0.0
H772 H 0.82974 0.48884 0.55135 0.0
O773 O 0.83965 0.42562 0.54234 0.0
O774 O 0.86046 0.41036 0.56124 0.0
H775 H 0.88305 0.47205 0.61861 0.0
H776 H 0.86983 0.4502 0.62367 0.0
C777 C 0.87703 0.4587 0.61226 0.0
H778 H 0.88903 0.45004 0.60636 0.0
H779 H 0.89776 0.41494 0.58925 0.0
O780 O 0.80899 0.45919 0.54238 0.0
C781 C 0.85306 0.4134 0.54475 0.0
Co782 Co 0.16917 0.0506 0.55693 0.0
Co783 Co 0.14156 0.07161 0.58537 0.0
C784 C 0.1843 0.07825 0.58584 0.0
O785 O 0.18745 0.06602 0.57259 0.0
O786 O 0.16732 0.08182 0.59154 0.0
C787 C 0.20054 0.02719 0.54519 0.0
O788 O 0.20627 0.02996 0.56299 0.0
C789 C 0.13062 0.08411 0.62332 0.0
C790 C 0.10049 0.09357 0.61985 0.0
C791 C 0.11535 0.0923 0.63312 0.0
N792 N 0.12519 0.08094 0.60508 0.0
N793 N 0.10714 0.08655 0.60304 0.0
C794 C 0.14976 0.07825 0.63133 0.0
H795 H 0.15563 0.06583 0.6232 0.0
H796 H 0.14852 0.07436 0.64676 0.0
H797 H 0.16 0.09041 0.62993 0.0
C798 C 0.1525 0.01643 0.57563 0.0
N799 N 0.15324 0.03554 0.57277 0.0
N800 N 0.14171 0.04417 0.58505 0.0
C801 C 0.13339 0.03071 0.59632 0.0
C802 C 0.14019 0.01272 0.59083 0.0
C803 C 0.16353 0.00192 0.56416 0.0
H804 H 0.16343 0.00596 0.54874 0.0
H805 H 0.17863 0.00155 0.56929 0.0
H806 H 0.15724 0.98733 0.56573 0.0
O807 O 0.15372 0.06785 0.54052 0.0
O808 O 0.13372 0.083 0.56034 0.0
H809 H 0.10944 0.04555 0.60879 0.0
H810 H 0.11385 0.02212 0.61912 0.0
C811 C 0.12074 0.03519 0.61316 0.0
H812 H 0.12949 0.04191 0.62467 0.0
H813 H 0.09947 0.08581 0.59016 0.0
O814 O 0.18469 0.03441 0.53966 0.0
C815 C 0.14031 0.07995 0.54352 0.0
Co816 Co 0.6854 0.69402 0.91752 0.0
Co817 Co 0.65694 0.67305 0.8898 0.0
C818 C 0.65595 0.66636 0.93228 0.0
O819 O 0.66938 0.67844 0.93531 0.0
O820 O 0.65008 0.66273 0.91534 0.0
C821 C 0.69682 0.71665 0.94966 0.0
O822 O 0.67903 0.71355 0.95527 0.0
C823 C 0.61959 0.6605 0.87602 0.0
C824 C 0.62628 0.64866 0.84729 0.0
C825 C 0.61153 0.65119 0.86043 0.0
N826 N 0.63828 0.66357 0.87228 0.0
N827 N 0.64218 0.65666 0.85499 0.0
C828 C 0.61029 0.6643 0.89508 0.0
H829 H 0.61804 0.67582 0.90294 0.0
H830 H 0.59502 0.66852 0.89323 0.0
H831 H 0.6107 0.65095 0.90382 0.0
C832 C 0.66643 0.72815 0.90146 0.0
N833 N 0.6697 0.7091 0.90147 0.0
N834 N 0.65709 0.70055 0.89023 0.0
C835 C 0.64507 0.71399 0.88297 0.0
C836 C 0.65046 0.73191 0.89016 0.0
C837 C 0.67801 0.74248 0.91262 0.0
H838 H 0.69347 0.73861 0.91207 0.0
H839 H 0.67325 0.74242 0.92784 0.0
H840 H 0.67612 0.75721 0.90674 0.0
O841 O 0.70213 0.67685 0.90252 0.0
O842 O 0.68224 0.66173 0.88263 0.0
H843 H 0.63098 0.69892 0.86005 0.0
H844 H 0.62102 0.72237 0.86485 0.0
C845 C 0.62741 0.70941 0.87151 0.0
H846 H 0.61648 0.70291 0.8811 0.0
H847 H 0.65585 0.65672 0.84878 0.0
O848 O 0.70238 0.71006 0.93356 0.0
C849 C 0.69908 0.66461 0.88926 0.0
Co850 Co 0.94469 0.05903 0.32556 0.0
Co851 Co 0.92246 0.08547 0.35417 0.0
C852 C 0.91785 0.08902 0.31124 0.0
O853 O 0.93016 0.07593 0.30785 0.0
O854 O 0.91352 0.0937 0.32838 0.0
C855 C 0.96828 0.04835 0.29378 0.0
O856 O 0.96509 0.06615 0.28826 0.0
C857 C 0.91051 0.12266 0.3676 0.0
C858 C 0.89743 0.11676 0.39594 0.0
C859 C 0.90082 0.13131 0.38271 0.0
N860 N 0.91246 0.10389 0.37154 0.0
N861 N 0.90474 0.10039 0.38855 0.0
C862 C 0.91865 0.13202 0.34998 0.0
H863 H 0.93135 0.12387 0.34476 0.0
H864 H 0.92287 0.14712 0.35301 0.0
H865 H 0.90766 0.13196 0.33841 0.0
C866 C 0.97808 0.07593 0.34544 0.0
N867 N 0.959 0.07353 0.34335 0.0
N868 N 0.94984 0.08471 0.35556 0.0
C869 C 0.96293 0.09467 0.36588 0.0
C870 C 0.98123 0.08946 0.35978 0.0
C871 C 0.99269 0.06717 0.33224 0.0
H872 H 0.99039 0.07282 0.31751 0.0
H873 H 0.00766 0.07047 0.33652 0.0
H874 H 0.99071 0.05134 0.33187 0.0
O875 O 0.92659 0.04166 0.33895 0.0
O876 O 0.91057 0.06013 0.35956 0.0
H877 H 0.97077 0.11239 0.39019 0.0
H878 H 0.95331 0.12271 0.37402 0.0
C879 C 0.95809 0.10919 0.38101 0.0
H880 H 0.94621 0.10376 0.39014 0.0
H881 H 0.90411 0.0868 0.3949 0.0
O882 O 0.96143 0.04256 0.30969 0.0
C883 C 0.91384 0.0438 0.35192 0.0
Co884 Co 0.30735 0.80125 0.91894 0.0
Co885 Co 0.33573 0.82288 0.89181 0.0
C886 C 0.33556 0.82993 0.93426 0.0
O887 O 0.32242 0.8175 0.93704 0.0
O888 O 0.34168 0.8336 0.91744 0.0
C889 C 0.29717 0.77763 0.95053 0.0
O890 O 0.31519 0.78058 0.95542 0.0
C891 C 0.37274 0.83742 0.87943 0.0
C892 C 0.368 0.84418 0.84874 0.0
C893 C 0.38164 0.845 0.86328 0.0
N894 N 0.35464 0.83262 0.87473 0.0
N895 N 0.35185 0.83665 0.85637 0.0
C896 C 0.38152 0.83356 0.89874 0.0
H897 H 0.37432 0.82119 0.90578 0.0
H898 H 0.39712 0.83045 0.89738 0.0
H899 H 0.37962 0.84639 0.90804 0.0
C900 C 0.32717 0.76751 0.90282 0.0
N901 N 0.32382 0.78653 0.90334 0.0
N902 N 0.33642 0.79543 0.89238 0.0
C903 C 0.34858 0.78226 0.88488 0.0
C904 C 0.34322 0.76413 0.8915 0.0
C905 C 0.31521 0.75274 0.91297 0.0
H906 H 0.29984 0.75696 0.9126 0.0
H907 H 0.31991 0.75169 0.92817 0.0
H908 H 0.31683 0.73839 0.90615 0.0
O909 O 0.2903 0.81753 0.90324 0.0
O910 O 0.31022 0.83321 0.88379 0.0
H911 H 0.36191 0.79639 0.861 0.0
H912 H 0.37375 0.77435 0.86805 0.0
C913 C 0.3661 0.78726 0.87338 0.0
H914 H 0.37617 0.79558 0.88249 0.0
H915 H 0.33891 0.83438 0.8491 0.0
O916 O 0.29087 0.78474 0.93492 0.0
C917 C 0.2933 0.82968 0.88988 0.0
Co918 Co 0.04962 0.43712 0.32637 0.0
Co919 Co 0.07068 0.407 0.35237 0.0
C920 C 0.07779 0.4091 0.31 0.0
O921 O 0.06552 0.42248 0.30769 0.0
O922 O 0.08134 0.40224 0.32656 0.0
C923 C 0.02655 0.44919 0.29514 0.0
O924 O 0.0292 0.43129 0.28964 0.0
C925 C 0.08574 0.36948 0.36285 0.0
C926 C 0.08891 0.37135 0.39442 0.0
C927 C 0.09181 0.35931 0.37881 0.0
N928 N 0.07971 0.3869 0.36862 0.0
N929 N 0.0816 0.38795 0.38752 0.0
C930 C 0.08437 0.36222 0.34261 0.0
H931 H 0.07148 0.36829 0.33542 0.0
H932 H 0.0835 0.34628 0.34224 0.0
H933 H 0.09734 0.3668 0.33453 0.0
C934 C 0.01552 0.41713 0.34139 0.0
N935 N 0.03458 0.42029 0.3412 0.0
N936 N 0.04325 0.40703 0.35155 0.0
C937 C 0.0299 0.39462 0.35826 0.0
C938 C 0.0119 0.40057 0.35186 0.0
C939 C 0.00098 0.42963 0.33158 0.0
H940 H 0.00535 0.44493 0.33257 0.0
H941 H -0.0 0.42552 0.3162 0.0
H942 H 0.98655 0.42788 0.3382 0.0
O943 O 0.06653 0.45286 0.3427 0.0
O944 O 0.08179 0.43185 0.36137 0.0
H945 H 0.04183 0.37967 0.38233 0.0
H946 H 0.0217 0.3674 0.37133 0.0
C947 C 0.03464 0.37627 0.3685 0.0
H948 H 0.04476 0.36774 0.35964 0.0
H949 H 0.07795 0.40001 0.39569 0.0
O950 O 0.03357 0.45476 0.31107 0.0
C951 C 0.07871 0.44905 0.35583 0.0
Co952 Co 0.68691 0.30147 0.57832 0.0
Co953 Co 0.6584 0.32285 0.60595 0.0
C954 C 0.65739 0.32893 0.56326 0.0
O955 O 0.67091 0.31692 0.56041 0.0
O956 O 0.65141 0.33269 0.58013 0.0
C957 C 0.69781 0.27805 0.54669 0.0
O958 O 0.6799 0.28093 0.54135 0.0
C959 C 0.62241 0.33893 0.62056 0.0
C960 C 0.62542 0.33537 0.652 0.0
C961 C 0.61272 0.34124 0.63781 0.0
N962 N 0.63984 0.33147 0.62427 0.0
N963 N 0.64166 0.3296 0.64312 0.0
C964 C 0.61592 0.34502 0.60094 0.0
H965 H 0.61436 0.33216 0.5916 0.0
H966 H 0.60223 0.35316 0.60124 0.0
H967 H 0.62699 0.35457 0.59461 0.0
C968 C 0.66828 0.26752 0.59516 0.0
N969 N 0.67128 0.28661 0.5945 0.0
N970 N 0.65867 0.29535 0.6056 0.0
C971 C 0.64685 0.28197 0.61327 0.0
C972 C 0.65259 0.26396 0.60683 0.0
C973 C 0.67984 0.25293 0.58434 0.0
H974 H 0.69525 0.25703 0.5844 0.0
H975 H 0.67471 0.25229 0.56925 0.0
H976 H 0.67829 0.23842 0.59083 0.0
O977 O 0.70363 0.31862 0.59331 0.0
O978 O 0.68378 0.33428 0.61286 0.0
H979 H 0.63298 0.29165 0.63889 0.0
H980 H 0.61953 0.27371 0.62588 0.0
C981 C 0.62895 0.2865 0.62435 0.0
H982 H 0.62083 0.29805 0.61695 0.0
H983 H 0.65381 0.32394 0.64988 0.0
O984 O 0.70372 0.28518 0.56244 0.0
C985 C 0.70062 0.33106 0.60639 0.0
Co986 Co 0.54914 0.05888 0.66788 0.0
Co987 Co 0.5723 0.08623 0.64094 0.0
C988 C 0.57635 0.08782 0.68395 0.0
O989 O 0.56376 0.07479 0.68659 0.0
O990 O 0.58099 0.09316 0.6671 0.0
C991 C 0.52428 0.04763 0.69845 0.0
O992 O 0.52684 0.06547 0.70418 0.0
C993 C 0.58562 0.12358 0.62901 0.0
C994 C 0.59756 0.11844 0.60002 0.0
C995 C 0.59507 0.13254 0.61393 0.0
N996 N 0.58291 0.10505 0.62437 0.0
N997 N 0.59 0.10201 0.607 0.0
C998 C 0.57822 0.13253 0.64716 0.0
H999 H 0.56545 0.12456 0.65247 0.0
H1000 H 0.57432 0.14783 0.64478 0.0
H1001 H 0.58954 0.13179 0.65839 0.0
C1002 C 0.51638 0.07709 0.64804 0.0
N1003 N 0.53537 0.07432 0.65048 0.0
N1004 N 0.54494 0.0862 0.63925 0.0
C1005 C 0.5322 0.09714 0.62951 0.0
C1006 C 0.51377 0.09167 0.63478 0.0
C1007 C 0.50107 0.06719 0.65948 0.0
H1008 H 0.50399 0.05152 0.66 0.0
H1009 H 0.50121 0.07287 0.67439 0.0
H1010 H 0.48657 0.06962 0.65325 0.0
O1011 O 0.56703 0.04175 0.65406 0.0
O1012 O 0.58374 0.06083 0.63461 0.0
H1013 H 0.54897 0.10828 0.60617 0.0
H1014 H 0.52477 0.11782 0.60753 0.0
C1015 C 0.53742 0.1131 0.61606 0.0
H1016 H 0.54284 0.12553 0.62446 0.0
H1017 H 0.58989 0.08871 0.60005 0.0
O1018 O 0.53194 0.04209 0.68282 0.0
C1019 C 0.58002 0.04423 0.64141 0.0
Co1020 Co 0.3073 0.19312 0.57554 0.0
Co1021 Co 0.33623 0.17207 0.60287 0.0
C1022 C 0.33613 0.16541 0.56022 0.0
O1023 O 0.32288 0.17769 0.55727 0.0
O1024 O 0.34209 0.16176 0.5771 0.0
C1025 C 0.29533 0.21644 0.54415 0.0
O1026 O 0.3132 0.21396 0.53853 0.0
C1027 C 0.3738 0.15805 0.61415 0.0
C1028 C 0.3707 0.15238 0.64525 0.0
C1029 C 0.38352 0.15113 0.63005 0.0
N1030 N 0.35592 0.16295 0.61953 0.0
N1031 N 0.35412 0.15959 0.63817 0.0
C1032 C 0.38178 0.16116 0.59438 0.0
H1033 H 0.37509 0.174 0.58766 0.0
H1034 H 0.39762 0.16314 0.59484 0.0
H1035 H 0.37851 0.14841 0.58534 0.0
C1036 C 0.32629 0.22724 0.59188 0.0
N1037 N 0.32329 0.20815 0.59132 0.0
N1038 N 0.3359 0.1995 0.60248 0.0
C1039 C 0.34763 0.21291 0.61024 0.0
C1040 C 0.34198 0.23091 0.60358 0.0
C1041 C 0.31456 0.24176 0.58113 0.0
H1042 H 0.29916 0.23762 0.58141 0.0
H1043 H 0.31947 0.2423 0.56597 0.0
H1044 H 0.31615 0.25631 0.58753 0.0
O1045 O 0.29113 0.17577 0.591 0.0
O1046 O 0.31122 0.16062 0.61075 0.0
H1047 H 0.3609 0.19973 0.63466 0.0
H1048 H 0.37284 0.22141 0.62668 0.0
C1049 C 0.36514 0.2083 0.6219 0.0
H1050 H 0.37512 0.19949 0.61314 0.0
H1051 H 0.34157 0.16208 0.64601 0.0
O1052 O 0.28987 0.20917 0.56 0.0
C1053 C 0.29432 0.16358 0.60428 0.0
Co1054 Co 0.44394 0.437 0.66683 0.0
Co1055 Co 0.42357 0.40661 0.64058 0.0
C1056 C 0.41657 0.40735 0.68275 0.0
O1057 O 0.42805 0.42146 0.68499 0.0
O1058 O 0.41342 0.40017 0.66622 0.0
C1059 C 0.46698 0.44843 0.6984 0.0
O1060 O 0.46468 0.43036 0.70346 0.0
C1061 C 0.40398 0.37246 0.62612 0.0
C1062 C 0.41625 0.36907 0.59702 0.0
C1063 C 0.40442 0.36022 0.6104 0.0
N1064 N 0.41557 0.38747 0.62257 0.0
N1065 N 0.42254 0.38561 0.60496 0.0
C1066 C 0.39168 0.37068 0.64369 0.0
H1067 H 0.38586 0.38502 0.64756 0.0
H1068 H 0.40054 0.36528 0.65582 0.0
H1069 H 0.37943 0.36073 0.64129 0.0
C1070 C 0.47849 0.41808 0.65189 0.0
N1071 N 0.45936 0.4209 0.65166 0.0
N1072 N 0.45103 0.40693 0.64199 0.0
C1073 C 0.46462 0.39408 0.63673 0.0
C1074 C 0.48248 0.40081 0.64277 0.0
C1075 C 0.49267 0.43167 0.66075 0.0
H1076 H 0.48749 0.44669 0.65938 0.0
H1077 H 0.49439 0.4282 0.67622 0.0
H1078 H 0.50693 0.43036 0.65369 0.0
O1079 O 0.4271 0.45298 0.65092 0.0
O1080 O 0.41181 0.43166 0.63268 0.0
H1081 H 0.45998 0.37475 0.61329 0.0
H1082 H 0.47157 0.3639 0.63369 0.0
C1083 C 0.46034 0.37433 0.62923 0.0
H1084 H 0.44624 0.36926 0.63465 0.0
H1085 H 0.43219 0.39524 0.59867 0.0
O1086 O 0.45969 0.45432 0.68272 0.0
C1087 C 0.41471 0.44893 0.63809 0.0
Co1088 Co 0.91632 0.6838 0.69306 0.0
Co1089 Co 0.88784 0.65681 0.67125 0.0
C1090 C 0.93058 0.6539 0.66584 0.0
O1091 O 0.93385 0.66716 0.67803 0.0
O1092 O 0.91349 0.64875 0.66179 0.0
C1093 C 0.94822 0.69413 0.71664 0.0
O1094 O 0.95331 0.67613 0.71384 0.0
C1095 C 0.87301 0.61981 0.65956 0.0
C1096 C 0.84629 0.62738 0.64408 0.0
C1097 C 0.85819 0.61209 0.64878 0.0
N1098 N 0.87 0.63879 0.6613 0.0
N1099 N 0.85386 0.64324 0.65228 0.0
C1100 C 0.89107 0.6099 0.66584 0.0
H1101 H 0.89853 0.61841 0.6771 0.0
H1102 H 0.88788 0.59536 0.67154 0.0
H1103 H 0.90078 0.60825 0.65327 0.0
C1104 C 0.89789 0.66597 0.72668 0.0
N1105 N 0.89912 0.66891 0.70762 0.0
N1106 N 0.88703 0.65737 0.6987 0.0
C1107 C 0.87769 0.64668 0.71197 0.0
C1108 C 0.88451 0.65165 0.73007 0.0
C1109 C 0.90993 0.67607 0.74141 0.0
H1110 H 0.91078 0.69162 0.73799 0.0
H1111 H 0.92466 0.66996 0.74122 0.0
H1112 H 0.90384 0.6743 0.75606 0.0
O1113 O 0.90249 0.70114 0.6754 0.0
O1114 O 0.88225 0.68219 0.65951 0.0
H1115 H 0.85402 0.63529 0.69577 0.0
H1116 H 0.85549 0.62648 0.7202 0.0
C1117 C 0.86397 0.63074 0.70737 0.0
H1118 H 0.87218 0.61802 0.70235 0.0
H1119 H 0.84854 0.65721 0.6509 0.0
O1120 O 0.93251 0.70018 0.70953 0.0
C1121 C 0.88954 0.69868 0.66271 0.0
Co1122 Co 0.93626 0.824 0.54862 0.0
Co1123 Co 0.90656 0.85132 0.56875 0.0
C1124 C 0.9066 0.80906 0.57629 0.0
O1125 O 0.92048 0.80622 0.56468 0.0
O1126 O 0.89993 0.82584 0.57922 0.0
C1127 C 0.94747 0.79211 0.52577 0.0
O1128 O 0.92938 0.78715 0.52808 0.0
C1129 C 0.87197 0.86588 0.58742 0.0
C1130 C 0.86936 0.89525 0.57563 0.0
C1131 C 0.85986 0.88167 0.5867 0.0
N1132 N 0.88754 0.86955 0.57662 0.0
N1133 N 0.88614 0.88733 0.56999 0.0
C1134 C 0.86953 0.84813 0.59934 0.0
H1135 H 0.88351 0.84434 0.60601 0.0
H1136 H 0.86479 0.83607 0.59001 0.0
H1137 H 0.85884 0.85029 0.61099 0.0
C1138 C 0.91775 0.83929 0.51389 0.0
N1139 N 0.92044 0.83934 0.53305 0.0
N1140 N 0.9069 0.84969 0.54129 0.0
C1141 C 0.89451 0.85569 0.52758 0.0
C1142 C 0.90109 0.84939 0.50979 0.0
C1143 C 0.93088 0.8297 0.49978 0.0
H1144 H 0.94597 0.83049 0.50489 0.0
H1145 H 0.92673 0.81437 0.49827 0.0
H1146 H 0.92984 0.83664 0.48543 0.0
O1147 O 0.95246 0.83984 0.56537 0.0
O1148 O 0.93169 0.85895 0.5804 0.0
H1149 H 0.87663 0.88022 0.53239 0.0
H1150 H 0.86475 0.86087 0.52004 0.0
C1151 C 0.87519 0.86435 0.5316 0.0
H1152 H 0.86944 0.85889 0.54542 0.0
H1153 H 0.89623 0.89374 0.56091 0.0
O1154 O 0.95343 0.8078 0.53302 0.0
C1155 C 0.94879 0.85299 0.57754 0.0
Co1156 Co 0.07466 0.80579 0.69038 0.0
Co1157 Co 0.1009 0.83613 0.66996 0.0
C1158 C 0.05863 0.83587 0.66346 0.0
O1159 O 0.0564 0.82165 0.67483 0.0
O1160 O 0.07519 0.8429 0.66017 0.0
C1161 C 0.04342 0.79416 0.71392 0.0
O1162 O 0.03828 0.81225 0.71194 0.0
C1163 C 0.11555 0.87033 0.65054 0.0
C1164 C 0.14464 0.87349 0.6629 0.0
C1165 C 0.13132 0.8825 0.65112 0.0
N1166 N 0.11901 0.85521 0.66203 0.0
N1167 N 0.13662 0.85693 0.66904 0.0
C1168 C 0.09797 0.87229 0.63827 0.0
H1169 H 0.08595 0.87791 0.64714 0.0
H1170 H 0.10049 0.88215 0.62599 0.0
H1171 H 0.09388 0.85798 0.63253 0.0
C1172 C 0.09042 0.82409 0.7249 0.0
N1173 N 0.09022 0.82158 0.70574 0.0
N1174 N 0.09975 0.83564 0.69743 0.0
C1175 C 0.10524 0.84832 0.71109 0.0
C1176 C 0.09959 0.84133 0.72898 0.0
C1177 C 0.08205 0.81011 0.73899 0.0
H1178 H 0.08341 0.79522 0.73343 0.0
H1179 H 0.0666 0.81337 0.74118 0.0
H1180 H 0.0895 0.81115 0.75309 0.0
O1181 O 0.09034 0.78981 0.67341 0.0
O1182 O 0.10859 0.81103 0.658 0.0
H1183 H 0.12848 0.86795 0.70659 0.0
H1184 H 0.1079 0.87851 0.71815 0.0
C1185 C 0.11253 0.86817 0.7069 0.0
H1186 H 0.10708 0.87324 0.69281 0.0
H1187 H 0.14284 0.84722 0.67863 0.0
O1188 O 0.05895 0.78839 0.70622 0.0
C1189 C 0.10313 0.79378 0.66099 0.0
Co1190 Co 0.05727 0.66605 0.55101 0.0
Co1191 Co 0.08485 0.63945 0.57432 0.0
C1192 C 0.08668 0.68241 0.57771 0.0
O1193 O 0.07337 0.68478 0.56537 0.0
O1194 O 0.09215 0.66566 0.58259 0.0
C1195 C 0.04681 0.69647 0.52578 0.0
O1196 O 0.0648 0.70167 0.52834 0.0
C1197 C 0.1221 0.62702 0.58772 0.0
C1198 C 0.11651 0.598 0.59942 0.0
C1199 C 0.13083 0.61169 0.59701 0.0
N1200 N 0.10348 0.62271 0.58503 0.0
N1201 N 0.10017 0.60533 0.59199 0.0
C1202 C 0.13134 0.64506 0.5804 0.0
H1203 H 0.12337 0.65064 0.56774 0.0
H1204 H 0.14655 0.64241 0.57634 0.0
H1205 H 0.13093 0.6562 0.59182 0.0
C1206 C 0.07544 0.64594 0.51837 0.0
N1207 N 0.07266 0.64849 0.53735 0.0
N1208 N 0.08467 0.63745 0.54698 0.0
C1209 C 0.09572 0.62776 0.53429 0.0
C1210 C 0.09019 0.63286 0.51584 0.0
C1211 C 0.06548 0.65719 0.50296 0.0
H1212 H 0.04986 0.65802 0.50609 0.0
H1213 H 0.07142 0.67199 0.50262 0.0
H1214 H 0.06759 0.65055 0.4886 0.0
O1215 O 0.04007 0.65237 0.56899 0.0
O1216 O 0.05943 0.63334 0.58585 0.0
H1217 H 0.10739 0.60478 0.55121 0.0
H1218 H 0.11675 0.60609 0.52696 0.0
C1219 C 0.11195 0.61465 0.53956 0.0
H1220 H 0.12426 0.62333 0.5448 0.0
H1221 H 0.08677 0.59858 0.59182 0.0
O1222 O 0.04074 0.68113 0.53366 0.0
C1223 C 0.04273 0.63989 0.58212 0.0
Co1224 Co 0.91942 0.30631 0.7986 0.0
Co1225 Co 0.8928 0.33538 0.82008 0.0
C1226 C 0.93534 0.33473 0.82663 0.0
O1227 O 0.93799 0.32147 0.81428 0.0
O1228 O 0.91858 0.34095 0.83038 0.0
C1229 C 0.95059 0.2945 0.775 0.0
O1230 O 0.9563 0.31234 0.77765 0.0
C1231 C 0.88158 0.37291 0.83435 0.0
C1232 C 0.85074 0.36922 0.84108 0.0
C1233 C 0.86572 0.38239 0.84181 0.0
N1234 N 0.87631 0.35492 0.82968 0.0
N1235 N 0.85786 0.35277 0.8337 0.0
C1236 C 0.90115 0.38109 0.83048 0.0
H1237 H 0.90795 0.37371 0.81808 0.0
H1238 H 0.90028 0.39674 0.82743 0.0
H1239 H 0.9104 0.37887 0.84329 0.0
C1240 C 0.90353 0.32607 0.76478 0.0
N1241 N 0.90383 0.32273 0.7838 0.0
N1242 N 0.89318 0.33565 0.79261 0.0
C1243 C 0.88614 0.34803 0.77939 0.0
C1244 C 0.89275 0.34247 0.76131 0.0
C1245 C 0.91362 0.31392 0.75014 0.0
H1246 H 0.91277 0.29854 0.75426 0.0
H1247 H 0.92896 0.3182 0.74938 0.0
H1248 H 0.9071 0.31579 0.73568 0.0
O1249 O 0.90378 0.28993 0.81556 0.0
O1250 O 0.88458 0.31021 0.83109 0.0
H1251 H 0.86296 0.36242 0.79366 0.0
H1252 H 0.87018 0.37377 0.77145 0.0
C1253 C 0.87539 0.36603 0.78434 0.0
H1254 H 0.88499 0.37583 0.79243 0.0
H1255 H 0.85017 0.34005 0.83152 0.0
O1256 O 0.93476 0.28902 0.78227 0.0
C1257 C 0.89062 0.29321 0.82783 0.0
Co1258 Co 0.55688 0.82696 0.44305 0.0
Co1259 Co 0.58617 0.85381 0.42179 0.0
C1260 C 0.58658 0.81114 0.41604 0.0
O1261 O 0.57272 0.80874 0.42776 0.0
O1262 O 0.59313 0.82783 0.41235 0.0
C1263 C 0.54556 0.79559 0.46657 0.0
O1264 O 0.56349 0.79021 0.46397 0.0
C1265 C 0.62107 0.86837 0.40349 0.0
C1266 C 0.62059 0.89924 0.41105 0.0
C1267 C 0.63167 0.88519 0.4023 0.0
N1268 N 0.60476 0.87207 0.41311 0.0
N1269 N 0.60436 0.89064 0.41729 0.0
C1270 C 0.62553 0.84943 0.39426 0.0
H1271 H 0.61255 0.84419 0.38665 0.0
H1272 H 0.62952 0.83884 0.40552 0.0
H1273 H 0.63733 0.85058 0.3836 0.0
C1274 C 0.57534 0.84382 0.47707 0.0
N1275 N 0.5726 0.84303 0.45795 0.0
N1276 N 0.58564 0.85369 0.44929 0.0
C1277 C 0.59755 0.86109 0.46276 0.0
C1278 C 0.59132 0.85507 0.48075 0.0
C1279 C 0.56327 0.8335 0.49161 0.0
H1280 H 0.54795 0.83377 0.48718 0.0
H1281 H 0.5681 0.81834 0.49264 0.0
H1282 H 0.56466 0.84025 0.50602 0.0
O1283 O 0.54046 0.842 0.4257 0.0
O1284 O 0.561 0.86073 0.40995 0.0
H1285 H 0.61285 0.88665 0.45531 0.0
H1286 H 0.62604 0.87075 0.47086 0.0
C1287 C 0.616 0.87133 0.45847 0.0
H1288 H 0.62306 0.86479 0.44576 0.0
H1289 H 0.59329 0.89731 0.42492 0.0
O1290 O 0.53979 0.81132 0.45927 0.0
C1291 C 0.54397 0.85474 0.41305 0.0
Co1292 Co 0.07564 0.18336 0.80022 0.0
Co1293 Co 0.10372 0.15676 0.82293 0.0
C1294 C 0.06085 0.15492 0.82852 0.0
O1295 O 0.05772 0.16769 0.8158 0.0
O1296 O 0.07788 0.14975 0.83276 0.0
C1297 C 0.04406 0.1935 0.77618 0.0
O1298 O 0.03859 0.17573 0.7796 0.0
C1299 C 0.11708 0.11939 0.83476 0.0
C1300 C 0.14359 0.12585 0.85108 0.0
C1301 C 0.13135 0.11103 0.84579 0.0
N1302 N 0.12075 0.13829 0.83341 0.0
N1303 N 0.13674 0.14209 0.84298 0.0
C1304 C 0.0989 0.11017 0.82776 0.0
H1305 H 0.09186 0.11928 0.81672 0.0
H1306 H 0.10183 0.09579 0.82155 0.0
H1307 H 0.08893 0.10826 0.84009 0.0
C1308 C 0.09358 0.16392 0.76721 0.0
N1309 N 0.09243 0.16755 0.78616 0.0
N1310 N 0.10447 0.15626 0.79546 0.0
C1311 C 0.11374 0.14509 0.78253 0.0
C1312 C 0.10689 0.14945 0.7643 0.0
C1313 C 0.08158 0.17354 0.75214 0.0
H1314 H 0.08099 0.18924 0.75489 0.0
H1315 H 0.06677 0.16766 0.75268 0.0
H1316 H 0.08754 0.17105 0.73754 0.0
O1317 O 0.09003 0.201 0.81719 0.0
O1318 O 0.11018 0.18241 0.83363 0.0
H1319 H 0.1372 0.1342 0.79939 0.0
H1320 H 0.13656 0.12542 0.77491 0.0
C1321 C 0.12766 0.12946 0.78753 0.0
H1322 H 0.11959 0.11654 0.79225 0.0
H1323 H 0.14248 0.15585 0.84471 0.0
O1324 O 0.05984 0.19951 0.78317 0.0
C1325 C 0.10314 0.19888 0.8298 0.0
Co1326 Co 0.43523 0.66797 0.44276 0.0
Co1327 Co 0.40648 0.64061 0.42162 0.0
C1328 C 0.40724 0.68298 0.41382 0.0
O1329 O 0.42029 0.68597 0.42633 0.0
O1330 O 0.40106 0.66612 0.4104 0.0
C1331 C 0.44639 0.69977 0.46575 0.0
O1332 O 0.42858 0.70525 0.46257 0.0
C1333 C 0.36948 0.62859 0.40651 0.0
C1334 C 0.37248 0.59707 0.40377 0.0
C1335 C 0.35987 0.61219 0.40069 0.0
N1336 N 0.38711 0.62354 0.41255 0.0
N1337 N 0.38886 0.60467 0.4109 0.0
C1338 C 0.3615 0.64858 0.40777 0.0
H1339 H 0.36747 0.65613 0.4205 0.0
H1340 H 0.34557 0.64836 0.40886 0.0
H1341 H 0.3656 0.65669 0.39466 0.0
C1342 C 0.41525 0.65276 0.47676 0.0
N1343 N 0.41864 0.65285 0.45774 0.0
N1344 N 0.40592 0.64187 0.44903 0.0
C1345 C 0.39363 0.63481 0.4623 0.0
C1346 C 0.3991 0.64166 0.4803 0.0
C1347 C 0.42726 0.66312 0.49134 0.0
H1348 H 0.44265 0.66247 0.48722 0.0
H1349 H 0.42274 0.6784 0.49201 0.0
H1350 H 0.42551 0.65667 0.50584 0.0
O1351 O 0.45183 0.65183 0.42652 0.0
O1352 O 0.43181 0.63215 0.41121 0.0
H1353 H 0.37998 0.60992 0.45045 0.0
H1354 H 0.36703 0.62047 0.47038 0.0
C1355 C 0.37586 0.62362 0.4575 0.0
H1356 H 0.36698 0.63197 0.44724 0.0
H1357 H 0.4012 0.59699 0.41465 0.0
O1358 O 0.45218 0.68382 0.45896 0.0
C1359 C 0.44874 0.63831 0.41458 0.0
Co1360 Co 0.69531 0.91833 0.6852 0.0
Co1361 Co 0.67258 0.89097 0.65784 0.0
C1362 C 0.66651 0.93373 0.6575 0.0
O1363 O 0.67935 0.9366 0.67023 0.0
O1364 O 0.66237 0.91683 0.65186 0.0
C1365 C 0.71917 0.94974 0.69596 0.0
O1366 O 0.71562 0.95553 0.67832 0.0
C1367 C 0.65813 0.87911 0.62079 0.0
C1368 C 0.64881 0.84911 0.62565 0.0
C1369 C 0.64949 0.86351 0.61185 0.0
N1370 N 0.66211 0.87425 0.63903 0.0
N1371 N 0.65657 0.85629 0.6419 0.0
C1372 C 0.66367 0.898 0.61201 0.0
H1373 H 0.67627 0.9042 0.61961 0.0
H1374 H 0.66717 0.89627 0.59653 0.0
H1375 H 0.6515 0.90824 0.61344 0.0
C1376 C 0.72826 0.90161 0.66475 0.0
N1377 N 0.70937 0.90223 0.66871 0.0
N1378 N 0.70005 0.89083 0.65679 0.0
C1379 C 0.71288 0.88273 0.64464 0.0
C1380 C 0.73112 0.88958 0.64916 0.0
C1381 C 0.74334 0.91275 0.67535 0.0
H1382 H 0.74027 0.91256 0.69099 0.0
H1383 H 0.74327 0.92787 0.67027 0.0
H1384 H 0.75787 0.90661 0.67286 0.0
O1385 O 0.67874 0.90326 0.70247 0.0
O1386 O 0.66231 0.88351 0.68346 0.0
H1387 H 0.69691 0.85936 0.63238 0.0
H1388 H 0.72024 0.86305 0.62157 0.0
C1389 C 0.70754 0.87035 0.62784 0.0
H1390 H 0.70091 0.8794 0.61652 0.0
H1391 H 0.65792 0.84903 0.65497 0.0
O1392 O 0.71234 0.93379 0.70167 0.0
C1393 C 0.66626 0.89008 0.7001 0.0
Co1394 Co 0.69279 0.07521 0.80713 0.0
Co1395 Co 0.67159 0.10236 0.83615 0.0
C1396 C 0.66581 0.05967 0.83702 0.0
O1397 O 0.6775 0.05708 0.82315 0.0
O1398 O 0.66218 0.07645 0.84335 0.0
C1399 C 0.71654 0.04388 0.79592 0.0
O1400 O 0.71381 0.03833 0.81378 0.0
C1401 C 0.65281 0.11698 0.8707 0.0
C1402 C 0.66226 0.1473 0.87156 0.0
C1403 C 0.6525 0.13339 0.88198 0.0
N1404 N 0.66296 0.12069 0.85471 0.0
N1405 N 0.66819 0.13899 0.85507 0.0
C1406 C 0.64229 0.09853 0.87421 0.0
H1407 H 0.63537 0.09381 0.86064 0.0
H1408 H 0.65263 0.08732 0.87892 0.0
H1409 H 0.6309 0.10022 0.88526 0.0
C1410 C 0.7269 0.09212 0.82544 0.0
N1411 N 0.70776 0.0914 0.82272 0.0
N1412 N 0.69913 0.10209 0.83575 0.0
C1413 C 0.71265 0.10935 0.84771 0.0
C1414 C 0.73062 0.10331 0.84145 0.0
C1415 C 0.7414 0.08189 0.81326 0.0
H1416 H 0.73689 0.08217 0.79797 0.0
H1417 H 0.74255 0.06672 0.81806 0.0
H1418 H 0.75579 0.0887 0.81458 0.0
O1419 O 0.67548 0.09014 0.79055 0.0
O1420 O 0.65975 0.10912 0.81088 0.0
H1421 H 0.70616 0.13486 0.86353 0.0
H1422 H 0.72059 0.11787 0.87658 0.0
C1423 C 0.70844 0.11933 0.86633 0.0
H1424 H 0.69532 0.11323 0.873 0.0
H1425 H 0.67647 0.14558 0.84443 0.0
O1426 O 0.70911 0.05955 0.79017 0.0
C1427 C 0.66287 0.10295 0.7939 0.0
Co1428 Co 0.32661 0.04972 0.43497 0.0
Co1429 Co 0.35413 0.07267 0.40798 0.0
C1430 C 0.31128 0.07819 0.4069 0.0
O1431 O 0.30841 0.0654 0.41966 0.0
O1432 O 0.3282 0.08248 0.40143 0.0
C1433 C 0.29522 0.02565 0.44534 0.0
O1434 O 0.28959 0.02919 0.42764 0.0
C1435 C 0.36657 0.08683 0.37109 0.0
C1436 C 0.39627 0.0968 0.3765 0.0
C1437 C 0.38219 0.09564 0.3624 0.0
N1438 N 0.37109 0.0832 0.38948 0.0
N1439 N 0.38887 0.08913 0.39269 0.0
C1440 C 0.34801 0.08079 0.36195 0.0
H1441 H 0.34199 0.06807 0.36947 0.0
H1442 H 0.35013 0.07729 0.34652 0.0
H1443 H 0.33745 0.09271 0.36312 0.0
C1444 C 0.34435 0.01689 0.41503 0.0
N1445 N 0.34318 0.03581 0.41881 0.0
N1446 N 0.35486 0.04525 0.40727 0.0
C1447 C 0.36386 0.03247 0.39572 0.0
C1448 C 0.35726 0.01416 0.40016 0.0
C1449 C 0.33281 0.00169 0.425 0.0
H1450 H 0.3325 0.00453 0.44068 0.0
H1451 H 0.31786 0.00196 0.41943 0.0
H1452 H 0.33894 0.98716 0.42246 0.0
O1453 O 0.34118 0.06666 0.45246 0.0
O1454 O 0.3609 0.08325 0.43357 0.0
H1455 H 0.38772 0.04857 0.38469 0.0
H1456 H 0.38485 0.02504 0.37396 0.0
C1457 C 0.37711 0.03779 0.37962 0.0
H1458 H 0.36865 0.04424 0.36775 0.0
H1459 H 0.39586 0.0881 0.40593 0.0
O1460 O 0.31109 0.03253 0.45123 0.0
C1461 C 0.35416 0.07936 0.45015 0.0
Co1462 Co 0.30145 0.41799 0.80927 0.0
Co1463 Co 0.32453 0.39157 0.83721 0.0
C1464 C 0.32812 0.43463 0.83839 0.0
O1465 O 0.31568 0.43701 0.82518 0.0
O1466 O 0.33287 0.41788 0.84397 0.0
C1467 C 0.2764 0.44814 0.7974 0.0
O1468 O 0.279 0.45428 0.81509 0.0
C1469 C 0.33743 0.38005 0.87483 0.0
C1470 C 0.34912 0.35086 0.8702 0.0
C1471 C 0.34654 0.36495 0.88409 0.0
N1472 N 0.33499 0.37525 0.85631 0.0
N1473 N 0.34194 0.35777 0.85357 0.0
C1474 C 0.33003 0.39833 0.88351 0.0
H1475 H 0.31736 0.40362 0.87535 0.0
H1476 H 0.32595 0.39613 0.89879 0.0
H1477 H 0.34142 0.4095 0.88279 0.0
C1478 C 0.26868 0.39799 0.82724 0.0
N1479 N 0.28768 0.40058 0.82468 0.0
N1480 N 0.2972 0.38959 0.83681 0.0
C1481 C 0.28442 0.37989 0.84774 0.0
C1482 C 0.26601 0.38491 0.84197 0.0
C1483 C 0.2534 0.40927 0.81709 0.0
H1484 H 0.25641 0.40955 0.80144 0.0
H1485 H 0.25349 0.42426 0.82255 0.0
H1486 H 0.2389 0.40307 0.81951 0.0
O1487 O 0.31975 0.40422 0.79255 0.0
O1488 O 0.33643 0.38516 0.81207 0.0
H1489 H 0.30117 0.3568 0.85941 0.0
H1490 H 0.27692 0.35826 0.86876 0.0
C1491 C 0.28958 0.36674 0.86397 0.0
H1492 H 0.29488 0.37539 0.87628 0.0
H1493 H 0.34194 0.35066 0.84035 0.0
O1494 O 0.28421 0.43248 0.79214 0.0
C1495 C 0.33288 0.39177 0.79536 0.0
Co1496 Co 0.16877 0.94151 0.93071 0.0
Co1497 Co 0.13918 0.92027 0.90439 0.0
C1498 C 0.18201 0.91386 0.90104 0.0
O1499 O 0.18584 0.92638 0.91382 0.0
O1500 O 0.16472 0.9099 0.89651 0.0
C1501 C 0.20115 0.96429 0.9417 0.0
O1502 O 0.20712 0.96062 0.92414 0.0
C1503 C 0.12291 0.91049 0.86705 0.0
C1504 C 0.0953 0.89689 0.87495 0.0
C1505 C 0.10689 0.90128 0.85929 0.0
N1506 N 0.12079 0.91132 0.88625 0.0
N1507 N 0.10417 0.90339 0.89088 0.0
C1508 C 0.14048 0.91759 0.85678 0.0
H1509 H 0.15158 0.92256 0.86701 0.0
H1510 H 0.1367 0.93017 0.84775 0.0
H1511 H 0.14642 0.90611 0.8474 0.0
C1512 C 0.14986 0.97557 0.91433 0.0
N1513 N 0.15154 0.95641 0.91632 0.0
N1514 N 0.13885 0.94773 0.90528 0.0
C1515 C 0.12852 0.96127 0.89593 0.0
C1516 C 0.13521 0.9793 0.90133 0.0
C1517 C 0.16349 0.98975 0.92315 0.0
H1518 H 0.1782 0.98684 0.91777 0.0
H1519 H 0.15985 0.00484 0.91962 0.0
H1520 H 0.16351 0.98794 0.939 0.0
O1521 O 0.15472 0.92396 0.94805 0.0
O1522 O 0.13335 0.90869 0.92978 0.0
H1523 H 0.10337 0.97009 0.87996 0.0
H1524 H 0.11859 0.9528 0.86813 0.0
C1525 C 0.11248 0.95717 0.88218 0.0
H1526 H 0.10344 0.94526 0.88773 0.0
H1527 H 0.09915 0.90193 0.90495 0.0
O1528 O 0.18497 0.95783 0.9472 0.0
C1529 C 0.14123 0.91173 0.94604 0.0
Co1530 Co 0.80174 0.07907 0.18709 0.0
Co1531 Co 0.82404 0.10648 0.15941 0.0
C1532 C 0.82917 0.06353 0.1582 0.0
O1533 O 0.81676 0.06068 0.17132 0.0
O1534 O 0.83341 0.08045 0.15273 0.0
C1535 C 0.77761 0.04794 0.19773 0.0
O1536 O 0.78026 0.04288 0.17972 0.0
C1537 C 0.83684 0.11789 0.12171 0.0
C1538 C 0.84764 0.14748 0.12591 0.0
C1539 C 0.84559 0.13307 0.11225 0.0
N1540 N 0.83409 0.12293 0.14013 0.0
N1541 N 0.84052 0.14066 0.14261 0.0
C1542 C 0.83004 0.09925 0.11326 0.0
H1543 H 0.81747 0.09371 0.12139 0.0
H1544 H 0.82603 0.10109 0.09792 0.0
H1545 H 0.84176 0.08845 0.11424 0.0
C1546 C 0.76839 0.09699 0.16802 0.0
N1547 N 0.78741 0.09572 0.17131 0.0
N1548 N 0.79658 0.10736 0.15952 0.0
C1549 C 0.78354 0.11641 0.14829 0.0
C1550 C 0.76532 0.1099 0.15321 0.0
C1551 C 0.75338 0.08552 0.17834 0.0
H1552 H 0.75673 0.08493 0.19391 0.0
H1553 H 0.7532 0.07067 0.17252 0.0
H1554 H 0.73887 0.09192 0.17636 0.0
O1555 O 0.81928 0.09367 0.20402 0.0
O1556 O 0.83543 0.1134 0.18472 0.0
H1557 H 0.79966 0.13998 0.13668 0.0
H1558 H 0.77568 0.13759 0.12688 0.0
C1559 C 0.78849 0.12959 0.13202 0.0
H1560 H 0.79429 0.12104 0.11988 0.0
H1561 H 0.84022 0.148 0.1557 0.0
O1562 O 0.78502 0.06351 0.20382 0.0
C1563 C 0.83193 0.10666 0.2014 0.0
Co1564 Co 0.32317 0.94497 0.05745 0.0
Co1565 Co 0.3498 0.92447 0.08733 0.0
C1566 C 0.30732 0.91842 0.0878 0.0
O1567 O 0.30488 0.92978 0.07361 0.0
O1568 O 0.32402 0.91503 0.09447 0.0
C1569 C 0.29196 0.96844 0.0451 0.0
O1570 O 0.28615 0.96645 0.06298 0.0
C1571 C 0.36456 0.90493 0.12132 0.0
C1572 C 0.39377 0.91703 0.12436 0.0
C1573 C 0.38036 0.9054 0.13343 0.0
N1574 N 0.36806 0.91636 0.10618 0.0
N1575 N 0.38574 0.9232 0.10782 0.0
C1576 C 0.34691 0.89281 0.12338 0.0
H1577 H 0.33502 0.90178 0.12912 0.0
H1578 H 0.34939 0.88049 0.13322 0.0
H1579 H 0.34266 0.88711 0.10909 0.0
C1580 C 0.33918 0.97946 0.07563 0.0
N1581 N 0.33906 0.96031 0.07296 0.0
N1582 N 0.34892 0.95194 0.08676 0.0
C1583 C 0.35464 0.96556 0.0994 0.0
C1584 C 0.34875 0.98346 0.09266 0.0
C1585 C 0.33011 0.99363 0.06219 0.0
H1586 H 0.33129 0.98845 0.04714 0.0
H1587 H 0.31468 0.99529 0.06584 0.0
H1588 H 0.33717 0.00791 0.06338 0.0
O1589 O 0.33836 0.92759 0.04137 0.0
O1590 O 0.357 0.91225 0.06227 0.0
H1591 H 0.37824 0.96079 0.11853 0.0
H1592 H 0.35805 0.97261 0.12952 0.0
C1593 C 0.3623 0.9613 0.11909 0.0
H1594 H 0.35678 0.94729 0.1243 0.0
H1595 H 0.39201 0.93273 0.09806 0.0
O1596 O 0.30771 0.96079 0.0399 0.0
C1597 C 0.35114 0.91509 0.04514 0.0
Co1598 Co 0.66735 0.55273 0.05827 0.0
Co1599 Co 0.63962 0.57461 0.08596 0.0
C1600 C 0.6826 0.57999 0.08733 0.0
O1601 O 0.68571 0.56762 0.07422 0.0
O1602 O 0.6656 0.58406 0.09262 0.0
C1603 C 0.69838 0.52858 0.04685 0.0
O1604 O 0.70411 0.53132 0.06466 0.0
C1605 C 0.62853 0.58673 0.12389 0.0
C1606 C 0.59908 0.59805 0.12011 0.0
C1607 C 0.61356 0.59553 0.13362 0.0
N1608 N 0.62331 0.58439 0.10547 0.0
N1609 N 0.60567 0.59112 0.10323 0.0
C1610 C 0.64714 0.57955 0.13206 0.0
H1611 H 0.65248 0.56709 0.12363 0.0
H1612 H 0.64536 0.57524 0.14733 0.0
H1613 H 0.65807 0.59116 0.13127 0.0
C1614 C 0.64949 0.51915 0.07689 0.0
N1615 N 0.65068 0.5382 0.07382 0.0
N1616 N 0.63889 0.54719 0.08559 0.0
C1617 C 0.62982 0.53399 0.0966 0.0
C1618 C 0.63647 0.51586 0.09156 0.0
C1619 C 0.66115 0.5043 0.06655 0.0
H1620 H 0.66157 0.50761 0.05096 0.0
H1621 H 0.67604 0.50442 0.07225 0.0
H1622 H 0.65503 0.48969 0.06858 0.0
O1623 O 0.65269 0.5704 0.04156 0.0
O1624 O 0.63257 0.58613 0.06082 0.0
H1625 H 0.60618 0.55002 0.10822 0.0
H1626 H 0.60827 0.52581 0.1175 0.0
C1627 C 0.61643 0.53869 0.11278 0.0
H1628 H 0.62484 0.54415 0.12517 0.0
H1629 H 0.59824 0.59118 0.09018 0.0
O1630 O 0.68269 0.53609 0.04124 0.0
C1631 C 0.63951 0.58284 0.04418 0.0
H1632 H 0.12041 0.34579 0.35585 0.0
H1633 H 0.11535 0.23844 0.39635 0.0
H1634 H 0.08303 0.32926 0.40248 0.0
H1635 H 0.1647 0.26093 0.36639 0.0
H1636 H 0.09996 0.2702 0.39422 0.0
H1637 H 0.13392 0.31331 0.35551 0.0
C1638 C 0.11499 0.33522 0.36594 0.0
C1639 C 0.10048 0.34 0.37908 0.0
C1640 C 0.11408 0.26813 0.38797 0.0
C1641 C 0.11583 0.30298 0.3788 0.0
C1642 C 0.12272 0.25005 0.38902 0.0
C1643 C 0.14118 0.2473 0.38146 0.0
C1644 C 0.12397 0.28337 0.37914 0.0
C1645 C 0.15039 0.26265 0.37229 0.0
C1646 C 0.12275 0.31676 0.3658 0.0
C1647 C 0.09421 0.32602 0.39214 0.0
N1648 N 0.14168 0.28011 0.37139 0.0
N1649 N 0.10184 0.30802 0.3916 0.0
H1650 H 0.4896 0.63011 0.84854 0.0
H1651 H 0.6022 0.61351 0.85676 0.0
H1652 H 0.51391 0.57722 0.86992 0.0
H1653 H 0.57725 0.67005 0.86178 0.0
H1654 H 0.56978 0.59951 0.85728 0.0
H1655 H 0.52156 0.64505 0.85011 0.0
C1656 C 0.50166 0.62178 0.85386 0.0
C1657 C 0.49929 0.60246 0.8591 0.0
C1658 C 0.57141 0.61497 0.85829 0.0
C1659 C 0.53571 0.61912 0.86035 0.0
C1660 C 0.58982 0.62292 0.85782 0.0
C1661 C 0.59218 0.64285 0.85932 0.0
C1662 C 0.55536 0.62714 0.85992 0.0
C1663 C 0.57585 0.65456 0.86075 0.0
C1664 C 0.51984 0.63023 0.85464 0.0
C1665 C 0.51531 0.59213 0.86562 0.0
N1666 N 0.55804 0.64653 0.86093 0.0
N1667 N 0.53294 0.60052 0.86584 0.0
H1668 H 0.85413 0.24412 0.35852 0.0
H1669 H 0.89801 0.15358 0.41486 0.0
H1670 H 0.85459 0.23913 0.42031 0.0
H1671 H 0.88652 0.1541 0.35386 0.0
H1672 H 0.88538 0.18643 0.41703 0.0
H1673 H 0.86994 0.21262 0.35624 0.0
C1674 C 0.85767 0.23636 0.37156 0.0
C1675 C 0.85291 0.24393 0.38958 0.0
C1676 C 0.88585 0.17939 0.40314 0.0
C1677 C 0.87085 0.20818 0.38722 0.0
C1678 C 0.89303 0.16068 0.40191 0.0
C1679 C 0.89383 0.15131 0.38408 0.0
C1680 C 0.8793 0.18868 0.38642 0.0
C1681 C 0.88698 0.16103 0.36777 0.0
C1682 C 0.8666 0.21843 0.3703 0.0
C1683 C 0.85778 0.23351 0.40614 0.0
N1684 N 0.88003 0.17919 0.36932 0.0
N1685 N 0.86645 0.21611 0.40457 0.0
H1686 H 0.40556 0.84286 0.83232 0.0
H1687 H 0.4934 0.89531 0.88528 0.0
H1688 H 0.40209 0.86581 0.88989 0.0
H1689 H 0.49081 0.88677 0.82394 0.0
H1690 H 0.46135 0.8807 0.88828 0.0
H1691 H 0.43826 0.85575 0.82967 0.0
C1692 C 0.41173 0.85049 0.84443 0.0
C1693 C 0.40132 0.85278 0.86154 0.0
C1694 C 0.46781 0.88201 0.87416 0.0
C1695 C 0.43856 0.86753 0.85865 0.0
C1696 C 0.48605 0.89023 0.87251 0.0
C1697 C 0.49449 0.89227 0.85436 0.0
C1698 C 0.45816 0.87568 0.85754 0.0
C1699 C 0.48456 0.88556 0.83816 0.0
C1700 C 0.43036 0.85781 0.84293 0.0
C1701 C 0.40987 0.86297 0.87674 0.0
N1702 N 0.46688 0.87754 0.84011 0.0
N1703 N 0.42803 0.86989 0.87497 0.0
H1704 H 0.14766 0.73864 0.07166 0.0
H1705 H 0.07888 0.66629 0.12715 0.0
H1706 H 0.13055 0.74796 0.13057 0.0
H1707 H 0.11928 0.64701 0.08421 0.0
H1708 H 0.09212 0.69884 0.12457 0.0
H1709 H 0.13202 0.70717 0.07236 0.0
C1710 C 0.14081 0.73396 0.08482 0.0
C1711 C 0.14078 0.74567 0.10126 0.0
C1712 C 0.09808 0.68746 0.11576 0.0
C1713 C 0.12222 0.71015 0.10184 0.0
C1714 C 0.09067 0.66891 0.11731 0.0
C1715 C 0.09865 0.65387 0.1065 0.0
C1716 C 0.11315 0.69103 0.10287 0.0
C1717 C 0.11305 0.65819 0.09309 0.0
C1718 C 0.13174 0.71611 0.08513 0.0
C1719 C 0.13092 0.73929 0.11764 0.0
N1720 N 0.11997 0.67642 0.09172 0.0
N1721 N 0.12199 0.7219 0.11753 0.0
H1722 H 0.89891 0.62314 0.10597 0.0
H1723 H 0.00316 0.62528 0.15414 0.0
H1724 H 0.9112 0.65475 0.15792 0.0
H1725 H 0.98481 0.58101 0.11484 0.0
H1726 H 0.97086 0.63957 0.15267 0.0
H1727 H 0.93167 0.61044 0.10624 0.0
C1728 C 0.90861 0.6275 0.11736 0.0
C1729 C 0.90257 0.6402 0.1318 0.0
C1730 C 0.97394 0.6268 0.14428 0.0
C1731 C 0.93991 0.62566 0.13228 0.0
C1732 C 0.99232 0.6188 0.145 0.0
C1733 C 0.99642 0.60214 0.13448 0.0
C1734 C 0.95974 0.61806 0.13286 0.0
C1735 C 0.98204 0.59399 0.12302 0.0
C1736 C 0.92723 0.62017 0.11757 0.0
C1737 C 0.91545 0.64502 0.14652 0.0
N1738 N 0.96427 0.60205 0.12248 0.0
N1739 N 0.93364 0.63784 0.14633 0.0
H1740 H 0.89938 0.83749 0.08307 0.0
H1741 H 0.85014 0.74919 0.13866 0.0
H1742 H 0.88081 0.84003 0.14222 0.0
H1743 H 0.86003 0.75015 0.07749 0.0
H1744 H 0.86507 0.78115 0.1412 0.0
H1745 H 0.88799 0.80418 0.08138 0.0
C1746 C 0.89305 0.83097 0.09572 0.0
C1747 C 0.89148 0.84135 0.11293 0.0
C1748 C 0.86408 0.77431 0.12724 0.0
C1749 C 0.87839 0.80341 0.11115 0.0
C1750 C 0.8557 0.75611 0.12585 0.0
C1751 C 0.85388 0.74728 0.10786 0.0
C1752 C 0.87068 0.78358 0.11049 0.0
C1753 C 0.86112 0.75669 0.09159 0.0
C1754 C 0.8866 0.81199 0.09479 0.0
C1755 C 0.883 0.83234 0.12888 0.0
N1756 N 0.86915 0.7744 0.09327 0.0
N1757 N 0.87679 0.81388 0.12762 0.0
H1758 H -0.00147 0.8878 0.16815 0.0
H1759 H 0.08109 0.84342 0.10226 0.0
H1760 H -0.00145 0.89285 0.10635 0.0
H1761 H 0.08902 0.85605 0.16251 0.0
H1762 H 0.04888 0.85717 0.10383 0.0
H1763 H 0.02973 0.87164 0.16664 0.0
C1764 C 0.00516 0.88541 0.15425 0.0
C1765 C 0.99616 0.89169 0.13734 0.0
C1766 C 0.05772 0.85707 0.11667 0.0
C1767 C 0.0316 0.87314 0.13548 0.0
C1768 C 0.0762 0.84944 0.11575 0.0
C1769 C 0.08802 0.84936 0.13212 0.0
C1770 C 0.05086 0.8643 0.13419 0.0
C1771 C 0.08046 0.85619 0.1495 0.0
C1772 C 0.0229 0.87621 0.1534 0.0
C1773 C 0.00507 0.88807 0.11967 0.0
N1774 N 0.06234 0.8635 0.15007 0.0
N1775 N 0.0224 0.87902 0.11917 0.0
H1776 H 0.35924 0.14465 0.25027 0.0
H1777 H 0.41377 0.0956 0.33923 0.0
H1778 H 0.42076 0.13759 0.25319 0.0
H1779 H 0.35435 0.11347 0.34088 0.0
H1780 H 0.41613 0.1081 0.30638 0.0
H1781 H 0.3564 0.12971 0.28217 0.0
C1782 C 0.37209 0.13981 0.25765 0.0
C1783 C 0.39023 0.1424 0.24937 0.0
C1784 C 0.40253 0.10911 0.31389 0.0
C1785 C 0.38724 0.12548 0.28555 0.0
C1786 C 0.4012 0.10203 0.33261 0.0
C1787 C 0.38371 0.10303 0.34257 0.0
C1788 C 0.38627 0.11737 0.30517 0.0
C1789 C 0.3679 0.11167 0.33347 0.0
C1790 C 0.37052 0.13139 0.2758 0.0
C1791 C 0.40653 0.13597 0.25933 0.0
N1792 N 0.36953 0.11846 0.31526 0.0
N1793 N 0.40467 0.12782 0.27694 0.0
H1794 H 0.39529 0.39023 0.99583 0.0
H1795 H 0.34654 0.33378 0.90779 0.0
H1796 H 0.38535 0.32903 0.99522 0.0
H1797 H 0.36241 0.39376 0.90582 0.0
H1798 H 0.35809 0.33228 0.94103 0.0
H1799 H 0.37996 0.39263 0.96407 0.0
C1800 C 0.38965 0.37738 0.98903 0.0
C1801 C 0.39156 0.35943 -0.00211 0.0
C1802 C 0.35885 0.34583 0.93338 0.0
C1803 C 0.37433 0.3619 0.96181 0.0
C1804 C 0.35231 0.34666 0.91443 0.0
C1805 C 0.35311 0.36401 0.90424 0.0
C1806 C 0.36641 0.36245 0.94208 0.0
C1807 C 0.36086 0.38026 0.91338 0.0
C1808 C 0.38102 0.37869 0.97094 0.0
C1809 C 0.38421 0.34311 0.98864 0.0
N1810 N 0.36722 0.37908 0.93179 0.0
N1811 N 0.37597 0.34471 0.97103 0.0
H1812 H 0.59314 0.37604 0.24122 0.0
H1813 H 0.63933 0.37313 0.34631 0.0
H1814 H 0.63246 0.33188 0.25972 0.0
H1815 H 0.58661 0.40327 0.33368 0.0
H1816 H 0.6402 0.36126 0.31324 0.0
H1817 H 0.59415 0.39012 0.27363 0.0
C1818 C 0.60228 0.36961 0.25209 0.0
C1819 C 0.61289 0.353 0.24803 0.0
C1820 C 0.62845 0.37048 0.31767 0.0
C1821 C 0.61392 0.36863 0.28483 0.0
C1822 C 0.62799 0.37732 0.33647 0.0
C1823 C 0.61299 0.38934 0.34252 0.0
C1824 C 0.61385 0.37583 0.30481 0.0
C1825 C 0.59841 0.39402 0.32944 0.0
C1826 C 0.6027 0.37747 0.27054 0.0
C1827 C 0.62427 0.34485 0.26245 0.0
N1828 N 0.59926 0.38735 0.31107 0.0
N1829 N 0.6245 0.35276 0.2803 0.0
H1830 H 0.63531 0.16459 0.89854 0.0
H1831 H 0.60499 0.1086 0.99353 0.0
H1832 H 0.6546 0.10692 0.91096 0.0
H1833 H 0.60663 0.17053 0.99046 0.0
H1834 H 0.62101 0.10703 0.9621 0.0
H1835 H 0.62247 0.16684 0.93135 0.0
C1836 C 0.63675 0.15241 0.90815 0.0
C1837 C 0.64531 0.1353 0.90184 0.0
C1838 C 0.61797 0.12096 0.9684 0.0
C1839 C 0.63083 0.13772 0.93915 0.0
C1840 C 0.60894 0.12182 0.9863 0.0
C1841 C 0.60456 0.13969 0.99445 0.0
C1842 C 0.62232 0.13811 0.95858 0.0
C1843 C 0.60962 0.15647 0.98446 0.0
C1844 C 0.62948 0.15368 0.92682 0.0
C1845 C 0.64723 0.12004 0.91493 0.0
N1846 N 0.6181 0.15529 0.96694 0.0
N1847 N 0.63983 0.12152 0.93291 0.0
H1848 H 0.35233 0.90363 0.16094 0.0
H1849 H 0.41957 0.85722 0.24118 0.0
H1850 H 0.41211 0.89025 0.15097 0.0
H1851 H 0.35776 0.85212 0.24192 0.0
H1852 H 0.4176 0.87366 0.21014 0.0
H1853 H 0.35461 0.88911 0.19274 0.0
C1854 C 0.36587 0.8973 0.1653 0.0
C1855 C 0.38187 0.89737 0.15301 0.0
C1856 C 0.40447 0.869 0.21711 0.0
C1857 C 0.38477 0.88153 0.18972 0.0
C1858 C 0.40557 0.85963 0.23476 0.0
C1859 C 0.38878 0.85332 0.24395 0.0
C1860 C 0.38641 0.87223 0.20873 0.0
C1861 C 0.37099 0.85696 0.23528 0.0
C1862 C 0.36719 0.88921 0.18354 0.0
C1863 C 0.39936 0.89011 0.1599 0.0
N1864 N 0.37025 0.86621 0.21808 0.0
N1865 N 0.40034 0.88236 0.17783 0.0
H1866 H 0.14987 0.33331 0.08714 0.0
H1867 H 0.1012 0.38921 -0.00128 0.0
H1868 H 0.13418 0.39334 0.08865 0.0
H1869 H 0.11063 0.32795 -0.00014 0.0
H1870 H 0.11656 0.39179 0.03046 0.0
H1871 H 0.13813 0.33153 0.05397 0.0
C1872 C 0.1441 0.34614 0.08042 0.0
C1873 C 0.14343 0.3636 0.09046 0.0
C1874 C 0.11537 0.37779 0.02371 0.0
C1875 C 0.12992 0.36172 0.05269 0.0
C1876 C 0.10674 0.37638 0.00563 0.0
C1877 C 0.10467 0.35837 -0.00308 0.0
C1878 C 0.12194 0.36103 0.03298 0.0
C1879 C 0.11189 0.34207 0.00632 0.0
C1880 C 0.13745 0.34515 0.06151 0.0
C1881 C 0.13566 0.37977 0.08121 0.0
N1882 N 0.12015 0.34377 0.02391 0.0
N1883 N 0.12921 0.37844 0.06284 0.0
H1884 H 0.57754 0.63021 0.24712 0.0
H1885 H 0.64272 0.61197 0.15445 0.0
H1886 H 0.63765 0.64503 0.24427 0.0
H1887 H 0.58323 0.59473 0.15843 0.0
H1888 H 0.64169 0.62252 0.18783 0.0
H1889 H 0.5799 0.61524 0.21539 0.0
C1890 C 0.5913 0.63006 0.23979 0.0
C1891 C 0.60743 0.63881 0.24809 0.0
C1892 C 0.62891 0.61624 0.18151 0.0
C1893 C 0.61025 0.62201 0.21184 0.0
C1894 C 0.62954 0.61002 0.16247 0.0
C1895 C 0.61316 0.60199 0.15383 0.0
C1896 C 0.6117 0.61465 0.19191 0.0
C1897 C 0.5962 0.60073 0.16464 0.0
C1898 C 0.59264 0.62158 0.22171 0.0
C1899 C 0.62495 0.63832 0.23823 0.0
N1900 N 0.59591 0.60698 0.18315 0.0
N1901 N 0.62588 0.63018 0.22047 0.0
H1902 H 0.89589 0.10692 0.00138 0.0
H1903 H 0.84465 0.16367 0.08779 0.0
H1904 H 0.88246 0.16741 -0.00015 0.0
H1905 H 0.86266 0.10438 0.0913 0.0
H1906 H 0.85617 0.16474 0.05453 0.0
H1907 H 0.88076 0.10475 0.03324 0.0
C1908 C 0.88949 0.11964 0.00772 0.0
C1909 C 0.89036 0.13735 -0.00179 0.0
C1910 C 0.85742 0.15143 0.06252 0.0
C1911 C 0.87338 0.13517 0.03444 0.0
C1912 C 0.8509 0.15085 0.08149 0.0
C1913 C 0.85228 0.13379 0.09212 0.0
C1914 C 0.86556 0.13487 0.05424 0.0
C1915 C 0.86065 0.11762 0.0834 0.0
C1916 C 0.88099 0.11847 0.02588 0.0
C1917 C 0.88209 0.15353 0.00691 0.0
N1918 N 0.86697 0.11855 0.06496 0.0
N1919 N 0.87401 0.15209 0.0246 0.0
H1920 H 0.34666 0.35623 0.12174 0.0
H1921 H 0.2411 0.40102 0.11793 0.0
H1922 H 0.33327 0.40767 0.08977 0.0
H1923 H 0.26094 0.36552 0.16468 0.0
H1924 H 0.27331 0.39943 0.10345 0.0
H1925 H 0.31376 0.35568 0.13416 0.0
C1926 C 0.33669 0.36734 0.11727 0.0
C1927 C 0.34247 0.38191 0.1046 0.0
C1928 C 0.27055 0.39184 0.11677 0.0
C1929 C 0.30499 0.38139 0.11869 0.0
C1930 C 0.25223 0.39259 0.12488 0.0
C1931 C 0.24861 0.38326 0.14233 0.0
C1932 C 0.28515 0.38155 0.1262 0.0
C1933 C 0.26334 0.37274 0.15108 0.0
C1934 C 0.318 0.36707 0.12441 0.0
C1935 C 0.32924 0.39622 0.09953 0.0
N1936 N 0.28106 0.37216 0.14291 0.0
N1937 N 0.31098 0.39553 0.1065 0.0
H1938 H 0.33112 0.58717 0.41005 0.0
H1939 H 0.25917 0.62557 0.3294 0.0
H1940 H 0.34478 0.63449 0.37235 0.0
H1941 H 0.24003 0.59263 0.37824 0.0
H1942 H 0.29136 0.62761 0.34375 0.0
H1943 H 0.29829 0.58673 0.39693 0.0
C1944 C 0.32716 0.5974 0.39898 0.0
C1945 C 0.34043 0.61106 0.39242 0.0
C1946 C 0.28008 0.62013 0.35146 0.0
C1947 C 0.30326 0.61065 0.37738 0.0
C1948 C 0.26178 0.61907 0.34332 0.0
C1949 C 0.24716 0.60908 0.35284 0.0
C1950 C 0.28372 0.61082 0.36903 0.0
C1951 C 0.25107 0.6006 0.37067 0.0
C1952 C 0.30847 0.59727 0.39163 0.0
C1953 C 0.33477 0.624 0.37803 0.0
N1954 N 0.2691 0.6015 0.37817 0.0
N1955 N 0.3166 0.62346 0.37096 0.0
H1956 H 0.89277 0.40171 0.86309 0.0
H1957 H 0.82637 0.49349 0.88063 0.0
H1958 H 0.83589 0.40764 0.83895 0.0
H1959 H 0.88635 0.49159 0.89615 0.0
H1960 H 0.8296 0.46209 0.86506 0.0
H1961 H 0.89076 0.43449 0.8753 0.0
C1962 C 0.88 0.41005 0.86 0.0
C1963 C 0.86468 0.40215 0.84949 0.0
C1964 C 0.84212 0.46857 0.8717 0.0
C1965 C 0.862 0.43949 0.86405 0.0
C1966 C 0.84027 0.48643 0.88054 0.0
C1967 C 0.85614 0.49492 0.88959 0.0
C1968 C 0.85995 0.45908 0.87211 0.0
C1969 C 0.87385 0.48541 0.88919 0.0
C1970 C 0.87879 0.42873 0.86715 0.0
C1971 C 0.84808 0.41327 0.84685 0.0
N1972 N 0.87527 0.46785 0.8807 0.0
N1973 N 0.84718 0.43141 0.85407 0.0
H1974 H 0.64617 0.91525 0.38159 0.0
H1975 H 0.7443 0.86118 0.35732 0.0
H1976 H 0.66212 0.8609 0.40691 0.0
H1977 H 0.73655 0.9221 0.34844 0.0
H1978 H 0.71316 0.86005 0.37381 0.0
H1979 H 0.67853 0.91775 0.36767 0.0
C1980 C 0.6565 0.90387 0.38418 0.0
C1981 C 0.65134 0.88754 0.39477 0.0
C1982 C 0.7183 0.87367 0.36826 0.0
C1983 C 0.68812 0.89022 0.37906 0.0
C1984 C 0.73602 0.87429 0.35889 0.0
C1985 C 0.74279 0.89169 0.35134 0.0
C1986 C 0.70728 0.89055 0.36991 0.0
C1987 C 0.73157 0.9083 0.35365 0.0
C1988 C 0.6749 0.90527 0.37627 0.0
C1989 C 0.66529 0.87333 0.39808 0.0
N1990 N 0.71428 0.90731 0.36263 0.0
N1991 N 0.68298 0.87488 0.39006 0.0
H1992 H 0.60462 0.49829 0.39579 0.0
H1993 H 0.66027 0.58586 0.34532 0.0
H1994 H 0.66538 0.49814 0.38357 0.0
H1995 H 0.6009 0.58837 0.36322 0.0
H1996 H 0.66184 0.55257 0.35675 0.0
H1997 H 0.60203 0.53011 0.38061 0.0
C1998 C 0.61732 0.50492 0.38966 0.0
C1999 C 0.63522 0.49583 0.3909 0.0
C2000 C 0.64841 0.56036 0.35799 0.0
C2001 C 0.63256 0.53199 0.37385 0.0
C2002 C 0.64754 0.57934 0.35153 0.0
C2003 C 0.63032 0.58969 0.35291 0.0
C2004 C 0.63196 0.55179 0.36606 0.0
C2005 C 0.61427 0.58069 0.36121 0.0
C2006 C 0.61591 0.52305 0.38113 0.0
C2007 C 0.65136 0.50489 0.38294 0.0
N2008 N 0.61548 0.56225 0.36747 0.0
N2009 N 0.64968 0.52254 0.37482 0.0
H2010 H 0.24489 0.63435 0.64167 0.0
H2011 H 0.15321 0.57957 0.59817 0.0
H2012 H 0.23988 0.57261 0.6389 0.0
H2013 H 0.15369 0.64001 0.61234 0.0
H2014 H 0.18632 0.57702 0.60996 0.0
H2015 H 0.21281 0.63721 0.62712 0.0
C2016 C 0.23701 0.62145 0.63788 0.0
C2017 C 0.24474 0.60325 0.64163 0.0
C2018 C 0.17921 0.59088 0.6103 0.0
C2019 C 0.20835 0.60628 0.62512 0.0
C2020 C 0.16035 0.59232 0.60361 0.0
C2021 C 0.15088 0.61012 0.6038 0.0
C2022 C 0.18859 0.60736 0.61733 0.0
C2023 C 0.16067 0.62617 0.61117 0.0
C2024 C 0.21875 0.62304 0.62968 0.0
C2025 C 0.23416 0.58689 0.63648 0.0
N2026 N 0.17901 0.62442 0.6176 0.0
N2027 N 0.21645 0.58878 0.62851 0.0
H2028 H 0.8566 0.60255 0.61103 0.0
H2029 H 0.8505 0.4896 0.6287 0.0
H2030 H 0.8581 0.57782 0.66786 0.0
H2031 H 0.86875 0.51446 0.57493 0.0
H2032 H 0.85141 0.52164 0.64346 0.0
H2033 H 0.85798 0.57014 0.59723 0.0
C2034 C 0.85708 0.59022 0.62055 0.0
C2035 C 0.85741 0.59268 0.64052 0.0
C2036 C 0.85541 0.52005 0.62849 0.0
C2037 C 0.85907 0.55579 0.62501 0.0
C2038 C 0.85502 0.50181 0.62014 0.0
C2039 C 0.8595 0.49958 0.60063 0.0
C2040 C 0.86006 0.53609 0.61711 0.0
C2041 C 0.86505 0.51576 0.59001 0.0
C2042 C 0.85806 0.57179 0.61272 0.0
C2043 C 0.85812 0.57639 0.65235 0.0
N2044 N 0.86497 0.53342 0.59833 0.0
N2045 N 0.85888 0.55855 0.64441 0.0
H2046 H 0.10729 0.99313 0.59997 0.0
H2047 H 0.16341 0.89985 0.63661 0.0
H2048 H 0.16908 0.9905 0.60468 0.0
H2049 H 0.10333 0.91004 0.64837 0.0
H2050 H 0.16572 0.93227 0.62287 0.0
H2051 H 0.10516 0.96162 0.61578 0.0
C2052 C 0.12036 0.98597 0.60454 0.0
C2053 C 0.13836 0.99429 0.60112 0.0
C2054 C 0.15201 0.92733 0.62837 0.0
C2055 C 0.13615 0.95834 0.61872 0.0
C2056 C 0.1507 0.90887 0.63617 0.0
C2057 C 0.13301 0.90203 0.64296 0.0
C2058 C 0.1355 0.93897 0.62746 0.0
C2059 C 0.11704 0.91438 0.64243 0.0
C2060 C 0.11917 0.96801 0.61345 0.0
C2061 C 0.15493 0.98439 0.60696 0.0
N2062 N 0.11862 0.9322 0.63465 0.0
N2063 N 0.15345 0.96686 0.61538 0.0
H2064 H 0.63887 0.75232 0.9214 0.0
H2065 H 0.57698 0.82888 0.8645 0.0
H2066 H 0.6364 0.75224 0.8594 0.0
H2067 H 0.61237 0.84598 0.91253 0.0
H2068 H 0.59079 0.79649 0.86623 0.0
H2069 H 0.6217 0.78309 0.92175 0.0
C2070 C 0.63468 0.75879 0.90787 0.0
C2071 C 0.63912 0.74986 0.89031 0.0
C2072 C 0.59545 0.80736 0.87639 0.0
C2073 C 0.61898 0.78447 0.89072 0.0
C2074 C 0.58772 0.8258 0.87537 0.0
C2075 C 0.5943 0.84026 0.88782 0.0
C2076 C 0.60928 0.80325 0.89043 0.0
C2077 C 0.6073 0.83529 0.90239 0.0
C2078 C 0.62483 0.77622 0.90812 0.0
C2079 C 0.633 0.75856 0.87321 0.0
N2080 N 0.61453 0.81713 0.90324 0.0
N2081 N 0.62312 0.77542 0.87383 0.0
H2082 H 0.98973 0.12758 0.35724 0.0
H2083 H 0.10264 0.10893 0.36276 0.0
H2084 H 0.01444 0.07265 0.37193 0.0
H2085 H 0.07811 0.16588 0.36327 0.0
H2086 H 0.07023 0.09528 0.36472 0.0
H2087 H 0.02175 0.14221 0.35936 0.0
C2088 C 0.0019 0.11872 0.36129 0.0
C2089 C -0.00035 0.09892 0.36426 0.0
C2090 C 0.07191 0.11077 0.36452 0.0
C2091 C 0.03617 0.1153 0.36622 0.0
C2092 C 0.09036 0.11852 0.36322 0.0
C2093 C 0.0929 0.13849 0.36306 0.0
C2094 C 0.05594 0.12312 0.36538 0.0
C2095 C 0.07665 0.15038 0.36373 0.0
C2096 C 0.02015 0.127 0.36235 0.0
C2097 C 0.01576 0.08796 0.36932 0.0
N2098 N 0.05879 0.14251 0.3648 0.0
N2099 N 0.03343 0.09625 0.3699 0.0
H2100 H 0.37828 0.64762 0.91132 0.0
H2101 H 0.35677 0.74556 0.85943 0.0
H2102 H 0.41299 0.66601 0.86329 0.0
H2103 H 0.3541 0.74134 0.92128 0.0
H2104 H 0.37366 0.71448 0.85854 0.0
H2105 H 0.36541 0.68043 0.91395 0.0
C2106 C 0.38315 0.65855 0.90134 0.0
C2107 C 0.39604 0.65397 0.88655 0.0
C2108 C 0.36946 0.72051 0.87228 0.0
C2109 C 0.38138 0.69115 0.88934 0.0
C2110 C 0.35994 0.73818 0.87279 0.0
C2111 C 0.35409 0.74593 0.89044 0.0
C2112 C 0.37264 0.71043 0.88949 0.0
C2113 C 0.35812 0.73566 0.90735 0.0
C2114 C 0.37583 0.67718 0.90283 0.0
C2115 C 0.40226 0.66872 0.87423 0.0
N2116 N 0.36696 0.7183 0.90647 0.0
N2117 N 0.39458 0.68661 0.87565 0.0
H2118 H 0.91178 0.33527 0.38547 0.0
H2119 H 0.98892 0.39097 0.32173 0.0
H2120 H 0.89797 0.35972 0.33014 0.0
H2121 H 0.99341 0.38606 0.3834 0.0
H2122 H 0.95767 0.37483 0.32295 0.0
H2123 H 0.94406 0.34888 0.38318 0.0
C2124 C 0.91549 0.34373 0.37293 0.0
C2125 C 0.902 0.34711 0.35831 0.0
C2126 C 0.96551 0.37725 0.3362 0.0
C2127 C 0.93908 0.36202 0.35529 0.0
C2128 C 0.98326 0.3865 0.33554 0.0
C2129 C 0.99356 0.38995 0.35254 0.0
C2130 C 0.95817 0.3712 0.35397 0.0
C2131 C 0.98588 0.38354 0.37 0.0
C2132 C 0.93395 0.35134 0.37159 0.0
C2133 C 0.90789 0.35715 0.34188 0.0
N2134 N 0.96858 0.37444 0.37029 0.0
N2135 N 0.92602 0.36441 0.34084 0.0
H2136 H 0.59667 0.15576 0.58243 0.0
H2137 H 0.64292 0.24466 0.6396 0.0
H2138 H 0.61068 0.15435 0.64287 0.0
H2139 H 0.63876 0.24187 0.57781 0.0
H2140 H 0.62746 0.21293 0.64167 0.0
H2141 H 0.60909 0.1887 0.5808 0.0
C2142 C 0.6022 0.16245 0.59537 0.0
C2143 C 0.60217 0.15252 0.6129 0.0
C2144 C 0.62989 0.21929 0.62766 0.0
C2145 C 0.61644 0.19002 0.61119 0.0
C2146 C 0.63861 0.23735 0.62652 0.0
C2147 C 0.64221 0.24559 0.60854 0.0
C2148 C 0.6247 0.20961 0.61065 0.0
C2149 C 0.63641 0.23574 0.59194 0.0
C2150 C 0.60925 0.18122 0.59446 0.0
C2151 C 0.60968 0.16172 0.62923 0.0
N2152 N 0.62798 0.21821 0.59338 0.0
N2153 N 0.61649 0.17997 0.62799 0.0
H2154 H 0.41193 0.15808 0.65623 0.0
H2155 H 0.48381 0.08026 0.61249 0.0
H2156 H 0.39909 0.12525 0.60518 0.0
H2157 H 0.50275 0.12573 0.6501 0.0
H2158 H 0.45197 0.09543 0.61068 0.0
H2159 H 0.44468 0.14476 0.65605 0.0
C2160 C 0.41607 0.14808 0.64501 0.0
C2161 C 0.40304 0.14295 0.63053 0.0
C2162 C 0.46316 0.10224 0.61912 0.0
C2163 C 0.44011 0.12765 0.63025 0.0
C2164 C 0.48125 0.09365 0.62006 0.0
C2165 C 0.49571 0.10199 0.63127 0.0
C2166 C 0.45953 0.11903 0.62982 0.0
C2167 C 0.49185 0.1191 0.64114 0.0
C2168 C 0.43471 0.14061 0.64482 0.0
C2169 C 0.40891 0.12989 0.61634 0.0
N2170 N 0.47401 0.12702 0.64035 0.0
N2171 N 0.42702 0.12263 0.61658 0.0
H2172 H 0.35308 0.25012 0.63605 0.0
H2173 H 0.38907 0.34297 0.57863 0.0
H2174 H 0.35454 0.25321 0.57414 0.0
H2175 H 0.40206 0.33279 0.63846 0.0
H2176 H 0.37477 0.31075 0.57673 0.0
H2177 H 0.36947 0.28137 0.6376 0.0
C2178 C 0.35701 0.25737 0.62283 0.0
C2179 C 0.35249 0.24926 0.60497 0.0
C2180 C 0.38069 0.31564 0.5903 0.0
C2181 C 0.37083 0.28487 0.60652 0.0
C2182 C 0.38881 0.33398 0.59136 0.0
C2183 C 0.39609 0.34077 0.60888 0.0
C2184 C 0.37997 0.30406 0.60686 0.0
C2185 C 0.39577 0.32847 0.62489 0.0
C2186 C 0.36628 0.27516 0.62367 0.0
C2187 C 0.35761 0.25919 0.58819 0.0
N2188 N 0.38768 0.31077 0.62355 0.0
N2189 N 0.36643 0.27656 0.58936 0.0
H2190 H 0.49912 0.38154 0.61287 0.0
H2191 H 0.59917 0.3658 0.66525 0.0
H2192 H 0.50757 0.39601 0.67262 0.0
H2193 H 0.58089 0.33086 0.61735 0.0
H2194 H 0.56645 0.37891 0.6676 0.0
H2195 H 0.53018 0.36481 0.613 0.0
C2196 C 0.50752 0.38115 0.626 0.0
C2197 C 0.501 0.39041 0.64265 0.0
C2198 C 0.56963 0.36833 0.65661 0.0
C2199 C 0.53641 0.37161 0.6429 0.0
C2200 C 0.58823 0.36087 0.6553 0.0
C2201 C 0.59279 0.34783 0.64064 0.0
C2202 C 0.55566 0.36268 0.64313 0.0
C2203 C 0.57809 0.34156 0.62831 0.0
C2204 C 0.52518 0.37163 0.62609 0.0
C2205 C 0.51238 0.38956 0.6593 0.0
N2206 N 0.56023 0.34928 0.62962 0.0
N2207 N 0.52964 0.38047 0.65897 0.0
H2208 H 0.8519 0.64684 0.75148 0.0
H2209 H 0.90816 0.59336 0.83687 0.0
H2210 H 0.91221 0.63264 0.74962 0.0
H2211 H 0.84897 0.61161 0.84067 0.0
H2212 H 0.9094 0.60574 0.80393 0.0
H2213 H 0.84964 0.63134 0.78317 0.0
C2214 C 0.86457 0.64023 0.75772 0.0
C2215 C 0.88225 0.64097 0.74817 0.0
C2216 C 0.89608 0.60686 0.81191 0.0
C2217 C 0.87996 0.62354 0.78418 0.0
C2218 C 0.8954 0.59985 0.8307 0.0
C2219 C 0.87832 0.60104 0.8413 0.0
C2220 C 0.87958 0.6153 0.80379 0.0
C2221 C 0.86223 0.60974 0.83276 0.0
C2222 C 0.86335 0.63151 0.77577 0.0
C2223 C 0.89835 0.6324 0.75673 0.0
N2224 N 0.86325 0.61653 0.8145 0.0
N2225 N 0.89686 0.6241 0.77431 0.0
H2226 H 0.85771 0.82701 0.39531 0.0
H2227 H 0.88492 0.88097 0.49313 0.0
H2228 H 0.83664 0.88335 0.41052 0.0
H2229 H 0.89412 0.82024 0.4844 0.0
H2230 H 0.8683 0.88251 0.46211 0.0
H2231 H 0.87212 0.82422 0.42745 0.0
C2232 C 0.85615 0.83876 0.40544 0.0
C2233 C 0.84659 0.85568 0.40014 0.0
C2234 C 0.87396 0.86883 0.46698 0.0
C2235 C 0.86285 0.85266 0.43668 0.0
C2236 C 0.88341 0.86798 0.48464 0.0
C2237 C 0.89105 0.85053 0.49113 0.0
C2238 C 0.87226 0.8521 0.45573 0.0
C2239 C 0.88881 0.83408 0.47965 0.0
C2240 C 0.86435 0.8372 0.42371 0.0
C2241 C 0.84461 0.87038 0.4138 0.0
N2242 N 0.87968 0.83527 0.46244 0.0
N2243 N 0.85284 0.86862 0.43139 0.0
H2244 H 0.08558 0.87038 0.84804 0.0
H2245 H 0.12944 0.86163 0.74471 0.0
H2246 H 0.11986 0.91662 0.82459 0.0
H2247 H 0.07072 0.84457 0.75547 0.0
H2248 H 0.12982 0.87819 0.77594 0.0
H2249 H 0.08277 0.85683 0.81572 0.0
C2250 C 0.09258 0.87772 0.83621 0.0
C2251 C 0.10373 0.89429 0.83936 0.0
C2252 C 0.1169 0.87077 0.77136 0.0
C2253 C 0.10079 0.87861 0.80251 0.0
C2254 C 0.11667 0.86137 0.75363 0.0
C2255 C 0.10015 0.85145 0.74767 0.0
C2256 C 0.10064 0.86986 0.78327 0.0
C2257 C 0.08399 0.85145 0.75978 0.0
C2258 C 0.09098 0.86992 0.81781 0.0
C2259 C 0.11221 0.90323 0.82333 0.0
N2260 N 0.0847 0.86032 0.77714 0.0
N2261 N 0.11084 0.89509 0.80563 0.0
H2262 H 0.1234 0.65001 0.50507 0.0
H2263 H 0.12511 0.60132 0.40114 0.0
H2264 H 0.08041 0.60968 0.48594 0.0
H2265 H 0.15295 0.65543 0.41324 0.0
H2266 H 0.11235 0.60083 0.43388 0.0
H2267 H 0.13858 0.64852 0.47319 0.0
C2268 C 0.11744 0.64057 0.49418 0.0
C2269 C 0.10085 0.62981 0.49791 0.0
C2270 C 0.12129 0.61278 0.42941 0.0
C2271 C 0.11777 0.62819 0.46171 0.0
C2272 C 0.12867 0.61301 0.41081 0.0
C2273 C 0.14028 0.62832 0.4047 0.0
C2274 C 0.12568 0.62792 0.442 0.0
C2275 C 0.14407 0.64337 0.41753 0.0
C2276 C 0.12594 0.63986 0.47603 0.0
C2277 C 0.09334 0.61801 0.48346 0.0
N2278 N 0.13687 0.64275 0.43571 0.0
N2279 N 0.10188 0.6175 0.46591 0.0
H2280 H 0.86929 0.4185 0.66539 0.0
H2281 H 0.92358 0.35228 0.7394 0.0
H2282 H 0.91032 0.37643 0.64547 0.0
H2283 H 0.86185 0.35808 0.74226 0.0
H2284 H 0.9234 0.369 0.7084 0.0
H2285 H 0.87116 0.4045 0.69773 0.0
C2286 C 0.87855 0.40621 0.6678 0.0
C2287 C 0.88888 0.39787 0.65261 0.0
C2288 C 0.90996 0.3667 0.71595 0.0
C2289 C 0.89198 0.3828 0.68954 0.0
C2290 C 0.90999 0.35709 0.7335 0.0
C2291 C 0.89266 0.35368 0.74327 0.0
C2292 C 0.89255 0.37339 0.70843 0.0
C2293 C 0.87552 0.36065 0.73527 0.0
C2294 C 0.87972 0.39842 0.68622 0.0
C2295 C 0.90176 0.38292 0.65675 0.0
N2296 N 0.87588 0.37031 0.71827 0.0
N2297 N 0.9029 0.37575 0.67489 0.0
H2298 H 0.60171 0.88794 0.49945 0.0
H2299 H 0.64919 0.83217 0.58833 0.0
H2300 H 0.60392 0.82612 0.50366 0.0
H2301 H 0.63145 0.89161 0.59074 0.0
H2302 H 0.63633 0.83014 0.55558 0.0
H2303 H 0.61704 0.89027 0.53123 0.0
C2304 C 0.60555 0.87491 0.50709 0.0
C2305 C 0.60144 0.85685 0.49924 0.0
C2306 C 0.63544 0.84367 0.56325 0.0
C2307 C 0.61886 0.85928 0.53522 0.0
C2308 C 0.64274 0.84482 0.58191 0.0
C2309 C 0.6419 0.86222 0.59206 0.0
C2310 C 0.62719 0.86005 0.55476 0.0
C2311 C 0.6332 0.87814 0.58318 0.0
C2312 C 0.61418 0.8762 0.52518 0.0
C2313 C 0.60666 0.84031 0.5095 0.0
N2314 N 0.62625 0.87669 0.56501 0.0
N2315 N 0.6151 0.8419 0.52701 0.0
H2316 H 0.07945 0.12889 0.74604 0.0
H2317 H 0.1439 0.11097 0.65287 0.0
H2318 H 0.13914 0.14513 0.74229 0.0
H2319 H 0.08558 0.09053 0.65854 0.0
H2320 H 0.14291 0.12237 0.68597 0.0
H2321 H 0.08188 0.11332 0.7146 0.0
C2322 C 0.09313 0.12893 0.73858 0.0
C2323 C 0.10913 0.13823 0.74654 0.0
C2324 C 0.13039 0.1152 0.68008 0.0
C2325 C 0.11203 0.12075 0.71062 0.0
C2326 C 0.13101 0.1085 0.66122 0.0
C2327 C 0.11496 0.0993 0.65314 0.0
C2328 C 0.11349 0.11295 0.69087 0.0
C2329 C 0.0983 0.09742 0.66431 0.0
C2330 C 0.09453 0.12011 0.72067 0.0
C2331 C 0.12656 0.13798 0.73652 0.0
N2332 N 0.098 0.10417 0.68265 0.0
N2333 N 0.12753 0.12949 0.71893 0.0
H2334 H 0.35881 0.66455 0.59514 0.0
H2335 H 0.38604 0.60947 0.49872 0.0
H2336 H 0.33643 0.60839 0.58109 0.0
H2337 H 0.38823 0.67129 0.50335 0.0
H2338 H 0.36975 0.60813 0.53 0.0
H2339 H 0.37158 0.66714 0.5623 0.0
C2340 C 0.35662 0.6528 0.58514 0.0
C2341 C 0.34725 0.63595 0.59097 0.0
C2342 C 0.3737 0.62199 0.52409 0.0
C2343 C 0.36165 0.63874 0.55367 0.0
C2344 C 0.38291 0.62273 0.50628 0.0
C2345 C 0.38848 0.64048 0.49861 0.0
C2346 C 0.37033 0.63912 0.5343 0.0
C2347 C 0.38439 0.6573 0.50899 0.0
C2348 C 0.36387 0.65426 0.56646 0.0
C2349 C 0.34439 0.62126 0.57742 0.0
N2350 N 0.37569 0.65621 0.52642 0.0
N2351 N 0.35179 0.62288 0.55946 0.0
H2352 H 0.83232 0.85361 0.58681 0.0
H2353 H 0.75126 0.91935 0.63411 0.0
H2354 H 0.84176 0.91309 0.60187 0.0
H2355 H 0.75103 0.85745 0.63809 0.0
H2356 H 0.78208 0.91792 0.6172 0.0
H2357 H 0.80011 0.85547 0.60054 0.0
C2358 C 0.82772 0.867 0.59331 0.0
C2359 C 0.83999 0.88302 0.594 0.0
C2360 C 0.77525 0.90465 0.62168 0.0
C2361 C 0.80286 0.88543 0.60893 0.0
C2362 C 0.75772 0.90544 0.63131 0.0
C2363 C 0.74878 0.88847 0.63752 0.0
C2364 C 0.78376 0.88672 0.6181 0.0
C2365 C 0.75748 0.87081 0.63336 0.0
C2366 C 0.80926 0.86808 0.60094 0.0
C2367 C 0.83284 0.90032 0.60144 0.0
N2368 N 0.77459 0.87038 0.6239 0.0
N2369 N 0.81473 0.90106 0.60876 0.0
H2370 H 0.83907 0.08131 0.89823 0.0
H2371 H 0.74872 0.13629 0.85251 0.0
H2372 H 0.8397 0.14144 0.88278 0.0
H2373 H 0.75425 0.07454 0.85331 0.0
H2374 H 0.78044 0.13895 0.8679 0.0
H2375 H 0.80633 0.07884 0.8854 0.0
C2376 C 0.83226 0.09402 0.89232 0.0
C2377 C 0.84192 0.11172 0.89209 0.0
C2378 C 0.77469 0.12482 0.8647 0.0
C2379 C 0.80462 0.10904 0.8774 0.0
C2380 C 0.75665 0.12334 0.85602 0.0
C2381 C 0.74917 0.10521 0.85149 0.0
C2382 C 0.78511 0.10802 0.86901 0.0
C2383 C 0.75979 0.08878 0.85633 0.0
C2384 C 0.8136 0.09262 0.88503 0.0
C2385 C 0.83254 0.1277 0.88406 0.0
N2386 N 0.77728 0.09056 0.86483 0.0
N2387 N 0.81439 0.12599 0.87709 0.0
H2388 H 0.39007 0.99342 0.39424 0.0
H2389 H 0.33422 0.90804 0.34029 0.0
H2390 H 0.32949 0.99464 0.38118 0.0
H2391 H 0.39278 0.90377 0.36041 0.0
H2392 H 0.33296 0.94112 0.35238 0.0
H2393 H 0.39247 0.96194 0.37831 0.0
C2394 C 0.37738 0.9871 0.38776 0.0
C2395 C 0.35958 0.99638 0.38896 0.0
C2396 C 0.34616 0.93299 0.35396 0.0
C2397 C 0.36202 0.96062 0.37107 0.0
C2398 C 0.34684 0.91413 0.34712 0.0
C2399 C 0.36377 0.90335 0.34893 0.0
C2400 C 0.36248 0.94101 0.36283 0.0
C2401 C 0.37968 0.9118 0.35804 0.0
C2402 C 0.37868 0.96916 0.3788 0.0
C2403 C 0.34344 0.98773 0.38056 0.0
N2404 N 0.37865 0.93014 0.36464 0.0
N2405 N 0.34501 0.97026 0.37202 0.0
H2406 H 0.15005 0.35392 0.87331 0.0
H2407 H 0.25528 0.3997 0.87634 0.0
H2408 H 0.16315 0.40579 0.90472 0.0
H2409 H 0.23568 0.36328 0.83019 0.0
H2410 H 0.22314 0.39796 0.89095 0.0
H2411 H 0.18296 0.35342 0.8609 0.0
C2412 C 0.15995 0.36513 0.87768 0.0
C2413 C 0.15409 0.37981 0.89019 0.0
C2414 C 0.22593 0.39021 0.87773 0.0
C2415 C 0.19158 0.37936 0.87608 0.0
C2416 C 0.24422 0.39104 0.86955 0.0
C2417 C 0.2479 0.3815 0.85222 0.0
C2418 C 0.21141 0.37961 0.86851 0.0
C2419 C 0.23325 0.37068 0.84368 0.0
C2420 C 0.17865 0.36489 0.87054 0.0
C2421 C 0.16724 0.39425 0.8951 0.0
N2422 N 0.21556 0.37002 0.85192 0.0
N2423 N 0.1855 0.3936 0.88812 0.0
H2424 H 0.12405 0.01194 0.91981 0.0
H2425 H 0.13053 0.07751 0.82543 0.0
H2426 H 0.13624 0.98911 0.86349 0.0
H2427 H 0.13263 0.09998 0.88318 0.0
H2428 H 0.12842 0.04483 0.83853 0.0
H2429 H 0.12197 0.04429 0.90594 0.0
C2430 C 0.126 0.0138 0.90446 0.0
C2431 C 0.13053 -0.00193 0.89274 0.0
C2432 C 0.12932 0.05691 0.84834 0.0
C2433 C 0.1283 0.03475 0.87682 0.0
C2434 C 0.13046 0.07549 0.84088 0.0
C2435 C 0.13155 0.09129 0.85332 0.0
C2436 C 0.12919 0.05423 0.86836 0.0
C2437 C 0.13185 0.08806 0.87318 0.0
C2438 C 0.12494 0.03219 0.89657 0.0
C2439 C 0.13274 0.00099 0.87294 0.0
N2440 N 0.13056 0.06985 0.88013 0.0
N2441 N 0.13177 0.01907 0.86558 0.0
H2442 H 0.74413 0.1425 0.1474 0.0
H2443 H 0.66016 0.08611 0.09179 0.0
H2444 H 0.74589 0.08189 0.13452 0.0
H2445 H 0.65465 0.14433 0.1126 0.0
H2446 H 0.69293 0.08509 0.10467 0.0
H2447 H 0.71269 0.1446 0.13133 0.0
C2448 C 0.73792 0.12973 0.14097 0.0
C2449 C 0.74737 0.11201 0.14222 0.0
C2450 C 0.6846 0.09816 0.10624 0.0
C2451 C 0.71167 0.11413 0.12412 0.0
C2452 C 0.66591 0.09871 0.09894 0.0
C2453 C 0.65487 0.11548 0.1007 0.0
C2454 C 0.6922 0.11445 0.11552 0.0
C2455 C 0.6629 0.13136 0.11025 0.0
C2456 C 0.72001 0.13086 0.13192 0.0
C2457 C 0.73886 0.09578 0.13386 0.0
N2458 N 0.68109 0.13047 0.11728 0.0
N2459 N 0.72144 0.0972 0.1252 0.0
H2460 H 0.37878 0.07976 0.16531 0.0
H2461 H 0.31946 0.00922 0.09768 0.0
H2462 H 0.33342 0.10014 0.1282 0.0
H2463 H 0.37915 -0.00045 0.11168 0.0
H2464 H 0.32096 0.04032 0.11402 0.0
H2465 H 0.37532 0.0476 0.15137 0.0
C2466 C 0.36819 0.07745 0.1541 0.0
C2467 C 0.35692 0.09271 0.14722 0.0
C2468 C 0.33372 0.03138 0.11347 0.0
C2469 C 0.35239 0.05597 0.1319 0.0
C2470 C 0.33295 0.01375 0.104 0.0
C2471 C 0.34936 0.00204 0.10297 0.0
C2472 C 0.35089 0.03712 0.12233 0.0
C2473 C 0.36621 0.00821 0.11214 0.0
C2474 C 0.36616 0.05913 0.14628 0.0
C2475 C 0.34264 0.08878 0.13356 0.0
N2476 N 0.36656 0.02537 0.12149 0.0
N2477 N 0.34084 0.07076 0.12619 0.0
H2478 H 0.66218 0.40946 0.14959 0.0
H2479 H 0.60416 0.49415 0.0969 0.0
H2480 H 0.60289 0.40484 0.13186 0.0
H2481 H 0.66461 0.49681 0.11038 0.0
H2482 H 0.60248 0.46245 0.11247 0.0
H2483 H 0.6628 0.44251 0.13739 0.0
C2484 C 0.64927 0.41547 0.14326 0.0
C2485 C 0.63234 0.40462 0.14215 0.0
C2486 C 0.61608 0.47003 0.11214 0.0
C2487 C 0.63289 0.44221 0.1281 0.0
C2488 C 0.61697 0.48809 0.10339 0.0
C2489 C 0.63453 0.49785 0.10242 0.0
C2490 C 0.6329 0.46185 0.11992 0.0
C2491 C 0.65084 0.48953 0.11082 0.0
C2492 C 0.64959 0.43431 0.13634 0.0
C2493 C 0.61604 0.41295 0.13365 0.0
N2494 N 0.64966 0.47194 0.11916 0.0
N2495 N 0.61671 0.43126 0.12695 0.0
H2496 H 0.27307 0.06857 0.40786 0.0
H2497 H 0.23753 0.17376 0.39247 0.0
H2498 H 0.31196 0.11315 0.38889 0.0
H2499 H 0.19976 0.12557 0.3822 0.0
H2500 H 0.26514 0.152 0.39101 0.0
H2501 H 0.24586 0.08898 0.39869 0.0
C2502 C 0.27588 0.08256 0.40158 0.0
C2503 C 0.29479 0.08927 0.39934 0.0
C2504 C 0.25084 0.14625 0.38868 0.0
C2505 C 0.2638 0.11269 0.38905 0.0
C2506 C 0.2351 0.15864 0.38953 0.0
C2507 C 0.21638 0.15141 0.38756 0.0
C2508 C 0.24777 0.12642 0.38638 0.0
C2509 C 0.21399 0.13172 0.38376 0.0
C2510 C 0.26037 0.09413 0.39625 0.0
C2511 C 0.29761 0.10744 0.39097 0.0
N2512 N 0.22951 0.1198 0.38371 0.0
N2513 N 0.28227 0.11868 0.38646 0.0
H2514 H 0.31873 0.47288 0.83524 0.0
H2515 H 0.42296 0.50792 0.85635 0.0
H2516 H 0.36141 0.43467 0.85931 0.0
H2517 H 0.37494 0.54694 0.86093 0.0
H2518 H 0.40065 0.48077 0.85809 0.0
H2519 H 0.33862 0.50038 0.8448 0.0
C2520 C 0.33215 0.47028 0.84274 0.0
C2521 C 0.33853 0.45144 0.84625 0.0
C2522 C 0.39501 0.49525 0.85915 0.0
C2523 C 0.36136 0.48276 0.85701 0.0
C2524 C 0.40773 0.51073 0.85816 0.0
C2525 C 0.40073 0.52963 0.85844 0.0
C2526 C 0.37513 0.49875 0.85983 0.0
C2527 C 0.38089 0.53254 0.86075 0.0
C2528 C 0.34343 0.48597 0.84828 0.0
C2529 C 0.35597 0.44893 0.85617 0.0
N2530 N 0.36869 0.51723 0.86091 0.0
N2531 N 0.36694 0.46439 0.86088 0.0
H2532 H 0.68103 0.37894 0.38837 0.0
H2533 H 0.79512 0.36728 0.38128 0.0
H2534 H 0.72116 0.42204 0.40823 0.0
H2535 H 0.75585 0.31962 0.38758 0.0
H2536 H 0.76756 0.38934 0.38039 0.0
H2537 H 0.7081 0.35918 0.37773 0.0
C2538 C 0.69551 0.38439 0.39024 0.0
C2539 C 0.69886 0.40206 0.39947 0.0
C2540 C 0.76502 0.374 0.38152 0.0
C2541 C 0.7298 0.37957 0.38713 0.0
C2542 C 0.78069 0.36141 0.38184 0.0
C2543 C 0.77769 0.34165 0.38469 0.0
C2544 C 0.74633 0.36667 0.38374 0.0
C2545 C 0.75874 0.3348 0.38554 0.0
C2546 C 0.71092 0.37308 0.38418 0.0
C2547 C 0.71794 0.40839 0.40145 0.0
N2548 N 0.74375 0.34731 0.38523 0.0
N2549 N 0.73273 0.39709 0.39544 0.0
H2550 H 0.67523 0.0214 0.83484 0.0
H2551 H 0.57089 0.98656 0.85632 0.0
H2552 H 0.63196 0.06 0.85702 0.0
H2553 H 0.61902 0.94777 0.86144 0.0
H2554 H 0.5931 0.0138 0.85768 0.0
H2555 H 0.65537 0.99407 0.84495 0.0
C2556 C 0.66169 0.02414 0.84205 0.0
C2557 C 0.65519 0.04303 0.84497 0.0
C2558 C 0.59879 -0.00064 0.85897 0.0
C2559 C 0.63239 0.01191 0.85637 0.0
C2560 C 0.58612 0.98384 0.85823 0.0
C2561 C 0.59319 0.96496 0.85874 0.0
C2562 C 0.61869 0.99594 0.85961 0.0
C2563 C 0.61304 0.96214 0.86111 0.0
C2564 C 0.65043 0.00855 0.84792 0.0
C2565 C 0.63758 0.04573 0.85449 0.0
N2566 N 0.62519 0.97749 0.861 0.0
N2567 N 0.62665 0.03036 0.85955 0.0
H2568 H 0.19392 0.87219 0.10999 0.0
H2569 H 0.30781 0.88636 0.11054 0.0
H2570 H 0.23488 0.82566 0.1124 0.0
H2571 H 0.26881 0.92648 0.08359 0.0
H2572 H 0.28044 0.86737 0.12128 0.0
H2573 H 0.22069 0.89528 0.11069 0.0
C2574 C 0.20851 0.86687 0.11137 0.0
C2575 C 0.2123 0.84705 0.11102 0.0
C2576 C 0.27788 0.88048 0.11326 0.0
C2577 C 0.24273 0.87318 0.11171 0.0
C2578 C 0.29351 0.89141 0.10715 0.0
C2579 C 0.29066 0.90799 0.09598 0.0
C2580 C 0.2592 0.88619 0.10827 0.0
C2581 C 0.27169 0.91367 0.09196 0.0
C2582 C 0.22373 0.88001 0.11155 0.0
C2583 C 0.23142 0.84085 0.11253 0.0
N2584 N 0.25664 0.90269 0.098 0.0
N2585 N 0.24596 0.85388 0.11266 0.0
H2586 H 0.13425 0.43386 0.13388 0.0
H2587 H 0.12062 0.54786 0.13119 0.0
H2588 H 0.1761 0.47367 0.15685 0.0
H2589 H 0.07369 0.50756 0.13637 0.0
H2590 H 0.14319 0.52074 0.12956 0.0
H2591 H 0.11436 0.46108 0.12394 0.0
C2592 C 0.13943 0.44832 0.13656 0.0
C2593 C 0.15673 0.4515 0.14652 0.0
C2594 C 0.1279 0.5179 0.13062 0.0
C2595 C 0.13409 0.48261 0.13497 0.0
C2596 C 0.11502 0.53331 0.13138 0.0
C2597 C 0.09532 0.52987 0.1341 0.0
C2598 C 0.12091 0.49903 0.13222 0.0
C2599 C 0.08881 0.51078 0.13446 0.0
C2600 C 0.12804 0.46381 0.13089 0.0
C2601 C 0.16273 0.47056 0.14948 0.0
N2602 N 0.1016 0.49605 0.13368 0.0
N2603 N 0.15134 0.48544 0.14385 0.0
H2604 H 0.68124 0.61358 0.10772 0.0
H2605 H 0.79535 0.62487 0.11439 0.0
H2606 H 0.72102 0.57097 0.08622 0.0
H2607 H 0.75647 0.67272 0.10729 0.0
H2608 H 0.76763 0.60299 0.11523 0.0
H2609 H 0.7085 0.63312 0.11836 0.0
C2610 C 0.69569 0.60818 0.10549 0.0
C2611 C 0.69889 0.59075 0.09578 0.0
C2612 C 0.76522 0.61834 0.11395 0.0
C2613 C 0.73001 0.61294 0.10816 0.0
C2614 C 0.78096 0.63083 0.11365 0.0
C2615 C 0.77812 0.65058 0.1106 0.0
C2616 C 0.7466 0.62577 0.11153 0.0
C2617 C 0.75922 0.65755 0.1095 0.0
C2618 C 0.7112 0.61936 0.11156 0.0
C2619 C 0.71792 0.58445 0.09338 0.0
N2620 N 0.74415 0.64513 0.10982 0.0
N2621 N 0.73281 0.59561 0.09944 0.0
H2622 H 0.87268 0.94982 0.13266 0.0
H2623 H 0.86278 0.06421 0.1378 0.0
H2624 H 0.921 0.98835 0.13842 0.0
H2625 H 0.81966 0.02526 0.15979 0.0
H2626 H 0.88195 0.03656 0.12751 0.0
H2627 H 0.85104 0.97776 0.1318 0.0
C2628 C 0.87876 0.96416 0.13313 0.0
C2629 C 0.89859 0.96686 0.13578 0.0
C2630 C 0.86816 0.03412 0.13435 0.0
C2631 C 0.87409 -0.00138 0.1348 0.0
C2632 C 0.8572 0.04986 0.14021 0.0
C2633 C 0.83973 0.04702 0.14995 0.0
C2634 C 0.86149 0.01543 0.138 0.0
C2635 C 0.83318 0.02809 0.1526 0.0
C2636 C 0.86643 0.98004 0.13281 0.0
C2637 C 0.90576 0.98571 0.13653 0.0
N2638 N 0.84414 0.01298 0.14675 0.0
N2639 N 0.89349 0.0009 0.13618 0.0
H2640 H 0.38366 0.19883 0.12564 0.0
H2641 H 0.38906 0.31308 0.11472 0.0
H2642 H 0.39092 0.23774 0.17345 0.0
H2643 H 0.40957 0.27371 0.07126 0.0
H2644 H 0.37916 0.28564 0.13436 0.0
H2645 H 0.38228 0.22658 0.10381 0.0
C2646 C 0.38435 0.21322 0.13159 0.0
C2647 C 0.38758 0.21608 0.15131 0.0
C2648 C 0.38558 0.28307 0.1204 0.0
C2649 C 0.38601 0.24763 0.12658 0.0
C2650 C 0.39121 0.29868 0.10916 0.0
C2651 C 0.4004 0.29566 0.09143 0.0
C2652 C 0.38893 0.26431 0.11377 0.0
C2653 C 0.40279 0.27667 0.08496 0.0
C2654 C 0.38374 0.22899 0.11914 0.0
C2655 C 0.38859 0.23498 0.15829 0.0
N2656 N 0.39717 0.26168 0.09619 0.0
N2657 N 0.38794 0.25006 0.14591 0.0
H2658 H 0.56375 0.35918 0.13232 0.0
H2659 H 0.44971 0.36521 0.12039 0.0
H2660 H 0.52399 0.33785 0.17502 0.0
H2661 H 0.48883 0.35745 0.07286 0.0
H2662 H 0.47731 0.36624 0.14241 0.0
H2663 H 0.5365 0.36932 0.11254 0.0
C2664 C 0.5493 0.35689 0.1377 0.0
C2665 C 0.54612 0.34738 0.15523 0.0
C2666 C 0.4798 0.36475 0.1271 0.0
C2667 C 0.51499 0.35918 0.13275 0.0
C2668 C 0.46412 0.36434 0.11453 0.0
C2669 C 0.46706 0.36107 0.09483 0.0
C2670 C 0.49845 0.36225 0.1198 0.0
C2671 C 0.48599 0.35982 0.08799 0.0
C2672 C 0.5338 0.36267 0.12637 0.0
C2673 C 0.52708 0.34488 0.16148 0.0
N2674 N 0.50099 0.36029 0.10048 0.0
N2675 N 0.51219 0.35065 0.15017 0.0
H2676 H 0.58495 0.22351 0.06883 0.0
H2677 H 0.60723 0.25798 0.17298 0.0
H2678 H 0.6075 0.18441 0.11152 0.0
H2679 H 0.61342 0.29654 0.12477 0.0
H2680 H 0.60796 0.23066 0.15083 0.0
H2681 H 0.59532 0.25062 0.08882 0.0
C2682 C 0.59223 0.22064 0.08231 0.0
C2683 C 0.59517 0.20169 0.08864 0.0
C2684 C 0.6096 0.24507 0.14512 0.0
C2685 C 0.60689 0.23255 0.11155 0.0
C2686 C 0.60919 0.26063 0.15775 0.0
C2687 C 0.61018 0.27947 0.15064 0.0
C2688 C 0.61041 0.24844 0.12523 0.0
C2689 C 0.61268 0.28219 0.1308 0.0
C2690 C 0.59826 0.2361 0.09363 0.0
C2691 C 0.60485 0.19879 0.10613 0.0
N2692 N 0.61225 0.26683 0.11869 0.0
N2693 N 0.61006 0.21406 0.11714 0.0
H2694 H 0.47404 0.15616 0.17489 0.0
H2695 H 0.50776 0.13781 0.06951 0.0
H2696 H 0.43454 0.13778 0.13063 0.0
H2697 H 0.54667 0.1312 0.11739 0.0
H2698 H 0.48059 0.13595 0.09171 0.0
H2699 H 0.50092 0.14589 0.15458 0.0
C2700 C 0.47102 0.14974 0.16101 0.0
C2701 C 0.45203 0.14794 0.15438 0.0
C2702 C 0.49505 0.13445 0.09734 0.0
C2703 C 0.48265 0.13636 0.13106 0.0
C2704 C 0.51054 0.13549 0.08467 0.0
C2705 C 0.52944 0.13478 0.09168 0.0
C2706 C 0.49852 0.13325 0.11721 0.0
C2707 C 0.53229 0.13178 0.11143 0.0
C2708 C 0.48634 0.14377 0.14949 0.0
C2709 C 0.44892 0.13939 0.13634 0.0
N2710 N 0.51698 0.13158 0.12361 0.0
N2711 N 0.46409 0.13423 0.12517 0.0
H2712 H 0.38872 0.68142 0.37921 0.0
H2713 H 0.38172 0.79545 0.36707 0.0
H2714 H 0.40865 0.72149 0.42231 0.0
H2715 H 0.38982 0.75634 0.31957 0.0
H2716 H 0.38097 0.76786 0.38911 0.0
H2717 H 0.37891 0.70854 0.35906 0.0
C2718 C 0.39078 0.69591 0.38457 0.0
C2719 C 0.39973 0.69922 0.40237 0.0
C2720 C 0.38249 0.76536 0.37381 0.0
C2721 C 0.38834 0.7302 0.37948 0.0
C2722 C 0.38273 0.78103 0.36123 0.0
C2723 C 0.38599 0.7781 0.34153 0.0
C2724 C 0.38518 0.74672 0.36652 0.0
C2725 C 0.38744 0.75917 0.3347 0.0
C2726 C 0.38521 0.71134 0.37304 0.0
C2727 C 0.40205 0.71831 0.40857 0.0
N2728 N 0.38715 0.74418 0.3472 0.0
N2729 N 0.39645 0.73312 0.39708 0.0
H2730 H 0.97379 0.33197 0.81806 0.0
H2731 H 0.00755 0.35725 0.92199 0.0
H2732 H 0.93444 0.35518 0.86015 0.0
H2733 H 0.04647 0.36159 0.87388 0.0
H2734 H 0.9804 0.35732 0.89963 0.0
H2735 H 0.00078 0.34279 0.83802 0.0
C2736 C 0.97083 0.33947 0.8314 0.0
C2737 C 0.95185 0.3425 0.83755 0.0
C2738 C 0.99485 0.35871 0.89397 0.0
C2739 C 0.98256 0.35477 0.86041 0.0
C2740 C 0.01032 0.35872 0.90672 0.0
C2741 C 0.02921 0.35936 0.89972 0.0
C2742 C -0.00164 0.35876 0.87408 0.0
C2743 C 0.03207 0.36117 0.87982 0.0
C2744 C 0.98622 0.34576 0.84269 0.0
C2745 C 0.94883 0.35246 0.85487 0.0
N2746 N 0.0168 0.36034 0.86762 0.0
N2747 N 0.96403 0.35796 0.86585 0.0
H2748 H 0.58473 0.77307 0.42614 0.0
H2749 H 0.60313 0.73619 0.32179 0.0
H2750 H 0.60543 0.81097 0.38153 0.0
H2751 H 0.61035 0.69852 0.37055 0.0
H2752 H 0.60451 0.76391 0.34339 0.0
H2753 H 0.59411 0.74541 0.40639 0.0
C2754 C 0.59147 0.77558 0.41231 0.0
C2755 C 0.59421 0.79436 0.40542 0.0
C2756 C 0.60621 0.74961 0.34934 0.0
C2757 C 0.60473 0.76287 0.38274 0.0
C2758 C 0.60542 0.73381 0.33702 0.0
C2759 C 0.60656 0.71509 0.34444 0.0
C2760 C 0.60757 0.74663 0.36927 0.0
C2761 C 0.60949 0.71275 0.36428 0.0
C2762 C 0.59691 0.75981 0.40111 0.0
C2763 C 0.6031 0.79678 0.38745 0.0
N2764 N 0.60946 0.72835 0.3761 0.0
N2765 N 0.60773 0.78121 0.37659 0.0
H2766 H 0.98783 0.14109 0.92429 0.0
H2767 H 0.02263 0.15521 0.81895 0.0
H2768 H 0.94972 0.1304 0.87647 0.0
H2769 H 0.06189 0.1369 0.86348 0.0
H2770 H 0.99561 0.14583 0.83947 0.0
H2771 H 0.01532 0.13885 0.90246 0.0
C2772 C 0.9853 0.13787 0.90925 0.0
C2773 C 0.96651 0.13605 0.90212 0.0
C2774 C 0.01015 0.14356 0.84459 0.0
C2775 C -0.00222 0.134 0.87704 0.0
C2776 C 0.02557 0.14901 0.83295 0.0
C2777 C 0.04452 0.14706 0.83962 0.0
C2778 C 0.01373 0.13654 0.86319 0.0
C2779 C 0.0475 0.13878 0.85781 0.0
C2780 C 0.00097 0.13657 0.89681 0.0
C2781 C 0.964 0.13186 0.88253 0.0
N2782 N 0.03225 0.13416 0.86912 0.0
N2783 N 0.97946 0.13142 0.87055 0.0
H2784 H 0.06883 0.4121 0.27172 0.0
H2785 H 0.17348 0.39165 0.23677 0.0
H2786 H 0.11219 0.39019 0.31043 0.0
H2787 H 0.12522 0.38509 0.1983 0.0
H2788 H 0.15138 0.39091 0.26411 0.0
H2789 H 0.08906 0.40266 0.24443 0.0
C2790 C 0.08251 0.40516 0.27447 0.0
C2791 C 0.08892 0.40205 0.29335 0.0
C2792 C 0.14565 0.38922 0.24971 0.0
C2793 C 0.11208 0.3914 0.26233 0.0
C2794 C 0.15825 0.38964 0.23414 0.0
C2795 C 0.15111 0.3885 0.21532 0.0
C2796 C 0.12576 0.38822 0.24638 0.0
C2797 C 0.13127 0.38593 0.21264 0.0
C2798 C 0.09396 0.39966 0.25891 0.0
C2799 C 0.10669 0.39286 0.29611 0.0
N2800 N 0.11919 0.38631 0.22801 0.0
N2801 N 0.1178 0.38814 0.28077 0.0
H2802 H 0.17281 0.6037 0.25868 0.0
H2803 H 0.06852 0.58632 0.22124 0.0
H2804 H 0.12395 0.61068 0.29626 0.0
H2805 H 0.11351 0.60688 0.18371 0.0
H2806 H 0.08814 0.5955 0.24906 0.0
H2807 H 0.15133 0.60566 0.23091 0.0
C2808 C 0.15758 0.60607 0.26103 0.0
C2809 C 0.15009 0.60696 0.27972 0.0
C2810 C 0.09353 0.59832 0.23471 0.0
C2811 C 0.1254 0.60863 0.24812 0.0
C2812 C 0.0824 0.59299 0.21885 0.0
C2813 C 0.08945 0.59573 0.20014 0.0
C2814 C 0.11198 0.60602 0.23181 0.0
C2815 C 0.10749 0.60454 0.19787 0.0
C2816 C 0.14533 0.60719 0.2452 0.0
C2817 C 0.13027 0.61001 0.28204 0.0
N2818 N 0.11828 0.60906 0.21351 0.0
N2819 N 0.11851 0.6103 0.2664 0.0
H2820 H 0.8352 0.67345 0.02286 0.0
H2821 H 0.8509 0.56829 0.98757 0.0
H2822 H 0.85446 0.62908 0.06183 0.0
H2823 H 0.86071 0.61642 0.94965 0.0
H2824 H 0.85263 0.5901 0.01513 0.0
H2825 H 0.84445 0.65301 0.9957 0.0
C2826 C 0.84155 0.6595 0.0257 0.0
C2827 C 0.84388 0.65286 0.04461 0.0
C2828 C 0.85482 0.59583 0.00081 0.0
C2829 C 0.85427 0.62941 0.01368 0.0
C2830 C 0.85383 0.5834 0.9851 0.0
C2831 C 0.85556 0.59061 0.96635 0.0
C2832 C 0.857 0.61566 -0.00232 0.0
C2833 C 0.85934 0.6103 0.9639 0.0
C2834 C 0.84694 0.64791 0.01021 0.0
C2835 C 0.85234 0.63474 0.04748 0.0
N2836 N 0.8595 0.62225 0.97939 0.0
N2837 N 0.85691 0.62349 0.03216 0.0
H2838 H 0.92387 0.90904 0.22226 0.0
H2839 H 0.8658 0.87631 0.29573 0.0
H2840 H 0.88112 0.88608 0.18344 0.0
H2841 H 0.8211 0.88865 0.25444 0.0
H2842 H 0.88923 0.87511 0.26941 0.0
H2843 H 0.9046 0.89787 0.24943 0.0
C2844 C 0.91059 0.90137 0.21945 0.0
C2845 C 0.904 0.89866 0.20057 0.0
C2846 C 0.87425 0.87786 0.26613 0.0
C2847 C 0.88199 0.88564 0.23155 0.0
C2848 C 0.86083 0.87826 0.28108 0.0
C2849 C 0.84157 0.88294 0.27724 0.0
C2850 C 0.86823 0.88204 0.2473 0.0
C2851 C 0.8359 0.88532 0.25802 0.0
C2852 C 0.89971 0.89478 0.23497 0.0
C2853 C 0.88672 0.88856 0.19776 0.0
N2854 N 0.84922 0.88503 0.24376 0.0
N2855 N 0.87611 0.88278 0.21311 0.0
H2856 H 0.63832 0.42296 0.48858 0.0
H2857 H 0.65744 0.31856 0.52524 0.0
H2858 H 0.63049 0.37393 0.45135 0.0
H2859 H 0.63933 0.36385 0.56366 0.0
H2860 H 0.64704 0.33819 0.49789 0.0
H2861 H 0.63745 0.40155 0.51644 0.0
C2862 C 0.63596 0.40771 0.48634 0.0
C2863 C 0.63456 0.40015 0.46769 0.0
C2864 C 0.64502 0.34366 0.51234 0.0
C2865 C 0.63417 0.37554 0.49939 0.0
C2866 C 0.65107 0.33252 0.52793 0.0
C2867 C 0.64934 0.33963 0.54675 0.0
C2868 C 0.6376 0.36217 0.51559 0.0
C2869 C 0.64086 0.35776 0.54943 0.0
C2870 C 0.63548 0.3955 0.50222 0.0
C2871 C 0.63155 0.38031 0.46553 0.0
N2872 N 0.63561 0.36854 0.53401 0.0
N2873 N 0.6319 0.36859 0.48119 0.0
H2874 H 0.42638 0.588 0.77183 0.0
H2875 H 0.32102 0.60422 0.7363 0.0
H2876 H 0.38122 0.60654 0.81018 0.0
H2877 H 0.36921 0.6106 0.69777 0.0
H2878 H 0.34296 0.60659 0.76365 0.0
H2879 H 0.40625 0.5972 0.7444 0.0
C2880 C 0.41235 0.59426 0.77448 0.0
C2881 C 0.40542 0.59643 0.79332 0.0
C2882 C 0.34872 0.6079 0.74924 0.0
C2883 C 0.38231 0.60675 0.76207 0.0
C2884 C 0.3362 0.60656 0.73364 0.0
C2885 C 0.34337 0.60713 0.71481 0.0
C2886 C 0.36861 0.60926 0.74596 0.0
C2887 C 0.36314 0.61015 0.71211 0.0
C2888 C 0.40093 0.5996 0.75884 0.0
C2889 C 0.38719 0.60471 0.79594 0.0
N2890 N 0.37518 0.61067 0.72754 0.0
N2891 N 0.37614 0.60926 0.78049 0.0
H2892 H 0.85465 0.4232 0.50692 0.0
H2893 H 0.83527 0.31814 0.47219 0.0
H2894 H 0.86172 0.37508 0.54543 0.0
H2895 H 0.85503 0.36231 0.43331 0.0
H2896 H 0.84512 0.33833 0.49938 0.0
H2897 H 0.8556 0.40108 0.47961 0.0
C2898 C 0.85684 0.408 0.50956 0.0
C2899 C 0.85805 0.4009 0.52839 0.0
C2900 C 0.84761 0.34341 0.48487 0.0
C2901 C 0.85853 0.37549 0.49734 0.0
C2902 C 0.84189 0.33197 0.46937 0.0
C2903 C 0.84425 0.3386 0.45044 0.0
C2904 C 0.85535 0.36176 0.48139 0.0
C2905 C 0.85301 0.35657 0.44761 0.0
C2906 C 0.85737 0.39538 0.494 0.0
C2907 C 0.86083 0.38109 0.53109 0.0
N2908 N 0.85795 0.36766 0.46291 0.0
N2909 N 0.86054 0.36897 0.51572 0.0
H2910 H 0.13775 0.07043 0.50561 0.0
H2911 H 0.15622 0.17546 0.47207 0.0
H2912 H 0.13068 0.11801 0.54481 0.0
H2913 H 0.13497 0.13232 0.43272 0.0
H2914 H 0.14624 0.15514 0.49904 0.0
H2915 H 0.13559 0.09281 0.47857 0.0
C2916 C 0.13529 0.08556 0.50848 0.0
C2917 C 0.13449 0.09244 0.52741 0.0
C2918 C 0.14346 0.15031 0.48449 0.0
C2919 C 0.13261 0.11815 0.49666 0.0
C2920 C 0.14925 0.16184 0.4691 0.0
C2921 C 0.14668 0.15545 0.45012 0.0
C2922 C 0.13545 0.13212 0.48086 0.0
C2923 C 0.13739 0.13775 0.44711 0.0
C2924 C 0.13406 0.09832 0.49306 0.0
C2925 C 0.13131 0.11215 0.53039 0.0
N2926 N 0.13245 0.12653 0.46232 0.0
N2927 N 0.13095 0.12442 0.51515 0.0
H2928 H 0.76921 0.56761 0.9072 0.0
H2929 H 0.69664 0.62776 0.87552 0.0
H2930 H 0.80861 0.61117 0.88696 0.0
H2931 H 0.73765 0.67166 0.89129 0.0
H2932 H 0.72288 0.60425 0.87432 0.0
H2933 H 0.74229 0.58773 0.89688 0.0
C2934 C 0.7722 0.58127 0.9003 0.0
C2935 C 0.79117 0.58779 0.89808 0.0
C2936 C 0.72611 0.61907 0.87785 0.0
C2937 C 0.76047 0.61081 0.88609 0.0
C2938 C 0.71121 0.63255 0.87828 0.0
C2939 C 0.71496 0.6516 0.88385 0.0
C2940 C 0.74483 0.6248 0.88289 0.0
C2941 C 0.73411 0.65703 0.88725 0.0
C2942 C 0.75683 0.59265 0.89421 0.0
C2943 C 0.79421 0.60559 0.889 0.0
N2944 N 0.74832 0.64365 0.88686 0.0
N2945 N 0.779 0.61666 0.8837 0.0
H2946 H 0.86298 0.93091 0.35371 0.0
H2947 H 0.87576 0.04472 0.3616 0.0
H2948 H 0.81963 0.97098 0.33443 0.0
H2949 H 0.92286 0.00565 0.35122 0.0
H2950 H 0.85358 0.01722 0.36203 0.0
H2951 H 0.88338 0.95797 0.36306 0.0
C2952 C 0.85758 0.94537 0.35178 0.0
C2953 C 0.83962 0.9487 0.34315 0.0
C2954 C 0.86883 0.01471 0.36003 0.0
C2955 C 0.86288 0.97965 0.3539 0.0
C2956 C 0.88149 0.03032 0.35994 0.0
C2957 C 0.90111 0.02739 0.35621 0.0
C2958 C 0.87597 0.99611 0.35677 0.0
C2959 C 0.90779 0.00849 0.35397 0.0
C2960 C 0.86928 0.96078 0.35703 0.0
C2961 C 0.83347 0.9678 0.34084 0.0
N2962 N 0.89522 0.99354 0.3542 0.0
N2963 N 0.84512 0.9826 0.34614 0.0
H2964 H 0.29418 0.86687 0.87711 0.0
H2965 H 0.18002 0.87864 0.88354 0.0
H2966 H 0.2553 0.81987 0.88869 0.0
H2967 H 0.22021 0.92328 0.89943 0.0
H2968 H 0.20712 0.8581 0.87427 0.0
H2969 H 0.26644 0.88847 0.87387 0.0
C2970 C 0.2798 0.86099 0.87841 0.0
C2971 C 0.27699 0.84163 0.88342 0.0
C2972 C 0.20992 0.87253 0.87947 0.0
C2973 C 0.2454 0.86615 0.87971 0.0
C2974 C 0.19451 0.88427 0.88472 0.0
C2975 C 0.19791 0.90257 0.89257 0.0
C2976 C 0.22881 0.87927 0.8818 0.0
C2977 C 0.21697 0.90914 0.89373 0.0
C2978 C 0.26403 0.87333 0.8767 0.0
C2979 C 0.25807 0.83477 0.88505 0.0
N2980 N 0.23174 0.89744 0.88853 0.0
N2981 N 0.24298 0.84705 0.88337 0.0
H2982 H 0.11686 0.44664 0.36483 0.0
H2983 H 0.13076 0.56055 0.36004 0.0
H2984 H 0.07 0.48704 0.36 0.0
H2985 H 0.1726 0.52004 0.33841 0.0
H2986 H 0.11078 0.53368 0.3707 0.0
H2987 H 0.13951 0.47369 0.36625 0.0
C2988 C 0.11129 0.4612 0.36475 0.0
C2989 C 0.09158 0.46468 0.36211 0.0
C2990 C 0.12447 0.53072 0.36387 0.0
C2991 C 0.11729 0.49547 0.36365 0.0
C2992 C 0.13591 0.54602 0.35779 0.0
C2993 C 0.15326 0.54253 0.34805 0.0
C2994 C 0.1305 0.51179 0.36039 0.0
C2995 C 0.15919 0.52337 0.3456 0.0
C2996 C 0.12422 0.47658 0.36536 0.0
C2997 C 0.08513 0.48379 0.36186 0.0
N2998 N 0.14775 0.50869 0.35162 0.0
N2999 N 0.09797 0.49849 0.36243 0.0
H3000 H 0.81321 0.38096 0.60715 0.0
H3001 H 0.69926 0.36917 0.61602 0.0
H3002 H 0.77287 0.42497 0.58999 0.0
H3003 H 0.73863 0.3218 0.60835 0.0
H3004 H 0.72676 0.39132 0.61707 0.0
H3005 H 0.78636 0.36103 0.61793 0.0
C3006 C 0.79874 0.38662 0.60601 0.0
C3007 C 0.79526 0.40461 0.59752 0.0
C3008 C 0.72934 0.37602 0.61559 0.0
C3009 C 0.76452 0.38182 0.60981 0.0
C3010 C 0.71371 0.36337 0.61517 0.0
C3011 C 0.71674 0.34369 0.6119 0.0
C3012 C 0.74803 0.36881 0.61304 0.0
C3013 C 0.73571 0.33693 0.6107 0.0
C3014 C 0.78344 0.37518 0.61208 0.0
C3015 C 0.77617 0.41109 0.59624 0.0
N3016 N 0.75065 0.34949 0.61112 0.0
N3017 N 0.76148 0.39963 0.60221 0.0
H3018 H 0.67549 0.9721 0.65925 0.0
H3019 H 0.57033 0.00626 0.64035 0.0
H3020 H 0.63198 0.93278 0.6387 0.0
H3021 H 0.61831 0.04486 0.63263 0.0
H3022 H 0.59253 0.97899 0.63934 0.0
H3023 H 0.65502 -0.0009 0.64963 0.0
C3024 C 0.66172 0.96915 0.65255 0.0
C3025 C 0.65533 0.95017 0.64998 0.0
C3026 C 0.59816 0.9934 0.63745 0.0
C3027 C 0.63185 0.98093 0.63913 0.0
C3028 C 0.58551 0.00894 0.63803 0.0
C3029 C 0.59255 0.02779 0.63667 0.0
C3030 C 0.61802 0.99679 0.63605 0.0
C3031 C 0.61233 0.03052 0.63369 0.0
C3032 C 0.65012 0.98455 0.64696 0.0
C3033 C 0.63744 0.94717 0.64106 0.0
N3034 N 0.62447 0.01518 0.63391 0.0
N3035 N 0.62617 0.9624 0.63627 0.0
H3036 H 0.18241 0.11159 0.60657 0.0
H3037 H 0.29628 0.12531 0.61278 0.0
H3038 H 0.22294 0.07025 0.58399 0.0
H3039 H 0.25626 0.1724 0.60716 0.0
H3040 H 0.26908 0.10277 0.61321 0.0
H3041 H 0.2093 0.13154 0.61733 0.0
C3042 C 0.19696 0.10655 0.60411 0.0
C3043 C 0.20045 0.08935 0.5941 0.0
C3044 C 0.2663 0.11808 0.61235 0.0
C3045 C 0.23118 0.11202 0.60662 0.0
C3046 C 0.28175 0.13094 0.6123 0.0
C3047 C 0.27844 0.15069 0.60978 0.0
C3048 C 0.2475 0.12513 0.61022 0.0
C3049 C 0.25938 0.15724 0.60898 0.0
C3050 C 0.21226 0.11797 0.61025 0.0
C3051 C 0.21961 0.08355 0.5914 0.0
N3052 N 0.2446 0.14447 0.60905 0.0
N3053 N 0.23429 0.09493 0.59754 0.0
H3054 H 0.37629 0.44623 0.63034 0.0
H3055 H 0.36272 0.5602 0.634 0.0
H3056 H 0.42316 0.48683 0.63299 0.0
H3057 H 0.32075 0.5201 0.65605 0.0
H3058 H 0.38238 0.53323 0.62324 0.0
H3059 H 0.35353 0.47322 0.62904 0.0
C3060 C 0.38181 0.46081 0.62997 0.0
C3061 C 0.40158 0.46439 0.63194 0.0
C3062 C 0.36872 0.53037 0.63017 0.0
C3063 C 0.37577 0.49509 0.63056 0.0
C3064 C 0.35742 0.54576 0.63626 0.0
C3065 C 0.34012 0.54244 0.64612 0.0
C3066 C 0.36263 0.51149 0.63381 0.0
C3067 C 0.33412 0.52332 0.64874 0.0
C3068 C 0.36883 0.47615 0.62943 0.0
C3069 C 0.40799 0.48351 0.63164 0.0
N3070 N 0.34543 0.50853 0.64274 0.0
N3071 N 0.39511 0.49817 0.63116 0.0
H3072 H 0.88052 0.6971 0.62452 0.0
H3073 H 0.88775 0.81074 0.61067 0.0
H3074 H 0.88933 0.73693 0.67132 0.0
H3075 H 0.90835 0.77045 0.56814 0.0
H3076 H 0.87808 0.78386 0.63102 0.0
H3077 H 0.88033 0.72428 0.60196 0.0
C3078 C 0.88185 0.7116 0.63009 0.0
C3079 C 0.88508 0.71484 0.64976 0.0
C3080 C 0.88447 0.78094 0.61711 0.0
C3081 C 0.88483 0.74574 0.62419 0.0
C3082 C 0.88991 0.79626 0.60542 0.0
C3083 C 0.89898 0.79284 0.5877 0.0
C3084 C 0.88789 0.76205 0.61096 0.0
C3085 C 0.90159 0.77371 0.58178 0.0
C3086 C 0.88191 0.72702 0.61722 0.0
C3087 C 0.88694 0.73385 0.65623 0.0
N3088 N 0.89612 0.75898 0.59344 0.0
N3089 N 0.88688 0.74861 0.64345 0.0
H3090 H 0.02028 0.83161 0.67194 0.0
H3091 H 0.98642 0.85874 0.56859 0.0
H3092 H 0.05876 0.85772 0.6308 0.0
H3093 H 0.9467 0.85912 0.61621 0.0
H3094 H 0.01322 0.85972 0.59134 0.0
H3095 H 0.99293 0.84208 0.65228 0.0
C3096 C 0.02298 0.83972 0.65891 0.0
C3097 C 0.04186 0.84366 0.65293 0.0
C3098 C -0.00135 0.86007 0.59684 0.0
C3099 C 0.01074 0.85553 0.63039 0.0
C3100 C 0.98338 0.85957 0.58386 0.0
C3101 C 0.9644 0.85883 0.59059 0.0
C3102 C 0.99489 0.85919 0.61666 0.0
C3103 C 0.96117 0.8598 0.61049 0.0
C3104 C 0.00738 0.8458 0.64778 0.0
C3105 C 0.04451 0.85435 0.636 0.0
N3106 N 0.9763 0.85945 0.62289 0.0
N3107 N 0.02915 0.85963 0.62517 0.0
H3108 H 0.11027 0.75656 0.67053 0.0
H3109 H 0.08337 0.72052 0.56788 0.0
H3110 H 0.10893 0.79538 0.62219 0.0
H3111 H 0.10902 0.68286 0.61011 0.0
H3112 H 0.09407 0.74826 0.58675 0.0
H3113 H 0.11201 0.72938 0.64831 0.0
C3114 C 0.11088 0.75934 0.65521 0.0
C3115 C 0.10939 0.77816 0.64813 0.0
C3116 C 0.09765 0.73392 0.59168 0.0
C3117 C 0.11066 0.74719 0.62264 0.0
C3118 C 0.09144 0.71808 0.58099 0.0
C3119 C 0.09504 0.69933 0.58758 0.0
C3120 C 0.1072 0.73098 0.60925 0.0
C3121 C 0.10575 0.69704 0.60456 0.0
C3122 C 0.11182 0.74385 0.64252 0.0
C3123 C 0.11014 0.78105 0.62818 0.0
N3124 N 0.11115 0.71267 0.61498 0.0
N3125 N 0.11024 0.76567 0.61607 0.0
H3126 H 0.04354 0.62974 0.6201 0.0
H3127 H 0.92931 0.63477 0.63148 0.0
H3128 H 0.00467 0.63904 0.57259 0.0
H3129 H 0.96883 0.65423 0.67531 0.0
H3130 H 0.95674 0.6255 0.61143 0.0
H3131 H 0.01581 0.62779 0.64186 0.0
C3132 C 0.02917 0.63086 0.61418 0.0
C3133 C 0.02635 0.63477 0.59458 0.0
C3134 C 0.95934 0.63152 0.62558 0.0
C3135 C 0.99478 0.63246 0.61926 0.0
C3136 C 0.94373 0.63676 0.63705 0.0
C3137 C 0.94682 0.64557 0.65497 0.0
C3138 C 0.97811 0.63481 0.63221 0.0
C3139 C 0.96583 0.64775 0.66146 0.0
C3140 C 0.01341 0.62987 0.6266 0.0
C3141 C 0.00744 0.63623 0.58766 0.0
N3142 N 0.98079 0.64251 0.65002 0.0
N3143 N 0.99235 0.63518 0.60001 0.0
H3144 H 0.88759 0.25526 0.81849 0.0
H3145 H 0.90743 0.22278 0.92372 0.0
H3146 H 0.88123 0.29475 0.86593 0.0
H3147 H 0.88657 0.18274 0.88104 0.0
H3148 H 0.89713 0.24943 0.90317 0.0
H3149 H 0.88581 0.22834 0.84105 0.0
C3150 C 0.88533 0.25822 0.83363 0.0
C3151 C 0.88467 0.27721 0.8404 0.0
C3152 C 0.89451 0.2348 0.89847 0.0
C3153 C 0.88325 0.24659 0.86632 0.0
C3154 C 0.9005 0.21959 0.91013 0.0
C3155 C 0.89809 0.20051 0.90397 0.0
C3156 C 0.88645 0.2309 0.88036 0.0
C3157 C 0.88884 0.19722 0.8863 0.0
C3158 C 0.88434 0.24287 0.8465 0.0
C3159 C 0.88176 0.28029 0.86014 0.0
N3160 N 0.88368 0.21228 0.87495 0.0
N3161 N 0.88163 0.26513 0.8725 0.0
H3162 H 0.43253 0.85814 0.36027 0.0
H3163 H 0.54635 0.86296 0.37473 0.0
H3164 H 0.4731 0.83554 0.319 0.0
H3165 H 0.50584 0.85805 0.42147 0.0
H3166 H 0.51936 0.86386 0.35197 0.0
H3167 H 0.45938 0.86871 0.38035 0.0
C3168 C 0.44707 0.85565 0.35527 0.0
C3169 C 0.45059 0.84566 0.33806 0.0
C3170 C 0.51644 0.86304 0.36725 0.0
C3171 C 0.48128 0.85793 0.3609 0.0
C3172 C 0.53178 0.86271 0.38023 0.0
C3173 C 0.52825 0.86025 0.39995 0.0
C3174 C 0.49755 0.86125 0.37414 0.0
C3175 C 0.50913 0.85977 0.40634 0.0
C3176 C 0.46236 0.86167 0.36676 0.0
C3177 C 0.46975 0.84292 0.3323 0.0
N3178 N 0.49446 0.86011 0.39345 0.0
N3179 N 0.48442 0.84893 0.34377 0.0
H3180 H 0.08606 0.27223 0.92424 0.0
H3181 H 0.10361 0.2367 0.81948 0.0
H3182 H 0.10588 0.3111 0.88002 0.0
H3183 H 0.11294 0.19893 0.86783 0.0
H3184 H 0.10482 0.26432 0.84125 0.0
H3185 H 0.09575 0.24501 0.90406 0.0
C3186 C 0.09263 0.27504 0.91039 0.0
C3187 C 0.09499 0.29394 0.90371 0.0
C3188 C 0.10702 0.25002 0.84704 0.0
C3189 C 0.10589 0.26296 0.88057 0.0
C3190 C 0.10633 0.23428 0.83464 0.0
C3191 C 0.10808 0.21556 0.84192 0.0
C3192 C 0.10892 0.24694 0.86691 0.0
C3193 C 0.11157 0.21317 0.86166 0.0
C3194 C 0.09825 0.25952 0.89895 0.0
C3195 C 0.10372 0.29676 0.88571 0.0
N3196 N 0.11144 0.22868 0.87358 0.0
N3197 N 0.10854 0.28142 0.87461 0.0
H3198 H 0.52069 0.6557 0.32034 0.0
H3199 H 0.48646 0.63505 0.42468 0.0
H3200 H 0.56003 0.63463 0.36356 0.0
H3201 H 0.44783 0.62871 0.37653 0.0
H3202 H 0.51377 0.63327 0.4026 0.0
H3203 H 0.49372 0.64495 0.34024 0.0
C3204 C 0.52366 0.64863 0.33391 0.0
C3205 C 0.54263 0.6463 0.34043 0.0
C3206 C 0.49934 0.63179 0.39689 0.0
C3207 C 0.51188 0.63414 0.36328 0.0
C3208 C 0.48377 0.63277 0.40949 0.0
C3209 C 0.46492 0.63213 0.40236 0.0
C3210 C 0.49597 0.63075 0.37701 0.0
C3211 C 0.46218 0.62921 0.38258 0.0
C3212 C 0.50827 0.64239 0.34519 0.0
C3213 C 0.54564 0.63686 0.35804 0.0
N3214 N 0.47755 0.62911 0.37049 0.0
N3215 N 0.53041 0.63145 0.36902 0.0
H3216 H 0.61352 0.8847 0.8131 0.0
H3217 H 0.6771 0.88917 0.73767 0.0
H3218 H 0.57393 0.90807 0.77135 0.0
H3219 H 0.62833 0.87968 0.70048 0.0
H3220 H 0.65583 0.88776 0.76546 0.0
H3221 H 0.63438 0.87419 0.78705 0.0
C3222 C 0.60903 0.88739 0.79847 0.0
C3223 C 0.59197 0.89742 0.79446 0.0
C3224 C 0.6498 0.8853 0.75132 0.0
C3225 C 0.61624 0.88603 0.76451 0.0
C3226 C 0.66196 0.88621 0.73543 0.0
C3227 C 0.65444 0.88456 0.71679 0.0
C3228 C 0.62991 0.88304 0.74852 0.0
C3229 C 0.6347 0.88089 0.71464 0.0
C3230 C 0.62113 0.8816 0.78358 0.0
C3231 C 0.58708 0.90062 0.77512 0.0
N3232 N 0.623 0.88073 0.73033 0.0
N3233 N 0.59924 0.89505 0.76085 0.0
H3234 H 0.56734 0.085 0.72231 0.0
H3235 H 0.67195 0.1069 0.75603 0.0
H3236 H 0.60967 0.1087 0.68351 0.0
H3237 H 0.62435 0.11051 0.79564 0.0
H3238 H 0.64932 0.1086 0.72917 0.0
H3239 H 0.58747 0.09481 0.74953 0.0
C3240 C 0.58073 0.09247 0.71951 0.0
C3241 C 0.58695 0.0958 0.7006 0.0
C3242 C 0.64383 0.10946 0.74373 0.0
C3243 C 0.61006 0.10686 0.73161 0.0
C3244 C 0.65674 0.1085 0.75904 0.0
C3245 C 0.64997 0.1085 0.77802 0.0
C3246 C 0.62398 0.10983 0.74745 0.0
C3247 C 0.63013 0.11055 0.78118 0.0
C3248 C 0.59215 0.09815 0.73505 0.0
C3249 C 0.60436 0.10569 0.69784 0.0
N3250 N 0.61775 0.11068 0.76602 0.0
N3251 N 0.61547 0.11056 0.71316 0.0
H3252 H 0.35489 0.06944 0.48807 0.0
H3253 H 0.33487 0.1743 0.52183 0.0
H3254 H 0.36362 0.11745 0.44973 0.0
H3255 H 0.35517 0.13109 0.56157 0.0
H3256 H 0.3453 0.15391 0.49503 0.0
H3257 H 0.35557 0.0916 0.5154 0.0
C3258 C 0.3574 0.08461 0.48547 0.0
C3259 C 0.35909 0.09168 0.46667 0.0
C3260 C 0.34775 0.14908 0.50964 0.0
C3261 C 0.35929 0.1171 0.49769 0.0
C3262 C 0.34168 0.16062 0.52491 0.0
C3263 C 0.34399 0.15429 0.54393 0.0
C3264 C 0.35576 0.13092 0.51345 0.0
C3265 C 0.35306 0.13652 0.54712 0.0
C3266 C 0.35777 0.09724 0.50104 0.0
C3267 C 0.3623 0.11144 0.46404 0.0
N3268 N 0.35831 0.12529 0.53203 0.0
N3269 N 0.36184 0.12357 0.47937 0.0
H3270 H 0.37143 0.38426 0.79657 0.0
H3271 H 0.38279 0.38727 0.68241 0.0
H3272 H 0.32356 0.38944 0.75738 0.0
H3273 H 0.42538 0.41073 0.72107 0.0
H3274 H 0.36328 0.37794 0.71006 0.0
H3275 H 0.39345 0.38365 0.76894 0.0
C3276 C 0.36553 0.3847 0.78215 0.0
C3277 C 0.3457 0.38704 0.77917 0.0
C3278 C 0.37703 0.38489 0.71245 0.0
C3279 C 0.37065 0.38633 0.74778 0.0
C3280 C 0.38823 0.39016 0.6967 0.0
C3281 C 0.40569 0.39994 0.69943 0.0
C3282 C 0.38343 0.3892 0.73108 0.0
C3283 C 0.4119 0.40341 0.71833 0.0
C3284 C 0.37809 0.38453 0.76646 0.0
C3285 C 0.33879 0.38777 0.76024 0.0
N3286 N 0.40073 0.3981 0.73348 0.0
N3287 N 0.35126 0.38751 0.74523 0.0
H3288 H 0.1326 0.87343 0.94557 0.0
H3289 H 0.13637 0.86352 0.05975 0.0
H3290 H 0.14029 0.92166 0.98387 0.0
H3291 H 0.15999 0.82038 0.02183 0.0
H3292 H 0.12729 0.88271 0.0318 0.0
H3293 H 0.13203 0.85182 0.97356 0.0
C3294 C 0.13359 0.8795 0.95989 0.0
C3295 C 0.1366 0.89929 0.96251 0.0
C3296 C 0.13421 0.86891 0.02963 0.0
C3297 C 0.13588 0.87484 0.99428 0.0
C3298 C 0.13933 0.85789 0.04556 0.0
C3299 C 0.14908 0.84037 0.04312 0.0
C3300 C 0.13861 0.86225 0.01113 0.0
C3301 C 0.15267 0.83391 0.02433 0.0
C3302 C 0.13344 0.86718 0.97577 0.0
C3303 C 0.13806 0.90646 0.9813 0.0
N3304 N 0.14749 0.8449 0.009 0.0
N3305 N 0.13775 0.89421 0.9965 0.0
H3306 H 0.82229 0.10805 0.23936 0.0
H3307 H 0.92725 0.08883 0.27295 0.0
H3308 H 0.87008 0.11605 0.20062 0.0
H3309 H 0.88393 0.10891 0.31266 0.0
H3310 H 0.907 0.09941 0.24616 0.0
H3311 H 0.84455 0.10942 0.26657 0.0
C3312 C 0.83744 0.11053 0.23664 0.0
C3313 C 0.84441 0.11183 0.21776 0.0
C3314 C 0.90211 0.10181 0.26075 0.0
C3315 C 0.86997 0.11285 0.24871 0.0
C3316 C 0.9136 0.09569 0.27604 0.0
C3317 C 0.90716 0.09775 0.29506 0.0
C3318 C 0.88388 0.10966 0.26451 0.0
C3319 C 0.88942 0.1069 0.29823 0.0
C3320 C 0.85013 0.11132 0.25215 0.0
C3321 C 0.86415 0.11503 0.21498 0.0
N3322 N 0.87822 0.11217 0.2831 0.0
N3323 N 0.87634 0.11498 0.23029 0.0
H3324 H 0.35823 0.8765 0.04742 0.0
H3325 H 0.35627 0.86338 0.93323 0.0
H3326 H 0.35601 0.92377 0.0073 0.0
H3327 H 0.3325 0.82175 0.97276 0.0
H3328 H 0.36622 0.88313 0.96059 0.0
H3329 H 0.35926 0.85397 0.0202 0.0
C3330 C 0.35861 0.88214 0.0329 0.0
C3331 C 0.35689 0.90197 0.02952 0.0
C3332 C 0.35904 0.86955 0.96323 0.0
C3333 C 0.35798 0.87644 -0.00145 0.0
C3334 C 0.35336 0.85825 0.94766 0.0
C3335 C 0.34327 0.84101 0.95072 0.0
C3336 C 0.35483 0.86347 0.982 0.0
C3337 C 0.33998 0.83508 0.96974 0.0
C3338 C 0.359 0.86931 0.01742 0.0
C3339 C 0.35719 0.90856 0.01046 0.0
N3340 N 0.34566 0.84636 0.98469 0.0
N3341 N 0.35756 0.89581 0.99567 0.0
H3342 H 0.63591 0.63255 0.93098 0.0
H3343 H 0.63004 0.62096 0.04509 0.0
H3344 H 0.65748 0.67523 0.97067 0.0
H3345 H 0.63801 0.57323 0.00622 0.0
H3346 H 0.62902 0.64283 0.01737 0.0
H3347 H 0.6259 0.61275 0.95831 0.0
C3348 C 0.63828 0.6379 0.94543 0.0
C3349 C 0.64782 0.65543 0.94858 0.0
C3350 C 0.63056 0.62751 0.01497 0.0
C3351 C 0.63615 0.63299 0.97976 0.0
C3352 C 0.63098 0.61503 0.03071 0.0
C3353 C 0.63428 0.59532 0.02787 0.0
C3354 C 0.63309 0.62011 0.99636 0.0
C3355 C 0.63561 0.58838 0.00898 0.0
C3356 C 0.63258 0.62658 0.96097 0.0
C3357 C 0.65043 0.66168 0.96761 0.0
N3358 N 0.63513 0.60078 0.99391 0.0
N3359 N 0.64471 0.6504 0.98252 0.0
H3360 H 0.18831 0.22882 0.48767 0.0
H3361 H 0.30073 0.22911 0.50725 0.0
H3362 H 0.23172 0.22754 0.44327 0.0
H3363 H 0.25738 0.22386 0.55141 0.0
H3364 H 0.27565 0.23773 0.48421 0.0
H3365 H 0.21324 0.23633 0.51127 0.0
C3366 C 0.20302 0.2305 0.48281 0.0
C3367 C 0.20804 0.22701 0.46358 0.0
C3368 C 0.27167 0.23501 0.49902 0.0
C3369 C 0.2366 0.23542 0.4905 0.0
C3370 C 0.28599 0.23009 0.51219 0.0
C3371 C 0.28106 0.22525 0.53114 0.0
C3372 C 0.25232 0.23498 0.50485 0.0
C3373 C 0.26177 0.22706 0.53682 0.0
C3374 C 0.21726 0.23475 0.4963 0.0
C3375 C 0.22728 0.22966 0.45805 0.0
N3376 N 0.24805 0.23146 0.52364 0.0
N3377 N 0.24092 0.23337 0.47151 0.0
H3378 H 0.47865 0.55437 0.75674 0.0
H3379 H 0.47862 0.44226 0.73553 0.0
H3380 H 0.47493 0.51034 0.80039 0.0
H3381 H 0.47502 0.48637 0.69194 0.0
H3382 H 0.48672 0.4669 0.75923 0.0
H3383 H 0.48682 0.52971 0.73312 0.0
C3384 C 0.47989 0.53957 0.76144 0.0
C3385 C 0.47556 0.53431 0.78043 0.0
C3386 C 0.48449 0.47114 0.74441 0.0
C3387 C 0.48476 0.50605 0.75348 0.0
C3388 C 0.47987 0.45707 0.73086 0.0
C3389 C 0.47561 0.46236 0.71187 0.0
C3390 C 0.48475 0.49058 0.73889 0.0
C3391 C 0.47775 0.48172 0.70655 0.0
C3392 C 0.48454 0.52549 0.74794 0.0
C3393 C 0.47771 0.51497 0.78579 0.0
N3394 N 0.48185 0.49518 0.72008 0.0
N3395 N 0.48182 0.50147 0.7723 0.0
H3396 H 0.73506 0.26784 0.55407 0.0
H3397 H 0.75907 0.26652 0.44314 0.0
H3398 H 0.69219 0.26776 0.5091 0.0
H3399 H 0.80194 0.26679 0.4881 0.0
H3400 H 0.73458 0.25867 0.46697 0.0
H3401 H 0.75944 0.2592 0.53039 0.0
C3402 C 0.73071 0.2657 0.53925 0.0
C3403 C 0.71168 0.26905 0.53342 0.0
C3404 C 0.74939 0.2601 0.4716 0.0
C3405 C 0.73953 0.25934 0.50624 0.0
C3406 C 0.76339 0.26461 0.45799 0.0
C3407 C 0.78246 0.26785 0.46376 0.0
C3408 C 0.75449 0.25906 0.49112 0.0
C3409 C 0.78732 0.26479 0.48309 0.0
C3410 C 0.74465 0.26074 0.52573 0.0
C3411 C 0.70678 0.26568 0.51415 0.0
N3412 N 0.77334 0.26094 0.49616 0.0
N3413 N 0.72071 0.26138 0.50116 0.0
H3414 H 0.51261 0.05263 0.73575 0.0
H3415 H 0.51801 0.94024 0.75427 0.0
H3416 H 0.51665 0.00978 0.69094 0.0
H3417 H 0.52007 0.98347 0.79884 0.0
H3418 H 0.50828 0.96498 0.73129 0.0
H3419 H 0.50582 0.02715 0.75894 0.0
C3420 C 0.51168 0.03791 0.7307 0.0
C3421 C 0.51577 0.03324 0.71151 0.0
C3422 C 0.51055 0.96899 0.74617 0.0
C3423 C 0.50822 0.00405 0.73796 0.0
C3424 C 0.51611 0.95487 0.7593 0.0
C3425 C 0.52037 0.95992 0.77836 0.0
C3426 C 0.50934 0.98826 0.75217 0.0
C3427 C 0.51737 0.97903 0.78416 0.0
C3428 C 0.50784 0.02336 0.74396 0.0
C3429 C 0.51406 0.01397 0.70572 0.0
N3430 N 0.51235 0.99257 0.77104 0.0
N3431 N 0.51078 3e-05 0.71897 0.0
H3432 H 0.19209 0.76574 0.00981 0.0
H3433 H 0.30397 0.76683 0.98778 0.0
H3434 H 0.23647 0.77255 0.05277 0.0
H3435 H 0.25946 0.76829 0.94446 0.0
H3436 H 0.27968 0.7589 0.01189 0.0
H3437 H 0.21668 0.75675 0.9864 0.0
C3438 C 0.20696 0.76502 0.01442 0.0
C3439 C 0.21233 0.77044 0.03309 0.0
C3440 C 0.27529 0.76061 -0.00296 0.0
C3441 C 0.24048 0.76028 0.00641 0.0
C3442 C 0.28915 0.76511 0.98326 0.0
C3443 C 0.28361 0.76879 0.96421 0.0
C3444 C 0.25581 0.75988 0.99169 0.0
C3445 C 0.26428 0.76605 0.9591 0.0
C3446 C 0.221 0.75989 0.00104 0.0
C3447 C 0.23176 0.76893 0.03837 0.0
N3448 N 0.251 0.76211 0.97284 0.0
N3449 N 0.24518 0.76432 0.02498 0.0
H3450 H 0.01799 0.48695 0.30225 0.0
H3451 H 0.01798 0.51032 0.19121 0.0
H3452 H 0.01594 0.44377 0.25763 0.0
H3453 H 0.01783 0.55361 0.23577 0.0
H3454 H 0.00964 0.4861 0.21517 0.0
H3455 H 0.01036 0.51149 0.27838 0.0
C3456 C 0.01562 0.48258 0.28748 0.0
C3457 C 0.01812 0.46337 0.28181 0.0
C3458 C 0.01109 0.50095 0.21968 0.0
C3459 C 0.00957 0.4914 0.2544 0.0
C3460 C 0.01588 0.51479 0.206 0.0
C3461 C 0.0191 0.5339 0.21162 0.0
C3462 C 0.00977 0.50624 0.23913 0.0
C3463 C 0.01582 0.53896 0.23087 0.0
C3464 C 0.01124 0.49661 0.27385 0.0
C3465 C 0.01452 0.45848 0.26257 0.0
N3466 N 0.01171 0.52512 0.24403 0.0
N3467 N 0.01079 0.47247 0.24947 0.0
H3468 H 0.73411 0.7266 0.94209 0.0
H3469 H 0.75967 0.7257 0.05285 0.0
H3470 H 0.69184 0.726 0.98758 0.0
H3471 H 0.80193 0.72588 0.00736 0.0
H3472 H 0.73488 0.73384 0.0294 0.0
H3473 H 0.7589 0.73435 0.96568 0.0
C3474 C 0.72999 0.7284 0.95701 0.0
C3475 C 0.71099 0.72514 0.96298 0.0
C3476 C 0.74962 0.73243 0.02458 0.0
C3477 C 0.73931 0.73383 0.99006 0.0
C3478 C 0.76379 0.72776 0.03797 0.0
C3479 C 0.78279 0.72459 0.03194 0.0
C3480 C 0.75447 0.73372 0.00502 0.0
C3481 C 0.78739 0.72783 0.01257 0.0
C3482 C 0.74416 0.73285 0.97048 0.0
C3483 C 0.70639 0.72804 0.98241 0.0
N3484 N 0.77324 0.73185 -0.00028 0.0
N3485 N 0.72053 0.73186 0.99533 0.0
H3486 H 0.97932 0.05414 0.25642 0.0
H3487 H 0.97809 0.94188 0.23655 0.0
H3488 H 0.97698 0.01061 0.30066 0.0
H3489 H 0.9738 0.9855 0.19254 0.0
H3490 H 0.98722 0.96669 0.25969 0.0
H3491 H 0.98692 0.02923 0.23286 0.0
C3492 C 0.98077 0.0394 0.26126 0.0
C3493 C 0.97695 0.03435 0.28041 0.0
C3494 C 0.98461 0.97078 0.24489 0.0
C3495 C 0.98548 0.0058 0.25354 0.0
C3496 C 0.97941 0.95662 0.23166 0.0
C3497 C 0.97464 0.96173 0.21273 0.0
C3498 C 0.98494 0.99016 0.23913 0.0
C3499 C 0.9769 0.98099 0.20712 0.0
C3500 C 0.98509 0.02517 0.24779 0.0
C3501 C 0.97935 0.01507 0.28593 0.0
N3502 N 0.98155 0.99457 0.22035 0.0
N3503 N 0.98311 0.00144 0.27248 0.0
H3504 H 0.49097 0.19127 0.22713 0.0
H3505 H 0.50964 0.3038 0.22959 0.0
H3506 H 0.44633 0.23442 0.22511 0.0
H3507 H 0.55433 0.26085 0.2254 0.0
H3508 H 0.48656 0.27845 0.23726 0.0
H3509 H 0.51417 0.21625 0.23571 0.0
C3510 C 0.48597 0.20593 0.22883 0.0
C3511 C 0.46681 0.21088 0.22488 0.0
C3512 C 0.50149 0.27462 0.235 0.0
C3513 C 0.49325 0.23949 0.23455 0.0
C3514 C 0.51469 0.28909 0.23064 0.0
C3515 C 0.53381 0.28435 0.22631 0.0
C3516 C 0.50749 0.25531 0.23491 0.0
C3517 C 0.53961 0.2651 0.22819 0.0
C3518 C 0.49923 0.22019 0.23371 0.0
C3519 C 0.46107 0.23005 0.22758 0.0
N3520 N 0.52642 0.25123 0.23201 0.0
N3521 N 0.47431 0.24372 0.23193 0.0
H3522 H 0.48499 0.30391 0.01836 0.0
H3523 H 0.50985 0.19316 0.01702 0.0
H3524 H 0.44243 0.25866 0.01832 0.0
H3525 H 0.55239 0.23843 0.01639 0.0
H3526 H 0.48508 0.2168 0.00939 0.0
H3527 H 0.50949 0.28041 0.00956 0.0
C3528 C 0.48074 0.28907 0.01619 0.0
C3529 C 0.46176 0.28311 0.0196 0.0
C3530 C 0.49988 0.22153 0.01057 0.0
C3531 C 0.48975 0.25612 0.00972 0.0
C3532 C 0.51403 0.20804 0.01496 0.0
C3533 C 0.53311 0.21395 0.01788 0.0
C3534 C 0.50482 0.24108 0.00934 0.0
C3535 C 0.53779 0.23331 0.01464 0.0
C3536 C 0.49474 0.27565 0.01114 0.0
C3537 C 0.45698 0.26381 0.0162 0.0
N3538 N 0.52366 0.24627 0.01092 0.0
N3539 N 0.47097 0.25091 0.01182 0.0
H3540 H 0.55192 0.7312 0.26668 0.0
H3541 H 0.4421 0.75967 0.26556 0.0
H3542 H 0.50519 0.69029 0.26772 0.0
H3543 H 0.48884 0.8006 0.26598 0.0
H3544 H 0.46486 0.73425 0.25746 0.0
H3545 H 0.52927 0.75636 0.25754 0.0
C3546 C 0.53693 0.72744 0.26467 0.0
C3547 C 0.53031 0.70876 0.26852 0.0
C3548 C 0.47011 0.74884 0.25897 0.0
C3549 C 0.5043 0.73751 0.25825 0.0
C3550 C 0.45712 0.76337 0.26362 0.0
C3551 C 0.4637 0.78216 0.26701 0.0
C3552 C 0.48982 0.75311 0.25792 0.0
C3553 C 0.48321 0.78622 0.26389 0.0
C3554 C 0.524 0.74182 0.25942 0.0
C3555 C 0.51084 0.7046 0.26528 0.0
N3556 N 0.49567 0.77172 0.25991 0.0
N3557 N 0.49843 0.71897 0.26071 0.0
H3558 H 0.00994 0.30402 0.97581 0.0
H3559 H 0.98268 0.19373 0.97773 0.0
H3560 H 0.05144 0.25783 0.97726 0.0
H3561 H 0.94117 0.23987 0.97546 0.0
H3562 H 0.00762 0.21701 0.9859 0.0
H3563 H 0.98467 0.28112 0.984 0.0
C3564 C 0.0138 0.2891 0.97817 0.0
C3565 C 0.03273 0.2827 0.97532 0.0
C3566 C 0.993 0.22202 0.98395 0.0
C3567 C 0.00385 0.2564 0.98452 0.0
C3568 C 0.97874 0.20873 0.97926 0.0
C3569 C 0.95994 0.21496 0.97538 0.0
C3570 C 0.98844 0.2417 0.98454 0.0
C3571 C 0.95556 0.23449 0.97797 0.0
C3572 C -0.00065 0.27603 0.98287 0.0
C3573 C 0.03696 0.26331 0.97895 0.0
N3574 N 0.96981 0.24724 0.98201 0.0
N3575 N 0.02256 0.25076 0.98299 0.0
H3576 H 0.23013 0.48836 0.19131 0.0
H3577 H 0.22789 0.50506 0.30412 0.0
H3578 H 0.22693 0.44289 0.23351 0.0
H3579 H 0.22473 0.5504 0.26178 0.0
H3580 H 0.23683 0.48249 0.27872 0.0
H3581 H 0.23754 0.51116 0.21699 0.0
C3582 C 0.23136 0.48309 0.20592 0.0
C3583 C 0.22736 0.46381 0.21036 0.0
C3584 C 0.2345 0.49746 0.27504 0.0
C3585 C 0.23567 0.48981 0.23979 0.0
C3586 C 0.22941 0.51036 0.28954 0.0
C3587 C 0.22504 0.52951 0.28496 0.0
C3588 C 0.23512 0.50378 0.25585 0.0
C3589 C 0.22753 0.53564 0.26589 0.0
C3590 C 0.23556 0.49612 0.22059 0.0
C3591 C 0.22945 0.45773 0.2295 0.0
N3592 N 0.23208 0.52273 0.25197 0.0
N3593 N 0.23311 0.47077 0.24357 0.0
H3594 H 0.73515 0.51554 0.05235 0.0
H3595 H 0.75371 0.51397 0.93994 0.0
H3596 H 0.69067 0.52015 0.00922 0.0
H3597 H 0.79846 0.51584 0.98299 0.0
H3598 H 0.73035 0.50653 0.96509 0.0
H3599 H 0.7579 0.50607 0.02732 0.0
C3600 C 0.73008 0.51423 0.03768 0.0
C3601 C 0.71115 0.51918 0.03276 0.0
C3602 C 0.74535 0.50822 0.96898 0.0
C3603 C 0.73708 0.50848 0.00409 0.0
C3604 C 0.7587 0.51244 0.95462 0.0
C3605 C 0.77794 0.5161 0.95948 0.0
C3606 C 0.75131 0.50777 0.98829 0.0
C3607 C 0.78366 0.5136 0.97868 0.0
C3608 C 0.74307 0.50882 0.02339 0.0
C3609 C 0.70527 0.51691 0.01358 0.0
N3610 N 0.77033 0.50995 0.99245 0.0
N3611 N 0.71829 0.51206 -0.00013 0.0
H3612 H 0.76511 0.0112 0.19096 0.0
H3613 H 0.76653 0.98745 0.30257 0.0
H3614 H 0.7701 0.05382 0.2359 0.0
H3615 H 0.76908 0.94483 0.25745 0.0
H3616 H 0.75845 0.01181 0.27858 0.0
H3617 H 0.75708 0.98711 0.21522 0.0
C3618 C 0.76417 0.01559 0.20589 0.0
C3619 C 0.76882 0.03441 0.2115 0.0
C3620 C 0.76045 -0.00294 0.27398 0.0
C3621 C 0.75979 0.00692 0.23929 0.0
C3622 C 0.76505 0.98314 0.28767 0.0
C3623 C 0.769 0.96421 0.2819 0.0
C3624 C 0.75988 0.99198 0.25442 0.0
C3625 C 0.7666 0.95936 0.26246 0.0
C3626 C 0.75961 0.00181 0.21973 0.0
C3627 C 0.76706 0.03935 0.23099 0.0
N3628 N 0.7625 0.97324 0.24936 0.0
N3629 N 0.76302 0.0256 0.24424 0.0
H3630 H 0.73658 0.47696 0.44109 0.0
H3631 H 0.75557 0.47719 0.55342 0.0
H3632 H 0.69204 0.47445 0.4843 0.0
H3633 H 0.80015 0.47438 0.51026 0.0
H3634 H 0.73239 0.4855 0.52839 0.0
H3635 H 0.75981 0.48536 0.46608 0.0
C3636 C 0.73161 0.47853 0.45577 0.0
C3637 C 0.71248 0.47444 0.46073 0.0
C3638 C 0.74731 0.48339 0.52444 0.0
C3639 C 0.73896 0.48389 0.48936 0.0
C3640 C 0.76056 0.47865 0.53874 0.0
C3641 C 0.77969 0.47454 0.53382 0.0
C3642 C 0.75325 0.48389 0.50513 0.0
C3643 C 0.78542 0.47698 0.51462 0.0
C3644 C 0.74488 0.48331 0.47004 0.0
C3645 C 0.70676 0.47701 0.47992 0.0
N3646 N 0.77217 0.48115 0.50091 0.0
N3647 N 0.72003 0.48122 0.4936 0.0
H3648 H 0.26731 0.5492 0.73232 0.0
H3649 H 0.26724 0.43922 0.7602 0.0
H3650 H 0.26963 0.50277 0.69111 0.0
H3651 H 0.26526 0.4857 0.80137 0.0
H3652 H 0.25952 0.46197 0.73465 0.0
H3653 H 0.25809 0.52624 0.75717 0.0
C3654 C 0.26559 0.5342 0.72843 0.0
C3655 C 0.26977 0.52777 0.70976 0.0
C3656 C 0.26041 0.46715 0.74931 0.0
C3657 C 0.2594 0.50141 0.73816 0.0
C3658 C 0.26483 0.45417 0.76392 0.0
C3659 C 0.26746 0.4607 0.78284 0.0
C3660 C 0.25884 0.48682 0.75365 0.0
C3661 C 0.26376 0.48011 0.78691 0.0
C3662 C 0.26029 0.52109 0.74263 0.0
C3663 C 0.2669 0.50828 0.70542 0.0
N3664 N 0.26004 0.49258 0.77235 0.0
N3665 N 0.26227 0.4957 0.71963 0.0
H3666 H 0.1924 0.01749 0.50795 0.0
H3667 H 0.30291 0.01455 0.48227 0.0
H3668 H 0.23803 0.01622 0.55009 0.0
H3669 H 0.25731 0.01633 0.44012 0.0
H3670 H 0.27931 0.0066 0.50696 0.0
H3671 H 0.21553 0.00863 0.48312 0.0
C3672 C 0.20724 0.01505 0.51204 0.0
C3673 C 0.21343 0.01813 0.531 0.0
C3674 C 0.27449 0.00838 0.49225 0.0
C3675 C 0.23999 0.00816 0.50265 0.0
C3676 C 0.28797 0.01293 0.47814 0.0
C3677 C 0.28196 0.01665 0.45923 0.0
C3678 C 0.25488 0.00778 0.48744 0.0
C3679 C 0.26251 0.01395 0.4546 0.0
C3680 C 0.22045 0.00996 0.49785 0.0
C3681 C 0.23272 0.01437 0.53556 0.0
N3682 N 0.24958 0.01007 0.46871 0.0
N3683 N 0.24541 0.00995 0.5214 0.0
H3684 H 0.00668 0.80014 0.72681 0.0
H3685 H 0.98569 0.68795 0.72718 0.0
H3686 H 0.05021 0.75616 0.72138 0.0
H3687 H 0.94185 0.73193 0.7254 0.0
H3688 H 0.00959 0.71263 0.73453 0.0
H3689 H 0.98335 0.7754 0.73566 0.0
C3690 C 0.01142 0.78533 0.72781 0.0
C3691 C 0.03026 0.78011 0.72283 0.0
C3692 C 0.99468 0.71683 0.73287 0.0
C3693 C 0.00367 0.75178 0.73283 0.0
C3694 C 0.98101 0.70274 0.72871 0.0
C3695 C 0.96186 0.70798 0.72513 0.0
C3696 C 0.98912 0.73626 0.73338 0.0
C3697 C 0.95657 0.72731 0.72759 0.0
C3698 C -0.00191 0.77121 0.73285 0.0
C3699 C 0.03569 0.76075 0.72466 0.0
N3700 N 0.97019 0.74081 0.73122 0.0
N3701 N 0.02237 0.74723 0.72919 0.0
H3702 H 0.05313 0.73333 0.51339 0.0
H3703 H 0.94111 0.75503 0.51407 0.0
H3704 H 0.00889 0.68991 0.51764 0.0
H3705 H 0.98544 0.7984 0.51773 0.0
H3706 H 0.9656 0.73125 0.50577 0.0
H3707 H 0.02853 0.75704 0.50524 0.0
C3708 C 0.03829 0.72868 0.51223 0.0
C3709 C 0.03296 0.70975 0.51674 0.0
C3710 C 0.96992 0.74604 0.50806 0.0
C3711 C 0.00478 0.7368 0.50759 0.0
C3712 C 0.95594 0.75963 0.51279 0.0
C3713 C 0.96133 0.77859 0.51712 0.0
C3714 C 0.98938 0.75148 0.50774 0.0
C3715 C 0.98071 0.78382 0.51495 0.0
C3716 C 0.02425 0.74224 0.50761 0.0
C3717 C 0.01357 0.70448 0.51472 0.0
N3718 N 0.99409 0.77026 0.51073 0.0
N3719 N 0.00013 0.71802 0.51064 0.0
H3720 H 0.00673 0.18752 0.76505 0.0
H3721 H 0.98759 0.29983 0.76257 0.0
H3722 H 0.05121 0.23088 0.76628 0.0
H3723 H 0.94317 0.25664 0.76731 0.0
H3724 H 0.01066 0.27463 0.75441 0.0
H3725 H 0.98338 0.21228 0.75635 0.0
C3726 C 0.01166 0.20217 0.76313 0.0
C3727 C 0.03081 0.20726 0.76695 0.0
C3728 C 0.99579 0.27071 0.7569 0.0
C3729 C 0.0042 0.23563 0.75715 0.0
C3730 C 0.9826 0.2851 0.76155 0.0
C3731 C 0.96358 0.28024 0.76618 0.0
C3732 C 0.98988 0.25137 0.757 0.0
C3733 C 0.95783 0.26097 0.7643 0.0
C3734 C -0.00168 0.21632 0.75818 0.0
C3735 C 0.03647 0.22641 0.76394 0.0
N3736 N 0.97102 0.24718 0.7602 0.0
N3737 N 0.02314 0.23997 0.75956 0.0
H3738 H 0.48358 0.69228 0.47615 0.0
H3739 H 0.50822 0.80311 0.4763 0.0
H3740 H 0.44098 0.73748 0.47566 0.0
H3741 H 0.55085 0.75794 0.47678 0.0
H3742 H 0.48357 0.77948 0.48434 0.0
H3743 H 0.50808 0.71592 0.48462 0.0
C3744 C 0.47932 0.70715 0.47812 0.0
C3745 C 0.46032 0.71304 0.47466 0.0
C3746 C 0.49837 0.77477 0.48302 0.0
C3747 C 0.48831 0.74018 0.48417 0.0
C3748 C 0.51245 0.78826 0.47841 0.0
C3749 C 0.5315 0.78236 0.47534 0.0
C3750 C 0.50336 0.75524 0.48433 0.0
C3751 C 0.53625 0.76304 0.47865 0.0
C3752 C 0.49332 0.72064 0.48299 0.0
C3753 C 0.45553 0.73238 0.47783 0.0
N3754 N 0.52218 0.75007 0.48259 0.0
N3755 N 0.46952 0.74534 0.48203 0.0
H3756 H 0.72999 0.94177 0.73292 0.0
H3757 H 0.7272 0.05214 0.75902 0.0
H3758 H 0.72881 0.98759 0.69102 0.0
H3759 H 0.72729 0.00633 0.80095 0.0
H3760 H 0.73655 0.02909 0.7343 0.0
H3761 H 0.73787 0.96519 0.75782 0.0
C3762 C 0.73173 0.95672 0.72889 0.0
C3763 C 0.72817 0.96285 0.70999 0.0
C3764 C 0.73486 0.02411 0.74897 0.0
C3765 C 0.73698 0.98973 0.73843 0.0
C3766 C 0.72948 0.03727 0.76309 0.0
C3767 C 0.72592 0.03101 0.78194 0.0
C3768 C 0.73644 0.00454 0.7537 0.0
C3769 C 0.72952 0.0117 0.7865 0.0
C3770 C 0.73625 0.97009 0.74312 0.0
C3771 C 0.73104 0.98231 0.70549 0.0
N3772 N 0.7342 -0.00096 0.77238 0.0
N3773 N 0.73488 0.99514 0.71971 0.0
H3774 H 0.25457 0.98016 0.04933 0.0
H3775 H 0.23862 0.97539 0.93667 0.0
H3776 H 0.30026 0.97604 0.00747 0.0
H3777 H 0.19291 0.97464 0.9787 0.0
H3778 H 0.26114 0.98491 0.9619 0.0
H3779 H 0.23202 0.98752 0.02341 0.0
C3780 C 0.25994 0.98117 0.03474 0.0
C3781 C 0.27918 0.97691 0.03046 0.0
C3782 C 0.24611 0.98299 0.96554 0.0
C3783 C 0.2535 0.98514 0.00078 0.0
C3784 C 0.23325 0.97755 0.95113 0.0
C3785 C 0.214 0.97367 0.95573 0.0
C3786 C 0.23965 0.9844 0.98464 0.0
C3787 C 0.20775 0.97702 0.97463 0.0
C3788 C 0.24706 0.98535 0.01994 0.0
C3789 C 0.28542 0.97873 0.01135 0.0
N3790 N 0.22062 0.98185 0.98848 0.0
N3791 N 0.27254 0.98236 -0.00284 0.0
loop_
_geom_bond_atom_site_label_1
_geom_bond_atom_site_label_2
_geom_bond_distance
_geom_bond_site_symmetry_2
_ccdc_geom_bond_type
Co0 O3 1.970 . S
Co0 N17 1.989 . S
Co0 O25 1.967 . S
Co0 O32 1.920 . S
Co1 O4 1.966 . S
Co1 N10 2.022 . S
Co1 N18 1.993 . S
Co1 O26 1.941 . S
C2 O3 1.258 . S
C2 O4 1.263 . S
O3 Co0 1.970 . S
O3 C2 1.258 . S
O4 Co1 1.966 . S
O4 C2 1.263 . S
C5 O6 1.235 . S
C5 O32 1.289 . S
O6 C5 1.235 . S
C7 C9 1.400 . S
C7 N10 1.351 . S
C7 C12 1.501 . S
C8 C9 1.387 . S
C8 N11 1.341 . S
C9 C7 1.400 . S
C9 C8 1.387 . S
N10 Co1 2.022 . S
N10 C7 1.351 . S
N10 N11 1.365 . S
N11 C8 1.341 . S
N11 N10 1.365 . S
N11 H31 0.862 . S
C12 C7 1.501 . S
C12 H13 0.961 . S
C12 H14 0.961 . S
C12 H15 0.960 . S
H13 C12 0.961 . S
H14 C12 0.961 . S
H15 C12 0.960 . S
C16 N17 1.342 . S
C16 C20 1.401 . S
C16 C21 1.499 . S
N17 Co0 1.989 . S
N17 C16 1.342 . S
N17 N18 1.388 . S
N18 Co1 1.993 . S
N18 N17 1.388 . S
N18 C19 1.346 . S
C19 N18 1.346 . S
C19 C20 1.396 . S
C19 C29 1.510 . S
C20 C16 1.401 . S
C20 C19 1.396 . S
C21 C16 1.499 . S
C21 H22 0.959 . S
C21 H23 0.960 . S
C21 H24 0.961 . S
H22 C21 0.959 . S
H23 C21 0.960 . S
H24 C21 0.961 . S
O25 Co0 1.967 . S
O25 C33 1.258 . S
O26 Co1 1.941 . S
O26 C33 1.266 . S
H27 C29 0.959 . S
H28 C29 0.961 . S
C29 C19 1.510 . S
C29 H27 0.959 . S
C29 H28 0.961 . S
C29 H30 0.960 . S
H30 C29 0.960 . S
H31 N11 0.862 . S
O32 Co0 1.920 . S
O32 C5 1.289 . S
C33 O25 1.258 . S
C33 O26 1.266 . S
Co34 O37 1.970 . S
Co34 N51 1.989 . S
Co34 O59 1.967 . S
Co34 O66 1.920 . S
Co35 O38 1.966 . S
Co35 N44 2.022 . S
Co35 N52 1.993 . S
Co35 O60 1.941 . S
C36 O37 1.258 . S
C36 O38 1.263 . S
O37 Co34 1.970 . S
O37 C36 1.258 . S
O38 Co35 1.966 . S
O38 C36 1.263 . S
C39 O40 1.235 . S
C39 O66 1.289 . S
O40 C39 1.235 . S
C41 C43 1.400 . S
C41 N44 1.351 . S
C41 C46 1.501 . S
C42 C43 1.387 . S
C42 N45 1.341 . S
C43 C41 1.400 . S
C43 C42 1.387 . S
N44 Co35 2.022 . S
N44 C41 1.351 . S
N44 N45 1.365 . S
N45 C42 1.341 . S
N45 N44 1.365 . S
N45 H65 0.862 . S
C46 C41 1.501 . S
C46 H47 0.961 . S
C46 H48 0.961 . S
C46 H49 0.960 . S
H47 C46 0.961 . S
H48 C46 0.961 . S
H49 C46 0.960 . S
C50 N51 1.342 . S
C50 C54 1.401 . S
C50 C55 1.499 . S
N51 Co34 1.989 . S
N51 C50 1.342 . S
N51 N52 1.388 . S
N52 Co35 1.993 . S
N52 N51 1.388 . S
N52 C53 1.346 . S
C53 N52 1.346 . S
C53 C54 1.396 . S
C53 C63 1.510 . S
C54 C50 1.401 . S
C54 C53 1.396 . S
C55 C50 1.499 . S
C55 H56 0.959 . S
C55 H57 0.960 . S
C55 H58 0.961 . S
H56 C55 0.959 . S
H57 C55 0.960 . S
H58 C55 0.961 . S
O59 Co34 1.967 . S
O59 C67 1.258 . S
O60 Co35 1.941 . S
O60 C67 1.266 . S
H61 C63 0.959 . S
H62 C63 0.961 . S
C63 C53 1.510 . S
C63 H61 0.959 . S
C63 H62 0.961 . S
C63 H64 0.960 . S
H64 C63 0.960 . S
H65 N45 0.862 . S
O66 Co34 1.920 . S
O66 C39 1.289 . S
C67 O59 1.258 . S
C67 O60 1.266 . S
Co68 O71 1.970 . S
Co68 N85 1.989 . S
Co68 O93 1.967 . S
Co68 O100 1.920 . S
Co69 O72 1.966 . S
Co69 N78 2.022 . S
Co69 N86 1.993 . S
Co69 O94 1.941 . S
C70 O71 1.258 . S
C70 O72 1.263 . S
O71 Co68 1.970 . S
O71 C70 1.258 . S
O72 Co69 1.966 . S
O72 C70 1.263 . S
C73 O74 1.235 . S
C73 O100 1.289 . S
O74 C73 1.235 . S
C75 C77 1.400 . S
C75 N78 1.351 . S
C75 C80 1.501 . S
C76 C77 1.387 . S
C76 N79 1.341 . S
C77 C75 1.400 . S
C77 C76 1.387 . S
N78 Co69 2.022 . S
N78 C75 1.351 . S
N78 N79 1.365 . S
N79 C76 1.341 . S
N79 N78 1.365 . S
N79 H99 0.862 . S
C80 C75 1.501 . S
C80 H81 0.961 . S
C80 H82 0.961 . S
C80 H83 0.960 . S
H81 C80 0.961 . S
H82 C80 0.961 . S
H83 C80 0.960 . S
C84 N85 1.342 . S
C84 C88 1.401 . S
C84 C89 1.499 . S
N85 Co68 1.989 . S
N85 C84 1.342 . S
N85 N86 1.388 . S
N86 Co69 1.993 . S
N86 N85 1.388 . S
N86 C87 1.346 . S
C87 N86 1.346 . S
C87 C88 1.396 . S
C87 C97 1.510 . S
C88 C84 1.401 . S
C88 C87 1.396 . S
C89 C84 1.499 . S
C89 H90 0.959 . S
C89 H91 0.960 . S
C89 H92 0.961 . S
H90 C89 0.959 . S
H91 C89 0.960 . S
H92 C89 0.961 . S
O93 Co68 1.967 . S
O93 C101 1.258 . S
O94 Co69 1.941 . S
O94 C101 1.266 . S
H95 C97 0.959 . S
H96 C97 0.961 . S
C97 C87 1.510 . S
C97 H95 0.959 . S
C97 H96 0.961 . S
C97 H98 0.960 . S
H98 C97 0.960 . S
H99 N79 0.862 . S
O100 Co68 1.920 . S
O100 C73 1.289 . S
C101 O93 1.258 . S
C101 O94 1.266 . S
Co102 O105 1.970 . S
Co102 N119 1.989 . S
Co102 O127 1.967 . S
Co102 O134 1.920 . S
Co103 O106 1.966 . S
Co103 N112 2.022 . S
Co103 N120 1.993 . S
Co103 O128 1.941 . S
C104 O105 1.258 . S
C104 O106 1.263 . S
O105 Co102 1.970 . S
O105 C104 1.258 . S
O106 Co103 1.966 . S
O106 C104 1.263 . S
C107 O108 1.235 . S
C107 O134 1.289 . S
O108 C107 1.235 . S
C109 C111 1.400 . S
C109 N112 1.351 . S
C109 C114 1.501 . S
C110 C111 1.387 . S
C110 N113 1.341 . S
C111 C109 1.400 . S
C111 C110 1.387 . S
N112 Co103 2.022 . S
N112 C109 1.351 . S
N112 N113 1.365 . S
N113 C110 1.341 . S
N113 N112 1.365 . S
N113 H133 0.862 . S
C114 C109 1.501 . S
C114 H115 0.961 . S
C114 H116 0.961 . S
C114 H117 0.960 . S
H115 C114 0.961 . S
H116 C114 0.961 . S
H117 C114 0.960 . S
C118 N119 1.342 . S
C118 C122 1.401 . S
C118 C123 1.499 . S
N119 Co102 1.989 . S
N119 C118 1.342 . S
N119 N120 1.388 . S
N120 Co103 1.993 . S
N120 N119 1.388 . S
N120 C121 1.346 . S
C121 N120 1.346 . S
C121 C122 1.396 . S
C121 C131 1.510 . S
C122 C118 1.401 . S
C122 C121 1.396 . S
C123 C118 1.499 . S
C123 H124 0.959 . S
C123 H125 0.960 . S
C123 H126 0.961 . S
H124 C123 0.959 . S
H125 C123 0.960 . S
H126 C123 0.961 . S
O127 Co102 1.967 . S
O127 C135 1.258 . S
O128 Co103 1.941 . S
O128 C135 1.266 . S
H129 C131 0.959 . S
H130 C131 0.961 . S
C131 C121 1.510 . S
C131 H129 0.959 . S
C131 H130 0.961 . S
C131 H132 0.960 . S
H132 C131 0.960 . S
H133 N113 0.862 . S
O134 Co102 1.920 . S
O134 C107 1.289 . S
C135 O127 1.258 . S
C135 O128 1.266 . S
Co136 O139 1.970 . S
Co136 N153 1.989 . S
Co136 O161 1.967 . S
Co136 O168 1.920 . S
Co137 O140 1.966 . S
Co137 N146 2.022 . S
Co137 N154 1.993 . S
Co137 O162 1.941 . S
C138 O139 1.258 . S
C138 O140 1.263 . S
O139 Co136 1.970 . S
O139 C138 1.258 . S
O140 Co137 1.966 . S
O140 C138 1.263 . S
C141 O142 1.235 . S
C141 O168 1.289 . S
O142 C141 1.235 . S
C143 C145 1.400 . S
C143 N146 1.351 . S
C143 C148 1.501 . S
C144 C145 1.387 . S
C144 N147 1.341 . S
C145 C143 1.400 . S
C145 C144 1.387 . S
N146 Co137 2.022 . S
N146 C143 1.351 . S
N146 N147 1.365 . S
N147 C144 1.341 . S
N147 N146 1.365 . S
N147 H167 0.862 . S
C148 C143 1.501 . S
C148 H149 0.961 . S
C148 H150 0.961 . S
C148 H151 0.960 . S
H149 C148 0.961 . S
H150 C148 0.961 . S
H151 C148 0.960 . S
C152 N153 1.342 . S
C152 C156 1.401 . S
C152 C157 1.499 . S
N153 Co136 1.989 . S
N153 C152 1.342 . S
N153 N154 1.388 . S
N154 Co137 1.993 . S
N154 N153 1.388 . S
N154 C155 1.346 . S
C155 N154 1.346 . S
C155 C156 1.396 . S
C155 C165 1.510 . S
C156 C152 1.401 . S
C156 C155 1.396 . S
C157 C152 1.499 . S
C157 H158 0.959 . S
C157 H159 0.960 . S
C157 H160 0.961 . S
H158 C157 0.959 . S
H159 C157 0.960 . S
H160 C157 0.961 . S
O161 Co136 1.967 . S
O161 C169 1.258 . S
O162 Co137 1.941 . S
O162 C169 1.266 . S
H163 C165 0.959 . S
H164 C165 0.961 . S
C165 C155 1.510 . S
C165 H163 0.959 . S
C165 H164 0.961 . S
C165 H166 0.960 . S
H166 C165 0.960 . S
H167 N147 0.862 . S
O168 Co136 1.920 . S
O168 C141 1.289 . S
C169 O161 1.258 . S
C169 O162 1.266 . S
Co170 O173 1.970 . S
Co170 N187 1.989 . S
Co170 O195 1.967 . S
Co170 O202 1.920 . S
Co171 O174 1.966 . S
Co171 N180 2.022 . S
Co171 N188 1.993 . S
Co171 O196 1.941 . S
C172 O173 1.258 . S
C172 O174 1.263 . S
O173 Co170 1.970 . S
O173 C172 1.258 . S
O174 Co171 1.966 . S
O174 C172 1.263 . S
C175 O176 1.235 . S
C175 O202 1.289 . S
O176 C175 1.235 . S
C177 C179 1.400 . S
C177 N180 1.351 . S
C177 C182 1.501 . S
C178 C179 1.387 . S
C178 N181 1.341 . S
C179 C177 1.400 . S
C179 C178 1.387 . S
N180 Co171 2.022 . S
N180 C177 1.351 . S
N180 N181 1.365 . S
N181 C178 1.341 . S
N181 N180 1.365 . S
N181 H201 0.862 . S
C182 C177 1.501 . S
C182 H183 0.961 . S
C182 H184 0.961 . S
C182 H185 0.960 . S
H183 C182 0.961 . S
H184 C182 0.961 . S
H185 C182 0.960 . S
C186 N187 1.342 . S
C186 C190 1.401 . S
C186 C191 1.499 . S
N187 Co170 1.989 . S
N187 C186 1.342 . S
N187 N188 1.388 . S
N188 Co171 1.993 . S
N188 N187 1.388 . S
N188 C189 1.346 . S
C189 N188 1.346 . S
C189 C190 1.396 . S
C189 C199 1.510 . S
C190 C186 1.401 . S
C190 C189 1.396 . S
C191 C186 1.499 . S
C191 H192 0.959 . S
C191 H193 0.960 . S
C191 H194 0.961 . S
H192 C191 0.959 . S
H193 C191 0.960 . S
H194 C191 0.961 . S
O195 Co170 1.967 . S
O195 C203 1.258 . S
O196 Co171 1.941 . S
O196 C203 1.266 . S
H197 C199 0.959 . S
H198 C199 0.961 . S
C199 C189 1.510 . S
C199 H197 0.959 . S
C199 H198 0.961 . S
C199 H200 0.960 . S
H200 C199 0.960 . S
H201 N181 0.862 . S
O202 Co170 1.920 . S
O202 C175 1.289 . S
C203 O195 1.258 . S
C203 O196 1.266 . S
Co204 O207 1.970 . S
Co204 N221 1.989 . S
Co204 O229 1.967 . S
Co204 O236 1.920 . S
Co205 O208 1.966 . S
Co205 N214 2.022 . S
Co205 N222 1.993 . S
Co205 O230 1.941 . S
C206 O207 1.258 . S
C206 O208 1.263 . S
O207 Co204 1.970 . S
O207 C206 1.258 . S
O208 Co205 1.966 . S
O208 C206 1.263 . S
C209 O210 1.235 . S
C209 O236 1.289 . S
O210 C209 1.235 . S
C211 C213 1.400 . S
C211 N214 1.351 . S
C211 C216 1.501 . S
C212 C213 1.387 . S
C212 N215 1.341 . S
C213 C211 1.400 . S
C213 C212 1.387 . S
N214 Co205 2.022 . S
N214 C211 1.351 . S
N214 N215 1.365 . S
N215 C212 1.341 . S
N215 N214 1.365 . S
N215 H235 0.862 . S
C216 C211 1.501 . S
C216 H217 0.961 . S
C216 H218 0.961 . S
C216 H219 0.960 . S
H217 C216 0.961 . S
H218 C216 0.961 . S
H219 C216 0.960 . S
C220 N221 1.342 . S
C220 C224 1.401 . S
C220 C225 1.499 . S
N221 Co204 1.989 . S
N221 C220 1.342 . S
N221 N222 1.388 . S
N222 Co205 1.993 . S
N222 N221 1.388 . S
N222 C223 1.346 . S
C223 N222 1.346 . S
C223 C224 1.396 . S
C223 C233 1.510 . S
C224 C220 1.401 . S
C224 C223 1.396 . S
C225 C220 1.499 . S
C225 H226 0.959 . S
C225 H227 0.960 . S
C225 H228 0.961 . S
H226 C225 0.959 . S
H227 C225 0.960 . S
H228 C225 0.961 . S
O229 Co204 1.967 . S
O229 C237 1.258 . S
O230 Co205 1.941 . S
O230 C237 1.266 . S
H231 C233 0.959 . S
H232 C233 0.961 . S
C233 C223 1.510 . S
C233 H231 0.959 . S
C233 H232 0.961 . S
C233 H234 0.960 . S
H234 C233 0.960 . S
H235 N215 0.862 . S
O236 Co204 1.920 . S
O236 C209 1.289 . S
C237 O229 1.258 . S
C237 O230 1.266 . S
Co238 O241 1.970 . S
Co238 N255 1.989 . S
Co238 O263 1.967 . S
Co238 O270 1.920 . S
Co239 O242 1.966 . S
Co239 N248 2.022 . S
Co239 N256 1.993 . S
Co239 O264 1.941 . S
C240 O241 1.258 . S
C240 O242 1.263 . S
O241 Co238 1.970 . S
O241 C240 1.258 . S
O242 Co239 1.966 . S
O242 C240 1.263 . S
C243 O244 1.235 . S
C243 O270 1.289 . S
O244 C243 1.235 . S
C245 C247 1.400 . S
C245 N248 1.351 . S
C245 C250 1.501 . S
C246 C247 1.387 . S
C246 N249 1.341 . S
C247 C245 1.400 . S
C247 C246 1.387 . S
N248 Co239 2.022 . S
N248 C245 1.351 . S
N248 N249 1.365 . S
N249 C246 1.341 . S
N249 N248 1.365 . S
N249 H269 0.862 . S
C250 C245 1.501 . S
C250 H251 0.961 . S
C250 H252 0.961 . S
C250 H253 0.960 . S
H251 C250 0.961 . S
H252 C250 0.961 . S
H253 C250 0.960 . S
C254 N255 1.342 . S
C254 C258 1.401 . S
C254 C259 1.499 . S
N255 Co238 1.989 . S
N255 C254 1.342 . S
N255 N256 1.388 . S
N256 Co239 1.993 . S
N256 N255 1.388 . S
N256 C257 1.346 . S
C257 N256 1.346 . S
C257 C258 1.396 . S
C257 C267 1.510 . S
C258 C254 1.401 . S
C258 C257 1.396 . S
C259 C254 1.499 . S
C259 H260 0.959 . S
C259 H261 0.960 . S
C259 H262 0.961 . S
H260 C259 0.959 . S
H261 C259 0.960 . S
H262 C259 0.961 . S
O263 Co238 1.967 . S
O263 C271 1.258 . S
O264 Co239 1.941 . S
O264 C271 1.266 . S
H265 C267 0.959 . S
H266 C267 0.961 . S
C267 C257 1.510 . S
C267 H265 0.959 . S
C267 H266 0.961 . S
C267 H268 0.960 . S
H268 C267 0.960 . S
H269 N249 0.862 . S
O270 Co238 1.920 . S
O270 C243 1.289 . S
C271 O263 1.258 . S
C271 O264 1.266 . S
Co272 O275 1.970 . S
Co272 N289 1.989 . S
Co272 O297 1.967 . S
Co272 O304 1.920 . S
Co273 O276 1.966 . S
Co273 N282 2.022 . S
Co273 N290 1.993 . S
Co273 O298 1.941 . S
C274 O275 1.258 . S
C274 O276 1.263 . S
O275 Co272 1.970 . S
O275 C274 1.258 . S
O276 Co273 1.966 . S
O276 C274 1.263 . S
C277 O278 1.235 . S
C277 O304 1.289 . S
O278 C277 1.235 . S
C279 C281 1.400 . S
C279 N282 1.351 . S
C279 C284 1.501 . S
C280 C281 1.387 . S
C280 N283 1.341 . S
C281 C279 1.400 . S
C281 C280 1.387 . S
N282 Co273 2.022 . S
N282 C279 1.351 . S
N282 N283 1.365 . S
N283 C280 1.341 . S
N283 N282 1.365 . S
N283 H303 0.862 . S
C284 C279 1.501 . S
C284 H285 0.961 . S
C284 H286 0.961 . S
C284 H287 0.960 . S
H285 C284 0.961 . S
H286 C284 0.961 . S
H287 C284 0.960 . S
C288 N289 1.342 . S
C288 C292 1.401 . S
C288 C293 1.499 . S
N289 Co272 1.989 . S
N289 C288 1.342 . S
N289 N290 1.388 . S
N290 Co273 1.993 . S
N290 N289 1.388 . S
N290 C291 1.346 . S
C291 N290 1.346 . S
C291 C292 1.396 . S
C291 C301 1.510 . S
C292 C288 1.401 . S
C292 C291 1.396 . S
C293 C288 1.499 . S
C293 H294 0.959 . S
C293 H295 0.960 . S
C293 H296 0.961 . S
H294 C293 0.959 . S
H295 C293 0.960 . S
H296 C293 0.961 . S
O297 Co272 1.967 . S
O297 C305 1.258 . S
O298 Co273 1.941 . S
O298 C305 1.266 . S
H299 C301 0.959 . S
H300 C301 0.961 . S
C301 C291 1.510 . S
C301 H299 0.959 . S
C301 H300 0.961 . S
C301 H302 0.960 . S
H302 C301 0.960 . S
H303 N283 0.862 . S
O304 Co272 1.920 . S
O304 C277 1.289 . S
C305 O297 1.258 . S
C305 O298 1.266 . S
Co306 O309 1.970 . S
Co306 N323 1.989 . S
Co306 O331 1.967 . S
Co306 O338 1.920 . S
Co307 O310 1.966 . S
Co307 N316 2.022 . S
Co307 N324 1.993 . S
Co307 O332 1.941 . S
C308 O309 1.258 . S
C308 O310 1.263 . S
O309 Co306 1.970 . S
O309 C308 1.258 . S
O310 Co307 1.966 . S
O310 C308 1.263 . S
C311 O312 1.235 . S
C311 O338 1.289 . S
O312 C311 1.235 . S
C313 C315 1.400 . S
C313 N316 1.351 . S
C313 C318 1.501 . S
C314 C315 1.387 . S
C314 N317 1.341 . S
C315 C313 1.400 . S
C315 C314 1.387 . S
N316 Co307 2.022 . S
N316 C313 1.351 . S
N316 N317 1.365 . S
N317 C314 1.341 . S
N317 N316 1.365 . S
N317 H337 0.862 . S
C318 C313 1.501 . S
C318 H319 0.961 . S
C318 H320 0.961 . S
C318 H321 0.960 . S
H319 C318 0.961 . S
H320 C318 0.961 . S
H321 C318 0.960 . S
C322 N323 1.342 . S
C322 C326 1.401 . S
C322 C327 1.499 . S
N323 Co306 1.989 . S
N323 C322 1.342 . S
N323 N324 1.388 . S
N324 Co307 1.993 . S
N324 N323 1.388 . S
N324 C325 1.346 . S
C325 N324 1.346 . S
C325 C326 1.396 . S
C325 C335 1.510 . S
C326 C322 1.401 . S
C326 C325 1.396 . S
C327 C322 1.499 . S
C327 H328 0.959 . S
C327 H329 0.960 . S
C327 H330 0.961 . S
H328 C327 0.959 . S
H329 C327 0.960 . S
H330 C327 0.961 . S
O331 Co306 1.967 . S
O331 C339 1.258 . S
O332 Co307 1.941 . S
O332 C339 1.266 . S
H333 C335 0.959 . S
H334 C335 0.961 . S
C335 C325 1.510 . S
C335 H333 0.959 . S
C335 H334 0.961 . S
C335 H336 0.960 . S
H336 C335 0.960 . S
H337 N317 0.862 . S
O338 Co306 1.920 . S
O338 C311 1.289 . S
C339 O331 1.258 . S
C339 O332 1.266 . S
Co340 O343 1.970 . S
Co340 N357 1.989 . S
Co340 O365 1.967 . S
Co340 O372 1.920 . S
Co341 O344 1.966 . S
Co341 N350 2.022 . S
Co341 N358 1.993 . S
Co341 O366 1.941 . S
C342 O343 1.258 . S
C342 O344 1.263 . S
O343 Co340 1.970 . S
O343 C342 1.258 . S
O344 Co341 1.966 . S
O344 C342 1.263 . S
C345 O346 1.235 . S
C345 O372 1.289 . S
O346 C345 1.235 . S
C347 C349 1.400 . S
C347 N350 1.351 . S
C347 C352 1.501 . S
C348 C349 1.387 . S
C348 N351 1.341 . S
C349 C347 1.400 . S
C349 C348 1.387 . S
N350 Co341 2.022 . S
N350 C347 1.351 . S
N350 N351 1.365 . S
N351 C348 1.341 . S
N351 N350 1.365 . S
N351 H371 0.862 . S
C352 C347 1.501 . S
C352 H353 0.961 . S
C352 H354 0.961 . S
C352 H355 0.960 . S
H353 C352 0.961 . S
H354 C352 0.961 . S
H355 C352 0.960 . S
C356 N357 1.342 . S
C356 C360 1.401 . S
C356 C361 1.499 . S
N357 Co340 1.989 . S
N357 C356 1.342 . S
N357 N358 1.388 . S
N358 Co341 1.993 . S
N358 N357 1.388 . S
N358 C359 1.346 . S
C359 N358 1.346 . S
C359 C360 1.396 . S
C359 C369 1.510 . S
C360 C356 1.401 . S
C360 C359 1.396 . S
C361 C356 1.499 . S
C361 H362 0.959 . S
C361 H363 0.960 . S
C361 H364 0.961 . S
H362 C361 0.959 . S
H363 C361 0.960 . S
H364 C361 0.961 . S
O365 Co340 1.967 . S
O365 C373 1.258 . S
O366 Co341 1.941 . S
O366 C373 1.266 . S
H367 C369 0.959 . S
H368 C369 0.961 . S
C369 C359 1.510 . S
C369 H367 0.959 . S
C369 H368 0.961 . S
C369 H370 0.960 . S
H370 C369 0.960 . S
H371 N351 0.862 . S
O372 Co340 1.920 . S
O372 C345 1.289 . S
C373 O365 1.258 . S
C373 O366 1.266 . S
Co374 O377 1.970 . S
Co374 N391 1.989 . S
Co374 O399 1.967 . S
Co374 O406 1.920 . S
Co375 O378 1.966 . S
Co375 N384 2.022 . S
Co375 N392 1.993 . S
Co375 O400 1.941 . S
C376 O377 1.258 . S
C376 O378 1.263 . S
O377 Co374 1.970 . S
O377 C376 1.258 . S
O378 Co375 1.966 . S
O378 C376 1.263 . S
C379 O380 1.235 . S
C379 O406 1.289 . S
O380 C379 1.235 . S
C381 C383 1.400 . S
C381 N384 1.351 . S
C381 C386 1.501 . S
C382 C383 1.387 . S
C382 N385 1.341 . S
C383 C381 1.400 . S
C383 C382 1.387 . S
N384 Co375 2.022 . S
N384 C381 1.351 . S
N384 N385 1.365 . S
N385 C382 1.341 . S
N385 N384 1.365 . S
N385 H405 0.862 . S
C386 C381 1.501 . S
C386 H387 0.961 . S
C386 H388 0.961 . S
C386 H389 0.960 . S
H387 C386 0.961 . S
H388 C386 0.961 . S
H389 C386 0.960 . S
C390 N391 1.342 . S
C390 C394 1.401 . S
C390 C395 1.499 . S
N391 Co374 1.989 . S
N391 C390 1.342 . S
N391 N392 1.388 . S
N392 Co375 1.993 . S
N392 N391 1.388 . S
N392 C393 1.346 . S
C393 N392 1.346 . S
C393 C394 1.396 . S
C393 C403 1.510 . S
C394 C390 1.401 . S
C394 C393 1.396 . S
C395 C390 1.499 . S
C395 H396 0.959 . S
C395 H397 0.960 . S
C395 H398 0.961 . S
H396 C395 0.959 . S
H397 C395 0.960 . S
H398 C395 0.961 . S
O399 Co374 1.967 . S
O399 C407 1.258 . S
O400 Co375 1.941 . S
O400 C407 1.266 . S
H401 C403 0.959 . S
H402 C403 0.961 . S
C403 C393 1.510 . S
C403 H401 0.959 . S
C403 H402 0.961 . S
C403 H404 0.960 . S
H404 C403 0.960 . S
H405 N385 0.862 . S
O406 Co374 1.920 . S
O406 C379 1.289 . S
C407 O399 1.258 . S
C407 O400 1.266 . S
Co408 O411 1.970 . S
Co408 N425 1.989 . S
Co408 O433 1.967 . S
Co408 O440 1.920 . S
Co409 O412 1.966 . S
Co409 N418 2.022 . S
Co409 N426 1.993 . S
Co409 O434 1.941 . S
C410 O411 1.258 . S
C410 O412 1.263 . S
O411 Co408 1.970 . S
O411 C410 1.258 . S
O412 Co409 1.966 . S
O412 C410 1.263 . S
C413 O414 1.235 . S
C413 O440 1.289 . S
O414 C413 1.235 . S
C415 C417 1.400 . S
C415 N418 1.351 . S
C415 C420 1.501 . S
C416 C417 1.387 . S
C416 N419 1.341 . S
C417 C415 1.400 . S
C417 C416 1.387 . S
N418 Co409 2.022 . S
N418 C415 1.351 . S
N418 N419 1.365 . S
N419 C416 1.341 . S
N419 N418 1.365 . S
N419 H439 0.862 . S
C420 C415 1.501 . S
C420 H421 0.961 . S
C420 H422 0.961 . S
C420 H423 0.960 . S
H421 C420 0.961 . S
H422 C420 0.961 . S
H423 C420 0.960 . S
C424 N425 1.342 . S
C424 C428 1.401 . S
C424 C429 1.499 . S
N425 Co408 1.989 . S
N425 C424 1.342 . S
N425 N426 1.388 . S
N426 Co409 1.993 . S
N426 N425 1.388 . S
N426 C427 1.346 . S
C427 N426 1.346 . S
C427 C428 1.396 . S
C427 C437 1.510 . S
C428 C424 1.401 . S
C428 C427 1.396 . S
C429 C424 1.499 . S
C429 H430 0.959 . S
C429 H431 0.960 . S
C429 H432 0.961 . S
H430 C429 0.959 . S
H431 C429 0.960 . S
H432 C429 0.961 . S
O433 Co408 1.967 . S
O433 C441 1.258 . S
O434 Co409 1.941 . S
O434 C441 1.266 . S
H435 C437 0.959 . S
H436 C437 0.961 . S
C437 C427 1.510 . S
C437 H435 0.959 . S
C437 H436 0.961 . S
C437 H438 0.960 . S
H438 C437 0.960 . S
H439 N419 0.862 . S
O440 Co408 1.920 . S
O440 C413 1.289 . S
C441 O433 1.258 . S
C441 O434 1.266 . S
Co442 O445 1.970 . S
Co442 N459 1.989 . S
Co442 O467 1.967 . S
Co442 O474 1.920 . S
Co443 O446 1.966 . S
Co443 N452 2.022 . S
Co443 N460 1.993 . S
Co443 O468 1.941 . S
C444 O445 1.258 . S
C444 O446 1.263 . S
O445 Co442 1.970 . S
O445 C444 1.258 . S
O446 Co443 1.966 . S
O446 C444 1.263 . S
C447 O448 1.235 . S
C447 O474 1.289 . S
O448 C447 1.235 . S
C449 C451 1.400 . S
C449 N452 1.351 . S
C449 C454 1.501 . S
C450 C451 1.387 . S
C450 N453 1.341 . S
C451 C449 1.400 . S
C451 C450 1.387 . S
N452 Co443 2.022 . S
N452 C449 1.351 . S
N452 N453 1.365 . S
N453 C450 1.341 . S
N453 N452 1.365 . S
N453 H473 0.862 . S
C454 C449 1.501 . S
C454 H455 0.961 . S
C454 H456 0.961 . S
C454 H457 0.960 . S
H455 C454 0.961 . S
H456 C454 0.961 . S
H457 C454 0.960 . S
C458 N459 1.342 . S
C458 C462 1.401 . S
C458 C463 1.499 . S
N459 Co442 1.989 . S
N459 C458 1.342 . S
N459 N460 1.388 . S
N460 Co443 1.993 . S
N460 N459 1.388 . S
N460 C461 1.346 . S
C461 N460 1.346 . S
C461 C462 1.396 . S
C461 C471 1.510 . S
C462 C458 1.401 . S
C462 C461 1.396 . S
C463 C458 1.499 . S
C463 H464 0.959 . S
C463 H465 0.960 . S
C463 H466 0.961 . S
H464 C463 0.959 . S
H465 C463 0.960 . S
H466 C463 0.961 . S
O467 Co442 1.967 . S
O467 C475 1.258 . S
O468 Co443 1.941 . S
O468 C475 1.266 . S
H469 C471 0.959 . S
H470 C471 0.961 . S
C471 C461 1.510 . S
C471 H469 0.959 . S
C471 H470 0.961 . S
C471 H472 0.960 . S
H472 C471 0.960 . S
H473 N453 0.862 . S
O474 Co442 1.920 . S
O474 C447 1.289 . S
C475 O467 1.258 . S
C475 O468 1.266 . S
Co476 O479 1.970 . S
Co476 N493 1.989 . S
Co476 O501 1.967 . S
Co476 O508 1.920 . S
Co477 O480 1.966 . S
Co477 N486 2.022 . S
Co477 N494 1.993 . S
Co477 O502 1.941 . S
C478 O479 1.258 . S
C478 O480 1.263 . S
O479 Co476 1.970 . S
O479 C478 1.258 . S
O480 Co477 1.966 . S
O480 C478 1.263 . S
C481 O482 1.235 . S
C481 O508 1.289 . S
O482 C481 1.235 . S
C483 C485 1.400 . S
C483 N486 1.351 . S
C483 C488 1.501 . S
C484 C485 1.387 . S
C484 N487 1.341 . S
C485 C483 1.400 . S
C485 C484 1.387 . S
N486 Co477 2.022 . S
N486 C483 1.351 . S
N486 N487 1.365 . S
N487 C484 1.341 . S
N487 N486 1.365 . S
N487 H507 0.862 . S
C488 C483 1.501 . S
C488 H489 0.961 . S
C488 H490 0.961 . S
C488 H491 0.960 . S
H489 C488 0.961 . S
H490 C488 0.961 . S
H491 C488 0.960 . S
C492 N493 1.342 . S
C492 C496 1.401 . S
C492 C497 1.499 . S
N493 Co476 1.989 . S
N493 C492 1.342 . S
N493 N494 1.388 . S
N494 Co477 1.993 . S
N494 N493 1.388 . S
N494 C495 1.346 . S
C495 N494 1.346 . S
C495 C496 1.396 . S
C495 C505 1.510 . S
C496 C492 1.401 . S
C496 C495 1.396 . S
C497 C492 1.499 . S
C497 H498 0.959 . S
C497 H499 0.960 . S
C497 H500 0.961 . S
H498 C497 0.959 . S
H499 C497 0.960 . S
H500 C497 0.961 . S
O501 Co476 1.967 . S
O501 C509 1.258 . S
O502 Co477 1.941 . S
O502 C509 1.266 . S
H503 C505 0.959 . S
H504 C505 0.961 . S
C505 C495 1.510 . S
C505 H503 0.959 . S
C505 H504 0.961 . S
C505 H506 0.960 . S
H506 C505 0.960 . S
H507 N487 0.862 . S
O508 Co476 1.920 . S
O508 C481 1.289 . S
C509 O501 1.258 . S
C509 O502 1.266 . S
Co510 O513 1.970 . S
Co510 N527 1.989 . S
Co510 O535 1.967 . S
Co510 O542 1.920 . S
Co511 O514 1.966 . S
Co511 N520 2.022 . S
Co511 N528 1.993 . S
Co511 O536 1.941 . S
C512 O513 1.258 . S
C512 O514 1.263 . S
O513 Co510 1.970 . S
O513 C512 1.258 . S
O514 Co511 1.966 . S
O514 C512 1.263 . S
C515 O516 1.235 . S
C515 O542 1.289 . S
O516 C515 1.235 . S
C517 C519 1.400 . S
C517 N520 1.351 . S
C517 C522 1.501 . S
C518 C519 1.387 . S
C518 N521 1.341 . S
C519 C517 1.400 . S
C519 C518 1.387 . S
N520 Co511 2.022 . S
N520 C517 1.351 . S
N520 N521 1.365 . S
N521 C518 1.341 . S
N521 N520 1.365 . S
N521 H541 0.862 . S
C522 C517 1.501 . S
C522 H523 0.961 . S
C522 H524 0.961 . S
C522 H525 0.960 . S
H523 C522 0.961 . S
H524 C522 0.961 . S
H525 C522 0.960 . S
C526 N527 1.342 . S
C526 C530 1.401 . S
C526 C531 1.499 . S
N527 Co510 1.989 . S
N527 C526 1.342 . S
N527 N528 1.388 . S
N528 Co511 1.993 . S
N528 N527 1.388 . S
N528 C529 1.346 . S
C529 N528 1.346 . S
C529 C530 1.396 . S
C529 C539 1.510 . S
C530 C526 1.401 . S
C530 C529 1.396 . S
C531 C526 1.499 . S
C531 H532 0.959 . S
C531 H533 0.960 . S
C531 H534 0.961 . S
H532 C531 0.959 . S
H533 C531 0.960 . S
H534 C531 0.961 . S
O535 Co510 1.967 . S
O535 C543 1.258 . S
O536 Co511 1.941 . S
O536 C543 1.266 . S
H537 C539 0.959 . S
H538 C539 0.961 . S
C539 C529 1.510 . S
C539 H537 0.959 . S
C539 H538 0.961 . S
C539 H540 0.960 . S
H540 C539 0.960 . S
H541 N521 0.862 . S
O542 Co510 1.920 . S
O542 C515 1.289 . S
C543 O535 1.258 . S
C543 O536 1.266 . S
Co544 O547 1.970 . S
Co544 N561 1.989 . S
Co544 O569 1.967 . S
Co544 O576 1.920 . S
Co545 O548 1.966 . S
Co545 N554 2.022 . S
Co545 N562 1.993 . S
Co545 O570 1.941 . S
C546 O547 1.258 . S
C546 O548 1.263 . S
O547 Co544 1.970 . S
O547 C546 1.258 . S
O548 Co545 1.966 . S
O548 C546 1.263 . S
C549 O550 1.235 . S
C549 O576 1.289 . S
O550 C549 1.235 . S
C551 C553 1.400 . S
C551 N554 1.351 . S
C551 C556 1.501 . S
C552 C553 1.387 . S
C552 N555 1.341 . S
C553 C551 1.400 . S
C553 C552 1.387 . S
N554 Co545 2.022 . S
N554 C551 1.351 . S
N554 N555 1.365 . S
N555 C552 1.341 . S
N555 N554 1.365 . S
N555 H575 0.862 . S
C556 C551 1.501 . S
C556 H557 0.961 . S
C556 H558 0.961 . S
C556 H559 0.960 . S
H557 C556 0.961 . S
H558 C556 0.961 . S
H559 C556 0.960 . S
C560 N561 1.342 . S
C560 C564 1.401 . S
C560 C565 1.499 . S
N561 Co544 1.989 . S
N561 C560 1.342 . S
N561 N562 1.388 . S
N562 Co545 1.993 . S
N562 N561 1.388 . S
N562 C563 1.346 . S
C563 N562 1.346 . S
C563 C564 1.396 . S
C563 C573 1.510 . S
C564 C560 1.401 . S
C564 C563 1.396 . S
C565 C560 1.499 . S
C565 H566 0.959 . S
C565 H567 0.960 . S
C565 H568 0.961 . S
H566 C565 0.959 . S
H567 C565 0.960 . S
H568 C565 0.961 . S
O569 Co544 1.967 . S
O569 C577 1.258 . S
O570 Co545 1.941 . S
O570 C577 1.266 . S
H571 C573 0.959 . S
H572 C573 0.961 . S
C573 C563 1.510 . S
C573 H571 0.959 . S
C573 H572 0.961 . S
C573 H574 0.960 . S
H574 C573 0.960 . S
H575 N555 0.862 . S
O576 Co544 1.920 . S
O576 C549 1.289 . S
C577 O569 1.258 . S
C577 O570 1.266 . S
Co578 O581 1.970 . S
Co578 N595 1.989 . S
Co578 O603 1.967 . S
Co578 O610 1.920 . S
Co579 O582 1.966 . S
Co579 N588 2.022 . S
Co579 N596 1.993 . S
Co579 O604 1.941 . S
C580 O581 1.258 . S
C580 O582 1.263 . S
O581 Co578 1.970 . S
O581 C580 1.258 . S
O582 Co579 1.966 . S
O582 C580 1.263 . S
C583 O584 1.235 . S
C583 O610 1.289 . S
O584 C583 1.235 . S
C585 C587 1.400 . S
C585 N588 1.351 . S
C585 C590 1.501 . S
C586 C587 1.387 . S
C586 N589 1.341 . S
C587 C585 1.400 . S
C587 C586 1.387 . S
N588 Co579 2.022 . S
N588 C585 1.351 . S
N588 N589 1.365 . S
N589 C586 1.341 . S
N589 N588 1.365 . S
N589 H609 0.862 . S
C590 C585 1.501 . S
C590 H591 0.961 . S
C590 H592 0.961 . S
C590 H593 0.960 . S
H591 C590 0.961 . S
H592 C590 0.961 . S
H593 C590 0.960 . S
C594 N595 1.342 . S
C594 C598 1.401 . S
C594 C599 1.499 . S
N595 Co578 1.989 . S
N595 C594 1.342 . S
N595 N596 1.388 . S
N596 Co579 1.993 . S
N596 N595 1.388 . S
N596 C597 1.346 . S
C597 N596 1.346 . S
C597 C598 1.396 . S
C597 C607 1.510 . S
C598 C594 1.401 . S
C598 C597 1.396 . S
C599 C594 1.499 . S
C599 H600 0.959 . S
C599 H601 0.960 . S
C599 H602 0.961 . S
H600 C599 0.959 . S
H601 C599 0.960 . S
H602 C599 0.961 . S
O603 Co578 1.967 . S
O603 C611 1.258 . S
O604 Co579 1.941 . S
O604 C611 1.266 . S
H605 C607 0.959 . S
H606 C607 0.961 . S
C607 C597 1.510 . S
C607 H605 0.959 . S
C607 H606 0.961 . S
C607 H608 0.960 . S
H608 C607 0.960 . S
H609 N589 0.862 . S
O610 Co578 1.920 . S
O610 C583 1.289 . S
C611 O603 1.258 . S
C611 O604 1.266 . S
Co612 O615 1.970 . S
Co612 N629 1.989 . S
Co612 O637 1.967 . S
Co612 O644 1.920 . S
Co613 O616 1.966 . S
Co613 N622 2.022 . S
Co613 N630 1.993 . S
Co613 O638 1.941 . S
C614 O615 1.258 . S
C614 O616 1.263 . S
O615 Co612 1.970 . S
O615 C614 1.258 . S
O616 Co613 1.966 . S
O616 C614 1.263 . S
C617 O618 1.235 . S
C617 O644 1.289 . S
O618 C617 1.235 . S
C619 C621 1.400 . S
C619 N622 1.351 . S
C619 C624 1.501 . S
C620 C621 1.387 . S
C620 N623 1.341 . S
C621 C619 1.400 . S
C621 C620 1.387 . S
N622 Co613 2.022 . S
N622 C619 1.351 . S
N622 N623 1.365 . S
N623 C620 1.341 . S
N623 N622 1.365 . S
N623 H643 0.862 . S
C624 C619 1.501 . S
C624 H625 0.961 . S
C624 H626 0.961 . S
C624 H627 0.960 . S
H625 C624 0.961 . S
H626 C624 0.961 . S
H627 C624 0.960 . S
C628 N629 1.342 . S
C628 C632 1.401 . S
C628 C633 1.499 . S
N629 Co612 1.989 . S
N629 C628 1.342 . S
N629 N630 1.388 . S
N630 Co613 1.993 . S
N630 N629 1.388 . S
N630 C631 1.346 . S
C631 N630 1.346 . S
C631 C632 1.396 . S
C631 C641 1.510 . S
C632 C628 1.401 . S
C632 C631 1.396 . S
C633 C628 1.499 . S
C633 H634 0.959 . S
C633 H635 0.960 . S
C633 H636 0.961 . S
H634 C633 0.959 . S
H635 C633 0.960 . S
H636 C633 0.961 . S
O637 Co612 1.967 . S
O637 C645 1.258 . S
O638 Co613 1.941 . S
O638 C645 1.266 . S
H639 C641 0.959 . S
H640 C641 0.961 . S
C641 C631 1.510 . S
C641 H639 0.959 . S
C641 H640 0.961 . S
C641 H642 0.960 . S
H642 C641 0.960 . S
H643 N623 0.862 . S
O644 Co612 1.920 . S
O644 C617 1.289 . S
C645 O637 1.258 . S
C645 O638 1.266 . S
Co646 O649 1.970 . S
Co646 N663 1.989 . S
Co646 O671 1.967 . S
Co646 O678 1.920 . S
Co647 O650 1.966 . S
Co647 N656 2.022 . S
Co647 N664 1.993 . S
Co647 O672 1.941 . S
C648 O649 1.258 . S
C648 O650 1.263 . S
O649 Co646 1.970 . S
O649 C648 1.258 . S
O650 Co647 1.966 . S
O650 C648 1.263 . S
C651 O652 1.235 . S
C651 O678 1.289 . S
O652 C651 1.235 . S
C653 C655 1.400 . S
C653 N656 1.351 . S
C653 C658 1.501 . S
C654 C655 1.387 . S
C654 N657 1.341 . S
C655 C653 1.400 . S
C655 C654 1.387 . S
N656 Co647 2.022 . S
N656 C653 1.351 . S
N656 N657 1.365 . S
N657 C654 1.341 . S
N657 N656 1.365 . S
N657 H677 0.862 . S
C658 C653 1.501 . S
C658 H659 0.961 . S
C658 H660 0.961 . S
C658 H661 0.960 . S
H659 C658 0.961 . S
H660 C658 0.961 . S
H661 C658 0.960 . S
C662 N663 1.342 . S
C662 C666 1.401 . S
C662 C667 1.499 . S
N663 Co646 1.989 . S
N663 C662 1.342 . S
N663 N664 1.388 . S
N664 Co647 1.993 . S
N664 N663 1.388 . S
N664 C665 1.346 . S
C665 N664 1.346 . S
C665 C666 1.396 . S
C665 C675 1.510 . S
C666 C662 1.401 . S
C666 C665 1.396 . S
C667 C662 1.499 . S
C667 H668 0.959 . S
C667 H669 0.960 . S
C667 H670 0.961 . S
H668 C667 0.959 . S
H669 C667 0.960 . S
H670 C667 0.961 . S
O671 Co646 1.967 . S
O671 C679 1.258 . S
O672 Co647 1.941 . S
O672 C679 1.266 . S
H673 C675 0.959 . S
H674 C675 0.961 . S
C675 C665 1.510 . S
C675 H673 0.959 . S
C675 H674 0.961 . S
C675 H676 0.960 . S
H676 C675 0.960 . S
H677 N657 0.862 . S
O678 Co646 1.920 . S
O678 C651 1.289 . S
C679 O671 1.258 . S
C679 O672 1.266 . S
Co680 O683 1.970 . S
Co680 N697 1.989 . S
Co680 O705 1.967 . S
Co680 O712 1.920 . S
Co681 O684 1.966 . S
Co681 N690 2.022 . S
Co681 N698 1.993 . S
Co681 O706 1.941 . S
C682 O683 1.258 . S
C682 O684 1.263 . S
O683 Co680 1.970 . S
O683 C682 1.258 . S
O684 Co681 1.966 . S
O684 C682 1.263 . S
C685 O686 1.235 . S
C685 O712 1.289 . S
O686 C685 1.235 . S
C687 C689 1.400 . S
C687 N690 1.351 . S
C687 C692 1.501 . S
C688 C689 1.387 . S
C688 N691 1.341 . S
C689 C687 1.400 . S
C689 C688 1.387 . S
N690 Co681 2.022 . S
N690 C687 1.351 . S
N690 N691 1.365 . S
N691 C688 1.341 . S
N691 N690 1.365 . S
N691 H711 0.862 . S
C692 C687 1.501 . S
C692 H693 0.961 . S
C692 H694 0.961 . S
C692 H695 0.960 . S
H693 C692 0.961 . S
H694 C692 0.961 . S
H695 C692 0.960 . S
C696 N697 1.342 . S
C696 C700 1.401 . S
C696 C701 1.499 . S
N697 Co680 1.989 . S
N697 C696 1.342 . S
N697 N698 1.388 . S
N698 Co681 1.993 . S
N698 N697 1.388 . S
N698 C699 1.346 . S
C699 N698 1.346 . S
C699 C700 1.396 . S
C699 C709 1.510 . S
C700 C696 1.401 . S
C700 C699 1.396 . S
C701 C696 1.499 . S
C701 H702 0.959 . S
C701 H703 0.960 . S
C701 H704 0.961 . S
H702 C701 0.959 . S
H703 C701 0.960 . S
H704 C701 0.961 . S
O705 Co680 1.967 . S
O705 C713 1.258 . S
O706 Co681 1.941 . S
O706 C713 1.266 . S
H707 C709 0.959 . S
H708 C709 0.961 . S
C709 C699 1.510 . S
C709 H707 0.959 . S
C709 H708 0.961 . S
C709 H710 0.960 . S
H710 C709 0.960 . S
H711 N691 0.862 . S
O712 Co680 1.920 . S
O712 C685 1.289 . S
C713 O705 1.258 . S
C713 O706 1.266 . S
Co714 O717 1.970 . S
Co714 N731 1.989 . S
Co714 O739 1.967 . S
Co714 O746 1.920 . S
Co715 O718 1.966 . S
Co715 N724 2.022 . S
Co715 N732 1.993 . S
Co715 O740 1.941 . S
C716 O717 1.258 . S
C716 O718 1.263 . S
O717 Co714 1.970 . S
O717 C716 1.258 . S
O718 Co715 1.966 . S
O718 C716 1.263 . S
C719 O720 1.235 . S
C719 O746 1.289 . S
O720 C719 1.235 . S
C721 C723 1.400 . S
C721 N724 1.351 . S
C721 C726 1.501 . S
C722 C723 1.387 . S
C722 N725 1.341 . S
C723 C721 1.400 . S
C723 C722 1.387 . S
N724 Co715 2.022 . S
N724 C721 1.351 . S
N724 N725 1.365 . S
N725 C722 1.341 . S
N725 N724 1.365 . S
N725 H745 0.862 . S
C726 C721 1.501 . S
C726 H727 0.961 . S
C726 H728 0.961 . S
C726 H729 0.960 . S
H727 C726 0.961 . S
H728 C726 0.961 . S
H729 C726 0.960 . S
C730 N731 1.342 . S
C730 C734 1.401 . S
C730 C735 1.499 . S
N731 Co714 1.989 . S
N731 C730 1.342 . S
N731 N732 1.388 . S
N732 Co715 1.993 . S
N732 N731 1.388 . S
N732 C733 1.346 . S
C733 N732 1.346 . S
C733 C734 1.396 . S
C733 C743 1.510 . S
C734 C730 1.401 . S
C734 C733 1.396 . S
C735 C730 1.499 . S
C735 H736 0.959 . S
C735 H737 0.960 . S
C735 H738 0.961 . S
H736 C735 0.959 . S
H737 C735 0.960 . S
H738 C735 0.961 . S
O739 Co714 1.967 . S
O739 C747 1.258 . S
O740 Co715 1.941 . S
O740 C747 1.266 . S
H741 C743 0.959 . S
H742 C743 0.961 . S
C743 C733 1.510 . S
C743 H741 0.959 . S
C743 H742 0.961 . S
C743 H744 0.960 . S
H744 C743 0.960 . S
H745 N725 0.862 . S
O746 Co714 1.920 . S
O746 C719 1.289 . S
C747 O739 1.258 . S
C747 O740 1.266 . S
Co748 O751 1.970 . S
Co748 N765 1.989 . S
Co748 O773 1.967 . S
Co748 O780 1.920 . S
Co749 O752 1.966 . S
Co749 N758 2.022 . S
Co749 N766 1.993 . S
Co749 O774 1.941 . S
C750 O751 1.258 . S
C750 O752 1.263 . S
O751 Co748 1.970 . S
O751 C750 1.258 . S
O752 Co749 1.966 . S
O752 C750 1.263 . S
C753 O754 1.235 . S
C753 O780 1.289 . S
O754 C753 1.235 . S
C755 C757 1.400 . S
C755 N758 1.351 . S
C755 C760 1.501 . S
C756 C757 1.387 . S
C756 N759 1.341 . S
C757 C755 1.400 . S
C757 C756 1.387 . S
N758 Co749 2.022 . S
N758 C755 1.351 . S
N758 N759 1.365 . S
N759 C756 1.341 . S
N759 N758 1.365 . S
N759 H779 0.862 . S
C760 C755 1.501 . S
C760 H761 0.961 . S
C760 H762 0.961 . S
C760 H763 0.960 . S
H761 C760 0.961 . S
H762 C760 0.961 . S
H763 C760 0.960 . S
C764 N765 1.342 . S
C764 C768 1.401 . S
C764 C769 1.499 . S
N765 Co748 1.989 . S
N765 C764 1.342 . S
N765 N766 1.388 . S
N766 Co749 1.993 . S
N766 N765 1.388 . S
N766 C767 1.346 . S
C767 N766 1.346 . S
C767 C768 1.396 . S
C767 C777 1.510 . S
C768 C764 1.401 . S
C768 C767 1.396 . S
C769 C764 1.499 . S
C769 H770 0.959 . S
C769 H771 0.960 . S
C769 H772 0.961 . S
H770 C769 0.959 . S
H771 C769 0.960 . S
H772 C769 0.961 . S
O773 Co748 1.967 . S
O773 C781 1.258 . S
O774 Co749 1.941 . S
O774 C781 1.266 . S
H775 C777 0.959 . S
H776 C777 0.961 . S
C777 C767 1.510 . S
C777 H775 0.959 . S
C777 H776 0.961 . S
C777 H778 0.960 . S
H778 C777 0.960 . S
H779 N759 0.862 . S
O780 Co748 1.920 . S
O780 C753 1.289 . S
C781 O773 1.258 . S
C781 O774 1.266 . S
Co782 O785 1.970 . S
Co782 N799 1.989 . S
Co782 O807 1.967 . S
Co782 O814 1.920 . S
Co783 O786 1.966 . S
Co783 N792 2.022 . S
Co783 N800 1.993 . S
Co783 O808 1.941 . S
C784 O785 1.258 . S
C784 O786 1.263 . S
O785 Co782 1.970 . S
O785 C784 1.258 . S
O786 Co783 1.966 . S
O786 C784 1.263 . S
C787 O788 1.235 . S
C787 O814 1.289 . S
O788 C787 1.235 . S
C789 C791 1.400 . S
C789 N792 1.351 . S
C789 C794 1.501 . S
C790 C791 1.387 . S
C790 N793 1.341 . S
C791 C789 1.400 . S
C791 C790 1.387 . S
N792 Co783 2.022 . S
N792 C789 1.351 . S
N792 N793 1.365 . S
N793 C790 1.341 . S
N793 N792 1.365 . S
N793 H813 0.862 . S
C794 C789 1.501 . S
C794 H795 0.961 . S
C794 H796 0.961 . S
C794 H797 0.960 . S
H795 C794 0.961 . S
H796 C794 0.961 . S
H797 C794 0.960 . S
C798 N799 1.342 . S
C798 C802 1.401 . S
C798 C803 1.499 . S
N799 Co782 1.989 . S
N799 C798 1.342 . S
N799 N800 1.388 . S
N800 Co783 1.993 . S
N800 N799 1.388 . S
N800 C801 1.346 . S
C801 N800 1.346 . S
C801 C802 1.396 . S
C801 C811 1.510 . S
C802 C798 1.401 . S
C802 C801 1.396 . S
C803 C798 1.499 . S
C803 H804 0.959 . S
C803 H805 0.960 . S
C803 H806 0.961 . S
H804 C803 0.959 . S
H805 C803 0.960 . S
H806 C803 0.961 . S
O807 Co782 1.967 . S
O807 C815 1.258 . S
O808 Co783 1.941 . S
O808 C815 1.266 . S
H809 C811 0.959 . S
H810 C811 0.961 . S
C811 C801 1.510 . S
C811 H809 0.959 . S
C811 H810 0.961 . S
C811 H812 0.960 . S
H812 C811 0.960 . S
H813 N793 0.862 . S
O814 Co782 1.920 . S
O814 C787 1.289 . S
C815 O807 1.258 . S
C815 O808 1.266 . S
Co816 O819 1.970 . S
Co816 N833 1.989 . S
Co816 O841 1.967 . S
Co816 O848 1.920 . S
Co817 O820 1.966 . S
Co817 N826 2.022 . S
Co817 N834 1.993 . S
Co817 O842 1.941 . S
C818 O819 1.258 . S
C818 O820 1.263 . S
O819 Co816 1.970 . S
O819 C818 1.258 . S
O820 Co817 1.966 . S
O820 C818 1.263 . S
C821 O822 1.235 . S
C821 O848 1.289 . S
O822 C821 1.235 . S
C823 C825 1.400 . S
C823 N826 1.351 . S
C823 C828 1.501 . S
C824 C825 1.387 . S
C824 N827 1.341 . S
C825 C823 1.400 . S
C825 C824 1.387 . S
N826 Co817 2.022 . S
N826 C823 1.351 . S
N826 N827 1.365 . S
N827 C824 1.341 . S
N827 N826 1.365 . S
N827 H847 0.862 . S
C828 C823 1.501 . S
C828 H829 0.961 . S
C828 H830 0.961 . S
C828 H831 0.960 . S
H829 C828 0.961 . S
H830 C828 0.961 . S
H831 C828 0.960 . S
C832 N833 1.342 . S
C832 C836 1.401 . S
C832 C837 1.499 . S
N833 Co816 1.989 . S
N833 C832 1.342 . S
N833 N834 1.388 . S
N834 Co817 1.993 . S
N834 N833 1.388 . S
N834 C835 1.346 . S
C835 N834 1.346 . S
C835 C836 1.396 . S
C835 C845 1.510 . S
C836 C832 1.401 . S
C836 C835 1.396 . S
C837 C832 1.499 . S
C837 H838 0.959 . S
C837 H839 0.960 . S
C837 H840 0.961 . S
H838 C837 0.959 . S
H839 C837 0.960 . S
H840 C837 0.961 . S
O841 Co816 1.967 . S
O841 C849 1.258 . S
O842 Co817 1.941 . S
O842 C849 1.266 . S
H843 C845 0.959 . S
H844 C845 0.961 . S
C845 C835 1.510 . S
C845 H843 0.959 . S
C845 H844 0.961 . S
C845 H846 0.960 . S
H846 C845 0.960 . S
H847 N827 0.862 . S
O848 Co816 1.920 . S
O848 C821 1.289 . S
C849 O841 1.258 . S
C849 O842 1.266 . S
Co850 O853 1.970 . S
Co850 N867 1.989 . S
Co850 O875 1.967 . S
Co850 O882 1.920 . S
Co851 O854 1.966 . S
Co851 N860 2.022 . S
Co851 N868 1.993 . S
Co851 O876 1.941 . S
C852 O853 1.258 . S
C852 O854 1.263 . S
O853 Co850 1.970 . S
O853 C852 1.258 . S
O854 Co851 1.966 . S
O854 C852 1.263 . S
C855 O856 1.235 . S
C855 O882 1.289 . S
O856 C855 1.235 . S
C857 C859 1.400 . S
C857 N860 1.351 . S
C857 C862 1.501 . S
C858 C859 1.387 . S
C858 N861 1.341 . S
C859 C857 1.400 . S
C859 C858 1.387 . S
N860 Co851 2.022 . S
N860 C857 1.351 . S
N860 N861 1.365 . S
N861 C858 1.341 . S
N861 N860 1.365 . S
N861 H881 0.862 . S
C862 C857 1.501 . S
C862 H863 0.961 . S
C862 H864 0.961 . S
C862 H865 0.960 . S
H863 C862 0.961 . S
H864 C862 0.961 . S
H865 C862 0.960 . S
C866 N867 1.342 . S
C866 C870 1.401 . S
C866 C871 1.499 . S
N867 Co850 1.989 . S
N867 C866 1.342 . S
N867 N868 1.388 . S
N868 Co851 1.993 . S
N868 N867 1.388 . S
N868 C869 1.346 . S
C869 N868 1.346 . S
C869 C870 1.396 . S
C869 C879 1.510 . S
C870 C866 1.401 . S
C870 C869 1.396 . S
C871 C866 1.499 . S
C871 H872 0.959 . S
C871 H873 0.960 . S
C871 H874 0.961 . S
H872 C871 0.959 . S
H873 C871 0.960 . S
H874 C871 0.961 . S
O875 Co850 1.967 . S
O875 C883 1.258 . S
O876 Co851 1.941 . S
O876 C883 1.266 . S
H877 C879 0.959 . S
H878 C879 0.961 . S
C879 C869 1.510 . S
C879 H877 0.959 . S
C879 H878 0.961 . S
C879 H880 0.960 . S
H880 C879 0.960 . S
H881 N861 0.862 . S
O882 Co850 1.920 . S
O882 C855 1.289 . S
C883 O875 1.258 . S
C883 O876 1.266 . S
Co884 O887 1.970 . S
Co884 N901 1.989 . S
Co884 O909 1.967 . S
Co884 O916 1.920 . S
Co885 O888 1.966 . S
Co885 N894 2.022 . S
Co885 N902 1.993 . S
Co885 O910 1.941 . S
C886 O887 1.258 . S
C886 O888 1.263 . S
O887 Co884 1.970 . S
O887 C886 1.258 . S
O888 Co885 1.966 . S
O888 C886 1.263 . S
C889 O890 1.235 . S
C889 O916 1.289 . S
O890 C889 1.235 . S
C891 C893 1.400 . S
C891 N894 1.351 . S
C891 C896 1.501 . S
C892 C893 1.387 . S
C892 N895 1.341 . S
C893 C891 1.400 . S
C893 C892 1.387 . S
N894 Co885 2.022 . S
N894 C891 1.351 . S
N894 N895 1.365 . S
N895 C892 1.341 . S
N895 N894 1.365 . S
N895 H915 0.862 . S
C896 C891 1.501 . S
C896 H897 0.961 . S
C896 H898 0.961 . S
C896 H899 0.960 . S
H897 C896 0.961 . S
H898 C896 0.961 . S
H899 C896 0.960 . S
C900 N901 1.342 . S
C900 C904 1.401 . S
C900 C905 1.499 . S
N901 Co884 1.989 . S
N901 C900 1.342 . S
N901 N902 1.388 . S
N902 Co885 1.993 . S
N902 N901 1.388 . S
N902 C903 1.346 . S
C903 N902 1.346 . S
C903 C904 1.396 . S
C903 C913 1.510 . S
C904 C900 1.401 . S
C904 C903 1.396 . S
C905 C900 1.499 . S
C905 H906 0.959 . S
C905 H907 0.960 . S
C905 H908 0.961 . S
H906 C905 0.959 . S
H907 C905 0.960 . S
H908 C905 0.961 . S
O909 Co884 1.967 . S
O909 C917 1.258 . S
O910 Co885 1.941 . S
O910 C917 1.266 . S
H911 C913 0.959 . S
H912 C913 0.961 . S
C913 C903 1.510 . S
C913 H911 0.959 . S
C913 H912 0.961 . S
C913 H914 0.960 . S
H914 C913 0.960 . S
H915 N895 0.862 . S
O916 Co884 1.920 . S
O916 C889 1.289 . S
C917 O909 1.258 . S
C917 O910 1.266 . S
Co918 O921 1.970 . S
Co918 N935 1.989 . S
Co918 O943 1.967 . S
Co918 O950 1.920 . S
Co919 O922 1.966 . S
Co919 N928 2.022 . S
Co919 N936 1.993 . S
Co919 O944 1.941 . S
C920 O921 1.258 . S
C920 O922 1.263 . S
O921 Co918 1.970 . S
O921 C920 1.258 . S
O922 Co919 1.966 . S
O922 C920 1.263 . S
C923 O924 1.235 . S
C923 O950 1.289 . S
O924 C923 1.235 . S
C925 C927 1.400 . S
C925 N928 1.351 . S
C925 C930 1.501 . S
C926 C927 1.387 . S
C926 N929 1.341 . S
C927 C925 1.400 . S
C927 C926 1.387 . S
N928 Co919 2.022 . S
N928 C925 1.351 . S
N928 N929 1.365 . S
N929 C926 1.341 . S
N929 N928 1.365 . S
N929 H949 0.862 . S
C930 C925 1.501 . S
C930 H931 0.961 . S
C930 H932 0.961 . S
C930 H933 0.960 . S
H931 C930 0.961 . S
H932 C930 0.961 . S
H933 C930 0.960 . S
C934 N935 1.342 . S
C934 C938 1.401 . S
C934 C939 1.499 . S
N935 Co918 1.989 . S
N935 C934 1.342 . S
N935 N936 1.388 . S
N936 Co919 1.993 . S
N936 N935 1.388 . S
N936 C937 1.346 . S
C937 N936 1.346 . S
C937 C938 1.396 . S
C937 C947 1.510 . S
C938 C934 1.401 . S
C938 C937 1.396 . S
C939 C934 1.499 . S
C939 H940 0.959 . S
C939 H941 0.960 . S
C939 H942 0.961 . S
H940 C939 0.959 . S
H941 C939 0.960 . S
H942 C939 0.961 . S
O943 Co918 1.967 . S
O943 C951 1.258 . S
O944 Co919 1.941 . S
O944 C951 1.266 . S
H945 C947 0.959 . S
H946 C947 0.961 . S
C947 C937 1.510 . S
C947 H945 0.959 . S
C947 H946 0.961 . S
C947 H948 0.960 . S
H948 C947 0.960 . S
H949 N929 0.862 . S
O950 Co918 1.920 . S
O950 C923 1.289 . S
C951 O943 1.258 . S
C951 O944 1.266 . S
Co952 O955 1.970 . S
Co952 N969 1.989 . S
Co952 O977 1.967 . S
Co952 O984 1.920 . S
Co953 O956 1.966 . S
Co953 N962 2.022 . S
Co953 N970 1.993 . S
Co953 O978 1.941 . S
C954 O955 1.258 . S
C954 O956 1.263 . S
O955 Co952 1.970 . S
O955 C954 1.258 . S
O956 Co953 1.966 . S
O956 C954 1.263 . S
C957 O958 1.235 . S
C957 O984 1.289 . S
O958 C957 1.235 . S
C959 C961 1.400 . S
C959 N962 1.351 . S
C959 C964 1.501 . S
C960 C961 1.387 . S
C960 N963 1.341 . S
C961 C959 1.400 . S
C961 C960 1.387 . S
N962 Co953 2.022 . S
N962 C959 1.351 . S
N962 N963 1.365 . S
N963 C960 1.341 . S
N963 N962 1.365 . S
N963 H983 0.862 . S
C964 C959 1.501 . S
C964 H965 0.961 . S
C964 H966 0.961 . S
C964 H967 0.960 . S
H965 C964 0.961 . S
H966 C964 0.961 . S
H967 C964 0.960 . S
C968 N969 1.342 . S
C968 C972 1.401 . S
C968 C973 1.499 . S
N969 Co952 1.989 . S
N969 C968 1.342 . S
N969 N970 1.388 . S
N970 Co953 1.993 . S
N970 N969 1.388 . S
N970 C971 1.346 . S
C971 N970 1.346 . S
C971 C972 1.396 . S
C971 C981 1.510 . S
C972 C968 1.401 . S
C972 C971 1.396 . S
C973 C968 1.499 . S
C973 H974 0.959 . S
C973 H975 0.960 . S
C973 H976 0.961 . S
H974 C973 0.959 . S
H975 C973 0.960 . S
H976 C973 0.961 . S
O977 Co952 1.967 . S
O977 C985 1.258 . S
O978 Co953 1.941 . S
O978 C985 1.266 . S
H979 C981 0.959 . S
H980 C981 0.961 . S
C981 C971 1.510 . S
C981 H979 0.959 . S
C981 H980 0.961 . S
C981 H982 0.960 . S
H982 C981 0.960 . S
H983 N963 0.862 . S
O984 Co952 1.920 . S
O984 C957 1.289 . S
C985 O977 1.258 . S
C985 O978 1.266 . S
Co986 O989 1.970 . S
Co986 N1003 1.989 . S
Co986 O1011 1.967 . S
Co986 O1018 1.920 . S
Co987 O990 1.966 . S
Co987 N996 2.022 . S
Co987 N1004 1.993 . S
Co987 O1012 1.941 . S
C988 O989 1.258 . S
C988 O990 1.263 . S
O989 Co986 1.970 . S
O989 C988 1.258 . S
O990 Co987 1.966 . S
O990 C988 1.263 . S
C991 O992 1.235 . S
C991 O1018 1.289 . S
O992 C991 1.235 . S
C993 C995 1.400 . S
C993 N996 1.351 . S
C993 C998 1.501 . S
C994 C995 1.387 . S
C994 N997 1.341 . S
C995 C993 1.400 . S
C995 C994 1.387 . S
N996 Co987 2.022 . S
N996 C993 1.351 . S
N996 N997 1.365 . S
N997 C994 1.341 . S
N997 N996 1.365 . S
N997 H1017 0.862 . S
C998 C993 1.501 . S
C998 H999 0.961 . S
C998 H1000 0.961 . S
C998 H1001 0.960 . S
H999 C998 0.961 . S
H1000 C998 0.961 . S
H1001 C998 0.960 . S
C1002 N1003 1.342 . S
C1002 C1006 1.401 . S
C1002 C1007 1.499 . S
N1003 Co986 1.989 . S
N1003 C1002 1.342 . S
N1003 N1004 1.388 . S
N1004 Co987 1.993 . S
N1004 N1003 1.388 . S
N1004 C1005 1.346 . S
C1005 N1004 1.346 . S
C1005 C1006 1.396 . S
C1005 C1015 1.510 . S
C1006 C1002 1.401 . S
C1006 C1005 1.396 . S
C1007 C1002 1.499 . S
C1007 H1008 0.959 . S
C1007 H1009 0.960 . S
C1007 H1010 0.961 . S
H1008 C1007 0.959 . S
H1009 C1007 0.960 . S
H1010 C1007 0.961 . S
O1011 Co986 1.967 . S
O1011 C1019 1.258 . S
O1012 Co987 1.941 . S
O1012 C1019 1.266 . S
H1013 C1015 0.959 . S
H1014 C1015 0.961 . S
C1015 C1005 1.510 . S
C1015 H1013 0.959 . S
C1015 H1014 0.961 . S
C1015 H1016 0.960 . S
H1016 C1015 0.960 . S
H1017 N997 0.862 . S
O1018 Co986 1.920 . S
O1018 C991 1.289 . S
C1019 O1011 1.258 . S
C1019 O1012 1.266 . S
Co1020 O1023 1.970 . S
Co1020 N1037 1.989 . S
Co1020 O1045 1.967 . S
Co1020 O1052 1.920 . S
Co1021 O1024 1.966 . S
Co1021 N1030 2.022 . S
Co1021 N1038 1.993 . S
Co1021 O1046 1.941 . S
C1022 O1023 1.258 . S
C1022 O1024 1.263 . S
O1023 Co1020 1.970 . S
O1023 C1022 1.258 . S
O1024 Co1021 1.966 . S
O1024 C1022 1.263 . S
C1025 O1026 1.235 . S
C1025 O1052 1.289 . S
O1026 C1025 1.235 . S
C1027 C1029 1.400 . S
C1027 N1030 1.351 . S
C1027 C1032 1.501 . S
C1028 C1029 1.387 . S
C1028 N1031 1.341 . S
C1029 C1027 1.400 . S
C1029 C1028 1.387 . S
N1030 Co1021 2.022 . S
N1030 C1027 1.351 . S
N1030 N1031 1.365 . S
N1031 C1028 1.341 . S
N1031 N1030 1.365 . S
N1031 H1051 0.862 . S
C1032 C1027 1.501 . S
C1032 H1033 0.961 . S
C1032 H1034 0.961 . S
C1032 H1035 0.960 . S
H1033 C1032 0.961 . S
H1034 C1032 0.961 . S
H1035 C1032 0.960 . S
C1036 N1037 1.342 . S
C1036 C1040 1.401 . S
C1036 C1041 1.499 . S
N1037 Co1020 1.989 . S
N1037 C1036 1.342 . S
N1037 N1038 1.388 . S
N1038 Co1021 1.993 . S
N1038 N1037 1.388 . S
N1038 C1039 1.346 . S
C1039 N1038 1.346 . S
C1039 C1040 1.396 . S
C1039 C1049 1.510 . S
C1040 C1036 1.401 . S
C1040 C1039 1.396 . S
C1041 C1036 1.499 . S
C1041 H1042 0.959 . S
C1041 H1043 0.960 . S
C1041 H1044 0.961 . S
H1042 C1041 0.959 . S
H1043 C1041 0.960 . S
H1044 C1041 0.961 . S
O1045 Co1020 1.967 . S
O1045 C1053 1.258 . S
O1046 Co1021 1.941 . S
O1046 C1053 1.266 . S
H1047 C1049 0.959 . S
H1048 C1049 0.961 . S
C1049 C1039 1.510 . S
C1049 H1047 0.959 . S
C1049 H1048 0.961 . S
C1049 H1050 0.960 . S
H1050 C1049 0.960 . S
H1051 N1031 0.862 . S
O1052 Co1020 1.920 . S
O1052 C1025 1.289 . S
C1053 O1045 1.258 . S
C1053 O1046 1.266 . S
Co1054 O1057 1.970 . S
Co1054 N1071 1.989 . S
Co1054 O1079 1.967 . S
Co1054 O1086 1.920 . S
Co1055 O1058 1.966 . S
Co1055 N1064 2.022 . S
Co1055 N1072 1.993 . S
Co1055 O1080 1.941 . S
C1056 O1057 1.258 . S
C1056 O1058 1.263 . S
O1057 Co1054 1.970 . S
O1057 C1056 1.258 . S
O1058 Co1055 1.966 . S
O1058 C1056 1.263 . S
C1059 O1060 1.235 . S
C1059 O1086 1.289 . S
O1060 C1059 1.235 . S
C1061 C1063 1.400 . S
C1061 N1064 1.351 . S
C1061 C1066 1.501 . S
C1062 C1063 1.387 . S
C1062 N1065 1.341 . S
C1063 C1061 1.400 . S
C1063 C1062 1.387 . S
N1064 Co1055 2.022 . S
N1064 C1061 1.351 . S
N1064 N1065 1.365 . S
N1065 C1062 1.341 . S
N1065 N1064 1.365 . S
N1065 H1085 0.862 . S
C1066 C1061 1.501 . S
C1066 H1067 0.961 . S
C1066 H1068 0.961 . S
C1066 H1069 0.960 . S
H1067 C1066 0.961 . S
H1068 C1066 0.961 . S
H1069 C1066 0.960 . S
C1070 N1071 1.342 . S
C1070 C1074 1.401 . S
C1070 C1075 1.499 . S
N1071 Co1054 1.989 . S
N1071 C1070 1.342 . S
N1071 N1072 1.388 . S
N1072 Co1055 1.993 . S
N1072 N1071 1.388 . S
N1072 C1073 1.346 . S
C1073 N1072 1.346 . S
C1073 C1074 1.396 . S
C1073 C1083 1.510 . S
C1074 C1070 1.401 . S
C1074 C1073 1.396 . S
C1075 C1070 1.499 . S
C1075 H1076 0.959 . S
C1075 H1077 0.960 . S
C1075 H1078 0.961 . S
H1076 C1075 0.959 . S
H1077 C1075 0.960 . S
H1078 C1075 0.961 . S
O1079 Co1054 1.967 . S
O1079 C1087 1.258 . S
O1080 Co1055 1.941 . S
O1080 C1087 1.266 . S
H1081 C1083 0.959 . S
H1082 C1083 0.961 . S
C1083 C1073 1.510 . S
C1083 H1081 0.959 . S
C1083 H1082 0.961 . S
C1083 H1084 0.960 . S
H1084 C1083 0.960 . S
H1085 N1065 0.862 . S
O1086 Co1054 1.920 . S
O1086 C1059 1.289 . S
C1087 O1079 1.258 . S
C1087 O1080 1.266 . S
Co1088 O1091 1.970 . S
Co1088 N1105 1.989 . S
Co1088 O1113 1.967 . S
Co1088 O1120 1.920 . S
Co1089 O1092 1.966 . S
Co1089 N1098 2.022 . S
Co1089 N1106 1.993 . S
Co1089 O1114 1.941 . S
C1090 O1091 1.258 . S
C1090 O1092 1.263 . S
O1091 Co1088 1.970 . S
O1091 C1090 1.258 . S
O1092 Co1089 1.966 . S
O1092 C1090 1.263 . S
C1093 O1094 1.235 . S
C1093 O1120 1.289 . S
O1094 C1093 1.235 . S
C1095 C1097 1.400 . S
C1095 N1098 1.351 . S
C1095 C1100 1.501 . S
C1096 C1097 1.387 . S
C1096 N1099 1.341 . S
C1097 C1095 1.400 . S
C1097 C1096 1.387 . S
N1098 Co1089 2.022 . S
N1098 C1095 1.351 . S
N1098 N1099 1.365 . S
N1099 C1096 1.341 . S
N1099 N1098 1.365 . S
N1099 H1119 0.862 . S
C1100 C1095 1.501 . S
C1100 H1101 0.961 . S
C1100 H1102 0.961 . S
C1100 H1103 0.960 . S
H1101 C1100 0.961 . S
H1102 C1100 0.961 . S
H1103 C1100 0.960 . S
C1104 N1105 1.342 . S
C1104 C1108 1.401 . S
C1104 C1109 1.499 . S
N1105 Co1088 1.989 . S
N1105 C1104 1.342 . S
N1105 N1106 1.388 . S
N1106 Co1089 1.993 . S
N1106 N1105 1.388 . S
N1106 C1107 1.346 . S
C1107 N1106 1.346 . S
C1107 C1108 1.396 . S
C1107 C1117 1.510 . S
C1108 C1104 1.401 . S
C1108 C1107 1.396 . S
C1109 C1104 1.499 . S
C1109 H1110 0.959 . S
C1109 H1111 0.960 . S
C1109 H1112 0.961 . S
H1110 C1109 0.959 . S
H1111 C1109 0.960 . S
H1112 C1109 0.961 . S
O1113 Co1088 1.967 . S
O1113 C1121 1.258 . S
O1114 Co1089 1.941 . S
O1114 C1121 1.266 . S
H1115 C1117 0.959 . S
H1116 C1117 0.961 . S
C1117 C1107 1.510 . S
C1117 H1115 0.959 . S
C1117 H1116 0.961 . S
C1117 H1118 0.960 . S
H1118 C1117 0.960 . S
H1119 N1099 0.862 . S
O1120 Co1088 1.920 . S
O1120 C1093 1.289 . S
C1121 O1113 1.258 . S
C1121 O1114 1.266 . S
Co1122 O1125 1.970 . S
Co1122 N1139 1.989 . S
Co1122 O1147 1.967 . S
Co1122 O1154 1.920 . S
Co1123 O1126 1.966 . S
Co1123 N1132 2.022 . S
Co1123 N1140 1.993 . S
Co1123 O1148 1.941 . S
C1124 O1125 1.258 . S
C1124 O1126 1.263 . S
O1125 Co1122 1.970 . S
O1125 C1124 1.258 . S
O1126 Co1123 1.966 . S
O1126 C1124 1.263 . S
C1127 O1128 1.235 . S
C1127 O1154 1.289 . S
O1128 C1127 1.235 . S
C1129 C1131 1.400 . S
C1129 N1132 1.351 . S
C1129 C1134 1.501 . S
C1130 C1131 1.387 . S
C1130 N1133 1.341 . S
C1131 C1129 1.400 . S
C1131 C1130 1.387 . S
N1132 Co1123 2.022 . S
N1132 C1129 1.351 . S
N1132 N1133 1.365 . S
N1133 C1130 1.341 . S
N1133 N1132 1.365 . S
N1133 H1153 0.862 . S
C1134 C1129 1.501 . S
C1134 H1135 0.961 . S
C1134 H1136 0.961 . S
C1134 H1137 0.960 . S
H1135 C1134 0.961 . S
H1136 C1134 0.961 . S
H1137 C1134 0.960 . S
C1138 N1139 1.342 . S
C1138 C1142 1.401 . S
C1138 C1143 1.499 . S
N1139 Co1122 1.989 . S
N1139 C1138 1.342 . S
N1139 N1140 1.388 . S
N1140 Co1123 1.993 . S
N1140 N1139 1.388 . S
N1140 C1141 1.346 . S
C1141 N1140 1.346 . S
C1141 C1142 1.396 . S
C1141 C1151 1.510 . S
C1142 C1138 1.401 . S
C1142 C1141 1.396 . S
C1143 C1138 1.499 . S
C1143 H1144 0.959 . S
C1143 H1145 0.960 . S
C1143 H1146 0.961 . S
H1144 C1143 0.959 . S
H1145 C1143 0.960 . S
H1146 C1143 0.961 . S
O1147 Co1122 1.967 . S
O1147 C1155 1.258 . S
O1148 Co1123 1.941 . S
O1148 C1155 1.266 . S
H1149 C1151 0.959 . S
H1150 C1151 0.961 . S
C1151 C1141 1.510 . S
C1151 H1149 0.959 . S
C1151 H1150 0.961 . S
C1151 H1152 0.960 . S
H1152 C1151 0.960 . S
H1153 N1133 0.862 . S
O1154 Co1122 1.920 . S
O1154 C1127 1.289 . S
C1155 O1147 1.258 . S
C1155 O1148 1.266 . S
Co1156 O1159 1.970 . S
Co1156 N1173 1.989 . S
Co1156 O1181 1.967 . S
Co1156 O1188 1.920 . S
Co1157 O1160 1.966 . S
Co1157 N1166 2.022 . S
Co1157 N1174 1.993 . S
Co1157 O1182 1.941 . S
C1158 O1159 1.258 . S
C1158 O1160 1.263 . S
O1159 Co1156 1.970 . S
O1159 C1158 1.258 . S
O1160 Co1157 1.966 . S
O1160 C1158 1.263 . S
C1161 O1162 1.235 . S
C1161 O1188 1.289 . S
O1162 C1161 1.235 . S
C1163 C1165 1.400 . S
C1163 N1166 1.351 . S
C1163 C1168 1.501 . S
C1164 C1165 1.387 . S
C1164 N1167 1.341 . S
C1165 C1163 1.400 . S
C1165 C1164 1.387 . S
N1166 Co1157 2.022 . S
N1166 C1163 1.351 . S
N1166 N1167 1.365 . S
N1167 C1164 1.341 . S
N1167 N1166 1.365 . S
N1167 H1187 0.862 . S
C1168 C1163 1.501 . S
C1168 H1169 0.961 . S
C1168 H1170 0.961 . S
C1168 H1171 0.960 . S
H1169 C1168 0.961 . S
H1170 C1168 0.961 . S
H1171 C1168 0.960 . S
C1172 N1173 1.342 . S
C1172 C1176 1.401 . S
C1172 C1177 1.499 . S
N1173 Co1156 1.989 . S
N1173 C1172 1.342 . S
N1173 N1174 1.388 . S
N1174 Co1157 1.993 . S
N1174 N1173 1.388 . S
N1174 C1175 1.346 . S
C1175 N1174 1.346 . S
C1175 C1176 1.396 . S
C1175 C1185 1.510 . S
C1176 C1172 1.401 . S
C1176 C1175 1.396 . S
C1177 C1172 1.499 . S
C1177 H1178 0.959 . S
C1177 H1179 0.960 . S
C1177 H1180 0.961 . S
H1178 C1177 0.959 . S
H1179 C1177 0.960 . S
H1180 C1177 0.961 . S
O1181 Co1156 1.967 . S
O1181 C1189 1.258 . S
O1182 Co1157 1.941 . S
O1182 C1189 1.266 . S
H1183 C1185 0.959 . S
H1184 C1185 0.961 . S
C1185 C1175 1.510 . S
C1185 H1183 0.959 . S
C1185 H1184 0.961 . S
C1185 H1186 0.960 . S
H1186 C1185 0.960 . S
H1187 N1167 0.862 . S
O1188 Co1156 1.920 . S
O1188 C1161 1.289 . S
C1189 O1181 1.258 . S
C1189 O1182 1.266 . S
Co1190 O1193 1.970 . S
Co1190 N1207 1.989 . S
Co1190 O1215 1.967 . S
Co1190 O1222 1.920 . S
Co1191 O1194 1.966 . S
Co1191 N1200 2.022 . S
Co1191 N1208 1.993 . S
Co1191 O1216 1.941 . S
C1192 O1193 1.258 . S
C1192 O1194 1.263 . S
O1193 Co1190 1.970 . S
O1193 C1192 1.258 . S
O1194 Co1191 1.966 . S
O1194 C1192 1.263 . S
C1195 O1196 1.235 . S
C1195 O1222 1.289 . S
O1196 C1195 1.235 . S
C1197 C1199 1.400 . S
C1197 N1200 1.351 . S
C1197 C1202 1.501 . S
C1198 C1199 1.387 . S
C1198 N1201 1.341 . S
C1199 C1197 1.400 . S
C1199 C1198 1.387 . S
N1200 Co1191 2.022 . S
N1200 C1197 1.351 . S
N1200 N1201 1.365 . S
N1201 C1198 1.341 . S
N1201 N1200 1.365 . S
N1201 H1221 0.862 . S
C1202 C1197 1.501 . S
C1202 H1203 0.961 . S
C1202 H1204 0.961 . S
C1202 H1205 0.960 . S
H1203 C1202 0.961 . S
H1204 C1202 0.961 . S
H1205 C1202 0.960 . S
C1206 N1207 1.342 . S
C1206 C1210 1.401 . S
C1206 C1211 1.499 . S
N1207 Co1190 1.989 . S
N1207 C1206 1.342 . S
N1207 N1208 1.388 . S
N1208 Co1191 1.993 . S
N1208 N1207 1.388 . S
N1208 C1209 1.346 . S
C1209 N1208 1.346 . S
C1209 C1210 1.396 . S
C1209 C1219 1.510 . S
C1210 C1206 1.401 . S
C1210 C1209 1.396 . S
C1211 C1206 1.499 . S
C1211 H1212 0.959 . S
C1211 H1213 0.960 . S
C1211 H1214 0.961 . S
H1212 C1211 0.959 . S
H1213 C1211 0.960 . S
H1214 C1211 0.961 . S
O1215 Co1190 1.967 . S
O1215 C1223 1.258 . S
O1216 Co1191 1.941 . S
O1216 C1223 1.266 . S
H1217 C1219 0.959 . S
H1218 C1219 0.961 . S
C1219 C1209 1.510 . S
C1219 H1217 0.959 . S
C1219 H1218 0.961 . S
C1219 H1220 0.960 . S
H1220 C1219 0.960 . S
H1221 N1201 0.862 . S
O1222 Co1190 1.920 . S
O1222 C1195 1.289 . S
C1223 O1215 1.258 . S
C1223 O1216 1.266 . S
Co1224 O1227 1.970 . S
Co1224 N1241 1.989 . S
Co1224 O1249 1.967 . S
Co1224 O1256 1.920 . S
Co1225 O1228 1.966 . S
Co1225 N1234 2.022 . S
Co1225 N1242 1.993 . S
Co1225 O1250 1.941 . S
C1226 O1227 1.258 . S
C1226 O1228 1.263 . S
O1227 Co1224 1.970 . S
O1227 C1226 1.258 . S
O1228 Co1225 1.966 . S
O1228 C1226 1.263 . S
C1229 O1230 1.235 . S
C1229 O1256 1.289 . S
O1230 C1229 1.235 . S
C1231 C1233 1.400 . S
C1231 N1234 1.351 . S
C1231 C1236 1.501 . S
C1232 C1233 1.387 . S
C1232 N1235 1.341 . S
C1233 C1231 1.400 . S
C1233 C1232 1.387 . S
N1234 Co1225 2.022 . S
N1234 C1231 1.351 . S
N1234 N1235 1.365 . S
N1235 C1232 1.341 . S
N1235 N1234 1.365 . S
N1235 H1255 0.862 . S
C1236 C1231 1.501 . S
C1236 H1237 0.961 . S
C1236 H1238 0.961 . S
C1236 H1239 0.960 . S
H1237 C1236 0.961 . S
H1238 C1236 0.961 . S
H1239 C1236 0.960 . S
C1240 N1241 1.342 . S
C1240 C1244 1.401 . S
C1240 C1245 1.499 . S
N1241 Co1224 1.989 . S
N1241 C1240 1.342 . S
N1241 N1242 1.388 . S
N1242 Co1225 1.993 . S
N1242 N1241 1.388 . S
N1242 C1243 1.346 . S
C1243 N1242 1.346 . S
C1243 C1244 1.396 . S
C1243 C1253 1.510 . S
C1244 C1240 1.401 . S
C1244 C1243 1.396 . S
C1245 C1240 1.499 . S
C1245 H1246 0.959 . S
C1245 H1247 0.960 . S
C1245 H1248 0.961 . S
H1246 C1245 0.959 . S
H1247 C1245 0.960 . S
H1248 C1245 0.961 . S
O1249 Co1224 1.967 . S
O1249 C1257 1.258 . S
O1250 Co1225 1.941 . S
O1250 C1257 1.266 . S
H1251 C1253 0.959 . S
H1252 C1253 0.961 . S
C1253 C1243 1.510 . S
C1253 H1251 0.959 . S
C1253 H1252 0.961 . S
C1253 H1254 0.960 . S
H1254 C1253 0.960 . S
H1255 N1235 0.862 . S
O1256 Co1224 1.920 . S
O1256 C1229 1.289 . S
C1257 O1249 1.258 . S
C1257 O1250 1.266 . S
Co1258 O1261 1.970 . S
Co1258 N1275 1.989 . S
Co1258 O1283 1.967 . S
Co1258 O1290 1.920 . S
Co1259 O1262 1.966 . S
Co1259 N1268 2.022 . S
Co1259 N1276 1.993 . S
Co1259 O1284 1.941 . S
C1260 O1261 1.258 . S
C1260 O1262 1.263 . S
O1261 Co1258 1.970 . S
O1261 C1260 1.258 . S
O1262 Co1259 1.966 . S
O1262 C1260 1.263 . S
C1263 O1264 1.235 . S
C1263 O1290 1.289 . S
O1264 C1263 1.235 . S
C1265 C1267 1.400 . S
C1265 N1268 1.351 . S
C1265 C1270 1.501 . S
C1266 C1267 1.387 . S
C1266 N1269 1.341 . S
C1267 C1265 1.400 . S
C1267 C1266 1.387 . S
N1268 Co1259 2.022 . S
N1268 C1265 1.351 . S
N1268 N1269 1.365 . S
N1269 C1266 1.341 . S
N1269 N1268 1.365 . S
N1269 H1289 0.862 . S
C1270 C1265 1.501 . S
C1270 H1271 0.961 . S
C1270 H1272 0.961 . S
C1270 H1273 0.960 . S
H1271 C1270 0.961 . S
H1272 C1270 0.961 . S
H1273 C1270 0.960 . S
C1274 N1275 1.342 . S
C1274 C1278 1.401 . S
C1274 C1279 1.499 . S
N1275 Co1258 1.989 . S
N1275 C1274 1.342 . S
N1275 N1276 1.388 . S
N1276 Co1259 1.993 . S
N1276 N1275 1.388 . S
N1276 C1277 1.346 . S
C1277 N1276 1.346 . S
C1277 C1278 1.396 . S
C1277 C1287 1.510 . S
C1278 C1274 1.401 . S
C1278 C1277 1.396 . S
C1279 C1274 1.499 . S
C1279 H1280 0.959 . S
C1279 H1281 0.960 . S
C1279 H1282 0.961 . S
H1280 C1279 0.959 . S
H1281 C1279 0.960 . S
H1282 C1279 0.961 . S
O1283 Co1258 1.967 . S
O1283 C1291 1.258 . S
O1284 Co1259 1.941 . S
O1284 C1291 1.266 . S
H1285 C1287 0.959 . S
H1286 C1287 0.961 . S
C1287 C1277 1.510 . S
C1287 H1285 0.959 . S
C1287 H1286 0.961 . S
C1287 H1288 0.960 . S
H1288 C1287 0.960 . S
H1289 N1269 0.862 . S
O1290 Co1258 1.920 . S
O1290 C1263 1.289 . S
C1291 O1283 1.258 . S
C1291 O1284 1.266 . S
Co1292 O1295 1.970 . S
Co1292 N1309 1.989 . S
Co1292 O1317 1.967 . S
Co1292 O1324 1.920 . S
Co1293 O1296 1.966 . S
Co1293 N1302 2.022 . S
Co1293 N1310 1.993 . S
Co1293 O1318 1.941 . S
C1294 O1295 1.258 . S
C1294 O1296 1.263 . S
O1295 Co1292 1.970 . S
O1295 C1294 1.258 . S
O1296 Co1293 1.966 . S
O1296 C1294 1.263 . S
C1297 O1298 1.235 . S
C1297 O1324 1.289 . S
O1298 C1297 1.235 . S
C1299 C1301 1.400 . S
C1299 N1302 1.351 . S
C1299 C1304 1.501 . S
C1300 C1301 1.387 . S
C1300 N1303 1.341 . S
C1301 C1299 1.400 . S
C1301 C1300 1.387 . S
N1302 Co1293 2.022 . S
N1302 C1299 1.351 . S
N1302 N1303 1.365 . S
N1303 C1300 1.341 . S
N1303 N1302 1.365 . S
N1303 H1323 0.862 . S
C1304 C1299 1.501 . S
C1304 H1305 0.961 . S
C1304 H1306 0.961 . S
C1304 H1307 0.960 . S
H1305 C1304 0.961 . S
H1306 C1304 0.961 . S
H1307 C1304 0.960 . S
C1308 N1309 1.342 . S
C1308 C1312 1.401 . S
C1308 C1313 1.499 . S
N1309 Co1292 1.989 . S
N1309 C1308 1.342 . S
N1309 N1310 1.388 . S
N1310 Co1293 1.993 . S
N1310 N1309 1.388 . S
N1310 C1311 1.346 . S
C1311 N1310 1.346 . S
C1311 C1312 1.396 . S
C1311 C1321 1.510 . S
C1312 C1308 1.401 . S
C1312 C1311 1.396 . S
C1313 C1308 1.499 . S
C1313 H1314 0.959 . S
C1313 H1315 0.960 . S
C1313 H1316 0.961 . S
H1314 C1313 0.959 . S
H1315 C1313 0.960 . S
H1316 C1313 0.961 . S
O1317 Co1292 1.967 . S
O1317 C1325 1.258 . S
O1318 Co1293 1.941 . S
O1318 C1325 1.266 . S
H1319 C1321 0.959 . S
H1320 C1321 0.961 . S
C1321 C1311 1.510 . S
C1321 H1319 0.959 . S
C1321 H1320 0.961 . S
C1321 H1322 0.960 . S
H1322 C1321 0.960 . S
H1323 N1303 0.862 . S
O1324 Co1292 1.920 . S
O1324 C1297 1.289 . S
C1325 O1317 1.258 . S
C1325 O1318 1.266 . S
Co1326 O1329 1.970 . S
Co1326 N1343 1.989 . S
Co1326 O1351 1.967 . S
Co1326 O1358 1.920 . S
Co1327 O1330 1.966 . S
Co1327 N1336 2.022 . S
Co1327 N1344 1.993 . S
Co1327 O1352 1.941 . S
C1328 O1329 1.258 . S
C1328 O1330 1.263 . S
O1329 Co1326 1.970 . S
O1329 C1328 1.258 . S
O1330 Co1327 1.966 . S
O1330 C1328 1.263 . S
C1331 O1332 1.235 . S
C1331 O1358 1.289 . S
O1332 C1331 1.235 . S
C1333 C1335 1.400 . S
C1333 N1336 1.351 . S
C1333 C1338 1.501 . S
C1334 C1335 1.387 . S
C1334 N1337 1.341 . S
C1335 C1333 1.400 . S
C1335 C1334 1.387 . S
N1336 Co1327 2.022 . S
N1336 C1333 1.351 . S
N1336 N1337 1.365 . S
N1337 C1334 1.341 . S
N1337 N1336 1.365 . S
N1337 H1357 0.862 . S
C1338 C1333 1.501 . S
C1338 H1339 0.961 . S
C1338 H1340 0.961 . S
C1338 H1341 0.960 . S
H1339 C1338 0.961 . S
H1340 C1338 0.961 . S
H1341 C1338 0.960 . S
C1342 N1343 1.342 . S
C1342 C1346 1.401 . S
C1342 C1347 1.499 . S
N1343 Co1326 1.989 . S
N1343 C1342 1.342 . S
N1343 N1344 1.388 . S
N1344 Co1327 1.993 . S
N1344 N1343 1.388 . S
N1344 C1345 1.346 . S
C1345 N1344 1.346 . S
C1345 C1346 1.396 . S
C1345 C1355 1.510 . S
C1346 C1342 1.401 . S
C1346 C1345 1.396 . S
C1347 C1342 1.499 . S
C1347 H1348 0.959 . S
C1347 H1349 0.960 . S
C1347 H1350 0.961 . S
H1348 C1347 0.959 . S
H1349 C1347 0.960 . S
H1350 C1347 0.961 . S
O1351 Co1326 1.967 . S
O1351 C1359 1.258 . S
O1352 Co1327 1.941 . S
O1352 C1359 1.266 . S
H1353 C1355 0.959 . S
H1354 C1355 0.961 . S
C1355 C1345 1.510 . S
C1355 H1353 0.959 . S
C1355 H1354 0.961 . S
C1355 H1356 0.960 . S
H1356 C1355 0.960 . S
H1357 N1337 0.862 . S
O1358 Co1326 1.920 . S
O1358 C1331 1.289 . S
C1359 O1351 1.258 . S
C1359 O1352 1.266 . S
Co1360 O1363 1.970 . S
Co1360 N1377 1.989 . S
Co1360 O1385 1.967 . S
Co1360 O1392 1.920 . S
Co1361 O1364 1.966 . S
Co1361 N1370 2.022 . S
Co1361 N1378 1.993 . S
Co1361 O1386 1.941 . S
C1362 O1363 1.258 . S
C1362 O1364 1.263 . S
O1363 Co1360 1.970 . S
O1363 C1362 1.258 . S
O1364 Co1361 1.966 . S
O1364 C1362 1.263 . S
C1365 O1366 1.235 . S
C1365 O1392 1.289 . S
O1366 C1365 1.235 . S
C1367 C1369 1.400 . S
C1367 N1370 1.351 . S
C1367 C1372 1.501 . S
C1368 C1369 1.387 . S
C1368 N1371 1.341 . S
C1369 C1367 1.400 . S
C1369 C1368 1.387 . S
N1370 Co1361 2.022 . S
N1370 C1367 1.351 . S
N1370 N1371 1.365 . S
N1371 C1368 1.341 . S
N1371 N1370 1.365 . S
N1371 H1391 0.862 . S
C1372 C1367 1.501 . S
C1372 H1373 0.961 . S
C1372 H1374 0.961 . S
C1372 H1375 0.960 . S
H1373 C1372 0.961 . S
H1374 C1372 0.961 . S
H1375 C1372 0.960 . S
C1376 N1377 1.342 . S
C1376 C1380 1.401 . S
C1376 C1381 1.499 . S
N1377 Co1360 1.989 . S
N1377 C1376 1.342 . S
N1377 N1378 1.388 . S
N1378 Co1361 1.993 . S
N1378 N1377 1.388 . S
N1378 C1379 1.346 . S
C1379 N1378 1.346 . S
C1379 C1380 1.396 . S
C1379 C1389 1.510 . S
C1380 C1376 1.401 . S
C1380 C1379 1.396 . S
C1381 C1376 1.499 . S
C1381 H1382 0.959 . S
C1381 H1383 0.960 . S
C1381 H1384 0.961 . S
H1382 C1381 0.959 . S
H1383 C1381 0.960 . S
H1384 C1381 0.961 . S
O1385 Co1360 1.967 . S
O1385 C1393 1.258 . S
O1386 Co1361 1.941 . S
O1386 C1393 1.266 . S
H1387 C1389 0.959 . S
H1388 C1389 0.961 . S
C1389 C1379 1.510 . S
C1389 H1387 0.959 . S
C1389 H1388 0.961 . S
C1389 H1390 0.960 . S
H1390 C1389 0.960 . S
H1391 N1371 0.862 . S
O1392 Co1360 1.920 . S
O1392 C1365 1.289 . S
C1393 O1385 1.258 . S
C1393 O1386 1.266 . S
Co1394 O1397 1.970 . S
Co1394 N1411 1.989 . S
Co1394 O1419 1.967 . S
Co1394 O1426 1.920 . S
Co1395 O1398 1.966 . S
Co1395 N1404 2.022 . S
Co1395 N1412 1.993 . S
Co1395 O1420 1.941 . S
C1396 O1397 1.258 . S
C1396 O1398 1.263 . S
O1397 Co1394 1.970 . S
O1397 C1396 1.258 . S
O1398 Co1395 1.966 . S
O1398 C1396 1.263 . S
C1399 O1400 1.235 . S
C1399 O1426 1.289 . S
O1400 C1399 1.235 . S
C1401 C1403 1.400 . S
C1401 N1404 1.351 . S
C1401 C1406 1.501 . S
C1402 C1403 1.387 . S
C1402 N1405 1.341 . S
C1403 C1401 1.400 . S
C1403 C1402 1.387 . S
N1404 Co1395 2.022 . S
N1404 C1401 1.351 . S
N1404 N1405 1.365 . S
N1405 C1402 1.341 . S
N1405 N1404 1.365 . S
N1405 H1425 0.862 . S
C1406 C1401 1.501 . S
C1406 H1407 0.961 . S
C1406 H1408 0.961 . S
C1406 H1409 0.960 . S
H1407 C1406 0.961 . S
H1408 C1406 0.961 . S
H1409 C1406 0.960 . S
C1410 N1411 1.342 . S
C1410 C1414 1.401 . S
C1410 C1415 1.499 . S
N1411 Co1394 1.989 . S
N1411 C1410 1.342 . S
N1411 N1412 1.388 . S
N1412 Co1395 1.993 . S
N1412 N1411 1.388 . S
N1412 C1413 1.346 . S
C1413 N1412 1.346 . S
C1413 C1414 1.396 . S
C1413 C1423 1.510 . S
C1414 C1410 1.401 . S
C1414 C1413 1.396 . S
C1415 C1410 1.499 . S
C1415 H1416 0.959 . S
C1415 H1417 0.960 . S
C1415 H1418 0.961 . S
H1416 C1415 0.959 . S
H1417 C1415 0.960 . S
H1418 C1415 0.961 . S
O1419 Co1394 1.967 . S
O1419 C1427 1.258 . S
O1420 Co1395 1.941 . S
O1420 C1427 1.266 . S
H1421 C1423 0.959 . S
H1422 C1423 0.961 . S
C1423 C1413 1.510 . S
C1423 H1421 0.959 . S
C1423 H1422 0.961 . S
C1423 H1424 0.960 . S
H1424 C1423 0.960 . S
H1425 N1405 0.862 . S
O1426 Co1394 1.920 . S
O1426 C1399 1.289 . S
C1427 O1419 1.258 . S
C1427 O1420 1.266 . S
Co1428 O1431 1.970 . S
Co1428 N1445 1.989 . S
Co1428 O1453 1.967 . S
Co1428 O1460 1.920 . S
Co1429 O1432 1.966 . S
Co1429 N1438 2.022 . S
Co1429 N1446 1.993 . S
Co1429 O1454 1.941 . S
C1430 O1431 1.258 . S
C1430 O1432 1.263 . S
O1431 Co1428 1.970 . S
O1431 C1430 1.258 . S
O1432 Co1429 1.966 . S
O1432 C1430 1.263 . S
C1433 O1434 1.235 . S
C1433 O1460 1.289 . S
O1434 C1433 1.235 . S
C1435 C1437 1.400 . S
C1435 N1438 1.351 . S
C1435 C1440 1.501 . S
C1436 C1437 1.387 . S
C1436 N1439 1.341 . S
C1437 C1435 1.400 . S
C1437 C1436 1.387 . S
N1438 Co1429 2.022 . S
N1438 C1435 1.351 . S
N1438 N1439 1.365 . S
N1439 C1436 1.341 . S
N1439 N1438 1.365 . S
N1439 H1459 0.862 . S
C1440 C1435 1.501 . S
C1440 H1441 0.961 . S
C1440 H1442 0.961 . S
C1440 H1443 0.960 . S
H1441 C1440 0.961 . S
H1442 C1440 0.961 . S
H1443 C1440 0.960 . S
C1444 N1445 1.342 . S
C1444 C1448 1.401 . S
C1444 C1449 1.499 . S
N1445 Co1428 1.989 . S
N1445 C1444 1.342 . S
N1445 N1446 1.388 . S
N1446 Co1429 1.993 . S
N1446 N1445 1.388 . S
N1446 C1447 1.346 . S
C1447 N1446 1.346 . S
C1447 C1448 1.396 . S
C1447 C1457 1.510 . S
C1448 C1444 1.401 . S
C1448 C1447 1.396 . S
C1449 C1444 1.499 . S
C1449 H1450 0.959 . S
C1449 H1451 0.960 . S
C1449 H1452 0.961 . S
H1450 C1449 0.959 . S
H1451 C1449 0.960 . S
H1452 C1449 0.961 . S
O1453 Co1428 1.967 . S
O1453 C1461 1.258 . S
O1454 Co1429 1.941 . S
O1454 C1461 1.266 . S
H1455 C1457 0.959 . S
H1456 C1457 0.961 . S
C1457 C1447 1.510 . S
C1457 H1455 0.959 . S
C1457 H1456 0.961 . S
C1457 H1458 0.960 . S
H1458 C1457 0.960 . S
H1459 N1439 0.862 . S
O1460 Co1428 1.920 . S
O1460 C1433 1.289 . S
C1461 O1453 1.258 . S
C1461 O1454 1.266 . S
Co1462 O1465 1.970 . S
Co1462 N1479 1.989 . S
Co1462 O1487 1.967 . S
Co1462 O1494 1.920 . S
Co1463 O1466 1.966 . S
Co1463 N1472 2.022 . S
Co1463 N1480 1.993 . S
Co1463 O1488 1.941 . S
C1464 O1465 1.258 . S
C1464 O1466 1.263 . S
O1465 Co1462 1.970 . S
O1465 C1464 1.258 . S
O1466 Co1463 1.966 . S
O1466 C1464 1.263 . S
C1467 O1468 1.235 . S
C1467 O1494 1.289 . S
O1468 C1467 1.235 . S
C1469 C1471 1.400 . S
C1469 N1472 1.351 . S
C1469 C1474 1.501 . S
C1470 C1471 1.387 . S
C1470 N1473 1.341 . S
C1471 C1469 1.400 . S
C1471 C1470 1.387 . S
N1472 Co1463 2.022 . S
N1472 C1469 1.351 . S
N1472 N1473 1.365 . S
N1473 C1470 1.341 . S
N1473 N1472 1.365 . S
N1473 H1493 0.862 . S
C1474 C1469 1.501 . S
C1474 H1475 0.961 . S
C1474 H1476 0.961 . S
C1474 H1477 0.960 . S
H1475 C1474 0.961 . S
H1476 C1474 0.961 . S
H1477 C1474 0.960 . S
C1478 N1479 1.342 . S
C1478 C1482 1.401 . S
C1478 C1483 1.499 . S
N1479 Co1462 1.989 . S
N1479 C1478 1.342 . S
N1479 N1480 1.388 . S
N1480 Co1463 1.993 . S
N1480 N1479 1.388 . S
N1480 C1481 1.346 . S
C1481 N1480 1.346 . S
C1481 C1482 1.396 . S
C1481 C1491 1.510 . S
C1482 C1478 1.401 . S
C1482 C1481 1.396 . S
C1483 C1478 1.499 . S
C1483 H1484 0.959 . S
C1483 H1485 0.960 . S
C1483 H1486 0.961 . S
H1484 C1483 0.959 . S
H1485 C1483 0.960 . S
H1486 C1483 0.961 . S
O1487 Co1462 1.967 . S
O1487 C1495 1.258 . S
O1488 Co1463 1.941 . S
O1488 C1495 1.266 . S
H1489 C1491 0.959 . S
H1490 C1491 0.961 . S
C1491 C1481 1.510 . S
C1491 H1489 0.959 . S
C1491 H1490 0.961 . S
C1491 H1492 0.960 . S
H1492 C1491 0.960 . S
H1493 N1473 0.862 . S
O1494 Co1462 1.920 . S
O1494 C1467 1.289 . S
C1495 O1487 1.258 . S
C1495 O1488 1.266 . S
Co1496 O1499 1.970 . S
Co1496 N1513 1.989 . S
Co1496 O1521 1.967 . S
Co1496 O1528 1.920 . S
Co1497 O1500 1.966 . S
Co1497 N1506 2.022 . S
Co1497 N1514 1.993 . S
Co1497 O1522 1.941 . S
C1498 O1499 1.258 . S
C1498 O1500 1.263 . S
O1499 Co1496 1.970 . S
O1499 C1498 1.258 . S
O1500 Co1497 1.966 . S
O1500 C1498 1.263 . S
C1501 O1502 1.235 . S
C1501 O1528 1.289 . S
O1502 C1501 1.235 . S
C1503 C1505 1.400 . S
C1503 N1506 1.351 . S
C1503 C1508 1.501 . S
C1504 C1505 1.387 . S
C1504 N1507 1.341 . S
C1505 C1503 1.400 . S
C1505 C1504 1.387 . S
N1506 Co1497 2.022 . S
N1506 C1503 1.351 . S
N1506 N1507 1.365 . S
N1507 C1504 1.341 . S
N1507 N1506 1.365 . S
N1507 H1527 0.862 . S
C1508 C1503 1.501 . S
C1508 H1509 0.961 . S
C1508 H1510 0.961 . S
C1508 H1511 0.960 . S
H1509 C1508 0.961 . S
H1510 C1508 0.961 . S
H1511 C1508 0.960 . S
C1512 N1513 1.342 . S
C1512 C1516 1.401 . S
C1512 C1517 1.499 . S
N1513 Co1496 1.989 . S
N1513 C1512 1.342 . S
N1513 N1514 1.388 . S
N1514 Co1497 1.993 . S
N1514 N1513 1.388 . S
N1514 C1515 1.346 . S
C1515 N1514 1.346 . S
C1515 C1516 1.396 . S
C1515 C1525 1.510 . S
C1516 C1512 1.401 . S
C1516 C1515 1.396 . S
C1517 C1512 1.499 . S
C1517 H1518 0.959 . S
C1517 H1519 0.960 . S
C1517 H1520 0.961 . S
H1518 C1517 0.959 . S
H1519 C1517 0.960 . S
H1520 C1517 0.961 . S
O1521 Co1496 1.967 . S
O1521 C1529 1.258 . S
O1522 Co1497 1.941 . S
O1522 C1529 1.266 . S
H1523 C1525 0.959 . S
H1524 C1525 0.961 . S
C1525 C1515 1.510 . S
C1525 H1523 0.959 . S
C1525 H1524 0.961 . S
C1525 H1526 0.960 . S
H1526 C1525 0.960 . S
H1527 N1507 0.862 . S
O1528 Co1496 1.920 . S
O1528 C1501 1.289 . S
C1529 O1521 1.258 . S
C1529 O1522 1.266 . S
Co1530 O1533 1.970 . S
Co1530 N1547 1.989 . S
Co1530 O1555 1.967 . S
Co1530 O1562 1.920 . S
Co1531 O1534 1.966 . S
Co1531 N1540 2.022 . S
Co1531 N1548 1.993 . S
Co1531 O1556 1.941 . S
C1532 O1533 1.258 . S
C1532 O1534 1.263 . S
O1533 Co1530 1.970 . S
O1533 C1532 1.258 . S
O1534 Co1531 1.966 . S
O1534 C1532 1.263 . S
C1535 O1536 1.235 . S
C1535 O1562 1.289 . S
O1536 C1535 1.235 . S
C1537 C1539 1.400 . S
C1537 N1540 1.351 . S
C1537 C1542 1.501 . S
C1538 C1539 1.387 . S
C1538 N1541 1.341 . S
C1539 C1537 1.400 . S
C1539 C1538 1.387 . S
N1540 Co1531 2.022 . S
N1540 C1537 1.351 . S
N1540 N1541 1.365 . S
N1541 C1538 1.341 . S
N1541 N1540 1.365 . S
N1541 H1561 0.862 . S
C1542 C1537 1.501 . S
C1542 H1543 0.961 . S
C1542 H1544 0.961 . S
C1542 H1545 0.960 . S
H1543 C1542 0.961 . S
H1544 C1542 0.961 . S
H1545 C1542 0.960 . S
C1546 N1547 1.342 . S
C1546 C1550 1.401 . S
C1546 C1551 1.499 . S
N1547 Co1530 1.989 . S
N1547 C1546 1.342 . S
N1547 N1548 1.388 . S
N1548 Co1531 1.993 . S
N1548 N1547 1.388 . S
N1548 C1549 1.346 . S
C1549 N1548 1.346 . S
C1549 C1550 1.396 . S
C1549 C1559 1.510 . S
C1550 C1546 1.401 . S
C1550 C1549 1.396 . S
C1551 C1546 1.499 . S
C1551 H1552 0.959 . S
C1551 H1553 0.960 . S
C1551 H1554 0.961 . S
H1552 C1551 0.959 . S
H1553 C1551 0.960 . S
H1554 C1551 0.961 . S
O1555 Co1530 1.967 . S
O1555 C1563 1.258 . S
O1556 Co1531 1.941 . S
O1556 C1563 1.266 . S
H1557 C1559 0.959 . S
H1558 C1559 0.961 . S
C1559 C1549 1.510 . S
C1559 H1557 0.959 . S
C1559 H1558 0.961 . S
C1559 H1560 0.960 . S
H1560 C1559 0.960 . S
H1561 N1541 0.862 . S
O1562 Co1530 1.920 . S
O1562 C1535 1.289 . S
C1563 O1555 1.258 . S
C1563 O1556 1.266 . S
Co1564 O1567 1.970 . S
Co1564 N1581 1.989 . S
Co1564 O1589 1.967 . S
Co1564 O1596 1.920 . S
Co1565 O1568 1.966 . S
Co1565 N1574 2.022 . S
Co1565 N1582 1.993 . S
Co1565 O1590 1.941 . S
C1566 O1567 1.258 . S
C1566 O1568 1.263 . S
O1567 Co1564 1.970 . S
O1567 C1566 1.258 . S
O1568 Co1565 1.966 . S
O1568 C1566 1.263 . S
C1569 O1570 1.235 . S
C1569 O1596 1.289 . S
O1570 C1569 1.235 . S
C1571 C1573 1.400 . S
C1571 N1574 1.351 . S
C1571 C1576 1.501 . S
C1572 C1573 1.387 . S
C1572 N1575 1.341 . S
C1573 C1571 1.400 . S
C1573 C1572 1.387 . S
N1574 Co1565 2.022 . S
N1574 C1571 1.351 . S
N1574 N1575 1.365 . S
N1575 C1572 1.341 . S
N1575 N1574 1.365 . S
N1575 H1595 0.862 . S
C1576 C1571 1.501 . S
C1576 H1577 0.961 . S
C1576 H1578 0.961 . S
C1576 H1579 0.960 . S
H1577 C1576 0.961 . S
H1578 C1576 0.961 . S
H1579 C1576 0.960 . S
C1580 N1581 1.342 . S
C1580 C1584 1.401 . S
C1580 C1585 1.499 . S
N1581 Co1564 1.989 . S
N1581 C1580 1.342 . S
N1581 N1582 1.388 . S
N1582 Co1565 1.993 . S
N1582 N1581 1.388 . S
N1582 C1583 1.346 . S
C1583 N1582 1.346 . S
C1583 C1584 1.396 . S
C1583 C1593 1.510 . S
C1584 C1580 1.401 . S
C1584 C1583 1.396 . S
C1585 C1580 1.499 . S
C1585 H1586 0.959 . S
C1585 H1587 0.960 . S
C1585 H1588 0.961 . S
H1586 C1585 0.959 . S
H1587 C1585 0.960 . S
H1588 C1585 0.961 . S
O1589 Co1564 1.967 . S
O1589 C1597 1.258 . S
O1590 Co1565 1.941 . S
O1590 C1597 1.266 . S
H1591 C1593 0.959 . S
H1592 C1593 0.961 . S
C1593 C1583 1.510 . S
C1593 H1591 0.959 . S
C1593 H1592 0.961 . S
C1593 H1594 0.960 . S
H1594 C1593 0.960 . S
H1595 N1575 0.862 . S
O1596 Co1564 1.920 . S
O1596 C1569 1.289 . S
C1597 O1589 1.258 . S
C1597 O1590 1.266 . S
Co1598 O1601 1.970 . S
Co1598 N1615 1.989 . S
Co1598 O1623 1.967 . S
Co1598 O1630 1.920 . S
Co1599 O1602 1.966 . S
Co1599 N1608 2.022 . S
Co1599 N1616 1.993 . S
Co1599 O1624 1.941 . S
C1600 O1601 1.258 . S
C1600 O1602 1.263 . S
O1601 Co1598 1.970 . S
O1601 C1600 1.258 . S
O1602 Co1599 1.966 . S
O1602 C1600 1.263 . S
C1603 O1604 1.235 . S
C1603 O1630 1.289 . S
O1604 C1603 1.235 . S
C1605 C1607 1.400 . S
C1605 N1608 1.351 . S
C1605 C1610 1.501 . S
C1606 C1607 1.387 . S
C1606 N1609 1.341 . S
C1607 C1605 1.400 . S
C1607 C1606 1.387 . S
N1608 Co1599 2.022 . S
N1608 C1605 1.351 . S
N1608 N1609 1.365 . S
N1609 C1606 1.341 . S
N1609 N1608 1.365 . S
N1609 H1629 0.862 . S
C1610 C1605 1.501 . S
C1610 H1611 0.961 . S
C1610 H1612 0.961 . S
C1610 H1613 0.960 . S
H1611 C1610 0.961 . S
H1612 C1610 0.961 . S
H1613 C1610 0.960 . S
C1614 N1615 1.342 . S
C1614 C1618 1.401 . S
C1614 C1619 1.499 . S
N1615 Co1598 1.989 . S
N1615 C1614 1.342 . S
N1615 N1616 1.388 . S
N1616 Co1599 1.993 . S
N1616 N1615 1.388 . S
N1616 C1617 1.346 . S
C1617 N1616 1.346 . S
C1617 C1618 1.396 . S
C1617 C1627 1.510 . S
C1618 C1614 1.401 . S
C1618 C1617 1.396 . S
C1619 C1614 1.499 . S
C1619 H1620 0.959 . S
C1619 H1621 0.960 . S
C1619 H1622 0.961 . S
H1620 C1619 0.959 . S
H1621 C1619 0.960 . S
H1622 C1619 0.961 . S
O1623 Co1598 1.967 . S
O1623 C1631 1.258 . S
O1624 Co1599 1.941 . S
O1624 C1631 1.266 . S
H1625 C1627 0.959 . S
H1626 C1627 0.961 . S
C1627 C1617 1.510 . S
C1627 H1625 0.959 . S
C1627 H1626 0.961 . S
C1627 H1628 0.960 . S
H1628 C1627 0.960 . S
H1629 N1609 0.862 . S
O1630 Co1598 1.920 . S
O1630 C1603 1.289 . S
C1631 O1623 1.258 . S
C1631 O1624 1.266 . S
H1632 C1638 0.930 . S
H1633 C1642 0.930 . S
H1634 C1647 0.929 . S
H1635 C1645 0.929 . S
H1636 C1640 0.929 . S
H1637 C1646 0.929 . S
C1638 H1632 0.930 . S
C1638 C1639 1.367 . S
C1638 C1646 1.378 . S
C1639 C1638 1.367 . S
C1639 C1647 1.433 . S
C1640 H1636 0.929 . S
C1640 C1642 1.378 . S
C1640 C1644 1.350 . S
C1641 C1644 1.463 . S
C1641 C1646 1.350 . S
C1641 N1649 1.427 . S
C1642 H1633 0.930 . S
C1642 C1640 1.378 . S
C1642 C1643 1.367 . S
C1643 C1642 1.367 . S
C1643 C1645 1.433 . S
C1644 C1640 1.350 . S
C1644 C1641 1.463 . S
C1644 N1648 1.427 . S
C1645 H1635 0.929 . S
C1645 C1643 1.433 . S
C1645 N1648 1.384 . S
C1646 H1637 0.929 . S
C1646 C1638 1.378 . S
C1646 C1641 1.350 . S
C1647 H1634 0.929 . S
C1647 C1639 1.433 . S
C1647 N1649 1.384 . S
N1648 C1644 1.427 . S
N1648 C1645 1.384 . S
N1649 C1641 1.427 . S
N1649 C1647 1.384 . S
H1650 C1656 0.930 . S
H1651 C1660 0.930 . S
H1652 C1665 0.929 . S
H1653 C1663 0.929 . S
H1654 C1658 0.929 . S
H1655 C1664 0.929 . S
C1656 H1650 0.930 . S
C1656 C1657 1.367 . S
C1656 C1664 1.378 . S
C1657 C1656 1.367 . S
C1657 C1665 1.433 . S
C1658 H1654 0.929 . S
C1658 C1660 1.378 . S
C1658 C1662 1.350 . S
C1659 C1662 1.463 . S
C1659 C1664 1.350 . S
C1659 N1667 1.427 . S
C1660 H1651 0.930 . S
C1660 C1658 1.378 . S
C1660 C1661 1.367 . S
C1661 C1660 1.367 . S
C1661 C1663 1.433 . S
C1662 C1658 1.350 . S
C1662 C1659 1.463 . S
C1662 N1666 1.427 . S
C1663 H1653 0.929 . S
C1663 C1661 1.433 . S
C1663 N1666 1.384 . S
C1664 H1655 0.929 . S
C1664 C1656 1.378 . S
C1664 C1659 1.350 . S
C1665 H1652 0.929 . S
C1665 C1657 1.433 . S
C1665 N1667 1.384 . S
N1666 C1662 1.427 . S
N1666 C1663 1.384 . S
N1667 C1659 1.427 . S
N1667 C1665 1.384 . S
H1668 C1674 0.930 . S
H1669 C1678 0.930 . S
H1670 C1683 0.929 . S
H1671 C1681 0.929 . S
H1672 C1676 0.929 . S
H1673 C1682 0.929 . S
C1674 H1668 0.930 . S
C1674 C1675 1.367 . S
C1674 C1682 1.378 . S
C1675 C1674 1.367 . S
C1675 C1683 1.433 . S
C1676 H1672 0.929 . S
C1676 C1678 1.378 . S
C1676 C1680 1.350 . S
C1677 C1680 1.463 . S
C1677 C1682 1.350 . S
C1677 N1685 1.427 . S
C1678 H1669 0.930 . S
C1678 C1676 1.378 . S
C1678 C1679 1.367 . S
C1679 C1678 1.367 . S
C1679 C1681 1.433 . S
C1680 C1676 1.350 . S
C1680 C1677 1.463 . S
C1680 N1684 1.427 . S
C1681 H1671 0.929 . S
C1681 C1679 1.433 . S
C1681 N1684 1.384 . S
C1682 H1673 0.929 . S
C1682 C1674 1.378 . S
C1682 C1677 1.350 . S
C1683 H1670 0.929 . S
C1683 C1675 1.433 . S
C1683 N1685 1.384 . S
N1684 C1680 1.427 . S
N1684 C1681 1.384 . S
N1685 C1677 1.427 . S
N1685 C1683 1.384 . S
H1686 C1692 0.930 . S
H1687 C1696 0.930 . S
H1688 C1701 0.929 . S
H1689 C1699 0.929 . S
H1690 C1694 0.929 . S
H1691 C1700 0.929 . S
C1692 H1686 0.930 . S
C1692 C1693 1.367 . S
C1692 C1700 1.378 . S
C1693 C1692 1.367 . S
C1693 C1701 1.433 . S
C1694 H1690 0.929 . S
C1694 C1696 1.378 . S
C1694 C1698 1.350 . S
C1695 C1698 1.463 . S
C1695 C1700 1.350 . S
C1695 N1703 1.427 . S
C1696 H1687 0.930 . S
C1696 C1694 1.378 . S
C1696 C1697 1.367 . S
C1697 C1696 1.367 . S
C1697 C1699 1.433 . S
C1698 C1694 1.350 . S
C1698 C1695 1.463 . S
C1698 N1702 1.427 . S
C1699 H1689 0.929 . S
C1699 C1697 1.433 . S
C1699 N1702 1.384 . S
C1700 H1691 0.929 . S
C1700 C1692 1.378 . S
C1700 C1695 1.350 . S
C1701 H1688 0.929 . S
C1701 C1693 1.433 . S
C1701 N1703 1.384 . S
N1702 C1698 1.427 . S
N1702 C1699 1.384 . S
N1703 C1695 1.427 . S
N1703 C1701 1.384 . S
H1704 C1710 0.930 . S
H1705 C1714 0.930 . S
H1706 C1719 0.929 . S
H1707 C1717 0.929 . S
H1708 C1712 0.929 . S
H1709 C1718 0.929 . S
C1710 H1704 0.930 . S
C1710 C1711 1.367 . S
C1710 C1718 1.378 . S
C1711 C1710 1.367 . S
C1711 C1719 1.433 . S
C1712 H1708 0.929 . S
C1712 C1714 1.378 . S
C1712 C1716 1.350 . S
C1713 C1716 1.463 . S
C1713 C1718 1.350 . S
C1713 N1721 1.427 . S
C1714 H1705 0.930 . S
C1714 C1712 1.378 . S
C1714 C1715 1.367 . S
C1715 C1714 1.367 . S
C1715 C1717 1.433 . S
C1716 C1712 1.350 . S
C1716 C1713 1.463 . S
C1716 N1720 1.427 . S
C1717 H1707 0.929 . S
C1717 C1715 1.433 . S
C1717 N1720 1.384 . S
C1718 H1709 0.929 . S
C1718 C1710 1.378 . S
C1718 C1713 1.350 . S
C1719 H1706 0.929 . S
C1719 C1711 1.433 . S
C1719 N1721 1.384 . S
N1720 C1716 1.427 . S
N1720 C1717 1.384 . S
N1721 C1713 1.427 . S
N1721 C1719 1.384 . S
H1722 C1728 0.930 . S
H1723 C1732 0.930 . S
H1724 C1737 0.929 . S
H1725 C1735 0.929 . S
H1726 C1730 0.929 . S
H1727 C1736 0.929 . S
C1728 H1722 0.930 . S
C1728 C1729 1.367 . S
C1728 C1736 1.378 . S
C1729 C1728 1.367 . S
C1729 C1737 1.433 . S
C1730 H1726 0.929 . S
C1730 C1732 1.378 1_655 S
C1730 C1734 1.350 . S
C1731 C1734 1.463 . S
C1731 C1736 1.350 . S
C1731 N1739 1.427 . S
C1732 H1723 0.930 . S
C1732 C1730 1.378 1_455 S
C1732 C1733 1.367 . S
C1733 C1732 1.367 . S
C1733 C1735 1.433 1_455 S
C1734 C1730 1.350 . S
C1734 C1731 1.463 . S
C1734 N1738 1.427 . S
C1735 H1725 0.929 . S
C1735 C1733 1.433 1_655 S
C1735 N1738 1.384 . S
C1736 H1727 0.929 . S
C1736 C1728 1.378 . S
C1736 C1731 1.350 . S
C1737 H1724 0.929 . S
C1737 C1729 1.433 . S
C1737 N1739 1.384 . S
N1738 C1734 1.427 . S
N1738 C1735 1.384 . S
N1739 C1731 1.427 . S
N1739 C1737 1.384 . S
H1740 C1746 0.930 . S
H1741 C1750 0.930 . S
H1742 C1755 0.929 . S
H1743 C1753 0.929 . S
H1744 C1748 0.929 . S
H1745 C1754 0.929 . S
C1746 H1740 0.930 . S
C1746 C1747 1.367 . S
C1746 C1754 1.378 . S
C1747 C1746 1.367 . S
C1747 C1755 1.433 . S
C1748 H1744 0.929 . S
C1748 C1750 1.378 . S
C1748 C1752 1.350 . S
C1749 C1752 1.463 . S
C1749 C1754 1.350 . S
C1749 N1757 1.427 . S
C1750 H1741 0.930 . S
C1750 C1748 1.378 . S
C1750 C1751 1.367 . S
C1751 C1750 1.367 . S
C1751 C1753 1.433 . S
C1752 C1748 1.350 . S
C1752 C1749 1.463 . S
C1752 N1756 1.427 . S
C1753 H1743 0.929 . S
C1753 C1751 1.433 . S
C1753 N1756 1.384 . S
C1754 H1745 0.929 . S
C1754 C1746 1.378 . S
C1754 C1749 1.350 . S
C1755 H1742 0.929 . S
C1755 C1747 1.433 . S
C1755 N1757 1.384 . S
N1756 C1752 1.427 . S
N1756 C1753 1.384 . S
N1757 C1749 1.427 . S
N1757 C1755 1.384 . S
H1758 C1764 0.930 . S
H1759 C1768 0.930 . S
H1760 C1773 0.929 . S
H1761 C1771 0.929 . S
H1762 C1766 0.929 . S
H1763 C1772 0.929 . S
C1764 H1758 0.930 . S
C1764 C1765 1.367 1_455 S
C1764 C1772 1.378 . S
C1765 C1764 1.367 1_655 S
C1765 C1773 1.433 . S
C1766 H1762 0.929 . S
C1766 C1768 1.378 . S
C1766 C1770 1.350 . S
C1767 C1770 1.463 . S
C1767 C1772 1.350 . S
C1767 N1775 1.427 . S
C1768 H1759 0.930 . S
C1768 C1766 1.378 . S
C1768 C1769 1.367 . S
C1769 C1768 1.367 . S
C1769 C1771 1.433 . S
C1770 C1766 1.350 . S
C1770 C1767 1.463 . S
C1770 N1774 1.427 . S
C1771 H1761 0.929 . S
C1771 C1769 1.433 . S
C1771 N1774 1.384 . S
C1772 H1763 0.929 . S
C1772 C1764 1.378 . S
C1772 C1767 1.350 . S
C1773 H1760 0.929 . S
C1773 C1765 1.433 . S
C1773 N1775 1.384 1_655 S
N1774 C1770 1.427 . S
N1774 C1771 1.384 . S
N1775 C1767 1.427 . S
N1775 C1773 1.384 1_455 S
H1776 C1782 0.930 . S
H1777 C1786 0.930 . S
H1778 C1791 0.929 . S
H1779 C1789 0.929 . S
H1780 C1784 0.929 . S
H1781 C1790 0.929 . S
C1782 H1776 0.930 . S
C1782 C1783 1.367 . S
C1782 C1790 1.378 . S
C1783 C1782 1.367 . S
C1783 C1791 1.433 . S
C1784 H1780 0.929 . S
C1784 C1786 1.378 . S
C1784 C1788 1.350 . S
C1785 C1788 1.463 . S
C1785 C1790 1.350 . S
C1785 N1793 1.427 . S
C1786 H1777 0.930 . S
C1786 C1784 1.378 . S
C1786 C1787 1.367 . S
C1787 C1786 1.367 . S
C1787 C1789 1.433 . S
C1788 C1784 1.350 . S
C1788 C1785 1.463 . S
C1788 N1792 1.427 . S
C1789 H1779 0.929 . S
C1789 C1787 1.433 . S
C1789 N1792 1.384 . S
C1790 H1781 0.929 . S
C1790 C1782 1.378 . S
C1790 C1785 1.350 . S
C1791 H1778 0.929 . S
C1791 C1783 1.433 . S
C1791 N1793 1.384 . S
N1792 C1788 1.427 . S
N1792 C1789 1.384 . S
N1793 C1785 1.427 . S
N1793 C1791 1.384 . S
H1794 C1800 0.930 . S
H1795 C1804 0.930 . S
H1796 C1809 0.915 1_554 S
H1797 C1807 0.929 . S
H1798 C1802 0.929 . S
H1799 C1808 0.929 . S
C1800 H1794 0.930 . S
C1800 C1801 1.367 . S
C1800 C1808 1.378 1_554 S
C1801 C1800 1.367 . S
C1801 C1809 1.411 1_554 S
C1802 H1798 0.929 . S
C1802 C1804 1.378 . S
C1802 C1806 1.350 . S
C1803 C1806 1.463 . S
C1803 C1808 1.350 . S
C1803 N1811 1.427 . S
C1804 H1795 0.930 . S
C1804 C1802 1.378 . S
C1804 C1805 1.367 . S
C1805 C1804 1.367 . S
C1805 C1807 1.433 . S
C1806 C1802 1.350 . S
C1806 C1803 1.463 . S
C1806 N1810 1.427 . S
C1807 H1797 0.929 . S
C1807 C1805 1.433 . S
C1807 N1810 1.384 . S
C1808 H1799 0.929 . S
C1808 C1800 1.378 1_556 S
C1808 C1803 1.350 . S
C1809 H1796 0.915 1_556 S
C1809 C1801 1.411 1_556 S
C1809 N1811 1.422 . S
N1810 C1806 1.427 . S
N1810 C1807 1.384 . S
N1811 C1803 1.427 . S
N1811 C1809 1.422 . S
H1812 C1818 0.930 . S
H1813 C1822 0.930 . S
H1814 C1827 0.929 . S
H1815 C1825 0.929 . S
H1816 C1820 0.929 . S
H1817 C1826 0.929 . S
C1818 H1812 0.930 . S
C1818 C1819 1.367 . S
C1818 C1826 1.378 . S
C1819 C1818 1.367 . S
C1819 C1827 1.433 . S
C1820 H1816 0.929 . S
C1820 C1822 1.378 . S
C1820 C1824 1.350 . S
C1821 C1824 1.463 . S
C1821 C1826 1.350 . S
C1821 N1829 1.427 . S
C1822 H1813 0.930 . S
C1822 C1820 1.378 . S
C1822 C1823 1.367 . S
C1823 C1822 1.367 . S
C1823 C1825 1.433 . S
C1824 C1820 1.350 . S
C1824 C1821 1.463 . S
C1824 N1828 1.427 . S
C1825 H1815 0.929 . S
C1825 C1823 1.433 . S
C1825 N1828 1.384 . S
C1826 H1817 0.929 . S
C1826 C1818 1.378 . S
C1826 C1821 1.350 . S
C1827 H1814 0.929 . S
C1827 C1819 1.433 . S
C1827 N1829 1.384 . S
N1828 C1824 1.427 . S
N1828 C1825 1.384 . S
N1829 C1821 1.427 . S
N1829 C1827 1.384 . S
H1830 C1836 0.930 . S
H1831 C1840 0.930 . S
H1832 C1845 0.929 . S
H1833 C1843 0.929 . S
H1834 C1838 0.929 . S
H1835 C1844 0.929 . S
C1836 H1830 0.930 . S
C1836 C1837 1.367 . S
C1836 C1844 1.378 . S
C1837 C1836 1.367 . S
C1837 C1845 1.433 . S
C1838 H1834 0.929 . S
C1838 C1840 1.378 1_556 S
C1838 C1842 1.350 . S
C1839 C1842 1.463 . S
C1839 C1844 1.350 . S
C1839 N1847 1.427 . S
C1840 H1831 0.930 . S
C1840 C1838 1.378 1_554 S
C1840 C1841 1.367 . S
C1841 C1840 1.367 . S
C1841 C1843 1.433 1_554 S
C1842 C1838 1.350 . S
C1842 C1839 1.463 . S
C1842 N1846 1.427 . S
C1843 H1833 0.929 . S
C1843 C1841 1.433 1_556 S
C1843 N1846 1.384 . S
C1844 H1835 0.929 . S
C1844 C1836 1.378 . S
C1844 C1839 1.350 . S
C1845 H1832 0.929 . S
C1845 C1837 1.433 . S
C1845 N1847 1.384 . S
N1846 C1842 1.427 . S
N1846 C1843 1.384 . S
N1847 C1839 1.427 . S
N1847 C1845 1.384 . S
H1848 C1854 0.930 . S
H1849 C1858 0.930 . S
H1850 C1863 0.929 . S
H1851 C1861 0.929 . S
H1852 C1856 0.929 . S
H1853 C1862 0.929 . S
C1854 H1848 0.930 . S
C1854 C1855 1.367 . S
C1854 C1862 1.378 . S
C1855 C1854 1.367 . S
C1855 C1863 1.433 . S
C1856 H1852 0.929 . S
C1856 C1858 1.378 . S
C1856 C1860 1.350 . S
C1857 C1860 1.463 . S
C1857 C1862 1.350 . S
C1857 N1865 1.427 . S
C1858 H1849 0.930 . S
C1858 C1856 1.378 . S
C1858 C1859 1.367 . S
C1859 C1858 1.367 . S
C1859 C1861 1.433 . S
C1860 C1856 1.350 . S
C1860 C1857 1.463 . S
C1860 N1864 1.427 . S
C1861 H1851 0.929 . S
C1861 C1859 1.433 . S
C1861 N1864 1.384 . S
C1862 H1853 0.929 . S
C1862 C1854 1.378 . S
C1862 C1857 1.350 . S
C1863 H1850 0.929 . S
C1863 C1855 1.433 . S
C1863 N1865 1.384 . S
N1864 C1860 1.427 . S
N1864 C1861 1.384 . S
N1865 C1857 1.427 . S
N1865 C1863 1.384 . S
H1866 C1872 0.930 . S
H1867 C1876 0.930 . S
H1868 C1881 0.929 . S
H1869 C1879 0.929 . S
H1870 C1874 0.929 . S
H1871 C1880 0.929 . S
C1872 H1866 0.930 . S
C1872 C1873 1.367 . S
C1872 C1880 1.378 . S
C1873 C1872 1.367 . S
C1873 C1881 1.433 . S
C1874 H1870 0.929 . S
C1874 C1876 1.378 1_554 S
C1874 C1878 1.350 . S
C1875 C1878 1.463 . S
C1875 C1880 1.350 . S
C1875 N1883 1.427 . S
C1876 H1867 0.930 . S
C1876 C1874 1.378 1_556 S
C1876 C1877 1.367 . S
C1877 C1876 1.367 . S
C1877 C1879 1.433 1_556 S
C1878 C1874 1.350 . S
C1878 C1875 1.463 . S
C1878 N1882 1.427 . S
C1879 H1869 0.929 . S
C1879 C1877 1.433 1_554 S
C1879 N1882 1.384 . S
C1880 H1871 0.929 . S
C1880 C1872 1.378 . S
C1880 C1875 1.350 . S
C1881 H1868 0.929 . S
C1881 C1873 1.433 . S
C1881 N1883 1.384 . S
N1882 C1878 1.427 . S
N1882 C1879 1.384 . S
N1883 C1875 1.427 . S
N1883 C1881 1.384 . S
H1884 C1890 0.930 . S
H1885 C1894 0.930 . S
H1886 C1899 0.929 . S
H1887 C1897 0.929 . S
H1888 C1892 0.929 . S
H1889 C1898 0.929 . S
C1890 H1884 0.930 . S
C1890 C1891 1.367 . S
C1890 C1898 1.378 . S
C1891 C1890 1.367 . S
C1891 C1899 1.433 . S
C1892 H1888 0.929 . S
C1892 C1894 1.378 . S
C1892 C1896 1.350 . S
C1893 C1896 1.463 . S
C1893 C1898 1.350 . S
C1893 N1901 1.427 . S
C1894 H1885 0.930 . S
C1894 C1892 1.378 . S
C1894 C1895 1.367 . S
C1895 C1894 1.367 . S
C1895 C1897 1.433 . S
C1896 C1892 1.350 . S
C1896 C1893 1.463 . S
C1896 N1900 1.427 . S
C1897 H1887 0.929 . S
C1897 C1895 1.433 . S
C1897 N1900 1.384 . S
C1898 H1889 0.929 . S
C1898 C1890 1.378 . S
C1898 C1893 1.350 . S
C1899 H1886 0.929 . S
C1899 C1891 1.433 . S
C1899 N1901 1.384 . S
N1900 C1896 1.427 . S
N1900 C1897 1.384 . S
N1901 C1893 1.427 . S
N1901 C1899 1.384 . S
H1902 C1908 0.930 . S
H1903 C1912 0.930 . S
H1904 C1917 0.929 1_556 S
H1905 C1915 0.929 . S
H1906 C1910 0.929 . S
H1907 C1916 0.929 . S
C1908 H1902 0.930 . S
C1908 C1909 1.367 . S
C1908 C1916 1.378 1_556 S
C1909 C1908 1.367 . S
C1909 C1917 1.433 1_556 S
C1910 H1906 0.929 . S
C1910 C1912 1.378 . S
C1910 C1914 1.350 . S
C1911 C1914 1.463 . S
C1911 C1916 1.350 . S
C1911 N1919 1.427 . S
C1912 H1903 0.930 . S
C1912 C1910 1.378 . S
C1912 C1913 1.367 . S
C1913 C1912 1.367 . S
C1913 C1915 1.433 . S
C1914 C1910 1.350 . S
C1914 C1911 1.463 . S
C1914 N1918 1.427 . S
C1915 H1905 0.929 . S
C1915 C1913 1.433 . S
C1915 N1918 1.384 . S
C1916 H1907 0.929 . S
C1916 C1908 1.378 1_554 S
C1916 C1911 1.350 . S
C1917 H1904 0.929 1_554 S
C1917 C1909 1.433 1_554 S
C1917 N1919 1.384 . S
N1918 C1914 1.427 . S
N1918 C1915 1.384 . S
N1919 C1911 1.427 . S
N1919 C1917 1.384 . S
H1920 C1926 0.930 . S
H1921 C1930 0.930 . S
H1922 C1935 0.929 . S
H1923 C1933 0.929 . S
H1924 C1928 0.929 . S
H1925 C1934 0.929 . S
C1926 H1920 0.930 . S
C1926 C1927 1.367 . S
C1926 C1934 1.378 . S
C1927 C1926 1.367 . S
C1927 C1935 1.433 . S
C1928 H1924 0.929 . S
C1928 C1930 1.378 . S
C1928 C1932 1.350 . S
C1929 C1932 1.463 . S
C1929 C1934 1.350 . S
C1929 N1937 1.427 . S
C1930 H1921 0.930 . S
C1930 C1928 1.378 . S
C1930 C1931 1.367 . S
C1931 C1930 1.367 . S
C1931 C1933 1.433 . S
C1932 C1928 1.350 . S
C1932 C1929 1.463 . S
C1932 N1936 1.427 . S
C1933 H1923 0.929 . S
C1933 C1931 1.433 . S
C1933 N1936 1.384 . S
C1934 H1925 0.929 . S
C1934 C1926 1.378 . S
C1934 C1929 1.350 . S
C1935 H1922 0.929 . S
C1935 C1927 1.433 . S
C1935 N1937 1.384 . S
N1936 C1932 1.427 . S
N1936 C1933 1.384 . S
N1937 C1929 1.427 . S
N1937 C1935 1.384 . S
H1938 C1944 0.930 . S
H1939 C1948 0.930 . S
H1940 C1953 0.929 . S
H1941 C1951 0.929 . S
H1942 C1946 0.929 . S
H1943 C1952 0.929 . S
C1944 H1938 0.930 . S
C1944 C1945 1.367 . S
C1944 C1952 1.378 . S
C1945 C1944 1.367 . S
C1945 C1953 1.433 . S
C1946 H1942 0.929 . S
C1946 C1948 1.378 . S
C1946 C1950 1.350 . S
C1947 C1950 1.463 . S
C1947 C1952 1.350 . S
C1947 N1955 1.427 . S
C1948 H1939 0.930 . S
C1948 C1946 1.378 . S
C1948 C1949 1.367 . S
C1949 C1948 1.367 . S
C1949 C1951 1.433 . S
C1950 C1946 1.350 . S
C1950 C1947 1.463 . S
C1950 N1954 1.427 . S
C1951 H1941 0.929 . S
C1951 C1949 1.433 . S
C1951 N1954 1.384 . S
C1952 H1943 0.929 . S
C1952 C1944 1.378 . S
C1952 C1947 1.350 . S
C1953 H1940 0.929 . S
C1953 C1945 1.433 . S
C1953 N1955 1.384 . S
N1954 C1950 1.427 . S
N1954 C1951 1.384 . S
N1955 C1947 1.427 . S
N1955 C1953 1.384 . S
H1956 C1962 0.930 . S
H1957 C1966 0.930 . S
H1958 C1971 0.929 . S
H1959 C1969 0.929 . S
H1960 C1964 0.929 . S
H1961 C1970 0.929 . S
C1962 H1956 0.930 . S
C1962 C1963 1.367 . S
C1962 C1970 1.378 . S
C1963 C1962 1.367 . S
C1963 C1971 1.433 . S
C1964 H1960 0.929 . S
C1964 C1966 1.378 . S
C1964 C1968 1.350 . S
C1965 C1968 1.463 . S
C1965 C1970 1.350 . S
C1965 N1973 1.427 . S
C1966 H1957 0.930 . S
C1966 C1964 1.378 . S
C1966 C1967 1.367 . S
C1967 C1966 1.367 . S
C1967 C1969 1.433 . S
C1968 C1964 1.350 . S
C1968 C1965 1.463 . S
C1968 N1972 1.427 . S
C1969 H1959 0.929 . S
C1969 C1967 1.433 . S
C1969 N1972 1.384 . S
C1970 H1961 0.929 . S
C1970 C1962 1.378 . S
C1970 C1965 1.350 . S
C1971 H1958 0.929 . S
C1971 C1963 1.433 . S
C1971 N1973 1.384 . S
N1972 C1968 1.427 . S
N1972 C1969 1.384 . S
N1973 C1965 1.427 . S
N1973 C1971 1.384 . S
H1974 C1980 0.930 . S
H1975 C1984 0.930 . S
H1976 C1989 0.929 . S
H1977 C1987 0.929 . S
H1978 C1982 0.929 . S
H1979 C1988 0.929 . S
C1980 H1974 0.930 . S
C1980 C1981 1.367 . S
C1980 C1988 1.378 . S
C1981 C1980 1.367 . S
C1981 C1989 1.433 . S
C1982 H1978 0.929 . S
C1982 C1984 1.378 . S
C1982 C1986 1.350 . S
C1983 C1986 1.463 . S
C1983 C1988 1.350 . S
C1983 N1991 1.427 . S
C1984 H1975 0.930 . S
C1984 C1982 1.378 . S
C1984 C1985 1.367 . S
C1985 C1984 1.367 . S
C1985 C1987 1.433 . S
C1986 C1982 1.350 . S
C1986 C1983 1.463 . S
C1986 N1990 1.427 . S
C1987 H1977 0.929 . S
C1987 C1985 1.433 . S
C1987 N1990 1.384 . S
C1988 H1979 0.929 . S
C1988 C1980 1.378 . S
C1988 C1983 1.350 . S
C1989 H1976 0.929 . S
C1989 C1981 1.433 . S
C1989 N1991 1.384 . S
N1990 C1986 1.427 . S
N1990 C1987 1.384 . S
N1991 C1983 1.427 . S
N1991 C1989 1.384 . S
H1992 C1998 0.930 . S
H1993 C2002 0.930 . S
H1994 C2007 0.929 . S
H1995 C2005 0.929 . S
H1996 C2000 0.929 . S
H1997 C2006 0.929 . S
C1998 H1992 0.930 . S
C1998 C1999 1.367 . S
C1998 C2006 1.378 . S
C1999 C1998 1.367 . S
C1999 C2007 1.433 . S
C2000 H1996 0.929 . S
C2000 C2002 1.378 . S
C2000 C2004 1.350 . S
C2001 C2004 1.463 . S
C2001 C2006 1.350 . S
C2001 N2009 1.427 . S
C2002 H1993 0.930 . S
C2002 C2000 1.378 . S
C2002 C2003 1.367 . S
C2003 C2002 1.367 . S
C2003 C2005 1.433 . S
C2004 C2000 1.350 . S
C2004 C2001 1.463 . S
C2004 N2008 1.427 . S
C2005 H1995 0.929 . S
C2005 C2003 1.433 . S
C2005 N2008 1.384 . S
C2006 H1997 0.929 . S
C2006 C1998 1.378 . S
C2006 C2001 1.350 . S
C2007 H1994 0.929 . S
C2007 C1999 1.433 . S
C2007 N2009 1.384 . S
N2008 C2004 1.427 . S
N2008 C2005 1.384 . S
N2009 C2001 1.427 . S
N2009 C2007 1.384 . S
H2010 C2016 0.930 . S
H2011 C2020 0.930 . S
H2012 C2025 0.929 . S
H2013 C2023 0.929 . S
H2014 C2018 0.929 . S
H2015 C2024 0.929 . S
C2016 H2010 0.930 . S
C2016 C2017 1.367 . S
C2016 C2024 1.378 . S
C2017 C2016 1.367 . S
C2017 C2025 1.433 . S
C2018 H2014 0.929 . S
C2018 C2020 1.378 . S
C2018 C2022 1.350 . S
C2019 C2022 1.463 . S
C2019 C2024 1.350 . S
C2019 N2027 1.427 . S
C2020 H2011 0.930 . S
C2020 C2018 1.378 . S
C2020 C2021 1.367 . S
C2021 C2020 1.367 . S
C2021 C2023 1.433 . S
C2022 C2018 1.350 . S
C2022 C2019 1.463 . S
C2022 N2026 1.427 . S
C2023 H2013 0.929 . S
C2023 C2021 1.433 . S
C2023 N2026 1.384 . S
C2024 H2015 0.929 . S
C2024 C2016 1.378 . S
C2024 C2019 1.350 . S
C2025 H2012 0.929 . S
C2025 C2017 1.433 . S
C2025 N2027 1.384 . S
N2026 C2022 1.427 . S
N2026 C2023 1.384 . S
N2027 C2019 1.427 . S
N2027 C2025 1.384 . S
H2028 C2034 0.930 . S
H2029 C2038 0.930 . S
H2030 C2043 0.929 . S
H2031 C2041 0.929 . S
H2032 C2036 0.929 . S
H2033 C2042 0.929 . S
C2034 H2028 0.930 . S
C2034 C2035 1.367 . S
C2034 C2042 1.378 . S
C2035 C2034 1.367 . S
C2035 C2043 1.433 . S
C2036 H2032 0.929 . S
C2036 C2038 1.378 . S
C2036 C2040 1.350 . S
C2037 C2040 1.463 . S
C2037 C2042 1.350 . S
C2037 N2045 1.427 . S
C2038 H2029 0.930 . S
C2038 C2036 1.378 . S
C2038 C2039 1.367 . S
C2039 C2038 1.367 . S
C2039 C2041 1.433 . S
C2040 C2036 1.350 . S
C2040 C2037 1.463 . S
C2040 N2044 1.427 . S
C2041 H2031 0.929 . S
C2041 C2039 1.433 . S
C2041 N2044 1.384 . S
C2042 H2033 0.929 . S
C2042 C2034 1.378 . S
C2042 C2037 1.350 . S
C2043 H2030 0.929 . S
C2043 C2035 1.433 . S
C2043 N2045 1.384 . S
N2044 C2040 1.427 . S
N2044 C2041 1.384 . S
N2045 C2037 1.427 . S
N2045 C2043 1.384 . S
H2046 C2052 0.930 . S
H2047 C2056 0.930 . S
H2048 C2061 0.929 . S
H2049 C2059 0.929 . S
H2050 C2054 0.929 . S
H2051 C2060 0.929 . S
C2052 H2046 0.930 . S
C2052 C2053 1.367 . S
C2052 C2060 1.378 1_545 S
C2053 C2052 1.367 . S
C2053 C2061 1.433 1_545 S
C2054 H2050 0.929 . S
C2054 C2056 1.378 . S
C2054 C2058 1.350 . S
C2055 C2058 1.463 . S
C2055 C2060 1.350 . S
C2055 N2063 1.427 . S
C2056 H2047 0.930 . S
C2056 C2054 1.378 . S
C2056 C2057 1.367 . S
C2057 C2056 1.367 . S
C2057 C2059 1.433 . S
C2058 C2054 1.350 . S
C2058 C2055 1.463 . S
C2058 N2062 1.427 . S
C2059 H2049 0.929 . S
C2059 C2057 1.433 . S
C2059 N2062 1.384 . S
C2060 H2051 0.929 . S
C2060 C2052 1.378 1_565 S
C2060 C2055 1.350 . S
C2061 H2048 0.929 . S
C2061 C2053 1.433 1_565 S
C2061 N2063 1.384 . S
N2062 C2058 1.427 . S
N2062 C2059 1.384 . S
N2063 C2055 1.427 . S
N2063 C2061 1.384 . S
H2064 C2070 0.930 . S
H2065 C2074 0.930 . S
H2066 C2079 0.929 . S
H2067 C2077 0.929 . S
H2068 C2072 0.929 . S
H2069 C2078 0.929 . S
C2070 H2064 0.930 . S
C2070 C2071 1.367 . S
C2070 C2078 1.378 . S
C2071 C2070 1.367 . S
C2071 C2079 1.433 . S
C2072 H2068 0.929 . S
C2072 C2074 1.378 . S
C2072 C2076 1.350 . S
C2073 C2076 1.463 . S
C2073 C2078 1.350 . S
C2073 N2081 1.427 . S
C2074 H2065 0.930 . S
C2074 C2072 1.378 . S
C2074 C2075 1.367 . S
C2075 C2074 1.367 . S
C2075 C2077 1.433 . S
C2076 C2072 1.350 . S
C2076 C2073 1.463 . S
C2076 N2080 1.427 . S
C2077 H2067 0.929 . S
C2077 C2075 1.433 . S
C2077 N2080 1.384 . S
C2078 H2069 0.929 . S
C2078 C2070 1.378 . S
C2078 C2073 1.350 . S
C2079 H2066 0.929 . S
C2079 C2071 1.433 . S
C2079 N2081 1.384 . S
N2080 C2076 1.427 . S
N2080 C2077 1.384 . S
N2081 C2073 1.427 . S
N2081 C2079 1.384 . S
H2082 C2088 0.930 . S
H2083 C2092 0.930 . S
H2084 C2097 0.929 . S
H2085 C2095 0.929 . S
H2086 C2090 0.929 . S
H2087 C2096 0.929 . S
C2088 H2082 0.930 . S
C2088 C2089 1.367 . S
C2088 C2096 1.378 1_655 S
C2089 C2088 1.367 . S
C2089 C2097 1.433 1_655 S
C2090 H2086 0.929 . S
C2090 C2092 1.378 . S
C2090 C2094 1.350 . S
C2091 C2094 1.463 . S
C2091 C2096 1.350 . S
C2091 N2099 1.427 . S
C2092 H2083 0.930 . S
C2092 C2090 1.378 . S
C2092 C2093 1.367 . S
C2093 C2092 1.367 . S
C2093 C2095 1.433 . S
C2094 C2090 1.350 . S
C2094 C2091 1.463 . S
C2094 N2098 1.427 . S
C2095 H2085 0.929 . S
C2095 C2093 1.433 . S
C2095 N2098 1.384 . S
C2096 H2087 0.929 . S
C2096 C2088 1.378 1_455 S
C2096 C2091 1.350 . S
C2097 H2084 0.929 . S
C2097 C2089 1.433 1_455 S
C2097 N2099 1.384 . S
N2098 C2094 1.427 . S
N2098 C2095 1.384 . S
N2099 C2091 1.427 . S
N2099 C2097 1.384 . S
H2100 C2106 0.930 . S
H2101 C2110 0.930 . S
H2102 C2115 0.929 . S
H2103 C2113 0.929 . S
H2104 C2108 0.929 . S
H2105 C2114 0.929 . S
C2106 H2100 0.930 . S
C2106 C2107 1.367 . S
C2106 C2114 1.378 . S
C2107 C2106 1.367 . S
C2107 C2115 1.433 . S
C2108 H2104 0.929 . S
C2108 C2110 1.378 . S
C2108 C2112 1.350 . S
C2109 C2112 1.463 . S
C2109 C2114 1.350 . S
C2109 N2117 1.427 . S
C2110 H2101 0.930 . S
C2110 C2108 1.378 . S
C2110 C2111 1.367 . S
C2111 C2110 1.367 . S
C2111 C2113 1.433 . S
C2112 C2108 1.350 . S
C2112 C2109 1.463 . S
C2112 N2116 1.427 . S
C2113 H2103 0.929 . S
C2113 C2111 1.433 . S
C2113 N2116 1.384 . S
C2114 H2105 0.929 . S
C2114 C2106 1.378 . S
C2114 C2109 1.350 . S
C2115 H2102 0.929 . S
C2115 C2107 1.433 . S
C2115 N2117 1.384 . S
N2116 C2112 1.427 . S
N2116 C2113 1.384 . S
N2117 C2109 1.427 . S
N2117 C2115 1.384 . S
H2118 C2124 0.930 . S
H2119 C2128 0.930 . S
H2120 C2133 0.929 . S
H2121 C2131 0.929 . S
H2122 C2126 0.929 . S
H2123 C2132 0.929 . S
C2124 H2118 0.930 . S
C2124 C2125 1.367 . S
C2124 C2132 1.378 . S
C2125 C2124 1.367 . S
C2125 C2133 1.433 . S
C2126 H2122 0.929 . S
C2126 C2128 1.378 . S
C2126 C2130 1.350 . S
C2127 C2130 1.463 . S
C2127 C2132 1.350 . S
C2127 N2135 1.427 . S
C2128 H2119 0.930 . S
C2128 C2126 1.378 . S
C2128 C2129 1.367 1_655 S
C2129 C2128 1.367 1_455 S
C2129 C2131 1.433 . S
C2130 C2126 1.350 . S
C2130 C2127 1.463 . S
C2130 N2134 1.427 . S
C2131 H2121 0.929 . S
C2131 C2129 1.433 . S
C2131 N2134 1.384 1_455 S
C2132 H2123 0.929 . S
C2132 C2124 1.378 . S
C2132 C2127 1.350 . S
C2133 H2120 0.929 . S
C2133 C2125 1.433 . S
C2133 N2135 1.384 . S
N2134 C2130 1.427 . S
N2134 C2131 1.384 1_655 S
N2135 C2127 1.427 . S
N2135 C2133 1.384 . S
H2136 C2142 0.930 . S
H2137 C2146 0.930 . S
H2138 C2151 0.929 . S
H2139 C2149 0.929 . S
H2140 C2144 0.929 . S
H2141 C2150 0.929 . S
C2142 H2136 0.930 . S
C2142 C2143 1.367 . S
C2142 C2150 1.378 . S
C2143 C2142 1.367 . S
C2143 C2151 1.433 . S
C2144 H2140 0.929 . S
C2144 C2146 1.378 . S
C2144 C2148 1.350 . S
C2145 C2148 1.463 . S
C2145 C2150 1.350 . S
C2145 N2153 1.427 . S
C2146 H2137 0.930 . S
C2146 C2144 1.378 . S
C2146 C2147 1.367 . S
C2147 C2146 1.367 . S
C2147 C2149 1.433 . S
C2148 C2144 1.350 . S
C2148 C2145 1.463 . S
C2148 N2152 1.427 . S
C2149 H2139 0.929 . S
C2149 C2147 1.433 . S
C2149 N2152 1.384 . S
C2150 H2141 0.929 . S
C2150 C2142 1.378 . S
C2150 C2145 1.350 . S
C2151 H2138 0.929 . S
C2151 C2143 1.433 . S
C2151 N2153 1.384 . S
N2152 C2148 1.427 . S
N2152 C2149 1.384 . S
N2153 C2145 1.427 . S
N2153 C2151 1.384 . S
H2154 C2160 0.930 . S
H2155 C2164 0.930 . S
H2156 C2169 0.929 . S
H2157 C2167 0.929 . S
H2158 C2162 0.929 . S
H2159 C2168 0.929 . S
C2160 H2154 0.930 . S
C2160 C2161 1.367 . S
C2160 C2168 1.378 . S
C2161 C2160 1.367 . S
C2161 C2169 1.433 . S
C2162 H2158 0.929 . S
C2162 C2164 1.378 . S
C2162 C2166 1.350 . S
C2163 C2166 1.463 . S
C2163 C2168 1.350 . S
C2163 N2171 1.427 . S
C2164 H2155 0.930 . S
C2164 C2162 1.378 . S
C2164 C2165 1.367 . S
C2165 C2164 1.367 . S
C2165 C2167 1.433 . S
C2166 C2162 1.350 . S
C2166 C2163 1.463 . S
C2166 N2170 1.427 . S
C2167 H2157 0.929 . S
C2167 C2165 1.433 . S
C2167 N2170 1.384 . S
C2168 H2159 0.929 . S
C2168 C2160 1.378 . S
C2168 C2163 1.350 . S
C2169 H2156 0.929 . S
C2169 C2161 1.433 . S
C2169 N2171 1.384 . S
N2170 C2166 1.427 . S
N2170 C2167 1.384 . S
N2171 C2163 1.427 . S
N2171 C2169 1.384 . S
H2172 C2178 0.930 . S
H2173 C2182 0.930 . S
H2174 C2187 0.929 . S
H2175 C2185 0.929 . S
H2176 C2180 0.929 . S
H2177 C2186 0.929 . S
C2178 H2172 0.930 . S
C2178 C2179 1.367 . S
C2178 C2186 1.378 . S
C2179 C2178 1.367 . S
C2179 C2187 1.433 . S
C2180 H2176 0.929 . S
C2180 C2182 1.378 . S
C2180 C2184 1.350 . S
C2181 C2184 1.463 . S
C2181 C2186 1.350 . S
C2181 N2189 1.427 . S
C2182 H2173 0.930 . S
C2182 C2180 1.378 . S
C2182 C2183 1.367 . S
C2183 C2182 1.367 . S
C2183 C2185 1.433 . S
C2184 C2180 1.350 . S
C2184 C2181 1.463 . S
C2184 N2188 1.427 . S
C2185 H2175 0.929 . S
C2185 C2183 1.433 . S
C2185 N2188 1.384 . S
C2186 H2177 0.929 . S
C2186 C2178 1.378 . S
C2186 C2181 1.350 . S
C2187 H2174 0.929 . S
C2187 C2179 1.433 . S
C2187 N2189 1.384 . S
N2188 C2184 1.427 . S
N2188 C2185 1.384 . S
N2189 C2181 1.427 . S
N2189 C2187 1.384 . S
H2190 C2196 0.930 . S
H2191 C2200 0.930 . S
H2192 C2205 0.929 . S
H2193 C2203 0.929 . S
H2194 C2198 0.929 . S
H2195 C2204 0.929 . S
C2196 H2190 0.930 . S
C2196 C2197 1.367 . S
C2196 C2204 1.378 . S
C2197 C2196 1.367 . S
C2197 C2205 1.433 . S
C2198 H2194 0.929 . S
C2198 C2200 1.378 . S
C2198 C2202 1.350 . S
C2199 C2202 1.463 . S
C2199 C2204 1.350 . S
C2199 N2207 1.427 . S
C2200 H2191 0.930 . S
C2200 C2198 1.378 . S
C2200 C2201 1.367 . S
C2201 C2200 1.367 . S
C2201 C2203 1.433 . S
C2202 C2198 1.350 . S
C2202 C2199 1.463 . S
C2202 N2206 1.427 . S
C2203 H2193 0.929 . S
C2203 C2201 1.433 . S
C2203 N2206 1.384 . S
C2204 H2195 0.929 . S
C2204 C2196 1.378 . S
C2204 C2199 1.350 . S
C2205 H2192 0.929 . S
C2205 C2197 1.433 . S
C2205 N2207 1.384 . S
N2206 C2202 1.427 . S
N2206 C2203 1.384 . S
N2207 C2199 1.427 . S
N2207 C2205 1.384 . S
H2208 C2214 0.930 . S
H2209 C2218 0.930 . S
H2210 C2223 0.929 . S
H2211 C2221 0.929 . S
H2212 C2216 0.929 . S
H2213 C2222 0.929 . S
C2214 H2208 0.930 . S
C2214 C2215 1.367 . S
C2214 C2222 1.378 . S
C2215 C2214 1.367 . S
C2215 C2223 1.433 . S
C2216 H2212 0.929 . S
C2216 C2218 1.378 . S
C2216 C2220 1.350 . S
C2217 C2220 1.463 . S
C2217 C2222 1.350 . S
C2217 N2225 1.427 . S
C2218 H2209 0.930 . S
C2218 C2216 1.378 . S
C2218 C2219 1.367 . S
C2219 C2218 1.367 . S
C2219 C2221 1.433 . S
C2220 C2216 1.350 . S
C2220 C2217 1.463 . S
C2220 N2224 1.427 . S
C2221 H2211 0.929 . S
C2221 C2219 1.433 . S
C2221 N2224 1.384 . S
C2222 H2213 0.929 . S
C2222 C2214 1.378 . S
C2222 C2217 1.350 . S
C2223 H2210 0.929 . S
C2223 C2215 1.433 . S
C2223 N2225 1.384 . S
N2224 C2220 1.427 . S
N2224 C2221 1.384 . S
N2225 C2217 1.427 . S
N2225 C2223 1.384 . S
H2226 C2232 0.930 . S
H2227 C2236 0.930 . S
H2228 C2241 0.929 . S
H2229 C2239 0.929 . S
H2230 C2234 0.929 . S
H2231 C2240 0.929 . S
C2232 H2226 0.930 . S
C2232 C2233 1.367 . S
C2232 C2240 1.378 . S
C2233 C2232 1.367 . S
C2233 C2241 1.433 . S
C2234 H2230 0.929 . S
C2234 C2236 1.378 . S
C2234 C2238 1.350 . S
C2235 C2238 1.463 . S
C2235 C2240 1.350 . S
C2235 N2243 1.427 . S
C2236 H2227 0.930 . S
C2236 C2234 1.378 . S
C2236 C2237 1.367 . S
C2237 C2236 1.367 . S
C2237 C2239 1.433 . S
C2238 C2234 1.350 . S
C2238 C2235 1.463 . S
C2238 N2242 1.427 . S
C2239 H2229 0.929 . S
C2239 C2237 1.433 . S
C2239 N2242 1.384 . S
C2240 H2231 0.929 . S
C2240 C2232 1.378 . S
C2240 C2235 1.350 . S
C2241 H2228 0.929 . S
C2241 C2233 1.433 . S
C2241 N2243 1.384 . S
N2242 C2238 1.427 . S
N2242 C2239 1.384 . S
N2243 C2235 1.427 . S
N2243 C2241 1.384 . S
H2244 C2250 0.930 . S
H2245 C2254 0.930 . S
H2246 C2259 0.929 . S
H2247 C2257 0.929 . S
H2248 C2252 0.929 . S
H2249 C2258 0.929 . S
C2250 H2244 0.930 . S
C2250 C2251 1.367 . S
C2250 C2258 1.378 . S
C2251 C2250 1.367 . S
C2251 C2259 1.433 . S
C2252 H2248 0.929 . S
C2252 C2254 1.378 . S
C2252 C2256 1.350 . S
C2253 C2256 1.463 . S
C2253 C2258 1.350 . S
C2253 N2261 1.427 . S
C2254 H2245 0.930 . S
C2254 C2252 1.378 . S
C2254 C2255 1.367 . S
C2255 C2254 1.367 . S
C2255 C2257 1.433 . S
C2256 C2252 1.350 . S
C2256 C2253 1.463 . S
C2256 N2260 1.427 . S
C2257 H2247 0.929 . S
C2257 C2255 1.433 . S
C2257 N2260 1.384 . S
C2258 H2249 0.929 . S
C2258 C2250 1.378 . S
C2258 C2253 1.350 . S
C2259 H2246 0.929 . S
C2259 C2251 1.433 . S
C2259 N2261 1.384 . S
N2260 C2256 1.427 . S
N2260 C2257 1.384 . S
N2261 C2253 1.427 . S
N2261 C2259 1.384 . S
H2262 C2268 0.930 . S
H2263 C2272 0.930 . S
H2264 C2277 0.929 . S
H2265 C2275 0.929 . S
H2266 C2270 0.929 . S
H2267 C2276 0.929 . S
C2268 H2262 0.930 . S
C2268 C2269 1.367 . S
C2268 C2276 1.378 . S
C2269 C2268 1.367 . S
C2269 C2277 1.433 . S
C2270 H2266 0.929 . S
C2270 C2272 1.378 . S
C2270 C2274 1.350 . S
C2271 C2274 1.463 . S
C2271 C2276 1.350 . S
C2271 N2279 1.427 . S
C2272 H2263 0.930 . S
C2272 C2270 1.378 . S
C2272 C2273 1.367 . S
C2273 C2272 1.367 . S
C2273 C2275 1.433 . S
C2274 C2270 1.350 . S
C2274 C2271 1.463 . S
C2274 N2278 1.427 . S
C2275 H2265 0.929 . S
C2275 C2273 1.433 . S
C2275 N2278 1.384 . S
C2276 H2267 0.929 . S
C2276 C2268 1.378 . S
C2276 C2271 1.350 . S
C2277 H2264 0.929 . S
C2277 C2269 1.433 . S
C2277 N2279 1.384 . S
N2278 C2274 1.427 . S
N2278 C2275 1.384 . S
N2279 C2271 1.427 . S
N2279 C2277 1.384 . S
H2280 C2286 0.930 . S
H2281 C2290 0.930 . S
H2282 C2295 0.929 . S
H2283 C2293 0.929 . S
H2284 C2288 0.929 . S
H2285 C2294 0.929 . S
C2286 H2280 0.930 . S
C2286 C2287 1.367 . S
C2286 C2294 1.378 . S
C2287 C2286 1.367 . S
C2287 C2295 1.433 . S
C2288 H2284 0.929 . S
C2288 C2290 1.378 . S
C2288 C2292 1.350 . S
C2289 C2292 1.463 . S
C2289 C2294 1.350 . S
C2289 N2297 1.427 . S
C2290 H2281 0.930 . S
C2290 C2288 1.378 . S
C2290 C2291 1.367 . S
C2291 C2290 1.367 . S
C2291 C2293 1.433 . S
C2292 C2288 1.350 . S
C2292 C2289 1.463 . S
C2292 N2296 1.427 . S
C2293 H2283 0.929 . S
C2293 C2291 1.433 . S
C2293 N2296 1.384 . S
C2294 H2285 0.929 . S
C2294 C2286 1.378 . S
C2294 C2289 1.350 . S
C2295 H2282 0.929 . S
C2295 C2287 1.433 . S
C2295 N2297 1.384 . S
N2296 C2292 1.427 . S
N2296 C2293 1.384 . S
N2297 C2289 1.427 . S
N2297 C2295 1.384 . S
H2298 C2304 0.930 . S
H2299 C2308 0.930 . S
H2300 C2313 0.929 . S
H2301 C2311 0.929 . S
H2302 C2306 0.929 . S
H2303 C2312 0.929 . S
C2304 H2298 0.930 . S
C2304 C2305 1.367 . S
C2304 C2312 1.378 . S
C2305 C2304 1.367 . S
C2305 C2313 1.433 . S
C2306 H2302 0.929 . S
C2306 C2308 1.378 . S
C2306 C2310 1.350 . S
C2307 C2310 1.463 . S
C2307 C2312 1.350 . S
C2307 N2315 1.427 . S
C2308 H2299 0.930 . S
C2308 C2306 1.378 . S
C2308 C2309 1.367 . S
C2309 C2308 1.367 . S
C2309 C2311 1.433 . S
C2310 C2306 1.350 . S
C2310 C2307 1.463 . S
C2310 N2314 1.427 . S
C2311 H2301 0.929 . S
C2311 C2309 1.433 . S
C2311 N2314 1.384 . S
C2312 H2303 0.929 . S
C2312 C2304 1.378 . S
C2312 C2307 1.350 . S
C2313 H2300 0.929 . S
C2313 C2305 1.433 . S
C2313 N2315 1.384 . S
N2314 C2310 1.427 . S
N2314 C2311 1.384 . S
N2315 C2307 1.427 . S
N2315 C2313 1.384 . S
H2316 C2322 0.930 . S
H2317 C2326 0.930 . S
H2318 C2331 0.929 . S
H2319 C2329 0.929 . S
H2320 C2324 0.929 . S
H2321 C2330 0.929 . S
C2322 H2316 0.930 . S
C2322 C2323 1.367 . S
C2322 C2330 1.378 . S
C2323 C2322 1.367 . S
C2323 C2331 1.433 . S
C2324 H2320 0.929 . S
C2324 C2326 1.378 . S
C2324 C2328 1.350 . S
C2325 C2328 1.463 . S
C2325 C2330 1.350 . S
C2325 N2333 1.427 . S
C2326 H2317 0.930 . S
C2326 C2324 1.378 . S
C2326 C2327 1.367 . S
C2327 C2326 1.367 . S
C2327 C2329 1.433 . S
C2328 C2324 1.350 . S
C2328 C2325 1.463 . S
C2328 N2332 1.427 . S
C2329 H2319 0.929 . S
C2329 C2327 1.433 . S
C2329 N2332 1.384 . S
C2330 H2321 0.929 . S
C2330 C2322 1.378 . S
C2330 C2325 1.350 . S
C2331 H2318 0.929 . S
C2331 C2323 1.433 . S
C2331 N2333 1.384 . S
N2332 C2328 1.427 . S
N2332 C2329 1.384 . S
N2333 C2325 1.427 . S
N2333 C2331 1.384 . S
H2334 C2340 0.930 . S
H2335 C2344 0.930 . S
H2336 C2349 0.929 . S
H2337 C2347 0.929 . S
H2338 C2342 0.929 . S
H2339 C2348 0.929 . S
C2340 H2334 0.930 . S
C2340 C2341 1.367 . S
C2340 C2348 1.378 . S
C2341 C2340 1.367 . S
C2341 C2349 1.433 . S
C2342 H2338 0.929 . S
C2342 C2344 1.378 . S
C2342 C2346 1.350 . S
C2343 C2346 1.463 . S
C2343 C2348 1.350 . S
C2343 N2351 1.427 . S
C2344 H2335 0.930 . S
C2344 C2342 1.378 . S
C2344 C2345 1.367 . S
C2345 C2344 1.367 . S
C2345 C2347 1.433 . S
C2346 C2342 1.350 . S
C2346 C2343 1.463 . S
C2346 N2350 1.427 . S
C2347 H2337 0.929 . S
C2347 C2345 1.433 . S
C2347 N2350 1.384 . S
C2348 H2339 0.929 . S
C2348 C2340 1.378 . S
C2348 C2343 1.350 . S
C2349 H2336 0.929 . S
C2349 C2341 1.433 . S
C2349 N2351 1.384 . S
N2350 C2346 1.427 . S
N2350 C2347 1.384 . S
N2351 C2343 1.427 . S
N2351 C2349 1.384 . S
H2352 C2358 0.930 . S
H2353 C2362 0.930 . S
H2354 C2367 0.929 . S
H2355 C2365 0.929 . S
H2356 C2360 0.929 . S
H2357 C2366 0.929 . S
C2358 H2352 0.930 . S
C2358 C2359 1.367 . S
C2358 C2366 1.378 . S
C2359 C2358 1.367 . S
C2359 C2367 1.433 . S
C2360 H2356 0.929 . S
C2360 C2362 1.378 . S
C2360 C2364 1.350 . S
C2361 C2364 1.463 . S
C2361 C2366 1.350 . S
C2361 N2369 1.427 . S
C2362 H2353 0.930 . S
C2362 C2360 1.378 . S
C2362 C2363 1.367 . S
C2363 C2362 1.367 . S
C2363 C2365 1.433 . S
C2364 C2360 1.350 . S
C2364 C2361 1.463 . S
C2364 N2368 1.427 . S
C2365 H2355 0.929 . S
C2365 C2363 1.433 . S
C2365 N2368 1.384 . S
C2366 H2357 0.929 . S
C2366 C2358 1.378 . S
C2366 C2361 1.350 . S
C2367 H2354 0.929 . S
C2367 C2359 1.433 . S
C2367 N2369 1.384 . S
N2368 C2364 1.427 . S
N2368 C2365 1.384 . S
N2369 C2361 1.427 . S
N2369 C2367 1.384 . S
H2370 C2376 0.930 . S
H2371 C2380 0.930 . S
H2372 C2385 0.929 . S
H2373 C2383 0.929 . S
H2374 C2378 0.929 . S
H2375 C2384 0.929 . S
C2376 H2370 0.930 . S
C2376 C2377 1.367 . S
C2376 C2384 1.378 . S
C2377 C2376 1.367 . S
C2377 C2385 1.433 . S
C2378 H2374 0.929 . S
C2378 C2380 1.378 . S
C2378 C2382 1.350 . S
C2379 C2382 1.463 . S
C2379 C2384 1.350 . S
C2379 N2387 1.427 . S
C2380 H2371 0.930 . S
C2380 C2378 1.378 . S
C2380 C2381 1.367 . S
C2381 C2380 1.367 . S
C2381 C2383 1.433 . S
C2382 C2378 1.350 . S
C2382 C2379 1.463 . S
C2382 N2386 1.427 . S
C2383 H2373 0.929 . S
C2383 C2381 1.433 . S
C2383 N2386 1.384 . S
C2384 H2375 0.929 . S
C2384 C2376 1.378 . S
C2384 C2379 1.350 . S
C2385 H2372 0.929 . S
C2385 C2377 1.433 . S
C2385 N2387 1.384 . S
N2386 C2382 1.427 . S
N2386 C2383 1.384 . S
N2387 C2379 1.427 . S
N2387 C2385 1.384 . S
H2388 C2394 0.930 . S
H2389 C2398 0.930 . S
H2390 C2403 0.929 1_545 S
H2391 C2401 0.929 . S
H2392 C2396 0.929 . S
H2393 C2402 0.929 . S
C2394 H2388 0.930 . S
C2394 C2395 1.367 . S
C2394 C2402 1.378 1_545 S
C2395 C2394 1.367 . S
C2395 C2403 1.433 1_545 S
C2396 H2392 0.929 . S
C2396 C2398 1.378 . S
C2396 C2400 1.350 . S
C2397 C2400 1.463 . S
C2397 C2402 1.350 . S
C2397 N2405 1.427 . S
C2398 H2389 0.930 . S
C2398 C2396 1.378 . S
C2398 C2399 1.367 . S
C2399 C2398 1.367 . S
C2399 C2401 1.433 . S
C2400 C2396 1.350 . S
C2400 C2397 1.463 . S
C2400 N2404 1.427 . S
C2401 H2391 0.929 . S
C2401 C2399 1.433 . S
C2401 N2404 1.384 . S
C2402 H2393 0.929 . S
C2402 C2394 1.378 1_565 S
C2402 C2397 1.350 . S
C2403 H2390 0.929 1_565 S
C2403 C2395 1.433 1_565 S
C2403 N2405 1.384 . S
N2404 C2400 1.427 . S
N2404 C2401 1.384 . S
N2405 C2397 1.427 . S
N2405 C2403 1.384 . S
H2406 C2412 0.930 . S
H2407 C2416 0.930 . S
H2408 C2421 0.929 . S
H2409 C2419 0.929 . S
H2410 C2414 0.929 . S
H2411 C2420 0.929 . S
C2412 H2406 0.930 . S
C2412 C2413 1.367 . S
C2412 C2420 1.378 . S
C2413 C2412 1.367 . S
C2413 C2421 1.433 . S
C2414 H2410 0.929 . S
C2414 C2416 1.378 . S
C2414 C2418 1.350 . S
C2415 C2418 1.463 . S
C2415 C2420 1.350 . S
C2415 N2423 1.427 . S
C2416 H2407 0.930 . S
C2416 C2414 1.378 . S
C2416 C2417 1.367 . S
C2417 C2416 1.367 . S
C2417 C2419 1.433 . S
C2418 C2414 1.350 . S
C2418 C2415 1.463 . S
C2418 N2422 1.427 . S
C2419 H2409 0.929 . S
C2419 C2417 1.433 . S
C2419 N2422 1.384 . S
C2420 H2411 0.929 . S
C2420 C2412 1.378 . S
C2420 C2415 1.350 . S
C2421 H2408 0.929 . S
C2421 C2413 1.433 . S
C2421 N2423 1.384 . S
N2422 C2418 1.427 . S
N2422 C2419 1.384 . S
N2423 C2415 1.427 . S
N2423 C2421 1.384 . S
H2424 C2430 0.930 . S
H2425 C2434 0.930 . S
H2426 C2439 0.929 . S
H2427 C2437 0.929 . S
H2428 C2432 0.929 . S
H2429 C2438 0.929 . S
C2430 H2424 0.930 . S
C2430 C2431 1.367 1_545 S
C2430 C2438 1.378 . S
C2431 C2430 1.367 1_565 S
C2431 C2439 1.433 . S
C2432 H2428 0.929 . S
C2432 C2434 1.378 . S
C2432 C2436 1.350 . S
C2433 C2436 1.463 . S
C2433 C2438 1.350 . S
C2433 N2441 1.427 . S
C2434 H2425 0.930 . S
C2434 C2432 1.378 . S
C2434 C2435 1.367 . S
C2435 C2434 1.367 . S
C2435 C2437 1.433 . S
C2436 C2432 1.350 . S
C2436 C2433 1.463 . S
C2436 N2440 1.427 . S
C2437 H2427 0.929 . S
C2437 C2435 1.433 . S
C2437 N2440 1.384 . S
C2438 H2429 0.929 . S
C2438 C2430 1.378 . S
C2438 C2433 1.350 . S
C2439 H2426 0.929 . S
C2439 C2431 1.433 . S
C2439 N2441 1.384 1_565 S
N2440 C2436 1.427 . S
N2440 C2437 1.384 . S
N2441 C2433 1.427 . S
N2441 C2439 1.384 1_545 S
H2442 C2448 0.930 . S
H2443 C2452 0.930 . S
H2444 C2457 0.929 . S
H2445 C2455 0.929 . S
H2446 C2450 0.929 . S
H2447 C2456 0.929 . S
C2448 H2442 0.930 . S
C2448 C2449 1.367 . S
C2448 C2456 1.378 . S
C2449 C2448 1.367 . S
C2449 C2457 1.433 . S
C2450 H2446 0.929 . S
C2450 C2452 1.378 . S
C2450 C2454 1.350 . S
C2451 C2454 1.463 . S
C2451 C2456 1.350 . S
C2451 N2459 1.427 . S
C2452 H2443 0.930 . S
C2452 C2450 1.378 . S
C2452 C2453 1.367 . S
C2453 C2452 1.367 . S
C2453 C2455 1.433 . S
C2454 C2450 1.350 . S
C2454 C2451 1.463 . S
C2454 N2458 1.427 . S
C2455 H2445 0.929 . S
C2455 C2453 1.433 . S
C2455 N2458 1.384 . S
C2456 H2447 0.929 . S
C2456 C2448 1.378 . S
C2456 C2451 1.350 . S
C2457 H2444 0.929 . S
C2457 C2449 1.433 . S
C2457 N2459 1.384 . S
N2458 C2454 1.427 . S
N2458 C2455 1.384 . S
N2459 C2451 1.427 . S
N2459 C2457 1.384 . S
H2460 C2466 0.930 . S
H2461 C2470 0.930 . S
H2462 C2475 0.929 . S
H2463 C2473 0.929 . S
H2464 C2468 0.929 . S
H2465 C2474 0.929 . S
C2466 H2460 0.930 . S
C2466 C2467 1.367 . S
C2466 C2474 1.378 . S
C2467 C2466 1.367 . S
C2467 C2475 1.433 . S
C2468 H2464 0.929 . S
C2468 C2470 1.378 . S
C2468 C2472 1.350 . S
C2469 C2472 1.463 . S
C2469 C2474 1.350 . S
C2469 N2477 1.427 . S
C2470 H2461 0.930 . S
C2470 C2468 1.378 . S
C2470 C2471 1.367 1_545 S
C2471 C2470 1.367 1_565 S
C2471 C2473 1.433 . S
C2472 C2468 1.350 . S
C2472 C2469 1.463 . S
C2472 N2476 1.427 . S
C2473 H2463 0.929 . S
C2473 C2471 1.433 . S
C2473 N2476 1.384 1_565 S
C2474 H2465 0.929 . S
C2474 C2466 1.378 . S
C2474 C2469 1.350 . S
C2475 H2462 0.929 . S
C2475 C2467 1.433 . S
C2475 N2477 1.384 . S
N2476 C2472 1.427 . S
N2476 C2473 1.384 1_545 S
N2477 C2469 1.427 . S
N2477 C2475 1.384 . S
H2478 C2484 0.930 . S
H2479 C2488 0.930 . S
H2480 C2493 0.929 . S
H2481 C2491 0.929 . S
H2482 C2486 0.929 . S
H2483 C2492 0.929 . S
C2484 H2478 0.930 . S
C2484 C2485 1.367 . S
C2484 C2492 1.378 . S
C2485 C2484 1.367 . S
C2485 C2493 1.433 . S
C2486 H2482 0.929 . S
C2486 C2488 1.378 . S
C2486 C2490 1.350 . S
C2487 C2490 1.463 . S
C2487 C2492 1.350 . S
C2487 N2495 1.427 . S
C2488 H2479 0.930 . S
C2488 C2486 1.378 . S
C2488 C2489 1.367 . S
C2489 C2488 1.367 . S
C2489 C2491 1.433 . S
C2490 C2486 1.350 . S
C2490 C2487 1.463 . S
C2490 N2494 1.427 . S
C2491 H2481 0.929 . S
C2491 C2489 1.433 . S
C2491 N2494 1.384 . S
C2492 H2483 0.929 . S
C2492 C2484 1.378 . S
C2492 C2487 1.350 . S
C2493 H2480 0.929 . S
C2493 C2485 1.433 . S
C2493 N2495 1.384 . S
N2494 C2490 1.427 . S
N2494 C2491 1.384 . S
N2495 C2487 1.427 . S
N2495 C2493 1.384 . S
H2496 C2502 0.930 . S
H2497 C2506 0.930 . S
H2498 C2511 0.929 . S
H2499 C2509 0.929 . S
H2500 C2504 0.929 . S
H2501 C2510 0.929 . S
C2502 H2496 0.930 . S
C2502 C2503 1.367 . S
C2502 C2510 1.378 . S
C2503 C2502 1.367 . S
C2503 C2511 1.433 . S
C2504 H2500 0.929 . S
C2504 C2506 1.378 . S
C2504 C2508 1.350 . S
C2505 C2508 1.463 . S
C2505 C2510 1.350 . S
C2505 N2513 1.427 . S
C2506 H2497 0.930 . S
C2506 C2504 1.378 . S
C2506 C2507 1.367 . S
C2507 C2506 1.367 . S
C2507 C2509 1.433 . S
C2508 C2504 1.350 . S
C2508 C2505 1.463 . S
C2508 N2512 1.427 . S
C2509 H2499 0.929 . S
C2509 C2507 1.433 . S
C2509 N2512 1.384 . S
C2510 H2501 0.929 . S
C2510 C2502 1.378 . S
C2510 C2505 1.350 . S
C2511 H2498 0.929 . S
C2511 C2503 1.433 . S
C2511 N2513 1.384 . S
N2512 C2508 1.427 . S
N2512 C2509 1.384 . S
N2513 C2505 1.427 . S
N2513 C2511 1.384 . S
H2514 C2520 0.930 . S
H2515 C2524 0.930 . S
H2516 C2529 0.929 . S
H2517 C2527 0.929 . S
H2518 C2522 0.929 . S
H2519 C2528 0.929 . S
C2520 H2514 0.930 . S
C2520 C2521 1.367 . S
C2520 C2528 1.378 . S
C2521 C2520 1.367 . S
C2521 C2529 1.433 . S
C2522 H2518 0.929 . S
C2522 C2524 1.378 . S
C2522 C2526 1.350 . S
C2523 C2526 1.463 . S
C2523 C2528 1.350 . S
C2523 N2531 1.427 . S
C2524 H2515 0.930 . S
C2524 C2522 1.378 . S
C2524 C2525 1.367 . S
C2525 C2524 1.367 . S
C2525 C2527 1.433 . S
C2526 C2522 1.350 . S
C2526 C2523 1.463 . S
C2526 N2530 1.427 . S
C2527 H2517 0.929 . S
C2527 C2525 1.433 . S
C2527 N2530 1.384 . S
C2528 H2519 0.929 . S
C2528 C2520 1.378 . S
C2528 C2523 1.350 . S
C2529 H2516 0.929 . S
C2529 C2521 1.433 . S
C2529 N2531 1.384 . S
N2530 C2526 1.427 . S
N2530 C2527 1.384 . S
N2531 C2523 1.427 . S
N2531 C2529 1.384 . S
H2532 C2538 0.930 . S
H2533 C2542 0.930 . S
H2534 C2547 0.929 . S
H2535 C2545 0.929 . S
H2536 C2540 0.929 . S
H2537 C2546 0.929 . S
C2538 H2532 0.930 . S
C2538 C2539 1.367 . S
C2538 C2546 1.378 . S
C2539 C2538 1.367 . S
C2539 C2547 1.433 . S
C2540 H2536 0.929 . S
C2540 C2542 1.378 . S
C2540 C2544 1.350 . S
C2541 C2544 1.463 . S
C2541 C2546 1.350 . S
C2541 N2549 1.427 . S
C2542 H2533 0.930 . S
C2542 C2540 1.378 . S
C2542 C2543 1.367 . S
C2543 C2542 1.367 . S
C2543 C2545 1.433 . S
C2544 C2540 1.350 . S
C2544 C2541 1.463 . S
C2544 N2548 1.427 . S
C2545 H2535 0.929 . S
C2545 C2543 1.433 . S
C2545 N2548 1.384 . S
C2546 H2537 0.929 . S
C2546 C2538 1.378 . S
C2546 C2541 1.350 . S
C2547 H2534 0.929 . S
C2547 C2539 1.433 . S
C2547 N2549 1.384 . S
N2548 C2544 1.427 . S
N2548 C2545 1.384 . S
N2549 C2541 1.427 . S
N2549 C2547 1.384 . S
H2550 C2556 0.930 . S
H2551 C2560 0.930 . S
H2552 C2565 0.929 . S
H2553 C2563 0.929 . S
H2554 C2558 0.929 . S
H2555 C2564 0.929 1_565 S
C2556 H2550 0.930 . S
C2556 C2557 1.367 . S
C2556 C2564 1.378 . S
C2557 C2556 1.367 . S
C2557 C2565 1.433 . S
C2558 H2554 0.929 . S
C2558 C2560 1.378 . S
C2558 C2562 1.350 . S
C2559 C2562 1.463 1_545 S
C2559 C2564 1.350 . S
C2559 N2567 1.427 . S
C2560 H2551 0.930 . S
C2560 C2558 1.378 . S
C2560 C2561 1.367 . S
C2561 C2560 1.367 . S
C2561 C2563 1.433 . S
C2562 C2558 1.350 . S
C2562 C2559 1.463 1_565 S
C2562 N2566 1.427 . S
C2563 H2553 0.929 . S
C2563 C2561 1.433 . S
C2563 N2566 1.384 . S
C2564 H2555 0.929 1_545 S
C2564 C2556 1.378 . S
C2564 C2559 1.350 . S
C2565 H2552 0.929 . S
C2565 C2557 1.433 . S
C2565 N2567 1.384 . S
N2566 C2562 1.427 . S
N2566 C2563 1.384 . S
N2567 C2559 1.427 . S
N2567 C2565 1.384 . S
H2568 C2574 0.930 . S
H2569 C2578 0.930 . S
H2570 C2583 0.929 . S
H2571 C2581 0.929 . S
H2572 C2576 0.929 . S
H2573 C2582 0.929 . S
C2574 H2568 0.930 . S
C2574 C2575 1.367 . S
C2574 C2582 1.378 . S
C2575 C2574 1.367 . S
C2575 C2583 1.433 . S
C2576 H2572 0.929 . S
C2576 C2578 1.378 . S
C2576 C2580 1.350 . S
C2577 C2580 1.463 . S
C2577 C2582 1.350 . S
C2577 N2585 1.427 . S
C2578 H2569 0.930 . S
C2578 C2576 1.378 . S
C2578 C2579 1.367 . S
C2579 C2578 1.367 . S
C2579 C2581 1.433 . S
C2580 C2576 1.350 . S
C2580 C2577 1.463 . S
C2580 N2584 1.427 . S
C2581 H2571 0.929 . S
C2581 C2579 1.433 . S
C2581 N2584 1.384 . S
C2582 H2573 0.929 . S
C2582 C2574 1.378 . S
C2582 C2577 1.350 . S
C2583 H2570 0.929 . S
C2583 C2575 1.433 . S
C2583 N2585 1.384 . S
N2584 C2580 1.427 . S
N2584 C2581 1.384 . S
N2585 C2577 1.427 . S
N2585 C2583 1.384 . S
H2586 C2592 0.930 . S
H2587 C2596 0.930 . S
H2588 C2601 0.929 . S
H2589 C2599 0.929 . S
H2590 C2594 0.929 . S
H2591 C2600 0.929 . S
C2592 H2586 0.930 . S
C2592 C2593 1.367 . S
C2592 C2600 1.378 . S
C2593 C2592 1.367 . S
C2593 C2601 1.433 . S
C2594 H2590 0.929 . S
C2594 C2596 1.378 . S
C2594 C2598 1.350 . S
C2595 C2598 1.463 . S
C2595 C2600 1.350 . S
C2595 N2603 1.427 . S
C2596 H2587 0.930 . S
C2596 C2594 1.378 . S
C2596 C2597 1.367 . S
C2597 C2596 1.367 . S
C2597 C2599 1.433 . S
C2598 C2594 1.350 . S
C2598 C2595 1.463 . S
C2598 N2602 1.427 . S
C2599 H2589 0.929 . S
C2599 C2597 1.433 . S
C2599 N2602 1.384 . S
C2600 H2591 0.929 . S
C2600 C2592 1.378 . S
C2600 C2595 1.350 . S
C2601 H2588 0.929 . S
C2601 C2593 1.433 . S
C2601 N2603 1.384 . S
N2602 C2598 1.427 . S
N2602 C2599 1.384 . S
N2603 C2595 1.427 . S
N2603 C2601 1.384 . S
H2604 C2610 0.930 . S
H2605 C2614 0.930 . S
H2606 C2619 0.929 . S
H2607 C2617 0.929 . S
H2608 C2612 0.929 . S
H2609 C2618 0.929 . S
C2610 H2604 0.930 . S
C2610 C2611 1.367 . S
C2610 C2618 1.378 . S
C2611 C2610 1.367 . S
C2611 C2619 1.433 . S
C2612 H2608 0.929 . S
C2612 C2614 1.378 . S
C2612 C2616 1.350 . S
C2613 C2616 1.463 . S
C2613 C2618 1.350 . S
C2613 N2621 1.427 . S
C2614 H2605 0.930 . S
C2614 C2612 1.378 . S
C2614 C2615 1.367 . S
C2615 C2614 1.367 . S
C2615 C2617 1.433 . S
C2616 C2612 1.350 . S
C2616 C2613 1.463 . S
C2616 N2620 1.427 . S
C2617 H2607 0.929 . S
C2617 C2615 1.433 . S
C2617 N2620 1.384 . S
C2618 H2609 0.929 . S
C2618 C2610 1.378 . S
C2618 C2613 1.350 . S
C2619 H2606 0.929 . S
C2619 C2611 1.433 . S
C2619 N2621 1.384 . S
N2620 C2616 1.427 . S
N2620 C2617 1.384 . S
N2621 C2613 1.427 . S
N2621 C2619 1.384 . S
H2622 C2628 0.930 . S
H2623 C2632 0.930 . S
H2624 C2637 0.929 . S
H2625 C2635 0.929 . S
H2626 C2630 0.929 . S
H2627 C2636 0.929 . S
C2628 H2622 0.930 . S
C2628 C2629 1.367 . S
C2628 C2636 1.378 . S
C2629 C2628 1.367 . S
C2629 C2637 1.433 . S
C2630 H2626 0.929 . S
C2630 C2632 1.378 . S
C2630 C2634 1.350 . S
C2631 C2634 1.463 1_565 S
C2631 C2636 1.350 . S
C2631 N2639 1.427 . S
C2632 H2623 0.930 . S
C2632 C2630 1.378 . S
C2632 C2633 1.367 . S
C2633 C2632 1.367 . S
C2633 C2635 1.433 . S
C2634 C2630 1.350 . S
C2634 C2631 1.463 1_545 S
C2634 N2638 1.427 . S
C2635 H2625 0.929 . S
C2635 C2633 1.433 . S
C2635 N2638 1.384 . S
C2636 H2627 0.929 . S
C2636 C2628 1.378 . S
C2636 C2631 1.350 . S
C2637 H2624 0.929 . S
C2637 C2629 1.433 . S
C2637 N2639 1.384 . S
N2638 C2634 1.427 . S
N2638 C2635 1.384 . S
N2639 C2631 1.427 . S
N2639 C2637 1.384 . S
H2640 C2646 0.930 . S
H2641 C2650 0.930 . S
H2642 C2655 0.929 . S
H2643 C2653 0.929 . S
H2644 C2648 0.929 . S
H2645 C2654 0.929 . S
C2646 H2640 0.930 . S
C2646 C2647 1.367 . S
C2646 C2654 1.378 . S
C2647 C2646 1.367 . S
C2647 C2655 1.433 . S
C2648 H2644 0.929 . S
C2648 C2650 1.378 . S
C2648 C2652 1.350 . S
C2649 C2652 1.463 . S
C2649 C2654 1.350 . S
C2649 N2657 1.427 . S
C2650 H2641 0.930 . S
C2650 C2648 1.378 . S
C2650 C2651 1.367 . S
C2651 C2650 1.367 . S
C2651 C2653 1.433 . S
C2652 C2648 1.350 . S
C2652 C2649 1.463 . S
C2652 N2656 1.427 . S
C2653 H2643 0.929 . S
C2653 C2651 1.433 . S
C2653 N2656 1.384 . S
C2654 H2645 0.929 . S
C2654 C2646 1.378 . S
C2654 C2649 1.350 . S
C2655 H2642 0.929 . S
C2655 C2647 1.433 . S
C2655 N2657 1.384 . S
N2656 C2652 1.427 . S
N2656 C2653 1.384 . S
N2657 C2649 1.427 . S
N2657 C2655 1.384 . S
H2658 C2664 0.930 . S
H2659 C2668 0.930 . S
H2660 C2673 0.929 . S
H2661 C2671 0.929 . S
H2662 C2666 0.929 . S
H2663 C2672 0.929 . S
C2664 H2658 0.930 . S
C2664 C2665 1.367 . S
C2664 C2672 1.378 . S
C2665 C2664 1.367 . S
C2665 C2673 1.433 . S
C2666 H2662 0.929 . S
C2666 C2668 1.378 . S
C2666 C2670 1.350 . S
C2667 C2670 1.463 . S
C2667 C2672 1.350 . S
C2667 N2675 1.427 . S
C2668 H2659 0.930 . S
C2668 C2666 1.378 . S
C2668 C2669 1.367 . S
C2669 C2668 1.367 . S
C2669 C2671 1.433 . S
C2670 C2666 1.350 . S
C2670 C2667 1.463 . S
C2670 N2674 1.427 . S
C2671 H2661 0.929 . S
C2671 C2669 1.433 . S
C2671 N2674 1.384 . S
C2672 H2663 0.929 . S
C2672 C2664 1.378 . S
C2672 C2667 1.350 . S
C2673 H2660 0.929 . S
C2673 C2665 1.433 . S
C2673 N2675 1.384 . S
N2674 C2670 1.427 . S
N2674 C2671 1.384 . S
N2675 C2667 1.427 . S
N2675 C2673 1.384 . S
H2676 C2682 0.930 . S
H2677 C2686 0.930 . S
H2678 C2691 0.929 . S
H2679 C2689 0.929 . S
H2680 C2684 0.929 . S
H2681 C2690 0.929 . S
C2682 H2676 0.930 . S
C2682 C2683 1.367 . S
C2682 C2690 1.378 . S
C2683 C2682 1.367 . S
C2683 C2691 1.433 . S
C2684 H2680 0.929 . S
C2684 C2686 1.378 . S
C2684 C2688 1.350 . S
C2685 C2688 1.463 . S
C2685 C2690 1.350 . S
C2685 N2693 1.427 . S
C2686 H2677 0.930 . S
C2686 C2684 1.378 . S
C2686 C2687 1.367 . S
C2687 C2686 1.367 . S
C2687 C2689 1.433 . S
C2688 C2684 1.350 . S
C2688 C2685 1.463 . S
C2688 N2692 1.427 . S
C2689 H2679 0.929 . S
C2689 C2687 1.433 . S
C2689 N2692 1.384 . S
C2690 H2681 0.929 . S
C2690 C2682 1.378 . S
C2690 C2685 1.350 . S
C2691 H2678 0.929 . S
C2691 C2683 1.433 . S
C2691 N2693 1.384 . S
N2692 C2688 1.427 . S
N2692 C2689 1.384 . S
N2693 C2685 1.427 . S
N2693 C2691 1.384 . S
H2694 C2700 0.930 . S
H2695 C2704 0.930 . S
H2696 C2709 0.929 . S
H2697 C2707 0.929 . S
H2698 C2702 0.929 . S
H2699 C2708 0.929 . S
C2700 H2694 0.930 . S
C2700 C2701 1.367 . S
C2700 C2708 1.378 . S
C2701 C2700 1.367 . S
C2701 C2709 1.433 . S
C2702 H2698 0.929 . S
C2702 C2704 1.378 . S
C2702 C2706 1.350 . S
C2703 C2706 1.463 . S
C2703 C2708 1.350 . S
C2703 N2711 1.427 . S
C2704 H2695 0.930 . S
C2704 C2702 1.378 . S
C2704 C2705 1.367 . S
C2705 C2704 1.367 . S
C2705 C2707 1.433 . S
C2706 C2702 1.350 . S
C2706 C2703 1.463 . S
C2706 N2710 1.427 . S
C2707 H2697 0.929 . S
C2707 C2705 1.433 . S
C2707 N2710 1.384 . S
C2708 H2699 0.929 . S
C2708 C2700 1.378 . S
C2708 C2703 1.350 . S
C2709 H2696 0.929 . S
C2709 C2701 1.433 . S
C2709 N2711 1.384 . S
N2710 C2706 1.427 . S
N2710 C2707 1.384 . S
N2711 C2703 1.427 . S
N2711 C2709 1.384 . S
H2712 C2718 0.930 . S
H2713 C2722 0.930 . S
H2714 C2727 0.929 . S
H2715 C2725 0.929 . S
H2716 C2720 0.929 . S
H2717 C2726 0.929 . S
C2718 H2712 0.930 . S
C2718 C2719 1.367 . S
C2718 C2726 1.378 . S
C2719 C2718 1.367 . S
C2719 C2727 1.433 . S
C2720 H2716 0.929 . S
C2720 C2722 1.378 . S
C2720 C2724 1.350 . S
C2721 C2724 1.463 . S
C2721 C2726 1.350 . S
C2721 N2729 1.427 . S
C2722 H2713 0.930 . S
C2722 C2720 1.378 . S
C2722 C2723 1.367 . S
C2723 C2722 1.367 . S
C2723 C2725 1.433 . S
C2724 C2720 1.350 . S
C2724 C2721 1.463 . S
C2724 N2728 1.427 . S
C2725 H2715 0.929 . S
C2725 C2723 1.433 . S
C2725 N2728 1.384 . S
C2726 H2717 0.929 . S
C2726 C2718 1.378 . S
C2726 C2721 1.350 . S
C2727 H2714 0.929 . S
C2727 C2719 1.433 . S
C2727 N2729 1.384 . S
N2728 C2724 1.427 . S
N2728 C2725 1.384 . S
N2729 C2721 1.427 . S
N2729 C2727 1.384 . S
H2730 C2736 0.930 . S
H2731 C2740 0.930 . S
H2732 C2745 0.929 . S
H2733 C2743 0.929 . S
H2734 C2738 0.929 . S
H2735 C2744 0.929 . S
C2736 H2730 0.930 . S
C2736 C2737 1.367 . S
C2736 C2744 1.378 . S
C2737 C2736 1.367 . S
C2737 C2745 1.433 . S
C2738 H2734 0.929 . S
C2738 C2740 1.378 . S
C2738 C2742 1.350 . S
C2739 C2742 1.463 1_655 S
C2739 C2744 1.350 . S
C2739 N2747 1.427 . S
C2740 H2731 0.930 . S
C2740 C2738 1.378 . S
C2740 C2741 1.367 . S
C2741 C2740 1.367 . S
C2741 C2743 1.433 . S
C2742 C2738 1.350 . S
C2742 C2739 1.463 1_455 S
C2742 N2746 1.427 . S
C2743 H2733 0.929 . S
C2743 C2741 1.433 . S
C2743 N2746 1.384 . S
C2744 H2735 0.929 . S
C2744 C2736 1.378 . S
C2744 C2739 1.350 . S
C2745 H2732 0.929 . S
C2745 C2737 1.433 . S
C2745 N2747 1.384 . S
N2746 C2742 1.427 . S
N2746 C2743 1.384 . S
N2747 C2739 1.427 . S
N2747 C2745 1.384 . S
H2748 C2754 0.930 . S
H2749 C2758 0.930 . S
H2750 C2763 0.929 . S
H2751 C2761 0.929 . S
H2752 C2756 0.929 . S
H2753 C2762 0.929 . S
C2754 H2748 0.930 . S
C2754 C2755 1.367 . S
C2754 C2762 1.378 . S
C2755 C2754 1.367 . S
C2755 C2763 1.433 . S
C2756 H2752 0.929 . S
C2756 C2758 1.378 . S
C2756 C2760 1.350 . S
C2757 C2760 1.463 . S
C2757 C2762 1.350 . S
C2757 N2765 1.427 . S
C2758 H2749 0.930 . S
C2758 C2756 1.378 . S
C2758 C2759 1.367 . S
C2759 C2758 1.367 . S
C2759 C2761 1.433 . S
C2760 C2756 1.350 . S
C2760 C2757 1.463 . S
C2760 N2764 1.427 . S
C2761 H2751 0.929 . S
C2761 C2759 1.433 . S
C2761 N2764 1.384 . S
C2762 H2753 0.929 . S
C2762 C2754 1.378 . S
C2762 C2757 1.350 . S
C2763 H2750 0.929 . S
C2763 C2755 1.433 . S
C2763 N2765 1.384 . S
N2764 C2760 1.427 . S
N2764 C2761 1.384 . S
N2765 C2757 1.427 . S
N2765 C2763 1.384 . S
H2766 C2772 0.930 . S
H2767 C2776 0.930 . S
H2768 C2781 0.929 . S
H2769 C2779 0.929 . S
H2770 C2774 0.929 1_655 S
H2771 C2780 0.929 . S
C2772 H2766 0.930 . S
C2772 C2773 1.367 . S
C2772 C2780 1.378 . S
C2773 C2772 1.367 . S
C2773 C2781 1.433 . S
C2774 H2770 0.929 1_455 S
C2774 C2776 1.378 . S
C2774 C2778 1.350 . S
C2775 C2778 1.463 1_655 S
C2775 C2780 1.350 . S
C2775 N2783 1.427 . S
C2776 H2767 0.930 . S
C2776 C2774 1.378 . S
C2776 C2777 1.367 . S
C2777 C2776 1.367 . S
C2777 C2779 1.433 . S
C2778 C2774 1.350 . S
C2778 C2775 1.463 1_455 S
C2778 N2782 1.427 . S
C2779 H2769 0.929 . S
C2779 C2777 1.433 . S
C2779 N2782 1.384 . S
C2780 H2771 0.929 . S
C2780 C2772 1.378 . S
C2780 C2775 1.350 . S
C2781 H2768 0.929 . S
C2781 C2773 1.433 . S
C2781 N2783 1.384 . S
N2782 C2778 1.427 . S
N2782 C2779 1.384 . S
N2783 C2775 1.427 . S
N2783 C2781 1.384 . S
H2784 C2790 0.930 . S
H2785 C2794 0.930 . S
H2786 C2799 0.929 . S
H2787 C2797 0.929 . S
H2788 C2792 0.929 . S
H2789 C2798 0.929 . S
C2790 H2784 0.930 . S
C2790 C2791 1.367 . S
C2790 C2798 1.378 . S
C2791 C2790 1.367 . S
C2791 C2799 1.433 . S
C2792 H2788 0.929 . S
C2792 C2794 1.378 . S
C2792 C2796 1.350 . S
C2793 C2796 1.463 . S
C2793 C2798 1.350 . S
C2793 N2801 1.427 . S
C2794 H2785 0.930 . S
C2794 C2792 1.378 . S
C2794 C2795 1.367 . S
C2795 C2794 1.367 . S
C2795 C2797 1.433 . S
C2796 C2792 1.350 . S
C2796 C2793 1.463 . S
C2796 N2800 1.427 . S
C2797 H2787 0.929 . S
C2797 C2795 1.433 . S
C2797 N2800 1.384 . S
C2798 H2789 0.929 . S
C2798 C2790 1.378 . S
C2798 C2793 1.350 . S
C2799 H2786 0.929 . S
C2799 C2791 1.433 . S
C2799 N2801 1.384 . S
N2800 C2796 1.427 . S
N2800 C2797 1.384 . S
N2801 C2793 1.427 . S
N2801 C2799 1.384 . S
H2802 C2808 0.930 . S
H2803 C2812 0.930 . S
H2804 C2817 0.929 . S
H2805 C2815 0.929 . S
H2806 C2810 0.929 . S
H2807 C2816 0.929 . S
C2808 H2802 0.930 . S
C2808 C2809 1.367 . S
C2808 C2816 1.378 . S
C2809 C2808 1.367 . S
C2809 C2817 1.433 . S
C2810 H2806 0.929 . S
C2810 C2812 1.378 . S
C2810 C2814 1.350 . S
C2811 C2814 1.463 . S
C2811 C2816 1.350 . S
C2811 N2819 1.427 . S
C2812 H2803 0.930 . S
C2812 C2810 1.378 . S
C2812 C2813 1.367 . S
C2813 C2812 1.367 . S
C2813 C2815 1.433 . S
C2814 C2810 1.350 . S
C2814 C2811 1.463 . S
C2814 N2818 1.427 . S
C2815 H2805 0.929 . S
C2815 C2813 1.433 . S
C2815 N2818 1.384 . S
C2816 H2807 0.929 . S
C2816 C2808 1.378 . S
C2816 C2811 1.350 . S
C2817 H2804 0.929 . S
C2817 C2809 1.433 . S
C2817 N2819 1.384 . S
N2818 C2814 1.427 . S
N2818 C2815 1.384 . S
N2819 C2811 1.427 . S
N2819 C2817 1.384 . S
H2820 C2826 0.930 . S
H2821 C2830 0.930 . S
H2822 C2835 0.929 . S
H2823 C2833 0.929 . S
H2824 C2828 0.929 . S
H2825 C2834 0.929 1_556 S
C2826 H2820 0.930 . S
C2826 C2827 1.367 . S
C2826 C2834 1.378 . S
C2827 C2826 1.367 . S
C2827 C2835 1.433 . S
C2828 H2824 0.929 . S
C2828 C2830 1.378 . S
C2828 C2832 1.350 . S
C2829 C2832 1.463 1_554 S
C2829 C2834 1.350 . S
C2829 N2837 1.427 . S
C2830 H2821 0.930 . S
C2830 C2828 1.378 . S
C2830 C2831 1.367 . S
C2831 C2830 1.367 . S
C2831 C2833 1.433 . S
C2832 C2828 1.350 . S
C2832 C2829 1.463 1_556 S
C2832 N2836 1.427 . S
C2833 H2823 0.929 . S
C2833 C2831 1.433 . S
C2833 N2836 1.384 . S
C2834 H2825 0.929 1_554 S
C2834 C2826 1.378 . S
C2834 C2829 1.350 . S
C2835 H2822 0.929 . S
C2835 C2827 1.433 . S
C2835 N2837 1.384 . S
N2836 C2832 1.427 . S
N2836 C2833 1.384 . S
N2837 C2829 1.427 . S
N2837 C2835 1.384 . S
H2838 C2844 0.930 . S
H2839 C2848 0.930 . S
H2840 C2853 0.929 . S
H2841 C2851 0.929 . S
H2842 C2846 0.929 . S
H2843 C2852 0.929 . S
C2844 H2838 0.930 . S
C2844 C2845 1.367 . S
C2844 C2852 1.378 . S
C2845 C2844 1.367 . S
C2845 C2853 1.433 . S
C2846 H2842 0.929 . S
C2846 C2848 1.378 . S
C2846 C2850 1.350 . S
C2847 C2850 1.463 . S
C2847 C2852 1.350 . S
C2847 N2855 1.427 . S
C2848 H2839 0.930 . S
C2848 C2846 1.378 . S
C2848 C2849 1.367 . S
C2849 C2848 1.367 . S
C2849 C2851 1.433 . S
C2850 C2846 1.350 . S
C2850 C2847 1.463 . S
C2850 N2854 1.427 . S
C2851 H2841 0.929 . S
C2851 C2849 1.433 . S
C2851 N2854 1.384 . S
C2852 H2843 0.929 . S
C2852 C2844 1.378 . S
C2852 C2847 1.350 . S
C2853 H2840 0.929 . S
C2853 C2845 1.433 . S
C2853 N2855 1.384 . S
N2854 C2850 1.427 . S
N2854 C2851 1.384 . S
N2855 C2847 1.427 . S
N2855 C2853 1.384 . S
H2856 C2862 0.930 . S
H2857 C2866 0.930 . S
H2858 C2871 0.929 . S
H2859 C2869 0.929 . S
H2860 C2864 0.929 . S
H2861 C2870 0.929 . S
C2862 H2856 0.930 . S
C2862 C2863 1.367 . S
C2862 C2870 1.378 . S
C2863 C2862 1.367 . S
C2863 C2871 1.433 . S
C2864 H2860 0.929 . S
C2864 C2866 1.378 . S
C2864 C2868 1.350 . S
C2865 C2868 1.463 . S
C2865 C2870 1.350 . S
C2865 N2873 1.427 . S
C2866 H2857 0.930 . S
C2866 C2864 1.378 . S
C2866 C2867 1.367 . S
C2867 C2866 1.367 . S
C2867 C2869 1.433 . S
C2868 C2864 1.350 . S
C2868 C2865 1.463 . S
C2868 N2872 1.427 . S
C2869 H2859 0.929 . S
C2869 C2867 1.433 . S
C2869 N2872 1.384 . S
C2870 H2861 0.929 . S
C2870 C2862 1.378 . S
C2870 C2865 1.350 . S
C2871 H2858 0.929 . S
C2871 C2863 1.433 . S
C2871 N2873 1.384 . S
N2872 C2868 1.427 . S
N2872 C2869 1.384 . S
N2873 C2865 1.427 . S
N2873 C2871 1.384 . S
H2874 C2880 0.930 . S
H2875 C2884 0.930 . S
H2876 C2889 0.929 . S
H2877 C2887 0.929 . S
H2878 C2882 0.929 . S
H2879 C2888 0.929 . S
C2880 H2874 0.930 . S
C2880 C2881 1.367 . S
C2880 C2888 1.378 . S
C2881 C2880 1.367 . S
C2881 C2889 1.433 . S
C2882 H2878 0.929 . S
C2882 C2884 1.378 . S
C2882 C2886 1.350 . S
C2883 C2886 1.463 . S
C2883 C2888 1.350 . S
C2883 N2891 1.427 . S
C2884 H2875 0.930 . S
C2884 C2882 1.378 . S
C2884 C2885 1.367 . S
C2885 C2884 1.367 . S
C2885 C2887 1.433 . S
C2886 C2882 1.350 . S
C2886 C2883 1.463 . S
C2886 N2890 1.427 . S
C2887 H2877 0.929 . S
C2887 C2885 1.433 . S
C2887 N2890 1.384 . S
C2888 H2879 0.929 . S
C2888 C2880 1.378 . S
C2888 C2883 1.350 . S
C2889 H2876 0.929 . S
C2889 C2881 1.433 . S
C2889 N2891 1.384 . S
N2890 C2886 1.427 . S
N2890 C2887 1.384 . S
N2891 C2883 1.427 . S
N2891 C2889 1.384 . S
H2892 C2898 0.930 . S
H2893 C2902 0.930 . S
H2894 C2907 0.929 . S
H2895 C2905 0.929 . S
H2896 C2900 0.929 . S
H2897 C2906 0.929 . S
C2898 H2892 0.930 . S
C2898 C2899 1.367 . S
C2898 C2906 1.378 . S
C2899 C2898 1.367 . S
C2899 C2907 1.433 . S
C2900 H2896 0.929 . S
C2900 C2902 1.378 . S
C2900 C2904 1.350 . S
C2901 C2904 1.463 . S
C2901 C2906 1.350 . S
C2901 N2909 1.427 . S
C2902 H2893 0.930 . S
C2902 C2900 1.378 . S
C2902 C2903 1.367 . S
C2903 C2902 1.367 . S
C2903 C2905 1.433 . S
C2904 C2900 1.350 . S
C2904 C2901 1.463 . S
C2904 N2908 1.427 . S
C2905 H2895 0.929 . S
C2905 C2903 1.433 . S
C2905 N2908 1.384 . S
C2906 H2897 0.929 . S
C2906 C2898 1.378 . S
C2906 C2901 1.350 . S
C2907 H2894 0.929 . S
C2907 C2899 1.433 . S
C2907 N2909 1.384 . S
N2908 C2904 1.427 . S
N2908 C2905 1.384 . S
N2909 C2901 1.427 . S
N2909 C2907 1.384 . S
H2910 C2916 0.930 . S
H2911 C2920 0.930 . S
H2912 C2925 0.929 . S
H2913 C2923 0.929 . S
H2914 C2918 0.929 . S
H2915 C2924 0.929 . S
C2916 H2910 0.930 . S
C2916 C2917 1.367 . S
C2916 C2924 1.378 . S
C2917 C2916 1.367 . S
C2917 C2925 1.433 . S
C2918 H2914 0.929 . S
C2918 C2920 1.378 . S
C2918 C2922 1.350 . S
C2919 C2922 1.463 . S
C2919 C2924 1.350 . S
C2919 N2927 1.427 . S
C2920 H2911 0.930 . S
C2920 C2918 1.378 . S
C2920 C2921 1.367 . S
C2921 C2920 1.367 . S
C2921 C2923 1.433 . S
C2922 C2918 1.350 . S
C2922 C2919 1.463 . S
C2922 N2926 1.427 . S
C2923 H2913 0.929 . S
C2923 C2921 1.433 . S
C2923 N2926 1.384 . S
C2924 H2915 0.929 . S
C2924 C2916 1.378 . S
C2924 C2919 1.350 . S
C2925 H2912 0.929 . S
C2925 C2917 1.433 . S
C2925 N2927 1.384 . S
N2926 C2922 1.427 . S
N2926 C2923 1.384 . S
N2927 C2919 1.427 . S
N2927 C2925 1.384 . S
H2928 C2934 0.930 . S
H2929 C2938 0.930 . S
H2930 C2943 0.929 . S
H2931 C2941 0.929 . S
H2932 C2936 0.929 . S
H2933 C2942 0.929 . S
C2934 H2928 0.930 . S
C2934 C2935 1.367 . S
C2934 C2942 1.378 . S
C2935 C2934 1.367 . S
C2935 C2943 1.433 . S
C2936 H2932 0.929 . S
C2936 C2938 1.378 . S
C2936 C2940 1.350 . S
C2937 C2940 1.463 . S
C2937 C2942 1.350 . S
C2937 N2945 1.427 . S
C2938 H2929 0.930 . S
C2938 C2936 1.378 . S
C2938 C2939 1.367 . S
C2939 C2938 1.367 . S
C2939 C2941 1.433 . S
C2940 C2936 1.350 . S
C2940 C2937 1.463 . S
C2940 N2944 1.427 . S
C2941 H2931 0.929 . S
C2941 C2939 1.433 . S
C2941 N2944 1.384 . S
C2942 H2933 0.929 . S
C2942 C2934 1.378 . S
C2942 C2937 1.350 . S
C2943 H2930 0.929 . S
C2943 C2935 1.433 . S
C2943 N2945 1.384 . S
N2944 C2940 1.427 . S
N2944 C2941 1.384 . S
N2945 C2937 1.427 . S
N2945 C2943 1.384 . S
H2946 C2952 0.930 . S
H2947 C2956 0.930 . S
H2948 C2961 0.929 . S
H2949 C2959 0.929 . S
H2950 C2954 0.929 . S
H2951 C2960 0.929 . S
C2952 H2946 0.930 . S
C2952 C2953 1.367 . S
C2952 C2960 1.378 . S
C2953 C2952 1.367 . S
C2953 C2961 1.433 . S
C2954 H2950 0.929 . S
C2954 C2956 1.378 . S
C2954 C2958 1.350 . S
C2955 C2958 1.463 1_565 S
C2955 C2960 1.350 . S
C2955 N2963 1.427 . S
C2956 H2947 0.930 . S
C2956 C2954 1.378 . S
C2956 C2957 1.367 . S
C2957 C2956 1.367 . S
C2957 C2959 1.433 . S
C2958 C2954 1.350 . S
C2958 C2955 1.463 1_545 S
C2958 N2962 1.427 . S
C2959 H2949 0.929 . S
C2959 C2957 1.433 . S
C2959 N2962 1.384 . S
C2960 H2951 0.929 . S
C2960 C2952 1.378 . S
C2960 C2955 1.350 . S
C2961 H2948 0.929 . S
C2961 C2953 1.433 . S
C2961 N2963 1.384 . S
N2962 C2958 1.427 . S
N2962 C2959 1.384 . S
N2963 C2955 1.427 . S
N2963 C2961 1.384 . S
H2964 C2970 0.930 . S
H2965 C2974 0.930 . S
H2966 C2979 0.929 . S
H2967 C2977 0.929 . S
H2968 C2972 0.929 . S
H2969 C2978 0.929 . S
C2970 H2964 0.930 . S
C2970 C2971 1.367 . S
C2970 C2978 1.378 . S
C2971 C2970 1.367 . S
C2971 C2979 1.433 . S
C2972 H2968 0.929 . S
C2972 C2974 1.378 . S
C2972 C2976 1.350 . S
C2973 C2976 1.463 . S
C2973 C2978 1.350 . S
C2973 N2981 1.427 . S
C2974 H2965 0.930 . S
C2974 C2972 1.378 . S
C2974 C2975 1.367 . S
C2975 C2974 1.367 . S
C2975 C2977 1.433 . S
C2976 C2972 1.350 . S
C2976 C2973 1.463 . S
C2976 N2980 1.427 . S
C2977 H2967 0.929 . S
C2977 C2975 1.433 . S
C2977 N2980 1.384 . S
C2978 H2969 0.929 . S
C2978 C2970 1.378 . S
C2978 C2973 1.350 . S
C2979 H2966 0.929 . S
C2979 C2971 1.433 . S
C2979 N2981 1.384 . S
N2980 C2976 1.427 . S
N2980 C2977 1.384 . S
N2981 C2973 1.427 . S
N2981 C2979 1.384 . S
H2982 C2988 0.930 . S
H2983 C2992 0.930 . S
H2984 C2997 0.929 . S
H2985 C2995 0.929 . S
H2986 C2990 0.929 . S
H2987 C2996 0.929 . S
C2988 H2982 0.930 . S
C2988 C2989 1.367 . S
C2988 C2996 1.378 . S
C2989 C2988 1.367 . S
C2989 C2997 1.433 . S
C2990 H2986 0.929 . S
C2990 C2992 1.378 . S
C2990 C2994 1.350 . S
C2991 C2994 1.463 . S
C2991 C2996 1.350 . S
C2991 N2999 1.427 . S
C2992 H2983 0.930 . S
C2992 C2990 1.378 . S
C2992 C2993 1.367 . S
C2993 C2992 1.367 . S
C2993 C2995 1.433 . S
C2994 C2990 1.350 . S
C2994 C2991 1.463 . S
C2994 N2998 1.427 . S
C2995 H2985 0.929 . S
C2995 C2993 1.433 . S
C2995 N2998 1.384 . S
C2996 H2987 0.929 . S
C2996 C2988 1.378 . S
C2996 C2991 1.350 . S
C2997 H2984 0.929 . S
C2997 C2989 1.433 . S
C2997 N2999 1.384 . S
N2998 C2994 1.427 . S
N2998 C2995 1.384 . S
N2999 C2991 1.427 . S
N2999 C2997 1.384 . S
H3000 C3006 0.930 . S
H3001 C3010 0.930 . S
H3002 C3015 0.929 . S
H3003 C3013 0.929 . S
H3004 C3008 0.929 . S
H3005 C3014 0.929 . S
C3006 H3000 0.930 . S
C3006 C3007 1.367 . S
C3006 C3014 1.378 . S
C3007 C3006 1.367 . S
C3007 C3015 1.433 . S
C3008 H3004 0.929 . S
C3008 C3010 1.378 . S
C3008 C3012 1.350 . S
C3009 C3012 1.463 . S
C3009 C3014 1.350 . S
C3009 N3017 1.427 . S
C3010 H3001 0.930 . S
C3010 C3008 1.378 . S
C3010 C3011 1.367 . S
C3011 C3010 1.367 . S
C3011 C3013 1.433 . S
C3012 C3008 1.350 . S
C3012 C3009 1.463 . S
C3012 N3016 1.427 . S
C3013 H3003 0.929 . S
C3013 C3011 1.433 . S
C3013 N3016 1.384 . S
C3014 H3005 0.929 . S
C3014 C3006 1.378 . S
C3014 C3009 1.350 . S
C3015 H3002 0.929 . S
C3015 C3007 1.433 . S
C3015 N3017 1.384 . S
N3016 C3012 1.427 . S
N3016 C3013 1.384 . S
N3017 C3009 1.427 . S
N3017 C3015 1.384 . S
H3018 C3024 0.930 . S
H3019 C3028 0.930 . S
H3020 C3033 0.929 . S
H3021 C3031 0.929 . S
H3022 C3026 0.929 . S
H3023 C3032 0.929 1_545 S
C3024 H3018 0.930 . S
C3024 C3025 1.367 . S
C3024 C3032 1.378 . S
C3025 C3024 1.367 . S
C3025 C3033 1.433 . S
C3026 H3022 0.929 . S
C3026 C3028 1.378 . S
C3026 C3030 1.350 . S
C3027 C3030 1.463 1_565 S
C3027 C3032 1.350 . S
C3027 N3035 1.427 . S
C3028 H3019 0.930 . S
C3028 C3026 1.378 . S
C3028 C3029 1.367 . S
C3029 C3028 1.367 . S
C3029 C3031 1.433 . S
C3030 C3026 1.350 . S
C3030 C3027 1.463 1_545 S
C3030 N3034 1.427 . S
C3031 H3021 0.929 . S
C3031 C3029 1.433 . S
C3031 N3034 1.384 . S
C3032 H3023 0.929 1_565 S
C3032 C3024 1.378 . S
C3032 C3027 1.350 . S
C3033 H3020 0.929 . S
C3033 C3025 1.433 . S
C3033 N3035 1.384 . S
N3034 C3030 1.427 . S
N3034 C3031 1.384 . S
N3035 C3027 1.427 . S
N3035 C3033 1.384 . S
H3036 C3042 0.930 . S
H3037 C3046 0.930 . S
H3038 C3051 0.929 . S
H3039 C3049 0.929 . S
H3040 C3044 0.929 . S
H3041 C3050 0.929 . S
C3042 H3036 0.930 . S
C3042 C3043 1.367 . S
C3042 C3050 1.378 . S
C3043 C3042 1.367 . S
C3043 C3051 1.433 . S
C3044 H3040 0.929 . S
C3044 C3046 1.378 . S
C3044 C3048 1.350 . S
C3045 C3048 1.463 . S
C3045 C3050 1.350 . S
C3045 N3053 1.427 . S
C3046 H3037 0.930 . S
C3046 C3044 1.378 . S
C3046 C3047 1.367 . S
C3047 C3046 1.367 . S
C3047 C3049 1.433 . S
C3048 C3044 1.350 . S
C3048 C3045 1.463 . S
C3048 N3052 1.427 . S
C3049 H3039 0.929 . S
C3049 C3047 1.433 . S
C3049 N3052 1.384 . S
C3050 H3041 0.929 . S
C3050 C3042 1.378 . S
C3050 C3045 1.350 . S
C3051 H3038 0.929 . S
C3051 C3043 1.433 . S
C3051 N3053 1.384 . S
N3052 C3048 1.427 . S
N3052 C3049 1.384 . S
N3053 C3045 1.427 . S
N3053 C3051 1.384 . S
H3054 C3060 0.930 . S
H3055 C3064 0.930 . S
H3056 C3069 0.929 . S
H3057 C3067 0.929 . S
H3058 C3062 0.929 . S
H3059 C3068 0.929 . S
C3060 H3054 0.930 . S
C3060 C3061 1.367 . S
C3060 C3068 1.378 . S
C3061 C3060 1.367 . S
C3061 C3069 1.433 . S
C3062 H3058 0.929 . S
C3062 C3064 1.378 . S
C3062 C3066 1.350 . S
C3063 C3066 1.463 . S
C3063 C3068 1.350 . S
C3063 N3071 1.427 . S
C3064 H3055 0.930 . S
C3064 C3062 1.378 . S
C3064 C3065 1.367 . S
C3065 C3064 1.367 . S
C3065 C3067 1.433 . S
C3066 C3062 1.350 . S
C3066 C3063 1.463 . S
C3066 N3070 1.427 . S
C3067 H3057 0.929 . S
C3067 C3065 1.433 . S
C3067 N3070 1.384 . S
C3068 H3059 0.929 . S
C3068 C3060 1.378 . S
C3068 C3063 1.350 . S
C3069 H3056 0.929 . S
C3069 C3061 1.433 . S
C3069 N3071 1.384 . S
N3070 C3066 1.427 . S
N3070 C3067 1.384 . S
N3071 C3063 1.427 . S
N3071 C3069 1.384 . S
H3072 C3078 0.930 . S
H3073 C3082 0.930 . S
H3074 C3087 0.929 . S
H3075 C3085 0.929 . S
H3076 C3080 0.929 . S
H3077 C3086 0.929 . S
C3078 H3072 0.930 . S
C3078 C3079 1.367 . S
C3078 C3086 1.378 . S
C3079 C3078 1.367 . S
C3079 C3087 1.433 . S
C3080 H3076 0.929 . S
C3080 C3082 1.378 . S
C3080 C3084 1.350 . S
C3081 C3084 1.463 . S
C3081 C3086 1.350 . S
C3081 N3089 1.427 . S
C3082 H3073 0.930 . S
C3082 C3080 1.378 . S
C3082 C3083 1.367 . S
C3083 C3082 1.367 . S
C3083 C3085 1.433 . S
C3084 C3080 1.350 . S
C3084 C3081 1.463 . S
C3084 N3088 1.427 . S
C3085 H3075 0.929 . S
C3085 C3083 1.433 . S
C3085 N3088 1.384 . S
C3086 H3077 0.929 . S
C3086 C3078 1.378 . S
C3086 C3081 1.350 . S
C3087 H3074 0.929 . S
C3087 C3079 1.433 . S
C3087 N3089 1.384 . S
N3088 C3084 1.427 . S
N3088 C3085 1.384 . S
N3089 C3081 1.427 . S
N3089 C3087 1.384 . S
H3090 C3096 0.930 . S
H3091 C3100 0.930 . S
H3092 C3105 0.929 . S
H3093 C3103 0.929 . S
H3094 C3098 0.929 . S
H3095 C3104 0.945 . S
C3096 H3090 0.930 . S
C3096 C3097 1.367 . S
C3096 C3104 1.378 . S
C3097 C3096 1.367 . S
C3097 C3105 1.433 . S
C3098 H3094 0.929 . S
C3098 C3100 1.378 . S
C3098 C3102 1.350 . S
C3099 C3102 1.463 1_455 S
C3099 C3104 1.350 . S
C3099 N3107 1.427 . S
C3100 H3091 0.930 . S
C3100 C3098 1.378 . S
C3100 C3101 1.367 . S
C3101 C3100 1.367 . S
C3101 C3103 1.433 . S
C3102 C3098 1.350 . S
C3102 C3099 1.463 1_655 S
C3102 N3106 1.427 . S
C3103 H3093 0.929 . S
C3103 C3101 1.433 . S
C3103 N3106 1.384 . S
C3104 H3095 0.945 . S
C3104 C3096 1.378 . S
C3104 C3099 1.350 . S
C3105 H3092 0.929 . S
C3105 C3097 1.433 . S
C3105 N3107 1.384 . S
N3106 C3102 1.427 . S
N3106 C3103 1.384 . S
N3107 C3099 1.427 . S
N3107 C3105 1.384 . S
H3108 C3114 0.930 . S
H3109 C3118 0.930 . S
H3110 C3123 0.929 . S
H3111 C3121 0.929 . S
H3112 C3116 0.929 . S
H3113 C3122 0.929 . S
C3114 H3108 0.930 . S
C3114 C3115 1.367 . S
C3114 C3122 1.378 . S
C3115 C3114 1.367 . S
C3115 C3123 1.433 . S
C3116 H3112 0.929 . S
C3116 C3118 1.378 . S
C3116 C3120 1.350 . S
C3117 C3120 1.463 . S
C3117 C3122 1.350 . S
C3117 N3125 1.427 . S
C3118 H3109 0.930 . S
C3118 C3116 1.378 . S
C3118 C3119 1.367 . S
C3119 C3118 1.367 . S
C3119 C3121 1.433 . S
C3120 C3116 1.350 . S
C3120 C3117 1.463 . S
C3120 N3124 1.427 . S
C3121 H3111 0.929 . S
C3121 C3119 1.433 . S
C3121 N3124 1.384 . S
C3122 H3113 0.929 . S
C3122 C3114 1.378 . S
C3122 C3117 1.350 . S
C3123 H3110 0.929 . S
C3123 C3115 1.433 . S
C3123 N3125 1.384 . S
N3124 C3120 1.427 . S
N3124 C3121 1.384 . S
N3125 C3117 1.427 . S
N3125 C3123 1.384 . S
H3126 C3132 0.930 . S
H3127 C3136 0.930 . S
H3128 C3141 0.929 . S
H3129 C3139 0.929 . S
H3130 C3134 0.929 . S
H3131 C3140 0.929 . S
C3132 H3126 0.930 . S
C3132 C3133 1.367 . S
C3132 C3140 1.378 . S
C3133 C3132 1.367 . S
C3133 C3141 1.433 . S
C3134 H3130 0.929 . S
C3134 C3136 1.378 . S
C3134 C3138 1.350 . S
C3135 C3138 1.463 1_455 S
C3135 C3140 1.350 . S
C3135 N3143 1.427 . S
C3136 H3127 0.930 . S
C3136 C3134 1.378 . S
C3136 C3137 1.367 . S
C3137 C3136 1.367 . S
C3137 C3139 1.433 . S
C3138 C3134 1.350 . S
C3138 C3135 1.463 1_655 S
C3138 N3142 1.427 . S
C3139 H3129 0.929 . S
C3139 C3137 1.433 . S
C3139 N3142 1.384 . S
C3140 H3131 0.929 . S
C3140 C3132 1.378 . S
C3140 C3135 1.350 . S
C3141 H3128 0.929 . S
C3141 C3133 1.433 . S
C3141 N3143 1.384 . S
N3142 C3138 1.427 . S
N3142 C3139 1.384 . S
N3143 C3135 1.427 . S
N3143 C3141 1.384 . S
H3144 C3150 0.930 . S
H3145 C3154 0.930 . S
H3146 C3159 0.929 . S
H3147 C3157 0.929 . S
H3148 C3152 0.929 . S
H3149 C3158 0.929 . S
C3150 H3144 0.930 . S
C3150 C3151 1.367 . S
C3150 C3158 1.378 . S
C3151 C3150 1.367 . S
C3151 C3159 1.433 . S
C3152 H3148 0.929 . S
C3152 C3154 1.378 . S
C3152 C3156 1.350 . S
C3153 C3156 1.463 . S
C3153 C3158 1.350 . S
C3153 N3161 1.427 . S
C3154 H3145 0.930 . S
C3154 C3152 1.378 . S
C3154 C3155 1.367 . S
C3155 C3154 1.367 . S
C3155 C3157 1.433 . S
C3156 C3152 1.350 . S
C3156 C3153 1.463 . S
C3156 N3160 1.427 . S
C3157 H3147 0.929 . S
C3157 C3155 1.433 . S
C3157 N3160 1.384 . S
C3158 H3149 0.929 . S
C3158 C3150 1.378 . S
C3158 C3153 1.350 . S
C3159 H3146 0.929 . S
C3159 C3151 1.433 . S
C3159 N3161 1.384 . S
N3160 C3156 1.427 . S
N3160 C3157 1.384 . S
N3161 C3153 1.427 . S
N3161 C3159 1.384 . S
H3162 C3168 0.930 . S
H3163 C3172 0.930 . S
H3164 C3177 0.929 . S
H3165 C3175 0.929 . S
H3166 C3170 0.929 . S
H3167 C3176 0.929 . S
C3168 H3162 0.930 . S
C3168 C3169 1.367 . S
C3168 C3176 1.378 . S
C3169 C3168 1.367 . S
C3169 C3177 1.433 . S
C3170 H3166 0.929 . S
C3170 C3172 1.378 . S
C3170 C3174 1.350 . S
C3171 C3174 1.463 . S
C3171 C3176 1.350 . S
C3171 N3179 1.427 . S
C3172 H3163 0.930 . S
C3172 C3170 1.378 . S
C3172 C3173 1.367 . S
C3173 C3172 1.367 . S
C3173 C3175 1.433 . S
C3174 C3170 1.350 . S
C3174 C3171 1.463 . S
C3174 N3178 1.427 . S
C3175 H3165 0.929 . S
C3175 C3173 1.433 . S
C3175 N3178 1.384 . S
C3176 H3167 0.929 . S
C3176 C3168 1.378 . S
C3176 C3171 1.350 . S
C3177 H3164 0.929 . S
C3177 C3169 1.433 . S
C3177 N3179 1.384 . S
N3178 C3174 1.427 . S
N3178 C3175 1.384 . S
N3179 C3171 1.427 . S
N3179 C3177 1.384 . S
H3180 C3186 0.930 . S
H3181 C3190 0.930 . S
H3182 C3195 0.929 . S
H3183 C3193 0.929 . S
H3184 C3188 0.929 . S
H3185 C3194 0.929 . S
C3186 H3180 0.930 . S
C3186 C3187 1.367 . S
C3186 C3194 1.378 . S
C3187 C3186 1.367 . S
C3187 C3195 1.433 . S
C3188 H3184 0.929 . S
C3188 C3190 1.378 . S
C3188 C3192 1.350 . S
C3189 C3192 1.463 . S
C3189 C3194 1.350 . S
C3189 N3197 1.427 . S
C3190 H3181 0.930 . S
C3190 C3188 1.378 . S
C3190 C3191 1.367 . S
C3191 C3190 1.367 . S
C3191 C3193 1.433 . S
C3192 C3188 1.350 . S
C3192 C3189 1.463 . S
C3192 N3196 1.427 . S
C3193 H3183 0.929 . S
C3193 C3191 1.433 . S
C3193 N3196 1.384 . S
C3194 H3185 0.929 . S
C3194 C3186 1.378 . S
C3194 C3189 1.350 . S
C3195 H3182 0.929 . S
C3195 C3187 1.433 . S
C3195 N3197 1.384 . S
N3196 C3192 1.427 . S
N3196 C3193 1.384 . S
N3197 C3189 1.427 . S
N3197 C3195 1.384 . S
H3198 C3204 0.930 . S
H3199 C3208 0.930 . S
H3200 C3213 0.929 . S
H3201 C3211 0.929 . S
H3202 C3206 0.929 . S
H3203 C3212 0.929 . S
C3204 H3198 0.930 . S
C3204 C3205 1.367 . S
C3204 C3212 1.378 . S
C3205 C3204 1.367 . S
C3205 C3213 1.433 . S
C3206 H3202 0.929 . S
C3206 C3208 1.378 . S
C3206 C3210 1.350 . S
C3207 C3210 1.463 . S
C3207 C3212 1.350 . S
C3207 N3215 1.427 . S
C3208 H3199 0.930 . S
C3208 C3206 1.378 . S
C3208 C3209 1.367 . S
C3209 C3208 1.367 . S
C3209 C3211 1.433 . S
C3210 C3206 1.350 . S
C3210 C3207 1.463 . S
C3210 N3214 1.427 . S
C3211 H3201 0.929 . S
C3211 C3209 1.433 . S
C3211 N3214 1.384 . S
C3212 H3203 0.929 . S
C3212 C3204 1.378 . S
C3212 C3207 1.350 . S
C3213 H3200 0.929 . S
C3213 C3205 1.433 . S
C3213 N3215 1.384 . S
N3214 C3210 1.427 . S
N3214 C3211 1.384 . S
N3215 C3207 1.427 . S
N3215 C3213 1.384 . S
H3216 C3222 0.930 . S
H3217 C3226 0.930 . S
H3218 C3231 0.929 . S
H3219 C3229 0.929 . S
H3220 C3224 0.929 . S
H3221 C3230 0.929 . S
C3222 H3216 0.930 . S
C3222 C3223 1.367 . S
C3222 C3230 1.378 . S
C3223 C3222 1.367 . S
C3223 C3231 1.433 . S
C3224 H3220 0.929 . S
C3224 C3226 1.378 . S
C3224 C3228 1.350 . S
C3225 C3228 1.463 . S
C3225 C3230 1.350 . S
C3225 N3233 1.427 . S
C3226 H3217 0.930 . S
C3226 C3224 1.378 . S
C3226 C3227 1.367 . S
C3227 C3226 1.367 . S
C3227 C3229 1.433 . S
C3228 C3224 1.350 . S
C3228 C3225 1.463 . S
C3228 N3232 1.427 . S
C3229 H3219 0.929 . S
C3229 C3227 1.433 . S
C3229 N3232 1.384 . S
C3230 H3221 0.929 . S
C3230 C3222 1.378 . S
C3230 C3225 1.350 . S
C3231 H3218 0.929 . S
C3231 C3223 1.433 . S
C3231 N3233 1.384 . S
N3232 C3228 1.427 . S
N3232 C3229 1.384 . S
N3233 C3225 1.427 . S
N3233 C3231 1.384 . S
H3234 C3240 0.930 . S
H3235 C3244 0.930 . S
H3236 C3249 0.929 . S
H3237 C3247 0.929 . S
H3238 C3242 0.929 . S
H3239 C3248 0.929 . S
C3240 H3234 0.930 . S
C3240 C3241 1.367 . S
C3240 C3248 1.378 . S
C3241 C3240 1.367 . S
C3241 C3249 1.433 . S
C3242 H3238 0.929 . S
C3242 C3244 1.378 . S
C3242 C3246 1.350 . S
C3243 C3246 1.463 . S
C3243 C3248 1.350 . S
C3243 N3251 1.427 . S
C3244 H3235 0.930 . S
C3244 C3242 1.378 . S
C3244 C3245 1.367 . S
C3245 C3244 1.367 . S
C3245 C3247 1.433 . S
C3246 C3242 1.350 . S
C3246 C3243 1.463 . S
C3246 N3250 1.427 . S
C3247 H3237 0.929 . S
C3247 C3245 1.433 . S
C3247 N3250 1.384 . S
C3248 H3239 0.929 . S
C3248 C3240 1.378 . S
C3248 C3243 1.350 . S
C3249 H3236 0.929 . S
C3249 C3241 1.433 . S
C3249 N3251 1.384 . S
N3250 C3246 1.427 . S
N3250 C3247 1.384 . S
N3251 C3243 1.427 . S
N3251 C3249 1.384 . S
H3252 C3258 0.930 . S
H3253 C3262 0.930 . S
H3254 C3267 0.929 . S
H3255 C3265 0.929 . S
H3256 C3260 0.929 . S
H3257 C3266 0.929 . S
C3258 H3252 0.930 . S
C3258 C3259 1.367 . S
C3258 C3266 1.378 . S
C3259 C3258 1.367 . S
C3259 C3267 1.433 . S
C3260 H3256 0.929 . S
C3260 C3262 1.378 . S
C3260 C3264 1.350 . S
C3261 C3264 1.463 . S
C3261 C3266 1.350 . S
C3261 N3269 1.427 . S
C3262 H3253 0.930 . S
C3262 C3260 1.378 . S
C3262 C3263 1.367 . S
C3263 C3262 1.367 . S
C3263 C3265 1.433 . S
C3264 C3260 1.350 . S
C3264 C3261 1.463 . S
C3264 N3268 1.427 . S
C3265 H3255 0.929 . S
C3265 C3263 1.433 . S
C3265 N3268 1.384 . S
C3266 H3257 0.929 . S
C3266 C3258 1.378 . S
C3266 C3261 1.350 . S
C3267 H3254 0.929 . S
C3267 C3259 1.433 . S
C3267 N3269 1.384 . S
N3268 C3264 1.427 . S
N3268 C3265 1.384 . S
N3269 C3261 1.427 . S
N3269 C3267 1.384 . S
H3270 C3276 0.930 . S
H3271 C3280 0.930 . S
H3272 C3285 0.929 . S
H3273 C3283 0.929 . S
H3274 C3278 0.929 . S
H3275 C3284 0.929 . S
C3276 H3270 0.930 . S
C3276 C3277 1.367 . S
C3276 C3284 1.378 . S
C3277 C3276 1.367 . S
C3277 C3285 1.433 . S
C3278 H3274 0.929 . S
C3278 C3280 1.378 . S
C3278 C3282 1.350 . S
C3279 C3282 1.463 . S
C3279 C3284 1.350 . S
C3279 N3287 1.427 . S
C3280 H3271 0.930 . S
C3280 C3278 1.378 . S
C3280 C3281 1.367 . S
C3281 C3280 1.367 . S
C3281 C3283 1.433 . S
C3282 C3278 1.350 . S
C3282 C3279 1.463 . S
C3282 N3286 1.427 . S
C3283 H3273 0.929 . S
C3283 C3281 1.433 . S
C3283 N3286 1.384 . S
C3284 H3275 0.929 . S
C3284 C3276 1.378 . S
C3284 C3279 1.350 . S
C3285 H3272 0.929 . S
C3285 C3277 1.433 . S
C3285 N3287 1.384 . S
N3286 C3282 1.427 . S
N3286 C3283 1.384 . S
N3287 C3279 1.427 . S
N3287 C3285 1.384 . S
H3288 C3294 0.930 . S
H3289 C3298 0.930 . S
H3290 C3303 0.929 . S
H3291 C3301 0.929 . S
H3292 C3296 0.929 . S
H3293 C3302 0.929 . S
C3294 H3288 0.930 . S
C3294 C3295 1.367 . S
C3294 C3302 1.378 . S
C3295 C3294 1.367 . S
C3295 C3303 1.433 . S
C3296 H3292 0.929 . S
C3296 C3298 1.378 . S
C3296 C3300 1.350 . S
C3297 C3300 1.463 1_556 S
C3297 C3302 1.350 . S
C3297 N3305 1.427 . S
C3298 H3289 0.930 . S
C3298 C3296 1.378 . S
C3298 C3299 1.367 . S
C3299 C3298 1.367 . S
C3299 C3301 1.433 . S
C3300 C3296 1.350 . S
C3300 C3297 1.463 1_554 S
C3300 N3304 1.427 . S
C3301 H3291 0.929 . S
C3301 C3299 1.433 . S
C3301 N3304 1.384 . S
C3302 H3293 0.929 . S
C3302 C3294 1.378 . S
C3302 C3297 1.350 . S
C3303 H3290 0.929 . S
C3303 C3295 1.433 . S
C3303 N3305 1.384 . S
N3304 C3300 1.427 . S
N3304 C3301 1.384 . S
N3305 C3297 1.427 . S
N3305 C3303 1.384 . S
H3306 C3312 0.930 . S
H3307 C3316 0.930 . S
H3308 C3321 0.929 . S
H3309 C3319 0.929 . S
H3310 C3314 0.929 . S
H3311 C3320 0.929 . S
C3312 H3306 0.930 . S
C3312 C3313 1.367 . S
C3312 C3320 1.378 . S
C3313 C3312 1.367 . S
C3313 C3321 1.433 . S
C3314 H3310 0.929 . S
C3314 C3316 1.378 . S
C3314 C3318 1.350 . S
C3315 C3318 1.463 . S
C3315 C3320 1.350 . S
C3315 N3323 1.427 . S
C3316 H3307 0.930 . S
C3316 C3314 1.378 . S
C3316 C3317 1.367 . S
C3317 C3316 1.367 . S
C3317 C3319 1.433 . S
C3318 C3314 1.350 . S
C3318 C3315 1.463 . S
C3318 N3322 1.427 . S
C3319 H3309 0.929 . S
C3319 C3317 1.433 . S
C3319 N3322 1.384 . S
C3320 H3311 0.929 . S
C3320 C3312 1.378 . S
C3320 C3315 1.350 . S
C3321 H3308 0.929 . S
C3321 C3313 1.433 . S
C3321 N3323 1.384 . S
N3322 C3318 1.427 . S
N3322 C3319 1.384 . S
N3323 C3315 1.427 . S
N3323 C3321 1.384 . S
H3324 C3330 0.930 . S
H3325 C3334 0.930 . S
H3326 C3339 0.929 . S
H3327 C3337 0.929 . S
H3328 C3332 0.929 . S
H3329 C3338 0.929 . S
C3330 H3324 0.930 . S
C3330 C3331 1.367 . S
C3330 C3338 1.378 . S
C3331 C3330 1.367 . S
C3331 C3339 1.433 . S
C3332 H3328 0.929 . S
C3332 C3334 1.378 . S
C3332 C3336 1.350 . S
C3333 C3336 1.463 1_554 S
C3333 C3338 1.350 . S
C3333 N3341 1.427 . S
C3334 H3325 0.930 . S
C3334 C3332 1.378 . S
C3334 C3335 1.367 . S
C3335 C3334 1.367 . S
C3335 C3337 1.433 . S
C3336 C3332 1.350 . S
C3336 C3333 1.463 1_556 S
C3336 N3340 1.427 . S
C3337 H3327 0.929 . S
C3337 C3335 1.433 . S
C3337 N3340 1.384 . S
C3338 H3329 0.929 . S
C3338 C3330 1.378 . S
C3338 C3333 1.350 . S
C3339 H3326 0.929 . S
C3339 C3331 1.433 . S
C3339 N3341 1.384 . S
N3340 C3336 1.427 . S
N3340 C3337 1.384 . S
N3341 C3333 1.427 . S
N3341 C3339 1.384 . S
H3342 C3348 0.930 . S
H3343 C3352 0.930 . S
H3344 C3357 0.929 . S
H3345 C3355 0.929 . S
H3346 C3350 0.929 . S
H3347 C3356 0.929 . S
C3348 H3342 0.930 . S
C3348 C3349 1.367 . S
C3348 C3356 1.378 . S
C3349 C3348 1.367 . S
C3349 C3357 1.433 . S
C3350 H3346 0.929 . S
C3350 C3352 1.378 . S
C3350 C3354 1.350 . S
C3351 C3354 1.463 1_556 S
C3351 C3356 1.350 . S
C3351 N3359 1.427 . S
C3352 H3343 0.930 . S
C3352 C3350 1.378 . S
C3352 C3353 1.367 . S
C3353 C3352 1.367 . S
C3353 C3355 1.433 . S
C3354 C3350 1.350 . S
C3354 C3351 1.463 1_554 S
C3354 N3358 1.427 . S
C3355 H3345 0.929 . S
C3355 C3353 1.433 . S
C3355 N3358 1.384 . S
C3356 H3347 0.929 . S
C3356 C3348 1.378 . S
C3356 C3351 1.350 . S
C3357 H3344 0.929 . S
C3357 C3349 1.433 . S
C3357 N3359 1.384 . S
N3358 C3354 1.427 . S
N3358 C3355 1.384 . S
N3359 C3351 1.427 . S
N3359 C3357 1.384 . S
H3360 C3366 0.930 . S
H3361 C3370 0.930 . S
H3362 C3375 0.929 . S
H3363 C3373 0.929 . S
H3364 C3368 0.929 . S
H3365 C3374 0.929 . S
C3366 H3360 0.930 . S
C3366 C3367 1.367 . S
C3366 C3374 1.378 . S
C3367 C3366 1.367 . S
C3367 C3375 1.433 . S
C3368 H3364 0.929 . S
C3368 C3370 1.378 . S
C3368 C3372 1.350 . S
C3369 C3372 1.463 . S
C3369 C3374 1.350 . S
C3369 N3377 1.427 . S
C3370 H3361 0.930 . S
C3370 C3368 1.378 . S
C3370 C3371 1.367 . S
C3371 C3370 1.367 . S
C3371 C3373 1.433 . S
C3372 C3368 1.350 . S
C3372 C3369 1.463 . S
C3372 N3376 1.427 . S
C3373 H3363 0.929 . S
C3373 C3371 1.433 . S
C3373 N3376 1.384 . S
C3374 H3365 0.929 . S
C3374 C3366 1.378 . S
C3374 C3369 1.350 . S
C3375 H3362 0.929 . S
C3375 C3367 1.433 . S
C3375 N3377 1.384 . S
N3376 C3372 1.427 . S
N3376 C3373 1.384 . S
N3377 C3369 1.427 . S
N3377 C3375 1.384 . S
H3378 C3384 0.930 . S
H3379 C3388 0.930 . S
H3380 C3393 0.929 . S
H3381 C3391 0.929 . S
H3382 C3386 0.929 . S
H3383 C3392 0.929 . S
C3384 H3378 0.930 . S
C3384 C3385 1.367 . S
C3384 C3392 1.378 . S
C3385 C3384 1.367 . S
C3385 C3393 1.433 . S
C3386 H3382 0.929 . S
C3386 C3388 1.378 . S
C3386 C3390 1.350 . S
C3387 C3390 1.463 . S
C3387 C3392 1.350 . S
C3387 N3395 1.427 . S
C3388 H3379 0.930 . S
C3388 C3386 1.378 . S
C3388 C3389 1.367 . S
C3389 C3388 1.367 . S
C3389 C3391 1.433 . S
C3390 C3386 1.350 . S
C3390 C3387 1.463 . S
C3390 N3394 1.427 . S
C3391 H3381 0.929 . S
C3391 C3389 1.433 . S
C3391 N3394 1.384 . S
C3392 H3383 0.929 . S
C3392 C3384 1.378 . S
C3392 C3387 1.350 . S
C3393 H3380 0.929 . S
C3393 C3385 1.433 . S
C3393 N3395 1.384 . S
N3394 C3390 1.427 . S
N3394 C3391 1.384 . S
N3395 C3387 1.427 . S
N3395 C3393 1.384 . S
H3396 C3402 0.930 . S
H3397 C3406 0.930 . S
H3398 C3411 0.929 . S
H3399 C3409 0.929 . S
H3400 C3404 0.929 . S
H3401 C3410 0.929 . S
C3402 H3396 0.930 . S
C3402 C3403 1.367 . S
C3402 C3410 1.378 . S
C3403 C3402 1.367 . S
C3403 C3411 1.433 . S
C3404 H3400 0.929 . S
C3404 C3406 1.378 . S
C3404 C3408 1.350 . S
C3405 C3408 1.463 . S
C3405 C3410 1.350 . S
C3405 N3413 1.427 . S
C3406 H3397 0.930 . S
C3406 C3404 1.378 . S
C3406 C3407 1.367 . S
C3407 C3406 1.367 . S
C3407 C3409 1.433 . S
C3408 C3404 1.350 . S
C3408 C3405 1.463 . S
C3408 N3412 1.427 . S
C3409 H3399 0.929 . S
C3409 C3407 1.433 . S
C3409 N3412 1.384 . S
C3410 H3401 0.929 . S
C3410 C3402 1.378 . S
C3410 C3405 1.350 . S
C3411 H3398 0.929 . S
C3411 C3403 1.433 . S
C3411 N3413 1.384 . S
N3412 C3408 1.427 . S
N3412 C3409 1.384 . S
N3413 C3405 1.427 . S
N3413 C3411 1.384 . S
H3414 C3420 0.930 . S
H3415 C3424 0.930 . S
H3416 C3429 0.929 . S
H3417 C3427 0.929 . S
H3418 C3422 0.929 . S
H3419 C3428 0.929 . S
C3420 H3414 0.930 . S
C3420 C3421 1.367 . S
C3420 C3428 1.378 . S
C3421 C3420 1.367 . S
C3421 C3429 1.433 . S
C3422 H3418 0.929 . S
C3422 C3424 1.378 . S
C3422 C3426 1.350 . S
C3423 C3426 1.463 1_545 S
C3423 C3428 1.350 . S
C3423 N3431 1.427 . S
C3424 H3415 0.930 . S
C3424 C3422 1.378 . S
C3424 C3425 1.367 . S
C3425 C3424 1.367 . S
C3425 C3427 1.433 . S
C3426 C3422 1.350 . S
C3426 C3423 1.463 1_565 S
C3426 N3430 1.427 . S
C3427 H3417 0.929 . S
C3427 C3425 1.433 . S
C3427 N3430 1.384 . S
C3428 H3419 0.929 . S
C3428 C3420 1.378 . S
C3428 C3423 1.350 . S
C3429 H3416 0.929 . S
C3429 C3421 1.433 . S
C3429 N3431 1.384 . S
N3430 C3426 1.427 . S
N3430 C3427 1.384 . S
N3431 C3423 1.427 . S
N3431 C3429 1.384 . S
H3432 C3438 0.930 . S
H3433 C3442 0.930 . S
H3434 C3447 0.929 . S
H3435 C3445 0.929 . S
H3436 C3440 0.929 1_554 S
H3437 C3446 0.929 1_556 S
C3438 H3432 0.930 . S
C3438 C3439 1.367 . S
C3438 C3446 1.378 . S
C3439 C3438 1.367 . S
C3439 C3447 1.433 . S
C3440 H3436 0.929 1_556 S
C3440 C3442 1.378 . S
C3440 C3444 1.350 . S
C3441 C3444 1.463 1_554 S
C3441 C3446 1.350 . S
C3441 N3449 1.427 . S
C3442 H3433 0.930 . S
C3442 C3440 1.378 . S
C3442 C3443 1.367 . S
C3443 C3442 1.367 . S
C3443 C3445 1.433 . S
C3444 C3440 1.350 . S
C3444 C3441 1.463 1_556 S
C3444 N3448 1.427 . S
C3445 H3435 0.929 . S
C3445 C3443 1.433 . S
C3445 N3448 1.384 . S
C3446 H3437 0.929 1_554 S
C3446 C3438 1.378 . S
C3446 C3441 1.350 . S
C3447 H3434 0.929 . S
C3447 C3439 1.433 . S
C3447 N3449 1.384 . S
N3448 C3444 1.427 . S
N3448 C3445 1.384 . S
N3449 C3441 1.427 . S
N3449 C3447 1.384 . S
H3450 C3456 0.930 . S
H3451 C3460 0.930 . S
H3452 C3465 0.929 . S
H3453 C3463 0.929 . S
H3454 C3458 0.929 . S
H3455 C3464 0.929 . S
C3456 H3450 0.930 . S
C3456 C3457 1.367 . S
C3456 C3464 1.378 . S
C3457 C3456 1.367 . S
C3457 C3465 1.433 . S
C3458 H3454 0.929 . S
C3458 C3460 1.378 . S
C3458 C3462 1.350 . S
C3459 C3462 1.463 . S
C3459 C3464 1.350 . S
C3459 N3467 1.427 . S
C3460 H3451 0.930 . S
C3460 C3458 1.378 . S
C3460 C3461 1.367 . S
C3461 C3460 1.367 . S
C3461 C3463 1.433 . S
C3462 C3458 1.350 . S
C3462 C3459 1.463 . S
C3462 N3466 1.427 . S
C3463 H3453 0.929 . S
C3463 C3461 1.433 . S
C3463 N3466 1.384 . S
C3464 H3455 0.929 . S
C3464 C3456 1.378 . S
C3464 C3459 1.350 . S
C3465 H3452 0.929 . S
C3465 C3457 1.433 . S
C3465 N3467 1.384 . S
N3466 C3462 1.427 . S
N3466 C3463 1.384 . S
N3467 C3459 1.427 . S
N3467 C3465 1.384 . S
H3468 C3474 0.930 . S
H3469 C3478 0.930 . S
H3470 C3483 0.929 . S
H3471 C3481 0.929 . S
H3472 C3476 0.929 . S
H3473 C3482 0.929 . S
C3474 H3468 0.930 . S
C3474 C3475 1.367 . S
C3474 C3482 1.378 . S
C3475 C3474 1.367 . S
C3475 C3483 1.433 . S
C3476 H3472 0.929 . S
C3476 C3478 1.378 . S
C3476 C3480 1.350 . S
C3477 C3480 1.463 1_556 S
C3477 C3482 1.350 . S
C3477 N3485 1.410 1_556 S
C3478 H3469 0.930 . S
C3478 C3476 1.378 . S
C3478 C3479 1.367 . S
C3479 C3478 1.367 . S
C3479 C3481 1.433 . S
C3480 C3476 1.350 . S
C3480 C3477 1.463 1_554 S
C3480 N3484 1.410 1_554 S
C3481 H3471 0.929 . S
C3481 C3479 1.433 . S
C3481 N3484 1.355 1_554 S
C3482 H3473 0.929 . S
C3482 C3474 1.378 . S
C3482 C3477 1.350 . S
C3483 H3470 0.929 . S
C3483 C3475 1.433 . S
C3483 N3485 1.355 1_556 S
N3484 C3480 1.410 1_556 S
N3484 C3481 1.355 1_556 S
N3485 C3477 1.410 1_554 S
N3485 C3483 1.355 1_554 S
H3486 C3492 0.930 . S
H3487 C3496 0.930 . S
H3488 C3501 0.929 . S
H3489 C3499 0.929 . S
H3490 C3494 0.929 . S
H3491 C3500 0.929 . S
C3492 H3486 0.930 . S
C3492 C3493 1.367 . S
C3492 C3500 1.378 . S
C3493 C3492 1.367 . S
C3493 C3501 1.433 . S
C3494 H3490 0.929 . S
C3494 C3496 1.378 . S
C3494 C3498 1.350 . S
C3495 C3498 1.463 1_545 S
C3495 C3500 1.350 . S
C3495 N3503 1.427 . S
C3496 H3487 0.930 . S
C3496 C3494 1.378 . S
C3496 C3497 1.367 . S
C3497 C3496 1.367 . S
C3497 C3499 1.433 . S
C3498 C3494 1.350 . S
C3498 C3495 1.463 1_565 S
C3498 N3502 1.427 . S
C3499 H3489 0.929 . S
C3499 C3497 1.433 . S
C3499 N3502 1.384 . S
C3500 H3491 0.929 . S
C3500 C3492 1.378 . S
C3500 C3495 1.350 . S
C3501 H3488 0.929 . S
C3501 C3493 1.433 . S
C3501 N3503 1.384 . S
N3502 C3498 1.427 . S
N3502 C3499 1.384 . S
N3503 C3495 1.427 . S
N3503 C3501 1.384 . S
H3504 C3510 0.930 . S
H3505 C3514 0.930 . S
H3506 C3519 0.929 . S
H3507 C3517 0.929 . S
H3508 C3512 0.929 . S
H3509 C3518 0.929 . S
C3510 H3504 0.930 . S
C3510 C3511 1.367 . S
C3510 C3518 1.378 . S
C3511 C3510 1.367 . S
C3511 C3519 1.433 . S
C3512 H3508 0.929 . S
C3512 C3514 1.378 . S
C3512 C3516 1.350 . S
C3513 C3516 1.463 . S
C3513 C3518 1.350 . S
C3513 N3521 1.427 . S
C3514 H3505 0.930 . S
C3514 C3512 1.378 . S
C3514 C3515 1.367 . S
C3515 C3514 1.367 . S
C3515 C3517 1.433 . S
C3516 C3512 1.350 . S
C3516 C3513 1.463 . S
C3516 N3520 1.427 . S
C3517 H3507 0.929 . S
C3517 C3515 1.433 . S
C3517 N3520 1.384 . S
C3518 H3509 0.929 . S
C3518 C3510 1.378 . S
C3518 C3513 1.350 . S
C3519 H3506 0.929 . S
C3519 C3511 1.433 . S
C3519 N3521 1.384 . S
N3520 C3516 1.427 . S
N3520 C3517 1.384 . S
N3521 C3513 1.427 . S
N3521 C3519 1.384 . S
H3522 C3528 0.930 . S
H3523 C3532 0.930 . S
H3524 C3537 0.929 . S
H3525 C3535 0.929 . S
H3526 C3530 0.929 . S
H3527 C3536 0.929 . S
C3528 H3522 0.930 . S
C3528 C3529 1.367 . S
C3528 C3536 1.378 . S
C3529 C3528 1.367 . S
C3529 C3537 1.433 . S
C3530 H3526 0.929 . S
C3530 C3532 1.378 . S
C3530 C3534 1.350 . S
C3531 C3534 1.463 . S
C3531 C3536 1.350 . S
C3531 N3539 1.427 . S
C3532 H3523 0.930 . S
C3532 C3530 1.378 . S
C3532 C3533 1.367 . S
C3533 C3532 1.367 . S
C3533 C3535 1.433 . S
C3534 C3530 1.350 . S
C3534 C3531 1.463 . S
C3534 N3538 1.427 . S
C3535 H3525 0.929 . S
C3535 C3533 1.433 . S
C3535 N3538 1.384 . S
C3536 H3527 0.929 . S
C3536 C3528 1.378 . S
C3536 C3531 1.350 . S
C3537 H3524 0.929 . S
C3537 C3529 1.433 . S
C3537 N3539 1.384 . S
N3538 C3534 1.427 . S
N3538 C3535 1.384 . S
N3539 C3531 1.427 . S
N3539 C3537 1.384 . S
H3540 C3546 0.930 . S
H3541 C3550 0.930 . S
H3542 C3555 0.929 . S
H3543 C3553 0.929 . S
H3544 C3548 0.929 . S
H3545 C3554 0.929 . S
C3546 H3540 0.930 . S
C3546 C3547 1.367 . S
C3546 C3554 1.378 . S
C3547 C3546 1.367 . S
C3547 C3555 1.433 . S
C3548 H3544 0.929 . S
C3548 C3550 1.378 . S
C3548 C3552 1.350 . S
C3549 C3552 1.463 . S
C3549 C3554 1.350 . S
C3549 N3557 1.427 . S
C3550 H3541 0.930 . S
C3550 C3548 1.378 . S
C3550 C3551 1.367 . S
C3551 C3550 1.367 . S
C3551 C3553 1.433 . S
C3552 C3548 1.350 . S
C3552 C3549 1.463 . S
C3552 N3556 1.427 . S
C3553 H3543 0.929 . S
C3553 C3551 1.433 . S
C3553 N3556 1.384 . S
C3554 H3545 0.929 . S
C3554 C3546 1.378 . S
C3554 C3549 1.350 . S
C3555 H3542 0.929 . S
C3555 C3547 1.433 . S
C3555 N3557 1.384 . S
N3556 C3552 1.427 . S
N3556 C3553 1.384 . S
N3557 C3549 1.427 . S
N3557 C3555 1.384 . S
H3558 C3564 0.930 . S
H3559 C3568 0.930 . S
H3560 C3573 0.929 . S
H3561 C3571 0.929 . S
H3562 C3566 0.929 1_455 S
H3563 C3572 0.929 1_655 S
C3564 H3558 0.930 . S
C3564 C3565 1.367 . S
C3564 C3572 1.378 . S
C3565 C3564 1.367 . S
C3565 C3573 1.433 . S
C3566 H3562 0.929 1_655 S
C3566 C3568 1.378 . S
C3566 C3570 1.350 . S
C3567 C3570 1.463 1_455 S
C3567 C3572 1.350 . S
C3567 N3575 1.427 . S
C3568 H3559 0.930 . S
C3568 C3566 1.378 . S
C3568 C3569 1.367 . S
C3569 C3568 1.367 . S
C3569 C3571 1.433 . S
C3570 C3566 1.350 . S
C3570 C3567 1.463 1_655 S
C3570 N3574 1.427 . S
C3571 H3561 0.929 . S
C3571 C3569 1.433 . S
C3571 N3574 1.384 . S
C3572 H3563 0.929 1_455 S
C3572 C3564 1.378 . S
C3572 C3567 1.350 . S
C3573 H3560 0.929 . S
C3573 C3565 1.433 . S
C3573 N3575 1.384 . S
N3574 C3570 1.427 . S
N3574 C3571 1.384 . S
N3575 C3567 1.427 . S
N3575 C3573 1.384 . S
H3576 C3582 0.930 . S
H3577 C3586 0.930 . S
H3578 C3591 0.929 . S
H3579 C3589 0.929 . S
H3580 C3584 0.929 . S
H3581 C3590 0.929 . S
C3582 H3576 0.930 . S
C3582 C3583 1.367 . S
C3582 C3590 1.378 . S
C3583 C3582 1.367 . S
C3583 C3591 1.433 . S
C3584 H3580 0.929 . S
C3584 C3586 1.378 . S
C3584 C3588 1.350 . S
C3585 C3588 1.463 . S
C3585 C3590 1.350 . S
C3585 N3593 1.427 . S
C3586 H3577 0.930 . S
C3586 C3584 1.378 . S
C3586 C3587 1.367 . S
C3587 C3586 1.367 . S
C3587 C3589 1.433 . S
C3588 C3584 1.350 . S
C3588 C3585 1.463 . S
C3588 N3592 1.427 . S
C3589 H3579 0.929 . S
C3589 C3587 1.433 . S
C3589 N3592 1.384 . S
C3590 H3581 0.929 . S
C3590 C3582 1.378 . S
C3590 C3585 1.350 . S
C3591 H3578 0.929 . S
C3591 C3583 1.433 . S
C3591 N3593 1.384 . S
N3592 C3588 1.427 . S
N3592 C3589 1.384 . S
N3593 C3585 1.427 . S
N3593 C3591 1.384 . S
H3594 C3600 0.930 . S
H3595 C3604 0.930 . S
H3596 C3609 0.929 . S
H3597 C3607 0.929 . S
H3598 C3602 0.929 . S
H3599 C3608 0.929 . S
C3600 H3594 0.930 . S
C3600 C3601 1.367 . S
C3600 C3608 1.378 . S
C3601 C3600 1.367 . S
C3601 C3609 1.433 . S
C3602 H3598 0.929 . S
C3602 C3604 1.378 . S
C3602 C3606 1.350 . S
C3603 C3606 1.463 1_554 S
C3603 C3608 1.350 . S
C3603 N3611 1.427 . S
C3604 H3595 0.930 . S
C3604 C3602 1.378 . S
C3604 C3605 1.367 . S
C3605 C3604 1.367 . S
C3605 C3607 1.433 . S
C3606 C3602 1.350 . S
C3606 C3603 1.463 1_556 S
C3606 N3610 1.427 . S
C3607 H3597 0.929 . S
C3607 C3605 1.433 . S
C3607 N3610 1.384 . S
C3608 H3599 0.929 . S
C3608 C3600 1.378 . S
C3608 C3603 1.350 . S
C3609 H3596 0.929 . S
C3609 C3601 1.433 . S
C3609 N3611 1.384 . S
N3610 C3606 1.427 . S
N3610 C3607 1.384 . S
N3611 C3603 1.427 . S
N3611 C3609 1.384 . S
H3612 C3618 0.930 . S
H3613 C3622 0.930 . S
H3614 C3627 0.929 . S
H3615 C3625 0.929 . S
H3616 C3620 0.929 1_545 S
H3617 C3626 0.929 1_565 S
C3618 H3612 0.930 . S
C3618 C3619 1.367 . S
C3618 C3626 1.378 . S
C3619 C3618 1.367 . S
C3619 C3627 1.433 . S
C3620 H3616 0.929 1_565 S
C3620 C3622 1.378 . S
C3620 C3624 1.350 . S
C3621 C3624 1.463 1_545 S
C3621 C3626 1.350 . S
C3621 N3629 1.427 . S
C3622 H3613 0.930 . S
C3622 C3620 1.378 . S
C3622 C3623 1.367 . S
C3623 C3622 1.367 . S
C3623 C3625 1.433 . S
C3624 C3620 1.350 . S
C3624 C3621 1.463 1_565 S
C3624 N3628 1.427 . S
C3625 H3615 0.929 . S
C3625 C3623 1.433 . S
C3625 N3628 1.384 . S
C3626 H3617 0.929 1_545 S
C3626 C3618 1.378 . S
C3626 C3621 1.350 . S
C3627 H3614 0.929 . S
C3627 C3619 1.433 . S
C3627 N3629 1.384 . S
N3628 C3624 1.427 . S
N3628 C3625 1.384 . S
N3629 C3621 1.427 . S
N3629 C3627 1.384 . S
H3630 C3636 0.930 . S
H3631 C3640 0.930 . S
H3632 C3645 0.929 . S
H3633 C3643 0.929 . S
H3634 C3638 0.929 . S
H3635 C3644 0.929 . S
C3636 H3630 0.930 . S
C3636 C3637 1.367 . S
C3636 C3644 1.378 . S
C3637 C3636 1.367 . S
C3637 C3645 1.433 . S
C3638 H3634 0.929 . S
C3638 C3640 1.378 . S
C3638 C3642 1.350 . S
C3639 C3642 1.463 . S
C3639 C3644 1.350 . S
C3639 N3647 1.427 . S
C3640 H3631 0.930 . S
C3640 C3638 1.378 . S
C3640 C3641 1.367 . S
C3641 C3640 1.367 . S
C3641 C3643 1.433 . S
C3642 C3638 1.350 . S
C3642 C3639 1.463 . S
C3642 N3646 1.427 . S
C3643 H3633 0.929 . S
C3643 C3641 1.433 . S
C3643 N3646 1.384 . S
C3644 H3635 0.929 . S
C3644 C3636 1.378 . S
C3644 C3639 1.350 . S
C3645 H3632 0.929 . S
C3645 C3637 1.433 . S
C3645 N3647 1.384 . S
N3646 C3642 1.427 . S
N3646 C3643 1.384 . S
N3647 C3639 1.427 . S
N3647 C3645 1.384 . S
H3648 C3654 0.930 . S
H3649 C3658 0.930 . S
H3650 C3663 0.929 . S
H3651 C3661 0.929 . S
H3652 C3656 0.929 . S
H3653 C3662 0.929 . S
C3654 H3648 0.930 . S
C3654 C3655 1.367 . S
C3654 C3662 1.378 . S
C3655 C3654 1.367 . S
C3655 C3663 1.433 . S
C3656 H3652 0.929 . S
C3656 C3658 1.378 . S
C3656 C3660 1.350 . S
C3657 C3660 1.463 . S
C3657 C3662 1.350 . S
C3657 N3665 1.427 . S
C3658 H3649 0.930 . S
C3658 C3656 1.378 . S
C3658 C3659 1.367 . S
C3659 C3658 1.367 . S
C3659 C3661 1.433 . S
C3660 C3656 1.350 . S
C3660 C3657 1.463 . S
C3660 N3664 1.427 . S
C3661 H3651 0.929 . S
C3661 C3659 1.433 . S
C3661 N3664 1.384 . S
C3662 H3653 0.929 . S
C3662 C3654 1.378 . S
C3662 C3657 1.350 . S
C3663 H3650 0.929 . S
C3663 C3655 1.433 . S
C3663 N3665 1.384 . S
N3664 C3660 1.427 . S
N3664 C3661 1.384 . S
N3665 C3657 1.427 . S
N3665 C3663 1.384 . S
H3666 C3672 0.930 . S
H3667 C3676 0.930 . S
H3668 C3681 0.929 . S
H3669 C3679 0.929 . S
H3670 C3674 0.929 . S
H3671 C3680 0.929 . S
C3672 H3666 0.930 . S
C3672 C3673 1.367 . S
C3672 C3680 1.378 . S
C3673 C3672 1.367 . S
C3673 C3681 1.433 . S
C3674 H3670 0.929 . S
C3674 C3676 1.378 . S
C3674 C3678 1.350 . S
C3675 C3678 1.463 . S
C3675 C3680 1.350 . S
C3675 N3683 1.427 . S
C3676 H3667 0.930 . S
C3676 C3674 1.378 . S
C3676 C3677 1.367 . S
C3677 C3676 1.367 . S
C3677 C3679 1.433 . S
C3678 C3674 1.350 . S
C3678 C3675 1.463 . S
C3678 N3682 1.427 . S
C3679 H3669 0.929 . S
C3679 C3677 1.433 . S
C3679 N3682 1.384 . S
C3680 H3671 0.929 . S
C3680 C3672 1.378 . S
C3680 C3675 1.350 . S
C3681 H3668 0.929 . S
C3681 C3673 1.433 . S
C3681 N3683 1.384 . S
N3682 C3678 1.427 . S
N3682 C3679 1.384 . S
N3683 C3675 1.427 . S
N3683 C3681 1.384 . S
H3684 C3690 0.930 . S
H3685 C3694 0.930 . S
H3686 C3699 0.929 . S
H3687 C3697 0.929 . S
H3688 C3692 0.928 . S
H3689 C3698 0.928 . S
C3690 H3684 0.930 . S
C3690 C3691 1.367 . S
C3690 C3698 1.378 1_455 S
C3691 C3690 1.367 . S
C3691 C3699 1.433 . S
C3692 H3688 0.928 . S
C3692 C3694 1.378 1_455 S
C3692 C3696 1.350 1_455 S
C3693 C3696 1.463 1_455 S
C3693 C3698 1.350 1_455 S
C3693 N3701 1.427 . S
C3694 H3685 0.930 . S
C3694 C3692 1.378 1_655 S
C3694 C3695 1.367 . S
C3695 C3694 1.367 . S
C3695 C3697 1.433 . S
C3696 C3692 1.350 1_655 S
C3696 C3693 1.463 1_655 S
C3696 N3700 1.427 . S
C3697 H3687 0.929 . S
C3697 C3695 1.433 . S
C3697 N3700 1.384 . S
C3698 H3689 0.928 . S
C3698 C3690 1.378 1_655 S
C3698 C3693 1.350 1_655 S
C3699 H3686 0.929 . S
C3699 C3691 1.433 . S
C3699 N3701 1.384 . S
N3700 C3696 1.427 . S
N3700 C3697 1.384 . S
N3701 C3693 1.427 . S
N3701 C3699 1.384 . S
H3702 C3708 0.930 . S
H3703 C3712 0.930 . S
H3704 C3717 0.929 . S
H3705 C3715 0.929 . S
H3706 C3710 0.929 . S
H3707 C3716 0.929 . S
C3708 H3702 0.930 . S
C3708 C3709 1.367 . S
C3708 C3716 1.378 . S
C3709 C3708 1.367 . S
C3709 C3717 1.433 . S
C3710 H3706 0.929 . S
C3710 C3712 1.378 . S
C3710 C3714 1.350 . S
C3711 C3714 1.463 1_455 S
C3711 C3716 1.350 . S
C3711 N3719 1.427 . S
C3712 H3703 0.930 . S
C3712 C3710 1.378 . S
C3712 C3713 1.367 . S
C3713 C3712 1.367 . S
C3713 C3715 1.433 . S
C3714 C3710 1.350 . S
C3714 C3711 1.463 1_655 S
C3714 N3718 1.427 . S
C3715 H3705 0.929 . S
C3715 C3713 1.433 . S
C3715 N3718 1.384 . S
C3716 H3707 0.929 . S
C3716 C3708 1.378 . S
C3716 C3711 1.350 . S
C3717 H3704 0.929 . S
C3717 C3709 1.433 . S
C3717 N3719 1.384 . S
N3718 C3714 1.427 . S
N3718 C3715 1.384 . S
N3719 C3711 1.427 . S
N3719 C3717 1.384 . S
H3720 C3726 0.930 . S
H3721 C3730 0.930 . S
H3722 C3735 0.929 . S
H3723 C3733 0.929 . S
H3724 C3728 0.929 1_455 S
H3725 C3734 0.929 1_655 S
C3726 H3720 0.930 . S
C3726 C3727 1.367 . S
C3726 C3734 1.378 . S
C3727 C3726 1.367 . S
C3727 C3735 1.433 . S
C3728 H3724 0.929 1_655 S
C3728 C3730 1.378 . S
C3728 C3732 1.350 . S
C3729 C3732 1.463 1_455 S
C3729 C3734 1.350 . S
C3729 N3737 1.427 . S
C3730 H3721 0.930 . S
C3730 C3728 1.378 . S
C3730 C3731 1.367 . S
C3731 C3730 1.367 . S
C3731 C3733 1.433 . S
C3732 C3728 1.350 . S
C3732 C3729 1.463 1_655 S
C3732 N3736 1.427 . S
C3733 H3723 0.929 . S
C3733 C3731 1.433 . S
C3733 N3736 1.384 . S
C3734 H3725 0.929 1_455 S
C3734 C3726 1.378 . S
C3734 C3729 1.350 . S
C3735 H3722 0.929 . S
C3735 C3727 1.433 . S
C3735 N3737 1.384 . S
N3736 C3732 1.427 . S
N3736 C3733 1.384 . S
N3737 C3729 1.427 . S
N3737 C3735 1.384 . S
H3738 C3744 0.930 . S
H3739 C3748 0.930 . S
H3740 C3753 0.929 . S
H3741 C3751 0.929 . S
H3742 C3746 0.929 . S
H3743 C3752 0.929 . S
C3744 H3738 0.930 . S
C3744 C3745 1.367 . S
C3744 C3752 1.378 . S
C3745 C3744 1.367 . S
C3745 C3753 1.433 . S
C3746 H3742 0.929 . S
C3746 C3748 1.378 . S
C3746 C3750 1.350 . S
C3747 C3750 1.463 . S
C3747 C3752 1.350 . S
C3747 N3755 1.427 . S
C3748 H3739 0.930 . S
C3748 C3746 1.378 . S
C3748 C3749 1.367 . S
C3749 C3748 1.367 . S
C3749 C3751 1.433 . S
C3750 C3746 1.350 . S
C3750 C3747 1.463 . S
C3750 N3754 1.427 . S
C3751 H3741 0.929 . S
C3751 C3749 1.433 . S
C3751 N3754 1.384 . S
C3752 H3743 0.929 . S
C3752 C3744 1.378 . S
C3752 C3747 1.350 . S
C3753 H3740 0.929 . S
C3753 C3745 1.433 . S
C3753 N3755 1.384 . S
N3754 C3750 1.427 . S
N3754 C3751 1.384 . S
N3755 C3747 1.427 . S
N3755 C3753 1.384 . S
H3756 C3762 0.930 . S
H3757 C3766 0.930 . S
H3758 C3771 0.929 . S
H3759 C3769 0.929 . S
H3760 C3764 0.929 . S
H3761 C3770 0.929 . S
C3762 H3756 0.930 . S
C3762 C3763 1.367 . S
C3762 C3770 1.378 . S
C3763 C3762 1.367 . S
C3763 C3771 1.433 . S
C3764 H3760 0.929 . S
C3764 C3766 1.378 . S
C3764 C3768 1.350 . S
C3765 C3768 1.463 1_565 S
C3765 C3770 1.350 . S
C3765 N3773 1.427 . S
C3766 H3757 0.930 . S
C3766 C3764 1.378 . S
C3766 C3767 1.367 . S
C3767 C3766 1.367 . S
C3767 C3769 1.433 . S
C3768 C3764 1.350 . S
C3768 C3765 1.463 1_545 S
C3768 N3772 1.427 . S
C3769 H3759 0.929 . S
C3769 C3767 1.433 . S
C3769 N3772 1.384 . S
C3770 H3761 0.929 . S
C3770 C3762 1.378 . S
C3770 C3765 1.350 . S
C3771 H3758 0.929 . S
C3771 C3763 1.433 . S
C3771 N3773 1.384 . S
N3772 C3768 1.427 . S
N3772 C3769 1.384 . S
N3773 C3765 1.427 . S
N3773 C3771 1.384 . S
H3774 C3780 0.930 . S
H3775 C3784 0.930 . S
H3776 C3789 0.929 . S
H3777 C3787 0.929 . S
H3778 C3782 0.929 . S
H3779 C3788 0.929 . S
C3780 H3774 0.930 . S
C3780 C3781 1.367 . S
C3780 C3788 1.378 . S
C3781 C3780 1.367 . S
C3781 C3789 1.433 . S
C3782 H3778 0.929 . S
C3782 C3784 1.378 . S
C3782 C3786 1.350 . S
C3783 C3786 1.463 1_554 S
C3783 C3788 1.350 . S
C3783 N3791 1.427 . S
C3784 H3775 0.930 . S
C3784 C3782 1.378 . S
C3784 C3785 1.367 . S
C3785 C3784 1.367 . S
C3785 C3787 1.433 . S
C3786 C3782 1.350 . S
C3786 C3783 1.463 1_556 S
C3786 N3790 1.427 . S
C3787 H3777 0.929 . S
C3787 C3785 1.433 . S
C3787 N3790 1.384 . S
C3788 H3779 0.929 . S
C3788 C3780 1.378 . S
C3788 C3783 1.350 . S
C3789 H3776 0.929 . S
C3789 C3781 1.433 . S
C3789 N3791 1.384 . S
N3790 C3786 1.427 . S
N3790 C3787 1.384 . S
N3791 C3783 1.427 . S
N3791 C3789 1.384 . S
C1639 C927 1.291 . S
C1643 C20 1.322 . S
C1657 C54 1.323 . S
C1661 C825 1.286 . S
C1675 C88 1.329 . S
C1679 C859 1.291 . S
C1693 C893 1.288 . S
C1697 C122 1.329 . S
C1711 C156 1.327 . S
C1715 C179 1.300 . S
C1729 C213 1.289 . S
C1733 C190 1.323 . S
C1747 C247 1.287 . S
C1751 C224 1.329 . S
C1765 C258 1.324 . S
C1769 C145 1.300 . S
C1783 C292 1.329 . S
C1787 C1437 1.294 . S
C1801 C326 1.329 . S
C1805 C1471 1.288 . S
C1819 C360 1.322 . S
C1823 C689 1.293 . S
C1837 C1403 1.285 . S
C1841 C394 1.324 . S
C1855 C1573 1.300 . S
C1859 C428 1.326 . S
C1873 C553 1.285 . S
C1877 C462 1.328 . S
C1891 C496 1.322 . S
C1895 C1607 1.296 . S
C1909 C530 1.329 . S
C1913 C1539 1.287 . S
C1927 C315 1.291 . S
C1931 C564 1.322 . S
C1945 C1335 1.289 . S
C1949 C598 1.329 . S
C1963 C1233 1.294 . S
C1967 C632 1.322 . S
C1981 C1267 1.284 . S
C1985 C666 1.325 . S
C1999 C700 1.329 . S
C2003 C485 1.287 . S
C2017 C734 1.329 . S
C2021 C1199 1.288 . S
C2035 C1097 1.288 . S
C2039 C768 1.323 . S
C2053 C802 1.324 . S
C2057 C1165 1.285 . S
C2071 C836 1.327 . S
C2075 C111 1.299 . S
C2089 C870 1.323 . S
C2093 C9 1.286 . S
C2107 C43 1.284 . S
C2111 C904 1.326 . S
C2125 C77 1.299 . S
C2129 C938 1.324 . S
C2143 C995 1.291 . S
C2147 C972 1.329 . S
C2161 C1029 1.292 . S
C2165 C1006 1.329 . S
C2179 C1040 1.327 . S
C2183 C1063 1.285 . S
C2197 C1074 1.325 . S
C2201 C961 1.284 . S
C2215 C1108 1.329 . S
C2219 C621 1.296 . S
C2233 C655 1.285 . S
C2237 C1142 1.324 . S
C2251 C1505 1.284 . S
C2255 C1176 1.325 . S
C2269 C1210 1.322 . S
C2273 C587 1.290 . S
C2287 C757 1.299 . S
C2291 C1244 1.327 . S
C2305 C1278 1.329 . S
C2309 C1369 1.289 . S
C2323 C1312 1.323 . S
C2327 C791 1.297 . S
C2341 C723 1.284 . S
C2345 C1346 1.325 . S
C2359 C1131 1.299 . S
C2363 C1380 1.327 . S
C2377 C519 1.293 . S
C2381 C1414 1.329 . S
C2395 C1448 1.329 . S
C2399 C417 1.287 . S
C2413 C451 1.289 . S
C2417 C1482 1.322 . S
C2431 C1516 1.328 . S
C2435 C1301 1.298 . S
C2449 C1550 1.329 . S
C2453 C383 1.288 . S
C2467 C281 1.299 . S
C2471 C1584 1.324 . S
C2485 C349 1.295 . S
C2489 C1618 1.329 . S
C2503 C1430 0.853 . S
C2507 C33 0.865 . S
C2521 C1464 0.854 . S
C2525 C67 0.850 . S
C2539 C682 0.859 . S
C2543 C101 0.865 . S
C2557 C1396 0.861 . S
C2561 C135 0.843 . S
C2575 C169 0.850 . S
C2579 C1566 0.868 . S
C2593 C546 0.867 . S
C2597 C203 0.845 . S
C2611 C1600 0.865 . S
C2615 C237 0.860 . S
C2629 C271 0.843 . S
C2633 C1532 0.864 . S
C2647 C305 0.862 . S
C2651 C308 0.863 . S
C2665 C342 0.866 . S
C2669 C339 0.843 . S
C2683 C376 0.851 . S
C2687 C373 0.856 . S
C2701 C274 0.857 . S
C2705 C407 0.846 . S
C2719 C1328 0.868 . S
C2723 C441 0.850 . S
C2737 C1226 0.853 . S
C2741 C475 0.864 . S
C2755 C1260 0.851 . S
C2759 C509 0.857 . S
C2773 C543 0.844 . S
C2777 C1294 0.859 . S
C2791 C920 0.856 . S
C2795 C577 0.866 . S
C2809 C611 0.862 . S
C2813 C172 0.852 . S
C2827 C206 0.856 . S
C2831 C645 0.847 . S
C2845 C240 0.862 . S
C2849 C679 0.843 . S
C2863 C713 0.847 . S
C2867 C954 0.856 . S
C2881 C36 0.862 . S
C2885 C747 0.843 . S
C2899 C781 0.859 . S
C2903 C70 0.851 . S
C2917 C815 0.857 . S
C2921 C2 0.851 . S
C2935 C614 0.862 . S
C2939 C849 0.843 . S
C2953 C648 0.868 . S
C2957 C883 0.847 . S
C2971 C917 0.863 . S
C2975 C1498 0.862 . S
C2989 C951 0.843 . S
C2993 C580 0.865 . S
C3007 C750 0.863 . S
C3011 C985 0.862 . S
C3025 C1362 0.857 . S
C3029 C1019 0.846 . S
C3043 C784 0.868 . S
C3047 C1053 0.848 . S
C3061 C1087 0.848 . S
C3065 C716 0.868 . S
C3079 C1121 0.855 . S
C3083 C1124 0.867 . S
C3097 C1158 0.852 . S
C3101 C1155 0.864 . S
C3115 C1189 0.845 . S
C3119 C1192 0.858 . S
C3133 C1223 0.859 . S
C3137 C1090 0.865 . S
C3151 C1257 0.844 . S
C3155 C512 0.860 . S
C3169 C410 0.867 . S
C3173 C1291 0.845 . S
C3187 C444 0.851 . S
C3191 C1325 0.857 . S
C3205 C478 0.851 . S
C3209 C1359 0.859 . S
C3223 C104 0.855 . S
C3227 C1393 0.866 . S
C3241 C988 0.862 . S
C3245 C1427 0.843 . S
C3259 C1461 0.862 . S
C3263 C1022 0.852 . S
C3277 C1495 0.851 . S
C3281 C1056 0.868 . S
C3295 C1529 0.855 . S
C3299 C138 0.867 . S
C3313 C1563 0.863 . S
C3317 C852 0.852 . S
C3331 C1597 0.845 . S
C3335 C886 0.867 . S
C3349 C818 0.868 . S
C3353 C1631 0.851 . S
C3367 C5 0.811 . S
C3371 C1025 0.826 . S
C3385 C39 0.823 . S
C3389 C1059 0.811 . S
C3403 C957 0.816 . S
C3407 C73 0.833 . S
C3421 C991 0.822 . S
C3425 C107 0.812 . S
C3439 C141 0.824 . S
C3443 C889 0.811 . S
C3457 C923 0.825 . S
C3461 C175 0.832 . S
C3475 C821 0.830 . S
C3479 C209 0.828 . S
C3493 C855 0.823 . S
C3497 C243 0.812 . S
C3511 C277 0.826 . S
C3515 C345 0.811 . S
C3529 C311 0.833 . S
C3533 C379 0.819 . S
C3547 C481 0.832 . S
C3551 C413 0.814 . S
C3565 C447 0.826 . S
C3569 C515 0.831 . S
C3583 C549 0.811 . S
C3587 C583 0.828 . S
C3601 C1603 0.812 . S
C3605 C617 0.820 . S
C3619 C1535 0.826 . S
C3623 C651 0.811 . S
C3637 C685 0.812 . S
C3641 C753 0.820 . S
C3655 C719 0.825 . S
C3659 C1467 0.832 . S
C3673 C787 0.815 . S
C3677 C1433 0.832 . S
C3691 C1161 0.819 . S
C3695 C1093 0.813 . S
C3709 C1195 0.822 . S
C3713 C1127 0.812 . S
C3727 C1297 0.821 . S
C3731 C1229 0.812 . S
C3745 C1331 0.832 . S
C3749 C1263 0.814 . S
C3763 C1365 0.834 . S
C3767 C1399 0.819 . S
C3781 C1569 0.829 . S
C3785 C1501 0.812 . S
