# Generated by pormake.
# Topology wfa, (4)-cn, num edge types: 1
# Building blocks:
#     Node 0, Type 0, BuildingBlock: CEKHIL_clean_sbu_0, # of connection points: 4
#     Node 1, Type 0, BuildingBlock: CEKHIL_clean_sbu_0, # of connection points: 4
#     Node 2, Type 0, BuildingBlock: CEKHIL_clean_sbu_0, # of connection points: 4
#     Node 3, Type 0, BuildingBlock: CEKHIL_clean_sbu_0, # of connection points: 4
#     Node 4, Type 0, BuildingBlock: CEKHIL_clean_sbu_0, # of connection points: 4
#     Node 5, Type 0, BuildingBlock: CEKHIL_clean_sbu_0, # of connection points: 4
#     Node 6, Type 0, BuildingBlock: CEKHIL_clean_sbu_0, # of connection points: 4
#     Node 7, Type 0, BuildingBlock: CEKHIL_clean_sbu_0, # of connection points: 4
#     Node 8, Type 0, BuildingBlock: CEKHIL_clean_sbu_0, # of connection points: 4
#     Node 9, Type 0, BuildingBlock: CEKHIL_clean_sbu_0, # of connection points: 4
#     Node 10, Type 0, BuildingBlock: CEKHIL_clean_sbu_0, # of connection points: 4
#     Node 11, Type 0, BuildingBlock: CEKHIL_clean_sbu_0, # of connection points: 4
#     Node 12, Type 0, BuildingBlock: CEKHIL_clean_sbu_0, # of connection points: 4
#     Node 13, Type 0, BuildingBlock: CEKHIL_clean_sbu_0, # of connection points: 4
#     Node 14, Type 0, BuildingBlock: CEKHIL_clean_sbu_0, # of connection points: 4
#     Node 15, Type 0, BuildingBlock: CEKHIL_clean_sbu_0, # of connection points: 4
#     Edge 16, Type (0, 0), BuildingBlock: KIFKEQ_clean_linker_1, # of connection points: 2
#     Edge 17, Type (0, 0), BuildingBlock: KIFKEQ_clean_linker_1, # of connection points: 2
#     Edge 18, Type (0, 0), BuildingBlock: KIFKEQ_clean_linker_1, # of connection points: 2
#     Edge 19, Type (0, 0), BuildingBlock: KIFKEQ_clean_linker_1, # of connection points: 2
#     Edge 20, Type (0, 0), BuildingBlock: KIFKEQ_clean_linker_1, # of connection points: 2
#     Edge 21, Type (0, 0), BuildingBlock: KIFKEQ_clean_linker_1, # of connection points: 2
#     Edge 22, Type (0, 0), BuildingBlock: KIFKEQ_clean_linker_1, # of connection points: 2
#     Edge 23, Type (0, 0), BuildingBlock: KIFKEQ_clean_linker_1, # of connection points: 2
#     Edge 24, Type (0, 0), BuildingBlock: KIFKEQ_clean_linker_1, # of connection points: 2
#     Edge 25, Type (0, 0), BuildingBlock: KIFKEQ_clean_linker_1, # of connection points: 2
#     Edge 26, Type (0, 0), BuildingBlock: KIFKEQ_clean_linker_1, # of connection points: 2
#     Edge 27, Type (0, 0), BuildingBlock: KIFKEQ_clean_linker_1, # of connection points: 2
#     Edge 28, Type (0, 0), BuildingBlock: KIFKEQ_clean_linker_1, # of connection points: 2
#     Edge 29, Type (0, 0), BuildingBlock: KIFKEQ_clean_linker_1, # of connection points: 2
#     Edge 30, Type (0, 0), BuildingBlock: KIFKEQ_clean_linker_1, # of connection points: 2
#     Edge 31, Type (0, 0), BuildingBlock: KIFKEQ_clean_linker_1, # of connection points: 2
#     Edge 32, Type (0, 0), BuildingBlock: KIFKEQ_clean_linker_1, # of connection points: 2
#     Edge 33, Type (0, 0), BuildingBlock: KIFKEQ_clean_linker_1, # of connection points: 2
#     Edge 34, Type (0, 0), BuildingBlock: KIFKEQ_clean_linker_1, # of connection points: 2
#     Edge 35, Type (0, 0), BuildingBlock: KIFKEQ_clean_linker_1, # of connection points: 2
#     Edge 36, Type (0, 0), BuildingBlock: KIFKEQ_clean_linker_1, # of connection points: 2
#     Edge 37, Type (0, 0), BuildingBlock: KIFKEQ_clean_linker_1, # of connection points: 2
#     Edge 38, Type (0, 0), BuildingBlock: KIFKEQ_clean_linker_1, # of connection points: 2
#     Edge 39, Type (0, 0), BuildingBlock: KIFKEQ_clean_linker_1, # of connection points: 2
#     Edge 40, Type (0, 0), BuildingBlock: KIFKEQ_clean_linker_1, # of connection points: 2
#     Edge 41, Type (0, 0), BuildingBlock: KIFKEQ_clean_linker_1, # of connection points: 2
#     Edge 42, Type (0, 0), BuildingBlock: KIFKEQ_clean_linker_1, # of connection points: 2
#     Edge 43, Type (0, 0), BuildingBlock: KIFKEQ_clean_linker_1, # of connection points: 2
#     Edge 44, Type (0, 0), BuildingBlock: KIFKEQ_clean_linker_1, # of connection points: 2
#     Edge 45, Type (0, 0), BuildingBlock: KIFKEQ_clean_linker_1, # of connection points: 2
#     Edge 46, Type (0, 0), BuildingBlock: KIFKEQ_clean_linker_1, # of connection points: 2
#     Edge 47, Type (0, 0), BuildingBlock: KIFKEQ_clean_linker_1, # of connection points: 2
# Relax obj value: 0.216
# Max RMSD: 0.275
# Mean RMSD: 0.269
data_MOF--net-wfa--node1-CEKHIL_clean_sbu_0--edge1-KIFKEQ_clean_linker_1
_symmetry_space_group_name_H-M    P1
_symmetry_Int_Tables_number       1
_symmetry_cell_setting            triclinic
loop_
_symmetry_equiv_pos_as_xyz
'x, y, z'
_cell_length_a     46.355818
_cell_length_b     46.360284
_cell_length_c     23.909357
_cell_angle_alpha  89.69088
_cell_angle_beta   89.653816
_cell_angle_gamma 89.539859
loop_
_atom_site_label
_atom_site_type_symbol
_atom_site_fract_x
_atom_site_fract_y
_atom_site_fract_z
_atom_type_partial_charge
Co0 Co 0.65164 0.98266 0.04246 0.0
O1 O 0.66981 0.95407 0.99502 0.0
O2 O 0.68403 0.99936 1.00299 0.0
C3 C 0.60536 0.97468 0.01622 0.0
O4 O 0.63824 0.01825 0.08522 0.0
Co5 Co 0.60762 0.96485 0.13554 0.0
O6 O 0.598 0.0066 0.13312 0.0
C7 C 0.67054 0.9628 0.15905 0.0
C8 C 0.68705 0.97444 0.97892 0.0
C9 C 0.61596 0.02507 0.11476 0.0
O10 O 0.67665 0.97147 0.10891 0.0
O11 O 0.64479 0.95742 0.1756 0.0
O12 O 0.62238 0.99024 0.98541 0.0
O13 O 0.61773 0.96171 0.05771 0.0
Co14 Co 0.51599 0.65647 0.04198 0.0
O15 O 0.54328 0.67099 0.98776 0.0
O16 O 0.50138 0.69172 0.00766 0.0
C17 C 0.51718 0.60995 0.01292 0.0
O18 O 0.48209 0.64691 0.09338 0.0
Co19 Co 0.53513 0.60956 0.12856 0.0
O20 O 0.49277 0.60465 0.13565 0.0
C21 C 0.54395 0.6716 0.15379 0.0
C22 C 0.52474 0.69134 0.97714 0.0
C23 C 0.47508 0.62481 0.12312 0.0
O24 O 0.53377 0.67913 0.1056 0.0
O25 O 0.54757 0.64521 0.1686 0.0
O26 O 0.50151 0.62903 0.98701 0.0
O27 O 0.53396 0.62016 0.05077 0.0
Co28 Co 0.8436 0.52294 0.04749 0.0
O29 O 0.82911 0.54902 0.99087 0.0
O30 O 0.80955 0.50706 0.01238 0.0
C31 C 0.89091 0.52425 0.0217 0.0
O32 O 0.85341 0.49025 0.10166 0.0
Co33 Co 0.8869 0.54764 0.13511 0.0
O34 O 0.88604 0.50732 0.16279 0.0
C35 C 0.82431 0.55442 0.15481 0.0
C36 C 0.80948 0.53001 0.98074 0.0
C37 C 0.86987 0.48735 0.14458 0.0
O38 O 0.81875 0.54113 0.10875 0.0
O39 O 0.84987 0.56124 0.16937 0.0
O40 O 0.87289 0.50819 0.99494 0.0
O41 O 0.87911 0.54164 0.05721 0.0
Co42 Co 0.99113 0.84608 0.03718 0.0
O43 O 0.96366 0.83146 0.98418 0.0
O44 O 0.00545 0.81059 1.00357 0.0
C45 C 0.99013 0.89259 0.00653 0.0
O46 O 0.02521 0.85553 0.08725 0.0
Co47 Co 0.9728 0.89343 0.12282 0.0
O48 O 0.01522 0.89826 0.12759 0.0
C49 C 0.96352 0.83154 0.15063 0.0
C50 C 0.98203 0.81092 0.97376 0.0
C51 C 0.03263 0.87777 0.11559 0.0
O52 O 0.97332 0.82374 0.10221 0.0
O53 O 0.96033 0.85802 0.1647 0.0
O54 O 0.00566 0.87332 0.98086 0.0
O55 O 0.97342 0.8826 0.04531 0.0
Co56 Co 0.15504 0.01076 0.47368 0.0
O57 O 0.17006 0.03884 0.52485 0.0
O58 O 0.19063 0.99667 0.50705 0.0
C59 C 0.10881 0.01255 0.50549 0.0
O60 O 0.14508 0.97614 0.42542 0.0
Co61 Co 0.10721 0.02825 0.3885 0.0
O62 O 0.10207 0.9858 0.38603 0.0
C63 C 0.16896 0.03697 0.35883 0.0
C64 C 0.19054 0.02049 0.53569 0.0
C65 C 0.12259 0.96845 0.39812 0.0
O66 O 0.17704 0.02765 0.40739 0.0
O67 O 0.14241 0.04012 0.34527 0.0
O68 O 0.12807 0.99711 0.53136 0.0
O69 O 0.11869 0.02863 0.46561 0.0
Co70 Co 0.48394 0.15603 0.47245 0.0
O71 O 0.45738 0.171 0.52768 0.0
O72 O 0.50048 0.18906 0.50948 0.0
C73 C 0.48114 0.10881 0.49638 0.0
O74 O 0.51713 0.14591 0.41986 0.0
Co75 Co 0.46123 0.1141 0.38128 0.0
O76 O 0.50319 0.10766 0.3691 0.0
C77 C 0.45495 0.17706 0.3644 0.0
C78 C 0.47692 0.18987 0.53938 0.0
C79 C 0.52226 0.12541 0.3851 0.0
O80 O 0.4673 0.18172 0.41168 0.0
O81 O 0.44878 0.15178 0.34694 0.0
O82 O 0.49728 0.12624 0.52441 0.0
O83 O 0.46433 0.12113 0.46036 0.0
Co84 Co 0.34615 0.48683 0.47656 0.0
O85 O 0.3297 0.45886 0.52745 0.0
O86 O 0.31326 0.50337 0.51562 0.0
C87 C 0.39303 0.48057 0.50087 0.0
O88 O 0.35788 0.52163 0.42942 0.0
Co89 Co 0.38841 0.4662 0.38244 0.0
O90 O 0.39632 0.50816 0.37724 0.0
C91 C 0.32555 0.46192 0.36504 0.0
C92 C 0.31139 0.47882 0.54198 0.0
C93 C 0.37896 0.5273 0.39599 0.0
O94 O 0.32068 0.47376 0.41296 0.0
O95 O 0.35085 0.45508 0.34754 0.0
O96 O 0.37581 0.49628 0.53122 0.0
O97 O 0.38055 0.46629 0.46166 0.0
Co98 Co 0.02011 0.34582 0.45285 0.0
O99 O 0.04692 0.33283 0.50915 0.0
O100 O 0.00571 0.31141 0.4905 0.0
C101 C 0.0197 0.39327 0.47678 0.0
O102 O 0.98686 0.35414 0.3996 0.0
Co103 Co 0.04283 0.38957 0.36287 0.0
O104 O 0.00231 0.38766 0.33755 0.0
C105 C 0.05111 0.32701 0.3445 0.0
C106 C 0.02874 0.31263 0.52132 0.0
C107 C 0.98307 0.37072 0.35684 0.0
O108 O 0.03894 0.32121 0.39202 0.0
O109 O 0.05659 0.35276 0.32828 0.0
O110 O 0.00423 0.37475 0.50431 0.0
O111 O 0.03762 0.38203 0.4414 0.0
Co112 Co 0.34376 0.01122 0.97035 0.0
O113 O 0.32849 0.03884 0.02309 0.0
O114 O 0.30842 0.99694 1.00435 0.0
C115 C 0.39009 0.01235 1.00031 0.0
O116 O 0.35402 0.97702 0.92056 0.0
Co117 Co 0.39116 0.0295 0.88411 0.0
O118 O 0.39664 0.98707 0.87947 0.0
C119 C 0.32921 0.03855 0.85691 0.0
C120 C 0.30824 0.02047 0.03386 0.0
C121 C 0.37647 0.96962 0.89198 0.0
O122 O 0.32139 0.02877 0.9054 0.0
O123 O 0.35567 0.04186 0.84262 0.0
O124 O 0.37105 0.9969 0.02652 0.0
O125 O 0.3799 0.02897 0.96159 0.0
Co126 Co 0.48611 0.34797 0.97374 0.0
O127 O 0.45752 0.33242 0.02432 0.0
O128 O 0.50176 0.31499 0.0137 0.0
C129 C 0.48058 0.39506 0.99705 0.0
O130 O 0.5214 0.3587 0.92711 0.0
Co131 Co 0.46694 0.3902 0.87849 0.0
O132 O 0.50909 0.3972 0.87412 0.0
C133 C 0.46109 0.32738 0.86241 0.0
C134 C 0.47701 0.31378 0.03956 0.0
C135 C 0.52774 0.37951 0.89352 0.0
O136 O 0.4728 0.32247 0.9104 0.0
O137 O 0.45485 0.35274 0.84444 0.0
O138 O 0.49586 0.37776 0.02801 0.0
O139 O 0.46632 0.38264 0.95778 0.0
Co140 Co 0.15379 0.48952 0.97671 0.0
O141 O 0.16894 0.46233 0.03059 0.0
O142 O 0.18735 0.50534 0.01321 0.0
C143 C 0.10674 0.48693 1.00246 0.0
O144 O 0.14361 0.52326 0.92547 0.0
Co145 Co 0.1108 0.46837 0.88626 0.0
O146 O 0.10417 0.51051 0.87713 0.0
C147 C 0.17353 0.46118 0.86701 0.0
C148 C 0.18813 0.48155 0.04234 0.0
C149 C 0.12252 0.52914 0.89251 0.0
O150 O 0.17877 0.47305 0.91454 0.0
O151 O 0.148 0.45563 0.85014 0.0
O152 O 0.1246 0.50273 0.03018 0.0
O153 O 0.11854 0.4704 0.96525 0.0
Co154 Co 0.02527 0.15507 0.9552 0.0
O155 O 0.05182 0.16909 0.01047 0.0
O156 O 0.00933 0.18889 0.99261 0.0
C157 C 0.02761 0.10759 0.97983 0.0
O158 O 0.99209 0.14556 0.90293 0.0
Co159 Co 0.04977 0.11232 0.86499 0.0
O160 O 0.00911 0.1132 0.84021 0.0
C161 C 0.05472 0.17512 0.8459 0.0
C162 C 0.03263 0.18857 0.02277 0.0
C163 C 0.98905 0.12925 0.85995 0.0
O164 O 0.04224 0.18039 0.89332 0.0
O165 O 0.06172 0.14965 0.83015 0.0
O166 O 0.01161 0.1255 0.00797 0.0
O167 O 0.0444 0.11956 0.94342 0.0
Co168 Co 0.84585 0.98467 0.54443 0.0
O169 O 0.8313 0.96043 0.48598 0.0
O170 O 0.81408 0.00379 0.50619 0.0
C171 C 0.89343 0.97972 0.5241 0.0
O172 O 0.85643 0.01571 0.60058 0.0
Co173 Co 0.88305 0.95427 0.63657 0.0
O174 O 0.88471 0.99422 0.6655 0.0
C175 C 0.82005 0.95279 0.6465 0.0
C176 C 0.81325 0.98108 0.47442 0.0
C177 C 0.87135 0.01618 0.64586 0.0
O178 O 0.81795 0.96835 0.60183 0.0
O179 O 0.84397 0.94242 0.6643 0.0
O180 O 0.87729 0.99736 0.49562 0.0
O181 O 0.87956 0.96282 0.55782 0.0
Co182 Co 0.5157 0.84634 0.5377 0.0
O183 O 0.54422 0.83108 0.4863 0.0
O184 O 0.50145 0.8118 0.502 0.0
C185 C 0.51867 0.89314 0.50932 0.0
O186 O 0.48049 0.85658 0.58534 0.0
Co187 Co 0.53262 0.89217 0.62681 0.0
O188 O 0.4902 0.8981 0.62963 0.0
C189 C 0.54112 0.82985 0.65177 0.0
C190 C 0.52562 0.81137 0.47402 0.0
C191 C 0.47276 0.87851 0.61477 0.0
O192 O 0.53134 0.82278 0.60321 0.0
O193 O 0.54487 0.85606 0.6666 0.0
O194 O 0.50356 0.87484 0.48117 0.0
O195 O 0.53384 0.88194 0.54907 0.0
Co196 Co 0.65435 0.51822 0.54607 0.0
O197 O 0.66771 0.54704 0.49381 0.0
O198 O 0.6898 0.50539 0.50974 0.0
C199 C 0.60764 0.51877 0.51798 0.0
O200 O 0.64608 0.48302 0.59489 0.0
Co201 Co 0.60735 0.53413 0.63496 0.0
O202 O 0.60359 0.49154 0.63817 0.0
C203 C 0.66923 0.54427 0.65979 0.0
C204 C 0.68849 0.52934 0.48112 0.0
C205 C 0.62424 0.47472 0.62412 0.0
O206 O 0.67685 0.5353 0.6107 0.0
O207 O 0.64282 0.5468 0.67526 0.0
O208 O 0.62697 0.50412 0.49053 0.0
O209 O 0.61761 0.53496 0.557 0.0
Co210 Co 0.98699 0.65535 0.5369 0.0
O211 O 0.95871 0.67163 0.48641 0.0
O212 O 0.0018 0.69 0.50134 0.0
C213 C 0.98331 0.60887 0.50756 0.0
O214 O 0.02207 0.64411 0.58343 0.0
Co215 Co 0.96959 0.60897 0.62576 0.0
O216 O 0.01189 0.60214 0.62671 0.0
C217 C 0.96298 0.67124 0.65272 0.0
C218 C 0.97767 0.69109 0.47386 0.0
C219 C 0.02956 0.62172 0.61203 0.0
O220 O 0.97193 0.67857 0.60332 0.0
O221 O 0.95917 0.64494 0.66763 0.0
O222 O 0.99861 0.62733 0.4795 0.0
O223 O 0.96833 0.61977 0.54806 0.0
H224 H 0.5392 0.1617 0.30333 0.0
H225 H 0.56477 0.08546 0.39495 0.0
H226 H 0.5731 0.14903 0.22819 0.0
H227 H 0.59937 0.07331 0.32116 0.0
H228 H 0.6548 0.0511 0.18076 0.0
H229 H 0.64287 0.08809 0.2502 0.0
H230 H 0.55932 0.09987 0.17435 0.0
H231 H 0.57082 0.06217 0.10679 0.0
C232 C 0.55342 0.14324 0.30887 0.0
C233 C 0.5497 0.12454 0.35465 0.0
C234 C 0.57268 0.13598 0.2659 0.0
C235 C 0.58874 0.11023 0.26897 0.0
C236 C 0.58752 0.0935 0.31815 0.0
C237 C 0.56777 0.10038 0.3604 0.0
C238 C 0.63453 0.06276 0.17725 0.0
C239 C 0.61365 0.05401 0.13871 0.0
C240 C 0.6277 0.08378 0.21703 0.0
C241 C 0.60021 0.0967 0.21757 0.0
C242 C 0.5808 0.09049 0.1744 0.0
C243 C 0.58731 0.06893 0.13574 0.0
H244 H 0.42296 0.56484 0.40498 0.0
H245 H 0.34111 0.55198 0.32466 0.0
H246 H 0.43518 0.60167 0.3357 0.0
H247 H 0.35371 0.5882 0.25373 0.0
H248 H 0.45722 0.66164 0.20343 0.0
H249 H 0.42271 0.64957 0.27785 0.0
H250 H 0.39764 0.57384 0.18641 0.0
H251 H 0.43278 0.58541 0.11344 0.0
C252 C 0.407 0.57108 0.37416 0.0
C253 C 0.38109 0.55592 0.37011 0.0
C254 C 0.41393 0.59213 0.33446 0.0
C255 C 0.3954 0.59764 0.28922 0.0
C256 C 0.36823 0.58445 0.2884 0.0
C257 C 0.36099 0.56388 0.32904 0.0
C258 C 0.44316 0.64332 0.198 0.0
C259 C 0.44739 0.62443 0.15295 0.0
C260 C 0.42356 0.63636 0.24062 0.0
C261 C 0.40763 0.61077 0.23788 0.0
C262 C 0.40938 0.59389 0.18926 0.0
C263 C 0.42946 0.60046 0.14746 0.0
H264 H 0.87192 0.43197 0.10432 0.0
H265 H 0.86941 0.48156 0.2564 0.0
H266 H 0.88679 0.38918 0.15804 0.0
H267 H 0.88458 0.43973 0.30958 0.0
H268 H 0.92845 0.37567 0.40043 0.0
H269 H 0.88606 0.39221 0.34804 0.0
H270 H 0.93452 0.38378 0.19373 0.0
H271 H 0.97595 0.36691 0.2458 0.0
C272 C 0.87355 0.4334 0.1494 0.0
C273 C 0.87042 0.46006 0.17624 0.0
C274 C 0.88212 0.409 0.18019 0.0
C275 C 0.88761 0.41111 0.23803 0.0
C276 C 0.88063 0.43704 0.26534 0.0
C277 C 0.87228 0.46125 0.2347 0.0
C278 C 0.92937 0.37612 0.35515 0.0
C279 C 0.95546 0.37081 0.32699 0.0
C280 C 0.90523 0.38571 0.32509 0.0
C281 C 0.9071 0.39018 0.26674 0.0
C282 C 0.93208 0.38075 0.23843 0.0
C283 C 0.95606 0.37133 0.26835 0.0
H284 H 0.0516 0.83832 0.19075 0.0
H285 H 0.0738 0.91871 0.11059 0.0
H286 H 0.08553 0.84851 0.26619 0.0
H287 H 0.10833 0.92848 0.18449 0.0
H288 H 0.08096 0.92798 0.40327 0.0
H289 H 0.07117 0.89303 0.33013 0.0
H290 H 0.15213 0.91379 0.25001 0.0
H291 H 0.16234 0.94815 0.32471 0.0
C292 C 0.06507 0.85726 0.18753 0.0
C293 C 0.06026 0.8778 0.14517 0.0
C294 C 0.08435 0.86314 0.23076 0.0
C295 C 0.09941 0.88931 0.23126 0.0
C296 C 0.09726 0.90798 0.18489 0.0
C297 C 0.0775 0.90246 0.14256 0.0
C298 C 0.09739 0.92375 0.37187 0.0
C299 C 0.12235 0.94057 0.36942 0.0
C300 C 0.09186 0.90374 0.32997 0.0
C301 C 0.11083 0.90091 0.28419 0.0
C302 C 0.13727 0.91552 0.28499 0.0
C303 C 0.14314 0.93504 0.32781 0.0
H304 H 0.33837 0.95066 0.81573 0.0
H305 H 0.41765 0.92818 0.89923 0.0
H306 H 0.35011 0.91645 0.74105 0.0
H307 H 0.42894 0.89336 0.82608 0.0
H308 H 0.45141 0.83896 0.68698 0.0
H309 H 0.41561 0.84946 0.76006 0.0
H310 H 0.39578 0.93064 0.67918 0.0
H311 H 0.43218 0.92055 0.60773 0.0
C312 C 0.35737 0.93706 0.81983 0.0
C313 C 0.37717 0.94186 0.86292 0.0
C314 C 0.36413 0.91762 0.77705 0.0
C315 C 0.39045 0.9024 0.77772 0.0
C316 C 0.40834 0.90455 0.82479 0.0
C317 C 0.40194 0.92447 0.8667 0.0
C318 C 0.43822 0.85828 0.68332 0.0
C319 C 0.44436 0.87901 0.64203 0.0
C320 C 0.41787 0.86432 0.72519 0.0
C321 C 0.40307 0.89088 0.72534 0.0
C322 C 0.40662 0.90985 0.67977 0.0
C323 C 0.42745 0.90414 0.63884 0.0
H324 H 0.58586 0.43162 0.61285 0.0
H325 H 0.66214 0.4565 0.70216 0.0
H326 H 0.57505 0.39594 0.68507 0.0
H327 H 0.65084 0.42139 0.77588 0.0
H328 H 0.55204 0.34086 0.82325 0.0
H329 H 0.58878 0.35251 0.7527 0.0
H330 H 0.60353 0.43393 0.83408 0.0
H331 H 0.56623 0.42264 0.90297 0.0
C332 C 0.60114 0.42824 0.64644 0.0
C333 C 0.62482 0.44655 0.65212 0.0
C334 C 0.59501 0.40784 0.68786 0.0
C335 C 0.61201 0.40613 0.7363 0.0
C336 C 0.6375 0.42224 0.73884 0.0
C337 C 0.64403 0.44219 0.69659 0.0
C338 C 0.56433 0.3605 0.82762 0.0
C339 C 0.55657 0.3809 0.8683 0.0
C340 C 0.58521 0.36719 0.78721 0.0
C341 C 0.59887 0.39413 0.78787 0.0
C342 C 0.59361 0.41286 0.83294 0.0
C343 C 0.57227 0.40647 0.87241 0.0
H344 H 0.05064 0.66089 0.68387 0.0
H345 H 0.06977 0.57922 0.60604 0.0
H346 H 0.08531 0.64971 0.75798 0.0
H347 H 0.10513 0.56851 0.67851 0.0
H348 H 0.16139 0.5486 0.81723 0.0
H349 H 0.15053 0.58294 0.74178 0.0
H350 H 0.07002 0.60481 0.82335 0.0
H351 H 0.08043 0.56978 0.89722 0.0
C352 C 0.06363 0.64142 0.68071 0.0
C353 C 0.05772 0.62084 0.63954 0.0
C354 C 0.08332 0.635 0.72319 0.0
C355 C 0.09774 0.60824 0.72399 0.0
C356 C 0.09455 0.58943 0.67855 0.0
C357 C 0.07434 0.59551 0.63704 0.0
C358 C 0.14215 0.56194 0.82037 0.0
C359 C 0.12171 0.55682 0.86276 0.0
C360 C 0.13592 0.58145 0.77719 0.0
C361 C 0.10946 0.59643 0.7768 0.0
C362 C 0.09075 0.59383 0.82303 0.0
C363 C 0.09663 0.57381 0.86531 0.0
H364 H 0.98218 0.13233 0.74871 0.0
H365 H 0.93429 0.12425 0.9031 0.0
H366 H 0.94088 0.11615 0.69656 0.0
H367 H 0.89202 0.10842 0.85054 0.0
H368 H 0.87217 0.02094 0.75801 0.0
H369 H 0.8894 0.06129 0.81148 0.0
H370 H 0.89309 0.11312 0.66066 0.0
H371 H 0.87623 0.0718 0.60655 0.0
C372 C 0.96227 0.1281 0.7712 0.0
C373 C 0.9615 0.1287 0.82984 0.0
C374 C 0.93836 0.11911 0.74121 0.0
C375 C 0.91323 0.11025 0.76938 0.0
C376 C 0.91129 0.11453 0.8277 0.0
C377 C 0.93537 0.12369 0.85785 0.0
C378 C 0.87593 0.04121 0.73646 0.0
C379 C 0.87381 0.04307 0.67802 0.0
C380 C 0.88543 0.0646 0.76732 0.0
C381 C 0.89328 0.09039 0.74031 0.0
C382 C 0.88775 0.09334 0.68257 0.0
C383 C 0.87804 0.06978 0.65155 0.0
H384 H 0.68401 0.00386 0.88177 0.0
H385 H 0.73111 0.93566 0.96424 0.0
H386 H 0.71108 0.99547 0.79623 0.0
H387 H 0.76082 0.92889 0.88074 0.0
H388 H 0.80279 0.90904 0.7167 0.0
H389 H 0.76837 0.91264 0.79387 0.0
H390 H 0.75111 0.00159 0.7475 0.0
H391 H 0.78302 0.99662 0.66813 0.0
C392 C 0.70086 0.98752 0.88172 0.0
C393 C 0.70583 0.97066 0.92951 0.0
C394 C 0.71667 0.98271 0.83261 0.0
C395 C 0.73875 0.96157 0.83052 0.0
C396 C 0.74378 0.94494 0.8793 0.0
C397 C 0.7271 0.94906 0.9278 0.0
C398 C 0.79074 0.92896 0.72224 0.0
C399 C 0.79527 0.95237 0.68587 0.0
C400 C 0.77136 0.93135 0.76732 0.0
C401 C 0.75689 0.95764 0.77858 0.0
C402 C 0.76096 0.98069 0.74062 0.0
C403 C 0.77946 0.97791 0.69456 0.0
H404 H 0.53321 0.77078 0.64511 0.0
H405 H 0.55566 0.83823 0.76102 0.0
H406 H 0.53076 0.73641 0.72357 0.0
H407 H 0.55233 0.80424 0.83822 0.0
H408 H 0.49889 0.7439 0.95833 0.0
H409 H 0.50577 0.77604 0.87755 0.0
H410 H 0.56644 0.71545 0.80585 0.0
H411 H 0.56025 0.68369 0.88712 0.0
C412 C 0.53808 0.77823 0.68683 0.0
C413 C 0.5445 0.80743 0.69635 0.0
C414 C 0.53654 0.75857 0.73173 0.0
C415 C 0.54088 0.76786 0.78698 0.0
C416 C 0.54846 0.79662 0.79618 0.0
C417 C 0.55054 0.81604 0.75156 0.0
C418 C 0.51381 0.73754 0.92552 0.0
C419 C 0.52919 0.71141 0.92936 0.0
C420 C 0.51774 0.75589 0.87934 0.0
C421 C 0.5366 0.74814 0.83546 0.0
C422 C 0.55169 0.72185 0.83893 0.0
C423 C 0.54828 0.70384 0.88567 0.0
H424 H 0.81561 0.56559 0.89027 0.0
H425 H 0.75807 0.50276 0.96308 0.0
H426 H 0.78321 0.57133 0.81038 0.0
H427 H 0.72534 0.50909 0.88368 0.0
H428 H 0.6602 0.55631 0.77034 0.0
H429 H 0.6946 0.55343 0.84628 0.0
H430 H 0.76342 0.53736 0.72814 0.0
H431 H 0.72871 0.53948 0.65097 0.0
C432 C 0.79594 0.55314 0.88941 0.0
C433 C 0.7893 0.53381 0.93321 0.0
C434 C 0.77754 0.55631 0.84346 0.0
C435 C 0.75177 0.54071 0.84086 0.0
C436 C 0.74502 0.52151 0.88477 0.0
C437 C 0.76374 0.51786 0.93016 0.0
C438 C 0.68267 0.55254 0.75988 0.0
C439 C 0.69151 0.54798 0.70402 0.0
C440 C 0.70235 0.55067 0.80378 0.0
C441 C 0.73157 0.54476 0.79324 0.0
C442 C 0.74094 0.54187 0.73741 0.0
C443 C 0.72107 0.54321 0.69323 0.0
H444 H 0.94523 0.81738 0.88589 0.0
H445 H 0.00852 0.75866 0.95517 0.0
H446 H 0.93865 0.78509 0.80637 0.0
H447 H 0.00134 0.72603 0.87614 0.0
H448 H 0.95303 0.66202 0.76413 0.0
H449 H 0.957 0.69604 0.84036 0.0
H450 H 0.97181 0.765 0.72223 0.0
H451 H 0.96857 0.73063 0.64466 0.0
C452 C 0.95757 0.79745 0.88442 0.0
C453 C 0.9773 0.79049 0.92707 0.0
C454 C 0.95393 0.77911 0.83862 0.0
C455 C 0.96947 0.75308 0.83503 0.0
C456 C 0.98897 0.74593 0.87796 0.0
C457 C 0.99309 0.76458 0.92317 0.0
C458 C 0.95678 0.68445 0.75375 0.0
C459 C 0.96056 0.69342 0.69769 0.0
C460 C 0.95927 0.70391 0.79782 0.0
C461 C 0.96507 0.73307 0.78735 0.0
C462 C 0.96737 0.74257 0.73147 0.0
C463 C 0.96542 0.7229 0.68706 0.0
H464 H 0.24286 0.99421 0.55463 0.0
H465 H 0.18418 0.05811 0.62214 0.0
H466 H 0.27544 0.00194 0.63352 0.0
H467 H 0.21639 0.06521 0.70151 0.0
H468 H 0.26981 0.03381 0.86407 0.0
H469 H 0.23581 0.03136 0.78592 0.0
H470 H 0.30532 0.04703 0.66935 0.0
H471 H 0.33904 0.05027 0.74631 0.0
C472 C 0.23696 0.00991 0.58617 0.0
C473 C 0.21106 0.02567 0.58191 0.0
C474 C 0.25558 0.01435 0.63126 0.0
C475 C 0.24836 0.03414 0.67365 0.0
C476 C 0.22239 0.04973 0.66961 0.0
C477 C 0.2041 0.04578 0.62393 0.0
C478 C 0.27775 0.0374 0.82193 0.0
C479 C 0.3073 0.04216 0.81189 0.0
C480 C 0.25829 0.03588 0.7772 0.0
C481 C 0.26809 0.03855 0.72159 0.0
C482 C 0.29727 0.04448 0.71172 0.0
C483 C 0.31654 0.04655 0.75617 0.0
H484 H 0.51829 0.2206 0.59373 0.0
H485 H 0.42675 0.20402 0.59325 0.0
H486 H 0.512 0.25112 0.67626 0.0
H487 H 0.42048 0.23486 0.6752 0.0
H488 H 0.4241 0.32329 0.77416 0.0
H489 H 0.42677 0.28893 0.69709 0.0
H490 H 0.49633 0.24381 0.77991 0.0
H491 H 0.49347 0.27792 0.8575 0.0
C492 C 0.49682 0.22367 0.61093 0.0
C493 C 0.47302 0.20997 0.5869 0.0
C494 C 0.49327 0.24089 0.65847 0.0
C495 C 0.46577 0.24517 0.68239 0.0
C496 C 0.4419 0.23195 0.65766 0.0
C497 C 0.44552 0.21432 0.61075 0.0
C498 C 0.4395 0.30563 0.77659 0.0
C499 C 0.45854 0.30333 0.82205 0.0
C500 C 0.44105 0.286 0.7324 0.0
C501 C 0.46201 0.26394 0.73218 0.0
C502 C 0.4802 0.26083 0.77871 0.0
C503 C 0.4783 0.28016 0.82345 0.0
H504 H 0.28178 0.51972 0.6016 0.0
H505 H 0.29533 0.42768 0.58989 0.0
H506 H 0.25103 0.51239 0.68391 0.0
H507 H 0.26419 0.42039 0.67177 0.0
H508 H 0.17606 0.42596 0.77529 0.0
H509 H 0.21032 0.42867 0.69728 0.0
H510 H 0.25836 0.49344 0.78506 0.0
H511 H 0.22443 0.49055 0.86343 0.0
C512 C 0.27798 0.49792 0.61625 0.0
C513 C 0.29095 0.47429 0.58915 0.0
C514 C 0.26061 0.49375 0.6637 0.0
C515 C 0.25542 0.46582 0.68456 0.0
C516 C 0.26781 0.44213 0.65665 0.0
C517 C 0.28561 0.44634 0.60979 0.0
C518 C 0.19433 0.44027 0.77859 0.0
C519 C 0.19745 0.45803 0.82572 0.0
C520 C 0.21391 0.44184 0.73383 0.0
C521 C 0.23675 0.46158 0.73475 0.0
C522 C 0.24072 0.4783 0.78292 0.0
C523 C 0.22146 0.47636 0.82811 0.0
H524 H 0.0061 0.259 0.54176 0.0
H525 H 0.06201 0.32317 0.61228 0.0
H526 H 0.01502 0.2276 0.62307 0.0
H527 H 0.07007 0.29218 0.69409 0.0
H528 H 0.03938 0.23286 0.85425 0.0
H529 H 0.03377 0.26744 0.77669 0.0
H530 H 0.06665 0.20395 0.66127 0.0
H531 H 0.07329 0.1699 0.73767 0.0
C532 C 0.02013 0.26644 0.57466 0.0
C533 C 0.03354 0.29342 0.57034 0.0
C534 C 0.02523 0.24852 0.6211 0.0
C535 C 0.0432 0.25756 0.66481 0.0
C536 C 0.05606 0.28478 0.66113 0.0
C537 C 0.05156 0.30237 0.6141 0.0
C538 C 0.04615 0.22651 0.81263 0.0
C539 C 0.05671 0.19841 0.80263 0.0
C540 C 0.04273 0.24625 0.76823 0.0
C541 C 0.04928 0.23808 0.71296 0.0
C542 C 0.06103 0.21062 0.70334 0.0
C543 C 0.06502 0.1912 0.74752 0.0
H544 H 0.22852 0.03295 0.3645 0.0
H545 H 0.15878 0.0477 0.24814 0.0
H546 H 0.2626 0.03075 0.28559 0.0
H547 H 0.1926 0.04478 0.17044 0.0
H548 H 0.25651 0.9938 0.05352 0.0
H549 H 0.22372 0.0009 0.13324 0.0
H550 H 0.28134 0.06417 0.20122 0.0
H551 H 0.31377 0.05766 0.12104 0.0
C552 C 0.22046 0.03619 0.32249 0.0
C553 C 0.19077 0.04044 0.31309 0.0
C554 C 0.23998 0.03483 0.27731 0.0
C555 C 0.23012 0.03716 0.22187 0.0
C556 C 0.20073 0.04249 0.21264 0.0
C557 C 0.18139 0.04439 0.25751 0.0
C558 C 0.26206 0.00936 0.08524 0.0
C559 C 0.28761 0.02529 0.08072 0.0
C560 C 0.24331 0.01344 0.13082 0.0
C561 C 0.25004 0.03307 0.17346 0.0
C562 C 0.27569 0.04882 0.16917 0.0
C563 C 0.29411 0.0452 0.12302 0.0
H564 H 0.48553 0.22721 0.36156 0.0
H565 H 0.41954 0.18087 0.2732 0.0
H566 H 0.48945 0.26108 0.28335 0.0
H567 H 0.42332 0.21504 0.19532 0.0
H568 H 0.42529 0.2994 0.08703 0.0
H569 H 0.41683 0.26885 0.16924 0.0
H570 H 0.50841 0.25309 0.18265 0.0
H571 H 0.51689 0.2833 0.10006 0.0
C572 C 0.47124 0.22471 0.32626 0.0
C573 C 0.45223 0.20125 0.3237 0.0
C574 C 0.47378 0.24392 0.28115 0.0
C575 C 0.457 0.24044 0.23292 0.0
C576 C 0.43655 0.21824 0.23193 0.0
C577 C 0.43435 0.19871 0.27662 0.0
C578 C 0.4436 0.28924 0.1073 0.0
C579 C 0.47177 0.29369 0.08695 0.0
C580 C 0.43873 0.27178 0.15435 0.0
C581 C 0.46197 0.25884 0.18268 0.0
C582 C 0.49011 0.26313 0.16211 0.0
C583 C 0.49494 0.28018 0.1145 0.0
H584 H 0.27653 0.49499 0.36026 0.0
H585 H 0.32127 0.42557 0.27569 0.0
H586 H 0.24269 0.49875 0.28242 0.0
H587 H 0.28717 0.42916 0.19833 0.0
H588 H 0.2021 0.43082 0.09437 0.0
H589 H 0.23308 0.42364 0.17583 0.0
H590 H 0.25026 0.51496 0.1793 0.0
H591 H 0.2196 0.52215 0.09727 0.0
C592 C 0.27869 0.48 0.32586 0.0
C593 C 0.30162 0.45995 0.32425 0.0
C594 C 0.25952 0.48242 0.28097 0.0
C595 C 0.26253 0.46449 0.23402 0.0
C596 C 0.28433 0.44326 0.23395 0.0
C597 C 0.30382 0.44119 0.27832 0.0
C598 C 0.21265 0.44934 0.11226 0.0
C599 C 0.20847 0.47705 0.08928 0.0
C600 C 0.23037 0.44521 0.15889 0.0
C601 C 0.24386 0.46876 0.18422 0.0
C602 C 0.23982 0.49645 0.16107 0.0
C603 C 0.22251 0.50053 0.1138 0.0
H604 H 0.06712 0.17956 0.11318 0.0
H605 H 0.00698 0.24113 0.04267 0.0
H606 H 0.07364 0.21082 0.19437 0.0
H607 H 0.01432 0.27283 0.12327 0.0
H608 H 0.06927 0.33306 0.23611 0.0
H609 H 0.06471 0.29875 0.1604 0.0
H610 H 0.03582 0.23385 0.27714 0.0
H611 H 0.03932 0.26864 0.354 0.0
C612 C 0.05543 0.19986 0.11484 0.0
C613 C 0.03666 0.20799 0.07129 0.0
C614 C 0.05904 0.2176 0.16152 0.0
C615 C 0.04451 0.24418 0.16501 0.0
C616 C 0.02582 0.25241 0.12146 0.0
C617 C 0.02163 0.23432 0.0754 0.0
C618 C 0.06233 0.31141 0.24641 0.0
C619 C 0.0545 0.30384 0.30168 0.0
C620 C 0.05954 0.29183 0.20262 0.0
C621 C 0.04951 0.26387 0.2128 0.0
C622 C 0.04348 0.25542 0.26824 0.0
C623 C 0.04568 0.27529 0.31225 0.0
H624 H 0.66312 0.95699 0.27176 0.0
H625 H 0.72968 0.96851 0.14618 0.0
H626 H 0.69857 0.96246 0.34498 0.0
H627 H 0.76553 0.97334 0.22087 0.0
H628 H 0.81851 0.94524 0.38495 0.0
H629 H 0.78578 0.94045 0.30568 0.0
H630 H 0.73056 0.00659 0.37539 0.0
H631 H 0.76364 0.01191 0.45428 0.0
C632 C 0.68538 0.96025 0.25948 0.0
C633 C 0.69342 0.96229 0.20261 0.0
C634 C 0.70565 0.96365 0.30176 0.0
C635 C 0.73467 0.96869 0.28864 0.0
C636 C 0.74319 0.96956 0.23205 0.0
C637 C 0.7227 0.9667 0.18936 0.0
C638 C 0.79944 0.95887 0.38328 0.0
C639 C 0.79351 0.97883 0.42609 0.0
C640 C 0.78086 0.95623 0.33767 0.0
C641 C 0.75566 0.97309 0.33448 0.0
C642 C 0.74982 0.99324 0.37701 0.0
C643 C 0.76873 0.99631 0.42207 0.0
H644 H 0.49943 0.75964 0.45486 0.0
H645 H 0.56349 0.81739 0.38699 0.0
H646 H 0.50741 0.72699 0.37583 0.0
H647 H 0.57081 0.78508 0.30724 0.0
H648 H 0.53835 0.73099 0.1455 0.0
H649 H 0.53605 0.76551 0.22302 0.0
H650 H 0.55379 0.69675 0.34022 0.0
H651 H 0.55693 0.66253 0.26389 0.0
C652 C 0.5152 0.76533 0.42315 0.0
C653 C 0.53097 0.79096 0.4274 0.0
C654 C 0.51978 0.74667 0.37798 0.0
C655 C 0.5397 0.75358 0.33542 0.0
C656 C 0.55526 0.77932 0.33932 0.0
C657 C 0.55119 0.79766 0.38518 0.0
C658 C 0.54245 0.72333 0.1876 0.0
C659 C 0.54772 0.69383 0.19806 0.0
C660 C 0.54102 0.74309 0.23197 0.0
C661 C 0.54431 0.73364 0.28762 0.0
C662 C 0.5508 0.70453 0.29781 0.0
C663 C 0.55278 0.68497 0.25372 0.0
H664 H 0.67814 0.56523 0.39288 0.0
H665 H 0.74225 0.5066 0.45966 0.0
H666 H 0.70879 0.57393 0.31079 0.0
H667 H 0.77331 0.51618 0.37812 0.0
H668 H 0.83021 0.57434 0.2615 0.0
H669 H 0.79667 0.5689 0.33918 0.0
H670 H 0.73249 0.5358 0.22738 0.0
H671 H 0.76652 0.54017 0.14865 0.0
C672 C 0.69891 0.55442 0.39031 0.0
C673 C 0.7079 0.53534 0.43294 0.0
C674 C 0.71628 0.55928 0.34312 0.0
C675 C 0.7433 0.54572 0.33825 0.0
C676 C 0.75251 0.52691 0.38107 0.0
C677 C 0.73481 0.52146 0.42765 0.0
C678 C 0.80885 0.56632 0.25269 0.0
C679 C 0.80129 0.55749 0.19834 0.0
C680 C 0.78973 0.56305 0.29759 0.0
C681 C 0.76226 0.55154 0.28933 0.0
C682 C 0.7537 0.5446 0.23472 0.0
C683 C 0.77313 0.54729 0.18965 0.0
H684 H 0.96717 0.77195 0.14389 0.0
H685 H 0.95186 0.8412 0.26119 0.0
H686 H 0.96844 0.73746 0.22227 0.0
H687 H 0.95396 0.807 0.3383 0.0
H688 H 0.00533 0.74213 0.45357 0.0
H689 H 0.99857 0.77508 0.3741 0.0
H690 H 0.93344 0.71912 0.30755 0.0
H691 H 0.93957 0.68653 0.38774 0.0
C692 C 0.9636 0.77981 0.18596 0.0
C693 C 0.95948 0.8095 0.19579 0.0
C694 C 0.96443 0.76006 0.23082 0.0
C695 C 0.96171 0.76967 0.28638 0.0
C696 C 0.95649 0.79905 0.296 0.0
C697 C 0.9551 0.81861 0.25144 0.0
C698 C 0.98942 0.73698 0.42226 0.0
C699 C 0.97286 0.71184 0.42721 0.0
C700 C 0.98554 0.75581 0.3768 0.0
C701 C 0.96552 0.74959 0.3346 0.0
C702 C 0.94911 0.72436 0.33928 0.0
C703 C 0.9525 0.70587 0.38542 0.0
H704 H 0.41683 0.96543 0.04719 0.0
H705 H 0.43416 0.04637 0.96418 0.0
H706 H 0.46828 0.95435 0.04844 0.0
H707 H 0.48574 0.03621 0.96793 0.0
H708 H 0.57434 1.00019 0.93252 0.0
H709 H 0.52243 0.00825 0.92871 0.0
H710 H 0.51267 0.96473 0.08808 0.0
H711 H 0.56431 0.95525 0.08992 0.0
C712 C 0.43172 0.98111 0.03014 0.0
C713 C 0.42147 0.0068 0.00571 0.0
C714 C 0.46132 0.97481 0.03094 0.0
C715 C 0.48146 0.99427 0.00807 0.0
C716 C 0.47104 0.0203 0.98479 0.0
C717 C 0.44143 0.02635 0.98319 0.0
C718 C 0.56103 0.99204 0.96638 0.0
C719 C 0.57353 0.97724 0.01167 0.0
C720 C 0.53122 0.99696 0.96459 0.0
C721 C 0.51311 0.98756 0.00849 0.0
C722 C 0.52566 0.97209 0.05314 0.0
C723 C 0.55543 0.96679 0.05443 0.0
H724 H 0.50577 0.42589 0.08007 0.0
H725 H 0.4628 0.43605 0.92147 0.0
H726 H 0.51387 0.47764 0.08344 0.0
H727 H 0.47227 0.4876 0.92298 0.0
H728 H 0.4711 0.58345 0.96515 0.0
H729 H 0.46078 0.53203 0.96292 0.0
H730 H 0.54198 0.51414 0.04481 0.0
H731 H 0.55138 0.56569 0.04947 0.0
C732 C 0.49812 0.4392 0.04579 0.0
C733 C 0.48372 0.42682 1.00044 0.0
C734 C 0.50304 0.46892 0.04735 0.0
C735 C 0.49409 0.48704 1.00316 0.0
C736 C 0.47923 0.47459 0.95818 0.0
C737 C 0.47392 0.44489 0.95709 0.0
C738 C 0.4868 0.56847 0.98235 0.0
C739 C 0.51207 0.5786 0.00744 0.0
C740 C 0.48095 0.5389 0.98093 0.0
C741 C 0.50044 0.51865 1.00388 0.0
C742 C 0.52607 0.52893 0.02784 0.0
C743 C 0.53167 0.55852 0.03002 0.0
H744 H 0.93237 0.54212 0.09433 0.0
H745 H 0.92104 0.49573 0.94017 0.0
H746 H 0.9838 0.5319 0.09113 0.0
H747 H 0.97289 0.48694 0.93469 0.0
H748 H 0.06357 0.45205 0.96505 0.0
H749 H 0.0116 0.46081 0.97012 0.0
H750 H 0.02706 0.54291 0.04926 0.0
H751 H 0.07856 0.53316 0.04709 0.0
C752 C 0.94095 0.53009 0.05923 0.0
C753 C 0.92258 0.51973 0.01755 0.0
C754 C 0.97063 0.52434 0.05709 0.0
C755 C 0.98291 0.50856 0.01253 0.0
C756 C 0.96442 0.49863 0.97031 0.0
C757 C 0.93463 0.50393 0.97308 0.0
C758 C 0.05571 0.47181 0.98395 0.0
C759 C 0.07513 0.49175 0.00617 0.0
C760 C 0.02588 0.47705 0.98641 0.0
C761 C 0.01476 0.50265 0.01019 0.0
C762 C 0.03445 0.52264 0.03185 0.0
C763 C 0.06414 0.51713 0.03035 0.0
H764 H 1.00043 0.07766 0.06292 0.0
H765 H 0.0455 0.06589 0.90619 0.0
H766 H 0.99197 0.026 0.06885 0.0
H767 H 0.03571 0.01439 0.91015 0.0
H768 H 0.03634 0.91891 0.95704 0.0
H769 H 0.04648 0.97033 0.95185 0.0
H770 H 0.96486 0.98866 0.03338 0.0
H771 H 0.9557 0.93712 0.04114 0.0
C772 C 0.00843 0.064 0.02953 0.0
C773 C 0.02367 0.07591 0.98413 0.0
C774 C 0.00331 0.0343 0.03257 0.0
C775 C 0.01286 0.01569 0.98974 0.0
C776 C 0.02833 0.02773 0.94446 0.0
C777 C 0.03385 0.0574 0.94195 0.0
C778 C 0.02052 0.93398 0.97356 0.0
C779 C 0.9952 0.92396 0.99945 0.0
C780 C 0.02626 0.96358 0.9704 0.0
C781 C 0.00659 0.98401 0.99231 0.0
C782 C 0.98093 0.9738 0.01713 0.0
C783 C 0.97546 0.94419 0.0211 0.0
H784 H 0.06488 0.04741 0.47087 0.0
H785 H 0.08195 0.96717 0.5572 0.0
H786 H 0.0133 0.03881 0.47797 0.0
H787 H 0.03028 0.95763 0.56198 0.0
H788 H 0.93295 0.96118 0.60202 0.0
H789 H 0.98498 0.96954 0.60122 0.0
H790 H 0.97762 0.01055 0.43897 0.0
H791 H 0.9258 0.00347 0.44145 0.0
C792 C 0.05755 0.02787 0.49133 0.0
C793 C 0.07746 0.008 0.51346 0.0
C794 C 0.02792 0.02273 0.49494 0.0
C795 C 0.01737 0.99725 0.51984 0.0
C796 C 0.0374 0.97762 0.543 0.0
C797 C 0.06709 0.98303 0.54014 0.0
C798 C 0.94258 0.97182 0.56615 0.0
C799 C 0.92529 0.98181 0.52195 0.0
C800 C 0.97245 0.97658 0.56553 0.0
C801 C 0.9857 0.99111 0.52033 0.0
C802 C 0.9683 1.00008 0.47533 0.0
C803 C 0.93852 0.99574 0.4764 0.0
H804 H 0.48851 0.92302 0.42897 0.0
H805 H 0.53893 0.93496 0.57811 0.0
H806 H 0.47982 0.97499 0.42359 0.0
H807 H 0.52877 0.9862 0.57531 0.0
H808 H 0.52886 0.08048 0.53362 0.0
H809 H 0.53896 0.02909 0.53214 0.0
H810 H 0.45463 0.01396 0.46198 0.0
H811 H 0.44546 0.06596 0.46034 0.0
C812 C 0.49766 0.93673 0.46071 0.0
C813 C 0.51441 0.9248 0.50396 0.0
C814 C 0.49242 0.96656 0.45805 0.0
C815 C 0.50347 0.98514 0.49908 0.0
C816 C 0.52031 0.97297 0.54215 0.0
C817 C 0.52596 0.94335 0.54414 0.0
C818 C 0.51242 0.06616 0.5181 0.0
C819 C 0.48624 0.07723 0.49763 0.0
C820 C 0.51813 0.03653 0.51747 0.0
C821 C 0.49755 0.01697 0.4975 0.0
C822 C 0.47125 0.02817 0.47699 0.0
C823 C 0.4658 0.05799 0.47655 0.0
H824 H 0.58178 0.47275 0.46847 0.0
H825 H 0.56293 0.55187 0.55603 0.0
H826 H 0.53049 0.46171 0.46604 0.0
H827 H 0.51154 0.54183 0.55112 0.0
H828 H 0.42373 0.50497 0.58481 0.0
H829 H 0.47543 0.51316 0.58862 0.0
H830 H 0.48576 0.47263 0.42715 0.0
H831 H 0.43422 0.46297 0.42525 0.0
C832 C 0.56658 0.48804 0.48635 0.0
C833 C 0.57637 0.51319 0.51242 0.0
C834 C 0.53708 0.48178 0.48482 0.0
C835 C 0.51657 0.50074 0.50863 0.0
C836 C 0.52653 0.52627 0.53352 0.0
C837 C 0.55603 0.53225 0.53585 0.0
C838 C 0.43712 0.49755 0.5504 0.0
C839 C 0.42481 0.48344 0.50462 0.0
C840 C 0.46682 0.50254 0.55222 0.0
C841 C 0.48503 0.494 0.50781 0.0
C842 C 0.47268 0.47931 0.46249 0.0
C843 C 0.44299 0.47389 0.46118 0.0
H844 H 0.0112 0.58031 0.4228 0.0
H845 H 0.96401 0.56575 0.57635 0.0
H846 H 0.01917 0.5285 0.41344 0.0
H847 H 0.97342 0.51435 0.56927 0.0
H848 H 0.97263 0.42048 0.52115 0.0
H849 H 0.96254 0.47195 0.52502 0.0
H850 H 0.04509 0.48902 0.4468 0.0
H851 H 0.05423 0.43723 0.44013 0.0
C852 C 0.00262 0.56604 0.4547 0.0
C853 C 0.987 0.57723 0.50034 0.0
C854 C 0.00745 0.53626 0.44971 0.0
C855 C 0.99715 0.51687 0.49072 0.0
C856 C 0.98133 0.52824 0.53615 0.0
C857 C 0.97608 0.55792 0.54056 0.0
C858 C 0.98863 0.43526 0.50484 0.0
C859 C 0.01429 0.42479 0.48056 0.0
C860 C 0.98294 0.46492 0.50733 0.0
C861 C 0.00301 0.48505 0.48656 0.0
C862 C 0.0288 0.47441 0.46242 0.0
C863 C 0.03423 0.44466 0.45902 0.0
loop_
_geom_bond_atom_site_label_1
_geom_bond_atom_site_label_2
_geom_bond_distance
_geom_bond_site_symmetry_2
_ccdc_geom_bond_type
Co0 O1 2.216 1_545 S
Co0 O2 2.091 . S
Co0 O4 2.004 . S
Co0 O10 2.021 1_545 S
Co0 O12 2.137 1_545 S
Co0 O13 2.244 1_545 S
O1 Co0 2.216 1_565 S
O1 C8 1.247 1_564 S
O2 Co0 2.091 . S
O2 C8 1.261 1_554 S
C3 O12 1.247 . S
C3 O13 1.272 . S
O4 Co0 2.004 . S
O4 C9 1.259 . S
Co5 O6 2.061 1_565 S
Co5 O11 2.052 . S
Co5 O13 2.135 . S
O6 Co5 2.061 1_545 S
O6 C9 1.235 . S
C7 O10 1.238 . S
C7 O11 1.241 . S
C8 O1 1.247 1_546 S
C8 O2 1.261 1_556 S
C9 O4 1.259 . S
C9 O6 1.235 . S
O10 Co0 2.021 1_565 S
O10 C7 1.238 . S
O11 Co5 2.052 . S
O11 C7 1.241 . S
O12 Co0 2.137 1_565 S
O12 C3 1.247 . S
O13 Co0 2.244 1_565 S
O13 C3 1.272 . S
O13 Co5 2.135 . S
Co14 O15 2.216 . S
Co14 O16 2.091 . S
Co14 O18 2.004 . S
Co14 O24 2.021 . S
Co14 O26 2.137 . S
Co14 O27 2.244 . S
O15 Co14 2.216 . S
O15 C22 1.247 1_554 S
O16 Co14 2.091 . S
O16 C22 1.261 1_554 S
C17 O26 1.247 . S
C17 O27 1.272 . S
O18 Co14 2.004 . S
O18 C23 1.259 . S
Co19 O20 2.061 . S
Co19 O25 2.052 . S
Co19 O27 2.135 . S
O20 Co19 2.061 . S
O20 C23 1.235 . S
C21 O24 1.238 . S
C21 O25 1.241 . S
C22 O15 1.247 1_556 S
C22 O16 1.261 1_556 S
C23 O18 1.259 . S
C23 O20 1.235 . S
O24 Co14 2.021 . S
O24 C21 1.238 . S
O25 Co19 2.052 . S
O25 C21 1.241 . S
O26 Co14 2.137 . S
O26 C17 1.247 . S
O27 Co14 2.244 . S
O27 C17 1.272 . S
O27 Co19 2.135 . S
Co28 O29 2.216 . S
Co28 O30 2.091 . S
Co28 O32 2.004 . S
Co28 O38 2.021 . S
Co28 O40 2.137 . S
Co28 O41 2.244 . S
O29 Co28 2.216 . S
O29 C36 1.247 1_554 S
O30 Co28 2.091 . S
O30 C36 1.261 1_554 S
C31 O40 1.247 . S
C31 O41 1.272 . S
O32 Co28 2.004 . S
O32 C37 1.259 . S
Co33 O34 2.061 . S
Co33 O39 2.052 . S
Co33 O41 2.135 . S
O34 Co33 2.061 . S
O34 C37 1.235 . S
C35 O38 1.238 . S
C35 O39 1.241 . S
C36 O29 1.247 1_556 S
C36 O30 1.261 1_556 S
C37 O32 1.259 . S
C37 O34 1.235 . S
O38 Co28 2.021 . S
O38 C35 1.238 . S
O39 Co33 2.052 . S
O39 C35 1.241 . S
O40 Co28 2.137 . S
O40 C31 1.247 . S
O41 Co28 2.244 . S
O41 C31 1.272 . S
O41 Co33 2.135 . S
Co42 O43 2.216 1_455 S
Co42 O44 2.091 . S
Co42 O46 2.004 . S
Co42 O52 2.021 1_455 S
Co42 O54 2.137 1_455 S
Co42 O55 2.244 1_455 S
O43 Co42 2.216 1_655 S
O43 C50 1.247 1_654 S
O44 Co42 2.091 . S
O44 C50 1.261 1_554 S
C45 O54 1.247 . S
C45 O55 1.272 . S
O46 Co42 2.004 . S
O46 C51 1.259 . S
Co47 O48 2.061 1_655 S
Co47 O53 2.052 . S
Co47 O55 2.135 . S
O48 Co47 2.061 1_455 S
O48 C51 1.235 . S
C49 O52 1.238 . S
C49 O53 1.241 . S
C50 O43 1.247 1_456 S
C50 O44 1.261 1_556 S
C51 O46 1.259 . S
C51 O48 1.235 . S
O52 Co42 2.021 1_655 S
O52 C49 1.238 . S
O53 Co47 2.052 . S
O53 C49 1.241 . S
O54 Co42 2.137 1_655 S
O54 C45 1.247 . S
O55 Co42 2.244 1_655 S
O55 C45 1.272 . S
O55 Co47 2.135 . S
Co56 O57 2.216 1_565 S
Co56 O58 2.091 . S
Co56 O60 2.004 . S
Co56 O66 2.021 1_565 S
Co56 O68 2.137 1_565 S
Co56 O69 2.244 1_565 S
O57 Co56 2.216 1_545 S
O57 C64 1.247 1_545 S
O58 Co56 2.091 . S
O58 C64 1.261 . S
C59 O68 1.247 . S
C59 O69 1.272 . S
O60 Co56 2.004 . S
O60 C65 1.259 . S
Co61 O62 2.061 1_545 S
Co61 O67 2.052 . S
Co61 O69 2.135 . S
O62 Co61 2.061 1_565 S
O62 C65 1.235 . S
C63 O66 1.238 . S
C63 O67 1.241 . S
C64 O57 1.247 1_565 S
C64 O58 1.261 . S
C65 O60 1.259 . S
C65 O62 1.235 . S
O66 Co56 2.021 1_545 S
O66 C63 1.238 . S
O67 Co61 2.052 . S
O67 C63 1.241 . S
O68 Co56 2.137 1_545 S
O68 C59 1.247 . S
O69 Co56 2.244 1_545 S
O69 C59 1.272 . S
O69 Co61 2.135 . S
Co70 O71 2.216 . S
Co70 O72 2.091 . S
Co70 O74 2.004 . S
Co70 O80 2.021 . S
Co70 O82 2.137 . S
Co70 O83 2.244 . S
O71 Co70 2.216 . S
O71 C78 1.247 . S
O72 Co70 2.091 . S
O72 C78 1.261 . S
C73 O82 1.247 . S
C73 O83 1.272 . S
O74 Co70 2.004 . S
O74 C79 1.259 . S
Co75 O76 2.061 . S
Co75 O81 2.052 . S
Co75 O83 2.135 . S
O76 Co75 2.061 . S
O76 C79 1.235 . S
C77 O80 1.238 . S
C77 O81 1.241 . S
C78 O71 1.247 . S
C78 O72 1.261 . S
C79 O74 1.259 . S
C79 O76 1.235 . S
O80 Co70 2.021 . S
O80 C77 1.238 . S
O81 Co75 2.052 . S
O81 C77 1.241 . S
O82 Co70 2.137 . S
O82 C73 1.247 . S
O83 Co70 2.244 . S
O83 C73 1.272 . S
O83 Co75 2.135 . S
Co84 O85 2.216 . S
Co84 O86 2.091 . S
Co84 O88 2.004 . S
Co84 O94 2.021 . S
Co84 O96 2.137 . S
Co84 O97 2.244 . S
O85 Co84 2.216 . S
O85 C92 1.247 . S
O86 Co84 2.091 . S
O86 C92 1.261 . S
C87 O96 1.247 . S
C87 O97 1.272 . S
O88 Co84 2.004 . S
O88 C93 1.259 . S
Co89 O90 2.061 . S
Co89 O95 2.052 . S
Co89 O97 2.135 . S
O90 Co89 2.061 . S
O90 C93 1.235 . S
C91 O94 1.238 . S
C91 O95 1.241 . S
C92 O85 1.247 . S
C92 O86 1.261 . S
C93 O88 1.259 . S
C93 O90 1.235 . S
O94 Co84 2.021 . S
O94 C91 1.238 . S
O95 Co89 2.052 . S
O95 C91 1.241 . S
O96 Co84 2.137 . S
O96 C87 1.247 . S
O97 Co84 2.244 . S
O97 C87 1.272 . S
O97 Co89 2.135 . S
Co98 O99 2.216 1_655 S
Co98 O100 2.091 . S
Co98 O102 2.004 . S
Co98 O108 2.021 1_655 S
Co98 O110 2.137 1_655 S
Co98 O111 2.244 1_655 S
O99 Co98 2.216 1_455 S
O99 C106 1.247 1_455 S
O100 Co98 2.091 . S
O100 C106 1.261 . S
C101 O110 1.247 . S
C101 O111 1.272 . S
O102 Co98 2.004 . S
O102 C107 1.259 . S
Co103 O104 2.061 1_455 S
Co103 O109 2.052 . S
Co103 O111 2.135 . S
O104 Co103 2.061 1_655 S
O104 C107 1.235 . S
C105 O108 1.238 . S
C105 O109 1.241 . S
C106 O99 1.247 1_655 S
C106 O100 1.261 . S
C107 O102 1.259 . S
C107 O104 1.235 . S
O108 Co98 2.021 1_455 S
O108 C105 1.238 . S
O109 Co103 2.052 . S
O109 C105 1.241 . S
O110 Co98 2.137 1_455 S
O110 C101 1.247 . S
O111 Co98 2.244 1_455 S
O111 C101 1.272 . S
O111 Co103 2.135 . S
Co112 O113 2.216 1_565 S
Co112 O114 2.091 . S
Co112 O116 2.004 . S
Co112 O122 2.021 1_565 S
Co112 O124 2.137 1_565 S
Co112 O125 2.244 1_565 S
O113 Co112 2.216 1_545 S
O113 C120 1.247 1_546 S
O114 Co112 2.091 . S
O114 C120 1.261 1_556 S
C115 O124 1.247 . S
C115 O125 1.272 . S
O116 Co112 2.004 . S
O116 C121 1.259 . S
Co117 O118 2.061 1_545 S
Co117 O123 2.052 . S
Co117 O125 2.135 . S
O118 Co117 2.061 1_565 S
O118 C121 1.235 . S
C119 O122 1.238 . S
C119 O123 1.241 . S
C120 O113 1.247 1_564 S
C120 O114 1.261 1_554 S
C121 O116 1.259 . S
C121 O118 1.235 . S
O122 Co112 2.021 1_545 S
O122 C119 1.238 . S
O123 Co117 2.052 . S
O123 C119 1.241 . S
O124 Co112 2.137 1_545 S
O124 C115 1.247 . S
O125 Co112 2.244 1_545 S
O125 C115 1.272 . S
O125 Co117 2.135 . S
Co126 O127 2.216 . S
Co126 O128 2.091 . S
Co126 O130 2.004 . S
Co126 O136 2.021 . S
Co126 O138 2.137 . S
Co126 O139 2.244 . S
O127 Co126 2.216 . S
O127 C134 1.247 1_556 S
O128 Co126 2.091 . S
O128 C134 1.261 1_556 S
C129 O138 1.247 . S
C129 O139 1.272 . S
O130 Co126 2.004 . S
O130 C135 1.259 . S
Co131 O132 2.061 . S
Co131 O137 2.052 . S
Co131 O139 2.135 . S
O132 Co131 2.061 . S
O132 C135 1.235 . S
C133 O136 1.238 . S
C133 O137 1.241 . S
C134 O127 1.247 1_554 S
C134 O128 1.261 1_554 S
C135 O130 1.259 . S
C135 O132 1.235 . S
O136 Co126 2.021 . S
O136 C133 1.238 . S
O137 Co131 2.052 . S
O137 C133 1.241 . S
O138 Co126 2.137 . S
O138 C129 1.247 . S
O139 Co126 2.244 . S
O139 C129 1.272 . S
O139 Co131 2.135 . S
Co140 O141 2.216 . S
Co140 O142 2.091 . S
Co140 O144 2.004 . S
Co140 O150 2.021 . S
Co140 O152 2.137 . S
Co140 O153 2.244 . S
O141 Co140 2.216 . S
O141 C148 1.247 1_556 S
O142 Co140 2.091 . S
O142 C148 1.261 1_556 S
C143 O152 1.247 . S
C143 O153 1.272 . S
O144 Co140 2.004 . S
O144 C149 1.259 . S
Co145 O146 2.061 . S
Co145 O151 2.052 . S
Co145 O153 2.135 . S
O146 Co145 2.061 . S
O146 C149 1.235 . S
C147 O150 1.238 . S
C147 O151 1.241 . S
C148 O141 1.247 1_554 S
C148 O142 1.261 1_554 S
C149 O144 1.259 . S
C149 O146 1.235 . S
O150 Co140 2.021 . S
O150 C147 1.238 . S
O151 Co145 2.052 . S
O151 C147 1.241 . S
O152 Co140 2.137 . S
O152 C143 1.247 . S
O153 Co140 2.244 . S
O153 C143 1.272 . S
O153 Co145 2.135 . S
Co154 O155 2.216 1_655 S
Co154 O156 2.091 . S
Co154 O158 2.004 . S
Co154 O164 2.021 1_655 S
Co154 O166 2.137 1_655 S
Co154 O167 2.244 1_655 S
O155 Co154 2.216 1_455 S
O155 C162 1.247 1_456 S
O156 Co154 2.091 . S
O156 C162 1.261 1_556 S
C157 O166 1.247 . S
C157 O167 1.272 . S
O158 Co154 2.004 . S
O158 C163 1.259 . S
Co159 O160 2.061 1_455 S
Co159 O165 2.052 . S
Co159 O167 2.135 . S
O160 Co159 2.061 1_655 S
O160 C163 1.235 . S
C161 O164 1.238 . S
C161 O165 1.241 . S
C162 O155 1.247 1_654 S
C162 O156 1.261 1_554 S
C163 O158 1.259 . S
C163 O160 1.235 . S
O164 Co154 2.021 1_455 S
O164 C161 1.238 . S
O165 Co159 2.052 . S
O165 C161 1.241 . S
O166 Co154 2.137 1_455 S
O166 C157 1.247 . S
O167 Co154 2.244 1_455 S
O167 C157 1.272 . S
O167 Co159 2.135 . S
Co168 O169 2.216 1_545 S
Co168 O170 2.091 . S
Co168 O172 2.004 . S
Co168 O178 2.021 1_545 S
Co168 O180 2.137 1_545 S
Co168 O181 2.244 1_545 S
O169 Co168 2.216 1_565 S
O169 C176 1.247 1_565 S
O170 Co168 2.091 . S
O170 C176 1.261 . S
C171 O180 1.247 . S
C171 O181 1.272 . S
O172 Co168 2.004 . S
O172 C177 1.259 . S
Co173 O174 2.061 1_565 S
Co173 O179 2.052 . S
Co173 O181 2.135 . S
O174 Co173 2.061 1_545 S
O174 C177 1.235 . S
C175 O178 1.238 . S
C175 O179 1.241 . S
C176 O169 1.247 1_545 S
C176 O170 1.261 . S
C177 O172 1.259 . S
C177 O174 1.235 . S
O178 Co168 2.021 1_565 S
O178 C175 1.238 . S
O179 Co173 2.052 . S
O179 C175 1.241 . S
O180 Co168 2.137 1_565 S
O180 C171 1.247 . S
O181 Co168 2.244 1_565 S
O181 C171 1.272 . S
O181 Co173 2.135 . S
Co182 O183 2.216 . S
Co182 O184 2.091 . S
Co182 O186 2.004 . S
Co182 O192 2.021 . S
Co182 O194 2.137 . S
Co182 O195 2.244 . S
O183 Co182 2.216 . S
O183 C190 1.247 . S
O184 Co182 2.091 . S
O184 C190 1.261 . S
C185 O194 1.247 . S
C185 O195 1.272 . S
O186 Co182 2.004 . S
O186 C191 1.259 . S
Co187 O188 2.061 . S
Co187 O193 2.052 . S
Co187 O195 2.135 . S
O188 Co187 2.061 . S
O188 C191 1.235 . S
C189 O192 1.238 . S
C189 O193 1.241 . S
C190 O183 1.247 . S
C190 O184 1.261 . S
C191 O186 1.259 . S
C191 O188 1.235 . S
O192 Co182 2.021 . S
O192 C189 1.238 . S
O193 Co187 2.052 . S
O193 C189 1.241 . S
O194 Co182 2.137 . S
O194 C185 1.247 . S
O195 Co182 2.244 . S
O195 C185 1.272 . S
O195 Co187 2.135 . S
Co196 O197 2.216 . S
Co196 O198 2.091 . S
Co196 O200 2.004 . S
Co196 O206 2.021 . S
Co196 O208 2.137 . S
Co196 O209 2.244 . S
O197 Co196 2.216 . S
O197 C204 1.247 . S
O198 Co196 2.091 . S
O198 C204 1.261 . S
C199 O208 1.247 . S
C199 O209 1.272 . S
O200 Co196 2.004 . S
O200 C205 1.259 . S
Co201 O202 2.061 . S
Co201 O207 2.052 . S
Co201 O209 2.135 . S
O202 Co201 2.061 . S
O202 C205 1.235 . S
C203 O206 1.238 . S
C203 O207 1.241 . S
C204 O197 1.247 . S
C204 O198 1.261 . S
C205 O200 1.259 . S
C205 O202 1.235 . S
O206 Co196 2.021 . S
O206 C203 1.238 . S
O207 Co201 2.052 . S
O207 C203 1.241 . S
O208 Co196 2.137 . S
O208 C199 1.247 . S
O209 Co196 2.244 . S
O209 C199 1.272 . S
O209 Co201 2.135 . S
Co210 O211 2.216 1_455 S
Co210 O212 2.091 . S
Co210 O214 2.004 . S
Co210 O220 2.021 1_455 S
Co210 O222 2.137 1_455 S
Co210 O223 2.244 1_455 S
O211 Co210 2.216 1_655 S
O211 C218 1.247 1_655 S
O212 Co210 2.091 . S
O212 C218 1.261 . S
C213 O222 1.247 . S
C213 O223 1.272 . S
O214 Co210 2.004 . S
O214 C219 1.259 . S
Co215 O216 2.061 1_655 S
Co215 O221 2.052 . S
Co215 O223 2.135 . S
O216 Co215 2.061 1_455 S
O216 C219 1.235 . S
C217 O220 1.238 . S
C217 O221 1.241 . S
C218 O211 1.247 1_455 S
C218 O212 1.261 . S
C219 O214 1.259 . S
C219 O216 1.235 . S
O220 Co210 2.021 1_655 S
O220 C217 1.238 . S
O221 Co215 2.052 . S
O221 C217 1.241 . S
O222 Co210 2.137 1_655 S
O222 C213 1.247 . S
O223 Co210 2.244 1_655 S
O223 C213 1.272 . S
O223 Co215 2.135 . S
H224 C232 0.950 . S
H225 C237 0.950 . S
H226 C234 0.950 . S
H227 C236 0.950 . S
H228 C238 0.950 . S
H229 C240 0.950 . S
H230 C242 0.950 . S
H231 C243 0.950 . S
C232 H224 0.950 . S
C232 C233 1.386 . S
C232 C234 1.391 . S
C233 C232 1.386 . S
C233 C237 1.393 . S
C234 H226 0.950 . S
C234 C232 1.391 . S
C234 C235 1.400 . S
C235 C234 1.400 . S
C235 C236 1.398 . S
C235 C241 1.491 . S
C236 H227 0.950 . S
C236 C235 1.398 . S
C236 C237 1.391 . S
C237 H225 0.950 . S
C237 C233 1.393 . S
C237 C236 1.391 . S
C238 H228 0.950 . S
C238 C239 1.386 . S
C238 C240 1.391 . S
C239 C238 1.386 . S
C239 C243 1.393 . S
C240 H229 0.950 . S
C240 C238 1.391 . S
C240 C241 1.400 . S
C241 C235 1.491 . S
C241 C240 1.400 . S
C241 C242 1.398 . S
C242 H230 0.950 . S
C242 C241 1.398 . S
C242 C243 1.391 . S
C243 H231 0.950 . S
C243 C239 1.393 . S
C243 C242 1.391 . S
H244 C252 0.950 . S
H245 C257 0.950 . S
H246 C254 0.950 . S
H247 C256 0.950 . S
H248 C258 0.950 . S
H249 C260 0.950 . S
H250 C262 0.950 . S
H251 C263 0.950 . S
C252 H244 0.950 . S
C252 C253 1.386 . S
C252 C254 1.391 . S
C253 C252 1.386 . S
C253 C257 1.393 . S
C254 H246 0.950 . S
C254 C252 1.391 . S
C254 C255 1.400 . S
C255 C254 1.400 . S
C255 C256 1.398 . S
C255 C261 1.491 . S
C256 H247 0.950 . S
C256 C255 1.398 . S
C256 C257 1.391 . S
C257 H245 0.950 . S
C257 C253 1.393 . S
C257 C256 1.391 . S
C258 H248 0.950 . S
C258 C259 1.386 . S
C258 C260 1.391 . S
C259 C258 1.386 . S
C259 C263 1.393 . S
C260 H249 0.950 . S
C260 C258 1.391 . S
C260 C261 1.400 . S
C261 C255 1.491 . S
C261 C260 1.400 . S
C261 C262 1.398 . S
C262 H250 0.950 . S
C262 C261 1.398 . S
C262 C263 1.391 . S
C263 H251 0.950 . S
C263 C259 1.393 . S
C263 C262 1.391 . S
H264 C272 0.950 . S
H265 C277 0.950 . S
H266 C274 0.950 . S
H267 C276 0.950 . S
H268 C278 0.950 . S
H269 C280 0.950 . S
H270 C282 0.950 . S
H271 C283 0.950 . S
C272 H264 0.950 . S
C272 C273 1.386 . S
C272 C274 1.391 . S
C273 C272 1.386 . S
C273 C277 1.393 . S
C274 H266 0.950 . S
C274 C272 1.391 . S
C274 C275 1.400 . S
C275 C274 1.400 . S
C275 C276 1.398 . S
C275 C281 1.491 . S
C276 H267 0.950 . S
C276 C275 1.398 . S
C276 C277 1.391 . S
C277 H265 0.950 . S
C277 C273 1.393 . S
C277 C276 1.391 . S
C278 H268 0.950 . S
C278 C279 1.386 . S
C278 C280 1.391 . S
C279 C278 1.386 . S
C279 C283 1.393 . S
C280 H269 0.950 . S
C280 C278 1.391 . S
C280 C281 1.400 . S
C281 C275 1.491 . S
C281 C280 1.400 . S
C281 C282 1.398 . S
C282 H270 0.950 . S
C282 C281 1.398 . S
C282 C283 1.391 . S
C283 H271 0.950 . S
C283 C279 1.393 . S
C283 C282 1.391 . S
H284 C292 0.950 . S
H285 C297 0.950 . S
H286 C294 0.950 . S
H287 C296 0.950 . S
H288 C298 0.950 . S
H289 C300 0.950 . S
H290 C302 0.950 . S
H291 C303 0.950 . S
C292 H284 0.950 . S
C292 C293 1.386 . S
C292 C294 1.391 . S
C293 C292 1.386 . S
C293 C297 1.393 . S
C294 H286 0.950 . S
C294 C292 1.391 . S
C294 C295 1.400 . S
C295 C294 1.400 . S
C295 C296 1.398 . S
C295 C301 1.491 . S
C296 H287 0.950 . S
C296 C295 1.398 . S
C296 C297 1.391 . S
C297 H285 0.950 . S
C297 C293 1.393 . S
C297 C296 1.391 . S
C298 H288 0.950 . S
C298 C299 1.386 . S
C298 C300 1.391 . S
C299 C298 1.386 . S
C299 C303 1.393 . S
C300 H289 0.950 . S
C300 C298 1.391 . S
C300 C301 1.400 . S
C301 C295 1.491 . S
C301 C300 1.400 . S
C301 C302 1.398 . S
C302 H290 0.950 . S
C302 C301 1.398 . S
C302 C303 1.391 . S
C303 H291 0.950 . S
C303 C299 1.393 . S
C303 C302 1.391 . S
H304 C312 0.950 . S
H305 C317 0.950 . S
H306 C314 0.950 . S
H307 C316 0.950 . S
H308 C318 0.950 . S
H309 C320 0.950 . S
H310 C322 0.950 . S
H311 C323 0.950 . S
C312 H304 0.950 . S
C312 C313 1.386 . S
C312 C314 1.391 . S
C313 C312 1.386 . S
C313 C317 1.393 . S
C314 H306 0.950 . S
C314 C312 1.391 . S
C314 C315 1.400 . S
C315 C314 1.400 . S
C315 C316 1.398 . S
C315 C321 1.491 . S
C316 H307 0.950 . S
C316 C315 1.398 . S
C316 C317 1.391 . S
C317 H305 0.950 . S
C317 C313 1.393 . S
C317 C316 1.391 . S
C318 H308 0.950 . S
C318 C319 1.386 . S
C318 C320 1.391 . S
C319 C318 1.386 . S
C319 C323 1.393 . S
C320 H309 0.950 . S
C320 C318 1.391 . S
C320 C321 1.400 . S
C321 C315 1.491 . S
C321 C320 1.400 . S
C321 C322 1.398 . S
C322 H310 0.950 . S
C322 C321 1.398 . S
C322 C323 1.391 . S
C323 H311 0.950 . S
C323 C319 1.393 . S
C323 C322 1.391 . S
H324 C332 0.950 . S
H325 C337 0.950 . S
H326 C334 0.950 . S
H327 C336 0.950 . S
H328 C338 0.950 . S
H329 C340 0.950 . S
H330 C342 0.950 . S
H331 C343 0.950 . S
C332 H324 0.950 . S
C332 C333 1.386 . S
C332 C334 1.391 . S
C333 C332 1.386 . S
C333 C337 1.393 . S
C334 H326 0.950 . S
C334 C332 1.391 . S
C334 C335 1.400 . S
C335 C334 1.400 . S
C335 C336 1.398 . S
C335 C341 1.491 . S
C336 H327 0.950 . S
C336 C335 1.398 . S
C336 C337 1.391 . S
C337 H325 0.950 . S
C337 C333 1.393 . S
C337 C336 1.391 . S
C338 H328 0.950 . S
C338 C339 1.386 . S
C338 C340 1.391 . S
C339 C338 1.386 . S
C339 C343 1.393 . S
C340 H329 0.950 . S
C340 C338 1.391 . S
C340 C341 1.400 . S
C341 C335 1.491 . S
C341 C340 1.400 . S
C341 C342 1.398 . S
C342 H330 0.950 . S
C342 C341 1.398 . S
C342 C343 1.391 . S
C343 H331 0.950 . S
C343 C339 1.393 . S
C343 C342 1.391 . S
H344 C352 0.950 . S
H345 C357 0.950 . S
H346 C354 0.950 . S
H347 C356 0.950 . S
H348 C358 0.950 . S
H349 C360 0.950 . S
H350 C362 0.950 . S
H351 C363 0.950 . S
C352 H344 0.950 . S
C352 C353 1.386 . S
C352 C354 1.391 . S
C353 C352 1.386 . S
C353 C357 1.393 . S
C354 H346 0.950 . S
C354 C352 1.391 . S
C354 C355 1.400 . S
C355 C354 1.400 . S
C355 C356 1.398 . S
C355 C361 1.491 . S
C356 H347 0.950 . S
C356 C355 1.398 . S
C356 C357 1.391 . S
C357 H345 0.950 . S
C357 C353 1.393 . S
C357 C356 1.391 . S
C358 H348 0.950 . S
C358 C359 1.386 . S
C358 C360 1.391 . S
C359 C358 1.386 . S
C359 C363 1.393 . S
C360 H349 0.950 . S
C360 C358 1.391 . S
C360 C361 1.400 . S
C361 C355 1.491 . S
C361 C360 1.400 . S
C361 C362 1.398 . S
C362 H350 0.950 . S
C362 C361 1.398 . S
C362 C363 1.391 . S
C363 H351 0.950 . S
C363 C359 1.393 . S
C363 C362 1.391 . S
H364 C372 0.950 . S
H365 C377 0.950 . S
H366 C374 0.950 . S
H367 C376 0.950 . S
H368 C378 0.950 . S
H369 C380 0.950 . S
H370 C382 0.950 . S
H371 C383 0.950 . S
C372 H364 0.950 . S
C372 C373 1.386 . S
C372 C374 1.391 . S
C373 C372 1.386 . S
C373 C377 1.393 . S
C374 H366 0.950 . S
C374 C372 1.391 . S
C374 C375 1.400 . S
C375 C374 1.400 . S
C375 C376 1.398 . S
C375 C381 1.491 . S
C376 H367 0.950 . S
C376 C375 1.398 . S
C376 C377 1.391 . S
C377 H365 0.950 . S
C377 C373 1.393 . S
C377 C376 1.391 . S
C378 H368 0.950 . S
C378 C379 1.386 . S
C378 C380 1.391 . S
C379 C378 1.386 . S
C379 C383 1.393 . S
C380 H369 0.950 . S
C380 C378 1.391 . S
C380 C381 1.400 . S
C381 C375 1.491 . S
C381 C380 1.400 . S
C381 C382 1.398 . S
C382 H370 0.950 . S
C382 C381 1.398 . S
C382 C383 1.391 . S
C383 H371 0.950 . S
C383 C379 1.393 . S
C383 C382 1.391 . S
H384 C392 0.950 . S
H385 C397 0.950 . S
H386 C394 0.950 . S
H387 C396 0.950 . S
H388 C398 0.950 . S
H389 C400 0.950 . S
H390 C402 0.950 . S
H391 C403 0.950 . S
C392 H384 0.950 . S
C392 C393 1.399 . S
C392 C394 1.391 . S
C393 C392 1.399 . S
C393 C397 1.377 1_545 S
C394 H386 0.950 . S
C394 C392 1.391 . S
C394 C395 1.400 1_545 S
C395 C394 1.400 1_565 S
C395 C396 1.398 . S
C395 C401 1.491 . S
C396 H387 0.950 . S
C396 C395 1.398 . S
C396 C397 1.391 . S
C397 H385 0.950 . S
C397 C393 1.377 1_565 S
C397 C396 1.391 . S
C398 H388 0.950 . S
C398 C399 1.386 . S
C398 C400 1.391 . S
C399 C398 1.386 . S
C399 C403 1.393 1_565 S
C400 H389 0.950 . S
C400 C398 1.391 . S
C400 C401 1.400 . S
C401 C395 1.491 . S
C401 C400 1.400 . S
C401 C402 1.398 1_565 S
C402 H390 0.950 . S
C402 C401 1.398 1_545 S
C402 C403 1.391 . S
C403 H391 0.950 . S
C403 C399 1.393 1_545 S
C403 C402 1.391 . S
H404 C412 0.950 . S
H405 C417 0.950 . S
H406 C414 0.950 . S
H407 C416 0.950 . S
H408 C418 0.950 . S
H409 C420 0.950 . S
H410 C422 0.950 . S
H411 C423 0.950 . S
C412 H404 0.950 . S
C412 C413 1.386 . S
C412 C414 1.391 . S
C413 C412 1.386 . S
C413 C417 1.393 . S
C414 H406 0.950 . S
C414 C412 1.391 . S
C414 C415 1.400 . S
C415 C414 1.400 . S
C415 C416 1.398 . S
C415 C421 1.491 . S
C416 H407 0.950 . S
C416 C415 1.398 . S
C416 C417 1.391 . S
C417 H405 0.950 . S
C417 C413 1.393 . S
C417 C416 1.391 . S
C418 H408 0.950 . S
C418 C419 1.386 . S
C418 C420 1.391 . S
C419 C418 1.386 . S
C419 C423 1.393 . S
C420 H409 0.950 . S
C420 C418 1.391 . S
C420 C421 1.400 . S
C421 C415 1.491 . S
C421 C420 1.400 . S
C421 C422 1.398 . S
C422 H410 0.950 . S
C422 C421 1.398 . S
C422 C423 1.391 . S
C423 H411 0.950 . S
C423 C419 1.393 . S
C423 C422 1.391 . S
H424 C432 0.950 . S
H425 C437 0.950 . S
H426 C434 0.950 . S
H427 C436 0.950 . S
H428 C438 0.950 . S
H429 C440 0.950 . S
H430 C442 0.950 . S
H431 C443 0.950 . S
C432 H424 0.950 . S
C432 C433 1.386 . S
C432 C434 1.391 . S
C433 C432 1.386 . S
C433 C437 1.393 . S
C434 H426 0.950 . S
C434 C432 1.391 . S
C434 C435 1.400 . S
C435 C434 1.400 . S
C435 C436 1.398 . S
C435 C441 1.491 . S
C436 H427 0.950 . S
C436 C435 1.398 . S
C436 C437 1.391 . S
C437 H425 0.950 . S
C437 C433 1.393 . S
C437 C436 1.391 . S
C438 H428 0.950 . S
C438 C439 1.386 . S
C438 C440 1.391 . S
C439 C438 1.386 . S
C439 C443 1.393 . S
C440 H429 0.950 . S
C440 C438 1.391 . S
C440 C441 1.400 . S
C441 C435 1.491 . S
C441 C440 1.400 . S
C441 C442 1.398 . S
C442 H430 0.950 . S
C442 C441 1.398 . S
C442 C443 1.391 . S
C443 H431 0.950 . S
C443 C439 1.393 . S
C443 C442 1.391 . S
H444 C452 0.950 . S
H445 C457 0.950 . S
H446 C454 0.950 . S
H447 C456 0.950 . S
H448 C458 0.950 1_455 S
H449 C460 0.950 1_455 S
H450 C462 0.950 . S
H451 C463 0.950 . S
C452 H444 0.950 . S
C452 C453 1.374 1_655 S
C452 C454 1.391 . S
C453 C452 1.374 1_455 S
C453 C457 1.402 . S
C454 H446 0.950 . S
C454 C452 1.391 . S
C454 C455 1.400 . S
C455 C454 1.400 . S
C455 C456 1.398 1_655 S
C455 C461 1.491 . S
C456 H447 0.950 . S
C456 C455 1.398 1_455 S
C456 C457 1.391 . S
C457 H445 0.950 . S
C457 C453 1.402 . S
C457 C456 1.391 . S
C458 H448 0.950 1_655 S
C458 C459 1.386 . S
C458 C460 1.391 . S
C459 C458 1.386 . S
C459 C463 1.393 . S
C460 H449 0.950 1_655 S
C460 C458 1.391 . S
C460 C461 1.400 . S
C461 C455 1.491 . S
C461 C460 1.400 . S
C461 C462 1.398 . S
C462 H450 0.950 . S
C462 C461 1.398 . S
C462 C463 1.391 . S
C463 H451 0.950 . S
C463 C459 1.393 . S
C463 C462 1.391 . S
H464 C472 0.950 . S
H465 C477 0.950 . S
H466 C474 0.950 . S
H467 C476 0.950 . S
H468 C478 0.950 . S
H469 C480 0.950 . S
H470 C482 0.950 1_565 S
H471 C483 0.950 . S
C472 H464 0.950 . S
C472 C473 1.386 1_565 S
C472 C474 1.391 . S
C473 C472 1.386 1_545 S
C473 C477 1.393 . S
C474 H466 0.950 . S
C474 C472 1.391 . S
C474 C475 1.400 1_565 S
C475 C474 1.400 1_545 S
C475 C476 1.398 . S
C475 C481 1.491 . S
C476 H467 0.950 . S
C476 C475 1.398 . S
C476 C477 1.391 . S
C477 H465 0.950 . S
C477 C473 1.393 . S
C477 C476 1.391 . S
C478 H468 0.950 . S
C478 C479 1.386 . S
C478 C480 1.391 . S
C479 C478 1.386 . S
C479 C483 1.393 . S
C480 H469 0.950 . S
C480 C478 1.391 . S
C480 C481 1.400 . S
C481 C475 1.491 . S
C481 C480 1.400 . S
C481 C482 1.398 . S
C482 H470 0.950 1_545 S
C482 C481 1.398 . S
C482 C483 1.391 . S
C483 H471 0.950 . S
C483 C479 1.393 . S
C483 C482 1.391 . S
H484 C492 0.950 . S
H485 C497 0.950 . S
H486 C494 0.950 . S
H487 C496 0.950 . S
H488 C498 0.950 . S
H489 C500 0.950 . S
H490 C502 0.950 . S
H491 C503 0.950 . S
C492 H484 0.950 . S
C492 C493 1.386 . S
C492 C494 1.391 . S
C493 C492 1.386 . S
C493 C497 1.393 . S
C494 H486 0.950 . S
C494 C492 1.391 . S
C494 C495 1.400 . S
C495 C494 1.400 . S
C495 C496 1.398 . S
C495 C501 1.491 . S
C496 H487 0.950 . S
C496 C495 1.398 . S
C496 C497 1.391 . S
C497 H485 0.950 . S
C497 C493 1.393 . S
C497 C496 1.391 . S
C498 H488 0.950 . S
C498 C499 1.386 . S
C498 C500 1.391 . S
C499 C498 1.386 . S
C499 C503 1.393 . S
C500 H489 0.950 . S
C500 C498 1.391 . S
C500 C501 1.400 . S
C501 C495 1.491 . S
C501 C500 1.400 . S
C501 C502 1.398 . S
C502 H490 0.950 . S
C502 C501 1.398 . S
C502 C503 1.391 . S
C503 H491 0.950 . S
C503 C499 1.393 . S
C503 C502 1.391 . S
H504 C512 0.950 . S
H505 C517 0.950 . S
H506 C514 0.950 . S
H507 C516 0.950 . S
H508 C518 0.950 . S
H509 C520 0.950 . S
H510 C522 0.950 . S
H511 C523 0.950 . S
C512 H504 0.950 . S
C512 C513 1.386 . S
C512 C514 1.391 . S
C513 C512 1.386 . S
C513 C517 1.393 . S
C514 H506 0.950 . S
C514 C512 1.391 . S
C514 C515 1.400 . S
C515 C514 1.400 . S
C515 C516 1.398 . S
C515 C521 1.491 . S
C516 H507 0.950 . S
C516 C515 1.398 . S
C516 C517 1.391 . S
C517 H505 0.950 . S
C517 C513 1.393 . S
C517 C516 1.391 . S
C518 H508 0.950 . S
C518 C519 1.386 . S
C518 C520 1.391 . S
C519 C518 1.386 . S
C519 C523 1.393 . S
C520 H509 0.950 . S
C520 C518 1.391 . S
C520 C521 1.400 . S
C521 C515 1.491 . S
C521 C520 1.400 . S
C521 C522 1.398 . S
C522 H510 0.950 . S
C522 C521 1.398 . S
C522 C523 1.391 . S
C523 H511 0.950 . S
C523 C519 1.393 . S
C523 C522 1.391 . S
H524 C532 0.950 . S
H525 C537 0.950 . S
H526 C534 0.950 . S
H527 C536 0.950 1_655 S
H528 C538 0.950 . S
H529 C540 0.950 . S
H530 C542 0.950 . S
H531 C543 0.950 . S
C532 H524 0.950 . S
C532 C533 1.396 . S
C532 C534 1.391 . S
C533 C532 1.396 . S
C533 C537 1.388 1_455 S
C534 H526 0.950 . S
C534 C532 1.391 . S
C534 C535 1.400 . S
C535 C534 1.400 . S
C535 C536 1.398 . S
C535 C541 1.491 . S
C536 H527 0.950 1_455 S
C536 C535 1.398 . S
C536 C537 1.391 1_455 S
C537 H525 0.950 . S
C537 C533 1.388 1_655 S
C537 C536 1.391 1_655 S
C538 H528 0.950 . S
C538 C539 1.386 . S
C538 C540 1.391 . S
C539 C538 1.386 . S
C539 C543 1.393 . S
C540 H529 0.950 . S
C540 C538 1.391 . S
C540 C541 1.400 . S
C541 C535 1.491 . S
C541 C540 1.400 . S
C541 C542 1.398 . S
C542 H530 0.950 . S
C542 C541 1.398 . S
C542 C543 1.391 . S
C543 H531 0.950 . S
C543 C539 1.393 . S
C543 C542 1.391 . S
H544 C552 0.950 . S
H545 C557 0.950 . S
H546 C554 0.938 1_565 S
H547 C556 0.950 . S
H548 C558 0.950 . S
H549 C560 0.950 . S
H550 C562 0.955 . S
H551 C563 0.950 . S
C552 H544 0.950 . S
C552 C553 1.386 . S
C552 C554 1.391 . S
C553 C552 1.386 . S
C553 C557 1.393 . S
C554 H546 0.938 1_545 S
C554 C552 1.391 . S
C554 C555 1.400 . S
C555 C554 1.400 . S
C555 C556 1.398 . S
C555 C561 1.491 . S
C556 H547 0.950 . S
C556 C555 1.398 . S
C556 C557 1.391 . S
C557 H545 0.950 . S
C557 C553 1.393 . S
C557 C556 1.391 . S
C558 H548 0.950 . S
C558 C559 1.398 . S
C558 C560 1.391 . S
C559 C558 1.398 . S
C559 C563 1.387 1_545 S
C560 H549 0.950 . S
C560 C558 1.391 . S
C560 C561 1.400 . S
C561 C555 1.491 . S
C561 C560 1.400 . S
C561 C562 1.390 1_545 S
C562 H550 0.955 . S
C562 C561 1.390 1_565 S
C562 C563 1.395 . S
C563 H551 0.950 . S
C563 C559 1.387 1_565 S
C563 C562 1.395 . S
H564 C572 0.950 . S
H565 C577 0.950 . S
H566 C574 0.950 . S
H567 C576 0.950 . S
H568 C578 0.950 . S
H569 C580 0.950 . S
H570 C582 0.950 . S
H571 C583 0.950 . S
C572 H564 0.950 . S
C572 C573 1.386 . S
C572 C574 1.391 . S
C573 C572 1.386 . S
C573 C577 1.393 . S
C574 H566 0.950 . S
C574 C572 1.391 . S
C574 C575 1.400 . S
C575 C574 1.400 . S
C575 C576 1.398 . S
C575 C581 1.491 . S
C576 H567 0.950 . S
C576 C575 1.398 . S
C576 C577 1.391 . S
C577 H565 0.950 . S
C577 C573 1.393 . S
C577 C576 1.391 . S
C578 H568 0.950 . S
C578 C579 1.386 . S
C578 C580 1.391 . S
C579 C578 1.386 . S
C579 C583 1.393 . S
C580 H569 0.950 . S
C580 C578 1.391 . S
C580 C581 1.400 . S
C581 C575 1.491 . S
C581 C580 1.400 . S
C581 C582 1.398 . S
C582 H570 0.950 . S
C582 C581 1.398 . S
C582 C583 1.391 . S
C583 H571 0.950 . S
C583 C579 1.393 . S
C583 C582 1.391 . S
H584 C592 0.950 . S
H585 C597 0.950 . S
H586 C594 0.950 . S
H587 C596 0.950 . S
H588 C598 0.950 . S
H589 C600 0.950 . S
H590 C602 0.950 . S
H591 C603 0.950 . S
C592 H584 0.950 . S
C592 C593 1.386 . S
C592 C594 1.391 . S
C593 C592 1.386 . S
C593 C597 1.393 . S
C594 H586 0.950 . S
C594 C592 1.391 . S
C594 C595 1.400 . S
C595 C594 1.400 . S
C595 C596 1.398 . S
C595 C601 1.491 . S
C596 H587 0.950 . S
C596 C595 1.398 . S
C596 C597 1.391 . S
C597 H585 0.950 . S
C597 C593 1.393 . S
C597 C596 1.391 . S
C598 H588 0.950 . S
C598 C599 1.386 . S
C598 C600 1.391 . S
C599 C598 1.386 . S
C599 C603 1.393 . S
C600 H589 0.950 . S
C600 C598 1.391 . S
C600 C601 1.400 . S
C601 C595 1.491 . S
C601 C600 1.400 . S
C601 C602 1.398 . S
C602 H590 0.950 . S
C602 C601 1.398 . S
C602 C603 1.391 . S
C603 H591 0.950 . S
C603 C599 1.393 . S
C603 C602 1.391 . S
H604 C612 0.950 . S
H605 C617 0.950 . S
H606 C614 0.945 1_655 S
H607 C616 0.950 . S
H608 C618 0.950 . S
H609 C620 0.950 . S
H610 C622 0.959 . S
H611 C623 0.950 . S
C612 H604 0.950 . S
C612 C613 1.386 1_655 S
C612 C614 1.387 1_655 S
C613 C612 1.386 1_455 S
C613 C617 1.393 . S
C614 H606 0.945 1_455 S
C614 C612 1.387 1_455 S
C614 C615 1.411 . S
C615 C614 1.411 . S
C615 C616 1.398 . S
C615 C621 1.491 . S
C616 H607 0.950 . S
C616 C615 1.398 . S
C616 C617 1.391 . S
C617 H605 0.950 . S
C617 C613 1.393 . S
C617 C616 1.391 . S
C618 H608 0.950 . S
C618 C619 1.386 . S
C618 C620 1.391 . S
C619 C618 1.386 . S
C619 C623 1.393 . S
C620 H609 0.950 . S
C620 C618 1.391 . S
C620 C621 1.400 . S
C621 C615 1.491 . S
C621 C620 1.400 . S
C621 C622 1.398 . S
C622 H610 0.959 . S
C622 C621 1.398 . S
C622 C623 1.391 . S
C623 H611 0.950 . S
C623 C619 1.393 . S
C623 C622 1.391 . S
H624 C632 0.950 . S
H625 C637 0.950 . S
H626 C634 0.950 . S
H627 C636 0.950 . S
H628 C638 0.950 . S
H629 C640 0.950 . S
H630 C642 0.950 . S
H631 C643 0.950 . S
C632 H624 0.950 . S
C632 C633 1.386 . S
C632 C634 1.391 . S
C633 C632 1.386 . S
C633 C637 1.393 . S
C634 H626 0.950 . S
C634 C632 1.391 . S
C634 C635 1.400 . S
C635 C634 1.400 . S
C635 C636 1.398 . S
C635 C641 1.491 . S
C636 H627 0.950 . S
C636 C635 1.398 . S
C636 C637 1.391 . S
C637 H625 0.950 . S
C637 C633 1.393 . S
C637 C636 1.391 . S
C638 H628 0.950 . S
C638 C639 1.387 . S
C638 C640 1.391 1_545 S
C639 C638 1.387 . S
C639 C643 1.388 1_545 S
C640 H629 0.950 . S
C640 C638 1.391 1_565 S
C640 C641 1.400 . S
C641 C635 1.491 . S
C641 C640 1.400 . S
C641 C642 1.398 . S
C642 H630 0.950 . S
C642 C641 1.398 . S
C642 C643 1.391 . S
C643 H631 0.950 . S
C643 C639 1.388 1_565 S
C643 C642 1.391 . S
H644 C652 0.950 . S
H645 C657 0.950 . S
H646 C654 0.950 . S
H647 C656 0.950 . S
H648 C658 0.950 . S
H649 C660 0.950 . S
H650 C662 0.950 . S
H651 C663 0.950 . S
C652 H644 0.950 . S
C652 C653 1.386 . S
C652 C654 1.391 . S
C653 C652 1.386 . S
C653 C657 1.393 . S
C654 H646 0.950 . S
C654 C652 1.391 . S
C654 C655 1.400 . S
C655 C654 1.400 . S
C655 C656 1.398 . S
C655 C661 1.491 . S
C656 H647 0.950 . S
C656 C655 1.398 . S
C656 C657 1.391 . S
C657 H645 0.950 . S
C657 C653 1.393 . S
C657 C656 1.391 . S
C658 H648 0.950 . S
C658 C659 1.386 . S
C658 C660 1.391 . S
C659 C658 1.386 . S
C659 C663 1.393 . S
C660 H649 0.950 . S
C660 C658 1.391 . S
C660 C661 1.400 . S
C661 C655 1.491 . S
C661 C660 1.400 . S
C661 C662 1.398 . S
C662 H650 0.950 . S
C662 C661 1.398 . S
C662 C663 1.391 . S
C663 H651 0.950 . S
C663 C659 1.393 . S
C663 C662 1.391 . S
H664 C672 0.950 . S
H665 C677 0.950 . S
H666 C674 0.950 . S
H667 C676 0.950 . S
H668 C678 0.950 . S
H669 C680 0.950 . S
H670 C682 0.950 . S
H671 C683 0.950 . S
C672 H664 0.950 . S
C672 C673 1.386 . S
C672 C674 1.391 . S
C673 C672 1.386 . S
C673 C677 1.393 . S
C674 H666 0.950 . S
C674 C672 1.391 . S
C674 C675 1.400 . S
C675 C674 1.400 . S
C675 C676 1.398 . S
C675 C681 1.491 . S
C676 H667 0.950 . S
C676 C675 1.398 . S
C676 C677 1.391 . S
C677 H665 0.950 . S
C677 C673 1.393 . S
C677 C676 1.391 . S
C678 H668 0.950 . S
C678 C679 1.386 . S
C678 C680 1.391 . S
C679 C678 1.386 . S
C679 C683 1.393 . S
C680 H669 0.950 . S
C680 C678 1.391 . S
C680 C681 1.400 . S
C681 C675 1.491 . S
C681 C680 1.400 . S
C681 C682 1.398 . S
C682 H670 0.950 . S
C682 C681 1.398 . S
C682 C683 1.391 . S
C683 H671 0.950 . S
C683 C679 1.393 . S
C683 C682 1.391 . S
H684 C692 0.950 . S
H685 C697 0.950 1_455 S
H686 C694 0.950 . S
H687 C696 0.950 . S
H688 C698 0.950 . S
H689 C700 0.950 . S
H690 C702 0.950 . S
H691 C703 0.950 . S
C692 H684 0.950 . S
C692 C693 1.386 . S
C692 C694 1.391 . S
C693 C692 1.386 . S
C693 C697 1.393 . S
C694 H686 0.950 . S
C694 C692 1.391 . S
C694 C695 1.400 . S
C695 C694 1.400 . S
C695 C696 1.398 1_655 S
C695 C701 1.491 . S
C696 H687 0.950 . S
C696 C695 1.398 1_455 S
C696 C697 1.391 1_455 S
C697 H685 0.950 1_655 S
C697 C693 1.393 . S
C697 C696 1.391 1_655 S
C698 H688 0.950 . S
C698 C699 1.371 1_455 S
C698 C700 1.391 . S
C699 C698 1.371 1_655 S
C699 C703 1.413 . S
C700 H689 0.950 . S
C700 C698 1.391 . S
C700 C701 1.400 1_455 S
C701 C695 1.491 . S
C701 C700 1.400 1_655 S
C701 C702 1.398 . S
C702 H690 0.950 . S
C702 C701 1.398 . S
C702 C703 1.391 . S
C703 H691 0.950 . S
C703 C699 1.413 . S
C703 C702 1.391 . S
H704 C712 0.932 1_565 S
H705 C717 0.950 . S
H706 C714 0.950 . S
H707 C716 0.950 . S
H708 C718 0.950 1_545 S
H709 C720 0.950 . S
H710 C722 0.950 . S
H711 C723 0.950 . S
C712 H704 0.932 1_545 S
C712 C713 1.416 1_554 S
C712 C714 1.380 1_545 S
C713 C712 1.416 1_556 S
C713 C717 1.393 . S
C714 H706 0.950 . S
C714 C712 1.380 1_565 S
C714 C715 1.400 1_564 S
C715 C714 1.400 1_546 S
C715 C716 1.398 . S
C715 C721 1.491 1_546 S
C716 H707 0.950 . S
C716 C715 1.398 . S
C716 C717 1.391 . S
C717 H705 0.950 . S
C717 C713 1.393 . S
C717 C716 1.391 . S
C718 H708 0.950 1_565 S
C718 C719 1.386 1_556 S
C718 C720 1.391 1_565 S
C719 C718 1.386 1_554 S
C719 C723 1.393 . S
C720 H709 0.950 . S
C720 C718 1.391 1_545 S
C720 C721 1.400 1_546 S
C721 C715 1.491 1_564 S
C721 C720 1.400 1_564 S
C721 C722 1.398 . S
C722 H710 0.950 . S
C722 C721 1.398 . S
C722 C723 1.391 . S
C723 H711 0.950 . S
C723 C719 1.393 . S
C723 C722 1.391 . S
H724 C732 0.950 . S
H725 C737 0.950 . S
H726 C734 0.950 . S
H727 C736 0.950 . S
H728 C738 0.950 . S
H729 C740 0.950 . S
H730 C742 0.950 . S
H731 C743 0.950 . S
C732 H724 0.950 . S
C732 C733 1.386 1_554 S
C732 C734 1.391 . S
C733 C732 1.386 1_556 S
C733 C737 1.393 . S
C734 H726 0.950 . S
C734 C732 1.391 . S
C734 C735 1.400 1_554 S
C735 C734 1.400 1_556 S
C735 C736 1.398 . S
C735 C741 1.491 1_556 S
C736 H727 0.950 . S
C736 C735 1.398 . S
C736 C737 1.391 . S
C737 H725 0.950 . S
C737 C733 1.393 . S
C737 C736 1.391 . S
C738 H728 0.950 . S
C738 C739 1.386 1_556 S
C738 C740 1.391 . S
C739 C738 1.386 1_554 S
C739 C743 1.393 . S
C740 H729 0.950 . S
C740 C738 1.391 . S
C740 C741 1.400 1_556 S
C741 C735 1.491 1_554 S
C741 C740 1.400 1_554 S
C741 C742 1.398 . S
C742 H730 0.950 . S
C742 C741 1.398 . S
C742 C743 1.391 . S
C743 H731 0.950 . S
C743 C739 1.393 . S
C743 C742 1.391 . S
H744 C752 0.950 . S
H745 C757 0.950 . S
H746 C754 0.950 . S
H747 C756 0.950 . S
H748 C758 0.950 . S
H749 C760 0.950 . S
H750 C762 0.950 . S
H751 C763 0.950 . S
C752 H744 0.950 . S
C752 C753 1.386 . S
C752 C754 1.391 . S
C753 C752 1.386 . S
C753 C757 1.393 1_554 S
C754 H746 0.950 . S
C754 C752 1.391 . S
C754 C755 1.400 . S
C755 C754 1.400 . S
C755 C756 1.398 1_554 S
C755 C761 1.491 1_654 S
C756 H747 0.950 . S
C756 C755 1.398 1_556 S
C756 C757 1.391 . S
C757 H745 0.950 . S
C757 C753 1.393 1_556 S
C757 C756 1.391 . S
C758 H748 0.950 . S
C758 C759 1.386 . S
C758 C760 1.391 . S
C759 C758 1.386 . S
C759 C763 1.393 1_556 S
C760 H749 0.950 . S
C760 C758 1.391 . S
C760 C761 1.400 . S
C761 C755 1.491 1_456 S
C761 C760 1.400 . S
C761 C762 1.398 1_556 S
C762 H750 0.950 . S
C762 C761 1.398 1_554 S
C762 C763 1.391 . S
C763 H751 0.950 . S
C763 C759 1.393 1_554 S
C763 C762 1.391 . S
H764 C772 0.950 . S
H765 C777 0.950 . S
H766 C774 0.950 . S
H767 C776 0.950 . S
H768 C778 0.950 . S
H769 C780 0.950 . S
H770 C782 0.950 . S
H771 C783 0.950 . S
C772 H764 0.950 . S
C772 C773 1.386 1_655 S
C772 C774 1.391 . S
C773 C772 1.386 1_455 S
C773 C777 1.393 1_556 S
C774 H766 0.950 . S
C774 C772 1.391 . S
C774 C775 1.400 1_655 S
C775 C774 1.400 1_455 S
C775 C776 1.398 1_556 S
C775 C781 1.491 1_446 S
C776 H767 0.950 . S
C776 C775 1.398 1_554 S
C776 C777 1.391 . S
C777 H765 0.950 . S
C777 C773 1.393 1_554 S
C777 C776 1.391 . S
C778 H768 0.950 . S
C778 C779 1.386 1_455 S
C778 C780 1.391 . S
C779 C778 1.386 1_655 S
C779 C783 1.393 1_554 S
C780 H769 0.950 . S
C780 C778 1.391 . S
C780 C781 1.400 1_455 S
C781 C775 1.491 1_664 S
C781 C780 1.400 1_655 S
C781 C782 1.398 1_554 S
C782 H770 0.950 . S
C782 C781 1.398 1_556 S
C782 C783 1.391 . S
C783 H771 0.950 . S
C783 C779 1.393 1_556 S
C783 C782 1.391 . S
H784 C792 0.950 . S
H785 C797 0.950 . S
H786 C794 0.950 . S
H787 C796 0.950 1_565 S
H788 C798 0.950 . S
H789 C800 0.950 . S
H790 C802 0.950 1_545 S
H791 C803 0.950 . S
C792 H784 0.950 . S
C792 C793 1.386 . S
C792 C794 1.391 . S
C793 C792 1.386 . S
C793 C797 1.393 . S
C794 H786 0.950 . S
C794 C792 1.391 . S
C794 C795 1.400 . S
C795 C794 1.400 . S
C795 C796 1.398 . S
C795 C801 1.491 1_445 S
C796 H787 0.950 1_545 S
C796 C795 1.398 . S
C796 C797 1.391 . S
C797 H785 0.950 . S
C797 C793 1.393 . S
C797 C796 1.391 . S
C798 H788 0.950 . S
C798 C799 1.386 . S
C798 C800 1.391 . S
C799 C798 1.386 . S
C799 C803 1.393 . S
C800 H789 0.950 . S
C800 C798 1.391 . S
C800 C801 1.400 . S
C801 C795 1.491 1_665 S
C801 C800 1.400 . S
C801 C802 1.398 . S
C802 H790 0.950 1_565 S
C802 C801 1.398 . S
C802 C803 1.391 . S
C803 H791 0.950 . S
C803 C799 1.393 . S
C803 C802 1.391 . S
H804 C812 0.950 . S
H805 C817 0.950 . S
H806 C814 0.950 . S
H807 C816 0.941 1_545 S
H808 C818 0.950 . S
H809 C820 0.950 . S
H810 C822 0.941 1_565 S
H811 C823 0.950 . S
C812 H804 0.950 . S
C812 C813 1.386 . S
C812 C814 1.391 . S
C813 C812 1.386 . S
C813 C817 1.393 . S
C814 H806 0.950 . S
C814 C812 1.391 . S
C814 C815 1.400 . S
C815 C814 1.400 . S
C815 C816 1.398 . S
C815 C821 1.491 1_565 S
C816 H807 0.941 1_565 S
C816 C815 1.398 . S
C816 C817 1.391 . S
C817 H805 0.950 . S
C817 C813 1.393 . S
C817 C816 1.391 . S
C818 H808 0.950 . S
C818 C819 1.386 . S
C818 C820 1.391 . S
C819 C818 1.386 . S
C819 C823 1.393 . S
C820 H809 0.950 . S
C820 C818 1.391 . S
C820 C821 1.400 . S
C821 C815 1.491 1_545 S
C821 C820 1.400 . S
C821 C822 1.398 . S
C822 H810 0.941 1_545 S
C822 C821 1.398 . S
C822 C823 1.391 . S
C823 H811 0.950 . S
C823 C819 1.393 . S
C823 C822 1.391 . S
H824 C832 0.950 . S
H825 C837 0.950 . S
H826 C834 0.950 . S
H827 C836 0.950 . S
H828 C838 0.950 . S
H829 C840 0.950 . S
H830 C842 0.950 . S
H831 C843 0.950 . S
C832 H824 0.950 . S
C832 C833 1.386 . S
C832 C834 1.391 . S
C833 C832 1.386 . S
C833 C837 1.393 . S
C834 H826 0.950 . S
C834 C832 1.391 . S
C834 C835 1.400 . S
C835 C834 1.400 . S
C835 C836 1.398 . S
C835 C841 1.491 . S
C836 H827 0.950 . S
C836 C835 1.398 . S
C836 C837 1.391 . S
C837 H825 0.950 . S
C837 C833 1.393 . S
C837 C836 1.391 . S
C838 H828 0.950 . S
C838 C839 1.386 . S
C838 C840 1.391 . S
C839 C838 1.386 . S
C839 C843 1.393 . S
C840 H829 0.950 . S
C840 C838 1.391 . S
C840 C841 1.400 . S
C841 C835 1.491 . S
C841 C840 1.400 . S
C841 C842 1.398 . S
C842 H830 0.950 . S
C842 C841 1.398 . S
C842 C843 1.391 . S
C843 H831 0.950 . S
C843 C839 1.393 . S
C843 C842 1.391 . S
H844 C852 0.950 . S
H845 C857 0.950 . S
H846 C854 0.950 . S
H847 C856 0.950 . S
H848 C858 0.950 . S
H849 C860 0.950 . S
H850 C862 0.950 . S
H851 C863 0.950 . S
C852 H844 0.950 . S
C852 C853 1.386 1_455 S
C852 C854 1.391 . S
C853 C852 1.386 1_655 S
C853 C857 1.393 . S
C854 H846 0.950 . S
C854 C852 1.391 . S
C854 C855 1.400 1_455 S
C855 C854 1.400 1_655 S
C855 C856 1.398 . S
C855 C861 1.491 1_655 S
C856 H847 0.950 . S
C856 C855 1.398 . S
C856 C857 1.391 . S
C857 H845 0.950 . S
C857 C853 1.393 . S
C857 C856 1.391 . S
C858 H848 0.950 . S
C858 C859 1.386 1_655 S
C858 C860 1.391 . S
C859 C858 1.386 1_455 S
C859 C863 1.393 . S
C860 H849 0.950 . S
C860 C858 1.391 . S
C860 C861 1.400 1_655 S
C861 C855 1.491 1_455 S
C861 C860 1.400 1_455 S
C861 C862 1.398 . S
C862 H850 0.950 . S
C862 C861 1.398 . S
C862 C863 1.391 . S
C863 H851 0.950 . S
C863 C859 1.393 . S
C863 C862 1.391 . S
C233 C79 0.392 . S
C239 C9 0.346 . S
C253 C93 0.371 . S
C259 C23 0.369 . S
C273 C37 0.344 . S
C279 C107 0.441 . S
C293 C51 0.433 . S
C299 C65 0.394 . S
C313 C121 0.379 . S
C319 C191 0.406 . S
C333 C205 0.391 . S
C339 C135 0.428 . S
C353 C219 0.351 . S
C359 C149 0.394 . S
C373 C163 0.388 . S
C379 C177 0.433 . S
C393 C8 1.615 . S
C399 C175 1.547 . S
C413 C189 1.591 . S
C419 C22 1.667 . S
C433 C36 1.670 . S
C439 C203 1.605 . S
C453 C50 1.630 . S
C459 C217 1.555 . S
C473 C64 1.624 1_545 S
C479 C119 1.546 . S
C493 C78 1.669 . S
C499 C133 1.603 . S
C513 C92 1.667 . S
C519 C147 1.591 . S
C533 C106 1.603 1_455 S
C539 C161 1.520 . S
C553 C63 1.520 . S
C559 C120 1.603 1_545 S
C573 C77 1.564 . S
C579 C134 1.661 . S
C593 C91 1.578 . S
C599 C148 1.665 . S
C613 C162 1.623 1_455 S
C619 C105 1.542 . S
C633 C7 1.563 . S
C639 C176 1.631 . S
C653 C190 1.670 . S
C659 C21 1.605 . S
C673 C204 1.664 . S
C679 C35 1.582 . S
C693 C49 1.532 . S
C699 C218 1.606 1_655 S
C713 C115 1.519 . S
C719 C3 1.520 . S
C733 C129 1.560 . S
C739 C17 1.560 . S
C753 C31 1.670 . S
C759 C143 1.670 . S
C773 C157 1.610 . S
C779 C45 1.611 . S
C793 C59 1.585 . S
C799 C171 1.585 . S
C813 C185 1.681 . S
C819 C73 1.681 . S
C833 C199 1.584 . S
C839 C87 1.584 . S
C853 C213 1.524 . S
C859 C101 1.524 . S
