# Generated by pormake.
# Topology umr, (4)-cn, num edge types: 1
# Building blocks:
#     Node 0, Type 0, BuildingBlock: CEKHIL_clean_sbu_0, # of connection points: 4
#     Node 1, Type 0, BuildingBlock: CEKHIL_clean_sbu_0, # of connection points: 4
#     Node 2, Type 0, BuildingBlock: CEKHIL_clean_sbu_0, # of connection points: 4
#     Node 3, Type 0, BuildingBlock: CEKHIL_clean_sbu_0, # of connection points: 4
#     Node 4, Type 0, BuildingBlock: CEKHIL_clean_sbu_0, # of connection points: 4
#     Node 5, Type 0, BuildingBlock: CEKHIL_clean_sbu_0, # of connection points: 4
#     Node 6, Type 0, BuildingBlock: CEKHIL_clean_sbu_0, # of connection points: 4
#     Node 7, Type 0, BuildingBlock: CEKHIL_clean_sbu_0, # of connection points: 4
#     Node 8, Type 0, BuildingBlock: CEKHIL_clean_sbu_0, # of connection points: 4
#     Node 9, Type 0, BuildingBlock: CEKHIL_clean_sbu_0, # of connection points: 4
#     Node 10, Type 0, BuildingBlock: CEKHIL_clean_sbu_0, # of connection points: 4
#     Node 11, Type 0, BuildingBlock: CEKHIL_clean_sbu_0, # of connection points: 4
#     Node 12, Type 0, BuildingBlock: CEKHIL_clean_sbu_0, # of connection points: 4
#     Node 13, Type 0, BuildingBlock: CEKHIL_clean_sbu_0, # of connection points: 4
#     Node 14, Type 0, BuildingBlock: CEKHIL_clean_sbu_0, # of connection points: 4
#     Node 15, Type 0, BuildingBlock: CEKHIL_clean_sbu_0, # of connection points: 4
#     Node 16, Type 0, BuildingBlock: CEKHIL_clean_sbu_0, # of connection points: 4
#     Node 17, Type 0, BuildingBlock: CEKHIL_clean_sbu_0, # of connection points: 4
#     Node 18, Type 0, BuildingBlock: CEKHIL_clean_sbu_0, # of connection points: 4
#     Node 19, Type 0, BuildingBlock: CEKHIL_clean_sbu_0, # of connection points: 4
#     Node 20, Type 0, BuildingBlock: CEKHIL_clean_sbu_0, # of connection points: 4
#     Node 21, Type 0, BuildingBlock: CEKHIL_clean_sbu_0, # of connection points: 4
#     Node 22, Type 0, BuildingBlock: CEKHIL_clean_sbu_0, # of connection points: 4
#     Node 23, Type 0, BuildingBlock: CEKHIL_clean_sbu_0, # of connection points: 4
#     Node 24, Type 0, BuildingBlock: CEKHIL_clean_sbu_0, # of connection points: 4
#     Node 25, Type 0, BuildingBlock: CEKHIL_clean_sbu_0, # of connection points: 4
#     Node 26, Type 0, BuildingBlock: CEKHIL_clean_sbu_0, # of connection points: 4
#     Node 27, Type 0, BuildingBlock: CEKHIL_clean_sbu_0, # of connection points: 4
#     Node 28, Type 0, BuildingBlock: CEKHIL_clean_sbu_0, # of connection points: 4
#     Node 29, Type 0, BuildingBlock: CEKHIL_clean_sbu_0, # of connection points: 4
#     Node 30, Type 0, BuildingBlock: CEKHIL_clean_sbu_0, # of connection points: 4
#     Node 31, Type 0, BuildingBlock: CEKHIL_clean_sbu_0, # of connection points: 4
#     Edge 32, Type (0, 0), BuildingBlock: UVAHIK_clean_linker_0, # of connection points: 2
#     Edge 33, Type (0, 0), BuildingBlock: UVAHIK_clean_linker_0, # of connection points: 2
#     Edge 34, Type (0, 0), BuildingBlock: UVAHIK_clean_linker_0, # of connection points: 2
#     Edge 35, Type (0, 0), BuildingBlock: UVAHIK_clean_linker_0, # of connection points: 2
#     Edge 36, Type (0, 0), BuildingBlock: UVAHIK_clean_linker_0, # of connection points: 2
#     Edge 37, Type (0, 0), BuildingBlock: UVAHIK_clean_linker_0, # of connection points: 2
#     Edge 38, Type (0, 0), BuildingBlock: UVAHIK_clean_linker_0, # of connection points: 2
#     Edge 39, Type (0, 0), BuildingBlock: UVAHIK_clean_linker_0, # of connection points: 2
#     Edge 40, Type (0, 0), BuildingBlock: UVAHIK_clean_linker_0, # of connection points: 2
#     Edge 41, Type (0, 0), BuildingBlock: UVAHIK_clean_linker_0, # of connection points: 2
#     Edge 42, Type (0, 0), BuildingBlock: UVAHIK_clean_linker_0, # of connection points: 2
#     Edge 43, Type (0, 0), BuildingBlock: UVAHIK_clean_linker_0, # of connection points: 2
#     Edge 44, Type (0, 0), BuildingBlock: UVAHIK_clean_linker_0, # of connection points: 2
#     Edge 45, Type (0, 0), BuildingBlock: UVAHIK_clean_linker_0, # of connection points: 2
#     Edge 46, Type (0, 0), BuildingBlock: UVAHIK_clean_linker_0, # of connection points: 2
#     Edge 47, Type (0, 0), BuildingBlock: UVAHIK_clean_linker_0, # of connection points: 2
#     Edge 48, Type (0, 0), BuildingBlock: UVAHIK_clean_linker_0, # of connection points: 2
#     Edge 49, Type (0, 0), BuildingBlock: UVAHIK_clean_linker_0, # of connection points: 2
#     Edge 50, Type (0, 0), BuildingBlock: UVAHIK_clean_linker_0, # of connection points: 2
#     Edge 51, Type (0, 0), BuildingBlock: UVAHIK_clean_linker_0, # of connection points: 2
#     Edge 52, Type (0, 0), BuildingBlock: UVAHIK_clean_linker_0, # of connection points: 2
#     Edge 53, Type (0, 0), BuildingBlock: UVAHIK_clean_linker_0, # of connection points: 2
#     Edge 54, Type (0, 0), BuildingBlock: UVAHIK_clean_linker_0, # of connection points: 2
#     Edge 55, Type (0, 0), BuildingBlock: UVAHIK_clean_linker_0, # of connection points: 2
#     Edge 56, Type (0, 0), BuildingBlock: UVAHIK_clean_linker_0, # of connection points: 2
#     Edge 57, Type (0, 0), BuildingBlock: UVAHIK_clean_linker_0, # of connection points: 2
#     Edge 58, Type (0, 0), BuildingBlock: UVAHIK_clean_linker_0, # of connection points: 2
#     Edge 59, Type (0, 0), BuildingBlock: UVAHIK_clean_linker_0, # of connection points: 2
#     Edge 60, Type (0, 0), BuildingBlock: UVAHIK_clean_linker_0, # of connection points: 2
#     Edge 61, Type (0, 0), BuildingBlock: UVAHIK_clean_linker_0, # of connection points: 2
#     Edge 62, Type (0, 0), BuildingBlock: UVAHIK_clean_linker_0, # of connection points: 2
#     Edge 63, Type (0, 0), BuildingBlock: UVAHIK_clean_linker_0, # of connection points: 2
#     Edge 64, Type (0, 0), BuildingBlock: UVAHIK_clean_linker_0, # of connection points: 2
#     Edge 65, Type (0, 0), BuildingBlock: UVAHIK_clean_linker_0, # of connection points: 2
#     Edge 66, Type (0, 0), BuildingBlock: UVAHIK_clean_linker_0, # of connection points: 2
#     Edge 67, Type (0, 0), BuildingBlock: UVAHIK_clean_linker_0, # of connection points: 2
#     Edge 68, Type (0, 0), BuildingBlock: UVAHIK_clean_linker_0, # of connection points: 2
#     Edge 69, Type (0, 0), BuildingBlock: UVAHIK_clean_linker_0, # of connection points: 2
#     Edge 70, Type (0, 0), BuildingBlock: UVAHIK_clean_linker_0, # of connection points: 2
#     Edge 71, Type (0, 0), BuildingBlock: UVAHIK_clean_linker_0, # of connection points: 2
#     Edge 72, Type (0, 0), BuildingBlock: UVAHIK_clean_linker_0, # of connection points: 2
#     Edge 73, Type (0, 0), BuildingBlock: UVAHIK_clean_linker_0, # of connection points: 2
#     Edge 74, Type (0, 0), BuildingBlock: UVAHIK_clean_linker_0, # of connection points: 2
#     Edge 75, Type (0, 0), BuildingBlock: UVAHIK_clean_linker_0, # of connection points: 2
#     Edge 76, Type (0, 0), BuildingBlock: UVAHIK_clean_linker_0, # of connection points: 2
#     Edge 77, Type (0, 0), BuildingBlock: UVAHIK_clean_linker_0, # of connection points: 2
#     Edge 78, Type (0, 0), BuildingBlock: UVAHIK_clean_linker_0, # of connection points: 2
#     Edge 79, Type (0, 0), BuildingBlock: UVAHIK_clean_linker_0, # of connection points: 2
#     Edge 80, Type (0, 0), BuildingBlock: UVAHIK_clean_linker_0, # of connection points: 2
#     Edge 81, Type (0, 0), BuildingBlock: UVAHIK_clean_linker_0, # of connection points: 2
#     Edge 82, Type (0, 0), BuildingBlock: UVAHIK_clean_linker_0, # of connection points: 2
#     Edge 83, Type (0, 0), BuildingBlock: UVAHIK_clean_linker_0, # of connection points: 2
#     Edge 84, Type (0, 0), BuildingBlock: UVAHIK_clean_linker_0, # of connection points: 2
#     Edge 85, Type (0, 0), BuildingBlock: UVAHIK_clean_linker_0, # of connection points: 2
#     Edge 86, Type (0, 0), BuildingBlock: UVAHIK_clean_linker_0, # of connection points: 2
#     Edge 87, Type (0, 0), BuildingBlock: UVAHIK_clean_linker_0, # of connection points: 2
#     Edge 88, Type (0, 0), BuildingBlock: UVAHIK_clean_linker_0, # of connection points: 2
#     Edge 89, Type (0, 0), BuildingBlock: UVAHIK_clean_linker_0, # of connection points: 2
#     Edge 90, Type (0, 0), BuildingBlock: UVAHIK_clean_linker_0, # of connection points: 2
#     Edge 91, Type (0, 0), BuildingBlock: UVAHIK_clean_linker_0, # of connection points: 2
#     Edge 92, Type (0, 0), BuildingBlock: UVAHIK_clean_linker_0, # of connection points: 2
#     Edge 93, Type (0, 0), BuildingBlock: UVAHIK_clean_linker_0, # of connection points: 2
#     Edge 94, Type (0, 0), BuildingBlock: UVAHIK_clean_linker_0, # of connection points: 2
#     Edge 95, Type (0, 0), BuildingBlock: UVAHIK_clean_linker_0, # of connection points: 2
# Relax obj value: 0.091
# Max RMSD: 0.108
# Mean RMSD: 0.108
data_MOF--net-umr--node1-CEKHIL_clean_sbu_0--edge1-UVAHIK_clean_linker_0
_symmetry_space_group_name_H-M    P1
_symmetry_Int_Tables_number       1
_symmetry_cell_setting            triclinic
loop_
_symmetry_equiv_pos_as_xyz
'x, y, z'
_cell_length_a     107.18847
_cell_length_b     107.16572
_cell_length_c     34.41055
_cell_angle_alpha  89.978775
_cell_angle_beta   90.014707
_cell_angle_gamma 90.12689
loop_
_atom_site_label
_atom_site_type_symbol
_atom_site_fract_x
_atom_site_fract_y
_atom_site_fract_z
_atom_type_partial_charge
Co0 Co 0.16053 0.29013 0.02831 0.0
O1 O 0.14373 0.29559 0.03737 0.0
O2 O 0.16059 0.30597 0.05577 0.0
C3 C 0.15763 0.28487 0.96557 0.0
O4 O 0.17938 0.28764 0.02228 0.0
Co5 Co 0.16587 0.26253 0.0042 0.0
O6 O 0.18274 0.26915 -0.00688 0.0
C7 C 0.15889 0.26855 0.08516 0.0
C8 C 0.14847 0.30538 0.0539 0.0
C9 C 0.18665 0.27961 0.00598 0.0
O10 O 0.16016 0.28035 0.07871 0.0
O11 O 0.1597 0.26028 0.05846 0.0
O12 O 0.15987 0.29643 0.97471 0.0
O13 O 0.15625 0.27734 -0.00565 0.0
Co14 Co 0.9589 0.90772 0.27626 0.0
O15 O 0.95302 0.89105 0.2863 0.0
O16 O 0.94332 0.90826 0.30489 0.0
C17 C 0.96362 0.90463 0.21312 0.0
O18 O 0.96177 0.92648 0.26967 0.0
Co19 Co 0.98629 0.91275 0.24974 0.0
O20 O 0.97964 0.92948 0.2367 0.0
C21 C 0.98092 0.90605 0.33153 0.0
C22 C 0.94352 0.89612 0.30346 0.0
C23 C 0.96947 0.93357 0.2511 0.0
O24 O 0.96907 0.90732 0.32594 0.0
O25 O 0.98897 0.90681 0.30415 0.0
O26 O 0.95218 0.90709 0.22312 0.0
O27 O 0.97133 0.90314 0.24136 0.0
Co28 Co 0.34336 0.7115 0.52847 0.0
O29 O 0.36032 0.70683 0.53985 0.0
O30 O 0.34362 0.69584 0.55645 0.0
C31 C 0.34681 0.71674 0.46592 0.0
O32 O 0.32454 0.7128 0.52075 0.0
Co33 Co 0.33596 0.73824 0.50163 0.0
O34 O 0.31983 0.73028 0.48792 0.0
C35 C 0.34266 0.73339 0.58395 0.0
C36 C 0.35571 0.69689 0.55611 0.0
C37 C 0.31675 0.71977 0.50235 0.0
O38 O 0.34256 0.72148 0.57833 0.0
O39 O 0.34127 0.74135 0.55651 0.0
O40 O 0.34501 0.7051 0.47522 0.0
O41 O 0.34726 0.72446 0.49448 0.0
Co42 Co 0.53813 0.09166 0.77939 0.0
O43 O 0.5421 0.10812 0.79836 0.0
O44 O 0.5541 0.09148 0.80545 0.0
C45 C 0.53193 0.09788 0.7198 0.0
O46 O 0.53769 0.07336 0.76305 0.0
Co47 Co 0.51155 0.08387 0.75177 0.0
O48 O 0.52008 0.06901 0.73036 0.0
C49 C 0.51725 0.08588 0.83603 0.0
C50 C 0.55249 0.10337 0.81094 0.0
C51 C 0.53088 0.06597 0.74249 0.0
O52 O 0.52894 0.08772 0.82921 0.0
O53 O 0.50899 0.08502 0.80924 0.0
O54 O 0.54374 0.09642 0.72717 0.0
O55 O 0.52452 0.09634 0.74885 0.0
Co56 Co 0.15966 0.71016 0.45206 0.0
O57 O 0.14301 0.70644 0.43423 0.0
O58 O 0.1592 0.69381 0.42824 0.0
C59 C 0.15375 0.71742 0.51084 0.0
O60 O 0.17804 0.71028 0.46785 0.0
Co61 Co 0.16833 0.73684 0.47614 0.0
O62 O 0.18271 0.72802 0.49945 0.0
C63 C 0.16604 0.73006 0.39261 0.0
C64 C 0.14734 0.69571 0.42305 0.0
C65 C 0.18552 0.71706 0.48824 0.0
O66 O 0.16371 0.71854 0.40085 0.0
O67 O 0.16732 0.7386 0.41836 0.0
O68 O 0.1549 0.70548 0.50522 0.0
O69 O 0.15547 0.72433 0.48072 0.0
Co70 Co 0.53843 0.90831 0.70066 0.0
O71 O 0.54282 0.89154 0.68582 0.0
O72 O 0.55424 0.90833 0.67359 0.0
C73 C 0.53276 0.90348 0.76197 0.0
O74 O 0.53752 0.92695 0.71221 0.0
Co75 Co 0.51182 0.9159 0.72825 0.0
O76 O 0.5201 0.93149 0.74553 0.0
C77 C 0.51695 0.91156 0.64444 0.0
C78 C 0.55296 0.89629 0.67128 0.0
C79 C 0.53069 0.93457 0.73174 0.0
O80 O 0.52878 0.91053 0.65065 0.0
O81 O 0.5089 0.91279 0.67166 0.0
O82 O 0.54448 0.90525 0.75371 0.0
O83 O 0.52518 0.90397 0.73304 0.0
Co84 Co 0.34517 0.29142 0.95027 0.0
O85 O 0.36185 0.297 0.93916 0.0
O86 O 0.34471 0.30706 0.92189 0.0
C87 C 0.34867 0.28657 0.01309 0.0
O88 O 0.32642 0.28888 0.95806 0.0
Co89 Co 0.33995 0.26403 0.9768 0.0
O90 O 0.32296 0.27041 0.98738 0.0
C91 C 0.34606 0.26946 0.89464 0.0
C92 C 0.35684 0.30664 0.92255 0.0
C93 C 0.31912 0.28087 0.9744 0.0
O94 O 0.34498 0.28131 0.90044 0.0
O95 O 0.34552 0.26139 0.92204 0.0
O96 O 0.34632 0.29805 0.0034 0.0
O97 O 0.3498 0.27886 0.98469 0.0
Co98 Co 0.95826 0.0925 0.20239 0.0
O99 O 0.95308 0.10906 0.18829 0.0
O100 O 0.9427 0.09183 0.17357 0.0
C101 C 0.96296 0.09713 0.2646 0.0
O102 O 0.96042 0.07384 0.21343 0.0
Co103 Co 0.98533 0.08715 0.23134 0.0
O104 O 0.97783 0.0712 0.24892 0.0
C105 C 0.98045 0.09164 0.14767 0.0
C106 C 0.94338 0.10395 0.17223 0.0
C107 C 0.96768 0.06706 0.23456 0.0
O108 O 0.96853 0.09131 0.15314 0.0
O109 O 0.9884 0.09112 0.1754 0.0
O110 O 0.95148 0.0947 0.255 0.0
O111 O 0.9708 0.09755 0.23634 0.0
Co112 Co 0.84408 0.71068 0.95074 0.0
O113 O 0.86082 0.70591 0.93731 0.0
O114 O 0.84392 0.69492 0.92313 0.0
C115 C 0.84859 0.71597 0.01257 0.0
O116 O 0.82537 0.71218 0.961 0.0
Co117 Co 0.83746 0.7376 0.97825 0.0
O118 O 0.82109 0.73017 -0.00825 0.0
C119 C 0.84275 0.7325 0.89512 0.0
C120 C 0.85601 0.69592 0.9221 0.0
C121 C 0.81775 0.71956 0.97861 0.0
O122 O 0.84263 0.7206 0.90088 0.0
O123 O 0.84196 0.7405 0.92263 0.0
O124 O 0.84648 0.70435 0.00382 0.0
O125 O 0.84862 0.72365 0.98387 0.0
Co126 Co 0.03847 0.09278 0.70195 0.0
O127 O 0.04244 0.10968 0.68752 0.0
O128 O 0.05427 0.09328 0.67474 0.0
C129 C 0.03283 0.09731 0.7635 0.0
O130 O 0.03787 0.07408 0.71345 0.0
Co131 Co 0.01187 0.08485 0.72932 0.0
O132 O 0.02059 0.06969 0.74778 0.0
C133 C 0.01706 0.08886 0.64545 0.0
C134 C 0.05272 0.1053 0.67301 0.0
C135 C 0.03115 0.06657 0.73391 0.0
O136 O 0.02883 0.09039 0.65191 0.0
O137 O 0.00897 0.08741 0.67249 0.0
O138 O 0.04455 0.09589 0.75489 0.0
O139 O 0.02521 0.09679 0.73466 0.0
Co140 Co 0.66164 0.29032 0.45387 0.0
O141 O 0.64465 0.29563 0.44771 0.0
O142 O 0.6611 0.30641 0.42796 0.0
C143 C 0.65981 0.28432 0.51639 0.0
O144 O 0.6806 0.28799 0.45691 0.0
Co145 Co 0.66743 0.26241 0.47339 0.0
O146 O 0.68463 0.26873 0.48 0.0
C147 C 0.65825 0.26945 0.39586 0.0
C148 C 0.64903 0.30564 0.43139 0.0
C149 C 0.68822 0.27953 0.46908 0.0
O150 O 0.66062 0.28106 0.40259 0.0
O151 O 0.65903 0.26096 0.4219 0.0
O152 O 0.66159 0.29604 0.50823 0.0
O153 O 0.65812 0.2771 0.48703 0.0
Co154 Co 0.45769 0.90898 0.20106 0.0
O155 O 0.45236 0.89237 0.188 0.0
O156 O 0.4418 0.90949 0.17386 0.0
C157 C 0.463 0.90448 0.26293 0.0
O158 O 0.45999 0.92768 0.21151 0.0
Co159 Co 0.48512 0.91429 0.22726 0.0
O160 O 0.47815 0.9306 0.24304 0.0
C161 C 0.47932 0.90993 0.14411 0.0
C162 C 0.44244 0.89736 0.17304 0.0
C163 C 0.46777 0.93466 0.23019 0.0
O164 O 0.46746 0.9101 0.15071 0.0
O165 O 0.48756 0.91047 0.17103 0.0
O166 O 0.45143 0.90685 0.25434 0.0
O167 O 0.47054 0.90402 0.23394 0.0
Co168 Co 0.84682 0.2912 0.52542 0.0
O169 O 0.86348 0.29722 0.5343 0.0
O170 O 0.84633 0.30722 0.55162 0.0
C171 C 0.84986 0.2855 0.46304 0.0
O172 O 0.82806 0.28826 0.51938 0.0
Co173 Co 0.84187 0.26338 0.50321 0.0
O174 O 0.82483 0.26951 0.49172 0.0
C175 C 0.84864 0.27009 0.58393 0.0
C176 C 0.85845 0.30702 0.54986 0.0
C177 C 0.82085 0.28002 0.50377 0.0
O178 O 0.84721 0.28182 0.57665 0.0
O179 O 0.84806 0.26164 0.5577 0.0
O180 O 0.8474 0.29707 0.47134 0.0
O181 O 0.85139 0.27823 0.49238 0.0
Co182 Co 0.45878 0.09381 0.28081 0.0
O183 O 0.45312 0.11073 0.28568 0.0
O184 O 0.44284 0.09423 0.30756 0.0
C185 C 0.46435 0.09512 0.2178 0.0
O186 O 0.46146 0.0749 0.27925 0.0
Co187 Co 0.48661 0.08833 0.25995 0.0
O188 O 0.48047 0.07099 0.25423 0.0
C189 C 0.47996 0.09774 0.33775 0.0
C190 C 0.44332 0.10628 0.30299 0.0
C191 C 0.46984 0.06733 0.26639 0.0
O192 O 0.4683 0.09549 0.33147 0.0
O193 O 0.48835 0.09671 0.3115 0.0
O194 O 0.45275 0.09308 0.22692 0.0
O195 O 0.4717 0.09735 0.24651 0.0
Co196 Co 0.66008 0.70883 0.02743 0.0
O197 O 0.6434 0.70409 0.04207 0.0
O198 O 0.66021 0.69269 0.05307 0.0
C199 C 0.65509 0.71496 0.96663 0.0
O200 O 0.67873 0.71034 0.0151 0.0
Co201 Co 0.66665 0.73615 0.00283 0.0
O202 O 0.68234 0.72852 0.98443 0.0
C203 C 0.66316 0.72978 0.08603 0.0
C204 C 0.64815 0.69383 0.05546 0.0
C205 C 0.68595 0.71785 -0.00376 0.0
O206 O 0.66229 0.71802 0.07841 0.0
O207 O 0.66402 0.73823 0.05986 0.0
O208 O 0.65695 0.70321 0.97397 0.0
O209 O 0.65542 0.72227 -0.00374 0.0
Co210 Co 0.0386 0.90918 0.77654 0.0
O211 O 0.04247 0.89268 0.79528 0.0
O212 O 0.05444 0.90933 0.8035 0.0
C213 C 0.03274 0.90318 0.71634 0.0
O214 O 0.0382 0.92753 0.76049 0.0
Co215 Co 0.01206 0.91671 0.74802 0.0
O216 O 0.0209 0.93127 0.72558 0.0
C217 C 0.0174 0.91473 0.83246 0.0
C218 C 0.05278 0.89742 0.80862 0.0
C219 C 0.03154 0.9346 0.73846 0.0
O220 O 0.02912 0.91291 0.82605 0.0
O221 O 0.00926 0.91564 0.80538 0.0
O222 O 0.0445 0.90466 0.72442 0.0
O223 O 0.02519 0.90447 0.74514 0.0
Co224 Co 0.65508 0.78981 0.52701 0.0
O225 O 0.63823 0.79495 0.53734 0.0
O226 O 0.65506 0.80563 0.55437 0.0
C227 C 0.65169 0.78447 0.46455 0.0
O228 O 0.67391 0.78784 0.51986 0.0
Co229 Co 0.66125 0.76253 0.50186 0.0
O230 O 0.67811 0.76937 0.4917 0.0
C231 C 0.65445 0.76814 0.58341 0.0
C232 C 0.64295 0.80486 0.5533 0.0
C233 C 0.68155 0.78003 0.50429 0.0
O234 O 0.65538 0.78 0.57734 0.0
O235 O 0.65529 0.76001 0.5563 0.0
O236 O 0.65384 0.79607 0.47345 0.0
O237 O 0.65084 0.7769 0.49339 0.0
Co238 Co 0.46144 0.41117 0.77906 0.0
O239 O 0.45716 0.39445 0.79458 0.0
O240 O 0.44544 0.41106 0.8054 0.0
C241 C 0.46734 0.40605 0.71815 0.0
O242 O 0.46238 0.42978 0.76593 0.0
Co243 Co 0.48831 0.41848 0.75279 0.0
O244 O 0.47973 0.43323 0.73085 0.0
C245 C 0.48259 0.41515 0.83658 0.0
C246 C 0.44685 0.39903 0.80814 0.0
C247 C 0.46921 0.43676 0.74401 0.0
O248 O 0.47083 0.41379 0.8295 0.0
O249 O 0.49085 0.41633 0.80996 0.0
O250 O 0.4556 0.4077 0.72607 0.0
O251 O 0.47482 0.4067 0.74736 0.0
Co252 Co 0.84054 0.20963 0.02637 0.0
O253 O 0.8572 0.20528 0.04233 0.0
O254 O 0.84062 0.19321 0.05006 0.0
C255 C 0.84595 0.21667 0.96679 0.0
O256 O 0.82202 0.21048 0.01209 0.0
Co257 Co 0.8331 0.23685 0.00415 0.0
O258 O 0.81819 0.22867 0.98185 0.0
C259 C 0.8358 0.22967 0.08702 0.0
C260 C 0.85261 0.19469 0.05386 0.0
C261 C 0.81484 0.21776 -0.00763 0.0
O262 O 0.83745 0.21808 0.07816 0.0
O263 O 0.83472 0.23837 0.06175 0.0
O264 O 0.84446 0.20477 0.97275 0.0
O265 O 0.84504 0.22363 -0.00287 0.0
Co266 Co 0.04221 0.59151 0.27776 0.0
O267 O 0.04577 0.60818 0.29558 0.0
O268 O 0.05825 0.59197 0.30373 0.0
C269 C 0.03587 0.59729 0.21785 0.0
O270 O 0.04211 0.57309 0.26222 0.0
Co271 Co 0.01568 0.58324 0.2508 0.0
O272 O 0.0248 0.56904 0.22758 0.0
C273 C 0.0215 0.58543 0.33495 0.0
C274 C 0.05633 0.60386 0.30818 0.0
C275 C 0.03552 0.56592 0.24022 0.0
O276 O 0.03313 0.58764 0.32791 0.0
O277 O 0.01324 0.58423 0.30832 0.0
O278 O 0.0477 0.59609 0.22524 0.0
O279 O 0.02852 0.59579 0.24704 0.0
Co280 Co 0.65671 0.20879 0.95397 0.0
O281 O 0.63954 0.20396 0.94702 0.0
O282 O 0.65578 0.19265 0.92887 0.0
C283 C 0.65468 0.2152 0.01602 0.0
O284 O 0.67568 0.21029 0.95763 0.0
Co285 Co 0.66415 0.23631 0.97303 0.0
O286 O 0.68121 0.22948 0.97814 0.0
C287 C 0.65495 0.22953 0.89509 0.0
C288 C 0.64373 0.19374 0.93157 0.0
C289 C 0.68394 0.21836 0.96816 0.0
O290 O 0.65646 0.21782 0.90231 0.0
O291 O 0.65613 0.23804 0.92092 0.0
O292 O 0.65608 0.20338 0.00855 0.0
O293 O 0.6536 0.22235 0.98621 0.0
Co294 Co 0.04286 0.4076 0.20285 0.0
O295 O 0.04775 0.39089 0.18913 0.0
O296 O 0.05861 0.40791 0.17529 0.0
C297 C 0.03753 0.40316 0.26475 0.0
O298 O 0.04126 0.42629 0.21333 0.0
Co299 Co 0.01588 0.41409 0.2301 0.0
O300 O 0.02362 0.43003 0.24656 0.0
C301 C 0.02113 0.40952 0.14663 0.0
C302 C 0.05768 0.39582 0.17389 0.0
C303 C 0.03407 0.43361 0.23279 0.0
O304 O 0.033 0.40909 0.15285 0.0
O305 O 0.01304 0.41051 0.1738 0.0
O306 O 0.04916 0.4052 0.25596 0.0
O307 O 0.02989 0.40301 0.23594 0.0
Co308 Co 0.83958 0.79127 0.4499 0.0
O309 O 0.85628 0.7963 0.43685 0.0
O310 O 0.83938 0.8073 0.42342 0.0
C311 C 0.84402 0.78557 0.51148 0.0
O312 O 0.82084 0.78931 0.46043 0.0
Co313 Co 0.83376 0.76378 0.47475 0.0
O314 O 0.81757 0.77094 0.49054 0.0
C315 C 0.83816 0.76996 0.39195 0.0
C316 C 0.85148 0.80637 0.42231 0.0
C317 C 0.8137 0.78149 0.47842 0.0
O318 O 0.83822 0.78179 0.39914 0.0
O319 O 0.83747 0.76158 0.41838 0.0
O320 O 0.84193 0.79724 0.50342 0.0
O321 O 0.84428 0.77815 0.48214 0.0
Co322 Co 0.46272 0.59553 0.70238 0.0
O323 O 0.4575 0.61233 0.69168 0.0
O324 O 0.44702 0.5954 0.67439 0.0
C325 C 0.46777 0.59889 0.76511 0.0
O326 O 0.46481 0.57673 0.70982 0.0
Co327 Co 0.48992 0.58956 0.72864 0.0
O328 O 0.48264 0.57312 0.74235 0.0
C329 C 0.48459 0.59593 0.6465 0.0
C330 C 0.44769 0.60752 0.67536 0.0
C331 C 0.47227 0.5694 0.72831 0.0
O332 O 0.47271 0.59524 0.65241 0.0
O333 O 0.49267 0.59501 0.67375 0.0
O334 O 0.45622 0.59672 0.75564 0.0
O335 O 0.47546 0.59987 0.73658 0.0
Co336 Co 0.33953 0.21101 0.44907 0.0
O337 O 0.35638 0.20707 0.43359 0.0
O338 O 0.33988 0.19514 0.42249 0.0
C339 C 0.34438 0.21702 0.5101 0.0
O340 O 0.32092 0.21131 0.4614 0.0
Co341 Co 0.33109 0.23743 0.47595 0.0
O342 O 0.31591 0.22868 0.4943 0.0
C343 C 0.33526 0.23217 0.39219 0.0
C344 C 0.35186 0.19674 0.41962 0.0
C345 C 0.31314 0.21792 0.48105 0.0
O346 O 0.3368 0.22042 0.39882 0.0
O347 O 0.33376 0.24028 0.41911 0.0
O348 O 0.34306 0.20523 0.5021 0.0
O349 O 0.34352 0.22452 0.48099 0.0
Co350 Co 0.54324 0.58964 0.20165 0.0
O351 O 0.54762 0.60633 0.18591 0.0
O352 O 0.55925 0.58964 0.17544 0.0
C353 C 0.53722 0.59486 0.26238 0.0
O354 O 0.54215 0.57103 0.21482 0.0
Co355 Co 0.51624 0.58252 0.22768 0.0
O356 O 0.52455 0.56748 0.24859 0.0
C357 C 0.52216 0.58564 0.14394 0.0
C358 C 0.5579 0.60166 0.17232 0.0
C359 C 0.5351 0.56393 0.23572 0.0
O360 O 0.53391 0.58698 0.15112 0.0
O361 O 0.51384 0.58458 0.17046 0.0
O362 O 0.54898 0.59317 0.25475 0.0
O363 O 0.52982 0.5942 0.23303 0.0
Co364 Co 0.15541 0.79071 0.95111 0.0
O365 O 0.13833 0.79611 0.9473 0.0
O366 O 0.1546 0.8069 0.92618 0.0
C367 C 0.15447 0.78434 0.01346 0.0
O368 O 0.17434 0.78862 0.95155 0.0
Co369 Co 0.16214 0.76297 0.96855 0.0
O370 O 0.17944 0.7694 0.97264 0.0
C371 C 0.15228 0.77012 0.89159 0.0
C372 C 0.14258 0.80618 0.93095 0.0
C373 C 0.18244 0.78039 0.96193 0.0
O374 O 0.15384 0.78179 0.89943 0.0
O375 O 0.15386 0.76145 0.9167 0.0
O376 O 0.15617 0.79609 0.00559 0.0
O377 O 0.15238 0.77724 0.98401 0.0
Co378 Co 0.96248 0.40951 0.70328 0.0
O379 O 0.95703 0.39321 0.68719 0.0
O380 O 0.94673 0.41071 0.67572 0.0
C381 C 0.96757 0.40397 0.76449 0.0
O382 O 0.96487 0.42797 0.71654 0.0
Co383 Co 0.98981 0.41433 0.73103 0.0
O384 O 0.98306 0.4306 0.74812 0.0
C385 C 0.98426 0.41136 0.64712 0.0
C386 C 0.94729 0.39863 0.67252 0.0
C387 C 0.97268 0.43478 0.73568 0.0
O388 O 0.97239 0.41139 0.65349 0.0
O389 O 0.99243 0.41149 0.67426 0.0
O390 O 0.95605 0.40656 0.75597 0.0
O391 O 0.97521 0.40393 0.73569 0.0
Co392 Co 0.33926 0.792 0.028 0.0
O393 O 0.35568 0.79688 0.04484 0.0
O394 O 0.3386 0.80802 0.05416 0.0
C395 C 0.34501 0.7862 0.96755 0.0
O396 O 0.32081 0.79032 0.01328 0.0
Co397 Co 0.33343 0.76467 0.00201 0.0
O398 O 0.31798 0.77223 0.98134 0.0
C399 C 0.3358 0.77078 0.08571 0.0
C400 C 0.35063 0.80701 0.05806 0.0
C401 C 0.31403 0.7828 -0.00706 0.0
O402 O 0.33657 0.78258 0.07842 0.0
O403 O 0.33538 0.76239 0.05927 0.0
O404 O 0.34293 0.7979 0.9752 0.0
O405 O 0.34449 0.77876 -0.00314 0.0
Co406 Co 0.96249 0.59383 0.77823 0.0
O407 O 0.95634 0.61051 0.78504 0.0
O408 O 0.94673 0.59347 0.80588 0.0
C409 C 0.96768 0.59585 0.71507 0.0
O410 O 0.96571 0.57506 0.77499 0.0
Co411 Co 0.99031 0.58926 0.75538 0.0
O412 O 0.9846 0.57181 0.74833 0.0
C413 C 0.9839 0.59753 0.83468 0.0
C414 C 0.94682 0.60557 0.8026 0.0
C415 C 0.97416 0.5678 0.76099 0.0
O416 O 0.97223 0.5953 0.82853 0.0
O417 O 0.9922 0.59688 0.80802 0.0
O418 O 0.95619 0.59339 0.72461 0.0
O419 O 0.97512 0.59806 0.74358 0.0
Co420 Co 0.15643 0.21045 0.52745 0.0
O421 O 0.13978 0.20686 0.54542 0.0
O422 O 0.15611 0.19456 0.55402 0.0
C423 C 0.15063 0.21658 0.46742 0.0
O424 O 0.17482 0.21047 0.51222 0.0
Co425 Co 0.1649 0.23673 0.49882 0.0
O426 O 0.17962 0.22773 0.47832 0.0
C427 C 0.16227 0.23149 0.58331 0.0
C428 C 0.14422 0.19641 0.55852 0.0
C429 C 0.18241 0.21697 0.49137 0.0
O430 O 0.16024 0.21979 0.5771 0.0
O431 O 0.16344 0.23957 0.55608 0.0
O432 O 0.15192 0.20476 0.47505 0.0
O433 O 0.15216 0.22403 0.49633 0.0
Co434 Co 0.54165 0.40531 0.278 0.0
O435 O 0.54702 0.38873 0.29154 0.0
O436 O 0.55719 0.40607 0.30663 0.0
C437 C 0.53687 0.40106 0.21556 0.0
O438 O 0.53949 0.42397 0.26787 0.0
Co439 Co 0.51459 0.41088 0.24975 0.0
O440 O 0.52188 0.42712 0.23381 0.0
C441 C 0.51954 0.40587 0.33307 0.0
C442 C 0.55666 0.39395 0.3077 0.0
C443 C 0.53216 0.43103 0.24797 0.0
O444 O 0.53144 0.40628 0.32746 0.0
O445 O 0.51156 0.4065 0.30543 0.0
O446 O 0.54837 0.4034 0.22523 0.0
O447 O 0.52907 0.40042 0.24388 0.0
C448 C 0.29714 0.27346 0.98125 0.0
C449 C 0.30554 0.28345 0.97668 0.0
C450 C 0.28432 0.27556 0.98216 0.0
C451 C 0.25988 0.29636 0.00813 0.0
H452 H 0.24041 0.27766 0.93295 0.0
C453 C 0.2052 0.29427 0.0088 0.0
C454 C 0.2002 0.2823 0.0021 0.0
C455 C 0.21801 0.29655 0.00357 0.0
C456 C 0.24568 0.28292 0.95427 0.0
H457 H 0.30704 0.30354 0.97051 0.0
H458 H 0.28437 0.30722 0.97314 0.0
H459 H 0.26308 0.27782 0.9283 0.0
H460 H 0.20491 0.26328 0.98598 0.0
H461 H 0.22693 0.26717 0.97775 0.0
H462 H 0.24245 0.30086 0.03549 0.0
C463 C 0.28788 0.29778 0.97553 0.0
C464 C 0.25865 0.28308 0.95137 0.0
C465 C 0.30079 0.29566 0.97387 0.0
C466 C 0.20832 0.27267 -0.00912 0.0
C467 C 0.22101 0.27492 0.98586 0.0
C468 C 0.24682 0.29609 0.01135 0.0
C469 C 0.27956 0.2877 0.97915 0.0
C470 C 0.26588 0.28949 0.97886 0.0
C471 C 0.22603 0.28691 -0.00844 0.0
C472 C 0.23962 0.289 0.98517 0.0
H473 H 0.30043 0.26394 0.9834 0.0
H474 H 0.27807 0.26765 0.98521 0.0
H475 H 0.2653 0.30134 0.02972 0.0
H476 H 0.19921 0.3019 0.01749 0.0
H477 H 0.22158 0.30589 0.00825 0.0
C478 C 0.95706 0.95284 0.26796 0.0
C479 C 0.96689 0.94714 0.24749 0.0
C480 C 0.95541 0.96582 0.26647 0.0
C481 C 0.9514 0.99348 0.2426 0.0
H482 H 0.98218 0.01228 0.25292 0.0
C483 C 0.95641 0.04722 0.2162 0.0
C484 C 0.96477 0.05365 0.2406 0.0
C485 C 0.95505 0.03422 0.21923 0.0
C486 C 0.97347 0.00721 0.25036 0.0
H487 H 0.98223 0.95062 0.20763 0.0
H488 H 0.97932 0.97304 0.20507 0.0
H489 H 0.9828 0.98965 0.25294 0.0
H490 H 0.97746 0.05159 0.28934 0.0
H491 H 0.97499 0.02913 0.29478 0.0
H492 H 0.9421 0.01122 0.24017 0.0
C493 C 0.97304 0.96755 0.22287 0.0
C494 C 0.97385 0.99421 0.2499 0.0
C495 C 0.97468 0.95466 0.22431 0.0
C496 C 0.97113 0.04693 0.26955 0.0
C497 C 0.96974 0.03403 0.27264 0.0
C498 C 0.95102 0.00658 0.24282 0.0
C499 C 0.96358 0.97333 0.24458 0.0
C500 C 0.96285 0.98718 0.24581 0.0
C501 C 0.962 0.02746 0.24677 0.0
C502 C 0.96207 0.01357 0.24681 0.0
H503 H 0.95085 0.94733 0.28596 0.0
H504 H 0.94805 0.97001 0.28357 0.0
H505 H 0.94277 0.9883 0.23927 0.0
H506 H 0.95134 0.05212 0.19367 0.0
H507 H 0.94902 0.02942 0.19884 0.0
C508 C 0.20594 0.71868 0.52324 0.0
C509 C 0.19842 0.71265 0.49548 0.0
C510 C 0.21862 0.71591 0.52621 0.0
C511 C 0.24488 0.7056 0.53503 0.0
H512 H 0.26193 0.70702 0.43573 0.0
C513 C 0.29879 0.70615 0.52305 0.0
C514 C 0.30352 0.71578 0.49942 0.0
C515 C 0.28609 0.70308 0.52218 0.0
C516 C 0.2573 0.70653 0.46367 0.0
H517 H 0.19821 0.69844 0.4506 0.0
H518 H 0.22044 0.69366 0.45568 0.0
H519 H 0.2392 0.70608 0.43752 0.0
H520 H 0.29865 0.72937 0.45518 0.0
H521 H 0.2766 0.724 0.45364 0.0
H522 H 0.26299 0.7066 0.56118 0.0
C523 C 0.21649 0.70058 0.47496 0.0
C524 C 0.24429 0.70586 0.46471 0.0
C525 C 0.20374 0.70327 0.47224 0.0
C526 C 0.29534 0.72195 0.47394 0.0
C527 C 0.28269 0.7188 0.47281 0.0
C528 C 0.25791 0.70618 0.53399 0.0
C529 C 0.22412 0.7071 0.50131 0.0
C530 C 0.23791 0.70574 0.50041 0.0
C531 C 0.27789 0.70946 0.4973 0.0
C532 C 0.26424 0.70701 0.4983 0.0
H533 H 0.20212 0.72588 0.5418 0.0
H534 H 0.22425 0.72117 0.54661 0.0
H535 H 0.24023 0.70541 0.56298 0.0
H536 H 0.30484 0.70119 0.54299 0.0
H537 H 0.28267 0.69578 0.54119 0.0
C538 C 0.54495 0.04792 0.75791 0.0
C539 C 0.53512 0.05298 0.7359 0.0
C540 C 0.54773 0.03519 0.75568 0.0
C541 C 0.54227 0.00645 0.69802 0.0
H542 H 0.5434 0.98978 0.79804 0.0
C543 C 0.52885 0.95568 0.76243 0.0
C544 C 0.53476 0.94774 0.73567 0.0
C545 C 0.53172 0.9684 0.76343 0.0
C546 C 0.54318 0.99431 0.7699 0.0
H547 H 0.52106 0.04876 0.6924 0.0
H548 H 0.52593 0.02664 0.68853 0.0
H549 H 0.54345 0.01254 0.79524 0.0
H550 H 0.54869 0.94688 0.68999 0.0
H551 H 0.5536 0.96916 0.69157 0.0
H552 H 0.54147 0.98821 0.67278 0.0
C553 C 0.53149 0.03249 0.70752 0.0
C554 C 0.54333 0.00734 0.76826 0.0
C555 C 0.52864 0.04517 0.70996 0.0
C556 C 0.54395 0.95273 0.71094 0.0
C557 C 0.54672 0.9655 0.71167 0.0
C558 C 0.54221 0.99341 0.69966 0.0
C559 C 0.54084 0.02729 0.7311 0.0
C560 C 0.54255 0.01355 0.73235 0.0
C561 C 0.54048 0.97349 0.7375 0.0
C562 C 0.54234 0.98721 0.73566 0.0
H563 H 0.55016 0.05367 0.77811 0.0
H564 H 0.55508 0.03147 0.77388 0.0
H565 H 0.54177 0.01098 0.66992 0.0
H566 H 0.52178 0.95214 0.78204 0.0
H567 H 0.52666 0.97433 0.78343 0.0
C568 C 0.7044 0.70346 0.00494 0.0
C569 C 0.69925 0.71452 -0.01015 0.0
C570 C 0.7172 0.70102 0.00114 0.0
C571 C 0.74558 0.71111 0.94686 0.0
H572 H 0.76346 0.70138 0.04005 0.0
C573 C 0.79565 0.72463 -0.00368 0.0
C574 C 0.80438 0.71601 0.98177 0.0
C575 C 0.78295 0.72177 -0.00312 0.0
C576 C 0.75853 0.70389 0.0137 0.0
H577 H 0.70359 0.7315 0.95796 0.0
H578 H 0.72566 0.72734 0.95193 0.0
H579 H 0.74058 0.70112 0.03975 0.0
H580 H 0.80651 0.69743 0.95752 0.0
H581 H 0.78412 0.69251 0.95844 0.0
H582 H 0.76359 0.71447 0.92166 0.0
C583 C 0.71985 0.72043 0.96618 0.0
C584 C 0.74547 0.70371 0.01341 0.0
C585 C 0.70714 0.72287 0.96996 0.0
C586 C 0.80007 0.7043 0.96875 0.0
C587 C 0.78729 0.70146 0.9693 0.0
C588 C 0.75861 0.71125 0.94718 0.0
C589 C 0.72509 0.70956 0.98202 0.0
C590 C 0.73884 0.70769 0.98035 0.0
C591 C 0.77868 0.71024 0.98305 0.0
C592 C 0.76515 0.70792 0.98085 0.0
H593 H 0.6986 0.69681 0.02033 0.0
H594 H 0.72093 0.6925 0.01341 0.0
H595 H 0.74077 0.71407 0.92077 0.0
H596 H 0.79857 0.73375 0.00646 0.0
H597 H 0.7764 0.72869 0.00728 0.0
C598 C 0.0447 0.95339 0.75454 0.0
C599 C 0.03562 0.94761 0.73104 0.0
C600 C 0.04682 0.96627 0.75188 0.0
C601 C 0.02887 0.99397 0.72819 0.0
H602 H 0.06009 0.01215 0.73664 0.0
C603 C 0.04439 0.04816 0.71479 0.0
C604 C 0.03508 0.05339 0.73856 0.0
C605 C 0.04655 0.03526 0.71513 0.0
C606 C 0.05133 0.00716 0.73418 0.0
H607 H 0.02259 0.95063 0.68366 0.0
H608 H 0.02637 0.97296 0.67893 0.0
H609 H 0.06031 0.98926 0.7307 0.0
H610 H 0.02156 0.0493 0.78384 0.0
H611 H 0.02535 0.02696 0.78437 0.0
H612 H 0.01984 0.01165 0.73188 0.0
C613 C 0.03162 0.96761 0.70004 0.0
C614 C 0.05145 0.9941 0.73094 0.0
C615 C 0.02947 0.9548 0.70275 0.0
C616 C 0.02864 0.04558 0.7646 0.0
C617 C 0.03079 0.03277 0.76491 0.0
C618 C 0.02875 0.0069 0.73182 0.0
C619 C 0.03993 0.97356 0.72562 0.0
C620 C 0.04019 0.9874 0.7278 0.0
C621 C 0.03943 0.02741 0.73922 0.0
C622 C 0.03994 0.01364 0.7351 0.0
H623 H 0.04964 0.94811 0.77652 0.0
H624 H 0.05329 0.97061 0.77197 0.0
H625 H 0.02003 0.98908 0.72643 0.0
H626 H 0.04956 0.05392 0.69452 0.0
H627 H 0.05328 0.03136 0.69505 0.0
C628 C 0.71015 0.27201 0.47313 0.0
C629 C 0.70183 0.2821 0.47067 0.0
C630 C 0.72289 0.27401 0.47784 0.0
C631 C 0.74859 0.2964 0.46729 0.0
H632 H 0.76437 0.27365 0.53994 0.0
C633 C 0.80229 0.29452 0.50588 0.0
C634 C 0.80725 0.28247 0.50086 0.0
C635 C 0.78936 0.29651 0.50365 0.0
C636 C 0.76009 0.28012 0.51972 0.0
H637 H 0.70051 0.30229 0.46951 0.0
H638 H 0.72304 0.30581 0.47813 0.0
H639 H 0.74177 0.27363 0.53334 0.0
H640 H 0.80247 0.26311 0.48919 0.0
H641 H 0.78013 0.26657 0.48606 0.0
H642 H 0.76715 0.30269 0.45349 0.0
C643 C 0.71955 0.29634 0.47637 0.0
C644 C 0.74716 0.28008 0.51579 0.0
C645 C 0.70668 0.29432 0.47146 0.0
C646 C 0.79903 0.27252 0.49327 0.0
C647 C 0.7862 0.27448 0.49161 0.0
C648 C 0.76163 0.29649 0.47148 0.0
C649 C 0.72774 0.28616 0.48052 0.0
C650 C 0.74127 0.28786 0.4885 0.0
C651 C 0.78121 0.28644 0.49707 0.0
C652 C 0.76748 0.28803 0.4968 0.0
H653 H 0.70683 0.26247 0.47181 0.0
H654 H 0.72896 0.26597 0.47969 0.0
H655 H 0.74432 0.30252 0.4461 0.0
H656 H 0.80837 0.3024 0.51154 0.0
H657 H 0.78571 0.30583 0.50794 0.0
C658 C 0.47467 0.95612 0.24895 0.0
C659 C 0.46517 0.94819 0.23514 0.0
C660 C 0.47285 0.96895 0.25128 0.0
C661 C 0.45162 0.99417 0.264 0.0
H662 H 0.47617 0.01314 0.20578 0.0
C663 C 0.45503 0.04893 0.26423 0.0
C664 C 0.46727 0.05372 0.26518 0.0
C665 C 0.45294 0.03607 0.25949 0.0
C666 C 0.46927 0.00801 0.22242 0.0
H667 H 0.44603 0.94764 0.21451 0.0
H668 H 0.44281 0.97034 0.21935 0.0
H669 H 0.47554 0.99053 0.19978 0.0
H670 H 0.48686 0.04865 0.26436 0.0
H671 H 0.48326 0.02648 0.25714 0.0
H672 H 0.44576 0.0117 0.28814 0.0
C673 C 0.45169 0.96641 0.22795 0.0
C674 C 0.46886 0.99508 0.21868 0.0
C675 C 0.45357 0.95347 0.22507 0.0
C676 C 0.47731 0.04535 0.26299 0.0
C677 C 0.47524 0.03259 0.25859 0.0
C678 C 0.4521 0.00721 0.26809 0.0
C679 C 0.46144 0.97425 0.24035 0.0
C680 C 0.46027 0.98801 0.24015 0.0
C681 C 0.46306 0.02779 0.25577 0.0
C682 C 0.46122 0.01422 0.24822 0.0
H683 H 0.48372 0.95247 0.25714 0.0
H684 H 0.48047 0.97481 0.26122 0.0
H685 H 0.44493 0.98887 0.28091 0.0
H686 H 0.4471 0.05515 0.26586 0.0
H687 H 0.44345 0.03266 0.25753 0.0
C688 C 0.70381 0.77345 0.49871 0.0
C689 C 0.69504 0.78311 0.50261 0.0
C690 C 0.71656 0.77604 0.49865 0.0
C691 C 0.74057 0.79697 0.47289 0.0
H692 H 0.75969 0.78093 0.55444 0.0
C693 C 0.79514 0.79605 0.47451 0.0
C694 C 0.80026 0.78436 0.48419 0.0
C695 C 0.78233 0.79832 0.47968 0.0
C696 C 0.75453 0.78546 0.53137 0.0
H697 H 0.69283 0.80314 0.50841 0.0
H698 H 0.71536 0.80769 0.50725 0.0
H699 H 0.73698 0.78041 0.55672 0.0
H700 H 0.79579 0.7659 0.50649 0.0
H701 H 0.77381 0.76975 0.51453 0.0
H702 H 0.75813 0.8013 0.44608 0.0
C703 C 0.71219 0.79811 0.50474 0.0
C704 C 0.74153 0.78524 0.53292 0.0
C705 C 0.69935 0.7955 0.50555 0.0
C706 C 0.7923 0.77507 0.49906 0.0
C707 C 0.77962 0.77731 0.50402 0.0
C708 C 0.75365 0.79706 0.471 0.0
C709 C 0.72086 0.78836 0.50182 0.0
C710 C 0.73445 0.79068 0.5032 0.0
C711 C 0.77444 0.78896 0.49465 0.0
C712 C 0.76076 0.7909 0.49957 0.0
H713 H 0.70086 0.7638 0.49651 0.0
H714 H 0.7231 0.76839 0.49622 0.0
H715 H 0.73524 0.80118 0.44957 0.0
H716 H 0.80099 0.80341 0.46297 0.0
H717 H 0.77864 0.80741 0.47223 0.0
C718 C 0.45755 0.45631 0.76193 0.0
C719 C 0.46549 0.44985 0.73639 0.0
C720 C 0.45591 0.46924 0.75812 0.0
C721 C 0.45164 0.49688 0.73518 0.0
H722 H 0.4835 0.51334 0.71932 0.0
C723 C 0.45887 0.55068 0.71223 0.0
C724 C 0.46916 0.55593 0.7318 0.0
C725 C 0.45678 0.53776 0.7131 0.0
C726 C 0.47453 0.5089 0.7239 0.0
H727 H 0.4769 0.45163 0.68462 0.0
H728 H 0.47389 0.47399 0.67769 0.0
H729 H 0.48237 0.49073 0.71797 0.0
H730 H 0.48485 0.5517 0.76957 0.0
H731 H 0.48119 0.52936 0.77094 0.0
H732 H 0.44392 0.51528 0.74171 0.0
C733 C 0.46923 0.4692 0.70133 0.0
C734 C 0.47384 0.49593 0.72265 0.0
C735 C 0.47093 0.45637 0.70526 0.0
C736 C 0.47694 0.54803 0.75362 0.0
C737 C 0.47487 0.53519 0.75439 0.0
C738 C 0.45232 0.50996 0.73613 0.0
C739 C 0.46213 0.47587 0.72859 0.0
C740 C 0.46242 0.48974 0.72841 0.0
C741 C 0.46496 0.52987 0.73341 0.0
C742 C 0.46383 0.51608 0.73097 0.0
H743 H 0.4532 0.45153 0.78616 0.0
H744 H 0.45039 0.47412 0.77959 0.0
H745 H 0.4427 0.49236 0.73962 0.0
H746 H 0.45265 0.5565 0.69531 0.0
H747 H 0.44907 0.5339 0.69664 0.0
C748 C 0.70629 0.22421 0.95989 0.0
C749 C 0.6973 0.21492 0.96697 0.0
C750 C 0.71893 0.22121 0.95832 0.0
C751 C 0.7425 0.2019 -0.0026 0.0
H752 H 0.76167 0.21177 0.90685 0.0
C753 C 0.79666 0.20287 -0.00086 0.0
C754 C 0.80185 0.21383 0.98337 0.0
C755 C 0.78404 0.19996 -0.00699 0.0
C756 C 0.75648 0.20897 0.93243 0.0
H757 H 0.6945 0.19521 0.97832 0.0
H758 H 0.71688 0.19004 0.977 0.0
H759 H 0.73894 0.21252 0.90472 0.0
H760 H 0.7979 0.23004 0.94749 0.0
H761 H 0.77615 0.22515 0.93763 0.0
H762 H 0.76001 0.19924 0.0262 0.0
C763 C 0.71399 0.19958 0.97204 0.0
C764 C 0.74348 0.20931 0.93102 0.0
C765 C 0.70124 0.20254 0.9727 0.0
C766 C 0.79427 0.22153 0.96026 0.0
C767 C 0.78174 0.21864 0.95422 0.0
C768 C 0.75556 0.20173 -0.00096 0.0
C769 C 0.72289 0.20891 0.96453 0.0
C770 C 0.7364 0.20615 0.96384 0.0
C771 C 0.77639 0.20791 0.97085 0.0
C772 C 0.76271 0.20572 0.96699 0.0
H773 H 0.70356 0.23381 0.9551 0.0
H774 H 0.72565 0.22856 0.95278 0.0
H775 H 0.73719 0.19948 0.02312 0.0
H776 H 0.80223 0.19671 0.017 0.0
H777 H 0.78024 0.19156 0.00597 0.0
C778 C 0.04745 0.45223 0.21587 0.0
C779 C 0.03745 0.44699 0.23687 0.0
C780 C 0.04952 0.46515 0.21628 0.0
C781 C 0.05398 0.49314 0.23674 0.0
H782 H 0.02342 0.51176 0.22084 0.0
C783 C 0.04805 0.54691 0.25783 0.0
C784 C 0.03966 0.55296 0.23267 0.0
C785 C 0.04997 0.53401 0.25493 0.0
C786 C 0.03207 0.50672 0.22487 0.0
H787 H 0.02239 0.45119 0.277 0.0
H788 H 0.02603 0.47356 0.27761 0.0
H789 H 0.02262 0.48917 0.22499 0.0
H790 H 0.02774 0.55046 0.18229 0.0
H791 H 0.03121 0.52811 0.177 0.0
H792 H 0.06338 0.51089 0.23679 0.0
C793 C 0.03211 0.46772 0.26028 0.0
C794 C 0.03159 0.49377 0.22776 0.0
C795 C 0.03005 0.45488 0.25995 0.0
C796 C 0.03408 0.54605 0.20261 0.0
C797 C 0.03603 0.53323 0.19962 0.0
C798 C 0.05446 0.5062 0.23419 0.0
C799 C 0.04162 0.47305 0.23758 0.0
C800 C 0.0425 0.48682 0.23399 0.0
C801 C 0.04356 0.52697 0.22674 0.0
C802 C 0.04348 0.51312 0.22816 0.0
H803 H 0.05337 0.44643 0.19792 0.0
H804 H 0.05692 0.46901 0.1985 0.0
H805 H 0.06253 0.488 0.24158 0.0
H806 H 0.05253 0.55198 0.28124 0.0
H807 H 0.05583 0.52944 0.27625 0.0
C808 C 0.29203 0.21936 0.5119 0.0
C809 C 0.30014 0.21341 0.48574 0.0
C810 C 0.27942 0.2161 0.51337 0.0
C811 C 0.25478 0.20413 0.45077 0.0
H812 H 0.23552 0.20434 0.54616 0.0
C813 C 0.20019 0.20282 0.50893 0.0
C814 C 0.19531 0.21239 0.48546 0.0
C815 C 0.21287 0.19978 0.50713 0.0
C816 C 0.24076 0.20403 0.51926 0.0
H817 H 0.30144 0.19895 0.44179 0.0
H818 H 0.27934 0.19332 0.44424 0.0
H819 H 0.25827 0.20452 0.54926 0.0
H820 H 0.19976 0.22565 0.43981 0.0
H821 H 0.22178 0.22033 0.43667 0.0
H822 H 0.23726 0.20404 0.42077 0.0
C823 C 0.28278 0.20055 0.46346 0.0
C824 C 0.25378 0.20426 0.52106 0.0
C825 C 0.29545 0.20374 0.46223 0.0
C826 C 0.20322 0.2183 0.45853 0.0
C827 C 0.21584 0.21518 0.4565 0.0
C828 C 0.24175 0.20398 0.44897 0.0
C829 C 0.2746 0.20686 0.48855 0.0
C830 C 0.26093 0.20465 0.48683 0.0
C831 C 0.22088 0.20613 0.48151 0.0
C832 C 0.2346 0.20427 0.4832 0.0
H833 H 0.29534 0.22679 0.5306 0.0
H834 H 0.27335 0.22122 0.53276 0.0
H835 H 0.26001 0.2045 0.42387 0.0
H836 H 0.19436 0.19805 0.52994 0.0
H837 H 0.21647 0.19267 0.52648 0.0
C838 C 0.52804 0.45199 0.21852 0.0
C839 C 0.5353 0.44445 0.24314 0.0
C840 C 0.53005 0.46484 0.21665 0.0
C841 C 0.55182 0.49057 0.23974 0.0
H842 H 0.52119 0.50957 0.24822 0.0
C843 C 0.53229 0.5437 0.27064 0.0
C844 C 0.53857 0.5507 0.24213 0.0
C845 C 0.5338 0.5308 0.27283 0.0
C846 C 0.52985 0.50442 0.24614 0.0
H847 H 0.55087 0.4445 0.28349 0.0
H848 H 0.55429 0.46707 0.2804 0.0
H849 H 0.52025 0.48695 0.24583 0.0
H850 H 0.55211 0.54971 0.19539 0.0
H851 H 0.55468 0.52702 0.19911 0.0
H852 H 0.56137 0.50824 0.24022 0.0
C853 C 0.54707 0.46295 0.26248 0.0
C854 C 0.5293 0.49145 0.24427 0.0
C855 C 0.54506 0.45003 0.26437 0.0
C856 C 0.54711 0.54458 0.21762 0.0
C857 C 0.5486 0.5316 0.21977 0.0
C858 C 0.55236 0.50365 0.2413 0.0
C859 C 0.53935 0.47052 0.23937 0.0
C860 C 0.54024 0.48435 0.24099 0.0
C861 C 0.54159 0.52454 0.2465 0.0
C862 C 0.54136 0.51069 0.24479 0.0
H863 H 0.52058 0.44802 0.20123 0.0
H864 H 0.52412 0.47039 0.19794 0.0
H865 H 0.56041 0.48533 0.2371 0.0
H866 H 0.52582 0.54812 0.29047 0.0
H867 H 0.5285 0.52565 0.29435 0.0
C868 C 0.2935 0.77769 0.96223 0.0
C869 C 0.30084 0.78601 0.98411 0.0
C870 C 0.28089 0.78001 0.95578 0.0
C871 C 0.25402 0.79697 -0.00359 0.0
H872 H 0.23829 0.78445 0.90261 0.0
C873 C 0.20003 0.79593 0.96643 0.0
C874 C 0.19587 0.7836 0.96066 0.0
C875 C 0.21283 0.79868 0.9666 0.0
C876 C 0.24258 0.7881 0.92878 0.0
H877 H 0.30062 0.80358 0.0154 0.0
H878 H 0.27847 0.80775 0.00355 0.0
H879 H 0.26098 0.78547 0.90654 0.0
H880 H 0.2018 0.7646 0.94959 0.0
H881 H 0.22403 0.76948 0.94866 0.0
H882 H 0.23544 0.79948 0.01847 0.0
C883 C 0.28254 0.79931 -0.00811 0.0
C884 C 0.25556 0.78861 0.93123 0.0
C885 C 0.29525 0.79695 -0.0015 0.0
C886 C 0.20471 0.77417 0.95429 0.0
C887 C 0.21742 0.77696 0.95355 0.0
C888 C 0.24098 0.79664 -0.00632 0.0
C889 C 0.27518 0.79079 0.97069 0.0
C890 C 0.26148 0.79255 0.96566 0.0
C891 C 0.22161 0.7892 0.95994 0.0
C892 C 0.23518 0.79178 0.96035 0.0
H893 H 0.29741 0.76916 0.95063 0.0
H894 H 0.27553 0.77308 0.94008 0.0
H895 H 0.25823 0.8 0.02343 0.0
H896 H 0.19341 0.80337 0.97161 0.0
H897 H 0.21588 0.80819 0.97164 0.0
C898 C 0.97976 0.45624 0.75379 0.0
C899 C 0.97013 0.44829 0.74102 0.0
C900 C 0.97799 0.4691 0.75551 0.0
C901 C 0.95727 0.49453 0.76855 0.0
H902 H 0.98015 0.51275 0.70204 0.0
C903 C 0.95979 0.54908 0.76234 0.0
C904 C 0.97189 0.55414 0.75953 0.0
C905 C 0.95787 0.53617 0.75886 0.0
C906 C 0.97375 0.50784 0.72103 0.0
H907 H 0.95083 0.44768 0.7219 0.0
H908 H 0.94771 0.47039 0.72578 0.0
H909 H 0.97963 0.49006 0.69958 0.0
H910 H 0.99147 0.54951 0.75266 0.0
H911 H 0.98819 0.52723 0.74772 0.0
H912 H 0.95184 0.51233 0.79153 0.0
C913 C 0.95664 0.46649 0.73398 0.0
C914 C 0.9734 0.49486 0.71931 0.0
C915 C 0.95846 0.45354 0.73166 0.0
C916 C 0.982 0.54599 0.75431 0.0
C917 C 0.9801 0.53317 0.7512 0.0
C918 C 0.95774 0.5076 0.77067 0.0
C919 C 0.96651 0.47435 0.7451 0.0
C920 C 0.96538 0.48808 0.74362 0.0
C921 C 0.96802 0.52808 0.75271 0.0
C922 C 0.96625 0.51438 0.74766 0.0
H923 H 0.98886 0.4526 0.76133 0.0
H924 H 0.9857 0.47501 0.76436 0.0
H925 H 0.95104 0.48944 0.78765 0.0
H926 H 0.9518 0.55511 0.76634 0.0
H927 H 0.94844 0.53256 0.76012 0.0
C928 C 0.1626 0.28727 0.89461 0.0
C929 C 0.158 0.28005 0.9255 0.0
C930 C 0.1636 0.28208 0.85738 0.0
C931 C 0.16534 0.25146 0.80782 0.0
H932 H 0.15589 0.27027 0.71629 0.0
C933 C 0.15888 0.2292 0.65539 0.0
C934 C 0.1632 0.23621 0.62361 0.0
C935 C 0.15893 0.23435 0.6928 0.0
C936 C 0.1587 0.26494 0.74156 0.0
H937 H 0.15046 0.26196 0.94161 0.0
H938 H 0.15198 0.25308 0.87701 0.0
H939 H 0.15465 0.28008 0.78005 0.0
H940 H 0.17164 0.25386 0.60659 0.0
H941 H 0.17182 0.26267 0.67138 0.0
H942 H 0.16928 0.23628 0.76927 0.0
C943 C 0.15512 0.26259 0.88144 0.0
C944 C 0.158 0.27057 0.77805 0.0
C945 C 0.15416 0.26772 0.91843 0.0
C946 C 0.16802 0.24825 0.63025 0.0
C947 C 0.16809 0.25335 0.66741 0.0
C948 C 0.16601 0.24582 0.77132 0.0
C949 C 0.15999 0.26963 0.85058 0.0
C950 C 0.16125 0.26387 0.8116 0.0
C951 C 0.16333 0.24658 0.69897 0.0
C952 C 0.16267 0.25249 0.73783 0.0
H953 H 0.16567 0.29678 0.89935 0.0
H954 H 0.16746 0.28772 0.83416 0.0
H955 H 0.16811 0.24612 0.8331 0.0
H956 H 0.15512 0.2199 0.65124 0.0
H957 H 0.15517 0.22892 0.71665 0.0
C958 C 0.01955 0.91063 0.9042 0.0
C959 C 0.01276 0.91558 0.87288 0.0
C960 C 0.01432 0.91033 0.9415 0.0
C961 C 0.98351 0.91029 0.98927 0.0
H962 H 0.00256 0.91635 0.0831 0.0
C963 C 0.96122 0.91099 0.14318 0.0
C964 C 0.96824 0.90537 0.17283 0.0
C965 C 0.96642 0.91266 0.10616 0.0
C966 C 0.99714 0.91452 0.05715 0.0
H967 H 0.99553 0.92487 0.85666 0.0
H968 H 0.98658 0.9245 0.92139 0.0
H969 H 0.01256 0.91886 0.01992 0.0
H970 H 0.98592 0.89662 0.18674 0.0
H971 H 0.99482 0.89928 0.12244 0.0
H972 H 0.96813 0.90584 0.02647 0.0
C973 C 0.99576 0.92052 0.91709 0.0
C974 C 0.00288 0.91596 0.02098 0.0
C975 C 0.00093 0.92077 0.87998 0.0
C976 C 0.98033 0.9011 0.16456 0.0
C977 C 0.98548 0.90272 0.12777 0.0
C978 C 0.97778 0.90884 0.02543 0.0
C979 C 0.00224 0.91503 0.94809 0.0
C980 C 0.99615 0.9138 0.98664 0.0
C981 C 0.97869 0.90871 0.09831 0.0
C982 C 0.98456 0.91083 0.05978 0.0
H983 H 0.02868 0.90656 0.89965 0.0
H984 H 0.01953 0.906 0.96483 0.0
H985 H 0.97811 0.90838 0.96334 0.0
H986 H 0.95191 0.91443 0.14888 0.0
H987 H 0.96098 0.91736 0.08406 0.0
C988 C 0.34169 0.71444 0.395 0.0
C989 C 0.34674 0.72143 0.42568 0.0
C990 C 0.34053 0.71977 0.35797 0.0
C991 C 0.33881 0.75073 0.31045 0.0
H992 H 0.34515 0.73209 0.21611 0.0
C993 C 0.3408 0.77332 0.15681 0.0
C994 C 0.33558 0.76631 0.12636 0.0
C995 C 0.34179 0.76815 0.19413 0.0
C996 C 0.34322 0.73739 0.24221 0.0
H997 H 0.35515 0.73916 0.44147 0.0
H998 H 0.35342 0.74827 0.37713 0.0
H999 H 0.34794 0.72198 0.27897 0.0
H1000 H 0.32652 0.74877 0.11176 0.0
H1001 H 0.32808 0.73995 0.17644 0.0
H1002 H 0.33413 0.76615 0.27362 0.0
C1003 C 0.34999 0.73886 0.38162 0.0
C1004 C 0.34481 0.73158 0.27821 0.0
C1005 C 0.35106 0.7336 0.41844 0.0
C1006 C 0.33082 0.75434 0.13439 0.0
C1007 C 0.33176 0.74924 0.17145 0.0
C1008 C 0.33724 0.75655 0.27444 0.0
C1009 C 0.34447 0.73214 0.35113 0.0
C1010 C 0.34264 0.73819 0.31274 0.0
C1011 C 0.33753 0.75593 0.20151 0.0
C1012 C 0.33939 0.74992 0.23993 0.0
H1013 H 0.33823 0.70507 0.3999 0.0
H1014 H 0.33618 0.71436 0.33507 0.0
H1015 H 0.33686 0.75603 0.33653 0.0
H1016 H 0.34455 0.78255 0.15148 0.0
H1017 H 0.3463 0.77353 0.21678 0.0
C1018 C 0.53483 0.10183 0.6484 0.0
C1019 C 0.52693 0.09995 0.68037 0.0
C1020 C 0.52981 0.10352 0.6112 0.0
C1021 C 0.49993 0.11045 0.55953 0.0
H1022 H 0.51628 0.09379 0.47366 0.0
C1023 C 0.47678 0.09915 0.41024 0.0
C1024 C 0.48432 0.10102 0.37731 0.0
C1025 C 0.48175 0.10082 0.44759 0.0
C1026 C 0.51167 0.0986 0.49731 0.0
H1027 H 0.50758 0.09852 0.69861 0.0
H1028 H 0.49892 0.101 0.63415 0.0
H1029 H 0.52582 0.09333 0.53776 0.0
H1030 H 0.50268 0.10704 0.35783 0.0
H1031 H 0.5112 0.10985 0.4225 0.0
H1032 H 0.48554 0.1153 0.51887 0.0
C1033 C 0.50895 0.10149 0.63755 0.0
C1034 C 0.51717 0.0984 0.53403 0.0
C1035 C 0.51395 0.09993 0.67458 0.0
C1036 C 0.49665 0.10527 0.38248 0.0
C1037 C 0.50157 0.10688 0.41955 0.0
C1038 C 0.49435 0.11052 0.5228 0.0
C1039 C 0.51679 0.10326 0.60532 0.0
C1040 C 0.51134 0.10425 0.5657 0.0
C1041 C 0.4943 0.10434 0.45246 0.0
C1042 C 0.50016 0.10456 0.4914 0.0
H1043 H 0.54487 0.10198 0.65209 0.0
H1044 H 0.53612 0.10502 0.58708 0.0
H1045 H 0.49527 0.11523 0.58311 0.0
H1046 H 0.46725 0.09593 0.40725 0.0
H1047 H 0.47595 0.0988 0.47261 0.0
C1048 C 0.14617 0.75359 0.84416 0.0
C1049 C 0.14921 0.76616 0.85144 0.0
C1050 C 0.14463 0.74927 0.80633 0.0
C1051 C 0.15457 0.75643 0.70685 0.0
H1052 H 0.13202 0.7293 0.6809 0.0
C1053 C 0.15138 0.73618 0.55265 0.0
C1054 C 0.15171 0.72311 0.54938 0.0
C1055 C 0.1498 0.74186 0.58869 0.0
C1056 C 0.13841 0.73682 0.68786 0.0
H1057 H 0.15229 0.7842 0.82449 0.0
H1058 H 0.14941 0.77663 0.75798 0.0
H1059 H 0.13062 0.73926 0.74457 0.0
H1060 H 0.15037 0.70571 0.58122 0.0
H1061 H 0.14757 0.71572 0.64477 0.0
H1062 H 0.16236 0.75396 0.65015 0.0
C1063 C 0.14847 0.77009 0.78181 0.0
C1064 C 0.13761 0.74255 0.72425 0.0
C1065 C 0.15004 0.77445 0.8199 0.0
C1066 C 0.15018 0.7158 0.58292 0.0
C1067 C 0.14852 0.72152 0.61917 0.0
C1068 C 0.1553 0.75077 0.67039 0.0
C1069 C 0.14602 0.75738 0.7746 0.0
C1070 C 0.14582 0.75229 0.73442 0.0
C1071 C 0.14845 0.73462 0.62237 0.0
C1072 C 0.14734 0.74081 0.66071 0.0
H1073 H 0.14533 0.74692 0.86769 0.0
H1074 H 0.1429 0.7394 0.802 0.0
H1075 H 0.1612 0.76373 0.71388 0.0
H1076 H 0.15242 0.7421 0.52733 0.0
H1077 H 0.14961 0.75196 0.59019 0.0
C1078 C 0.49668 0.91192 0.09637 0.0
C1079 C 0.48406 0.90916 0.10374 0.0
C1080 C 0.50164 0.91065 0.05927 0.0
C1081 C 0.49348 0.90907 0.95592 0.0
H1082 H 0.52661 0.89479 0.94668 0.0
C1083 C 0.51537 0.89892 0.80735 0.0
C1084 C 0.52788 0.90246 0.80189 0.0
C1085 C 0.5101 0.89888 0.84429 0.0
C1086 C 0.51741 0.8989 0.94883 0.0
H1087 H 0.46667 0.90316 0.07743 0.0
H1088 H 0.47545 0.90084 0.01199 0.0
H1089 H 0.51677 0.89629 0.0104 0.0
H1090 H 0.54482 0.90837 0.83092 0.0
H1091 H 0.53552 0.90844 0.89605 0.0
H1092 H 0.49415 0.91176 0.89439 0.0
C1093 C 0.48145 0.90405 0.03528 0.0
C1094 C 0.51176 0.89974 0.98528 0.0
C1095 C 0.47642 0.90537 0.07269 0.0
C1096 C 0.53516 0.90558 0.83436 0.0
C1097 C 0.52984 0.90559 0.87156 0.0
C1098 C 0.49913 0.90821 0.91945 0.0
C1099 C 0.49417 0.90654 0.02838 0.0
C1100 C 0.49978 0.90494 0.98928 0.0
C1101 C 0.51718 0.90244 0.87675 0.0
C1102 C 0.51118 0.90318 0.91554 0.0
H1103 H 0.50283 0.91507 0.11938 0.0
H1104 H 0.51138 0.91296 0.05476 0.0
H1105 H 0.48433 0.91327 0.9581 0.0
H1106 H 0.50956 0.89631 0.78289 0.0
H1107 H 0.50042 0.89613 0.84739 0.0
C1108 C 0.35288 0.26991 0.06129 0.0
C1109 C 0.34838 0.28194 0.0534 0.0
C1110 C 0.35157 0.2647 0.09811 0.0
C1111 C 0.34539 0.272 0.20085 0.0
H1112 H 0.33501 0.23729 0.20485 0.0
C1113 C 0.33072 0.24887 0.34382 0.0
C1114 C 0.33546 0.23691 0.3518 0.0
C1115 C 0.33191 0.2541 0.30698 0.0
C1116 C 0.33803 0.24694 0.20421 0.0
H1117 H 0.33932 0.29815 0.07808 0.0
H1118 H 0.33689 0.28896 0.14292 0.0
H1119 H 0.33811 0.2474 0.14211 0.0
H1120 H 0.34474 0.22085 0.32678 0.0
H1121 H 0.34691 0.23008 0.26199 0.0
H1122 H 0.34529 0.27153 0.26297 0.0
C1123 C 0.34154 0.28361 0.12052 0.0
C1124 C 0.33982 0.25274 0.1683 0.0
C1125 C 0.34292 0.28888 0.08349 0.0
C1126 C 0.34098 0.23007 0.32153 0.0
C1127 C 0.34221 0.23536 0.28447 0.0
C1128 C 0.34359 0.26619 0.23676 0.0
C1129 C 0.34565 0.27136 0.12794 0.0
C1130 C 0.34355 0.26533 0.16622 0.0
C1131 C 0.3379 0.24754 0.2771 0.0
C1132 C 0.33989 0.2536 0.23884 0.0
H1133 H 0.35727 0.26439 0.03874 0.0
H1134 H 0.35512 0.25538 0.10312 0.0
H1135 H 0.34842 0.28164 0.20023 0.0
H1136 H 0.32622 0.25432 0.36627 0.0
H1137 H 0.3282 0.26336 0.30198 0.0
C1138 C 0.01911 0.09417 0.57441 0.0
C1139 C 0.01229 0.08886 0.6051 0.0
C1140 C 0.01385 0.09502 0.53722 0.0
C1141 C 0.98306 0.09547 0.48896 0.0
H1142 H 0.00201 0.08911 0.39523 0.0
C1143 C 0.96056 0.09239 0.33571 0.0
C1144 C 0.96747 0.09756 0.30501 0.0
C1145 C 0.9658 0.09161 0.37295 0.0
C1146 C 0.99663 0.09105 0.42114 0.0
H1147 H 0.9949 0.07958 0.62026 0.0
H1148 H 0.98592 0.08089 0.55579 0.0
H1149 H 0.01209 0.08696 0.45839 0.0
H1150 H 0.98491 0.10656 0.28934 0.0
H1151 H 0.99386 0.10547 0.35405 0.0
H1152 H 0.9676 0.09958 0.45172 0.0
C1153 C 0.99514 0.08475 0.56052 0.0
C1154 C 0.00241 0.08982 0.4573 0.0
C1155 C 1.00035 0.08395 0.59749 0.0
C1156 C 0.97942 0.10239 0.31242 0.0
C1157 C 0.9846 0.10168 0.34943 0.0
C1158 C 0.97727 0.09671 0.45281 0.0
C1159 C 0.00171 0.09051 0.53015 0.0
C1160 C 0.99569 0.092 0.4916 0.0
C1161 C 0.97798 0.09604 0.37994 0.0
C1162 C 0.984 0.09455 0.41849 0.0
H1163 H 0.02833 0.09803 0.57937 0.0
H1164 H 0.01913 0.09954 0.51434 0.0
H1165 H 0.97767 0.0974 0.51488 0.0
H1166 H 0.95136 0.08854 0.33066 0.0
H1167 H 0.96049 0.08716 0.39588 0.0
C1168 C 0.85416 0.73281 0.05871 0.0
C1169 C 0.84952 0.7207 0.05263 0.0
C1170 C 0.85397 0.73813 0.09557 0.0
C1171 C 0.8506 0.73123 0.19997 0.0
H1172 H 0.83887 0.76546 0.20487 0.0
C1173 C 0.83505 0.75321 0.34295 0.0
C1174 C 0.83898 0.76544 0.35147 0.0
C1175 C 0.83678 0.74819 0.30612 0.0
C1176 C 0.84232 0.75597 0.20394 0.0
H1177 H 0.8415 0.70443 0.08046 0.0
H1178 H 0.841 0.71383 0.1454 0.0
H1179 H 0.84143 0.75535 0.14192 0.0
H1180 H 0.84739 0.78217 0.32749 0.0
H1181 H 0.85048 0.77328 0.26246 0.0
H1182 H 0.85136 0.73182 0.26202 0.0
C1183 C 0.84489 0.71916 0.12153 0.0
C1184 C 0.84379 0.75016 0.16792 0.0
C1185 C 0.84515 0.71378 0.08445 0.0
C1186 C 0.84426 0.77273 0.32174 0.0
C1187 C 0.84603 0.76764 0.28462 0.0
C1188 C 0.84913 0.73704 0.23597 0.0
C1189 C 0.84906 0.7315 0.12724 0.0
C1190 C 0.84786 0.7377 0.16556 0.0
C1191 C 0.84252 0.75522 0.27676 0.0
C1192 C 0.84484 0.74942 0.23835 0.0
H1193 H 0.85775 0.73831 0.03475 0.0
H1194 H 0.85754 0.74753 0.09917 0.0
H1195 H 0.85394 0.72171 0.19907 0.0
H1196 H 0.83073 0.74741 0.36496 0.0
H1197 H 0.83364 0.73873 0.30069 0.0
C1198 C 0.99849 0.09168 0.10181 0.0
C1199 C 0.98552 0.09253 0.10768 0.0
C1200 C 0.00356 0.09256 0.06469 0.0
C1201 C 0.99746 0.10442 0.96673 0.0
H1202 H 0.02391 0.0816 0.93762 0.0
C1203 C 0.01527 0.09985 0.8099 0.0
C1204 C 0.02809 0.09799 0.80367 0.0
C1205 C 0.01038 0.09984 0.84736 0.0
C1206 C 0.01668 0.08816 0.94551 0.0
H1207 H 0.96771 0.09502 0.07874 0.0
H1208 H 0.97666 0.09651 0.01335 0.0
H1209 H 0.01426 0.07984 0.0015 0.0
H1210 H 0.04591 0.09497 0.83183 0.0
H1211 H 0.03733 0.09506 0.89786 0.0
H1212 H 0.99988 0.11275 0.91071 0.0
C1213 C 0.98285 0.09523 0.0379 0.0
C1214 C 0.0111 0.08712 0.98202 0.0
C1215 C 0.97773 0.09431 0.07527 0.0
C1216 C 0.03599 0.09639 0.83581 0.0
C1217 C 0.03106 0.09637 0.87351 0.0
C1218 C 0.00306 0.10548 0.93021 0.0
C1219 C 0.99583 0.09432 0.03231 0.0
C1220 C 0.00143 0.09523 -0.00698 0.0
C1221 C 0.01817 0.098 0.8796 0.0
C1222 C 0.0127 0.09733 0.91916 0.0
H1223 H 0.00484 0.09033 0.12594 0.0
H1224 H 0.0136 0.09201 0.06144 0.0
H1225 H 0.99017 0.11093 0.97464 0.0
H1226 H 0.00893 0.10113 0.78572 0.0
H1227 H 0.0004 0.10095 0.85094 0.0
C1228 C 0.66206 0.26641 0.56148 0.0
C1229 C 0.65997 0.27922 0.55612 0.0
C1230 C 0.66114 0.26107 0.59819 0.0
C1231 C 0.66016 0.26828 0.70311 0.0
H1232 H 0.64498 0.23539 0.70893 0.0
C1233 C 0.64799 0.24594 0.84888 0.0
C1234 C 0.65266 0.23383 0.85495 0.0
C1235 C 0.64776 0.25111 0.81181 0.0
C1236 C 0.64929 0.24454 0.70766 0.0
H1237 H 0.65562 0.2966 0.58504 0.0
H1238 H 0.65364 0.28719 0.64967 0.0
H1239 H 0.64713 0.2457 0.64608 0.0
H1240 H 0.65989 0.21732 0.82648 0.0
H1241 H 0.65941 0.22642 0.76109 0.0
H1242 H 0.66213 0.26715 0.76486 0.0
C1243 C 0.6562 0.2813 0.6254 0.0
C1244 C 0.65058 0.25044 0.67171 0.0
C1245 C 0.65731 0.2867 0.58848 0.0
C1246 C 0.65626 0.22667 0.82269 0.0
C1247 C 0.656 0.23188 0.78535 0.0
C1248 C 0.65876 0.26242 0.73907 0.0
C1249 C 0.6579 0.26836 0.63049 0.0
C1250 C 0.65613 0.26234 0.66897 0.0
C1251 C 0.65214 0.2443 0.77989 0.0
C1252 C 0.65336 0.25048 0.74165 0.0
H1253 H 0.66429 0.2604 0.53722 0.0
H1254 H 0.6629 0.25116 0.60116 0.0
H1255 H 0.66463 0.27735 0.70203 0.0
H1256 H 0.64492 0.25163 0.87304 0.0
H1257 H 0.64445 0.26059 0.80826 0.0
C1258 C 0.48018 0.90006 0.30916 0.0
C1259 C 0.46783 0.90396 0.30297 0.0
C1260 C 0.48542 0.90046 0.34614 0.0
C1261 C 0.47796 0.90224 0.45029 0.0
H1262 H 0.51172 0.91518 0.45835 0.0
C1263 C 0.49968 0.91486 0.59706 0.0
C1264 C 0.51208 0.91124 0.6042 0.0
C1265 C 0.49456 0.91391 0.56003 0.0
C1266 C 0.50236 0.9114 0.45652 0.0
H1267 H 0.45113 0.91099 0.33074 0.0
H1268 H 0.46037 0.91179 0.3959 0.0
H1269 H 0.50182 0.91348 0.39475 0.0
H1270 H 0.52895 0.90409 0.57755 0.0
H1271 H 0.5199 0.90234 0.51236 0.0
H1272 H 0.47847 0.90021 0.51207 0.0
C1273 C 0.46595 0.90834 0.37199 0.0
C1274 C 0.49667 0.91044 0.42013 0.0
C1275 C 0.46066 0.90791 0.33477 0.0
C1276 C 0.51937 0.90696 0.57301 0.0
C1277 C 0.5142 0.90598 0.53573 0.0
C1278 C 0.48364 0.9032 0.48667 0.0
C1279 C 0.47846 0.9048 0.37786 0.0
C1280 C 0.48441 0.90586 0.41663 0.0
C1281 C 0.50167 0.90928 0.52907 0.0
C1282 C 0.49588 0.90785 0.49019 0.0
H1283 H 0.4859 0.89684 0.28525 0.0
H1284 H 0.49497 0.8974 0.34984 0.0
H1285 H 0.46858 0.89851 0.44848 0.0
H1286 H 0.49382 0.91839 0.62021 0.0
H1287 H 0.48499 0.91683 0.55567 0.0
C1288 C 0.8293 0.24475 0.13791 0.0
C1289 C 0.83539 0.23357 0.12819 0.0
C1290 C 0.83034 0.24976 0.17506 0.0
C1291 C 0.83906 0.24335 0.27633 0.0
H1292 H 0.84697 0.27872 0.27738 0.0
C1293 C 0.85403 0.26835 0.41645 0.0
C1294 C 0.84919 0.28031 0.42345 0.0
C1295 C 0.85249 0.26265 0.38038 0.0
C1296 C 0.84461 0.26889 0.27768 0.0
H1297 H 0.84669 0.21845 0.15053 0.0
H1298 H 0.84857 0.2273 0.2161 0.0
H1299 H 0.84345 0.26816 0.21572 0.0
H1300 H 0.83917 0.29583 0.39809 0.0
H1301 H 0.83627 0.28578 0.33483 0.0
H1302 H 0.84011 0.2441 0.33834 0.0
C1303 C 0.84299 0.23215 0.19466 0.0
C1304 C 0.84261 0.26282 0.24234 0.0
C1305 C 0.84191 0.22708 0.15723 0.0
C1306 C 0.84306 0.28663 0.39333 0.0
C1307 C 0.84142 0.28087 0.35716 0.0
C1308 C 0.841 0.24944 0.31175 0.0
C1309 C 0.83753 0.24374 0.20348 0.0
C1310 C 0.83977 0.25 0.24128 0.0
C1311 C 0.84597 0.26872 0.3505 0.0
C1312 C 0.84381 0.26228 0.31283 0.0
H1313 H 0.82399 0.24986 0.11638 0.0
H1314 H 0.82574 0.25852 0.1813 0.0
H1315 H 0.83677 0.2335 0.27641 0.0
H1316 H 0.8589 0.26329 0.43908 0.0
H1317 H 0.85638 0.25344 0.376 0.0
C1318 C 0.46214 0.08869 0.14795 0.0
C1319 C 0.46935 0.09375 0.17815 0.0
C1320 C 0.46738 0.08694 0.11107 0.0
C1321 C 0.49801 0.08432 0.0615 0.0
H1322 H 0.47905 0.09263 0.9692 0.0
C1323 C 0.51989 0.08943 0.9079 0.0
C1324 C 0.51278 0.08491 0.87659 0.0
C1325 C 0.51488 0.08953 0.9455 0.0
C1326 C 0.48442 0.09012 -0.0053 0.0
H1327 H 0.48755 0.10121 0.19338 0.0
H1328 H 0.49653 0.09842 0.12931 0.0
H1329 H 0.46936 0.09469 0.03287 0.0
H1330 H 0.49518 0.0762 0.86063 0.0
H1331 H 0.48661 0.07626 0.92582 0.0
H1332 H 0.51313 0.07993 0.02319 0.0
C1333 C 0.48697 0.0955 0.13407 0.0
C1334 C 0.47885 0.09128 0.03116 0.0
C1335 C 0.48178 0.09719 0.17075 0.0
C1336 C 0.50084 0.07997 0.88393 0.0
C1337 C 0.49588 0.08004 0.9213 0.0
C1338 C 0.50359 0.08319 0.025 0.0
C1339 C 0.47989 0.09026 0.10387 0.0
C1340 C 0.4856 0.08846 0.065 0.0
C1341 C 0.50271 0.08507 0.95234 0.0
C1342 C 0.49686 0.08611 -0.00877 0.0
H1343 H 0.45256 0.0859 0.15295 0.0
H1344 H 0.46171 0.0828 0.08842 0.0
H1345 H 0.5034 0.08188 0.08702 0.0
H1346 H 0.52911 0.09329 0.90317 0.0
H1347 H 0.52035 0.0935 0.96892 0.0
C1348 C 0.65405 0.71233 0.89415 0.0
C1349 C 0.65392 0.72008 0.927 0.0
C1350 C 0.65322 0.71751 0.85687 0.0
C1351 C 0.64433 0.74666 0.80491 0.0
H1352 H 0.66534 0.73325 0.72344 0.0
C1353 C 0.65332 0.77116 0.65614 0.0
C1354 C 0.65285 0.76329 0.62347 0.0
C1355 C 0.6527 0.76612 0.6937 0.0
C1356 C 0.65936 0.73705 0.74586 0.0
H1357 H 0.65269 0.7393 0.94667 0.0
H1358 H 0.65158 0.74826 0.88217 0.0
H1359 H 0.66551 0.72359 0.78749 0.0
H1360 H 0.65079 0.74397 0.60492 0.0
H1361 H 0.64975 0.73537 0.66979 0.0
H1362 H 0.63838 0.76027 0.76313 0.0
C1363 C 0.65207 0.73821 0.88489 0.0
C1364 C 0.6594 0.73147 0.7825 0.0
C1365 C 0.65283 0.73305 0.92194 0.0
C1366 C 0.65135 0.75036 0.62924 0.0
C1367 C 0.6508 0.74537 0.66649 0.0
C1368 C 0.64437 0.75231 0.76828 0.0
C1369 C 0.65229 0.73053 0.85186 0.0
C1370 C 0.65188 0.7362 0.81248 0.0
C1371 C 0.65167 0.75314 0.6991 0.0
C1372 C 0.65185 0.74752 0.73839 0.0
H1373 H 0.65484 0.70231 0.89722 0.0
H1374 H 0.65326 0.71132 0.83201 0.0
H1375 H 0.6383 0.75044 0.82719 0.0
H1376 H 0.65444 0.78115 0.65274 0.0
H1377 H 0.6534 0.77231 0.71848 0.0
C1378 C 0.97799 0.90408 0.40414 0.0
C1379 C 0.98583 0.90402 0.37137 0.0
C1380 C 0.98304 0.90284 0.44155 0.0
C1381 C 0.01233 0.90813 0.49463 0.0
H1382 H 0.99787 0.88677 0.57363 0.0
C1383 C 0.03592 0.90154 0.64414 0.0
C1384 C 0.02792 0.90168 0.67641 0.0
C1385 C 0.03101 0.90075 0.60649 0.0
C1386 C 0.00197 0.89287 0.55199 0.0
H1387 H 0.00511 0.90212 0.35243 0.0
H1388 H 0.01373 0.89998 0.41703 0.0
H1389 H 0.98834 0.88772 0.50922 0.0
H1390 H 0.00854 0.90083 0.69466 0.0
H1391 H 1.00005 0.89975 0.62951 0.0
H1392 H 0.0258 0.9135 0.53731 0.0
C1393 C 0.00374 0.90118 0.41398 0.0
C1394 C 0.99649 0.89341 0.51515 0.0
C1395 C 0.99874 0.90236 0.37685 0.0
C1396 C 0.01498 0.90077 0.6704 0.0
C1397 C 0.01009 0.90003 0.63296 0.0
C1398 C 0.01776 0.90766 0.53147 0.0
C1399 C 0.996 0.90158 0.44676 0.0
C1400 C 0.00162 0.90105 0.48611 0.0
C1401 C 0.01802 0.90011 0.60049 0.0
C1402 C 0.01263 0.90005 0.56066 0.0
H1403 H 0.96801 0.9053 0.401 0.0
H1404 H 0.97686 0.90321 0.46641 0.0
H1405 H 0.01641 0.91424 0.47296 0.0
H1406 H 0.04593 0.90219 0.64794 0.0
H1407 H 0.03739 0.90068 0.58209 0.0
C1408 C 0.65689 0.78637 0.39365 0.0
C1409 C 0.65161 0.77964 0.42452 0.0
C1410 C 0.65785 0.78091 0.3568 0.0
C1411 C 0.6586 0.7498 0.31033 0.0
H1412 H 0.65325 0.76846 0.21537 0.0
C1413 C 0.65727 0.72727 0.15645 0.0
C1414 C 0.66306 0.73416 0.12674 0.0
C1415 C 0.65599 0.73242 0.19368 0.0
C1416 C 0.65488 0.76315 0.24168 0.0
H1417 H 0.64258 0.76228 0.44084 0.0
H1418 H 0.64396 0.75294 0.37676 0.0
H1419 H 0.6504 0.77874 0.2779 0.0
H1420 H 0.67284 0.75141 0.1134 0.0
H1421 H 0.67078 0.7602 0.17794 0.0
H1422 H 0.66306 0.73421 0.27399 0.0
C1423 C 0.64772 0.76223 0.38099 0.0
C1424 C 0.65327 0.76905 0.27746 0.0
C1425 C 0.64685 0.76762 0.41765 0.0
C1426 C 0.6681 0.74595 0.13544 0.0
C1427 C 0.66687 0.75104 0.1724 0.0
C1428 C 0.66019 0.74389 0.27452 0.0
C1429 C 0.65347 0.76868 0.35033 0.0
C1430 C 0.65514 0.76245 0.31219 0.0
C1431 C 0.66053 0.74449 0.20165 0.0
C1432 C 0.65843 0.75053 0.23982 0.0
H1433 H 0.66068 0.79563 0.39829 0.0
H1434 H 0.66239 0.78609 0.33376 0.0
H1435 H 0.6603 0.7445 0.3366 0.0
H1436 H 0.65329 0.71816 0.15055 0.0
H1437 H 0.65106 0.72716 0.21577 0.0
C1438 C 0.48512 0.40342 0.67249 0.0
C1439 C 0.47223 0.40489 0.67823 0.0
C1440 C 0.49007 0.40278 0.63512 0.0
C1441 C 0.48329 0.4116 0.53409 0.0
H1442 H 0.51082 0.38936 0.51075 0.0
C1443 C 0.5015 0.40492 0.37896 0.0
C1444 C 0.51451 0.40494 0.37314 0.0
C1445 C 0.49649 0.40446 0.41623 0.0
C1446 C 0.50323 0.39571 0.517 0.0
H1447 H 0.45436 0.40663 0.64935 0.0
H1448 H 0.46302 0.40538 0.58359 0.0
H1449 H 0.50126 0.38891 0.57515 0.0
H1450 H 0.53243 0.40426 0.40238 0.0
H1451 H 0.52358 0.40348 0.46801 0.0
H1452 H 0.48522 0.41836 0.47593 0.0
C1453 C 0.46931 0.40488 0.60818 0.0
C1454 C 0.49773 0.39545 0.55382 0.0
C1455 C 0.46433 0.40553 0.64576 0.0
C1456 C 0.52239 0.40428 0.40577 0.0
C1457 C 0.51732 0.40378 0.44331 0.0
C1458 C 0.48875 0.41183 0.49728 0.0
C1459 C 0.48225 0.40357 0.60249 0.0
C1460 C 0.48772 0.40342 0.56283 0.0
C1461 C 0.50431 0.404 0.44884 0.0
C1462 C 0.49877 0.40389 0.48833 0.0
H1463 H 0.49147 0.40289 0.69692 0.0
H1464 H 0.50009 0.40197 0.63185 0.0
H1465 H 0.47576 0.41803 0.54027 0.0
H1466 H 0.49509 0.40533 0.35468 0.0
H1467 H 0.48644 0.40442 0.4195 0.0
C1468 C 0.84858 0.27366 0.65655 0.0
C1469 C 0.85041 0.26573 0.62448 0.0
C1470 C 0.84899 0.26887 0.69449 0.0
C1471 C 0.84369 0.2395 0.74626 0.0
H1472 H 0.86175 0.25459 0.83177 0.0
C1473 C 0.84817 0.21472 0.89441 0.0
C1474 C 0.84726 0.22221 0.92772 0.0
C1475 C 0.84915 0.22021 0.85761 0.0
C1476 C 0.85653 0.25033 0.80831 0.0
H1477 H 0.85489 0.2467 0.6075 0.0
H1478 H 0.85553 0.23851 0.673 0.0
H1479 H 0.86225 0.26444 0.76769 0.0
H1480 H 0.84677 0.24131 0.94868 0.0
H1481 H 0.84812 0.25081 0.88486 0.0
H1482 H 0.83775 0.22554 0.78657 0.0
C1483 C 0.85356 0.24834 0.66891 0.0
C1484 C 0.85684 0.25598 0.77166 0.0
C1485 C 0.85322 0.25309 0.63131 0.0
C1486 C 0.84745 0.23526 0.92358 0.0
C1487 C 0.84834 0.24073 0.88692 0.0
C1488 C 0.84329 0.23392 0.78287 0.0
C1489 C 0.85117 0.25608 0.70083 0.0
C1490 C 0.8505 0.25055 0.74024 0.0
C1491 C 0.84917 0.2333 0.85343 0.0
C1492 C 0.84975 0.23921 0.81434 0.0
H1493 H 0.84643 0.28344 0.65233 0.0
H1494 H 0.84714 0.27504 0.71872 0.0
H1495 H 0.83856 0.23521 0.72263 0.0
H1496 H 0.8481 0.20464 0.89676 0.0
H1497 H 0.84996 0.2142 0.83247 0.0
C1498 C 0.01785 0.59881 0.17255 0.0
C1499 C 0.03082 0.59905 0.17832 0.0
C1500 C 0.01282 0.60014 0.13545 0.0
C1501 C 0.02102 0.59687 0.03195 0.0
H1502 H 0.98947 0.61388 0.01639 0.0
C1503 C 0.00081 0.60419 0.88003 0.0
C1504 C 0.98837 0.60034 0.87449 0.0
C1505 C 0.00572 0.60549 0.91724 0.0
C1506 C 0.99825 0.60905 0.02042 0.0
H1507 H 0.04873 0.60117 0.1499 0.0
H1508 H 0.03993 0.6038 0.08478 0.0
H1509 H 0.99909 0.61375 0.08076 0.0
H1510 H 0.97113 0.59555 0.90402 0.0
H1511 H 0.97981 0.59787 0.96958 0.0
H1512 H 0.02021 0.59227 0.97156 0.0
C1513 C 0.03364 0.60231 0.10898 0.0
C1514 C 0.00377 0.60895 0.05724 0.0
C1515 C 0.0387 0.60087 0.14624 0.0
C1516 C 0.98075 0.59848 0.90726 0.0
C1517 C 0.98571 0.59983 0.94474 0.0
C1518 C 0.01557 0.59708 -0.00485 0.0
C1519 C 0.02064 0.60188 0.10315 0.0
C1520 C 0.01517 0.60275 0.06353 0.0
C1521 C 0.99834 0.60302 0.94995 0.0
C1522 C 0.0041 0.6031 0.98906 0.0
H1523 H 0.01151 0.59742 0.19667 0.0
H1524 H 0.0028 0.59951 0.13208 0.0
H1525 H 0.02967 0.59181 0.0358 0.0
H1526 H 0.00692 0.60593 0.85554 0.0
H1527 H 0.01541 0.60821 0.92042 0.0
C1528 C 0.65793 0.27251 0.32324 0.0
C1529 C 0.6552 0.2652 0.35608 0.0
C1530 C 0.65661 0.26747 0.28588 0.0
C1531 C 0.65832 0.23732 0.23773 0.0
H1532 H 0.64268 0.25359 0.14985 0.0
C1533 C 0.65327 0.21294 0.08852 0.0
C1534 C 0.65477 0.22049 0.05554 0.0
C1535 C 0.65267 0.21835 0.12551 0.0
C1536 C 0.64723 0.24898 0.17398 0.0
H1537 H 0.64795 0.24725 0.37533 0.0
H1538 H 0.64577 0.23859 0.31063 0.0
H1539 H 0.6426 0.26381 0.21326 0.0
H1540 H 0.65716 0.23955 0.03542 0.0
H1541 H 0.65667 0.24883 0.09937 0.0
H1542 H 0.6633 0.22267 0.19865 0.0
C1543 C 0.64915 0.24807 0.31369 0.0
C1544 C 0.64714 0.25484 0.21024 0.0
C1545 C 0.6504 0.25308 0.35074 0.0
C1546 C 0.65593 0.23346 0.06021 0.0
C1547 C 0.6555 0.23882 0.09698 0.0
C1548 C 0.65856 0.23153 0.20144 0.0
C1549 C 0.65258 0.25506 0.28101 0.0
C1550 C 0.65266 0.24904 0.2424 0.0
C1551 C 0.65371 0.23139 0.13009 0.0
C1552 C 0.65305 0.23731 0.16907 0.0
H1553 H 0.66159 0.28188 0.32642 0.0
H1554 H 0.65928 0.27305 0.26097 0.0
H1555 H 0.66277 0.23272 0.26208 0.0
H1556 H 0.65228 0.20292 0.08567 0.0
H1557 H 0.65117 0.21235 0.15039 0.0
C1558 C 0.98152 0.40742 0.57537 0.0
C1559 C 0.98904 0.41114 0.60677 0.0
C1560 C 0.98662 0.40644 0.53799 0.0
C1561 C 0.01707 0.40258 0.48877 0.0
H1562 H 0.99928 0.4137 0.39711 0.0
C1563 C 0.04011 0.40651 0.33662 0.0
C1564 C 0.03274 0.40281 0.30491 0.0
C1565 C 0.03488 0.40717 0.3739 0.0
C1566 C 0.00432 0.41043 0.42242 0.0
H1567 H 0.00763 0.41738 0.62308 0.0
H1568 H 0.01634 0.41584 0.5584 0.0
H1569 H 0.9895 0.41567 0.46079 0.0
H1570 H 0.01437 0.39637 0.28743 0.0
H1571 H 0.0054 0.39733 0.35209 0.0
H1572 H 0.0319 0.39739 0.45041 0.0
C1573 C 0.00664 0.41333 0.56263 0.0
C1574 C 0.9987 0.41154 0.45886 0.0
C1575 C 0.0016 0.41426 0.59975 0.0
C1576 C 0.02025 0.39939 0.31126 0.0
C1577 C 0.01507 0.40002 0.34828 0.0
C1578 C 0.02269 0.40148 0.45234 0.0
C1579 C 0.9993 0.4092 0.53143 0.0
C1580 C 0.00503 0.40768 0.49246 0.0
C1581 C 0.02224 0.40412 0.37992 0.0
C1582 C 0.01638 0.40539 0.41877 0.0
H1583 H 0.97182 0.40495 0.57984 0.0
H1584 H 0.98073 0.4032 0.51447 0.0
H1585 H 0.02211 0.39932 0.51407 0.0
H1586 H 0.04975 0.40924 0.33248 0.0
H1587 H 0.04063 0.41041 0.39775 0.0
C1588 C 0.8429 0.75052 0.84919 0.0
C1589 C 0.84353 0.73752 0.85506 0.0
C1590 C 0.8433 0.75554 0.81197 0.0
C1591 C 0.85334 0.74945 0.71244 0.0
H1592 H 0.82982 0.77571 0.68709 0.0
C1593 C 0.84687 0.76779 0.5569 0.0
C1594 C 0.8448 0.78062 0.55138 0.0
C1595 C 0.84718 0.76272 0.59411 0.0
C1596 C 0.83657 0.76853 0.69389 0.0
H1597 H 0.84525 0.71965 0.82601 0.0
H1598 H 0.84596 0.72854 0.76034 0.0
H1599 H 0.82917 0.76597 0.75105 0.0
H1600 H 0.84166 0.79825 0.58049 0.0
H1601 H 0.84237 0.78937 0.6461 0.0
H1602 H 0.86081 0.75207 0.65538 0.0
C1603 C 0.84518 0.73476 0.78502 0.0
C1604 C 0.83616 0.7629 0.73043 0.0
C1605 C 0.84473 0.72968 0.82254 0.0
C1606 C 0.84324 0.78833 0.58394 0.0
C1607 C 0.84358 0.78323 0.6214 0.0
C1608 C 0.85379 0.75512 0.67591 0.0
C1609 C 0.84435 0.74775 0.77947 0.0
C1610 C 0.84454 0.75332 0.74009 0.0
C1611 C 0.84549 0.77034 0.62682 0.0
C1612 C 0.84539 0.76471 0.6662 0.0
H1613 H 0.84203 0.75691 0.8734 0.0
H1614 H 0.84286 0.76558 0.80866 0.0
H1615 H 0.86003 0.74222 0.71933 0.0
H1616 H 0.84812 0.76158 0.53239 0.0
H1617 H 0.84847 0.75275 0.59716 0.0
C1618 C 0.52447 0.59118 0.07318 0.0
C1619 C 0.51765 0.58552 0.10332 0.0
C1620 C 0.51925 0.59225 0.03597 0.0
C1621 C 0.48846 0.5931 0.98824 0.0
H1622 H 0.50726 0.58826 0.89335 0.0
C1623 C 0.4656 0.59285 0.83532 0.0
C1624 C 0.47247 0.59847 0.80532 0.0
C1625 C 0.47095 0.59134 0.87218 0.0
C1626 C 0.50191 0.58979 0.91961 0.0
H1627 H 0.50045 0.57577 0.1174 0.0
H1628 H 0.49154 0.57747 0.05284 0.0
H1629 H 0.51745 0.58513 0.95597 0.0
H1630 H 0.48998 0.60749 0.7906 0.0
H1631 H 0.49912 0.60516 0.85473 0.0
H1632 H 0.47294 0.59783 0.95197 0.0
C1633 C 0.50071 0.58142 0.05805 0.0
C1634 C 0.50776 0.58798 0.95544 0.0
C1635 C 0.50586 0.5804 0.09503 0.0
C1636 C 0.48452 0.60299 0.81311 0.0
C1637 C 0.4898 0.60157 0.84978 0.0
C1638 C 0.48262 0.59493 0.95243 0.0
C1639 C 0.50718 0.58763 0.02836 0.0
C1640 C 0.50109 0.5896 -0.00986 0.0
C1641 C 0.48321 0.59549 0.87953 0.0
C1642 C 0.48929 0.59333 0.9177 0.0
H1643 H 0.53357 0.59521 0.07871 0.0
H1644 H 0.52447 0.59709 0.01361 0.0
H1645 H 0.48311 0.59462 0.01452 0.0
H1646 H 0.45632 0.58923 0.82996 0.0
H1647 H 0.46565 0.58657 0.89449 0.0
C1648 C 0.34646 0.23492 0.55563 0.0
C1649 C 0.34562 0.22196 0.54998 0.0
C1650 C 0.34734 0.23991 0.59288 0.0
C1651 C 0.34071 0.23263 0.69533 0.0
H1652 H 0.36149 0.26169 0.71461 0.0
C1653 C 0.34874 0.25159 0.84887 0.0
C1654 C 0.34745 0.26453 0.85457 0.0
C1655 C 0.34919 0.24656 0.81162 0.0
C1656 C 0.35556 0.25365 0.70952 0.0
H1657 H 0.34523 0.20401 0.57897 0.0
H1658 H 0.34697 0.21275 0.64456 0.0
H1659 H 0.36142 0.25205 0.65032 0.0
H1660 H 0.34605 0.28238 0.82514 0.0
H1661 H 0.34689 0.27351 0.7595 0.0
H1662 H 0.33493 0.23419 0.75461 0.0
C1663 C 0.34676 0.21906 0.61998 0.0
C1664 C 0.35552 0.24811 0.67275 0.0
C1665 C 0.34583 0.21404 0.58248 0.0
C1666 C 0.34702 0.27238 0.82183 0.0
C1667 C 0.34753 0.26731 0.78429 0.0
C1668 C 0.34081 0.23812 0.73211 0.0
C1669 C 0.34748 0.23207 0.62556 0.0
C1670 C 0.34804 0.23757 0.66517 0.0
C1671 C 0.34841 0.25432 0.77893 0.0
C1672 C 0.34822 0.2487 0.73957 0.0
H1673 H 0.34632 0.2413 0.5312 0.0
H1674 H 0.34766 0.24996 0.59605 0.0
H1675 H 0.33467 0.22467 0.69034 0.0
H1676 H 0.34923 0.2452 0.87323 0.0
H1677 H 0.35011 0.23655 0.80842 0.0
C1678 C 0.48162 0.59704 0.57375 0.0
C1679 C 0.48949 0.59741 0.60644 0.0
C1680 C 0.48667 0.59763 0.53619 0.0
C1681 C 0.51579 0.59099 0.48387 0.0
H1682 H 0.50201 0.61177 0.40237 0.0
C1683 C 0.54006 0.5962 0.33478 0.0
C1684 C 0.53221 0.59613 0.30214 0.0
C1685 C 0.53498 0.59709 0.37219 0.0
C1686 C 0.5059 0.60582 0.42472 0.0
H1687 H 0.50882 0.59923 0.62505 0.0
H1688 H 0.51744 0.60025 0.56018 0.0
H1689 H 0.49234 0.61172 0.46663 0.0
H1690 H 0.51293 0.59706 0.28298 0.0
H1691 H 0.50415 0.59829 0.34769 0.0
H1692 H 0.5292 0.58489 0.44208 0.0
C1693 C 0.50743 0.59929 0.56344 0.0
C1694 C 0.50035 0.6058 0.46147 0.0
C1695 C 0.50243 0.59876 0.6007 0.0
C1696 C 0.51925 0.59709 0.30753 0.0
C1697 C 0.5142 0.59791 0.34471 0.0
C1698 C 0.52129 0.59094 0.44713 0.0
C1699 C 0.49966 0.59854 0.53078 0.0
C1700 C 0.50526 0.5984 0.49142 0.0
C1701 C 0.52197 0.59789 0.37754 0.0
C1702 C 0.51641 0.59834 0.41707 0.0
H1703 H 0.47162 0.59604 0.5771 0.0
H1704 H 0.48046 0.59702 0.51142 0.0
H1705 H 0.51967 0.58506 0.5063 0.0
H1706 H 0.55008 0.59551 0.33146 0.0
H1707 H 0.54125 0.59719 0.39688 0.0
C1708 C 0.17288 0.7455 0.34289 0.0
C1709 C 0.16704 0.73407 0.35158 0.0
C1710 C 0.17256 0.75035 0.30541 0.0
C1711 C 0.16681 0.7432 0.20265 0.0
H1712 H 0.15693 0.77799 0.19794 0.0
C1713 C 0.15231 0.76655 0.05929 0.0
C1714 C 0.15601 0.77895 0.05259 0.0
C1715 C 0.15415 0.76101 0.09546 0.0
C1716 C 0.15989 0.76834 0.19867 0.0
H1717 H 0.15691 0.7184 0.32711 0.0
H1718 H 0.15631 0.72699 0.26102 0.0
H1719 H 0.15965 0.76793 0.26076 0.0
H1720 H 0.16449 0.79532 0.07845 0.0
H1721 H 0.16793 0.78556 0.14187 0.0
H1722 H 0.16713 0.74362 0.14052 0.0
C1723 C 0.16114 0.73214 0.28355 0.0
C1724 C 0.16141 0.76256 0.23469 0.0
C1725 C 0.16147 0.72724 0.32131 0.0
C1726 C 0.16148 0.78578 0.08294 0.0
C1727 C 0.16342 0.78018 0.11922 0.0
C1728 C 0.16537 0.74901 0.16655 0.0
C1729 C 0.16638 0.74393 0.27559 0.0
C1730 C 0.16487 0.74993 0.23707 0.0
C1731 C 0.15982 0.7677 0.12579 0.0
C1732 C 0.16182 0.76164 0.16415 0.0
H1733 H 0.17749 0.7509 0.36534 0.0
H1734 H 0.17696 0.7593 0.29993 0.0
H1735 H 0.16961 0.7335 0.20365 0.0
H1736 H 0.14797 0.76108 0.0365 0.0
H1737 H 0.151 0.7515 0.09969 0.0
C1738 C 0.98455 0.39861 0.81049 0.0
C1739 C 0.97229 0.4028 0.80456 0.0
C1740 C 0.98974 0.39851 0.84756 0.0
C1741 C 0.98233 0.3996 0.95191 0.0
H1742 H 0.01607 0.41254 0.96072 0.0
C1743 C 0.00377 0.41216 0.09917 0.0
C1744 C 0.01626 0.40888 0.1064 0.0
C1745 C 0.99869 0.41102 0.06214 0.0
C1746 C 0.00672 0.40874 0.95869 0.0
H1747 H 0.95566 0.40977 0.83287 0.0
H1748 H 0.96482 0.40971 0.89819 0.0
H1749 H 0.00623 0.41107 0.89701 0.0
H1750 H 0.0333 0.40209 0.07995 0.0
H1751 H 0.02432 0.4 0.01475 0.0
H1752 H 0.98279 0.39732 0.01362 0.0
C1753 C 0.97037 0.40642 0.874 0.0
C1754 C 0.00106 0.40791 0.92222 0.0
C1755 C 0.96513 0.40648 0.83669 0.0
C1756 C 0.02366 0.4047 0.07532 0.0
C1757 C 0.01852 0.40352 0.03804 0.0
C1758 C 0.98799 0.40041 0.98838 0.0
C1759 C 0.98282 0.40265 0.87963 0.0
C1760 C 0.98879 0.40338 0.91845 0.0
C1761 C 0.00592 0.40654 0.03124 0.0
C1762 C 1.00021 0.40508 -0.00779 0.0
H1763 H 0.99026 0.39557 0.78631 0.0
H1764 H 0.99925 0.39528 0.85105 0.0
H1765 H 0.97294 0.3959 0.94988 0.0
H1766 H 0.99782 0.41561 0.12222 0.0
H1767 H 0.98906 0.41373 0.05771 0.0
C1768 C 0.34544 0.78909 0.89514 0.0
C1769 C 0.34633 0.78128 0.92774 0.0
C1770 C 0.34605 0.78405 0.85766 0.0
C1771 C 0.3554 0.75557 0.80325 0.0
H1772 H 0.33179 0.76777 0.72695 0.0
C1773 C 0.34512 0.7306 0.65643 0.0
C1774 C 0.34416 0.73845 0.62379 0.0
C1775 C 0.34607 0.73571 0.69382 0.0
C1776 C 0.33851 0.76433 0.74786 0.0
H1777 H 0.34884 0.76212 0.94677 0.0
H1778 H 0.34965 0.75338 0.88185 0.0
H1779 H 0.33257 0.77736 0.79101 0.0
H1780 H 0.34383 0.75785 0.60508 0.0
H1781 H 0.3455 0.76657 0.66964 0.0
H1782 H 0.36119 0.7424 0.76 0.0
C1783 C 0.34867 0.76339 0.88494 0.0
C1784 C 0.33901 0.76987 0.7845 0.0
C1785 C 0.3481 0.76841 0.92222 0.0
C1786 C 0.34442 0.75146 0.6294 0.0
C1787 C 0.34532 0.75651 0.66651 0.0
C1788 C 0.35486 0.74998 0.76659 0.0
C1789 C 0.34755 0.77112 0.85218 0.0
C1790 C 0.34745 0.76556 0.81266 0.0
C1791 C 0.34601 0.74873 0.69916 0.0
C1792 C 0.34643 0.75433 0.73851 0.0
H1793 H 0.34412 0.79905 0.89856 0.0
H1794 H 0.34532 0.79028 0.83298 0.0
H1795 H 0.36212 0.75212 0.82414 0.0
H1796 H 0.34498 0.72055 0.65317 0.0
H1797 H 0.34655 0.72948 0.71859 0.0
C1798 C 0.96568 0.58882 0.64568 0.0
C1799 C 0.97258 0.59465 0.67523 0.0
C1800 C 0.971 0.58697 0.60896 0.0
C1801 C 0.00182 0.58544 0.56015 0.0
H1802 H 0.98264 0.591 0.46632 0.0
C1803 C 0.02383 0.58973 0.40652 0.0
C1804 C 0.01709 0.58445 0.37557 0.0
C1805 C 0.01872 0.58993 0.444 0.0
C1806 C 0.98809 0.58926 0.49227 0.0
H1807 H 0.99023 0.60351 0.68931 0.0
H1808 H 0.99934 0.60056 0.62546 0.0
H1809 H 0.97266 0.59348 0.52941 0.0
H1810 H 1.00014 0.57444 0.36023 0.0
H1811 H 0.99141 0.57467 0.42523 0.0
H1812 H 0.0173 0.58139 0.52288 0.0
C1813 C 0.98999 0.59709 0.63067 0.0
C1814 C 0.98236 0.59067 0.52841 0.0
C1815 C 0.98472 0.59887 0.6672 0.0
C1816 C 0.00549 0.57881 0.38324 0.0
C1817 C 0.00044 0.57897 0.4205 0.0
C1818 C 0.00757 0.58407 0.52398 0.0
C1819 C 0.98329 0.59097 0.60125 0.0
C1820 C 0.98918 0.58887 0.56277 0.0
C1821 C 0.00683 0.5848 0.45109 0.0
C1822 C 0.00077 0.58601 0.48965 0.0
H1823 H 0.95632 0.58542 0.6512 0.0
H1824 H 0.96562 0.58216 0.58692 0.0
H1825 H 0.00729 0.58378 0.58611 0.0
H1826 H 0.0328 0.59414 0.40152 0.0
H1827 H 0.02386 0.59451 0.46704 0.0
C1828 C 0.15428 0.27218 0.15618 0.0
C1829 C 0.15656 0.26397 0.12515 0.0
C1830 C 0.15207 0.26751 0.19361 0.0
C1831 C 0.14328 0.23838 0.24574 0.0
H1832 H 0.15998 0.25389 0.33319 0.0
C1833 C 0.15037 0.2141 0.39479 0.0
C1834 C 0.14902 0.22162 0.4279 0.0
C1835 C 0.14985 0.21945 0.35767 0.0
C1836 C 0.15513 0.24954 0.30912 0.0
H1837 H 0.15838 0.24439 0.10943 0.0
H1838 H 0.15479 0.23643 0.17406 0.0
H1839 H 0.16156 0.26339 0.26907 0.0
H1840 H 0.14543 0.24046 0.44825 0.0
H1841 H 0.14444 0.24967 0.3839 0.0
H1842 H 0.13711 0.22436 0.28579 0.0
C1843 C 0.1544 0.24642 0.16957 0.0
C1844 C 0.156 0.25501 0.27242 0.0
C1845 C 0.15657 0.25104 0.13242 0.0
C1846 C 0.14668 0.23443 0.42327 0.0
C1847 C 0.14616 0.23974 0.38641 0.0
C1848 C 0.14246 0.23287 0.28243 0.0
C1849 C 0.1521 0.25456 0.20062 0.0
C1850 C 0.15022 0.24941 0.24022 0.0
C1851 C 0.14798 0.23238 0.35324 0.0
C1852 C 0.14847 0.23834 0.31443 0.0
H1853 H 0.15416 0.28218 0.15157 0.0
H1854 H 0.15025 0.27403 0.21699 0.0
H1855 H 0.13855 0.23394 0.22159 0.0
H1856 H 0.15218 0.2042 0.39757 0.0
H1857 H 0.15135 0.21356 0.33254 0.0
C1858 C 0.53918 0.40684 0.14515 0.0
C1859 C 0.53229 0.40125 0.17517 0.0
C1860 C 0.53386 0.40831 0.10822 0.0
C1861 C 0.50291 0.41002 0.06079 0.0
H1862 H 0.5217 0.40535 0.96577 0.0
C1863 C 0.48029 0.40942 0.90723 0.0
C1864 C 0.48715 0.41506 0.87718 0.0
C1865 C 0.48552 0.40816 0.94437 0.0
C1866 C 0.51636 0.40683 -0.00793 0.0
H1867 H 0.51477 0.39224 0.18978 0.0
H1868 H 0.50568 0.39452 0.12553 0.0
H1869 H 0.53184 0.40192 0.02825 0.0
H1870 H 0.5045 0.42457 0.86323 0.0
H1871 H 0.51343 0.42255 0.92766 0.0
H1872 H 0.48741 0.41489 0.02456 0.0
C1873 C 0.515 0.3981 0.13052 0.0
C1874 C 0.52218 0.40486 0.02786 0.0
C1875 C 0.52026 0.3967 0.16726 0.0
C1876 C 0.49904 0.41996 0.88551 0.0
C1877 C 0.50421 0.41875 0.92243 0.0
C1878 C 0.49708 0.41197 0.02499 0.0
C1879 C 0.52161 0.40417 0.10079 0.0
C1880 C 0.51552 0.40641 0.06263 0.0
C1881 C 0.49766 0.41257 0.95204 0.0
C1882 C 0.50374 0.41042 -0.00977 0.0
H1883 H 0.54844 0.4105 0.15058 0.0
H1884 H 0.53918 0.41308 0.08593 0.0
H1885 H 0.49757 0.41151 0.08709 0.0
H1886 H 0.47112 0.40555 0.9017 0.0
H1887 H 0.48025 0.40333 0.96664 0.0
C1888 C 0.14498 0.3274 0.07728 0.0
C1889 C 0.14026 0.3155 0.06812 0.0
C1890 C 0.13684 0.33713 0.08731 0.0
C1891 C 0.10355 0.34613 0.07689 0.0
H1892 H 0.11054 0.36976 0.15939 0.0
C1893 C 0.06527 0.37524 0.14967 0.0
C1894 C 0.06764 0.3879 0.15728 0.0
C1895 C 0.07475 0.36747 0.13603 0.0
C1896 C 0.10855 0.36333 0.13592 0.0
H1897 H 0.12341 0.30433 0.06412 0.0
H1898 H 0.10938 0.32105 0.08238 0.0
H1899 H 0.12614 0.35403 0.14226 0.0
H1900 H 0.08179 0.40238 0.15633 0.0
H1901 H 0.09848 0.38867 0.13284 0.0
H1902 H 0.08586 0.35517 0.07126 0.0
C1903 C 0.11927 0.32306 0.08071 0.0
C1904 C 0.11748 0.35432 0.12609 0.0
C1905 C 0.12735 0.31342 0.07053 0.0
C1906 C 0.07968 0.39266 0.15058 0.0
C1907 C 0.08924 0.38482 0.1374 0.0
C1908 C 0.09463 0.35504 0.08687 0.0
C1909 C 0.12385 0.33511 0.08844 0.0
C1910 C 0.11496 0.34543 0.09701 0.0
C1911 C 0.08686 0.37213 0.13006 0.0
C1912 C 0.09692 0.36358 0.11699 0.0
H1913 H 0.1549 0.32928 0.07561 0.0
H1914 H 0.14069 0.3463 0.09304 0.0
H1915 H 0.10142 0.33968 0.05358 0.0
H1916 H 0.0561 0.37128 0.15455 0.0
H1917 H 0.07265 0.35771 0.13103 0.0
C1918 C 0.85515 0.82863 0.40124 0.0
C1919 C 0.85966 0.81648 0.40752 0.0
C1920 C 0.86337 0.83833 0.39124 0.0
C1921 C 0.89702 0.84635 0.39767 0.0
H1922 H 0.88957 0.87165 0.32058 0.0
C1923 C 0.93521 0.87542 0.32434 0.0
C1924 C 0.93334 0.8883 0.31952 0.0
C1925 C 0.92559 0.86777 0.3378 0.0
C1926 C 0.8917 0.86474 0.34257 0.0
H1927 H 0.87619 0.80486 0.40624 0.0
H1928 H 0.89036 0.82155 0.38807 0.0
H1929 H 0.87372 0.85602 0.33737 0.0
H1930 H 0.91989 0.90327 0.32507 0.0
H1931 H 0.9029 0.88975 0.34826 0.0
H1932 H 0.91506 0.8548 0.40217 0.0
C1933 C 0.88058 0.82375 0.39196 0.0
C1934 C 0.88263 0.85579 0.35219 0.0
C1935 C 0.87242 0.81414 0.40209 0.0
C1936 C 0.92161 0.89338 0.32867 0.0
C1937 C 0.91188 0.88565 0.34168 0.0
C1938 C 0.90605 0.8552 0.38793 0.0
C1939 C 0.87625 0.83604 0.38729 0.0
C1940 C 0.8853 0.8463 0.3792 0.0
C1941 C 0.91379 0.87275 0.34641 0.0
C1942 C 0.90361 0.86433 0.35968 0.0
H1943 H 0.84535 0.83072 0.40529 0.0
H1944 H 0.85972 0.84768 0.38787 0.0
H1945 H 0.89929 0.83942 0.41945 0.0
H1946 H 0.94412 0.87121 0.31754 0.0
H1947 H 0.92731 0.85785 0.34071 0.0
C1948 C 0.37665 0.68963 0.57824 0.0
C1949 C 0.36394 0.6871 0.57214 0.0
C1950 C 0.38465 0.68031 0.59164 0.0
C1951 C 0.38919 0.6466 0.59344 0.0
H1952 H 0.41324 0.6544 0.67406 0.0
C1953 C 0.42566 0.6108 0.65215 0.0
C1954 C 0.43755 0.61562 0.66076 0.0
C1955 C 0.41586 0.61883 0.64202 0.0
C1956 C 0.40668 0.65209 0.6512 0.0
H1957 H 0.34962 0.67281 0.57541 0.0
H1958 H 0.36373 0.6564 0.59843 0.0
H1959 H 0.39749 0.66972 0.65646 0.0
H1960 H 0.44865 0.63254 0.66366 0.0
H1961 H 0.43179 0.6464 0.64512 0.0
H1962 H 0.39864 0.62909 0.58743 0.0
C1963 C 0.36744 0.66564 0.59291 0.0
C1964 C 0.39762 0.66086 0.64129 0.0
C1965 C 0.35937 0.67504 0.57999 0.0
C1966 C 0.43956 0.62853 0.65764 0.0
C1967 C 0.42985 0.63651 0.64732 0.0
C1968 C 0.39836 0.63783 0.60317 0.0
C1969 C 0.38017 0.6682 0.59884 0.0
C1970 C 0.38893 0.65832 0.61182 0.0
C1971 C 0.4178 0.63182 0.64019 0.0
C1972 C 0.40739 0.64059 0.63162 0.0
H1973 H 0.38045 0.69881 0.57245 0.0
H1974 H 0.39443 0.68252 0.59557 0.0
H1975 H 0.38262 0.64442 0.57048 0.0
H1976 H 0.42383 0.60088 0.6544 0.0
H1977 H 0.4067 0.6149 0.6368 0.0
C1978 C 0.62217 0.1857 0.91999 0.0
C1979 C 0.63511 0.1837 0.91915 0.0
C1980 C 0.61388 0.17613 0.91029 0.0
C1981 C 0.61153 0.14574 0.85958 0.0
H1982 H 0.58073 0.1433 0.91831 0.0
C1983 C 0.57455 0.10691 0.83288 0.0
C1984 C 0.56228 0.11131 0.8286 0.0
C1985 C 0.58399 0.11482 0.84665 0.0
C1986 C 0.58927 0.14388 0.90159 0.0
H1987 H 0.64953 0.1701 0.90696 0.0
H1988 H 0.63501 0.15326 0.89042 0.0
H1989 H 0.59632 0.15881 0.93648 0.0
H1990 H 0.5502 0.12731 0.83642 0.0
H1991 H 0.56658 0.14102 0.86088 0.0
H1992 H 0.60438 0.13076 0.8247 0.0
C1993 C 0.63128 0.1623 0.8982 0.0
C1994 C 0.59819 0.15281 0.91186 0.0
C1995 C 0.6396 0.17194 0.90778 0.0
C1996 C 0.55956 0.12364 0.83939 0.0
C1997 C 0.56893 0.13148 0.85357 0.0
C1998 C 0.60261 0.13674 0.84946 0.0
C1999 C 0.61831 0.16425 0.89974 0.0
C2000 C 0.60932 0.15404 0.89049 0.0
C2001 C 0.58128 0.12722 0.85692 0.0
C2002 C 0.59128 0.13589 0.8699 0.0
H2003 H 0.6184 0.19467 0.92835 0.0
H2004 H 0.60398 0.17807 0.91091 0.0
H2005 H 0.61994 0.14647 0.84232 0.0
H2006 H 0.57694 0.09745 0.82469 0.0
H2007 H 0.5934 0.11126 0.84918 0.0
C2008 C 0.07827 0.6082 0.33053 0.0
C2009 C 0.06603 0.61238 0.32377 0.0
C2010 C 0.08768 0.61666 0.3411 0.0
C2011 C 0.09513 0.65033 0.33456 0.0
H2012 H 0.12046 0.64307 0.41172 0.0
C2013 C 0.12633 0.6886 0.40036 0.0
C2014 C 0.13895 0.68591 0.40742 0.0
C2015 C 0.11813 0.67923 0.38823 0.0
C2016 C 0.11355 0.64517 0.38971 0.0
H2017 H 0.05395 0.62858 0.32462 0.0
H2018 H 0.0702 0.64321 0.34362 0.0
H2019 H 0.10469 0.62732 0.3961 0.0
H2020 H 0.15291 0.6713 0.40673 0.0
H2021 H 0.13853 0.65489 0.38537 0.0
H2022 H 0.10387 0.66819 0.32837 0.0
C2023 C 0.07265 0.63348 0.33987 0.0
C2024 C 0.1045 0.63615 0.3808 0.0
C2025 C 0.0633 0.62507 0.32927 0.0
C2026 C 0.14324 0.67367 0.40146 0.0
C2027 C 0.13499 0.66425 0.38951 0.0
C2028 C 0.10414 0.65933 0.34348 0.0
C2029 C 0.08502 0.62946 0.3451 0.0
C2030 C 0.09506 0.63871 0.35354 0.0
C2031 C 0.12232 0.66692 0.38298 0.0
C2032 C 0.11335 0.65694 0.37156 0.0
H2033 H 0.08068 0.59848 0.32644 0.0
H2034 H 0.0971 0.61325 0.3448 0.0
H2035 H 0.08821 0.65251 0.31268 0.0
H2036 H 0.12272 0.69792 0.40478 0.0
H2037 H 0.1084 0.68159 0.38394 0.0
C2038 C 0.63954 0.82686 0.57669 0.0
C2039 C 0.63475 0.815 0.56739 0.0
C2040 C 0.63146 0.83665 0.58648 0.0
C2041 C 0.59835 0.84603 0.5749 0.0
H2042 H 0.6053 0.86946 0.65798 0.0
C2043 C 0.5602 0.87565 0.64642 0.0
C2044 C 0.56278 0.88823 0.65462 0.0
C2045 C 0.56959 0.86776 0.63287 0.0
C2046 C 0.60333 0.86308 0.63434 0.0
H2047 H 0.61783 0.80397 0.5628 0.0
H2048 H 0.60387 0.82083 0.58061 0.0
H2049 H 0.62075 0.85353 0.64136 0.0
H2050 H 0.57722 0.90244 0.65476 0.0
H2051 H 0.59373 0.88853 0.63142 0.0
H2052 H 0.58083 0.85533 0.56855 0.0
C2053 C 0.61379 0.82274 0.5793 0.0
C2054 C 0.61217 0.85396 0.62481 0.0
C2055 C 0.62181 0.81303 0.56939 0.0
C2056 C 0.57494 0.89279 0.64856 0.0
C2057 C 0.5844 0.88483 0.63545 0.0
C2058 C 0.58952 0.85506 0.58456 0.0
C2059 C 0.61846 0.83475 0.5872 0.0
C2060 C 0.60966 0.84515 0.59552 0.0
C2061 C 0.58182 0.87221 0.6276 0.0
C2062 C 0.59179 0.86353 0.61488 0.0
H2063 H 0.64947 0.82866 0.57533 0.0
H2064 H 0.63537 0.84578 0.59234 0.0
H2065 H 0.59625 0.83963 0.55142 0.0
H2066 H 0.55094 0.87185 0.6508 0.0
H2067 H 0.56734 0.85806 0.62745 0.0
C2068 C 0.42467 0.39508 0.82897 0.0
C2069 C 0.43688 0.39071 0.82304 0.0
C2070 C 0.41504 0.38676 0.83872 0.0
C2071 C 0.4073 0.35312 0.83152 0.0
H2072 H 0.38158 0.36036 0.9074 0.0
C2073 C 0.37759 0.31474 0.90146 0.0
C2074 C 0.36475 0.31675 0.90653 0.0
C2075 C 0.38535 0.32434 0.8885 0.0
C2076 C 0.3886 0.35829 0.88572 0.0
H2077 H 0.44869 0.37432 0.82472 0.0
H2078 H 0.43209 0.35995 0.84245 0.0
H2079 H 0.39731 0.37623 0.89197 0.0
H2080 H 0.34995 0.33042 0.90171 0.0
H2081 H 0.36365 0.34735 0.87927 0.0
H2082 H 0.39882 0.33513 0.82585 0.0
C2083 C 0.42981 0.36971 0.83852 0.0
C2084 C 0.39762 0.36737 0.87691 0.0
C2085 C 0.43937 0.37798 0.82866 0.0
C2086 C 0.3598 0.32858 0.89793 0.0
C2087 C 0.36764 0.33828 0.88535 0.0
C2088 C 0.39836 0.34407 0.84042 0.0
C2089 C 0.41746 0.37392 0.84276 0.0
C2090 C 0.40724 0.36478 0.85032 0.0
C2091 C 0.38051 0.33625 0.88057 0.0
C2092 C 0.38907 0.34644 0.86819 0.0
H2093 H 0.42246 0.40485 0.82476 0.0
H2094 H 0.40564 0.39031 0.84174 0.0
H2095 H 0.41435 0.35092 0.81005 0.0
H2096 H 0.3817 0.30575 0.90784 0.0
H2097 H 0.39524 0.32251 0.88556 0.0
C2098 C 0.8563 0.17238 0.0738 0.0
C2099 C 0.86087 0.18455 0.06787 0.0
C2100 C 0.86447 0.16264 0.08335 0.0
C2101 C 0.89794 0.15432 0.07619 0.0
H2102 H 0.89023 0.12913 0.15353 0.0
C2103 C 0.93577 0.1245 0.14801 0.0
C2104 C 0.93348 0.11178 0.15481 0.0
C2105 C 0.92635 0.13227 0.13409 0.0
C2106 C 0.89244 0.13599 0.13143 0.0
H2107 H 0.87749 0.19612 0.06893 0.0
H2108 H 0.8916 0.17929 0.08617 0.0
H2109 H 0.87467 0.145 0.13726 0.0
H2110 H 0.91948 0.09718 0.15189 0.0
H2111 H 0.90286 0.11088 0.12769 0.0
H2112 H 0.91576 0.14553 0.0709 0.0
C2113 C 0.88179 0.17716 0.08254 0.0
C2114 C 0.88353 0.14509 0.12214 0.0
C2115 C 0.87367 0.18685 0.07296 0.0
C2116 C 0.92154 0.10694 0.1468 0.0
C2117 C 0.91202 0.11479 0.13322 0.0
C2118 C 0.90681 0.14528 0.08553 0.0
C2119 C 0.87736 0.16488 0.08712 0.0
C2120 C 0.8863 0.15454 0.09503 0.0
C2121 C 0.91433 0.12756 0.12686 0.0
C2122 C 0.90429 0.13618 0.11385 0.0
H2123 H 0.84648 0.17031 0.07 0.0
H2124 H 0.86075 0.15329 0.08659 0.0
H2125 H 0.90027 0.16123 0.05438 0.0
H2126 H 0.94486 0.12853 0.15388 0.0
H2127 H 0.92841 0.14208 0.12998 0.0
C2128 C 0.8769 0.68816 0.90154 0.0
C2129 C 0.86411 0.68588 0.90682 0.0
C2130 C 0.88493 0.67852 0.89094 0.0
C2131 C 0.88645 0.64656 0.85018 0.0
H2132 H 0.91892 0.64705 0.9 0.0
C2133 C 0.92492 0.60849 0.82751 0.0
C2134 C 0.93665 0.61351 0.81772 0.0
C2135 C 0.91527 0.61631 0.84026 0.0
C2136 C 0.90989 0.64678 0.88584 0.0
H2137 H 0.84962 0.67177 0.90385 0.0
H2138 H 0.86374 0.6548 0.88576 0.0
H2139 H 0.90343 0.66261 0.9176 0.0
H2140 H 0.94749 0.63058 0.81417 0.0
H2141 H 0.93083 0.64409 0.83695 0.0
H2142 H 0.89308 0.63063 0.81844 0.0
C2143 C 0.86753 0.66409 0.88952 0.0
C2144 C 0.90103 0.65574 0.89573 0.0
C2145 C 0.85944 0.67381 0.89992 0.0
C2146 C 0.93858 0.62642 0.82146 0.0
C2147 C 0.92905 0.63416 0.83469 0.0
C2148 C 0.89534 0.63749 0.84047 0.0
C2149 C 0.88042 0.6663 0.88571 0.0
C2150 C 0.88932 0.65597 0.8773 0.0
C2151 C 0.91728 0.62922 0.84411 0.0
C2152 C 0.90726 0.63773 0.85754 0.0
H2153 H 0.88077 0.69738 0.90618 0.0
H2154 H 0.89473 0.68065 0.88717 0.0
H2155 H 0.87753 0.64646 0.8354 0.0
H2156 H 0.92316 0.59857 0.82475 0.0
H2157 H 0.90629 0.61227 0.84745 0.0
C2158 C 0.14019 0.17453 0.58156 0.0
C2159 C 0.13591 0.18676 0.57526 0.0
C2160 C 0.13196 0.16518 0.59401 0.0
C2161 C 0.10132 0.16029 0.6409 0.0
H2162 H 0.10114 0.12868 0.58602 0.0
C2163 C 0.06001 0.12661 0.65428 0.0
C2164 C 0.06251 0.11381 0.6581 0.0
C2165 C 0.06948 0.13496 0.64419 0.0
C2166 C 0.10117 0.13739 0.60197 0.0
H2167 H 0.11973 0.19884 0.57814 0.0
H2168 H 0.10545 0.1826 0.60007 0.0
H2169 H 0.11708 0.1443 0.57084 0.0
H2170 H 0.07685 0.09966 0.65309 0.0
H2171 H 0.09348 0.11431 0.63575 0.0
H2172 H 0.08546 0.15348 0.67198 0.0
C2173 C 0.11515 0.18022 0.59549 0.0
C2174 C 0.11031 0.14633 0.59331 0.0
C2175 C 0.12333 0.18952 0.58275 0.0
C2176 C 0.07462 0.10948 0.65028 0.0
C2177 C 0.08415 0.11787 0.64029 0.0
C2178 C 0.09224 0.15136 0.64964 0.0
C2179 C 0.11932 0.16791 0.60081 0.0
C2180 C 0.11035 0.15796 0.61224 0.0
C2181 C 0.08173 0.13075 0.63788 0.0
C2182 C 0.0919 0.13989 0.62982 0.0
H2183 H 0.14983 0.17211 0.57596 0.0
H2184 H 0.13548 0.1558 0.59821 0.0
H2185 H 0.10125 0.16906 0.65651 0.0
H2186 H 0.05075 0.13024 0.65977 0.0
H2187 H 0.0672 0.14477 0.64162 0.0
C2188 C 0.56454 0.37366 0.33347 0.0
C2189 C 0.56669 0.38631 0.32517 0.0
C2190 C 0.5741 0.36617 0.34809 0.0
C2191 C 0.60788 0.36259 0.34911 0.0
H2192 H 0.60122 0.33968 0.43385 0.0
C2193 C 0.64499 0.32758 0.40822 0.0
C2194 C 0.6405 0.3157 0.41861 0.0
C2195 C 0.63665 0.33717 0.39854 0.0
C2196 C 0.60322 0.34592 0.40987 0.0
H2197 H 0.58054 0.40109 0.32589 0.0
H2198 H 0.5974 0.38786 0.35093 0.0
H2199 H 0.58538 0.35473 0.41472 0.0
H2200 H 0.62381 0.30446 0.42566 0.0
H2201 H 0.60941 0.32092 0.40791 0.0
H2202 H 0.62557 0.35347 0.34334 0.0
C2203 C 0.58826 0.3838 0.34624 0.0
C2204 C 0.59415 0.35458 0.39909 0.0
C2205 C 0.5786 0.39137 0.33215 0.0
C2206 C 0.62758 0.31353 0.41819 0.0
C2207 C 0.6193 0.32304 0.40832 0.0
C2208 C 0.61695 0.3538 0.35967 0.0
C2209 C 0.58609 0.37112 0.35428 0.0
C2210 C 0.59628 0.36285 0.36814 0.0
C2211 C 0.62368 0.33505 0.39892 0.0
C2212 C 0.61461 0.34517 0.38967 0.0
H2213 H 0.55547 0.36949 0.32843 0.0
H2214 H 0.57219 0.35641 0.35366 0.0
H2215 H 0.60974 0.36882 0.325 0.0
H2216 H 0.65491 0.32954 0.40837 0.0
H2217 H 0.64036 0.34631 0.39161 0.0
C2218 C 0.35384 0.82928 0.07938 0.0
C2219 C 0.35845 0.81709 0.07475 0.0
C2220 C 0.36173 0.83892 0.09212 0.0
C2221 C 0.39152 0.8445 0.14355 0.0
H2222 H 0.39305 0.87551 0.08551 0.0
C2223 C 0.43399 0.87644 0.15522 0.0
C2224 C 0.43215 0.88938 0.1584 0.0
C2225 C 0.42412 0.86853 0.14552 0.0
C2226 C 0.39262 0.86698 0.10235 0.0
H2227 H 0.37483 0.80541 0.08075 0.0
H2228 H 0.38845 0.82208 0.10323 0.0
H2229 H 0.377 0.85998 0.06984 0.0
H2230 H 0.41858 0.90421 0.15241 0.0
H2231 H 0.4012 0.89028 0.13547 0.0
H2232 H 0.40715 0.85132 0.17577 0.0
C2233 C 0.37878 0.82424 0.09712 0.0
C2234 C 0.38342 0.85809 0.09341 0.0
C2235 C 0.37098 0.81469 0.08405 0.0
C2236 C 0.42028 0.89428 0.15015 0.0
C2237 C 0.41034 0.88631 0.14044 0.0
C2238 C 0.40065 0.85335 0.1525 0.0
C2239 C 0.37431 0.8365 0.101 0.0
C2240 C 0.38298 0.84662 0.11332 0.0
C2241 C 0.4121 0.8733 0.13888 0.0
C2242 C 0.40154 0.86456 0.13138 0.0
H2243 H 0.34424 0.83143 0.07227 0.0
H2244 H 0.358 0.84826 0.09503 0.0
H2245 H 0.39126 0.83588 0.15998 0.0
H2246 H 0.44304 0.87235 0.16095 0.0
H2247 H 0.42591 0.85861 0.14355 0.0
C2248 C 0.92509 0.39593 0.65017 0.0
C2249 C 0.93723 0.39117 0.65433 0.0
C2250 C 0.91545 0.38832 0.63583 0.0
C2251 C 0.90978 0.35984 0.57843 0.0
H2252 H 0.8796 0.3559 0.63941 0.0
C2253 C 0.87935 0.31641 0.56271 0.0
C2254 C 0.86631 0.31761 0.56299 0.0
C2255 C 0.88699 0.32651 0.57218 0.0
C2256 C 0.88787 0.35704 0.62168 0.0
H2257 H 0.9489 0.37491 0.64564 0.0
H2258 H 0.93225 0.3618 0.62008 0.0
H2259 H 0.89481 0.37203 0.65705 0.0
H2260 H 0.85103 0.3303 0.57441 0.0
H2261 H 0.86447 0.3481 0.59086 0.0
H2262 H 0.90303 0.34484 0.54332 0.0
C2263 C 0.93011 0.37135 0.62799 0.0
C2264 C 0.89657 0.36628 0.63178 0.0
C2265 C 0.93964 0.37884 0.64283 0.0
C2266 C 0.86106 0.32909 0.57397 0.0
C2267 C 0.86875 0.33927 0.58343 0.0
C2268 C 0.90109 0.3507 0.56824 0.0
C2269 C 0.91788 0.37593 0.62471 0.0
C2270 C 0.90778 0.36752 0.61089 0.0
C2271 C 0.88183 0.33813 0.58201 0.0
C2272 C 0.89021 0.3489 0.59043 0.0
H2273 H 0.92296 0.40539 0.65898 0.0
H2274 H 0.90612 0.3921 0.63346 0.0
H2275 H 0.91823 0.36074 0.56136 0.0
H2276 H 0.88372 0.30767 0.55475 0.0
H2277 H 0.89701 0.32518 0.57178 0.0
C2278 C 0.3726 0.18976 0.3945 0.0
C2279 C 0.36009 0.18702 0.40311 0.0
C2280 C 0.38061 0.18044 0.38102 0.0
C2281 C 0.38569 0.14675 0.38363 0.0
H2282 H 0.40848 0.15346 0.29867 0.0
C2283 C 0.4214 0.11006 0.3266 0.0
C2284 C 0.43316 0.1147 0.31564 0.0
C2285 C 0.41169 0.11828 0.33602 0.0
C2286 C 0.40229 0.15146 0.32275 0.0
H2287 H 0.34611 0.17235 0.40404 0.0
H2288 H 0.3602 0.156 0.38092 0.0
H2289 H 0.39296 0.16899 0.31647 0.0
H2290 H 0.44409 0.13155 0.30737 0.0
H2291 H 0.42742 0.14575 0.32471 0.0
H2292 H 0.39528 0.12936 0.39071 0.0
C2293 C 0.36377 0.16539 0.38456 0.0
C2294 C 0.39335 0.16036 0.3328 0.0
C2295 C 0.3557 0.17477 0.39754 0.0
C2296 C 0.4351 0.12766 0.31528 0.0
C2297 C 0.42548 0.13583 0.32493 0.0
C2298 C 0.39473 0.13787 0.3738 0.0
C2299 C 0.37632 0.16813 0.3763 0.0
C2300 C 0.38509 0.15819 0.36372 0.0
C2301 C 0.41358 0.13129 0.33483 0.0
C2302 C 0.4033 0.14022 0.34367 0.0
H2303 H 0.37626 0.19911 0.39849 0.0
H2304 H 0.39026 0.18282 0.37523 0.0
H2305 H 0.37948 0.14486 0.40776 0.0
H2306 H 0.41962 0.10011 0.32704 0.0
H2307 H 0.40263 0.11445 0.34334 0.0
C2308 C 0.6446 0.67161 0.077 0.0
C2309 C 0.63997 0.68369 0.07015 0.0
C2310 C 0.63646 0.66185 0.08707 0.0
C2311 C 0.60303 0.6532 0.07955 0.0
H2312 H 0.61071 0.62834 0.15781 0.0
C2313 C 0.56519 0.6225 0.1489 0.0
C2314 C 0.56775 0.60985 0.15601 0.0
C2315 C 0.57455 0.63056 0.13591 0.0
C2316 C 0.60851 0.63512 0.13548 0.0
H2317 H 0.62329 0.6951 0.07029 0.0
H2318 H 0.60924 0.67826 0.08845 0.0
H2319 H 0.62619 0.64435 0.14156 0.0
H2320 H 0.58218 0.59571 0.15467 0.0
H2321 H 0.59864 0.60988 0.13199 0.0
H2322 H 0.58531 0.64417 0.07388 0.0
C2323 C 0.61907 0.67619 0.08509 0.0
C2324 C 0.61737 0.6443 0.1262 0.0
C2325 C 0.62715 0.68589 0.07496 0.0
C2326 C 0.5799 0.6054 0.14932 0.0
C2327 C 0.58934 0.61353 0.13662 0.0
C2328 C 0.5942 0.64409 0.08888 0.0
C2329 C 0.62355 0.66399 0.09047 0.0
C2330 C 0.61463 0.65361 0.09867 0.0
C2331 C 0.58677 0.62621 0.1299 0.0
C2332 C 0.59672 0.63508 0.11747 0.0
H2333 H 0.65443 0.66962 0.07344 0.0
H2334 H 0.64023 0.65256 0.09094 0.0
H2335 H 0.60072 0.66001 0.05743 0.0
H2336 H 0.55594 0.62624 0.15382 0.0
H2337 H 0.57228 0.6403 0.1315 0.0
C2338 C 0.07473 0.89374 0.83137 0.0
C2339 C 0.06241 0.88944 0.8268 0.0
C2340 C 0.08401 0.88575 0.84556 0.0
C2341 C 0.0888 0.85676 0.90123 0.0
H2342 H 0.11942 0.85361 0.84205 0.0
C2343 C 0.1211 0.81462 0.92119 0.0
C2344 C 0.13407 0.81639 0.91929 0.0
C2345 C 0.11295 0.82428 0.91158 0.0
C2346 C 0.11103 0.8545 0.85933 0.0
H2347 H 0.05008 0.87358 0.83463 0.0
H2348 H 0.0662 0.85975 0.85989 0.0
H2349 H 0.10414 0.86947 0.82397 0.0
H2350 H 0.14868 0.82969 0.90553 0.0
H2351 H 0.13442 0.8467 0.88933 0.0
H2352 H 0.0956 0.84188 0.93666 0.0
C2353 C 0.06871 0.86925 0.85243 0.0
C2354 C 0.10227 0.86359 0.84892 0.0
C2355 C 0.05948 0.87716 0.83779 0.0
C2356 C 0.13872 0.82803 0.90717 0.0
C2357 C 0.13054 0.83776 0.89775 0.0
C2358 C 0.09758 0.84777 0.91184 0.0
C2359 C 0.0811 0.8734 0.856 0.0
C2360 C 0.09095 0.86464 0.86931 0.0
C2361 C 0.11753 0.83603 0.90011 0.0
C2362 C 0.1087 0.84632 0.89054 0.0
H2363 H 0.07727 0.90315 0.82304 0.0
H2364 H 0.09347 0.88923 0.84826 0.0
H2365 H 0.08026 0.8575 0.91789 0.0
H2366 H 0.11721 0.80574 0.93013 0.0
H2367 H 0.10301 0.82248 0.91286 0.0
loop_
_geom_bond_atom_site_label_1
_geom_bond_atom_site_label_2
_geom_bond_distance
_geom_bond_site_symmetry_2
_ccdc_geom_bond_type
Co0 O1 2.216 . S
Co0 O2 2.091 . S
Co0 O4 2.004 . S
Co0 O10 2.021 . S
Co0 O12 2.137 1_554 S
Co0 O13 2.244 . S
O1 Co0 2.216 . S
O1 C8 1.247 . S
O2 Co0 2.091 . S
O2 C8 1.261 . S
C3 O12 1.247 . S
C3 O13 1.272 1_556 S
O4 Co0 2.004 . S
O4 C9 1.259 . S
Co5 O6 2.061 . S
Co5 O11 2.052 . S
Co5 O13 2.135 . S
O6 Co5 2.061 . S
O6 C9 1.235 . S
C7 O10 1.238 . S
C7 O11 1.241 . S
C8 O1 1.247 . S
C8 O2 1.261 . S
C9 O4 1.259 . S
C9 O6 1.235 . S
O10 Co0 2.021 . S
O10 C7 1.238 . S
O11 Co5 2.052 . S
O11 C7 1.241 . S
O12 Co0 2.137 1_556 S
O12 C3 1.247 . S
O13 Co0 2.244 . S
O13 C3 1.272 1_554 S
O13 Co5 2.135 . S
Co14 O15 2.216 . S
Co14 O16 2.091 . S
Co14 O18 2.004 . S
Co14 O24 2.021 . S
Co14 O26 2.137 . S
Co14 O27 2.244 . S
O15 Co14 2.216 . S
O15 C22 1.247 . S
O16 Co14 2.091 . S
O16 C22 1.261 . S
C17 O26 1.247 . S
C17 O27 1.272 . S
O18 Co14 2.004 . S
O18 C23 1.259 . S
Co19 O20 2.061 . S
Co19 O25 2.052 . S
Co19 O27 2.135 . S
O20 Co19 2.061 . S
O20 C23 1.235 . S
C21 O24 1.238 . S
C21 O25 1.241 . S
C22 O15 1.247 . S
C22 O16 1.261 . S
C23 O18 1.259 . S
C23 O20 1.235 . S
O24 Co14 2.021 . S
O24 C21 1.238 . S
O25 Co19 2.052 . S
O25 C21 1.241 . S
O26 Co14 2.137 . S
O26 C17 1.247 . S
O27 Co14 2.244 . S
O27 C17 1.272 . S
O27 Co19 2.135 . S
Co28 O29 2.216 . S
Co28 O30 2.091 . S
Co28 O32 2.004 . S
Co28 O38 2.021 . S
Co28 O40 2.137 . S
Co28 O41 2.244 . S
O29 Co28 2.216 . S
O29 C36 1.247 . S
O30 Co28 2.091 . S
O30 C36 1.261 . S
C31 O40 1.247 . S
C31 O41 1.272 . S
O32 Co28 2.004 . S
O32 C37 1.259 . S
Co33 O34 2.061 . S
Co33 O39 2.052 . S
Co33 O41 2.135 . S
O34 Co33 2.061 . S
O34 C37 1.235 . S
C35 O38 1.238 . S
C35 O39 1.241 . S
C36 O29 1.247 . S
C36 O30 1.261 . S
C37 O32 1.259 . S
C37 O34 1.235 . S
O38 Co28 2.021 . S
O38 C35 1.238 . S
O39 Co33 2.052 . S
O39 C35 1.241 . S
O40 Co28 2.137 . S
O40 C31 1.247 . S
O41 Co28 2.244 . S
O41 C31 1.272 . S
O41 Co33 2.135 . S
Co42 O43 2.216 . S
Co42 O44 2.091 . S
Co42 O46 2.004 . S
Co42 O52 2.021 . S
Co42 O54 2.137 . S
Co42 O55 2.244 . S
O43 Co42 2.216 . S
O43 C50 1.247 . S
O44 Co42 2.091 . S
O44 C50 1.261 . S
C45 O54 1.247 . S
C45 O55 1.272 . S
O46 Co42 2.004 . S
O46 C51 1.259 . S
Co47 O48 2.061 . S
Co47 O53 2.052 . S
Co47 O55 2.135 . S
O48 Co47 2.061 . S
O48 C51 1.235 . S
C49 O52 1.238 . S
C49 O53 1.241 . S
C50 O43 1.247 . S
C50 O44 1.261 . S
C51 O46 1.259 . S
C51 O48 1.235 . S
O52 Co42 2.021 . S
O52 C49 1.238 . S
O53 Co47 2.052 . S
O53 C49 1.241 . S
O54 Co42 2.137 . S
O54 C45 1.247 . S
O55 Co42 2.244 . S
O55 C45 1.272 . S
O55 Co47 2.135 . S
Co56 O57 2.216 . S
Co56 O58 2.091 . S
Co56 O60 2.004 . S
Co56 O66 2.021 . S
Co56 O68 2.137 . S
Co56 O69 2.244 . S
O57 Co56 2.216 . S
O57 C64 1.247 . S
O58 Co56 2.091 . S
O58 C64 1.261 . S
C59 O68 1.247 . S
C59 O69 1.272 . S
O60 Co56 2.004 . S
O60 C65 1.259 . S
Co61 O62 2.061 . S
Co61 O67 2.052 . S
Co61 O69 2.135 . S
O62 Co61 2.061 . S
O62 C65 1.235 . S
C63 O66 1.238 . S
C63 O67 1.241 . S
C64 O57 1.247 . S
C64 O58 1.261 . S
C65 O60 1.259 . S
C65 O62 1.235 . S
O66 Co56 2.021 . S
O66 C63 1.238 . S
O67 Co61 2.052 . S
O67 C63 1.241 . S
O68 Co56 2.137 . S
O68 C59 1.247 . S
O69 Co56 2.244 . S
O69 C59 1.272 . S
O69 Co61 2.135 . S
Co70 O71 2.216 . S
Co70 O72 2.091 . S
Co70 O74 2.004 . S
Co70 O80 2.021 . S
Co70 O82 2.137 . S
Co70 O83 2.244 . S
O71 Co70 2.216 . S
O71 C78 1.247 . S
O72 Co70 2.091 . S
O72 C78 1.261 . S
C73 O82 1.247 . S
C73 O83 1.272 . S
O74 Co70 2.004 . S
O74 C79 1.259 . S
Co75 O76 2.061 . S
Co75 O81 2.052 . S
Co75 O83 2.135 . S
O76 Co75 2.061 . S
O76 C79 1.235 . S
C77 O80 1.238 . S
C77 O81 1.241 . S
C78 O71 1.247 . S
C78 O72 1.261 . S
C79 O74 1.259 . S
C79 O76 1.235 . S
O80 Co70 2.021 . S
O80 C77 1.238 . S
O81 Co75 2.052 . S
O81 C77 1.241 . S
O82 Co70 2.137 . S
O82 C73 1.247 . S
O83 Co70 2.244 . S
O83 C73 1.272 . S
O83 Co75 2.135 . S
Co84 O85 2.216 . S
Co84 O86 2.091 . S
Co84 O88 2.004 . S
Co84 O94 2.021 . S
Co84 O96 2.137 1_556 S
Co84 O97 2.244 . S
O85 Co84 2.216 . S
O85 C92 1.247 . S
O86 Co84 2.091 . S
O86 C92 1.261 . S
C87 O96 1.247 . S
C87 O97 1.272 1_554 S
O88 Co84 2.004 . S
O88 C93 1.259 . S
Co89 O90 2.061 . S
Co89 O95 2.052 . S
Co89 O97 2.135 . S
O90 Co89 2.061 . S
O90 C93 1.235 . S
C91 O94 1.238 . S
C91 O95 1.241 . S
C92 O85 1.247 . S
C92 O86 1.261 . S
C93 O88 1.259 . S
C93 O90 1.235 . S
O94 Co84 2.021 . S
O94 C91 1.238 . S
O95 Co89 2.052 . S
O95 C91 1.241 . S
O96 Co84 2.137 1_554 S
O96 C87 1.247 . S
O97 Co84 2.244 . S
O97 C87 1.272 1_556 S
O97 Co89 2.135 . S
Co98 O99 2.216 . S
Co98 O100 2.091 . S
Co98 O102 2.004 . S
Co98 O108 2.021 . S
Co98 O110 2.137 . S
Co98 O111 2.244 . S
O99 Co98 2.216 . S
O99 C106 1.247 . S
O100 Co98 2.091 . S
O100 C106 1.261 . S
C101 O110 1.247 . S
C101 O111 1.272 . S
O102 Co98 2.004 . S
O102 C107 1.259 . S
Co103 O104 2.061 . S
Co103 O109 2.052 . S
Co103 O111 2.135 . S
O104 Co103 2.061 . S
O104 C107 1.235 . S
C105 O108 1.238 . S
C105 O109 1.241 . S
C106 O99 1.247 . S
C106 O100 1.261 . S
C107 O102 1.259 . S
C107 O104 1.235 . S
O108 Co98 2.021 . S
O108 C105 1.238 . S
O109 Co103 2.052 . S
O109 C105 1.241 . S
O110 Co98 2.137 . S
O110 C101 1.247 . S
O111 Co98 2.244 . S
O111 C101 1.272 . S
O111 Co103 2.135 . S
Co112 O113 2.216 . S
Co112 O114 2.091 . S
Co112 O116 2.004 . S
Co112 O122 2.021 . S
Co112 O124 2.137 1_556 S
Co112 O125 2.244 . S
O113 Co112 2.216 . S
O113 C120 1.247 . S
O114 Co112 2.091 . S
O114 C120 1.261 . S
C115 O124 1.247 . S
C115 O125 1.272 1_554 S
O116 Co112 2.004 . S
O116 C121 1.259 . S
Co117 O118 2.061 . S
Co117 O123 2.052 . S
Co117 O125 2.135 . S
O118 Co117 2.061 . S
O118 C121 1.235 . S
C119 O122 1.238 . S
C119 O123 1.241 . S
C120 O113 1.247 . S
C120 O114 1.261 . S
C121 O116 1.259 . S
C121 O118 1.235 . S
O122 Co112 2.021 . S
O122 C119 1.238 . S
O123 Co117 2.052 . S
O123 C119 1.241 . S
O124 Co112 2.137 1_554 S
O124 C115 1.247 . S
O125 Co112 2.244 . S
O125 C115 1.272 1_556 S
O125 Co117 2.135 . S
Co126 O127 2.216 . S
Co126 O128 2.091 . S
Co126 O130 2.004 . S
Co126 O136 2.021 . S
Co126 O138 2.137 . S
Co126 O139 2.244 . S
O127 Co126 2.216 . S
O127 C134 1.247 . S
O128 Co126 2.091 . S
O128 C134 1.261 . S
C129 O138 1.247 . S
C129 O139 1.272 . S
O130 Co126 2.004 . S
O130 C135 1.259 . S
Co131 O132 2.061 . S
Co131 O137 2.052 . S
Co131 O139 2.135 . S
O132 Co131 2.061 . S
O132 C135 1.235 . S
C133 O136 1.238 . S
C133 O137 1.241 . S
C134 O127 1.247 . S
C134 O128 1.261 . S
C135 O130 1.259 . S
C135 O132 1.235 . S
O136 Co126 2.021 . S
O136 C133 1.238 . S
O137 Co131 2.052 . S
O137 C133 1.241 . S
O138 Co126 2.137 . S
O138 C129 1.247 . S
O139 Co126 2.244 . S
O139 C129 1.272 . S
O139 Co131 2.135 . S
Co140 O141 2.216 . S
Co140 O142 2.091 . S
Co140 O144 2.004 . S
Co140 O150 2.021 . S
Co140 O152 2.137 . S
Co140 O153 2.244 . S
O141 Co140 2.216 . S
O141 C148 1.247 . S
O142 Co140 2.091 . S
O142 C148 1.261 . S
C143 O152 1.247 . S
C143 O153 1.272 . S
O144 Co140 2.004 . S
O144 C149 1.259 . S
Co145 O146 2.061 . S
Co145 O151 2.052 . S
Co145 O153 2.135 . S
O146 Co145 2.061 . S
O146 C149 1.235 . S
C147 O150 1.238 . S
C147 O151 1.241 . S
C148 O141 1.247 . S
C148 O142 1.261 . S
C149 O144 1.259 . S
C149 O146 1.235 . S
O150 Co140 2.021 . S
O150 C147 1.238 . S
O151 Co145 2.052 . S
O151 C147 1.241 . S
O152 Co140 2.137 . S
O152 C143 1.247 . S
O153 Co140 2.244 . S
O153 C143 1.272 . S
O153 Co145 2.135 . S
Co154 O155 2.216 . S
Co154 O156 2.091 . S
Co154 O158 2.004 . S
Co154 O164 2.021 . S
Co154 O166 2.137 . S
Co154 O167 2.244 . S
O155 Co154 2.216 . S
O155 C162 1.247 . S
O156 Co154 2.091 . S
O156 C162 1.261 . S
C157 O166 1.247 . S
C157 O167 1.272 . S
O158 Co154 2.004 . S
O158 C163 1.259 . S
Co159 O160 2.061 . S
Co159 O165 2.052 . S
Co159 O167 2.135 . S
O160 Co159 2.061 . S
O160 C163 1.235 . S
C161 O164 1.238 . S
C161 O165 1.241 . S
C162 O155 1.247 . S
C162 O156 1.261 . S
C163 O158 1.259 . S
C163 O160 1.235 . S
O164 Co154 2.021 . S
O164 C161 1.238 . S
O165 Co159 2.052 . S
O165 C161 1.241 . S
O166 Co154 2.137 . S
O166 C157 1.247 . S
O167 Co154 2.244 . S
O167 C157 1.272 . S
O167 Co159 2.135 . S
Co168 O169 2.216 . S
Co168 O170 2.091 . S
Co168 O172 2.004 . S
Co168 O178 2.021 . S
Co168 O180 2.137 . S
Co168 O181 2.244 . S
O169 Co168 2.216 . S
O169 C176 1.247 . S
O170 Co168 2.091 . S
O170 C176 1.261 . S
C171 O180 1.247 . S
C171 O181 1.272 . S
O172 Co168 2.004 . S
O172 C177 1.259 . S
Co173 O174 2.061 . S
Co173 O179 2.052 . S
Co173 O181 2.135 . S
O174 Co173 2.061 . S
O174 C177 1.235 . S
C175 O178 1.238 . S
C175 O179 1.241 . S
C176 O169 1.247 . S
C176 O170 1.261 . S
C177 O172 1.259 . S
C177 O174 1.235 . S
O178 Co168 2.021 . S
O178 C175 1.238 . S
O179 Co173 2.052 . S
O179 C175 1.241 . S
O180 Co168 2.137 . S
O180 C171 1.247 . S
O181 Co168 2.244 . S
O181 C171 1.272 . S
O181 Co173 2.135 . S
Co182 O183 2.216 . S
Co182 O184 2.091 . S
Co182 O186 2.004 . S
Co182 O192 2.021 . S
Co182 O194 2.137 . S
Co182 O195 2.244 . S
O183 Co182 2.216 . S
O183 C190 1.247 . S
O184 Co182 2.091 . S
O184 C190 1.261 . S
C185 O194 1.247 . S
C185 O195 1.272 . S
O186 Co182 2.004 . S
O186 C191 1.259 . S
Co187 O188 2.061 . S
Co187 O193 2.052 . S
Co187 O195 2.135 . S
O188 Co187 2.061 . S
O188 C191 1.235 . S
C189 O192 1.238 . S
C189 O193 1.241 . S
C190 O183 1.247 . S
C190 O184 1.261 . S
C191 O186 1.259 . S
C191 O188 1.235 . S
O192 Co182 2.021 . S
O192 C189 1.238 . S
O193 Co187 2.052 . S
O193 C189 1.241 . S
O194 Co182 2.137 . S
O194 C185 1.247 . S
O195 Co182 2.244 . S
O195 C185 1.272 . S
O195 Co187 2.135 . S
Co196 O197 2.216 . S
Co196 O198 2.091 . S
Co196 O200 2.004 . S
Co196 O206 2.021 . S
Co196 O208 2.137 1_554 S
Co196 O209 2.244 . S
O197 Co196 2.216 . S
O197 C204 1.247 . S
O198 Co196 2.091 . S
O198 C204 1.261 . S
C199 O208 1.247 . S
C199 O209 1.272 1_556 S
O200 Co196 2.004 . S
O200 C205 1.259 . S
Co201 O202 2.061 . S
Co201 O207 2.052 . S
Co201 O209 2.135 . S
O202 Co201 2.061 . S
O202 C205 1.235 . S
C203 O206 1.238 . S
C203 O207 1.241 . S
C204 O197 1.247 . S
C204 O198 1.261 . S
C205 O200 1.259 . S
C205 O202 1.235 . S
O206 Co196 2.021 . S
O206 C203 1.238 . S
O207 Co201 2.052 . S
O207 C203 1.241 . S
O208 Co196 2.137 1_556 S
O208 C199 1.247 . S
O209 Co196 2.244 . S
O209 C199 1.272 1_554 S
O209 Co201 2.135 . S
Co210 O211 2.216 . S
Co210 O212 2.091 . S
Co210 O214 2.004 . S
Co210 O220 2.021 . S
Co210 O222 2.137 . S
Co210 O223 2.244 . S
O211 Co210 2.216 . S
O211 C218 1.247 . S
O212 Co210 2.091 . S
O212 C218 1.261 . S
C213 O222 1.247 . S
C213 O223 1.272 . S
O214 Co210 2.004 . S
O214 C219 1.259 . S
Co215 O216 2.061 . S
Co215 O221 2.052 . S
Co215 O223 2.135 . S
O216 Co215 2.061 . S
O216 C219 1.235 . S
C217 O220 1.238 . S
C217 O221 1.241 . S
C218 O211 1.247 . S
C218 O212 1.261 . S
C219 O214 1.259 . S
C219 O216 1.235 . S
O220 Co210 2.021 . S
O220 C217 1.238 . S
O221 Co215 2.052 . S
O221 C217 1.241 . S
O222 Co210 2.137 . S
O222 C213 1.247 . S
O223 Co210 2.244 . S
O223 C213 1.272 . S
O223 Co215 2.135 . S
Co224 O225 2.216 . S
Co224 O226 2.091 . S
Co224 O228 2.004 . S
Co224 O234 2.021 . S
Co224 O236 2.137 . S
Co224 O237 2.244 . S
O225 Co224 2.216 . S
O225 C232 1.247 . S
O226 Co224 2.091 . S
O226 C232 1.261 . S
C227 O236 1.247 . S
C227 O237 1.272 . S
O228 Co224 2.004 . S
O228 C233 1.259 . S
Co229 O230 2.061 . S
Co229 O235 2.052 . S
Co229 O237 2.135 . S
O230 Co229 2.061 . S
O230 C233 1.235 . S
C231 O234 1.238 . S
C231 O235 1.241 . S
C232 O225 1.247 . S
C232 O226 1.261 . S
C233 O228 1.259 . S
C233 O230 1.235 . S
O234 Co224 2.021 . S
O234 C231 1.238 . S
O235 Co229 2.052 . S
O235 C231 1.241 . S
O236 Co224 2.137 . S
O236 C227 1.247 . S
O237 Co224 2.244 . S
O237 C227 1.272 . S
O237 Co229 2.135 . S
Co238 O239 2.216 . S
Co238 O240 2.091 . S
Co238 O242 2.004 . S
Co238 O248 2.021 . S
Co238 O250 2.137 . S
Co238 O251 2.244 . S
O239 Co238 2.216 . S
O239 C246 1.247 . S
O240 Co238 2.091 . S
O240 C246 1.261 . S
C241 O250 1.247 . S
C241 O251 1.272 . S
O242 Co238 2.004 . S
O242 C247 1.259 . S
Co243 O244 2.061 . S
Co243 O249 2.052 . S
Co243 O251 2.135 . S
O244 Co243 2.061 . S
O244 C247 1.235 . S
C245 O248 1.238 . S
C245 O249 1.241 . S
C246 O239 1.247 . S
C246 O240 1.261 . S
C247 O242 1.259 . S
C247 O244 1.235 . S
O248 Co238 2.021 . S
O248 C245 1.238 . S
O249 Co243 2.052 . S
O249 C245 1.241 . S
O250 Co238 2.137 . S
O250 C241 1.247 . S
O251 Co238 2.244 . S
O251 C241 1.272 . S
O251 Co243 2.135 . S
Co252 O253 2.216 . S
Co252 O254 2.091 . S
Co252 O256 2.004 . S
Co252 O262 2.021 . S
Co252 O264 2.137 1_554 S
Co252 O265 2.244 . S
O253 Co252 2.216 . S
O253 C260 1.247 . S
O254 Co252 2.091 . S
O254 C260 1.261 . S
C255 O264 1.247 . S
C255 O265 1.272 1_556 S
O256 Co252 2.004 . S
O256 C261 1.259 . S
Co257 O258 2.061 . S
Co257 O263 2.052 . S
Co257 O265 2.135 . S
O258 Co257 2.061 . S
O258 C261 1.235 . S
C259 O262 1.238 . S
C259 O263 1.241 . S
C260 O253 1.247 . S
C260 O254 1.261 . S
C261 O256 1.259 . S
C261 O258 1.235 . S
O262 Co252 2.021 . S
O262 C259 1.238 . S
O263 Co257 2.052 . S
O263 C259 1.241 . S
O264 Co252 2.137 1_556 S
O264 C255 1.247 . S
O265 Co252 2.244 . S
O265 C255 1.272 1_554 S
O265 Co257 2.135 . S
Co266 O267 2.216 . S
Co266 O268 2.091 . S
Co266 O270 2.004 . S
Co266 O276 2.021 . S
Co266 O278 2.137 . S
Co266 O279 2.244 . S
O267 Co266 2.216 . S
O267 C274 1.247 . S
O268 Co266 2.091 . S
O268 C274 1.261 . S
C269 O278 1.247 . S
C269 O279 1.272 . S
O270 Co266 2.004 . S
O270 C275 1.259 . S
Co271 O272 2.061 . S
Co271 O277 2.052 . S
Co271 O279 2.135 . S
O272 Co271 2.061 . S
O272 C275 1.235 . S
C273 O276 1.238 . S
C273 O277 1.241 . S
C274 O267 1.247 . S
C274 O268 1.261 . S
C275 O270 1.259 . S
C275 O272 1.235 . S
O276 Co266 2.021 . S
O276 C273 1.238 . S
O277 Co271 2.052 . S
O277 C273 1.241 . S
O278 Co266 2.137 . S
O278 C269 1.247 . S
O279 Co266 2.244 . S
O279 C269 1.272 . S
O279 Co271 2.135 . S
Co280 O281 2.216 . S
Co280 O282 2.091 . S
Co280 O284 2.004 . S
Co280 O290 2.021 . S
Co280 O292 2.137 1_556 S
Co280 O293 2.244 . S
O281 Co280 2.216 . S
O281 C288 1.247 . S
O282 Co280 2.091 . S
O282 C288 1.261 . S
C283 O292 1.247 . S
C283 O293 1.272 1_554 S
O284 Co280 2.004 . S
O284 C289 1.259 . S
Co285 O286 2.061 . S
Co285 O291 2.052 . S
Co285 O293 2.135 . S
O286 Co285 2.061 . S
O286 C289 1.235 . S
C287 O290 1.238 . S
C287 O291 1.241 . S
C288 O281 1.247 . S
C288 O282 1.261 . S
C289 O284 1.259 . S
C289 O286 1.235 . S
O290 Co280 2.021 . S
O290 C287 1.238 . S
O291 Co285 2.052 . S
O291 C287 1.241 . S
O292 Co280 2.137 1_554 S
O292 C283 1.247 . S
O293 Co280 2.244 . S
O293 C283 1.272 1_556 S
O293 Co285 2.135 . S
Co294 O295 2.216 . S
Co294 O296 2.091 . S
Co294 O298 2.004 . S
Co294 O304 2.021 . S
Co294 O306 2.137 . S
Co294 O307 2.244 . S
O295 Co294 2.216 . S
O295 C302 1.247 . S
O296 Co294 2.091 . S
O296 C302 1.261 . S
C297 O306 1.247 . S
C297 O307 1.272 . S
O298 Co294 2.004 . S
O298 C303 1.259 . S
Co299 O300 2.061 . S
Co299 O305 2.052 . S
Co299 O307 2.135 . S
O300 Co299 2.061 . S
O300 C303 1.235 . S
C301 O304 1.238 . S
C301 O305 1.241 . S
C302 O295 1.247 . S
C302 O296 1.261 . S
C303 O298 1.259 . S
C303 O300 1.235 . S
O304 Co294 2.021 . S
O304 C301 1.238 . S
O305 Co299 2.052 . S
O305 C301 1.241 . S
O306 Co294 2.137 . S
O306 C297 1.247 . S
O307 Co294 2.244 . S
O307 C297 1.272 . S
O307 Co299 2.135 . S
Co308 O309 2.216 . S
Co308 O310 2.091 . S
Co308 O312 2.004 . S
Co308 O318 2.021 . S
Co308 O320 2.137 . S
Co308 O321 2.244 . S
O309 Co308 2.216 . S
O309 C316 1.247 . S
O310 Co308 2.091 . S
O310 C316 1.261 . S
C311 O320 1.247 . S
C311 O321 1.272 . S
O312 Co308 2.004 . S
O312 C317 1.259 . S
Co313 O314 2.061 . S
Co313 O319 2.052 . S
Co313 O321 2.135 . S
O314 Co313 2.061 . S
O314 C317 1.235 . S
C315 O318 1.238 . S
C315 O319 1.241 . S
C316 O309 1.247 . S
C316 O310 1.261 . S
C317 O312 1.259 . S
C317 O314 1.235 . S
O318 Co308 2.021 . S
O318 C315 1.238 . S
O319 Co313 2.052 . S
O319 C315 1.241 . S
O320 Co308 2.137 . S
O320 C311 1.247 . S
O321 Co308 2.244 . S
O321 C311 1.272 . S
O321 Co313 2.135 . S
Co322 O323 2.216 . S
Co322 O324 2.091 . S
Co322 O326 2.004 . S
Co322 O332 2.021 . S
Co322 O334 2.137 . S
Co322 O335 2.244 . S
O323 Co322 2.216 . S
O323 C330 1.247 . S
O324 Co322 2.091 . S
O324 C330 1.261 . S
C325 O334 1.247 . S
C325 O335 1.272 . S
O326 Co322 2.004 . S
O326 C331 1.259 . S
Co327 O328 2.061 . S
Co327 O333 2.052 . S
Co327 O335 2.135 . S
O328 Co327 2.061 . S
O328 C331 1.235 . S
C329 O332 1.238 . S
C329 O333 1.241 . S
C330 O323 1.247 . S
C330 O324 1.261 . S
C331 O326 1.259 . S
C331 O328 1.235 . S
O332 Co322 2.021 . S
O332 C329 1.238 . S
O333 Co327 2.052 . S
O333 C329 1.241 . S
O334 Co322 2.137 . S
O334 C325 1.247 . S
O335 Co322 2.244 . S
O335 C325 1.272 . S
O335 Co327 2.135 . S
Co336 O337 2.216 . S
Co336 O338 2.091 . S
Co336 O340 2.004 . S
Co336 O346 2.021 . S
Co336 O348 2.137 . S
Co336 O349 2.244 . S
O337 Co336 2.216 . S
O337 C344 1.247 . S
O338 Co336 2.091 . S
O338 C344 1.261 . S
C339 O348 1.247 . S
C339 O349 1.272 . S
O340 Co336 2.004 . S
O340 C345 1.259 . S
Co341 O342 2.061 . S
Co341 O347 2.052 . S
Co341 O349 2.135 . S
O342 Co341 2.061 . S
O342 C345 1.235 . S
C343 O346 1.238 . S
C343 O347 1.241 . S
C344 O337 1.247 . S
C344 O338 1.261 . S
C345 O340 1.259 . S
C345 O342 1.235 . S
O346 Co336 2.021 . S
O346 C343 1.238 . S
O347 Co341 2.052 . S
O347 C343 1.241 . S
O348 Co336 2.137 . S
O348 C339 1.247 . S
O349 Co336 2.244 . S
O349 C339 1.272 . S
O349 Co341 2.135 . S
Co350 O351 2.216 . S
Co350 O352 2.091 . S
Co350 O354 2.004 . S
Co350 O360 2.021 . S
Co350 O362 2.137 . S
Co350 O363 2.244 . S
O351 Co350 2.216 . S
O351 C358 1.247 . S
O352 Co350 2.091 . S
O352 C358 1.261 . S
C353 O362 1.247 . S
C353 O363 1.272 . S
O354 Co350 2.004 . S
O354 C359 1.259 . S
Co355 O356 2.061 . S
Co355 O361 2.052 . S
Co355 O363 2.135 . S
O356 Co355 2.061 . S
O356 C359 1.235 . S
C357 O360 1.238 . S
C357 O361 1.241 . S
C358 O351 1.247 . S
C358 O352 1.261 . S
C359 O354 1.259 . S
C359 O356 1.235 . S
O360 Co350 2.021 . S
O360 C357 1.238 . S
O361 Co355 2.052 . S
O361 C357 1.241 . S
O362 Co350 2.137 . S
O362 C353 1.247 . S
O363 Co350 2.244 . S
O363 C353 1.272 . S
O363 Co355 2.135 . S
Co364 O365 2.216 . S
Co364 O366 2.091 . S
Co364 O368 2.004 . S
Co364 O374 2.021 . S
Co364 O376 2.137 1_556 S
Co364 O377 2.244 . S
O365 Co364 2.216 . S
O365 C372 1.247 . S
O366 Co364 2.091 . S
O366 C372 1.261 . S
C367 O376 1.247 . S
C367 O377 1.272 1_554 S
O368 Co364 2.004 . S
O368 C373 1.259 . S
Co369 O370 2.061 . S
Co369 O375 2.052 . S
Co369 O377 2.135 . S
O370 Co369 2.061 . S
O370 C373 1.235 . S
C371 O374 1.238 . S
C371 O375 1.241 . S
C372 O365 1.247 . S
C372 O366 1.261 . S
C373 O368 1.259 . S
C373 O370 1.235 . S
O374 Co364 2.021 . S
O374 C371 1.238 . S
O375 Co369 2.052 . S
O375 C371 1.241 . S
O376 Co364 2.137 1_554 S
O376 C367 1.247 . S
O377 Co364 2.244 . S
O377 C367 1.272 1_556 S
O377 Co369 2.135 . S
Co378 O379 2.216 . S
Co378 O380 2.091 . S
Co378 O382 2.004 . S
Co378 O388 2.021 . S
Co378 O390 2.137 . S
Co378 O391 2.244 . S
O379 Co378 2.216 . S
O379 C386 1.247 . S
O380 Co378 2.091 . S
O380 C386 1.261 . S
C381 O390 1.247 . S
C381 O391 1.272 . S
O382 Co378 2.004 . S
O382 C387 1.259 . S
Co383 O384 2.061 . S
Co383 O389 2.052 . S
Co383 O391 2.135 . S
O384 Co383 2.061 . S
O384 C387 1.235 . S
C385 O388 1.238 . S
C385 O389 1.241 . S
C386 O379 1.247 . S
C386 O380 1.261 . S
C387 O382 1.259 . S
C387 O384 1.235 . S
O388 Co378 2.021 . S
O388 C385 1.238 . S
O389 Co383 2.052 . S
O389 C385 1.241 . S
O390 Co378 2.137 . S
O390 C381 1.247 . S
O391 Co378 2.244 . S
O391 C381 1.272 . S
O391 Co383 2.135 . S
Co392 O393 2.216 . S
Co392 O394 2.091 . S
Co392 O396 2.004 . S
Co392 O402 2.021 . S
Co392 O404 2.137 1_554 S
Co392 O405 2.244 . S
O393 Co392 2.216 . S
O393 C400 1.247 . S
O394 Co392 2.091 . S
O394 C400 1.261 . S
C395 O404 1.247 . S
C395 O405 1.272 1_556 S
O396 Co392 2.004 . S
O396 C401 1.259 . S
Co397 O398 2.061 . S
Co397 O403 2.052 . S
Co397 O405 2.135 . S
O398 Co397 2.061 . S
O398 C401 1.235 . S
C399 O402 1.238 . S
C399 O403 1.241 . S
C400 O393 1.247 . S
C400 O394 1.261 . S
C401 O396 1.259 . S
C401 O398 1.235 . S
O402 Co392 2.021 . S
O402 C399 1.238 . S
O403 Co397 2.052 . S
O403 C399 1.241 . S
O404 Co392 2.137 1_556 S
O404 C395 1.247 . S
O405 Co392 2.244 . S
O405 C395 1.272 1_554 S
O405 Co397 2.135 . S
Co406 O407 2.216 . S
Co406 O408 2.091 . S
Co406 O410 2.004 . S
Co406 O416 2.021 . S
Co406 O418 2.137 . S
Co406 O419 2.244 . S
O407 Co406 2.216 . S
O407 C414 1.247 . S
O408 Co406 2.091 . S
O408 C414 1.261 . S
C409 O418 1.247 . S
C409 O419 1.272 . S
O410 Co406 2.004 . S
O410 C415 1.259 . S
Co411 O412 2.061 . S
Co411 O417 2.052 . S
Co411 O419 2.135 . S
O412 Co411 2.061 . S
O412 C415 1.235 . S
C413 O416 1.238 . S
C413 O417 1.241 . S
C414 O407 1.247 . S
C414 O408 1.261 . S
C415 O410 1.259 . S
C415 O412 1.235 . S
O416 Co406 2.021 . S
O416 C413 1.238 . S
O417 Co411 2.052 . S
O417 C413 1.241 . S
O418 Co406 2.137 . S
O418 C409 1.247 . S
O419 Co406 2.244 . S
O419 C409 1.272 . S
O419 Co411 2.135 . S
Co420 O421 2.216 . S
Co420 O422 2.091 . S
Co420 O424 2.004 . S
Co420 O430 2.021 . S
Co420 O432 2.137 . S
Co420 O433 2.244 . S
O421 Co420 2.216 . S
O421 C428 1.247 . S
O422 Co420 2.091 . S
O422 C428 1.261 . S
C423 O432 1.247 . S
C423 O433 1.272 . S
O424 Co420 2.004 . S
O424 C429 1.259 . S
Co425 O426 2.061 . S
Co425 O431 2.052 . S
Co425 O433 2.135 . S
O426 Co425 2.061 . S
O426 C429 1.235 . S
C427 O430 1.238 . S
C427 O431 1.241 . S
C428 O421 1.247 . S
C428 O422 1.261 . S
C429 O424 1.259 . S
C429 O426 1.235 . S
O430 Co420 2.021 . S
O430 C427 1.238 . S
O431 Co425 2.052 . S
O431 C427 1.241 . S
O432 Co420 2.137 . S
O432 C423 1.247 . S
O433 Co420 2.244 . S
O433 C423 1.272 . S
O433 Co425 2.135 . S
Co434 O435 2.216 . S
Co434 O436 2.091 . S
Co434 O438 2.004 . S
Co434 O444 2.021 . S
Co434 O446 2.137 . S
Co434 O447 2.244 . S
O435 Co434 2.216 . S
O435 C442 1.247 . S
O436 Co434 2.091 . S
O436 C442 1.261 . S
C437 O446 1.247 . S
C437 O447 1.272 . S
O438 Co434 2.004 . S
O438 C443 1.259 . S
Co439 O440 2.061 . S
Co439 O445 2.052 . S
Co439 O447 2.135 . S
O440 Co439 2.061 . S
O440 C443 1.235 . S
C441 O444 1.238 . S
C441 O445 1.241 . S
C442 O435 1.247 . S
C442 O436 1.261 . S
C443 O438 1.259 . S
C443 O440 1.235 . S
O444 Co434 2.021 . S
O444 C441 1.238 . S
O445 Co439 2.052 . S
O445 C441 1.241 . S
O446 Co434 2.137 . S
O446 C437 1.247 . S
O447 Co434 2.244 . S
O447 C437 1.272 . S
O447 Co439 2.135 . S
C448 C449 1.349 . S
C448 C450 1.327 . S
C448 H473 0.950 . S
C449 C448 1.349 . S
C449 C465 1.349 . S
C450 C448 1.327 . S
C450 C469 1.429 . S
C450 H474 0.950 1_556 S
C451 C468 1.574 . S
C451 C470 1.368 . S
C451 H475 0.949 . S
H452 C456 0.949 . S
C453 C454 1.349 . S
C453 C455 1.327 . S
C453 H476 0.950 . S
C454 C453 1.349 . S
C454 C466 1.349 . S
C455 C453 1.327 . S
C455 C471 1.429 . S
C455 H477 0.950 1_554 S
C456 H452 0.949 . S
C456 C464 1.574 . S
C456 C472 1.368 . S
H457 C465 0.950 . S
H458 C463 0.950 . S
H459 C464 0.949 . S
H460 C466 0.950 . S
H461 C467 0.950 . S
H462 C468 0.949 . S
C463 H458 0.950 . S
C463 C465 1.327 . S
C463 C469 1.429 . S
C464 C456 1.574 . S
C464 H459 0.949 . S
C464 C470 1.368 1_554 S
C465 C449 1.349 . S
C465 H457 0.950 . S
C465 C463 1.327 . S
C466 C454 1.349 . S
C466 H460 0.950 . S
C466 C467 1.327 . S
C467 H461 0.950 . S
C467 C466 1.327 . S
C467 C471 1.429 . S
C468 C451 1.574 . S
C468 H462 0.949 . S
C468 C472 1.368 1_556 S
C469 C450 1.429 . S
C469 C463 1.429 . S
C469 C470 1.523 . S
C470 C451 1.368 . S
C470 C464 1.368 1_556 S
C470 C469 1.523 . S
C471 C455 1.429 . S
C471 C467 1.429 . S
C471 C472 1.523 . S
C472 C456 1.368 . S
C472 C468 1.368 1_554 S
C472 C471 1.523 . S
H473 C448 0.950 . S
H474 C450 0.950 1_554 S
H475 C451 0.949 . S
H476 C453 0.950 . S
H477 C455 0.950 1_556 S
C478 C479 1.349 . S
C478 C480 1.327 . S
C478 H503 0.950 . S
C479 C478 1.349 . S
C479 C495 1.349 . S
C480 C478 1.327 . S
C480 C499 1.429 . S
C480 H504 0.950 . S
C481 C498 1.574 1_565 S
C481 C500 1.368 . S
C481 H505 0.949 . S
H482 C486 0.949 . S
C483 C484 1.349 . S
C483 C485 1.327 . S
C483 H506 0.950 . S
C484 C483 1.349 . S
C484 C496 1.349 . S
C485 C483 1.327 . S
C485 C501 1.429 . S
C485 H507 0.950 . S
C486 H482 0.949 . S
C486 C494 1.574 1_545 S
C486 C502 1.368 . S
H487 C495 0.950 . S
H488 C493 0.950 . S
H489 C494 0.949 . S
H490 C496 0.950 . S
H491 C497 0.950 . S
H492 C498 0.949 . S
C493 H488 0.950 . S
C493 C495 1.327 . S
C493 C499 1.429 . S
C494 C486 1.574 1_565 S
C494 H489 0.949 . S
C494 C500 1.368 . S
C495 C479 1.349 . S
C495 H487 0.950 . S
C495 C493 1.327 . S
C496 C484 1.349 . S
C496 H490 0.950 . S
C496 C497 1.327 . S
C497 H491 0.950 . S
C497 C496 1.327 . S
C497 C501 1.429 . S
C498 C481 1.574 1_545 S
C498 H492 0.949 . S
C498 C502 1.368 . S
C499 C480 1.429 . S
C499 C493 1.429 . S
C499 C500 1.523 . S
C500 C481 1.368 . S
C500 C494 1.368 . S
C500 C499 1.523 . S
C501 C485 1.429 . S
C501 C497 1.429 . S
C501 C502 1.523 . S
C502 C486 1.368 . S
C502 C498 1.368 . S
C502 C501 1.523 . S
H503 C478 0.950 . S
H504 C480 0.950 . S
H505 C481 0.949 . S
H506 C483 0.950 . S
H507 C485 0.950 . S
C508 C509 1.349 . S
C508 C510 1.327 . S
C508 H533 0.950 . S
C509 C508 1.349 . S
C509 C525 1.349 . S
C510 C508 1.327 . S
C510 C529 1.429 . S
C510 H534 0.950 . S
C511 C528 1.574 . S
C511 C530 1.368 . S
C511 H535 0.949 . S
H512 C516 0.949 . S
C513 C514 1.349 . S
C513 C515 1.327 . S
C513 H536 0.950 . S
C514 C513 1.349 . S
C514 C526 1.349 . S
C515 C513 1.327 . S
C515 C531 1.429 . S
C515 H537 0.950 . S
C516 H512 0.949 . S
C516 C524 1.574 . S
C516 C532 1.368 . S
H517 C525 0.950 . S
H518 C523 0.950 . S
H519 C524 0.949 . S
H520 C526 0.950 . S
H521 C527 0.950 . S
H522 C528 0.949 . S
C523 H518 0.950 . S
C523 C525 1.327 . S
C523 C529 1.429 . S
C524 C516 1.574 . S
C524 H519 0.949 . S
C524 C530 1.368 . S
C525 C509 1.349 . S
C525 H517 0.950 . S
C525 C523 1.327 . S
C526 C514 1.349 . S
C526 H520 0.950 . S
C526 C527 1.327 . S
C527 H521 0.950 . S
C527 C526 1.327 . S
C527 C531 1.429 . S
C528 C511 1.574 . S
C528 H522 0.949 . S
C528 C532 1.368 . S
C529 C510 1.429 . S
C529 C523 1.429 . S
C529 C530 1.523 . S
C530 C511 1.368 . S
C530 C524 1.368 . S
C530 C529 1.523 . S
C531 C515 1.429 . S
C531 C527 1.429 . S
C531 C532 1.523 . S
C532 C516 1.368 . S
C532 C528 1.368 . S
C532 C531 1.523 . S
H533 C508 0.950 . S
H534 C510 0.950 . S
H535 C511 0.949 . S
H536 C513 0.950 . S
H537 C515 0.950 . S
C538 C539 1.349 . S
C538 C540 1.327 . S
C538 H563 0.950 . S
C539 C538 1.349 . S
C539 C555 1.349 . S
C540 C538 1.327 . S
C540 C559 1.429 . S
C540 H564 0.950 . S
C541 C558 1.574 1_545 S
C541 C560 1.368 . S
C541 H565 0.949 . S
H542 C546 0.949 . S
C543 C544 1.349 . S
C543 C545 1.327 . S
C543 H566 0.950 . S
C544 C543 1.349 . S
C544 C556 1.349 . S
C545 C543 1.327 . S
C545 C561 1.429 . S
C545 H567 0.950 . S
C546 H542 0.949 . S
C546 C554 1.574 1_565 S
C546 C562 1.368 . S
H547 C555 0.950 . S
H548 C553 0.950 . S
H549 C554 0.949 . S
H550 C556 0.950 . S
H551 C557 0.950 . S
H552 C558 0.949 . S
C553 H548 0.950 . S
C553 C555 1.327 . S
C553 C559 1.429 . S
C554 C546 1.574 1_545 S
C554 H549 0.949 . S
C554 C560 1.368 . S
C555 C539 1.349 . S
C555 H547 0.950 . S
C555 C553 1.327 . S
C556 C544 1.349 . S
C556 H550 0.950 . S
C556 C557 1.327 . S
C557 H551 0.950 . S
C557 C556 1.327 . S
C557 C561 1.429 . S
C558 C541 1.574 1_565 S
C558 H552 0.949 . S
C558 C562 1.368 . S
C559 C540 1.429 . S
C559 C553 1.429 . S
C559 C560 1.523 . S
C560 C541 1.368 . S
C560 C554 1.368 . S
C560 C559 1.523 . S
C561 C545 1.429 . S
C561 C557 1.429 . S
C561 C562 1.523 . S
C562 C546 1.368 . S
C562 C558 1.368 . S
C562 C561 1.523 . S
H563 C538 0.950 . S
H564 C540 0.950 . S
H565 C541 0.949 . S
H566 C543 0.950 . S
H567 C545 0.950 . S
C568 C569 1.349 . S
C568 C570 1.327 . S
C568 H593 0.950 . S
C569 C568 1.349 . S
C569 C585 1.349 . S
C570 C568 1.327 . S
C570 C589 1.429 . S
C570 H594 0.950 1_554 S
C571 C588 1.574 . S
C571 C590 1.368 . S
C571 H595 0.949 . S
H572 C576 0.949 . S
C573 C574 1.349 . S
C573 C575 1.327 . S
C573 H596 0.950 . S
C574 C573 1.349 . S
C574 C586 1.349 . S
C575 C573 1.327 . S
C575 C591 1.429 . S
C575 H597 0.950 1_556 S
C576 H572 0.949 . S
C576 C584 1.574 . S
C576 C592 1.368 . S
H577 C585 0.950 . S
H578 C583 0.950 . S
H579 C584 0.949 . S
H580 C586 0.950 . S
H581 C587 0.950 . S
H582 C588 0.949 . S
C583 H578 0.950 . S
C583 C585 1.327 . S
C583 C589 1.429 . S
C584 C576 1.574 . S
C584 H579 0.949 . S
C584 C590 1.368 1_556 S
C585 C569 1.349 . S
C585 H577 0.950 . S
C585 C583 1.327 . S
C586 C574 1.349 . S
C586 H580 0.950 . S
C586 C587 1.327 . S
C587 H581 0.950 . S
C587 C586 1.327 . S
C587 C591 1.429 . S
C588 C571 1.574 . S
C588 H582 0.949 . S
C588 C592 1.368 1_554 S
C589 C570 1.429 . S
C589 C583 1.429 . S
C589 C590 1.523 . S
C590 C571 1.368 . S
C590 C584 1.368 1_554 S
C590 C589 1.523 . S
C591 C575 1.429 . S
C591 C587 1.429 . S
C591 C592 1.523 . S
C592 C576 1.368 . S
C592 C588 1.368 1_556 S
C592 C591 1.523 . S
H593 C568 0.950 . S
H594 C570 0.950 1_556 S
H595 C571 0.949 . S
H596 C573 0.950 . S
H597 C575 0.950 1_554 S
C598 C599 1.349 . S
C598 C600 1.327 . S
C598 H623 0.950 . S
C599 C598 1.349 . S
C599 C615 1.349 . S
C600 C598 1.327 . S
C600 C619 1.429 . S
C600 H624 0.950 . S
C601 C618 1.574 1_565 S
C601 C620 1.368 . S
C601 H625 0.949 . S
H602 C606 0.949 . S
C603 C604 1.349 . S
C603 C605 1.327 . S
C603 H626 0.950 . S
C604 C603 1.349 . S
C604 C616 1.349 . S
C605 C603 1.327 . S
C605 C621 1.429 . S
C605 H627 0.950 . S
C606 H602 0.949 . S
C606 C614 1.574 1_545 S
C606 C622 1.368 . S
H607 C615 0.950 . S
H608 C613 0.950 . S
H609 C614 0.949 . S
H610 C616 0.950 . S
H611 C617 0.950 . S
H612 C618 0.949 . S
C613 H608 0.950 . S
C613 C615 1.327 . S
C613 C619 1.429 . S
C614 C606 1.574 1_565 S
C614 H609 0.949 . S
C614 C620 1.368 . S
C615 C599 1.349 . S
C615 H607 0.950 . S
C615 C613 1.327 . S
C616 C604 1.349 . S
C616 H610 0.950 . S
C616 C617 1.327 . S
C617 H611 0.950 . S
C617 C616 1.327 . S
C617 C621 1.429 . S
C618 C601 1.574 1_545 S
C618 H612 0.949 . S
C618 C622 1.368 . S
C619 C600 1.429 . S
C619 C613 1.429 . S
C619 C620 1.523 . S
C620 C601 1.368 . S
C620 C614 1.368 . S
C620 C619 1.523 . S
C621 C605 1.429 . S
C621 C617 1.429 . S
C621 C622 1.523 . S
C622 C606 1.368 . S
C622 C618 1.368 . S
C622 C621 1.523 . S
H623 C598 0.950 . S
H624 C600 0.950 . S
H625 C601 0.949 . S
H626 C603 0.950 . S
H627 C605 0.950 . S
C628 C629 1.349 . S
C628 C630 1.327 . S
C628 H653 0.950 . S
C629 C628 1.349 . S
C629 C645 1.349 . S
C630 C628 1.327 . S
C630 C649 1.429 . S
C630 H654 0.950 . S
C631 C648 1.574 . S
C631 C650 1.368 . S
C631 H655 0.949 . S
H632 C636 0.949 . S
C633 C634 1.349 . S
C633 C635 1.327 . S
C633 H656 0.950 . S
C634 C633 1.349 . S
C634 C646 1.349 . S
C635 C633 1.327 . S
C635 C651 1.429 . S
C635 H657 0.950 . S
C636 H632 0.949 . S
C636 C644 1.574 . S
C636 C652 1.368 . S
H637 C645 0.950 . S
H638 C643 0.950 . S
H639 C644 0.949 . S
H640 C646 0.950 . S
H641 C647 0.950 . S
H642 C648 0.949 . S
C643 H638 0.950 . S
C643 C645 1.327 . S
C643 C649 1.429 . S
C644 C636 1.574 . S
C644 H639 0.949 . S
C644 C650 1.368 . S
C645 C629 1.349 . S
C645 H637 0.950 . S
C645 C643 1.327 . S
C646 C634 1.349 . S
C646 H640 0.950 . S
C646 C647 1.327 . S
C647 H641 0.950 . S
C647 C646 1.327 . S
C647 C651 1.429 . S
C648 C631 1.574 . S
C648 H642 0.949 . S
C648 C652 1.368 . S
C649 C630 1.429 . S
C649 C643 1.429 . S
C649 C650 1.523 . S
C650 C631 1.368 . S
C650 C644 1.368 . S
C650 C649 1.523 . S
C651 C635 1.429 . S
C651 C647 1.429 . S
C651 C652 1.523 . S
C652 C636 1.368 . S
C652 C648 1.368 . S
C652 C651 1.523 . S
H653 C628 0.950 . S
H654 C630 0.950 . S
H655 C631 0.949 . S
H656 C633 0.950 . S
H657 C635 0.950 . S
C658 C659 1.349 . S
C658 C660 1.327 . S
C658 H683 0.950 . S
C659 C658 1.349 . S
C659 C675 1.349 . S
C660 C658 1.327 . S
C660 C679 1.429 . S
C660 H684 0.950 . S
C661 C678 1.574 1_565 S
C661 C680 1.368 . S
C661 H685 0.949 . S
H662 C666 0.949 . S
C663 C664 1.349 . S
C663 C665 1.327 . S
C663 H686 0.950 . S
C664 C663 1.349 . S
C664 C676 1.349 . S
C665 C663 1.327 . S
C665 C681 1.429 . S
C665 H687 0.950 . S
C666 H662 0.949 . S
C666 C674 1.574 1_545 S
C666 C682 1.368 . S
H667 C675 0.950 . S
H668 C673 0.950 . S
H669 C674 0.949 . S
H670 C676 0.950 . S
H671 C677 0.950 . S
H672 C678 0.949 . S
C673 H668 0.950 . S
C673 C675 1.327 . S
C673 C679 1.429 . S
C674 C666 1.574 1_565 S
C674 H669 0.949 . S
C674 C680 1.368 . S
C675 C659 1.349 . S
C675 H667 0.950 . S
C675 C673 1.327 . S
C676 C664 1.349 . S
C676 H670 0.950 . S
C676 C677 1.327 . S
C677 H671 0.950 . S
C677 C676 1.327 . S
C677 C681 1.429 . S
C678 C661 1.574 1_545 S
C678 H672 0.949 . S
C678 C682 1.368 . S
C679 C660 1.429 . S
C679 C673 1.429 . S
C679 C680 1.523 . S
C680 C661 1.368 . S
C680 C674 1.368 . S
C680 C679 1.523 . S
C681 C665 1.429 . S
C681 C677 1.429 . S
C681 C682 1.523 . S
C682 C666 1.368 . S
C682 C678 1.368 . S
C682 C681 1.523 . S
H683 C658 0.950 . S
H684 C660 0.950 . S
H685 C661 0.949 . S
H686 C663 0.950 . S
H687 C665 0.950 . S
C688 C689 1.349 . S
C688 C690 1.327 . S
C688 H713 0.950 . S
C689 C688 1.349 . S
C689 C705 1.349 . S
C690 C688 1.327 . S
C690 C709 1.429 . S
C690 H714 0.950 . S
C691 C708 1.574 . S
C691 C710 1.368 . S
C691 H715 0.949 . S
H692 C696 0.949 . S
C693 C694 1.349 . S
C693 C695 1.327 . S
C693 H716 0.950 . S
C694 C693 1.349 . S
C694 C706 1.349 . S
C695 C693 1.327 . S
C695 C711 1.429 . S
C695 H717 0.950 . S
C696 H692 0.949 . S
C696 C704 1.574 . S
C696 C712 1.368 . S
H697 C705 0.950 . S
H698 C703 0.950 . S
H699 C704 0.949 . S
H700 C706 0.950 . S
H701 C707 0.950 . S
H702 C708 0.949 . S
C703 H698 0.950 . S
C703 C705 1.327 . S
C703 C709 1.429 . S
C704 C696 1.574 . S
C704 H699 0.949 . S
C704 C710 1.368 . S
C705 C689 1.349 . S
C705 H697 0.950 . S
C705 C703 1.327 . S
C706 C694 1.349 . S
C706 H700 0.950 . S
C706 C707 1.327 . S
C707 H701 0.950 . S
C707 C706 1.327 . S
C707 C711 1.429 . S
C708 C691 1.574 . S
C708 H702 0.949 . S
C708 C712 1.368 . S
C709 C690 1.429 . S
C709 C703 1.429 . S
C709 C710 1.523 . S
C710 C691 1.368 . S
C710 C704 1.368 . S
C710 C709 1.523 . S
C711 C695 1.429 . S
C711 C707 1.429 . S
C711 C712 1.523 . S
C712 C696 1.368 . S
C712 C708 1.368 . S
C712 C711 1.523 . S
H713 C688 0.950 . S
H714 C690 0.950 . S
H715 C691 0.949 . S
H716 C693 0.950 . S
H717 C695 0.950 . S
C718 C719 1.349 . S
C718 C720 1.327 . S
C718 H743 0.950 . S
C719 C718 1.349 . S
C719 C735 1.349 . S
C720 C718 1.327 . S
C720 C739 1.429 . S
C720 H744 0.950 . S
C721 C738 1.574 . S
C721 C740 1.368 . S
C721 H745 0.949 . S
H722 C726 0.949 . S
C723 C724 1.349 . S
C723 C725 1.327 . S
C723 H746 0.950 . S
C724 C723 1.349 . S
C724 C736 1.349 . S
C725 C723 1.327 . S
C725 C741 1.429 . S
C725 H747 0.950 . S
C726 H722 0.949 . S
C726 C734 1.574 . S
C726 C742 1.368 . S
H727 C735 0.950 . S
H728 C733 0.950 . S
H729 C734 0.949 . S
H730 C736 0.950 . S
H731 C737 0.950 . S
H732 C738 0.949 . S
C733 H728 0.950 . S
C733 C735 1.327 . S
C733 C739 1.429 . S
C734 C726 1.574 . S
C734 H729 0.949 . S
C734 C740 1.368 . S
C735 C719 1.349 . S
C735 H727 0.950 . S
C735 C733 1.327 . S
C736 C724 1.349 . S
C736 H730 0.950 . S
C736 C737 1.327 . S
C737 H731 0.950 . S
C737 C736 1.327 . S
C737 C741 1.429 . S
C738 C721 1.574 . S
C738 H732 0.949 . S
C738 C742 1.368 . S
C739 C720 1.429 . S
C739 C733 1.429 . S
C739 C740 1.523 . S
C740 C721 1.368 . S
C740 C734 1.368 . S
C740 C739 1.523 . S
C741 C725 1.429 . S
C741 C737 1.429 . S
C741 C742 1.523 . S
C742 C726 1.368 . S
C742 C738 1.368 . S
C742 C741 1.523 . S
H743 C718 0.950 . S
H744 C720 0.950 . S
H745 C721 0.949 . S
H746 C723 0.950 . S
H747 C725 0.950 . S
C748 C749 1.349 . S
C748 C750 1.327 . S
C748 H773 0.950 . S
C749 C748 1.349 . S
C749 C765 1.349 . S
C750 C748 1.327 . S
C750 C769 1.429 . S
C750 H774 0.950 1_556 S
C751 C768 1.574 . S
C751 C770 1.368 . S
C751 H775 0.949 . S
H752 C756 0.949 . S
C753 C754 1.349 . S
C753 C755 1.327 . S
C753 H776 0.950 . S
C754 C753 1.349 . S
C754 C766 1.349 . S
C755 C753 1.327 . S
C755 C771 1.429 . S
C755 H777 0.950 1_554 S
C756 H752 0.949 . S
C756 C764 1.574 . S
C756 C772 1.368 . S
H757 C765 0.950 . S
H758 C763 0.950 . S
H759 C764 0.949 . S
H760 C766 0.950 . S
H761 C767 0.950 . S
H762 C768 0.949 . S
C763 H758 0.950 . S
C763 C765 1.327 . S
C763 C769 1.429 . S
C764 C756 1.574 . S
C764 H759 0.949 . S
C764 C770 1.368 1_554 S
C765 C749 1.349 . S
C765 H757 0.950 . S
C765 C763 1.327 . S
C766 C754 1.349 . S
C766 H760 0.950 . S
C766 C767 1.327 . S
C767 H761 0.950 . S
C767 C766 1.327 . S
C767 C771 1.429 . S
C768 C751 1.574 . S
C768 H762 0.949 . S
C768 C772 1.368 1_556 S
C769 C750 1.429 . S
C769 C763 1.429 . S
C769 C770 1.523 . S
C770 C751 1.368 . S
C770 C764 1.368 1_556 S
C770 C769 1.523 . S
C771 C755 1.429 . S
C771 C767 1.429 . S
C771 C772 1.523 . S
C772 C756 1.368 . S
C772 C768 1.368 1_554 S
C772 C771 1.523 . S
H773 C748 0.950 . S
H774 C750 0.950 1_554 S
H775 C751 0.949 . S
H776 C753 0.950 . S
H777 C755 0.950 1_556 S
C778 C779 1.349 . S
C778 C780 1.327 . S
C778 H803 0.950 . S
C779 C778 1.349 . S
C779 C795 1.349 . S
C780 C778 1.327 . S
C780 C799 1.429 . S
C780 H804 0.950 . S
C781 C798 1.574 . S
C781 C800 1.368 . S
C781 H805 0.949 . S
H782 C786 0.949 . S
C783 C784 1.349 . S
C783 C785 1.327 . S
C783 H806 0.950 . S
C784 C783 1.349 . S
C784 C796 1.349 . S
C785 C783 1.327 . S
C785 C801 1.429 . S
C785 H807 0.950 . S
C786 H782 0.949 . S
C786 C794 1.574 . S
C786 C802 1.368 . S
H787 C795 0.950 . S
H788 C793 0.950 . S
H789 C794 0.949 . S
H790 C796 0.950 . S
H791 C797 0.950 . S
H792 C798 0.949 . S
C793 H788 0.950 . S
C793 C795 1.327 . S
C793 C799 1.429 . S
C794 C786 1.574 . S
C794 H789 0.949 . S
C794 C800 1.368 . S
C795 C779 1.349 . S
C795 H787 0.950 . S
C795 C793 1.327 . S
C796 C784 1.349 . S
C796 H790 0.950 . S
C796 C797 1.327 . S
C797 H791 0.950 . S
C797 C796 1.327 . S
C797 C801 1.429 . S
C798 C781 1.574 . S
C798 H792 0.949 . S
C798 C802 1.368 . S
C799 C780 1.429 . S
C799 C793 1.429 . S
C799 C800 1.523 . S
C800 C781 1.368 . S
C800 C794 1.368 . S
C800 C799 1.523 . S
C801 C785 1.429 . S
C801 C797 1.429 . S
C801 C802 1.523 . S
C802 C786 1.368 . S
C802 C798 1.368 . S
C802 C801 1.523 . S
H803 C778 0.950 . S
H804 C780 0.950 . S
H805 C781 0.949 . S
H806 C783 0.950 . S
H807 C785 0.950 . S
C808 C809 1.349 . S
C808 C810 1.327 . S
C808 H833 0.950 . S
C809 C808 1.349 . S
C809 C825 1.349 . S
C810 C808 1.327 . S
C810 C829 1.429 . S
C810 H834 0.950 . S
C811 C828 1.574 . S
C811 C830 1.368 . S
C811 H835 0.949 . S
H812 C816 0.949 . S
C813 C814 1.349 . S
C813 C815 1.327 . S
C813 H836 0.950 . S
C814 C813 1.349 . S
C814 C826 1.349 . S
C815 C813 1.327 . S
C815 C831 1.429 . S
C815 H837 0.950 . S
C816 H812 0.949 . S
C816 C824 1.574 . S
C816 C832 1.368 . S
H817 C825 0.950 . S
H818 C823 0.950 . S
H819 C824 0.949 . S
H820 C826 0.950 . S
H821 C827 0.950 . S
H822 C828 0.949 . S
C823 H818 0.950 . S
C823 C825 1.327 . S
C823 C829 1.429 . S
C824 C816 1.574 . S
C824 H819 0.949 . S
C824 C830 1.368 . S
C825 C809 1.349 . S
C825 H817 0.950 . S
C825 C823 1.327 . S
C826 C814 1.349 . S
C826 H820 0.950 . S
C826 C827 1.327 . S
C827 H821 0.950 . S
C827 C826 1.327 . S
C827 C831 1.429 . S
C828 C811 1.574 . S
C828 H822 0.949 . S
C828 C832 1.368 . S
C829 C810 1.429 . S
C829 C823 1.429 . S
C829 C830 1.523 . S
C830 C811 1.368 . S
C830 C824 1.368 . S
C830 C829 1.523 . S
C831 C815 1.429 . S
C831 C827 1.429 . S
C831 C832 1.523 . S
C832 C816 1.368 . S
C832 C828 1.368 . S
C832 C831 1.523 . S
H833 C808 0.950 . S
H834 C810 0.950 . S
H835 C811 0.949 . S
H836 C813 0.950 . S
H837 C815 0.950 . S
C838 C839 1.349 . S
C838 C840 1.327 . S
C838 H863 0.950 . S
C839 C838 1.349 . S
C839 C855 1.349 . S
C840 C838 1.327 . S
C840 C859 1.429 . S
C840 H864 0.950 . S
C841 C858 1.574 . S
C841 C860 1.368 . S
C841 H865 0.949 . S
H842 C846 0.949 . S
C843 C844 1.349 . S
C843 C845 1.327 . S
C843 H866 0.950 . S
C844 C843 1.349 . S
C844 C856 1.349 . S
C845 C843 1.327 . S
C845 C861 1.429 . S
C845 H867 0.950 . S
C846 H842 0.949 . S
C846 C854 1.574 . S
C846 C862 1.368 . S
H847 C855 0.950 . S
H848 C853 0.950 . S
H849 C854 0.949 . S
H850 C856 0.950 . S
H851 C857 0.950 . S
H852 C858 0.949 . S
C853 H848 0.950 . S
C853 C855 1.327 . S
C853 C859 1.429 . S
C854 C846 1.574 . S
C854 H849 0.949 . S
C854 C860 1.368 . S
C855 C839 1.349 . S
C855 H847 0.950 . S
C855 C853 1.327 . S
C856 C844 1.349 . S
C856 H850 0.950 . S
C856 C857 1.327 . S
C857 H851 0.950 . S
C857 C856 1.327 . S
C857 C861 1.429 . S
C858 C841 1.574 . S
C858 H852 0.949 . S
C858 C862 1.368 . S
C859 C840 1.429 . S
C859 C853 1.429 . S
C859 C860 1.523 . S
C860 C841 1.368 . S
C860 C854 1.368 . S
C860 C859 1.523 . S
C861 C845 1.429 . S
C861 C857 1.429 . S
C861 C862 1.523 . S
C862 C846 1.368 . S
C862 C858 1.368 . S
C862 C861 1.523 . S
H863 C838 0.950 . S
H864 C840 0.950 . S
H865 C841 0.949 . S
H866 C843 0.950 . S
H867 C845 0.950 . S
C868 C869 1.349 . S
C868 C870 1.327 . S
C868 H893 0.950 . S
C869 C868 1.349 . S
C869 C885 1.349 . S
C870 C868 1.327 . S
C870 C889 1.429 . S
C870 H894 0.950 . S
C871 C888 1.574 . S
C871 C890 1.368 1_556 S
C871 H895 0.949 . S
H872 C876 0.949 . S
C873 C874 1.349 . S
C873 C875 1.327 . S
C873 H896 0.950 . S
C874 C873 1.349 . S
C874 C886 1.349 . S
C875 C873 1.327 . S
C875 C891 1.429 . S
C875 H897 0.950 . S
C876 H872 0.949 . S
C876 C884 1.574 . S
C876 C892 1.368 1_554 S
H877 C885 0.950 . S
H878 C883 0.950 1_556 S
H879 C884 0.949 . S
H880 C886 0.950 . S
H881 C887 0.950 1_554 S
H882 C888 0.949 . S
C883 H878 0.950 1_554 S
C883 C885 1.327 . S
C883 C889 1.429 . S
C884 C876 1.574 . S
C884 H879 0.949 . S
C884 C890 1.368 . S
C885 C869 1.349 . S
C885 H877 0.950 . S
C885 C883 1.327 . S
C886 C874 1.349 . S
C886 H880 0.950 . S
C886 C887 1.327 . S
C887 H881 0.950 1_556 S
C887 C886 1.327 . S
C887 C891 1.429 . S
C888 C871 1.574 . S
C888 H882 0.949 . S
C888 C892 1.368 . S
C889 C870 1.429 . S
C889 C883 1.429 . S
C889 C890 1.523 . S
C890 C871 1.368 1_554 S
C890 C884 1.368 . S
C890 C889 1.523 . S
C891 C875 1.429 . S
C891 C887 1.429 . S
C891 C892 1.523 . S
C892 C876 1.368 1_556 S
C892 C888 1.368 . S
C892 C891 1.523 . S
H893 C868 0.950 . S
H894 C870 0.950 . S
H895 C871 0.949 . S
H896 C873 0.950 . S
H897 C875 0.950 . S
C898 C899 1.349 . S
C898 C900 1.327 . S
C898 H923 0.950 . S
C899 C898 1.349 . S
C899 C915 1.349 . S
C900 C898 1.327 . S
C900 C919 1.429 . S
C900 H924 0.950 . S
C901 C918 1.574 . S
C901 C920 1.368 . S
C901 H925 0.949 . S
H902 C906 0.949 . S
C903 C904 1.349 . S
C903 C905 1.327 . S
C903 H926 0.950 . S
C904 C903 1.349 . S
C904 C916 1.349 . S
C905 C903 1.327 . S
C905 C921 1.429 . S
C905 H927 0.950 . S
C906 H902 0.949 . S
C906 C914 1.574 . S
C906 C922 1.368 . S
H907 C915 0.950 . S
H908 C913 0.950 . S
H909 C914 0.949 . S
H910 C916 0.950 . S
H911 C917 0.950 . S
H912 C918 0.949 . S
C913 H908 0.950 . S
C913 C915 1.327 . S
C913 C919 1.429 . S
C914 C906 1.574 . S
C914 H909 0.949 . S
C914 C920 1.368 . S
C915 C899 1.349 . S
C915 H907 0.950 . S
C915 C913 1.327 . S
C916 C904 1.349 . S
C916 H910 0.950 . S
C916 C917 1.327 . S
C917 H911 0.950 . S
C917 C916 1.327 . S
C917 C921 1.429 . S
C918 C901 1.574 . S
C918 H912 0.949 . S
C918 C922 1.368 . S
C919 C900 1.429 . S
C919 C913 1.429 . S
C919 C920 1.523 . S
C920 C901 1.368 . S
C920 C914 1.368 . S
C920 C919 1.523 . S
C921 C905 1.429 . S
C921 C917 1.429 . S
C921 C922 1.523 . S
C922 C906 1.368 . S
C922 C918 1.368 . S
C922 C921 1.523 . S
H923 C898 0.950 . S
H924 C900 0.950 . S
H925 C901 0.949 . S
H926 C903 0.950 . S
H927 C905 0.950 . S
C928 C929 1.349 . S
C928 C930 1.327 . S
C928 H953 0.950 . S
C929 C928 1.349 . S
C929 C945 1.349 . S
C930 C928 1.327 . S
C930 C949 1.429 . S
C930 H954 0.950 . S
C931 C948 1.574 . S
C931 C950 1.368 . S
C931 H955 0.949 . S
H932 C936 0.949 . S
C933 C934 1.349 . S
C933 C935 1.327 . S
C933 H956 0.950 . S
C934 C933 1.349 . S
C934 C946 1.349 . S
C935 C933 1.327 . S
C935 C951 1.429 . S
C935 H957 0.950 . S
C936 H932 0.949 . S
C936 C944 1.574 . S
C936 C952 1.368 . S
H937 C945 0.950 . S
H938 C943 0.950 . S
H939 C944 0.949 . S
H940 C946 0.950 . S
H941 C947 0.950 . S
H942 C948 0.949 . S
C943 H938 0.950 . S
C943 C945 1.327 . S
C943 C949 1.429 . S
C944 C936 1.574 . S
C944 H939 0.949 . S
C944 C950 1.368 . S
C945 C929 1.349 . S
C945 H937 0.950 . S
C945 C943 1.327 . S
C946 C934 1.349 . S
C946 H940 0.950 . S
C946 C947 1.327 . S
C947 H941 0.950 . S
C947 C946 1.327 . S
C947 C951 1.429 . S
C948 C931 1.574 . S
C948 H942 0.949 . S
C948 C952 1.368 . S
C949 C930 1.429 . S
C949 C943 1.429 . S
C949 C950 1.523 . S
C950 C931 1.368 . S
C950 C944 1.368 . S
C950 C949 1.523 . S
C951 C935 1.429 . S
C951 C947 1.429 . S
C951 C952 1.523 . S
C952 C936 1.368 . S
C952 C948 1.368 . S
C952 C951 1.523 . S
H953 C928 0.950 . S
H954 C930 0.950 . S
H955 C931 0.949 . S
H956 C933 0.950 . S
H957 C935 0.950 . S
C958 C959 1.349 . S
C958 C960 1.327 . S
C958 H983 0.950 . S
C959 C958 1.349 . S
C959 C975 1.349 . S
C960 C958 1.327 . S
C960 C979 1.429 . S
C960 H984 0.950 . S
C961 C978 1.574 . S
C961 C980 1.368 1_655 S
C961 H985 0.949 . S
H962 C966 0.949 . S
C963 C964 1.349 . S
C963 C965 1.327 . S
C963 H986 0.950 . S
C964 C963 1.349 . S
C964 C976 1.349 . S
C965 C963 1.327 . S
C965 C981 1.429 . S
C965 H987 0.950 . S
C966 H962 0.949 . S
C966 C974 1.574 . S
C966 C982 1.368 1_455 S
H967 C975 0.950 . S
H968 C973 0.985 . S
H969 C974 0.949 . S
H970 C976 0.950 . S
H971 C977 0.950 . S
H972 C978 0.949 . S
C973 H968 0.985 . S
C973 C975 1.327 . S
C973 C979 1.429 . S
C974 C966 1.574 . S
C974 H969 0.949 . S
C974 C980 1.368 . S
C975 C959 1.349 . S
C975 H967 0.950 . S
C975 C973 1.327 . S
C976 C964 1.349 . S
C976 H970 0.950 . S
C976 C977 1.327 . S
C977 H971 0.950 . S
C977 C976 1.327 . S
C977 C981 1.429 . S
C978 C961 1.574 . S
C978 H972 0.949 . S
C978 C982 1.368 . S
C979 C960 1.429 . S
C979 C973 1.429 . S
C979 C980 1.523 1_556 S
C980 C961 1.368 1_455 S
C980 C974 1.368 . S
C980 C979 1.523 1_554 S
C981 C965 1.429 . S
C981 C977 1.429 . S
C981 C982 1.523 . S
C982 C966 1.368 1_655 S
C982 C978 1.368 . S
C982 C981 1.523 . S
H983 C958 0.950 . S
H984 C960 0.950 . S
H985 C961 0.949 . S
H986 C963 0.950 . S
H987 C965 0.950 . S
C988 C989 1.349 . S
C988 C990 1.327 . S
C988 H1013 0.950 . S
C989 C988 1.349 . S
C989 C1005 1.349 . S
C990 C988 1.327 . S
C990 C1009 1.429 . S
C990 H1014 0.950 . S
C991 C1008 1.574 . S
C991 C1010 1.368 . S
C991 H1015 0.949 . S
H992 C996 0.949 . S
C993 C994 1.349 . S
C993 C995 1.327 . S
C993 H1016 0.950 . S
C994 C993 1.349 . S
C994 C1006 1.349 . S
C995 C993 1.327 . S
C995 C1011 1.429 . S
C995 H1017 0.950 . S
C996 H992 0.949 . S
C996 C1004 1.574 . S
C996 C1012 1.368 . S
H997 C1005 0.950 . S
H998 C1003 0.950 . S
H999 C1004 0.949 . S
H1000 C1006 0.950 . S
H1001 C1007 0.950 . S
H1002 C1008 0.949 . S
C1003 H998 0.950 . S
C1003 C1005 1.327 . S
C1003 C1009 1.429 . S
C1004 C996 1.574 . S
C1004 H999 0.949 . S
C1004 C1010 1.368 . S
C1005 C989 1.349 . S
C1005 H997 0.950 . S
C1005 C1003 1.327 . S
C1006 C994 1.349 . S
C1006 H1000 0.950 . S
C1006 C1007 1.327 . S
C1007 H1001 0.950 . S
C1007 C1006 1.327 . S
C1007 C1011 1.429 . S
C1008 C991 1.574 . S
C1008 H1002 0.949 . S
C1008 C1012 1.368 . S
C1009 C990 1.429 . S
C1009 C1003 1.429 . S
C1009 C1010 1.523 . S
C1010 C991 1.368 . S
C1010 C1004 1.368 . S
C1010 C1009 1.523 . S
C1011 C995 1.429 . S
C1011 C1007 1.429 . S
C1011 C1012 1.523 . S
C1012 C996 1.368 . S
C1012 C1008 1.368 . S
C1012 C1011 1.523 . S
H1013 C988 0.950 . S
H1014 C990 0.950 . S
H1015 C991 0.949 . S
H1016 C993 0.950 . S
H1017 C995 0.950 . S
C1018 C1019 1.349 . S
C1018 C1020 1.327 . S
C1018 H1043 0.950 . S
C1019 C1018 1.349 . S
C1019 C1035 1.349 . S
C1020 C1018 1.327 . S
C1020 C1039 1.429 . S
C1020 H1044 0.950 . S
C1021 C1038 1.574 . S
C1021 C1040 1.368 . S
C1021 H1045 0.949 . S
H1022 C1026 0.949 . S
C1023 C1024 1.349 . S
C1023 C1025 1.327 . S
C1023 H1046 0.950 . S
C1024 C1023 1.349 . S
C1024 C1036 1.349 . S
C1025 C1023 1.327 . S
C1025 C1041 1.429 . S
C1025 H1047 0.950 . S
C1026 H1022 0.949 . S
C1026 C1034 1.574 . S
C1026 C1042 1.368 . S
H1027 C1035 0.950 . S
H1028 C1033 0.950 . S
H1029 C1034 0.949 . S
H1030 C1036 0.950 . S
H1031 C1037 0.950 . S
H1032 C1038 0.949 . S
C1033 H1028 0.950 . S
C1033 C1035 1.327 . S
C1033 C1039 1.429 . S
C1034 C1026 1.574 . S
C1034 H1029 0.949 . S
C1034 C1040 1.368 . S
C1035 C1019 1.349 . S
C1035 H1027 0.950 . S
C1035 C1033 1.327 . S
C1036 C1024 1.349 . S
C1036 H1030 0.950 . S
C1036 C1037 1.327 . S
C1037 H1031 0.950 . S
C1037 C1036 1.327 . S
C1037 C1041 1.429 . S
C1038 C1021 1.574 . S
C1038 H1032 0.949 . S
C1038 C1042 1.368 . S
C1039 C1020 1.429 . S
C1039 C1033 1.429 . S
C1039 C1040 1.523 . S
C1040 C1021 1.368 . S
C1040 C1034 1.368 . S
C1040 C1039 1.523 . S
C1041 C1025 1.429 . S
C1041 C1037 1.429 . S
C1041 C1042 1.523 . S
C1042 C1026 1.368 . S
C1042 C1038 1.368 . S
C1042 C1041 1.523 . S
H1043 C1018 0.950 . S
H1044 C1020 0.950 . S
H1045 C1021 0.949 . S
H1046 C1023 0.950 . S
H1047 C1025 0.950 . S
C1048 C1049 1.349 . S
C1048 C1050 1.327 . S
C1048 H1073 0.950 . S
C1049 C1048 1.349 . S
C1049 C1065 1.349 . S
C1050 C1048 1.327 . S
C1050 C1069 1.429 . S
C1050 H1074 0.950 . S
C1051 C1068 1.574 . S
C1051 C1070 1.368 . S
C1051 H1075 0.949 . S
H1052 C1056 0.949 . S
C1053 C1054 1.349 . S
C1053 C1055 1.327 . S
C1053 H1076 0.950 . S
C1054 C1053 1.349 . S
C1054 C1066 1.349 . S
C1055 C1053 1.327 . S
C1055 C1071 1.429 . S
C1055 H1077 0.950 . S
C1056 H1052 0.949 . S
C1056 C1064 1.574 . S
C1056 C1072 1.368 . S
H1057 C1065 0.950 . S
H1058 C1063 0.950 . S
H1059 C1064 0.949 . S
H1060 C1066 0.950 . S
H1061 C1067 0.950 . S
H1062 C1068 0.949 . S
C1063 H1058 0.950 . S
C1063 C1065 1.327 . S
C1063 C1069 1.429 . S
C1064 C1056 1.574 . S
C1064 H1059 0.949 . S
C1064 C1070 1.368 . S
C1065 C1049 1.349 . S
C1065 H1057 0.950 . S
C1065 C1063 1.327 . S
C1066 C1054 1.349 . S
C1066 H1060 0.950 . S
C1066 C1067 1.327 . S
C1067 H1061 0.950 . S
C1067 C1066 1.327 . S
C1067 C1071 1.429 . S
C1068 C1051 1.574 . S
C1068 H1062 0.949 . S
C1068 C1072 1.368 . S
C1069 C1050 1.429 . S
C1069 C1063 1.429 . S
C1069 C1070 1.523 . S
C1070 C1051 1.368 . S
C1070 C1064 1.368 . S
C1070 C1069 1.523 . S
C1071 C1055 1.429 . S
C1071 C1067 1.429 . S
C1071 C1072 1.523 . S
C1072 C1056 1.368 . S
C1072 C1068 1.368 . S
C1072 C1071 1.523 . S
H1073 C1048 0.950 . S
H1074 C1050 0.950 . S
H1075 C1051 0.949 . S
H1076 C1053 0.950 . S
H1077 C1055 0.950 . S
C1078 C1079 1.349 . S
C1078 C1080 1.327 . S
C1078 H1103 0.950 . S
C1079 C1078 1.349 . S
C1079 C1095 1.349 . S
C1080 C1078 1.327 . S
C1080 C1099 1.429 . S
C1080 H1104 0.950 . S
C1081 C1098 1.574 . S
C1081 C1100 1.368 . S
C1081 H1105 0.949 . S
H1082 C1086 0.949 . S
C1083 C1084 1.349 . S
C1083 C1085 1.327 . S
C1083 H1106 0.950 . S
C1084 C1083 1.349 . S
C1084 C1096 1.349 . S
C1085 C1083 1.327 . S
C1085 C1101 1.429 . S
C1085 H1107 0.950 . S
C1086 H1082 0.949 . S
C1086 C1094 1.574 . S
C1086 C1102 1.368 . S
H1087 C1095 0.950 . S
H1088 C1093 0.950 . S
H1089 C1094 0.949 . S
H1090 C1096 0.950 . S
H1091 C1097 0.950 . S
H1092 C1098 0.949 . S
C1093 H1088 0.950 . S
C1093 C1095 1.327 . S
C1093 C1099 1.429 . S
C1094 C1086 1.574 . S
C1094 H1089 0.949 . S
C1094 C1100 1.368 . S
C1095 C1079 1.349 . S
C1095 H1087 0.950 . S
C1095 C1093 1.327 . S
C1096 C1084 1.349 . S
C1096 H1090 0.950 . S
C1096 C1097 1.327 . S
C1097 H1091 0.950 . S
C1097 C1096 1.327 . S
C1097 C1101 1.429 . S
C1098 C1081 1.574 . S
C1098 H1092 0.949 . S
C1098 C1102 1.368 . S
C1099 C1080 1.429 . S
C1099 C1093 1.429 . S
C1099 C1100 1.523 1_554 S
C1100 C1081 1.368 . S
C1100 C1094 1.368 . S
C1100 C1099 1.523 1_556 S
C1101 C1085 1.429 . S
C1101 C1097 1.429 . S
C1101 C1102 1.523 . S
C1102 C1086 1.368 . S
C1102 C1098 1.368 . S
C1102 C1101 1.523 . S
H1103 C1078 0.950 . S
H1104 C1080 0.950 . S
H1105 C1081 0.949 . S
H1106 C1083 0.950 . S
H1107 C1085 0.950 . S
C1108 C1109 1.349 . S
C1108 C1110 1.327 . S
C1108 H1133 0.950 . S
C1109 C1108 1.349 . S
C1109 C1125 1.349 . S
C1110 C1108 1.327 . S
C1110 C1129 1.429 . S
C1110 H1134 0.950 . S
C1111 C1128 1.574 . S
C1111 C1130 1.368 . S
C1111 H1135 0.949 . S
H1112 C1116 0.949 . S
C1113 C1114 1.349 . S
C1113 C1115 1.327 . S
C1113 H1136 0.950 . S
C1114 C1113 1.349 . S
C1114 C1126 1.349 . S
C1115 C1113 1.327 . S
C1115 C1131 1.429 . S
C1115 H1137 0.950 . S
C1116 H1112 0.949 . S
C1116 C1124 1.574 . S
C1116 C1132 1.368 . S
H1117 C1125 0.950 . S
H1118 C1123 0.950 . S
H1119 C1124 0.949 . S
H1120 C1126 0.950 . S
H1121 C1127 0.950 . S
H1122 C1128 0.949 . S
C1123 H1118 0.950 . S
C1123 C1125 1.327 . S
C1123 C1129 1.429 . S
C1124 C1116 1.574 . S
C1124 H1119 0.949 . S
C1124 C1130 1.368 . S
C1125 C1109 1.349 . S
C1125 H1117 0.950 . S
C1125 C1123 1.327 . S
C1126 C1114 1.349 . S
C1126 H1120 0.950 . S
C1126 C1127 1.327 . S
C1127 H1121 0.950 . S
C1127 C1126 1.327 . S
C1127 C1131 1.429 . S
C1128 C1111 1.574 . S
C1128 H1122 0.949 . S
C1128 C1132 1.368 . S
C1129 C1110 1.429 . S
C1129 C1123 1.429 . S
C1129 C1130 1.523 . S
C1130 C1111 1.368 . S
C1130 C1124 1.368 . S
C1130 C1129 1.523 . S
C1131 C1115 1.429 . S
C1131 C1127 1.429 . S
C1131 C1132 1.523 . S
C1132 C1116 1.368 . S
C1132 C1128 1.368 . S
C1132 C1131 1.523 . S
H1133 C1108 0.950 . S
H1134 C1110 0.950 . S
H1135 C1111 0.949 . S
H1136 C1113 0.950 . S
H1137 C1115 0.950 . S
C1138 C1139 1.349 . S
C1138 C1140 1.327 . S
C1138 H1163 0.950 . S
C1139 C1138 1.349 . S
C1139 C1155 1.349 . S
C1140 C1138 1.327 . S
C1140 C1159 1.429 . S
C1140 H1164 0.950 . S
C1141 C1158 1.574 . S
C1141 C1160 1.368 1_655 S
C1141 H1165 0.949 . S
H1142 C1146 0.959 . S
C1143 C1144 1.349 . S
C1143 C1145 1.327 . S
C1143 H1166 0.950 . S
C1144 C1143 1.349 . S
C1144 C1156 1.349 . S
C1145 C1143 1.327 . S
C1145 C1161 1.429 . S
C1145 H1167 0.950 . S
C1146 H1142 0.959 . S
C1146 C1154 1.604 . S
C1146 C1162 1.333 1_455 S
H1147 C1155 0.950 . S
H1148 C1153 0.950 . S
H1149 C1154 0.949 . S
H1150 C1156 0.950 . S
H1151 C1157 0.950 . S
H1152 C1158 0.949 . S
C1153 H1148 0.950 . S
C1153 C1155 1.327 . S
C1153 C1159 1.429 . S
C1154 C1146 1.604 . S
C1154 H1149 0.949 . S
C1154 C1160 1.368 . S
C1155 C1139 1.349 . S
C1155 H1147 0.950 . S
C1155 C1153 1.327 . S
C1156 C1144 1.349 . S
C1156 H1150 0.950 . S
C1156 C1157 1.327 . S
C1157 H1151 0.950 . S
C1157 C1156 1.327 . S
C1157 C1161 1.429 . S
C1158 C1141 1.574 . S
C1158 H1152 0.949 . S
C1158 C1162 1.368 . S
C1159 C1140 1.429 . S
C1159 C1153 1.429 . S
C1159 C1160 1.523 . S
C1160 C1141 1.368 1_455 S
C1160 C1154 1.368 . S
C1160 C1159 1.523 . S
C1161 C1145 1.429 . S
C1161 C1157 1.429 . S
C1161 C1162 1.523 . S
C1162 C1146 1.333 1_655 S
C1162 C1158 1.368 . S
C1162 C1161 1.523 . S
H1163 C1138 0.950 . S
H1164 C1140 0.950 . S
H1165 C1141 0.949 . S
H1166 C1143 0.950 . S
H1167 C1145 0.950 . S
C1168 C1169 1.349 . S
C1168 C1170 1.327 . S
C1168 H1193 0.950 . S
C1169 C1168 1.349 . S
C1169 C1185 1.349 . S
C1170 C1168 1.327 . S
C1170 C1189 1.429 . S
C1170 H1194 0.950 . S
C1171 C1188 1.574 . S
C1171 C1190 1.368 . S
C1171 H1195 0.949 . S
H1172 C1176 0.949 . S
C1173 C1174 1.349 . S
C1173 C1175 1.327 . S
C1173 H1196 0.950 . S
C1174 C1173 1.349 . S
C1174 C1186 1.349 . S
C1175 C1173 1.327 . S
C1175 C1191 1.429 . S
C1175 H1197 0.950 . S
C1176 H1172 0.949 . S
C1176 C1184 1.574 . S
C1176 C1192 1.368 . S
H1177 C1185 0.950 . S
H1178 C1183 0.950 . S
H1179 C1184 0.949 . S
H1180 C1186 0.950 . S
H1181 C1187 0.950 . S
H1182 C1188 0.949 . S
C1183 H1178 0.950 . S
C1183 C1185 1.327 . S
C1183 C1189 1.429 . S
C1184 C1176 1.574 . S
C1184 H1179 0.949 . S
C1184 C1190 1.368 . S
C1185 C1169 1.349 . S
C1185 H1177 0.950 . S
C1185 C1183 1.327 . S
C1186 C1174 1.349 . S
C1186 H1180 0.950 . S
C1186 C1187 1.327 . S
C1187 H1181 0.950 . S
C1187 C1186 1.327 . S
C1187 C1191 1.429 . S
C1188 C1171 1.574 . S
C1188 H1182 0.949 . S
C1188 C1192 1.368 . S
C1189 C1170 1.429 . S
C1189 C1183 1.429 . S
C1189 C1190 1.523 . S
C1190 C1171 1.368 . S
C1190 C1184 1.368 . S
C1190 C1189 1.523 . S
C1191 C1175 1.429 . S
C1191 C1187 1.429 . S
C1191 C1192 1.523 . S
C1192 C1176 1.368 . S
C1192 C1188 1.368 . S
C1192 C1191 1.523 . S
H1193 C1168 0.950 . S
H1194 C1170 0.950 . S
H1195 C1171 0.949 . S
H1196 C1173 0.950 . S
H1197 C1175 0.950 . S
C1198 C1199 1.349 . S
C1198 C1200 1.327 . S
C1198 H1223 0.950 . S
C1199 C1198 1.349 . S
C1199 C1215 1.349 . S
C1200 C1198 1.327 . S
C1200 C1219 1.429 . S
C1200 H1224 0.993 . S
C1201 C1218 1.574 . S
C1201 C1220 1.368 . S
C1201 H1225 0.949 . S
H1202 C1206 0.949 . S
C1203 C1204 1.349 . S
C1203 C1205 1.327 . S
C1203 H1226 0.950 . S
C1204 C1203 1.349 . S
C1204 C1216 1.349 . S
C1205 C1203 1.327 . S
C1205 C1221 1.429 . S
C1205 H1227 0.950 . S
C1206 H1202 0.949 . S
C1206 C1214 1.574 . S
C1206 C1222 1.368 . S
H1207 C1215 0.950 . S
H1208 C1213 0.950 . S
H1209 C1214 0.949 . S
H1210 C1216 0.950 . S
H1211 C1217 0.950 . S
H1212 C1218 0.949 . S
C1213 H1208 0.950 . S
C1213 C1215 1.327 . S
C1213 C1219 1.429 . S
C1214 C1206 1.574 . S
C1214 H1209 0.949 . S
C1214 C1220 1.368 1_455 S
C1215 C1199 1.349 . S
C1215 H1207 0.950 . S
C1215 C1213 1.327 . S
C1216 C1204 1.349 . S
C1216 H1210 0.950 . S
C1216 C1217 1.327 . S
C1217 H1211 0.950 . S
C1217 C1216 1.327 . S
C1217 C1221 1.429 . S
C1218 C1201 1.574 . S
C1218 H1212 0.949 . S
C1218 C1222 1.368 1_655 S
C1219 C1200 1.429 . S
C1219 C1213 1.429 . S
C1219 C1220 1.523 1_554 S
C1220 C1201 1.368 . S
C1220 C1214 1.368 1_655 S
C1220 C1219 1.523 1_556 S
C1221 C1205 1.429 . S
C1221 C1217 1.429 . S
C1221 C1222 1.523 . S
C1222 C1206 1.368 . S
C1222 C1218 1.368 1_455 S
C1222 C1221 1.523 . S
H1223 C1198 0.950 . S
H1224 C1200 0.993 . S
H1225 C1201 0.949 . S
H1226 C1203 0.950 . S
H1227 C1205 0.950 . S
C1228 C1229 1.349 . S
C1228 C1230 1.327 . S
C1228 H1253 0.950 . S
C1229 C1228 1.349 . S
C1229 C1245 1.349 . S
C1230 C1228 1.327 . S
C1230 C1249 1.429 . S
C1230 H1254 0.950 . S
C1231 C1248 1.574 . S
C1231 C1250 1.368 . S
C1231 H1255 0.949 . S
H1232 C1236 0.949 . S
C1233 C1234 1.349 . S
C1233 C1235 1.327 . S
C1233 H1256 0.950 . S
C1234 C1233 1.349 . S
C1234 C1246 1.349 . S
C1235 C1233 1.327 . S
C1235 C1251 1.429 . S
C1235 H1257 0.950 . S
C1236 H1232 0.949 . S
C1236 C1244 1.574 . S
C1236 C1252 1.368 . S
H1237 C1245 0.950 . S
H1238 C1243 0.950 . S
H1239 C1244 0.949 . S
H1240 C1246 0.950 . S
H1241 C1247 0.950 . S
H1242 C1248 0.949 . S
C1243 H1238 0.950 . S
C1243 C1245 1.327 . S
C1243 C1249 1.429 . S
C1244 C1236 1.574 . S
C1244 H1239 0.949 . S
C1244 C1250 1.368 . S
C1245 C1229 1.349 . S
C1245 H1237 0.950 . S
C1245 C1243 1.327 . S
C1246 C1234 1.349 . S
C1246 H1240 0.950 . S
C1246 C1247 1.327 . S
C1247 H1241 0.950 . S
C1247 C1246 1.327 . S
C1247 C1251 1.429 . S
C1248 C1231 1.574 . S
C1248 H1242 0.949 . S
C1248 C1252 1.368 . S
C1249 C1230 1.429 . S
C1249 C1243 1.429 . S
C1249 C1250 1.523 . S
C1250 C1231 1.368 . S
C1250 C1244 1.368 . S
C1250 C1249 1.523 . S
C1251 C1235 1.429 . S
C1251 C1247 1.429 . S
C1251 C1252 1.523 . S
C1252 C1236 1.368 . S
C1252 C1248 1.368 . S
C1252 C1251 1.523 . S
H1253 C1228 0.950 . S
H1254 C1230 0.950 . S
H1255 C1231 0.949 . S
H1256 C1233 0.950 . S
H1257 C1235 0.950 . S
C1258 C1259 1.349 . S
C1258 C1260 1.327 . S
C1258 H1283 0.950 . S
C1259 C1258 1.349 . S
C1259 C1275 1.349 . S
C1260 C1258 1.327 . S
C1260 C1279 1.429 . S
C1260 H1284 0.950 . S
C1261 C1278 1.574 . S
C1261 C1280 1.368 . S
C1261 H1285 0.949 . S
H1262 C1266 0.949 . S
C1263 C1264 1.349 . S
C1263 C1265 1.327 . S
C1263 H1286 0.950 . S
C1264 C1263 1.349 . S
C1264 C1276 1.349 . S
C1265 C1263 1.327 . S
C1265 C1281 1.429 . S
C1265 H1287 0.950 . S
C1266 H1262 0.949 . S
C1266 C1274 1.574 . S
C1266 C1282 1.368 . S
H1267 C1275 0.950 . S
H1268 C1273 0.950 . S
H1269 C1274 0.949 . S
H1270 C1276 0.950 . S
H1271 C1277 0.950 . S
H1272 C1278 0.949 . S
C1273 H1268 0.950 . S
C1273 C1275 1.327 . S
C1273 C1279 1.429 . S
C1274 C1266 1.574 . S
C1274 H1269 0.949 . S
C1274 C1280 1.368 . S
C1275 C1259 1.349 . S
C1275 H1267 0.950 . S
C1275 C1273 1.327 . S
C1276 C1264 1.349 . S
C1276 H1270 0.950 . S
C1276 C1277 1.327 . S
C1277 H1271 0.950 . S
C1277 C1276 1.327 . S
C1277 C1281 1.429 . S
C1278 C1261 1.574 . S
C1278 H1272 0.949 . S
C1278 C1282 1.368 . S
C1279 C1260 1.429 . S
C1279 C1273 1.429 . S
C1279 C1280 1.523 . S
C1280 C1261 1.368 . S
C1280 C1274 1.368 . S
C1280 C1279 1.523 . S
C1281 C1265 1.429 . S
C1281 C1277 1.429 . S
C1281 C1282 1.523 . S
C1282 C1266 1.368 . S
C1282 C1278 1.368 . S
C1282 C1281 1.523 . S
H1283 C1258 0.950 . S
H1284 C1260 0.950 . S
H1285 C1261 0.949 . S
H1286 C1263 0.950 . S
H1287 C1265 0.950 . S
C1288 C1289 1.349 . S
C1288 C1290 1.327 . S
C1288 H1313 0.950 . S
C1289 C1288 1.349 . S
C1289 C1305 1.349 . S
C1290 C1288 1.327 . S
C1290 C1309 1.429 . S
C1290 H1314 0.950 . S
C1291 C1308 1.574 . S
C1291 C1310 1.368 . S
C1291 H1315 0.949 . S
H1292 C1296 0.949 . S
C1293 C1294 1.349 . S
C1293 C1295 1.327 . S
C1293 H1316 0.950 . S
C1294 C1293 1.349 . S
C1294 C1306 1.349 . S
C1295 C1293 1.327 . S
C1295 C1311 1.429 . S
C1295 H1317 0.950 . S
C1296 H1292 0.949 . S
C1296 C1304 1.574 . S
C1296 C1312 1.368 . S
H1297 C1305 0.950 . S
H1298 C1303 0.950 . S
H1299 C1304 0.949 . S
H1300 C1306 0.950 . S
H1301 C1307 0.950 . S
H1302 C1308 0.949 . S
C1303 H1298 0.950 . S
C1303 C1305 1.327 . S
C1303 C1309 1.429 . S
C1304 C1296 1.574 . S
C1304 H1299 0.949 . S
C1304 C1310 1.368 . S
C1305 C1289 1.349 . S
C1305 H1297 0.950 . S
C1305 C1303 1.327 . S
C1306 C1294 1.349 . S
C1306 H1300 0.950 . S
C1306 C1307 1.327 . S
C1307 H1301 0.950 . S
C1307 C1306 1.327 . S
C1307 C1311 1.429 . S
C1308 C1291 1.574 . S
C1308 H1302 0.949 . S
C1308 C1312 1.368 . S
C1309 C1290 1.429 . S
C1309 C1303 1.429 . S
C1309 C1310 1.523 . S
C1310 C1291 1.368 . S
C1310 C1304 1.368 . S
C1310 C1309 1.523 . S
C1311 C1295 1.429 . S
C1311 C1307 1.429 . S
C1311 C1312 1.523 . S
C1312 C1296 1.368 . S
C1312 C1308 1.368 . S
C1312 C1311 1.523 . S
H1313 C1288 0.950 . S
H1314 C1290 0.950 . S
H1315 C1291 0.949 . S
H1316 C1293 0.950 . S
H1317 C1295 0.950 . S
C1318 C1319 1.349 . S
C1318 C1320 1.327 . S
C1318 H1343 0.950 . S
C1319 C1318 1.349 . S
C1319 C1335 1.349 . S
C1320 C1318 1.327 . S
C1320 C1339 1.429 . S
C1320 H1344 0.950 . S
C1321 C1338 1.574 . S
C1321 C1340 1.368 . S
C1321 H1345 0.949 . S
H1322 C1326 0.949 . S
C1323 C1324 1.349 . S
C1323 C1325 1.327 . S
C1323 H1346 0.950 . S
C1324 C1323 1.349 . S
C1324 C1336 1.349 . S
C1325 C1323 1.327 . S
C1325 C1341 1.429 . S
C1325 H1347 0.950 . S
C1326 H1322 0.949 . S
C1326 C1334 1.574 . S
C1326 C1342 1.368 . S
H1327 C1335 0.950 . S
H1328 C1333 0.950 . S
H1329 C1334 0.949 . S
H1330 C1336 0.950 . S
H1331 C1337 0.950 . S
H1332 C1338 0.949 . S
C1333 H1328 0.950 . S
C1333 C1335 1.327 . S
C1333 C1339 1.429 . S
C1334 C1326 1.574 . S
C1334 H1329 0.949 . S
C1334 C1340 1.368 . S
C1335 C1319 1.349 . S
C1335 H1327 0.950 . S
C1335 C1333 1.327 . S
C1336 C1324 1.349 . S
C1336 H1330 0.950 . S
C1336 C1337 1.327 . S
C1337 H1331 0.950 . S
C1337 C1336 1.327 . S
C1337 C1341 1.429 . S
C1338 C1321 1.574 . S
C1338 H1332 0.949 . S
C1338 C1342 1.368 . S
C1339 C1320 1.429 . S
C1339 C1333 1.429 . S
C1339 C1340 1.523 . S
C1340 C1321 1.368 . S
C1340 C1334 1.368 . S
C1340 C1339 1.523 . S
C1341 C1325 1.429 . S
C1341 C1337 1.429 . S
C1341 C1342 1.523 1_556 S
C1342 C1326 1.368 . S
C1342 C1338 1.368 . S
C1342 C1341 1.523 1_554 S
H1343 C1318 0.950 . S
H1344 C1320 0.950 . S
H1345 C1321 0.949 . S
H1346 C1323 0.950 . S
H1347 C1325 0.950 . S
C1348 C1349 1.349 . S
C1348 C1350 1.327 . S
C1348 H1373 0.950 . S
C1349 C1348 1.349 . S
C1349 C1365 1.349 . S
C1350 C1348 1.327 . S
C1350 C1369 1.429 . S
C1350 H1374 0.950 . S
C1351 C1368 1.574 . S
C1351 C1370 1.368 . S
C1351 H1375 0.949 . S
H1352 C1356 0.949 . S
C1353 C1354 1.349 . S
C1353 C1355 1.327 . S
C1353 H1376 0.950 . S
C1354 C1353 1.349 . S
C1354 C1366 1.349 . S
C1355 C1353 1.327 . S
C1355 C1371 1.429 . S
C1355 H1377 0.950 . S
C1356 H1352 0.949 . S
C1356 C1364 1.574 . S
C1356 C1372 1.368 . S
H1357 C1365 0.950 . S
H1358 C1363 0.950 . S
H1359 C1364 0.949 . S
H1360 C1366 0.950 . S
H1361 C1367 0.950 . S
H1362 C1368 0.949 . S
C1363 H1358 0.950 . S
C1363 C1365 1.327 . S
C1363 C1369 1.429 . S
C1364 C1356 1.574 . S
C1364 H1359 0.949 . S
C1364 C1370 1.368 . S
C1365 C1349 1.349 . S
C1365 H1357 0.950 . S
C1365 C1363 1.327 . S
C1366 C1354 1.349 . S
C1366 H1360 0.950 . S
C1366 C1367 1.327 . S
C1367 H1361 0.950 . S
C1367 C1366 1.327 . S
C1367 C1371 1.429 . S
C1368 C1351 1.574 . S
C1368 H1362 0.949 . S
C1368 C1372 1.368 . S
C1369 C1350 1.429 . S
C1369 C1363 1.429 . S
C1369 C1370 1.523 . S
C1370 C1351 1.368 . S
C1370 C1364 1.368 . S
C1370 C1369 1.523 . S
C1371 C1355 1.429 . S
C1371 C1367 1.429 . S
C1371 C1372 1.523 . S
C1372 C1356 1.368 . S
C1372 C1368 1.368 . S
C1372 C1371 1.523 . S
H1373 C1348 0.950 . S
H1374 C1350 0.950 . S
H1375 C1351 0.949 . S
H1376 C1353 0.950 . S
H1377 C1355 0.950 . S
C1378 C1379 1.349 . S
C1378 C1380 1.327 . S
C1378 H1403 0.950 . S
C1379 C1378 1.349 . S
C1379 C1395 1.349 . S
C1380 C1378 1.327 . S
C1380 C1399 1.429 . S
C1380 H1404 0.950 . S
C1381 C1398 1.574 . S
C1381 C1400 1.368 1_455 S
C1381 H1405 0.949 . S
H1382 C1386 0.949 . S
C1383 C1384 1.349 . S
C1383 C1385 1.327 . S
C1383 H1406 0.950 . S
C1384 C1383 1.349 . S
C1384 C1396 1.349 . S
C1385 C1383 1.327 . S
C1385 C1401 1.429 . S
C1385 H1407 0.950 . S
C1386 H1382 0.949 . S
C1386 C1394 1.574 . S
C1386 C1402 1.368 1_655 S
H1387 C1395 0.950 . S
H1388 C1393 0.950 . S
H1389 C1394 0.949 . S
H1390 C1396 0.950 . S
H1391 C1397 0.950 . S
H1392 C1398 0.949 . S
C1393 H1388 0.950 . S
C1393 C1395 1.327 . S
C1393 C1399 1.429 . S
C1394 C1386 1.574 . S
C1394 H1389 0.949 . S
C1394 C1400 1.368 . S
C1395 C1379 1.349 . S
C1395 H1387 0.950 . S
C1395 C1393 1.327 . S
C1396 C1384 1.349 . S
C1396 H1390 0.950 . S
C1396 C1397 1.327 . S
C1397 H1391 0.950 . S
C1397 C1396 1.327 . S
C1397 C1401 1.429 . S
C1398 C1381 1.574 . S
C1398 H1392 0.949 . S
C1398 C1402 1.368 . S
C1399 C1380 1.429 . S
C1399 C1393 1.429 . S
C1399 C1400 1.523 . S
C1400 C1381 1.368 1_655 S
C1400 C1394 1.368 . S
C1400 C1399 1.523 . S
C1401 C1385 1.429 . S
C1401 C1397 1.429 . S
C1401 C1402 1.523 . S
C1402 C1386 1.368 1_455 S
C1402 C1398 1.368 . S
C1402 C1401 1.523 . S
H1403 C1378 0.950 . S
H1404 C1380 0.950 . S
H1405 C1381 0.949 . S
H1406 C1383 0.950 . S
H1407 C1385 0.950 . S
C1408 C1409 1.349 . S
C1408 C1410 1.327 . S
C1408 H1433 0.950 . S
C1409 C1408 1.349 . S
C1409 C1425 1.349 . S
C1410 C1408 1.327 . S
C1410 C1429 1.429 . S
C1410 H1434 0.950 . S
C1411 C1428 1.574 . S
C1411 C1430 1.368 . S
C1411 H1435 0.949 . S
H1412 C1416 0.949 . S
C1413 C1414 1.349 . S
C1413 C1415 1.327 . S
C1413 H1436 0.950 . S
C1414 C1413 1.349 . S
C1414 C1426 1.349 . S
C1415 C1413 1.327 . S
C1415 C1431 1.429 . S
C1415 H1437 0.950 . S
C1416 H1412 0.949 . S
C1416 C1424 1.574 . S
C1416 C1432 1.368 . S
H1417 C1425 0.950 . S
H1418 C1423 0.950 . S
H1419 C1424 0.949 . S
H1420 C1426 0.950 . S
H1421 C1427 0.950 . S
H1422 C1428 0.949 . S
C1423 H1418 0.950 . S
C1423 C1425 1.327 . S
C1423 C1429 1.429 . S
C1424 C1416 1.574 . S
C1424 H1419 0.949 . S
C1424 C1430 1.368 . S
C1425 C1409 1.349 . S
C1425 H1417 0.950 . S
C1425 C1423 1.327 . S
C1426 C1414 1.349 . S
C1426 H1420 0.950 . S
C1426 C1427 1.327 . S
C1427 H1421 0.950 . S
C1427 C1426 1.327 . S
C1427 C1431 1.429 . S
C1428 C1411 1.574 . S
C1428 H1422 0.949 . S
C1428 C1432 1.368 . S
C1429 C1410 1.429 . S
C1429 C1423 1.429 . S
C1429 C1430 1.523 . S
C1430 C1411 1.368 . S
C1430 C1424 1.368 . S
C1430 C1429 1.523 . S
C1431 C1415 1.429 . S
C1431 C1427 1.429 . S
C1431 C1432 1.523 . S
C1432 C1416 1.368 . S
C1432 C1428 1.368 . S
C1432 C1431 1.523 . S
H1433 C1408 0.950 . S
H1434 C1410 0.950 . S
H1435 C1411 0.949 . S
H1436 C1413 0.950 . S
H1437 C1415 0.950 . S
C1438 C1439 1.349 . S
C1438 C1440 1.327 . S
C1438 H1463 0.950 . S
C1439 C1438 1.349 . S
C1439 C1455 1.349 . S
C1440 C1438 1.327 . S
C1440 C1459 1.429 . S
C1440 H1464 0.950 . S
C1441 C1458 1.574 . S
C1441 C1460 1.368 . S
C1441 H1465 0.949 . S
H1442 C1446 0.949 . S
C1443 C1444 1.349 . S
C1443 C1445 1.327 . S
C1443 H1466 0.950 . S
C1444 C1443 1.349 . S
C1444 C1456 1.349 . S
C1445 C1443 1.327 . S
C1445 C1461 1.429 . S
C1445 H1467 0.950 . S
C1446 H1442 0.949 . S
C1446 C1454 1.574 . S
C1446 C1462 1.368 . S
H1447 C1455 0.950 . S
H1448 C1453 0.950 . S
H1449 C1454 0.949 . S
H1450 C1456 0.950 . S
H1451 C1457 0.950 . S
H1452 C1458 0.949 . S
C1453 H1448 0.950 . S
C1453 C1455 1.327 . S
C1453 C1459 1.429 . S
C1454 C1446 1.574 . S
C1454 H1449 0.949 . S
C1454 C1460 1.368 . S
C1455 C1439 1.349 . S
C1455 H1447 0.950 . S
C1455 C1453 1.327 . S
C1456 C1444 1.349 . S
C1456 H1450 0.950 . S
C1456 C1457 1.327 . S
C1457 H1451 0.950 . S
C1457 C1456 1.327 . S
C1457 C1461 1.429 . S
C1458 C1441 1.574 . S
C1458 H1452 0.949 . S
C1458 C1462 1.368 . S
C1459 C1440 1.429 . S
C1459 C1453 1.429 . S
C1459 C1460 1.523 . S
C1460 C1441 1.368 . S
C1460 C1454 1.368 . S
C1460 C1459 1.523 . S
C1461 C1445 1.429 . S
C1461 C1457 1.429 . S
C1461 C1462 1.523 . S
C1462 C1446 1.368 . S
C1462 C1458 1.368 . S
C1462 C1461 1.523 . S
H1463 C1438 0.950 . S
H1464 C1440 0.950 . S
H1465 C1441 0.949 . S
H1466 C1443 0.950 . S
H1467 C1445 0.950 . S
C1468 C1469 1.349 . S
C1468 C1470 1.327 . S
C1468 H1493 0.950 . S
C1469 C1468 1.349 . S
C1469 C1485 1.349 . S
C1470 C1468 1.327 . S
C1470 C1489 1.429 . S
C1470 H1494 0.950 . S
C1471 C1488 1.574 . S
C1471 C1490 1.368 . S
C1471 H1495 0.949 . S
H1472 C1476 0.949 . S
C1473 C1474 1.349 . S
C1473 C1475 1.327 . S
C1473 H1496 0.950 . S
C1474 C1473 1.349 . S
C1474 C1486 1.349 . S
C1475 C1473 1.327 . S
C1475 C1491 1.429 . S
C1475 H1497 0.950 . S
C1476 H1472 0.949 . S
C1476 C1484 1.574 . S
C1476 C1492 1.368 . S
H1477 C1485 0.950 . S
H1478 C1483 0.950 . S
H1479 C1484 0.949 . S
H1480 C1486 0.950 . S
H1481 C1487 0.950 . S
H1482 C1488 0.949 . S
C1483 H1478 0.950 . S
C1483 C1485 1.327 . S
C1483 C1489 1.429 . S
C1484 C1476 1.574 . S
C1484 H1479 0.949 . S
C1484 C1490 1.368 . S
C1485 C1469 1.349 . S
C1485 H1477 0.950 . S
C1485 C1483 1.327 . S
C1486 C1474 1.349 . S
C1486 H1480 0.950 . S
C1486 C1487 1.327 . S
C1487 H1481 0.950 . S
C1487 C1486 1.327 . S
C1487 C1491 1.429 . S
C1488 C1471 1.574 . S
C1488 H1482 0.949 . S
C1488 C1492 1.368 . S
C1489 C1470 1.429 . S
C1489 C1483 1.429 . S
C1489 C1490 1.523 . S
C1490 C1471 1.368 . S
C1490 C1484 1.368 . S
C1490 C1489 1.523 . S
C1491 C1475 1.429 . S
C1491 C1487 1.429 . S
C1491 C1492 1.523 . S
C1492 C1476 1.368 . S
C1492 C1488 1.368 . S
C1492 C1491 1.523 . S
H1493 C1468 0.950 . S
H1494 C1470 0.950 . S
H1495 C1471 0.949 . S
H1496 C1473 0.950 . S
H1497 C1475 0.950 . S
C1498 C1499 1.349 . S
C1498 C1500 1.327 . S
C1498 H1523 0.950 . S
C1499 C1498 1.349 . S
C1499 C1515 1.349 . S
C1500 C1498 1.327 . S
C1500 C1519 1.429 . S
C1500 H1524 0.950 . S
C1501 C1518 1.574 . S
C1501 C1520 1.368 . S
C1501 H1525 0.949 . S
H1502 C1506 0.949 . S
C1503 C1504 1.349 . S
C1503 C1505 1.327 . S
C1503 H1526 0.950 . S
C1504 C1503 1.349 . S
C1504 C1516 1.349 . S
C1505 C1503 1.327 . S
C1505 C1521 1.429 . S
C1505 H1527 0.950 . S
C1506 H1502 0.949 . S
C1506 C1514 1.574 . S
C1506 C1522 1.368 . S
H1507 C1515 0.950 . S
H1508 C1513 0.950 . S
H1509 C1514 0.949 . S
H1510 C1516 0.950 . S
H1511 C1517 0.950 . S
H1512 C1518 0.949 . S
C1513 H1508 0.950 . S
C1513 C1515 1.327 . S
C1513 C1519 1.429 . S
C1514 C1506 1.574 . S
C1514 H1509 0.949 . S
C1514 C1520 1.368 1_655 S
C1515 C1499 1.349 . S
C1515 H1507 0.950 . S
C1515 C1513 1.327 . S
C1516 C1504 1.349 . S
C1516 H1510 0.950 . S
C1516 C1517 1.327 . S
C1517 H1511 0.950 . S
C1517 C1516 1.327 . S
C1517 C1521 1.429 . S
C1518 C1501 1.574 . S
C1518 H1512 0.949 . S
C1518 C1522 1.368 1_455 S
C1519 C1500 1.429 . S
C1519 C1513 1.429 . S
C1519 C1520 1.523 . S
C1520 C1501 1.368 . S
C1520 C1514 1.368 1_455 S
C1520 C1519 1.523 . S
C1521 C1505 1.429 . S
C1521 C1517 1.429 . S
C1521 C1522 1.523 1_556 S
C1522 C1506 1.368 . S
C1522 C1518 1.368 1_655 S
C1522 C1521 1.523 1_554 S
H1523 C1498 0.950 . S
H1524 C1500 0.950 . S
H1525 C1501 0.949 . S
H1526 C1503 0.950 . S
H1527 C1505 0.950 . S
C1528 C1529 1.349 . S
C1528 C1530 1.327 . S
C1528 H1553 0.950 . S
C1529 C1528 1.349 . S
C1529 C1545 1.349 . S
C1530 C1528 1.327 . S
C1530 C1549 1.429 . S
C1530 H1554 0.950 . S
C1531 C1548 1.574 . S
C1531 C1550 1.368 . S
C1531 H1555 0.949 . S
H1532 C1536 0.949 . S
C1533 C1534 1.349 . S
C1533 C1535 1.327 . S
C1533 H1556 0.950 . S
C1534 C1533 1.349 . S
C1534 C1546 1.349 . S
C1535 C1533 1.327 . S
C1535 C1551 1.429 . S
C1535 H1557 0.950 . S
C1536 H1532 0.949 . S
C1536 C1544 1.574 . S
C1536 C1552 1.368 . S
H1537 C1545 0.950 . S
H1538 C1543 0.950 . S
H1539 C1544 0.949 . S
H1540 C1546 0.950 . S
H1541 C1547 0.950 . S
H1542 C1548 0.949 . S
C1543 H1538 0.950 . S
C1543 C1545 1.327 . S
C1543 C1549 1.429 . S
C1544 C1536 1.574 . S
C1544 H1539 0.949 . S
C1544 C1550 1.368 . S
C1545 C1529 1.349 . S
C1545 H1537 0.950 . S
C1545 C1543 1.327 . S
C1546 C1534 1.349 . S
C1546 H1540 0.950 . S
C1546 C1547 1.327 . S
C1547 H1541 0.950 . S
C1547 C1546 1.327 . S
C1547 C1551 1.429 . S
C1548 C1531 1.574 . S
C1548 H1542 0.949 . S
C1548 C1552 1.368 . S
C1549 C1530 1.429 . S
C1549 C1543 1.429 . S
C1549 C1550 1.523 . S
C1550 C1531 1.368 . S
C1550 C1544 1.368 . S
C1550 C1549 1.523 . S
C1551 C1535 1.429 . S
C1551 C1547 1.429 . S
C1551 C1552 1.523 . S
C1552 C1536 1.368 . S
C1552 C1548 1.368 . S
C1552 C1551 1.523 . S
H1553 C1528 0.950 . S
H1554 C1530 0.950 . S
H1555 C1531 0.949 . S
H1556 C1533 0.950 . S
H1557 C1535 0.950 . S
C1558 C1559 1.349 . S
C1558 C1560 1.327 . S
C1558 H1583 0.950 . S
C1559 C1558 1.349 . S
C1559 C1575 1.349 . S
C1560 C1558 1.327 . S
C1560 C1579 1.429 . S
C1560 H1584 0.950 . S
C1561 C1578 1.574 . S
C1561 C1580 1.368 1_455 S
C1561 H1585 0.949 . S
H1562 C1566 0.949 . S
C1563 C1564 1.349 . S
C1563 C1565 1.327 . S
C1563 H1586 0.950 . S
C1564 C1563 1.349 . S
C1564 C1576 1.349 . S
C1565 C1563 1.327 . S
C1565 C1581 1.429 . S
C1565 H1587 0.950 . S
C1566 H1562 0.949 . S
C1566 C1574 1.574 . S
C1566 C1582 1.368 1_655 S
H1567 C1575 0.950 . S
H1568 C1573 0.970 . S
H1569 C1574 0.949 . S
H1570 C1576 0.950 . S
H1571 C1577 0.950 . S
H1572 C1578 0.949 . S
C1573 H1568 0.970 . S
C1573 C1575 1.327 . S
C1573 C1579 1.429 . S
C1574 C1566 1.574 . S
C1574 H1569 0.949 . S
C1574 C1580 1.368 . S
C1575 C1559 1.349 . S
C1575 H1567 0.950 . S
C1575 C1573 1.327 . S
C1576 C1564 1.349 . S
C1576 H1570 0.950 . S
C1576 C1577 1.327 . S
C1577 H1571 0.950 . S
C1577 C1576 1.327 . S
C1577 C1581 1.429 . S
C1578 C1561 1.574 . S
C1578 H1572 0.949 . S
C1578 C1582 1.368 . S
C1579 C1560 1.429 . S
C1579 C1573 1.429 . S
C1579 C1580 1.523 . S
C1580 C1561 1.368 1_655 S
C1580 C1574 1.368 . S
C1580 C1579 1.523 . S
C1581 C1565 1.429 . S
C1581 C1577 1.429 . S
C1581 C1582 1.523 . S
C1582 C1566 1.368 1_455 S
C1582 C1578 1.368 . S
C1582 C1581 1.523 . S
H1583 C1558 0.950 . S
H1584 C1560 0.950 . S
H1585 C1561 0.949 . S
H1586 C1563 0.950 . S
H1587 C1565 0.950 . S
C1588 C1589 1.349 . S
C1588 C1590 1.327 . S
C1588 H1613 0.950 . S
C1589 C1588 1.349 . S
C1589 C1605 1.349 . S
C1590 C1588 1.327 . S
C1590 C1609 1.429 . S
C1590 H1614 0.950 . S
C1591 C1608 1.574 . S
C1591 C1610 1.368 . S
C1591 H1615 0.949 . S
H1592 C1596 0.949 . S
C1593 C1594 1.349 . S
C1593 C1595 1.327 . S
C1593 H1616 0.950 . S
C1594 C1593 1.349 . S
C1594 C1606 1.349 . S
C1595 C1593 1.327 . S
C1595 C1611 1.429 . S
C1595 H1617 0.950 . S
C1596 H1592 0.949 . S
C1596 C1604 1.574 . S
C1596 C1612 1.368 . S
H1597 C1605 0.950 . S
H1598 C1603 0.950 . S
H1599 C1604 0.949 . S
H1600 C1606 0.950 . S
H1601 C1607 0.950 . S
H1602 C1608 0.949 . S
C1603 H1598 0.950 . S
C1603 C1605 1.327 . S
C1603 C1609 1.429 . S
C1604 C1596 1.574 . S
C1604 H1599 0.949 . S
C1604 C1610 1.368 . S
C1605 C1589 1.349 . S
C1605 H1597 0.950 . S
C1605 C1603 1.327 . S
C1606 C1594 1.349 . S
C1606 H1600 0.950 . S
C1606 C1607 1.327 . S
C1607 H1601 0.950 . S
C1607 C1606 1.327 . S
C1607 C1611 1.429 . S
C1608 C1591 1.574 . S
C1608 H1602 0.949 . S
C1608 C1612 1.368 . S
C1609 C1590 1.429 . S
C1609 C1603 1.429 . S
C1609 C1610 1.523 . S
C1610 C1591 1.368 . S
C1610 C1604 1.368 . S
C1610 C1609 1.523 . S
C1611 C1595 1.429 . S
C1611 C1607 1.429 . S
C1611 C1612 1.523 . S
C1612 C1596 1.368 . S
C1612 C1608 1.368 . S
C1612 C1611 1.523 . S
H1613 C1588 0.950 . S
H1614 C1590 0.950 . S
H1615 C1591 0.949 . S
H1616 C1593 0.950 . S
H1617 C1595 0.950 . S
C1618 C1619 1.349 . S
C1618 C1620 1.327 . S
C1618 H1643 0.950 . S
C1619 C1618 1.349 . S
C1619 C1635 1.349 . S
C1620 C1618 1.327 . S
C1620 C1639 1.429 . S
C1620 H1644 0.950 . S
C1621 C1638 1.574 . S
C1621 C1640 1.368 . S
C1621 H1645 0.949 . S
H1622 C1626 0.949 . S
C1623 C1624 1.349 . S
C1623 C1625 1.327 . S
C1623 H1646 0.950 . S
C1624 C1623 1.349 . S
C1624 C1636 1.349 . S
C1625 C1623 1.327 . S
C1625 C1641 1.429 . S
C1625 H1647 0.950 . S
C1626 H1622 0.949 . S
C1626 C1634 1.574 . S
C1626 C1642 1.368 . S
H1627 C1635 0.950 . S
H1628 C1633 0.950 . S
H1629 C1634 0.949 . S
H1630 C1636 0.950 . S
H1631 C1637 0.950 . S
H1632 C1638 0.949 . S
C1633 H1628 0.950 . S
C1633 C1635 1.327 . S
C1633 C1639 1.429 . S
C1634 C1626 1.574 . S
C1634 H1629 0.949 . S
C1634 C1640 1.368 . S
C1635 C1619 1.349 . S
C1635 H1627 0.950 . S
C1635 C1633 1.327 . S
C1636 C1624 1.349 . S
C1636 H1630 0.950 . S
C1636 C1637 1.327 . S
C1637 H1631 0.950 . S
C1637 C1636 1.327 . S
C1637 C1641 1.429 . S
C1638 C1621 1.574 . S
C1638 H1632 0.949 . S
C1638 C1642 1.368 . S
C1639 C1620 1.429 . S
C1639 C1633 1.429 . S
C1639 C1640 1.523 1_554 S
C1640 C1621 1.368 . S
C1640 C1634 1.368 . S
C1640 C1639 1.523 1_556 S
C1641 C1625 1.429 . S
C1641 C1637 1.429 . S
C1641 C1642 1.523 . S
C1642 C1626 1.368 . S
C1642 C1638 1.368 . S
C1642 C1641 1.523 . S
H1643 C1618 0.950 . S
H1644 C1620 0.950 . S
H1645 C1621 0.949 . S
H1646 C1623 0.950 . S
H1647 C1625 0.950 . S
C1648 C1649 1.349 . S
C1648 C1650 1.327 . S
C1648 H1673 0.950 . S
C1649 C1648 1.349 . S
C1649 C1665 1.349 . S
C1650 C1648 1.327 . S
C1650 C1669 1.429 . S
C1650 H1674 0.950 . S
C1651 C1668 1.574 . S
C1651 C1670 1.368 . S
C1651 H1675 0.949 . S
H1652 C1656 0.949 . S
C1653 C1654 1.349 . S
C1653 C1655 1.327 . S
C1653 H1676 0.950 . S
C1654 C1653 1.349 . S
C1654 C1666 1.349 . S
C1655 C1653 1.327 . S
C1655 C1671 1.429 . S
C1655 H1677 0.950 . S
C1656 H1652 0.949 . S
C1656 C1664 1.574 . S
C1656 C1672 1.368 . S
H1657 C1665 0.950 . S
H1658 C1663 0.950 . S
H1659 C1664 0.949 . S
H1660 C1666 0.950 . S
H1661 C1667 0.950 . S
H1662 C1668 0.949 . S
C1663 H1658 0.950 . S
C1663 C1665 1.327 . S
C1663 C1669 1.429 . S
C1664 C1656 1.574 . S
C1664 H1659 0.949 . S
C1664 C1670 1.368 . S
C1665 C1649 1.349 . S
C1665 H1657 0.950 . S
C1665 C1663 1.327 . S
C1666 C1654 1.349 . S
C1666 H1660 0.950 . S
C1666 C1667 1.327 . S
C1667 H1661 0.950 . S
C1667 C1666 1.327 . S
C1667 C1671 1.429 . S
C1668 C1651 1.574 . S
C1668 H1662 0.949 . S
C1668 C1672 1.368 . S
C1669 C1650 1.429 . S
C1669 C1663 1.429 . S
C1669 C1670 1.523 . S
C1670 C1651 1.368 . S
C1670 C1664 1.368 . S
C1670 C1669 1.523 . S
C1671 C1655 1.429 . S
C1671 C1667 1.429 . S
C1671 C1672 1.523 . S
C1672 C1656 1.368 . S
C1672 C1668 1.368 . S
C1672 C1671 1.523 . S
H1673 C1648 0.950 . S
H1674 C1650 0.950 . S
H1675 C1651 0.949 . S
H1676 C1653 0.950 . S
H1677 C1655 0.950 . S
C1678 C1679 1.349 . S
C1678 C1680 1.327 . S
C1678 H1703 0.950 . S
C1679 C1678 1.349 . S
C1679 C1695 1.349 . S
C1680 C1678 1.327 . S
C1680 C1699 1.429 . S
C1680 H1704 0.950 . S
C1681 C1698 1.574 . S
C1681 C1700 1.368 . S
C1681 H1705 0.949 . S
H1682 C1686 0.949 . S
C1683 C1684 1.349 . S
C1683 C1685 1.327 . S
C1683 H1706 0.950 . S
C1684 C1683 1.349 . S
C1684 C1696 1.349 . S
C1685 C1683 1.327 . S
C1685 C1701 1.429 . S
C1685 H1707 0.950 . S
C1686 H1682 0.949 . S
C1686 C1694 1.574 . S
C1686 C1702 1.368 . S
H1687 C1695 0.950 . S
H1688 C1693 0.950 . S
H1689 C1694 0.949 . S
H1690 C1696 0.950 . S
H1691 C1697 0.950 . S
H1692 C1698 0.949 . S
C1693 H1688 0.950 . S
C1693 C1695 1.327 . S
C1693 C1699 1.429 . S
C1694 C1686 1.574 . S
C1694 H1689 0.949 . S
C1694 C1700 1.368 . S
C1695 C1679 1.349 . S
C1695 H1687 0.950 . S
C1695 C1693 1.327 . S
C1696 C1684 1.349 . S
C1696 H1690 0.950 . S
C1696 C1697 1.327 . S
C1697 H1691 0.950 . S
C1697 C1696 1.327 . S
C1697 C1701 1.429 . S
C1698 C1681 1.574 . S
C1698 H1692 0.949 . S
C1698 C1702 1.368 . S
C1699 C1680 1.429 . S
C1699 C1693 1.429 . S
C1699 C1700 1.523 . S
C1700 C1681 1.368 . S
C1700 C1694 1.368 . S
C1700 C1699 1.523 . S
C1701 C1685 1.429 . S
C1701 C1697 1.429 . S
C1701 C1702 1.523 . S
C1702 C1686 1.368 . S
C1702 C1698 1.368 . S
C1702 C1701 1.523 . S
H1703 C1678 0.950 . S
H1704 C1680 0.950 . S
H1705 C1681 0.949 . S
H1706 C1683 0.950 . S
H1707 C1685 0.950 . S
C1708 C1709 1.349 . S
C1708 C1710 1.327 . S
C1708 H1733 0.950 . S
C1709 C1708 1.349 . S
C1709 C1725 1.349 . S
C1710 C1708 1.327 . S
C1710 C1729 1.429 . S
C1710 H1734 0.950 . S
C1711 C1728 1.574 . S
C1711 C1730 1.368 . S
C1711 H1735 0.949 . S
H1712 C1716 0.949 . S
C1713 C1714 1.349 . S
C1713 C1715 1.327 . S
C1713 H1736 0.950 . S
C1714 C1713 1.349 . S
C1714 C1726 1.349 . S
C1715 C1713 1.327 . S
C1715 C1731 1.429 . S
C1715 H1737 0.950 . S
C1716 H1712 0.949 . S
C1716 C1724 1.574 . S
C1716 C1732 1.368 . S
H1717 C1725 0.950 . S
H1718 C1723 0.950 . S
H1719 C1724 0.949 . S
H1720 C1726 0.950 . S
H1721 C1727 0.950 . S
H1722 C1728 0.949 . S
C1723 H1718 0.950 . S
C1723 C1725 1.327 . S
C1723 C1729 1.429 . S
C1724 C1716 1.574 . S
C1724 H1719 0.949 . S
C1724 C1730 1.368 . S
C1725 C1709 1.349 . S
C1725 H1717 0.950 . S
C1725 C1723 1.327 . S
C1726 C1714 1.349 . S
C1726 H1720 0.950 . S
C1726 C1727 1.327 . S
C1727 H1721 0.950 . S
C1727 C1726 1.327 . S
C1727 C1731 1.429 . S
C1728 C1711 1.574 . S
C1728 H1722 0.949 . S
C1728 C1732 1.368 . S
C1729 C1710 1.429 . S
C1729 C1723 1.429 . S
C1729 C1730 1.523 . S
C1730 C1711 1.368 . S
C1730 C1724 1.368 . S
C1730 C1729 1.523 . S
C1731 C1715 1.429 . S
C1731 C1727 1.429 . S
C1731 C1732 1.523 . S
C1732 C1716 1.368 . S
C1732 C1728 1.368 . S
C1732 C1731 1.523 . S
H1733 C1708 0.950 . S
H1734 C1710 0.950 . S
H1735 C1711 0.949 . S
H1736 C1713 0.950 . S
H1737 C1715 0.950 . S
C1738 C1739 1.349 . S
C1738 C1740 1.327 . S
C1738 H1763 0.950 . S
C1739 C1738 1.349 . S
C1739 C1755 1.349 . S
C1740 C1738 1.327 . S
C1740 C1759 1.429 . S
C1740 H1764 0.950 . S
C1741 C1758 1.574 . S
C1741 C1760 1.368 . S
C1741 H1765 0.949 . S
H1742 C1746 0.949 . S
C1743 C1744 1.349 . S
C1743 C1745 1.327 . S
C1743 H1766 0.950 . S
C1744 C1743 1.349 . S
C1744 C1756 1.349 . S
C1745 C1743 1.327 . S
C1745 C1761 1.429 . S
C1745 H1767 0.950 . S
C1746 H1742 0.949 . S
C1746 C1754 1.574 . S
C1746 C1762 1.368 . S
H1747 C1755 0.950 . S
H1748 C1753 0.950 . S
H1749 C1754 0.949 . S
H1750 C1756 0.950 . S
H1751 C1757 0.950 . S
H1752 C1758 0.949 . S
C1753 H1748 0.950 . S
C1753 C1755 1.327 . S
C1753 C1759 1.429 . S
C1754 C1746 1.574 . S
C1754 H1749 0.949 . S
C1754 C1760 1.368 1_455 S
C1755 C1739 1.349 . S
C1755 H1747 0.950 . S
C1755 C1753 1.327 . S
C1756 C1744 1.349 . S
C1756 H1750 0.950 . S
C1756 C1757 1.327 . S
C1757 H1751 0.950 . S
C1757 C1756 1.327 . S
C1757 C1761 1.429 . S
C1758 C1741 1.574 . S
C1758 H1752 0.949 . S
C1758 C1762 1.368 1_655 S
C1759 C1740 1.429 . S
C1759 C1753 1.429 . S
C1759 C1760 1.523 . S
C1760 C1741 1.368 . S
C1760 C1754 1.368 1_655 S
C1760 C1759 1.523 . S
C1761 C1745 1.429 . S
C1761 C1757 1.429 . S
C1761 C1762 1.523 1_554 S
C1762 C1746 1.368 . S
C1762 C1758 1.368 1_455 S
C1762 C1761 1.523 1_556 S
H1763 C1738 0.950 . S
H1764 C1740 0.950 . S
H1765 C1741 0.949 . S
H1766 C1743 0.950 . S
H1767 C1745 0.950 . S
C1768 C1769 1.349 . S
C1768 C1770 1.327 . S
C1768 H1793 0.950 . S
C1769 C1768 1.349 . S
C1769 C1785 1.349 . S
C1770 C1768 1.327 . S
C1770 C1789 1.429 . S
C1770 H1794 0.950 . S
C1771 C1788 1.574 . S
C1771 C1790 1.368 . S
C1771 H1795 0.949 . S
H1772 C1776 0.949 . S
C1773 C1774 1.349 . S
C1773 C1775 1.327 . S
C1773 H1796 0.950 . S
C1774 C1773 1.349 . S
C1774 C1786 1.349 . S
C1775 C1773 1.327 . S
C1775 C1791 1.429 . S
C1775 H1797 0.950 . S
C1776 H1772 0.949 . S
C1776 C1784 1.574 . S
C1776 C1792 1.368 . S
H1777 C1785 0.950 . S
H1778 C1783 0.950 . S
H1779 C1784 0.949 . S
H1780 C1786 0.950 . S
H1781 C1787 0.950 . S
H1782 C1788 0.949 . S
C1783 H1778 0.950 . S
C1783 C1785 1.327 . S
C1783 C1789 1.429 . S
C1784 C1776 1.574 . S
C1784 H1779 0.949 . S
C1784 C1790 1.368 . S
C1785 C1769 1.349 . S
C1785 H1777 0.950 . S
C1785 C1783 1.327 . S
C1786 C1774 1.349 . S
C1786 H1780 0.950 . S
C1786 C1787 1.327 . S
C1787 H1781 0.950 . S
C1787 C1786 1.327 . S
C1787 C1791 1.429 . S
C1788 C1771 1.574 . S
C1788 H1782 0.949 . S
C1788 C1792 1.368 . S
C1789 C1770 1.429 . S
C1789 C1783 1.429 . S
C1789 C1790 1.523 . S
C1790 C1771 1.368 . S
C1790 C1784 1.368 . S
C1790 C1789 1.523 . S
C1791 C1775 1.429 . S
C1791 C1787 1.429 . S
C1791 C1792 1.523 . S
C1792 C1776 1.368 . S
C1792 C1788 1.368 . S
C1792 C1791 1.523 . S
H1793 C1768 0.950 . S
H1794 C1770 0.950 . S
H1795 C1771 0.949 . S
H1796 C1773 0.950 . S
H1797 C1775 0.950 . S
C1798 C1799 1.349 . S
C1798 C1800 1.327 . S
C1798 H1823 0.950 . S
C1799 C1798 1.349 . S
C1799 C1815 1.349 . S
C1800 C1798 1.327 . S
C1800 C1819 1.429 . S
C1800 H1824 0.950 . S
C1801 C1818 1.574 . S
C1801 C1820 1.368 1_455 S
C1801 H1825 0.949 . S
H1802 C1806 0.949 . S
C1803 C1804 1.349 . S
C1803 C1805 1.327 . S
C1803 H1826 0.950 . S
C1804 C1803 1.349 . S
C1804 C1816 1.349 . S
C1805 C1803 1.327 . S
C1805 C1821 1.429 . S
C1805 H1827 0.950 . S
C1806 H1802 0.949 . S
C1806 C1814 1.574 . S
C1806 C1822 1.368 1_655 S
H1807 C1815 0.950 . S
H1808 C1813 0.950 . S
H1809 C1814 0.949 . S
H1810 C1816 0.950 . S
H1811 C1817 0.950 . S
H1812 C1818 0.949 . S
C1813 H1808 0.950 . S
C1813 C1815 1.327 . S
C1813 C1819 1.429 . S
C1814 C1806 1.574 . S
C1814 H1809 0.949 . S
C1814 C1820 1.368 . S
C1815 C1799 1.349 . S
C1815 H1807 0.950 . S
C1815 C1813 1.327 . S
C1816 C1804 1.349 . S
C1816 H1810 0.950 . S
C1816 C1817 1.327 . S
C1817 H1811 0.950 . S
C1817 C1816 1.327 . S
C1817 C1821 1.429 . S
C1818 C1801 1.574 . S
C1818 H1812 0.949 . S
C1818 C1822 1.368 . S
C1819 C1800 1.429 . S
C1819 C1813 1.429 . S
C1819 C1820 1.523 . S
C1820 C1801 1.368 1_655 S
C1820 C1814 1.368 . S
C1820 C1819 1.523 . S
C1821 C1805 1.429 . S
C1821 C1817 1.429 . S
C1821 C1822 1.523 . S
C1822 C1806 1.368 1_455 S
C1822 C1818 1.368 . S
C1822 C1821 1.523 . S
H1823 C1798 0.950 . S
H1824 C1800 0.950 . S
H1825 C1801 0.949 . S
H1826 C1803 0.950 . S
H1827 C1805 0.950 . S
C1828 C1829 1.349 . S
C1828 C1830 1.327 . S
C1828 H1853 0.950 . S
C1829 C1828 1.349 . S
C1829 C1845 1.349 . S
C1830 C1828 1.327 . S
C1830 C1849 1.429 . S
C1830 H1854 0.950 . S
C1831 C1848 1.574 . S
C1831 C1850 1.368 . S
C1831 H1855 0.949 . S
H1832 C1836 0.949 . S
C1833 C1834 1.349 . S
C1833 C1835 1.327 . S
C1833 H1856 0.950 . S
C1834 C1833 1.349 . S
C1834 C1846 1.349 . S
C1835 C1833 1.327 . S
C1835 C1851 1.429 . S
C1835 H1857 0.950 . S
C1836 H1832 0.949 . S
C1836 C1844 1.574 . S
C1836 C1852 1.368 . S
H1837 C1845 0.950 . S
H1838 C1843 0.950 . S
H1839 C1844 0.949 . S
H1840 C1846 0.950 . S
H1841 C1847 0.950 . S
H1842 C1848 0.949 . S
C1843 H1838 0.950 . S
C1843 C1845 1.327 . S
C1843 C1849 1.429 . S
C1844 C1836 1.574 . S
C1844 H1839 0.949 . S
C1844 C1850 1.368 . S
C1845 C1829 1.349 . S
C1845 H1837 0.950 . S
C1845 C1843 1.327 . S
C1846 C1834 1.349 . S
C1846 H1840 0.950 . S
C1846 C1847 1.327 . S
C1847 H1841 0.950 . S
C1847 C1846 1.327 . S
C1847 C1851 1.429 . S
C1848 C1831 1.574 . S
C1848 H1842 0.949 . S
C1848 C1852 1.368 . S
C1849 C1830 1.429 . S
C1849 C1843 1.429 . S
C1849 C1850 1.523 . S
C1850 C1831 1.368 . S
C1850 C1844 1.368 . S
C1850 C1849 1.523 . S
C1851 C1835 1.429 . S
C1851 C1847 1.429 . S
C1851 C1852 1.523 . S
C1852 C1836 1.368 . S
C1852 C1848 1.368 . S
C1852 C1851 1.523 . S
H1853 C1828 0.950 . S
H1854 C1830 0.950 . S
H1855 C1831 0.949 . S
H1856 C1833 0.950 . S
H1857 C1835 0.950 . S
C1858 C1859 1.349 . S
C1858 C1860 1.327 . S
C1858 H1883 0.950 . S
C1859 C1858 1.349 . S
C1859 C1875 1.349 . S
C1860 C1858 1.327 . S
C1860 C1879 1.429 . S
C1860 H1884 0.950 . S
C1861 C1878 1.574 . S
C1861 C1880 1.368 . S
C1861 H1885 0.949 . S
H1862 C1866 0.949 . S
C1863 C1864 1.349 . S
C1863 C1865 1.327 . S
C1863 H1886 0.950 . S
C1864 C1863 1.349 . S
C1864 C1876 1.349 . S
C1865 C1863 1.327 . S
C1865 C1881 1.429 . S
C1865 H1887 0.950 . S
C1866 H1862 0.949 . S
C1866 C1874 1.574 . S
C1866 C1882 1.368 . S
H1867 C1875 0.950 . S
H1868 C1873 0.950 . S
H1869 C1874 0.949 . S
H1870 C1876 0.950 . S
H1871 C1877 0.950 . S
H1872 C1878 0.949 . S
C1873 H1868 0.950 . S
C1873 C1875 1.327 . S
C1873 C1879 1.429 . S
C1874 C1866 1.574 . S
C1874 H1869 0.949 . S
C1874 C1880 1.368 . S
C1875 C1859 1.349 . S
C1875 H1867 0.950 . S
C1875 C1873 1.327 . S
C1876 C1864 1.349 . S
C1876 H1870 0.950 . S
C1876 C1877 1.327 . S
C1877 H1871 0.950 . S
C1877 C1876 1.327 . S
C1877 C1881 1.429 . S
C1878 C1861 1.574 . S
C1878 H1872 0.949 . S
C1878 C1882 1.368 . S
C1879 C1860 1.429 . S
C1879 C1873 1.429 . S
C1879 C1880 1.523 . S
C1880 C1861 1.368 . S
C1880 C1874 1.368 . S
C1880 C1879 1.523 . S
C1881 C1865 1.429 . S
C1881 C1877 1.429 . S
C1881 C1882 1.523 1_556 S
C1882 C1866 1.368 . S
C1882 C1878 1.368 . S
C1882 C1881 1.523 1_554 S
H1883 C1858 0.950 . S
H1884 C1860 0.950 . S
H1885 C1861 0.949 . S
H1886 C1863 0.950 . S
H1887 C1865 0.950 . S
C1888 C1889 1.349 . S
C1888 C1890 1.327 . S
C1888 H1913 0.950 . S
C1889 C1888 1.349 . S
C1889 C1905 1.349 . S
C1890 C1888 1.327 . S
C1890 C1909 1.429 . S
C1890 H1914 0.950 . S
C1891 C1908 1.574 . S
C1891 C1910 1.368 . S
C1891 H1915 0.949 . S
H1892 C1896 0.949 . S
C1893 C1894 1.349 . S
C1893 C1895 1.327 . S
C1893 H1916 0.950 . S
C1894 C1893 1.349 . S
C1894 C1906 1.349 . S
C1895 C1893 1.327 . S
C1895 C1911 1.429 . S
C1895 H1917 0.950 . S
C1896 H1892 0.949 . S
C1896 C1904 1.574 . S
C1896 C1912 1.368 . S
H1897 C1905 0.950 . S
H1898 C1903 0.950 . S
H1899 C1904 0.949 . S
H1900 C1906 0.950 . S
H1901 C1907 0.950 . S
H1902 C1908 0.949 . S
C1903 H1898 0.950 . S
C1903 C1905 1.327 . S
C1903 C1909 1.429 . S
C1904 C1896 1.574 . S
C1904 H1899 0.949 . S
C1904 C1910 1.368 . S
C1905 C1889 1.349 . S
C1905 H1897 0.950 . S
C1905 C1903 1.327 . S
C1906 C1894 1.349 . S
C1906 H1900 0.950 . S
C1906 C1907 1.327 . S
C1907 H1901 0.950 . S
C1907 C1906 1.327 . S
C1907 C1911 1.429 . S
C1908 C1891 1.574 . S
C1908 H1902 0.949 . S
C1908 C1912 1.368 . S
C1909 C1890 1.429 . S
C1909 C1903 1.429 . S
C1909 C1910 1.523 . S
C1910 C1891 1.368 . S
C1910 C1904 1.368 . S
C1910 C1909 1.523 . S
C1911 C1895 1.429 . S
C1911 C1907 1.429 . S
C1911 C1912 1.523 . S
C1912 C1896 1.368 . S
C1912 C1908 1.368 . S
C1912 C1911 1.523 . S
H1913 C1888 0.950 . S
H1914 C1890 0.950 . S
H1915 C1891 0.949 . S
H1916 C1893 0.950 . S
H1917 C1895 0.950 . S
C1918 C1919 1.349 . S
C1918 C1920 1.327 . S
C1918 H1943 0.950 . S
C1919 C1918 1.349 . S
C1919 C1935 1.349 . S
C1920 C1918 1.327 . S
C1920 C1939 1.429 . S
C1920 H1944 0.950 . S
C1921 C1938 1.574 . S
C1921 C1940 1.368 . S
C1921 H1945 0.949 . S
H1922 C1926 0.949 . S
C1923 C1924 1.349 . S
C1923 C1925 1.327 . S
C1923 H1946 0.950 . S
C1924 C1923 1.349 . S
C1924 C1936 1.349 . S
C1925 C1923 1.327 . S
C1925 C1941 1.429 . S
C1925 H1947 0.950 . S
C1926 H1922 0.949 . S
C1926 C1934 1.574 . S
C1926 C1942 1.368 . S
H1927 C1935 0.950 . S
H1928 C1933 0.950 . S
H1929 C1934 0.949 . S
H1930 C1936 0.950 . S
H1931 C1937 0.950 . S
H1932 C1938 0.949 . S
C1933 H1928 0.950 . S
C1933 C1935 1.327 . S
C1933 C1939 1.429 . S
C1934 C1926 1.574 . S
C1934 H1929 0.949 . S
C1934 C1940 1.368 . S
C1935 C1919 1.349 . S
C1935 H1927 0.950 . S
C1935 C1933 1.327 . S
C1936 C1924 1.349 . S
C1936 H1930 0.950 . S
C1936 C1937 1.327 . S
C1937 H1931 0.950 . S
C1937 C1936 1.327 . S
C1937 C1941 1.429 . S
C1938 C1921 1.574 . S
C1938 H1932 0.949 . S
C1938 C1942 1.368 . S
C1939 C1920 1.429 . S
C1939 C1933 1.429 . S
C1939 C1940 1.523 . S
C1940 C1921 1.368 . S
C1940 C1934 1.368 . S
C1940 C1939 1.523 . S
C1941 C1925 1.429 . S
C1941 C1937 1.429 . S
C1941 C1942 1.523 . S
C1942 C1926 1.368 . S
C1942 C1938 1.368 . S
C1942 C1941 1.523 . S
H1943 C1918 0.950 . S
H1944 C1920 0.950 . S
H1945 C1921 0.949 . S
H1946 C1923 0.950 . S
H1947 C1925 0.950 . S
C1948 C1949 1.349 . S
C1948 C1950 1.327 . S
C1948 H1973 0.950 . S
C1949 C1948 1.349 . S
C1949 C1965 1.349 . S
C1950 C1948 1.327 . S
C1950 C1969 1.429 . S
C1950 H1974 0.950 . S
C1951 C1968 1.574 . S
C1951 C1970 1.368 . S
C1951 H1975 0.949 . S
H1952 C1956 0.949 . S
C1953 C1954 1.349 . S
C1953 C1955 1.327 . S
C1953 H1976 0.950 . S
C1954 C1953 1.349 . S
C1954 C1966 1.349 . S
C1955 C1953 1.327 . S
C1955 C1971 1.429 . S
C1955 H1977 0.950 . S
C1956 H1952 0.949 . S
C1956 C1964 1.574 . S
C1956 C1972 1.368 . S
H1957 C1965 0.950 . S
H1958 C1963 0.950 . S
H1959 C1964 0.949 . S
H1960 C1966 0.950 . S
H1961 C1967 0.950 . S
H1962 C1968 0.949 . S
C1963 H1958 0.950 . S
C1963 C1965 1.327 . S
C1963 C1969 1.429 . S
C1964 C1956 1.574 . S
C1964 H1959 0.949 . S
C1964 C1970 1.368 . S
C1965 C1949 1.349 . S
C1965 H1957 0.950 . S
C1965 C1963 1.327 . S
C1966 C1954 1.349 . S
C1966 H1960 0.950 . S
C1966 C1967 1.327 . S
C1967 H1961 0.950 . S
C1967 C1966 1.327 . S
C1967 C1971 1.429 . S
C1968 C1951 1.574 . S
C1968 H1962 0.949 . S
C1968 C1972 1.368 . S
C1969 C1950 1.429 . S
C1969 C1963 1.429 . S
C1969 C1970 1.523 . S
C1970 C1951 1.368 . S
C1970 C1964 1.368 . S
C1970 C1969 1.523 . S
C1971 C1955 1.429 . S
C1971 C1967 1.429 . S
C1971 C1972 1.523 . S
C1972 C1956 1.368 . S
C1972 C1968 1.368 . S
C1972 C1971 1.523 . S
H1973 C1948 0.950 . S
H1974 C1950 0.950 . S
H1975 C1951 0.949 . S
H1976 C1953 0.950 . S
H1977 C1955 0.950 . S
C1978 C1979 1.349 . S
C1978 C1980 1.327 . S
C1978 H2003 0.950 . S
C1979 C1978 1.349 . S
C1979 C1995 1.349 . S
C1980 C1978 1.327 . S
C1980 C1999 1.429 . S
C1980 H2004 0.950 . S
C1981 C1998 1.574 . S
C1981 C2000 1.368 . S
C1981 H2005 0.949 . S
H1982 C1986 0.949 . S
C1983 C1984 1.349 . S
C1983 C1985 1.327 . S
C1983 H2006 0.950 . S
C1984 C1983 1.349 . S
C1984 C1996 1.349 . S
C1985 C1983 1.327 . S
C1985 C2001 1.429 . S
C1985 H2007 0.950 . S
C1986 H1982 0.949 . S
C1986 C1994 1.574 . S
C1986 C2002 1.368 . S
H1987 C1995 0.950 . S
H1988 C1993 0.950 . S
H1989 C1994 0.949 . S
H1990 C1996 0.950 . S
H1991 C1997 0.950 . S
H1992 C1998 0.949 . S
C1993 H1988 0.950 . S
C1993 C1995 1.327 . S
C1993 C1999 1.429 . S
C1994 C1986 1.574 . S
C1994 H1989 0.949 . S
C1994 C2000 1.368 . S
C1995 C1979 1.349 . S
C1995 H1987 0.950 . S
C1995 C1993 1.327 . S
C1996 C1984 1.349 . S
C1996 H1990 0.950 . S
C1996 C1997 1.327 . S
C1997 H1991 0.950 . S
C1997 C1996 1.327 . S
C1997 C2001 1.429 . S
C1998 C1981 1.574 . S
C1998 H1992 0.949 . S
C1998 C2002 1.368 . S
C1999 C1980 1.429 . S
C1999 C1993 1.429 . S
C1999 C2000 1.523 . S
C2000 C1981 1.368 . S
C2000 C1994 1.368 . S
C2000 C1999 1.523 . S
C2001 C1985 1.429 . S
C2001 C1997 1.429 . S
C2001 C2002 1.523 . S
C2002 C1986 1.368 . S
C2002 C1998 1.368 . S
C2002 C2001 1.523 . S
H2003 C1978 0.950 . S
H2004 C1980 0.950 . S
H2005 C1981 0.949 . S
H2006 C1983 0.950 . S
H2007 C1985 0.950 . S
C2008 C2009 1.349 . S
C2008 C2010 1.327 . S
C2008 H2033 0.950 . S
C2009 C2008 1.349 . S
C2009 C2025 1.349 . S
C2010 C2008 1.327 . S
C2010 C2029 1.429 . S
C2010 H2034 0.950 . S
C2011 C2028 1.574 . S
C2011 C2030 1.368 . S
C2011 H2035 0.949 . S
H2012 C2016 0.949 . S
C2013 C2014 1.349 . S
C2013 C2015 1.327 . S
C2013 H2036 0.950 . S
C2014 C2013 1.349 . S
C2014 C2026 1.349 . S
C2015 C2013 1.327 . S
C2015 C2031 1.429 . S
C2015 H2037 0.950 . S
C2016 H2012 0.949 . S
C2016 C2024 1.574 . S
C2016 C2032 1.368 . S
H2017 C2025 0.950 . S
H2018 C2023 0.950 . S
H2019 C2024 0.949 . S
H2020 C2026 0.950 . S
H2021 C2027 0.950 . S
H2022 C2028 0.949 . S
C2023 H2018 0.950 . S
C2023 C2025 1.327 . S
C2023 C2029 1.429 . S
C2024 C2016 1.574 . S
C2024 H2019 0.949 . S
C2024 C2030 1.368 . S
C2025 C2009 1.349 . S
C2025 H2017 0.950 . S
C2025 C2023 1.327 . S
C2026 C2014 1.349 . S
C2026 H2020 0.950 . S
C2026 C2027 1.327 . S
C2027 H2021 0.950 . S
C2027 C2026 1.327 . S
C2027 C2031 1.429 . S
C2028 C2011 1.574 . S
C2028 H2022 0.949 . S
C2028 C2032 1.368 . S
C2029 C2010 1.429 . S
C2029 C2023 1.429 . S
C2029 C2030 1.523 . S
C2030 C2011 1.368 . S
C2030 C2024 1.368 . S
C2030 C2029 1.523 . S
C2031 C2015 1.429 . S
C2031 C2027 1.429 . S
C2031 C2032 1.523 . S
C2032 C2016 1.368 . S
C2032 C2028 1.368 . S
C2032 C2031 1.523 . S
H2033 C2008 0.950 . S
H2034 C2010 0.950 . S
H2035 C2011 0.949 . S
H2036 C2013 0.950 . S
H2037 C2015 0.950 . S
C2038 C2039 1.349 . S
C2038 C2040 1.327 . S
C2038 H2063 0.950 . S
C2039 C2038 1.349 . S
C2039 C2055 1.349 . S
C2040 C2038 1.327 . S
C2040 C2059 1.429 . S
C2040 H2064 0.950 . S
C2041 C2058 1.574 . S
C2041 C2060 1.368 . S
C2041 H2065 0.949 . S
H2042 C2046 0.949 . S
C2043 C2044 1.349 . S
C2043 C2045 1.327 . S
C2043 H2066 0.950 . S
C2044 C2043 1.349 . S
C2044 C2056 1.349 . S
C2045 C2043 1.327 . S
C2045 C2061 1.429 . S
C2045 H2067 0.950 . S
C2046 H2042 0.949 . S
C2046 C2054 1.574 . S
C2046 C2062 1.368 . S
H2047 C2055 0.950 . S
H2048 C2053 0.950 . S
H2049 C2054 0.949 . S
H2050 C2056 0.950 . S
H2051 C2057 0.950 . S
H2052 C2058 0.949 . S
C2053 H2048 0.950 . S
C2053 C2055 1.327 . S
C2053 C2059 1.429 . S
C2054 C2046 1.574 . S
C2054 H2049 0.949 . S
C2054 C2060 1.368 . S
C2055 C2039 1.349 . S
C2055 H2047 0.950 . S
C2055 C2053 1.327 . S
C2056 C2044 1.349 . S
C2056 H2050 0.950 . S
C2056 C2057 1.327 . S
C2057 H2051 0.950 . S
C2057 C2056 1.327 . S
C2057 C2061 1.429 . S
C2058 C2041 1.574 . S
C2058 H2052 0.949 . S
C2058 C2062 1.368 . S
C2059 C2040 1.429 . S
C2059 C2053 1.429 . S
C2059 C2060 1.523 . S
C2060 C2041 1.368 . S
C2060 C2054 1.368 . S
C2060 C2059 1.523 . S
C2061 C2045 1.429 . S
C2061 C2057 1.429 . S
C2061 C2062 1.523 . S
C2062 C2046 1.368 . S
C2062 C2058 1.368 . S
C2062 C2061 1.523 . S
H2063 C2038 0.950 . S
H2064 C2040 0.950 . S
H2065 C2041 0.949 . S
H2066 C2043 0.950 . S
H2067 C2045 0.950 . S
C2068 C2069 1.349 . S
C2068 C2070 1.327 . S
C2068 H2093 0.950 . S
C2069 C2068 1.349 . S
C2069 C2085 1.349 . S
C2070 C2068 1.327 . S
C2070 C2089 1.429 . S
C2070 H2094 0.950 . S
C2071 C2088 1.574 . S
C2071 C2090 1.368 . S
C2071 H2095 0.949 . S
H2072 C2076 0.949 . S
C2073 C2074 1.349 . S
C2073 C2075 1.327 . S
C2073 H2096 0.950 . S
C2074 C2073 1.349 . S
C2074 C2086 1.349 . S
C2075 C2073 1.327 . S
C2075 C2091 1.429 . S
C2075 H2097 0.950 . S
C2076 H2072 0.949 . S
C2076 C2084 1.574 . S
C2076 C2092 1.368 . S
H2077 C2085 0.950 . S
H2078 C2083 0.950 . S
H2079 C2084 0.949 . S
H2080 C2086 0.950 . S
H2081 C2087 0.950 . S
H2082 C2088 0.949 . S
C2083 H2078 0.950 . S
C2083 C2085 1.327 . S
C2083 C2089 1.429 . S
C2084 C2076 1.574 . S
C2084 H2079 0.949 . S
C2084 C2090 1.368 . S
C2085 C2069 1.349 . S
C2085 H2077 0.950 . S
C2085 C2083 1.327 . S
C2086 C2074 1.349 . S
C2086 H2080 0.950 . S
C2086 C2087 1.327 . S
C2087 H2081 0.950 . S
C2087 C2086 1.327 . S
C2087 C2091 1.429 . S
C2088 C2071 1.574 . S
C2088 H2082 0.949 . S
C2088 C2092 1.368 . S
C2089 C2070 1.429 . S
C2089 C2083 1.429 . S
C2089 C2090 1.523 . S
C2090 C2071 1.368 . S
C2090 C2084 1.368 . S
C2090 C2089 1.523 . S
C2091 C2075 1.429 . S
C2091 C2087 1.429 . S
C2091 C2092 1.523 . S
C2092 C2076 1.368 . S
C2092 C2088 1.368 . S
C2092 C2091 1.523 . S
H2093 C2068 0.950 . S
H2094 C2070 0.950 . S
H2095 C2071 0.949 . S
H2096 C2073 0.950 . S
H2097 C2075 0.950 . S
C2098 C2099 1.349 . S
C2098 C2100 1.327 . S
C2098 H2123 0.950 . S
C2099 C2098 1.349 . S
C2099 C2115 1.349 . S
C2100 C2098 1.327 . S
C2100 C2119 1.429 . S
C2100 H2124 0.950 . S
C2101 C2118 1.574 . S
C2101 C2120 1.368 . S
C2101 H2125 0.949 . S
H2102 C2106 0.949 . S
C2103 C2104 1.349 . S
C2103 C2105 1.327 . S
C2103 H2126 0.950 . S
C2104 C2103 1.349 . S
C2104 C2116 1.349 . S
C2105 C2103 1.327 . S
C2105 C2121 1.429 . S
C2105 H2127 0.950 . S
C2106 H2102 0.949 . S
C2106 C2114 1.574 . S
C2106 C2122 1.368 . S
H2107 C2115 0.950 . S
H2108 C2113 0.950 . S
H2109 C2114 0.949 . S
H2110 C2116 0.950 . S
H2111 C2117 0.950 . S
H2112 C2118 0.949 . S
C2113 H2108 0.950 . S
C2113 C2115 1.327 . S
C2113 C2119 1.429 . S
C2114 C2106 1.574 . S
C2114 H2109 0.949 . S
C2114 C2120 1.368 . S
C2115 C2099 1.349 . S
C2115 H2107 0.950 . S
C2115 C2113 1.327 . S
C2116 C2104 1.349 . S
C2116 H2110 0.950 . S
C2116 C2117 1.327 . S
C2117 H2111 0.950 . S
C2117 C2116 1.327 . S
C2117 C2121 1.429 . S
C2118 C2101 1.574 . S
C2118 H2112 0.949 . S
C2118 C2122 1.368 . S
C2119 C2100 1.429 . S
C2119 C2113 1.429 . S
C2119 C2120 1.523 . S
C2120 C2101 1.368 . S
C2120 C2114 1.368 . S
C2120 C2119 1.523 . S
C2121 C2105 1.429 . S
C2121 C2117 1.429 . S
C2121 C2122 1.523 . S
C2122 C2106 1.368 . S
C2122 C2118 1.368 . S
C2122 C2121 1.523 . S
H2123 C2098 0.950 . S
H2124 C2100 0.950 . S
H2125 C2101 0.949 . S
H2126 C2103 0.950 . S
H2127 C2105 0.950 . S
C2128 C2129 1.349 . S
C2128 C2130 1.327 . S
C2128 H2153 0.950 . S
C2129 C2128 1.349 . S
C2129 C2145 1.349 . S
C2130 C2128 1.327 . S
C2130 C2149 1.429 . S
C2130 H2154 0.950 . S
C2131 C2148 1.574 . S
C2131 C2150 1.368 . S
C2131 H2155 0.949 . S
H2132 C2136 0.949 . S
C2133 C2134 1.349 . S
C2133 C2135 1.327 . S
C2133 H2156 0.950 . S
C2134 C2133 1.349 . S
C2134 C2146 1.349 . S
C2135 C2133 1.327 . S
C2135 C2151 1.429 . S
C2135 H2157 0.950 . S
C2136 H2132 0.949 . S
C2136 C2144 1.574 . S
C2136 C2152 1.368 . S
H2137 C2145 0.950 . S
H2138 C2143 0.950 . S
H2139 C2144 0.949 . S
H2140 C2146 0.950 . S
H2141 C2147 0.950 . S
H2142 C2148 0.949 . S
C2143 H2138 0.950 . S
C2143 C2145 1.327 . S
C2143 C2149 1.429 . S
C2144 C2136 1.574 . S
C2144 H2139 0.949 . S
C2144 C2150 1.368 . S
C2145 C2129 1.349 . S
C2145 H2137 0.950 . S
C2145 C2143 1.327 . S
C2146 C2134 1.349 . S
C2146 H2140 0.950 . S
C2146 C2147 1.327 . S
C2147 H2141 0.950 . S
C2147 C2146 1.327 . S
C2147 C2151 1.429 . S
C2148 C2131 1.574 . S
C2148 H2142 0.949 . S
C2148 C2152 1.368 . S
C2149 C2130 1.429 . S
C2149 C2143 1.429 . S
C2149 C2150 1.523 . S
C2150 C2131 1.368 . S
C2150 C2144 1.368 . S
C2150 C2149 1.523 . S
C2151 C2135 1.429 . S
C2151 C2147 1.429 . S
C2151 C2152 1.523 . S
C2152 C2136 1.368 . S
C2152 C2148 1.368 . S
C2152 C2151 1.523 . S
H2153 C2128 0.950 . S
H2154 C2130 0.950 . S
H2155 C2131 0.949 . S
H2156 C2133 0.950 . S
H2157 C2135 0.950 . S
C2158 C2159 1.349 . S
C2158 C2160 1.327 . S
C2158 H2183 0.950 . S
C2159 C2158 1.349 . S
C2159 C2175 1.349 . S
C2160 C2158 1.327 . S
C2160 C2179 1.429 . S
C2160 H2184 0.950 . S
C2161 C2178 1.574 . S
C2161 C2180 1.368 . S
C2161 H2185 0.949 . S
H2162 C2166 0.949 . S
C2163 C2164 1.349 . S
C2163 C2165 1.327 . S
C2163 H2186 0.950 . S
C2164 C2163 1.349 . S
C2164 C2176 1.349 . S
C2165 C2163 1.327 . S
C2165 C2181 1.429 . S
C2165 H2187 0.950 . S
C2166 H2162 0.949 . S
C2166 C2174 1.574 . S
C2166 C2182 1.368 . S
H2167 C2175 0.950 . S
H2168 C2173 0.950 . S
H2169 C2174 0.949 . S
H2170 C2176 0.950 . S
H2171 C2177 0.950 . S
H2172 C2178 0.949 . S
C2173 H2168 0.950 . S
C2173 C2175 1.327 . S
C2173 C2179 1.429 . S
C2174 C2166 1.574 . S
C2174 H2169 0.949 . S
C2174 C2180 1.368 . S
C2175 C2159 1.349 . S
C2175 H2167 0.950 . S
C2175 C2173 1.327 . S
C2176 C2164 1.349 . S
C2176 H2170 0.950 . S
C2176 C2177 1.327 . S
C2177 H2171 0.950 . S
C2177 C2176 1.327 . S
C2177 C2181 1.429 . S
C2178 C2161 1.574 . S
C2178 H2172 0.949 . S
C2178 C2182 1.368 . S
C2179 C2160 1.429 . S
C2179 C2173 1.429 . S
C2179 C2180 1.523 . S
C2180 C2161 1.368 . S
C2180 C2174 1.368 . S
C2180 C2179 1.523 . S
C2181 C2165 1.429 . S
C2181 C2177 1.429 . S
C2181 C2182 1.523 . S
C2182 C2166 1.368 . S
C2182 C2178 1.368 . S
C2182 C2181 1.523 . S
H2183 C2158 0.950 . S
H2184 C2160 0.950 . S
H2185 C2161 0.949 . S
H2186 C2163 0.950 . S
H2187 C2165 0.950 . S
C2188 C2189 1.349 . S
C2188 C2190 1.327 . S
C2188 H2213 0.950 . S
C2189 C2188 1.349 . S
C2189 C2205 1.349 . S
C2190 C2188 1.327 . S
C2190 C2209 1.429 . S
C2190 H2214 0.950 . S
C2191 C2208 1.574 . S
C2191 C2210 1.368 . S
C2191 H2215 0.949 . S
H2192 C2196 0.949 . S
C2193 C2194 1.349 . S
C2193 C2195 1.327 . S
C2193 H2216 0.950 . S
C2194 C2193 1.349 . S
C2194 C2206 1.349 . S
C2195 C2193 1.327 . S
C2195 C2211 1.429 . S
C2195 H2217 0.950 . S
C2196 H2192 0.949 . S
C2196 C2204 1.574 . S
C2196 C2212 1.368 . S
H2197 C2205 0.950 . S
H2198 C2203 0.950 . S
H2199 C2204 0.949 . S
H2200 C2206 0.950 . S
H2201 C2207 0.950 . S
H2202 C2208 0.949 . S
C2203 H2198 0.950 . S
C2203 C2205 1.327 . S
C2203 C2209 1.429 . S
C2204 C2196 1.574 . S
C2204 H2199 0.949 . S
C2204 C2210 1.368 . S
C2205 C2189 1.349 . S
C2205 H2197 0.950 . S
C2205 C2203 1.327 . S
C2206 C2194 1.349 . S
C2206 H2200 0.950 . S
C2206 C2207 1.327 . S
C2207 H2201 0.950 . S
C2207 C2206 1.327 . S
C2207 C2211 1.429 . S
C2208 C2191 1.574 . S
C2208 H2202 0.949 . S
C2208 C2212 1.368 . S
C2209 C2190 1.429 . S
C2209 C2203 1.429 . S
C2209 C2210 1.523 . S
C2210 C2191 1.368 . S
C2210 C2204 1.368 . S
C2210 C2209 1.523 . S
C2211 C2195 1.429 . S
C2211 C2207 1.429 . S
C2211 C2212 1.523 . S
C2212 C2196 1.368 . S
C2212 C2208 1.368 . S
C2212 C2211 1.523 . S
H2213 C2188 0.950 . S
H2214 C2190 0.950 . S
H2215 C2191 0.949 . S
H2216 C2193 0.950 . S
H2217 C2195 0.950 . S
C2218 C2219 1.349 . S
C2218 C2220 1.327 . S
C2218 H2243 0.950 . S
C2219 C2218 1.349 . S
C2219 C2235 1.349 . S
C2220 C2218 1.327 . S
C2220 C2239 1.429 . S
C2220 H2244 0.950 . S
C2221 C2238 1.574 . S
C2221 C2240 1.368 . S
C2221 H2245 0.949 . S
H2222 C2226 0.949 . S
C2223 C2224 1.349 . S
C2223 C2225 1.327 . S
C2223 H2246 0.950 . S
C2224 C2223 1.349 . S
C2224 C2236 1.349 . S
C2225 C2223 1.327 . S
C2225 C2241 1.429 . S
C2225 H2247 0.950 . S
C2226 H2222 0.949 . S
C2226 C2234 1.574 . S
C2226 C2242 1.368 . S
H2227 C2235 0.950 . S
H2228 C2233 0.950 . S
H2229 C2234 0.949 . S
H2230 C2236 0.950 . S
H2231 C2237 0.950 . S
H2232 C2238 0.949 . S
C2233 H2228 0.950 . S
C2233 C2235 1.327 . S
C2233 C2239 1.429 . S
C2234 C2226 1.574 . S
C2234 H2229 0.949 . S
C2234 C2240 1.368 . S
C2235 C2219 1.349 . S
C2235 H2227 0.950 . S
C2235 C2233 1.327 . S
C2236 C2224 1.349 . S
C2236 H2230 0.950 . S
C2236 C2237 1.327 . S
C2237 H2231 0.950 . S
C2237 C2236 1.327 . S
C2237 C2241 1.429 . S
C2238 C2221 1.574 . S
C2238 H2232 0.949 . S
C2238 C2242 1.368 . S
C2239 C2220 1.429 . S
C2239 C2233 1.429 . S
C2239 C2240 1.523 . S
C2240 C2221 1.368 . S
C2240 C2234 1.368 . S
C2240 C2239 1.523 . S
C2241 C2225 1.429 . S
C2241 C2237 1.429 . S
C2241 C2242 1.523 . S
C2242 C2226 1.368 . S
C2242 C2238 1.368 . S
C2242 C2241 1.523 . S
H2243 C2218 0.950 . S
H2244 C2220 0.950 . S
H2245 C2221 0.949 . S
H2246 C2223 0.950 . S
H2247 C2225 0.950 . S
C2248 C2249 1.349 . S
C2248 C2250 1.327 . S
C2248 H2273 0.950 . S
C2249 C2248 1.349 . S
C2249 C2265 1.349 . S
C2250 C2248 1.327 . S
C2250 C2269 1.429 . S
C2250 H2274 0.950 . S
C2251 C2268 1.574 . S
C2251 C2270 1.368 . S
C2251 H2275 0.949 . S
H2252 C2256 0.949 . S
C2253 C2254 1.349 . S
C2253 C2255 1.327 . S
C2253 H2276 0.950 . S
C2254 C2253 1.349 . S
C2254 C2266 1.349 . S
C2255 C2253 1.327 . S
C2255 C2271 1.429 . S
C2255 H2277 0.950 . S
C2256 H2252 0.949 . S
C2256 C2264 1.574 . S
C2256 C2272 1.368 . S
H2257 C2265 0.950 . S
H2258 C2263 0.950 . S
H2259 C2264 0.949 . S
H2260 C2266 0.950 . S
H2261 C2267 0.950 . S
H2262 C2268 0.949 . S
C2263 H2258 0.950 . S
C2263 C2265 1.327 . S
C2263 C2269 1.429 . S
C2264 C2256 1.574 . S
C2264 H2259 0.949 . S
C2264 C2270 1.368 . S
C2265 C2249 1.349 . S
C2265 H2257 0.950 . S
C2265 C2263 1.327 . S
C2266 C2254 1.349 . S
C2266 H2260 0.950 . S
C2266 C2267 1.327 . S
C2267 H2261 0.950 . S
C2267 C2266 1.327 . S
C2267 C2271 1.429 . S
C2268 C2251 1.574 . S
C2268 H2262 0.949 . S
C2268 C2272 1.368 . S
C2269 C2250 1.429 . S
C2269 C2263 1.429 . S
C2269 C2270 1.523 . S
C2270 C2251 1.368 . S
C2270 C2264 1.368 . S
C2270 C2269 1.523 . S
C2271 C2255 1.429 . S
C2271 C2267 1.429 . S
C2271 C2272 1.523 . S
C2272 C2256 1.368 . S
C2272 C2268 1.368 . S
C2272 C2271 1.523 . S
H2273 C2248 0.950 . S
H2274 C2250 0.950 . S
H2275 C2251 0.949 . S
H2276 C2253 0.950 . S
H2277 C2255 0.950 . S
C2278 C2279 1.349 . S
C2278 C2280 1.327 . S
C2278 H2303 0.950 . S
C2279 C2278 1.349 . S
C2279 C2295 1.349 . S
C2280 C2278 1.327 . S
C2280 C2299 1.429 . S
C2280 H2304 0.950 . S
C2281 C2298 1.574 . S
C2281 C2300 1.368 . S
C2281 H2305 0.949 . S
H2282 C2286 0.949 . S
C2283 C2284 1.349 . S
C2283 C2285 1.327 . S
C2283 H2306 0.950 . S
C2284 C2283 1.349 . S
C2284 C2296 1.349 . S
C2285 C2283 1.327 . S
C2285 C2301 1.429 . S
C2285 H2307 0.950 . S
C2286 H2282 0.949 . S
C2286 C2294 1.574 . S
C2286 C2302 1.368 . S
H2287 C2295 0.950 . S
H2288 C2293 0.950 . S
H2289 C2294 0.949 . S
H2290 C2296 0.950 . S
H2291 C2297 0.950 . S
H2292 C2298 0.949 . S
C2293 H2288 0.950 . S
C2293 C2295 1.327 . S
C2293 C2299 1.429 . S
C2294 C2286 1.574 . S
C2294 H2289 0.949 . S
C2294 C2300 1.368 . S
C2295 C2279 1.349 . S
C2295 H2287 0.950 . S
C2295 C2293 1.327 . S
C2296 C2284 1.349 . S
C2296 H2290 0.950 . S
C2296 C2297 1.327 . S
C2297 H2291 0.950 . S
C2297 C2296 1.327 . S
C2297 C2301 1.429 . S
C2298 C2281 1.574 . S
C2298 H2292 0.949 . S
C2298 C2302 1.368 . S
C2299 C2280 1.429 . S
C2299 C2293 1.429 . S
C2299 C2300 1.523 . S
C2300 C2281 1.368 . S
C2300 C2294 1.368 . S
C2300 C2299 1.523 . S
C2301 C2285 1.429 . S
C2301 C2297 1.429 . S
C2301 C2302 1.523 . S
C2302 C2286 1.368 . S
C2302 C2298 1.368 . S
C2302 C2301 1.523 . S
H2303 C2278 0.950 . S
H2304 C2280 0.950 . S
H2305 C2281 0.949 . S
H2306 C2283 0.950 . S
H2307 C2285 0.950 . S
C2308 C2309 1.349 . S
C2308 C2310 1.327 . S
C2308 H2333 0.950 . S
C2309 C2308 1.349 . S
C2309 C2325 1.349 . S
C2310 C2308 1.327 . S
C2310 C2329 1.429 . S
C2310 H2334 0.950 . S
C2311 C2328 1.574 . S
C2311 C2330 1.368 . S
C2311 H2335 0.949 . S
H2312 C2316 0.949 . S
C2313 C2314 1.349 . S
C2313 C2315 1.327 . S
C2313 H2336 0.950 . S
C2314 C2313 1.349 . S
C2314 C2326 1.349 . S
C2315 C2313 1.327 . S
C2315 C2331 1.429 . S
C2315 H2337 0.950 . S
C2316 H2312 0.949 . S
C2316 C2324 1.574 . S
C2316 C2332 1.368 . S
H2317 C2325 0.950 . S
H2318 C2323 0.950 . S
H2319 C2324 0.949 . S
H2320 C2326 0.950 . S
H2321 C2327 0.950 . S
H2322 C2328 0.949 . S
C2323 H2318 0.950 . S
C2323 C2325 1.327 . S
C2323 C2329 1.429 . S
C2324 C2316 1.574 . S
C2324 H2319 0.949 . S
C2324 C2330 1.368 . S
C2325 C2309 1.349 . S
C2325 H2317 0.950 . S
C2325 C2323 1.327 . S
C2326 C2314 1.349 . S
C2326 H2320 0.950 . S
C2326 C2327 1.327 . S
C2327 H2321 0.950 . S
C2327 C2326 1.327 . S
C2327 C2331 1.429 . S
C2328 C2311 1.574 . S
C2328 H2322 0.949 . S
C2328 C2332 1.368 . S
C2329 C2310 1.429 . S
C2329 C2323 1.429 . S
C2329 C2330 1.523 . S
C2330 C2311 1.368 . S
C2330 C2324 1.368 . S
C2330 C2329 1.523 . S
C2331 C2315 1.429 . S
C2331 C2327 1.429 . S
C2331 C2332 1.523 . S
C2332 C2316 1.368 . S
C2332 C2328 1.368 . S
C2332 C2331 1.523 . S
H2333 C2308 0.950 . S
H2334 C2310 0.950 . S
H2335 C2311 0.949 . S
H2336 C2313 0.950 . S
H2337 C2315 0.950 . S
C2338 C2339 1.349 . S
C2338 C2340 1.327 . S
C2338 H2363 0.950 . S
C2339 C2338 1.349 . S
C2339 C2355 1.349 . S
C2340 C2338 1.327 . S
C2340 C2359 1.429 . S
C2340 H2364 0.950 . S
C2341 C2358 1.574 . S
C2341 C2360 1.368 . S
C2341 H2365 0.949 . S
H2342 C2346 0.949 . S
C2343 C2344 1.349 . S
C2343 C2345 1.327 . S
C2343 H2366 0.950 . S
C2344 C2343 1.349 . S
C2344 C2356 1.349 . S
C2345 C2343 1.327 . S
C2345 C2361 1.429 . S
C2345 H2367 0.950 . S
C2346 H2342 0.949 . S
C2346 C2354 1.574 . S
C2346 C2362 1.368 . S
H2347 C2355 0.950 . S
H2348 C2353 0.950 . S
H2349 C2354 0.949 . S
H2350 C2356 0.950 . S
H2351 C2357 0.950 . S
H2352 C2358 0.949 . S
C2353 H2348 0.950 . S
C2353 C2355 1.327 . S
C2353 C2359 1.429 . S
C2354 C2346 1.574 . S
C2354 H2349 0.949 . S
C2354 C2360 1.368 . S
C2355 C2339 1.349 . S
C2355 H2347 0.950 . S
C2355 C2353 1.327 . S
C2356 C2344 1.349 . S
C2356 H2350 0.950 . S
C2356 C2357 1.327 . S
C2357 H2351 0.950 . S
C2357 C2356 1.327 . S
C2357 C2361 1.429 . S
C2358 C2341 1.574 . S
C2358 H2352 0.949 . S
C2358 C2362 1.368 . S
C2359 C2340 1.429 . S
C2359 C2353 1.429 . S
C2359 C2360 1.523 . S
C2360 C2341 1.368 . S
C2360 C2354 1.368 . S
C2360 C2359 1.523 . S
C2361 C2345 1.429 . S
C2361 C2357 1.429 . S
C2361 C2362 1.523 . S
C2362 C2346 1.368 . S
C2362 C2358 1.368 . S
C2362 C2361 1.523 . S
H2363 C2338 0.950 . S
H2364 C2340 0.950 . S
H2365 C2341 0.949 . S
H2366 C2343 0.950 . S
H2367 C2345 0.950 . S
C449 C93 1.460 . S
C454 C9 1.460 . S
C479 C23 1.461 . S
C484 C107 1.461 . S
C509 C65 1.460 . S
C514 C37 1.460 . S
C539 C51 1.460 . S
C544 C79 1.460 . S
C569 C205 1.460 . S
C574 C121 1.460 . S
C599 C219 1.461 . S
C604 C135 1.461 . S
C629 C149 1.460 . S
C634 C177 1.460 . S
C659 C163 1.460 . S
C664 C191 1.460 . S
C689 C233 1.460 . S
C694 C317 1.460 . S
C719 C247 1.460 . S
C724 C331 1.460 . S
C749 C289 1.460 . S
C754 C261 1.460 . S
C779 C303 1.460 . S
C784 C275 1.460 . S
C809 C345 1.460 . S
C814 C429 1.460 . S
C839 C443 1.460 . S
C844 C359 1.460 . S
C869 C401 1.460 . S
C874 C373 1.460 . S
C899 C387 1.461 . S
C904 C415 1.461 . S
C929 C3 1.152 . S
C934 C427 1.148 . S
C959 C217 1.148 . S
C964 C17 1.152 . S
C989 C31 1.152 . S
C994 C399 1.148 . S
C1019 C45 1.152 . S
C1024 C189 1.148 . S
C1049 C371 1.148 . S
C1054 C59 1.152 . S
C1079 C161 1.148 . S
C1084 C73 1.152 . S
C1109 C87 1.152 . S
C1114 C343 1.148 . S
C1139 C133 1.148 . S
C1144 C101 1.152 . S
C1169 C115 1.152 . S
C1174 C315 1.148 . S
C1199 C105 1.148 . S
C1204 C129 1.152 . S
C1229 C143 1.152 . S
C1234 C287 1.148 . S
C1259 C157 1.152 . S
C1264 C77 1.148 . S
C1289 C259 1.148 . S
C1294 C171 1.152 . S
C1319 C185 1.152 . S
C1324 C49 1.148 . S
C1349 C199 1.152 . S
C1354 C231 1.148 . S
C1379 C21 1.148 . S
C1384 C213 1.152 . S
C1409 C227 1.152 . S
C1414 C203 1.148 . S
C1439 C241 1.152 . S
C1444 C441 1.148 . S
C1469 C175 1.148 . S
C1474 C255 1.152 . S
C1499 C269 1.152 . S
C1504 C413 1.148 . S
C1529 C147 1.148 . S
C1534 C283 1.152 . S
C1559 C385 1.148 . S
C1564 C297 1.152 . S
C1589 C119 1.148 . S
C1594 C311 1.152 . S
C1619 C357 1.148 . S
C1624 C325 1.152 . S
C1649 C339 1.152 . S
C1654 C91 1.148 . S
C1679 C329 1.148 . S
C1684 C353 1.152 . S
C1709 C63 1.148 . S
C1714 C367 1.152 . S
C1739 C381 1.152 . S
C1744 C301 1.148 . S
C1769 C395 1.152 . S
C1774 C35 1.148 . S
C1799 C409 1.152 . S
C1804 C273 1.148 . S
C1829 C7 1.148 . S
C1834 C423 1.152 . S
C1859 C437 1.152 . S
C1864 C245 1.148 . S
C1889 C8 1.383 . S
C1894 C302 1.383 . S
C1919 C316 1.382 . S
C1924 C22 1.382 . S
C1949 C36 1.382 . S
C1954 C330 1.382 . S
C1979 C288 1.382 . S
C1984 C50 1.382 . S
C2009 C274 1.383 . S
C2014 C64 1.383 . S
C2039 C232 1.382 . S
C2044 C78 1.382 . S
C2069 C246 1.382 . S
C2074 C92 1.382 . S
C2099 C260 1.382 . S
C2104 C106 1.382 . S
C2129 C120 1.383 . S
C2134 C414 1.383 . S
C2159 C428 1.382 . S
C2164 C134 1.382 . S
C2189 C442 1.382 . S
C2194 C148 1.382 . S
C2219 C400 1.382 . S
C2224 C162 1.382 . S
C2249 C386 1.383 . S
C2254 C176 1.383 . S
C2279 C344 1.382 . S
C2284 C190 1.382 . S
C2309 C204 1.382 . S
C2314 C358 1.382 . S
C2339 C218 1.382 . S
C2344 C372 1.382 . S
