# Generated by pormake.
# Topology vbm, (6)-cn, num edge types: 1
# Building blocks:
#     Node 0, Type 0, BuildingBlock: PAMTUU_clean_sbu_0, # of connection points: 6
#     Node 1, Type 0, BuildingBlock: PAMTUU_clean_sbu_0, # of connection points: 6
#     Node 2, Type 0, BuildingBlock: PAMTUU_clean_sbu_0, # of connection points: 6
#     Node 3, Type 0, BuildingBlock: PAMTUU_clean_sbu_0, # of connection points: 6
#     Node 4, Type 0, BuildingBlock: PAMTUU_clean_sbu_0, # of connection points: 6
#     Node 5, Type 0, BuildingBlock: PAMTUU_clean_sbu_0, # of connection points: 6
#     Node 6, Type 0, BuildingBlock: PAMTUU_clean_sbu_0, # of connection points: 6
#     Node 7, Type 0, BuildingBlock: PAMTUU_clean_sbu_0, # of connection points: 6
#     Node 8, Type 0, BuildingBlock: PAMTUU_clean_sbu_0, # of connection points: 6
#     Node 9, Type 0, BuildingBlock: PAMTUU_clean_sbu_0, # of connection points: 6
#     Node 10, Type 0, BuildingBlock: PAMTUU_clean_sbu_0, # of connection points: 6
#     Node 11, Type 0, BuildingBlock: PAMTUU_clean_sbu_0, # of connection points: 6
#     Node 12, Type 0, BuildingBlock: PAMTUU_clean_sbu_0, # of connection points: 6
#     Node 13, Type 0, BuildingBlock: PAMTUU_clean_sbu_0, # of connection points: 6
#     Node 14, Type 0, BuildingBlock: PAMTUU_clean_sbu_0, # of connection points: 6
#     Node 15, Type 0, BuildingBlock: PAMTUU_clean_sbu_0, # of connection points: 6
#     Edge 16, Type (0, 0), BuildingBlock: EZIPEK_clean_linker_0, # of connection points: 2
#     Edge 17, Type (0, 0), BuildingBlock: EZIPEK_clean_linker_0, # of connection points: 2
#     Edge 18, Type (0, 0), BuildingBlock: EZIPEK_clean_linker_0, # of connection points: 2
#     Edge 19, Type (0, 0), BuildingBlock: EZIPEK_clean_linker_0, # of connection points: 2
#     Edge 20, Type (0, 0), BuildingBlock: EZIPEK_clean_linker_0, # of connection points: 2
#     Edge 21, Type (0, 0), BuildingBlock: EZIPEK_clean_linker_0, # of connection points: 2
#     Edge 22, Type (0, 0), BuildingBlock: EZIPEK_clean_linker_0, # of connection points: 2
#     Edge 23, Type (0, 0), BuildingBlock: EZIPEK_clean_linker_0, # of connection points: 2
#     Edge 24, Type (0, 0), BuildingBlock: EZIPEK_clean_linker_0, # of connection points: 2
#     Edge 25, Type (0, 0), BuildingBlock: EZIPEK_clean_linker_0, # of connection points: 2
#     Edge 26, Type (0, 0), BuildingBlock: EZIPEK_clean_linker_0, # of connection points: 2
#     Edge 27, Type (0, 0), BuildingBlock: EZIPEK_clean_linker_0, # of connection points: 2
#     Edge 28, Type (0, 0), BuildingBlock: EZIPEK_clean_linker_0, # of connection points: 2
#     Edge 29, Type (0, 0), BuildingBlock: EZIPEK_clean_linker_0, # of connection points: 2
#     Edge 30, Type (0, 0), BuildingBlock: EZIPEK_clean_linker_0, # of connection points: 2
#     Edge 31, Type (0, 0), BuildingBlock: EZIPEK_clean_linker_0, # of connection points: 2
#     Edge 32, Type (0, 0), BuildingBlock: EZIPEK_clean_linker_0, # of connection points: 2
#     Edge 33, Type (0, 0), BuildingBlock: EZIPEK_clean_linker_0, # of connection points: 2
#     Edge 34, Type (0, 0), BuildingBlock: EZIPEK_clean_linker_0, # of connection points: 2
#     Edge 35, Type (0, 0), BuildingBlock: EZIPEK_clean_linker_0, # of connection points: 2
#     Edge 36, Type (0, 0), BuildingBlock: EZIPEK_clean_linker_0, # of connection points: 2
#     Edge 37, Type (0, 0), BuildingBlock: EZIPEK_clean_linker_0, # of connection points: 2
#     Edge 38, Type (0, 0), BuildingBlock: EZIPEK_clean_linker_0, # of connection points: 2
#     Edge 39, Type (0, 0), BuildingBlock: EZIPEK_clean_linker_0, # of connection points: 2
#     Edge 40, Type (0, 0), BuildingBlock: EZIPEK_clean_linker_0, # of connection points: 2
#     Edge 41, Type (0, 0), BuildingBlock: EZIPEK_clean_linker_0, # of connection points: 2
#     Edge 42, Type (0, 0), BuildingBlock: EZIPEK_clean_linker_0, # of connection points: 2
#     Edge 43, Type (0, 0), BuildingBlock: EZIPEK_clean_linker_0, # of connection points: 2
#     Edge 44, Type (0, 0), BuildingBlock: EZIPEK_clean_linker_0, # of connection points: 2
#     Edge 45, Type (0, 0), BuildingBlock: EZIPEK_clean_linker_0, # of connection points: 2
#     Edge 46, Type (0, 0), BuildingBlock: EZIPEK_clean_linker_0, # of connection points: 2
#     Edge 47, Type (0, 0), BuildingBlock: EZIPEK_clean_linker_0, # of connection points: 2
#     Edge 48, Type (0, 0), BuildingBlock: EZIPEK_clean_linker_0, # of connection points: 2
#     Edge 49, Type (0, 0), BuildingBlock: EZIPEK_clean_linker_0, # of connection points: 2
#     Edge 50, Type (0, 0), BuildingBlock: EZIPEK_clean_linker_0, # of connection points: 2
#     Edge 51, Type (0, 0), BuildingBlock: EZIPEK_clean_linker_0, # of connection points: 2
#     Edge 52, Type (0, 0), BuildingBlock: EZIPEK_clean_linker_0, # of connection points: 2
#     Edge 53, Type (0, 0), BuildingBlock: EZIPEK_clean_linker_0, # of connection points: 2
#     Edge 54, Type (0, 0), BuildingBlock: EZIPEK_clean_linker_0, # of connection points: 2
#     Edge 55, Type (0, 0), BuildingBlock: EZIPEK_clean_linker_0, # of connection points: 2
#     Edge 56, Type (0, 0), BuildingBlock: EZIPEK_clean_linker_0, # of connection points: 2
#     Edge 57, Type (0, 0), BuildingBlock: EZIPEK_clean_linker_0, # of connection points: 2
#     Edge 58, Type (0, 0), BuildingBlock: EZIPEK_clean_linker_0, # of connection points: 2
#     Edge 59, Type (0, 0), BuildingBlock: EZIPEK_clean_linker_0, # of connection points: 2
#     Edge 60, Type (0, 0), BuildingBlock: EZIPEK_clean_linker_0, # of connection points: 2
#     Edge 61, Type (0, 0), BuildingBlock: EZIPEK_clean_linker_0, # of connection points: 2
#     Edge 62, Type (0, 0), BuildingBlock: EZIPEK_clean_linker_0, # of connection points: 2
#     Edge 63, Type (0, 0), BuildingBlock: EZIPEK_clean_linker_0, # of connection points: 2
# Relax obj value: 0.054
# Max RMSD: 0.138
# Mean RMSD: 0.138
data_MOF--net-vbm--node1-PAMTUU_clean_sbu_0--edge1-EZIPEK_clean_linker_0
_symmetry_space_group_name_H-M    P1
_symmetry_Int_Tables_number       1
_symmetry_cell_setting            triclinic
loop_
_symmetry_equiv_pos_as_xyz
'x, y, z'
_cell_length_a     38.641304
_cell_length_b     21.09508
_cell_length_c     41.904334
_cell_angle_alpha  89.836524
_cell_angle_beta   90.118094
_cell_angle_gamma 90.066012
loop_
_atom_site_label
_atom_site_type_symbol
_atom_site_fract_x
_atom_site_fract_y
_atom_site_fract_z
_atom_type_partial_charge
Tb0 Tb 0.10349 0.21881 0.14495 0.0
Tb1 Tb 0.1367 0.08294 0.11722 0.0
C2 C 0.12145 0.10088 0.19021 0.0
C3 C 0.08988 0.39007 0.15976 0.0
C4 C 0.10667 0.51811 0.14832 0.0
C5 C 0.08543 0.50135 0.17415 0.0
C6 C 0.07705 0.43769 0.1798 0.0
C7 C 0.11147 0.40678 0.13413 0.0
C8 C 0.11971 0.47044 0.12839 0.0
C9 C 0.08072 0.32327 0.16574 0.0
O10 O 0.1587 0.23162 0.14537 0.0
O11 O 0.17845 0.15203 0.11235 0.0
O12 O 0.11706 0.13463 0.07621 0.0
O13 O 0.11441 0.23749 0.09469 0.0
O14 O 0.17469 1.01143 0.11814 0.0
O15 O 0.1316 1.00666 0.08554 0.0
O16 O 0.084 0.06434 0.133 0.0
O17 O 0.06101 0.16377 0.12631 0.0
O18 O 0.10094 0.14968 0.18437 0.0
O19 O 0.1421 0.07756 0.16844 0.0
C20 C 0.18273 0.20598 0.12762 0.0
O21 O 0.0673 0.29277 0.14173 0.0
O22 O 0.10411 0.28942 0.18031 0.0
C23 C 0.11413 0.19595 0.07129 0.0
C24 C 0.15165 0.91019 0.10688 0.0
C25 C 0.13813 0.7824 0.12214 0.0
C26 C 0.16634 0.79848 0.10265 0.0
C27 C 0.17303 0.862 0.09506 0.0
C28 C 0.12377 0.89421 0.12683 0.0
C29 C 0.11702 0.83069 0.13437 0.0
C30 C 0.15802 0.97659 0.09757 0.0
C31 C 0.0574 0.10241 0.12921 0.0
H32 H 0.07515 0.5376 0.18974 0.0
H33 H 0.06047 0.42565 0.19974 0.0
H34 H 0.1218 0.37063 0.1185 0.0
H35 H 0.13616 0.4826 0.10838 0.0
H36 H 0.18286 0.76178 0.09302 0.0
H37 H 0.19466 0.87345 0.07965 0.0
H38 H 0.10701 0.93079 0.13624 0.0
H39 H 0.09516 0.81908 0.14943 0.0
Tb40 Tb 0.87745 0.872 0.14404 0.0
Tb41 Tb 0.83889 1.00641 0.12053 0.0
C42 C 0.85944 0.98494 0.1914 0.0
C43 C 0.89157 0.69858 0.1532 0.0
C44 C 0.87368 0.57111 0.14101 0.0
C45 C 0.90472 0.58598 0.15683 0.0
C46 C 0.91357 0.64927 0.1629 0.0
C47 C 0.86074 0.68375 0.13693 0.0
C48 C 0.85187 0.62048 0.1309 0.0
C49 C 0.9 0.7648 0.16161 0.0
O50 O 0.82755 0.84727 0.12586 0.0
O51 O 0.79865 0.93979 0.13618 0.0
O52 O 0.83818 0.94491 0.07932 0.0
O53 O 0.88452 0.8808 0.09218 0.0
O54 O 0.80217 0.07751 0.12954 0.0
O55 O 0.83338 0.08006 0.08694 0.0
O56 O 0.89473 1.01884 0.1147 0.0
O57 O 0.91752 0.9423 0.14852 0.0
O58 O 0.85974 0.92305 0.18685 0.0
O59 O 0.85826 1.02515 0.16771 0.0
C60 C 0.79912 0.87808 0.13157 0.0
O61 O 0.91463 0.79938 0.13956 0.0
O62 O 0.87553 0.79575 0.17615 0.0
C63 C 0.86303 0.90596 0.07116 0.0
C64 C 0.81987 0.1782 0.11069 0.0
C65 C 0.8366 0.30691 0.12063 0.0
C66 C 0.81435 0.28928 0.09564 0.0
C67 C 0.80604 0.22536 0.09073 0.0
C68 C 0.84207 0.19587 0.13576 0.0
C69 C 0.85032 0.2598 0.14072 0.0
C70 C 0.81154 0.11091 0.10476 0.0
C71 C 0.92055 0.99351 0.13095 0.0
H72 H 0.92187 0.54852 0.16479 0.0
H73 H 0.93736 0.65967 0.17558 0.0
H74 H 0.8433 0.721 0.12932 0.0
H75 H 0.82783 0.60995 0.11866 0.0
H76 H 0.80353 0.325 0.07991 0.0
H77 H 0.78893 0.2127 0.07124 0.0
H78 H 0.85307 0.16025 0.15141 0.0
H79 H 0.86755 0.27253 0.1601 0.0
Tb80 Tb 0.10075 0.86291 0.36365 0.0
Tb81 Tb 0.14134 0.99834 0.38228 0.0
C82 C 0.12 0.96765 0.31237 0.0
C83 C 0.08333 0.69135 0.35319 0.0
C84 C 0.1035 0.56374 0.36035 0.0
C85 C 0.07569 0.57986 0.34031 0.0
C86 C 0.06566 0.64329 0.33678 0.0
C87 C 0.11122 0.67524 0.37319 0.0
C88 C 0.12119 0.61181 0.37681 0.0
C89 C 0.07318 0.75811 0.34869 0.0
O90 O 0.1553 0.84454 0.35837 0.0
O91 O 0.18001 0.92396 0.38878 0.0
O92 O 0.12337 0.95862 0.42688 0.0
O93 O 0.11523 0.85337 0.41386 0.0
O94 O 0.17863 0.06863 0.37192 0.0
O95 O 0.14523 0.07672 0.4127 0.0
O96 O 0.08826 1.02114 0.36927 0.0
O97 O 0.06206 0.92657 0.38206 0.0
O98 O 0.09652 0.92659 0.32215 0.0
O99 O 0.14486 0.98714 0.33123 0.0
C100 C 0.18123 0.8685 0.37444 0.0
O101 O 0.06573 0.78959 0.37447 0.0
O102 O 0.09287 0.79113 0.3297 0.0
C103 C 0.1188 0.89912 0.43493 0.0
C104 C 0.15993 0.17148 0.38644 0.0
C105 C 0.14297 0.29964 0.37543 0.0
C106 C 0.17615 0.28295 0.3863 0.0
C107 C 0.18455 0.21924 0.39179 0.0
C108 C 0.12703 0.18807 0.37476 0.0
C109 C 0.1186 0.25173 0.36934 0.0
C110 C 0.16803 0.10521 0.3949 0.0
C111 C 0.06069 0.98761 0.37657 0.0
H112 H 0.06176 0.54333 0.32747 0.0
H113 H 0.04419 0.65486 0.32115 0.0
H114 H 0.12529 0.71176 0.3859 0.0
H115 H 0.14272 0.6002 0.39235 0.0
H116 H 0.19526 0.31932 0.39112 0.0
H117 H 0.21004 0.20738 0.40082 0.0
H118 H 0.10764 0.15193 0.37047 0.0
H119 H 0.09289 0.26377 0.36095 0.0
Tb120 Tb 0.88308 0.22569 0.36043 0.0
Tb121 Tb 0.8456 0.09107 0.38477 0.0
C122 C 0.86531 0.11153 0.31389 0.0
C123 C 0.89898 0.39893 0.3496 0.0
C124 C 0.88202 0.52652 0.36237 0.0
C125 C 0.88908 0.50696 0.33108 0.0
C126 C 0.89755 0.44372 0.32478 0.0
C127 C 0.89186 0.41852 0.38097 0.0
C128 C 0.88362 0.48198 0.38731 0.0
C129 C 0.90613 0.33184 0.34187 0.0
O130 O 0.83285 0.25025 0.37791 0.0
O131 O 0.80513 0.15601 0.36821 0.0
O132 O 0.84343 0.15389 0.42541 0.0
O133 O 0.88883 0.22053 0.41256 0.0
O134 O 0.80942 1.01885 0.37582 0.0
O135 O 0.84078 1.01733 0.41845 0.0
O136 O 0.90108 0.08276 0.3932 0.0
O137 O 0.923 0.15495 0.35689 0.0
O138 O 0.8648 0.17349 0.31809 0.0
O139 O 0.86566 0.07198 0.33786 0.0
C140 C 0.80472 0.21779 0.37263 0.0
O141 O 0.92106 0.29707 0.36374 0.0
O142 O 0.88089 0.3016 0.32796 0.0
C143 C 0.86753 0.19469 0.43354 0.0
C144 C 0.82815 0.91861 0.39465 0.0
C145 C 0.84554 0.79024 0.38451 0.0
C146 C 0.82704 0.80827 0.41183 0.0
C147 C 0.8184 0.87196 0.41684 0.0
C148 C 0.84674 0.9006 0.36733 0.0
C149 C 0.85532 0.83689 0.36229 0.0
C150 C 0.81925 0.9857 0.40056 0.0
C151 C 0.92655 0.10601 0.37596 0.0
H152 H 0.88788 0.54064 0.31155 0.0
H153 H 0.90262 0.42957 0.3004 0.0
H154 H 0.89234 0.38476 0.40049 0.0
H155 H 0.87813 0.49626 0.41159 0.0
H156 H 0.81933 0.77299 0.42927 0.0
H157 H 0.80416 0.88485 0.4381 0.0
H158 H 0.85463 0.93575 0.34991 0.0
H159 H 0.86964 0.82394 0.34109 0.0
Tb160 Tb 0.84211 1.01022 0.88411 0.0
Tb161 Tb 0.8811 0.87631 0.86155 0.0
C162 C 0.86435 0.90872 0.9342 0.0
C163 C 0.82255 0.18217 0.89276 0.0
C164 C 0.83946 0.31117 0.88322 0.0
C165 C 0.81964 0.29237 0.90968 0.0
C166 C 0.8112 0.22839 0.91436 0.0
C167 C 0.84238 0.20094 0.86625 0.0
C168 C 0.85066 0.26496 0.86148 0.0
C169 C 0.81413 0.11472 0.89852 0.0
O170 O 0.89742 1.02101 0.89328 0.0
O171 O 0.92108 0.94724 0.85885 0.0
O172 O 0.86408 0.92817 0.8185 0.0
O173 O 0.86397 1.02973 0.83786 0.0
O174 O 0.91839 0.80408 0.86642 0.0
O175 O 0.8802 0.80113 0.82883 0.0
O176 O 0.83081 0.85114 0.87866 0.0
O177 O 0.80269 0.94375 0.86676 0.0
O178 O 0.84002 0.94853 0.92542 0.0
O179 O 0.88602 0.88275 0.9137 0.0
C180 C 0.92367 0.99708 0.87735 0.0
O181 O 0.80571 0.0812 0.87356 0.0
O182 O 0.83524 0.08394 0.91726 0.0
C183 C 0.86461 0.99012 0.81402 0.0
C184 C 0.89603 0.70283 0.85113 0.0
C185 C 0.87733 0.5754 0.86301 0.0
C186 C 0.88249 0.5969 0.83167 0.0
C187 C 0.89182 0.66 0.8258 0.0
C188 C 0.89075 0.6813 0.88257 0.0
C189 C 0.88163 0.61794 0.88845 0.0
C190 C 0.90429 0.76995 0.8439 0.0
C191 C 0.8026 0.88217 0.872 0.0
H192 H 0.81083 0.32725 0.92676 0.0
H193 H 0.79597 0.21492 0.93498 0.0
H194 H 0.85154 0.16612 0.84932 0.0
H195 H 0.86604 0.27846 0.84096 0.0
H196 H 0.87924 0.56478 0.81175 0.0
H197 H 0.89544 0.67559 0.80137 0.0
H198 H 0.89341 0.71343 0.90255 0.0
H199 H 0.87769 0.60216 0.91279 0.0
Tb200 Tb 0.13907 0.09267 0.8895 0.0
Tb201 Tb 0.10464 0.22812 0.86339 0.0
C202 C 0.114 0.2015 0.93686 0.0
C203 C 0.15729 0.91986 0.89753 0.0
C204 C 0.14341 0.7923 0.88242 0.0
C205 C 0.16322 0.80754 0.90943 0.0
C206 C 0.17014 0.87091 0.91691 0.0
C207 C 0.13781 0.90469 0.87024 0.0
C208 C 0.131 0.84121 0.86268 0.0
C209 C 0.16268 0.98625 0.90712 0.0
O210 O 0.08625 0.07239 0.87508 0.0
O211 O 0.06235 0.17136 0.88133 0.0
O212 O 0.09903 0.1595 0.82444 0.0
O213 O 0.14465 0.095 0.83777 0.0
O214 O 0.06979 0.30405 0.86779 0.0
O215 O 0.10464 0.29873 0.82789 0.0
O216 O 0.16033 0.23647 0.861 0.0
O217 O 0.1782 0.1644 0.8988 0.0
O218 O 0.11844 0.14066 0.93121 0.0
O219 O 0.11457 0.24432 0.91397 0.0
C220 C 0.05941 0.10966 0.87913 0.0
O221 O 0.17801 1.02325 0.88653 0.0
O222 O 0.13601 1.01378 0.91998 0.0
C223 C 0.12121 0.11443 0.81721 0.0
C224 C 0.09214 0.40029 0.84808 0.0
C225 C 0.10983 0.52829 0.85822 0.0
C226 C 0.08082 0.51244 0.83964 0.0
C227 C 0.07205 0.44884 0.83461 0.0
C228 C 0.12128 0.41605 0.86656 0.0
C229 C 0.13008 0.47969 0.87158 0.0
C230 C 0.08227 0.3336 0.84304 0.0
C231 C 0.18313 0.21586 0.88174 0.0
H232 H 0.1729 0.77037 0.92494 0.0
H233 H 0.18501 0.88176 0.93816 0.0
H234 H 0.12744 0.94191 0.85514 0.0
H235 H 0.11554 0.83023 0.84182 0.0
H236 H 0.0649 0.54935 0.82922 0.0
H237 H 0.04947 0.43754 0.82034 0.0
H238 H 0.13706 0.37914 0.87721 0.0
H239 H 0.15249 0.4911 0.88604 0.0
Tb240 Tb 0.84494 0.09335 0.62028 0.0
Tb241 Tb 0.88175 0.2294 0.64324 0.0
C242 C 0.86826 0.19665 0.57004 0.0
C243 C 0.8249 0.92224 0.61152 0.0
C244 C 0.84126 0.79378 0.62201 0.0
C245 C 0.81376 0.81051 0.60172 0.0
C246 C 0.80561 0.87439 0.59656 0.0
C247 C 0.85231 0.90551 0.63193 0.0
C248 C 0.86039 0.84164 0.63719 0.0
C249 C 0.81668 0.9893 0.60534 0.0
O250 O 0.90043 0.07768 0.61623 0.0
O251 O 0.92357 0.1621 0.64456 0.0
O252 O 0.8627 0.17763 0.68553 0.0
O253 O 0.86578 0.07567 0.66721 0.0
O254 O 0.91855 0.30294 0.63943 0.0
O255 O 0.87983 0.30377 0.67628 0.0
O256 O 0.83178 0.25232 0.62421 0.0
O257 O 0.80485 0.15897 0.63668 0.0
O258 O 0.84588 0.15222 0.57778 0.0
O259 O 0.88696 0.22736 0.59132 0.0
C260 C 0.92667 0.10801 0.62933 0.0
O261 O 0.80804 1.02278 0.63018 0.0
O262 O 0.83841 1.01972 0.58712 0.0
C263 C 0.86442 0.11603 0.69075 0.0
C264 C 0.89539 0.40234 0.65426 0.0
C265 C 0.87776 0.52989 0.64257 0.0
C266 C 0.90929 0.51461 0.6574 0.0
C267 C 0.918 0.45121 0.66327 0.0
C268 C 0.86408 0.41764 0.63893 0.0
C269 C 0.85526 0.48102 0.63325 0.0
C270 C 0.90403 0.33596 0.66196 0.0
C271 C 0.80384 0.22014 0.63054 0.0
H272 H 0.79874 0.77412 0.58986 0.0
H273 H 0.78437 0.88646 0.58076 0.0
H274 H 0.86753 0.94185 0.64365 0.0
H275 H 0.88169 0.8295 0.6529 0.0
H276 H 0.92693 0.55181 0.6647 0.0
H277 H 0.94222 0.44036 0.67514 0.0
H278 H 0.84632 0.38064 0.63166 0.0
H279 H 0.83085 0.492 0.62174 0.0
Tb280 Tb 0.14546 1.01313 0.62101 0.0
Tb281 Tb 0.10647 0.87728 0.6432 0.0
C282 C 0.11977 0.91452 0.5712 0.0
C283 C 0.16968 0.18348 0.61312 0.0
C284 C 0.15519 0.31279 0.62383 0.0
C285 C 0.17704 0.29455 0.59874 0.0
C286 C 0.18426 0.23037 0.59347 0.0
C287 C 0.14832 0.20168 0.63859 0.0
C288 C 0.14125 0.26591 0.64397 0.0
C289 C 0.17504 0.11596 0.60547 0.0
O290 O 0.09244 1.04007 0.6303 0.0
O291 O 0.06473 0.94218 0.63211 0.0
O292 O 0.10426 0.93585 0.68608 0.0
O293 O 0.14173 1.01729 0.67271 0.0
O294 O 0.07291 0.80203 0.63183 0.0
O295 O 0.10169 0.80188 0.6759 0.0
O296 O 0.16102 0.86661 0.6514 0.0
O297 O 0.1826 0.93574 0.61426 0.0
O298 O 0.12103 0.97458 0.5788 0.0
O299 O 0.12128 0.8694 0.59294 0.0
C300 C 0.06449 1.00448 0.63052 0.0
O301 O 0.18548 0.07928 0.62867 0.0
O302 O 0.15038 0.08946 0.58904 0.0
C303 C 0.12207 0.98716 0.69346 0.0
C304 C 0.09379 0.70275 0.65095 0.0
C305 C 0.11585 0.57653 0.64163 0.0
C306 C 0.10281 0.59572 0.6713 0.0
C307 C 0.0918 0.65826 0.67588 0.0
C308 C 0.1073 0.68367 0.62132 0.0
C309 C 0.11806 0.62092 0.61667 0.0
C310 C 0.08241 0.76879 0.65663 0.0
C311 C 0.18518 0.88392 0.63155 0.0
H312 H 0.18796 0.32995 0.5829 0.0
H313 H 0.20064 0.21724 0.5736 0.0
H314 H 0.13659 0.16618 0.65387 0.0
H315 H 0.12426 0.27903 0.66339 0.0
H316 H 0.10089 0.56208 0.6908 0.0
H317 H 0.08171 0.67195 0.69896 0.0
H318 H 0.10952 0.71713 0.60177 0.0
H319 H 0.12807 0.60692 0.59362 0.0
Tb320 Tb 0.60408 0.71329 0.14118 0.0
Tb321 Tb 0.64197 0.57839 0.11906 0.0
C322 C 0.62232 0.60287 0.19056 0.0
C323 C 0.58925 0.8859 0.15281 0.0
C324 C 0.60943 1.01368 0.14502 0.0
C325 C 0.59908 0.99099 0.17504 0.0
C326 C 0.58897 0.92765 0.17886 0.0
C327 C 0.60007 0.90858 0.12281 0.0
C328 C 0.60989 0.97207 0.11894 0.0
C329 C 0.57889 0.81894 0.15756 0.0
O330 O 0.65881 0.72864 0.14686 0.0
O331 O 0.68126 0.65272 0.11339 0.0
O332 O 0.62267 0.62136 0.07549 0.0
O333 O 0.61838 0.72579 0.09097 0.0
O334 O 0.68123 0.50999 0.12452 0.0
O335 O 0.64168 0.49954 0.08863 0.0
O336 O 0.58895 0.55631 0.13304 0.0
O337 O 0.56357 0.65282 0.12305 0.0
O338 O 0.60028 0.64781 0.18216 0.0
O339 O 0.64534 0.58053 0.17059 0.0
C340 C 0.68375 0.70648 0.12915 0.0
O341 O 0.56906 0.7875 0.13238 0.0
O342 O 0.59914 0.78509 0.17568 0.0
C343 C 0.61988 0.68181 0.0687 0.0
C344 C 0.6623 0.4059 0.11218 0.0
C345 C 0.64736 0.27776 0.12574 0.0
C346 C 0.66656 0.2942 0.09853 0.0
C347 C 0.67398 0.3578 0.09183 0.0
C348 C 0.6436 0.38954 0.13973 0.0
C349 C 0.63632 0.32581 0.14654 0.0
C350 C 0.66768 0.47271 0.10308 0.0
C351 C 0.56147 0.59161 0.1277 0.0
H352 H 0.59858 1.02248 0.19541 0.0
H353 H 0.58095 0.91117 0.20222 0.0
H354 H 0.60094 0.87735 0.10235 0.0
H355 H 0.61787 0.98881 0.09562 0.0
H356 H 0.67521 0.25785 0.08219 0.0
H357 H 0.68822 0.36957 0.07036 0.0
H358 H 0.63409 0.42606 0.15558 0.0
H359 H 0.62141 0.31401 0.1676 0.0
Tb360 Tb 0.38012 0.35827 0.14479 0.0
Tb361 Tb 0.34466 0.49364 0.11762 0.0
C362 C 0.36182 0.47536 0.1903 0.0
C363 C 0.39368 0.1848 0.15575 0.0
C364 C 0.37762 0.05774 0.14092 0.0
C365 C 0.39468 0.07269 0.16953 0.0
C366 C 0.40266 0.13577 0.17688 0.0
C367 C 0.37677 0.1699 0.12699 0.0
C368 C 0.36889 0.10671 0.11959 0.0
C369 C 0.40027 0.25123 0.16489 0.0
O370 O 0.33094 0.33497 0.12386 0.0
O371 O 0.30265 0.42936 0.13102 0.0
O372 O 0.34717 0.43059 0.07686 0.0
O373 O 0.39045 0.36239 0.09349 0.0
O374 O 0.30782 0.566 0.1233 0.0
O375 O 0.3423 0.56579 0.08296 0.0
O376 O 0.40067 0.50531 0.1152 0.0
O377 O 0.42165 0.42595 0.14849 0.0
O378 O 0.36385 0.41327 0.18682 0.0
O379 O 0.35958 0.51441 0.1661 0.0
C380 C 0.30256 0.36769 0.12663 0.0
O381 O 0.41766 0.28602 0.1447 0.0
O382 O 0.37363 0.28155 0.17622 0.0
C383 C 0.37126 0.38835 0.07096 0.0
C384 C 0.32772 0.66516 0.10475 0.0
C385 C 0.34351 0.79387 0.11587 0.0
C386 C 0.31548 0.77708 0.09622 0.0
C387 C 0.30764 0.71314 0.09072 0.0
C388 C 0.35574 0.68191 0.12442 0.0
C389 C 0.36359 0.74581 0.12993 0.0
C390 C 0.3193 0.59797 0.09883 0.0
C391 C 0.42569 0.47775 0.13151 0.0
H392 H 0.40155 1.03554 0.18628 0.0
H393 H 0.41544 0.14637 0.19928 0.0
H394 H 0.36931 0.20715 0.11052 0.0
H395 H 0.35563 0.09604 0.09744 0.0
H396 H 0.2997 0.81349 0.08519 0.0
H397 H 0.2859 0.70115 0.07551 0.0
H398 H 0.37149 0.64554 0.13548 0.0
H399 H 0.3853 0.75782 0.14517 0.0
Tb400 Tb 0.60163 0.36202 0.36215 0.0
Tb401 Tb 0.63899 0.49721 0.38625 0.0
C402 C 0.62067 0.47394 0.31424 0.0
C403 C 0.58618 0.18988 0.34971 0.0
C404 C 0.60498 0.06181 0.35878 0.0
C405 C 0.59021 0.0818 0.32982 0.0
C406 C 0.5808 0.14534 0.32537 0.0
C407 C 0.60139 0.16996 0.37858 0.0
C408 C 0.61053 0.10632 0.38312 0.0
C409 C 0.57655 0.2569 0.34437 0.0
O410 O 0.65653 0.34796 0.35747 0.0
O411 O 0.6785 0.42377 0.39162 0.0
O412 O 0.62116 0.45057 0.42938 0.0
O413 O 0.61487 0.34717 0.41233 0.0
O414 O 0.67782 0.56685 0.38179 0.0
O415 O 0.63761 0.57545 0.41702 0.0
O416 O 0.58616 0.51845 0.37175 0.0
O417 O 0.56121 0.42135 0.38104 0.0
O418 O 0.5983 0.42899 0.32188 0.0
O419 O 0.64337 0.49562 0.33482 0.0
C420 C 0.68133 0.37068 0.37532 0.0
O421 O 0.56573 0.28837 0.36912 0.0
O422 O 0.5981 0.29034 0.3274 0.0
C423 C 0.61726 0.38982 0.43509 0.0
C424 C 0.65747 0.67 0.39381 0.0
C425 C 0.64182 0.79773 0.37994 0.0
C426 C 0.66347 0.78226 0.40576 0.0
C427 C 0.67123 0.71885 0.41263 0.0
C428 C 0.63623 0.68538 0.36766 0.0
C429 C 0.62855 0.74887 0.36071 0.0
C430 C 0.66353 0.60344 0.40305 0.0
C431 C 0.55892 0.48272 0.37714 0.0
H432 H 0.58579 0.04811 0.31078 0.0
H433 H 0.56936 0.15976 0.30287 0.0
H434 H 0.60617 0.20353 0.3976 0.0
H435 H 0.62202 0.09175 0.40557 0.0
H436 H 0.67388 0.81926 0.42088 0.0
H437 H 0.68745 0.70787 0.43302 0.0
H438 H 0.62514 0.64826 0.35302 0.0
H439 H 0.61176 0.75991 0.34072 0.0
Tb440 Tb 0.38035 0.71679 0.36032 0.0
Tb441 Tb 0.34231 0.58221 0.38445 0.0
C442 C 0.36309 0.60238 0.31325 0.0
C443 C 0.39553 0.89035 0.35008 0.0
C444 C 0.37794 1.0175 0.36333 0.0
C445 C 0.38461 0.9983 0.33191 0.0
C446 C 0.39339 0.9353 0.32537 0.0
C447 C 0.38879 0.90957 0.38159 0.0
C448 C 0.38023 0.97281 0.38816 0.0
C449 C 0.40299 0.82345 0.3421 0.0
O450 O 0.32994 0.74118 0.37741 0.0
O451 O 0.30187 0.64715 0.36801 0.0
O452 O 0.34088 0.6449 0.42542 0.0
O453 O 0.38631 0.71134 0.4124 0.0
O454 O 0.30594 0.51017 0.37571 0.0
O455 O 0.33723 0.50893 0.41836 0.0
O456 O 0.39775 0.57199 0.39221 0.0
O457 O 0.42056 0.64651 0.35744 0.0
O458 O 0.36379 0.66437 0.31743 0.0
O459 O 0.36179 0.56265 0.33721 0.0
C460 C 0.30177 0.70897 0.37211 0.0
O461 O 0.41809 0.78856 0.36382 0.0
O462 O 0.37788 0.79306 0.32807 0.0
C463 C 0.36497 0.6859 0.43343 0.0
C464 C 0.32427 0.40999 0.39496 0.0
C465 C 0.34122 0.28122 0.38536 0.0
C466 C 0.32244 0.29984 0.41243 0.0
C467 C 0.314 0.36371 0.41715 0.0
C468 C 0.34318 0.39141 0.36792 0.0
C469 C 0.3515 0.32751 0.36313 0.0
C470 C 0.31561 0.47728 0.40058 0.0
C471 C 0.42356 0.59637 0.37582 0.0
H472 H 0.38291 1.0321 0.31246 0.0
H473 H 0.39816 0.92145 0.30089 0.0
H474 H 0.38981 0.87569 0.40104 0.0
H475 H 0.37508 0.9868 0.41254 0.0
H476 H 0.31437 0.26488 0.42988 0.0
H477 H 0.29954 0.37705 0.4382 0.0
H478 H 0.35152 0.42628 0.35054 0.0
H479 H 0.36607 0.31413 0.34215 0.0
Tb480 Tb 0.34905 0.50064 0.88918 0.0
Tb481 Tb 0.38333 0.36435 0.8626 0.0
C482 C 0.3722 0.38892 0.93603 0.0
C483 C 0.33356 0.67385 0.89958 0.0
C484 C 0.34777 0.80131 0.88411 0.0
C485 C 0.33828 0.78441 0.9153 0.0
C486 C 0.33118 0.72113 0.92295 0.0
C487 C 0.34294 0.69077 0.86829 0.0
C488 C 0.34985 0.75421 0.86058 0.0
C489 C 0.3278 0.60712 0.9087 0.0
O490 O 0.40158 0.51945 0.87312 0.0
O491 O 0.42537 0.42081 0.88079 0.0
O492 O 0.38442 0.43218 0.82253 0.0
O493 O 0.34279 0.50396 0.83795 0.0
O494 O 0.41986 0.29094 0.86607 0.0
O495 O 0.38331 0.29379 0.82725 0.0
O496 O 0.32844 0.34882 0.86384 0.0
O497 O 0.30739 0.43152 0.8943 0.0
O498 O 0.36838 0.44991 0.93061 0.0
O499 O 0.373 0.3466 0.91302 0.0
C500 C 0.42836 0.48213 0.87744 0.0
O501 O 0.31093 0.57172 0.88847 0.0
O502 O 0.3546 0.57777 0.9204 0.0
C503 C 0.36309 0.47952 0.8162 0.0
C504 C 0.39789 0.19335 0.84771 0.0
C505 C 0.381 0.06502 0.8583 0.0
C506 C 0.40279 0.08235 0.83294 0.0
C507 C 0.41121 0.14612 0.82772 0.0
C508 C 0.37582 0.17614 0.87291 0.0
C509 C 0.36752 0.11236 0.87822 0.0
C510 C 0.40678 0.26032 0.84193 0.0
C511 C 0.30384 0.37607 0.88029 0.0
H512 H 0.33667 0.82016 0.93374 0.0
H513 H 0.32424 0.70894 0.94725 0.0
H514 H 0.3453 0.65491 0.84996 0.0
H515 H 0.35729 0.76649 0.83643 0.0
H516 H 0.41337 0.04645 0.81733 0.0
H517 H 0.42813 0.15857 0.80809 0.0
H518 H 0.3651 0.21202 0.88847 0.0
H519 H 0.35065 0.09985 0.89788 0.0
Tb520 Tb 0.6452 0.58725 0.88241 0.0
Tb521 Tb 0.60485 0.72109 0.85919 0.0
C522 C 0.62081 0.69005 0.93263 0.0
C523 C 0.66774 0.41422 0.8878 0.0
C524 C 0.65466 0.28556 0.8729 0.0
C525 C 0.65287 0.30678 0.90455 0.0
C526 C 0.65939 0.37037 0.91191 0.0
C527 C 0.67031 0.39262 0.85611 0.0
C528 C 0.66375 0.32883 0.84874 0.0
C529 C 0.67293 0.48184 0.89646 0.0
O530 O 0.59138 0.56245 0.87292 0.0
O531 O 0.56322 0.65947 0.87373 0.0
O532 O 0.59994 0.65224 0.82014 0.0
O533 O 0.64881 0.59428 0.83092 0.0
O534 O 0.57206 0.79889 0.86782 0.0
O535 O 0.59961 0.79061 0.82344 0.0
O536 O 0.65964 0.73338 0.85227 0.0
O537 O 0.68216 0.66454 0.88943 0.0
O538 O 0.62891 0.63093 0.9265 0.0
O539 O 0.61549 0.73295 0.91025 0.0
C540 C 0.56323 0.59733 0.87463 0.0
O541 O 0.6849 0.52046 0.87473 0.0
O542 O 0.64803 0.50783 0.91267 0.0
C543 C 0.62343 0.61005 0.81176 0.0
C544 C 0.59371 0.89459 0.8452 0.0
C545 C 0.61595 1.02193 0.85221 0.0
C546 C 0.63332 0.98078 0.8314 0.0
C547 C 0.62241 0.91773 0.82798 0.0
C548 C 0.57629 0.93616 0.86584 0.0
C549 C 0.58736 0.99903 0.86941 0.0
C550 C 0.58157 0.82788 0.84176 0.0
C551 C 0.68409 0.71645 0.87201 0.0
H552 H 0.64598 0.2742 0.92354 0.0
H553 H 0.65747 0.38554 0.93653 0.0
H554 H 0.67694 0.42502 0.83699 0.0
H555 H 0.66533 0.31335 0.82416 0.0
H556 H 0.65534 0.99755 0.81781 0.0
H557 H 0.63645 0.88726 0.81179 0.0
H558 H 0.55402 0.91999 0.87928 0.0
H559 H 0.5735 1.03003 0.88549 0.0
Tb560 Tb 0.34094 0.57928 0.61887 0.0
Tb561 Tb 0.37777 0.71513 0.64248 0.0
C562 C 0.36305 0.68657 0.56971 0.0
C563 C 0.32176 0.40661 0.61142 0.0
C564 C 0.33452 0.27777 0.62493 0.0
C565 C 0.30387 0.29607 0.60937 0.0
C566 C 0.29754 0.36012 0.60268 0.0
C567 C 0.35196 0.38846 0.62778 0.0
C568 C 0.35831 0.32446 0.63443 0.0
C569 C 0.31607 0.47325 0.60212 0.0
O570 O 0.39438 0.55885 0.6323 0.0
O571 O 0.41885 0.65711 0.62416 0.0
O572 O 0.38155 0.64847 0.68299 0.0
O573 O 0.3379 0.5784 0.67038 0.0
O574 O 0.4125 0.79053 0.63518 0.0
O575 O 0.38132 0.78585 0.67761 0.0
O576 O 0.32311 0.72898 0.6466 0.0
O577 O 0.30047 0.65109 0.61425 0.0
O578 O 0.35983 0.62587 0.5761 0.0
O579 O 0.3641 0.72999 0.59225 0.0
C580 C 0.42139 0.59572 0.62752 0.0
O581 O 0.30195 0.50983 0.62343 0.0
O582 O 0.34198 0.50118 0.58804 0.0
C583 C 0.36001 0.60226 0.69084 0.0
C584 C 0.39094 0.88683 0.65542 0.0
C585 C 0.37009 1.01349 0.64599 0.0
C586 C 0.39558 0.99864 0.66873 0.0
C587 C 0.40596 0.93569 0.67339 0.0
C588 C 0.3651 0.90158 0.63294 0.0
C589 C 0.35484 0.96456 0.62818 0.0
C590 C 0.40201 0.82072 0.66045 0.0
C591 C 0.29777 0.70506 0.6298 0.0
H592 H 0.28524 0.26066 0.60188 0.0
H593 H 0.27406 0.37324 0.59013 0.0
H594 H 0.37092 0.42366 0.63482 0.0
H595 H 0.38208 0.31116 0.64644 0.0
H596 H 0.40764 1.03587 0.68263 0.0
H597 H 0.42578 0.92516 0.69093 0.0
H598 H 0.35301 0.86442 0.619 0.0
H599 H 0.33514 0.97522 0.61053 0.0
Tb600 Tb 0.63863 0.49859 0.61761 0.0
Tb601 Tb 0.60147 0.36444 0.64381 0.0
C602 C 0.61629 0.39005 0.57002 0.0
C603 C 0.65923 0.67167 0.61047 0.0
C604 C 0.64722 0.7998 0.62687 0.0
C605 C 0.64335 0.77938 0.59521 0.0
C606 C 0.64937 0.71605 0.5871 0.0
C607 C 0.66356 0.6923 0.64217 0.0
C608 C 0.65766 0.75587 0.65027 0.0
C609 C 0.66406 0.60443 0.60113 0.0
O610 O 0.58514 0.52124 0.62931 0.0
O611 O 0.55874 0.42281 0.62835 0.0
O612 O 0.59734 0.43446 0.68238 0.0
O613 O 0.64417 0.49624 0.66905 0.0
O614 O 0.56819 0.2865 0.63701 0.0
O615 O 0.59856 0.2952 0.67991 0.0
O616 O 0.65653 0.35607 0.65063 0.0
O617 O 0.67675 0.42309 0.61157 0.0
O618 O 0.6213 0.45081 0.57477 0.0
O619 O 0.61368 0.34855 0.59342 0.0
C620 C 0.55753 0.48489 0.62779 0.0
O621 O 0.67857 0.56618 0.62169 0.0
O622 O 0.63778 0.57773 0.58703 0.0
C623 C 0.62035 0.47866 0.68942 0.0
C624 C 0.5908 0.19109 0.6588 0.0
C625 C 0.61181 0.06354 0.65071 0.0
C626 C 0.63222 0.10577 0.66854 0.0
C627 C 0.62192 0.169 0.67244 0.0
C628 C 0.57036 0.14848 0.64118 0.0
C629 C 0.58082 0.08549 0.63705 0.0
C630 C 0.57923 0.25786 0.66267 0.0
C631 C 0.68031 0.37332 0.63032 0.0
H632 H 0.63537 0.81248 0.5768 0.0
H633 H 0.64596 0.70151 0.56251 0.0
H634 H 0.67118 0.65934 0.66075 0.0
H635 H 0.66082 0.77069 0.67483 0.0
H636 H 0.65617 0.08977 0.67935 0.0
H637 H 0.63836 0.20043 0.68615 0.0
H638 H 0.54624 0.16397 0.63051 0.0
H639 H 0.56465 0.05368 0.62328 0.0
C640 C 0.23124 0.26034 0.15574 0.0
C641 C 0.21616 0.24083 0.12637 0.0
C642 C 0.25615 0.31025 0.09702 0.0
C643 C 0.27004 0.33119 0.1265 0.0
N644 N 0.2689 0.33363 0.18386 0.0
N645 N 0.2183 0.23767 0.06873 0.0
C646 C 0.25703 0.30831 0.15586 0.0
C647 C 0.22982 0.26286 0.09684 0.0
N648 N 0.22217 0.22995 0.18336 0.0
N649 N 0.26709 0.33829 0.06933 0.0
H650 H 0.19831 0.2048 0.06721 0.0
H651 H 0.22978 0.24614 0.0467 0.0
H652 H 0.28572 0.37408 0.06897 0.0
H653 H 0.25613 0.33028 0.04702 0.0
H654 H 0.23431 0.23701 0.20524 0.0
H655 H 0.20454 0.19259 0.1838 0.0
H656 H 0.25798 0.32433 0.20606 0.0
H657 H 0.28812 0.36834 0.18476 0.0
C658 C 0.74501 0.83979 0.10539 0.0
C659 C 0.76726 0.83973 0.13223 0.0
C660 C 0.73958 0.74295 0.15252 0.0
C661 C 0.71541 0.74595 0.12716 0.0
N662 N 0.69299 0.7998 0.08065 0.0
N663 N 0.78337 0.79767 0.18363 0.0
C664 C 0.71759 0.79507 0.10389 0.0
C665 C 0.76384 0.79302 0.15648 0.0
N666 N 0.75103 0.88074 0.08064 0.0
N667 N 0.73969 0.69138 0.17236 0.0
H668 H 0.80091 0.83459 0.1874 0.0
H669 H 0.78011 0.76865 0.20352 0.0
H670 H 0.72256 0.65354 0.16946 0.0
H671 H 0.75856 0.68313 0.18963 0.0
H672 H 0.73886 0.87736 0.05852 0.0
H673 H 0.76983 0.91618 0.08149 0.0
H674 H 0.69 0.83924 0.0659 0.0
H675 H 0.6747 0.76472 0.07688 0.0
C676 C 0.26599 0.79558 0.34895 0.0
C677 C 0.26928 0.74537 0.37138 0.0
C678 C 0.21478 0.77622 0.39622 0.0
C679 C 0.21311 0.83002 0.37571 0.0
N680 N 0.2393 0.89626 0.33551 0.0
N681 N 0.25028 0.69404 0.4198 0.0
C682 C 0.23949 0.84145 0.35302 0.0
C683 C 0.24456 0.73708 0.39589 0.0
N684 N 0.2875 0.79789 0.32309 0.0
N685 N 0.18766 0.76166 0.41571 0.0
H686 H 0.27146 0.66353 0.42024 0.0
H687 H 0.23546 0.69185 0.44051 0.0
H688 H 0.16632 0.79092 0.41822 0.0
H689 H 0.18535 0.71868 0.42783 0.0
H690 H 0.2845 0.82978 0.30428 0.0
H691 H 0.30643 0.7637 0.31887 0.0
H692 H 0.2597 0.91044 0.32094 0.0
H693 H 0.21993 0.93041 0.33759 0.0
C694 C 0.74545 0.23893 0.3942 0.0
C695 C 0.77199 0.25365 0.3722 0.0
C696 C 0.74183 0.35154 0.35703 0.0
C697 C 0.71365 0.33339 0.37656 0.0
N698 N 0.68572 0.25262 0.40868 0.0
N699 N 0.79216 0.31635 0.3277 0.0
C700 C 0.71454 0.27491 0.3936 0.0
C701 C 0.76932 0.30802 0.35224 0.0
N702 N 0.75024 0.19278 0.41676 0.0
N703 N 0.74224 0.41002 0.3429 0.0
H704 H 0.81141 0.28343 0.3224 0.0
H705 H 0.78975 0.35198 0.31059 0.0
H706 H 0.72208 0.44251 0.34523 0.0
H707 H 0.76377 0.42833 0.33111 0.0
H708 H 0.7333 0.18562 0.43575 0.0
H709 H 0.7726 0.16544 0.41838 0.0
H710 H 0.68381 0.20685 0.41795 0.0
H711 H 0.66278 0.27786 0.4097 0.0
C712 C 0.74436 0.74255 0.85523 0.0
C713 C 0.71484 0.75799 0.87352 0.0
C714 C 0.74238 0.85726 0.89056 0.0
C715 C 0.77052 0.84435 0.87007 0.0
N716 N 0.79435 0.78288 0.82696 0.0
N717 N 0.68242 0.83717 0.90258 0.0
C718 C 0.77041 0.78917 0.8507 0.0
C719 C 0.71279 0.81754 0.88934 0.0
N720 N 0.74743 0.68366 0.84202 0.0
N721 N 0.74439 0.90534 0.9123 0.0
H722 H 0.66023 0.8095 0.90268 0.0
H723 H 0.6785 0.88307 0.91097 0.0
H724 H 0.76568 0.93545 0.91424 0.0
H725 H 0.72617 0.91186 0.93029 0.0
H726 H 0.77003 0.66766 0.8312 0.0
H727 H 0.72838 0.64883 0.84417 0.0
H728 H 0.79391 0.74635 0.8103 0.0
H729 H 0.81236 0.81826 0.8217 0.0
C730 C 0.25534 0.32428 0.91178 0.0
C731 C 0.27068 0.34053 0.88197 0.0
C732 C 0.23423 0.26228 0.85505 0.0
C733 C 0.21622 0.25105 0.88376 0.0
N734 N 0.20805 0.27248 0.9397 0.0
N735 N 0.26833 0.33589 0.8244 0.0
C736 C 0.22637 0.28222 0.91229 0.0
C737 C 0.25814 0.31274 0.85337 0.0
N738 N 0.26905 0.34686 0.93962 0.0
N739 N 0.22946 0.22274 0.82966 0.0
H740 H 0.28494 0.3745 0.82214 0.0
H741 H 0.25741 0.32133 0.80286 0.0
H742 H 0.21377 0.18259 0.83113 0.0
H743 H 0.24418 0.2252 0.80888 0.0
H744 H 0.26156 0.33125 0.96215 0.0
H745 H 0.28977 0.3783 0.94058 0.0
H746 H 0.21136 0.29909 0.96035 0.0
H747 H 0.18818 0.23933 0.94147 0.0
C748 C 0.71105 0.2726 0.61583 0.0
C749 C 0.71205 0.33449 0.62929 0.0
C750 C 0.76998 0.31311 0.64982 0.0
C751 C 0.77102 0.25593 0.632 0.0
N752 N 0.74441 0.18732 0.59292 0.0
N753 N 0.74415 0.41679 0.65616 0.0
C754 C 0.74206 0.23709 0.61361 0.0
C755 C 0.74219 0.35598 0.64513 0.0
N756 N 0.6805 0.24678 0.60584 0.0
N757 N 0.79445 0.32457 0.67267 0.0
H758 H 0.72375 0.44893 0.65424 0.0
H759 H 0.76698 0.43669 0.66487 0.0
H760 H 0.81342 0.29147 0.67863 0.0
H761 H 0.79347 0.36302 0.68819 0.0
H762 H 0.67801 0.19944 0.59913 0.0
H763 H 0.65705 0.27059 0.60717 0.0
H764 H 0.72502 0.17626 0.57653 0.0
H765 H 0.76692 0.16086 0.58986 0.0
C766 C 0.23401 0.82724 0.65721 0.0
C767 C 0.21557 0.84154 0.62899 0.0
C768 C 0.24904 0.76084 0.60014 0.0
C769 C 0.26544 0.74327 0.62927 0.0
N770 N 0.26509 0.74758 0.68683 0.0
N771 N 0.2006 0.81325 0.57488 0.0
C772 C 0.25527 0.77285 0.65819 0.0
C773 C 0.22168 0.80594 0.60077 0.0
N774 N 0.23182 0.86659 0.68296 0.0
N775 N 0.26017 0.7369 0.5717 0.0
H776 H 0.18117 0.84699 0.57399 0.0
H777 H 0.20072 0.78289 0.55532 0.0
H778 H 0.27949 0.70296 0.56961 0.0
H779 H 0.25195 0.75432 0.54967 0.0
H780 H 0.24733 0.86167 0.7032 0.0
H781 H 0.21723 0.90813 0.6826 0.0
H782 H 0.25581 0.76369 0.70868 0.0
H783 H 0.2793 0.70587 0.6884 0.0
C784 C 0.08789 1.02397 0.26737 0.0
C785 C 0.11864 0.99603 0.27968 0.0
C786 C 0.15144 0.04548 0.23617 0.0
C787 C 0.12022 0.06703 0.22172 0.0
N788 N 0.05783 0.05734 0.2197 0.0
N789 N 0.17795 0.96608 0.26997 0.0
C790 C 0.08811 0.05077 0.23617 0.0
C791 C 0.14989 1.0024 0.26223 0.0
N792 N 0.05885 1.02809 0.28571 0.0
N793 N 0.1827 0.06802 0.22606 0.0
H794 H 0.17724 0.93155 0.28785 0.0
H795 H 0.2004 0.96506 0.25623 0.0
H796 H 0.18508 0.10237 0.20834 0.0
H797 H 0.20587 0.05806 0.23782 0.0
H798 H 0.03697 0.05343 0.27864 0.0
H799 H 0.05791 1.01242 0.30921 0.0
H800 H 0.03416 1.04102 0.22838 0.0
H801 H 0.05701 0.07132 0.19591 0.0
C802 C 0.83268 0.08179 0.26413 0.0
C803 C 0.86431 0.08342 0.28137 0.0
C804 C 0.89063 1.01056 0.24255 0.0
C805 C 0.8598 1.01243 0.22409 0.0
N806 N 0.80214 0.05296 0.2156 0.0
N807 N 0.92482 0.05746 0.28511 0.0
C808 C 0.83105 0.04914 0.2344 0.0
C809 C 0.89365 0.04976 0.27009 0.0
N810 N 0.80377 0.10912 0.27689 0.0
N811 N 0.91706 0.9713 0.23375 0.0
H812 H 0.92802 0.08697 0.30479 0.0
H813 H 0.94811 1.03946 0.27665 0.0
H814 H 0.91629 0.9435 0.21326 0.0
H815 H 0.9387 0.96237 0.24787 0.0
H816 H 0.77896 0.1032 0.26765 0.0
H817 H 0.80415 0.13493 0.29808 0.0
H818 H 0.78226 0.08537 0.21929 0.0
H819 H 0.79858 1.02526 0.19527 0.0
C820 C 0.89019 0.09823 0.74538 0.0
C821 C 0.86241 0.08921 0.7237 0.0
C822 C 0.83532 1.01424 0.76152 0.0
C823 C 0.86505 1.01816 0.78135 0.0
N824 N 0.92361 0.0541 0.78904 0.0
N825 N 0.80835 1.0382 0.71054 0.0
C826 C 0.8932 0.0577 0.77245 0.0
C827 C 0.83499 0.04678 0.7316 0.0
N828 N 0.9136 0.14582 0.74041 0.0
N829 N 0.80674 0.98203 0.77197 0.0
H830 H 0.80492 0.06669 0.69041 0.0
H831 H 0.79024 1.00182 0.71245 0.0
H832 H 0.80615 0.95692 0.79343 0.0
H833 H 0.78283 0.98338 0.7605 0.0
H834 H 0.93217 0.15889 0.75721 0.0
H835 H 0.91273 0.17589 0.72067 0.0
H836 H 0.94628 0.0769 0.78197 0.0
H837 H 0.92717 1.02278 0.80803 0.0
C838 C 0.08994 0.04947 0.77493 0.0
C839 C 0.11991 0.08303 0.78521 0.0
C840 C 0.15199 1.03898 0.74003 0.0
C841 C 0.12099 1.01366 0.72678 0.0
N842 N 0.05864 1.00142 0.73121 0.0
N843 N 0.17725 0.12057 0.77305 0.0
C844 C 0.08944 1.02032 0.74417 0.0
C845 C 0.15028 0.08083 0.76643 0.0
N846 N 0.06227 1.04325 0.79491 0.0
N847 N 0.18342 1.02069 0.72839 0.0
H848 H 0.17599 0.1545 0.79103 0.0
H849 H 0.19887 0.12493 0.75836 0.0
H850 H 0.18599 0.9862 0.71081 0.0
H851 H 0.20681 1.0336 0.73899 0.0
H852 H 0.04159 1.01275 0.79052 0.0
H853 H 0.06127 0.06435 0.81724 0.0
H854 H 0.03475 1.01266 0.74117 0.0
H855 H 0.05619 0.97993 0.70905 0.0
C856 C 0.58865 0.5254 0.2677 0.0
C857 C 0.6201 0.50436 0.28187 0.0
C858 C 0.65214 0.56029 0.23974 0.0
C859 C 0.62084 0.57285 0.22304 0.0
N860 N 0.55973 0.54981 0.21811 0.0
N861 N 0.68173 0.48898 0.27582 0.0
C862 C 0.58913 0.55058 0.23615 0.0
C863 C 0.65187 0.51805 0.26624 0.0
N864 N 0.5585 0.52454 0.2846 0.0
N865 N 0.68203 0.59032 0.23109 0.0
H866 H 0.68234 0.4545 0.2937 0.0
H867 H 0.70498 0.49353 0.26342 0.0
H868 H 0.68284 0.62468 0.21317 0.0
H869 H 0.70488 0.58668 0.24423 0.0
H870 H 0.53562 0.54451 0.27601 0.0
H871 H 0.5573 0.51106 0.30846 0.0
H872 H 0.53672 0.52902 0.22585 0.0
H873 H 0.55958 0.56254 0.19416 0.0
C874 C 0.33235 0.57029 0.26277 0.0
C875 C 0.36359 0.57463 0.28052 0.0
C876 C 0.39375 0.51232 0.23941 0.0
C877 C 0.36199 0.50433 0.22275 0.0
N878 N 0.30032 0.51915 0.21986 0.0
N879 N 0.42367 0.54719 0.2872 0.0
C880 C 0.33109 0.53178 0.23477 0.0
C881 C 0.39417 0.54484 0.26921 0.0
N882 N 0.30396 0.60357 0.27259 0.0
N883 N 0.42381 0.491 0.2261 0.0
H884 H 0.42587 0.57526 0.30749 0.0
H885 H 0.44546 0.51955 0.28293 0.0
H886 H 0.42438 0.46429 0.20528 0.0
H887 H 0.44836 0.50252 0.23455 0.0
H888 H 0.28134 0.60798 0.25927 0.0
H889 H 0.30382 0.63101 0.29327 0.0
H890 H 0.27628 0.53214 0.22882 0.0
H891 H 0.29854 0.49102 0.19948 0.0
C892 C 0.33062 0.52286 0.76844 0.0
C893 C 0.36267 0.5097 0.78378 0.0
C894 C 0.39305 0.55151 0.73678 0.0
C895 C 0.36126 0.57264 0.72343 0.0
N896 N 0.29982 0.58838 0.73057 0.0
N897 N 0.42427 0.52924 0.78545 0.0
C898 C 0.33004 0.56114 0.74044 0.0
C899 C 0.39392 0.52902 0.76879 0.0
N900 N 0.30064 0.497 0.77981 0.0
N901 N 0.42215 0.54911 0.71848 0.0
H902 H 0.42545 0.51836 0.80965 0.0
H903 H 0.4472 0.54788 0.77627 0.0
H904 H 0.42175 0.55933 0.6942 0.0
H905 H 0.4453 0.52917 0.72644 0.0
H906 H 0.27719 0.49933 0.76754 0.0
H907 H 0.29984 0.46769 0.79978 0.0
H908 H 0.27717 0.58736 0.74403 0.0
H909 H 0.29824 0.61742 0.71057 0.0
C910 C 0.62099 0.61172 0.7515 0.0
C911 C 0.62092 0.57663 0.7804 0.0
C912 C 0.62242 0.47702 0.74964 0.0
C913 C 0.61924 0.51197 0.72085 0.0
N914 N 0.60982 0.61298 0.69472 0.0
N915 N 0.61571 0.47495 0.80693 0.0
C916 C 0.6169 0.57944 0.7219 0.0
C917 C 0.61998 0.50902 0.77944 0.0
N918 N 0.62686 0.67566 0.7521 0.0
N919 N 0.62973 0.41363 0.74865 0.0
H920 H 0.6145 0.49556 0.82939 0.0
H921 H 0.61029 0.42656 0.80726 0.0
H922 H 0.63228 0.38844 0.72741 0.0
H923 H 0.63653 0.38718 0.76873 0.0
H924 H 0.63138 0.70265 0.73167 0.0
H925 H 0.63055 0.70103 0.77315 0.0
H926 H 0.60355 0.66099 0.69465 0.0
H927 H 0.60717 0.59205 0.67242 0.0
C928 C 0.12537 0.26528 0.98744 0.0
C929 C 0.10559 0.21951 0.97051 0.0
C930 C 0.08004 0.18416 0.02113 0.0
C931 C 0.10671 0.21629 0.03785 0.0
N932 N 0.15252 0.29422 0.03758 0.0
N933 N 0.05788 0.14593 0.97053 0.0
C934 C 0.12823 0.26004 0.02133 0.0
C935 C 0.08069 0.18269 0.98724 0.0
N936 N 0.1406 0.31441 0.97153 0.0
N937 N 0.05374 0.15632 0.03789 0.0
H938 H 0.05492 0.14994 0.94587 0.0
H939 H 0.04232 0.11116 0.9808 0.0
H940 H 0.05203 0.15938 0.06267 0.0
H941 H 0.03203 0.13574 0.02745 0.0
H942 H 0.15253 0.35237 0.98298 0.0
H943 H 0.13826 0.32107 0.94702 0.0
H944 H 0.17208 0.31998 0.02641 0.0
H945 H 0.15423 0.29453 0.06236 0.0
C946 C 0.89592 0.92431 0.98602 0.0
C947 C 0.86813 0.89601 0.96897 0.0
C948 C 0.84272 0.85915 0.01951 0.0
C949 C 0.86796 0.89447 0.0365 0.0
N950 N 0.91747 0.96405 0.03652 0.0
N951 N 0.81485 0.83661 0.96871 0.0
C952 C 0.89471 0.92687 0.01994 0.0
C953 C 0.84158 0.86294 0.98553 0.0
N954 N 0.92307 0.95042 0.96976 0.0
N955 N 0.82017 0.82143 0.03604 0.0
H956 H 0.81437 0.83508 0.94384 0.0
H957 H 0.79248 0.81859 0.97916 0.0
H958 H 0.82077 0.81748 0.06087 0.0
H959 H 0.80281 0.79027 0.02535 0.0
H960 H 0.94613 0.96448 0.9805 0.0
H961 H 0.92351 0.95456 0.94505 0.0
H962 H 0.93482 0.99539 0.0259 0.0
H963 H 0.91762 0.96686 0.06129 0.0
C964 C 0.09058 0.86912 0.48722 0.0
C965 C 0.12072 0.88472 0.46958 0.0
C966 C 0.1508 0.91467 0.5186 0.0
C967 C 0.12099 0.89839 0.5367 0.0
N968 N 0.06476 0.84878 0.53917 0.0
N969 N 0.18231 0.90054 0.46942 0.0
C970 C 0.09171 0.87115 0.52132 0.0
C971 C 0.15173 0.90027 0.48568 0.0
N972 N 0.06048 0.85598 0.4714 0.0
N973 N 0.17789 0.94622 0.53234 0.0
H974 H 0.18379 0.88811 0.44545 0.0
H975 H 0.20634 0.90546 0.48046 0.0
H976 H 0.17912 0.957 0.55648 0.0
H977 H 0.19809 0.96605 0.51924 0.0
H978 H 0.03658 0.85167 0.48262 0.0
H979 H 0.05915 0.85256 0.4466 0.0
H980 H 0.0442 0.8231 0.52963 0.0
H981 H 0.06412 0.85207 0.56398 0.0
C982 C 0.84134 0.23285 0.51847 0.0
C983 C 0.87127 0.21307 0.53556 0.0
C984 C 0.90112 0.1913 0.48516 0.0
C985 C 0.87099 0.20977 0.46804 0.0
N986 N 0.81595 0.26302 0.46751 0.0
N987 N 0.93276 0.19253 0.5351 0.0
C988 C 0.84218 0.23537 0.4845 0.0
C989 C 0.90228 0.19918 0.51887 0.0
N990 N 0.81196 0.24827 0.53481 0.0
N991 N 0.92761 0.16151 0.46969 0.0
H992 H 0.93477 0.19652 0.55977 0.0
H993 H 0.95668 0.18889 0.52383 0.0
H994 H 0.92761 0.1534 0.44521 0.0
H995 H 0.94824 0.13986 0.48143 0.0
H996 H 0.78794 0.25497 0.52403 0.0
H997 H 0.8114 0.25237 0.5596 0.0
H998 H 0.79545 0.28732 0.47789 0.0
H999 H 0.81632 0.26659 0.44268 0.0
C1000 C 0.59076 0.71957 0.01802 0.0
C1001 C 0.62127 0.69985 0.03427 0.0
C1002 C 0.65287 0.70224 0.98357 0.0
C1003 C 0.62133 0.7087 0.96685 0.0
N1004 N 0.56001 0.72771 0.96733 0.0
N1005 N 0.68134 0.66771 0.03168 0.0
C1006 C 0.59021 0.71986 0.98384 0.0
C1007 C 0.65242 0.69052 0.01685 0.0
N1008 N 0.56224 0.73659 0.03519 0.0
N1009 N 0.6834 0.7083 0.96749 0.0
H1010 H 0.6827 0.6596 0.05607 0.0
H1011 H 0.70323 0.65252 0.01941 0.0
H1012 H 0.68418 0.71976 0.94331 0.0
H1013 H 0.70746 0.7098 0.97872 0.0
H1014 H 0.54018 0.75657 0.02508 0.0
H1015 H 0.56157 0.73491 0.06006 0.0
H1016 H 0.53569 0.72842 0.97794 0.0
H1017 H 0.55927 0.73109 0.9425 0.0
C1018 C 0.35682 0.32841 0.98671 0.0
C1019 C 0.37911 0.37027 0.9698 0.0
C1020 C 0.40292 0.4103 0.02011 0.0
C1021 C 0.37832 0.37351 0.03703 0.0
N1022 N 0.33886 0.2855 0.03826 0.0
N1023 N 0.43194 0.43055 0.96984 0.0
C1024 C 0.35762 0.32823 0.02083 0.0
C1025 C 0.40503 0.40448 0.98645 0.0
N1026 N 0.33419 0.29085 0.97031 0.0
N1027 N 0.42313 0.45305 0.03603 0.0
H1028 H 0.43457 0.42471 0.94525 0.0
H1029 H 0.4533 0.45182 0.98057 0.0
H1030 H 0.42328 0.45673 0.06081 0.0
H1031 H 0.4384 0.48698 0.02471 0.0
H1032 H 0.31481 0.26393 0.98095 0.0
H1033 H 0.3342 0.2875 0.94553 0.0
H1034 H 0.32474 0.24833 0.02846 0.0
H1035 H 0.33953 0.28453 0.06315 0.0
C1036 C 0.58499 0.36255 0.48529 0.0
C1037 C 0.61702 0.36964 0.46909 0.0
C1038 C 0.64822 0.3638 0.52008 0.0
C1039 C 0.61627 0.36822 0.53633 0.0
N1040 N 0.55442 0.35838 0.53623 0.0
N1041 N 0.67932 0.37136 0.47001 0.0
C1042 C 0.5846 0.36257 0.51942 0.0
C1043 C 0.64874 0.36744 0.48621 0.0
N1044 N 0.55517 0.35744 0.46786 0.0
N1045 N 0.67792 0.35502 0.53725 0.0
H1046 H 0.68056 0.3694 0.44525 0.0
H1047 H 0.70329 0.37821 0.4808 0.0
H1048 H 0.67773 0.35032 0.56198 0.0
H1049 H 0.70205 0.34633 0.52722 0.0
H1050 H 0.53063 0.35169 0.47754 0.0
H1051 H 0.5551 0.35667 0.44296 0.0
H1052 H 0.52986 0.35751 0.52612 0.0
H1053 H 0.55411 0.3547 0.56107 0.0
C1054 C 0.34537 0.74166 0.51817 0.0
C1055 C 0.36917 0.70363 0.53553 0.0
C1056 C 0.396 0.66866 0.48543 0.0
C1057 C 0.36943 0.69995 0.46801 0.0
N1058 N 0.31931 0.76753 0.4668 0.0
N1059 N 0.42395 0.64995 0.53657 0.0
C1060 C 0.34457 0.73776 0.48411 0.0
C1061 C 0.39665 0.67304 0.51931 0.0
N1062 N 0.32427 0.7825 0.53417 0.0
N1063 N 0.41926 0.6313 0.46971 0.0
H1064 H 0.42558 0.65491 0.56128 0.0
H1065 H 0.44646 0.63181 0.52655 0.0
H1066 H 0.42023 0.62821 0.44495 0.0
H1067 H 0.43644 0.60059 0.481 0.0
H1068 H 0.30825 0.8155 0.5231 0.0
H1069 H 0.32491 0.78735 0.55888 0.0
H1070 H 0.29778 0.7893 0.47681 0.0
H1071 H 0.31915 0.76827 0.44191 0.0
C1072 C 0.98186 0.99268 0.11205 0.0
C1073 C 0.95497 1.02326 0.1291 0.0
C1074 C -0.00414 0.1029 0.14839 0.0
C1075 C 0.02203 0.07578 0.1289 0.0
N1076 N 0.03707 1.00522 0.08579 0.0
N1077 N 0.93465 0.11384 0.15874 0.0
C1078 C 0.0143 1.02343 0.10895 0.0
C1079 C 0.96138 0.08063 0.14559 0.0
N1080 N 0.97663 0.93413 0.099 0.0
N1081 N 0.00408 0.14734 0.17089 0.0
H1082 H 0.90913 0.09814 0.15824 0.0
H1083 H 0.93735 0.15957 0.16774 0.0
H1084 H 0.0291 0.16397 0.17482 0.0
H1085 H 0.98667 0.16303 0.18809 0.0
H1086 H -0.00342 0.9069 0.08951 0.0
H1087 H 0.95295 0.91052 0.09982 0.0
H1088 H 0.03118 0.97135 0.06856 0.0
H1089 H 0.0603 1.02884 0.08144 0.0
C1090 C 0.96473 1.014 0.36385 0.0
C1091 C 0.96055 0.07495 0.37744 0.0
C1092 C 0.02134 0.0755 0.39374 0.0
C1093 C 0.02643 1.01833 0.37662 0.0
N1094 N 0.00426 0.94119 0.33896 0.0
N1095 N 0.98576 0.16849 0.40131 0.0
C1096 C -0.00151 0.98955 0.35997 0.0
C1097 C 0.98918 0.10739 0.39099 0.0
N1098 N 0.93663 0.97921 0.35453 0.0
N1099 N 0.04637 0.09752 0.41401 0.0
H1100 H 0.96229 0.19278 0.40114 0.0
H1101 H 0.00677 0.1966 0.4079 0.0
H1102 H 0.06966 0.07391 0.41803 0.0
H1103 H 0.0426 0.13556 0.42941 0.0
H1104 H 0.93821 0.93167 0.34799 0.0
H1105 H 0.91135 0.99569 0.35592 0.0
H1106 H 0.98526 0.92379 0.32361 0.0
H1107 H 0.0287 0.92302 0.33404 0.0
C1108 C -0.00255 0.10969 0.8613 0.0
C1109 C 0.02439 0.0817 0.87962 0.0
C1110 C 0.98551 0.99559 0.89504 0.0
C1111 C 0.95773 1.02783 0.87991 0.0
N1112 N 0.93589 0.12328 0.85484 0.0
N1113 N 0.04116 1.00699 0.92072 0.0
C1114 C 0.96317 0.08764 0.86529 0.0
C1115 C 0.01768 1.02707 0.89844 0.0
N1116 N 0.00466 0.15422 0.83847 0.0
N1117 N 0.98144 0.93496 0.90599 0.0
H1118 H 0.06422 1.03092 0.92539 0.0
H1119 H 0.03594 0.97092 0.93706 0.0
H1120 H 0.95807 0.91036 0.90473 0.0
H1121 H 0.00206 0.90737 0.91404 0.0
H1122 H 0.98617 0.17096 0.8224 0.0
H1123 H 0.02968 0.16887 0.83289 0.0
H1124 H 0.93861 0.16998 0.84701 0.0
H1125 H 0.91026 0.10852 0.85652 0.0
C1126 C 0.97583 0.05407 0.60012 0.0
C1127 C 0.9615 0.07868 0.62878 0.0
C1128 C 0.01768 0.06889 0.65504 0.0
C1129 C 0.03051 1.03565 0.62838 0.0
N1130 N 0.0213 0.9915 0.57594 0.0
N1131 N 0.96663 0.08922 0.68598 0.0
C1132 C 0.00934 1.02629 0.60107 0.0
C1133 C 0.98185 0.08057 0.65695 0.0
N1134 N 0.95854 0.05997 0.57179 0.0
N1135 N 0.03939 0.08965 0.67851 0.0
H1136 H 0.93986 0.09071 0.68863 0.0
H1137 H 0.98019 0.08596 0.70747 0.0
H1138 H 0.06605 0.08257 0.67801 0.0
H1139 H 0.03112 0.11905 0.69695 0.0
H1140 H 0.96961 0.04922 0.54982 0.0
H1141 H 0.9343 0.08092 0.56964 0.0
H1142 H 0.00554 0.9765 0.55721 0.0
H1143 H 0.04663 0.9747 0.57464 0.0
C1144 C 0.48734 0.47651 0.11349 0.0
C1145 C 0.4604 0.50667 0.13065 0.0
C1146 C 0.50048 0.58934 0.14824 0.0
C1147 C 0.52668 0.56242 0.12867 0.0
N1148 N 0.54273 0.48861 0.08731 0.0
N1149 N 0.43965 0.59577 0.16111 0.0
C1150 C 0.51958 0.508 0.10993 0.0
C1151 C 0.46643 0.56449 0.14687 0.0
N1152 N 0.48222 0.4178 0.10055 0.0
N1153 N 0.50838 0.63634 0.1695 0.0
H1154 H 0.41482 0.57703 0.16284 0.0
H1155 H 0.44144 0.64219 0.16935 0.0
H1156 H 0.53298 0.65571 0.17213 0.0
H1157 H 0.49136 0.65203 0.18701 0.0
H1158 H 0.50215 0.39044 0.09115 0.0
H1159 H 0.45853 0.39419 0.10127 0.0
H1160 H 0.53737 0.45334 0.07068 0.0
H1161 H 0.56598 0.51207 0.08285 0.0
C1162 C 0.4855 0.59772 0.39308 0.0
C1163 C 0.45766 0.56581 0.37792 0.0
C1164 C 0.49694 0.48327 0.35957 0.0
C1165 C 0.52417 0.51164 0.37737 0.0
N1166 N 0.54193 0.58713 0.41752 0.0
N1167 N 0.43529 0.47095 0.35293 0.0
C1168 C 0.51788 0.56664 0.39589 0.0
C1169 C 0.46281 0.50607 0.36333 0.0
N1170 N 0.48109 0.65748 0.40492 0.0
N1171 N 0.50374 0.43708 0.33761 0.0
H1172 H 0.40979 0.48641 0.35424 0.0
H1173 H 0.43758 0.42405 0.34546 0.0
H1174 H 0.52853 0.42051 0.33268 0.0
H1175 H 0.48524 0.42019 0.32163 0.0
H1176 H 0.50158 0.68555 0.41281 0.0
H1177 H 0.45733 0.68084 0.40487 0.0
H1178 H 0.53723 0.62333 0.4338 0.0
H1179 H 0.56519 0.56355 0.42173 0.0
C1180 C 0.48659 0.49416 0.85247 0.0
C1181 C 0.46336 0.50949 0.87747 0.0
C1182 C 0.50814 0.57358 0.90324 0.0
C1183 C 0.52945 0.56516 0.8761 0.0
N1184 N 0.53628 0.52771 0.82211 0.0
N1185 N 0.45067 0.56658 0.92595 0.0
C1186 C 0.51812 0.52785 0.85003 0.0
C1187 C 0.47366 0.55037 0.9026 0.0
N1188 N 0.47875 0.44765 0.83095 0.0
N1189 N 0.52144 0.60115 0.9301 0.0
H1190 H 0.42592 0.54713 0.92762 0.0
H1191 H 0.45541 0.60196 0.94268 0.0
H1192 H 0.54704 0.61655 0.93164 0.0
H1193 H 0.50833 0.60327 0.95175 0.0
H1194 H 0.49672 0.42963 0.81486 0.0
H1195 H 0.45517 0.42373 0.83043 0.0
H1196 H 0.5272 0.50706 0.80114 0.0
H1197 H 0.55876 0.55396 0.81892 0.0
C1198 C 0.46618 0.52686 0.60215 0.0
C1199 C 0.45635 0.56809 0.62723 0.0
C1200 C 0.51222 0.55216 0.65337 0.0
C1201 C 0.52314 0.51506 0.62717 0.0
N1202 N 0.51371 0.47873 0.5734 0.0
N1203 N 0.47317 0.63209 0.67275 0.0
C1204 C 0.50096 0.50538 0.60063 0.0
C1205 C 0.4804 0.58489 0.65148 0.0
N1206 N 0.44257 0.50902 0.57954 0.0
N1207 N 0.53116 0.55324 0.68092 0.0
H1208 H 0.44953 0.65555 0.6738 0.0
H1209 H 0.4917 0.65105 0.68812 0.0
H1210 H 0.55393 0.52772 0.68377 0.0
H1211 H 0.52243 0.57382 0.702 0.0
H1212 H 0.44721 0.47346 0.56291 0.0
H1213 H 0.4175 0.52713 0.57848 0.0
H1214 H 0.49981 0.47572 0.55215 0.0
H1215 H 0.53958 0.46551 0.5711 0.0
C1216 C 0.14913 0.68147 0.15274 0.0
C1217 C 0.13008 0.71467 0.129 0.0
C1218 C 0.09405 0.62045 0.11976 0.0
C1219 C 0.11475 0.58592 0.14176 0.0
N1220 N 0.16458 0.58001 0.1763 0.0
N1221 N 0.08785 0.71423 0.08657 0.0
C1222 C 0.14305 0.61547 0.15746 0.0
C1223 C 0.10343 0.68372 0.1116 0.0
N1224 N 0.17231 0.71357 0.1714 0.0
N1225 N 0.06493 0.59316 0.10724 0.0
H1226 H 0.09374 0.76078 0.08008 0.0
H1227 H 0.07107 0.69208 0.07064 0.0
H1228 H 0.05767 0.54646 0.11206 0.0
H1229 H 0.04655 0.61796 0.09399 0.0
H1230 H 0.1843 0.694 0.19138 0.0
H1231 H 0.1777 0.76168 0.16835 0.0
H1232 H 0.18785 0.59679 0.18557 0.0
H1233 H 0.16045 0.53195 0.18087 0.0
C1234 C 0.87288 0.40274 0.10747 0.0
C1235 C 0.8458 0.37487 0.12559 0.0
C1236 C 0.8384 0.47443 0.15512 0.0
C1237 C 0.86379 0.5036 0.13546 0.0
N1238 N 0.90143 0.49917 0.08975 0.0
N1239 N 0.79918 0.38583 0.16326 0.0
C1240 C 0.88001 0.46871 0.11074 0.0
C1241 C 0.82751 0.41125 0.14846 0.0
N1242 N 0.89237 0.3657 0.08772 0.0
N1243 N 0.82554 0.50644 0.18083 0.0
H1244 H 0.79084 0.3394 0.15943 0.0
H1245 H 0.78235 0.41198 0.17743 0.0
H1246 H 0.83265 0.55286 0.18633 0.0
H1247 H 0.80992 0.4856 0.19814 0.0
H1248 H 0.9149 0.38132 0.07661 0.0
H1249 H 0.88749 0.31757 0.08423 0.0
H1250 H 0.91109 0.47826 0.06914 0.0
H1251 H 0.90742 0.54726 0.09152 0.0
C1252 C 0.11314 0.39755 0.39555 0.0
C1253 C 0.13323 0.36758 0.37161 0.0
C1254 C 0.13634 0.46775 0.34167 0.0
C1255 C 0.11393 0.4962 0.3643 0.0
N1256 N 0.07709 0.48683 0.41041 0.0
N1257 N 0.16035 0.37074 0.3199 0.0
C1258 C 0.10124 0.46068 0.39061 0.0
C1259 C 0.1439 0.40181 0.34411 0.0
N1260 N 0.10634 0.36625 0.42348 0.0
N1261 N 0.15102 0.50422 0.3183 0.0
H1262 H 0.16667 0.32272 0.32105 0.0
H1263 H 0.16544 0.39107 0.29774 0.0
H1264 H 0.14556 0.55233 0.31543 0.0
H1265 H 0.1705 0.48822 0.30322 0.0
H1266 H 0.09521 0.3877 0.4433 0.0
H1267 H 0.11433 0.31982 0.42788 0.0
H1268 H 0.0638 0.46122 0.42778 0.0
H1269 H 0.06829 0.53333 0.40795 0.0
C1270 C 0.83742 0.61294 0.36691 0.0
C1271 C 0.87258 0.59379 0.36882 0.0
C1272 C 0.88954 0.70209 0.38374 0.0
C1273 C 0.85482 0.72238 0.37924 0.0
N1274 N 0.79647 0.6997 0.36221 0.0
N1275 N 0.93285 0.62066 0.37504 0.0
C1276 C 0.82891 0.67842 0.36972 0.0
C1277 C 0.89887 0.63858 0.3761 0.0
N1278 N 0.8121 0.56828 0.36291 0.0
N1279 N 0.91335 0.743 0.39638 0.0
H1280 H 0.94062 0.57419 0.37054 0.0
H1281 H 0.95342 0.65246 0.37634 0.0
H1282 H 0.90753 0.78982 0.40223 0.0
H1283 H 0.93809 0.72941 0.40349 0.0
H1284 H 0.78578 0.57793 0.36492 0.0
H1285 H 0.8174 0.52018 0.35989 0.0
H1286 H 0.77745 0.67145 0.35184 0.0
H1287 H 0.78927 0.7472 0.36397 0.0
C1288 C 0.82338 0.42388 0.86911 0.0
C1289 C 0.849 0.37925 0.87855 0.0
C1290 C 0.89346 0.46265 0.87619 0.0
C1291 C 0.86746 0.50804 0.86905 0.0
N1292 N 0.80712 0.53455 0.86331 0.0
N1293 N 0.90718 0.3578 0.89649 0.0
C1294 C 0.83221 0.4894 0.86689 0.0
C1295 C 0.88373 0.39911 0.88356 0.0
N1296 N 0.79094 0.4033 0.8611 0.0
N1297 N 0.92755 0.47994 0.87515 0.0
H1298 H 0.90105 0.31105 0.90237 0.0
H1299 H 0.93185 0.37115 0.90394 0.0
H1300 H 0.93566 0.52629 0.87062 0.0
H1301 H 0.94788 0.44765 0.87637 0.0
H1302 H 0.77214 0.43228 0.85085 0.0
H1303 H 0.78354 0.35579 0.86228 0.0
H1304 H 0.78075 0.52505 0.86509 0.0
H1305 H 0.81269 0.58276 0.86103 0.0
C1306 C 0.09927 0.63075 0.88712 0.0
C1307 C 0.11852 0.59605 0.86425 0.0
C1308 C 0.1554 0.68908 0.85448 0.0
C1309 C 0.13454 0.72496 0.87561 0.0
N1310 N 0.08373 0.73356 0.90859 0.0
N1311 N 0.16163 0.59357 0.82279 0.0
C1312 C 0.10561 0.69679 0.89094 0.0
C1313 C 0.14574 0.62561 0.847 0.0
N1314 N 0.0757 0.60004 0.90596 0.0
N1315 N 0.18491 0.71527 0.84219 0.0
H1316 H 0.15549 0.54688 0.81688 0.0
H1317 H 0.17901 0.61449 0.80699 0.0
H1318 H 0.1923 0.76205 0.84652 0.0
H1319 H 0.20335 0.68961 0.82959 0.0
H1320 H 0.06361 0.62089 0.92546 0.0
H1321 H 0.07017 0.55184 0.90374 0.0
H1322 H 0.06008 0.71764 0.91737 0.0
H1323 H 0.08789 0.78181 0.91247 0.0
C1324 C 0.87283 0.69508 0.6054 0.0
C1325 C 0.85031 0.72592 0.62711 0.0
C1326 C 0.84739 0.62938 0.65991 0.0
C1327 C 0.8681 0.59737 0.63712 0.0
N1328 N 0.89683 0.59596 0.58616 0.0
N1329 N 0.81231 0.72138 0.67258 0.0
C1330 C 0.87979 0.62921 0.60927 0.0
C1331 C 0.83649 0.69272 0.65371 0.0
N1332 N 0.88826 0.72928 0.58156 0.0
N1333 N 0.83891 0.59965 0.68788 0.0
H1334 H 0.8043 0.76813 0.66916 0.0
H1335 H 0.7983 0.69776 0.69016 0.0
H1336 H 0.84571 0.55282 0.69292 0.0
H1337 H 0.82729 0.62243 0.70707 0.0
H1338 H 0.9079 0.71165 0.56715 0.0
H1339 H 0.88316 0.7772 0.57754 0.0
H1340 H 0.90266 0.61434 0.56373 0.0
H1341 H 0.90303 0.54805 0.58849 0.0
C1342 C 0.17009 0.42499 0.63984 0.0
C1343 C 0.14546 0.38078 0.62801 0.0
C1344 C 0.10113 0.46428 0.62664 0.0
C1345 C 0.12629 0.50928 0.6365 0.0
N1346 N 0.18567 0.53535 0.64828 0.0
N1347 N 0.08953 0.36029 0.60449 0.0
C1348 C 0.16111 0.49045 0.64181 0.0
C1349 C 0.11148 0.40097 0.61989 0.0
N1350 N 0.20163 0.40399 0.65027 0.0
N1351 N 0.06716 0.48183 0.62424 0.0
H1352 H 0.09619 0.31377 0.59884 0.0
H1353 H 0.06587 0.37403 0.5948 0.0
H1354 H 0.05871 0.52823 0.62774 0.0
H1355 H 0.04699 0.44971 0.62102 0.0
H1356 H 0.21946 0.43243 0.66219 0.0
H1357 H 0.2091 0.35654 0.6492 0.0
H1358 H 0.21212 0.52602 0.64883 0.0
H1359 H 0.17984 0.58333 0.65088 0.0
C1360 C 0.59319 0.12678 0.13333 0.0
C1361 C 0.61917 0.08152 0.14072 0.0
C1362 C 0.66306 0.16595 0.14156 0.0
C1363 C 0.63756 0.21028 0.13157 0.0
N1364 N 0.57957 0.23158 0.11298 0.0
N1365 N 0.67936 0.05551 0.14824 0.0
C1366 C 0.60289 0.19038 0.12622 0.0
C1367 C 0.6543 0.10042 0.14378 0.0
N1368 N 0.55912 0.10909 0.13354 0.0
N1369 N 0.69534 0.18689 0.14989 0.0
H1370 H 0.6738 1.00741 0.15104 0.0
H1371 H 0.70576 0.06507 0.14698 0.0
H1372 H 0.70261 0.23447 0.14861 0.0
H1373 H 0.71408 0.15824 0.16045 0.0
H1374 H 0.53872 0.14118 0.13215 0.0
H1375 H 0.55104 0.06254 0.13749 0.0
H1376 H 0.55506 0.21812 0.10517 0.0
H1377 H 0.58562 0.27844 0.10727 0.0
C1378 C 0.33123 0.89781 0.14312 0.0
C1379 C 0.35187 0.86194 0.12177 0.0
C1380 C 0.39035 0.95361 0.11406 0.0
C1381 C 0.36837 0.99064 0.13368 0.0
N1382 N 0.31511 1.00168 0.16296 0.0
N1383 N 0.3977 0.85774 0.08289 0.0
C1384 C 0.33796 0.96376 0.14707 0.0
C1385 C 0.38053 0.89045 0.10611 0.0
N1386 N 0.30596 0.86829 0.1605 0.0
N1387 N 0.4211 0.97832 0.10375 0.0
H1388 H 0.39136 0.81138 0.07653 0.0
H1389 H 0.41634 0.87801 0.06814 0.0
H1390 H 0.42879 1.02477 0.1085 0.0
H1391 H 0.44014 0.95163 0.09251 0.0
H1392 H 0.29258 0.89 0.17902 0.0
H1393 H 0.30015 0.82023 0.15816 0.0
H1394 H 0.29066 0.98673 0.1702 0.0
H1395 H 0.31944 0.04991 0.16675 0.0
C1396 C 0.58889 0.9505 0.37473 0.0
C1397 C 0.61435 0.99394 0.36375 0.0
C1398 C 0.65682 0.90752 0.3604 0.0
C1399 C 0.63217 0.86516 0.37378 0.0
N1400 N 0.57647 0.84764 0.39815 0.0
N1401 N 0.67351 1.01651 0.34953 0.0
C1402 C 0.5986 0.88697 0.38206 0.0
C1403 C 0.64863 0.97319 0.35758 0.0
N1404 N 0.5553 0.96986 0.37779 0.0
N1405 N 0.68763 0.88449 0.3494 0.0
H1406 H 0.66822 0.06452 0.34606 0.0
H1407 H 0.69978 1.00592 0.34839 0.0
H1408 H 0.69449 0.83678 0.35108 0.0
H1409 H 0.70527 0.91136 0.33637 0.0
H1410 H 0.53476 0.93896 0.38194 0.0
H1411 H 0.54743 1.01655 0.37393 0.0
H1412 H 0.55318 0.86257 0.40804 0.0
H1413 H 0.58255 0.80084 0.40395 0.0
C1414 C 0.39462 0.12963 0.37707 0.0
C1415 C 0.36837 0.08463 0.37005 0.0
C1416 C 0.3245 0.16894 0.37133 0.0
C1417 C 0.35045 0.21319 0.38043 0.0
N1418 N 0.40906 0.23411 0.39728 0.0
N1419 N 0.30787 0.05859 0.36492 0.0
C1420 C 0.38524 0.19308 0.38475 0.0
C1421 C 0.33313 0.10349 0.36854 0.0
N1422 N 0.42863 0.11199 0.37571 0.0
N1423 N 0.2919 0.18989 0.36416 0.0
H1424 H 0.31327 1.01051 0.36195 0.0
H1425 H 0.28156 0.06802 0.36722 0.0
H1426 H 0.28461 0.23735 0.36587 0.0
H1427 H 0.27277 0.16139 0.35415 0.0
H1428 H 0.44913 0.14399 0.37679 0.0
H1429 H 0.43648 0.06557 0.37121 0.0
H1430 H 0.43386 0.22062 0.40425 0.0
H1431 H 0.40317 0.28082 0.40329 0.0
C1432 C 0.33029 0.90999 0.86514 0.0
C1433 C 0.35645 0.86839 0.87645 0.0
C1434 C 0.39806 0.95639 0.87769 0.0
C1435 C 0.37259 0.99705 0.86427 0.0
N1436 N 0.31626 1.01099 0.84043 0.0
N1437 N 0.41638 0.84863 0.88902 0.0
C1438 C 0.33915 0.9734 0.85668 0.0
C1439 C 0.39072 0.89064 0.88136 0.0
N1440 N 0.29681 0.88923 0.8632 0.0
N1441 N 0.42879 0.98114 0.88811 0.0
H1442 H 0.41184 0.8004 0.89268 0.0
H1443 H 0.44254 0.86046 0.88934 0.0
H1444 H 0.43514 1.02902 0.8859 0.0
H1445 H 0.44689 0.95548 0.90128 0.0
H1446 H 0.27587 0.91901 0.85875 0.0
H1447 H 0.28955 0.84263 0.86828 0.0
H1448 H 0.29288 0.99464 0.83119 0.0
H1449 H 0.32183 0.05762 0.83385 0.0
C1450 C 0.61375 0.20308 0.85086 0.0
C1451 C 0.64602 0.21816 0.86527 0.0
C1452 C 0.6585 0.10451 0.87179 0.0
C1453 C 0.62716 0.0895 0.85565 0.0
N1454 N 0.57868 0.12427 0.82382 0.0
N1455 N 0.70211 0.18406 0.88372 0.0
C1456 C 0.60589 0.13881 0.84339 0.0
C1457 C 0.66933 0.16902 0.87399 0.0
N1458 N 0.58997 0.24987 0.84543 0.0
N1459 N 0.67723 0.0574 0.88616 0.0
H1460 H 0.71087 0.23072 0.88556 0.0
H1461 H 0.72153 0.15054 0.88722 0.0
H1462 H 0.67014 1.00972 0.88523 0.0
H1463 H 0.69823 0.06591 0.90116 0.0
H1464 H 0.56455 0.24094 0.83847 0.0
H1465 H 0.5947 0.29754 0.85035 0.0
H1466 H 0.56445 0.15825 0.8114 0.0
H1467 H 0.57229 0.07787 0.81759 0.0
C1468 C 0.33374 0.10914 0.65873 0.0
C1469 C 0.36017 0.08072 0.64014 0.0
C1470 C 0.36677 0.17923 0.60939 0.0
C1471 C 0.34266 0.2094 0.62986 0.0
N1472 N 0.30587 0.20617 0.6762 0.0
N1473 N 0.40485 0.08973 0.60032 0.0
C1474 C 0.32675 0.17511 0.6551 0.0
C1475 C 0.37751 0.11608 0.61614 0.0
N1476 N 0.31491 0.07267 0.67942 0.0
N1477 N 0.37855 0.21035 0.58286 0.0
H1478 H 0.41286 1.04304 0.60391 0.0
H1479 H 0.4212 0.11528 0.58532 0.0
H1480 H 0.37139 0.25669 0.57716 0.0
H1481 H 0.3931 0.18877 0.56507 0.0
H1482 H 0.29283 0.08859 0.69109 0.0
H1483 H 0.31987 1.02462 0.6832 0.0
H1484 H 0.29647 0.18578 0.69711 0.0
H1485 H 0.29986 0.25419 0.67404 0.0
C1486 C 0.66201 0.91617 0.62435 0.0
C1487 C 0.63971 0.86719 0.63529 0.0
C1488 C 0.60285 0.94684 0.66104 0.0
C1489 C 0.62251 0.99596 0.64651 0.0
N1490 N 0.66833 1.02736 0.61071 0.0
N1491 N 0.58614 0.83607 0.66043 0.0
C1492 C 0.65157 0.98066 0.62729 0.0
C1493 C 0.60942 0.88253 0.6528 0.0
N1494 N 0.69357 0.90106 0.61182 0.0
N1495 N 0.57848 0.96156 0.68343 0.0
H1496 H 0.58986 0.78844 0.65481 0.0
H1497 H 0.5618 0.84538 0.66994 0.0
H1498 H 0.57324 1.00801 0.69038 0.0
H1499 H 0.56587 0.92763 0.69728 0.0
H1500 H 0.71249 0.93465 0.6065 0.0
H1501 H 0.70214 0.85441 0.60952 0.0
H1502 H 0.68726 1.01834 0.59366 0.0
H1503 H 0.66134 0.07502 0.61192 0.0
loop_
_geom_bond_atom_site_label_1
_geom_bond_atom_site_label_2
_geom_bond_distance
_geom_bond_site_symmetry_2
_ccdc_geom_bond_type
Tb0 C9 2.764 . S
Tb0 O10 2.325 . S
Tb0 O13 2.303 . S
Tb0 O17 2.322 . S
Tb0 O18 2.349 . S
Tb0 O21 2.415 . S
Tb0 O22 2.399 . S
Tb1 O11 2.322 . S
Tb1 O12 2.349 . S
Tb1 O14 2.415 1_545 S
Tb1 O15 2.399 1_545 S
Tb1 O16 2.325 . S
Tb1 O19 2.303 . S
Tb1 C30 2.764 1_545 S
C2 O18 1.261 . S
C2 O19 1.257 . S
C3 C6 1.358 . S
C3 C7 1.332 . S
C3 C9 1.504 . S
C4 C5 1.373 . S
C4 C8 1.308 . S
C5 C4 1.373 . S
C5 C6 1.429 . S
C5 H32 0.932 . S
C6 C3 1.358 . S
C6 C5 1.429 . S
C6 H33 0.930 . S
C7 C3 1.332 . S
C7 C8 1.394 . S
C7 H34 0.932 . S
C8 C4 1.308 . S
C8 C7 1.394 . S
C8 H35 0.929 . S
C9 Tb0 2.764 . S
C9 C3 1.504 . S
C9 O21 1.239 . S
C9 O22 1.263 . S
O10 Tb0 2.325 . S
O10 C20 1.236 . S
O11 Tb1 2.322 . S
O11 C20 1.257 . S
O12 Tb1 2.349 . S
O12 C23 1.261 . S
O13 Tb0 2.303 . S
O13 C23 1.257 . S
O14 Tb1 2.415 1_565 S
O14 C30 1.239 . S
O15 Tb1 2.399 1_565 S
O15 C30 1.263 . S
O16 Tb1 2.325 . S
O16 C31 1.236 . S
O17 Tb0 2.322 . S
O17 C31 1.257 . S
O18 Tb0 2.349 . S
O18 C2 1.261 . S
O19 Tb1 2.303 . S
O19 C2 1.257 . S
C20 O10 1.236 . S
C20 O11 1.257 . S
O21 Tb0 2.415 . S
O21 C9 1.239 . S
O22 Tb0 2.399 . S
O22 C9 1.263 . S
C23 O12 1.261 . S
C23 O13 1.257 . S
C24 C27 1.358 . S
C24 C28 1.332 . S
C24 C30 1.504 . S
C25 C26 1.373 . S
C25 C29 1.308 . S
C26 C25 1.373 . S
C26 C27 1.429 . S
C26 H36 0.932 . S
C27 C24 1.358 . S
C27 C26 1.429 . S
C27 H37 0.930 . S
C28 C24 1.332 . S
C28 C29 1.394 . S
C28 H38 0.932 . S
C29 C25 1.308 . S
C29 C28 1.394 . S
C29 H39 0.929 . S
C30 Tb1 2.764 1_565 S
C30 O14 1.239 . S
C30 O15 1.263 . S
C30 C24 1.504 . S
C31 O16 1.236 . S
C31 O17 1.257 . S
H32 C5 0.932 . S
H33 C6 0.930 . S
H34 C7 0.932 . S
H35 C8 0.929 . S
H36 C26 0.932 . S
H37 C27 0.930 . S
H38 C28 0.932 . S
H39 C29 0.929 . S
Tb40 C49 2.764 . S
Tb40 O50 2.325 . S
Tb40 O53 2.303 . S
Tb40 O57 2.322 . S
Tb40 O58 2.349 . S
Tb40 O61 2.415 . S
Tb40 O62 2.399 . S
Tb41 O51 2.322 . S
Tb41 O52 2.349 . S
Tb41 O54 2.415 1_565 S
Tb41 O55 2.399 1_565 S
Tb41 O56 2.325 . S
Tb41 O59 2.303 . S
Tb41 C70 2.764 1_565 S
C42 O58 1.261 . S
C42 O59 1.257 . S
C43 C46 1.358 . S
C43 C47 1.332 . S
C43 C49 1.504 . S
C44 C45 1.373 . S
C44 C48 1.308 . S
C45 C44 1.373 . S
C45 C46 1.429 . S
C45 H72 0.932 . S
C46 C43 1.358 . S
C46 C45 1.429 . S
C46 H73 0.930 . S
C47 C43 1.332 . S
C47 C48 1.394 . S
C47 H74 0.932 . S
C48 C44 1.308 . S
C48 C47 1.394 . S
C48 H75 0.929 . S
C49 Tb40 2.764 . S
C49 C43 1.504 . S
C49 O61 1.239 . S
C49 O62 1.263 . S
O50 Tb40 2.325 . S
O50 C60 1.236 . S
O51 Tb41 2.322 . S
O51 C60 1.257 . S
O52 Tb41 2.349 . S
O52 C63 1.261 . S
O53 Tb40 2.303 . S
O53 C63 1.257 . S
O54 Tb41 2.415 1_545 S
O54 C70 1.239 . S
O55 Tb41 2.399 1_545 S
O55 C70 1.263 . S
O56 Tb41 2.325 . S
O56 C71 1.236 . S
O57 Tb40 2.322 . S
O57 C71 1.257 . S
O58 Tb40 2.349 . S
O58 C42 1.261 . S
O59 Tb41 2.303 . S
O59 C42 1.257 . S
C60 O50 1.236 . S
C60 O51 1.257 . S
O61 Tb40 2.415 . S
O61 C49 1.239 . S
O62 Tb40 2.399 . S
O62 C49 1.263 . S
C63 O52 1.261 . S
C63 O53 1.257 . S
C64 C67 1.358 . S
C64 C68 1.332 . S
C64 C70 1.504 . S
C65 C66 1.373 . S
C65 C69 1.308 . S
C66 C65 1.373 . S
C66 C67 1.429 . S
C66 H76 0.932 . S
C67 C64 1.358 . S
C67 C66 1.429 . S
C67 H77 0.930 . S
C68 C64 1.332 . S
C68 C69 1.394 . S
C68 H78 0.932 . S
C69 C65 1.308 . S
C69 C68 1.394 . S
C69 H79 0.929 . S
C70 Tb41 2.764 1_545 S
C70 O54 1.239 . S
C70 O55 1.263 . S
C70 C64 1.504 . S
C71 O56 1.236 . S
C71 O57 1.257 . S
H72 C45 0.932 . S
H73 C46 0.930 . S
H74 C47 0.932 . S
H75 C48 0.929 . S
H76 C66 0.932 . S
H77 C67 0.930 . S
H78 C68 0.932 . S
H79 C69 0.929 . S
Tb80 C89 2.764 . S
Tb80 O90 2.325 . S
Tb80 O93 2.303 . S
Tb80 O97 2.322 . S
Tb80 O98 2.349 . S
Tb80 O101 2.415 . S
Tb80 O102 2.399 . S
Tb81 O91 2.322 . S
Tb81 O92 2.349 . S
Tb81 O94 2.415 1_565 S
Tb81 O95 2.399 1_565 S
Tb81 O96 2.325 . S
Tb81 O99 2.303 . S
Tb81 C110 2.764 1_565 S
C82 O98 1.261 . S
C82 O99 1.257 . S
C83 C86 1.358 . S
C83 C87 1.332 . S
C83 C89 1.504 . S
C84 C85 1.373 . S
C84 C88 1.308 . S
C85 C84 1.373 . S
C85 C86 1.429 . S
C85 H112 0.932 . S
C86 C83 1.358 . S
C86 C85 1.429 . S
C86 H113 0.930 . S
C87 C83 1.332 . S
C87 C88 1.394 . S
C87 H114 0.932 . S
C88 C84 1.308 . S
C88 C87 1.394 . S
C88 H115 0.929 . S
C89 Tb80 2.764 . S
C89 C83 1.504 . S
C89 O101 1.239 . S
C89 O102 1.263 . S
O90 Tb80 2.325 . S
O90 C100 1.236 . S
O91 Tb81 2.322 . S
O91 C100 1.257 . S
O92 Tb81 2.349 . S
O92 C103 1.261 . S
O93 Tb80 2.303 . S
O93 C103 1.257 . S
O94 Tb81 2.415 1_545 S
O94 C110 1.239 . S
O95 Tb81 2.399 1_545 S
O95 C110 1.263 . S
O96 Tb81 2.325 . S
O96 C111 1.236 . S
O97 Tb80 2.322 . S
O97 C111 1.257 . S
O98 Tb80 2.349 . S
O98 C82 1.261 . S
O99 Tb81 2.303 . S
O99 C82 1.257 . S
C100 O90 1.236 . S
C100 O91 1.257 . S
O101 Tb80 2.415 . S
O101 C89 1.239 . S
O102 Tb80 2.399 . S
O102 C89 1.263 . S
C103 O92 1.261 . S
C103 O93 1.257 . S
C104 C107 1.358 . S
C104 C108 1.332 . S
C104 C110 1.504 . S
C105 C106 1.373 . S
C105 C109 1.308 . S
C106 C105 1.373 . S
C106 C107 1.429 . S
C106 H116 0.932 . S
C107 C104 1.358 . S
C107 C106 1.429 . S
C107 H117 0.930 . S
C108 C104 1.332 . S
C108 C109 1.394 . S
C108 H118 0.932 . S
C109 C105 1.308 . S
C109 C108 1.394 . S
C109 H119 0.929 . S
C110 Tb81 2.764 1_545 S
C110 O94 1.239 . S
C110 O95 1.263 . S
C110 C104 1.504 . S
C111 O96 1.236 . S
C111 O97 1.257 . S
H112 C85 0.932 . S
H113 C86 0.930 . S
H114 C87 0.932 . S
H115 C88 0.929 . S
H116 C106 0.932 . S
H117 C107 0.930 . S
H118 C108 0.932 . S
H119 C109 0.929 . S
Tb120 C129 2.764 . S
Tb120 O130 2.325 . S
Tb120 O133 2.303 . S
Tb120 O137 2.322 . S
Tb120 O138 2.349 . S
Tb120 O141 2.415 . S
Tb120 O142 2.399 . S
Tb121 O131 2.322 . S
Tb121 O132 2.349 . S
Tb121 O134 2.415 1_545 S
Tb121 O135 2.399 1_545 S
Tb121 O136 2.325 . S
Tb121 O139 2.303 . S
Tb121 C150 2.764 1_545 S
C122 O138 1.261 . S
C122 O139 1.257 . S
C123 C126 1.358 . S
C123 C127 1.332 . S
C123 C129 1.504 . S
C124 C125 1.373 . S
C124 C128 1.308 . S
C125 C124 1.373 . S
C125 C126 1.429 . S
C125 H152 0.932 . S
C126 C123 1.358 . S
C126 C125 1.429 . S
C126 H153 0.930 . S
C127 C123 1.332 . S
C127 C128 1.394 . S
C127 H154 0.932 . S
C128 C124 1.308 . S
C128 C127 1.394 . S
C128 H155 0.929 . S
C129 Tb120 2.764 . S
C129 C123 1.504 . S
C129 O141 1.239 . S
C129 O142 1.263 . S
O130 Tb120 2.325 . S
O130 C140 1.236 . S
O131 Tb121 2.322 . S
O131 C140 1.257 . S
O132 Tb121 2.349 . S
O132 C143 1.261 . S
O133 Tb120 2.303 . S
O133 C143 1.257 . S
O134 Tb121 2.415 1_565 S
O134 C150 1.239 . S
O135 Tb121 2.399 1_565 S
O135 C150 1.263 . S
O136 Tb121 2.325 . S
O136 C151 1.236 . S
O137 Tb120 2.322 . S
O137 C151 1.257 . S
O138 Tb120 2.349 . S
O138 C122 1.261 . S
O139 Tb121 2.303 . S
O139 C122 1.257 . S
C140 O130 1.236 . S
C140 O131 1.257 . S
O141 Tb120 2.415 . S
O141 C129 1.239 . S
O142 Tb120 2.399 . S
O142 C129 1.263 . S
C143 O132 1.261 . S
C143 O133 1.257 . S
C144 C147 1.358 . S
C144 C148 1.332 . S
C144 C150 1.504 . S
C145 C146 1.373 . S
C145 C149 1.308 . S
C146 C145 1.373 . S
C146 C147 1.429 . S
C146 H156 0.932 . S
C147 C144 1.358 . S
C147 C146 1.429 . S
C147 H157 0.930 . S
C148 C144 1.332 . S
C148 C149 1.394 . S
C148 H158 0.932 . S
C149 C145 1.308 . S
C149 C148 1.394 . S
C149 H159 0.929 . S
C150 Tb121 2.764 1_565 S
C150 O134 1.239 . S
C150 O135 1.263 . S
C150 C144 1.504 . S
C151 O136 1.236 . S
C151 O137 1.257 . S
H152 C125 0.932 . S
H153 C126 0.930 . S
H154 C127 0.932 . S
H155 C128 0.929 . S
H156 C146 0.932 . S
H157 C147 0.930 . S
H158 C148 0.932 . S
H159 C149 0.929 . S
Tb160 C169 2.764 1_565 S
Tb160 O170 2.325 . S
Tb160 O173 2.303 . S
Tb160 O177 2.322 . S
Tb160 O178 2.349 . S
Tb160 O181 2.415 1_565 S
Tb160 O182 2.399 1_565 S
Tb161 O171 2.322 . S
Tb161 O172 2.349 . S
Tb161 O174 2.415 . S
Tb161 O175 2.399 . S
Tb161 O176 2.325 . S
Tb161 O179 2.303 . S
Tb161 C190 2.764 . S
C162 O178 1.261 . S
C162 O179 1.257 . S
C163 C166 1.358 . S
C163 C167 1.332 . S
C163 C169 1.504 . S
C164 C165 1.373 . S
C164 C168 1.308 . S
C165 C164 1.373 . S
C165 C166 1.429 . S
C165 H192 0.932 . S
C166 C163 1.358 . S
C166 C165 1.429 . S
C166 H193 0.930 . S
C167 C163 1.332 . S
C167 C168 1.394 . S
C167 H194 0.932 . S
C168 C164 1.308 . S
C168 C167 1.394 . S
C168 H195 0.929 . S
C169 Tb160 2.764 1_545 S
C169 C163 1.504 . S
C169 O181 1.239 . S
C169 O182 1.263 . S
O170 Tb160 2.325 . S
O170 C180 1.236 . S
O171 Tb161 2.322 . S
O171 C180 1.257 . S
O172 Tb161 2.349 . S
O172 C183 1.261 . S
O173 Tb160 2.303 . S
O173 C183 1.257 . S
O174 Tb161 2.415 . S
O174 C190 1.239 . S
O175 Tb161 2.399 . S
O175 C190 1.263 . S
O176 Tb161 2.325 . S
O176 C191 1.236 . S
O177 Tb160 2.322 . S
O177 C191 1.257 . S
O178 Tb160 2.349 . S
O178 C162 1.261 . S
O179 Tb161 2.303 . S
O179 C162 1.257 . S
C180 O170 1.236 . S
C180 O171 1.257 . S
O181 Tb160 2.415 1_545 S
O181 C169 1.239 . S
O182 Tb160 2.399 1_545 S
O182 C169 1.263 . S
C183 O172 1.261 . S
C183 O173 1.257 . S
C184 C187 1.358 . S
C184 C188 1.332 . S
C184 C190 1.504 . S
C185 C186 1.373 . S
C185 C189 1.308 . S
C186 C185 1.373 . S
C186 C187 1.429 . S
C186 H196 0.932 . S
C187 C184 1.358 . S
C187 C186 1.429 . S
C187 H197 0.930 . S
C188 C184 1.332 . S
C188 C189 1.394 . S
C188 H198 0.932 . S
C189 C185 1.308 . S
C189 C188 1.394 . S
C189 H199 0.929 . S
C190 Tb161 2.764 . S
C190 O174 1.239 . S
C190 O175 1.263 . S
C190 C184 1.504 . S
C191 O176 1.236 . S
C191 O177 1.257 . S
H192 C165 0.932 . S
H193 C166 0.930 . S
H194 C167 0.932 . S
H195 C168 0.929 . S
H196 C186 0.932 . S
H197 C187 0.930 . S
H198 C188 0.932 . S
H199 C189 0.929 . S
Tb200 C209 2.764 1_545 S
Tb200 O210 2.325 . S
Tb200 O213 2.303 . S
Tb200 O217 2.322 . S
Tb200 O218 2.349 . S
Tb200 O221 2.415 1_545 S
Tb200 O222 2.399 1_545 S
Tb201 O211 2.322 . S
Tb201 O212 2.349 . S
Tb201 O214 2.415 . S
Tb201 O215 2.399 . S
Tb201 O216 2.325 . S
Tb201 O219 2.303 . S
Tb201 C230 2.764 . S
C202 O218 1.261 . S
C202 O219 1.257 . S
C203 C206 1.358 . S
C203 C207 1.332 . S
C203 C209 1.504 . S
C204 C205 1.373 . S
C204 C208 1.308 . S
C205 C204 1.373 . S
C205 C206 1.429 . S
C205 H232 0.932 . S
C206 C203 1.358 . S
C206 C205 1.429 . S
C206 H233 0.930 . S
C207 C203 1.332 . S
C207 C208 1.394 . S
C207 H234 0.932 . S
C208 C204 1.308 . S
C208 C207 1.394 . S
C208 H235 0.929 . S
C209 Tb200 2.764 1_565 S
C209 C203 1.504 . S
C209 O221 1.239 . S
C209 O222 1.263 . S
O210 Tb200 2.325 . S
O210 C220 1.236 . S
O211 Tb201 2.322 . S
O211 C220 1.257 . S
O212 Tb201 2.349 . S
O212 C223 1.261 . S
O213 Tb200 2.303 . S
O213 C223 1.257 . S
O214 Tb201 2.415 . S
O214 C230 1.239 . S
O215 Tb201 2.399 . S
O215 C230 1.263 . S
O216 Tb201 2.325 . S
O216 C231 1.236 . S
O217 Tb200 2.322 . S
O217 C231 1.257 . S
O218 Tb200 2.349 . S
O218 C202 1.261 . S
O219 Tb201 2.303 . S
O219 C202 1.257 . S
C220 O210 1.236 . S
C220 O211 1.257 . S
O221 Tb200 2.415 1_565 S
O221 C209 1.239 . S
O222 Tb200 2.399 1_565 S
O222 C209 1.263 . S
C223 O212 1.261 . S
C223 O213 1.257 . S
C224 C227 1.358 . S
C224 C228 1.332 . S
C224 C230 1.504 . S
C225 C226 1.373 . S
C225 C229 1.308 . S
C226 C225 1.373 . S
C226 C227 1.429 . S
C226 H236 0.932 . S
C227 C224 1.358 . S
C227 C226 1.429 . S
C227 H237 0.930 . S
C228 C224 1.332 . S
C228 C229 1.394 . S
C228 H238 0.932 . S
C229 C225 1.308 . S
C229 C228 1.394 . S
C229 H239 0.929 . S
C230 Tb201 2.764 . S
C230 O214 1.239 . S
C230 O215 1.263 . S
C230 C224 1.504 . S
C231 O216 1.236 . S
C231 O217 1.257 . S
H232 C205 0.932 . S
H233 C206 0.930 . S
H234 C207 0.932 . S
H235 C208 0.929 . S
H236 C226 0.932 . S
H237 C227 0.930 . S
H238 C228 0.932 . S
H239 C229 0.929 . S
Tb240 C249 2.764 1_545 S
Tb240 O250 2.325 . S
Tb240 O253 2.303 . S
Tb240 O257 2.322 . S
Tb240 O258 2.349 . S
Tb240 O261 2.415 1_545 S
Tb240 O262 2.399 1_545 S
Tb241 O251 2.322 . S
Tb241 O252 2.349 . S
Tb241 O254 2.415 . S
Tb241 O255 2.399 . S
Tb241 O256 2.325 . S
Tb241 O259 2.303 . S
Tb241 C270 2.764 . S
C242 O258 1.261 . S
C242 O259 1.257 . S
C243 C246 1.358 . S
C243 C247 1.332 . S
C243 C249 1.504 . S
C244 C245 1.373 . S
C244 C248 1.308 . S
C245 C244 1.373 . S
C245 C246 1.429 . S
C245 H272 0.932 . S
C246 C243 1.358 . S
C246 C245 1.429 . S
C246 H273 0.930 . S
C247 C243 1.332 . S
C247 C248 1.394 . S
C247 H274 0.932 . S
C248 C244 1.308 . S
C248 C247 1.394 . S
C248 H275 0.929 . S
C249 Tb240 2.764 1_565 S
C249 C243 1.504 . S
C249 O261 1.239 . S
C249 O262 1.263 . S
O250 Tb240 2.325 . S
O250 C260 1.236 . S
O251 Tb241 2.322 . S
O251 C260 1.257 . S
O252 Tb241 2.349 . S
O252 C263 1.261 . S
O253 Tb240 2.303 . S
O253 C263 1.257 . S
O254 Tb241 2.415 . S
O254 C270 1.239 . S
O255 Tb241 2.399 . S
O255 C270 1.263 . S
O256 Tb241 2.325 . S
O256 C271 1.236 . S
O257 Tb240 2.322 . S
O257 C271 1.257 . S
O258 Tb240 2.349 . S
O258 C242 1.261 . S
O259 Tb241 2.303 . S
O259 C242 1.257 . S
C260 O250 1.236 . S
C260 O251 1.257 . S
O261 Tb240 2.415 1_565 S
O261 C249 1.239 . S
O262 Tb240 2.399 1_565 S
O262 C249 1.263 . S
C263 O252 1.261 . S
C263 O253 1.257 . S
C264 C267 1.358 . S
C264 C268 1.332 . S
C264 C270 1.504 . S
C265 C266 1.373 . S
C265 C269 1.308 . S
C266 C265 1.373 . S
C266 C267 1.429 . S
C266 H276 0.932 . S
C267 C264 1.358 . S
C267 C266 1.429 . S
C267 H277 0.930 . S
C268 C264 1.332 . S
C268 C269 1.394 . S
C268 H278 0.932 . S
C269 C265 1.308 . S
C269 C268 1.394 . S
C269 H279 0.929 . S
C270 Tb241 2.764 . S
C270 O254 1.239 . S
C270 O255 1.263 . S
C270 C264 1.504 . S
C271 O256 1.236 . S
C271 O257 1.257 . S
H272 C245 0.932 . S
H273 C246 0.930 . S
H274 C247 0.932 . S
H275 C248 0.929 . S
H276 C266 0.932 . S
H277 C267 0.930 . S
H278 C268 0.932 . S
H279 C269 0.929 . S
Tb280 C289 2.764 1_565 S
Tb280 O290 2.325 . S
Tb280 O293 2.303 . S
Tb280 O297 2.322 . S
Tb280 O298 2.349 . S
Tb280 O301 2.415 1_565 S
Tb280 O302 2.399 1_565 S
Tb281 O291 2.322 . S
Tb281 O292 2.349 . S
Tb281 O294 2.415 . S
Tb281 O295 2.399 . S
Tb281 O296 2.325 . S
Tb281 O299 2.303 . S
Tb281 C310 2.764 . S
C282 O298 1.261 . S
C282 O299 1.257 . S
C283 C286 1.358 . S
C283 C287 1.332 . S
C283 C289 1.504 . S
C284 C285 1.373 . S
C284 C288 1.308 . S
C285 C284 1.373 . S
C285 C286 1.429 . S
C285 H312 0.932 . S
C286 C283 1.358 . S
C286 C285 1.429 . S
C286 H313 0.930 . S
C287 C283 1.332 . S
C287 C288 1.394 . S
C287 H314 0.932 . S
C288 C284 1.308 . S
C288 C287 1.394 . S
C288 H315 0.929 . S
C289 Tb280 2.764 1_545 S
C289 C283 1.504 . S
C289 O301 1.239 . S
C289 O302 1.263 . S
O290 Tb280 2.325 . S
O290 C300 1.236 . S
O291 Tb281 2.322 . S
O291 C300 1.257 . S
O292 Tb281 2.349 . S
O292 C303 1.261 . S
O293 Tb280 2.303 . S
O293 C303 1.257 . S
O294 Tb281 2.415 . S
O294 C310 1.239 . S
O295 Tb281 2.399 . S
O295 C310 1.263 . S
O296 Tb281 2.325 . S
O296 C311 1.236 . S
O297 Tb280 2.322 . S
O297 C311 1.257 . S
O298 Tb280 2.349 . S
O298 C282 1.261 . S
O299 Tb281 2.303 . S
O299 C282 1.257 . S
C300 O290 1.236 . S
C300 O291 1.257 . S
O301 Tb280 2.415 1_545 S
O301 C289 1.239 . S
O302 Tb280 2.399 1_545 S
O302 C289 1.263 . S
C303 O292 1.261 . S
C303 O293 1.257 . S
C304 C307 1.358 . S
C304 C308 1.332 . S
C304 C310 1.504 . S
C305 C306 1.373 . S
C305 C309 1.308 . S
C306 C305 1.373 . S
C306 C307 1.429 . S
C306 H316 0.932 . S
C307 C304 1.358 . S
C307 C306 1.429 . S
C307 H317 0.930 . S
C308 C304 1.332 . S
C308 C309 1.394 . S
C308 H318 0.932 . S
C309 C305 1.308 . S
C309 C308 1.394 . S
C309 H319 0.929 . S
C310 Tb281 2.764 . S
C310 O294 1.239 . S
C310 O295 1.263 . S
C310 C304 1.504 . S
C311 O296 1.236 . S
C311 O297 1.257 . S
H312 C285 0.932 . S
H313 C286 0.930 . S
H314 C287 0.932 . S
H315 C288 0.929 . S
H316 C306 0.932 . S
H317 C307 0.930 . S
H318 C308 0.932 . S
H319 C309 0.929 . S
Tb320 C329 2.764 . S
Tb320 O330 2.325 . S
Tb320 O333 2.303 . S
Tb320 O337 2.322 . S
Tb320 O338 2.349 . S
Tb320 O341 2.415 . S
Tb320 O342 2.399 . S
Tb321 O331 2.322 . S
Tb321 O332 2.349 . S
Tb321 O334 2.415 . S
Tb321 O335 2.399 . S
Tb321 O336 2.325 . S
Tb321 O339 2.303 . S
Tb321 C350 2.764 . S
C322 O338 1.261 . S
C322 O339 1.257 . S
C323 C326 1.358 . S
C323 C327 1.332 . S
C323 C329 1.504 . S
C324 C325 1.373 . S
C324 C328 1.308 . S
C325 C324 1.373 . S
C325 C326 1.429 . S
C325 H352 0.932 . S
C326 C323 1.358 . S
C326 C325 1.429 . S
C326 H353 0.930 . S
C327 C323 1.332 . S
C327 C328 1.394 . S
C327 H354 0.932 . S
C328 C324 1.308 . S
C328 C327 1.394 . S
C328 H355 0.929 . S
C329 Tb320 2.764 . S
C329 C323 1.504 . S
C329 O341 1.239 . S
C329 O342 1.263 . S
O330 Tb320 2.325 . S
O330 C340 1.236 . S
O331 Tb321 2.322 . S
O331 C340 1.257 . S
O332 Tb321 2.349 . S
O332 C343 1.261 . S
O333 Tb320 2.303 . S
O333 C343 1.257 . S
O334 Tb321 2.415 . S
O334 C350 1.239 . S
O335 Tb321 2.399 . S
O335 C350 1.263 . S
O336 Tb321 2.325 . S
O336 C351 1.236 . S
O337 Tb320 2.322 . S
O337 C351 1.257 . S
O338 Tb320 2.349 . S
O338 C322 1.261 . S
O339 Tb321 2.303 . S
O339 C322 1.257 . S
C340 O330 1.236 . S
C340 O331 1.257 . S
O341 Tb320 2.415 . S
O341 C329 1.239 . S
O342 Tb320 2.399 . S
O342 C329 1.263 . S
C343 O332 1.261 . S
C343 O333 1.257 . S
C344 C347 1.358 . S
C344 C348 1.332 . S
C344 C350 1.504 . S
C345 C346 1.373 . S
C345 C349 1.308 . S
C346 C345 1.373 . S
C346 C347 1.429 . S
C346 H356 0.932 . S
C347 C344 1.358 . S
C347 C346 1.429 . S
C347 H357 0.930 . S
C348 C344 1.332 . S
C348 C349 1.394 . S
C348 H358 0.932 . S
C349 C345 1.308 . S
C349 C348 1.394 . S
C349 H359 0.929 . S
C350 Tb321 2.764 . S
C350 O334 1.239 . S
C350 O335 1.263 . S
C350 C344 1.504 . S
C351 O336 1.236 . S
C351 O337 1.257 . S
H352 C325 0.932 . S
H353 C326 0.930 . S
H354 C327 0.932 . S
H355 C328 0.929 . S
H356 C346 0.932 . S
H357 C347 0.930 . S
H358 C348 0.932 . S
H359 C349 0.929 . S
Tb360 C369 2.764 . S
Tb360 O370 2.325 . S
Tb360 O373 2.303 . S
Tb360 O377 2.322 . S
Tb360 O378 2.349 . S
Tb360 O381 2.415 . S
Tb360 O382 2.399 . S
Tb361 O371 2.322 . S
Tb361 O372 2.349 . S
Tb361 O374 2.415 . S
Tb361 O375 2.399 . S
Tb361 O376 2.325 . S
Tb361 O379 2.303 . S
Tb361 C390 2.764 . S
C362 O378 1.261 . S
C362 O379 1.257 . S
C363 C366 1.358 . S
C363 C367 1.332 . S
C363 C369 1.504 . S
C364 C365 1.373 . S
C364 C368 1.308 . S
C365 C364 1.373 . S
C365 C366 1.429 . S
C365 H392 0.932 . S
C366 C363 1.358 . S
C366 C365 1.429 . S
C366 H393 0.930 . S
C367 C363 1.332 . S
C367 C368 1.394 . S
C367 H394 0.932 . S
C368 C364 1.308 . S
C368 C367 1.394 . S
C368 H395 0.929 . S
C369 Tb360 2.764 . S
C369 C363 1.504 . S
C369 O381 1.239 . S
C369 O382 1.263 . S
O370 Tb360 2.325 . S
O370 C380 1.236 . S
O371 Tb361 2.322 . S
O371 C380 1.257 . S
O372 Tb361 2.349 . S
O372 C383 1.261 . S
O373 Tb360 2.303 . S
O373 C383 1.257 . S
O374 Tb361 2.415 . S
O374 C390 1.239 . S
O375 Tb361 2.399 . S
O375 C390 1.263 . S
O376 Tb361 2.325 . S
O376 C391 1.236 . S
O377 Tb360 2.322 . S
O377 C391 1.257 . S
O378 Tb360 2.349 . S
O378 C362 1.261 . S
O379 Tb361 2.303 . S
O379 C362 1.257 . S
C380 O370 1.236 . S
C380 O371 1.257 . S
O381 Tb360 2.415 . S
O381 C369 1.239 . S
O382 Tb360 2.399 . S
O382 C369 1.263 . S
C383 O372 1.261 . S
C383 O373 1.257 . S
C384 C387 1.358 . S
C384 C388 1.332 . S
C384 C390 1.504 . S
C385 C386 1.373 . S
C385 C389 1.308 . S
C386 C385 1.373 . S
C386 C387 1.429 . S
C386 H396 0.932 . S
C387 C384 1.358 . S
C387 C386 1.429 . S
C387 H397 0.930 . S
C388 C384 1.332 . S
C388 C389 1.394 . S
C388 H398 0.932 . S
C389 C385 1.308 . S
C389 C388 1.394 . S
C389 H399 0.929 . S
C390 Tb361 2.764 . S
C390 O374 1.239 . S
C390 O375 1.263 . S
C390 C384 1.504 . S
C391 O376 1.236 . S
C391 O377 1.257 . S
H392 C365 0.932 . S
H393 C366 0.930 . S
H394 C367 0.932 . S
H395 C368 0.929 . S
H396 C386 0.932 . S
H397 C387 0.930 . S
H398 C388 0.932 . S
H399 C389 0.929 . S
Tb400 C409 2.764 . S
Tb400 O410 2.325 . S
Tb400 O413 2.303 . S
Tb400 O417 2.322 . S
Tb400 O418 2.349 . S
Tb400 O421 2.415 . S
Tb400 O422 2.399 . S
Tb401 O411 2.322 . S
Tb401 O412 2.349 . S
Tb401 O414 2.415 . S
Tb401 O415 2.399 . S
Tb401 O416 2.325 . S
Tb401 O419 2.303 . S
Tb401 C430 2.764 . S
C402 O418 1.261 . S
C402 O419 1.257 . S
C403 C406 1.358 . S
C403 C407 1.332 . S
C403 C409 1.504 . S
C404 C405 1.373 . S
C404 C408 1.308 . S
C405 C404 1.373 . S
C405 C406 1.429 . S
C405 H432 0.932 . S
C406 C403 1.358 . S
C406 C405 1.429 . S
C406 H433 0.930 . S
C407 C403 1.332 . S
C407 C408 1.394 . S
C407 H434 0.932 . S
C408 C404 1.308 . S
C408 C407 1.394 . S
C408 H435 0.929 . S
C409 Tb400 2.764 . S
C409 C403 1.504 . S
C409 O421 1.239 . S
C409 O422 1.263 . S
O410 Tb400 2.325 . S
O410 C420 1.236 . S
O411 Tb401 2.322 . S
O411 C420 1.257 . S
O412 Tb401 2.349 . S
O412 C423 1.261 . S
O413 Tb400 2.303 . S
O413 C423 1.257 . S
O414 Tb401 2.415 . S
O414 C430 1.239 . S
O415 Tb401 2.399 . S
O415 C430 1.263 . S
O416 Tb401 2.325 . S
O416 C431 1.236 . S
O417 Tb400 2.322 . S
O417 C431 1.257 . S
O418 Tb400 2.349 . S
O418 C402 1.261 . S
O419 Tb401 2.303 . S
O419 C402 1.257 . S
C420 O410 1.236 . S
C420 O411 1.257 . S
O421 Tb400 2.415 . S
O421 C409 1.239 . S
O422 Tb400 2.399 . S
O422 C409 1.263 . S
C423 O412 1.261 . S
C423 O413 1.257 . S
C424 C427 1.358 . S
C424 C428 1.332 . S
C424 C430 1.504 . S
C425 C426 1.373 . S
C425 C429 1.308 . S
C426 C425 1.373 . S
C426 C427 1.429 . S
C426 H436 0.932 . S
C427 C424 1.358 . S
C427 C426 1.429 . S
C427 H437 0.930 . S
C428 C424 1.332 . S
C428 C429 1.394 . S
C428 H438 0.932 . S
C429 C425 1.308 . S
C429 C428 1.394 . S
C429 H439 0.929 . S
C430 Tb401 2.764 . S
C430 O414 1.239 . S
C430 O415 1.263 . S
C430 C424 1.504 . S
C431 O416 1.236 . S
C431 O417 1.257 . S
H432 C405 0.932 . S
H433 C406 0.930 . S
H434 C407 0.932 . S
H435 C408 0.929 . S
H436 C426 0.932 . S
H437 C427 0.930 . S
H438 C428 0.932 . S
H439 C429 0.929 . S
Tb440 C449 2.764 . S
Tb440 O450 2.325 . S
Tb440 O453 2.303 . S
Tb440 O457 2.322 . S
Tb440 O458 2.349 . S
Tb440 O461 2.415 . S
Tb440 O462 2.399 . S
Tb441 O451 2.322 . S
Tb441 O452 2.349 . S
Tb441 O454 2.415 . S
Tb441 O455 2.399 . S
Tb441 O456 2.325 . S
Tb441 O459 2.303 . S
Tb441 C470 2.764 . S
C442 O458 1.261 . S
C442 O459 1.257 . S
C443 C446 1.358 . S
C443 C447 1.332 . S
C443 C449 1.504 . S
C444 C445 1.373 . S
C444 C448 1.308 . S
C445 C444 1.373 . S
C445 C446 1.429 . S
C445 H472 0.932 . S
C446 C443 1.358 . S
C446 C445 1.429 . S
C446 H473 0.930 . S
C447 C443 1.332 . S
C447 C448 1.394 . S
C447 H474 0.932 . S
C448 C444 1.308 . S
C448 C447 1.394 . S
C448 H475 0.929 . S
C449 Tb440 2.764 . S
C449 C443 1.504 . S
C449 O461 1.239 . S
C449 O462 1.263 . S
O450 Tb440 2.325 . S
O450 C460 1.236 . S
O451 Tb441 2.322 . S
O451 C460 1.257 . S
O452 Tb441 2.349 . S
O452 C463 1.261 . S
O453 Tb440 2.303 . S
O453 C463 1.257 . S
O454 Tb441 2.415 . S
O454 C470 1.239 . S
O455 Tb441 2.399 . S
O455 C470 1.263 . S
O456 Tb441 2.325 . S
O456 C471 1.236 . S
O457 Tb440 2.322 . S
O457 C471 1.257 . S
O458 Tb440 2.349 . S
O458 C442 1.261 . S
O459 Tb441 2.303 . S
O459 C442 1.257 . S
C460 O450 1.236 . S
C460 O451 1.257 . S
O461 Tb440 2.415 . S
O461 C449 1.239 . S
O462 Tb440 2.399 . S
O462 C449 1.263 . S
C463 O452 1.261 . S
C463 O453 1.257 . S
C464 C467 1.358 . S
C464 C468 1.332 . S
C464 C470 1.504 . S
C465 C466 1.373 . S
C465 C469 1.308 . S
C466 C465 1.373 . S
C466 C467 1.429 . S
C466 H476 0.932 . S
C467 C464 1.358 . S
C467 C466 1.429 . S
C467 H477 0.930 . S
C468 C464 1.332 . S
C468 C469 1.394 . S
C468 H478 0.932 . S
C469 C465 1.308 . S
C469 C468 1.394 . S
C469 H479 0.929 . S
C470 Tb441 2.764 . S
C470 O454 1.239 . S
C470 O455 1.263 . S
C470 C464 1.504 . S
C471 O456 1.236 . S
C471 O457 1.257 . S
H472 C445 0.932 . S
H473 C446 0.930 . S
H474 C447 0.932 . S
H475 C448 0.929 . S
H476 C466 0.932 . S
H477 C467 0.930 . S
H478 C468 0.932 . S
H479 C469 0.929 . S
Tb480 C489 2.764 . S
Tb480 O490 2.325 . S
Tb480 O493 2.303 . S
Tb480 O497 2.322 . S
Tb480 O498 2.349 . S
Tb480 O501 2.415 . S
Tb480 O502 2.399 . S
Tb481 O491 2.322 . S
Tb481 O492 2.349 . S
Tb481 O494 2.415 . S
Tb481 O495 2.399 . S
Tb481 O496 2.325 . S
Tb481 O499 2.303 . S
Tb481 C510 2.764 . S
C482 O498 1.261 . S
C482 O499 1.257 . S
C483 C486 1.358 . S
C483 C487 1.332 . S
C483 C489 1.504 . S
C484 C485 1.373 . S
C484 C488 1.308 . S
C485 C484 1.373 . S
C485 C486 1.429 . S
C485 H512 0.932 . S
C486 C483 1.358 . S
C486 C485 1.429 . S
C486 H513 0.930 . S
C487 C483 1.332 . S
C487 C488 1.394 . S
C487 H514 0.932 . S
C488 C484 1.308 . S
C488 C487 1.394 . S
C488 H515 0.929 . S
C489 Tb480 2.764 . S
C489 C483 1.504 . S
C489 O501 1.239 . S
C489 O502 1.263 . S
O490 Tb480 2.325 . S
O490 C500 1.236 . S
O491 Tb481 2.322 . S
O491 C500 1.257 . S
O492 Tb481 2.349 . S
O492 C503 1.261 . S
O493 Tb480 2.303 . S
O493 C503 1.257 . S
O494 Tb481 2.415 . S
O494 C510 1.239 . S
O495 Tb481 2.399 . S
O495 C510 1.263 . S
O496 Tb481 2.325 . S
O496 C511 1.236 . S
O497 Tb480 2.322 . S
O497 C511 1.257 . S
O498 Tb480 2.349 . S
O498 C482 1.261 . S
O499 Tb481 2.303 . S
O499 C482 1.257 . S
C500 O490 1.236 . S
C500 O491 1.257 . S
O501 Tb480 2.415 . S
O501 C489 1.239 . S
O502 Tb480 2.399 . S
O502 C489 1.263 . S
C503 O492 1.261 . S
C503 O493 1.257 . S
C504 C507 1.358 . S
C504 C508 1.332 . S
C504 C510 1.504 . S
C505 C506 1.373 . S
C505 C509 1.308 . S
C506 C505 1.373 . S
C506 C507 1.429 . S
C506 H516 0.932 . S
C507 C504 1.358 . S
C507 C506 1.429 . S
C507 H517 0.930 . S
C508 C504 1.332 . S
C508 C509 1.394 . S
C508 H518 0.932 . S
C509 C505 1.308 . S
C509 C508 1.394 . S
C509 H519 0.929 . S
C510 Tb481 2.764 . S
C510 O494 1.239 . S
C510 O495 1.263 . S
C510 C504 1.504 . S
C511 O496 1.236 . S
C511 O497 1.257 . S
H512 C485 0.932 . S
H513 C486 0.930 . S
H514 C487 0.932 . S
H515 C488 0.929 . S
H516 C506 0.932 . S
H517 C507 0.930 . S
H518 C508 0.932 . S
H519 C509 0.929 . S
Tb520 C529 2.764 . S
Tb520 O530 2.325 . S
Tb520 O533 2.303 . S
Tb520 O537 2.322 . S
Tb520 O538 2.349 . S
Tb520 O541 2.415 . S
Tb520 O542 2.399 . S
Tb521 O531 2.322 . S
Tb521 O532 2.349 . S
Tb521 O534 2.415 . S
Tb521 O535 2.399 . S
Tb521 O536 2.325 . S
Tb521 O539 2.303 . S
Tb521 C550 2.764 . S
C522 O538 1.261 . S
C522 O539 1.257 . S
C523 C526 1.358 . S
C523 C527 1.332 . S
C523 C529 1.504 . S
C524 C525 1.373 . S
C524 C528 1.308 . S
C525 C524 1.373 . S
C525 C526 1.429 . S
C525 H552 0.932 . S
C526 C523 1.358 . S
C526 C525 1.429 . S
C526 H553 0.930 . S
C527 C523 1.332 . S
C527 C528 1.394 . S
C527 H554 0.932 . S
C528 C524 1.308 . S
C528 C527 1.394 . S
C528 H555 0.929 . S
C529 Tb520 2.764 . S
C529 C523 1.504 . S
C529 O541 1.239 . S
C529 O542 1.263 . S
O530 Tb520 2.325 . S
O530 C540 1.236 . S
O531 Tb521 2.322 . S
O531 C540 1.257 . S
O532 Tb521 2.349 . S
O532 C543 1.261 . S
O533 Tb520 2.303 . S
O533 C543 1.257 . S
O534 Tb521 2.415 . S
O534 C550 1.239 . S
O535 Tb521 2.399 . S
O535 C550 1.263 . S
O536 Tb521 2.325 . S
O536 C551 1.236 . S
O537 Tb520 2.322 . S
O537 C551 1.257 . S
O538 Tb520 2.349 . S
O538 C522 1.261 . S
O539 Tb521 2.303 . S
O539 C522 1.257 . S
C540 O530 1.236 . S
C540 O531 1.257 . S
O541 Tb520 2.415 . S
O541 C529 1.239 . S
O542 Tb520 2.399 . S
O542 C529 1.263 . S
C543 O532 1.261 . S
C543 O533 1.257 . S
C544 C547 1.358 . S
C544 C548 1.332 . S
C544 C550 1.504 . S
C545 C546 1.373 . S
C545 C549 1.308 . S
C546 C545 1.373 . S
C546 C547 1.429 . S
C546 H556 0.932 . S
C547 C544 1.358 . S
C547 C546 1.429 . S
C547 H557 0.930 . S
C548 C544 1.332 . S
C548 C549 1.394 . S
C548 H558 0.932 . S
C549 C545 1.308 . S
C549 C548 1.394 . S
C549 H559 0.929 . S
C550 Tb521 2.764 . S
C550 O534 1.239 . S
C550 O535 1.263 . S
C550 C544 1.504 . S
C551 O536 1.236 . S
C551 O537 1.257 . S
H552 C525 0.932 . S
H553 C526 0.930 . S
H554 C527 0.932 . S
H555 C528 0.929 . S
H556 C546 0.932 . S
H557 C547 0.930 . S
H558 C548 0.932 . S
H559 C549 0.929 . S
Tb560 C569 2.764 . S
Tb560 O570 2.325 . S
Tb560 O573 2.303 . S
Tb560 O577 2.322 . S
Tb560 O578 2.349 . S
Tb560 O581 2.415 . S
Tb560 O582 2.399 . S
Tb561 O571 2.322 . S
Tb561 O572 2.349 . S
Tb561 O574 2.415 . S
Tb561 O575 2.399 . S
Tb561 O576 2.325 . S
Tb561 O579 2.303 . S
Tb561 C590 2.764 . S
C562 O578 1.261 . S
C562 O579 1.257 . S
C563 C566 1.358 . S
C563 C567 1.332 . S
C563 C569 1.504 . S
C564 C565 1.373 . S
C564 C568 1.308 . S
C565 C564 1.373 . S
C565 C566 1.429 . S
C565 H592 0.932 . S
C566 C563 1.358 . S
C566 C565 1.429 . S
C566 H593 0.930 . S
C567 C563 1.332 . S
C567 C568 1.394 . S
C567 H594 0.932 . S
C568 C564 1.308 . S
C568 C567 1.394 . S
C568 H595 0.929 . S
C569 Tb560 2.764 . S
C569 C563 1.504 . S
C569 O581 1.239 . S
C569 O582 1.263 . S
O570 Tb560 2.325 . S
O570 C580 1.236 . S
O571 Tb561 2.322 . S
O571 C580 1.257 . S
O572 Tb561 2.349 . S
O572 C583 1.261 . S
O573 Tb560 2.303 . S
O573 C583 1.257 . S
O574 Tb561 2.415 . S
O574 C590 1.239 . S
O575 Tb561 2.399 . S
O575 C590 1.263 . S
O576 Tb561 2.325 . S
O576 C591 1.236 . S
O577 Tb560 2.322 . S
O577 C591 1.257 . S
O578 Tb560 2.349 . S
O578 C562 1.261 . S
O579 Tb561 2.303 . S
O579 C562 1.257 . S
C580 O570 1.236 . S
C580 O571 1.257 . S
O581 Tb560 2.415 . S
O581 C569 1.239 . S
O582 Tb560 2.399 . S
O582 C569 1.263 . S
C583 O572 1.261 . S
C583 O573 1.257 . S
C584 C587 1.358 . S
C584 C588 1.332 . S
C584 C590 1.504 . S
C585 C586 1.373 . S
C585 C589 1.308 . S
C586 C585 1.373 . S
C586 C587 1.429 . S
C586 H596 0.932 . S
C587 C584 1.358 . S
C587 C586 1.429 . S
C587 H597 0.930 . S
C588 C584 1.332 . S
C588 C589 1.394 . S
C588 H598 0.932 . S
C589 C585 1.308 . S
C589 C588 1.394 . S
C589 H599 0.929 . S
C590 Tb561 2.764 . S
C590 O574 1.239 . S
C590 O575 1.263 . S
C590 C584 1.504 . S
C591 O576 1.236 . S
C591 O577 1.257 . S
H592 C565 0.932 . S
H593 C566 0.930 . S
H594 C567 0.932 . S
H595 C568 0.929 . S
H596 C586 0.932 . S
H597 C587 0.930 . S
H598 C588 0.932 . S
H599 C589 0.929 . S
Tb600 C609 2.764 . S
Tb600 O610 2.325 . S
Tb600 O613 2.303 . S
Tb600 O617 2.322 . S
Tb600 O618 2.349 . S
Tb600 O621 2.415 . S
Tb600 O622 2.399 . S
Tb601 O611 2.322 . S
Tb601 O612 2.349 . S
Tb601 O614 2.415 . S
Tb601 O615 2.399 . S
Tb601 O616 2.325 . S
Tb601 O619 2.303 . S
Tb601 C630 2.764 . S
C602 O618 1.261 . S
C602 O619 1.257 . S
C603 C606 1.358 . S
C603 C607 1.332 . S
C603 C609 1.504 . S
C604 C605 1.373 . S
C604 C608 1.308 . S
C605 C604 1.373 . S
C605 C606 1.429 . S
C605 H632 0.932 . S
C606 C603 1.358 . S
C606 C605 1.429 . S
C606 H633 0.930 . S
C607 C603 1.332 . S
C607 C608 1.394 . S
C607 H634 0.932 . S
C608 C604 1.308 . S
C608 C607 1.394 . S
C608 H635 0.929 . S
C609 Tb600 2.764 . S
C609 C603 1.504 . S
C609 O621 1.239 . S
C609 O622 1.263 . S
O610 Tb600 2.325 . S
O610 C620 1.236 . S
O611 Tb601 2.322 . S
O611 C620 1.257 . S
O612 Tb601 2.349 . S
O612 C623 1.261 . S
O613 Tb600 2.303 . S
O613 C623 1.257 . S
O614 Tb601 2.415 . S
O614 C630 1.239 . S
O615 Tb601 2.399 . S
O615 C630 1.263 . S
O616 Tb601 2.325 . S
O616 C631 1.236 . S
O617 Tb600 2.322 . S
O617 C631 1.257 . S
O618 Tb600 2.349 . S
O618 C602 1.261 . S
O619 Tb601 2.303 . S
O619 C602 1.257 . S
C620 O610 1.236 . S
C620 O611 1.257 . S
O621 Tb600 2.415 . S
O621 C609 1.239 . S
O622 Tb600 2.399 . S
O622 C609 1.263 . S
C623 O612 1.261 . S
C623 O613 1.257 . S
C624 C627 1.358 . S
C624 C628 1.332 . S
C624 C630 1.504 . S
C625 C626 1.373 . S
C625 C629 1.308 . S
C626 C625 1.373 . S
C626 C627 1.429 . S
C626 H636 0.932 . S
C627 C624 1.358 . S
C627 C626 1.429 . S
C627 H637 0.930 . S
C628 C624 1.332 . S
C628 C629 1.394 . S
C628 H638 0.932 . S
C629 C625 1.308 . S
C629 C628 1.394 . S
C629 H639 0.929 . S
C630 Tb601 2.764 . S
C630 O614 1.239 . S
C630 O615 1.263 . S
C630 C624 1.504 . S
C631 O616 1.236 . S
C631 O617 1.257 . S
H632 C605 0.932 . S
H633 C606 0.930 . S
H634 C607 0.932 . S
H635 C608 0.929 . S
H636 C626 0.932 . S
H637 C627 0.930 . S
H638 C628 0.932 . S
H639 C629 0.929 . S
C640 C641 1.363 . S
C640 C646 1.379 . S
C640 N648 1.356 . S
C641 C640 1.363 . S
C641 C647 1.363 . S
C642 C643 1.363 . S
C642 C647 1.379 . S
C642 N649 1.356 . S
C643 C642 1.363 . S
C643 C646 1.363 . S
N644 C646 1.356 . S
N644 H656 0.984 . S
N644 H657 0.985 . S
N645 C647 1.356 . S
N645 H650 0.984 . S
N645 H651 0.985 . S
C646 C640 1.379 . S
C646 C643 1.363 . S
C646 N644 1.356 . S
C647 C641 1.363 . S
C647 C642 1.379 . S
C647 N645 1.356 . S
N648 C640 1.356 . S
N648 H654 0.984 . S
N648 H655 0.984 . S
N649 C642 1.356 . S
N649 H652 0.984 . S
N649 H653 0.985 . S
H650 N645 0.984 . S
H651 N645 0.985 . S
H652 N649 0.984 . S
H653 N649 0.985 . S
H654 N648 0.984 . S
H655 N648 0.984 . S
H656 N644 0.984 . S
H657 N644 0.985 . S
C658 C659 1.363 . S
C658 C664 1.379 . S
C658 N666 1.356 . S
C659 C658 1.363 . S
C659 C665 1.363 . S
C660 C661 1.363 . S
C660 C665 1.379 . S
C660 N667 1.356 . S
C661 C660 1.363 . S
C661 C664 1.363 . S
N662 C664 1.356 . S
N662 H674 0.984 . S
N662 H675 0.985 . S
N663 C665 1.356 . S
N663 H668 0.984 . S
N663 H669 0.985 . S
C664 C658 1.379 . S
C664 C661 1.363 . S
C664 N662 1.356 . S
C665 C659 1.363 . S
C665 C660 1.379 . S
C665 N663 1.356 . S
N666 C658 1.356 . S
N666 H672 0.984 . S
N666 H673 0.984 . S
N667 C660 1.356 . S
N667 H670 0.984 . S
N667 H671 0.985 . S
H668 N663 0.984 . S
H669 N663 0.985 . S
H670 N667 0.984 . S
H671 N667 0.985 . S
H672 N666 0.984 . S
H673 N666 0.984 . S
H674 N662 0.984 . S
H675 N662 0.985 . S
C676 C677 1.363 . S
C676 C682 1.379 . S
C676 N684 1.356 . S
C677 C676 1.363 . S
C677 C683 1.363 . S
C678 C679 1.363 . S
C678 C683 1.379 . S
C678 N685 1.356 . S
C679 C678 1.363 . S
C679 C682 1.363 . S
N680 C682 1.356 . S
N680 H692 0.984 . S
N680 H693 0.985 . S
N681 C683 1.356 . S
N681 H686 0.984 . S
N681 H687 0.985 . S
C682 C676 1.379 . S
C682 C679 1.363 . S
C682 N680 1.356 . S
C683 C677 1.363 . S
C683 C678 1.379 . S
C683 N681 1.356 . S
N684 C676 1.356 . S
N684 H690 0.984 . S
N684 H691 0.984 . S
N685 C678 1.356 . S
N685 H688 0.984 . S
N685 H689 0.985 . S
H686 N681 0.984 . S
H687 N681 0.985 . S
H688 N685 0.984 . S
H689 N685 0.985 . S
H690 N684 0.984 . S
H691 N684 0.984 . S
H692 N680 0.984 . S
H693 N680 0.985 . S
C694 C695 1.363 . S
C694 C700 1.379 . S
C694 N702 1.356 . S
C695 C694 1.363 . S
C695 C701 1.363 . S
C696 C697 1.363 . S
C696 C701 1.379 . S
C696 N703 1.356 . S
C697 C696 1.363 . S
C697 C700 1.363 . S
N698 C700 1.356 . S
N698 H710 0.984 . S
N698 H711 0.985 . S
N699 C701 1.356 . S
N699 H704 0.984 . S
N699 H705 0.985 . S
C700 C694 1.379 . S
C700 C697 1.363 . S
C700 N698 1.356 . S
C701 C695 1.363 . S
C701 C696 1.379 . S
C701 N699 1.356 . S
N702 C694 1.356 . S
N702 H708 0.984 . S
N702 H709 0.984 . S
N703 C696 1.356 . S
N703 H706 0.984 . S
N703 H707 0.985 . S
H704 N699 0.984 . S
H705 N699 0.985 . S
H706 N703 0.984 . S
H707 N703 0.985 . S
H708 N702 0.984 . S
H709 N702 0.984 . S
H710 N698 0.984 . S
H711 N698 0.985 . S
C712 C713 1.363 . S
C712 C718 1.379 . S
C712 N720 1.356 . S
C713 C712 1.363 . S
C713 C719 1.363 . S
C714 C715 1.363 . S
C714 C719 1.379 . S
C714 N721 1.356 . S
C715 C714 1.363 . S
C715 C718 1.363 . S
N716 C718 1.356 . S
N716 H728 0.984 . S
N716 H729 0.985 . S
N717 C719 1.356 . S
N717 H722 0.984 . S
N717 H723 0.985 . S
C718 C712 1.379 . S
C718 C715 1.363 . S
C718 N716 1.356 . S
C719 C713 1.363 . S
C719 C714 1.379 . S
C719 N717 1.356 . S
N720 C712 1.356 . S
N720 H726 0.984 . S
N720 H727 0.984 . S
N721 C714 1.356 . S
N721 H724 0.984 . S
N721 H725 0.985 . S
H722 N717 0.984 . S
H723 N717 0.985 . S
H724 N721 0.984 . S
H725 N721 0.985 . S
H726 N720 0.984 . S
H727 N720 0.984 . S
H728 N716 0.984 . S
H729 N716 0.985 . S
C730 C731 1.363 . S
C730 C736 1.379 . S
C730 N738 1.356 . S
C731 C730 1.363 . S
C731 C737 1.363 . S
C732 C733 1.363 . S
C732 C737 1.379 . S
C732 N739 1.356 . S
C733 C732 1.363 . S
C733 C736 1.363 . S
N734 C736 1.356 . S
N734 H746 0.984 . S
N734 H747 0.985 . S
N735 C737 1.356 . S
N735 H740 0.984 . S
N735 H741 0.985 . S
C736 C730 1.379 . S
C736 C733 1.363 . S
C736 N734 1.356 . S
C737 C731 1.363 . S
C737 C732 1.379 . S
C737 N735 1.356 . S
N738 C730 1.356 . S
N738 H744 0.984 . S
N738 H745 0.984 . S
N739 C732 1.356 . S
N739 H742 0.984 . S
N739 H743 0.985 . S
H740 N735 0.984 . S
H741 N735 0.985 . S
H742 N739 0.984 . S
H743 N739 0.985 . S
H744 N738 0.984 . S
H745 N738 0.984 . S
H746 N734 0.984 . S
H747 N734 0.985 . S
C748 C749 1.363 . S
C748 C754 1.379 . S
C748 N756 1.356 . S
C749 C748 1.363 . S
C749 C755 1.363 . S
C750 C751 1.363 . S
C750 C755 1.379 . S
C750 N757 1.356 . S
C751 C750 1.363 . S
C751 C754 1.363 . S
N752 C754 1.356 . S
N752 H764 0.984 . S
N752 H765 0.985 . S
N753 C755 1.356 . S
N753 H758 0.984 . S
N753 H759 0.985 . S
C754 C748 1.379 . S
C754 C751 1.363 . S
C754 N752 1.356 . S
C755 C749 1.363 . S
C755 C750 1.379 . S
C755 N753 1.356 . S
N756 C748 1.356 . S
N756 H762 0.984 . S
N756 H763 0.984 . S
N757 C750 1.356 . S
N757 H760 0.984 . S
N757 H761 0.985 . S
H758 N753 0.984 . S
H759 N753 0.985 . S
H760 N757 0.984 . S
H761 N757 0.985 . S
H762 N756 0.984 . S
H763 N756 0.984 . S
H764 N752 0.984 . S
H765 N752 0.985 . S
C766 C767 1.363 . S
C766 C772 1.379 . S
C766 N774 1.356 . S
C767 C766 1.363 . S
C767 C773 1.363 . S
C768 C769 1.363 . S
C768 C773 1.379 . S
C768 N775 1.356 . S
C769 C768 1.363 . S
C769 C772 1.363 . S
N770 C772 1.356 . S
N770 H782 0.984 . S
N770 H783 0.985 . S
N771 C773 1.356 . S
N771 H776 0.984 . S
N771 H777 0.985 . S
C772 C766 1.379 . S
C772 C769 1.363 . S
C772 N770 1.356 . S
C773 C767 1.363 . S
C773 C768 1.379 . S
C773 N771 1.356 . S
N774 C766 1.356 . S
N774 H780 0.984 . S
N774 H781 0.984 . S
N775 C768 1.356 . S
N775 H778 0.984 . S
N775 H779 0.985 . S
H776 N771 0.984 . S
H777 N771 0.985 . S
H778 N775 0.984 . S
H779 N775 0.985 . S
H780 N774 0.984 . S
H781 N774 0.984 . S
H782 N770 0.984 . S
H783 N770 0.985 . S
C784 C785 1.363 . S
C784 C790 1.379 . S
C784 N792 1.356 . S
C785 C784 1.363 . S
C785 C791 1.363 1_565 S
C786 C787 1.363 . S
C786 C791 1.379 . S
C786 N793 1.356 . S
C787 C786 1.363 . S
C787 C790 1.363 1_545 S
N788 C790 1.356 1_545 S
N788 H800 0.984 1_545 S
N788 H801 0.985 . S
N789 C791 1.356 1_565 S
N789 H794 0.984 . S
N789 H795 0.985 1_565 S
C790 C784 1.379 . S
C790 C787 1.363 1_565 S
C790 N788 1.356 1_565 S
C791 C785 1.363 1_545 S
C791 C786 1.379 . S
C791 N789 1.356 1_545 S
N792 C784 1.356 . S
N792 H798 0.984 . S
N792 H799 0.984 . S
N793 C786 1.356 . S
N793 H796 0.984 . S
N793 H797 0.985 . S
H794 N789 0.984 . S
H795 N789 0.985 1_545 S
H796 N793 0.984 . S
H797 N793 0.985 . S
H798 N792 0.984 . S
H799 N792 0.984 . S
H800 N788 0.984 1_565 S
H801 N788 0.985 . S
C802 C803 1.363 . S
C802 C808 1.379 1_545 S
C802 N810 1.356 . S
C803 C802 1.363 . S
C803 C809 1.363 . S
C804 C805 1.363 . S
C804 C809 1.379 1_565 S
C804 N811 1.356 . S
C805 C804 1.363 . S
C805 C808 1.363 . S
N806 C808 1.356 . S
N806 H818 0.984 . S
N806 H819 0.985 . S
N807 C809 1.356 . S
N807 H812 0.984 . S
N807 H813 0.985 . S
C808 C802 1.379 1_565 S
C808 C805 1.363 . S
C808 N806 1.356 . S
C809 C803 1.363 . S
C809 C804 1.379 1_545 S
C809 N807 1.356 . S
N810 C802 1.356 . S
N810 H816 0.984 . S
N810 H817 0.984 . S
N811 C804 1.356 . S
N811 H814 0.984 . S
N811 H815 0.985 . S
H812 N807 0.984 . S
H813 N807 0.985 . S
H814 N811 0.984 . S
H815 N811 0.985 . S
H816 N810 0.984 . S
H817 N810 0.984 . S
H818 N806 0.984 . S
H819 N806 0.985 . S
C820 C821 1.363 . S
C820 C826 1.379 . S
C820 N828 1.356 . S
C821 C820 1.363 . S
C821 C827 1.363 1_545 S
C822 C823 1.363 . S
C822 C827 1.379 . S
C822 N829 1.356 . S
C823 C822 1.363 . S
C823 C826 1.363 1_565 S
N824 C826 1.356 1_565 S
N824 H836 0.984 1_565 S
N824 H837 0.985 . S
N825 C827 1.356 1_545 S
N825 H830 0.984 . S
N825 H831 0.985 1_545 S
C826 C820 1.379 . S
C826 C823 1.363 1_545 S
C826 N824 1.356 1_545 S
C827 C821 1.363 1_565 S
C827 C822 1.379 . S
C827 N825 1.356 1_565 S
N828 C820 1.356 . S
N828 H834 0.984 . S
N828 H835 0.984 . S
N829 C822 1.356 . S
N829 H832 0.984 . S
N829 H833 0.985 . S
H830 N825 0.984 . S
H831 N825 0.985 1_565 S
H832 N829 0.984 . S
H833 N829 0.985 . S
H834 N828 0.984 . S
H835 N828 0.984 . S
H836 N824 0.984 1_545 S
H837 N824 0.985 . S
C838 C839 1.363 . S
C838 C844 1.379 1_545 S
C838 N846 1.356 . S
C839 C838 1.363 . S
C839 C845 1.363 . S
C840 C841 1.363 . S
C840 C845 1.379 1_565 S
C840 N847 1.356 . S
C841 C840 1.363 . S
C841 C844 1.363 . S
N842 C844 1.356 . S
N842 H854 0.984 . S
N842 H855 0.985 . S
N843 C845 1.356 . S
N843 H848 0.984 . S
N843 H849 0.985 . S
C844 C838 1.379 1_565 S
C844 C841 1.363 . S
C844 N842 1.356 . S
C845 C839 1.363 . S
C845 C840 1.379 1_545 S
C845 N843 1.356 . S
N846 C838 1.356 . S
N846 H852 0.984 . S
N846 H853 0.984 . S
N847 C840 1.356 . S
N847 H850 0.984 . S
N847 H851 0.985 . S
H848 N843 0.984 . S
H849 N843 0.985 . S
H850 N847 0.984 . S
H851 N847 0.985 . S
H852 N846 0.984 . S
H853 N846 0.984 . S
H854 N842 0.984 . S
H855 N842 0.985 . S
C856 C857 1.363 . S
C856 C862 1.379 . S
C856 N864 1.356 . S
C857 C856 1.363 . S
C857 C863 1.363 . S
C858 C859 1.363 . S
C858 C863 1.379 . S
C858 N865 1.356 . S
C859 C858 1.363 . S
C859 C862 1.363 . S
N860 C862 1.356 . S
N860 H872 0.984 . S
N860 H873 0.985 . S
N861 C863 1.356 . S
N861 H866 0.984 . S
N861 H867 0.985 . S
C862 C856 1.379 . S
C862 C859 1.363 . S
C862 N860 1.356 . S
C863 C857 1.363 . S
C863 C858 1.379 . S
C863 N861 1.356 . S
N864 C856 1.356 . S
N864 H870 0.984 . S
N864 H871 0.984 . S
N865 C858 1.356 . S
N865 H868 0.984 . S
N865 H869 0.985 . S
H866 N861 0.984 . S
H867 N861 0.985 . S
H868 N865 0.984 . S
H869 N865 0.985 . S
H870 N864 0.984 . S
H871 N864 0.984 . S
H872 N860 0.984 . S
H873 N860 0.985 . S
C874 C875 1.363 . S
C874 C880 1.379 . S
C874 N882 1.356 . S
C875 C874 1.363 . S
C875 C881 1.363 . S
C876 C877 1.363 . S
C876 C881 1.379 . S
C876 N883 1.356 . S
C877 C876 1.363 . S
C877 C880 1.363 . S
N878 C880 1.356 . S
N878 H890 0.984 . S
N878 H891 0.985 . S
N879 C881 1.356 . S
N879 H884 0.984 . S
N879 H885 0.985 . S
C880 C874 1.379 . S
C880 C877 1.363 . S
C880 N878 1.356 . S
C881 C875 1.363 . S
C881 C876 1.379 . S
C881 N879 1.356 . S
N882 C874 1.356 . S
N882 H888 0.984 . S
N882 H889 0.984 . S
N883 C876 1.356 . S
N883 H886 0.984 . S
N883 H887 0.985 . S
H884 N879 0.984 . S
H885 N879 0.985 . S
H886 N883 0.984 . S
H887 N883 0.985 . S
H888 N882 0.984 . S
H889 N882 0.984 . S
H890 N878 0.984 . S
H891 N878 0.985 . S
C892 C893 1.363 . S
C892 C898 1.379 . S
C892 N900 1.356 . S
C893 C892 1.363 . S
C893 C899 1.363 . S
C894 C895 1.363 . S
C894 C899 1.379 . S
C894 N901 1.356 . S
C895 C894 1.363 . S
C895 C898 1.363 . S
N896 C898 1.356 . S
N896 H908 0.984 . S
N896 H909 0.985 . S
N897 C899 1.356 . S
N897 H902 0.984 . S
N897 H903 0.985 . S
C898 C892 1.379 . S
C898 C895 1.363 . S
C898 N896 1.356 . S
C899 C893 1.363 . S
C899 C894 1.379 . S
C899 N897 1.356 . S
N900 C892 1.356 . S
N900 H906 0.984 . S
N900 H907 0.984 . S
N901 C894 1.356 . S
N901 H904 0.984 . S
N901 H905 0.985 . S
H902 N897 0.984 . S
H903 N897 0.985 . S
H904 N901 0.984 . S
H905 N901 0.985 . S
H906 N900 0.984 . S
H907 N900 0.984 . S
H908 N896 0.984 . S
H909 N896 0.985 . S
C910 C911 1.363 . S
C910 C916 1.379 . S
C910 N918 1.356 . S
C911 C910 1.363 . S
C911 C917 1.363 . S
C912 C913 1.363 . S
C912 C917 1.379 . S
C912 N919 1.356 . S
C913 C912 1.363 . S
C913 C916 1.363 . S
N914 C916 1.356 . S
N914 H926 0.984 . S
N914 H927 0.985 . S
N915 C917 1.356 . S
N915 H920 0.984 . S
N915 H921 0.985 . S
C916 C910 1.379 . S
C916 C913 1.363 . S
C916 N914 1.356 . S
C917 C911 1.363 . S
C917 C912 1.379 . S
C917 N915 1.356 . S
N918 C910 1.356 . S
N918 H924 0.984 . S
N918 H925 0.984 . S
N919 C912 1.356 . S
N919 H922 0.984 . S
N919 H923 0.985 . S
H920 N915 0.984 . S
H921 N915 0.985 . S
H922 N919 0.984 . S
H923 N919 0.985 . S
H924 N918 0.984 . S
H925 N918 0.984 . S
H926 N914 0.984 . S
H927 N914 0.985 . S
C928 C929 1.363 . S
C928 C934 1.379 1_556 S
C928 N936 1.356 . S
C929 C928 1.363 . S
C929 C935 1.363 . S
C930 C931 1.363 . S
C930 C935 1.379 1_554 S
C930 N937 1.356 . S
C931 C930 1.363 . S
C931 C934 1.363 . S
N932 C934 1.356 . S
N932 H944 0.984 . S
N932 H945 0.985 . S
N933 C935 1.356 . S
N933 H938 0.984 . S
N933 H939 0.985 . S
C934 C928 1.379 1_554 S
C934 C931 1.363 . S
C934 N932 1.356 . S
C935 C929 1.363 . S
C935 C930 1.379 1_556 S
C935 N933 1.356 . S
N936 C928 1.356 . S
N936 H942 0.984 . S
N936 H943 0.984 . S
N937 C930 1.356 . S
N937 H940 0.984 . S
N937 H941 0.985 . S
H938 N933 0.984 . S
H939 N933 0.985 . S
H940 N937 0.984 . S
H941 N937 0.985 . S
H942 N936 0.984 . S
H943 N936 0.984 . S
H944 N932 0.984 . S
H945 N932 0.985 . S
C946 C947 1.363 . S
C946 C952 1.379 1_556 S
C946 N954 1.356 . S
C947 C946 1.363 . S
C947 C953 1.363 . S
C948 C949 1.363 . S
C948 C953 1.379 1_554 S
C948 N955 1.356 . S
C949 C948 1.363 . S
C949 C952 1.363 . S
N950 C952 1.356 . S
N950 H962 0.984 . S
N950 H963 0.985 . S
N951 C953 1.356 . S
N951 H956 0.984 . S
N951 H957 0.985 . S
C952 C946 1.379 1_554 S
C952 C949 1.363 . S
C952 N950 1.356 . S
C953 C947 1.363 . S
C953 C948 1.379 1_556 S
C953 N951 1.356 . S
N954 C946 1.356 . S
N954 H960 0.984 . S
N954 H961 0.984 . S
N955 C948 1.356 . S
N955 H958 0.984 . S
N955 H959 0.985 . S
H956 N951 0.984 . S
H957 N951 0.985 . S
H958 N955 0.984 . S
H959 N955 0.985 . S
H960 N954 0.984 . S
H961 N954 0.984 . S
H962 N950 0.984 . S
H963 N950 0.985 . S
C964 C965 1.363 . S
C964 C970 1.379 . S
C964 N972 1.356 . S
C965 C964 1.363 . S
C965 C971 1.363 . S
C966 C967 1.363 . S
C966 C971 1.379 . S
C966 N973 1.356 . S
C967 C966 1.363 . S
C967 C970 1.363 . S
N968 C970 1.356 . S
N968 H980 0.984 . S
N968 H981 0.985 . S
N969 C971 1.356 . S
N969 H974 0.984 . S
N969 H975 0.985 . S
C970 C964 1.379 . S
C970 C967 1.363 . S
C970 N968 1.356 . S
C971 C965 1.363 . S
C971 C966 1.379 . S
C971 N969 1.356 . S
N972 C964 1.356 . S
N972 H978 0.984 . S
N972 H979 0.984 . S
N973 C966 1.356 . S
N973 H976 0.984 . S
N973 H977 0.985 . S
H974 N969 0.984 . S
H975 N969 0.985 . S
H976 N973 0.984 . S
H977 N973 0.985 . S
H978 N972 0.984 . S
H979 N972 0.984 . S
H980 N968 0.984 . S
H981 N968 0.985 . S
C982 C983 1.363 . S
C982 C988 1.379 . S
C982 N990 1.356 . S
C983 C982 1.363 . S
C983 C989 1.363 . S
C984 C985 1.363 . S
C984 C989 1.379 . S
C984 N991 1.356 . S
C985 C984 1.363 . S
C985 C988 1.363 . S
N986 C988 1.356 . S
N986 H998 0.984 . S
N986 H999 0.985 . S
N987 C989 1.356 . S
N987 H992 0.984 . S
N987 H993 0.985 . S
C988 C982 1.379 . S
C988 C985 1.363 . S
C988 N986 1.356 . S
C989 C983 1.363 . S
C989 C984 1.379 . S
C989 N987 1.356 . S
N990 C982 1.356 . S
N990 H996 0.984 . S
N990 H997 0.984 . S
N991 C984 1.356 . S
N991 H994 0.984 . S
N991 H995 0.985 . S
H992 N987 0.984 . S
H993 N987 0.985 . S
H994 N991 0.984 . S
H995 N991 0.985 . S
H996 N990 0.984 . S
H997 N990 0.984 . S
H998 N986 0.984 . S
H999 N986 0.985 . S
C1000 C1001 1.363 . S
C1000 C1006 1.379 1_554 S
C1000 N1008 1.356 . S
C1001 C1000 1.363 . S
C1001 C1007 1.363 . S
C1002 C1003 1.363 . S
C1002 C1007 1.379 1_556 S
C1002 N1009 1.356 . S
C1003 C1002 1.363 . S
C1003 C1006 1.363 . S
N1004 C1006 1.356 . S
N1004 H1016 0.984 . S
N1004 H1017 0.985 . S
N1005 C1007 1.356 . S
N1005 H1010 0.984 . S
N1005 H1011 0.985 . S
C1006 C1000 1.379 1_556 S
C1006 C1003 1.363 . S
C1006 N1004 1.356 . S
C1007 C1001 1.363 . S
C1007 C1002 1.379 1_554 S
C1007 N1005 1.356 . S
N1008 C1000 1.356 . S
N1008 H1014 0.984 . S
N1008 H1015 0.984 . S
N1009 C1002 1.356 . S
N1009 H1012 0.984 . S
N1009 H1013 0.985 . S
H1010 N1005 0.984 . S
H1011 N1005 0.985 . S
H1012 N1009 0.984 . S
H1013 N1009 0.985 . S
H1014 N1008 0.984 . S
H1015 N1008 0.984 . S
H1016 N1004 0.984 . S
H1017 N1004 0.985 . S
C1018 C1019 1.363 . S
C1018 C1024 1.379 1_556 S
C1018 N1026 1.356 . S
C1019 C1018 1.363 . S
C1019 C1025 1.363 . S
C1020 C1021 1.363 . S
C1020 C1025 1.379 1_554 S
C1020 N1027 1.356 . S
C1021 C1020 1.363 . S
C1021 C1024 1.363 . S
N1022 C1024 1.356 . S
N1022 H1034 0.984 . S
N1022 H1035 0.985 . S
N1023 C1025 1.356 . S
N1023 H1028 0.984 . S
N1023 H1029 0.985 . S
C1024 C1018 1.379 1_554 S
C1024 C1021 1.363 . S
C1024 N1022 1.356 . S
C1025 C1019 1.363 . S
C1025 C1020 1.379 1_556 S
C1025 N1023 1.356 . S
N1026 C1018 1.356 . S
N1026 H1032 0.984 . S
N1026 H1033 0.984 . S
N1027 C1020 1.356 . S
N1027 H1030 0.984 . S
N1027 H1031 0.985 . S
H1028 N1023 0.984 . S
H1029 N1023 0.985 . S
H1030 N1027 0.984 . S
H1031 N1027 0.985 . S
H1032 N1026 0.984 . S
H1033 N1026 0.984 . S
H1034 N1022 0.984 . S
H1035 N1022 0.985 . S
C1036 C1037 1.363 . S
C1036 C1042 1.379 . S
C1036 N1044 1.356 . S
C1037 C1036 1.363 . S
C1037 C1043 1.363 . S
C1038 C1039 1.363 . S
C1038 C1043 1.379 . S
C1038 N1045 1.356 . S
C1039 C1038 1.363 . S
C1039 C1042 1.363 . S
N1040 C1042 1.356 . S
N1040 H1052 0.984 . S
N1040 H1053 0.985 . S
N1041 C1043 1.356 . S
N1041 H1046 0.984 . S
N1041 H1047 0.985 . S
C1042 C1036 1.379 . S
C1042 C1039 1.363 . S
C1042 N1040 1.356 . S
C1043 C1037 1.363 . S
C1043 C1038 1.379 . S
C1043 N1041 1.356 . S
N1044 C1036 1.356 . S
N1044 H1050 0.984 . S
N1044 H1051 0.984 . S
N1045 C1038 1.356 . S
N1045 H1048 0.984 . S
N1045 H1049 0.985 . S
H1046 N1041 0.984 . S
H1047 N1041 0.985 . S
H1048 N1045 0.984 . S
H1049 N1045 0.985 . S
H1050 N1044 0.984 . S
H1051 N1044 0.984 . S
H1052 N1040 0.984 . S
H1053 N1040 0.985 . S
C1054 C1055 1.363 . S
C1054 C1060 1.379 . S
C1054 N1062 1.356 . S
C1055 C1054 1.363 . S
C1055 C1061 1.363 . S
C1056 C1057 1.363 . S
C1056 C1061 1.379 . S
C1056 N1063 1.356 . S
C1057 C1056 1.363 . S
C1057 C1060 1.363 . S
N1058 C1060 1.356 . S
N1058 H1070 0.984 . S
N1058 H1071 0.985 . S
N1059 C1061 1.356 . S
N1059 H1064 0.984 . S
N1059 H1065 0.985 . S
C1060 C1054 1.379 . S
C1060 C1057 1.363 . S
C1060 N1058 1.356 . S
C1061 C1055 1.363 . S
C1061 C1056 1.379 . S
C1061 N1059 1.356 . S
N1062 C1054 1.356 . S
N1062 H1068 0.984 . S
N1062 H1069 0.984 . S
N1063 C1056 1.356 . S
N1063 H1066 0.984 . S
N1063 H1067 0.985 . S
H1064 N1059 0.984 . S
H1065 N1059 0.985 . S
H1066 N1063 0.984 . S
H1067 N1063 0.985 . S
H1068 N1062 0.984 . S
H1069 N1062 0.984 . S
H1070 N1058 0.984 . S
H1071 N1058 0.985 . S
C1072 C1073 1.363 . S
C1072 C1078 1.379 1_655 S
C1072 N1080 1.356 . S
C1073 C1072 1.363 . S
C1073 C1079 1.363 1_565 S
C1074 C1075 1.363 . S
C1074 C1079 1.379 1_455 S
C1074 N1081 1.356 . S
C1075 C1074 1.363 . S
C1075 C1078 1.363 1_545 S
N1076 C1078 1.356 . S
N1076 H1088 0.984 . S
N1076 H1089 0.985 . S
N1077 C1079 1.356 . S
N1077 H1082 0.984 . S
N1077 H1083 0.985 . S
C1078 C1072 1.379 1_455 S
C1078 C1075 1.363 1_565 S
C1078 N1076 1.356 . S
C1079 C1073 1.363 1_545 S
C1079 C1074 1.379 1_655 S
C1079 N1077 1.356 . S
N1080 C1072 1.356 . S
N1080 H1086 0.984 . S
N1080 H1087 0.984 . S
N1081 C1074 1.356 . S
N1081 H1084 0.984 . S
N1081 H1085 0.985 . S
H1082 N1077 0.984 . S
H1083 N1077 0.985 . S
H1084 N1081 0.984 . S
H1085 N1081 0.985 . S
H1086 N1080 0.984 . S
H1087 N1080 0.984 . S
H1088 N1076 0.984 . S
H1089 N1076 0.985 . S
C1090 C1091 1.363 1_565 S
C1090 C1096 1.379 1_655 S
C1090 N1098 1.356 . S
C1091 C1090 1.363 1_545 S
C1091 C1097 1.363 . S
C1092 C1093 1.363 1_545 S
C1092 C1097 1.379 1_455 S
C1092 N1099 1.356 . S
C1093 C1092 1.363 1_565 S
C1093 C1096 1.363 . S
N1094 C1096 1.356 . S
N1094 H1106 0.984 . S
N1094 H1107 0.985 . S
N1095 C1097 1.356 . S
N1095 H1100 0.984 . S
N1095 H1101 0.985 . S
C1096 C1090 1.379 1_455 S
C1096 C1093 1.363 . S
C1096 N1094 1.356 . S
C1097 C1091 1.363 . S
C1097 C1092 1.379 1_655 S
C1097 N1095 1.356 . S
N1098 C1090 1.356 . S
N1098 H1104 0.984 . S
N1098 H1105 0.984 . S
N1099 C1092 1.356 . S
N1099 H1102 0.984 . S
N1099 H1103 0.985 . S
H1100 N1095 0.984 . S
H1101 N1095 0.985 . S
H1102 N1099 0.984 . S
H1103 N1099 0.985 . S
H1104 N1098 0.984 . S
H1105 N1098 0.984 . S
H1106 N1094 0.984 . S
H1107 N1094 0.985 . S
C1108 C1109 1.363 . S
C1108 C1114 1.379 1_455 S
C1108 N1116 1.356 . S
C1109 C1108 1.363 . S
C1109 C1115 1.363 1_545 S
C1110 C1111 1.363 . S
C1110 C1115 1.379 1_655 S
C1110 N1117 1.356 . S
C1111 C1110 1.363 . S
C1111 C1114 1.363 1_565 S
N1112 C1114 1.356 . S
N1112 H1124 0.984 . S
N1112 H1125 0.985 . S
N1113 C1115 1.356 . S
N1113 H1118 0.984 . S
N1113 H1119 0.985 . S
C1114 C1108 1.379 1_655 S
C1114 C1111 1.363 1_545 S
C1114 N1112 1.356 . S
C1115 C1109 1.363 1_565 S
C1115 C1110 1.379 1_455 S
C1115 N1113 1.356 . S
N1116 C1108 1.356 . S
N1116 H1122 0.984 . S
N1116 H1123 0.984 . S
N1117 C1110 1.356 . S
N1117 H1120 0.984 . S
N1117 H1121 0.985 . S
H1118 N1113 0.984 . S
H1119 N1113 0.985 . S
H1120 N1117 0.984 . S
H1121 N1117 0.985 . S
H1122 N1116 0.984 . S
H1123 N1116 0.984 . S
H1124 N1112 0.984 . S
H1125 N1112 0.985 . S
C1126 C1127 1.363 1_565 S
C1126 C1132 1.379 1_655 S
C1126 N1134 1.356 . S
C1127 C1126 1.363 1_545 S
C1127 C1133 1.363 . S
C1128 C1129 1.363 1_545 S
C1128 C1133 1.379 1_455 S
C1128 N1135 1.356 . S
C1129 C1128 1.363 1_565 S
C1129 C1132 1.363 . S
N1130 C1132 1.356 . S
N1130 H1142 0.984 . S
N1130 H1143 0.985 . S
N1131 C1133 1.356 . S
N1131 H1136 0.984 . S
N1131 H1137 0.985 . S
C1132 C1126 1.379 1_455 S
C1132 C1129 1.363 . S
C1132 N1130 1.356 . S
C1133 C1127 1.363 . S
C1133 C1128 1.379 1_655 S
C1133 N1131 1.356 . S
N1134 C1126 1.356 . S
N1134 H1140 0.984 . S
N1134 H1141 0.984 . S
N1135 C1128 1.356 . S
N1135 H1138 0.984 . S
N1135 H1139 0.985 . S
H1136 N1131 0.984 . S
H1137 N1131 0.985 . S
H1138 N1135 0.984 . S
H1139 N1135 0.985 . S
H1140 N1134 0.984 . S
H1141 N1134 0.984 . S
H1142 N1130 0.984 . S
H1143 N1130 0.985 . S
C1144 C1145 1.363 . S
C1144 C1150 1.379 . S
C1144 N1152 1.356 . S
C1145 C1144 1.363 . S
C1145 C1151 1.363 . S
C1146 C1147 1.363 . S
C1146 C1151 1.379 . S
C1146 N1153 1.356 . S
C1147 C1146 1.363 . S
C1147 C1150 1.363 . S
N1148 C1150 1.356 . S
N1148 H1160 0.984 . S
N1148 H1161 0.985 . S
N1149 C1151 1.356 . S
N1149 H1154 0.984 . S
N1149 H1155 0.985 . S
C1150 C1144 1.379 . S
C1150 C1147 1.363 . S
C1150 N1148 1.356 . S
C1151 C1145 1.363 . S
C1151 C1146 1.379 . S
C1151 N1149 1.356 . S
N1152 C1144 1.356 . S
N1152 H1158 0.984 . S
N1152 H1159 0.984 . S
N1153 C1146 1.356 . S
N1153 H1156 0.984 . S
N1153 H1157 0.985 . S
H1154 N1149 0.984 . S
H1155 N1149 0.985 . S
H1156 N1153 0.984 . S
H1157 N1153 0.985 . S
H1158 N1152 0.984 . S
H1159 N1152 0.984 . S
H1160 N1148 0.984 . S
H1161 N1148 0.985 . S
C1162 C1163 1.363 . S
C1162 C1168 1.379 . S
C1162 N1170 1.356 . S
C1163 C1162 1.363 . S
C1163 C1169 1.363 . S
C1164 C1165 1.363 . S
C1164 C1169 1.379 . S
C1164 N1171 1.356 . S
C1165 C1164 1.363 . S
C1165 C1168 1.363 . S
N1166 C1168 1.356 . S
N1166 H1178 0.984 . S
N1166 H1179 0.985 . S
N1167 C1169 1.356 . S
N1167 H1172 0.984 . S
N1167 H1173 0.985 . S
C1168 C1162 1.379 . S
C1168 C1165 1.363 . S
C1168 N1166 1.356 . S
C1169 C1163 1.363 . S
C1169 C1164 1.379 . S
C1169 N1167 1.356 . S
N1170 C1162 1.356 . S
N1170 H1176 0.984 . S
N1170 H1177 0.984 . S
N1171 C1164 1.356 . S
N1171 H1174 0.984 . S
N1171 H1175 0.985 . S
H1172 N1167 0.984 . S
H1173 N1167 0.985 . S
H1174 N1171 0.984 . S
H1175 N1171 0.985 . S
H1176 N1170 0.984 . S
H1177 N1170 0.984 . S
H1178 N1166 0.984 . S
H1179 N1166 0.985 . S
C1180 C1181 1.363 . S
C1180 C1186 1.379 . S
C1180 N1188 1.356 . S
C1181 C1180 1.363 . S
C1181 C1187 1.363 . S
C1182 C1183 1.363 . S
C1182 C1187 1.379 . S
C1182 N1189 1.356 . S
C1183 C1182 1.363 . S
C1183 C1186 1.363 . S
N1184 C1186 1.356 . S
N1184 H1196 0.984 . S
N1184 H1197 0.985 . S
N1185 C1187 1.356 . S
N1185 H1190 0.984 . S
N1185 H1191 0.985 . S
C1186 C1180 1.379 . S
C1186 C1183 1.363 . S
C1186 N1184 1.356 . S
C1187 C1181 1.363 . S
C1187 C1182 1.379 . S
C1187 N1185 1.356 . S
N1188 C1180 1.356 . S
N1188 H1194 0.984 . S
N1188 H1195 0.984 . S
N1189 C1182 1.356 . S
N1189 H1192 0.984 . S
N1189 H1193 0.985 . S
H1190 N1185 0.984 . S
H1191 N1185 0.985 . S
H1192 N1189 0.984 . S
H1193 N1189 0.985 . S
H1194 N1188 0.984 . S
H1195 N1188 0.984 . S
H1196 N1184 0.984 . S
H1197 N1184 0.985 . S
C1198 C1199 1.363 . S
C1198 C1204 1.379 . S
C1198 N1206 1.356 . S
C1199 C1198 1.363 . S
C1199 C1205 1.363 . S
C1200 C1201 1.363 . S
C1200 C1205 1.379 . S
C1200 N1207 1.356 . S
C1201 C1200 1.363 . S
C1201 C1204 1.363 . S
N1202 C1204 1.356 . S
N1202 H1214 0.984 . S
N1202 H1215 0.985 . S
N1203 C1205 1.356 . S
N1203 H1208 0.984 . S
N1203 H1209 0.985 . S
C1204 C1198 1.379 . S
C1204 C1201 1.363 . S
C1204 N1202 1.356 . S
C1205 C1199 1.363 . S
C1205 C1200 1.379 . S
C1205 N1203 1.356 . S
N1206 C1198 1.356 . S
N1206 H1212 0.984 . S
N1206 H1213 0.984 . S
N1207 C1200 1.356 . S
N1207 H1210 0.984 . S
N1207 H1211 0.985 . S
H1208 N1203 0.984 . S
H1209 N1203 0.985 . S
H1210 N1207 0.984 . S
H1211 N1207 0.985 . S
H1212 N1206 0.984 . S
H1213 N1206 0.984 . S
H1214 N1202 0.984 . S
H1215 N1202 0.985 . S
C1216 C1217 1.363 . S
C1216 C1222 1.379 . S
C1216 N1224 1.356 . S
C1217 C1216 1.363 . S
C1217 C1223 1.363 . S
C1218 C1219 1.363 . S
C1218 C1223 1.379 . S
C1218 N1225 1.356 . S
C1219 C1218 1.363 . S
C1219 C1222 1.363 . S
N1220 C1222 1.356 . S
N1220 H1232 0.984 . S
N1220 H1233 0.985 . S
N1221 C1223 1.356 . S
N1221 H1226 0.984 . S
N1221 H1227 0.985 . S
C1222 C1216 1.379 . S
C1222 C1219 1.363 . S
C1222 N1220 1.356 . S
C1223 C1217 1.363 . S
C1223 C1218 1.379 . S
C1223 N1221 1.356 . S
N1224 C1216 1.356 . S
N1224 H1230 0.984 . S
N1224 H1231 0.984 . S
N1225 C1218 1.356 . S
N1225 H1228 0.984 . S
N1225 H1229 0.985 . S
H1226 N1221 0.984 . S
H1227 N1221 0.985 . S
H1228 N1225 0.984 . S
H1229 N1225 0.985 . S
H1230 N1224 0.984 . S
H1231 N1224 0.984 . S
H1232 N1220 0.984 . S
H1233 N1220 0.985 . S
C1234 C1235 1.363 . S
C1234 C1240 1.379 . S
C1234 N1242 1.356 . S
C1235 C1234 1.363 . S
C1235 C1241 1.363 . S
C1236 C1237 1.363 . S
C1236 C1241 1.379 . S
C1236 N1243 1.356 . S
C1237 C1236 1.363 . S
C1237 C1240 1.363 . S
N1238 C1240 1.356 . S
N1238 H1250 0.984 . S
N1238 H1251 0.985 . S
N1239 C1241 1.356 . S
N1239 H1244 0.984 . S
N1239 H1245 0.985 . S
C1240 C1234 1.379 . S
C1240 C1237 1.363 . S
C1240 N1238 1.356 . S
C1241 C1235 1.363 . S
C1241 C1236 1.379 . S
C1241 N1239 1.356 . S
N1242 C1234 1.356 . S
N1242 H1248 0.984 . S
N1242 H1249 0.984 . S
N1243 C1236 1.356 . S
N1243 H1246 0.984 . S
N1243 H1247 0.985 . S
H1244 N1239 0.984 . S
H1245 N1239 0.985 . S
H1246 N1243 0.984 . S
H1247 N1243 0.985 . S
H1248 N1242 0.984 . S
H1249 N1242 0.984 . S
H1250 N1238 0.984 . S
H1251 N1238 0.985 . S
C1252 C1253 1.363 . S
C1252 C1258 1.379 . S
C1252 N1260 1.356 . S
C1253 C1252 1.363 . S
C1253 C1259 1.363 . S
C1254 C1255 1.363 . S
C1254 C1259 1.379 . S
C1254 N1261 1.356 . S
C1255 C1254 1.363 . S
C1255 C1258 1.363 . S
N1256 C1258 1.356 . S
N1256 H1268 0.984 . S
N1256 H1269 0.985 . S
N1257 C1259 1.356 . S
N1257 H1262 0.984 . S
N1257 H1263 0.985 . S
C1258 C1252 1.379 . S
C1258 C1255 1.363 . S
C1258 N1256 1.356 . S
C1259 C1253 1.363 . S
C1259 C1254 1.379 . S
C1259 N1257 1.356 . S
N1260 C1252 1.356 . S
N1260 H1266 0.984 . S
N1260 H1267 0.984 . S
N1261 C1254 1.356 . S
N1261 H1264 0.984 . S
N1261 H1265 0.985 . S
H1262 N1257 0.984 . S
H1263 N1257 0.985 . S
H1264 N1261 0.984 . S
H1265 N1261 0.985 . S
H1266 N1260 0.984 . S
H1267 N1260 0.984 . S
H1268 N1256 0.984 . S
H1269 N1256 0.985 . S
C1270 C1271 1.363 . S
C1270 C1276 1.379 . S
C1270 N1278 1.356 . S
C1271 C1270 1.363 . S
C1271 C1277 1.363 . S
C1272 C1273 1.363 . S
C1272 C1277 1.379 . S
C1272 N1279 1.356 . S
C1273 C1272 1.363 . S
C1273 C1276 1.363 . S
N1274 C1276 1.356 . S
N1274 H1286 0.984 . S
N1274 H1287 0.985 . S
N1275 C1277 1.356 . S
N1275 H1280 0.984 . S
N1275 H1281 0.985 . S
C1276 C1270 1.379 . S
C1276 C1273 1.363 . S
C1276 N1274 1.356 . S
C1277 C1271 1.363 . S
C1277 C1272 1.379 . S
C1277 N1275 1.356 . S
N1278 C1270 1.356 . S
N1278 H1284 0.984 . S
N1278 H1285 0.984 . S
N1279 C1272 1.356 . S
N1279 H1282 0.984 . S
N1279 H1283 0.985 . S
H1280 N1275 0.984 . S
H1281 N1275 0.985 . S
H1282 N1279 0.984 . S
H1283 N1279 0.985 . S
H1284 N1278 0.984 . S
H1285 N1278 0.984 . S
H1286 N1274 0.984 . S
H1287 N1274 0.985 . S
C1288 C1289 1.363 . S
C1288 C1294 1.379 . S
C1288 N1296 1.356 . S
C1289 C1288 1.363 . S
C1289 C1295 1.363 . S
C1290 C1291 1.363 . S
C1290 C1295 1.379 . S
C1290 N1297 1.356 . S
C1291 C1290 1.363 . S
C1291 C1294 1.363 . S
N1292 C1294 1.356 . S
N1292 H1304 0.984 . S
N1292 H1305 0.985 . S
N1293 C1295 1.356 . S
N1293 H1298 0.984 . S
N1293 H1299 0.985 . S
C1294 C1288 1.379 . S
C1294 C1291 1.363 . S
C1294 N1292 1.356 . S
C1295 C1289 1.363 . S
C1295 C1290 1.379 . S
C1295 N1293 1.356 . S
N1296 C1288 1.356 . S
N1296 H1302 0.984 . S
N1296 H1303 0.984 . S
N1297 C1290 1.356 . S
N1297 H1300 0.984 . S
N1297 H1301 0.985 . S
H1298 N1293 0.984 . S
H1299 N1293 0.985 . S
H1300 N1297 0.984 . S
H1301 N1297 0.985 . S
H1302 N1296 0.984 . S
H1303 N1296 0.984 . S
H1304 N1292 0.984 . S
H1305 N1292 0.985 . S
C1306 C1307 1.363 . S
C1306 C1312 1.379 . S
C1306 N1314 1.356 . S
C1307 C1306 1.363 . S
C1307 C1313 1.363 . S
C1308 C1309 1.363 . S
C1308 C1313 1.379 . S
C1308 N1315 1.356 . S
C1309 C1308 1.363 . S
C1309 C1312 1.363 . S
N1310 C1312 1.356 . S
N1310 H1322 0.984 . S
N1310 H1323 0.985 . S
N1311 C1313 1.356 . S
N1311 H1316 0.984 . S
N1311 H1317 0.985 . S
C1312 C1306 1.379 . S
C1312 C1309 1.363 . S
C1312 N1310 1.356 . S
C1313 C1307 1.363 . S
C1313 C1308 1.379 . S
C1313 N1311 1.356 . S
N1314 C1306 1.356 . S
N1314 H1320 0.984 . S
N1314 H1321 0.984 . S
N1315 C1308 1.356 . S
N1315 H1318 0.984 . S
N1315 H1319 0.985 . S
H1316 N1311 0.984 . S
H1317 N1311 0.985 . S
H1318 N1315 0.984 . S
H1319 N1315 0.985 . S
H1320 N1314 0.984 . S
H1321 N1314 0.984 . S
H1322 N1310 0.984 . S
H1323 N1310 0.985 . S
C1324 C1325 1.363 . S
C1324 C1330 1.379 . S
C1324 N1332 1.356 . S
C1325 C1324 1.363 . S
C1325 C1331 1.363 . S
C1326 C1327 1.363 . S
C1326 C1331 1.379 . S
C1326 N1333 1.356 . S
C1327 C1326 1.363 . S
C1327 C1330 1.363 . S
N1328 C1330 1.356 . S
N1328 H1340 0.984 . S
N1328 H1341 0.985 . S
N1329 C1331 1.356 . S
N1329 H1334 0.984 . S
N1329 H1335 0.985 . S
C1330 C1324 1.379 . S
C1330 C1327 1.363 . S
C1330 N1328 1.356 . S
C1331 C1325 1.363 . S
C1331 C1326 1.379 . S
C1331 N1329 1.356 . S
N1332 C1324 1.356 . S
N1332 H1338 0.984 . S
N1332 H1339 0.984 . S
N1333 C1326 1.356 . S
N1333 H1336 0.984 . S
N1333 H1337 0.985 . S
H1334 N1329 0.984 . S
H1335 N1329 0.985 . S
H1336 N1333 0.984 . S
H1337 N1333 0.985 . S
H1338 N1332 0.984 . S
H1339 N1332 0.984 . S
H1340 N1328 0.984 . S
H1341 N1328 0.985 . S
C1342 C1343 1.363 . S
C1342 C1348 1.379 . S
C1342 N1350 1.356 . S
C1343 C1342 1.363 . S
C1343 C1349 1.363 . S
C1344 C1345 1.363 . S
C1344 C1349 1.379 . S
C1344 N1351 1.356 . S
C1345 C1344 1.363 . S
C1345 C1348 1.363 . S
N1346 C1348 1.356 . S
N1346 H1358 0.984 . S
N1346 H1359 0.985 . S
N1347 C1349 1.356 . S
N1347 H1352 0.984 . S
N1347 H1353 0.985 . S
C1348 C1342 1.379 . S
C1348 C1345 1.363 . S
C1348 N1346 1.356 . S
C1349 C1343 1.363 . S
C1349 C1344 1.379 . S
C1349 N1347 1.356 . S
N1350 C1342 1.356 . S
N1350 H1356 0.984 . S
N1350 H1357 0.984 . S
N1351 C1344 1.356 . S
N1351 H1354 0.984 . S
N1351 H1355 0.985 . S
H1352 N1347 0.984 . S
H1353 N1347 0.985 . S
H1354 N1351 0.984 . S
H1355 N1351 0.985 . S
H1356 N1350 0.984 . S
H1357 N1350 0.984 . S
H1358 N1346 0.984 . S
H1359 N1346 0.985 . S
C1360 C1361 1.363 . S
C1360 C1366 1.379 . S
C1360 N1368 1.356 . S
C1361 C1360 1.363 . S
C1361 C1367 1.363 . S
C1362 C1363 1.363 . S
C1362 C1367 1.379 . S
C1362 N1369 1.356 . S
C1363 C1362 1.363 . S
C1363 C1366 1.363 . S
N1364 C1366 1.356 . S
N1364 H1376 0.984 . S
N1364 H1377 0.985 . S
N1365 C1367 1.356 . S
N1365 H1370 0.984 1_545 S
N1365 H1371 0.985 . S
C1366 C1360 1.379 . S
C1366 C1363 1.363 . S
C1366 N1364 1.356 . S
C1367 C1361 1.363 . S
C1367 C1362 1.379 . S
C1367 N1365 1.356 . S
N1368 C1360 1.356 . S
N1368 H1374 0.984 . S
N1368 H1375 0.984 1_545 S
N1369 C1362 1.356 . S
N1369 H1372 0.984 . S
N1369 H1373 0.985 . S
H1370 N1365 0.984 1_565 S
H1371 N1365 0.985 . S
H1372 N1369 0.984 . S
H1373 N1369 0.985 . S
H1374 N1368 0.984 . S
H1375 N1368 0.984 1_565 S
H1376 N1364 0.984 . S
H1377 N1364 0.985 . S
C1378 C1379 1.363 . S
C1378 C1384 1.379 . S
C1378 N1386 1.356 . S
C1379 C1378 1.363 . S
C1379 C1385 1.363 . S
C1380 C1381 1.363 . S
C1380 C1385 1.379 . S
C1380 N1387 1.356 . S
C1381 C1380 1.363 . S
C1381 C1384 1.363 . S
N1382 C1384 1.356 . S
N1382 H1394 0.984 . S
N1382 H1395 0.985 1_565 S
N1383 C1385 1.356 . S
N1383 H1388 0.984 . S
N1383 H1389 0.985 . S
C1384 C1378 1.379 . S
C1384 C1381 1.363 . S
C1384 N1382 1.356 . S
C1385 C1379 1.363 . S
C1385 C1380 1.379 . S
C1385 N1383 1.356 . S
N1386 C1378 1.356 . S
N1386 H1392 0.984 . S
N1386 H1393 0.984 . S
N1387 C1380 1.356 . S
N1387 H1390 0.984 1_565 S
N1387 H1391 0.985 . S
H1388 N1383 0.984 . S
H1389 N1383 0.985 . S
H1390 N1387 0.984 1_545 S
H1391 N1387 0.985 . S
H1392 N1386 0.984 . S
H1393 N1386 0.984 . S
H1394 N1382 0.984 . S
H1395 N1382 0.985 1_545 S
C1396 C1397 1.363 . S
C1396 C1402 1.379 . S
C1396 N1404 1.356 . S
C1397 C1396 1.363 . S
C1397 C1403 1.363 . S
C1398 C1399 1.363 . S
C1398 C1403 1.379 . S
C1398 N1405 1.356 . S
C1399 C1398 1.363 . S
C1399 C1402 1.363 . S
N1400 C1402 1.356 . S
N1400 H1412 0.984 . S
N1400 H1413 0.985 . S
N1401 C1403 1.356 . S
N1401 H1406 0.984 1_565 S
N1401 H1407 0.985 . S
C1402 C1396 1.379 . S
C1402 C1399 1.363 . S
C1402 N1400 1.356 . S
C1403 C1397 1.363 . S
C1403 C1398 1.379 . S
C1403 N1401 1.356 . S
N1404 C1396 1.356 . S
N1404 H1410 0.984 . S
N1404 H1411 0.984 1_565 S
N1405 C1398 1.356 . S
N1405 H1408 0.984 . S
N1405 H1409 0.985 . S
H1406 N1401 0.984 1_545 S
H1407 N1401 0.985 . S
H1408 N1405 0.984 . S
H1409 N1405 0.985 . S
H1410 N1404 0.984 . S
H1411 N1404 0.984 1_545 S
H1412 N1400 0.984 . S
H1413 N1400 0.985 . S
C1414 C1415 1.363 . S
C1414 C1420 1.379 . S
C1414 N1422 1.356 . S
C1415 C1414 1.363 . S
C1415 C1421 1.363 . S
C1416 C1417 1.363 . S
C1416 C1421 1.379 . S
C1416 N1423 1.356 . S
C1417 C1416 1.363 . S
C1417 C1420 1.363 . S
N1418 C1420 1.356 . S
N1418 H1430 0.984 . S
N1418 H1431 0.985 . S
N1419 C1421 1.356 . S
N1419 H1424 0.984 1_545 S
N1419 H1425 0.985 . S
C1420 C1414 1.379 . S
C1420 C1417 1.363 . S
C1420 N1418 1.356 . S
C1421 C1415 1.363 . S
C1421 C1416 1.379 . S
C1421 N1419 1.356 . S
N1422 C1414 1.356 . S
N1422 H1428 0.984 . S
N1422 H1429 0.984 1_545 S
N1423 C1416 1.356 . S
N1423 H1426 0.984 . S
N1423 H1427 0.985 . S
H1424 N1419 0.984 1_565 S
H1425 N1419 0.985 . S
H1426 N1423 0.984 . S
H1427 N1423 0.985 . S
H1428 N1422 0.984 . S
H1429 N1422 0.984 1_565 S
H1430 N1418 0.984 . S
H1431 N1418 0.985 . S
C1432 C1433 1.363 . S
C1432 C1438 1.379 . S
C1432 N1440 1.356 . S
C1433 C1432 1.363 . S
C1433 C1439 1.363 . S
C1434 C1435 1.363 . S
C1434 C1439 1.379 . S
C1434 N1441 1.356 . S
C1435 C1434 1.363 . S
C1435 C1438 1.363 . S
N1436 C1438 1.356 . S
N1436 H1448 0.984 . S
N1436 H1449 0.985 1_565 S
N1437 C1439 1.356 . S
N1437 H1442 0.984 . S
N1437 H1443 0.985 . S
C1438 C1432 1.379 . S
C1438 C1435 1.363 . S
C1438 N1436 1.356 . S
C1439 C1433 1.363 . S
C1439 C1434 1.379 . S
C1439 N1437 1.356 . S
N1440 C1432 1.356 . S
N1440 H1446 0.984 . S
N1440 H1447 0.984 . S
N1441 C1434 1.356 . S
N1441 H1444 0.984 1_565 S
N1441 H1445 0.985 . S
H1442 N1437 0.984 . S
H1443 N1437 0.985 . S
H1444 N1441 0.984 1_545 S
H1445 N1441 0.985 . S
H1446 N1440 0.984 . S
H1447 N1440 0.984 . S
H1448 N1436 0.984 . S
H1449 N1436 0.985 1_545 S
C1450 C1451 1.363 . S
C1450 C1456 1.379 . S
C1450 N1458 1.356 . S
C1451 C1450 1.363 . S
C1451 C1457 1.363 . S
C1452 C1453 1.363 . S
C1452 C1457 1.379 . S
C1452 N1459 1.356 . S
C1453 C1452 1.363 . S
C1453 C1456 1.363 . S
N1454 C1456 1.356 . S
N1454 H1466 0.984 . S
N1454 H1467 0.985 1_545 S
N1455 C1457 1.356 . S
N1455 H1460 0.984 . S
N1455 H1461 0.985 . S
C1456 C1450 1.379 . S
C1456 C1453 1.363 . S
C1456 N1454 1.356 . S
C1457 C1451 1.363 . S
C1457 C1452 1.379 . S
C1457 N1455 1.356 . S
N1458 C1450 1.356 . S
N1458 H1464 0.984 . S
N1458 H1465 0.984 . S
N1459 C1452 1.356 . S
N1459 H1462 0.984 1_545 S
N1459 H1463 0.985 . S
H1460 N1455 0.984 . S
H1461 N1455 0.985 . S
H1462 N1459 0.984 1_565 S
H1463 N1459 0.985 . S
H1464 N1458 0.984 . S
H1465 N1458 0.984 . S
H1466 N1454 0.984 . S
H1467 N1454 0.985 1_565 S
C1468 C1469 1.363 . S
C1468 C1474 1.379 . S
C1468 N1476 1.356 . S
C1469 C1468 1.363 . S
C1469 C1475 1.363 . S
C1470 C1471 1.363 . S
C1470 C1475 1.379 . S
C1470 N1477 1.356 . S
C1471 C1470 1.363 . S
C1471 C1474 1.363 . S
N1472 C1474 1.356 . S
N1472 H1484 0.984 . S
N1472 H1485 0.985 . S
N1473 C1475 1.356 . S
N1473 H1478 0.984 1_545 S
N1473 H1479 0.985 . S
C1474 C1468 1.379 . S
C1474 C1471 1.363 . S
C1474 N1472 1.356 . S
C1475 C1469 1.363 . S
C1475 C1470 1.379 . S
C1475 N1473 1.356 . S
N1476 C1468 1.356 . S
N1476 H1482 0.984 . S
N1476 H1483 0.984 1_545 S
N1477 C1470 1.356 . S
N1477 H1480 0.984 . S
N1477 H1481 0.985 . S
H1478 N1473 0.984 1_565 S
H1479 N1473 0.985 . S
H1480 N1477 0.984 . S
H1481 N1477 0.985 . S
H1482 N1476 0.984 . S
H1483 N1476 0.984 1_565 S
H1484 N1472 0.984 . S
H1485 N1472 0.985 . S
C1486 C1487 1.363 . S
C1486 C1492 1.379 . S
C1486 N1494 1.356 . S
C1487 C1486 1.363 . S
C1487 C1493 1.363 . S
C1488 C1489 1.363 . S
C1488 C1493 1.379 . S
C1488 N1495 1.356 . S
C1489 C1488 1.363 . S
C1489 C1492 1.363 . S
N1490 C1492 1.356 . S
N1490 H1502 0.984 . S
N1490 H1503 0.985 1_565 S
N1491 C1493 1.356 . S
N1491 H1496 0.984 . S
N1491 H1497 0.985 . S
C1492 C1486 1.379 . S
C1492 C1489 1.363 . S
C1492 N1490 1.356 . S
C1493 C1487 1.363 . S
C1493 C1488 1.379 . S
C1493 N1491 1.356 . S
N1494 C1486 1.356 . S
N1494 H1500 0.984 . S
N1494 H1501 0.984 . S
N1495 C1488 1.356 . S
N1495 H1498 0.984 1_565 S
N1495 H1499 0.985 . S
H1496 N1491 0.984 . S
H1497 N1491 0.985 . S
H1498 N1495 0.984 1_545 S
H1499 N1495 0.985 . S
H1500 N1494 0.984 . S
H1501 N1494 0.984 . S
H1502 N1490 0.984 . S
H1503 N1490 0.985 1_545 S
C641 C20 1.618 . S
C643 C380 1.618 . S
C659 C60 1.618 . S
C661 C340 1.618 . S
C677 C460 1.618 . S
C679 C100 1.618 . S
C695 C140 1.618 . S
C697 C420 1.618 . S
C713 C551 1.618 . S
C715 C191 1.618 . S
C731 C511 1.618 . S
C733 C231 1.618 . S
C749 C631 1.618 . S
C751 C271 1.618 . S
C767 C311 1.618 . S
C769 C591 1.618 . S
C785 C82 1.769 . S
C787 C2 1.769 . S
C803 C122 1.769 . S
C805 C42 1.769 . S
C821 C263 1.769 . S
C823 C183 1.769 . S
C839 C223 1.769 . S
C841 C303 1.769 . S
C857 C402 1.769 . S
C859 C322 1.769 . S
C875 C442 1.769 . S
C877 C362 1.769 . S
C893 C503 1.769 . S
C895 C583 1.769 . S
C911 C543 1.769 . S
C913 C623 1.769 . S
C929 C202 1.554 . S
C931 C23 1.554 . S
C947 C162 1.554 . S
C949 C63 1.554 . S
C965 C103 1.554 . S
C967 C282 1.554 . S
C983 C242 1.554 . S
C985 C143 1.554 . S
C1001 C343 1.554 . S
C1003 C522 1.554 . S
C1019 C482 1.554 . S
C1021 C383 1.554 . S
C1037 C423 1.554 . S
C1039 C602 1.554 . S
C1055 C562 1.554 . S
C1057 C463 1.554 . S
C1073 C71 1.573 . S
C1075 C31 1.573 . S
C1091 C151 1.573 . S
C1093 C111 1.573 . S
C1109 C220 1.573 . S
C1111 C180 1.573 . S
C1127 C260 1.573 . S
C1129 C300 1.573 . S
C1145 C391 1.573 . S
C1147 C351 1.573 . S
C1163 C471 1.573 . S
C1165 C431 1.573 . S
C1181 C500 1.573 . S
C1183 C540 1.573 . S
C1199 C580 1.573 . S
C1201 C620 1.573 . S
C1217 C25 1.385 . S
C1219 C4 1.385 . S
C1235 C65 1.385 . S
C1237 C44 1.385 . S
C1253 C105 1.385 . S
C1255 C84 1.385 . S
C1271 C124 1.385 . S
C1273 C145 1.385 . S
C1289 C164 1.385 . S
C1291 C185 1.385 . S
C1307 C225 1.385 . S
C1309 C204 1.385 . S
C1325 C244 1.385 . S
C1327 C265 1.385 . S
C1343 C284 1.385 . S
C1345 C305 1.385 . S
C1361 C324 1.385 1_545 S
C1363 C345 1.385 . S
C1379 C385 1.385 . S
C1381 C364 1.385 1_565 S
C1397 C404 1.385 1_565 S
C1399 C425 1.385 . S
C1415 C444 1.385 1_545 S
C1417 C465 1.385 . S
C1433 C484 1.385 . S
C1435 C505 1.385 1_565 S
C1451 C524 1.385 . S
C1453 C545 1.385 1_545 S
C1469 C585 1.385 1_545 S
C1471 C564 1.385 . S
C1487 C604 1.385 . S
C1489 C625 1.385 1_565 S
