# Generated by pormake.
# Topology osc, (6)-cn, num edge types: 1
# Building blocks:
#     Node 0, Type 0, BuildingBlock: IZENUY_clean_sbu_0, # of connection points: 6
#     Node 1, Type 0, BuildingBlock: IZENUY_clean_sbu_0, # of connection points: 6
#     Node 2, Type 0, BuildingBlock: IZENUY_clean_sbu_0, # of connection points: 6
#     Node 3, Type 0, BuildingBlock: IZENUY_clean_sbu_0, # of connection points: 6
#     Node 4, Type 0, BuildingBlock: IZENUY_clean_sbu_0, # of connection points: 6
#     Node 5, Type 0, BuildingBlock: IZENUY_clean_sbu_0, # of connection points: 6
#     Node 6, Type 0, BuildingBlock: IZENUY_clean_sbu_0, # of connection points: 6
#     Node 7, Type 0, BuildingBlock: IZENUY_clean_sbu_0, # of connection points: 6
#     Edge 8, Type (0, 0), BuildingBlock: TEMPAE_clean_linker_10, # of connection points: 2
#     Edge 9, Type (0, 0), BuildingBlock: TEMPAE_clean_linker_10, # of connection points: 2
#     Edge 10, Type (0, 0), BuildingBlock: TEMPAE_clean_linker_10, # of connection points: 2
#     Edge 11, Type (0, 0), BuildingBlock: TEMPAE_clean_linker_10, # of connection points: 2
#     Edge 12, Type (0, 0), BuildingBlock: TEMPAE_clean_linker_10, # of connection points: 2
#     Edge 13, Type (0, 0), BuildingBlock: TEMPAE_clean_linker_10, # of connection points: 2
#     Edge 14, Type (0, 0), BuildingBlock: TEMPAE_clean_linker_10, # of connection points: 2
#     Edge 15, Type (0, 0), BuildingBlock: TEMPAE_clean_linker_10, # of connection points: 2
#     Edge 16, Type (0, 0), BuildingBlock: TEMPAE_clean_linker_10, # of connection points: 2
#     Edge 17, Type (0, 0), BuildingBlock: TEMPAE_clean_linker_10, # of connection points: 2
#     Edge 18, Type (0, 0), BuildingBlock: TEMPAE_clean_linker_10, # of connection points: 2
#     Edge 19, Type (0, 0), BuildingBlock: TEMPAE_clean_linker_10, # of connection points: 2
#     Edge 20, Type (0, 0), BuildingBlock: TEMPAE_clean_linker_10, # of connection points: 2
#     Edge 21, Type (0, 0), BuildingBlock: TEMPAE_clean_linker_10, # of connection points: 2
#     Edge 22, Type (0, 0), BuildingBlock: TEMPAE_clean_linker_10, # of connection points: 2
#     Edge 23, Type (0, 0), BuildingBlock: TEMPAE_clean_linker_10, # of connection points: 2
#     Edge 24, Type (0, 0), BuildingBlock: TEMPAE_clean_linker_10, # of connection points: 2
#     Edge 25, Type (0, 0), BuildingBlock: TEMPAE_clean_linker_10, # of connection points: 2
#     Edge 26, Type (0, 0), BuildingBlock: TEMPAE_clean_linker_10, # of connection points: 2
#     Edge 27, Type (0, 0), BuildingBlock: TEMPAE_clean_linker_10, # of connection points: 2
#     Edge 28, Type (0, 0), BuildingBlock: TEMPAE_clean_linker_10, # of connection points: 2
#     Edge 29, Type (0, 0), BuildingBlock: TEMPAE_clean_linker_10, # of connection points: 2
#     Edge 30, Type (0, 0), BuildingBlock: TEMPAE_clean_linker_10, # of connection points: 2
#     Edge 31, Type (0, 0), BuildingBlock: TEMPAE_clean_linker_10, # of connection points: 2
# Relax obj value: 0.251
# Max RMSD: 0.250
# Mean RMSD: 0.249
data_MOF--net-osc--node1-IZENUY_clean_sbu_0--edge1-TEMPAE_clean_linker_10
_symmetry_space_group_name_H-M    P1
_symmetry_Int_Tables_number       1
_symmetry_cell_setting            triclinic
loop_
_symmetry_equiv_pos_as_xyz
'x, y, z'
_cell_length_a     28.803975
_cell_length_b     47.639422
_cell_length_c     26.720016
_cell_angle_alpha  90.076689
_cell_angle_beta   89.977868
_cell_angle_gamma 89.962989
loop_
_atom_site_label
_atom_site_type_symbol
_atom_site_fract_x
_atom_site_fract_y
_atom_site_fract_z
_atom_type_partial_charge
Fe0 Fe 0.27091 0.05944 0.3856 0.0
Fe1 Fe 0.28101 0.1093 0.31423 0.0
O2 O 0.29668 0.09198 0.37013 0.0
Fe3 Fe 0.33868 0.10725 0.41 0.0
O4 O 0.37629 0.0775 0.40272 0.0
O5 O 0.32359 0.04516 0.41705 0.0
O6 O 0.2913 0.04307 0.32816 0.0
C7 C 0.28077 0.05179 0.28508 0.0
C8 C 0.27387 0.08271 0.47839 0.0
O9 O 0.26794 0.07701 0.27888 0.0
C10 C 0.29083 0.15402 0.38371 0.0
O11 O 0.21393 0.06838 0.35729 0.0
O12 O 0.22182 0.11265 0.33506 0.0
O13 O 0.31351 0.09298 0.46851 0.0
O14 O 0.24853 0.0734 0.44375 0.0
C15 C 0.37513 0.11506 0.31364 0.0
O16 O 0.29067 0.14493 0.33906 0.0
O17 O 0.30381 0.13849 0.41923 0.0
C18 C 0.19631 0.09208 0.34608 0.0
O19 O 0.33967 0.10641 0.29074 0.0
O20 O 0.37202 0.12335 0.35867 0.0
C21 C 0.36586 0.05282 0.41453 0.0
Fe22 Fe 0.22738 0.95959 0.88563 0.0
Fe23 Fe 0.21474 0.91067 0.81255 0.0
O24 O 0.20104 0.92724 0.86986 0.0
Fe25 Fe 0.161 0.91102 0.91064 0.0
O26 O 0.12299 0.94078 0.9081 0.0
O27 O 0.17569 0.97362 0.91949 0.0
O28 O 0.20565 0.97661 0.82929 0.0
C29 C 0.21582 0.9683 0.78579 0.0
C30 C 0.22739 0.93531 0.97782 0.0
O31 O 0.22851 0.94317 0.77874 0.0
C32 C 0.20609 0.86456 0.87827 0.0
O33 O 0.2835 0.95042 0.85541 0.0
O34 O 0.27416 0.90633 0.83189 0.0
O35 O 0.18833 0.92406 0.96885 0.0
O36 O 0.25138 0.94528 0.9427 0.0
C37 C 0.12104 0.90543 0.81478 0.0
O38 O 0.20369 0.87475 0.83465 0.0
O39 O 0.19677 0.87963 0.91573 0.0
C40 C 0.30033 0.92654 0.84355 0.0
O41 O 0.15577 0.91468 0.79131 0.0
O42 O 0.12527 0.89638 0.85935 0.0
C43 C 0.13376 0.96521 0.92135 0.0
Fe44 Fe 0.77274 0.45899 0.13506 0.0
Fe45 Fe 0.78471 0.41009 0.20811 0.0
O46 O 0.79894 0.42667 0.15107 0.0
Fe47 Fe 0.83963 0.41058 0.11074 0.0
O48 O 0.87768 0.44025 0.11491 0.0
O49 O 0.82496 0.47301 0.10251 0.0
O50 O 0.7937 0.47603 0.19177 0.0
C51 C 0.78346 0.46774 0.23521 0.0
C52 C 0.77414 0.43483 0.04273 0.0
O53 O 0.77079 0.4426 0.24214 0.0
C54 C 0.79388 0.36415 0.14166 0.0
O55 O 0.71634 0.4499 0.16441 0.0
O56 O 0.72544 0.40588 0.18827 0.0
O57 O 0.8134 0.42396 0.05223 0.0
O58 O 0.74955 0.44466 0.07755 0.0
C59 C 0.87842 0.40477 0.20671 0.0
O60 O 0.79577 0.37421 0.1855 0.0
O61 O 0.80378 0.37929 0.1045 0.0
C62 C 0.69941 0.42613 0.1765 0.0
O63 O 0.84353 0.414 0.22998 0.0
O64 O 0.87438 0.39555 0.16225 0.0
C65 C 0.86714 0.46501 0.10361 0.0
Fe66 Fe 0.71705 0.6074 0.70856 0.0
Fe67 Fe 0.66325 0.60713 0.6105 0.0
O68 O 0.70338 0.59089 0.65119 0.0
Fe69 Fe 0.72984 0.55856 0.63531 0.0
O70 O 0.70816 0.54148 0.69165 0.0
O71 O 0.73095 0.57487 0.74228 0.0
O72 O 0.65812 0.60334 0.72987 0.0
C73 C 0.62332 0.61255 0.70646 0.0
C74 C 0.80268 0.59161 0.67733 0.0
O75 O 0.62745 0.62163 0.6619 0.0
C76 C 0.72983 0.58308 0.54318 0.0
O77 O 0.70584 0.64336 0.68662 0.0
O78 O 0.69885 0.63856 0.60556 0.0
O79 O 0.78592 0.56773 0.66547 0.0
O80 O 0.77646 0.6118 0.68914 0.0
C81 C 0.63626 0.55287 0.59978 0.0
O82 O 0.69071 0.59426 0.55223 0.0
O83 O 0.75377 0.5729 0.57818 0.0
C84 C 0.70805 0.65362 0.64304 0.0
O85 O 0.62535 0.57733 0.61279 0.0
O86 O 0.67822 0.54453 0.60152 0.0
C87 C 0.71823 0.54976 0.7352 0.0
Fe88 Fe 0.72521 0.95914 0.63496 0.0
Fe89 Fe 0.65926 0.91053 0.60897 0.0
O90 O 0.7 0.9263 0.64973 0.0
Fe91 Fe 0.71525 0.9091 0.70588 0.0
O92 O 0.72739 0.94145 0.74129 0.0
O93 O 0.70343 0.97525 0.69208 0.0
O94 O 0.67297 0.973 0.60205 0.0
C95 C 0.63108 0.96454 0.60127 0.0
C96 C 0.79983 0.92691 0.67517 0.0
O97 O 0.62095 0.94005 0.61452 0.0
C98 C 0.70722 0.86408 0.63697 0.0
O99 O 0.74905 0.94551 0.57726 0.0
O100 O 0.68558 0.9247 0.55098 0.0
O101 O 0.77463 0.90614 0.68571 0.0
O102 O 0.78187 0.95059 0.66438 0.0
C103 C 0.62142 0.90256 0.70505 0.0
O104 O 0.69481 0.87943 0.601 0.0
O105 O 0.70647 0.87337 0.68141 0.0
C106 C 0.72481 0.9358 0.54205 0.0
O107 O 0.62502 0.89454 0.65985 0.0
O108 O 0.65636 0.91156 0.72843 0.0
C109 C 0.71409 0.96657 0.73518 0.0
Fe110 Fe 0.78099 0.10926 0.20606 0.0
Fe111 Fe 0.77157 0.05912 0.13501 0.0
O112 O 0.79691 0.09182 0.15027 0.0
Fe113 Fe 0.83872 0.10717 0.11031 0.0
O114 O 0.87181 0.12357 0.1616 0.0
O115 O 0.83964 0.10661 0.22959 0.0
O116 O 0.76807 0.07705 0.24153 0.0
C117 C 0.78111 0.05185 0.23553 0.0
C118 C 0.79045 0.15382 0.13646 0.0
O119 O 0.79201 0.04304 0.19257 0.0
C120 C 0.77436 0.08199 0.04207 0.0
O121 O 0.72183 0.11234 0.1851 0.0
O122 O 0.71441 0.06796 0.16315 0.0
O123 O 0.80342 0.13822 0.10093 0.0
O124 O 0.79042 0.14482 0.18111 0.0
C125 C 0.8667 0.05285 0.1063 0.0
O126 O 0.74911 0.07276 0.07679 0.0
O127 O 0.81384 0.09254 0.05184 0.0
C128 C 0.69653 0.09165 0.17415 0.0
O129 O 0.82454 0.04494 0.10377 0.0
O130 O 0.87672 0.07765 0.11778 0.0
C131 C 0.87501 0.11536 0.20664 0.0
Fe132 Fe 0.21767 0.60899 0.81455 0.0
Fe133 Fe 0.22721 0.559 0.88569 0.0
O134 O 0.20216 0.59188 0.87071 0.0
Fe135 Fe 0.16131 0.60776 0.91123 0.0
O136 O 0.12733 0.62375 0.86016 0.0
O137 O 0.15885 0.60656 0.79177 0.0
O138 O 0.22994 0.57657 0.77931 0.0
C139 C 0.21648 0.55148 0.78542 0.0
C140 C 0.20933 0.65412 0.88326 0.0
O141 O 0.20558 0.54289 0.82851 0.0
C142 C 0.22661 0.5826 0.9785 0.0
O143 O 0.27694 0.61189 0.83498 0.0
O144 O 0.28401 0.56745 0.85649 0.0
O145 O 0.19691 0.63878 0.91922 0.0
O146 O 0.2088 0.64478 0.83885 0.0
C147 C 0.13293 0.55382 0.91894 0.0
O148 O 0.25086 0.57263 0.94349 0.0
O149 O 0.18736 0.59365 0.96938 0.0
C150 C 0.30206 0.5911 0.84575 0.0
O151 O 0.17478 0.54527 0.91841 0.0
O152 O 0.12295 0.57833 0.90562 0.0
C153 C 0.12384 0.61566 0.815 0.0
Fe154 Fe 0.2741 0.45971 0.38547 0.0
Fe155 Fe 0.3391 0.4105 0.41076 0.0
O156 O 0.29923 0.42697 0.37002 0.0
Fe157 Fe 0.28467 0.4103 0.31308 0.0
O158 O 0.27174 0.44278 0.2787 0.0
O159 O 0.29575 0.47617 0.32862 0.0
O160 O 0.32673 0.47332 0.41795 0.0
C161 C 0.36859 0.46468 0.41737 0.0
C162 C 0.19983 0.42743 0.34443 0.0
O163 O 0.37816 0.43966 0.4068 0.0
C164 C 0.29246 0.36441 0.37967 0.0
O165 O 0.2502 0.44604 0.44298 0.0
O166 O 0.31285 0.42438 0.46906 0.0
O167 O 0.22525 0.40683 0.33288 0.0
O168 O 0.21746 0.45109 0.35612 0.0
C169 C 0.37816 0.40393 0.31489 0.0
O170 O 0.3023 0.37959 0.41687 0.0
O171 O 0.29464 0.37441 0.33587 0.0
C172 C 0.274 0.43593 0.47807 0.0
O173 O 0.37375 0.39499 0.35948 0.0
O174 O 0.34365 0.41346 0.29139 0.0
C175 C 0.28509 0.46781 0.28533 0.0
C176 C 0.57367 0.9635 0.5329 0.0
C177 C 0.59581 0.97898 0.57069 0.0
C178 C 0.53662 0.97472 0.50568 0.0
C179 C 0.52083 1.00211 0.51676 0.0
C180 C 0.5438 0.01822 0.55408 0.0
C181 C 0.58147 1.00648 0.58052 0.0
C182 C 0.5139 0.95703 0.46562 0.0
C183 C 0.52784 0.04754 0.5668 0.0
C184 C 0.44908 0.03956 0.41816 0.0
C185 C 0.40371 0.03579 0.4361 0.0
C186 C 0.48742 0.02861 0.44386 0.0
C187 C 0.4803 0.01369 0.48896 0.0
C188 C 0.43442 0.00905 0.50651 0.0
C189 C 0.39655 0.02004 0.47965 0.0
C190 C 0.5356 0.03365 0.42335 0.0
C191 C 0.42544 0.99324 0.55447 0.0
H192 H 0.58518 0.94226 0.52497 0.0
H193 H 0.59851 0.01833 0.60989 0.0
H194 H 0.47701 0.95324 0.47543 0.0
H195 H 0.51438 0.9683 0.42932 0.0
H196 H 0.5314 0.93642 0.46062 0.0
H197 H 0.54977 0.05746 0.59608 0.0
H198 H 0.52854 0.0609 0.53284 0.0
H199 H 0.4914 0.04697 0.58024 0.0
H200 H 0.45468 0.05193 0.38463 0.0
H201 H 0.36163 0.01765 0.49419 0.0
H202 H 0.55384 0.01337 0.41775 0.0
H203 H 0.55625 0.04601 0.45062 0.0
H204 H 0.53503 0.04513 0.38717 0.0
H205 H 0.44038 0.97181 0.55195 0.0
H206 H 0.3878 0.99147 0.56304 0.0
H207 H 0.44283 1.00404 0.58614 0.0
C208 C 0.95015 0.04008 0.10368 0.0
C209 C 0.905 0.03588 0.08537 0.0
C210 C 0.98894 0.02933 0.07844 0.0
C211 C 0.98253 0.01411 0.03347 0.0
C212 C 0.9369 0.00898 0.01561 0.0
C213 C 0.89855 0.01984 0.04198 0.0
C214 C 0.03683 0.03494 0.09924 0.0
C215 C 0.92866 0.9928 0.96782 0.0
C216 C 0.08407 1.00715 0.94215 0.0
C217 C 0.09899 0.97983 0.95243 0.0
C218 C 0.04622 0.0188 0.96853 0.0
C219 C 0.02356 1.00276 1.00611 0.0
C220 C 0.04003 0.97561 0.01773 0.0
C221 C 0.07733 0.96449 0.99067 0.0
C222 C 0.02965 0.04791 0.95536 0.0
C223 C 0.01761 0.95797 0.05799 0.0
H224 H 0.9552 0.05268 0.13709 0.0
H225 H 0.86381 0.0171 0.02715 0.0
H226 H 0.05567 0.01488 0.105 0.0
H227 H 0.05725 0.04747 0.07207 0.0
H228 H 0.03569 0.04649 0.13539 0.0
H229 H 0.94598 1.00358 0.93611 0.0
H230 H 0.94416 0.97154 0.97076 0.0
H231 H 0.89113 0.99062 0.95902 0.0
H232 H 0.10069 0.01888 0.91239 0.0
H233 H 0.08923 0.94338 0.99886 0.0
H234 H 0.02956 0.06142 0.98921 0.0
H235 H 0.99341 0.04692 0.94142 0.0
H236 H 0.05167 0.05792 0.92629 0.0
H237 H 0.01743 0.96952 0.09407 0.0
H238 H 0.03574 0.93762 0.06355 0.0
H239 H 0.98092 0.95366 0.04797 0.0
C240 C 0.07391 0.55499 0.98574 0.0
C241 C 0.09729 0.53937 0.94897 0.0
C242 C 0.03667 0.54366 0.01247 0.0
C243 C 0.02194 0.51601 1.00193 0.0
C244 C 0.0461 0.49978 0.96561 0.0
C245 C 0.08395 0.51164 0.93967 0.0
C246 C 0.01268 0.56149 0.05153 0.0
C247 C 0.03124 0.47019 0.95345 0.0
C248 C 0.95001 0.47881 0.10057 0.0
C249 C 0.90478 0.4821 0.08198 0.0
C250 C 0.98837 0.48984 0.07505 0.0
C251 C 0.9814 0.50426 0.0294 0.0
C252 C 0.93564 0.50833 0.01109 0.0
C253 C 0.89773 0.49732 0.03785 0.0
C254 C 0.0364 0.48547 0.09641 0.0
C255 C 0.92685 0.52353 0.96246 0.0
H256 H 0.08466 0.57641 0.99332 0.0
H257 H 0.10196 0.49967 0.9111 0.0
H258 H 0.97582 0.56472 0.04097 0.0
H259 H 0.013 0.55061 0.08821 0.0
H260 H 0.02935 0.58236 0.05612 0.0
H261 H 0.05387 0.46026 0.92477 0.0
H262 H 0.0319 0.45712 0.98778 0.0
H263 H 0.99497 0.47025 0.93947 0.0
H264 H 0.95548 0.4668 0.13453 0.0
H265 H 0.86291 0.49929 0.02282 0.0
H266 H 0.05391 0.50599 0.10178 0.0
H267 H 0.05782 0.47313 0.06977 0.0
H268 H 0.03568 0.47427 0.13286 0.0
H269 H 0.94104 0.54515 0.96452 0.0
H270 H 0.88929 0.52478 0.95324 0.0
H271 H 0.94507 0.51261 0.93144 0.0
C272 C 0.58112 0.55287 0.52935 0.0
C273 C 0.60156 0.53809 0.56901 0.0
C274 C 0.54363 0.54178 0.50261 0.0
C275 C 0.52571 0.51524 0.51609 0.0
C276 C 0.54711 0.49975 0.55522 0.0
C277 C 0.58515 0.51136 0.58124 0.0
C278 C 0.52256 0.5588 0.46069 0.0
C279 C 0.52901 0.4713 0.5704 0.0
C280 C 0.4006 0.49888 0.47967 0.0
C281 C 0.40713 0.48161 0.43782 0.0
C282 C 0.43895 0.51002 0.50562 0.0
C283 C 0.48465 0.50387 0.48891 0.0
C284 C 0.49116 0.48741 0.44537 0.0
C285 C 0.45238 0.47644 0.42052 0.0
C286 C 0.43063 0.52761 0.5518 0.0
C287 C 0.53912 0.48066 0.42579 0.0
H288 H 0.59409 0.57357 0.51983 0.0
H289 H 0.60077 0.50011 0.61219 0.0
H290 H 0.52229 0.54637 0.42554 0.0
H291 H 0.48597 0.564 0.46982 0.0
H292 H 0.54173 0.57866 0.45383 0.0
H293 H 0.55008 0.46166 0.60066 0.0
H294 H 0.49259 0.47325 0.58353 0.0
H295 H 0.52887 0.45695 0.53766 0.0
H296 H 0.36575 0.50244 0.49368 0.0
H297 H 0.4575 0.46296 0.38822 0.0
H298 H 0.44716 0.54849 0.5474 0.0
H299 H 0.44689 0.5174 0.58473 0.0
H300 H 0.39307 0.53066 0.55961 0.0
H301 H 0.55898 0.50028 0.41937 0.0
H302 H 0.53805 0.46855 0.39024 0.0
H303 H 0.55847 0.46823 0.454 0.0
C304 C 0.26228 0.04101 0.19539 0.0
C305 C 0.27701 0.03163 0.24259 0.0
C306 C 0.25586 0.02223 0.15543 0.0
C307 C 0.26448 0.99323 0.16249 0.0
C308 C 0.27993 0.98358 0.20977 0.0
C309 C 0.28603 1.00287 0.24923 0.0
C310 C 0.23941 0.03348 0.10565 0.0
C311 C 0.28954 0.95286 0.21877 0.0
C312 C 0.20459 0.94687 0.06607 0.0
C313 C 0.23948 0.94395 0.02971 0.0
C314 C 0.21294 0.96151 0.11094 0.0
C315 C 0.25736 0.97328 0.11994 0.0
C316 C 0.29362 0.96848 0.08515 0.0
C317 C 0.28422 0.95396 0.04047 0.0
C318 C 0.17321 0.96616 0.14688 0.0
C319 C 0.34156 0.98042 0.09334 0.0
H320 H 0.25519 0.06312 0.18966 0.0
H321 H 0.29737 0.99533 0.28548 0.0
H322 H 0.26492 0.0282 0.07597 0.0
H323 H 0.206 0.02348 0.09522 0.0
H324 H 0.23445 0.0566 0.1062 0.0
H325 H 0.3021 0.94875 0.25737 0.0
H326 H 0.25746 0.94048 0.21238 0.0
H327 H 0.31595 0.94515 0.19181 0.0
H328 H 0.16981 0.93942 0.05808 0.0
H329 H 0.31146 0.95171 0.01273 0.0
H330 H 0.16217 0.98847 0.14532 0.0
H331 H 0.18428 0.96176 0.18585 0.0
H332 H 0.14275 0.95279 0.13782 0.0
H333 H 0.34039 1.00358 0.08913 0.0
H334 H 0.36722 0.9719 0.06622 0.0
H335 H 0.35382 0.97587 0.13184 0.0
C336 C 0.23364 0.97912 0.69621 0.0
C337 C 0.2201 0.98867 0.74379 0.0
C338 C 0.24103 0.99783 0.65652 0.0
C339 C 0.23455 0.02699 0.66418 0.0
C340 C 0.22023 0.03685 0.71182 0.0
C341 C 0.21316 0.01758 0.75109 0.0
C342 C 0.25625 0.98634 0.60637 0.0
C343 C 0.21299 0.06776 0.72141 0.0
C344 C 0.29692 0.07098 0.56645 0.0
C345 C 0.2619 0.0746 0.53051 0.0
C346 C 0.28785 0.0571 0.61185 0.0
C347 C 0.24261 0.04677 0.62173 0.0
C348 C 0.20639 0.05236 0.58733 0.0
C349 C 0.21648 0.06612 0.54216 0.0
C350 C 0.32756 0.05156 0.64735 0.0
C351 C 0.15765 0.04188 0.59636 0.0
H352 H 0.23909 0.95688 0.68994 0.0
H353 H 0.20282 0.02523 0.78765 0.0
H354 H 0.23087 0.99236 0.57706 0.0
H355 H 0.29025 0.99549 0.5957 0.0
H356 H 0.25959 0.96311 0.60652 0.0
H357 H 0.20103 0.07205 0.7602 0.0
H358 H 0.24592 0.07927 0.7149 0.0
H359 H 0.18699 0.07629 0.69483 0.0
H360 H 0.33218 0.07726 0.55776 0.0
H361 H 0.18913 0.06897 0.51476 0.0
H362 H 0.33777 0.02913 0.6448 0.0
H363 H 0.31695 0.05571 0.68658 0.0
H364 H 0.35843 0.0646 0.63846 0.0
H365 H 0.15687 0.01871 0.59211 0.0
H366 H 0.13236 0.05112 0.56965 0.0
H367 H 0.1463 0.04683 0.63505 0.0
C368 C 0.78701 0.56496 0.48025 0.0
C369 C 0.74226 0.57499 0.49107 0.0
C370 C 0.79662 0.55096 0.43509 0.0
C371 C 0.76057 0.54667 0.39987 0.0
C372 C 0.71622 0.55857 0.40893 0.0
C373 C 0.70767 0.57271 0.45428 0.0
C374 C 0.8445 0.53888 0.42687 0.0
C375 C 0.67669 0.55446 0.37258 0.0
C376 C 0.78918 0.51682 0.27057 0.0
C377 C 0.77974 0.48814 0.27735 0.0
C378 C 0.78328 0.5362 0.31 0.0
C379 C 0.76752 0.52672 0.35729 0.0
C380 C 0.75839 0.49779 0.3644 0.0
C381 C 0.7647 0.47894 0.32457 0.0
C382 C 0.79349 0.56684 0.30098 0.0
C383 C 0.74151 0.48668 0.41415 0.0
H384 H 0.81406 0.56675 0.50829 0.0
H385 H 0.6729 0.58023 0.46224 0.0
H386 H 0.84316 0.51572 0.43103 0.0
H387 H 0.85686 0.54343 0.38841 0.0
H388 H 0.87015 0.54728 0.45407 0.0
H389 H 0.64652 0.56812 0.38155 0.0
H390 H 0.68817 0.55887 0.33375 0.0
H391 H 0.66505 0.53227 0.37383 0.0
H392 H 0.80077 0.52421 0.23432 0.0
H393 H 0.75728 0.45689 0.33044 0.0
H394 H 0.81995 0.57436 0.32801 0.0
H395 H 0.76163 0.57947 0.30725 0.0
H396 H 0.80626 0.57082 0.2624 0.0
H397 H 0.76705 0.49171 0.4439 0.0
H398 H 0.73601 0.46361 0.41357 0.0
H399 H 0.7083 0.49699 0.42448 0.0
C400 C 0.79717 0.44648 0.95466 0.0
C401 C 0.76212 0.44299 0.99063 0.0
C402 C 0.78833 0.46055 0.90938 0.0
C403 C 0.74324 0.47116 0.89958 0.0
C404 C 0.70695 0.46573 0.934 0.0
C405 C 0.71685 0.45182 0.97912 0.0
C406 C 0.82816 0.46599 0.87397 0.0
C407 C 0.65834 0.47646 0.92502 0.0
C408 C 0.73547 0.53887 0.82493 0.0
C409 C 0.72209 0.52938 0.77727 0.0
C410 C 0.74233 0.52013 0.86472 0.0
C411 C 0.73547 0.49101 0.8571 0.0
C412 C 0.7213 0.48122 0.80939 0.0
C413 C 0.71476 0.5005 0.77002 0.0
C414 C 0.75743 0.53157 0.91493 0.0
C415 C 0.71364 0.45035 0.79981 0.0
H416 H 0.83235 0.43998 0.96327 0.0
H417 H 0.68949 0.44912 1.00657 0.0
H418 H 0.81762 0.46183 0.83473 0.0
H419 H 0.83844 0.48839 0.87648 0.0
H420 H 0.85897 0.45289 0.88293 0.0
H421 H 0.63292 0.4673 0.95167 0.0
H422 H 0.65783 0.49963 0.92939 0.0
H423 H 0.64698 0.47163 0.88629 0.0
H424 H 0.7412 0.56108 0.83118 0.0
H425 H 0.70452 0.4929 0.73341 0.0
H426 H 0.79127 0.52224 0.92577 0.0
H427 H 0.73185 0.52569 0.94413 0.0
H428 H 0.76105 0.55478 0.91478 0.0
H429 H 0.74641 0.43866 0.80632 0.0
H430 H 0.70166 0.44612 0.76102 0.0
H431 H 0.68751 0.44197 0.82639 0.0
C432 C 0.7169 0.06536 0.97847 0.0
C433 C 0.76254 0.07337 0.99016 0.0
C434 C 0.7066 0.05114 0.93376 0.0
C435 C 0.74283 0.04459 0.89986 0.0
C436 C 0.78844 0.0543 0.90982 0.0
C437 C 0.79772 0.06868 0.95476 0.0
C438 C 0.65749 0.04134 0.92462 0.0
C439 C 0.82816 0.04772 0.87485 0.0
C440 C 0.73122 0.97696 0.82521 0.0
C441 C 0.71849 0.98672 0.77758 0.0
C442 C 0.73908 0.99558 0.86506 0.0
C443 C 0.73406 0.02484 0.85743 0.0
C444 C 0.72052 0.0349 0.80974 0.0
C445 C 0.71282 0.01574 0.7704 0.0
C446 C 0.75329 0.98388 0.91532 0.0
C447 C 0.71488 0.06592 0.80013 0.0
H448 H 0.68947 0.069 1.00552 0.0
H449 H 0.83315 0.07453 0.96357 0.0
H450 H 0.6465 0.04633 0.88586 0.0
H451 H 0.65577 0.0182 0.92897 0.0
H452 H 0.63245 0.05103 0.95116 0.0
H453 H 0.83688 0.02508 0.87755 0.0
H454 H 0.81822 0.05202 0.83549 0.0
H455 H 0.85977 0.06005 0.88403 0.0
H456 H 0.73565 0.95463 0.83135 0.0
H457 H 0.70316 0.02356 0.73378 0.0
H458 H 0.72811 0.99051 0.94446 0.0
H459 H 0.78774 0.99234 0.92619 0.0
H460 H 0.75528 0.96059 0.91523 0.0
H461 H 0.68924 0.07498 0.82662 0.0
H462 H 0.70327 0.07037 0.7613 0.0
H463 H 0.74836 0.07681 0.80672 0.0
C464 C 0.78191 0.95451 0.47989 0.0
C465 C 0.73709 0.9445 0.4903 0.0
C466 C 0.79163 0.96895 0.43532 0.0
C467 C 0.75565 0.97361 0.40019 0.0
C468 C 0.7112 0.9618 0.40879 0.0
C469 C 0.70248 0.94729 0.45366 0.0
C470 C 0.83957 0.98101 0.42761 0.0
C471 C 0.67183 0.96622 0.37236 0.0
C472 C 0.76132 0.04119 0.32485 0.0
C473 C 0.77685 0.03176 0.27793 0.0
C474 C 0.7543 0.02246 0.36466 0.0
C475 C 0.76311 0.99346 0.35772 0.0
C476 C 0.77933 0.98377 0.31072 0.0
C477 C 0.78603 1.00301 0.2714 0.0
C478 C 0.73706 0.03376 0.41417 0.0
C479 C 0.78915 0.95304 0.30187 0.0
H480 H 0.80896 0.95232 0.50783 0.0
H481 H 0.66767 0.93981 0.46138 0.0
H482 H 0.85229 0.97635 0.3893 0.0
H483 H 0.83816 1.00418 0.43164 0.0
H484 H 0.865 0.97267 0.4551 0.0
H485 H 0.64145 0.95271 0.38104 0.0
H486 H 0.66048 0.98848 0.37383 0.0
H487 H 0.6834 0.96184 0.33353 0.0
H488 H 0.75407 0.0633 0.33047 0.0
H489 H 0.79796 0.99544 0.23536 0.0
H490 H 0.76218 0.02858 0.44425 0.0
H491 H 0.70357 0.0237 0.42408 0.0
H492 H 0.73196 0.05687 0.41352 0.0
H493 H 0.81536 0.94543 0.32909 0.0
H494 H 0.80209 0.94887 0.2634 0.0
H495 H 0.75709 0.94061 0.30798 0.0
C496 C 0.21108 0.50258 0.74935 0.0
C497 C 0.22072 0.53127 0.74304 0.0
C498 C 0.21791 0.48328 0.71 0.0
C499 C 0.23477 0.49285 0.66322 0.0
C500 C 0.24411 0.52179 0.65653 0.0
C501 C 0.23689 0.54057 0.69631 0.0
C502 C 0.20756 0.45261 0.7186 0.0
C503 C 0.26213 0.53296 0.60731 0.0
C504 C 0.29568 0.44671 0.56705 0.0
C505 C 0.26139 0.4443 0.52998 0.0
C506 C 0.28668 0.46097 0.61222 0.0
C507 C 0.24229 0.47297 0.62063 0.0
C508 C 0.2066 0.46868 0.58502 0.0
C509 C 0.21657 0.45444 0.54021 0.0
C510 C 0.32576 0.46499 0.64914 0.0
C511 C 0.15874 0.48096 0.59244 0.0
H512 H 0.19869 0.49511 0.78524 0.0
H513 H 0.24454 0.56262 0.69083 0.0
H514 H 0.18152 0.44516 0.69105 0.0
H515 H 0.23951 0.44 0.71279 0.0
H516 H 0.19418 0.44853 0.7569 0.0
H517 H 0.26762 0.55604 0.60815 0.0
H518 H 0.29556 0.52267 0.59779 0.0
H519 H 0.23727 0.52798 0.57686 0.0
H520 H 0.33048 0.43914 0.55949 0.0
H521 H 0.18975 0.45256 0.51194 0.0
H522 H 0.3136 0.46106 0.6879 0.0
H523 H 0.33808 0.48704 0.64742 0.0
H524 H 0.35563 0.45093 0.64107 0.0
H525 H 0.14567 0.4763 0.63057 0.0
H526 H 0.13344 0.47281 0.56462 0.0
H527 H 0.16047 0.50413 0.58867 0.0
C528 C 0.28445 0.56564 0.04144 0.0
C529 C 0.23908 0.57448 0.03047 0.0
C530 C 0.29479 0.55176 0.08644 0.0
C531 C 0.25884 0.54637 0.12129 0.0
C532 C 0.21369 0.55705 0.11207 0.0
C533 C 0.2044 0.57111 0.06688 0.0
C534 C 0.34347 0.54098 0.09484 0.0
C535 C 0.17428 0.55174 0.14807 0.0
C536 C 0.26727 0.47863 0.19573 0.0
C537 C 0.2811 0.48812 0.24322 0.0
C538 C 0.26007 0.49738 0.15603 0.0
C539 C 0.26701 0.52651 0.16362 0.0
C540 C 0.28172 0.53628 0.21114 0.0
C541 C 0.28861 0.51699 0.25039 0.0
C542 C 0.2445 0.48597 0.10598 0.0
C543 C 0.28959 0.56714 0.22064 0.0
H544 H 0.31154 0.5683 0.01365 0.0
H545 H 0.16917 0.57768 0.0587 0.0
H546 H 0.35522 0.54576 0.13345 0.0
H547 H 0.34392 0.51782 0.09035 0.0
H548 H 0.36865 0.55017 0.06795 0.0
H549 H 0.14315 0.56456 0.13905 0.0
H550 H 0.16437 0.52925 0.14645 0.0
H551 H 0.18514 0.55636 0.18704 0.0
H552 H 0.26142 0.45642 0.18956 0.0
H553 H 0.29921 0.52459 0.28688 0.0
H554 H 0.26984 0.49184 0.07652 0.0
H555 H 0.21059 0.49533 0.09552 0.0
H556 H 0.24085 0.46276 0.10616 0.0
H557 H 0.31541 0.57551 0.19369 0.0
H558 H 0.30208 0.57134 0.25926 0.0
H559 H 0.25678 0.57888 0.21464 0.0
C560 C 0.46181 0.11523 0.31709 0.0
C561 C 0.42097 0.11397 0.28861 0.0
C562 C 0.5054 0.11106 0.29486 0.0
C563 C 0.50831 0.10583 0.24275 0.0
C564 C 0.46733 0.10507 0.2136 0.0
C565 C 0.42412 0.10901 0.23692 0.0
C566 C 0.54831 0.11175 0.32733 0.0
C567 C 0.4691 0.09972 0.15792 0.0
C568 C 0.62573 0.12106 0.18495 0.0
C569 C 0.64619 0.09432 0.1841 0.0
C570 C 0.58015 0.12492 0.20198 0.0
C571 C 0.55445 0.1015 0.21892 0.0
C572 C 0.57409 0.07425 0.21599 0.0
C573 C 0.61975 0.07095 0.19829 0.0
C574 C 0.56033 0.15426 0.20402 0.0
C575 C 0.54778 0.04878 0.23395 0.0
H576 H 0.45967 0.11862 0.35716 0.0
H577 H 0.3927 0.10786 0.21469 0.0
H578 H 0.56684 0.09137 0.32483 0.0
H579 H 0.57246 0.12821 0.31381 0.0
H580 H 0.54006 0.11597 0.36726 0.0
H581 H 0.43413 0.1003 0.14044 0.0
H582 H 0.49136 0.11565 0.13949 0.0
H583 H 0.48492 0.07889 0.1505 0.0
H584 H 0.64593 0.13918 0.17366 0.0
H585 H 0.63548 0.05028 0.19803 0.0
H586 H 0.55527 0.16062 0.24362 0.0
H587 H 0.52583 0.15489 0.18562 0.0
H588 H 0.58335 0.16988 0.18567 0.0
H589 H 0.54257 0.05019 0.27504 0.0
H590 H 0.56639 0.02891 0.22545 0.0
H591 H 0.51289 0.04799 0.21644 0.0
C592 C 0.87597 0.94766 0.70095 0.0
C593 C 0.85 0.92434 0.68556 0.0
C594 C 0.92143 0.94435 0.71904 0.0
C595 C 0.94134 0.91716 0.72108 0.0
C596 C 0.91613 0.89381 0.70294 0.0
C597 C 0.87071 0.89767 0.6856 0.0
C598 C 0.94728 0.96973 0.73824 0.0
C599 C 0.93637 0.86455 0.70384 0.0
C600 C 0.07167 0.9111 0.73857 0.0
C601 C 0.07508 0.90582 0.79013 0.0
C602 C 0.02835 0.9145 0.71544 0.0
C603 C 0.98749 0.91286 0.74464 0.0
C604 C 0.99061 0.90706 0.79652 0.0
C605 C 0.0344 0.90346 0.81861 0.0
C606 C 0.02633 0.92033 0.65993 0.0
C607 C 0.94774 0.9053 0.82892 0.0
H608 H 0.85999 0.96827 0.70131 0.0
H609 H 0.85082 0.8796 0.67335 0.0
H610 H 0.95276 0.96771 0.77919 0.0
H611 H 0.98204 0.97108 0.72053 0.0
H612 H 0.92823 0.9896 0.73096 0.0
H613 H 0.91364 0.84903 0.6848 0.0
H614 H 0.97093 0.86432 0.6855 0.0
H615 H 0.94144 0.85777 0.74317 0.0
H616 H 0.10296 0.91296 0.71628 0.0
H617 H 0.03678 0.8997 0.85853 0.0
H618 H 0.01027 0.94116 0.65328 0.0
H619 H 0.0042 0.90448 0.64104 0.0
H620 H 0.06125 0.92006 0.64227 0.0
H621 H 0.92862 0.92552 0.82766 0.0
H622 H 0.95612 0.90045 0.86856 0.0
H623 H 0.92405 0.88884 0.81441 0.0
C624 C 0.1292 0.3981 0.33346 0.0
C625 C 0.14965 0.42482 0.33432 0.0
C626 C 0.08369 0.39431 0.31638 0.0
C627 C 0.05814 0.4178 0.29942 0.0
C628 C 0.07777 0.44502 0.30232 0.0
C629 C 0.12335 0.44824 0.32009 0.0
C630 C 0.06376 0.36501 0.31438 0.0
C631 C 0.05152 0.47052 0.28435 0.0
C632 C 0.96494 0.40431 0.20212 0.0
C633 C 0.92442 0.40572 0.23106 0.0
C634 C 0.0087 0.40835 0.22393 0.0
C635 C 0.01196 0.41358 0.27601 0.0
C636 C 0.97127 0.41447 0.30559 0.0
C637 C 0.92793 0.41066 0.28271 0.0
C638 C 0.05137 0.40752 0.19109 0.0
C639 C 0.97348 0.41983 0.36126 0.0
H640 H 0.14935 0.37996 0.34483 0.0
H641 H 0.13913 0.46889 0.32038 0.0
H642 H 0.02933 0.36445 0.33297 0.0
H643 H 0.05852 0.35869 0.2748 0.0
H644 H 0.08677 0.34934 0.3326 0.0
H645 H 0.0703 0.49037 0.29254 0.0
H646 H 0.04602 0.46903 0.24333 0.0
H647 H 0.01676 0.47147 0.30216 0.0
H648 H 0.96241 0.40094 0.16208 0.0
H649 H 0.8967 0.41187 0.30527 0.0
H650 H 0.07555 0.39102 0.20445 0.0
H651 H 0.07001 0.42786 0.19336 0.0
H652 H 0.04283 0.40328 0.15125 0.0
H653 H 0.99575 0.40383 0.37951 0.0
H654 H 0.93863 0.41938 0.37908 0.0
H655 H 0.9895 0.44061 0.36852 0.0
C656 C 0.37299 0.62026 0.83569 0.0
C657 C 0.35228 0.59361 0.83565 0.0
C658 C 0.41847 0.62409 0.81848 0.0
C659 C 0.44372 0.60072 0.80041 0.0
C660 C 0.42384 0.57353 0.80245 0.0
C661 C 0.37831 0.57026 0.82039 0.0
C662 C 0.43868 0.65333 0.81756 0.0
C663 C 0.44976 0.54813 0.78335 0.0
C664 C 0.53667 0.61441 0.70275 0.0
C665 C 0.57737 0.6121 0.73117 0.0
C666 C 0.49292 0.61078 0.7249 0.0
C667 C 0.48985 0.605 0.77679 0.0
C668 C 0.53072 0.60339 0.80594 0.0
C669 C 0.57402 0.60683 0.78274 0.0
C670 C 0.45002 0.6125 0.69255 0.0
C671 C 0.52875 0.59759 0.86145 0.0
H672 H 0.35306 0.63835 0.84785 0.0
H673 H 0.36233 0.54967 0.81999 0.0
H674 H 0.47326 0.65355 0.83582 0.0
H675 H 0.44368 0.66013 0.77822 0.0
H676 H 0.41595 0.66886 0.83667 0.0
H677 H 0.43076 0.52827 0.79077 0.0
H678 H 0.45518 0.55008 0.74238 0.0
H679 H 0.48454 0.54683 0.801 0.0
H680 H 0.53902 0.61817 0.66282 0.0
H681 H 0.60533 0.605 0.80499 0.0
H682 H 0.42631 0.62898 0.70704 0.0
H683 H 0.43095 0.59228 0.69391 0.0
H684 H 0.45837 0.61731 0.65288 0.0
H685 H 0.50661 0.61345 0.88035 0.0
H686 H 0.56368 0.59785 0.87905 0.0
H687 H 0.51272 0.57676 0.86816 0.0
C688 C 0.53479 0.90116 0.70154 0.0
C689 C 0.57556 0.90274 0.73003 0.0
C690 C 0.49113 0.90495 0.72382 0.0
C691 C 0.48816 0.9101 0.77595 0.0
C692 C 0.52906 0.91081 0.8052 0.0
C693 C 0.57231 0.90728 0.78185 0.0
C694 C 0.44825 0.90422 0.69132 0.0
C695 C 0.52718 0.91588 0.86096 0.0
C696 C 0.3778 0.94625 0.81983 0.0
C697 C 0.3505 0.9232 0.83366 0.0
C698 C 0.42341 0.9424 0.80244 0.0
C699 C 0.4421 0.91491 0.79954 0.0
C700 C 0.41556 0.89179 0.81626 0.0
C701 C 0.37 0.8962 0.83288 0.0
C702 C 0.45067 0.96756 0.78473 0.0
C703 C 0.43449 0.86223 0.81447 0.0
H704 H 0.53703 0.89797 0.66143 0.0
H705 H 0.60368 0.90854 0.80413 0.0
H706 H 0.42383 0.88798 0.70514 0.0
H707 H 0.43001 0.92472 0.69337 0.0
H708 H 0.45648 0.89968 0.6515 0.0
H709 H 0.562 0.91456 0.87868 0.0
H710 H 0.51242 0.93697 0.86859 0.0
H711 H 0.50399 0.90029 0.87901 0.0
H712 H 0.36279 0.96712 0.82012 0.0
H713 H 0.34911 0.87834 0.844 0.0
H714 H 0.45638 0.966 0.74374 0.0
H715 H 0.48533 0.96803 0.80278 0.0
H716 H 0.43253 0.98764 0.79283 0.0
H717 H 0.43921 0.85568 0.77493 0.0
H718 H 0.41106 0.84695 0.83308 0.0
H719 H 0.46903 0.86127 0.83274 0.0
C720 C 0.12576 0.12166 0.33495 0.0
C721 C 0.14602 0.09486 0.33604 0.0
C722 C 0.08021 0.12557 0.31792 0.0
C723 C 0.05434 0.10214 0.30119 0.0
C724 C 0.07379 0.07486 0.30434 0.0
C725 C 0.11941 0.07151 0.32206 0.0
C726 C 0.06058 0.15495 0.31567 0.0
C727 C 0.0473 0.04938 0.28659 0.0
C728 C 0.92403 0.10972 0.28335 0.0
C729 C 0.92086 0.11444 0.23161 0.0
C730 C 0.96725 0.10587 0.30664 0.0
C731 C 0.00821 0.10647 0.27742 0.0
C732 C 0.00528 0.11147 0.22527 0.0
C733 C 0.96168 0.11557 0.20306 0.0
C734 C 0.96905 0.10077 0.36237 0.0
C735 C 0.04817 0.11199 0.19272 0.0
H736 H 0.14609 0.13977 0.34608 0.0
H737 H 0.13498 0.05079 0.3225 0.0
H738 H 0.05551 0.16115 0.27604 0.0
H739 H 0.02611 0.15573 0.33415 0.0
H740 H 0.08372 0.17058 0.33384 0.0
H741 H 0.06582 0.02949 0.29513 0.0
H742 H 0.01246 0.04871 0.30422 0.0
H743 H 0.04201 0.05066 0.24551 0.0
H744 H 0.89263 0.10868 0.30564 0.0
H745 H 0.95951 0.11877 0.16297 0.0
H746 H 0.99146 0.11671 0.38061 0.0
H747 H 0.9847 0.07992 0.36994 0.0
H748 H 0.9341 0.10153 0.37992 0.0
H749 H 0.07224 0.1286 0.20589 0.0
H750 H 0.03988 0.11589 0.15272 0.0
H751 H 0.06682 0.09167 0.1956 0.0
C752 C 0.03723 0.61742 0.81839 0.0
C753 C 0.07803 0.61549 0.78996 0.0
C754 C 0.99356 0.61365 0.79617 0.0
C755 C 0.99061 0.60817 0.74416 0.0
C756 C 0.03154 0.60711 0.71494 0.0
C757 C 0.0748 0.61063 0.73824 0.0
C758 C 0.95066 0.61475 0.82864 0.0
C759 C 0.02967 0.60168 0.65929 0.0
C760 C 0.88012 0.57195 0.70125 0.0
C761 C 0.85285 0.59495 0.68703 0.0
C762 C 0.92576 0.57582 0.71845 0.0
C763 C 0.94455 0.60329 0.72069 0.0
C764 C 0.91804 0.62635 0.70355 0.0
C765 C 0.87242 0.62192 0.68721 0.0
C766 C 0.95294 0.55074 0.73668 0.0
C767 C 0.93708 0.65587 0.70461 0.0
H768 H 0.03943 0.62086 0.85843 0.0
H769 H 0.10618 0.60909 0.716 0.0
H770 H 0.92634 0.63095 0.81444 0.0
H771 H 0.93231 0.59429 0.82707 0.0
H772 H 0.95888 0.61956 0.86836 0.0
H773 H 0.0645 0.60283 0.64153 0.0
H774 H 0.01489 0.58056 0.65211 0.0
H775 H 0.00651 0.61717 0.64092 0.0
H776 H 0.86504 0.5511 0.70144 0.0
H777 H 0.85154 0.63974 0.67579 0.0
H778 H 0.95868 0.55257 0.77762 0.0
H779 H 0.98759 0.55006 0.71859 0.0
H780 H 0.93473 0.53063 0.72907 0.0
H781 H 0.9418 0.66273 0.74398 0.0
H782 H 0.91372 0.67106 0.68561 0.0
H783 H 0.97164 0.65661 0.68632 0.0
C784 C 0.42785 0.40815 0.2387 0.0
C785 C 0.42421 0.40424 0.2906 0.0
C786 C 0.47123 0.41159 0.21573 0.0
C787 C 0.51183 0.4114 0.24548 0.0
C788 C 0.50845 0.4071 0.2978 0.0
C789 C 0.46465 0.40337 0.3197 0.0
C790 C 0.47358 0.4159 0.1598 0.0
C791 C 0.55102 0.40701 0.33078 0.0
C792 C 0.62967 0.39619 0.18899 0.0
C793 C 0.64932 0.4231 0.18683 0.0
C794 C 0.58425 0.39219 0.20624 0.0
C795 C 0.55799 0.41567 0.22204 0.0
C796 C 0.57683 0.44303 0.21786 0.0
C797 C 0.62231 0.44645 0.19995 0.0
C798 C 0.56515 0.36273 0.20958 0.0
C799 C 0.5498 0.46855 0.2346 0.0
H800 H 0.39667 0.40891 0.21603 0.0
H801 H 0.46199 0.40076 0.3599 0.0
H802 H 0.48888 0.43675 0.15149 0.0
H803 H 0.49653 0.39987 0.14255 0.0
H804 H 0.43886 0.41466 0.14185 0.0
H805 H 0.54232 0.40389 0.3709 0.0
H806 H 0.57503 0.39006 0.31882 0.0
H807 H 0.56992 0.42718 0.3269 0.0
H808 H 0.65035 0.37809 0.17847 0.0
H809 H 0.63746 0.46727 0.19865 0.0
H810 H 0.53078 0.36151 0.19098 0.0
H811 H 0.55999 0.357 0.24943 0.0
H812 H 0.58865 0.34701 0.19214 0.0
H813 H 0.51515 0.46891 0.21652 0.0
H814 H 0.56812 0.48844 0.22572 0.0
H815 H 0.54405 0.46759 0.27564 0.0
C816 C 0.31528 0.19906 0.42342 0.0
C817 C 0.28438 0.18437 0.39253 0.0
C818 C 0.31394 0.22851 0.42631 0.0
C819 C 0.27986 0.24349 0.39893 0.0
C820 C 0.24655 0.2285 0.37046 0.0
C821 C 0.24981 0.19914 0.36677 0.0
C822 C 0.35102 0.24362 0.4558 0.0
C823 C 0.20872 0.24355 0.34205 0.0
C824 C 0.26485 0.32171 0.42611 0.0
C825 C 0.28867 0.33364 0.38566 0.0
C826 C 0.26087 0.29234 0.43068 0.0
C827 C 0.28266 0.27467 0.39493 0.0
C828 C 0.30757 0.28677 0.35469 0.0
C829 C 0.3096 0.31604 0.35014 0.0
C830 C 0.23284 0.28023 0.47319 0.0
C831 C 0.33252 0.26881 0.31653 0.0
H832 H 0.34231 0.18764 0.44299 0.0
H833 H 0.22569 0.18772 0.34317 0.0
H834 H 0.37424 0.25502 0.42964 0.0
H835 H 0.33527 0.25944 0.4811 0.0
H836 H 0.37242 0.22898 0.47847 0.0
H837 H 0.18158 0.22887 0.32836 0.0
H838 H 0.19209 0.2597 0.36607 0.0
H839 H 0.22395 0.25449 0.30932 0.0
H840 H 0.2485 0.33535 0.45344 0.0
H841 H 0.32855 0.32522 0.31914 0.0
H842 H 0.25503 0.26652 0.49668 0.0
H843 H 0.20449 0.26695 0.45802 0.0
H844 H 0.21739 0.29679 0.49732 0.0
H845 H 0.35693 0.25432 0.33563 0.0
H846 H 0.35234 0.28154 0.28906 0.0
H847 H 0.30713 0.25573 0.2958 0.0
C848 C 0.23639 0.82191 0.92252 0.0
C849 C 0.20991 0.83382 0.88405 0.0
C850 C 0.24064 0.79255 0.92686 0.0
C851 C 0.21641 0.77488 0.89305 0.0
C852 C 0.18874 0.78698 0.85493 0.0
C853 C 0.18652 0.81626 0.8504 0.0
C854 C 0.27162 0.78045 0.96693 0.0
C855 C 0.16116 0.76901 0.81903 0.0
C856 C 0.2483 0.69943 0.86276 0.0
C857 C 0.21587 0.68455 0.89139 0.0
C858 C 0.25121 0.72881 0.86581 0.0
C859 C 0.21972 0.74371 0.89678 0.0
C860 C 0.18792 0.72865 0.92703 0.0
C861 C 0.1869 0.69919 0.92454 0.0
C862 C 0.28665 0.74397 0.83419 0.0
C863 C 0.15282 0.74367 0.95941 0.0
H864 H 0.25465 0.83555 0.94837 0.0
H865 H 0.16556 0.82548 0.82098 0.0
H866 H 0.25126 0.76663 0.99205 0.0
H867 H 0.299 0.76729 0.94944 0.0
H868 H 0.28851 0.79702 0.98985 0.0
H869 H 0.13934 0.78174 0.79336 0.0
H870 H 0.185 0.75595 0.79619 0.0
H871 H 0.13827 0.75451 0.84016 0.0
H872 H 0.27095 0.68806 0.83739 0.0
H873 H 0.1615 0.68771 0.94637 0.0
H874 H 0.30486 0.76016 0.85671 0.0
H875 H 0.26892 0.75489 0.80293 0.0
H876 H 0.31283 0.72938 0.81814 0.0
H877 H 0.1701 0.75957 0.9833 0.0
H878 H 0.13323 0.72898 0.98382 0.0
H879 H 0.12771 0.75496 0.9352 0.0
C880 C 0.75076 0.19917 0.15521 0.0
C881 C 0.78397 0.18418 0.12771 0.0
C882 C 0.7479 0.22855 0.1519 0.0
C883 C 0.78023 0.24333 0.12187 0.0
C884 C 0.81279 0.22815 0.09266 0.0
C885 C 0.81377 0.19869 0.09534 0.0
C886 C 0.71167 0.24383 0.18237 0.0
C887 C 0.84876 0.24304 0.06132 0.0
C888 C 0.7646 0.32159 0.09611 0.0
C889 C 0.79011 0.33342 0.13546 0.0
C890 C 0.76037 0.29224 0.09141 0.0
C891 C 0.78363 0.27449 0.12582 0.0
C892 C 0.81034 0.2865 0.16485 0.0
C893 C 0.81257 0.31576 0.16966 0.0
C894 C 0.73042 0.28024 0.05032 0.0
C895 C 0.83688 0.26844 0.20147 0.0
H896 H 0.72748 0.18791 0.17997 0.0
H897 H 0.83976 0.18712 0.07441 0.0
H898 H 0.72856 0.2547 0.21425 0.0
H899 H 0.6942 0.26006 0.15932 0.0
H900 H 0.68496 0.22931 0.19749 0.0
H901 H 0.86878 0.22828 0.03737 0.0
H902 H 0.83218 0.25902 0.03706 0.0
H903 H 0.87339 0.25422 0.08628 0.0
H904 H 0.74706 0.33529 0.06983 0.0
H905 H 0.83279 0.32491 0.19978 0.0
H906 H 0.70244 0.26721 0.06689 0.0
H907 H 0.75133 0.26631 0.02584 0.0
H908 H 0.71433 0.29686 0.0269 0.0
H909 H 0.81237 0.25546 0.22354 0.0
H910 H 0.85811 0.2811 0.22784 0.0
H911 H 0.8602 0.25386 0.18097 0.0
C912 C 0.74744 0.81911 0.65695 0.0
C913 C 0.71426 0.8337 0.62883 0.0
C914 C 0.75091 0.78973 0.65408 0.0
C915 C 0.71923 0.77455 0.62385 0.0
C916 C 0.68664 0.78933 0.5941 0.0
C917 C 0.68507 0.81879 0.59636 0.0
C918 C 0.78717 0.7749 0.6851 0.0
C919 C 0.65134 0.77399 0.56253 0.0
C920 C 0.7371 0.69641 0.59827 0.0
C921 C 0.71147 0.68438 0.6373 0.0
C922 C 0.7407 0.72579 0.5937 0.0
C923 C 0.71665 0.74336 0.62787 0.0
C924 C 0.68989 0.73115 0.66662 0.0
C925 C 0.68832 0.70186 0.67135 0.0
C926 C 0.77077 0.73801 0.55295 0.0
C927 C 0.66252 0.749 0.70295 0.0
H928 H 0.77024 0.83068 0.6818 0.0
H929 H 0.6591 0.83006 0.57495 0.0
H930 H 0.77018 0.76395 0.71682 0.0
H931 H 0.80533 0.75877 0.66236 0.0
H932 H 0.81331 0.78971 0.7005 0.0
H933 H 0.63104 0.78848 0.53843 0.0
H934 H 0.66856 0.75816 0.53841 0.0
H935 H 0.62688 0.76258 0.58733 0.0
H936 H 0.75517 0.68285 0.5721 0.0
H937 H 0.66799 0.69256 0.7012 0.0
H938 H 0.79805 0.75148 0.56979 0.0
H939 H 0.74967 0.75156 0.52804 0.0
H940 H 0.78776 0.72152 0.5299 0.0
H941 H 0.68645 0.7623 0.7252 0.0
H942 H 0.64143 0.73618 0.72916 0.0
H943 H 0.63896 0.76328 0.68218 0.0
loop_
_geom_bond_atom_site_label_1
_geom_bond_atom_site_label_2
_geom_bond_distance
_geom_bond_site_symmetry_2
_ccdc_geom_bond_type
Fe0 O2 1.918 . S
Fe0 O5 1.997 . S
Fe0 O6 2.002 . S
Fe0 O11 1.976 . S
Fe0 O14 1.996 . S
Fe1 O2 1.918 . S
Fe1 O9 1.997 . S
Fe1 O12 1.996 . S
Fe1 O16 1.976 . S
Fe1 O19 2.002 . S
O2 Fe0 1.918 . S
O2 Fe1 1.918 . S
O2 Fe3 1.918 . S
Fe3 O2 1.918 . S
Fe3 O4 2.002 . S
Fe3 O13 1.976 . S
Fe3 O17 1.996 . S
Fe3 O20 1.997 . S
O4 Fe3 2.002 . S
O4 C21 1.295 . S
O5 Fe0 1.997 . S
O5 C21 1.235 . S
O6 Fe0 2.002 . S
O6 C7 1.295 . S
C7 O6 1.295 . S
C7 O9 1.235 . S
C8 O13 1.287 . S
C8 O14 1.255 . S
O9 Fe1 1.997 . S
O9 C7 1.235 . S
C10 O16 1.287 . S
C10 O17 1.255 . S
O11 Fe0 1.976 . S
O11 C18 1.287 . S
O12 Fe1 1.996 . S
O12 C18 1.255 . S
O13 Fe3 1.976 . S
O13 C8 1.287 . S
O14 Fe0 1.996 . S
O14 C8 1.255 . S
C15 O19 1.295 . S
C15 O20 1.235 . S
O16 Fe1 1.976 . S
O16 C10 1.287 . S
O17 Fe3 1.996 . S
O17 C10 1.255 . S
C18 O11 1.287 . S
C18 O12 1.255 . S
O19 Fe1 2.002 . S
O19 C15 1.295 . S
O20 Fe3 1.997 . S
O20 C15 1.235 . S
C21 O4 1.295 . S
C21 O5 1.235 . S
Fe22 O24 1.918 . S
Fe22 O27 1.997 . S
Fe22 O28 2.002 . S
Fe22 O33 1.976 . S
Fe22 O36 1.996 . S
Fe23 O24 1.918 . S
Fe23 O31 1.997 . S
Fe23 O34 1.996 . S
Fe23 O38 1.976 . S
Fe23 O41 2.002 . S
O24 Fe22 1.918 . S
O24 Fe23 1.918 . S
O24 Fe25 1.918 . S
Fe25 O24 1.918 . S
Fe25 O26 2.002 . S
Fe25 O35 1.976 . S
Fe25 O39 1.996 . S
Fe25 O42 1.997 . S
O26 Fe25 2.002 . S
O26 C43 1.295 . S
O27 Fe22 1.997 . S
O27 C43 1.235 . S
O28 Fe22 2.002 . S
O28 C29 1.295 . S
C29 O28 1.295 . S
C29 O31 1.235 . S
C30 O35 1.287 . S
C30 O36 1.255 . S
O31 Fe23 1.997 . S
O31 C29 1.235 . S
C32 O38 1.287 . S
C32 O39 1.255 . S
O33 Fe22 1.976 . S
O33 C40 1.287 . S
O34 Fe23 1.996 . S
O34 C40 1.255 . S
O35 Fe25 1.976 . S
O35 C30 1.287 . S
O36 Fe22 1.996 . S
O36 C30 1.255 . S
C37 O41 1.295 . S
C37 O42 1.235 . S
O38 Fe23 1.976 . S
O38 C32 1.287 . S
O39 Fe25 1.996 . S
O39 C32 1.255 . S
C40 O33 1.287 . S
C40 O34 1.255 . S
O41 Fe23 2.002 . S
O41 C37 1.295 . S
O42 Fe25 1.997 . S
O42 C37 1.235 . S
C43 O26 1.295 . S
C43 O27 1.235 . S
Fe44 O46 1.918 . S
Fe44 O49 1.997 . S
Fe44 O50 2.002 . S
Fe44 O55 1.976 . S
Fe44 O58 1.996 . S
Fe45 O46 1.918 . S
Fe45 O53 1.997 . S
Fe45 O56 1.996 . S
Fe45 O60 1.976 . S
Fe45 O63 2.002 . S
O46 Fe44 1.918 . S
O46 Fe45 1.918 . S
O46 Fe47 1.918 . S
Fe47 O46 1.918 . S
Fe47 O48 2.002 . S
Fe47 O57 1.976 . S
Fe47 O61 1.996 . S
Fe47 O64 1.997 . S
O48 Fe47 2.002 . S
O48 C65 1.295 . S
O49 Fe44 1.997 . S
O49 C65 1.235 . S
O50 Fe44 2.002 . S
O50 C51 1.295 . S
C51 O50 1.295 . S
C51 O53 1.235 . S
C52 O57 1.287 . S
C52 O58 1.255 . S
O53 Fe45 1.997 . S
O53 C51 1.235 . S
C54 O60 1.287 . S
C54 O61 1.255 . S
O55 Fe44 1.976 . S
O55 C62 1.287 . S
O56 Fe45 1.996 . S
O56 C62 1.255 . S
O57 Fe47 1.976 . S
O57 C52 1.287 . S
O58 Fe44 1.996 . S
O58 C52 1.255 . S
C59 O63 1.295 . S
C59 O64 1.235 . S
O60 Fe45 1.976 . S
O60 C54 1.287 . S
O61 Fe47 1.996 . S
O61 C54 1.255 . S
C62 O55 1.287 . S
C62 O56 1.255 . S
O63 Fe45 2.002 . S
O63 C59 1.295 . S
O64 Fe47 1.997 . S
O64 C59 1.235 . S
C65 O48 1.295 . S
C65 O49 1.235 . S
Fe66 O68 1.918 . S
Fe66 O71 1.997 . S
Fe66 O72 2.002 . S
Fe66 O77 1.976 . S
Fe66 O80 1.996 . S
Fe67 O68 1.918 . S
Fe67 O75 1.997 . S
Fe67 O78 1.996 . S
Fe67 O82 1.976 . S
Fe67 O85 2.002 . S
O68 Fe66 1.918 . S
O68 Fe67 1.918 . S
O68 Fe69 1.918 . S
Fe69 O68 1.918 . S
Fe69 O70 2.002 . S
Fe69 O79 1.976 . S
Fe69 O83 1.996 . S
Fe69 O86 1.997 . S
O70 Fe69 2.002 . S
O70 C87 1.295 . S
O71 Fe66 1.997 . S
O71 C87 1.235 . S
O72 Fe66 2.002 . S
O72 C73 1.295 . S
C73 O72 1.295 . S
C73 O75 1.235 . S
C74 O79 1.287 . S
C74 O80 1.255 . S
O75 Fe67 1.997 . S
O75 C73 1.235 . S
C76 O82 1.287 . S
C76 O83 1.255 . S
O77 Fe66 1.976 . S
O77 C84 1.287 . S
O78 Fe67 1.996 . S
O78 C84 1.255 . S
O79 Fe69 1.976 . S
O79 C74 1.287 . S
O80 Fe66 1.996 . S
O80 C74 1.255 . S
C81 O85 1.295 . S
C81 O86 1.235 . S
O82 Fe67 1.976 . S
O82 C76 1.287 . S
O83 Fe69 1.996 . S
O83 C76 1.255 . S
C84 O77 1.287 . S
C84 O78 1.255 . S
O85 Fe67 2.002 . S
O85 C81 1.295 . S
O86 Fe69 1.997 . S
O86 C81 1.235 . S
C87 O70 1.295 . S
C87 O71 1.235 . S
Fe88 O90 1.918 . S
Fe88 O93 1.997 . S
Fe88 O94 2.002 . S
Fe88 O99 1.976 . S
Fe88 O102 1.996 . S
Fe89 O90 1.918 . S
Fe89 O97 1.997 . S
Fe89 O100 1.996 . S
Fe89 O104 1.976 . S
Fe89 O107 2.002 . S
O90 Fe88 1.918 . S
O90 Fe89 1.918 . S
O90 Fe91 1.918 . S
Fe91 O90 1.918 . S
Fe91 O92 2.002 . S
Fe91 O101 1.976 . S
Fe91 O105 1.996 . S
Fe91 O108 1.997 . S
O92 Fe91 2.002 . S
O92 C109 1.295 . S
O93 Fe88 1.997 . S
O93 C109 1.235 . S
O94 Fe88 2.002 . S
O94 C95 1.295 . S
C95 O94 1.295 . S
C95 O97 1.235 . S
C96 O101 1.287 . S
C96 O102 1.255 . S
O97 Fe89 1.997 . S
O97 C95 1.235 . S
C98 O104 1.287 . S
C98 O105 1.255 . S
O99 Fe88 1.976 . S
O99 C106 1.287 . S
O100 Fe89 1.996 . S
O100 C106 1.255 . S
O101 Fe91 1.976 . S
O101 C96 1.287 . S
O102 Fe88 1.996 . S
O102 C96 1.255 . S
C103 O107 1.295 . S
C103 O108 1.235 . S
O104 Fe89 1.976 . S
O104 C98 1.287 . S
O105 Fe91 1.996 . S
O105 C98 1.255 . S
C106 O99 1.287 . S
C106 O100 1.255 . S
O107 Fe89 2.002 . S
O107 C103 1.295 . S
O108 Fe91 1.997 . S
O108 C103 1.235 . S
C109 O92 1.295 . S
C109 O93 1.235 . S
Fe110 O112 1.918 . S
Fe110 O115 1.997 . S
Fe110 O116 2.002 . S
Fe110 O121 1.976 . S
Fe110 O124 1.996 . S
Fe111 O112 1.918 . S
Fe111 O119 1.997 . S
Fe111 O122 1.996 . S
Fe111 O126 1.976 . S
Fe111 O129 2.002 . S
O112 Fe110 1.918 . S
O112 Fe111 1.918 . S
O112 Fe113 1.918 . S
Fe113 O112 1.918 . S
Fe113 O114 2.002 . S
Fe113 O123 1.976 . S
Fe113 O127 1.996 . S
Fe113 O130 1.997 . S
O114 Fe113 2.002 . S
O114 C131 1.295 . S
O115 Fe110 1.997 . S
O115 C131 1.235 . S
O116 Fe110 2.002 . S
O116 C117 1.295 . S
C117 O116 1.295 . S
C117 O119 1.235 . S
C118 O123 1.287 . S
C118 O124 1.255 . S
O119 Fe111 1.997 . S
O119 C117 1.235 . S
C120 O126 1.287 . S
C120 O127 1.255 . S
O121 Fe110 1.976 . S
O121 C128 1.287 . S
O122 Fe111 1.996 . S
O122 C128 1.255 . S
O123 Fe113 1.976 . S
O123 C118 1.287 . S
O124 Fe110 1.996 . S
O124 C118 1.255 . S
C125 O129 1.295 . S
C125 O130 1.235 . S
O126 Fe111 1.976 . S
O126 C120 1.287 . S
O127 Fe113 1.996 . S
O127 C120 1.255 . S
C128 O121 1.287 . S
C128 O122 1.255 . S
O129 Fe111 2.002 . S
O129 C125 1.295 . S
O130 Fe113 1.997 . S
O130 C125 1.235 . S
C131 O114 1.295 . S
C131 O115 1.235 . S
Fe132 O134 1.918 . S
Fe132 O137 1.997 . S
Fe132 O138 2.002 . S
Fe132 O143 1.976 . S
Fe132 O146 1.996 . S
Fe133 O134 1.918 . S
Fe133 O141 1.997 . S
Fe133 O144 1.996 . S
Fe133 O148 1.976 . S
Fe133 O151 2.002 . S
O134 Fe132 1.918 . S
O134 Fe133 1.918 . S
O134 Fe135 1.918 . S
Fe135 O134 1.918 . S
Fe135 O136 2.002 . S
Fe135 O145 1.976 . S
Fe135 O149 1.996 . S
Fe135 O152 1.997 . S
O136 Fe135 2.002 . S
O136 C153 1.295 . S
O137 Fe132 1.997 . S
O137 C153 1.235 . S
O138 Fe132 2.002 . S
O138 C139 1.295 . S
C139 O138 1.295 . S
C139 O141 1.235 . S
C140 O145 1.287 . S
C140 O146 1.255 . S
O141 Fe133 1.997 . S
O141 C139 1.235 . S
C142 O148 1.287 . S
C142 O149 1.255 . S
O143 Fe132 1.976 . S
O143 C150 1.287 . S
O144 Fe133 1.996 . S
O144 C150 1.255 . S
O145 Fe135 1.976 . S
O145 C140 1.287 . S
O146 Fe132 1.996 . S
O146 C140 1.255 . S
C147 O151 1.295 . S
C147 O152 1.235 . S
O148 Fe133 1.976 . S
O148 C142 1.287 . S
O149 Fe135 1.996 . S
O149 C142 1.255 . S
C150 O143 1.287 . S
C150 O144 1.255 . S
O151 Fe133 2.002 . S
O151 C147 1.295 . S
O152 Fe135 1.997 . S
O152 C147 1.235 . S
C153 O136 1.295 . S
C153 O137 1.235 . S
Fe154 O156 1.918 . S
Fe154 O159 1.997 . S
Fe154 O160 2.002 . S
Fe154 O165 1.976 . S
Fe154 O168 1.996 . S
Fe155 O156 1.918 . S
Fe155 O163 1.997 . S
Fe155 O166 1.996 . S
Fe155 O170 1.976 . S
Fe155 O173 2.002 . S
O156 Fe154 1.918 . S
O156 Fe155 1.918 . S
O156 Fe157 1.918 . S
Fe157 O156 1.918 . S
Fe157 O158 2.002 . S
Fe157 O167 1.976 . S
Fe157 O171 1.996 . S
Fe157 O174 1.997 . S
O158 Fe157 2.002 . S
O158 C175 1.295 . S
O159 Fe154 1.997 . S
O159 C175 1.235 . S
O160 Fe154 2.002 . S
O160 C161 1.295 . S
C161 O160 1.295 . S
C161 O163 1.235 . S
C162 O167 1.287 . S
C162 O168 1.255 . S
O163 Fe155 1.997 . S
O163 C161 1.235 . S
C164 O170 1.287 . S
C164 O171 1.255 . S
O165 Fe154 1.976 . S
O165 C172 1.287 . S
O166 Fe155 1.996 . S
O166 C172 1.255 . S
O167 Fe157 1.976 . S
O167 C162 1.287 . S
O168 Fe154 1.996 . S
O168 C162 1.255 . S
C169 O173 1.295 . S
C169 O174 1.235 . S
O170 Fe155 1.976 . S
O170 C164 1.287 . S
O171 Fe157 1.996 . S
O171 C164 1.255 . S
C172 O165 1.287 . S
C172 O166 1.255 . S
O173 Fe155 2.002 . S
O173 C169 1.295 . S
O174 Fe157 1.997 . S
O174 C169 1.235 . S
C175 O158 1.295 . S
C175 O159 1.235 . S
C176 C177 1.391 . S
C176 C178 1.394 . S
C176 H192 0.931 . S
C177 C176 1.391 . S
C177 C181 1.376 1_565 S
C178 C176 1.394 . S
C178 C179 1.369 . S
C178 C182 1.531 . S
C179 C178 1.369 . S
C179 C180 1.410 1_565 S
C179 C187 1.503 1_565 S
C180 C179 1.410 1_545 S
C180 C181 1.392 . S
C180 C183 1.511 . S
C181 C177 1.376 1_545 S
C181 C180 1.392 . S
C181 H193 0.929 . S
C182 C178 1.531 . S
C182 H194 0.960 . S
C182 H195 0.962 . S
C182 H196 0.960 . S
C183 C180 1.511 . S
C183 H197 0.961 . S
C183 H198 0.961 . S
C183 H199 0.961 . S
C184 C185 1.370 . S
C184 C186 1.363 . S
C184 H200 0.931 . S
C185 C184 1.370 . S
C185 C189 1.408 . S
C186 C184 1.363 . S
C186 C187 1.370 . S
C186 C190 1.524 . S
C187 C179 1.503 1_545 S
C187 C186 1.370 . S
C187 C188 1.403 1_545 S
C188 C187 1.403 1_565 S
C188 C189 1.404 1_565 S
C188 C191 1.539 . S
C189 C185 1.408 . S
C189 C188 1.404 1_545 S
C189 H201 0.936 . S
C190 C186 1.524 . S
C190 H202 0.956 . S
C190 H203 0.961 . S
C190 H204 0.961 . S
C191 C188 1.539 . S
C191 H205 0.958 . S
C191 H206 0.961 . S
C191 H207 0.960 . S
H192 C176 0.931 . S
H193 C181 0.929 . S
H194 C182 0.960 . S
H195 C182 0.962 . S
H196 C182 0.960 . S
H197 C183 0.961 . S
H198 C183 0.961 . S
H199 C183 0.961 . S
H200 C184 0.931 . S
H201 C189 0.936 . S
H202 C190 0.956 . S
H203 C190 0.961 . S
H204 C190 0.961 . S
H205 C191 0.958 . S
H206 C191 0.961 . S
H207 C191 0.960 . S
C208 C209 1.391 . S
C208 C210 1.394 . S
C208 H224 0.931 . S
C209 C208 1.391 . S
C209 C213 1.376 . S
C210 C208 1.394 . S
C210 C211 1.369 1_545 S
C210 C214 1.531 1_655 S
C211 C210 1.369 1_565 S
C211 C212 1.410 1_554 S
C211 C219 1.503 1_654 S
C212 C211 1.410 1_556 S
C212 C213 1.392 1_566 S
C212 C215 1.511 . S
C213 C209 1.376 . S
C213 C212 1.392 1_544 S
C213 H225 0.929 . S
C214 C210 1.531 1_455 S
C214 H226 0.960 1_545 S
C214 H227 0.962 . S
C214 H228 0.960 . S
C215 C212 1.511 . S
C215 H229 0.961 . S
C215 H230 0.961 . S
C215 H231 0.961 . S
C216 C217 1.370 1_545 S
C216 C218 1.363 . S
C216 H232 0.931 . S
C217 C216 1.370 1_565 S
C217 C221 1.408 . S
C218 C216 1.363 . S
C218 C219 1.370 1_545 S
C218 C222 1.524 . S
C219 C211 1.503 1_456 S
C219 C218 1.370 1_565 S
C219 C220 1.403 . S
C220 C219 1.403 . S
C220 C221 1.404 . S
C220 C223 1.539 1_556 S
C221 C217 1.408 . S
C221 C220 1.404 . S
C221 H233 0.930 . S
C222 C218 1.524 . S
C222 H234 0.956 . S
C222 H235 0.961 1_455 S
C222 H236 0.961 . S
C223 C220 1.539 1_554 S
C223 H237 0.958 . S
C223 H238 0.961 1_554 S
C223 H239 0.960 1_455 S
H224 C208 0.931 . S
H225 C213 0.929 . S
H226 C214 0.960 1_565 S
H227 C214 0.962 . S
H228 C214 0.960 . S
H229 C215 0.961 . S
H230 C215 0.961 . S
H231 C215 0.961 . S
H232 C216 0.931 . S
H233 C221 0.930 . S
H234 C222 0.956 . S
H235 C222 0.961 1_655 S
H236 C222 0.961 . S
H237 C223 0.958 . S
H238 C223 0.961 1_556 S
H239 C223 0.960 1_655 S
C240 C241 1.391 . S
C240 C242 1.394 1_556 S
C240 H256 0.930 . S
C241 C240 1.391 . S
C241 C245 1.376 . S
C242 C240 1.394 1_554 S
C242 C243 1.369 1_554 S
C242 C246 1.531 . S
C243 C242 1.369 1_556 S
C243 C244 1.410 . S
C243 C251 1.503 1_456 S
C244 C243 1.410 . S
C244 C245 1.392 . S
C244 C247 1.511 1_455 S
C245 C241 1.376 . S
C245 C244 1.392 . S
C245 H257 0.929 . S
C246 C242 1.531 . S
C246 H258 0.960 . S
C246 H259 0.962 . S
C246 H260 0.960 . S
C247 C244 1.511 1_655 S
C247 H261 0.961 . S
C247 H262 0.961 . S
C247 H263 0.961 . S
C248 C249 1.370 . S
C248 C250 1.363 . S
C248 H264 0.931 . S
C249 C248 1.370 . S
C249 C253 1.408 . S
C250 C248 1.363 . S
C250 C251 1.370 . S
C250 C254 1.524 1_655 S
C251 C243 1.503 1_654 S
C251 C250 1.370 . S
C251 C252 1.403 . S
C252 C251 1.403 . S
C252 C253 1.404 . S
C252 C255 1.539 . S
C253 C249 1.408 . S
C253 C252 1.404 . S
C253 H265 0.930 . S
C254 C250 1.524 1_455 S
C254 H266 0.956 . S
C254 H267 0.961 1_554 S
C254 H268 0.961 . S
C255 C252 1.539 . S
C255 H269 0.958 . S
C255 H270 0.961 1_554 S
C255 H271 0.960 1_554 S
H256 C240 0.930 . S
H257 C245 0.929 . S
H258 C246 0.960 . S
H259 C246 0.962 . S
H260 C246 0.960 . S
H261 C247 0.961 . S
H262 C247 0.961 . S
H263 C247 0.961 . S
H264 C248 0.931 . S
H265 C253 0.930 . S
H266 C254 0.956 . S
H267 C254 0.961 1_556 S
H268 C254 0.961 . S
H269 C255 0.958 . S
H270 C255 0.961 1_556 S
H271 C255 0.960 1_556 S
C272 C273 1.391 . S
C272 C274 1.394 . S
C272 H288 0.931 . S
C273 C272 1.391 . S
C273 C277 1.376 . S
C274 C272 1.394 . S
C274 C275 1.369 . S
C274 C278 1.531 . S
C275 C274 1.369 . S
C275 C276 1.410 . S
C275 C283 1.503 . S
C276 C275 1.410 . S
C276 C277 1.392 . S
C276 C279 1.511 . S
C277 C273 1.376 . S
C277 C276 1.392 . S
C277 H289 0.929 . S
C278 C274 1.531 . S
C278 H290 0.960 . S
C278 H291 0.962 . S
C278 H292 0.960 . S
C279 C276 1.511 . S
C279 H293 0.961 . S
C279 H294 0.961 . S
C279 H295 0.961 . S
C280 C281 1.370 . S
C280 C282 1.363 . S
C280 H296 0.931 . S
C281 C280 1.370 . S
C281 C285 1.408 . S
C282 C280 1.363 . S
C282 C283 1.370 . S
C282 C286 1.524 . S
C283 C275 1.503 . S
C283 C282 1.370 . S
C283 C284 1.403 . S
C284 C283 1.403 . S
C284 C285 1.404 . S
C284 C287 1.539 . S
C285 C281 1.408 . S
C285 C284 1.404 . S
C285 H297 0.930 . S
C286 C282 1.524 . S
C286 H298 0.956 . S
C286 H299 0.961 . S
C286 H300 0.961 . S
C287 C284 1.539 . S
C287 H301 0.958 . S
C287 H302 0.961 . S
C287 H303 0.960 . S
H288 C272 0.931 . S
H289 C277 0.929 . S
H290 C278 0.960 . S
H291 C278 0.962 . S
H292 C278 0.960 . S
H293 C279 0.961 . S
H294 C279 0.961 . S
H295 C279 0.961 . S
H296 C280 0.931 . S
H297 C285 0.930 . S
H298 C286 0.956 . S
H299 C286 0.961 . S
H300 C286 0.961 . S
H301 C287 0.958 . S
H302 C287 0.961 . S
H303 C287 0.960 . S
C304 C305 1.391 . S
C304 C306 1.394 . S
C304 H320 0.931 . S
C305 C304 1.391 . S
C305 C309 1.376 . S
C306 C304 1.394 . S
C306 C307 1.369 1_545 S
C306 C310 1.531 . S
C307 C306 1.369 1_565 S
C307 C308 1.410 . S
C307 C315 1.503 . S
C308 C307 1.410 . S
C308 C309 1.392 1_565 S
C308 C311 1.511 . S
C309 C305 1.376 . S
C309 C308 1.392 1_545 S
C309 H321 0.929 . S
C310 C306 1.531 . S
C310 H322 0.960 1_545 S
C310 H323 0.962 . S
C310 H324 0.960 . S
C311 C308 1.511 . S
C311 H325 0.961 . S
C311 H326 0.961 . S
C311 H327 0.961 . S
C312 C313 1.370 . S
C312 C314 1.363 . S
C312 H328 0.931 . S
C313 C312 1.370 . S
C313 C317 1.408 . S
C314 C312 1.363 . S
C314 C315 1.370 . S
C314 C318 1.524 1_565 S
C315 C307 1.503 . S
C315 C314 1.370 . S
C315 C316 1.403 . S
C316 C315 1.403 . S
C316 C317 1.404 . S
C316 C319 1.539 . S
C317 C313 1.408 . S
C317 C316 1.404 . S
C317 H329 0.930 . S
C318 C314 1.524 1_545 S
C318 H330 0.956 . S
C318 H331 0.961 . S
C318 H332 0.961 . S
C319 C316 1.539 . S
C319 H333 0.958 . S
C319 H334 0.961 . S
C319 H335 0.960 . S
H320 C304 0.931 . S
H321 C309 0.929 . S
H322 C310 0.960 1_565 S
H323 C310 0.962 . S
H324 C310 0.960 . S
H325 C311 0.961 . S
H326 C311 0.961 . S
H327 C311 0.961 . S
H328 C312 0.931 . S
H329 C317 0.930 . S
H330 C318 0.956 . S
H331 C318 0.961 . S
H332 C318 0.961 . S
H333 C319 0.958 . S
H334 C319 0.961 . S
H335 C319 0.960 . S
C336 C337 1.391 . S
C336 C338 1.394 . S
C336 H352 0.931 . S
C337 C336 1.391 . S
C337 C341 1.376 . S
C338 C336 1.394 . S
C338 C339 1.369 1_565 S
C338 C342 1.531 . S
C339 C338 1.369 1_545 S
C339 C340 1.406 1_545 S
C339 C347 1.503 . S
C340 C339 1.406 1_565 S
C340 C341 1.403 . S
C340 C343 1.505 1_565 S
C341 C337 1.376 . S
C341 C340 1.403 . S
C341 H353 0.929 . S
C342 C338 1.531 . S
C342 H354 0.957 1_565 S
C342 H355 0.962 1_565 S
C342 H356 0.960 . S
C343 C340 1.505 1_545 S
C343 H357 0.961 . S
C343 H358 0.961 . S
C343 H359 0.961 1_545 S
C344 C345 1.370 . S
C344 C346 1.363 . S
C344 H360 0.931 . S
C345 C344 1.370 . S
C345 C349 1.408 . S
C346 C344 1.363 . S
C346 C347 1.370 . S
C346 C350 1.524 . S
C347 C339 1.503 . S
C347 C346 1.370 . S
C347 C348 1.403 . S
C348 C347 1.403 . S
C348 C349 1.404 . S
C348 C351 1.539 1_545 S
C349 C345 1.408 . S
C349 C348 1.404 . S
C349 H361 0.930 . S
C350 C346 1.524 . S
C350 H362 0.956 . S
C350 H363 0.961 . S
C350 H364 0.961 . S
C351 C348 1.539 1_565 S
C351 H365 0.958 . S
C351 H366 0.961 . S
C351 H367 0.960 . S
H352 C336 0.931 . S
H353 C341 0.929 . S
H354 C342 0.957 1_545 S
H355 C342 0.962 1_545 S
H356 C342 0.960 . S
H357 C343 0.961 . S
H358 C343 0.961 . S
H359 C343 0.961 1_565 S
H360 C344 0.931 . S
H361 C349 0.930 . S
H362 C350 0.956 . S
H363 C350 0.961 . S
H364 C350 0.961 . S
H365 C351 0.958 . S
H366 C351 0.961 . S
H367 C351 0.960 . S
C368 C369 1.391 . S
C368 C370 1.394 . S
C368 H384 0.931 . S
C369 C368 1.391 . S
C369 C373 1.376 . S
C370 C368 1.394 . S
C370 C371 1.369 . S
C370 C374 1.531 . S
C371 C370 1.369 . S
C371 C372 1.410 . S
C371 C379 1.503 . S
C372 C371 1.410 . S
C372 C373 1.392 . S
C372 C375 1.511 . S
C373 C369 1.376 . S
C373 C372 1.392 . S
C373 H385 0.929 . S
C374 C370 1.531 . S
C374 H386 0.960 . S
C374 H387 0.962 . S
C374 H388 0.960 . S
C375 C372 1.511 . S
C375 H389 0.961 . S
C375 H390 0.961 . S
C375 H391 0.961 . S
C376 C377 1.370 . S
C376 C378 1.363 . S
C376 H392 0.931 . S
C377 C376 1.370 . S
C377 C381 1.408 . S
C378 C376 1.363 . S
C378 C379 1.370 . S
C378 C382 1.524 . S
C379 C371 1.503 . S
C379 C378 1.370 . S
C379 C380 1.403 . S
C380 C379 1.403 . S
C380 C381 1.404 . S
C380 C383 1.539 . S
C381 C377 1.408 . S
C381 C380 1.404 . S
C381 H393 0.930 . S
C382 C378 1.524 . S
C382 H394 0.956 . S
C382 H395 0.961 . S
C382 H396 0.961 . S
C383 C380 1.539 . S
C383 H397 0.958 . S
C383 H398 0.961 . S
C383 H399 0.960 . S
H384 C368 0.931 . S
H385 C373 0.929 . S
H386 C374 0.960 . S
H387 C374 0.962 . S
H388 C374 0.960 . S
H389 C375 0.961 . S
H390 C375 0.961 . S
H391 C375 0.961 . S
H392 C376 0.931 . S
H393 C381 0.930 . S
H394 C382 0.956 . S
H395 C382 0.961 . S
H396 C382 0.961 . S
H397 C383 0.958 . S
H398 C383 0.961 . S
H399 C383 0.960 . S
C400 C401 1.391 . S
C400 C402 1.394 . S
C400 H416 0.931 . S
C401 C400 1.391 . S
C401 C405 1.376 . S
C402 C400 1.394 . S
C402 C403 1.369 . S
C402 C406 1.531 . S
C403 C402 1.369 . S
C403 C404 1.410 . S
C403 C411 1.503 . S
C404 C403 1.410 . S
C404 C405 1.392 . S
C404 C407 1.511 . S
C405 C401 1.376 . S
C405 C404 1.392 . S
C405 H417 0.929 . S
C406 C402 1.531 . S
C406 H418 0.960 . S
C406 H419 0.962 . S
C406 H420 0.960 . S
C407 C404 1.511 . S
C407 H421 0.961 . S
C407 H422 0.961 . S
C407 H423 0.961 . S
C408 C409 1.370 . S
C408 C410 1.363 . S
C408 H424 0.931 . S
C409 C408 1.370 . S
C409 C413 1.408 . S
C410 C408 1.363 . S
C410 C411 1.370 . S
C410 C414 1.524 . S
C411 C403 1.503 . S
C411 C410 1.370 . S
C411 C412 1.403 . S
C412 C411 1.403 . S
C412 C413 1.404 . S
C412 C415 1.539 . S
C413 C409 1.408 . S
C413 C412 1.404 . S
C413 H425 0.930 . S
C414 C410 1.524 . S
C414 H426 0.956 . S
C414 H427 0.961 . S
C414 H428 0.961 . S
C415 C412 1.539 . S
C415 H429 0.958 . S
C415 H430 0.961 . S
C415 H431 0.960 . S
H416 C400 0.931 . S
H417 C405 0.929 . S
H418 C406 0.960 . S
H419 C406 0.962 . S
H420 C406 0.960 . S
H421 C407 0.961 . S
H422 C407 0.961 . S
H423 C407 0.961 . S
H424 C408 0.931 . S
H425 C413 0.930 . S
H426 C414 0.956 . S
H427 C414 0.961 . S
H428 C414 0.961 . S
H429 C415 0.958 . S
H430 C415 0.961 . S
H431 C415 0.960 . S
C432 C433 1.391 . S
C432 C434 1.394 . S
C432 H448 0.931 . S
C433 C432 1.391 . S
C433 C437 1.376 . S
C434 C432 1.394 . S
C434 C435 1.369 . S
C434 C438 1.531 . S
C435 C434 1.369 . S
C435 C436 1.410 . S
C435 C443 1.503 . S
C436 C435 1.410 . S
C436 C437 1.392 . S
C436 C439 1.511 . S
C437 C433 1.376 . S
C437 C436 1.392 . S
C437 H449 0.929 . S
C438 C434 1.531 . S
C438 H450 0.960 . S
C438 H451 0.962 . S
C438 H452 0.960 . S
C439 C436 1.511 . S
C439 H453 0.961 . S
C439 H454 0.961 1_545 S
C439 H455 0.961 . S
C440 C441 1.370 . S
C440 C442 1.363 . S
C440 H456 0.931 . S
C441 C440 1.370 . S
C441 C445 1.408 1_565 S
C442 C440 1.363 . S
C442 C443 1.370 1_565 S
C442 C446 1.524 . S
C443 C435 1.503 . S
C443 C442 1.370 1_545 S
C443 C444 1.403 . S
C444 C443 1.403 . S
C444 C445 1.404 . S
C444 C447 1.539 . S
C445 C441 1.408 1_545 S
C445 C444 1.404 . S
C445 H457 0.930 . S
C446 C442 1.524 . S
C446 H458 0.956 . S
C446 H459 0.961 . S
C446 H460 0.961 . S
C447 C444 1.539 . S
C447 H461 0.958 . S
C447 H462 0.961 . S
C447 H463 0.960 . S
H448 C432 0.931 . S
H449 C437 0.929 . S
H450 C438 0.960 . S
H451 C438 0.962 . S
H452 C438 0.960 . S
H453 C439 0.961 . S
H454 C439 0.961 1_565 S
H455 C439 0.961 . S
H456 C440 0.931 . S
H457 C445 0.930 . S
H458 C446 0.956 . S
H459 C446 0.961 . S
H460 C446 0.961 . S
H461 C447 0.958 . S
H462 C447 0.961 . S
H463 C447 0.960 . S
C464 C465 1.391 . S
C464 C466 1.394 . S
C464 H480 0.931 . S
C465 C464 1.391 . S
C465 C469 1.376 . S
C466 C464 1.394 . S
C466 C467 1.369 . S
C466 C470 1.531 1_565 S
C467 C466 1.369 . S
C467 C468 1.410 . S
C467 C475 1.503 . S
C468 C467 1.410 . S
C468 C469 1.392 . S
C468 C471 1.511 . S
C469 C465 1.376 . S
C469 C468 1.392 . S
C469 H481 0.929 . S
C470 C466 1.531 1_545 S
C470 H482 0.960 . S
C470 H483 0.962 . S
C470 H484 0.960 . S
C471 C468 1.511 . S
C471 H485 0.961 . S
C471 H486 0.961 . S
C471 H487 0.961 . S
C472 C473 1.370 . S
C472 C474 1.363 1_545 S
C472 H488 0.931 . S
C473 C472 1.370 . S
C473 C477 1.408 . S
C474 C472 1.363 1_565 S
C474 C475 1.370 . S
C474 C478 1.524 . S
C475 C467 1.503 . S
C475 C474 1.370 . S
C475 C476 1.401 . S
C476 C475 1.401 . S
C476 C477 1.406 1_565 S
C476 C479 1.538 . S
C477 C473 1.408 . S
C477 C476 1.406 1_545 S
C477 H489 0.930 . S
C478 C474 1.524 . S
C478 H490 0.956 . S
C478 H491 0.961 . S
C478 H492 0.961 . S
C479 C476 1.538 . S
C479 H493 0.958 1_565 S
C479 H494 0.961 . S
C479 H495 0.960 . S
H480 C464 0.931 . S
H481 C469 0.929 . S
H482 C470 0.960 . S
H483 C470 0.962 . S
H484 C470 0.960 . S
H485 C471 0.961 . S
H486 C471 0.961 . S
H487 C471 0.961 . S
H488 C472 0.931 . S
H489 C477 0.930 . S
H490 C478 0.956 . S
H491 C478 0.961 . S
H492 C478 0.961 . S
H493 C479 0.958 1_545 S
H494 C479 0.961 . S
H495 C479 0.960 . S
C496 C497 1.391 . S
C496 C498 1.394 . S
C496 H512 0.931 . S
C497 C496 1.391 . S
C497 C501 1.376 . S
C498 C496 1.394 . S
C498 C499 1.369 . S
C498 C502 1.531 . S
C499 C498 1.369 . S
C499 C500 1.410 . S
C499 C507 1.503 . S
C500 C499 1.410 . S
C500 C501 1.392 . S
C500 C503 1.511 . S
C501 C497 1.376 . S
C501 C500 1.392 . S
C501 H513 0.929 . S
C502 C498 1.531 . S
C502 H514 0.960 . S
C502 H515 0.962 . S
C502 H516 0.960 . S
C503 C500 1.511 . S
C503 H517 0.961 . S
C503 H518 0.961 . S
C503 H519 0.961 . S
C504 C505 1.370 . S
C504 C506 1.363 . S
C504 H520 0.931 . S
C505 C504 1.370 . S
C505 C509 1.408 . S
C506 C504 1.363 . S
C506 C507 1.370 . S
C506 C510 1.524 . S
C507 C499 1.503 . S
C507 C506 1.370 . S
C507 C508 1.403 . S
C508 C507 1.403 . S
C508 C509 1.404 . S
C508 C511 1.539 . S
C509 C505 1.408 . S
C509 C508 1.404 . S
C509 H521 0.930 . S
C510 C506 1.524 . S
C510 H522 0.956 . S
C510 H523 0.961 . S
C510 H524 0.961 . S
C511 C508 1.539 . S
C511 H525 0.958 . S
C511 H526 0.961 . S
C511 H527 0.960 . S
H512 C496 0.931 . S
H513 C501 0.929 . S
H514 C502 0.960 . S
H515 C502 0.962 . S
H516 C502 0.960 . S
H517 C503 0.961 . S
H518 C503 0.961 . S
H519 C503 0.961 . S
H520 C504 0.931 . S
H521 C509 0.930 . S
H522 C510 0.956 . S
H523 C510 0.961 . S
H524 C510 0.961 . S
H525 C511 0.958 . S
H526 C511 0.961 . S
H527 C511 0.960 . S
C528 C529 1.391 . S
C528 C530 1.394 . S
C528 H544 0.931 . S
C529 C528 1.391 . S
C529 C533 1.376 . S
C530 C528 1.394 . S
C530 C531 1.369 . S
C530 C534 1.531 . S
C531 C530 1.369 . S
C531 C532 1.410 . S
C531 C539 1.503 . S
C532 C531 1.410 . S
C532 C533 1.392 . S
C532 C535 1.511 . S
C533 C529 1.376 . S
C533 C532 1.392 . S
C533 H545 0.929 . S
C534 C530 1.531 . S
C534 H546 0.960 . S
C534 H547 0.962 . S
C534 H548 0.960 . S
C535 C532 1.511 . S
C535 H549 0.961 . S
C535 H550 0.961 . S
C535 H551 0.961 . S
C536 C537 1.370 . S
C536 C538 1.363 . S
C536 H552 0.931 . S
C537 C536 1.370 . S
C537 C541 1.408 . S
C538 C536 1.363 . S
C538 C539 1.370 . S
C538 C542 1.524 . S
C539 C531 1.503 . S
C539 C538 1.370 . S
C539 C540 1.403 . S
C540 C539 1.403 . S
C540 C541 1.404 . S
C540 C543 1.539 . S
C541 C537 1.408 . S
C541 C540 1.404 . S
C541 H553 0.930 . S
C542 C538 1.524 . S
C542 H554 0.956 . S
C542 H555 0.961 . S
C542 H556 0.961 . S
C543 C540 1.539 . S
C543 H557 0.958 . S
C543 H558 0.961 . S
C543 H559 0.960 . S
H544 C528 0.931 . S
H545 C533 0.929 . S
H546 C534 0.960 . S
H547 C534 0.962 . S
H548 C534 0.960 . S
H549 C535 0.961 . S
H550 C535 0.961 . S
H551 C535 0.961 . S
H552 C536 0.931 . S
H553 C541 0.930 . S
H554 C542 0.956 . S
H555 C542 0.961 . S
H556 C542 0.961 . S
H557 C543 0.958 . S
H558 C543 0.961 . S
H559 C543 0.960 . S
C560 C561 1.391 . S
C560 C562 1.394 . S
C560 H576 0.931 . S
C561 C560 1.391 . S
C561 C565 1.376 . S
C562 C560 1.394 . S
C562 C563 1.369 . S
C562 C566 1.531 . S
C563 C562 1.369 . S
C563 C564 1.410 . S
C563 C571 1.503 . S
C564 C563 1.410 . S
C564 C565 1.392 . S
C564 C567 1.511 . S
C565 C561 1.376 . S
C565 C564 1.392 . S
C565 H577 0.929 . S
C566 C562 1.531 . S
C566 H578 0.960 . S
C566 H579 0.962 . S
C566 H580 0.960 . S
C567 C564 1.511 . S
C567 H581 0.961 . S
C567 H582 0.961 . S
C567 H583 0.961 . S
C568 C569 1.370 . S
C568 C570 1.363 . S
C568 H584 0.931 . S
C569 C568 1.370 . S
C569 C573 1.408 . S
C570 C568 1.363 . S
C570 C571 1.370 . S
C570 C574 1.524 . S
C571 C563 1.503 . S
C571 C570 1.370 . S
C571 C572 1.403 . S
C572 C571 1.403 . S
C572 C573 1.404 . S
C572 C575 1.539 . S
C573 C569 1.408 . S
C573 C572 1.404 . S
C573 H585 0.930 . S
C574 C570 1.524 . S
C574 H586 0.956 . S
C574 H587 0.961 . S
C574 H588 0.961 . S
C575 C572 1.539 . S
C575 H589 0.958 . S
C575 H590 0.961 . S
C575 H591 0.960 . S
H576 C560 0.931 . S
H577 C565 0.929 . S
H578 C566 0.960 . S
H579 C566 0.962 . S
H580 C566 0.960 . S
H581 C567 0.961 . S
H582 C567 0.961 . S
H583 C567 0.961 . S
H584 C568 0.931 . S
H585 C573 0.930 . S
H586 C574 0.956 . S
H587 C574 0.961 . S
H588 C574 0.961 . S
H589 C575 0.958 . S
H590 C575 0.961 . S
H591 C575 0.960 . S
C592 C593 1.391 . S
C592 C594 1.394 . S
C592 H608 0.931 . S
C593 C592 1.391 . S
C593 C597 1.376 . S
C594 C592 1.394 . S
C594 C595 1.369 . S
C594 C598 1.531 . S
C595 C594 1.369 . S
C595 C596 1.410 . S
C595 C603 1.503 . S
C596 C595 1.410 . S
C596 C597 1.392 . S
C596 C599 1.511 . S
C597 C593 1.376 . S
C597 C596 1.392 . S
C597 H609 0.929 . S
C598 C594 1.531 . S
C598 H610 0.960 . S
C598 H611 0.962 . S
C598 H612 0.960 . S
C599 C596 1.511 . S
C599 H613 0.961 . S
C599 H614 0.961 . S
C599 H615 0.961 . S
C600 C601 1.370 . S
C600 C602 1.363 1_455 S
C600 H616 0.931 . S
C601 C600 1.370 . S
C601 C605 1.408 . S
C602 C600 1.363 1_655 S
C602 C603 1.370 . S
C602 C606 1.524 . S
C603 C595 1.503 . S
C603 C602 1.370 . S
C603 C604 1.403 . S
C604 C603 1.403 . S
C604 C605 1.404 1_655 S
C604 C607 1.539 . S
C605 C601 1.408 . S
C605 C604 1.404 1_455 S
C605 H617 0.930 . S
C606 C602 1.524 . S
C606 H618 0.956 . S
C606 H619 0.961 . S
C606 H620 0.961 1_655 S
C607 C604 1.539 . S
C607 H621 0.958 . S
C607 H622 0.961 . S
C607 H623 0.960 . S
H608 C592 0.931 . S
H609 C597 0.929 . S
H610 C598 0.960 . S
H611 C598 0.962 . S
H612 C598 0.960 . S
H613 C599 0.961 . S
H614 C599 0.961 . S
H615 C599 0.961 . S
H616 C600 0.931 . S
H617 C605 0.930 . S
H618 C606 0.956 . S
H619 C606 0.961 . S
H620 C606 0.961 1_455 S
H621 C607 0.958 . S
H622 C607 0.961 . S
H623 C607 0.960 . S
C624 C625 1.391 . S
C624 C626 1.394 . S
C624 H640 0.931 . S
C625 C624 1.391 . S
C625 C629 1.376 . S
C626 C624 1.394 . S
C626 C627 1.369 . S
C626 C630 1.531 . S
C627 C626 1.369 . S
C627 C628 1.410 . S
C627 C635 1.503 . S
C628 C627 1.410 . S
C628 C629 1.392 . S
C628 C631 1.511 . S
C629 C625 1.376 . S
C629 C628 1.392 . S
C629 H641 0.929 . S
C630 C626 1.531 . S
C630 H642 0.960 . S
C630 H643 0.962 . S
C630 H644 0.960 . S
C631 C628 1.511 . S
C631 H645 0.961 . S
C631 H646 0.961 . S
C631 H647 0.961 . S
C632 C633 1.370 . S
C632 C634 1.363 1_655 S
C632 H648 0.931 . S
C633 C632 1.370 . S
C633 C637 1.408 . S
C634 C632 1.363 1_455 S
C634 C635 1.370 . S
C634 C638 1.524 . S
C635 C627 1.503 . S
C635 C634 1.370 . S
C635 C636 1.403 1_455 S
C636 C635 1.403 1_655 S
C636 C637 1.404 . S
C636 C639 1.539 1_655 S
C637 C633 1.408 . S
C637 C636 1.404 . S
C637 H649 0.930 . S
C638 C634 1.524 . S
C638 H650 0.956 . S
C638 H651 0.961 . S
C638 H652 0.961 . S
C639 C636 1.539 1_455 S
C639 H653 0.958 1_455 S
C639 H654 0.961 1_455 S
C639 H655 0.960 . S
H640 C624 0.931 . S
H641 C629 0.929 . S
H642 C630 0.960 . S
H643 C630 0.962 . S
H644 C630 0.960 . S
H645 C631 0.961 . S
H646 C631 0.961 . S
H647 C631 0.961 . S
H648 C632 0.931 . S
H649 C637 0.930 . S
H650 C638 0.956 . S
H651 C638 0.961 . S
H652 C638 0.961 . S
H653 C639 0.958 1_655 S
H654 C639 0.961 1_655 S
H655 C639 0.960 . S
C656 C657 1.391 . S
C656 C658 1.394 . S
C656 H672 0.931 . S
C657 C656 1.391 . S
C657 C661 1.376 . S
C658 C656 1.394 . S
C658 C659 1.369 . S
C658 C662 1.531 . S
C659 C658 1.369 . S
C659 C660 1.410 . S
C659 C667 1.503 . S
C660 C659 1.410 . S
C660 C661 1.392 . S
C660 C663 1.511 . S
C661 C657 1.376 . S
C661 C660 1.392 . S
C661 H673 0.929 . S
C662 C658 1.531 . S
C662 H674 0.960 . S
C662 H675 0.962 . S
C662 H676 0.960 . S
C663 C660 1.511 . S
C663 H677 0.961 . S
C663 H678 0.961 . S
C663 H679 0.961 . S
C664 C665 1.370 . S
C664 C666 1.363 . S
C664 H680 0.931 . S
C665 C664 1.370 . S
C665 C669 1.408 . S
C666 C664 1.363 . S
C666 C667 1.370 . S
C666 C670 1.524 . S
C667 C659 1.503 . S
C667 C666 1.370 . S
C667 C668 1.403 . S
C668 C667 1.403 . S
C668 C669 1.404 . S
C668 C671 1.539 . S
C669 C665 1.408 . S
C669 C668 1.404 . S
C669 H681 0.930 . S
C670 C666 1.524 . S
C670 H682 0.956 . S
C670 H683 0.961 . S
C670 H684 0.961 . S
C671 C668 1.539 . S
C671 H685 0.958 . S
C671 H686 0.961 . S
C671 H687 0.960 . S
H672 C656 0.931 . S
H673 C661 0.929 . S
H674 C662 0.960 . S
H675 C662 0.962 . S
H676 C662 0.960 . S
H677 C663 0.961 . S
H678 C663 0.961 . S
H679 C663 0.961 . S
H680 C664 0.931 . S
H681 C669 0.930 . S
H682 C670 0.956 . S
H683 C670 0.961 . S
H684 C670 0.961 . S
H685 C671 0.958 . S
H686 C671 0.961 . S
H687 C671 0.960 . S
C688 C689 1.391 . S
C688 C690 1.394 . S
C688 H704 0.931 . S
C689 C688 1.391 . S
C689 C693 1.376 . S
C690 C688 1.394 . S
C690 C691 1.369 . S
C690 C694 1.531 . S
C691 C690 1.369 . S
C691 C692 1.410 . S
C691 C699 1.503 . S
C692 C691 1.410 . S
C692 C693 1.392 . S
C692 C695 1.511 . S
C693 C689 1.376 . S
C693 C692 1.392 . S
C693 H705 0.929 . S
C694 C690 1.531 . S
C694 H706 0.960 . S
C694 H707 0.962 . S
C694 H708 0.960 . S
C695 C692 1.511 . S
C695 H709 0.961 . S
C695 H710 0.961 . S
C695 H711 0.961 . S
C696 C697 1.370 . S
C696 C698 1.363 . S
C696 H712 0.931 . S
C697 C696 1.370 . S
C697 C701 1.408 . S
C698 C696 1.363 . S
C698 C699 1.370 . S
C698 C702 1.524 . S
C699 C691 1.503 . S
C699 C698 1.370 . S
C699 C700 1.403 . S
C700 C699 1.403 . S
C700 C701 1.404 . S
C700 C703 1.539 . S
C701 C697 1.408 . S
C701 C700 1.404 . S
C701 H713 0.930 . S
C702 C698 1.524 . S
C702 H714 0.956 . S
C702 H715 0.961 . S
C702 H716 0.961 . S
C703 C700 1.539 . S
C703 H717 0.958 . S
C703 H718 0.961 . S
C703 H719 0.960 . S
H704 C688 0.931 . S
H705 C693 0.929 . S
H706 C694 0.960 . S
H707 C694 0.962 . S
H708 C694 0.960 . S
H709 C695 0.961 . S
H710 C695 0.961 . S
H711 C695 0.961 . S
H712 C696 0.931 . S
H713 C701 0.930 . S
H714 C702 0.956 . S
H715 C702 0.961 . S
H716 C702 0.961 . S
H717 C703 0.958 . S
H718 C703 0.961 . S
H719 C703 0.960 . S
C720 C721 1.391 . S
C720 C722 1.394 . S
C720 H736 0.931 . S
C721 C720 1.391 . S
C721 C725 1.376 . S
C722 C720 1.394 . S
C722 C723 1.369 . S
C722 C726 1.531 . S
C723 C722 1.369 . S
C723 C724 1.410 . S
C723 C731 1.503 . S
C724 C723 1.410 . S
C724 C725 1.392 . S
C724 C727 1.511 . S
C725 C721 1.376 . S
C725 C724 1.392 . S
C725 H737 0.929 . S
C726 C722 1.531 . S
C726 H738 0.960 . S
C726 H739 0.962 . S
C726 H740 0.960 . S
C727 C724 1.511 . S
C727 H741 0.961 . S
C727 H742 0.961 . S
C727 H743 0.961 . S
C728 C729 1.370 . S
C728 C730 1.363 1_655 S
C728 H744 0.931 . S
C729 C728 1.370 . S
C729 C733 1.408 . S
C730 C728 1.363 1_455 S
C730 C731 1.370 . S
C730 C734 1.524 . S
C731 C723 1.503 . S
C731 C730 1.370 . S
C731 C732 1.403 . S
C732 C731 1.403 . S
C732 C733 1.404 1_455 S
C732 C735 1.539 . S
C733 C729 1.408 . S
C733 C732 1.404 1_655 S
C733 H745 0.930 . S
C734 C730 1.524 . S
C734 H746 0.956 . S
C734 H747 0.961 . S
C734 H748 0.961 1_455 S
C735 C732 1.539 . S
C735 H749 0.958 . S
C735 H750 0.961 . S
C735 H751 0.960 . S
H736 C720 0.931 . S
H737 C725 0.929 . S
H738 C726 0.960 . S
H739 C726 0.962 . S
H740 C726 0.960 . S
H741 C727 0.961 . S
H742 C727 0.961 . S
H743 C727 0.961 . S
H744 C728 0.931 . S
H745 C733 0.930 . S
H746 C734 0.956 . S
H747 C734 0.961 . S
H748 C734 0.961 1_655 S
H749 C735 0.958 . S
H750 C735 0.961 . S
H751 C735 0.960 . S
C752 C753 1.391 . S
C752 C754 1.394 1_455 S
C752 H768 0.931 . S
C753 C752 1.391 . S
C753 C757 1.376 . S
C754 C752 1.394 1_655 S
C754 C755 1.369 . S
C754 C758 1.531 . S
C755 C754 1.369 . S
C755 C756 1.409 1_655 S
C755 C763 1.503 . S
C756 C755 1.409 1_455 S
C756 C757 1.393 . S
C756 C759 1.511 1_455 S
C757 C753 1.376 . S
C757 C756 1.393 . S
C757 H769 0.929 . S
C758 C754 1.531 . S
C758 H770 0.960 . S
C758 H771 0.962 . S
C758 H772 0.960 . S
C759 C756 1.511 1_655 S
C759 H773 0.961 1_655 S
C759 H774 0.961 . S
C759 H775 0.961 . S
C760 C761 1.370 . S
C760 C762 1.363 . S
C760 H776 0.931 . S
C761 C760 1.370 . S
C761 C765 1.408 . S
C762 C760 1.363 . S
C762 C763 1.370 . S
C762 C766 1.524 . S
C763 C755 1.503 . S
C763 C762 1.370 . S
C763 C764 1.403 . S
C764 C763 1.403 . S
C764 C765 1.404 . S
C764 C767 1.539 . S
C765 C761 1.408 . S
C765 C764 1.404 . S
C765 H777 0.930 . S
C766 C762 1.524 . S
C766 H778 0.956 . S
C766 H779 0.961 . S
C766 H780 0.961 . S
C767 C764 1.539 . S
C767 H781 0.958 . S
C767 H782 0.961 . S
C767 H783 0.960 . S
H768 C752 0.931 . S
H769 C757 0.929 . S
H770 C758 0.960 . S
H771 C758 0.962 . S
H772 C758 0.960 . S
H773 C759 0.961 1_455 S
H774 C759 0.961 . S
H775 C759 0.961 . S
H776 C760 0.931 . S
H777 C765 0.930 . S
H778 C766 0.956 . S
H779 C766 0.961 . S
H780 C766 0.961 . S
H781 C767 0.958 . S
H782 C767 0.961 . S
H783 C767 0.960 . S
C784 C785 1.391 . S
C784 C786 1.394 . S
C784 H800 0.931 . S
C785 C784 1.391 . S
C785 C789 1.376 . S
C786 C784 1.394 . S
C786 C787 1.369 . S
C786 C790 1.531 . S
C787 C786 1.369 . S
C787 C788 1.410 . S
C787 C795 1.503 . S
C788 C787 1.410 . S
C788 C789 1.392 . S
C788 C791 1.511 . S
C789 C785 1.376 . S
C789 C788 1.392 . S
C789 H801 0.929 . S
C790 C786 1.531 . S
C790 H802 0.960 . S
C790 H803 0.962 . S
C790 H804 0.960 . S
C791 C788 1.511 . S
C791 H805 0.961 . S
C791 H806 0.961 . S
C791 H807 0.961 . S
C792 C793 1.370 . S
C792 C794 1.363 . S
C792 H808 0.931 . S
C793 C792 1.370 . S
C793 C797 1.408 . S
C794 C792 1.363 . S
C794 C795 1.370 . S
C794 C798 1.524 . S
C795 C787 1.503 . S
C795 C794 1.370 . S
C795 C796 1.403 . S
C796 C795 1.403 . S
C796 C797 1.404 . S
C796 C799 1.539 . S
C797 C793 1.408 . S
C797 C796 1.404 . S
C797 H809 0.930 . S
C798 C794 1.524 . S
C798 H810 0.956 . S
C798 H811 0.961 . S
C798 H812 0.961 . S
C799 C796 1.539 . S
C799 H813 0.958 . S
C799 H814 0.961 . S
C799 H815 0.960 . S
H800 C784 0.931 . S
H801 C789 0.929 . S
H802 C790 0.960 . S
H803 C790 0.962 . S
H804 C790 0.960 . S
H805 C791 0.961 . S
H806 C791 0.961 . S
H807 C791 0.961 . S
H808 C792 0.931 . S
H809 C797 0.930 . S
H810 C798 0.956 . S
H811 C798 0.961 . S
H812 C798 0.961 . S
H813 C799 0.958 . S
H814 C799 0.961 . S
H815 C799 0.960 . S
C816 C817 1.391 . S
C816 C818 1.394 . S
C816 H832 0.931 . S
C817 C816 1.391 . S
C817 C821 1.376 . S
C818 C816 1.394 . S
C818 C819 1.369 . S
C818 C822 1.531 . S
C819 C818 1.369 . S
C819 C820 1.410 . S
C819 C827 1.503 . S
C820 C819 1.410 . S
C820 C821 1.392 . S
C820 C823 1.511 . S
C821 C817 1.376 . S
C821 C820 1.392 . S
C821 H833 0.929 . S
C822 C818 1.531 . S
C822 H834 0.960 . S
C822 H835 0.962 . S
C822 H836 0.960 . S
C823 C820 1.511 . S
C823 H837 0.961 . S
C823 H838 0.961 . S
C823 H839 0.961 . S
C824 C825 1.370 . S
C824 C826 1.363 . S
C824 H840 0.931 . S
C825 C824 1.370 . S
C825 C829 1.408 . S
C826 C824 1.363 . S
C826 C827 1.370 . S
C826 C830 1.524 . S
C827 C819 1.503 . S
C827 C826 1.370 . S
C827 C828 1.403 . S
C828 C827 1.403 . S
C828 C829 1.404 . S
C828 C831 1.539 . S
C829 C825 1.408 . S
C829 C828 1.404 . S
C829 H841 0.930 . S
C830 C826 1.524 . S
C830 H842 0.956 . S
C830 H843 0.961 . S
C830 H844 0.961 . S
C831 C828 1.539 . S
C831 H845 0.958 . S
C831 H846 0.961 . S
C831 H847 0.960 . S
H832 C816 0.931 . S
H833 C821 0.929 . S
H834 C822 0.960 . S
H835 C822 0.962 . S
H836 C822 0.960 . S
H837 C823 0.961 . S
H838 C823 0.961 . S
H839 C823 0.961 . S
H840 C824 0.931 . S
H841 C829 0.930 . S
H842 C830 0.956 . S
H843 C830 0.961 . S
H844 C830 0.961 . S
H845 C831 0.958 . S
H846 C831 0.961 . S
H847 C831 0.960 . S
C848 C849 1.391 . S
C848 C850 1.394 . S
C848 H864 0.931 . S
C849 C848 1.391 . S
C849 C853 1.376 . S
C850 C848 1.394 . S
C850 C851 1.369 . S
C850 C854 1.531 . S
C851 C850 1.369 . S
C851 C852 1.410 . S
C851 C859 1.503 . S
C852 C851 1.410 . S
C852 C853 1.392 . S
C852 C855 1.511 . S
C853 C849 1.376 . S
C853 C852 1.392 . S
C853 H865 0.929 . S
C854 C850 1.531 . S
C854 H866 0.960 . S
C854 H867 0.962 . S
C854 H868 0.960 . S
C855 C852 1.511 . S
C855 H869 0.961 . S
C855 H870 0.961 . S
C855 H871 0.961 . S
C856 C857 1.370 . S
C856 C858 1.363 . S
C856 H872 0.931 . S
C857 C856 1.370 . S
C857 C861 1.408 . S
C858 C856 1.363 . S
C858 C859 1.370 . S
C858 C862 1.524 . S
C859 C851 1.503 . S
C859 C858 1.370 . S
C859 C860 1.403 . S
C860 C859 1.403 . S
C860 C861 1.404 . S
C860 C863 1.539 . S
C861 C857 1.408 . S
C861 C860 1.404 . S
C861 H873 0.930 . S
C862 C858 1.524 . S
C862 H874 0.956 . S
C862 H875 0.961 . S
C862 H876 0.961 . S
C863 C860 1.539 . S
C863 H877 0.958 . S
C863 H878 0.961 . S
C863 H879 0.960 . S
H864 C848 0.931 . S
H865 C853 0.929 . S
H866 C854 0.960 . S
H867 C854 0.962 . S
H868 C854 0.960 . S
H869 C855 0.961 . S
H870 C855 0.961 . S
H871 C855 0.961 . S
H872 C856 0.931 . S
H873 C861 0.930 . S
H874 C862 0.956 . S
H875 C862 0.961 . S
H876 C862 0.961 . S
H877 C863 0.958 . S
H878 C863 0.961 . S
H879 C863 0.960 . S
C880 C881 1.391 . S
C880 C882 1.394 . S
C880 H896 0.931 . S
C881 C880 1.391 . S
C881 C885 1.376 . S
C882 C880 1.394 . S
C882 C883 1.369 . S
C882 C886 1.531 . S
C883 C882 1.369 . S
C883 C884 1.410 . S
C883 C891 1.503 . S
C884 C883 1.410 . S
C884 C885 1.392 . S
C884 C887 1.511 . S
C885 C881 1.376 . S
C885 C884 1.392 . S
C885 H897 0.929 . S
C886 C882 1.531 . S
C886 H898 0.960 . S
C886 H899 0.962 . S
C886 H900 0.960 . S
C887 C884 1.511 . S
C887 H901 0.961 . S
C887 H902 0.961 . S
C887 H903 0.961 . S
C888 C889 1.370 . S
C888 C890 1.363 . S
C888 H904 0.931 . S
C889 C888 1.370 . S
C889 C893 1.408 . S
C890 C888 1.363 . S
C890 C891 1.370 . S
C890 C894 1.524 . S
C891 C883 1.503 . S
C891 C890 1.370 . S
C891 C892 1.403 . S
C892 C891 1.403 . S
C892 C893 1.404 . S
C892 C895 1.539 . S
C893 C889 1.408 . S
C893 C892 1.404 . S
C893 H905 0.930 . S
C894 C890 1.524 . S
C894 H906 0.956 . S
C894 H907 0.961 . S
C894 H908 0.961 . S
C895 C892 1.539 . S
C895 H909 0.958 . S
C895 H910 0.961 . S
C895 H911 0.960 . S
H896 C880 0.931 . S
H897 C885 0.929 . S
H898 C886 0.960 . S
H899 C886 0.962 . S
H900 C886 0.960 . S
H901 C887 0.961 . S
H902 C887 0.961 . S
H903 C887 0.961 . S
H904 C888 0.931 . S
H905 C893 0.930 . S
H906 C894 0.956 . S
H907 C894 0.961 . S
H908 C894 0.961 . S
H909 C895 0.958 . S
H910 C895 0.961 . S
H911 C895 0.960 . S
C912 C913 1.391 . S
C912 C914 1.394 . S
C912 H928 0.931 . S
C913 C912 1.391 . S
C913 C917 1.376 . S
C914 C912 1.394 . S
C914 C915 1.369 . S
C914 C918 1.531 . S
C915 C914 1.369 . S
C915 C916 1.410 . S
C915 C923 1.503 . S
C916 C915 1.410 . S
C916 C917 1.392 . S
C916 C919 1.511 . S
C917 C913 1.376 . S
C917 C916 1.392 . S
C917 H929 0.929 . S
C918 C914 1.531 . S
C918 H930 0.960 . S
C918 H931 0.962 . S
C918 H932 0.960 . S
C919 C916 1.511 . S
C919 H933 0.961 . S
C919 H934 0.961 . S
C919 H935 0.961 . S
C920 C921 1.370 . S
C920 C922 1.363 . S
C920 H936 0.931 . S
C921 C920 1.370 . S
C921 C925 1.408 . S
C922 C920 1.363 . S
C922 C923 1.370 . S
C922 C926 1.524 . S
C923 C915 1.503 . S
C923 C922 1.370 . S
C923 C924 1.403 . S
C924 C923 1.403 . S
C924 C925 1.404 . S
C924 C927 1.539 . S
C925 C921 1.408 . S
C925 C924 1.404 . S
C925 H937 0.930 . S
C926 C922 1.524 . S
C926 H938 0.956 . S
C926 H939 0.961 . S
C926 H940 0.961 . S
C927 C924 1.539 . S
C927 H941 0.958 . S
C927 H942 0.961 . S
C927 H943 0.960 . S
H928 C912 0.931 . S
H929 C917 0.929 . S
H930 C918 0.960 . S
H931 C918 0.962 . S
H932 C918 0.960 . S
H933 C919 0.961 . S
H934 C919 0.961 . S
H935 C919 0.961 . S
H936 C920 0.931 . S
H937 C925 0.930 . S
H938 C926 0.956 . S
H939 C926 0.961 . S
H940 C926 0.961 . S
H941 C927 0.958 . S
H942 C927 0.961 . S
H943 C927 0.960 . S
C177 C95 1.025 . S
C185 C21 1.022 . S
C209 C125 1.074 . S
C217 C43 1.002 . S
C241 C147 0.992 . S
C249 C65 1.037 . S
C273 C81 1.006 . S
C281 C161 1.034 . S
C305 C7 1.607 . S
C313 C30 1.566 1_554 S
C337 C29 1.595 . S
C345 C8 1.538 . S
C369 C76 1.516 . S
C377 C51 1.592 . S
C401 C52 1.570 1_556 S
C409 C87 1.594 . S
C433 C120 1.585 1_556 S
C441 C109 1.600 . S
C465 C106 1.565 . S
C473 C117 1.613 . S
C497 C139 1.592 . S
C505 C172 1.550 . S
C529 C142 1.580 1_554 S
C537 C175 1.598 . S
C561 C15 1.405 . S
C569 C128 1.400 . S
C593 C96 1.386 . S
C601 C37 1.413 . S
C625 C162 1.408 . S
C633 C59 1.409 . S
C657 C150 1.414 . S
C665 C73 1.418 . S
C689 C103 1.417 . S
C697 C40 1.395 . S
C721 C18 1.385 . S
C729 C131 1.420 . S
C753 C153 1.425 . S
C761 C74 1.401 . S
C785 C169 1.399 . S
C793 C62 1.404 . S
C817 C10 1.421 . S
C825 C164 1.426 . S
C849 C32 1.433 . S
C857 C140 1.433 . S
C881 C118 1.413 . S
C889 C54 1.430 . S
C913 C98 1.413 . S
C921 C84 1.430 . S
