# Generated by pormake.
# Topology sod-e, (6)-cn, num edge types: 1
# Building blocks:
#     Node 0, Type 0, BuildingBlock: IZENUY_clean_sbu_0, # of connection points: 6
#     Node 1, Type 0, BuildingBlock: IZENUY_clean_sbu_0, # of connection points: 6
#     Node 2, Type 0, BuildingBlock: IZENUY_clean_sbu_0, # of connection points: 6
#     Node 3, Type 0, BuildingBlock: IZENUY_clean_sbu_0, # of connection points: 6
#     Node 4, Type 0, BuildingBlock: IZENUY_clean_sbu_0, # of connection points: 6
#     Node 5, Type 0, BuildingBlock: IZENUY_clean_sbu_0, # of connection points: 6
#     Node 6, Type 0, BuildingBlock: IZENUY_clean_sbu_0, # of connection points: 6
#     Node 7, Type 0, BuildingBlock: IZENUY_clean_sbu_0, # of connection points: 6
#     Node 8, Type 0, BuildingBlock: IZENUY_clean_sbu_0, # of connection points: 6
#     Node 9, Type 0, BuildingBlock: IZENUY_clean_sbu_0, # of connection points: 6
#     Node 10, Type 0, BuildingBlock: IZENUY_clean_sbu_0, # of connection points: 6
#     Node 11, Type 0, BuildingBlock: IZENUY_clean_sbu_0, # of connection points: 6
#     Node 12, Type 0, BuildingBlock: IZENUY_clean_sbu_0, # of connection points: 6
#     Node 13, Type 0, BuildingBlock: IZENUY_clean_sbu_0, # of connection points: 6
#     Node 14, Type 0, BuildingBlock: IZENUY_clean_sbu_0, # of connection points: 6
#     Node 15, Type 0, BuildingBlock: IZENUY_clean_sbu_0, # of connection points: 6
#     Node 16, Type 0, BuildingBlock: IZENUY_clean_sbu_0, # of connection points: 6
#     Node 17, Type 0, BuildingBlock: IZENUY_clean_sbu_0, # of connection points: 6
#     Node 18, Type 0, BuildingBlock: IZENUY_clean_sbu_0, # of connection points: 6
#     Node 19, Type 0, BuildingBlock: IZENUY_clean_sbu_0, # of connection points: 6
#     Node 20, Type 0, BuildingBlock: IZENUY_clean_sbu_0, # of connection points: 6
#     Node 21, Type 0, BuildingBlock: IZENUY_clean_sbu_0, # of connection points: 6
#     Node 22, Type 0, BuildingBlock: IZENUY_clean_sbu_0, # of connection points: 6
#     Node 23, Type 0, BuildingBlock: IZENUY_clean_sbu_0, # of connection points: 6
#     Edge 24, Type (0, 0), None
#     Edge 25, Type (0, 0), None
#     Edge 26, Type (0, 0), None
#     Edge 27, Type (0, 0), None
#     Edge 28, Type (0, 0), None
#     Edge 29, Type (0, 0), None
#     Edge 30, Type (0, 0), None
#     Edge 31, Type (0, 0), None
#     Edge 32, Type (0, 0), None
#     Edge 33, Type (0, 0), None
#     Edge 34, Type (0, 0), None
#     Edge 35, Type (0, 0), None
#     Edge 36, Type (0, 0), None
#     Edge 37, Type (0, 0), None
#     Edge 38, Type (0, 0), None
#     Edge 39, Type (0, 0), None
#     Edge 40, Type (0, 0), None
#     Edge 41, Type (0, 0), None
#     Edge 42, Type (0, 0), None
#     Edge 43, Type (0, 0), None
#     Edge 44, Type (0, 0), None
#     Edge 45, Type (0, 0), None
#     Edge 46, Type (0, 0), None
#     Edge 47, Type (0, 0), None
#     Edge 48, Type (0, 0), None
#     Edge 49, Type (0, 0), None
#     Edge 50, Type (0, 0), None
#     Edge 51, Type (0, 0), None
#     Edge 52, Type (0, 0), None
#     Edge 53, Type (0, 0), None
#     Edge 54, Type (0, 0), None
#     Edge 55, Type (0, 0), None
#     Edge 56, Type (0, 0), None
#     Edge 57, Type (0, 0), None
#     Edge 58, Type (0, 0), None
#     Edge 59, Type (0, 0), None
#     Edge 60, Type (0, 0), None
#     Edge 61, Type (0, 0), None
#     Edge 62, Type (0, 0), None
#     Edge 63, Type (0, 0), None
#     Edge 64, Type (0, 0), None
#     Edge 65, Type (0, 0), None
#     Edge 66, Type (0, 0), None
#     Edge 67, Type (0, 0), None
#     Edge 68, Type (0, 0), None
#     Edge 69, Type (0, 0), None
#     Edge 70, Type (0, 0), None
#     Edge 71, Type (0, 0), None
#     Edge 72, Type (0, 0), None
#     Edge 73, Type (0, 0), None
#     Edge 74, Type (0, 0), None
#     Edge 75, Type (0, 0), None
#     Edge 76, Type (0, 0), None
#     Edge 77, Type (0, 0), None
#     Edge 78, Type (0, 0), None
#     Edge 79, Type (0, 0), None
#     Edge 80, Type (0, 0), None
#     Edge 81, Type (0, 0), None
#     Edge 82, Type (0, 0), None
#     Edge 83, Type (0, 0), None
#     Edge 84, Type (0, 0), None
#     Edge 85, Type (0, 0), None
#     Edge 86, Type (0, 0), None
#     Edge 87, Type (0, 0), None
#     Edge 88, Type (0, 0), None
#     Edge 89, Type (0, 0), None
#     Edge 90, Type (0, 0), None
#     Edge 91, Type (0, 0), None
#     Edge 92, Type (0, 0), None
#     Edge 93, Type (0, 0), None
#     Edge 94, Type (0, 0), None
#     Edge 95, Type (0, 0), None
# Relax obj value: 0.473
# Max RMSD: 0.287
# Mean RMSD: 0.284
data_MOF--net-sod-e--node1-IZENUY_clean_sbu_0--edge1-none
_symmetry_space_group_name_H-M    P1
_symmetry_Int_Tables_number       1
_symmetry_cell_setting            triclinic
loop_
_symmetry_equiv_pos_as_xyz
'x, y, z'
_cell_length_a     24.078629
_cell_length_b     24.097464
_cell_length_c     24.156459
_cell_angle_alpha  89.899179
_cell_angle_beta   89.992831
_cell_angle_gamma 90.103671
loop_
_atom_site_label
_atom_site_type_symbol
_atom_site_fract_x
_atom_site_fract_y
_atom_site_fract_z
_atom_type_partial_charge
Fe0 Fe 0.99189 0.2983 0.29659 0.0
Fe1 Fe 0.92623 0.37721 0.37057 0.0
O2 O 0.99115 0.34906 0.34652 0.0
Fe3 Fe 0.05526 0.37374 0.37515 0.0
O4 O 0.08103 0.40186 0.31198 0.0
O5 O 0.05497 0.33129 0.2593 0.0
O6 O 0.94861 0.34175 0.24964 0.0
C7 C 0.90316 0.36707 0.25962 0.0
C8 C 0.08027 0.26283 0.36654 0.0
O9 O 0.88493 0.36806 0.30803 0.0
C10 C 0.98965 0.36247 0.46256 0.0
O11 O 0.9291 0.26018 0.32903 0.0
O12 O 0.9018 0.3132 0.39878 0.0
O13 O 0.09765 0.31165 0.36767 0.0
O14 O 0.03521 0.25204 0.34083 0.0
C15 C 0.99207 0.46457 0.35645 0.0
O16 O 0.95393 0.3915 0.4381 0.0
O17 O 0.03309 0.34656 0.43924 0.0
C18 C 0.90025 0.26766 0.3741 0.0
O19 O 0.94688 0.44249 0.34364 0.0
O20 O 0.02626 0.44084 0.38771 0.0
C21 C 0.08379 0.37654 0.26705 0.0
Fe22 Fe 0.61258 0.05555 0.37522 0.0
Fe23 Fe 0.60861 0.92669 0.37046 0.0
O24 O 0.63708 0.99155 0.34651 0.0
Fe25 Fe 0.68806 0.99236 0.29659 0.0
O26 O 0.73439 0.03538 0.34119 0.0
O27 O 0.67492 0.0978 0.36781 0.0
O28 O 0.63937 0.03333 0.43948 0.0
C29 C 0.62323 0.98978 0.46262 0.0
C30 C 0.61028 0.084 0.26698 0.0
O31 O 0.59426 0.95415 0.43797 0.0
C32 C 0.61892 0.90397 0.25945 0.0
O33 O 0.54524 0.02668 0.38776 0.0
O34 O 0.54336 0.9474 0.34362 0.0
O35 O 0.65557 0.05544 0.25938 0.0
O36 O 0.58482 0.08131 0.31193 0.0
C37 C 0.71802 0.90049 0.37372 0.0
O38 O 0.61781 0.88572 0.30787 0.0
O39 O 0.6445 0.94935 0.24939 0.0
C40 C 0.52131 0.99238 0.35681 0.0
O41 O 0.67253 0.9022 0.3986 0.0
O42 O 0.72572 0.92945 0.32875 0.0
C43 C 0.72363 0.08022 0.36715 0.0
Fe44 Fe 0.93052 0.61268 0.37472 0.0
Fe45 Fe -0.0064 0.68834 0.29581 0.0
O46 O -0.0055 0.63736 0.34575 0.0
Fe47 Fe 0.05947 0.60902 0.36946 0.0
O48 O 0.03863 0.54378 0.34269 0.0
O49 O 0.95942 0.54552 0.3872 0.0
O50 O 0.90452 0.58488 0.31159 0.0
C51 C 0.90207 0.61015 0.2665 0.0
C52 C -0.00334 0.62334 0.46184 0.0
O53 O 0.93062 0.65553 0.25874 0.0
C54 C 0.08546 0.71854 0.37291 0.0
O55 O 0.88811 0.67478 0.36747 0.0
O56 O 0.9504 0.73449 0.34036 0.0
O57 O 0.0322 0.59443 0.43712 0.0
O58 O 0.95312 0.63953 0.43876 0.0
C59 C 0.08194 0.61943 0.25843 0.0
O60 O 0.05648 0.72625 0.32797 0.0
O61 O 0.08403 0.6729 0.39755 0.0
C62 C 0.90547 0.7236 0.36636 0.0
O63 O 0.0366 0.64497 0.24851 0.0
O64 O 0.10036 0.61854 0.30675 0.0
C65 C -0.00644 0.52169 0.35606 0.0
Fe66 Fe 0.37684 0.05946 0.37029 0.0
Fe67 Fe 0.29767 -0.006 0.29614 0.0
O68 O 0.34844 -0.0053 0.34631 0.0
Fe69 Fe 0.3729 0.93068 0.37506 0.0
O70 O 0.34586 0.95263 0.43927 0.0
O71 O 0.39094 0.0319 0.43804 0.0
O72 O 0.31282 0.08377 0.39812 0.0
C73 C 0.26747 0.08568 0.37302 0.0
C74 C 0.46415 -0.00617 0.35681 0.0
O75 O 0.25994 0.05692 0.32799 0.0
C76 C 0.37566 0.9028 0.26684 0.0
O77 O 0.36783 0.10039 0.30745 0.0
O78 O 0.34154 0.03674 0.2491 0.0
O79 O 0.44018 0.95953 0.38786 0.0
O80 O 0.4422 0.03892 0.34372 0.0
C81 C 0.26187 0.90603 0.36632 0.0
O82 O 0.3302 0.93105 0.25916 0.0
O83 O 0.40092 0.90532 0.31188 0.0
C84 C 0.36729 0.0819 0.25916 0.0
O85 O 0.25116 0.95102 0.34052 0.0
O86 O 0.31061 0.8885 0.36727 0.0
C87 C 0.36236 -0.0042 0.4627 0.0
Fe88 Fe 0.06004 0.60904 0.61194 0.0
Fe89 Fe 0.93096 0.61075 0.60633 0.0
O90 O -0.00567 0.63664 0.63536 0.0
Fe91 Fe 0.99201 0.68743 0.68541 0.0
O92 O 0.05296 0.72633 0.65322 0.0
O93 O 0.08459 0.67357 0.58486 0.0
O94 O 0.03313 0.59506 0.54398 0.0
C95 C -0.00314 0.62331 0.51935 0.0
C96 C 0.08255 0.6189 0.72286 0.0
O97 O 0.95292 0.6382 0.54238 0.0
C98 C 0.90252 0.60842 0.71453 0.0
O99 O 0.03967 0.54319 0.6383 0.0
O100 O 0.96093 0.54443 0.59371 0.0
O101 O 0.03682 0.64435 0.73259 0.0
O102 O 0.10084 0.61796 0.67459 0.0
C103 C 0.90229 0.72083 0.61468 0.0
O104 O 0.90561 0.58276 0.66971 0.0
O105 O 0.93032 0.65387 0.72242 0.0
C106 C -0.00558 0.52105 0.62571 0.0
O107 O 0.88729 0.67137 0.61315 0.0
O108 O 0.94657 0.7335 0.64132 0.0
C109 C 0.08343 0.71918 0.60952 0.0
Fe110 Fe 0.37417 0.92928 0.60797 0.0
Fe111 Fe 0.37714 0.05872 0.61237 0.0
O112 O 0.34872 -0.00664 0.63619 0.0
Fe113 Fe 0.29743 0.99211 0.68581 0.0
O114 O 0.3306 0.93138 0.72395 0.0
O115 O 0.40113 0.90337 0.672 0.0
O116 O 0.44083 0.95869 0.59575 0.0
C117 C 0.46432 -0.00739 0.62718 0.0
C118 C 0.26379 0.90209 0.61532 0.0
O119 O 0.44246 0.03799 0.63935 0.0
C120 C 0.26712 0.08315 0.60897 0.0
O121 O 0.34788 0.95116 0.54333 0.0
O122 O 0.39155 0.0312 0.54487 0.0
O123 O 0.2514 0.94646 0.64181 0.0
O124 O 0.31297 0.88641 0.61451 0.0
C125 C 0.3664 0.08248 0.72302 0.0
O126 O 0.31301 0.08374 0.58457 0.0
O127 O 0.25924 0.05279 0.65266 0.0
C128 C 0.36302 -0.00484 0.5203 0.0
O129 O 0.36826 0.10019 0.67454 0.0
O130 O 0.34026 0.03714 0.73294 0.0
C131 C 0.37531 0.90231 0.71697 0.0
Fe132 Fe 0.05619 0.3742 0.60683 0.0
Fe133 Fe -0.00452 0.29727 0.68617 0.0
O134 O -0.00706 0.34822 0.6361 0.0
Fe135 Fe 0.92713 0.37586 0.61295 0.0
O136 O 0.95365 0.39014 0.54492 0.0
O137 O 0.03389 0.347 0.54289 0.0
O138 O 0.09982 0.31354 0.61356 0.0
C139 C 0.08471 0.26412 0.61497 0.0
C140 C 0.99273 0.46393 0.62604 0.0
O141 O 0.04057 0.25133 0.64181 0.0
C142 C 0.90545 0.36579 0.72392 0.0
O143 O 0.08183 0.40205 0.6702 0.0
O144 O 0.05741 0.33074 0.72299 0.0
O145 O 0.9476 0.44172 0.63911 0.0
O146 O 0.02623 0.44051 0.59419 0.0
C147 C 0.90341 0.26574 0.61072 0.0
O148 O 0.95111 0.34027 0.73357 0.0
O149 O 0.88681 0.36655 0.6758 0.0
C150 C 0.08506 0.37634 0.7151 0.0
O151 O 0.93419 0.25846 0.65427 0.0
O152 O 0.9024 0.3114 0.58597 0.0
C153 C 0.98981 0.36206 0.52008 0.0
Fe154 Fe 0.60886 0.92569 0.61203 0.0
Fe155 Fe 0.68691 0.99241 0.68717 0.0
O156 O 0.6365 0.99095 0.6365 0.0
Fe157 Fe 0.61108 0.05464 0.60764 0.0
O158 O 0.54462 0.02481 0.59492 0.0
O159 O 0.54317 0.9455 0.63856 0.0
O160 O 0.61755 0.88425 0.67386 0.0
C161 C 0.61789 0.90097 0.72262 0.0
C162 C 0.62326 0.98949 0.52014 0.0
O163 O 0.64363 0.9463 0.73404 0.0
C164 C 0.72132 0.08271 0.61664 0.0
O165 O 0.6735 0.90165 0.58486 0.0
O166 O 0.72594 0.93181 0.6543 0.0
O167 O 0.6385 0.03313 0.54348 0.0
O168 O 0.59472 0.95329 0.54451 0.0
C169 C 0.60826 0.08265 0.71614 0.0
O170 O 0.73348 0.03846 0.64367 0.0
O171 O 0.672 0.09798 0.61479 0.0
C172 C 0.71894 0.90199 0.61004 0.0
O173 O 0.65308 0.05387 0.7246 0.0
O174 O 0.58306 0.07998 0.67098 0.0
C175 C 0.52133 0.99099 0.62678 0.0
Fe176 Fe 0.29975 0.29707 -0.00806 0.0
Fe177 Fe 0.37705 0.37365 0.05692 0.0
O178 O 0.34942 0.34858 -0.00778 0.0
Fe179 Fe 0.37406 0.37758 0.92796 0.0
O180 O 0.31207 0.36957 0.88546 0.0
O181 O 0.25282 0.34003 0.94709 0.0
O182 O 0.26093 0.32972 0.05275 0.0
C183 C 0.26754 0.37463 0.08173 0.0
C184 C 0.37765 0.26855 0.90116 0.0
O185 O 0.31256 0.40055 0.08121 0.0
C186 C 0.46466 0.35977 -0.00828 0.0
O187 O 0.34371 0.25085 0.0374 0.0
O188 O 0.36902 0.31193 0.09883 0.0
O189 O 0.4022 0.3142 0.90293 0.0
O190 O 0.33323 0.25968 0.93042 0.0
C191 C 0.35987 0.46458 -0.0063 0.0
O192 O 0.44253 0.34752 0.03684 0.0
O193 O 0.44112 0.39072 0.9571 0.0
C194 C 0.36909 0.26293 0.08249 0.0
O195 O 0.39029 0.44074 0.02841 0.0
O196 O 0.34698 0.44241 0.94885 0.0
C197 C 0.26313 0.36658 0.90223 0.0
Fe198 Fe 0.29815 0.68695 0.9904 0.0
Fe199 Fe 0.37459 0.61046 0.05737 0.0
O200 O 0.34922 0.63685 -0.00785 0.0
Fe201 Fe 0.37753 0.61074 0.9287 0.0
O202 O 0.36945 0.6712 0.88487 0.0
O203 O 0.34176 0.73319 0.94421 0.0
O204 O 0.33047 0.72652 0.05083 0.0
C205 C 0.37483 0.72016 0.08071 0.0
C206 C 0.26851 0.60734 0.90169 0.0
O207 O 0.40122 0.67552 0.08036 0.0
C208 C 0.36071 0.52155 -0.00566 0.0
O209 O 0.25166 0.6436 0.03651 0.0
O210 O 0.31254 0.61884 0.09863 0.0
O211 O 0.31366 0.58196 0.90483 0.0
O212 O 0.26053 0.65277 0.92935 0.0
C213 C 0.46605 0.62478 -0.00769 0.0
O214 O 0.34876 0.54427 0.03909 0.0
O215 O 0.39129 0.54467 0.95921 0.0
C216 C 0.26363 0.61821 0.08176 0.0
O217 O 0.44219 0.59697 0.02939 0.0
O218 O 0.44208 0.63887 0.94873 0.0
C219 C 0.36855 0.7206 0.90001 0.0
Fe220 Fe 0.61241 0.37636 0.05489 0.0
Fe221 Fe 0.60961 0.37345 0.92608 0.0
O222 O 0.63784 0.34875 0.99066 0.0
Fe223 Fe 0.68942 0.29929 0.99105 0.0
O224 O 0.65659 0.26081 0.05204 0.0
O225 O 0.58529 0.31201 0.07963 0.0
O226 O 0.54548 0.38918 0.02587 0.0
C227 C 0.52174 0.35912 0.99077 0.0
C228 C 0.72291 0.36941 0.08107 0.0
O229 O 0.54419 0.34642 0.94599 0.0
C230 C 0.71926 0.37697 0.90072 0.0
O231 O 0.63903 0.44133 0.03419 0.0
O232 O 0.5955 0.44069 0.95449 0.0
O233 O 0.73538 0.34364 0.03636 0.0
O234 O 0.67382 0.36898 0.09727 0.0
C235 C 0.62023 0.26263 0.90129 0.0
O236 O 0.67367 0.40167 0.90219 0.0
O237 O 0.72741 0.3323 0.92962 0.0
C238 C 0.62474 0.46469 0.99028 0.0
O239 O 0.6184 0.31143 0.88401 0.0
O240 O 0.64639 0.25227 0.94634 0.0
C241 C 0.61163 0.26735 0.08097 0.0
Fe242 Fe 0.61194 0.61518 0.92643 0.0
Fe243 Fe 0.68988 0.68983 -0.00747 0.0
O244 O 0.63989 0.63887 -0.00868 0.0
Fe245 Fe 0.61537 0.60946 0.05502 0.0
O246 O 0.6433 0.54556 0.03278 0.0
O247 O 0.59865 0.54707 0.95345 0.0
O248 O 0.67594 0.58824 0.90095 0.0
C249 C 0.72116 0.61374 0.90054 0.0
C250 C 0.52371 0.62483 -0.00858 0.0
O251 O 0.72818 0.65809 0.93049 0.0
C252 C 0.61114 0.71819 0.08289 0.0
O253 O 0.62023 0.67819 0.88594 0.0
O254 O 0.64557 0.73661 0.94973 0.0
O255 O 0.5483 0.5952 0.02641 0.0
O256 O 0.54687 0.64122 0.94803 0.0
C257 C 0.72599 0.61936 0.08014 0.0
O258 O 0.65667 0.72642 0.05501 0.0
O259 O 0.58641 0.67259 0.08038 0.0
C260 C 0.61977 0.72633 0.90473 0.0
O261 O 0.73672 0.64579 0.03555 0.0
O262 O 0.67721 0.61805 0.09745 0.0
C263 C 0.62702 0.52229 0.98944 0.0
Fe264 Fe 0.49381 0.79748 0.79837 0.0
Fe265 Fe 0.42606 0.8736 0.87428 0.0
O266 O 0.49167 0.84852 0.8483 0.0
Fe267 Fe 0.5551 0.87743 0.87438 0.0
O268 O 0.59933 0.86962 0.81418 0.0
O269 O 0.54014 0.84106 0.7523 0.0
O270 O 0.43347 0.82955 0.75832 0.0
C271 C 0.40387 0.87409 0.76434 0.0
C272 C 0.58332 0.76915 0.87788 0.0
O273 O 0.40331 0.89998 0.80915 0.0
C274 C 0.48897 0.86074 0.96348 0.0
O275 O 0.44735 0.75081 0.8415 0.0
O276 O 0.38481 0.81142 0.86586 0.0
O277 O 0.57952 0.81407 0.90339 0.0
O278 O 0.55521 0.76058 0.83281 0.0
C279 C 0.49074 0.96509 0.85957 0.0
O280 O 0.44427 0.84817 0.94059 0.0
O281 O 0.5243 0.89117 0.94028 0.0
C282 C 0.40175 0.76259 0.86656 0.0
O283 O 0.45384 0.94127 0.88766 0.0
O284 O 0.53457 0.94137 0.84582 0.0
C285 C 0.58436 0.8681 0.76481 0.0
Fe286 Fe 0.11363 0.55526 0.87497 0.0
Fe287 Fe 0.10928 0.42647 0.86989 0.0
O288 O 0.1379 0.49134 0.84605 0.0
Fe289 Fe 0.1888 0.49218 0.79608 0.0
O290 O 0.23537 0.53495 0.84052 0.0
O291 O 0.17614 0.59736 0.8676 0.0
O292 O 0.14047 0.53254 0.93902 0.0
C293 C 0.12386 0.48918 0.96223 0.0
C294 C 0.11086 0.58389 0.76674 0.0
O295 O 0.09476 0.4537 0.93752 0.0
C296 C 0.11978 0.40393 0.75887 0.0
O297 O 0.04623 0.52648 0.88738 0.0
O298 O 0.04415 0.44736 0.84294 0.0
O299 O 0.15614 0.55528 0.75895 0.0
O300 O 0.08576 0.58143 0.81189 0.0
C301 C 0.2187 0.40056 0.8735 0.0
O302 O 0.1187 0.38559 0.80725 0.0
O303 O 0.14519 0.44937 0.74889 0.0
C304 C 0.02222 0.49239 0.85623 0.0
O305 O 0.17308 0.40198 0.89813 0.0
O306 O 0.22642 0.42931 0.82836 0.0
C307 C 0.22485 0.57971 0.86659 0.0
Fe308 Fe 0.49325 0.18879 0.79587 0.0
Fe309 Fe 0.55791 0.10975 0.8701 0.0
O310 O 0.49345 0.13849 0.84635 0.0
Fe311 Fe 0.42921 0.11449 0.87545 0.0
O312 O 0.40339 0.08603 0.81239 0.0
O313 O 0.43 0.15613 0.75899 0.0
O314 O 0.53591 0.14442 0.74902 0.0
C315 C 0.58094 0.11845 0.75932 0.0
C316 C 0.40544 0.22523 0.86601 0.0
O317 O 0.59926 0.1182 0.80762 0.0
C318 C 0.49543 0.12552 0.96244 0.0
O319 O 0.55649 0.22631 0.82795 0.0
O320 O 0.58346 0.17317 0.89794 0.0
O321 O 0.3875 0.17668 0.86687 0.0
O322 O 0.45047 0.23573 0.84002 0.0
C323 C 0.49177 0.02256 0.85941 0.0
O324 O 0.53048 0.09603 0.93775 0.0
O325 O 0.45184 0.1419 0.93943 0.0
C326 C 0.58539 0.21857 0.87298 0.0
O327 O 0.53555 0.04541 0.84324 0.0
O328 O 0.4571 0.04718 0.88933 0.0
C329 C 0.40122 0.1109 0.767 0.0
Fe330 Fe 0.87424 0.43049 0.87541 0.0
Fe331 Fe 0.87765 0.55957 0.86938 0.0
O332 O 0.84964 0.49413 0.84596 0.0
Fe333 Fe 0.79919 0.49241 0.79563 0.0
O334 O 0.75263 0.44945 0.83984 0.0
O335 O 0.81212 0.38779 0.86826 0.0
O336 O 0.84688 0.45335 0.93905 0.0
C337 C 0.86347 0.4966 0.96228 0.0
C338 C 0.87748 0.40108 0.76749 0.0
O339 O 0.89178 0.53276 0.93742 0.0
C340 C 0.86779 0.58099 0.75822 0.0
O341 O 0.94129 0.4599 0.88791 0.0
O342 O 0.94313 0.53892 0.84313 0.0
O343 O 0.83226 0.42951 0.75924 0.0
O344 O 0.90258 0.4041 0.81261 0.0
C345 C 0.7682 0.58475 0.87145 0.0
O346 O 0.86848 0.59979 0.80632 0.0
O347 O 0.84275 0.53535 0.74852 0.0
C348 C 0.96509 0.49389 0.85641 0.0
O349 O 0.81352 0.58448 0.89667 0.0
O350 O 0.76103 0.55461 0.82731 0.0
C351 C 0.76324 0.40488 0.86628 0.0
Fe352 Fe 0.49212 0.18811 0.18599 0.0
Fe353 Fe 0.56007 0.11008 0.11202 0.0
O354 O 0.49442 0.13726 0.13596 0.0
Fe355 Fe 0.43092 0.11122 0.10735 0.0
O356 O 0.38715 0.17178 0.11494 0.0
O357 O 0.44685 0.23402 0.14179 0.0
O358 O 0.55314 0.22717 0.15387 0.0
C359 C 0.5835 0.22013 0.11007 0.0
C360 C 0.40276 0.10892 0.21558 0.0
O361 O 0.58443 0.17468 0.08528 0.0
C362 C 0.49556 0.02136 0.12451 0.0
O363 O 0.53685 0.14499 0.23301 0.0
O364 O 0.60082 0.11849 0.17485 0.0
O365 O 0.40644 0.08282 0.171 0.0
O366 O 0.43028 0.15463 0.22312 0.0
C367 C 0.49598 0.1251 0.01995 0.0
O368 O 0.54032 0.04394 0.13768 0.0
O369 O 0.46102 0.045 0.09379 0.0
C370 C 0.5824 0.11931 0.22314 0.0
O371 O 0.53268 0.09686 0.04407 0.0
O372 O 0.45195 0.13913 0.0433 0.0
C373 C 0.40246 0.22119 0.11548 0.0
Fe374 Fe 0.87522 0.4298 0.10721 0.0
Fe375 Fe 0.87873 0.55843 0.11202 0.0
O376 O 0.84979 0.49349 0.13553 0.0
Fe377 Fe 0.79815 0.49231 0.18492 0.0
O378 O 0.83039 0.43006 0.22279 0.0
O379 O 0.90195 0.40454 0.17103 0.0
O380 O 0.94214 0.45898 0.09541 0.0
C381 C 0.96554 0.49249 0.12738 0.0
C382 C 0.7646 0.40283 0.11409 0.0
O383 O 0.94363 0.53773 0.13985 0.0
C384 C 0.76946 0.58413 0.10788 0.0
O385 O 0.84913 0.45172 0.04265 0.0
O386 O 0.89384 0.53108 0.04454 0.0
O387 O 0.75208 0.44741 0.14022 0.0
O388 O 0.8138 0.38706 0.11366 0.0
C389 C 0.8672 0.58194 0.22258 0.0
O390 O 0.81519 0.58276 0.08343 0.0
O391 O 0.7608 0.55462 0.1522 0.0
C392 C 0.86474 0.49562 0.01979 0.0
O393 O 0.86888 0.59984 0.17414 0.0
O394 O 0.8413 0.53645 0.23243 0.0
C395 C 0.87583 0.40191 0.21565 0.0
Fe396 Fe 0.55691 0.87316 0.10684 0.0
Fe397 Fe 0.49344 0.79844 0.18675 0.0
O398 O 0.4926 0.84866 0.13602 0.0
Fe399 Fe 0.42744 0.87699 0.11219 0.0
O400 O 0.4553 0.88988 0.04469 0.0
O401 O 0.53516 0.84642 0.04219 0.0
O402 O 0.59934 0.81109 0.11461 0.0
C403 C 0.58239 0.76217 0.11702 0.0
C404 C 0.49409 0.96423 0.12482 0.0
O405 O 0.53742 0.75166 0.14323 0.0
C406 C 0.40388 0.86795 0.22311 0.0
O407 O 0.58242 0.901 0.17024 0.0
O408 O 0.55559 0.83125 0.22389 0.0
O409 O 0.44887 0.94239 0.13803 0.0
O410 O 0.52813 0.94023 0.09374 0.0
C411 C 0.40237 0.7674 0.11018 0.0
O412 O 0.44934 0.84234 0.23326 0.0
O413 O 0.38599 0.86914 0.17469 0.0
C414 C 0.58437 0.8761 0.21563 0.0
O415 O 0.43202 0.76023 0.15449 0.0
O416 O 0.40192 0.81293 0.08534 0.0
C417 C 0.48995 0.85958 0.02046 0.0
Fe418 Fe 0.11031 0.42619 0.11264 0.0
Fe419 Fe 0.18846 0.49495 0.18588 0.0
O420 O 0.13774 0.49221 0.13576 0.0
Fe421 Fe 0.11156 0.55531 0.10654 0.0
O422 O 0.0454 0.52466 0.0945 0.0
O423 O 0.04462 0.44596 0.13919 0.0
O424 O 0.11976 0.38568 0.17544 0.0
C425 C 0.11972 0.40442 0.22349 0.0
C426 C 0.12381 0.48916 0.01977 0.0
O427 O 0.14515 0.45023 0.23315 0.0
C428 C 0.2217 0.58453 0.11451 0.0
O429 O 0.17477 0.40211 0.08543 0.0
O430 O 0.22746 0.43391 0.1539 0.0
O431 O 0.13874 0.53319 0.04261 0.0
O432 O 0.09576 0.45279 0.04461 0.0
C433 C 0.10939 0.58444 0.21476 0.0
O434 O 0.23446 0.54051 0.14159 0.0
O435 O 0.17219 0.5993 0.11274 0.0
C436 C 0.22031 0.40318 0.11032 0.0
O437 O 0.15484 0.55668 0.22273 0.0
O438 O 0.0837 0.58104 0.1699 0.0
C439 C 0.0225 0.49117 0.12694 0.0
Fe440 Fe 0.79899 0.7962 0.49149 0.0
Fe441 Fe 0.87584 0.87338 0.5562 0.0
O442 O 0.84854 0.84791 0.49157 0.0
Fe443 Fe 0.87338 0.87642 0.42716 0.0
O444 O 0.81123 0.86817 0.38483 0.0
O445 O 0.75198 0.83913 0.44671 0.0
O446 O 0.76004 0.82876 0.55233 0.0
C447 C 0.76633 0.87384 0.58113 0.0
C448 C 0.87715 0.7671 0.4011 0.0
O449 O 0.81112 0.90019 0.58014 0.0
C450 C 0.96389 0.85958 0.49167 0.0
O451 O 0.84321 0.75031 0.53692 0.0
O452 O 0.86802 0.81162 0.59831 0.0
O453 O 0.90158 0.8128 0.40274 0.0
O454 O 0.83247 0.75851 0.43004 0.0
C455 C 0.85971 0.96424 0.49172 0.0
O456 O 0.94144 0.84744 0.53662 0.0
O457 O 0.94041 0.88978 0.45633 0.0
C458 C 0.86869 0.76261 0.58188 0.0
O459 O 0.8891 0.94044 0.52739 0.0
O460 O 0.84657 0.94158 0.44723 0.0
C461 C 0.76233 0.86582 0.40195 0.0
Fe462 Fe 0.79674 0.18596 0.49271 0.0
Fe463 Fe 0.87429 0.10905 0.557 0.0
O464 O 0.84838 0.13654 0.49253 0.0
Fe465 Fe 0.87656 0.11211 0.42792 0.0
O466 O 0.86799 0.17427 0.38558 0.0
O467 O 0.83951 0.2332 0.44768 0.0
O468 O 0.8297 0.2248 0.55336 0.0
C469 C 0.8749 0.21846 0.58201 0.0
C470 C 0.76715 0.10818 0.40222 0.0
O471 O 0.90108 0.17372 0.58107 0.0
C472 C 0.8603 0.02129 0.4923 0.0
O473 O 0.751 0.14161 0.5385 0.0
O474 O 0.81265 0.11607 0.59946 0.0
O475 O 0.81279 0.08373 0.40382 0.0
O476 O 0.75868 0.15262 0.43136 0.0
C477 C 0.96475 0.12633 0.4921 0.0
O478 O 0.84842 0.04345 0.53736 0.0
O479 O 0.89029 0.04505 0.4569 0.0
C480 C 0.76343 0.11588 0.58339 0.0
O481 O 0.94134 0.09654 0.5278 0.0
O482 O 0.94175 0.13929 0.44771 0.0
C483 C 0.86584 0.22311 0.40269 0.0
Fe484 Fe 0.1114 0.87599 0.55579 0.0
Fe485 Fe 0.10892 0.87384 0.4268 0.0
O486 O 0.13724 0.849 0.49124 0.0
Fe487 Fe 0.18902 0.79967 0.49123 0.0
O488 O 0.15648 0.76057 0.55191 0.0
O489 O 0.0847 0.8111 0.57949 0.0
O490 O 0.04446 0.88888 0.52678 0.0
C491 C 0.02094 0.85918 0.49124 0.0
C492 C 0.22208 0.8691 0.58191 0.0
O493 O 0.04368 0.84662 0.44663 0.0
C494 C 0.21831 0.87786 0.40103 0.0
O495 O 0.13725 0.94177 0.53641 0.0
O496 O 0.09531 0.94079 0.45594 0.0
O497 O 0.23468 0.8439 0.5369 0.0
O498 O 0.17294 0.86844 0.59808 0.0
C499 C 0.11981 0.76296 0.40142 0.0
O500 O 0.17267 0.90229 0.40268 0.0
O501 O 0.22683 0.83325 0.42993 0.0
C502 C 0.1252 0.96433 0.4915 0.0
O503 O 0.11742 0.81188 0.3844 0.0
O504 O 0.14628 0.75263 0.44629 0.0
C505 C 0.1113 0.76659 0.58056 0.0
Fe506 Fe 0.11217 0.10967 0.42679 0.0
Fe507 Fe 0.18699 0.18952 0.49089 0.0
O508 O 0.13735 0.13782 0.49109 0.0
Fe509 Fe 0.1104 0.11196 0.55578 0.0
O510 O 0.09679 0.04507 0.52693 0.0
O511 O 0.13887 0.0443 0.44655 0.0
O512 O 0.17422 0.11793 0.38422 0.0
C513 C 0.22319 0.12029 0.40116 0.0
C514 C 0.02186 0.12607 0.49207 0.0
O515 O 0.2337 0.14684 0.44585 0.0
C516 C 0.11794 0.22255 0.58175 0.0
O517 O 0.08407 0.17349 0.40268 0.0
O518 O 0.15339 0.22755 0.42973 0.0
O519 O 0.04466 0.13805 0.53684 0.0
O520 O 0.04515 0.09635 0.45627 0.0
C521 C 0.22001 0.1113 0.5798 0.0
O522 O 0.14306 0.23516 0.53663 0.0
O523 O 0.11865 0.17342 0.598 0.0
C524 C 0.10861 0.21915 0.40101 0.0
O525 O 0.22618 0.15669 0.5514 0.0
O526 O 0.17523 0.08497 0.57897 0.0
C527 C 0.12593 0.02142 0.49106 0.0
loop_
_geom_bond_atom_site_label_1
_geom_bond_atom_site_label_2
_geom_bond_distance
_geom_bond_site_symmetry_2
_ccdc_geom_bond_type
Fe0 O2 1.918 . S
Fe0 O5 2.012 . S
Fe0 O6 1.988 1_455 S
Fe0 O11 1.961 1_455 S
Fe0 O14 2.011 . S
Fe1 O2 1.911 1_655 S
Fe1 O9 1.997 . S
Fe1 O12 1.996 . S
Fe1 O16 1.976 . S
Fe1 O19 2.002 . S
O2 Fe0 1.918 . S
O2 Fe1 1.911 1_455 S
O2 Fe3 1.925 . S
Fe3 O2 1.925 . S
Fe3 O4 2.002 . S
Fe3 O13 1.976 . S
Fe3 O17 1.996 . S
Fe3 O20 1.997 . S
O4 Fe3 2.002 . S
O4 C21 1.295 . S
O5 Fe0 2.012 . S
O5 C21 1.235 . S
O6 Fe0 1.988 1_655 S
O6 C7 1.295 . S
C7 O6 1.295 . S
C7 O9 1.235 . S
C8 O13 1.287 . S
C8 O14 1.255 . S
O9 Fe1 1.997 . S
O9 C7 1.235 . S
C10 O16 1.287 1_455 S
C10 O17 1.255 . S
O11 Fe0 1.961 1_655 S
O11 C18 1.287 . S
O12 Fe1 1.996 . S
O12 C18 1.255 . S
O13 Fe3 1.976 . S
O13 C8 1.287 . S
O14 Fe0 2.011 . S
O14 C8 1.255 . S
C15 O19 1.295 . S
C15 O20 1.235 1_655 S
O16 Fe1 1.976 . S
O16 C10 1.287 1_655 S
O17 Fe3 1.996 . S
O17 C10 1.255 . S
C18 O11 1.287 . S
C18 O12 1.255 . S
O19 Fe1 2.002 . S
O19 C15 1.295 . S
O20 Fe3 1.997 . S
O20 C15 1.235 1_455 S
C21 O4 1.295 . S
C21 O5 1.235 . S
Fe22 O24 1.925 . S
Fe22 O27 1.997 . S
Fe22 O28 2.002 . S
Fe22 O33 1.976 . S
Fe22 O36 1.996 . S
Fe23 O24 1.911 1_565 S
Fe23 O31 1.997 . S
Fe23 O34 1.996 . S
Fe23 O38 1.976 . S
Fe23 O41 2.002 . S
O24 Fe22 1.925 . S
O24 Fe23 1.911 1_545 S
O24 Fe25 1.918 1_545 S
Fe25 O24 1.918 1_565 S
Fe25 O26 2.002 1_565 S
Fe25 O35 1.976 1_565 S
Fe25 O39 1.996 . S
Fe25 O42 1.996 . S
O26 Fe25 2.002 1_545 S
O26 C43 1.295 . S
O27 Fe22 1.997 . S
O27 C43 1.235 . S
O28 Fe22 2.002 . S
O28 C29 1.295 . S
C29 O28 1.295 . S
C29 O31 1.235 1_545 S
C30 O35 1.287 . S
C30 O36 1.255 . S
O31 Fe23 1.997 . S
O31 C29 1.235 1_565 S
C32 O38 1.287 . S
C32 O39 1.255 . S
O33 Fe22 1.976 . S
O33 C40 1.287 1_545 S
O34 Fe23 1.996 . S
O34 C40 1.255 . S
O35 Fe25 1.976 1_545 S
O35 C30 1.287 . S
O36 Fe22 1.996 . S
O36 C30 1.255 . S
C37 O41 1.295 . S
C37 O42 1.235 . S
O38 Fe23 1.976 . S
O38 C32 1.287 . S
O39 Fe25 1.996 . S
O39 C32 1.255 . S
C40 O33 1.287 1_565 S
C40 O34 1.255 . S
O41 Fe23 2.002 . S
O41 C37 1.295 . S
O42 Fe25 1.996 . S
O42 C37 1.235 . S
C43 O26 1.295 . S
C43 O27 1.235 . S
Fe44 O46 1.913 1_655 S
Fe44 O49 1.997 . S
Fe44 O50 2.002 . S
Fe44 O55 1.976 . S
Fe44 O58 1.996 . S
Fe45 O46 1.918 1_655 S
Fe45 O53 1.998 . S
Fe45 O56 1.997 . S
Fe45 O60 1.975 1_655 S
Fe45 O63 2.001 1_655 S
O46 Fe44 1.913 1_455 S
O46 Fe45 1.918 1_455 S
O46 Fe47 1.924 . S
Fe47 O46 1.924 . S
Fe47 O48 2.002 . S
Fe47 O57 1.976 . S
Fe47 O61 1.996 . S
Fe47 O64 1.997 . S
O48 Fe47 2.002 . S
O48 C65 1.295 . S
O49 Fe44 1.997 . S
O49 C65 1.235 1_655 S
O50 Fe44 2.002 . S
O50 C51 1.295 . S
C51 O50 1.295 . S
C51 O53 1.235 . S
C52 O57 1.287 1_655 S
C52 O58 1.255 . S
O53 Fe45 1.998 . S
O53 C51 1.235 . S
C54 O60 1.287 . S
C54 O61 1.255 . S
O55 Fe44 1.976 . S
O55 C62 1.287 . S
O56 Fe45 1.997 . S
O56 C62 1.255 . S
O57 Fe47 1.976 . S
O57 C52 1.287 1_455 S
O58 Fe44 1.996 . S
O58 C52 1.255 . S
C59 O63 1.295 . S
C59 O64 1.235 . S
O60 Fe45 1.975 1_455 S
O60 C54 1.287 . S
O61 Fe47 1.996 . S
O61 C54 1.255 . S
C62 O55 1.287 . S
C62 O56 1.255 . S
O63 Fe45 2.001 1_455 S
O63 C59 1.295 . S
O64 Fe47 1.997 . S
O64 C59 1.235 . S
C65 O48 1.295 . S
C65 O49 1.235 1_455 S
Fe66 O68 1.924 . S
Fe66 O71 1.997 . S
Fe66 O72 2.002 . S
Fe66 O77 1.976 . S
Fe66 O80 1.996 . S
Fe67 O68 1.918 . S
Fe67 O75 2.011 . S
Fe67 O78 2.010 . S
Fe67 O82 1.962 1_545 S
Fe67 O85 1.989 1_545 S
O68 Fe66 1.924 . S
O68 Fe67 1.918 . S
O68 Fe69 1.912 1_545 S
Fe69 O68 1.912 1_565 S
Fe69 O70 2.002 . S
Fe69 O79 1.976 . S
Fe69 O83 1.996 . S
Fe69 O86 1.997 . S
O70 Fe69 2.002 . S
O70 C87 1.295 . S
O71 Fe66 1.997 . S
O71 C87 1.235 1_545 S
O72 Fe66 2.002 . S
O72 C73 1.295 . S
C73 O72 1.295 . S
C73 O75 1.235 . S
C74 O79 1.287 1_545 S
C74 O80 1.255 . S
O75 Fe67 2.011 . S
O75 C73 1.235 . S
C76 O82 1.287 . S
C76 O83 1.255 . S
O77 Fe66 1.976 . S
O77 C84 1.287 . S
O78 Fe67 2.010 . S
O78 C84 1.255 . S
O79 Fe69 1.976 . S
O79 C74 1.287 1_565 S
O80 Fe66 1.996 . S
O80 C74 1.255 . S
C81 O85 1.295 . S
C81 O86 1.235 . S
O82 Fe67 1.962 1_565 S
O82 C76 1.287 . S
O83 Fe69 1.996 . S
O83 C76 1.255 . S
C84 O77 1.287 . S
C84 O78 1.255 . S
O85 Fe67 1.989 1_565 S
O85 C81 1.295 . S
O86 Fe69 1.997 . S
O86 C81 1.235 . S
C87 O70 1.295 . S
C87 O71 1.235 1_565 S
Fe88 O90 1.924 . S
Fe88 O93 1.997 . S
Fe88 O94 2.002 . S
Fe88 O99 1.976 . S
Fe88 O102 1.996 . S
Fe89 O90 1.912 1_655 S
Fe89 O97 1.997 . S
Fe89 O100 1.996 . S
Fe89 O104 1.976 . S
Fe89 O107 2.002 . S
O90 Fe88 1.924 . S
O90 Fe89 1.912 1_455 S
O90 Fe91 1.918 1_455 S
Fe91 O90 1.918 1_655 S
Fe91 O92 2.001 1_655 S
Fe91 O101 1.975 1_655 S
Fe91 O105 1.997 . S
Fe91 O108 1.998 . S
O92 Fe91 2.001 1_455 S
O92 C109 1.295 . S
O93 Fe88 1.997 . S
O93 C109 1.235 . S
O94 Fe88 2.002 . S
O94 C95 1.295 . S
C95 O94 1.295 . S
C95 O97 1.235 1_455 S
C96 O101 1.287 . S
C96 O102 1.255 . S
O97 Fe89 1.997 . S
O97 C95 1.235 1_655 S
C98 O104 1.287 . S
C98 O105 1.255 . S
O99 Fe88 1.976 . S
O99 C106 1.287 1_455 S
O100 Fe89 1.996 . S
O100 C106 1.255 . S
O101 Fe91 1.975 1_455 S
O101 C96 1.287 . S
O102 Fe88 1.996 . S
O102 C96 1.255 . S
C103 O107 1.295 . S
C103 O108 1.235 . S
O104 Fe89 1.976 . S
O104 C98 1.287 . S
O105 Fe91 1.997 . S
O105 C98 1.255 . S
C106 O99 1.287 1_655 S
C106 O100 1.255 . S
O107 Fe89 2.002 . S
O107 C103 1.295 . S
O108 Fe91 1.998 . S
O108 C103 1.235 . S
C109 O92 1.295 . S
C109 O93 1.235 . S
Fe110 O112 1.912 1_565 S
Fe110 O115 1.997 . S
Fe110 O116 2.002 . S
Fe110 O121 1.976 . S
Fe110 O124 1.996 . S
Fe111 O112 1.924 . S
Fe111 O119 1.997 . S
Fe111 O122 1.996 . S
Fe111 O126 1.976 . S
Fe111 O129 2.002 . S
O112 Fe110 1.912 1_545 S
O112 Fe111 1.924 . S
O112 Fe113 1.918 . S
Fe113 O112 1.918 . S
Fe113 O114 1.989 1_545 S
Fe113 O123 1.962 1_545 S
Fe113 O127 2.010 . S
Fe113 O130 2.011 . S
O114 Fe113 1.989 1_565 S
O114 C131 1.295 . S
O115 Fe110 1.997 . S
O115 C131 1.235 . S
O116 Fe110 2.002 . S
O116 C117 1.295 . S
C117 O116 1.295 . S
C117 O119 1.235 1_565 S
C118 O123 1.287 . S
C118 O124 1.255 . S
O119 Fe111 1.997 . S
O119 C117 1.235 1_545 S
C120 O126 1.287 . S
C120 O127 1.255 . S
O121 Fe110 1.976 . S
O121 C128 1.287 1_565 S
O122 Fe111 1.996 . S
O122 C128 1.255 . S
O123 Fe113 1.962 1_565 S
O123 C118 1.287 . S
O124 Fe110 1.996 . S
O124 C118 1.255 . S
C125 O129 1.295 . S
C125 O130 1.235 . S
O126 Fe111 1.976 . S
O126 C120 1.287 . S
O127 Fe113 2.010 . S
O127 C120 1.255 . S
C128 O121 1.287 1_545 S
C128 O122 1.255 . S
O129 Fe111 2.002 . S
O129 C125 1.295 . S
O130 Fe113 2.011 . S
O130 C125 1.235 . S
C131 O114 1.295 . S
C131 O115 1.235 . S
Fe132 O134 1.925 . S
Fe132 O137 1.997 . S
Fe132 O138 2.002 . S
Fe132 O143 1.976 . S
Fe132 O146 1.996 . S
Fe133 O134 1.918 . S
Fe133 O141 2.012 . S
Fe133 O144 2.011 . S
Fe133 O148 1.961 1_455 S
Fe133 O151 1.988 1_455 S
O134 Fe132 1.925 . S
O134 Fe133 1.918 . S
O134 Fe135 1.911 1_455 S
Fe135 O134 1.911 1_655 S
Fe135 O136 2.002 . S
Fe135 O145 1.976 . S
Fe135 O149 1.996 . S
Fe135 O152 1.997 . S
O136 Fe135 2.002 . S
O136 C153 1.295 . S
O137 Fe132 1.997 . S
O137 C153 1.235 1_455 S
O138 Fe132 2.002 . S
O138 C139 1.295 . S
C139 O138 1.295 . S
C139 O141 1.235 . S
C140 O145 1.287 1_455 S
C140 O146 1.255 . S
O141 Fe133 2.012 . S
O141 C139 1.235 . S
C142 O148 1.287 . S
C142 O149 1.255 . S
O143 Fe132 1.976 . S
O143 C150 1.287 . S
O144 Fe133 2.011 . S
O144 C150 1.255 . S
O145 Fe135 1.976 . S
O145 C140 1.287 1_655 S
O146 Fe132 1.996 . S
O146 C140 1.255 . S
C147 O151 1.295 . S
C147 O152 1.235 . S
O148 Fe133 1.961 1_655 S
O148 C142 1.287 . S
O149 Fe135 1.996 . S
O149 C142 1.255 . S
C150 O143 1.287 . S
C150 O144 1.255 . S
O151 Fe133 1.988 1_655 S
O151 C147 1.295 . S
O152 Fe135 1.997 . S
O152 C147 1.235 . S
C153 O136 1.295 . S
C153 O137 1.235 1_655 S
Fe154 O156 1.911 1_565 S
Fe154 O159 1.997 . S
Fe154 O160 2.002 . S
Fe154 O165 1.976 . S
Fe154 O168 1.996 . S
Fe155 O156 1.918 1_565 S
Fe155 O163 1.996 . S
Fe155 O166 1.996 . S
Fe155 O170 1.976 1_565 S
Fe155 O173 2.002 1_565 S
O156 Fe154 1.911 1_545 S
O156 Fe155 1.918 1_545 S
O156 Fe157 1.926 . S
Fe157 O156 1.926 . S
Fe157 O158 2.002 . S
Fe157 O167 1.976 . S
Fe157 O171 1.996 . S
Fe157 O174 1.997 . S
O158 Fe157 2.002 . S
O158 C175 1.295 . S
O159 Fe154 1.997 . S
O159 C175 1.235 1_565 S
O160 Fe154 2.002 . S
O160 C161 1.295 . S
C161 O160 1.295 . S
C161 O163 1.235 . S
C162 O167 1.287 1_565 S
C162 O168 1.255 . S
O163 Fe155 1.996 . S
O163 C161 1.235 . S
C164 O170 1.287 . S
C164 O171 1.255 . S
O165 Fe154 1.976 . S
O165 C172 1.287 . S
O166 Fe155 1.996 . S
O166 C172 1.255 . S
O167 Fe157 1.976 . S
O167 C162 1.287 1_545 S
O168 Fe154 1.996 . S
O168 C162 1.255 . S
C169 O173 1.295 . S
C169 O174 1.235 . S
O170 Fe155 1.976 1_545 S
O170 C164 1.287 . S
O171 Fe157 1.996 . S
O171 C164 1.255 . S
C172 O165 1.287 . S
C172 O166 1.255 . S
O173 Fe155 2.002 1_545 S
O173 C169 1.295 . S
O174 Fe157 1.997 . S
O174 C169 1.235 . S
C175 O158 1.295 . S
C175 O159 1.235 1_545 S
Fe176 O178 1.918 1_556 S
Fe176 O181 2.003 . S
Fe176 O182 1.997 1_556 S
Fe176 O187 1.970 1_556 S
Fe176 O190 2.002 . S
Fe177 O178 1.918 . S
Fe177 O185 1.997 . S
Fe177 O188 1.996 . S
Fe177 O192 1.976 . S
Fe177 O195 2.002 . S
O178 Fe176 1.918 1_554 S
O178 Fe177 1.918 . S
O178 Fe179 1.918 1_554 S
Fe179 O178 1.918 1_556 S
Fe179 O180 2.002 . S
Fe179 O189 1.976 . S
Fe179 O193 1.996 . S
Fe179 O196 1.997 . S
O180 Fe179 2.002 . S
O180 C197 1.295 . S
O181 Fe176 2.003 . S
O181 C197 1.235 . S
O182 Fe176 1.997 1_554 S
O182 C183 1.295 . S
C183 O182 1.295 . S
C183 O185 1.235 . S
C184 O189 1.287 . S
C184 O190 1.255 . S
O185 Fe177 1.997 . S
O185 C183 1.235 . S
C186 O192 1.287 1_556 S
C186 O193 1.255 . S
O187 Fe176 1.970 1_554 S
O187 C194 1.287 . S
O188 Fe177 1.996 . S
O188 C194 1.255 . S
O189 Fe179 1.976 . S
O189 C184 1.287 . S
O190 Fe176 2.002 . S
O190 C184 1.255 . S
C191 O195 1.295 . S
C191 O196 1.235 1_554 S
O192 Fe177 1.976 . S
O192 C186 1.287 1_554 S
O193 Fe179 1.996 . S
O193 C186 1.255 . S
C194 O187 1.287 . S
C194 O188 1.255 . S
O195 Fe177 2.002 . S
O195 C191 1.295 . S
O196 Fe179 1.997 . S
O196 C191 1.235 1_556 S
C197 O180 1.295 . S
C197 O181 1.235 . S
Fe198 O200 1.918 1_556 S
Fe198 O203 2.002 . S
Fe198 O204 1.997 1_556 S
Fe198 O209 1.970 1_556 S
Fe198 O212 2.001 . S
Fe199 O200 1.919 . S
Fe199 O207 1.997 . S
Fe199 O210 1.996 . S
Fe199 O214 1.976 . S
Fe199 O217 2.002 . S
O200 Fe198 1.918 1_554 S
O200 Fe199 1.919 . S
O200 Fe201 1.918 1_554 S
Fe201 O200 1.918 1_556 S
Fe201 O202 2.002 . S
Fe201 O211 1.976 . S
Fe201 O215 1.996 . S
Fe201 O218 1.997 . S
O202 Fe201 2.002 . S
O202 C219 1.295 . S
O203 Fe198 2.002 . S
O203 C219 1.235 . S
O204 Fe198 1.997 1_554 S
O204 C205 1.295 . S
C205 O204 1.295 . S
C205 O207 1.235 . S
C206 O211 1.287 . S
C206 O212 1.255 . S
O207 Fe199 1.997 . S
O207 C205 1.235 . S
C208 O214 1.287 1_556 S
C208 O215 1.255 . S
O209 Fe198 1.970 1_554 S
O209 C216 1.287 . S
O210 Fe199 1.996 . S
O210 C216 1.255 . S
O211 Fe201 1.976 . S
O211 C206 1.287 . S
O212 Fe198 2.001 . S
O212 C206 1.255 . S
C213 O217 1.295 . S
C213 O218 1.235 1_554 S
O214 Fe199 1.976 . S
O214 C208 1.287 1_554 S
O215 Fe201 1.996 . S
O215 C208 1.255 . S
C216 O209 1.287 . S
C216 O210 1.255 . S
O217 Fe199 2.002 . S
O217 C213 1.295 . S
O218 Fe201 1.997 . S
O218 C213 1.235 1_556 S
C219 O202 1.295 . S
C219 O203 1.235 . S
Fe220 O222 1.919 . S
Fe220 O225 1.997 . S
Fe220 O226 2.002 . S
Fe220 O231 1.976 . S
Fe220 O234 1.996 . S
Fe221 O222 1.918 1_556 S
Fe221 O229 1.997 . S
Fe221 O232 1.996 . S
Fe221 O236 1.976 . S
Fe221 O239 2.002 . S
O222 Fe220 1.919 . S
O222 Fe221 1.918 1_554 S
O222 Fe223 1.918 1_554 S
Fe223 O222 1.918 1_556 S
Fe223 O224 1.997 1_556 S
Fe223 O233 1.970 1_556 S
Fe223 O237 2.001 . S
Fe223 O240 2.002 . S
O224 Fe223 1.997 1_554 S
O224 C241 1.295 . S
O225 Fe220 1.997 . S
O225 C241 1.235 . S
O226 Fe220 2.002 . S
O226 C227 1.295 . S
C227 O226 1.295 . S
C227 O229 1.235 1_554 S
C228 O233 1.287 . S
C228 O234 1.255 . S
O229 Fe221 1.997 . S
O229 C227 1.235 1_556 S
C230 O236 1.287 . S
C230 O237 1.255 . S
O231 Fe220 1.976 . S
O231 C238 1.287 1_554 S
O232 Fe221 1.996 . S
O232 C238 1.255 . S
O233 Fe223 1.970 1_554 S
O233 C228 1.287 . S
O234 Fe220 1.996 . S
O234 C228 1.255 . S
C235 O239 1.295 . S
C235 O240 1.235 . S
O236 Fe221 1.976 . S
O236 C230 1.287 . S
O237 Fe223 2.001 . S
O237 C230 1.255 . S
C238 O231 1.287 1_556 S
C238 O232 1.255 . S
O239 Fe221 2.002 . S
O239 C235 1.295 . S
O240 Fe223 2.002 . S
O240 C235 1.235 . S
C241 O224 1.295 . S
C241 O225 1.235 . S
Fe242 O244 1.918 1_556 S
Fe242 O247 1.997 . S
Fe242 O248 2.002 . S
Fe242 O253 1.976 . S
Fe242 O256 1.996 . S
Fe243 O244 1.918 1_556 S
Fe243 O251 2.003 . S
Fe243 O254 2.002 . S
Fe243 O258 1.970 1_556 S
Fe243 O261 1.997 1_556 S
O244 Fe242 1.918 1_554 S
O244 Fe243 1.918 1_554 S
O244 Fe245 1.918 . S
Fe245 O244 1.918 . S
Fe245 O246 2.002 . S
Fe245 O255 1.976 . S
Fe245 O259 1.996 . S
Fe245 O262 1.997 . S
O246 Fe245 2.002 . S
O246 C263 1.295 . S
O247 Fe242 1.997 . S
O247 C263 1.235 1_556 S
O248 Fe242 2.002 . S
O248 C249 1.295 . S
C249 O248 1.295 . S
C249 O251 1.235 . S
C250 O255 1.287 1_556 S
C250 O256 1.255 . S
O251 Fe243 2.003 . S
O251 C249 1.235 . S
C252 O258 1.287 . S
C252 O259 1.255 . S
O253 Fe242 1.976 . S
O253 C260 1.287 . S
O254 Fe243 2.002 . S
O254 C260 1.255 . S
O255 Fe245 1.976 . S
O255 C250 1.287 1_554 S
O256 Fe242 1.996 . S
O256 C250 1.255 . S
C257 O261 1.295 . S
C257 O262 1.235 . S
O258 Fe243 1.970 1_554 S
O258 C252 1.287 . S
O259 Fe245 1.996 . S
O259 C252 1.255 . S
C260 O253 1.287 . S
C260 O254 1.255 . S
O261 Fe243 1.997 1_554 S
O261 C257 1.295 . S
O262 Fe245 1.997 . S
O262 C257 1.235 . S
C263 O246 1.295 . S
C263 O247 1.235 1_554 S
Fe264 O266 1.918 . S
Fe264 O269 1.997 . S
Fe264 O270 2.002 . S
Fe264 O275 1.976 . S
Fe264 O278 1.996 . S
Fe265 O266 1.918 . S
Fe265 O273 1.997 . S
Fe265 O276 1.996 . S
Fe265 O280 1.976 . S
Fe265 O283 2.002 . S
O266 Fe264 1.918 . S
O266 Fe265 1.918 . S
O266 Fe267 1.918 . S
Fe267 O266 1.918 . S
Fe267 O268 2.002 . S
Fe267 O277 1.976 . S
Fe267 O281 1.996 . S
Fe267 O284 1.997 . S
O268 Fe267 2.002 . S
O268 C285 1.295 . S
O269 Fe264 1.997 . S
O269 C285 1.235 . S
O270 Fe264 2.002 . S
O270 C271 1.295 . S
C271 O270 1.295 . S
C271 O273 1.235 . S
C272 O277 1.287 . S
C272 O278 1.255 . S
O273 Fe265 1.997 . S
O273 C271 1.235 . S
C274 O280 1.287 . S
C274 O281 1.255 . S
O275 Fe264 1.976 . S
O275 C282 1.287 . S
O276 Fe265 1.996 . S
O276 C282 1.255 . S
O277 Fe267 1.976 . S
O277 C272 1.287 . S
O278 Fe264 1.996 . S
O278 C272 1.255 . S
C279 O283 1.295 . S
C279 O284 1.235 . S
O280 Fe265 1.976 . S
O280 C274 1.287 . S
O281 Fe267 1.996 . S
O281 C274 1.255 . S
C282 O275 1.287 . S
C282 O276 1.255 . S
O283 Fe265 2.002 . S
O283 C279 1.295 . S
O284 Fe267 1.997 . S
O284 C279 1.235 . S
C285 O268 1.295 . S
C285 O269 1.235 . S
Fe286 O288 1.918 . S
Fe286 O291 1.997 . S
Fe286 O292 2.002 . S
Fe286 O297 1.976 . S
Fe286 O300 1.996 . S
Fe287 O288 1.918 . S
Fe287 O295 1.997 . S
Fe287 O298 1.996 . S
Fe287 O302 1.976 . S
Fe287 O305 2.002 . S
O288 Fe286 1.918 . S
O288 Fe287 1.918 . S
O288 Fe289 1.918 . S
Fe289 O288 1.918 . S
Fe289 O290 2.002 . S
Fe289 O299 1.976 . S
Fe289 O303 1.996 . S
Fe289 O306 1.997 . S
O290 Fe289 2.002 . S
O290 C307 1.295 . S
O291 Fe286 1.997 . S
O291 C307 1.235 . S
O292 Fe286 2.002 . S
O292 C293 1.295 . S
C293 O292 1.295 . S
C293 O295 1.235 . S
C294 O299 1.287 . S
C294 O300 1.255 . S
O295 Fe287 1.997 . S
O295 C293 1.235 . S
C296 O302 1.287 . S
C296 O303 1.255 . S
O297 Fe286 1.976 . S
O297 C304 1.287 . S
O298 Fe287 1.996 . S
O298 C304 1.255 . S
O299 Fe289 1.976 . S
O299 C294 1.287 . S
O300 Fe286 1.996 . S
O300 C294 1.255 . S
C301 O305 1.295 . S
C301 O306 1.235 . S
O302 Fe287 1.976 . S
O302 C296 1.287 . S
O303 Fe289 1.996 . S
O303 C296 1.255 . S
C304 O297 1.287 . S
C304 O298 1.255 . S
O305 Fe287 2.002 . S
O305 C301 1.295 . S
O306 Fe289 1.997 . S
O306 C301 1.235 . S
C307 O290 1.295 . S
C307 O291 1.235 . S
Fe308 O310 1.918 . S
Fe308 O313 1.997 . S
Fe308 O314 2.002 . S
Fe308 O319 1.976 . S
Fe308 O322 1.996 . S
Fe309 O310 1.918 . S
Fe309 O317 1.997 . S
Fe309 O320 1.996 . S
Fe309 O324 1.976 . S
Fe309 O327 2.002 . S
O310 Fe308 1.918 . S
O310 Fe309 1.918 . S
O310 Fe311 1.918 . S
Fe311 O310 1.918 . S
Fe311 O312 2.002 . S
Fe311 O321 1.976 . S
Fe311 O325 1.996 . S
Fe311 O328 1.997 . S
O312 Fe311 2.002 . S
O312 C329 1.295 . S
O313 Fe308 1.997 . S
O313 C329 1.235 . S
O314 Fe308 2.002 . S
O314 C315 1.295 . S
C315 O314 1.295 . S
C315 O317 1.235 . S
C316 O321 1.287 . S
C316 O322 1.255 . S
O317 Fe309 1.997 . S
O317 C315 1.235 . S
C318 O324 1.287 . S
C318 O325 1.255 . S
O319 Fe308 1.976 . S
O319 C326 1.287 . S
O320 Fe309 1.996 . S
O320 C326 1.255 . S
O321 Fe311 1.976 . S
O321 C316 1.287 . S
O322 Fe308 1.996 . S
O322 C316 1.255 . S
C323 O327 1.295 . S
C323 O328 1.235 . S
O324 Fe309 1.976 . S
O324 C318 1.287 . S
O325 Fe311 1.996 . S
O325 C318 1.255 . S
C326 O319 1.287 . S
C326 O320 1.255 . S
O327 Fe309 2.002 . S
O327 C323 1.295 . S
O328 Fe311 1.997 . S
O328 C323 1.235 . S
C329 O312 1.295 . S
C329 O313 1.235 . S
Fe330 O332 1.918 . S
Fe330 O335 1.997 . S
Fe330 O336 2.002 . S
Fe330 O341 1.976 . S
Fe330 O344 1.996 . S
Fe331 O332 1.918 . S
Fe331 O339 1.997 . S
Fe331 O342 1.996 . S
Fe331 O346 1.976 . S
Fe331 O349 2.002 . S
O332 Fe330 1.918 . S
O332 Fe331 1.918 . S
O332 Fe333 1.918 . S
Fe333 O332 1.918 . S
Fe333 O334 2.002 . S
Fe333 O343 1.976 . S
Fe333 O347 1.996 . S
Fe333 O350 1.997 . S
O334 Fe333 2.002 . S
O334 C351 1.295 . S
O335 Fe330 1.997 . S
O335 C351 1.235 . S
O336 Fe330 2.002 . S
O336 C337 1.295 . S
C337 O336 1.295 . S
C337 O339 1.235 . S
C338 O343 1.287 . S
C338 O344 1.255 . S
O339 Fe331 1.997 . S
O339 C337 1.235 . S
C340 O346 1.287 . S
C340 O347 1.255 . S
O341 Fe330 1.976 . S
O341 C348 1.287 . S
O342 Fe331 1.996 . S
O342 C348 1.255 . S
O343 Fe333 1.976 . S
O343 C338 1.287 . S
O344 Fe330 1.996 . S
O344 C338 1.255 . S
C345 O349 1.295 . S
C345 O350 1.235 . S
O346 Fe331 1.976 . S
O346 C340 1.287 . S
O347 Fe333 1.996 . S
O347 C340 1.255 . S
C348 O341 1.287 . S
C348 O342 1.255 . S
O349 Fe331 2.002 . S
O349 C345 1.295 . S
O350 Fe333 1.997 . S
O350 C345 1.235 . S
C351 O334 1.295 . S
C351 O335 1.235 . S
Fe352 O354 1.918 . S
Fe352 O357 1.997 . S
Fe352 O358 2.002 . S
Fe352 O363 1.976 . S
Fe352 O366 1.996 . S
Fe353 O354 1.918 . S
Fe353 O361 1.997 . S
Fe353 O364 1.996 . S
Fe353 O368 1.976 . S
Fe353 O371 2.002 . S
O354 Fe352 1.918 . S
O354 Fe353 1.918 . S
O354 Fe355 1.918 . S
Fe355 O354 1.918 . S
Fe355 O356 2.002 . S
Fe355 O365 1.976 . S
Fe355 O369 1.996 . S
Fe355 O372 1.997 . S
O356 Fe355 2.002 . S
O356 C373 1.295 . S
O357 Fe352 1.997 . S
O357 C373 1.235 . S
O358 Fe352 2.002 . S
O358 C359 1.295 . S
C359 O358 1.295 . S
C359 O361 1.235 . S
C360 O365 1.287 . S
C360 O366 1.255 . S
O361 Fe353 1.997 . S
O361 C359 1.235 . S
C362 O368 1.287 . S
C362 O369 1.255 . S
O363 Fe352 1.976 . S
O363 C370 1.287 . S
O364 Fe353 1.996 . S
O364 C370 1.255 . S
O365 Fe355 1.976 . S
O365 C360 1.287 . S
O366 Fe352 1.996 . S
O366 C360 1.255 . S
C367 O371 1.295 . S
C367 O372 1.235 . S
O368 Fe353 1.976 . S
O368 C362 1.287 . S
O369 Fe355 1.996 . S
O369 C362 1.255 . S
C370 O363 1.287 . S
C370 O364 1.255 . S
O371 Fe353 2.002 . S
O371 C367 1.295 . S
O372 Fe355 1.997 . S
O372 C367 1.235 . S
C373 O356 1.295 . S
C373 O357 1.235 . S
Fe374 O376 1.918 . S
Fe374 O379 1.997 . S
Fe374 O380 2.002 . S
Fe374 O385 1.976 . S
Fe374 O388 1.996 . S
Fe375 O376 1.918 . S
Fe375 O383 1.997 . S
Fe375 O386 1.996 . S
Fe375 O390 1.976 . S
Fe375 O393 2.002 . S
O376 Fe374 1.918 . S
O376 Fe375 1.918 . S
O376 Fe377 1.918 . S
Fe377 O376 1.918 . S
Fe377 O378 2.002 . S
Fe377 O387 1.976 . S
Fe377 O391 1.996 . S
Fe377 O394 1.997 . S
O378 Fe377 2.002 . S
O378 C395 1.295 . S
O379 Fe374 1.997 . S
O379 C395 1.235 . S
O380 Fe374 2.002 . S
O380 C381 1.295 . S
C381 O380 1.295 . S
C381 O383 1.235 . S
C382 O387 1.287 . S
C382 O388 1.255 . S
O383 Fe375 1.997 . S
O383 C381 1.235 . S
C384 O390 1.287 . S
C384 O391 1.255 . S
O385 Fe374 1.976 . S
O385 C392 1.287 . S
O386 Fe375 1.996 . S
O386 C392 1.255 . S
O387 Fe377 1.976 . S
O387 C382 1.287 . S
O388 Fe374 1.996 . S
O388 C382 1.255 . S
C389 O393 1.295 . S
C389 O394 1.235 . S
O390 Fe375 1.976 . S
O390 C384 1.287 . S
O391 Fe377 1.996 . S
O391 C384 1.255 . S
C392 O385 1.287 . S
C392 O386 1.255 . S
O393 Fe375 2.002 . S
O393 C389 1.295 . S
O394 Fe377 1.997 . S
O394 C389 1.235 . S
C395 O378 1.295 . S
C395 O379 1.235 . S
Fe396 O398 1.918 . S
Fe396 O401 1.997 . S
Fe396 O402 2.002 . S
Fe396 O407 1.976 . S
Fe396 O410 1.996 . S
Fe397 O398 1.918 . S
Fe397 O405 1.997 . S
Fe397 O408 1.996 . S
Fe397 O412 1.976 . S
Fe397 O415 2.002 . S
O398 Fe396 1.918 . S
O398 Fe397 1.918 . S
O398 Fe399 1.918 . S
Fe399 O398 1.918 . S
Fe399 O400 2.002 . S
Fe399 O409 1.976 . S
Fe399 O413 1.996 . S
Fe399 O416 1.997 . S
O400 Fe399 2.002 . S
O400 C417 1.295 . S
O401 Fe396 1.997 . S
O401 C417 1.235 . S
O402 Fe396 2.002 . S
O402 C403 1.295 . S
C403 O402 1.295 . S
C403 O405 1.235 . S
C404 O409 1.287 . S
C404 O410 1.255 . S
O405 Fe397 1.997 . S
O405 C403 1.235 . S
C406 O412 1.287 . S
C406 O413 1.255 . S
O407 Fe396 1.976 . S
O407 C414 1.287 . S
O408 Fe397 1.996 . S
O408 C414 1.255 . S
O409 Fe399 1.976 . S
O409 C404 1.287 . S
O410 Fe396 1.996 . S
O410 C404 1.255 . S
C411 O415 1.295 . S
C411 O416 1.235 . S
O412 Fe397 1.976 . S
O412 C406 1.287 . S
O413 Fe399 1.996 . S
O413 C406 1.255 . S
C414 O407 1.287 . S
C414 O408 1.255 . S
O415 Fe397 2.002 . S
O415 C411 1.295 . S
O416 Fe399 1.997 . S
O416 C411 1.235 . S
C417 O400 1.295 . S
C417 O401 1.235 . S
Fe418 O420 1.918 . S
Fe418 O423 1.997 . S
Fe418 O424 2.002 . S
Fe418 O429 1.976 . S
Fe418 O432 1.996 . S
Fe419 O420 1.918 . S
Fe419 O427 1.997 . S
Fe419 O430 1.996 . S
Fe419 O434 1.976 . S
Fe419 O437 2.002 . S
O420 Fe418 1.918 . S
O420 Fe419 1.918 . S
O420 Fe421 1.918 . S
Fe421 O420 1.918 . S
Fe421 O422 2.002 . S
Fe421 O431 1.976 . S
Fe421 O435 1.996 . S
Fe421 O438 1.997 . S
O422 Fe421 2.002 . S
O422 C439 1.295 . S
O423 Fe418 1.997 . S
O423 C439 1.235 . S
O424 Fe418 2.002 . S
O424 C425 1.295 . S
C425 O424 1.295 . S
C425 O427 1.235 . S
C426 O431 1.287 . S
C426 O432 1.255 . S
O427 Fe419 1.997 . S
O427 C425 1.235 . S
C428 O434 1.287 . S
C428 O435 1.255 . S
O429 Fe418 1.976 . S
O429 C436 1.287 . S
O430 Fe419 1.996 . S
O430 C436 1.255 . S
O431 Fe421 1.976 . S
O431 C426 1.287 . S
O432 Fe418 1.996 . S
O432 C426 1.255 . S
C433 O437 1.295 . S
C433 O438 1.235 . S
O434 Fe419 1.976 . S
O434 C428 1.287 . S
O435 Fe421 1.996 . S
O435 C428 1.255 . S
C436 O429 1.287 . S
C436 O430 1.255 . S
O437 Fe419 2.002 . S
O437 C433 1.295 . S
O438 Fe421 1.997 . S
O438 C433 1.235 . S
C439 O422 1.295 . S
C439 O423 1.235 . S
Fe440 O442 1.918 . S
Fe440 O445 1.997 . S
Fe440 O446 2.002 . S
Fe440 O451 1.976 . S
Fe440 O454 1.996 . S
Fe441 O442 1.918 . S
Fe441 O449 1.997 . S
Fe441 O452 1.996 . S
Fe441 O456 1.976 . S
Fe441 O459 2.002 . S
O442 Fe440 1.918 . S
O442 Fe441 1.918 . S
O442 Fe443 1.918 . S
Fe443 O442 1.918 . S
Fe443 O444 2.002 . S
Fe443 O453 1.976 . S
Fe443 O457 1.996 . S
Fe443 O460 1.997 . S
O444 Fe443 2.002 . S
O444 C461 1.295 . S
O445 Fe440 1.997 . S
O445 C461 1.235 . S
O446 Fe440 2.002 . S
O446 C447 1.295 . S
C447 O446 1.295 . S
C447 O449 1.235 . S
C448 O453 1.287 . S
C448 O454 1.255 . S
O449 Fe441 1.997 . S
O449 C447 1.235 . S
C450 O456 1.287 . S
C450 O457 1.255 . S
O451 Fe440 1.976 . S
O451 C458 1.287 . S
O452 Fe441 1.996 . S
O452 C458 1.255 . S
O453 Fe443 1.976 . S
O453 C448 1.287 . S
O454 Fe440 1.996 . S
O454 C448 1.255 . S
C455 O459 1.295 . S
C455 O460 1.235 . S
O456 Fe441 1.976 . S
O456 C450 1.287 . S
O457 Fe443 1.996 . S
O457 C450 1.255 . S
C458 O451 1.287 . S
C458 O452 1.255 . S
O459 Fe441 2.002 . S
O459 C455 1.295 . S
O460 Fe443 1.997 . S
O460 C455 1.235 . S
C461 O444 1.295 . S
C461 O445 1.235 . S
Fe462 O464 1.918 . S
Fe462 O467 1.997 . S
Fe462 O468 2.002 . S
Fe462 O473 1.976 . S
Fe462 O476 1.996 . S
Fe463 O464 1.918 . S
Fe463 O471 1.997 . S
Fe463 O474 1.996 . S
Fe463 O478 1.976 . S
Fe463 O481 2.002 . S
O464 Fe462 1.918 . S
O464 Fe463 1.918 . S
O464 Fe465 1.918 . S
Fe465 O464 1.918 . S
Fe465 O466 2.002 . S
Fe465 O475 1.976 . S
Fe465 O479 1.996 . S
Fe465 O482 1.997 . S
O466 Fe465 2.002 . S
O466 C483 1.295 . S
O467 Fe462 1.997 . S
O467 C483 1.235 . S
O468 Fe462 2.002 . S
O468 C469 1.295 . S
C469 O468 1.295 . S
C469 O471 1.235 . S
C470 O475 1.287 . S
C470 O476 1.255 . S
O471 Fe463 1.997 . S
O471 C469 1.235 . S
C472 O478 1.287 . S
C472 O479 1.255 . S
O473 Fe462 1.976 . S
O473 C480 1.287 . S
O474 Fe463 1.996 . S
O474 C480 1.255 . S
O475 Fe465 1.976 . S
O475 C470 1.287 . S
O476 Fe462 1.996 . S
O476 C470 1.255 . S
C477 O481 1.295 . S
C477 O482 1.235 . S
O478 Fe463 1.976 . S
O478 C472 1.287 . S
O479 Fe465 1.996 . S
O479 C472 1.255 . S
C480 O473 1.287 . S
C480 O474 1.255 . S
O481 Fe463 2.002 . S
O481 C477 1.295 . S
O482 Fe465 1.997 . S
O482 C477 1.235 . S
C483 O466 1.295 . S
C483 O467 1.235 . S
Fe484 O486 1.918 . S
Fe484 O489 1.997 . S
Fe484 O490 2.002 . S
Fe484 O495 1.976 . S
Fe484 O498 1.996 . S
Fe485 O486 1.918 . S
Fe485 O493 1.997 . S
Fe485 O496 1.996 . S
Fe485 O500 1.976 . S
Fe485 O503 2.002 . S
O486 Fe484 1.918 . S
O486 Fe485 1.918 . S
O486 Fe487 1.918 . S
Fe487 O486 1.918 . S
Fe487 O488 2.002 . S
Fe487 O497 1.976 . S
Fe487 O501 1.996 . S
Fe487 O504 1.997 . S
O488 Fe487 2.002 . S
O488 C505 1.295 . S
O489 Fe484 1.997 . S
O489 C505 1.235 . S
O490 Fe484 2.002 . S
O490 C491 1.295 . S
C491 O490 1.295 . S
C491 O493 1.235 . S
C492 O497 1.287 . S
C492 O498 1.255 . S
O493 Fe485 1.997 . S
O493 C491 1.235 . S
C494 O500 1.287 . S
C494 O501 1.255 . S
O495 Fe484 1.976 . S
O495 C502 1.287 . S
O496 Fe485 1.996 . S
O496 C502 1.255 . S
O497 Fe487 1.976 . S
O497 C492 1.287 . S
O498 Fe484 1.996 . S
O498 C492 1.255 . S
C499 O503 1.295 . S
C499 O504 1.235 . S
O500 Fe485 1.976 . S
O500 C494 1.287 . S
O501 Fe487 1.996 . S
O501 C494 1.255 . S
C502 O495 1.287 . S
C502 O496 1.255 . S
O503 Fe485 2.002 . S
O503 C499 1.295 . S
O504 Fe487 1.997 . S
O504 C499 1.235 . S
C505 O488 1.295 . S
C505 O489 1.235 . S
Fe506 O508 1.918 . S
Fe506 O511 1.997 . S
Fe506 O512 2.002 . S
Fe506 O517 1.976 . S
Fe506 O520 1.996 . S
Fe507 O508 1.918 . S
Fe507 O515 1.997 . S
Fe507 O518 1.996 . S
Fe507 O522 1.976 . S
Fe507 O525 2.002 . S
O508 Fe506 1.918 . S
O508 Fe507 1.918 . S
O508 Fe509 1.918 . S
Fe509 O508 1.918 . S
Fe509 O510 2.002 . S
Fe509 O519 1.976 . S
Fe509 O523 1.996 . S
Fe509 O526 1.997 . S
O510 Fe509 2.002 . S
O510 C527 1.295 . S
O511 Fe506 1.997 . S
O511 C527 1.235 . S
O512 Fe506 2.002 . S
O512 C513 1.295 . S
C513 O512 1.295 . S
C513 O515 1.235 . S
C514 O519 1.287 . S
C514 O520 1.255 . S
O515 Fe507 1.997 . S
O515 C513 1.235 . S
C516 O522 1.287 . S
C516 O523 1.255 . S
O517 Fe506 1.976 . S
O517 C524 1.287 . S
O518 Fe507 1.996 . S
O518 C524 1.255 . S
O519 Fe509 1.976 . S
O519 C514 1.287 . S
O520 Fe506 1.996 . S
O520 C514 1.255 . S
C521 O525 1.295 . S
C521 O526 1.235 . S
O522 Fe507 1.976 . S
O522 C516 1.287 . S
O523 Fe509 1.996 . S
O523 C516 1.255 . S
C524 O517 1.287 . S
C524 O518 1.255 . S
O525 Fe507 2.002 . S
O525 C521 1.295 . S
O526 Fe509 1.997 . S
O526 C521 1.235 . S
C527 O510 1.295 . S
C527 O511 1.235 . S
C10 C153 1.141 1_455 S
C29 C162 1.141 1_545 S
C95 C52 1.141 1_455 S
C87 C128 1.141 1_565 S
C74 C40 1.087 1_545 S
C65 C15 1.195 1_455 S
C117 C175 1.195 1_565 S
C140 C106 1.087 1_455 S
C191 C208 1.141 1_554 S
C186 C227 1.141 1_556 S
C238 C263 1.141 1_556 S
C250 C213 1.141 1_556 S
C274 C417 1.141 1_556 S
C426 C293 1.141 1_554 S
C318 C367 1.141 1_556 S
C337 C392 1.141 1_556 S
C348 C304 1.087 1_655 S
C323 C279 1.195 1_545 S
C381 C439 1.195 1_655 S
C404 C362 1.087 1_565 S
C455 C472 1.141 1_565 S
C491 C450 1.141 1_455 S
C502 C527 1.141 1_565 S
C514 C477 1.141 1_455 S
C524 C8 1.581 . S
C470 C43 1.578 . S
C62 C448 1.581 . S
C81 C494 1.578 . S
C505 C109 1.612 . S
C120 C521 1.616 . S
C469 C147 1.612 . S
C172 C447 1.616 . S
C360 C84 1.570 . S
C7 C395 1.622 . S
C32 C414 1.570 . S
C59 C433 1.622 . S
C271 C131 1.622 . S
C150 C296 1.570 . S
C169 C315 1.622 . S
C98 C340 1.570 . S
C436 C183 1.616 . S
C206 C307 1.578 . S
C316 C184 1.581 . S
C351 C230 1.578 . S
C260 C272 1.581 . S
C384 C257 1.616 . S
C411 C205 1.612 . S
C359 C241 1.612 . S
C103 C458 1.454 . S
C118 C492 1.450 . S
C139 C516 1.454 . S
C480 C164 1.450 . S
C483 C18 1.493 . S
C37 C461 1.496 . S
C54 C499 1.493 . S
C513 C73 1.496 . S
C285 C161 1.504 . S
C96 C294 1.441 . S
C329 C125 1.504 . S
C338 C142 1.441 . S
C370 C30 1.441 . S
C51 C389 1.504 . S
C406 C76 1.441 . S
C425 C21 1.504 . S
C249 C345 1.496 . S
C228 C382 1.450 . S
C403 C252 1.453 . S
C216 C428 1.450 . S
C194 C373 1.453 . S
C301 C197 1.496 . S
C235 C326 1.493 . S
C282 C219 1.493 . S
