# Generated by pormake.
# Topology ukh, (4)-cn, num edge types: 1
# Building blocks:
#     Node 0, Type 0, BuildingBlock: CEKHIL_clean_sbu_0, # of connection points: 4
#     Node 1, Type 0, BuildingBlock: CEKHIL_clean_sbu_0, # of connection points: 4
#     Node 2, Type 0, BuildingBlock: CEKHIL_clean_sbu_0, # of connection points: 4
#     Node 3, Type 0, BuildingBlock: CEKHIL_clean_sbu_0, # of connection points: 4
#     Node 4, Type 0, BuildingBlock: CEKHIL_clean_sbu_0, # of connection points: 4
#     Node 5, Type 0, BuildingBlock: CEKHIL_clean_sbu_0, # of connection points: 4
#     Node 6, Type 0, BuildingBlock: CEKHIL_clean_sbu_0, # of connection points: 4
#     Node 7, Type 0, BuildingBlock: CEKHIL_clean_sbu_0, # of connection points: 4
#     Node 8, Type 0, BuildingBlock: CEKHIL_clean_sbu_0, # of connection points: 4
#     Node 9, Type 0, BuildingBlock: CEKHIL_clean_sbu_0, # of connection points: 4
#     Node 10, Type 0, BuildingBlock: CEKHIL_clean_sbu_0, # of connection points: 4
#     Node 11, Type 0, BuildingBlock: CEKHIL_clean_sbu_0, # of connection points: 4
#     Edge 12, Type (0, 0), BuildingBlock: XIVTED_clean_linker_0, # of connection points: 2
#     Edge 13, Type (0, 0), BuildingBlock: XIVTED_clean_linker_0, # of connection points: 2
#     Edge 14, Type (0, 0), BuildingBlock: XIVTED_clean_linker_0, # of connection points: 2
#     Edge 15, Type (0, 0), BuildingBlock: XIVTED_clean_linker_0, # of connection points: 2
#     Edge 16, Type (0, 0), BuildingBlock: XIVTED_clean_linker_0, # of connection points: 2
#     Edge 17, Type (0, 0), BuildingBlock: XIVTED_clean_linker_0, # of connection points: 2
#     Edge 18, Type (0, 0), BuildingBlock: XIVTED_clean_linker_0, # of connection points: 2
#     Edge 19, Type (0, 0), BuildingBlock: XIVTED_clean_linker_0, # of connection points: 2
#     Edge 20, Type (0, 0), BuildingBlock: XIVTED_clean_linker_0, # of connection points: 2
#     Edge 21, Type (0, 0), BuildingBlock: XIVTED_clean_linker_0, # of connection points: 2
#     Edge 22, Type (0, 0), BuildingBlock: XIVTED_clean_linker_0, # of connection points: 2
#     Edge 23, Type (0, 0), BuildingBlock: XIVTED_clean_linker_0, # of connection points: 2
#     Edge 24, Type (0, 0), BuildingBlock: XIVTED_clean_linker_0, # of connection points: 2
#     Edge 25, Type (0, 0), BuildingBlock: XIVTED_clean_linker_0, # of connection points: 2
#     Edge 26, Type (0, 0), BuildingBlock: XIVTED_clean_linker_0, # of connection points: 2
#     Edge 27, Type (0, 0), BuildingBlock: XIVTED_clean_linker_0, # of connection points: 2
#     Edge 28, Type (0, 0), BuildingBlock: XIVTED_clean_linker_0, # of connection points: 2
#     Edge 29, Type (0, 0), BuildingBlock: XIVTED_clean_linker_0, # of connection points: 2
#     Edge 30, Type (0, 0), BuildingBlock: XIVTED_clean_linker_0, # of connection points: 2
#     Edge 31, Type (0, 0), BuildingBlock: XIVTED_clean_linker_0, # of connection points: 2
#     Edge 32, Type (0, 0), BuildingBlock: XIVTED_clean_linker_0, # of connection points: 2
#     Edge 33, Type (0, 0), BuildingBlock: XIVTED_clean_linker_0, # of connection points: 2
#     Edge 34, Type (0, 0), BuildingBlock: XIVTED_clean_linker_0, # of connection points: 2
#     Edge 35, Type (0, 0), BuildingBlock: XIVTED_clean_linker_0, # of connection points: 2
# Relax obj value: 0.070
# Max RMSD: 0.091
# Mean RMSD: 0.091
data_MOF--net-ukh--node1-CEKHIL_clean_sbu_0--edge1-XIVTED_clean_linker_0
_symmetry_space_group_name_H-M    P1
_symmetry_Int_Tables_number       1
_symmetry_cell_setting            triclinic
loop_
_symmetry_equiv_pos_as_xyz
'x, y, z'
_cell_length_a     32.49513
_cell_length_b     32.515231
_cell_length_c     60.860375
_cell_angle_alpha  89.988997
_cell_angle_beta   90.00718
_cell_angle_gamma 120.00237
loop_
_atom_site_label
_atom_site_type_symbol
_atom_site_fract_x
_atom_site_fract_y
_atom_site_fract_z
_atom_type_partial_charge
Co0 Co 0.32451 0.24849 0.04582 0.0
O1 O 0.34189 0.31264 0.05249 0.0
O2 O 0.39083 0.29139 0.03797 0.0
C3 C 0.2558 0.23016 0.02893 0.0
O4 O 0.31562 0.18431 0.03606 0.0
Co5 Co 0.23245 0.17018 0.06851 0.0
O6 O 0.24549 0.12772 0.05009 0.0
C7 C 0.32017 0.22138 0.09397 0.0
C8 C 0.38349 0.32535 0.04462 0.0
C9 C 0.28276 0.14055 0.03855 0.0
O10 O 0.34376 0.23946 0.0762 0.0
O11 O 0.27479 0.19742 0.09476 0.0
O12 O 0.29571 0.25181 0.01829 0.0
O13 O 0.25946 0.22538 0.04978 0.0
Co14 Co 0.07695 0.32477 0.37962 0.0
O15 O 0.03092 0.34341 0.3859 0.0
O16 O 0.10097 0.39068 0.37083 0.0
C17 C 0.02537 0.25529 0.36372 0.0
O18 O 0.13145 0.31426 0.37012 0.0
Co19 Co 0.06247 0.23369 0.40358 0.0
O20 O 0.1161 0.24383 0.38443 0.0
C21 C 0.10002 0.32293 0.4279 0.0
C22 C 0.06002 0.38434 0.37749 0.0
C23 C 0.1411 0.2805 0.37262 0.0
O24 O 0.1059 0.34562 0.4098 0.0
O25 O 0.07809 0.27762 0.42923 0.0
O26 O 0.04389 0.29441 0.35246 0.0
O27 O 0.03446 0.2603 0.38449 0.0
Co28 Co 0.75 0.07469 0.71402 0.0
O29 O 0.68533 0.02813 0.71995 0.0
O30 O 0.70776 0.0982 0.70503 0.0
C31 C 0.76898 0.02383 0.69821 0.0
O32 O 0.81506 0.12971 0.70488 0.0
Co33 Co 0.82661 0.0608 0.73838 0.0
O34 O 0.87022 0.11469 0.7194 0.0
C35 C 0.77316 0.09673 0.76246 0.0
C36 C 0.67326 0.05702 0.71149 0.0
C37 C 0.85854 0.13963 0.70755 0.0
O38 O 0.75701 0.10306 0.74426 0.0
O39 O 0.79675 0.07501 0.76388 0.0
O40 O 0.74834 0.04217 0.68684 0.0
O41 O 0.77248 0.03266 0.719 0.0
Co42 Co 0.68099 0.75028 0.04899 0.0
O43 O 0.66334 0.68587 0.05527 0.0
O44 O 0.61551 0.70756 0.03986 0.0
C45 C 0.75134 0.76971 0.03352 0.0
O46 O 0.69035 0.81477 0.03943 0.0
Co47 Co 0.77072 0.82804 0.0734 0.0
O48 O 0.75915 0.87107 0.05463 0.0
C49 C 0.68112 0.77415 0.09725 0.0
C50 C 0.62243 0.67341 0.04661 0.0
C51 C 0.72284 0.85852 0.04242 0.0
O52 O 0.65896 0.75762 0.07902 0.0
O53 O 0.72641 0.79804 0.09881 0.0
O54 O 0.71251 0.7484 0.02206 0.0
O55 O 0.74559 0.77361 0.05424 0.0
Co56 Co 0.92978 0.67931 0.38193 0.0
O57 O 0.97621 0.6609 0.38765 0.0
O58 O 0.90582 0.61358 0.37289 0.0
C59 C 0.98049 0.74905 0.36601 0.0
O60 O 0.87479 0.68952 0.37301 0.0
Co61 Co 0.9442 0.76967 0.40647 0.0
O62 O 0.88895 0.75875 0.38832 0.0
C63 C 0.90771 0.6802 0.43043 0.0
C64 C 0.94701 0.62003 0.37921 0.0
C65 C 0.86428 0.72246 0.37625 0.0
O66 O 0.90157 0.65794 0.41219 0.0
O67 O 0.9297 0.72549 0.43195 0.0
O68 O 0.96191 0.71002 0.35469 0.0
O69 O 0.97215 0.74386 0.38685 0.0
Co70 Co 0.24885 0.93156 0.71537 0.0
O71 O 0.31365 0.97801 0.72111 0.0
O72 O 0.29087 0.90814 0.70589 0.0
C73 C 0.22945 0.98254 0.70002 0.0
O74 O 0.18359 0.87667 0.70644 0.0
Co75 Co 0.1731 0.94541 0.74058 0.0
O76 O 0.1287 0.89033 0.72239 0.0
C77 C 0.22605 0.90787 0.76379 0.0
C78 C 0.32551 0.94923 0.71237 0.0
C79 C 0.14015 0.86593 0.71003 0.0
O80 O 0.24226 0.9025 0.74541 0.0
O81 O 0.20276 0.92981 0.7657 0.0
O82 O 0.24993 0.96439 0.6884 0.0
O83 O 0.22651 0.9736 0.72079 0.0
Co84 Co 0.75001 0.67978 0.61465 0.0
O85 O 0.68514 0.66042 0.60842 0.0
O86 O 0.70854 0.61416 0.62401 0.0
C87 C 0.76774 0.74974 0.62993 0.0
O88 O 0.8154 0.69125 0.62413 0.0
Co89 Co 0.82575 0.77017 0.5899 0.0
O90 O 0.86979 0.76136 0.60928 0.0
C91 C 0.77458 0.67975 0.56643 0.0
C92 C 0.67365 0.61994 0.61724 0.0
C93 C 0.85865 0.72522 0.62139 0.0
O94 O 0.75799 0.65785 0.58472 0.0
O95 O 0.79755 0.725 0.56465 0.0
O96 O 0.74742 0.71105 0.6415 0.0
O97 O 0.77152 0.74396 0.6092 0.0
Co98 Co 0.07329 0.74849 0.94811 0.0
O99 O 0.02678 0.68359 0.94268 0.0
O100 O 0.09817 0.70707 0.95639 0.0
C101 C 0.02342 0.76734 0.96507 0.0
O102 O 0.1286 0.81379 0.95654 0.0
Co103 Co 0.05679 0.82392 0.92434 0.0
O104 O 0.11313 0.8685 0.94183 0.0
C105 C 0.09291 0.77174 0.89946 0.0
C106 C 0.05669 0.67218 0.9505 0.0
C107 C 0.13873 0.85715 0.95339 0.0
O108 O 0.09977 0.75543 0.91747 0.0
O109 O 0.07068 0.79488 0.8984 0.0
O110 O 0.04279 0.74698 0.97588 0.0
O111 O 0.03042 0.77042 0.94411 0.0
Co112 Co 0.32267 0.07208 0.28037 0.0
O113 O 0.34103 0.0254 0.27536 0.0
O114 O 0.38891 0.09694 0.28885 0.0
C115 C 0.25365 0.02244 0.2972 0.0
O116 O 0.31267 0.12761 0.28837 0.0
Co117 Co 0.23089 0.05527 0.25623 0.0
O118 O 0.24271 0.11207 0.27332 0.0
C119 C 0.31924 0.08977 0.23152 0.0
C120 C 0.38233 0.05536 0.28318 0.0
C121 C 0.27954 0.1378 0.28492 0.0
O122 O 0.34248 0.09779 0.2496 0.0
O123 O 0.27386 0.06739 0.23047 0.0
O124 O 0.29318 0.04199 0.30818 0.0
O125 O 0.25799 0.02931 0.27625 0.0
Co126 Co 0.24847 0.3242 0.61453 0.0
O127 O 0.31345 0.34235 0.60932 0.0
O128 O 0.2902 0.39008 0.6234 0.0
C129 C 0.2288 0.25458 0.63078 0.0
O130 O 0.18305 0.31429 0.62284 0.0
Co131 Co 0.17303 0.23343 0.58994 0.0
O132 O 0.12833 0.24487 0.60751 0.0
C133 C 0.22753 0.32238 0.56576 0.0
C134 C 0.32504 0.38343 0.61746 0.0
C135 C 0.13964 0.28134 0.61939 0.0
O136 O 0.24265 0.34507 0.58398 0.0
O137 O 0.2043 0.27706 0.56444 0.0
O138 O 0.24902 0.29371 0.64204 0.0
O139 O 0.2262 0.25965 0.6099 0.0
Co140 Co 0.92792 0.24747 0.9475 0.0
O141 O 0.97408 0.31217 0.94132 0.0
O142 O 0.90472 0.28944 0.95715 0.0
C143 C 0.97973 0.22851 0.96234 0.0
O144 O 0.87336 0.18259 0.95702 0.0
Co145 Co 0.94005 0.17053 0.92245 0.0
O146 O 0.88604 0.12685 0.94136 0.0
C147 C 0.9034 0.22436 0.89926 0.0
C148 C 0.94546 0.32402 0.95029 0.0
C149 C 0.86234 0.13897 0.95384 0.0
O150 O 0.89785 0.24038 0.91766 0.0
O151 O 0.92505 0.20078 0.89737 0.0
O152 O 0.96213 0.24926 0.97414 0.0
O153 O 0.96955 0.22483 0.94169 0.0
Co154 Co 0.67956 0.9278 0.28195 0.0
O155 O 0.66095 0.97397 0.27597 0.0
O156 O 0.61376 0.90382 0.29096 0.0
C157 C 0.74937 0.97901 0.29772 0.0
O158 O 0.68996 0.8731 0.29114 0.0
Co159 Co 0.77007 0.94202 0.25755 0.0
O160 O 0.75922 0.88706 0.27587 0.0
C161 C 0.68059 0.90551 0.23354 0.0
C162 C 0.62005 0.9448 0.28442 0.0
C163 C 0.72294 0.86258 0.28799 0.0
O164 O 0.6582 0.89918 0.25176 0.0
O165 O 0.72591 0.92756 0.23206 0.0
O166 O 0.71039 0.96051 0.3091 0.0
O167 O 0.74406 0.97015 0.27693 0.0
H168 H 0.63889 0.59957 0.04919 0.0
H169 H 0.36709 0.39919 0.04732 0.0
H170 H 0.52611 0.63077 0.03823 0.0
H171 H 0.48037 0.3682 0.03759 0.0
H172 H 0.42461 0.48375 0.04557 0.0
H173 H 0.58158 0.51504 0.0465 0.0
C174 C 0.60195 0.58863 0.04621 0.0
C175 C 0.58717 0.62235 0.0441 0.0
C176 C 0.43696 0.45858 0.04369 0.0
C177 C 0.52121 0.52517 0.04108 0.0
C178 C 0.40419 0.41017 0.0448 0.0
C179 C 0.41903 0.37649 0.04276 0.0
C180 C 0.48524 0.47375 0.04081 0.0
C181 C 0.46745 0.39293 0.0393 0.0
C182 C 0.56931 0.54027 0.04455 0.0
C183 C 0.53898 0.606 0.04001 0.0
N184 N 0.49896 0.44051 0.03865 0.0
N185 N 0.50758 0.55846 0.03885 0.0
H186 H 0.11506 0.48075 0.36971 0.0
H187 H 0.8921 0.52396 0.37073 0.0
H188 H 0.97017 0.36917 0.3798 0.0
H189 H 0.03696 0.63522 0.38125 0.0
H190 H 0.92019 0.46652 0.36788 0.0
H191 H 0.08704 0.53838 0.36775 0.0
C192 C 0.07747 0.46839 0.37138 0.0
C193 C 0.04502 0.42026 0.37516 0.0
C194 C 0.94574 0.5036 0.37074 0.0
C195 C 0.0127 0.48548 0.37273 0.0
C196 C 0.9297 0.53629 0.37232 0.0
C197 C 0.96212 0.58427 0.37646 0.0
C198 C 0.99453 0.51926 0.37301 0.0
C199 C 0.01057 0.59844 0.37831 0.0
C200 C 0.06148 0.50119 0.37032 0.0
C201 C 0.99658 0.40606 0.37714 0.0
N202 N 0.02528 0.56617 0.37658 0.0
N203 N 0.98193 0.43843 0.37591 0.0
H204 H 0.39965 0.03944 0.714 0.0
H205 H 0.59914 0.96682 0.71332 0.0
H206 H 0.36766 0.89496 0.70421 0.0
H207 H 0.63096 0.11131 0.70379 0.0
H208 H 0.51465 0.94 0.71092 0.0
H209 H 0.48409 0.06627 0.71119 0.0
C210 C 0.4104 0.01324 0.71122 0.0
C211 C 0.37647 0.96471 0.70952 0.0
C212 C 0.53999 0.97752 0.7092 0.0
C213 C 0.47362 0.99551 0.70637 0.0
C214 C 0.58835 0.99302 0.71069 0.0
C215 C 0.62224 0.04155 0.70894 0.0
C216 C 0.52504 0.01076 0.70625 0.0
C217 C 0.60606 0.07365 0.70529 0.0
C218 C 0.45873 0.02875 0.7095 0.0
C219 C 0.39259 0.93263 0.70568 0.0
N220 N 0.55851 0.05772 0.70429 0.0
N221 N 0.44012 0.94856 0.70446 0.0
H222 H 0.63272 0.524 0.6262 0.0
H223 H 0.36614 0.47988 0.62487 0.0
H224 H 0.59866 0.63455 0.61456 0.0
H225 H 0.39985 0.36824 0.61636 0.0
H226 H 0.45169 0.53761 0.62732 0.0
H227 H 0.54713 0.46625 0.62879 0.0
C228 C 0.60734 0.53611 0.62431 0.0
C229 C 0.62279 0.58397 0.61992 0.0
C230 C 0.44018 0.50038 0.625 0.0
C231 C 0.52533 0.51864 0.62307 0.0
C232 C 0.39144 0.46753 0.62366 0.0
C233 C 0.3759 0.41935 0.62017 0.0
C234 C 0.47337 0.48471 0.62314 0.0
C235 C 0.41023 0.40516 0.61878 0.0
C236 C 0.55859 0.50325 0.62574 0.0
C237 C 0.58837 0.59787 0.61769 0.0
N238 N 0.45723 0.43762 0.62025 0.0
N239 N 0.5414 0.56545 0.61928 0.0
H240 H 0.89088 0.36502 0.95983 0.0
H241 H 0.11272 0.63155 0.95725 0.0
H242 H 0.03507 0.39892 0.94689 0.0
H243 H 0.96687 0.59716 0.94969 0.0
H244 H 0.08537 0.54612 0.95964 0.0
H245 H 0.91871 0.45051 0.96233 0.0
C246 C 0.92829 0.39036 0.95764 0.0
C247 C 0.96057 0.37489 0.95291 0.0
C248 C 0.05945 0.55747 0.95753 0.0
C249 C 0.9927 0.47227 0.95595 0.0
C250 C 0.07507 0.60613 0.95622 0.0
C251 C 0.04212 0.62143 0.95303 0.0
C252 C 0.01057 0.52415 0.95596 0.0
C253 C 0.99363 0.58696 0.95188 0.0
C254 C 0.94418 0.43906 0.95902 0.0
C255 C 0.00879 0.40925 0.95029 0.0
N256 N 0.97935 0.54006 0.95333 0.0
N257 N 0.02336 0.45622 0.95184 0.0
H258 H 0.47885 0.1113 0.29043 0.0
H259 H 0.52394 0.88966 0.29291 0.0
H260 H 0.36765 0.9656 0.28232 0.0
H261 H 0.6346 0.03436 0.28154 0.0
H262 H 0.46596 0.91721 0.29501 0.0
H263 H 0.53694 0.08399 0.29315 0.0
C264 C 0.46667 0.07368 0.28935 0.0
C265 C 0.41851 0.04079 0.28591 0.0
C266 C 0.50303 0.94285 0.29213 0.0
C267 C 0.48427 0.00926 0.28919 0.0
C268 C 0.53603 0.92712 0.29098 0.0
C269 C 0.584 0.95963 0.28682 0.0
C270 C 0.51836 0.99144 0.28939 0.0
C271 C 0.59784 0.0079 0.28452 0.0
C272 C 0.49973 0.05808 0.29085 0.0
C273 C 0.40455 0.99233 0.28469 0.0
N274 N 0.56527 0.0223 0.28582 0.0
N275 N 0.4372 0.97807 0.28632 0.0
H276 H 0.31392 0.05214 0.19097 0.0
H277 H 0.32009 0.25624 0.13461 0.0
H278 H 0.37867 0.18422 0.2267 0.0
H279 H 0.37371 0.17965 0.09795 0.0
H280 H 0.34271 0.23278 0.16886 0.0
H281 H 0.3369 0.0969 0.15638 0.0
C282 C 0.3345 0.09058 0.19146 0.0
C283 C 0.34472 0.11473 0.21153 0.0
C284 C 0.35107 0.22255 0.15328 0.0
C285 C 0.36896 0.16574 0.17238 0.0
C286 C 0.33821 0.23593 0.13383 0.0
C287 C 0.3455 0.22004 0.11363 0.0
C288 C 0.3692 0.19142 0.15239 0.0
C289 C 0.36812 0.19293 0.11333 0.0
C290 C 0.34756 0.11606 0.17181 0.0
C291 C 0.37065 0.16452 0.21145 0.0
N292 N 0.37787 0.17811 0.13251 0.0
N293 N 0.38058 0.18855 0.19211 0.0
H294 H 0.06448 0.32425 0.46818 0.0
H295 H 0.2621 0.31904 0.5255 0.0
H296 H 0.19532 0.37697 0.43207 0.0
H297 H 0.19176 0.38118 0.56086 0.0
H298 H 0.24138 0.34265 0.49082 0.0
H299 H 0.10996 0.34761 0.50257 0.0
C300 C 0.10294 0.34237 0.46754 0.0
C301 C 0.12644 0.34909 0.44746 0.0
C302 C 0.232 0.35265 0.50619 0.0
C303 C 0.17813 0.37366 0.48642 0.0
C304 C 0.24382 0.33922 0.52591 0.0
C305 C 0.2287 0.34847 0.54589 0.0
C306 C 0.20313 0.37344 0.50659 0.0
C307 C 0.20433 0.37391 0.54569 0.0
C308 C 0.12884 0.35566 0.48708 0.0
C309 C 0.17619 0.37177 0.44734 0.0
N310 N 0.19085 0.3842 0.52626 0.0
N311 N 0.20044 0.38193 0.46663 0.0
H312 H 0.73784 0.06015 0.8028 0.0
H313 H 0.93854 0.26136 0.85896 0.0
H314 H 0.81066 0.19162 0.76679 0.0
H315 H 0.80818 0.18546 0.89562 0.0
H316 H 0.89241 0.24016 0.8248 0.0
H317 H 0.75929 0.10527 0.83724 0.0
C318 C 0.75682 0.09861 0.8022 0.0
C319 C 0.77244 0.12242 0.78212 0.0
C320 C 0.87379 0.22965 0.84036 0.0
C321 C 0.79884 0.17383 0.82115 0.0
C322 C 0.90008 0.24175 0.85978 0.0
C323 C 0.87689 0.22521 0.87995 0.0
C324 C 0.82439 0.1991 0.84121 0.0
C325 C 0.8271 0.19913 0.88029 0.0
C326 C 0.76906 0.12432 0.82178 0.0
C327 C 0.79771 0.17221 0.78206 0.0
N328 N 0.80242 0.18546 0.8611 0.0
N329 N 0.81157 0.19638 0.80137 0.0
H330 H 0.68136 0.73915 0.13781 0.0
H331 H 0.68154 0.9409 0.19292 0.0
H332 H 0.624 0.81209 0.10091 0.0
H333 H 0.62343 0.81049 0.22975 0.0
H334 H 0.65759 0.89476 0.15875 0.0
H335 H 0.6572 0.76125 0.17195 0.0
C336 C 0.66204 0.75828 0.13695 0.0
C337 C 0.65432 0.77372 0.11671 0.0
C338 C 0.6485 0.87618 0.17434 0.0
C339 C 0.62882 0.80087 0.15538 0.0
C340 C 0.66214 0.90246 0.19376 0.0
C341 C 0.65414 0.87923 0.21399 0.0
C342 C 0.62882 0.8267 0.17528 0.0
C343 C 0.62971 0.82945 0.21435 0.0
C344 C 0.64831 0.7709 0.15635 0.0
C345 C 0.63005 0.79924 0.11631 0.0
N346 N 0.61925 0.80473 0.1952 0.0
N347 N 0.61949 0.81346 0.13545 0.0
H348 H 0.81457 0.62433 0.5641 0.0
H349 H 0.81282 0.62099 0.43341 0.0
H350 H 0.7407 0.67797 0.5253 0.0
H351 H 0.94171 0.68256 0.47161 0.0
H352 H 0.76645 0.59863 0.46765 0.0
H353 H 0.83971 0.60234 0.53009 0.0
C354 C 0.80178 0.62932 0.54844 0.0
C355 C 0.77564 0.6529 0.54731 0.0
C356 C 0.8048 0.61525 0.46842 0.0
C357 C 0.80356 0.62756 0.50881 0.0
C358 C 0.8312 0.62772 0.449 0.0
C359 C 0.88097 0.65362 0.44988 0.0
C360 C 0.82858 0.62782 0.48865 0.0
C361 C 0.90333 0.66257 0.47039 0.0
C362 C 0.81635 0.61709 0.52916 0.0
C363 C 0.7608 0.65974 0.52672 0.0
N364 N 0.87691 0.65001 0.48907 0.0
N365 N 0.77534 0.64746 0.50817 0.0
H366 H 0.18755 0.80606 0.89626 0.0
H367 H 0.18761 0.81265 0.76571 0.0
H368 H 0.05865 0.74298 0.85803 0.0
H369 H 0.25887 0.93944 0.80513 0.0
H370 H 0.16224 0.76477 0.79949 0.0
H371 H 0.23397 0.83118 0.86204 0.0
C372 C 0.16914 0.79557 0.88064 0.0
C373 C 0.11938 0.77258 0.87978 0.0
C374 C 0.18513 0.80292 0.80061 0.0
C375 C 0.17183 0.80034 0.84104 0.0
C376 C 0.19985 0.83016 0.78146 0.0
C377 C 0.22528 0.87986 0.78283 0.0
C378 C 0.19712 0.82574 0.82106 0.0
C379 C 0.23935 0.90114 0.80353 0.0
C380 C 0.19557 0.81012 0.86124 0.0
C381 C 0.097 0.76066 0.85924 0.0
N382 N 0.22471 0.8739 0.82195 0.0
N383 N 0.12347 0.77505 0.84058 0.0
H384 H 0.17409 0.85795 0.99447 0.0
H385 H 0.31214 0.14138 0.99622 0.0
H386 H 0.19596 0.94648 0.9379 0.0
H387 H 0.25688 0.05231 0.05355 0.0
H388 H 0.29437 0.07087 0.97435 0.0
H389 H 0.22864 0.92912 0.0155 0.0
C390 C 0.19149 0.89214 0.98631 0.0
C391 C 0.17993 0.89657 0.96458 0.0
C392 C 0.2873 0.067 0.99184 0.0
C393 C 0.24181 0.97783 0.98843 0.0
C394 C 0.29779 0.10726 0.00432 0.0
C395 C 0.28525 0.10237 0.02659 0.0
C396 C 0.26443 0.02187 0.00181 0.0
C397 C 0.26639 0.05735 0.0363 0.0
C398 C 0.22234 0.93277 -0.00168 0.0
C399 C 0.20331 0.94172 0.95478 0.0
N400 N 0.25593 0.01874 0.02381 0.0
N401 N 0.2326 0.98066 0.96684 0.0
H402 H 0.17911 0.32208 0.33265 0.0
H403 H 0.2498 0.19595 0.2683 0.0
H404 H 0.19341 0.24013 0.38475 0.0
H405 H 0.3106 0.17213 0.32649 0.0
H406 H 0.2323 0.24931 0.28891 0.0
H407 H 0.23183 0.30638 0.30976 0.0
C408 C 0.19401 0.30152 0.33939 0.0
C409 C 0.18086 0.28129 0.36038 0.0
C410 C 0.2511 0.23414 0.29714 0.0
C411 C 0.23971 0.2617 0.33414 0.0
C412 C 0.26083 0.20324 0.28534 0.0
C413 C 0.28122 0.17924 0.29579 0.0
C414 C 0.26117 0.24059 0.31974 0.0
C415 C 0.29484 0.18995 0.31783 0.0
C416 C 0.22358 0.29192 0.32621 0.0
C417 C 0.20161 0.25535 0.36841 0.0
N418 N 0.28344 0.21892 0.32923 0.0
N419 N 0.22939 0.24576 0.3552 0.0
H420 H 0.85501 0.17908 0.66796 0.0
H421 H 0.0518 0.25295 0.60304 0.0
H422 H 0.95143 0.19114 0.71958 0.0
H423 H 0.13658 0.3102 0.66146 0.0
H424 H 0.98098 0.23442 0.62395 0.0
H425 H 0.9234 0.23251 0.64523 0.0
C426 C 0.8905 0.19359 0.67464 0.0
C427 C 0.8976 0.17962 0.69544 0.0
C428 C 0.01498 0.25267 0.6322 0.0
C429 C 0.97605 0.23932 0.66935 0.0
C430 C 0.05558 0.26302 0.62021 0.0
C431 C 0.10001 0.28271 0.6306 0.0
C432 C 0.01864 0.26142 0.65492 0.0
C433 C 0.10298 0.29504 0.65284 0.0
C434 C 0.92966 0.22358 0.66154 0.0
C435 C 0.94435 0.19994 0.70338 0.0
N436 N 0.06261 0.28306 0.6644 0.0
N437 N 0.98171 0.22815 0.69024 0.0
H438 H 0.69123 0.85682 0.0004 0.0
H439 H 0.8322 0.14029 0.99587 0.0
H440 H 0.75225 0.94818 0.05666 0.0
H441 H 0.80291 0.049 0.93966 0.0
H442 H 0.77976 0.07028 0.01808 0.0
H443 H 0.70847 0.92669 0.97816 0.0
C444 C 0.70688 0.89134 0.00821 0.0
C445 C 0.72111 0.89696 0.03026 0.0
C446 C 0.78399 0.06578 0.00075 0.0
C447 C 0.74128 0.97678 0.00503 0.0
C448 C 0.81364 0.10574 0.98807 0.0
C449 C 0.82249 0.10022 0.96604 0.0
C450 C 0.763 0.02025 0.99123 0.0
C451 C 0.79768 0.05463 0.95673 0.0
C452 C 0.71704 0.93124 0.99551 0.0
C453 C 0.7415 0.94251 0.03958 0.0
N454 N 0.7696 0.01635 0.96942 0.0
N455 N 0.75157 0.98073 0.02687 0.0
H456 H 0.75034 0.80162 0.27257 0.0
H457 H 0.80386 0.75052 0.39177 0.0
H458 H 0.69513 0.83358 0.33046 0.0
H459 H 0.83428 0.69384 0.33396 0.0
H460 H 0.75129 0.76795 0.37008 0.0
H461 H 0.76804 0.7494 0.29438 0.0
C462 C 0.7409 0.79668 0.28984 0.0
C463 C 0.72181 0.82236 0.29982 0.0
C464 C 0.7685 0.75071 0.36216 0.0
C465 C 0.74312 0.76353 0.32506 0.0
C466 C 0.79852 0.74071 0.37456 0.0
C467 C 0.82388 0.72128 0.36455 0.0
C468 C 0.76462 0.74226 0.33943 0.0
C469 C 0.81545 0.70894 0.34228 0.0
C470 C 0.75105 0.76686 0.3023 0.0
C471 C 0.70995 0.81447 0.32216 0.0
N472 N 0.78735 0.72066 0.33033 0.0
N473 N 0.72182 0.78657 0.33416 0.0
H474 H 0.05235 0.8058 0.72619 0.0
H475 H 0.85576 0.68258 0.66101 0.0
H476 H 0.13723 0.83552 0.66765 0.0
H477 H 0.95175 0.76829 0.60955 0.0
H478 H 0.92438 0.69829 0.68375 0.0
H479 H 0.98167 0.75372 0.70515 0.0
C480 C 0.05619 0.80009 0.70895 0.0
C481 C 0.10059 0.82535 0.69858 0.0
C482 C 0.9305 0.71366 0.66748 0.0
C483 C 0.01939 0.76545 0.67412 0.0
C484 C 0.89122 0.70408 0.65438 0.0
C485 C 0.89808 0.72524 0.63362 0.0
C486 C 0.97679 0.74482 0.65971 0.0
C487 C 0.94482 0.75232 0.62573 0.0
C488 C 0.01567 0.76993 0.69689 0.0
C489 C 0.10364 0.81667 0.67626 0.0
N490 N 0.98228 0.76183 0.63887 0.0
N491 N 0.06335 0.78834 0.66464 0.0
H492 H 0.0275 0.1914 0.94065 0.0
H493 H 0.23861 0.22761 0.98507 0.0
H494 H 0.00666 0.23326 0.00511 0.0
H495 H 0.16955 0.20128 0.04821 0.0
H496 H 0.16593 0.21493 0.96752 0.0
H497 H 0.08944 0.17783 0.95571 0.0
C498 C 0.03589 0.19756 0.95799 0.0
C499 C 0.01278 0.21449 0.97158 0.0
C500 C 0.16593 0.21042 0.98513 0.0
C501 C 0.0843 0.20037 0.98878 0.0
C502 C 0.20772 0.2182 0.99519 0.0
C503 C 0.21012 0.21591 0.01812 0.0
C504 C 0.12632 0.20053 -0.00186 0.0
C505 C 0.16915 0.20356 0.03047 0.0
C506 C 0.07157 0.19026 0.96654 0.0
C507 C 0.02427 0.22102 0.99399 0.0
N508 N 0.12909 0.19714 0.02034 0.0
N509 N 0.05958 0.21435 0.00186 0.0
H510 H 0.77118 0.9938 0.34127 0.0
H511 H 0.00989 0.23425 0.32011 0.0
H512 H 0.83283 0.03822 0.27676 0.0
H513 H 0.96701 0.17136 0.38448 0.0
H514 H 0.94857 0.16016 0.30379 0.0
H515 H 0.8453 0.05534 0.35749 0.0
C516 C 0.80058 0.01621 0.33054 0.0
C517 C 0.79579 0.0115 0.30765 0.0
C518 C 0.95297 0.16227 0.32146 0.0
C519 C 0.88039 0.08219 0.32604 0.0
C520 C 0.98786 0.2046 0.33078 0.0
C521 C 0.99293 0.20901 0.35367 0.0
C522 C 0.92252 0.12442 0.33517 0.0
C523 C 0.9639 0.16946 0.36675 0.0
C524 C 0.84292 0.05124 0.3398 0.0
C525 C 0.83502 0.04102 0.29449 0.0
N526 N 0.92937 0.12897 0.35732 0.0
N527 N 0.87552 0.07569 0.30387 0.0
H528 H 0.79382 0.83323 0.60859 0.0
H529 H 0.79637 0.96708 0.71919 0.0
H530 H 0.77414 0.77214 0.67337 0.0
H531 H 0.77389 0.00738 0.65466 0.0
H532 H 0.80913 0.90597 0.70236 0.0
H533 H 0.80728 0.90756 0.62522 0.0
C534 C 0.793 0.83571 0.62631 0.0
C535 C 0.78208 0.7964 0.63965 0.0
C536 C 0.80197 0.92861 0.69189 0.0
C537 C 0.79751 0.88092 0.65869 0.0
C538 C 0.79481 0.9635 0.70146 0.0
C539 C 0.78327 0.99164 0.68828 0.0
C540 C 0.79783 0.92218 0.66902 0.0
C541 C 0.78201 0.98586 0.66542 0.0
C542 C 0.80058 0.87802 0.63578 0.0
C543 C 0.78175 0.80149 0.66251 0.0
N544 N 0.78876 0.95144 0.65649 0.0
N545 N 0.78894 0.84289 0.67132 0.0
H546 H 0.83739 0.80891 0.05434 0.0
H547 H 0.01168 0.77329 0.00897 0.0
H548 H 0.77168 0.76365 0.99061 0.0
H549 H 0.96424 0.79407 0.94588 0.0
H550 H 0.95245 0.78664 0.02681 0.0
H551 H 0.91251 0.82286 0.03863 0.0
C552 C 0.83887 0.80207 0.03702 0.0
C553 C 0.79811 0.78405 0.02384 0.0
C554 C 0.95574 0.78981 0.00913 0.0
C555 C 0.88331 0.79854 0.0059 0.0
C556 C 0.98933 0.78164 -0.0011 0.0
C557 C 0.99244 0.78211 0.97593 0.0
C558 C 0.92487 0.79829 0.99624 0.0
C559 C 0.96277 0.79317 0.96365 0.0
C560 C 0.88163 0.80958 0.0281 0.0
C561 C 0.80212 0.77672 0.00143 0.0
N562 N 0.92958 0.80001 0.97396 0.0
N563 N 0.84389 0.78355 0.9932 0.0
H564 H 0.99239 0.77049 0.32243 0.0
H565 H 0.23434 0.00931 0.34104 0.0
H566 H 0.04106 0.83268 0.38654 0.0
H567 H 0.16867 0.96363 0.27734 0.0
H568 H 0.16081 0.94892 0.35821 0.0
H569 H 0.05293 0.8443 0.30563 0.0
C570 C 0.01554 0.79996 0.33295 0.0
C571 C 0.01233 0.79539 0.35587 0.0
C572 C 0.1622 0.95252 0.3405 0.0
C573 C 0.08193 0.87969 0.33682 0.0
C574 C 0.20419 0.9869 0.33069 0.0
C575 C 0.20769 0.99084 0.30775 0.0
C576 C 0.12375 0.92151 0.32721 0.0
C577 C 0.16753 0.96137 0.2951 0.0
C578 C 0.05 0.84213 0.32336 0.0
C579 C 0.04272 0.83471 0.36878 0.0
N580 N 0.12738 0.92738 0.30499 0.0
N581 N 0.07686 0.87506 0.35906 0.0
H582 H 0.2043 0.04074 0.72132 0.0
H583 H 0.20041 0.16986 0.61022 0.0
H584 H 0.22113 0.99701 0.65659 0.0
H585 H 0.22399 0.23403 0.67446 0.0
H586 H 0.18704 0.0961 0.62738 0.0
H587 H 0.19069 0.10142 0.70455 0.0
C588 C 0.20441 0.04346 0.70358 0.0
C589 C 0.21463 0.0145 0.69029 0.0
C590 C 0.19457 0.12617 0.63771 0.0
C591 C 0.19908 0.0834 0.67109 0.0
C592 C 0.20209 0.16818 0.62795 0.0
C593 C 0.21413 0.20821 0.64095 0.0
C594 C 0.19891 0.12429 0.6606 0.0
C595 C 0.2155 0.2041 0.66384 0.0
C596 C 0.19677 0.0781 0.69404 0.0
C597 C 0.21409 0.01919 0.66741 0.0
N598 N 0.20844 0.16297 0.67295 0.0
N599 N 0.20688 0.05334 0.65852 0.0
loop_
_geom_bond_atom_site_label_1
_geom_bond_atom_site_label_2
_geom_bond_distance
_geom_bond_site_symmetry_2
_ccdc_geom_bond_type
Co0 O1 2.216 . S
Co0 O2 2.091 . S
Co0 O4 2.004 . S
Co0 O10 2.021 . S
Co0 O12 2.137 . S
Co0 O13 2.244 . S
O1 Co0 2.216 . S
O1 C8 1.247 . S
O2 Co0 2.091 . S
O2 C8 1.261 . S
C3 O12 1.247 . S
C3 O13 1.272 . S
O4 Co0 2.004 . S
O4 C9 1.259 . S
Co5 O6 2.061 . S
Co5 O11 2.052 . S
Co5 O13 2.135 . S
O6 Co5 2.061 . S
O6 C9 1.235 . S
C7 O10 1.238 . S
C7 O11 1.241 . S
C8 O1 1.247 . S
C8 O2 1.261 . S
C9 O4 1.259 . S
C9 O6 1.235 . S
O10 Co0 2.021 . S
O10 C7 1.238 . S
O11 Co5 2.052 . S
O11 C7 1.241 . S
O12 Co0 2.137 . S
O12 C3 1.247 . S
O13 Co0 2.244 . S
O13 C3 1.272 . S
O13 Co5 2.135 . S
Co14 O15 2.216 . S
Co14 O16 2.091 . S
Co14 O18 2.004 . S
Co14 O24 2.021 . S
Co14 O26 2.137 . S
Co14 O27 2.244 . S
O15 Co14 2.216 . S
O15 C22 1.247 . S
O16 Co14 2.091 . S
O16 C22 1.261 . S
C17 O26 1.247 . S
C17 O27 1.272 . S
O18 Co14 2.004 . S
O18 C23 1.259 . S
Co19 O20 2.061 . S
Co19 O25 2.052 . S
Co19 O27 2.135 . S
O20 Co19 2.061 . S
O20 C23 1.235 . S
C21 O24 1.238 . S
C21 O25 1.241 . S
C22 O15 1.247 . S
C22 O16 1.261 . S
C23 O18 1.259 . S
C23 O20 1.235 . S
O24 Co14 2.021 . S
O24 C21 1.238 . S
O25 Co19 2.052 . S
O25 C21 1.241 . S
O26 Co14 2.137 . S
O26 C17 1.247 . S
O27 Co14 2.244 . S
O27 C17 1.272 . S
O27 Co19 2.135 . S
Co28 O29 2.216 . S
Co28 O30 2.091 . S
Co28 O32 2.004 . S
Co28 O38 2.021 . S
Co28 O40 2.137 . S
Co28 O41 2.244 . S
O29 Co28 2.216 . S
O29 C36 1.247 . S
O30 Co28 2.091 . S
O30 C36 1.261 . S
C31 O40 1.247 . S
C31 O41 1.272 . S
O32 Co28 2.004 . S
O32 C37 1.259 . S
Co33 O34 2.061 . S
Co33 O39 2.052 . S
Co33 O41 2.135 . S
O34 Co33 2.061 . S
O34 C37 1.235 . S
C35 O38 1.238 . S
C35 O39 1.241 . S
C36 O29 1.247 . S
C36 O30 1.261 . S
C37 O32 1.259 . S
C37 O34 1.235 . S
O38 Co28 2.021 . S
O38 C35 1.238 . S
O39 Co33 2.052 . S
O39 C35 1.241 . S
O40 Co28 2.137 . S
O40 C31 1.247 . S
O41 Co28 2.244 . S
O41 C31 1.272 . S
O41 Co33 2.135 . S
Co42 O43 2.216 . S
Co42 O44 2.091 . S
Co42 O46 2.004 . S
Co42 O52 2.021 . S
Co42 O54 2.137 . S
Co42 O55 2.244 . S
O43 Co42 2.216 . S
O43 C50 1.247 . S
O44 Co42 2.091 . S
O44 C50 1.261 . S
C45 O54 1.247 . S
C45 O55 1.272 . S
O46 Co42 2.004 . S
O46 C51 1.259 . S
Co47 O48 2.061 . S
Co47 O53 2.052 . S
Co47 O55 2.135 . S
O48 Co47 2.061 . S
O48 C51 1.235 . S
C49 O52 1.238 . S
C49 O53 1.241 . S
C50 O43 1.247 . S
C50 O44 1.261 . S
C51 O46 1.259 . S
C51 O48 1.235 . S
O52 Co42 2.021 . S
O52 C49 1.238 . S
O53 Co47 2.052 . S
O53 C49 1.241 . S
O54 Co42 2.137 . S
O54 C45 1.247 . S
O55 Co42 2.244 . S
O55 C45 1.272 . S
O55 Co47 2.135 . S
Co56 O57 2.216 . S
Co56 O58 2.091 . S
Co56 O60 2.004 . S
Co56 O66 2.021 . S
Co56 O68 2.137 . S
Co56 O69 2.244 . S
O57 Co56 2.216 . S
O57 C64 1.247 . S
O58 Co56 2.091 . S
O58 C64 1.261 . S
C59 O68 1.247 . S
C59 O69 1.272 . S
O60 Co56 2.004 . S
O60 C65 1.259 . S
Co61 O62 2.061 . S
Co61 O67 2.052 . S
Co61 O69 2.135 . S
O62 Co61 2.061 . S
O62 C65 1.235 . S
C63 O66 1.238 . S
C63 O67 1.241 . S
C64 O57 1.247 . S
C64 O58 1.261 . S
C65 O60 1.259 . S
C65 O62 1.235 . S
O66 Co56 2.021 . S
O66 C63 1.238 . S
O67 Co61 2.052 . S
O67 C63 1.241 . S
O68 Co56 2.137 . S
O68 C59 1.247 . S
O69 Co56 2.244 . S
O69 C59 1.272 . S
O69 Co61 2.135 . S
Co70 O71 2.216 . S
Co70 O72 2.091 . S
Co70 O74 2.004 . S
Co70 O80 2.021 . S
Co70 O82 2.137 . S
Co70 O83 2.244 . S
O71 Co70 2.216 . S
O71 C78 1.247 . S
O72 Co70 2.091 . S
O72 C78 1.261 . S
C73 O82 1.247 . S
C73 O83 1.272 . S
O74 Co70 2.004 . S
O74 C79 1.259 . S
Co75 O76 2.061 . S
Co75 O81 2.052 . S
Co75 O83 2.135 . S
O76 Co75 2.061 . S
O76 C79 1.235 . S
C77 O80 1.238 . S
C77 O81 1.241 . S
C78 O71 1.247 . S
C78 O72 1.261 . S
C79 O74 1.259 . S
C79 O76 1.235 . S
O80 Co70 2.021 . S
O80 C77 1.238 . S
O81 Co75 2.052 . S
O81 C77 1.241 . S
O82 Co70 2.137 . S
O82 C73 1.247 . S
O83 Co70 2.244 . S
O83 C73 1.272 . S
O83 Co75 2.135 . S
Co84 O85 2.216 . S
Co84 O86 2.091 . S
Co84 O88 2.004 . S
Co84 O94 2.021 . S
Co84 O96 2.137 . S
Co84 O97 2.244 . S
O85 Co84 2.216 . S
O85 C92 1.247 . S
O86 Co84 2.091 . S
O86 C92 1.261 . S
C87 O96 1.247 . S
C87 O97 1.272 . S
O88 Co84 2.004 . S
O88 C93 1.259 . S
Co89 O90 2.061 . S
Co89 O95 2.052 . S
Co89 O97 2.135 . S
O90 Co89 2.061 . S
O90 C93 1.235 . S
C91 O94 1.238 . S
C91 O95 1.241 . S
C92 O85 1.247 . S
C92 O86 1.261 . S
C93 O88 1.259 . S
C93 O90 1.235 . S
O94 Co84 2.021 . S
O94 C91 1.238 . S
O95 Co89 2.052 . S
O95 C91 1.241 . S
O96 Co84 2.137 . S
O96 C87 1.247 . S
O97 Co84 2.244 . S
O97 C87 1.272 . S
O97 Co89 2.135 . S
Co98 O99 2.216 . S
Co98 O100 2.091 . S
Co98 O102 2.004 . S
Co98 O108 2.021 . S
Co98 O110 2.137 . S
Co98 O111 2.244 . S
O99 Co98 2.216 . S
O99 C106 1.247 . S
O100 Co98 2.091 . S
O100 C106 1.261 . S
C101 O110 1.247 . S
C101 O111 1.272 . S
O102 Co98 2.004 . S
O102 C107 1.259 . S
Co103 O104 2.061 . S
Co103 O109 2.052 . S
Co103 O111 2.135 . S
O104 Co103 2.061 . S
O104 C107 1.235 . S
C105 O108 1.238 . S
C105 O109 1.241 . S
C106 O99 1.247 . S
C106 O100 1.261 . S
C107 O102 1.259 . S
C107 O104 1.235 . S
O108 Co98 2.021 . S
O108 C105 1.238 . S
O109 Co103 2.052 . S
O109 C105 1.241 . S
O110 Co98 2.137 . S
O110 C101 1.247 . S
O111 Co98 2.244 . S
O111 C101 1.272 . S
O111 Co103 2.135 . S
Co112 O113 2.216 . S
Co112 O114 2.091 . S
Co112 O116 2.004 . S
Co112 O122 2.021 . S
Co112 O124 2.137 . S
Co112 O125 2.244 . S
O113 Co112 2.216 . S
O113 C120 1.247 . S
O114 Co112 2.091 . S
O114 C120 1.261 . S
C115 O124 1.247 . S
C115 O125 1.272 . S
O116 Co112 2.004 . S
O116 C121 1.259 . S
Co117 O118 2.061 . S
Co117 O123 2.052 . S
Co117 O125 2.135 . S
O118 Co117 2.061 . S
O118 C121 1.235 . S
C119 O122 1.238 . S
C119 O123 1.241 . S
C120 O113 1.247 . S
C120 O114 1.261 . S
C121 O116 1.259 . S
C121 O118 1.235 . S
O122 Co112 2.021 . S
O122 C119 1.238 . S
O123 Co117 2.052 . S
O123 C119 1.241 . S
O124 Co112 2.137 . S
O124 C115 1.247 . S
O125 Co112 2.244 . S
O125 C115 1.272 . S
O125 Co117 2.135 . S
Co126 O127 2.216 . S
Co126 O128 2.091 . S
Co126 O130 2.004 . S
Co126 O136 2.021 . S
Co126 O138 2.137 . S
Co126 O139 2.244 . S
O127 Co126 2.216 . S
O127 C134 1.247 . S
O128 Co126 2.091 . S
O128 C134 1.261 . S
C129 O138 1.247 . S
C129 O139 1.272 . S
O130 Co126 2.004 . S
O130 C135 1.259 . S
Co131 O132 2.061 . S
Co131 O137 2.052 . S
Co131 O139 2.135 . S
O132 Co131 2.061 . S
O132 C135 1.235 . S
C133 O136 1.238 . S
C133 O137 1.241 . S
C134 O127 1.247 . S
C134 O128 1.261 . S
C135 O130 1.259 . S
C135 O132 1.235 . S
O136 Co126 2.021 . S
O136 C133 1.238 . S
O137 Co131 2.052 . S
O137 C133 1.241 . S
O138 Co126 2.137 . S
O138 C129 1.247 . S
O139 Co126 2.244 . S
O139 C129 1.272 . S
O139 Co131 2.135 . S
Co140 O141 2.216 . S
Co140 O142 2.091 . S
Co140 O144 2.004 . S
Co140 O150 2.021 . S
Co140 O152 2.137 . S
Co140 O153 2.244 . S
O141 Co140 2.216 . S
O141 C148 1.247 . S
O142 Co140 2.091 . S
O142 C148 1.261 . S
C143 O152 1.247 . S
C143 O153 1.272 . S
O144 Co140 2.004 . S
O144 C149 1.259 . S
Co145 O146 2.061 . S
Co145 O151 2.052 . S
Co145 O153 2.135 . S
O146 Co145 2.061 . S
O146 C149 1.235 . S
C147 O150 1.238 . S
C147 O151 1.241 . S
C148 O141 1.247 . S
C148 O142 1.261 . S
C149 O144 1.259 . S
C149 O146 1.235 . S
O150 Co140 2.021 . S
O150 C147 1.238 . S
O151 Co145 2.052 . S
O151 C147 1.241 . S
O152 Co140 2.137 . S
O152 C143 1.247 . S
O153 Co140 2.244 . S
O153 C143 1.272 . S
O153 Co145 2.135 . S
Co154 O155 2.216 . S
Co154 O156 2.091 . S
Co154 O158 2.004 . S
Co154 O164 2.021 . S
Co154 O166 2.137 . S
Co154 O167 2.244 . S
O155 Co154 2.216 . S
O155 C162 1.247 . S
O156 Co154 2.091 . S
O156 C162 1.261 . S
C157 O166 1.247 . S
C157 O167 1.272 . S
O158 Co154 2.004 . S
O158 C163 1.259 . S
Co159 O160 2.061 . S
Co159 O165 2.052 . S
Co159 O167 2.135 . S
O160 Co159 2.061 . S
O160 C163 1.235 . S
C161 O164 1.238 . S
C161 O165 1.241 . S
C162 O155 1.247 . S
C162 O156 1.261 . S
C163 O158 1.259 . S
C163 O160 1.235 . S
O164 Co154 2.021 . S
O164 C161 1.238 . S
O165 Co159 2.052 . S
O165 C161 1.241 . S
O166 Co154 2.137 . S
O166 C157 1.247 . S
O167 Co154 2.244 . S
O167 C157 1.272 . S
O167 Co159 2.135 . S
H168 C174 0.930 . S
H169 C178 0.930 . S
H170 C183 0.929 . S
H171 C181 0.929 . S
H172 C176 0.929 . S
H173 C182 0.929 . S
C174 H168 0.930 . S
C174 C175 1.367 . S
C174 C182 1.378 . S
C175 C174 1.367 . S
C175 C183 1.433 . S
C176 H172 0.929 . S
C176 C178 1.378 . S
C176 C180 1.350 . S
C177 C180 1.463 . S
C177 C182 1.350 . S
C177 N185 1.427 . S
C178 H169 0.930 . S
C178 C176 1.378 . S
C178 C179 1.367 . S
C179 C178 1.367 . S
C179 C181 1.433 . S
C180 C176 1.350 . S
C180 C177 1.463 . S
C180 N184 1.427 . S
C181 H171 0.929 . S
C181 C179 1.433 . S
C181 N184 1.384 . S
C182 H173 0.929 . S
C182 C174 1.378 . S
C182 C177 1.350 . S
C183 H170 0.929 . S
C183 C175 1.433 . S
C183 N185 1.384 . S
N184 C180 1.427 . S
N184 C181 1.384 . S
N185 C177 1.427 . S
N185 C183 1.384 . S
H186 C192 0.930 . S
H187 C196 0.930 . S
H188 C201 0.929 . S
H189 C199 0.929 . S
H190 C194 0.929 . S
H191 C200 0.929 . S
C192 H186 0.930 . S
C192 C193 1.367 . S
C192 C200 1.378 . S
C193 C192 1.367 . S
C193 C201 1.433 . S
C194 H190 0.929 . S
C194 C196 1.378 . S
C194 C198 1.350 . S
C195 C198 1.463 1_455 S
C195 C200 1.350 . S
C195 N203 1.429 1_455 S
C196 H187 0.930 . S
C196 C194 1.378 . S
C196 C197 1.367 . S
C197 C196 1.367 . S
C197 C199 1.433 . S
C198 C194 1.350 . S
C198 C195 1.463 1_655 S
C198 N202 1.429 1_655 S
C199 H189 0.929 . S
C199 C197 1.433 . S
C199 N202 1.372 1_655 S
C200 H191 0.929 . S
C200 C192 1.378 . S
C200 C195 1.350 . S
C201 H188 0.929 . S
C201 C193 1.433 . S
C201 N203 1.372 1_455 S
N202 C198 1.429 1_455 S
N202 C199 1.372 1_455 S
N203 C195 1.429 1_655 S
N203 C201 1.372 1_655 S
H204 C210 0.930 . S
H205 C214 0.930 . S
H206 C219 0.929 . S
H207 C217 0.929 . S
H208 C212 0.929 . S
H209 C218 0.929 . S
C210 H204 0.930 . S
C210 C211 1.367 . S
C210 C218 1.378 1_565 S
C211 C210 1.367 . S
C211 C219 1.433 . S
C212 H208 0.929 . S
C212 C214 1.378 1_565 S
C212 C216 1.350 1_565 S
C213 C216 1.463 1_565 S
C213 C218 1.350 1_565 S
C213 N221 1.427 . S
C214 H205 0.930 . S
C214 C212 1.378 1_545 S
C214 C215 1.367 . S
C215 C214 1.367 . S
C215 C217 1.433 . S
C216 C212 1.350 1_545 S
C216 C213 1.463 1_545 S
C216 N220 1.427 . S
C217 H207 0.929 . S
C217 C215 1.433 . S
C217 N220 1.384 . S
C218 H209 0.929 . S
C218 C210 1.378 1_545 S
C218 C213 1.350 1_545 S
C219 H206 0.929 . S
C219 C211 1.433 . S
C219 N221 1.384 . S
N220 C216 1.427 . S
N220 C217 1.384 . S
N221 C213 1.427 . S
N221 C219 1.384 . S
H222 C228 0.930 . S
H223 C232 0.930 . S
H224 C237 0.929 . S
H225 C235 0.929 . S
H226 C230 0.929 . S
H227 C236 0.929 . S
C228 H222 0.930 . S
C228 C229 1.367 . S
C228 C236 1.378 . S
C229 C228 1.367 . S
C229 C237 1.433 . S
C230 H226 0.929 . S
C230 C232 1.378 . S
C230 C234 1.350 . S
C231 C234 1.463 . S
C231 C236 1.350 . S
C231 N239 1.427 . S
C232 H223 0.930 . S
C232 C230 1.378 . S
C232 C233 1.367 . S
C233 C232 1.367 . S
C233 C235 1.433 . S
C234 C230 1.350 . S
C234 C231 1.463 . S
C234 N238 1.427 . S
C235 H225 0.929 . S
C235 C233 1.433 . S
C235 N238 1.384 . S
C236 H227 0.929 . S
C236 C228 1.378 . S
C236 C231 1.350 . S
C237 H224 0.929 . S
C237 C229 1.433 . S
C237 N239 1.384 . S
N238 C234 1.427 . S
N238 C235 1.384 . S
N239 C231 1.427 . S
N239 C237 1.384 . S
H240 C246 0.930 . S
H241 C250 0.930 . S
H242 C255 0.920 1_455 S
H243 C253 0.920 1_655 S
H244 C248 0.929 . S
H245 C254 0.929 . S
C246 H240 0.930 . S
C246 C247 1.367 . S
C246 C254 1.378 . S
C247 C246 1.367 . S
C247 C255 1.433 . S
C248 H244 0.929 . S
C248 C250 1.378 . S
C248 C252 1.350 . S
C249 C252 1.463 1_655 S
C249 C254 1.350 . S
C249 N257 1.427 1_655 S
C250 H241 0.930 . S
C250 C248 1.378 . S
C250 C251 1.367 . S
C251 C250 1.367 . S
C251 C253 1.433 . S
C252 C248 1.350 . S
C252 C249 1.463 1_455 S
C252 N256 1.427 1_455 S
C253 H243 0.920 1_455 S
C253 C251 1.433 . S
C253 N256 1.384 1_455 S
C254 H245 0.929 . S
C254 C246 1.378 . S
C254 C249 1.350 . S
C255 H242 0.920 1_655 S
C255 C247 1.433 . S
C255 N257 1.384 1_655 S
N256 C252 1.427 1_655 S
N256 C253 1.384 1_655 S
N257 C249 1.427 1_455 S
N257 C255 1.384 1_455 S
H258 C264 0.930 . S
H259 C268 0.930 . S
H260 C273 0.929 . S
H261 C271 0.929 . S
H262 C266 0.929 . S
H263 C272 0.929 . S
C264 H258 0.930 . S
C264 C265 1.367 . S
C264 C272 1.378 . S
C265 C264 1.367 . S
C265 C273 1.433 . S
C266 H262 0.929 . S
C266 C268 1.378 . S
C266 C270 1.350 . S
C267 C270 1.463 1_545 S
C267 C272 1.350 . S
C267 N275 1.427 . S
C268 H259 0.930 . S
C268 C266 1.378 . S
C268 C269 1.367 . S
C269 C268 1.367 . S
C269 C271 1.433 . S
C270 C266 1.350 . S
C270 C267 1.463 1_565 S
C270 N274 1.427 . S
C271 H261 0.929 . S
C271 C269 1.433 . S
C271 N274 1.384 . S
C272 H263 0.929 . S
C272 C264 1.378 . S
C272 C267 1.350 . S
C273 H260 0.929 . S
C273 C265 1.433 . S
C273 N275 1.384 . S
N274 C270 1.427 . S
N274 C271 1.384 . S
N275 C267 1.427 . S
N275 C273 1.384 . S
H276 C282 0.930 . S
H277 C286 0.930 . S
H278 C291 0.929 . S
H279 C289 0.929 . S
H280 C284 0.929 . S
H281 C290 0.929 . S
C282 H276 0.930 . S
C282 C283 1.367 . S
C282 C290 1.378 . S
C283 C282 1.367 . S
C283 C291 1.433 . S
C284 H280 0.929 . S
C284 C286 1.378 . S
C284 C288 1.350 . S
C285 C288 1.463 . S
C285 C290 1.350 . S
C285 N293 1.427 . S
C286 H277 0.930 . S
C286 C284 1.378 . S
C286 C287 1.367 . S
C287 C286 1.367 . S
C287 C289 1.433 . S
C288 C284 1.350 . S
C288 C285 1.463 . S
C288 N292 1.427 . S
C289 H279 0.929 . S
C289 C287 1.433 . S
C289 N292 1.384 . S
C290 H281 0.929 . S
C290 C282 1.378 . S
C290 C285 1.350 . S
C291 H278 0.929 . S
C291 C283 1.433 . S
C291 N293 1.384 . S
N292 C288 1.427 . S
N292 C289 1.384 . S
N293 C285 1.427 . S
N293 C291 1.384 . S
H294 C300 0.930 . S
H295 C304 0.930 . S
H296 C309 0.929 . S
H297 C307 0.929 . S
H298 C302 0.929 . S
H299 C308 0.929 . S
C300 H294 0.930 . S
C300 C301 1.367 . S
C300 C308 1.378 . S
C301 C300 1.367 . S
C301 C309 1.433 . S
C302 H298 0.929 . S
C302 C304 1.378 . S
C302 C306 1.350 . S
C303 C306 1.463 . S
C303 C308 1.350 . S
C303 N311 1.427 . S
C304 H295 0.930 . S
C304 C302 1.378 . S
C304 C305 1.367 . S
C305 C304 1.367 . S
C305 C307 1.433 . S
C306 C302 1.350 . S
C306 C303 1.463 . S
C306 N310 1.427 . S
C307 H297 0.929 . S
C307 C305 1.433 . S
C307 N310 1.384 . S
C308 H299 0.929 . S
C308 C300 1.378 . S
C308 C303 1.350 . S
C309 H296 0.929 . S
C309 C301 1.433 . S
C309 N311 1.384 . S
N310 C306 1.427 . S
N310 C307 1.384 . S
N311 C303 1.427 . S
N311 C309 1.384 . S
H312 C318 0.930 . S
H313 C322 0.930 . S
H314 C327 0.929 . S
H315 C325 0.929 . S
H316 C320 0.929 . S
H317 C326 0.929 . S
C318 H312 0.930 . S
C318 C319 1.367 . S
C318 C326 1.378 . S
C319 C318 1.367 . S
C319 C327 1.433 . S
C320 H316 0.929 . S
C320 C322 1.378 . S
C320 C324 1.350 . S
C321 C324 1.463 . S
C321 C326 1.350 . S
C321 N329 1.427 . S
C322 H313 0.930 . S
C322 C320 1.378 . S
C322 C323 1.367 . S
C323 C322 1.367 . S
C323 C325 1.433 . S
C324 C320 1.350 . S
C324 C321 1.463 . S
C324 N328 1.427 . S
C325 H315 0.929 . S
C325 C323 1.433 . S
C325 N328 1.384 . S
C326 H317 0.929 . S
C326 C318 1.378 . S
C326 C321 1.350 . S
C327 H314 0.929 . S
C327 C319 1.433 . S
C327 N329 1.384 . S
N328 C324 1.427 . S
N328 C325 1.384 . S
N329 C321 1.427 . S
N329 C327 1.384 . S
H330 C336 0.930 . S
H331 C340 0.930 . S
H332 C345 0.929 . S
H333 C343 0.929 . S
H334 C338 0.929 . S
H335 C344 0.929 . S
C336 H330 0.930 . S
C336 C337 1.367 . S
C336 C344 1.378 . S
C337 C336 1.367 . S
C337 C345 1.433 . S
C338 H334 0.929 . S
C338 C340 1.378 . S
C338 C342 1.350 . S
C339 C342 1.463 . S
C339 C344 1.350 . S
C339 N347 1.427 . S
C340 H331 0.930 . S
C340 C338 1.378 . S
C340 C341 1.367 . S
C341 C340 1.367 . S
C341 C343 1.433 . S
C342 C338 1.350 . S
C342 C339 1.463 . S
C342 N346 1.427 . S
C343 H333 0.929 . S
C343 C341 1.433 . S
C343 N346 1.384 . S
C344 H335 0.929 . S
C344 C336 1.378 . S
C344 C339 1.350 . S
C345 H332 0.929 . S
C345 C337 1.433 . S
C345 N347 1.384 . S
N346 C342 1.427 . S
N346 C343 1.384 . S
N347 C339 1.427 . S
N347 C345 1.384 . S
H348 C354 0.930 . S
H349 C358 0.930 . S
H350 C363 0.929 . S
H351 C361 0.929 . S
H352 C356 0.929 . S
H353 C362 0.929 . S
C354 H348 0.930 . S
C354 C355 1.367 . S
C354 C362 1.378 . S
C355 C354 1.367 . S
C355 C363 1.433 . S
C356 H352 0.929 . S
C356 C358 1.378 . S
C356 C360 1.350 . S
C357 C360 1.463 . S
C357 C362 1.350 . S
C357 N365 1.427 . S
C358 H349 0.930 . S
C358 C356 1.378 . S
C358 C359 1.367 . S
C359 C358 1.367 . S
C359 C361 1.433 . S
C360 C356 1.350 . S
C360 C357 1.463 . S
C360 N364 1.427 . S
C361 H351 0.929 . S
C361 C359 1.433 . S
C361 N364 1.384 . S
C362 H353 0.929 . S
C362 C354 1.378 . S
C362 C357 1.350 . S
C363 H350 0.929 . S
C363 C355 1.433 . S
C363 N365 1.384 . S
N364 C360 1.427 . S
N364 C361 1.384 . S
N365 C357 1.427 . S
N365 C363 1.384 . S
H366 C372 0.930 . S
H367 C376 0.930 . S
H368 C381 0.929 . S
H369 C379 0.929 . S
H370 C374 0.929 . S
H371 C380 0.929 . S
C372 H366 0.930 . S
C372 C373 1.367 . S
C372 C380 1.378 . S
C373 C372 1.367 . S
C373 C381 1.433 . S
C374 H370 0.929 . S
C374 C376 1.378 . S
C374 C378 1.350 . S
C375 C378 1.463 . S
C375 C380 1.350 . S
C375 N383 1.427 . S
C376 H367 0.930 . S
C376 C374 1.378 . S
C376 C377 1.367 . S
C377 C376 1.367 . S
C377 C379 1.433 . S
C378 C374 1.350 . S
C378 C375 1.463 . S
C378 N382 1.427 . S
C379 H369 0.929 . S
C379 C377 1.433 . S
C379 N382 1.384 . S
C380 H371 0.929 . S
C380 C372 1.378 . S
C380 C375 1.350 . S
C381 H368 0.929 . S
C381 C373 1.433 . S
C381 N383 1.384 . S
N382 C378 1.427 . S
N382 C379 1.384 . S
N383 C375 1.427 . S
N383 C381 1.384 . S
H384 C390 0.930 . S
H385 C394 0.930 . S
H386 C399 0.929 . S
H387 C397 0.929 . S
H388 C392 0.929 . S
H389 C398 0.929 . S
C390 H384 0.930 . S
C390 C391 1.367 1_554 S
C390 C398 1.378 . S
C391 C390 1.367 1_556 S
C391 C399 1.433 . S
C392 H388 0.929 . S
C392 C394 1.378 . S
C392 C396 1.350 1_556 S
C393 C396 1.463 1_566 S
C393 C398 1.350 1_556 S
C393 N401 1.427 . S
C394 H385 0.930 . S
C394 C392 1.378 . S
C394 C395 1.367 1_556 S
C395 C394 1.367 1_554 S
C395 C397 1.433 . S
C396 C392 1.350 1_554 S
C396 C393 1.463 1_544 S
C396 N400 1.427 . S
C397 H387 0.929 . S
C397 C395 1.433 . S
C397 N400 1.384 . S
C398 H389 0.929 . S
C398 C390 1.378 . S
C398 C393 1.350 1_554 S
C399 H386 0.929 . S
C399 C391 1.433 . S
C399 N401 1.384 . S
N400 C396 1.427 . S
N400 C397 1.384 . S
N401 C393 1.427 . S
N401 C399 1.384 . S
H402 C408 0.930 . S
H403 C412 0.930 . S
H404 C417 0.929 . S
H405 C415 0.929 . S
H406 C410 0.929 . S
H407 C416 0.929 . S
C408 H402 0.930 . S
C408 C409 1.367 . S
C408 C416 1.378 . S
C409 C408 1.367 . S
C409 C417 1.433 . S
C410 H406 0.929 . S
C410 C412 1.378 . S
C410 C414 1.350 . S
C411 C414 1.463 . S
C411 C416 1.350 . S
C411 N419 1.427 . S
C412 H403 0.930 . S
C412 C410 1.378 . S
C412 C413 1.367 . S
C413 C412 1.367 . S
C413 C415 1.433 . S
C414 C410 1.350 . S
C414 C411 1.463 . S
C414 N418 1.427 . S
C415 H405 0.929 . S
C415 C413 1.433 . S
C415 N418 1.384 . S
C416 H407 0.929 . S
C416 C408 1.378 . S
C416 C411 1.350 . S
C417 H404 0.929 . S
C417 C409 1.433 . S
C417 N419 1.384 . S
N418 C414 1.427 . S
N418 C415 1.384 . S
N419 C411 1.427 . S
N419 C417 1.384 . S
H420 C426 0.930 . S
H421 C430 0.930 . S
H422 C435 0.929 . S
H423 C433 0.929 . S
H424 C428 0.929 . S
H425 C434 0.929 . S
C426 H420 0.930 . S
C426 C427 1.367 . S
C426 C434 1.378 . S
C427 C426 1.367 . S
C427 C435 1.433 . S
C428 H424 0.929 . S
C428 C430 1.378 . S
C428 C432 1.350 . S
C429 C432 1.463 1_655 S
C429 C434 1.350 . S
C429 N437 1.427 . S
C430 H421 0.930 . S
C430 C428 1.378 . S
C430 C431 1.367 . S
C431 C430 1.367 . S
C431 C433 1.433 . S
C432 C428 1.350 . S
C432 C429 1.463 1_455 S
C432 N436 1.427 . S
C433 H423 0.929 . S
C433 C431 1.433 . S
C433 N436 1.384 . S
C434 H425 0.929 . S
C434 C426 1.378 . S
C434 C429 1.350 . S
C435 H422 0.929 . S
C435 C427 1.433 . S
C435 N437 1.384 . S
N436 C432 1.427 . S
N436 C433 1.384 . S
N437 C429 1.427 . S
N437 C435 1.384 . S
H438 C444 0.922 1_556 S
H439 C448 0.922 1_554 S
H440 C453 0.929 . S
H441 C451 0.929 . S
H442 C446 0.929 . S
H443 C452 0.929 . S
C444 H438 0.922 1_554 S
C444 C445 1.367 . S
C444 C452 1.378 1_554 S
C445 C444 1.367 . S
C445 C453 1.433 . S
C446 H442 0.929 . S
C446 C448 1.378 1_554 S
C446 C450 1.350 1_554 S
C447 C450 1.463 1_564 S
C447 C452 1.350 1_554 S
C447 N455 1.427 . S
C448 H439 0.922 1_556 S
C448 C446 1.378 1_556 S
C448 C449 1.367 . S
C449 C448 1.367 . S
C449 C451 1.433 . S
C450 C446 1.350 1_556 S
C450 C447 1.463 1_546 S
C450 N454 1.427 . S
C451 H441 0.929 . S
C451 C449 1.433 . S
C451 N454 1.384 . S
C452 H443 0.929 . S
C452 C444 1.378 1_556 S
C452 C447 1.350 1_556 S
C453 H440 0.929 . S
C453 C445 1.433 . S
C453 N455 1.384 . S
N454 C450 1.427 . S
N454 C451 1.384 . S
N455 C447 1.427 . S
N455 C453 1.384 . S
H456 C462 0.930 . S
H457 C466 0.930 . S
H458 C471 0.929 . S
H459 C469 0.929 . S
H460 C464 0.929 . S
H461 C470 0.929 . S
C462 H456 0.930 . S
C462 C463 1.367 . S
C462 C470 1.378 . S
C463 C462 1.367 . S
C463 C471 1.433 . S
C464 H460 0.929 . S
C464 C466 1.378 . S
C464 C468 1.350 . S
C465 C468 1.463 . S
C465 C470 1.350 . S
C465 N473 1.427 . S
C466 H457 0.930 . S
C466 C464 1.378 . S
C466 C467 1.367 . S
C467 C466 1.367 . S
C467 C469 1.433 . S
C468 C464 1.350 . S
C468 C465 1.463 . S
C468 N472 1.427 . S
C469 H459 0.929 . S
C469 C467 1.433 . S
C469 N472 1.384 . S
C470 H461 0.929 . S
C470 C462 1.378 . S
C470 C465 1.350 . S
C471 H458 0.929 . S
C471 C463 1.433 . S
C471 N473 1.384 . S
N472 C468 1.427 . S
N472 C469 1.384 . S
N473 C465 1.427 . S
N473 C471 1.384 . S
H474 C480 0.930 . S
H475 C484 0.930 . S
H476 C489 0.929 . S
H477 C487 0.929 . S
H478 C482 0.929 . S
H479 C488 0.929 . S
C480 H474 0.930 . S
C480 C481 1.367 . S
C480 C488 1.378 . S
C481 C480 1.367 . S
C481 C489 1.433 . S
C482 H478 0.929 . S
C482 C484 1.378 . S
C482 C486 1.350 . S
C483 C486 1.463 1_455 S
C483 C488 1.350 . S
C483 N491 1.427 . S
C484 H475 0.930 . S
C484 C482 1.378 . S
C484 C485 1.367 . S
C485 C484 1.367 . S
C485 C487 1.433 . S
C486 C482 1.350 . S
C486 C483 1.463 1_655 S
C486 N490 1.427 . S
C487 H477 0.929 . S
C487 C485 1.433 . S
C487 N490 1.384 . S
C488 H479 0.929 . S
C488 C480 1.378 . S
C488 C483 1.350 . S
C489 H476 0.929 . S
C489 C481 1.433 . S
C489 N491 1.384 . S
N490 C486 1.427 . S
N490 C487 1.384 . S
N491 C483 1.427 . S
N491 C489 1.384 . S
H492 C498 0.930 . S
H493 C502 0.930 . S
H494 C507 0.929 . S
H495 C505 0.929 . S
H496 C500 0.929 . S
H497 C506 0.929 . S
C498 H492 0.930 . S
C498 C499 1.367 . S
C498 C506 1.378 . S
C499 C498 1.367 . S
C499 C507 1.433 . S
C500 H496 0.929 . S
C500 C502 1.378 . S
C500 C504 1.350 . S
C501 C504 1.463 1_556 S
C501 C506 1.350 . S
C501 N509 1.427 . S
C502 H493 0.930 . S
C502 C500 1.378 . S
C502 C503 1.367 . S
C503 C502 1.367 . S
C503 C505 1.433 . S
C504 C500 1.350 . S
C504 C501 1.463 1_554 S
C504 N508 1.427 . S
C505 H495 0.929 . S
C505 C503 1.433 . S
C505 N508 1.384 . S
C506 H497 0.929 . S
C506 C498 1.378 . S
C506 C501 1.350 . S
C507 H494 0.929 . S
C507 C499 1.433 . S
C507 N509 1.384 . S
N508 C504 1.427 . S
N508 C505 1.384 . S
N509 C501 1.427 . S
N509 C507 1.384 . S
H510 C516 0.930 1_565 S
H511 C520 0.930 . S
H512 C525 0.929 . S
H513 C523 0.929 . S
H514 C518 0.929 . S
H515 C524 0.929 . S
C516 H510 0.930 1_545 S
C516 C517 1.367 . S
C516 C524 1.378 . S
C517 C516 1.367 . S
C517 C525 1.433 . S
C518 H514 0.929 . S
C518 C520 1.378 . S
C518 C522 1.350 . S
C519 C522 1.463 . S
C519 C524 1.350 . S
C519 N527 1.427 . S
C520 H511 0.930 . S
C520 C518 1.378 . S
C520 C521 1.367 . S
C521 C520 1.367 . S
C521 C523 1.433 . S
C522 C518 1.350 . S
C522 C519 1.463 . S
C522 N526 1.427 . S
C523 H513 0.929 . S
C523 C521 1.433 . S
C523 N526 1.384 . S
C524 H515 0.929 . S
C524 C516 1.378 . S
C524 C519 1.350 . S
C525 H512 0.929 . S
C525 C517 1.433 . S
C525 N527 1.384 . S
N526 C522 1.427 . S
N526 C523 1.384 . S
N527 C519 1.427 . S
N527 C525 1.384 . S
H528 C534 0.930 . S
H529 C538 0.930 . S
H530 C543 0.929 . S
H531 C541 0.929 . S
H532 C536 0.929 . S
H533 C542 0.929 . S
C534 H528 0.930 . S
C534 C535 1.367 . S
C534 C542 1.378 . S
C535 C534 1.367 . S
C535 C543 1.433 . S
C536 H532 0.929 . S
C536 C538 1.378 . S
C536 C540 1.350 . S
C537 C540 1.463 . S
C537 C542 1.350 . S
C537 N545 1.427 . S
C538 H529 0.930 . S
C538 C536 1.378 . S
C538 C539 1.367 . S
C539 C538 1.367 . S
C539 C541 1.433 . S
C540 C536 1.350 . S
C540 C537 1.463 . S
C540 N544 1.427 . S
C541 H531 0.929 . S
C541 C539 1.433 . S
C541 N544 1.384 . S
C542 H533 0.929 . S
C542 C534 1.378 . S
C542 C537 1.350 . S
C543 H530 0.929 . S
C543 C535 1.433 . S
C543 N545 1.384 . S
N544 C540 1.427 . S
N544 C541 1.384 . S
N545 C537 1.427 . S
N545 C543 1.384 . S
H546 C552 0.930 . S
H547 C556 0.930 . S
H548 C561 0.929 . S
H549 C559 0.929 1_455 S
H550 C554 0.929 . S
H551 C560 0.929 . S
C552 H546 0.930 . S
C552 C553 1.367 . S
C552 C560 1.378 . S
C553 C552 1.367 . S
C553 C561 1.433 . S
C554 H550 0.929 . S
C554 C556 1.378 . S
C554 C558 1.350 . S
C555 C558 1.463 1_554 S
C555 C560 1.350 . S
C555 N563 1.427 . S
C556 H547 0.930 . S
C556 C554 1.378 . S
C556 C557 1.367 . S
C557 C556 1.367 . S
C557 C559 1.433 . S
C558 C554 1.350 . S
C558 C555 1.463 1_556 S
C558 N562 1.427 . S
C559 H549 0.929 1_655 S
C559 C557 1.433 . S
C559 N562 1.384 . S
C560 H551 0.929 . S
C560 C552 1.378 . S
C560 C555 1.350 . S
C561 H548 0.929 . S
C561 C553 1.433 . S
C561 N563 1.384 . S
N562 C558 1.427 . S
N562 C559 1.384 . S
N563 C555 1.427 . S
N563 C561 1.384 . S
H564 C570 0.930 . S
H565 C574 0.930 . S
H566 C579 0.929 . S
H567 C577 0.929 . S
H568 C572 0.929 . S
H569 C578 0.929 . S
C570 H564 0.930 . S
C570 C571 1.367 . S
C570 C578 1.378 . S
C571 C570 1.367 . S
C571 C579 1.433 . S
C572 H568 0.929 . S
C572 C574 1.378 . S
C572 C576 1.350 . S
C573 C576 1.463 . S
C573 C578 1.350 . S
C573 N581 1.427 . S
C574 H565 0.930 . S
C574 C572 1.378 . S
C574 C575 1.367 . S
C575 C574 1.367 . S
C575 C577 1.433 . S
C576 C572 1.350 . S
C576 C573 1.463 . S
C576 N580 1.427 . S
C577 H567 0.929 . S
C577 C575 1.433 . S
C577 N580 1.384 . S
C578 H569 0.929 . S
C578 C570 1.378 . S
C578 C573 1.350 . S
C579 H566 0.929 . S
C579 C571 1.433 . S
C579 N581 1.384 . S
N580 C576 1.427 . S
N580 C577 1.384 . S
N581 C573 1.427 . S
N581 C579 1.384 . S
H582 C588 0.930 . S
H583 C592 0.930 . S
H584 C597 0.929 1_565 S
H585 C595 0.929 . S
H586 C590 0.929 . S
H587 C596 0.929 . S
C588 H582 0.930 . S
C588 C589 1.367 . S
C588 C596 1.378 . S
C589 C588 1.367 . S
C589 C597 1.433 . S
C590 H586 0.929 . S
C590 C592 1.378 . S
C590 C594 1.350 . S
C591 C594 1.463 . S
C591 C596 1.350 . S
C591 N599 1.427 . S
C592 H583 0.930 . S
C592 C590 1.378 . S
C592 C593 1.367 . S
C593 C592 1.367 . S
C593 C595 1.433 . S
C594 C590 1.350 . S
C594 C591 1.463 . S
C594 N598 1.427 . S
C595 H585 0.929 . S
C595 C593 1.433 . S
C595 N598 1.384 . S
C596 H587 0.929 . S
C596 C588 1.378 . S
C596 C591 1.350 . S
C597 H584 0.929 1_545 S
C597 C589 1.433 . S
C597 N599 1.384 . S
N598 C594 1.427 . S
N598 C595 1.384 . S
N599 C591 1.427 . S
N599 C597 1.384 . S
C175 C50 1.382 . S
C179 C8 1.382 . S
C193 C22 1.388 . S
C197 C64 1.388 . S
C211 C78 1.381 . S
C215 C36 1.381 . S
C229 C92 1.389 . S
C233 C134 1.390 . S
C247 C148 1.389 . S
C251 C106 1.389 . S
C265 C120 1.385 . S
C269 C162 1.386 . S
C283 C119 1.581 . S
C287 C7 1.591 . S
C301 C21 1.591 . S
C305 C133 1.580 . S
C319 C35 1.586 . S
C323 C147 1.587 . S
C337 C49 1.588 . S
C341 C161 1.586 . S
C355 C91 1.579 . S
C359 C63 1.591 . S
C373 C105 1.582 . S
C377 C77 1.584 . S
C391 C107 1.203 . S
C395 C9 1.198 . S
C409 C23 1.190 . S
C413 C121 1.206 . S
C427 C37 1.189 . S
C431 C135 1.206 . S
C445 C51 1.206 . S
C449 C149 1.193 . S
C463 C163 1.187 . S
C467 C65 1.204 . S
C481 C79 1.205 . S
C485 C93 1.188 . S
C499 C143 1.470 1_455 S
C503 C3 1.471 . S
C517 C157 1.469 1_545 S
C521 C17 1.469 1_655 S
C535 C87 1.472 . S
C539 C31 1.471 1_565 S
C553 C45 1.470 . S
C557 C101 1.471 1_655 S
C571 C59 1.469 1_455 S
C575 C115 1.469 1_565 S
C589 C73 1.472 1_545 S
C593 C129 1.471 . S
