# Generated by pormake.
# Topology zff, (5)-cn, num edge types: 1
# Building blocks:
#     Node 0, Type 0, BuildingBlock: XOMCOT_clean_sbu_0, # of connection points: 5
#     Node 1, Type 0, BuildingBlock: XOMCOT_clean_sbu_0, # of connection points: 5
#     Node 2, Type 0, BuildingBlock: XOMCOT_clean_sbu_0, # of connection points: 5
#     Node 3, Type 0, BuildingBlock: XOMCOT_clean_sbu_0, # of connection points: 5
#     Node 4, Type 0, BuildingBlock: XOMCOT_clean_sbu_0, # of connection points: 5
#     Node 5, Type 0, BuildingBlock: XOMCOT_clean_sbu_0, # of connection points: 5
#     Node 6, Type 0, BuildingBlock: XOMCOT_clean_sbu_0, # of connection points: 5
#     Node 7, Type 0, BuildingBlock: XOMCOT_clean_sbu_0, # of connection points: 5
#     Node 8, Type 0, BuildingBlock: XOMCOT_clean_sbu_0, # of connection points: 5
#     Node 9, Type 0, BuildingBlock: XOMCOT_clean_sbu_0, # of connection points: 5
#     Node 10, Type 0, BuildingBlock: XOMCOT_clean_sbu_0, # of connection points: 5
#     Node 11, Type 0, BuildingBlock: XOMCOT_clean_sbu_0, # of connection points: 5
#     Node 12, Type 0, BuildingBlock: XOMCOT_clean_sbu_0, # of connection points: 5
#     Node 13, Type 0, BuildingBlock: XOMCOT_clean_sbu_0, # of connection points: 5
#     Node 14, Type 0, BuildingBlock: XOMCOT_clean_sbu_0, # of connection points: 5
#     Node 15, Type 0, BuildingBlock: XOMCOT_clean_sbu_0, # of connection points: 5
#     Edge 16, Type (0, 0), BuildingBlock: ZUJKAS_clean_linker_0, # of connection points: 2
#     Edge 17, Type (0, 0), BuildingBlock: ZUJKAS_clean_linker_0, # of connection points: 2
#     Edge 18, Type (0, 0), BuildingBlock: ZUJKAS_clean_linker_0, # of connection points: 2
#     Edge 19, Type (0, 0), BuildingBlock: ZUJKAS_clean_linker_0, # of connection points: 2
#     Edge 20, Type (0, 0), BuildingBlock: ZUJKAS_clean_linker_0, # of connection points: 2
#     Edge 21, Type (0, 0), BuildingBlock: ZUJKAS_clean_linker_0, # of connection points: 2
#     Edge 22, Type (0, 0), BuildingBlock: ZUJKAS_clean_linker_0, # of connection points: 2
#     Edge 23, Type (0, 0), BuildingBlock: ZUJKAS_clean_linker_0, # of connection points: 2
#     Edge 24, Type (0, 0), BuildingBlock: ZUJKAS_clean_linker_0, # of connection points: 2
#     Edge 25, Type (0, 0), BuildingBlock: ZUJKAS_clean_linker_0, # of connection points: 2
#     Edge 26, Type (0, 0), BuildingBlock: ZUJKAS_clean_linker_0, # of connection points: 2
#     Edge 27, Type (0, 0), BuildingBlock: ZUJKAS_clean_linker_0, # of connection points: 2
#     Edge 28, Type (0, 0), BuildingBlock: ZUJKAS_clean_linker_0, # of connection points: 2
#     Edge 29, Type (0, 0), BuildingBlock: ZUJKAS_clean_linker_0, # of connection points: 2
#     Edge 30, Type (0, 0), BuildingBlock: ZUJKAS_clean_linker_0, # of connection points: 2
#     Edge 31, Type (0, 0), BuildingBlock: ZUJKAS_clean_linker_0, # of connection points: 2
#     Edge 32, Type (0, 0), BuildingBlock: ZUJKAS_clean_linker_0, # of connection points: 2
#     Edge 33, Type (0, 0), BuildingBlock: ZUJKAS_clean_linker_0, # of connection points: 2
#     Edge 34, Type (0, 0), BuildingBlock: ZUJKAS_clean_linker_0, # of connection points: 2
#     Edge 35, Type (0, 0), BuildingBlock: ZUJKAS_clean_linker_0, # of connection points: 2
#     Edge 36, Type (0, 0), BuildingBlock: ZUJKAS_clean_linker_0, # of connection points: 2
#     Edge 37, Type (0, 0), BuildingBlock: ZUJKAS_clean_linker_0, # of connection points: 2
#     Edge 38, Type (0, 0), BuildingBlock: ZUJKAS_clean_linker_0, # of connection points: 2
#     Edge 39, Type (0, 0), BuildingBlock: ZUJKAS_clean_linker_0, # of connection points: 2
#     Edge 40, Type (0, 0), BuildingBlock: ZUJKAS_clean_linker_0, # of connection points: 2
#     Edge 41, Type (0, 0), BuildingBlock: ZUJKAS_clean_linker_0, # of connection points: 2
#     Edge 42, Type (0, 0), BuildingBlock: ZUJKAS_clean_linker_0, # of connection points: 2
#     Edge 43, Type (0, 0), BuildingBlock: ZUJKAS_clean_linker_0, # of connection points: 2
#     Edge 44, Type (0, 0), BuildingBlock: ZUJKAS_clean_linker_0, # of connection points: 2
#     Edge 45, Type (0, 0), BuildingBlock: ZUJKAS_clean_linker_0, # of connection points: 2
#     Edge 46, Type (0, 0), BuildingBlock: ZUJKAS_clean_linker_0, # of connection points: 2
#     Edge 47, Type (0, 0), BuildingBlock: ZUJKAS_clean_linker_0, # of connection points: 2
#     Edge 48, Type (0, 0), BuildingBlock: ZUJKAS_clean_linker_0, # of connection points: 2
#     Edge 49, Type (0, 0), BuildingBlock: ZUJKAS_clean_linker_0, # of connection points: 2
#     Edge 50, Type (0, 0), BuildingBlock: ZUJKAS_clean_linker_0, # of connection points: 2
#     Edge 51, Type (0, 0), BuildingBlock: ZUJKAS_clean_linker_0, # of connection points: 2
#     Edge 52, Type (0, 0), BuildingBlock: ZUJKAS_clean_linker_0, # of connection points: 2
#     Edge 53, Type (0, 0), BuildingBlock: ZUJKAS_clean_linker_0, # of connection points: 2
#     Edge 54, Type (0, 0), BuildingBlock: ZUJKAS_clean_linker_0, # of connection points: 2
#     Edge 55, Type (0, 0), BuildingBlock: ZUJKAS_clean_linker_0, # of connection points: 2
# Relax obj value: 0.160
# Max RMSD: 0.228
# Mean RMSD: 0.228
data_MOF--net-zff--node1-XOMCOT_clean_sbu_0--edge1-ZUJKAS_clean_linker_0
_symmetry_space_group_name_H-M    P1
_symmetry_Int_Tables_number       1
_symmetry_cell_setting            triclinic
loop_
_symmetry_equiv_pos_as_xyz
'x, y, z'
_cell_length_a     47.353632
_cell_length_b     47.365181
_cell_length_c     83.539105
_cell_angle_alpha  89.951427
_cell_angle_beta   90.032989
_cell_angle_gamma 90.022983
loop_
_atom_site_label
_atom_site_type_symbol
_atom_site_fract_x
_atom_site_fract_y
_atom_site_fract_z
_atom_type_partial_charge
Co0 Co 0.04997 0.30703 0.38901 0.0
C1 C 0.06003 0.32566 0.35578 0.0
C2 C 0.0158 0.31993 0.36042 0.0
C3 C 0.01908 0.32929 0.3449 0.0
N4 N 0.04149 0.31759 0.36717 0.0
N5 N 0.04692 0.3329 0.34197 0.0
H6 H 0.08258 0.32687 0.35773 0.0
H7 H 0.99606 0.31552 0.36642 0.0
C8 C 0.01346 0.25646 0.39618 0.0
O9 O 0.03245 0.24628 0.40608 0.0
N10 N 0.05845 0.29697 0.41124 0.0
C11 C 0.08206 0.28521 0.41744 0.0
C12 C 0.07962 0.28381 0.4338 0.0
C13 C 0.04194 0.30236 0.42414 0.0
N14 N 0.05447 0.29469 0.43804 0.0
C15 C 0.10537 0.28553 0.38162 0.0
C16 C 0.08691 0.23513 0.3687 0.0
C17 C 0.11573 0.23868 0.37179 0.0
C18 C 0.12517 0.26483 0.37755 0.0
C19 C 0.068 0.25627 0.37295 0.0
N20 N 0.07711 0.27996 0.3807 0.0
H21 H 0.11269 0.3052 0.38668 0.0
H22 H 0.04604 0.25321 0.37008 0.0
H23 H 0.10016 0.27791 0.41093 0.0
H24 H 0.02138 0.31224 0.4234 0.0
O25 O 0.07353 0.34046 0.3909 0.0
O26 O 0.02771 0.33776 0.39648 0.0
O27 O 0.0181 0.27916 0.38839 0.0
C28 C 0.05041 0.35296 0.39559 0.0
H29 H 0.0022 0.33303 0.33643 0.0
H30 H 0.0952 0.27522 0.44194 0.0
H31 H 0.07895 0.21584 0.36339 0.0
H32 H 0.14738 0.26868 0.37974 0.0
Co33 Co 0.68207 0.04736 0.392 0.0
C34 C 0.66195 0.05805 0.35907 0.0
C35 C 0.67209 0.01431 0.36265 0.0
C36 C 0.66332 0.01799 0.34705 0.0
N37 N 0.67138 0.03946 0.37012 0.0
N38 N 0.65695 0.0455 0.3448 0.0
H39 H 0.65925 0.08036 0.36139 0.0
H40 H 0.67844 0.99465 0.36817 0.0
C41 C 0.73563 0.01503 0.39784 0.0
O42 O 0.74547 0.03577 0.40667 0.0
N43 N 0.6923 0.0551 0.41429 0.0
C44 C 0.69942 0.07983 0.42127 0.0
C45 C 0.70274 0.07575 0.43742 0.0
C46 C 0.69102 0.03641 0.42657 0.0
N47 N 0.69744 0.04847 0.44081 0.0
C48 C 0.70071 0.10435 0.38587 0.0
C49 C 0.75156 0.08945 0.37209 0.0
C50 C 0.74727 0.11758 0.37664 0.0
C51 C 0.72083 0.12527 0.3828 0.0
C52 C 0.73101 0.06933 0.37556 0.0
N53 N 0.70732 0.07653 0.38392 0.0
H54 H 0.68066 0.11033 0.39102 0.0
H55 H 0.73473 0.04786 0.37187 0.0
H56 H 0.70136 0.1 0.41553 0.0
H57 H 0.68532 0.01443 0.4251 0.0
O58 O 0.64736 0.06877 0.39474 0.0
O59 O 0.65304 0.02289 0.3995 0.0
O60 O 0.71187 0.01734 0.39075 0.0
C61 C 0.63666 0.04479 0.39949 0.0
H62 H 0.6614 0.00157 0.33811 0.0
H63 H 0.70756 0.09201 0.4461 0.0
H64 H 0.77128 0.08264 0.3668 0.0
H65 H 0.71621 0.14701 0.38584 0.0
Co66 Co 0.94852 0.67742 0.38711 0.0
C67 C 0.93349 0.67194 0.35271 0.0
C68 C 0.97461 0.68982 0.35556 0.0
C69 C 0.9701 0.6848 0.33952 0.0
N70 N 0.95126 0.68261 0.3639 0.0
N71 N 0.94425 0.67337 0.33774 0.0
H72 H 0.91394 0.66135 0.3555 0.0
H73 H 0.99456 0.69602 0.36075 0.0
C74 C 0.9824 0.73068 0.38474 0.0
O75 O 0.96276 0.74176 0.37556 0.0
N76 N 0.94564 0.67088 0.40997 0.0
C77 C 0.92212 0.66137 0.41725 0.0
C78 C 0.92739 0.65854 0.43332 0.0
C79 C 0.96501 0.67393 0.42175 0.0
N80 N 0.95429 0.66641 0.43618 0.0
C81 C 0.89509 0.70515 0.38007 0.0
C82 C 0.90303 0.7484 0.40184 0.0
C83 C 0.87953 0.74931 0.39171 0.0
C84 C 0.87528 0.72702 0.38093 0.0
C85 C 0.92232 0.7264 0.40047 0.0
N86 N 0.91906 0.70588 0.38913 0.0
H87 H 0.89094 0.68774 0.37219 0.0
H88 H 0.94047 0.72634 0.40831 0.0
H89 H 0.90234 0.65699 0.41127 0.0
H90 H 0.98639 0.68125 0.41982 0.0
O91 O 0.92629 0.6434 0.38368 0.0
O92 O 0.9732 0.64603 0.38512 0.0
O93 O 0.97909 0.70612 0.39073 0.0
C94 C 0.95077 0.63073 0.38314 0.0
H95 H 0.98556 0.68731 0.33008 0.0
H96 H 0.91234 0.6518 0.4423 0.0
H97 H 0.9071 0.76506 0.41041 0.0
H98 H 0.85683 0.72649 0.37326 0.0
Co99 Co 0.31677 0.94571 0.39235 0.0
C100 C 0.33513 0.92995 0.35892 0.0
C101 C 0.34288 0.97331 0.36474 0.0
C102 C 0.35296 0.96828 0.34959 0.0
N103 N 0.33139 0.9494 0.37061 0.0
N104 N 0.3481 0.94099 0.34588 0.0
H105 H 0.32875 0.90822 0.3598 0.0
H106 H 0.34415 0.99307 0.37117 0.0
C107 C 0.27902 0.98568 0.37549 0.0
O108 O 0.27938 0.96806 0.36334 0.0
N109 N 0.30337 0.94212 0.41418 0.0
C110 C 0.29682 0.91758 0.42144 0.0
C111 C 0.29175 0.92263 0.43734 0.0
C112 C 0.30269 0.96182 0.42589 0.0
N113 N 0.2955 0.95041 0.44022 0.0
C114 C 0.29411 0.89159 0.38257 0.0
C115 C 0.23829 0.90674 0.38693 0.0
C116 C 0.24465 0.87852 0.38368 0.0
C117 C 0.27294 0.87101 0.38113 0.0
C118 C 0.25987 0.92634 0.38844 0.0
N119 N 0.28746 0.91904 0.38595 0.0
H120 H 0.31593 0.88504 0.38202 0.0
H121 H 0.25417 0.94688 0.39288 0.0
H122 H 0.29701 0.89709 0.41576 0.0
H123 H 0.30818 0.98375 0.42402 0.0
O124 O 0.34761 0.92006 0.39729 0.0
O125 O 0.34829 0.96684 0.39994 0.0
O126 O 0.29143 0.97925 0.38859 0.0
C127 C 0.36126 0.94288 0.40137 0.0
H128 H 0.36377 0.98346 0.34209 0.0
H129 H 0.28721 0.90669 0.44627 0.0
H130 H 0.21677 0.9135 0.38907 0.0
H131 H 0.2788 0.84924 0.379 0.0
Co132 Co 0.04925 0.68969 0.64706 0.0
C133 C 0.06284 0.66886 0.67963 0.0
C134 C 0.01912 0.68025 0.67738 0.0
C135 C 0.02393 0.6711 0.6928 0.0
N136 N 0.04355 0.67906 0.6692 0.0
N137 N 0.05142 0.66395 0.69422 0.0
H138 H 0.08483 0.66552 0.67665 0.0
H139 H -0.00086 0.68711 0.67246 0.0
C140 C 0.01906 0.74589 0.64385 0.0
O141 O 0.03792 0.75563 0.63379 0.0
N142 N 0.05496 0.70019 0.62447 0.0
C143 C 0.07421 0.71826 0.61827 0.0
C144 C 0.07121 0.71943 0.60197 0.0
C145 C 0.04038 0.69081 0.61151 0.0
N146 N 0.04991 0.70223 0.59764 0.0
C147 C 0.10791 0.70499 0.64902 0.0
C148 C 0.09908 0.75455 0.66577 0.0
C149 C 0.12554 0.74975 0.65877 0.0
C150 C 0.13033 0.72388 0.65106 0.0
C151 C 0.07732 0.73527 0.66332 0.0
N152 N 0.08132 0.71225 0.6538 0.0
H153 H 0.11126 0.68588 0.64222 0.0
H154 H 0.05695 0.73957 0.66855 0.0
H155 H 0.08875 0.73122 0.62492 0.0
H156 H 0.0228 0.67629 0.61217 0.0
O157 O 0.06762 0.65366 0.64335 0.0
O158 O 0.02172 0.66239 0.64085 0.0
O159 O 0.02169 0.72148 0.65012 0.0
C160 C 0.04227 0.6443 0.64025 0.0
H161 H 0.00824 0.66939 0.70217 0.0
H162 H 0.08389 0.73214 0.59396 0.0
H163 H 0.09456 0.77393 0.67215 0.0
H164 H 0.15072 0.71902 0.64588 0.0
Co165 Co 0.31195 0.05434 0.64979 0.0
C166 C 0.32725 0.06431 0.68351 0.0
C167 C 0.31968 0.0203 0.67912 0.0
C168 C 0.32742 0.02366 0.69493 0.0
N169 N 0.3194 0.04583 0.67204 0.0
N170 N 0.33229 0.05134 0.69765 0.0
H171 H 0.32939 0.08679 0.68149 0.0
H172 H 0.31531 0.00055 0.67315 0.0
C173 C 0.26308 0.01673 0.6407 0.0
O174 O 0.25192 0.03689 0.63193 0.0
N175 N 0.30531 0.06301 0.62725 0.0
C176 C 0.3048 0.08874 0.62029 0.0
C177 C 0.30408 0.08561 0.60396 0.0
C178 C 0.30568 0.04456 0.61486 0.0
N179 N 0.3047 0.05786 0.60052 0.0
C180 C 0.28552 0.10829 0.65547 0.0
C181 C 0.23513 0.08668 0.66672 0.0
C182 C 0.23682 0.11556 0.66322 0.0
C183 C 0.26288 0.12657 0.65824 0.0
C184 C 0.25826 0.0693 0.66376 0.0
N185 N 0.28209 0.07979 0.65673 0.0
H186 H 0.30564 0.11705 0.65199 0.0
H187 H 0.25662 0.04731 0.66694 0.0
H188 H 0.30648 0.1087 0.62631 0.0
H189 H 0.30782 0.02195 0.6163 0.0
O190 O 0.34426 0.07968 0.64985 0.0
O191 O 0.34483 0.03397 0.64366 0.0
O192 O 0.28569 0.02109 0.64864 0.0
C193 C 0.35854 0.05745 0.64547 0.0
H194 H 0.3302 0.00689 0.7036 0.0
H195 H 0.30372 0.10257 0.59528 0.0
H196 H 0.21578 0.07723 0.67108 0.0
H197 H 0.26563 0.14901 0.65625 0.0
Co198 Co 0.94308 0.31191 0.64737 0.0
C199 C 0.92904 0.32166 0.68172 0.0
C200 C 0.9689 0.30104 0.67912 0.0
C201 C 0.96482 0.30703 0.69508 0.0
N202 N 0.94596 0.30923 0.6707 0.0
N203 N 0.93973 0.32009 0.69671 0.0
H204 H 0.9102 0.33333 0.67877 0.0
H205 H 0.98822 0.29297 0.674 0.0
C206 C 0.97 0.25565 0.6522 0.0
O207 O 0.94956 0.24947 0.66225 0.0
N208 N 0.94022 0.31598 0.62436 0.0
C209 C 0.91706 0.32573 0.61681 0.0
C210 C 0.92156 0.32483 0.60061 0.0
C211 C 0.95875 0.30944 0.61262 0.0
N212 N 0.94767 0.31447 0.59792 0.0
C213 C 0.88677 0.2906 0.65539 0.0
C214 C 0.89014 0.24496 0.63485 0.0
C215 C 0.86656 0.24746 0.64479 0.0
C216 C 0.86471 0.27085 0.65502 0.0
C217 C 0.91168 0.26476 0.63578 0.0
N218 N 0.9106 0.28656 0.64649 0.0
H219 H 0.88439 0.30907 0.66269 0.0
H220 H 0.92972 0.26214 0.62802 0.0
H221 H 0.89798 0.33265 0.62273 0.0
H222 H 0.97947 0.30056 0.61476 0.0
O223 O 0.92491 0.3485 0.64958 0.0
O224 O 0.97112 0.34069 0.64795 0.0
O225 O 0.96996 0.27929 0.64482 0.0
C226 C 0.95058 0.35862 0.64934 0.0
H227 H 0.98003 0.30368 0.70457 0.0
H228 H 0.90671 0.33145 0.5915 0.0
H229 H 0.89243 0.22728 0.62673 0.0
H230 H 0.84637 0.27392 0.66256 0.0
Co231 Co 0.67538 0.94502 0.65093 0.0
C232 C 0.66368 0.93437 0.68499 0.0
C233 C 0.67302 0.97815 0.68091 0.0
C234 C 0.66663 0.97444 0.69689 0.0
N235 N 0.67126 0.95296 0.67352 0.0
N236 N 0.66061 0.94693 0.6994 0.0
H237 H 0.66016 0.91215 0.68275 0.0
H238 H 0.67779 -0.00207 0.67506 0.0
C239 C 0.72454 0.98152 0.64097 0.0
O240 O 0.73556 0.96056 0.63279 0.0
N241 N 0.67853 0.93689 0.62806 0.0
C242 C 0.67266 0.91206 0.62086 0.0
C243 C 0.67272 0.91569 0.60457 0.0
C244 C 0.68089 0.9556 0.61583 0.0
N245 N 0.67784 0.94307 0.60137 0.0
C246 C 0.70389 0.89116 0.65329 0.0
C247 C 0.75311 0.91257 0.66627 0.0
C248 C 0.75252 0.88434 0.66131 0.0
C249 C 0.72714 0.87334 0.65532 0.0
C250 C 0.72946 0.92956 0.66392 0.0
N251 N 0.7061 0.91938 0.65624 0.0
H252 H 0.68417 0.88216 0.64945 0.0
H253 H 0.73026 0.95114 0.66802 0.0
H254 H 0.66654 0.89284 0.62678 0.0
H255 H 0.68328 0.97813 0.61747 0.0
O256 O 0.64313 0.91973 0.65234 0.0
O257 O 0.64182 0.96568 0.6466 0.0
O258 O 0.70168 0.97808 0.6488 0.0
C259 C 0.62838 0.9422 0.64892 0.0
H260 H 0.66544 0.99093 0.70583 0.0
H261 H 0.66852 0.89945 0.59578 0.0
H262 H 0.772 0.92182 0.67137 0.0
H263 H 0.72531 0.85124 0.65218 0.0
Co264 Co 0.55109 0.81028 0.89259 0.0
C265 C 0.56084 0.8276 0.85916 0.0
C266 C 0.5176 0.81563 0.86294 0.0
C267 C 0.52085 0.82378 0.84719 0.0
N268 N 0.54273 0.81788 0.87036 0.0
N269 N 0.54804 0.83136 0.84485 0.0
H270 H 0.58294 0.83174 0.86147 0.0
H271 H 0.49819 0.80903 0.86862 0.0
C272 C 0.51959 0.75697 0.90066 0.0
O273 O 0.5401 0.74894 0.91022 0.0
N274 N 0.55935 0.80332 0.9152 0.0
C275 C 0.5846 0.79943 0.92242 0.0
C276 C 0.58076 0.79778 0.93866 0.0
C277 C 0.54057 0.80465 0.92742 0.0
N278 N 0.55311 0.80107 0.94186 0.0
C279 C 0.60819 0.79092 0.88719 0.0
C280 C 0.59311 0.73877 0.87514 0.0
C281 C 0.62126 0.74347 0.87951 0.0
C282 C 0.62905 0.77043 0.88485 0.0
C283 C 0.57305 0.75967 0.87794 0.0
N284 N 0.58033 0.7842 0.88548 0.0
H285 H 0.61427 0.81163 0.89137 0.0
H286 H 0.55157 0.75563 0.87435 0.0
H287 H 0.60491 0.79894 0.91676 0.0
H288 H 0.51822 0.80836 0.92575 0.0
O289 O 0.57218 0.84545 0.89355 0.0
O290 O 0.52646 0.84007 0.89888 0.0
O291 O 0.52147 0.77993 0.89273 0.0
C292 C 0.54813 0.85667 0.89774 0.0
H293 H 0.50429 0.82476 0.83828 0.0
H294 H 0.59735 0.79561 0.94749 0.0
H295 H 0.58628 0.71859 0.87042 0.0
H296 H 0.65084 0.77531 0.88767 0.0
Co297 Co 0.17715 0.55096 0.88813 0.0
C298 C 0.16737 0.56105 0.85373 0.0
C299 C 0.1766 0.51739 0.85826 0.0
C300 C 0.171 0.52074 0.84216 0.0
N301 N 0.17442 0.54272 0.86546 0.0
N302 N 0.16503 0.54818 0.83935 0.0
H303 H 0.16365 0.5833 0.85575 0.0
H304 H 0.18112 0.49773 0.86432 0.0
C305 C 0.22592 0.5144 0.89843 0.0
O306 O 0.23763 0.5358 0.90592 0.0
N307 N 0.17872 0.55929 0.91107 0.0
C308 C 0.17036 0.58359 0.91805 0.0
C309 C 0.17023 0.5803 0.93434 0.0
C310 C 0.18214 0.54105 0.92346 0.0
N311 N 0.1775 0.5535 0.93784 0.0
C312 C 0.20928 0.60321 0.88822 0.0
C313 C 0.25659 0.58033 0.8739 0.0
C314 C 0.25852 0.60728 0.88073 0.0
C315 C 0.23401 0.61924 0.88729 0.0
C316 C 0.23155 0.56506 0.87523 0.0
N317 N 0.20908 0.57564 0.88354 0.0
H318 H 0.19056 0.61297 0.89285 0.0
H319 H 0.2307 0.5441 0.87016 0.0
H320 H 0.16259 0.60203 0.91191 0.0
H321 H 0.18624 0.51875 0.92198 0.0
O322 O 0.14574 0.57706 0.88577 0.0
O323 O 0.14272 0.53124 0.89166 0.0
O324 O 0.20256 0.51741 0.89102 0.0
C325 C 0.13012 0.55502 0.88885 0.0
H326 H 0.17027 0.50405 0.83332 0.0
H327 H 0.1643 0.59637 0.9429 0.0
H328 H 0.27449 0.57078 0.86794 0.0
H329 H 0.2341 0.64037 0.89222 0.0
Co330 Co 0.44205 0.18372 0.89169 0.0
C331 C 0.43247 0.16725 0.85809 0.0
C332 C 0.47579 0.17868 0.86212 0.0
C333 C 0.4726 0.17101 0.84629 0.0
N334 N 0.45057 0.17649 0.86943 0.0
N335 N 0.44537 0.16376 0.84379 0.0
H336 H 0.4103 0.16327 0.86028 0.0
H337 H 0.49521 0.18493 0.86791 0.0
C338 C 0.47397 0.23678 0.89992 0.0
O339 O 0.45326 0.24521 0.90922 0.0
N340 N 0.43354 0.19024 0.91426 0.0
C341 C 0.40801 0.19094 0.92144 0.0
C342 C 0.41161 0.19319 0.93768 0.0
C343 C 0.45235 0.1911 0.9265 0.0
N344 N 0.43947 0.19336 0.94092 0.0
C345 C 0.38524 0.2041 0.88624 0.0
C346 C 0.40131 0.25634 0.87472 0.0
C347 C 0.37291 0.25199 0.87876 0.0
C348 C 0.3647 0.2249 0.88377 0.0
C349 C 0.42094 0.23497 0.87734 0.0
N350 N 0.41322 0.21037 0.88466 0.0
H351 H 0.37872 0.18328 0.88999 0.0
H352 H 0.44248 0.23871 0.87378 0.0
H353 H 0.38787 0.18849 0.91569 0.0
H354 H 0.47498 0.1899 0.92484 0.0
O355 O 0.42052 0.14879 0.89234 0.0
O356 O 0.46623 0.15352 0.89795 0.0
O357 O 0.47206 0.2137 0.89212 0.0
C358 C 0.44437 0.13722 0.89663 0.0
H359 H 0.48922 0.17013 0.83742 0.0
H360 H 0.39487 0.19333 0.9465 0.0
H361 H 0.40876 0.27649 0.87029 0.0
H362 H 0.34276 0.22 0.88615 0.0
Co363 Co 0.81462 0.44249 0.88937 0.0
C364 C 0.82764 0.43218 0.85538 0.0
C365 C 0.82301 0.47646 0.86017 0.0
C366 C 0.83072 0.47305 0.84437 0.0
N367 N 0.82102 0.45082 0.867 0.0
N368 N 0.83375 0.44517 0.84137 0.0
H369 H 0.82908 0.40965 0.85739 0.0
H370 H 0.81996 0.49628 0.86634 0.0
C371 C 0.76439 0.47884 0.89749 0.0
O372 O 0.75273 0.45793 0.90545 0.0
N373 N 0.80931 0.43405 0.91209 0.0
C374 C 0.8154 0.4094 0.91946 0.0
C375 C 0.81286 0.41266 0.93569 0.0
C376 C 0.80477 0.45244 0.92426 0.0
N377 N 0.80608 0.4397 0.93877 0.0
C378 C 0.78407 0.38953 0.88727 0.0
C379 C 0.7373 0.41235 0.87233 0.0
C380 C 0.73527 0.38522 0.87896 0.0
C381 C 0.75963 0.37322 0.88571 0.0
C382 C 0.76204 0.42789 0.87432 0.0
N383 N 0.78399 0.41736 0.88309 0.0
H384 H 0.80275 0.37987 0.89208 0.0
H385 H 0.763 0.44897 0.86941 0.0
H386 H 0.82363 0.39075 0.91376 0.0
H387 H 0.80149 0.47484 0.92258 0.0
O388 O 0.8467 0.41693 0.88872 0.0
O389 O 0.84795 0.46268 0.89489 0.0
O390 O 0.78829 0.47567 0.89068 0.0
C391 C 0.86138 0.43912 0.89281 0.0
H392 H 0.83414 0.4899 0.83584 0.0
H393 H 0.81751 0.39672 0.9446 0.0
H394 H 0.71962 0.4219 0.86614 0.0
H395 H 0.75954 0.35192 0.89043 0.0
Co396 Co 0.54931 0.17798 0.14998 0.0
C397 C 0.55979 0.16265 0.18371 0.0
C398 C 0.51625 0.17325 0.1798 0.0
C399 C 0.51978 0.16607 0.19567 0.0
N400 N 0.54137 0.17126 0.17237 0.0
N401 N 0.54716 0.15934 0.19811 0.0
H402 H 0.58199 0.15897 0.18145 0.0
H403 H 0.49663 0.17904 0.17406 0.0
C404 C 0.51537 0.22953 0.14132 0.0
O405 O 0.53615 0.2392 0.13245 0.0
N406 N 0.55726 0.18399 0.12728 0.0
C407 C 0.58263 0.18346 0.11991 0.0
C408 C 0.57873 0.18444 0.10366 0.0
C409 C 0.5382 0.18449 0.11515 0.0
N410 N 0.55082 0.18496 0.1006 0.0
C411 C 0.60546 0.20039 0.15458 0.0
C412 C 0.58819 0.25226 0.16603 0.0
C413 C 0.61646 0.2487 0.16155 0.0
C414 C 0.62537 0.22191 0.15653 0.0
C415 C 0.5691 0.23027 0.1637 0.0
N416 N 0.57737 0.20577 0.15648 0.0
H417 H 0.61254 0.17966 0.15104 0.0
H418 H 0.54751 0.23339 0.16738 0.0
H419 H 0.60282 0.18093 0.12558 0.0
H420 H 0.5156 0.18337 0.11695 0.0
O421 O 0.57196 0.14376 0.14956 0.0
O422 O 0.52605 0.14687 0.14424 0.0
O423 O 0.51822 0.20671 0.14927 0.0
C424 C 0.54842 0.13127 0.14553 0.0
H425 H 0.5033 0.16516 0.20463 0.0
H426 H 0.59532 0.1842 0.09475 0.0
H427 H 0.58051 0.27228 0.17051 0.0
H428 H 0.64734 0.21786 0.15376 0.0
Co429 Co 0.80893 0.54951 0.14702 0.0
C430 C 0.8273 0.56033 0.18014 0.0
C431 C 0.82062 0.51607 0.17609 0.0
C432 C 0.82998 0.5198 0.19158 0.0
N433 N 0.81889 0.54151 0.16899 0.0
N434 N 0.83422 0.54767 0.19413 0.0
H435 H 0.82904 0.58275 0.17786 0.0
H436 H 0.81587 0.49618 0.17034 0.0
C437 C 0.75807 0.51351 0.13989 0.0
O438 O 0.74775 0.53307 0.13039 0.0
N439 N 0.79964 0.55758 0.12469 0.0
C440 C 0.79382 0.58273 0.11781 0.0
C441 C 0.79207 0.57936 0.10153 0.0
C442 C 0.80174 0.53932 0.11226 0.0
N443 N 0.79719 0.55211 0.09799 0.0
C444 C 0.78644 0.60491 0.15365 0.0
C445 C 0.73569 0.5862 0.166 0.0
C446 C 0.73871 0.6149 0.16231 0.0
C447 C 0.76506 0.62446 0.15686 0.0
C448 C 0.75754 0.56755 0.16255 0.0
N449 N 0.78135 0.57664 0.1549 0.0
H450 H 0.80652 0.6124 0.14922 0.0
H451 H 0.7548 0.5457 0.16578 0.0
H452 H 0.79193 0.60271 0.12376 0.0
H453 H 0.80745 0.51732 0.11363 0.0
O454 O 0.84238 0.57314 0.14528 0.0
O455 O 0.83988 0.52724 0.13986 0.0
O456 O 0.78106 0.5176 0.14751 0.0
C457 C 0.85497 0.55002 0.14068 0.0
H458 H 0.83336 0.5032 0.20028 0.0
H459 H 0.78771 0.59591 0.09295 0.0
H460 H 0.7161 0.57783 0.17072 0.0
H461 H 0.7688 0.64666 0.15457 0.0
Co462 Co 0.43968 0.80368 0.1502 0.0
C463 C 0.43536 0.81854 0.18488 0.0
C464 C 0.44736 0.77536 0.18149 0.0
C465 C 0.44382 0.78012 0.19761 0.0
N466 N 0.44221 0.79949 0.17343 0.0
N467 N 0.43608 0.80727 0.19977 0.0
H468 H 0.4283 0.83976 0.18235 0.0
H469 H 0.45198 0.75518 0.17607 0.0
C470 C 0.47532 0.75451 0.13706 0.0
O471 O 0.46721 0.75764 0.12215 0.0
N472 N 0.43623 0.80884 0.12716 0.0
C473 C 0.41148 0.81334 0.11959 0.0
C474 C 0.4166 0.81899 0.10376 0.0
C475 C 0.45628 0.81326 0.11588 0.0
N476 N 0.44474 0.81876 0.10136 0.0
C477 C 0.38454 0.78653 0.16111 0.0
C478 C 0.38027 0.74036 0.14101 0.0
C479 C 0.35944 0.74468 0.15259 0.0
C480 C 0.36145 0.76823 0.16266 0.0
C481 C 0.4032 0.75856 0.14019 0.0
N482 N 0.40555 0.78093 0.15037 0.0
H483 H 0.38599 0.80472 0.16885 0.0
H484 H 0.41902 0.75457 0.13131 0.0
H485 H 0.39095 0.81289 0.12525 0.0
H486 H 0.47875 0.81237 0.11822 0.0
O487 O 0.42418 0.84144 0.15248 0.0
O488 O 0.46974 0.83027 0.15074 0.0
O489 O 0.4646 0.76928 0.14831 0.0
C490 C 0.45056 0.84961 0.15223 0.0
H491 H 0.44613 0.76445 0.20695 0.0
H492 H 0.40074 0.82244 0.09463 0.0
H493 H 0.37948 0.7223 0.13306 0.0
H494 H 0.34559 0.77222 0.17171 0.0
Co495 Co 0.17845 0.44232 0.1474 0.0
C496 C 0.16923 0.42887 0.18196 0.0
C497 C 0.18527 0.47065 0.17868 0.0
C498 C 0.17868 0.46712 0.19458 0.0
N499 N 0.18028 0.44635 0.17071 0.0
N500 N 0.16847 0.44082 0.19666 0.0
H501 H 0.15927 0.40894 0.17928 0.0
H502 H 0.19141 0.49039 0.1732 0.0
C503 C 0.23171 0.47436 0.15256 0.0
O504 O 0.23913 0.45501 0.16304 0.0
N505 N 0.17524 0.43834 0.12439 0.0
C506 C 0.16886 0.41391 0.11698 0.0
C507 C 0.17029 0.41794 0.10074 0.0
C508 C 0.18012 0.45717 0.11252 0.0
N509 N 0.17743 0.44505 0.0979 0.0
C510 C 0.20402 0.38826 0.15616 0.0
C511 C 0.24982 0.39483 0.13595 0.0
C512 C 0.24869 0.37112 0.14588 0.0
C513 C 0.2253 0.36769 0.156 0.0
C514 C 0.22851 0.41487 0.13666 0.0
N515 N 0.20649 0.41218 0.14713 0.0
H516 H 0.18558 0.38461 0.16333 0.0
H517 H 0.22995 0.43293 0.12881 0.0
H518 H 0.16413 0.39428 0.12305 0.0
H519 H 0.18631 0.47889 0.1145 0.0
O520 O 0.14353 0.42106 0.14966 0.0
O521 O 0.14749 0.4678 0.14752 0.0
O522 O 0.20868 0.47181 0.14474 0.0
C523 C 0.13145 0.44584 0.1493 0.0
H524 H 0.18021 0.48317 0.20375 0.0
H525 H 0.16637 0.4021 0.09167 0.0
H526 H 0.26745 0.3983 0.12792 0.0
H527 H 0.22335 0.34918 0.16354 0.0
H528 H 0.92167 0.58828 0.39783 0.0
H529 H 0.93771 0.53893 0.39983 0.0
H530 H 0.00444 0.55648 0.36611 0.0
H531 H 0.98863 0.60542 0.36416 0.0
H532 H 0.97781 0.50111 0.36326 0.0
H533 H 0.01462 0.52886 0.42461 0.0
H534 H 0.9779 0.53487 0.42025 0.0
H535 H 0.00439 0.55528 0.41014 0.0
C536 C 0.93902 0.58116 0.39041 0.0
C537 C 0.95409 0.60034 0.38091 0.0
C538 C 0.94833 0.5532 0.39167 0.0
C539 C 0.97253 0.54442 0.38332 0.0
C540 C 0.98583 0.56298 0.37269 0.0
H541 H 0.07867 0.39459 0.37963 0.0
H542 H 0.0632 0.44402 0.37769 0.0
C543 C 0.97677 0.59082 0.37156 0.0
C544 C 0.98618 0.51719 0.38686 0.0
H545 H 0.02462 0.48292 0.41545 0.0
C546 C 0.98797 0.497 0.37467 0.0
C547 C -0.00027 0.51232 0.4017 0.0
C548 C -0.00065 0.53398 0.41494 0.0
C549 C 0.00257 0.47161 0.37704 0.0
C550 C 0.01623 0.46676 0.39186 0.0
C551 C 0.01442 0.48698 0.40405 0.0
C552 C 0.03011 0.4396 0.39539 0.0
C553 C 0.00263 0.44989 0.36382 0.0
C554 C 0.01797 0.42169 0.40681 0.0
C555 C 0.02687 0.39379 0.40801 0.0
C556 C 0.04814 0.38351 0.39788 0.0
C557 C 0.06235 0.40218 0.38763 0.0
C558 C 0.0533 0.43021 0.38637 0.0
H559 H 0.98655 0.45458 0.3545 0.0
H560 H 0.02368 0.44967 0.35799 0.0
H561 H -0.00147 0.42846 0.36869 0.0
H562 H 0.00022 0.42867 0.41397 0.0
H563 H 0.01572 0.37971 0.41606 0.0
H564 H 0.58942 0.0627 0.38389 0.0
H565 H 0.54141 0.0448 0.38845 0.0
H566 H 0.57043 0.00033 0.43049 0.0
H567 H 0.61837 0.01726 0.42556 0.0
H568 H 0.54519 0.96551 0.4102 0.0
H569 H 0.47754 0.05956 0.41907 0.0
H570 H 0.49807 0.06161 0.40107 0.0
H571 H 0.51557 0.06124 0.4202 0.0
C572 C 0.58516 0.04999 0.39441 0.0
C573 C 0.60726 0.04135 0.40443 0.0
C574 C 0.55782 0.03974 0.39701 0.0
C575 C 0.55235 0.02127 0.40985 0.0
C576 C 0.57419 0.01445 0.4205 0.0
H577 H 0.38172 0.96547 0.42844 0.0
H578 H 0.43059 0.98017 0.43292 0.0
C579 C 0.60147 0.02425 0.41775 0.0
C580 C 0.525 0.00631 0.41111 0.0
H581 H 0.45387 0.01633 0.41276 0.0
C582 C 0.52521 0.97662 0.41098 0.0
C583 C 0.49903 0.02079 0.41223 0.0
C584 C 0.49749 0.05255 0.41331 0.0
C585 C 0.50008 0.96101 0.4116 0.0
C586 C 0.47405 0.97551 0.41198 0.0
C587 C 0.47388 0.00519 0.41244 0.0
C588 C 0.44657 0.96068 0.41132 0.0
C589 C 0.50173 0.9292 0.41195 0.0
C590 C 0.43968 0.9435 0.39815 0.0
C591 C 0.41186 0.93444 0.39584 0.0
C592 C 0.39072 0.94295 0.40651 0.0
C593 C 0.39794 0.95838 0.42023 0.0
C594 C 0.42573 0.96698 0.42269 0.0
H595 H 0.52226 0.92187 0.41687 0.0
H596 H 0.48441 0.91997 0.41923 0.0
H597 H 0.49989 0.92101 0.39955 0.0
H598 H 0.45525 0.93891 0.38903 0.0
H599 H 0.40645 0.92321 0.38496 0.0
H600 H 0.91588 0.40324 0.64199 0.0
H601 H 0.92996 0.4532 0.63996 0.0
H602 H 0.0138 0.43164 0.65604 0.0
H603 H 4e-05 0.38223 0.65811 0.0
H604 H 0.98911 0.48168 0.67036 0.0
H605 H 0.98568 0.48014 0.6037 0.0
H606 H 0.95455 0.46851 0.61416 0.0
H607 H 0.98643 0.44819 0.61551 0.0
C608 C 0.93713 0.40936 0.64532 0.0
C609 C 0.95696 0.38897 0.65005 0.0
C610 C 0.94519 0.43773 0.64405 0.0
C611 C 0.97302 0.44585 0.64763 0.0
C612 C 0.9923 0.42569 0.65313 0.0
H613 H 0.07495 0.59856 0.64798 0.0
H614 H 0.05943 0.54906 0.64856 0.0
C615 C 0.98439 0.39749 0.65427 0.0
C616 C 0.98284 0.47506 0.64513 0.0
H617 H 0.00034 0.52244 0.61599 0.0
C618 C 0.99147 0.49071 0.6585 0.0
C619 C 0.98606 0.48648 0.62961 0.0
C620 C 0.9779 0.47001 0.61486 0.0
C621 C 0.00308 0.51776 0.65677 0.0
C622 C 0.00671 0.52905 0.64122 0.0
C623 C -0.00219 0.51349 0.62786 0.0
C624 C 0.01801 0.55777 0.63872 0.0
C625 C 0.01084 0.53422 0.6716 0.0
C626 C 0.00047 0.57854 0.63214 0.0
C627 C 0.00932 0.60655 0.63168 0.0
C628 C 0.03592 0.61424 0.63774 0.0
C629 C 0.05435 0.59315 0.64324 0.0
C630 C 0.04541 0.565 0.64373 0.0
H631 H 0.00095 0.5252 0.68253 0.0
H632 H 0.03409 0.53367 0.67323 0.0
H633 H 0.0043 0.55664 0.67046 0.0
H634 H 0.97936 0.5733 0.62809 0.0
H635 H 0.99478 0.62238 0.62723 0.0
H636 H 0.5943 0.9438 0.62316 0.0
H637 H 0.54685 0.96445 0.62301 0.0
H638 H 0.54769 0.96713 0.67465 0.0
H639 H 0.59474 0.94553 0.67476 0.0
H640 H 0.49428 0.95765 0.66228 0.0
H641 H 0.54611 0.04879 0.63263 0.0
H642 H 0.5494 0.01654 0.62154 0.0
H643 H 0.56578 0.01962 0.6409 0.0
C644 C 0.58361 0.94742 0.63444 0.0
C645 C 0.59766 0.9428 0.64896 0.0
C646 C 0.55683 0.95967 0.63437 0.0
C647 C 0.5443 0.96814 0.64881 0.0
C648 C 0.55718 0.96095 0.66338 0.0
H649 H 0.39698 0.07483 0.66746 0.0
H650 H 0.44596 0.05766 0.66898 0.0
C651 C 0.58382 0.94832 0.66345 0.0
C652 C 0.51941 0.98692 0.64865 0.0
H653 H 0.49587 0.05049 0.63458 0.0
C654 C 0.49468 0.97804 0.65636 0.0
C655 C 0.52026 0.01381 0.64118 0.0
C656 C 0.5469 0.02543 0.63374 0.0
C657 C 0.47031 0.99482 0.65616 0.0
C658 C 0.47087 0.02105 0.64808 0.0
C659 C 0.49573 0.03034 0.64076 0.0
C660 C 0.4448 0.03741 0.64578 0.0
C661 C 0.44377 0.98414 0.66412 0.0
C662 C 0.42887 0.03284 0.63191 0.0
C663 C 0.40113 0.04243 0.63108 0.0
C664 C 0.38924 0.05705 0.64401 0.0
C665 C 0.40607 0.06411 0.65723 0.0
C666 C 0.43382 0.05412 0.65817 0.0
H667 H 0.44671 0.96299 0.66963 0.0
H668 H 0.43711 -0.00081 0.67357 0.0
H669 H 0.4264 0.98288 0.65521 0.0
H670 H 0.4371 0.01991 0.62229 0.0
H671 H 0.38827 0.03651 0.62088 0.0
H672 H 0.5181 0.88158 0.92108 0.0
H673 H 0.50089 0.93021 0.9213 0.0
H674 H 0.54937 0.94808 0.87874 0.0
H675 H 0.56759 0.89945 0.87891 0.0
H676 H 0.54823 0.99277 0.89884 0.0
H677 H 0.43975 0.95226 0.89005 0.0
H678 H 0.45553 0.93843 0.90792 0.0
H679 H 0.47048 0.9299 0.8887 0.0
C680 C 0.52568 0.89618 0.91206 0.0
C681 C 0.54407 0.88703 0.89998 0.0
C682 C 0.51557 0.92377 0.91206 0.0
C683 C 0.52304 0.94236 0.8997 0.0
C684 C 0.5431 0.93388 0.88827 0.0
H685 H 0.42647 0.0948 0.87711 0.0
H686 H 0.44452 0.0461 0.87734 0.0
C687 C 0.55368 0.90629 0.88845 0.0
C688 C 0.50885 0.97009 0.89839 0.0
H689 H 0.44374 0.00104 0.89721 0.0
C690 C 0.52541 0.9946 0.89837 0.0
C691 C 0.47907 0.97239 0.89731 0.0
C692 C 0.4602 0.94683 0.89581 0.0
C693 C 0.51294 0.02143 0.89797 0.0
C694 C 0.4831 0.02372 0.89813 0.0
C695 C 0.46657 -0.00079 0.89745 0.0
C696 C 0.46881 0.05143 0.89912 0.0
C697 C 0.53193 0.04701 0.8972 0.0
C698 C 0.47512 0.06982 0.91177 0.0
C699 C 0.46513 0.09745 0.91154 0.0
C700 C 0.44796 0.10682 0.89893 0.0
C701 C 0.4394 0.08777 0.88705 0.0
C702 C 0.4499 0.06014 0.88711 0.0
H703 H 0.5529 0.04167 0.89207 0.0
H704 H 0.52234 0.06407 0.88987 0.0
H705 H 0.53544 0.05517 0.90949 0.0
H706 H 0.48888 0.06321 0.92143 0.0
H707 H 0.47191 0.11192 0.92082 0.0
H708 H 0.89826 0.42568 0.86927 0.0
H709 H 0.94705 0.44326 0.86763 0.0
H710 H 0.94128 0.4732 0.91627 0.0
H711 H 0.89263 0.45617 0.9178 0.0
H712 H 0.9534 0.50465 0.87335 0.0
H713 H 0.02281 0.43944 0.91222 0.0
H714 H 0.99079 0.42588 0.90327 0.0
H715 H 0.98896 0.44826 0.92058 0.0
C716 C 0.90804 0.43468 0.87983 0.0
C717 C 0.89214 0.43933 0.89374 0.0
C718 C 0.93568 0.44496 0.87884 0.0
C719 C 0.94765 0.45941 0.89185 0.0
C720 C 0.93253 0.46174 0.9062 0.0
H721 H 0.09401 0.55819 0.91366 0.0
H722 H 0.04599 0.53891 0.9135 0.0
C723 C 0.90485 0.45192 0.9071 0.0
C724 C 0.97368 0.4761 0.88982 0.0
H725 H 0.04003 0.48467 0.90472 0.0
C726 C 0.97255 0.50017 0.88002 0.0
C727 C -0.00174 0.47032 0.89876 0.0
C728 C 0.00051 0.44446 0.90923 0.0
C729 C 0.99521 0.51921 0.87931 0.0
C730 C 0.01976 0.5136 0.88839 0.0
C731 C 0.02103 0.48915 0.89792 0.0
C732 C 0.04497 0.53205 0.88787 0.0
C733 C 0.99226 0.54556 0.86928 0.0
C734 C 0.05955 0.5361 0.87342 0.0
C735 C 0.08662 0.54779 0.8735 0.0
C736 C 0.09942 0.55525 0.88803 0.0
C737 C 0.08407 0.55329 0.9023 0.0
C738 C 0.05688 0.54194 0.90222 0.0
H739 H 0.96974 0.55102 0.86721 0.0
H740 H 0.0029 0.56383 0.87502 0.0
H741 H 0.0022 0.54194 0.85743 0.0
H742 H 0.05109 0.52807 0.86228 0.0
H743 H 0.09861 0.54828 0.86245 0.0
H744 H 0.49938 0.86846 0.16477 0.0
H745 H 0.51803 0.91643 0.16399 0.0
H746 H 0.44104 0.94548 0.14184 0.0
H747 H 0.42193 0.89707 0.14272 0.0
H748 H 0.4989 0.95597 0.12544 0.0
H749 H 0.49176 0.99037 0.18906 0.0
H750 H 0.50389 0.95498 0.18524 0.0
H751 H 0.46814 0.96437 0.18058 0.0
C752 C 0.4862 0.88514 0.15997 0.0
C753 C 0.45929 0.87921 0.15373 0.0
C754 C 0.49686 0.91248 0.1596 0.0
C755 C 0.48085 0.9343 0.1529 0.0
C756 C 0.45355 0.92874 0.14713 0.0
H757 H 0.51 0.10457 0.12729 0.0
H758 H 0.49805 0.05469 0.12784 0.0
C759 C 0.44264 0.90127 0.14769 0.0
C760 C 0.49389 0.96224 0.1508 0.0
H761 H 0.51688 0.01996 0.17133 0.0
C762 C 0.50275 0.9701 0.13543 0.0
C763 C 0.49944 0.98005 0.16396 0.0
C764 C 0.49024 0.97224 0.18067 0.0
C765 C 0.51694 0.99565 0.13282 0.0
C766 C 0.52177 0.01394 0.14591 0.0
C767 C 0.51335 0.00576 0.16135 0.0
C768 C 0.53235 0.04298 0.14364 0.0
C769 C 0.52677 0.00272 0.11612 0.0
C770 C 0.55587 0.05295 0.15223 0.0
C771 C 0.56275 0.08171 0.15197 0.0
C772 C 0.54585 0.10066 0.14332 0.0
C773 C 0.52333 0.09033 0.13408 0.0
C774 C 0.51659 0.06179 0.13428 0.0
H775 H 0.53055 0.98329 0.10898 0.0
H776 H 0.51014 0.01511 0.10993 0.0
H777 H 0.54647 0.01544 0.11632 0.0
H778 H 0.56813 0.0387 0.15963 0.0
H779 H 0.58004 0.08929 0.1593 0.0
H780 H 0.89714 0.57612 0.15728 0.0
H781 H 0.94669 0.56067 0.15795 0.0
H782 H 0.92993 0.50219 0.11952 0.0
H783 H 0.88086 0.51757 0.11879 0.0
H784 H 0.95722 0.50378 0.16537 0.0
H785 H 0.00778 0.53261 0.10779 0.0
H786 H 0.97639 0.54997 0.11513 0.0
H787 H 0.97387 0.51622 0.10538 0.0
C788 C 0.90448 0.56096 0.14851 0.0
C789 C 0.88544 0.54798 0.13797 0.0
C790 C 0.93262 0.55198 0.14899 0.0
C791 C 0.94191 0.53036 0.13875 0.0
C792 C 0.92334 0.5192 0.12734 0.0
H793 H 0.08858 0.42025 0.13294 0.0
H794 H 0.03953 0.4375 0.13153 0.0
C795 C 0.89531 0.52794 0.12696 0.0
C796 C 0.96926 0.51625 0.14151 0.0
H797 H 0.03016 0.49614 0.123 0.0
C798 C 0.97335 0.50237 0.15618 0.0
C799 C 0.98991 0.51403 0.12938 0.0
C800 C 0.98694 0.52921 0.11358 0.0
C801 C -0.00251 0.486 0.15899 0.0
C802 C 0.01808 0.48374 0.14685 0.0
C803 C 0.01403 0.4976 0.13218 0.0
C804 C 0.04536 0.4696 0.14967 0.0
C805 C 0.00065 0.47097 0.17482 0.0
C806 C 0.06433 0.48148 0.16063 0.0
C807 C 0.09202 0.47184 0.16135 0.0
C808 C 0.10109 0.45006 0.15123 0.0
C809 C 0.08173 0.43676 0.14103 0.0
C810 C 0.05393 0.44672 0.14014 0.0
H811 H 0.98001 0.46844 0.18098 0.0
H812 H 0.01032 0.44982 0.17319 0.0
H813 H 0.01468 0.48353 0.18273 0.0
H814 H 0.05823 0.49942 0.16788 0.0
H815 H 0.10683 0.48247 0.16921 0.0
H816 H 0.10046 0.3232 0.33153 0.0
H817 H 0.12208 0.34042 0.30679 0.0
H818 H 0.04442 0.38243 0.29423 0.0
H819 H 0.02271 0.36549 0.31894 0.0
H820 H 0.06763 0.35234 0.26887 0.0
H821 H 0.14809 0.42118 0.29742 0.0
H822 H 0.14858 0.38514 0.30413 0.0
H823 H 0.1184 0.40691 0.3083 0.0
C824 C 0.08804 0.33635 0.32362 0.0
C825 C 0.05981 0.34299 0.32734 0.0
C826 C 0.10045 0.34618 0.30945 0.0
C827 C 0.085 0.36303 0.29873 0.0
C828 C 0.05678 0.36947 0.30231 0.0
H829 H 0.14589 0.46936 0.22185 0.0
H830 H 0.12602 0.44938 0.24629 0.0
C831 C 0.04434 0.35964 0.31645 0.0
C832 C 0.09804 0.37376 0.28369 0.0
H833 H 0.15106 0.41569 0.2693 0.0
C834 C 0.0859 0.36616 0.26896 0.0
C835 C 0.12168 0.39207 0.28381 0.0
C836 C 0.13486 0.40206 0.29925 0.0
C837 C 0.09681 0.37623 0.25437 0.0
C838 C 0.12079 0.39409 0.25448 0.0
C839 C 0.13284 0.4018 0.26921 0.0
C840 C 0.13308 0.40591 0.23949 0.0
C841 C 0.08211 0.36824 0.23899 0.0
C842 C 0.14396 0.38816 0.22752 0.0
C843 C 0.15548 0.39956 0.21348 0.0
C844 C 0.15655 0.42899 0.21114 0.0
C845 C 0.14582 0.44666 0.22324 0.0
C846 C 0.13429 0.43525 0.23725 0.0
H847 H 0.06035 0.36035 0.24118 0.0
H848 H 0.08098 0.38653 0.23069 0.0
H849 H 0.0942 0.3512 0.23301 0.0
H850 H 0.14383 0.36546 0.22911 0.0
H851 H 0.16393 0.38534 0.20455 0.0
H852 H 0.53133 0.1731 0.22828 0.0
H853 H 0.55167 0.15576 0.25334 0.0
H854 H 0.61145 0.10578 0.22667 0.0
H855 H 0.59145 0.12347 0.20157 0.0
H856 H 0.55417 0.10339 0.2649 0.0
H857 H 0.66339 0.1435 0.25802 0.0
H858 H 0.63489 0.15481 0.24519 0.0
H859 H 0.65252 0.12175 0.24157 0.0
C860 C 0.54886 0.15849 0.22775 0.0
C861 C 0.55982 0.14977 0.2129 0.0
C862 C 0.56054 0.14863 0.2421 0.0
C863 C 0.58344 0.12978 0.24197 0.0
C864 C 0.59435 0.12093 0.22715 0.0
H865 H 0.66805 0.02912 0.31436 0.0
H866 H 0.65004 0.05035 0.28964 0.0
C867 C 0.58283 0.131 0.21278 0.0
C868 C 0.59496 0.11849 0.25732 0.0
H869 H 0.6557 0.11021 0.27905 0.0
C870 C 0.57634 0.10512 0.26803 0.0
C871 C 0.6239 0.12071 0.26148 0.0
C872 C 0.64478 0.13622 0.25104 0.0
C873 C 0.58591 0.09348 0.28254 0.0
C874 C 0.61486 0.09533 0.28654 0.0
C875 C 0.63351 0.10875 0.27592 0.0
C876 C 0.6262 0.08303 0.3016 0.0
C877 C 0.56512 0.07871 0.29336 0.0
C878 C 0.61906 0.09457 0.31654 0.0
C879 C 0.62938 0.08251 0.3307 0.0
C880 C 0.64692 0.05854 0.33021 0.0
C881 C 0.65427 0.04728 0.31519 0.0
C882 C 0.64415 0.0595 0.30104 0.0
H883 H 0.54463 0.07469 0.28729 0.0
H884 H 0.57388 0.05829 0.29761 0.0
H885 H 0.56107 0.09208 0.30402 0.0
H886 H 0.60542 0.11289 0.31723 0.0
H887 H 0.62316 0.0916 0.34205 0.0
H888 H 0.86595 0.52361 0.21761 0.0
H889 H 0.88335 0.54597 0.24202 0.0
H890 H 0.84507 0.62461 0.22773 0.0
H891 H 0.82672 0.60218 0.20352 0.0
H892 H 0.91942 0.59116 0.24543 0.0
H893 H 0.81575 0.61479 0.27329 0.0
H894 H 0.81943 0.59104 0.25654 0.0
H895 H 0.81977 0.6286 0.2534 0.0
C896 C 0.86082 0.54554 0.21971 0.0
C897 C 0.8447 0.56097 0.20856 0.0
C898 C 0.87101 0.55837 0.23366 0.0
C899 C 0.86522 0.58688 0.23685 0.0
C900 C 0.84939 0.60245 0.22569 0.0
H901 H 0.95452 0.69037 0.30728 0.0
H902 H 0.93543 0.66997 0.28263 0.0
C903 C 0.83917 0.58964 0.21173 0.0
C904 C 0.8763 0.60034 0.25168 0.0
H905 H 0.85622 0.63404 0.28601 0.0
C906 C 0.9056 0.60053 0.2543 0.0
C907 C 0.85824 0.61227 0.26336 0.0
C908 C 0.82653 0.6115 0.26163 0.0
C909 C 0.91735 0.61251 0.26819 0.0
C910 C 0.89935 0.62509 0.27968 0.0
C911 C 0.87003 0.62466 0.27713 0.0
C912 C 0.91048 0.63807 0.29463 0.0
C913 C 0.94889 0.611 0.2706 0.0
C914 C 0.90225 0.62748 0.30962 0.0
C915 C 0.91306 0.63916 0.32374 0.0
C916 C 0.93231 0.66182 0.3232 0.0
C917 C 0.94013 0.67268 0.30815 0.0
C918 C 0.92925 0.66101 0.29403 0.0
H919 H 0.95873 0.59462 0.26289 0.0
H920 H 0.95843 0.63167 0.26744 0.0
H921 H 0.95415 0.60631 0.28329 0.0
H922 H 0.88778 0.60981 0.31039 0.0
H923 H 0.9068 0.62992 0.33504 0.0
H924 H 0.41908 0.78151 0.22734 0.0
H925 H 0.40413 0.80412 0.25214 0.0
H926 H 0.41825 0.88597 0.23107 0.0
H927 H 0.4339 0.86361 0.20625 0.0
H928 H 0.43503 0.84368 0.27192 0.0
H929 H 0.33538 0.88882 0.24778 0.0
H930 H 0.35429 0.86073 0.23785 0.0
H931 H 0.36675 0.89646 0.23646 0.0
C932 C 0.41938 0.80431 0.22793 0.0
C933 C 0.42771 0.82064 0.21463 0.0
C934 C 0.41062 0.81721 0.24215 0.0
C935 C 0.4097 0.84671 0.24339 0.0
C936 C 0.41829 0.86315 0.23027 0.0
H937 H 0.35815 0.9649 0.31683 0.0
H938 H 0.37357 0.94135 0.29244 0.0
C939 C 0.42721 0.85028 0.21606 0.0
C940 C 0.39999 0.86022 0.25846 0.0
H941 H 0.34798 0.90177 0.27417 0.0
C942 C 0.41595 0.85631 0.27245 0.0
C943 C 0.37512 0.8767 0.25911 0.0
C944 C 0.35669 0.88083 0.24455 0.0
C945 C 0.40805 0.86896 0.28701 0.0
C946 C 0.38308 0.88539 0.28769 0.0
C947 C 0.36708 0.88916 0.27368 0.0
C948 C 0.37352 0.89941 0.3027 0.0
C949 C 0.42701 0.86527 0.30138 0.0
C950 C 0.36789 0.88369 0.31661 0.0
C951 C 0.35937 0.89719 0.33073 0.0
C952 C 0.35603 0.92673 0.33121 0.0
C953 C 0.36102 0.94226 0.3171 0.0
C954 C 0.36964 0.92877 0.30304 0.0
H955 H 0.44872 0.85896 0.29785 0.0
H956 H 0.4283 0.88503 0.30849 0.0
H957 H 0.4183 0.8484 0.30917 0.0
H958 H 0.37006 0.86094 0.31656 0.0
H959 H 0.35586 0.88446 0.34129 0.0
H960 H 0.12954 0.59259 0.83528 0.0
H961 H 0.1127 0.61225 0.80992 0.0
H962 H 0.16326 0.55189 0.78406 0.0
H963 H 0.17983 0.53189 0.80941 0.0
H964 H 0.13981 0.63692 0.78517 0.0
H965 H 0.08722 0.53933 0.76376 0.0
H966 H 0.09986 0.54315 0.78401 0.0
H967 H 0.12401 0.53459 0.76812 0.0
C968 C 0.13723 0.58362 0.8242 0.0
C969 C 0.15594 0.56055 0.82439 0.0
C970 C 0.12749 0.59481 0.80969 0.0
C971 C 0.13624 0.58323 0.79503 0.0
C972 C 0.15552 0.56069 0.79518 0.0
H973 H 0.09625 0.62822 0.69565 0.0
H974 H 0.11867 0.6092 0.71989 0.0
C975 C 0.16508 0.54933 0.80969 0.0
C976 C 0.12529 0.59494 0.77964 0.0
H977 H 0.08977 0.57742 0.74537 0.0
C978 C 0.12884 0.62388 0.7765 0.0
C979 C 0.11092 0.57798 0.76827 0.0
C980 C 0.105 0.54711 0.77124 0.0
C981 C 0.11858 0.63624 0.76233 0.0
C982 C 0.10421 0.6193 0.75102 0.0
C983 C 0.10094 0.59033 0.75403 0.0
C984 C 0.09134 0.63148 0.73631 0.0
C985 C 0.12332 0.66734 0.75949 0.0
C986 C 0.06846 0.65017 0.7375 0.0
C987 C 0.05558 0.66094 0.72372 0.0
C988 C 0.06533 0.65332 0.70841 0.0
C989 C 0.08843 0.63475 0.70724 0.0
C990 C 0.10116 0.62375 0.72107 0.0
H991 H 0.14013 0.67596 0.76738 0.0
H992 H 0.12918 0.67139 0.74682 0.0
H993 H 0.10347 0.67896 0.76202 0.0
H994 H 0.06032 0.65617 0.74913 0.0
H995 H 0.03804 0.67538 0.72506 0.0
H996 H 0.40159 0.12719 0.84052 0.0
H997 H 0.38187 0.10882 0.81549 0.0
H998 H 0.44093 0.1594 0.7886 0.0
H999 H 0.46099 0.1774 0.81357 0.0
H1000 H 0.3563 0.13411 0.79054 0.0
H1001 H 0.45459 0.08312 0.76918 0.0
H1002 H 0.4509 0.09644 0.78929 0.0
H1003 H 0.45902 0.12009 0.77305 0.0
C1004 C 0.41029 0.13448 0.82928 0.0
C1005 C 0.43304 0.15359 0.82906 0.0
C1006 C 0.39906 0.12389 0.81497 0.0
C1007 C 0.41028 0.13222 0.80012 0.0
C1008 C 0.43245 0.15193 0.79987 0.0
H1009 H 0.36583 0.09748 0.70077 0.0
H1010 H 0.38381 0.11794 0.72574 0.0
C1011 C 0.44387 0.1623 0.81417 0.0
C1012 C 0.39857 0.12055 0.78492 0.0
H1013 H 0.41675 0.08597 0.75049 0.0
C1014 C 0.36952 0.12346 0.78184 0.0
C1015 C 0.41576 0.10653 0.77353 0.0
C1016 C 0.44673 0.10108 0.77648 0.0
C1017 C 0.35736 0.11318 0.76762 0.0
C1018 C 0.37463 0.09955 0.7562 0.0
C1019 C 0.40361 0.09662 0.75923 0.0
C1020 C 0.36292 0.08771 0.74112 0.0
C1021 C 0.32617 0.11728 0.76476 0.0
C1022 C 0.34532 0.06388 0.74149 0.0
C1023 C 0.33513 0.05209 0.72725 0.0
C1024 C 0.3422 0.06399 0.71234 0.0
C1025 C 0.35967 0.08804 0.71204 0.0
C1026 C 0.37009 0.09965 0.72629 0.0
H1027 H 0.31679 0.13263 0.77328 0.0
H1028 H 0.32229 0.12475 0.75235 0.0
H1029 H 0.31516 0.09675 0.76625 0.0
H1030 H 0.33976 0.05418 0.75281 0.0
H1031 H 0.32159 0.03371 0.72791 0.0
H1032 H 0.86512 0.46939 0.81781 0.0
H1033 H 0.88148 0.44746 0.79308 0.0
H1034 H 0.84189 0.36916 0.80686 0.0
H1035 H 0.82459 0.39122 0.83143 0.0
H1036 H 0.91667 0.40176 0.78931 0.0
H1037 H 0.81244 0.38058 0.76138 0.0
H1038 H 0.81665 0.40389 0.7783 0.0
H1039 H 0.81637 0.36627 0.78117 0.0
C1040 C 0.85944 0.44765 0.81552 0.0
C1041 C 0.8433 0.4322 0.82666 0.0
C1042 C 0.86903 0.43506 0.80139 0.0
C1043 C 0.86263 0.40676 0.79798 0.0
C1044 C 0.84669 0.39117 0.80907 0.0
H1045 H 0.94933 0.30269 0.72717 0.0
H1046 H 0.93067 0.32337 0.7518 0.0
C1047 C 0.83706 0.40376 0.82323 0.0
C1048 C 0.87336 0.3935 0.78302 0.0
H1049 H 0.85252 0.36105 0.74842 0.0
C1050 C 0.90264 0.39287 0.78037 0.0
C1051 C 0.85504 0.3822 0.77125 0.0
C1052 C 0.82336 0.38344 0.77304 0.0
C1053 C 0.91411 0.38105 0.76637 0.0
C1054 C 0.89583 0.36909 0.7548 0.0
C1055 C 0.86653 0.36998 0.75736 0.0
C1056 C 0.90672 0.35605 0.73982 0.0
C1057 C 0.94567 0.38201 0.76397 0.0
C1058 C 0.89891 0.36701 0.72483 0.0
C1059 C 0.90953 0.35519 0.71071 0.0
C1060 C 0.92815 0.33202 0.71124 0.0
C1061 C 0.93551 0.32081 0.72629 0.0
C1062 C 0.92484 0.33262 0.7404 0.0
H1063 H 0.95584 0.39807 0.77177 0.0
H1064 H 0.95481 0.36112 0.76701 0.0
H1065 H 0.951 0.38682 0.75131 0.0
H1066 H 0.88491 0.38505 0.72408 0.0
H1067 H 0.90358 0.36465 0.69941 0.0
H1068 H 0.59191 0.86797 0.84206 0.0
H1069 H 0.61179 0.88716 0.81727 0.0
H1070 H 0.55259 0.83787 0.78974 0.0
H1071 H 0.53243 0.81894 0.81445 0.0
H1072 H 0.63717 0.86215 0.7919 0.0
H1073 H 0.53943 0.91546 0.77145 0.0
H1074 H 0.54321 0.9014 0.79141 0.0
H1075 H 0.53455 0.87842 0.77497 0.0
C1076 C 0.58322 0.86112 0.83072 0.0
C1077 C 0.56041 0.84208 0.83025 0.0
C1078 C 0.59454 0.87219 0.81655 0.0
C1079 C 0.58333 0.86445 0.80161 0.0
C1080 C 0.56107 0.84485 0.8011 0.0
H1081 H 0.62505 0.90234 0.70256 0.0
H1082 H 0.60749 0.8817 0.72754 0.0
C1083 C 0.5496 0.83397 0.81526 0.0
C1084 C 0.59509 0.87663 0.78658 0.0
H1085 H 0.57704 0.91282 0.75263 0.0
C1086 C 0.62404 0.87337 0.78337 0.0
C1087 C 0.578 0.89138 0.77543 0.0
C1088 C 0.54714 0.89715 0.77853 0.0
C1089 C 0.6362 0.88394 0.76922 0.0
C1090 C 0.61901 0.89829 0.75802 0.0
C1091 C 0.59013 0.90164 0.76121 0.0
C1092 C 0.63061 0.9102 0.74294 0.0
C1093 C 0.66725 0.87927 0.76618 0.0
C1094 C 0.64935 0.93316 0.7433 0.0
C1095 C 0.65937 0.94505 0.72904 0.0
C1096 C 0.65094 0.93414 0.71412 0.0
C1097 C 0.63231 0.91099 0.71382 0.0
C1098 C 0.62211 0.89927 0.72809 0.0
H1099 H 0.67633 0.86315 0.77437 0.0
H1100 H 0.67085 0.87249 0.75363 0.0
H1101 H 0.67878 0.8994 0.76806 0.0
H1102 H 0.65593 0.94214 0.75463 0.0
H1103 H 0.6738 0.96274 0.72968 0.0
H1104 H 0.16876 0.2373 0.35835 0.0
H1105 H 0.20014 0.19609 0.35613 0.0
H1106 H 0.13797 0.14479 0.38021 0.0
H1107 H 0.10669 0.18538 0.38228 0.0
H1108 H 0.22321 0.16234 0.37956 0.0
H1109 H 0.15379 0.09883 0.34041 0.0
H1110 H 0.14825 0.13608 0.3437 0.0
H1111 H 0.13549 0.11056 0.35797 0.0
C1112 C 0.16186 0.21715 0.36309 0.0
C1113 C 0.13512 0.21436 0.37022 0.0
C1114 C 0.17971 0.1937 0.3618 0.0
C1115 C 0.17103 0.16728 0.36765 0.0
C1116 C 0.14469 0.16475 0.37515 0.0
H1117 H 0.26358 0.02218 0.39926 0.0
H1118 H 0.23962 0.06761 0.39624 0.0
C1119 C 0.12685 0.18798 0.37633 0.0
C1120 C 0.18955 0.14225 0.36648 0.0
H1121 H 0.1892 0.07317 0.35509 0.0
C1122 C 0.21603 0.14293 0.374 0.0
C1123 C 0.18033 0.11714 0.35897 0.0
C1124 C 0.15304 0.11567 0.34966 0.0
C1125 C 0.23296 0.11867 0.37491 0.0
C1126 C 0.22272 0.09299 0.36847 0.0
C1127 C 0.19686 0.09274 0.36026 0.0
C1128 C 0.23806 0.06595 0.37033 0.0
C1129 C 0.26159 0.12083 0.38275 0.0
C1130 C 0.24424 0.04947 0.35684 0.0
C1131 C 0.2573 0.02326 0.35856 0.0
C1132 C 0.26457 0.01309 0.37382 0.0
C1133 C 0.25839 0.02958 0.38734 0.0
C1134 C 0.24498 0.05567 0.38562 0.0
H1135 H 0.26995 0.14273 0.38214 0.0
H1136 H 0.25967 0.11505 0.39558 0.0
H1137 H 0.27707 0.1064 0.37705 0.0
H1138 H 0.23892 0.05691 0.34494 0.0
H1139 H 0.26195 0.01111 0.34791 0.0
H1140 H 0.97481 0.26618 0.37268 0.0
H1141 H 0.9287 0.2442 0.36931 0.0
H1142 H 0.94385 0.19192 0.41072 0.0
H1143 H 0.99053 0.21363 0.4141 0.0
H1144 H 0.92111 0.16254 0.38517 0.0
H1145 H 0.85959 0.25987 0.3969 0.0
H1146 H 0.88534 0.26412 0.38133 0.0
H1147 H 0.89673 0.25695 0.40147 0.0
C1148 C 0.96841 0.25003 0.38111 0.0
C1149 C 0.98624 0.24181 0.39376 0.0
C1150 C 0.94194 0.23761 0.3792 0.0
C1151 C 0.93262 0.21695 0.38998 0.0
C1152 C 0.95062 0.20806 0.40237 0.0
H1153 H 0.76218 0.15377 0.40047 0.0
H1154 H 0.80669 0.17941 0.40318 0.0
C1155 C 0.97726 0.22041 0.40426 0.0
C1156 C 0.9042 0.2044 0.38808 0.0
H1157 H 0.83414 0.22098 0.38589 0.0
C1158 C 0.90206 0.17526 0.3854 0.0
C1159 C 0.8794 0.22104 0.38861 0.0
C1160 C 0.88027 0.25218 0.39239 0.0
C1161 C 0.87578 0.16236 0.38288 0.0
C1162 C 0.85109 0.17921 0.3827 0.0
C1163 C 0.85317 0.20824 0.38575 0.0
C1164 C 0.82281 0.16676 0.38005 0.0
C1165 C 0.87465 0.13074 0.38073 0.0
C1166 C 0.81662 0.1523 0.36582 0.0
C1167 C 0.79116 0.13768 0.36421 0.0
C1168 C 0.77138 0.13753 0.37676 0.0
C1169 C 0.77684 0.15371 0.39052 0.0
C1170 C 0.80236 0.1682 0.39215 0.0
H1171 H 0.89414 0.12033 0.38521 0.0
H1172 H 0.8562 0.12156 0.38708 0.0
H1173 H 0.87255 0.12579 0.36781 0.0
H1174 H 0.83187 0.15158 0.35617 0.0
H1175 H 0.78734 0.1257 0.35338 0.0
H1176 H 0.85828 0.77658 0.41789 0.0
H1177 H 0.83235 0.82124 0.41832 0.0
H1178 H 0.83228 0.82308 0.36671 0.0
H1179 H 0.8587 0.77861 0.36617 0.0
H1180 H 0.85264 0.87335 0.38187 0.0
H1181 H 0.74926 0.83845 0.40635 0.0
H1182 H 0.7796 0.82697 0.41752 0.0
H1183 H 0.77423 0.81423 0.3975 0.0
C1184 C 0.85249 0.78637 0.40663 0.0
C1185 C 0.86054 0.77416 0.39199 0.0
C1186 C 0.83753 0.81175 0.4069 0.0
C1187 C 0.83031 0.8253 0.39255 0.0
C1188 C 0.83761 0.81282 0.37791 0.0
H1189 H 0.72148 0.96923 0.37981 0.0
H1190 H 0.74575 0.924 0.37828 0.0
C1191 C 0.85248 0.78735 0.37762 0.0
C1192 C 0.81668 0.85335 0.39286 0.0
H1193 H 0.75706 0.88787 0.40471 0.0
C1194 C 0.8317 0.87657 0.3868 0.0
C1195 C 0.78936 0.85734 0.39925 0.0
C1196 C 0.772 0.83293 0.40542 0.0
C1197 C 0.82018 0.90385 0.38713 0.0
C1198 C 0.7931 0.90791 0.39382 0.0
C1199 C 0.77796 0.88464 0.39971 0.0
C1200 C 0.77955 0.936 0.3943 0.0
C1201 C 0.83683 0.92803 0.38011 0.0
C1202 C 0.79067 0.95779 0.40378 0.0
C1203 C 0.77681 0.98384 0.40471 0.0
C1204 C 0.75159 0.98837 0.39619 0.0
C1205 C 0.74084 0.96653 0.38654 0.0
C1206 C 0.75464 0.9406 0.38565 0.0
H1207 H 0.85458 0.92053 0.37253 0.0
H1208 H 0.82299 0.94189 0.37279 0.0
H1209 H 0.84577 0.94094 0.38997 0.0
H1210 H 0.80971 0.95446 0.41072 0.0
H1211 H 0.78556 0.00017 0.4123 0.0
H1212 H 0.99685 0.78534 0.37774 0.0
H1213 H 0.04439 0.80574 0.37749 0.0
H1214 H 0.07902 0.72592 0.39285 0.0
H1215 H 0.03172 0.70589 0.39386 0.0
H1216 H 0.10378 0.76604 0.40811 0.0
H1217 H 0.10316 0.79463 0.34395 0.0
H1218 H 0.07471 0.81134 0.35442 0.0
H1219 H 0.07575 0.7734 0.35288 0.0
C1220 C 0.01461 0.77225 0.38117 0.0
C1221 C 0.01054 0.74402 0.38577 0.0
C1222 C 0.0418 0.78381 0.38084 0.0
C1223 C 0.06539 0.76712 0.3847 0.0
C1224 C 0.06121 0.73915 0.38969 0.0
H1225 H 0.23466 0.83409 0.36324 0.0
H1226 H 0.19387 0.80191 0.36357 0.0
C1227 C 0.03408 0.72777 0.39031 0.0
C1228 C 0.09441 0.77884 0.38391 0.0
H1229 H 0.13976 0.8156 0.35994 0.0
C1230 C 0.11173 0.77658 0.3975 0.0
C1231 C 0.10522 0.79185 0.36992 0.0
C1232 C 0.08884 0.79266 0.35442 0.0
C1233 C 0.13899 0.78811 0.39774 0.0
C1234 C 0.14882 0.80323 0.38423 0.0
C1235 C 0.1321 0.80431 0.37037 0.0
C1236 C 0.17503 0.82031 0.38476 0.0
C1237 C 0.15689 0.78397 0.41251 0.0
C1238 C 0.17804 0.84106 0.39658 0.0
C1239 C 0.20127 0.85902 0.39652 0.0
C1240 C 0.22177 0.85717 0.38439 0.0
C1241 C 0.21922 0.83593 0.37274 0.0
C1242 C 0.19591 0.81769 0.37288 0.0
H1243 H 0.1515 0.76385 0.41864 0.0
H1244 H 0.17976 0.78382 0.4096 0.0
H1245 H 0.1527 0.80139 0.42106 0.0
H1246 H 0.16194 0.844 0.40563 0.0
H1247 H 0.20287 0.87483 0.40584 0.0
H1248 H 0.27787 0.97321 0.66031 0.0
H1249 H 0.25647 0.92669 0.66216 0.0
H1250 H 0.19624 0.94948 0.62564 0.0
H1251 H 0.21743 0.9967 0.62383 0.0
H1252 H 0.17199 0.92299 0.65186 0.0
H1253 H 0.26429 0.86211 0.63032 0.0
H1254 H 0.2728 0.88525 0.64662 0.0
H1255 H 0.26138 0.89986 0.62781 0.0
C1256 C 0.26013 0.96845 0.6526 0.0
C1257 C 0.24944 0.9887 0.64185 0.0
C1258 C 0.24805 0.9417 0.65361 0.0
C1259 C 0.22521 0.93444 0.64379 0.0
C1260 C 0.21409 0.95464 0.63321 0.0
H1261 H 0.1554 0.76618 0.63252 0.0
H1262 H 0.18127 0.81037 0.62893 0.0
C1263 C 0.22616 0.98159 0.63221 0.0
C1264 C 0.21243 0.90602 0.64512 0.0
H1265 H 0.22796 0.83567 0.64344 0.0
C1266 C 0.18413 0.90388 0.6499 0.0
C1267 C 0.22827 0.88115 0.64238 0.0
C1268 C 0.25828 0.88213 0.63634 0.0
C1269 C 0.17144 0.87751 0.65246 0.0
C1270 C 0.1877 0.85268 0.6505 0.0
C1271 C 0.21574 0.85477 0.64524 0.0
C1272 C 0.17554 0.82435 0.65336 0.0
C1273 C 0.14064 0.87646 0.65708 0.0
C1274 C 0.16503 0.81698 0.6685 0.0
C1275 C 0.15034 0.79167 0.67062 0.0
C1276 C 0.14615 0.77324 0.65765 0.0
C1277 C 0.15852 0.77977 0.6428 0.0
C1278 C 0.17312 0.80512 0.64068 0.0
H1279 H 0.12959 0.89649 0.65412 0.0
H1280 H 0.12966 0.85881 0.65094 0.0
H1281 H 0.1389 0.87305 0.67018 0.0
H1282 H 0.16733 0.83126 0.67853 0.0
H1283 H 0.14135 0.78702 0.68224 0.0
H1284 H 0.22107 0.15624 0.64186 0.0
H1285 H 0.17584 0.18086 0.64038 0.0
H1286 H 0.14839 0.13902 0.6835 0.0
H1287 H 0.19384 0.11465 0.6853 0.0
H1288 H 0.11129 0.1337 0.65611 0.0
H1289 H 0.14187 0.24493 0.66834 0.0
H1290 H 0.16293 0.22697 0.65364 0.0
H1291 H 0.16366 0.21531 0.67409 0.0
C1292 C 0.20577 0.15286 0.6513 0.0
C1293 C 0.21107 0.13342 0.66368 0.0
C1294 C 0.17988 0.16687 0.65039 0.0
C1295 C 0.15889 0.16178 0.66185 0.0
C1296 C 0.16438 0.14315 0.67453 0.0
H1297 H 0.98353 0.21106 0.67153 0.0
H1298 H 0.02884 0.18661 0.67308 0.0
C1299 C 0.19031 0.1292 0.67549 0.0
C1300 C 0.13053 0.17433 0.65996 0.0
H1301 H 0.09527 0.23704 0.65905 0.0
C1302 C 0.10768 0.15628 0.65683 0.0
C1303 C 0.12609 0.20376 0.66079 0.0
C1304 C 0.14985 0.22394 0.66452 0.0
C1305 C 0.08043 0.16697 0.65424 0.0
C1306 C 0.07592 0.19643 0.65515 0.0
C1307 C 0.09882 0.21446 0.6583 0.0
C1308 C 0.04758 0.20912 0.65318 0.0
C1309 C 0.05691 0.14669 0.65019 0.0
C1310 C 0.04306 0.22986 0.64146 0.0
C1311 C 0.01727 0.24405 0.64062 0.0
C1312 C 0.99555 0.2378 0.65154 0.0
C1313 C -0.00026 0.21623 0.66286 0.0
C1314 C 0.02562 0.20216 0.66374 0.0
H1315 H 0.06521 0.12643 0.64543 0.0
H1316 H 0.04469 0.14192 0.6612 0.0
H1317 H 0.04226 0.15595 0.64122 0.0
H1318 H 0.05975 0.23554 0.6332 0.0
H1319 H 0.01468 0.26052 0.63173 0.0
H1320 H 0.77407 -0.00207 0.62653 0.0
H1321 H 0.79596 0.04489 0.62732 0.0
H1322 H 0.728 0.07514 0.65704 0.0
H1323 H 0.7059 0.0288 0.65619 0.0
H1324 H 0.74092 0.11104 0.63144 0.0
H1325 H 0.83645 0.08067 0.66612 0.0
H1326 H 0.83013 0.06021 0.64836 0.0
H1327 H 0.80566 0.0583 0.66475 0.0
C1328 C 0.76386 0.01457 0.63326 0.0
C1329 C 0.73833 0.00953 0.64137 0.0
C1330 C 0.77643 0.04132 0.63376 0.0
C1331 C 0.76371 0.06333 0.6424 0.0
C1332 C 0.73817 0.0584 0.65035 0.0
H1333 H 0.84368 0.2208 0.67069 0.0
H1334 H 0.81523 0.17751 0.67055 0.0
C1335 C 0.72564 0.0318 0.64988 0.0
C1336 C 0.77664 0.09174 0.64309 0.0
H1337 H 0.83464 0.12755 0.6563 0.0
C1338 C 0.7614 0.11471 0.63689 0.0
C1339 C 0.80311 0.09642 0.65044 0.0
C1340 C 0.81976 0.07268 0.65793 0.0
C1341 C 0.77219 0.14227 0.63761 0.0
C1342 C 0.79902 0.14684 0.64456 0.0
C1343 C 0.81405 0.12393 0.65098 0.0
C1344 C 0.81254 0.17499 0.64473 0.0
C1345 C 0.75469 0.16628 0.63109 0.0
C1346 C 0.8198 0.18817 0.63028 0.0
C1347 C 0.83587 0.21286 0.63033 0.0
C1348 C 0.8451 0.22471 0.64485 0.0
C1349 C 0.83659 0.21229 0.65934 0.0
C1350 C 0.82056 0.18749 0.65927 0.0
H1351 H 0.73197 0.16055 0.63032 0.0
H1352 H 0.75687 0.18542 0.63866 0.0
H1353 H 0.7621 0.17157 0.61885 0.0
H1354 H 0.81417 0.17867 0.61892 0.0
H1355 H 0.84204 0.2221 0.61899 0.0
H1356 H -0.00207 0.79163 0.62774 0.0
H1357 H 0.95302 0.81572 0.63267 0.0
H1358 H 0.93807 0.7621 0.67356 0.0
H1359 H 0.98252 0.73768 0.66858 0.0
H1360 H 0.89325 0.76349 0.65328 0.0
H1361 H 0.92952 0.87228 0.66675 0.0
H1362 H 0.94274 0.85872 0.64814 0.0
H1363 H 0.95316 0.84238 0.66667 0.0
C1364 C 0.98528 0.7853 0.63793 0.0
C1365 C 0.99369 0.76267 0.64772 0.0
C1366 C 0.95969 0.79914 0.64076 0.0
C1367 C 0.94234 0.79083 0.65356 0.0
C1368 C 0.95114 0.76882 0.66362 0.0
H1369 H 0.79235 0.88125 0.68507 0.0
H1370 H 0.83791 0.85688 0.68404 0.0
C1371 C 0.97655 0.75488 0.66074 0.0
C1372 C 0.91415 0.80365 0.65588 0.0
H1373 H 0.88021 0.86619 0.66212 0.0
C1374 C 0.89039 0.78592 0.65532 0.0
C1375 C 0.91054 0.83284 0.65872 0.0
C1376 C 0.93535 0.85265 0.66027 0.0
C1377 C 0.86303 0.79668 0.65723 0.0
C1378 C 0.85934 0.82603 0.65944 0.0
C1379 C 0.88312 0.84369 0.66032 0.0
C1380 C 0.83099 0.83899 0.66053 0.0
C1381 C 0.83838 0.77648 0.65702 0.0
C1382 C 0.81197 0.8368 0.64771 0.0
C1383 C 0.78595 0.85059 0.64829 0.0
C1384 C 0.77863 0.86711 0.66163 0.0
C1385 C 0.79751 0.86884 0.67459 0.0
C1386 C 0.82349 0.85493 0.67403 0.0
H1387 H 0.84508 0.7546 0.65995 0.0
H1388 H 0.82181 0.78303 0.66566 0.0
H1389 H 0.82895 0.77624 0.64486 0.0
H1390 H 0.8176 0.82513 0.63704 0.0
H1391 H 0.77208 0.8493 0.638 0.0
H1392 H 0.63023 0.70289 0.85673 0.0
H1393 H 0.65674 0.65886 0.86 0.0
H1394 H 0.68269 0.68521 0.9072 0.0
H1395 H 0.65667 0.72941 0.90387 0.0
H1396 H 0.72495 0.65867 0.89149 0.0
H1397 H 0.62659 0.5955 0.88778 0.0
H1398 H 0.63253 0.61688 0.87036 0.0
H1399 H 0.62639 0.63347 0.88942 0.0
C1400 C 0.64194 0.69942 0.8677 0.0
C1401 C 0.64126 0.71946 0.88009 0.0
C1402 C 0.65688 0.67421 0.86961 0.0
C1403 C 0.67098 0.66844 0.88403 0.0
C1404 C 0.67174 0.68915 0.89602 0.0
H1405 H 0.71929 0.4986 0.91481 0.0
H1406 H 0.69688 0.54517 0.91262 0.0
C1407 C 0.65704 0.71448 0.89406 0.0
C1408 C 0.68407 0.64048 0.88687 0.0
H1409 H 0.66976 0.56983 0.88777 0.0
C1410 C 0.71288 0.63924 0.89073 0.0
C1411 C 0.66811 0.6152 0.88629 0.0
C1412 C 0.63664 0.61526 0.88341 0.0
C1413 C 0.72636 0.61334 0.89358 0.0
C1414 C 0.71073 0.58798 0.89212 0.0
C1415 C 0.68176 0.58927 0.8887 0.0
C1416 C 0.72423 0.55988 0.89359 0.0
C1417 C 0.75712 0.61347 0.89832 0.0
C1418 C 0.74657 0.55256 0.88342 0.0
C1419 C 0.75945 0.52621 0.88472 0.0
C1420 C 0.74997 0.5064 0.89606 0.0
C1421 C 0.72708 0.51343 0.90598 0.0
C1422 C 0.71432 0.54001 0.90475 0.0
H1423 H 0.76327 0.6339 0.90386 0.0
H1424 H 0.76193 0.5962 0.90689 0.0
H1425 H 0.77031 0.61048 0.88748 0.0
H1426 H 0.75399 0.56719 0.87438 0.0
H1427 H 0.77675 0.52134 0.87672 0.0
H1428 H 0.47989 0.76132 0.87721 0.0
H1429 H 0.43673 0.7338 0.87415 0.0
H1430 H 0.45833 0.68482 0.91592 0.0
H1431 H 0.50188 0.71244 0.91915 0.0
H1432 H 0.4314 0.67213 0.87125 0.0
H1433 H 0.37677 0.71837 0.92413 0.0
H1434 H 0.4067 0.73525 0.91473 0.0
H1435 H 0.41189 0.70482 0.92718 0.0
C1436 C 0.47556 0.74472 0.88578 0.0
C1437 C 0.49423 0.73919 0.89851 0.0
C1438 C 0.45092 0.72896 0.88396 0.0
C1439 C 0.44431 0.70754 0.89489 0.0
C1440 C 0.46304 0.70152 0.90746 0.0
H1441 H 0.31005 0.58386 0.88696 0.0
H1442 H 0.35538 0.60783 0.88983 0.0
C1443 C 0.48791 0.7172 0.90924 0.0
C1444 C 0.41754 0.69187 0.89307 0.0
H1445 H 0.35195 0.68392 0.90938 0.0
C1446 C 0.41406 0.67452 0.87961 0.0
C1447 C 0.39494 0.69547 0.90392 0.0
C1448 C 0.39749 0.71461 0.91827 0.0
C1449 C 0.38845 0.66051 0.87674 0.0
C1450 C 0.36592 0.66396 0.88764 0.0
C1451 C 0.36937 0.68136 0.90108 0.0
C1452 C 0.33859 0.64951 0.88533 0.0
C1453 C 0.38544 0.64255 0.86193 0.0
C1454 C 0.31416 0.66513 0.88191 0.0
C1455 C 0.28817 0.65148 0.88006 0.0
C1456 C 0.2862 0.62198 0.88175 0.0
C1457 C 0.31085 0.6065 0.88519 0.0
C1458 C 0.33678 0.62014 0.88694 0.0
H1459 H 0.40274 0.64642 0.85322 0.0
H1460 H 0.38595 0.61993 0.86539 0.0
H1461 H 0.3649 0.64668 0.85595 0.0
H1462 H 0.31523 0.68787 0.88064 0.0
H1463 H 0.26969 0.66401 0.87728 0.0
H1464 H 0.36967 0.29663 0.85775 0.0
H1465 H 0.34341 0.34045 0.86141 0.0
H1466 H 0.30344 0.30576 0.90343 0.0
H1467 H 0.33097 0.26255 0.9005 0.0
H1468 H 0.28935 0.35487 0.86246 0.0
H1469 H 0.33828 0.3763 0.92151 0.0
H1470 H 0.35036 0.34839 0.90855 0.0
H1471 H 0.31968 0.34332 0.92095 0.0
C1472 C 0.35537 0.2983 0.86782 0.0
C1473 C 0.35293 0.27621 0.87902 0.0
C1474 C 0.34022 0.32333 0.86983 0.0
C1475 C 0.32213 0.3267 0.88298 0.0
C1476 C 0.31797 0.30394 0.89348 0.0
H1477 H 0.2019 0.4636 0.89198 0.0
H1478 H 0.22541 0.41818 0.88872 0.0
C1479 C 0.33338 0.27901 0.8916 0.0
C1480 C 0.30831 0.35432 0.88589 0.0
H1481 H 0.30089 0.40674 0.91363 0.0
C1482 C 0.29191 0.36623 0.87364 0.0
C1483 C 0.31222 0.36945 0.90035 0.0
C1484 C 0.33133 0.35888 0.91352 0.0
C1485 C 0.27895 0.39265 0.87551 0.0
C1486 C 0.28173 0.40713 0.89026 0.0
C1487 C 0.29849 0.39544 0.90242 0.0
C1488 C 0.26738 0.43442 0.89328 0.0
C1489 C 0.26299 0.40502 0.86152 0.0
C1490 C 0.28297 0.45839 0.89779 0.0
C1491 C 0.26946 0.48437 0.90002 0.0
C1492 C 0.2402 0.48675 0.89764 0.0
C1493 C 0.22456 0.46251 0.89366 0.0
C1494 C 0.23799 0.43656 0.89167 0.0
H1495 H 0.27025 0.39593 0.84997 0.0
H1496 H 0.2402 0.40005 0.86281 0.0
H1497 H 0.26546 0.42831 0.86098 0.0
H1498 H 0.30567 0.45713 0.89925 0.0
H1499 H 0.28202 0.50271 0.90308 0.0
H1500 H 0.6838 0.40887 0.88489 0.0
H1501 H 0.63854 0.38504 0.88822 0.0
H1502 H 0.67835 0.30477 0.87928 0.0
H1503 H 0.72386 0.3285 0.87547 0.0
H1504 H 0.60931 0.34756 0.86595 0.0
H1505 H 0.63781 0.29709 0.92391 0.0
H1506 H 0.65706 0.32675 0.91577 0.0
H1507 H 0.66234 0.29203 0.90773 0.0
C1508 C 0.68295 0.3862 0.88329 0.0
C1509 C 0.70754 0.37061 0.87986 0.0
C1510 C 0.65707 0.37262 0.88534 0.0
C1511 C 0.65527 0.3432 0.88418 0.0
C1512 C 0.67951 0.32752 0.88046 0.0
H1513 H 0.51329 0.23235 0.87632 0.0
H1514 H 0.55614 0.26017 0.87285 0.0
C1515 C 0.70546 0.3411 0.87831 0.0
C1516 C 0.62794 0.32902 0.88698 0.0
H1517 H 0.59367 0.28451 0.9126 0.0
C1518 C 0.60582 0.33382 0.87615 0.0
C1519 C 0.62346 0.31151 0.90045 0.0
C1520 C 0.6463 0.30661 0.91274 0.0
C1521 C 0.57942 0.32089 0.87822 0.0
C1522 C 0.57521 0.30273 0.89143 0.0
C1523 C 0.59709 0.29847 0.90248 0.0
C1524 C 0.54872 0.28672 0.89346 0.0
C1525 C 0.55621 0.32667 0.86629 0.0
C1526 C 0.5305 0.29238 0.90631 0.0
C1527 C 0.50581 0.27651 0.90833 0.0
C1528 C 0.49931 0.25452 0.89765 0.0
C1529 C 0.51771 0.24903 0.88481 0.0
C1530 C 0.54215 0.265 0.88274 0.0
H1531 H 0.56073 0.34567 0.85891 0.0
H1532 H 0.5541 0.3083 0.85814 0.0
H1533 H 0.53567 0.32965 0.87248 0.0
H1534 H 0.53541 0.30903 0.91474 0.0
H1535 H 0.49211 0.28113 0.91837 0.0
H1536 H 0.62306 0.29093 0.18366 0.0
H1537 H 0.64871 0.3354 0.18006 0.0
H1538 H 0.67764 0.30725 0.1338 0.0
H1539 H 0.65232 0.26271 0.13738 0.0
H1540 H 0.71886 0.33494 0.1505 0.0
H1541 H 0.61946 0.39689 0.15026 0.0
H1542 H 0.6243 0.37624 0.16808 0.0
H1543 H 0.61991 0.35886 0.1491 0.0
C1544 C 0.63514 0.29414 0.1728 0.0
C1545 C 0.63554 0.27346 0.16075 0.0
C1546 C 0.64963 0.31958 0.17072 0.0
C1547 C 0.66443 0.32487 0.15648 0.0
C1548 C 0.66616 0.30364 0.14483 0.0
H1549 H 0.71469 0.49158 0.122 0.0
H1550 H 0.69202 0.44535 0.12532 0.0
C1551 C 0.65184 0.27814 0.14694 0.0
C1552 C 0.6774 0.35281 0.15348 0.0
H1553 H 0.66227 0.42311 0.15057 0.0
C1554 C 0.7065 0.35422 0.15047 0.0
C1555 C 0.66108 0.37785 0.15308 0.0
C1556 C 0.62942 0.37746 0.15514 0.0
C1557 C 0.71989 0.38011 0.14747 0.0
C1558 C 0.70379 0.40528 0.14786 0.0
C1559 C 0.67458 0.4038 0.15046 0.0
C1560 C 0.71702 0.43339 0.14594 0.0
C1561 C 0.75106 0.38019 0.14372 0.0
C1562 C 0.73802 0.44218 0.15667 0.0
C1563 C 0.75101 0.46836 0.15477 0.0
C1564 C 0.74301 0.48649 0.14221 0.0
C1565 C 0.72131 0.47807 0.13177 0.0
C1566 C 0.70841 0.45168 0.13363 0.0
H1567 H 0.7582 0.35935 0.13916 0.0
H1568 H 0.75632 0.39659 0.13469 0.0
H1569 H 0.7631 0.3848 0.15481 0.0
H1570 H 0.7444 0.42874 0.16652 0.0
H1571 H 0.76737 0.47436 0.16317 0.0
H1572 H 0.50061 0.7469 0.16616 0.0
H1573 H 0.54503 0.7229 0.17172 0.0
H1574 H 0.55105 0.69779 0.12226 0.0
H1575 H 0.50633 0.72173 0.11648 0.0
H1576 H 0.56544 0.65455 0.14697 0.0
H1577 H 0.62113 0.75726 0.15408 0.0
H1578 H 0.58913 0.75302 0.16543 0.0
H1579 H 0.58754 0.75412 0.14397 0.0
C1580 C 0.51101 0.73591 0.15646 0.0
C1581 C 0.49992 0.73642 0.14082 0.0
C1582 C 0.53651 0.72235 0.15968 0.0
C1583 C 0.55142 0.70906 0.14734 0.0
C1584 C 0.53982 0.70815 0.1319 0.0
H1585 H 0.7243 0.65491 0.14027 0.0
H1586 H 0.67912 0.67937 0.13779 0.0
C1587 C 0.51427 0.7218 0.12864 0.0
C1588 C 0.57971 0.69722 0.15047 0.0
H1589 H 0.64736 0.71599 0.15982 0.0
C1590 C 0.58338 0.6679 0.1498 0.0
C1591 C 0.603 0.71487 0.154 0.0
C1592 C 0.60023 0.7466 0.15431 0.0
C1593 C 0.60984 0.65566 0.15277 0.0
C1594 C 0.63301 0.67327 0.1566 0.0
C1595 C 0.62941 0.70261 0.15707 0.0
C1596 C 0.66145 0.66151 0.1594 0.0
C1597 C 0.61298 0.62403 0.15152 0.0
C1598 C 0.66678 0.64443 0.17278 0.0
C1599 C 0.69272 0.63067 0.17435 0.0
C1600 C 0.71367 0.63372 0.16254 0.0
C1601 C 0.70879 0.65231 0.14968 0.0
C1602 C 0.6829 0.66614 0.14816 0.0
H1603 H 0.59447 0.61405 0.14562 0.0
H1604 H 0.63231 0.61851 0.14468 0.0
H1605 H 0.61508 0.61493 0.16371 0.0
H1606 H 0.65057 0.64106 0.18172 0.0
H1607 H 0.696 0.6169 0.18454 0.0
H1608 H 0.22734 0.51559 0.12988 0.0
H1609 H 0.24734 0.56315 0.13092 0.0
H1610 H 0.28838 0.5429 0.1756 0.0
H1611 H 0.2692 0.49511 0.1744 0.0
H1612 H 0.23732 0.60275 0.15336 0.0
H1613 H 0.35198 0.57924 0.15138 0.0
H1614 H 0.32553 0.55312 0.14668 0.0
H1615 H 0.33407 0.56093 0.1672 0.0
C1616 C 0.2411 0.52111 0.13976 0.0
C1617 C 0.24682 0.50159 0.15202 0.0
C1618 C 0.25239 0.54831 0.14038 0.0
C1619 C 0.26952 0.5565 0.15327 0.0
C1620 C 0.27574 0.53686 0.16536 0.0
H1621 H 0.34751 0.71572 0.17982 0.0
H1622 H 0.32103 0.67127 0.18161 0.0
C1623 C 0.26472 0.50954 0.16466 0.0
C1624 C 0.27963 0.586 0.15449 0.0
H1625 H 0.33905 0.62624 0.15811 0.0
C1626 C 0.25958 0.60789 0.15435 0.0
C1627 C 0.30866 0.59265 0.1558 0.0
C1628 C 0.33132 0.57027 0.15512 0.0
C1629 C 0.26783 0.63627 0.15553 0.0
C1630 C 0.29678 0.64278 0.15695 0.0
C1631 C 0.3168 0.62099 0.15724 0.0
C1632 C 0.30719 0.67212 0.15694 0.0
C1633 C 0.24571 0.65914 0.15527 0.0
C1634 C 0.30728 0.68754 0.14262 0.0
C1635 C 0.32245 0.71272 0.14155 0.0
C1636 C 0.33759 0.72284 0.15483 0.0
C1637 C 0.33567 0.7085 0.1695 0.0
C1638 C 0.32075 0.6831 0.17051 0.0
H1639 H 0.22409 0.65053 0.15698 0.0
H1640 H 0.25001 0.67499 0.16476 0.0
H1641 H 0.24644 0.6702 0.14356 0.0
H1642 H 0.29718 0.67917 0.13199 0.0
H1643 H 0.32378 0.72341 0.1301 0.0
H1644 H 0.27684 0.34958 0.17169 0.0
H1645 H 0.32146 0.32321 0.17132 0.0
H1646 H 0.31953 0.32217 0.1197 0.0
H1647 H 0.27483 0.34801 0.12 0.0
H1648 H 0.33716 0.27063 0.13387 0.0
H1649 H 0.39534 0.36374 0.15748 0.0
H1650 H 0.36597 0.35211 0.16942 0.0
H1651 H 0.35981 0.36612 0.14974 0.0
C1652 C 0.28562 0.3431 0.1603 0.0
C1653 C 0.27259 0.35103 0.14587 0.0
C1654 C 0.31121 0.32836 0.16009 0.0
C1655 C 0.32399 0.32135 0.14547 0.0
C1656 C 0.31009 0.32765 0.1311 0.0
H1657 H 0.49946 0.27801 0.12559 0.0
H1658 H 0.4529 0.30082 0.12622 0.0
C1659 C 0.28463 0.34243 0.13128 0.0
C1660 C 0.35247 0.30863 0.14501 0.0
H1661 H 0.42171 0.32183 0.15369 0.0
C1662 C 0.35565 0.28176 0.13822 0.0
C1663 C 0.37656 0.32355 0.1504 0.0
C1664 C 0.37444 0.35308 0.15705 0.0
C1665 C 0.38233 0.26911 0.13696 0.0
C1666 C 0.4063 0.28367 0.1428 0.0
C1667 C 0.4032 0.31075 0.14931 0.0
C1668 C 0.43462 0.27064 0.14269 0.0
C1669 C 0.38472 0.24041 0.12926 0.0
C1670 C 0.43976 0.24662 0.152 0.0
C1671 C 0.46614 0.23366 0.1517 0.0
C1672 C 0.48803 0.24455 0.14212 0.0
C1673 C 0.48304 0.26909 0.13306 0.0
C1674 C 0.45651 0.28211 0.1334 0.0
H1675 H 0.36583 0.23531 0.12191 0.0
H1676 H 0.40377 0.23918 0.12154 0.0
H1677 H 0.38667 0.2241 0.13874 0.0
H1678 H 0.42326 0.23778 0.15947 0.0
H1679 H 0.4692 0.21489 0.15889 0.0
H1680 H -0.00021 0.29363 0.44786 0.0
H1681 H 0.98258 0.29699 0.47553 0.0
H1682 H 0.06823 0.30559 0.49237 0.0
H1683 H 0.08543 0.30277 0.46489 0.0
H1684 H -0.00214 0.26026 0.50163 0.0
H1685 H 0.0265 0.37188 0.51396 0.0
H1686 H 0.02405 0.35786 0.49391 0.0
H1687 H 0.0546 0.35063 0.506 0.0
C1688 C 0.01488 0.29663 0.45745 0.0
C1689 C 0.04398 0.29786 0.45416 0.0
C1690 C 0.00506 0.29839 0.47324 0.0
C1691 C 0.02412 0.30181 0.48599 0.0
C1692 C 0.05311 0.30333 0.48272 0.0
H1693 H 0.00335 0.31641 0.58997 0.0
H1694 H 0.02354 0.31124 0.56301 0.0
C1695 C 0.06293 0.30141 0.46699 0.0
C1696 C 0.01393 0.30272 0.50279 0.0
H1697 H 0.01121 0.34451 0.53608 0.0
C1698 C 0.00066 0.27871 0.50915 0.0
C1699 C 0.01791 0.3267 0.51263 0.0
C1700 C 0.03133 0.35335 0.50629 0.0
C1701 C 0.99142 0.27796 0.52513 0.0
C1702 C 0.99505 0.30207 0.53492 0.0
C1703 C 0.00858 0.32599 0.5286 0.0
C1704 C 0.98338 0.30355 0.55141 0.0
C1705 C 0.97821 0.25118 0.53144 0.0
C1706 C 0.95421 0.30093 0.55383 0.0
C1707 C 0.94275 0.30376 0.56913 0.0
C1708 C 0.96013 0.30956 0.5824 0.0
C1709 C 0.98946 0.31174 0.58003 0.0
C1710 C 0.00096 0.30896 0.56463 0.0
H1711 H 0.98477 0.23248 0.52433 0.0
H1712 H 0.98396 0.24756 0.54417 0.0
H1713 H 0.95489 0.25292 0.53063 0.0
H1714 H 0.94017 0.29725 0.54381 0.0
H1715 H 0.92014 0.30157 0.57053 0.0
H1716 H 0.64893 0.92638 0.57504 0.0
H1717 H 0.65315 0.94509 0.54794 0.0
H1718 H 0.71192 0.00802 0.56473 0.0
H1719 H 0.70829 0.98881 0.59199 0.0
H1720 H 0.64236 -0.00082 0.53587 0.0
H1721 H 0.75494 0.96911 0.52799 0.0
H1722 H 0.73343 0.95534 0.54404 0.0
H1723 H 0.7475 0.9905 0.54524 0.0
C1724 C 0.66292 0.94408 0.573 0.0
C1725 C 0.67861 0.95584 0.58567 0.0
C1726 C 0.66515 0.95488 0.55749 0.0
C1727 C 0.68322 0.97762 0.55423 0.0
C1728 C 0.69824 0.9901 0.56691 0.0
H1729 H 0.72804 0.06467 0.46659 0.0
H1730 H 0.72406 0.04701 0.49393 0.0
C1731 C 0.69594 0.97932 0.58251 0.0
C1732 C 0.68628 0.98789 0.5375 0.0
H1733 H 0.73359 0.99447 0.50684 0.0
C1734 C 0.66229 -0.00185 0.52951 0.0
C1735 C 0.71229 0.98642 0.52921 0.0
C1736 C 0.73851 0.97454 0.53696 0.0
C1737 C 0.66368 0.00738 0.51353 0.0
C1738 C 0.68965 0.00575 0.50519 0.0
C1739 C 0.71366 0.99558 0.51321 0.0
C1740 C 0.69258 0.01543 0.48832 0.0
C1741 C 0.63746 0.01941 0.50584 0.0
C1742 C 0.67672 0.0031 0.47593 0.0
C1743 C 0.67882 0.01333 0.46021 0.0
C1744 C 0.6969 0.03604 0.45661 0.0
C1745 C 0.7135 0.04756 0.46897 0.0
C1746 C 0.71139 0.03736 0.48462 0.0
H1747 H 0.62151 0.02572 0.51491 0.0
H1748 H 0.64264 0.03808 0.49835 0.0
H1749 H 0.62776 0.00316 0.49801 0.0
H1750 H 0.66251 0.98574 0.47843 0.0
H1751 H 0.66569 0.00402 0.45101 0.0
H1752 H 0.02096 0.65665 0.58623 0.0
H1753 H 0.00588 0.64848 0.5585 0.0
H1754 H 0.04112 0.72871 0.54461 0.0
H1755 H 0.05555 0.73741 0.57213 0.0
H1756 H 0.97013 0.68515 0.53835 0.0
H1757 H 0.07789 0.67014 0.51351 0.0
H1758 H 0.07017 0.6667 0.5346 0.0
H1759 H 0.07318 0.70108 0.52568 0.0
C1760 C 0.02528 0.67267 0.57733 0.0
C1761 C 0.03983 0.69756 0.58149 0.0
C1762 C 0.0168 0.66789 0.56146 0.0
C1763 C 0.02291 0.68775 0.54945 0.0
C1764 C 0.03679 0.71281 0.55361 0.0
H1765 H 0.9925 0.70472 0.44699 0.0
H1766 H 0.01002 0.70927 0.4746 0.0
C1767 C 0.0451 0.71769 0.56941 0.0
C1768 C 0.01431 0.6828 0.53259 0.0
H1769 H 0.04047 0.67423 0.49476 0.0
C1770 C 0.98546 0.68251 0.52882 0.0
C1771 C 0.0344 0.67969 0.52018 0.0
C1772 C 0.06566 0.67918 0.52363 0.0
C1773 C 0.97613 0.67981 0.51292 0.0
C1774 C 0.99621 0.67654 0.50047 0.0
C1775 C 0.02509 0.67673 0.50427 0.0
C1776 C 0.98752 0.67267 0.48349 0.0
C1777 C 0.94483 0.68137 0.50957 0.0
C1778 C 0.97001 0.65003 0.47917 0.0
C1779 C 0.95998 0.64751 0.46351 0.0
C1780 C 0.96754 0.66735 0.45173 0.0
C1781 C 0.98639 0.68912 0.45581 0.0
C1782 C 0.99627 0.69178 0.47158 0.0
H1783 H 0.93326 0.69197 0.51945 0.0
H1784 H 0.94053 0.69291 0.49826 0.0
H1785 H 0.93628 0.65965 0.50841 0.0
H1786 H 0.96369 0.6345 0.488 0.0
H1787 H 0.94596 0.63018 0.46065 0.0
H1788 H 0.32855 0.08035 0.574 0.0
H1789 H 0.32664 0.06174 0.54676 0.0
H1790 H 0.28085 0.98893 0.56368 0.0
H1791 H 0.28242 0.00771 0.59112 0.0
H1792 H 0.34617 0.00757 0.53468 0.0
H1793 H 0.23052 0.02381 0.52738 0.0
H1794 H 0.25074 0.04121 0.54283 0.0
H1795 H 0.2416 0.00461 0.54488 0.0
C1796 C 0.31797 0.06042 0.57195 0.0
C1797 C 0.30534 0.04564 0.5847 0.0
C1798 C 0.31705 0.04974 0.55638 0.0
C1799 C 0.30328 0.02418 0.55316 0.0
C1800 C 0.29128 0.00891 0.56589 0.0
H1801 H 0.26527 0.93353 0.46601 0.0
H1802 H 0.2679 0.95217 0.49314 0.0
C1803 C 0.29238 0.01951 0.58156 0.0
C1804 C 0.30129 0.01389 0.53641 0.0
H1805 H 0.25464 0.00231 0.50592 0.0
C1806 C 0.32618 0.0064 0.52836 0.0
C1807 C 0.2752 0.01249 0.52822 0.0
C1808 C 0.24794 0.02112 0.53616 0.0
C1809 C 0.32563 -0.00301 0.5124 0.0
C1810 C 0.29953 0.99579 0.50412 0.0
C1811 C 0.27465 0.00336 0.51221 0.0
C1812 C 0.29737 0.98554 0.48731 0.0
C1813 C 0.35293 0.98764 0.50473 0.0
C1814 C 0.31247 -0.00148 0.47481 0.0
C1815 C 0.31127 0.98762 0.45922 0.0
C1816 C 0.29477 0.96365 0.45581 0.0
C1817 C 0.2787 0.95159 0.46824 0.0
C1818 C 0.28002 0.96237 0.48377 0.0
H1819 H 0.36934 0.98272 0.51383 0.0
H1820 H 0.34964 0.96869 0.49715 0.0
H1821 H 0.36111 0.0049 0.49704 0.0
H1822 H 0.32543 0.01689 0.47715 0.0
H1823 H 0.32393 -0.00255 0.44998 0.0
H1824 H 0.50654 0.83058 0.95106 0.0
H1825 H 0.48839 0.83562 0.97845 0.0
H1826 H 0.55341 0.77963 0.9957 0.0
H1827 H 0.57144 0.77438 0.96852 0.0
H1828 H 0.46922 0.79451 1.00059 0.0
H1829 H 0.56405 0.85013 0.02357 0.0
H1830 H 0.55707 0.84592 1.00246 0.0
H1831 H 0.57166 0.8172 1.01386 0.0
C1832 C 0.51675 0.81912 0.96067 0.0
C1833 C 0.54068 0.80237 0.95762 0.0
C1834 C 0.50647 0.82214 0.97632 0.0
C1835 C 0.52 0.80855 0.98917 0.0
C1836 C 0.54314 0.79096 0.98605 0.0
H1837 H 0.49292 0.79272 0.09176 0.0
H1838 H 0.51198 0.79152 0.06442 0.0
C1839 C 0.5534 0.78796 0.97048 0.0
C1840 C 0.50992 0.81244 1.00587 0.0
H1841 H 0.53075 0.83459 0.043 0.0
C1842 C 0.48257 0.80349 1.00984 0.0
C1843 C 0.52744 0.82405 1.01794 0.0
C1844 C 0.5566 0.83513 1.01426 0.0
C1845 C 0.47249 0.80519 0.02563 0.0
C1846 C 0.49006 0.81665 0.03772 0.0
C1847 C 0.51736 0.82575 0.03374 0.0
C1848 C 0.48028 0.81945 0.05454 0.0
C1849 C 0.44335 0.794 0.02931 0.0
C1850 C 0.45691 0.83645 0.05817 0.0
C1851 C 0.44611 0.83722 0.07372 0.0
C1852 C 0.45855 0.82116 0.08602 0.0
C1853 C 0.48298 0.80542 0.08258 0.0
C1854 C 0.49376 0.80459 0.06695 0.0
H1855 H 0.4356 0.77956 0.01979 0.0
H1856 H 0.44314 0.78253 0.04091 0.0
H1857 H 0.42838 0.81194 0.03018 0.0
H1858 H 0.44663 0.84868 0.04889 0.0
H1859 H 0.42762 0.84999 0.07606 0.0
H1860 H 0.20037 0.4198 0.0721 0.0
H1861 H 0.20376 0.4387 0.04496 0.0
H1862 H 0.16654 0.51687 0.06096 0.0
H1863 H 0.16381 0.49807 0.08834 0.0
H1864 H 0.16211 0.45353 0.02573 0.0
H1865 H 0.2311 0.54659 0.03492 0.0
H1866 H 0.2265 0.51976 0.05004 0.0
H1867 H 0.20046 0.54709 0.04752 0.0
C1868 C 0.19315 0.44112 0.06985 0.0
C1869 C 0.18174 0.45745 0.08232 0.0
C1870 C 0.19513 0.45193 0.05434 0.0
C1871 C 0.18565 0.47933 0.05086 0.0
C1872 C 0.17465 0.49592 0.06336 0.0
H1873 H 0.15011 0.57159 0.96454 0.0
H1874 H 0.15371 0.5525 0.99149 0.0
C1875 C 0.17299 0.48518 0.079 0.0
C1876 C 0.18576 0.4896 0.03398 0.0
H1877 H 0.20729 0.5437 1.00975 0.0
C1878 C 0.17226 0.47312 0.02224 0.0
C1879 C 0.19904 0.51513 0.02934 0.0
C1880 C 0.21534 0.53302 0.04109 0.0
C1881 C 0.17111 0.48175 1.00615 0.0
C1882 C 0.18385 0.50752 1.00163 0.0
C1883 C 0.19754 0.52392 1.01327 0.0
C1884 C 0.18189 0.51854 0.98502 0.0
C1885 C 0.15564 0.4637 0.99414 0.0
C1886 C 0.19653 0.50568 0.97234 0.0
C1887 C 0.19481 0.5168 0.95679 0.0
C1888 C 0.17841 0.54098 0.95365 0.0
C1889 C 0.16346 0.55338 0.96643 0.0
C1890 C 0.16534 0.5424 0.98191 0.0
H1891 H 0.14356 0.44639 0.99995 0.0
H1892 H 0.14083 0.47681 0.98698 0.0
H1893 H 0.17109 0.45417 0.98575 0.0
H1894 H 0.20959 0.48731 0.97453 0.0
H1895 H 0.20679 0.50684 0.94733 0.0
H1896 H 0.5723 0.16218 0.0735 0.0
H1897 H 0.55247 0.16456 0.04662 0.0
H1898 H 0.47959 0.20839 0.06498 0.0
H1899 H 0.49985 0.20678 0.09206 0.0
H1900 H 0.50194 0.14374 0.0346 0.0
H1901 H 0.50707 0.26054 0.02889 0.0
H1902 H 0.52537 0.24154 0.0445 0.0
H1903 H 0.48804 0.24773 0.04603 0.0
C1904 C 0.55217 0.17258 0.07186 0.0
C1905 C 0.53786 0.18468 0.08494 0.0
C1906 C 0.54075 0.17373 0.05646 0.0
C1907 C 0.51479 0.18708 0.05371 0.0
C1908 C 0.49994 0.19846 0.06677 0.0
H1909 H 0.41751 0.21741 0.96751 0.0
H1910 H 0.43634 0.21546 0.99467 0.0
C1911 C 0.51137 0.19727 0.08226 0.0
C1912 C 0.50357 0.18894 0.0371 0.0
H1913 H 0.4861 0.23558 1.00747 0.0
C1914 C 0.49848 0.16382 0.02865 0.0
C1915 C 0.49919 0.21515 0.02934 0.0
C1916 C 0.5054 0.24282 0.03756 0.0
C1917 C 0.48875 0.16418 1.01275 0.0
C1918 C 0.4845 0.19038 1.00496 0.0
C1919 C 0.48948 0.21551 1.01343 0.0
C1920 C 0.47392 0.1922 0.98821 0.0
C1921 C 0.48248 0.13648 1.00457 0.0
C1922 C 0.4891 0.18034 0.97541 0.0
C1923 C 0.47824 0.18126 0.95979 0.0
C1924 C 0.45202 0.19413 0.95669 0.0
C1925 C 0.43745 0.20682 0.96949 0.0
C1926 C 0.44828 0.2059 0.98504 0.0
H1927 H 0.48012 0.11894 1.01331 0.0
H1928 H 0.46286 0.13793 0.99732 0.0
H1929 H 0.50017 0.13113 0.99642 0.0
H1930 H 0.50923 0.17017 0.97752 0.0
H1931 H 0.48999 0.17126 0.95025 0.0
H1932 H 0.81657 0.4941 0.94762 0.0
H1933 H 0.81464 0.51343 0.97486 0.0
H1934 H 0.78692 0.43265 0.99273 0.0
H1935 H 0.78859 0.41334 0.96569 0.0
H1936 H 0.76918 0.51614 0.99718 0.0
H1937 H 0.85694 0.44982 0.02015 0.0
H1938 H 0.85015 0.4544 0.99903 0.0
H1939 H 0.82908 0.43032 1.01063 0.0
C1940 C 0.8098 0.48056 0.95732 0.0
C1941 C 0.80313 0.45204 0.95449 0.0
C1942 C 0.80884 0.49158 0.97289 0.0
C1943 C 0.80128 0.47427 0.98587 0.0
C1944 C 0.79357 0.44617 0.98297 0.0
H1945 H 0.78635 0.49788 0.08925 0.0
H1946 H 0.78695 0.47857 0.06196 0.0
C1947 C 0.79454 0.43517 0.96748 0.0
C1948 C 0.80132 0.48544 1.00249 0.0
H1949 H 0.831 0.4759 0.03941 0.0
C1950 C 0.7828 0.50748 1.0064 0.0
C1951 C 0.819 0.47396 1.01452 0.0
C1952 C 0.84011 0.45099 1.01089 0.0
C1953 C 0.78112 0.51804 0.02209 0.0
C1954 C 0.79885 0.50661 0.03412 0.0
C1955 C 0.81735 0.48454 0.03021 0.0
C1956 C 0.79911 0.51791 0.05071 0.0
C1957 C 0.75995 0.54097 0.02571 0.0
C1958 C 0.80649 0.54615 0.05348 0.0
C1959 C 0.80622 0.55713 0.06898 0.0
C1960 C 0.79875 0.54009 0.08213 0.0
C1961 C 0.79225 0.51152 0.07941 0.0
C1962 C 0.79246 0.50052 0.06382 0.0
H1963 H 0.74288 0.54175 1.01659 0.0
H1964 H 0.75025 0.53784 0.03768 0.0
H1965 H 0.77084 0.56172 0.02567 0.0
H1966 H 0.81251 0.55975 0.04362 0.0
H1967 H 0.81208 0.57901 0.07065 0.0
loop_
_geom_bond_atom_site_label_1
_geom_bond_atom_site_label_2
_geom_bond_distance
_geom_bond_site_symmetry_2
_ccdc_geom_bond_type
Co0 N4 2.148 . S
Co0 N10 2.128 . S
Co0 N20 2.194 . S
Co0 O25 2.351 . S
Co0 O26 2.155 . S
Co0 O27 2.096 1_455 S
C1 N4 1.301 . S
C1 N5 1.328 . S
C1 H6 0.930 . S
C2 C3 1.333 . S
C2 N4 1.317 . S
C2 H7 0.941 . S
C3 C2 1.333 . S
C3 N5 1.350 . S
C3 H29 0.931 . S
N4 Co0 2.148 . S
N4 C1 1.301 . S
N4 C2 1.317 . S
N5 C1 1.328 . S
N5 C3 1.350 . S
H6 C1 0.930 . S
H7 C2 0.941 . S
C8 O9 1.224 1_655 S
C8 O27 1.247 . S
O9 C8 1.224 1_455 S
N10 Co0 2.128 . S
N10 C11 1.355 . S
N10 C13 1.311 . S
C11 N10 1.355 . S
C11 C12 1.363 . S
C11 H23 0.929 . S
C12 C11 1.363 . S
C12 N14 1.375 . S
C12 H30 0.931 . S
C13 N10 1.311 . S
C13 N14 1.347 . S
C13 H24 0.929 1_455 S
N14 C12 1.375 . S
N14 C13 1.347 . S
C15 C18 1.365 . S
C15 N20 1.328 . S
C15 H21 0.929 . S
C16 C17 1.362 . S
C16 C19 1.378 . S
C16 H31 0.929 . S
C17 C16 1.362 . S
C17 C18 1.366 . S
C18 C15 1.365 . S
C18 C17 1.366 . S
C18 H32 0.930 . S
C19 C16 1.378 . S
C19 N20 1.315 . S
C19 H22 0.930 . S
N20 Co0 2.194 . S
N20 C15 1.328 . S
N20 C19 1.315 . S
H21 C15 0.929 . S
H22 C19 0.930 . S
H23 C11 0.929 . S
H24 C13 0.929 1_655 S
O25 Co0 2.351 . S
O25 C28 1.244 . S
O26 Co0 2.155 . S
O26 C28 1.240 . S
O27 Co0 2.096 1_655 S
O27 C8 1.247 . S
C28 O25 1.244 . S
C28 O26 1.240 . S
H29 C3 0.931 . S
H30 C12 0.931 . S
H31 C16 0.929 . S
H32 C18 0.930 . S
Co33 N37 2.148 . S
Co33 N43 2.128 . S
Co33 N53 2.194 . S
Co33 O58 2.351 . S
Co33 O59 2.155 . S
Co33 O60 2.096 1_545 S
C34 N37 1.301 . S
C34 N38 1.328 . S
C34 H39 0.930 . S
C35 C36 1.333 . S
C35 N37 1.317 . S
C35 H40 0.941 . S
C36 C35 1.333 . S
C36 N38 1.350 . S
C36 H62 0.931 . S
N37 Co33 2.148 . S
N37 C34 1.301 . S
N37 C35 1.317 . S
N38 C34 1.328 . S
N38 C36 1.350 . S
H39 C34 0.930 . S
H40 C35 0.941 . S
C41 O42 1.224 1_565 S
C41 O60 1.247 . S
O42 C41 1.224 1_545 S
N43 Co33 2.128 . S
N43 C44 1.355 . S
N43 C46 1.311 . S
C44 N43 1.355 . S
C44 C45 1.363 . S
C44 H56 0.929 . S
C45 C44 1.363 . S
C45 N47 1.375 . S
C45 H63 0.931 . S
C46 N43 1.311 . S
C46 N47 1.347 . S
C46 H57 0.929 1_545 S
N47 C45 1.375 . S
N47 C46 1.347 . S
C48 C51 1.365 . S
C48 N53 1.328 . S
C48 H54 0.929 . S
C49 C50 1.362 . S
C49 C52 1.378 . S
C49 H64 0.929 . S
C50 C49 1.362 . S
C50 C51 1.366 . S
C51 C48 1.365 . S
C51 C50 1.366 . S
C51 H65 0.930 . S
C52 C49 1.378 . S
C52 N53 1.315 . S
C52 H55 0.930 . S
N53 Co33 2.194 . S
N53 C48 1.328 . S
N53 C52 1.315 . S
H54 C48 0.929 . S
H55 C52 0.930 . S
H56 C44 0.929 . S
H57 C46 0.929 1_565 S
O58 Co33 2.351 . S
O58 C61 1.244 . S
O59 Co33 2.155 . S
O59 C61 1.240 . S
O60 Co33 2.096 1_565 S
O60 C41 1.247 . S
C61 O58 1.244 . S
C61 O59 1.240 . S
H62 C36 0.931 . S
H63 C45 0.931 . S
H64 C49 0.929 . S
H65 C51 0.930 . S
Co66 N70 2.148 . S
Co66 N76 2.128 . S
Co66 N86 2.194 . S
Co66 O91 2.351 . S
Co66 O92 2.155 . S
Co66 O93 2.096 1_655 S
C67 N70 1.301 . S
C67 N71 1.328 . S
C67 H72 0.930 . S
C68 C69 1.333 . S
C68 N70 1.317 . S
C68 H73 0.941 . S
C69 C68 1.333 . S
C69 N71 1.350 . S
C69 H95 0.931 . S
N70 Co66 2.148 . S
N70 C67 1.301 . S
N70 C68 1.317 . S
N71 C67 1.328 . S
N71 C69 1.350 . S
H72 C67 0.930 . S
H73 C68 0.941 . S
C74 O75 1.224 1_455 S
C74 O93 1.247 . S
O75 C74 1.224 1_655 S
N76 Co66 2.128 . S
N76 C77 1.355 . S
N76 C79 1.311 . S
C77 N76 1.355 . S
C77 C78 1.363 . S
C77 H89 0.929 . S
C78 C77 1.363 . S
C78 N80 1.375 . S
C78 H96 0.931 . S
C79 N76 1.311 . S
C79 N80 1.347 . S
C79 H90 0.929 1_655 S
N80 C78 1.375 . S
N80 C79 1.347 . S
C81 C84 1.365 . S
C81 N86 1.328 . S
C81 H87 0.929 . S
C82 C83 1.362 . S
C82 C85 1.378 . S
C82 H97 0.929 . S
C83 C82 1.362 . S
C83 C84 1.366 . S
C84 C81 1.365 . S
C84 C83 1.366 . S
C84 H98 0.930 . S
C85 C82 1.378 . S
C85 N86 1.315 . S
C85 H88 0.930 . S
N86 Co66 2.194 . S
N86 C81 1.328 . S
N86 C85 1.315 . S
H87 C81 0.929 . S
H88 C85 0.930 . S
H89 C77 0.929 . S
H90 C79 0.929 1_455 S
O91 Co66 2.351 . S
O91 C94 1.244 . S
O92 Co66 2.155 . S
O92 C94 1.240 . S
O93 Co66 2.096 1_455 S
O93 C74 1.247 . S
C94 O91 1.244 . S
C94 O92 1.240 . S
H95 C69 0.931 . S
H96 C78 0.931 . S
H97 C82 0.929 . S
H98 C84 0.930 . S
Co99 N103 2.148 . S
Co99 N109 2.128 . S
Co99 N119 2.194 . S
Co99 O124 2.351 . S
Co99 O125 2.155 . S
Co99 O126 2.096 1_565 S
C100 N103 1.301 . S
C100 N104 1.328 . S
C100 H105 0.930 . S
C101 C102 1.333 . S
C101 N103 1.317 . S
C101 H106 0.941 . S
C102 C101 1.333 . S
C102 N104 1.350 . S
C102 H128 0.931 . S
N103 Co99 2.148 . S
N103 C100 1.301 . S
N103 C101 1.317 . S
N104 C100 1.328 . S
N104 C102 1.350 . S
H105 C100 0.930 . S
H106 C101 0.941 . S
C107 O108 1.224 1_545 S
C107 O126 1.247 . S
O108 C107 1.224 1_565 S
N109 Co99 2.128 . S
N109 C110 1.355 . S
N109 C112 1.311 . S
C110 N109 1.355 . S
C110 C111 1.363 . S
C110 H122 0.929 . S
C111 C110 1.363 . S
C111 N113 1.375 . S
C111 H129 0.931 . S
C112 N109 1.311 . S
C112 N113 1.347 . S
C112 H123 0.929 1_565 S
N113 C111 1.375 . S
N113 C112 1.347 . S
C114 C117 1.365 . S
C114 N119 1.328 . S
C114 H120 0.929 . S
C115 C116 1.362 . S
C115 C118 1.378 . S
C115 H130 0.929 . S
C116 C115 1.362 . S
C116 C117 1.366 . S
C117 C114 1.365 . S
C117 C116 1.366 . S
C117 H131 0.930 . S
C118 C115 1.378 . S
C118 N119 1.315 . S
C118 H121 0.930 . S
N119 Co99 2.194 . S
N119 C114 1.328 . S
N119 C118 1.315 . S
H120 C114 0.929 . S
H121 C118 0.930 . S
H122 C110 0.929 . S
H123 C112 0.929 1_545 S
O124 Co99 2.351 . S
O124 C127 1.244 . S
O125 Co99 2.155 . S
O125 C127 1.240 . S
O126 Co99 2.096 1_545 S
O126 C107 1.247 . S
C127 O124 1.244 . S
C127 O125 1.240 . S
H128 C102 0.931 . S
H129 C111 0.931 . S
H130 C115 0.929 . S
H131 C117 0.930 . S
Co132 N136 2.148 . S
Co132 N142 2.128 . S
Co132 N152 2.194 . S
Co132 O157 2.351 . S
Co132 O158 2.155 . S
Co132 O159 2.096 1_455 S
C133 N136 1.301 . S
C133 N137 1.328 . S
C133 H138 0.930 . S
C134 C135 1.333 . S
C134 N136 1.317 . S
C134 H139 0.941 . S
C135 C134 1.333 . S
C135 N137 1.350 . S
C135 H161 0.931 . S
N136 Co132 2.148 . S
N136 C133 1.301 . S
N136 C134 1.317 . S
N137 C133 1.328 . S
N137 C135 1.350 . S
H138 C133 0.930 . S
H139 C134 0.941 . S
C140 O141 1.224 1_655 S
C140 O159 1.247 . S
O141 C140 1.224 1_455 S
N142 Co132 2.128 . S
N142 C143 1.355 . S
N142 C145 1.311 . S
C143 N142 1.355 . S
C143 C144 1.363 . S
C143 H155 0.929 . S
C144 C143 1.363 . S
C144 N146 1.375 . S
C144 H162 0.931 . S
C145 N142 1.311 . S
C145 N146 1.347 . S
C145 H156 0.929 1_455 S
N146 C144 1.375 . S
N146 C145 1.347 . S
C147 C150 1.365 . S
C147 N152 1.328 . S
C147 H153 0.929 . S
C148 C149 1.362 . S
C148 C151 1.378 . S
C148 H163 0.929 . S
C149 C148 1.362 . S
C149 C150 1.366 . S
C150 C147 1.365 . S
C150 C149 1.366 . S
C150 H164 0.930 . S
C151 C148 1.378 . S
C151 N152 1.315 . S
C151 H154 0.930 . S
N152 Co132 2.194 . S
N152 C147 1.328 . S
N152 C151 1.315 . S
H153 C147 0.929 . S
H154 C151 0.930 . S
H155 C143 0.929 . S
H156 C145 0.929 1_655 S
O157 Co132 2.351 . S
O157 C160 1.244 . S
O158 Co132 2.155 . S
O158 C160 1.240 . S
O159 Co132 2.096 1_655 S
O159 C140 1.247 . S
C160 O157 1.244 . S
C160 O158 1.240 . S
H161 C135 0.931 . S
H162 C144 0.931 . S
H163 C148 0.929 . S
H164 C150 0.930 . S
Co165 N169 2.148 . S
Co165 N175 2.128 . S
Co165 N185 2.194 . S
Co165 O190 2.351 . S
Co165 O191 2.155 . S
Co165 O192 2.096 1_545 S
C166 N169 1.301 . S
C166 N170 1.328 . S
C166 H171 0.930 . S
C167 C168 1.333 . S
C167 N169 1.317 . S
C167 H172 0.941 . S
C168 C167 1.333 . S
C168 N170 1.350 . S
C168 H194 0.931 . S
N169 Co165 2.148 . S
N169 C166 1.301 . S
N169 C167 1.317 . S
N170 C166 1.328 . S
N170 C168 1.350 . S
H171 C166 0.930 . S
H172 C167 0.941 . S
C173 O174 1.224 1_565 S
C173 O192 1.247 . S
O174 C173 1.224 1_545 S
N175 Co165 2.128 . S
N175 C176 1.355 . S
N175 C178 1.311 . S
C176 N175 1.355 . S
C176 C177 1.363 . S
C176 H188 0.929 . S
C177 C176 1.363 . S
C177 N179 1.375 . S
C177 H195 0.931 . S
C178 N175 1.311 . S
C178 N179 1.347 . S
C178 H189 0.929 1_545 S
N179 C177 1.375 . S
N179 C178 1.347 . S
C180 C183 1.365 . S
C180 N185 1.328 . S
C180 H186 0.929 . S
C181 C182 1.362 . S
C181 C184 1.378 . S
C181 H196 0.929 . S
C182 C181 1.362 . S
C182 C183 1.366 . S
C183 C180 1.365 . S
C183 C182 1.366 . S
C183 H197 0.930 . S
C184 C181 1.378 . S
C184 N185 1.315 . S
C184 H187 0.930 . S
N185 Co165 2.194 . S
N185 C180 1.328 . S
N185 C184 1.315 . S
H186 C180 0.929 . S
H187 C184 0.930 . S
H188 C176 0.929 . S
H189 C178 0.929 1_565 S
O190 Co165 2.351 . S
O190 C193 1.244 . S
O191 Co165 2.155 . S
O191 C193 1.240 . S
O192 Co165 2.096 1_565 S
O192 C173 1.247 . S
C193 O190 1.244 . S
C193 O191 1.240 . S
H194 C168 0.931 . S
H195 C177 0.931 . S
H196 C181 0.929 . S
H197 C183 0.930 . S
Co198 N202 2.148 . S
Co198 N208 2.128 . S
Co198 N218 2.194 . S
Co198 O223 2.351 . S
Co198 O224 2.155 . S
Co198 O225 2.096 1_655 S
C199 N202 1.301 . S
C199 N203 1.328 . S
C199 H204 0.930 . S
C200 C201 1.333 . S
C200 N202 1.317 . S
C200 H205 0.941 . S
C201 C200 1.333 . S
C201 N203 1.350 . S
C201 H227 0.931 . S
N202 Co198 2.148 . S
N202 C199 1.301 . S
N202 C200 1.317 . S
N203 C199 1.328 . S
N203 C201 1.350 . S
H204 C199 0.930 . S
H205 C200 0.941 . S
C206 O207 1.224 1_455 S
C206 O225 1.247 . S
O207 C206 1.224 1_655 S
N208 Co198 2.128 . S
N208 C209 1.355 . S
N208 C211 1.311 . S
C209 N208 1.355 . S
C209 C210 1.363 . S
C209 H221 0.929 . S
C210 C209 1.363 . S
C210 N212 1.375 . S
C210 H228 0.931 . S
C211 N208 1.311 . S
C211 N212 1.347 . S
C211 H222 0.929 1_655 S
N212 C210 1.375 . S
N212 C211 1.347 . S
C213 C216 1.365 . S
C213 N218 1.328 . S
C213 H219 0.929 . S
C214 C215 1.362 . S
C214 C217 1.378 . S
C214 H229 0.929 . S
C215 C214 1.362 . S
C215 C216 1.366 . S
C216 C213 1.365 . S
C216 C215 1.366 . S
C216 H230 0.930 . S
C217 C214 1.378 . S
C217 N218 1.315 . S
C217 H220 0.930 . S
N218 Co198 2.194 . S
N218 C213 1.328 . S
N218 C217 1.315 . S
H219 C213 0.929 . S
H220 C217 0.930 . S
H221 C209 0.929 . S
H222 C211 0.929 1_455 S
O223 Co198 2.351 . S
O223 C226 1.244 . S
O224 Co198 2.155 . S
O224 C226 1.240 . S
O225 Co198 2.096 1_455 S
O225 C206 1.247 . S
C226 O223 1.244 . S
C226 O224 1.240 . S
H227 C201 0.931 . S
H228 C210 0.931 . S
H229 C214 0.929 . S
H230 C216 0.930 . S
Co231 N235 2.148 . S
Co231 N241 2.128 . S
Co231 N251 2.194 . S
Co231 O256 2.351 . S
Co231 O257 2.155 . S
Co231 O258 2.096 1_565 S
C232 N235 1.301 . S
C232 N236 1.328 . S
C232 H237 0.930 . S
C233 C234 1.333 . S
C233 N235 1.317 . S
C233 H238 0.941 . S
C234 C233 1.333 . S
C234 N236 1.350 . S
C234 H260 0.931 . S
N235 Co231 2.148 . S
N235 C232 1.301 . S
N235 C233 1.317 . S
N236 C232 1.328 . S
N236 C234 1.350 . S
H237 C232 0.930 . S
H238 C233 0.941 . S
C239 O240 1.224 1_545 S
C239 O258 1.247 . S
O240 C239 1.224 1_565 S
N241 Co231 2.128 . S
N241 C242 1.355 . S
N241 C244 1.311 . S
C242 N241 1.355 . S
C242 C243 1.363 . S
C242 H254 0.929 . S
C243 C242 1.363 . S
C243 N245 1.375 . S
C243 H261 0.931 . S
C244 N241 1.311 . S
C244 N245 1.347 . S
C244 H255 0.929 1_565 S
N245 C243 1.375 . S
N245 C244 1.347 . S
C246 C249 1.365 . S
C246 N251 1.328 . S
C246 H252 0.929 . S
C247 C248 1.362 . S
C247 C250 1.378 . S
C247 H262 0.929 . S
C248 C247 1.362 . S
C248 C249 1.366 . S
C249 C246 1.365 . S
C249 C248 1.366 . S
C249 H263 0.930 . S
C250 C247 1.378 . S
C250 N251 1.315 . S
C250 H253 0.930 . S
N251 Co231 2.194 . S
N251 C246 1.328 . S
N251 C250 1.315 . S
H252 C246 0.929 . S
H253 C250 0.930 . S
H254 C242 0.929 . S
H255 C244 0.929 1_545 S
O256 Co231 2.351 . S
O256 C259 1.244 . S
O257 Co231 2.155 . S
O257 C259 1.240 . S
O258 Co231 2.096 1_545 S
O258 C239 1.247 . S
C259 O256 1.244 . S
C259 O257 1.240 . S
H260 C234 0.931 . S
H261 C243 0.931 . S
H262 C247 0.929 . S
H263 C249 0.930 . S
Co264 N268 2.148 . S
Co264 N274 2.128 . S
Co264 N284 2.194 . S
Co264 O289 2.351 . S
Co264 O290 2.155 . S
Co264 O291 2.096 . S
C265 N268 1.301 . S
C265 N269 1.328 . S
C265 H270 0.930 . S
C266 C267 1.333 . S
C266 N268 1.317 . S
C266 H271 0.930 . S
C267 C266 1.333 . S
C267 N269 1.350 . S
C267 H293 0.931 . S
N268 Co264 2.148 . S
N268 C265 1.301 . S
N268 C266 1.317 . S
N269 C265 1.328 . S
N269 C267 1.350 . S
H270 C265 0.930 . S
H271 C266 0.930 . S
C272 O273 1.224 . S
C272 O291 1.247 . S
O273 C272 1.224 . S
N274 Co264 2.128 . S
N274 C275 1.355 . S
N274 C277 1.311 . S
C275 N274 1.355 . S
C275 C276 1.363 . S
C275 H287 0.929 . S
C276 C275 1.363 . S
C276 N278 1.375 . S
C276 H294 0.931 . S
C277 N274 1.311 . S
C277 N278 1.347 . S
C277 H288 0.929 . S
N278 C276 1.375 . S
N278 C277 1.347 . S
C279 C282 1.365 . S
C279 N284 1.328 . S
C279 H285 0.929 . S
C280 C281 1.362 . S
C280 C283 1.378 . S
C280 H295 0.929 . S
C281 C280 1.362 . S
C281 C282 1.366 . S
C282 C279 1.365 . S
C282 C281 1.366 . S
C282 H296 0.930 . S
C283 C280 1.378 . S
C283 N284 1.315 . S
C283 H286 0.930 . S
N284 Co264 2.194 . S
N284 C279 1.328 . S
N284 C283 1.315 . S
H285 C279 0.929 . S
H286 C283 0.930 . S
H287 C275 0.929 . S
H288 C277 0.929 . S
O289 Co264 2.351 . S
O289 C292 1.244 . S
O290 Co264 2.155 . S
O290 C292 1.240 . S
O291 Co264 2.096 . S
O291 C272 1.247 . S
C292 O289 1.244 . S
C292 O290 1.240 . S
H293 C267 0.931 . S
H294 C276 0.931 . S
H295 C280 0.929 . S
H296 C282 0.930 . S
Co297 N301 2.148 . S
Co297 N307 2.128 . S
Co297 N317 2.194 . S
Co297 O322 2.351 . S
Co297 O323 2.155 . S
Co297 O324 2.096 . S
C298 N301 1.301 . S
C298 N302 1.328 . S
C298 H303 0.930 . S
C299 C300 1.333 . S
C299 N301 1.317 . S
C299 H304 0.930 . S
C300 C299 1.333 . S
C300 N302 1.350 . S
C300 H326 0.931 . S
N301 Co297 2.148 . S
N301 C298 1.301 . S
N301 C299 1.317 . S
N302 C298 1.328 . S
N302 C300 1.350 . S
H303 C298 0.930 . S
H304 C299 0.930 . S
C305 O306 1.224 . S
C305 O324 1.247 . S
O306 C305 1.224 . S
N307 Co297 2.128 . S
N307 C308 1.355 . S
N307 C310 1.311 . S
C308 N307 1.355 . S
C308 C309 1.363 . S
C308 H320 0.929 . S
C309 C308 1.363 . S
C309 N311 1.375 . S
C309 H327 0.931 . S
C310 N307 1.311 . S
C310 N311 1.347 . S
C310 H321 0.929 . S
N311 C309 1.375 . S
N311 C310 1.347 . S
C312 C315 1.365 . S
C312 N317 1.328 . S
C312 H318 0.929 . S
C313 C314 1.362 . S
C313 C316 1.378 . S
C313 H328 0.929 . S
C314 C313 1.362 . S
C314 C315 1.366 . S
C315 C312 1.365 . S
C315 C314 1.366 . S
C315 H329 0.930 . S
C316 C313 1.378 . S
C316 N317 1.315 . S
C316 H319 0.930 . S
N317 Co297 2.194 . S
N317 C312 1.328 . S
N317 C316 1.315 . S
H318 C312 0.929 . S
H319 C316 0.930 . S
H320 C308 0.929 . S
H321 C310 0.929 . S
O322 Co297 2.351 . S
O322 C325 1.244 . S
O323 Co297 2.155 . S
O323 C325 1.240 . S
O324 Co297 2.096 . S
O324 C305 1.247 . S
C325 O322 1.244 . S
C325 O323 1.240 . S
H326 C300 0.931 . S
H327 C309 0.931 . S
H328 C313 0.929 . S
H329 C315 0.930 . S
Co330 N334 2.148 . S
Co330 N340 2.128 . S
Co330 N350 2.194 . S
Co330 O355 2.351 . S
Co330 O356 2.155 . S
Co330 O357 2.096 . S
C331 N334 1.301 . S
C331 N335 1.328 . S
C331 H336 0.930 . S
C332 C333 1.333 . S
C332 N334 1.317 . S
C332 H337 0.930 . S
C333 C332 1.333 . S
C333 N335 1.350 . S
C333 H359 0.931 . S
N334 Co330 2.148 . S
N334 C331 1.301 . S
N334 C332 1.317 . S
N335 C331 1.328 . S
N335 C333 1.350 . S
H336 C331 0.930 . S
H337 C332 0.930 . S
C338 O339 1.224 . S
C338 O357 1.247 . S
O339 C338 1.224 . S
N340 Co330 2.128 . S
N340 C341 1.355 . S
N340 C343 1.311 . S
C341 N340 1.355 . S
C341 C342 1.363 . S
C341 H353 0.929 . S
C342 C341 1.363 . S
C342 N344 1.375 . S
C342 H360 0.931 . S
C343 N340 1.311 . S
C343 N344 1.347 . S
C343 H354 0.929 . S
N344 C342 1.375 . S
N344 C343 1.347 . S
C345 C348 1.365 . S
C345 N350 1.328 . S
C345 H351 0.929 . S
C346 C347 1.362 . S
C346 C349 1.378 . S
C346 H361 0.929 . S
C347 C346 1.362 . S
C347 C348 1.366 . S
C348 C345 1.365 . S
C348 C347 1.366 . S
C348 H362 0.930 . S
C349 C346 1.378 . S
C349 N350 1.315 . S
C349 H352 0.930 . S
N350 Co330 2.194 . S
N350 C345 1.328 . S
N350 C349 1.315 . S
H351 C345 0.929 . S
H352 C349 0.930 . S
H353 C341 0.929 . S
H354 C343 0.929 . S
O355 Co330 2.351 . S
O355 C358 1.244 . S
O356 Co330 2.155 . S
O356 C358 1.240 . S
O357 Co330 2.096 . S
O357 C338 1.247 . S
C358 O355 1.244 . S
C358 O356 1.240 . S
H359 C333 0.931 . S
H360 C342 0.931 . S
H361 C346 0.929 . S
H362 C348 0.930 . S
Co363 N367 2.148 . S
Co363 N373 2.128 . S
Co363 N383 2.194 . S
Co363 O388 2.351 . S
Co363 O389 2.155 . S
Co363 O390 2.096 . S
C364 N367 1.301 . S
C364 N368 1.328 . S
C364 H369 0.930 . S
C365 C366 1.333 . S
C365 N367 1.317 . S
C365 H370 0.930 . S
C366 C365 1.333 . S
C366 N368 1.350 . S
C366 H392 0.931 . S
N367 Co363 2.148 . S
N367 C364 1.301 . S
N367 C365 1.317 . S
N368 C364 1.328 . S
N368 C366 1.350 . S
H369 C364 0.930 . S
H370 C365 0.930 . S
C371 O372 1.224 . S
C371 O390 1.247 . S
O372 C371 1.224 . S
N373 Co363 2.128 . S
N373 C374 1.355 . S
N373 C376 1.311 . S
C374 N373 1.355 . S
C374 C375 1.363 . S
C374 H386 0.929 . S
C375 C374 1.363 . S
C375 N377 1.375 . S
C375 H393 0.931 . S
C376 N373 1.311 . S
C376 N377 1.347 . S
C376 H387 0.929 . S
N377 C375 1.375 . S
N377 C376 1.347 . S
C378 C381 1.365 . S
C378 N383 1.328 . S
C378 H384 0.929 . S
C379 C380 1.362 . S
C379 C382 1.378 . S
C379 H394 0.929 . S
C380 C379 1.362 . S
C380 C381 1.366 . S
C381 C378 1.365 . S
C381 C380 1.366 . S
C381 H395 0.930 . S
C382 C379 1.378 . S
C382 N383 1.315 . S
C382 H385 0.930 . S
N383 Co363 2.194 . S
N383 C378 1.328 . S
N383 C382 1.315 . S
H384 C378 0.929 . S
H385 C382 0.930 . S
H386 C374 0.929 . S
H387 C376 0.929 . S
O388 Co363 2.351 . S
O388 C391 1.244 . S
O389 Co363 2.155 . S
O389 C391 1.240 . S
O390 Co363 2.096 . S
O390 C371 1.247 . S
C391 O388 1.244 . S
C391 O389 1.240 . S
H392 C366 0.931 . S
H393 C375 0.931 . S
H394 C379 0.929 . S
H395 C381 0.930 . S
Co396 N400 2.148 . S
Co396 N406 2.128 . S
Co396 N416 2.194 . S
Co396 O421 2.351 . S
Co396 O422 2.155 . S
Co396 O423 2.096 . S
C397 N400 1.301 . S
C397 N401 1.328 . S
C397 H402 0.930 . S
C398 C399 1.333 . S
C398 N400 1.317 . S
C398 H403 0.930 . S
C399 C398 1.333 . S
C399 N401 1.350 . S
C399 H425 0.931 . S
N400 Co396 2.148 . S
N400 C397 1.301 . S
N400 C398 1.317 . S
N401 C397 1.328 . S
N401 C399 1.350 . S
H402 C397 0.930 . S
H403 C398 0.930 . S
C404 O405 1.224 . S
C404 O423 1.247 . S
O405 C404 1.224 . S
N406 Co396 2.128 . S
N406 C407 1.355 . S
N406 C409 1.311 . S
C407 N406 1.355 . S
C407 C408 1.363 . S
C407 H419 0.929 . S
C408 C407 1.363 . S
C408 N410 1.375 . S
C408 H426 0.931 . S
C409 N406 1.311 . S
C409 N410 1.347 . S
C409 H420 0.929 . S
N410 C408 1.375 . S
N410 C409 1.347 . S
C411 C414 1.365 . S
C411 N416 1.328 . S
C411 H417 0.929 . S
C412 C413 1.362 . S
C412 C415 1.378 . S
C412 H427 0.929 . S
C413 C412 1.362 . S
C413 C414 1.366 . S
C414 C411 1.365 . S
C414 C413 1.366 . S
C414 H428 0.930 . S
C415 C412 1.378 . S
C415 N416 1.315 . S
C415 H418 0.930 . S
N416 Co396 2.194 . S
N416 C411 1.328 . S
N416 C415 1.315 . S
H417 C411 0.929 . S
H418 C415 0.930 . S
H419 C407 0.929 . S
H420 C409 0.929 . S
O421 Co396 2.351 . S
O421 C424 1.244 . S
O422 Co396 2.155 . S
O422 C424 1.240 . S
O423 Co396 2.096 . S
O423 C404 1.247 . S
C424 O421 1.244 . S
C424 O422 1.240 . S
H425 C399 0.931 . S
H426 C408 0.931 . S
H427 C412 0.929 . S
H428 C414 0.930 . S
Co429 N433 2.148 . S
Co429 N439 2.128 . S
Co429 N449 2.194 . S
Co429 O454 2.351 . S
Co429 O455 2.155 . S
Co429 O456 2.096 . S
C430 N433 1.301 . S
C430 N434 1.328 . S
C430 H435 0.930 . S
C431 C432 1.333 . S
C431 N433 1.317 . S
C431 H436 0.930 . S
C432 C431 1.333 . S
C432 N434 1.350 . S
C432 H458 0.931 . S
N433 Co429 2.148 . S
N433 C430 1.301 . S
N433 C431 1.317 . S
N434 C430 1.328 . S
N434 C432 1.350 . S
H435 C430 0.930 . S
H436 C431 0.930 . S
C437 O438 1.224 . S
C437 O456 1.247 . S
O438 C437 1.224 . S
N439 Co429 2.128 . S
N439 C440 1.355 . S
N439 C442 1.311 . S
C440 N439 1.355 . S
C440 C441 1.363 . S
C440 H452 0.929 . S
C441 C440 1.363 . S
C441 N443 1.375 . S
C441 H459 0.931 . S
C442 N439 1.311 . S
C442 N443 1.347 . S
C442 H453 0.929 . S
N443 C441 1.375 . S
N443 C442 1.347 . S
C444 C447 1.365 . S
C444 N449 1.328 . S
C444 H450 0.929 . S
C445 C446 1.362 . S
C445 C448 1.378 . S
C445 H460 0.929 . S
C446 C445 1.362 . S
C446 C447 1.366 . S
C447 C444 1.365 . S
C447 C446 1.366 . S
C447 H461 0.930 . S
C448 C445 1.378 . S
C448 N449 1.315 . S
C448 H451 0.930 . S
N449 Co429 2.194 . S
N449 C444 1.328 . S
N449 C448 1.315 . S
H450 C444 0.929 . S
H451 C448 0.930 . S
H452 C440 0.929 . S
H453 C442 0.929 . S
O454 Co429 2.351 . S
O454 C457 1.244 . S
O455 Co429 2.155 . S
O455 C457 1.240 . S
O456 Co429 2.096 . S
O456 C437 1.247 . S
C457 O454 1.244 . S
C457 O455 1.240 . S
H458 C432 0.931 . S
H459 C441 0.931 . S
H460 C445 0.929 . S
H461 C447 0.930 . S
Co462 N466 2.148 . S
Co462 N472 2.128 . S
Co462 N482 2.194 . S
Co462 O487 2.351 . S
Co462 O488 2.155 . S
Co462 O489 2.096 . S
C463 N466 1.301 . S
C463 N467 1.328 . S
C463 H468 0.930 . S
C464 C465 1.333 . S
C464 N466 1.317 . S
C464 H469 0.930 . S
C465 C464 1.333 . S
C465 N467 1.350 . S
C465 H491 0.931 . S
N466 Co462 2.148 . S
N466 C463 1.301 . S
N466 C464 1.317 . S
N467 C463 1.328 . S
N467 C465 1.350 . S
H468 C463 0.930 . S
H469 C464 0.930 . S
C470 O471 1.224 . S
C470 O489 1.247 . S
O471 C470 1.224 . S
N472 Co462 2.128 . S
N472 C473 1.355 . S
N472 C475 1.311 . S
C473 N472 1.355 . S
C473 C474 1.363 . S
C473 H485 0.929 . S
C474 C473 1.363 . S
C474 N476 1.375 . S
C474 H492 0.931 . S
C475 N472 1.311 . S
C475 N476 1.347 . S
C475 H486 0.929 . S
N476 C474 1.375 . S
N476 C475 1.347 . S
C477 C480 1.365 . S
C477 N482 1.328 . S
C477 H483 0.929 . S
C478 C479 1.362 . S
C478 C481 1.378 . S
C478 H493 0.929 . S
C479 C478 1.362 . S
C479 C480 1.366 . S
C480 C477 1.365 . S
C480 C479 1.366 . S
C480 H494 0.930 . S
C481 C478 1.378 . S
C481 N482 1.315 . S
C481 H484 0.930 . S
N482 Co462 2.194 . S
N482 C477 1.328 . S
N482 C481 1.315 . S
H483 C477 0.929 . S
H484 C481 0.930 . S
H485 C473 0.929 . S
H486 C475 0.929 . S
O487 Co462 2.351 . S
O487 C490 1.244 . S
O488 Co462 2.155 . S
O488 C490 1.240 . S
O489 Co462 2.096 . S
O489 C470 1.247 . S
C490 O487 1.244 . S
C490 O488 1.240 . S
H491 C465 0.931 . S
H492 C474 0.931 . S
H493 C478 0.929 . S
H494 C480 0.930 . S
Co495 N499 2.148 . S
Co495 N505 2.128 . S
Co495 N515 2.194 . S
Co495 O520 2.351 . S
Co495 O521 2.155 . S
Co495 O522 2.096 . S
C496 N499 1.301 . S
C496 N500 1.328 . S
C496 H501 0.930 . S
C497 C498 1.333 . S
C497 N499 1.317 . S
C497 H502 0.930 . S
C498 C497 1.333 . S
C498 N500 1.350 . S
C498 H524 0.931 . S
N499 Co495 2.148 . S
N499 C496 1.301 . S
N499 C497 1.317 . S
N500 C496 1.328 . S
N500 C498 1.350 . S
H501 C496 0.930 . S
H502 C497 0.930 . S
C503 O504 1.224 . S
C503 O522 1.247 . S
O504 C503 1.224 . S
N505 Co495 2.128 . S
N505 C506 1.355 . S
N505 C508 1.311 . S
C506 N505 1.355 . S
C506 C507 1.363 . S
C506 H518 0.929 . S
C507 C506 1.363 . S
C507 N509 1.375 . S
C507 H525 0.931 . S
C508 N505 1.311 . S
C508 N509 1.347 . S
C508 H519 0.929 . S
N509 C507 1.375 . S
N509 C508 1.347 . S
C510 C513 1.365 . S
C510 N515 1.328 . S
C510 H516 0.929 . S
C511 C512 1.362 . S
C511 C514 1.378 . S
C511 H526 0.929 . S
C512 C511 1.362 . S
C512 C513 1.366 . S
C513 C510 1.365 . S
C513 C512 1.366 . S
C513 H527 0.930 . S
C514 C511 1.378 . S
C514 N515 1.315 . S
C514 H517 0.930 . S
N515 Co495 2.194 . S
N515 C510 1.328 . S
N515 C514 1.315 . S
H516 C510 0.929 . S
H517 C514 0.930 . S
H518 C506 0.929 . S
H519 C508 0.929 . S
O520 Co495 2.351 . S
O520 C523 1.244 . S
O521 Co495 2.155 . S
O521 C523 1.240 . S
O522 Co495 2.096 . S
O522 C503 1.247 . S
C523 O520 1.244 . S
C523 O521 1.240 . S
H524 C498 0.931 . S
H525 C507 0.931 . S
H526 C511 0.929 . S
H527 C513 0.930 . S
H528 C536 0.929 . S
H529 C538 0.930 . S
H530 C540 0.930 1_455 S
H531 C543 0.929 . S
H532 C546 0.930 . S
H533 C548 0.960 . S
H534 C548 0.960 . S
H535 C548 0.960 . S
C536 H528 0.929 . S
C536 C537 1.377 . S
C536 C538 1.384 . S
C537 C536 1.377 . S
C537 C543 1.390 . S
C538 H529 0.930 . S
C538 C536 1.384 . S
C538 C539 1.372 . S
C539 C538 1.372 . S
C539 C540 1.400 . S
C539 C544 1.490 . S
C540 H530 0.930 1_655 S
C540 C539 1.400 . S
C540 C543 1.386 . S
H541 C557 0.930 . S
H542 C558 0.931 . S
C543 H531 0.929 . S
C543 C537 1.390 . S
C543 C540 1.386 . S
C544 C539 1.490 . S
C544 C546 1.395 . S
C544 C547 1.403 1_655 S
H545 C551 0.930 . S
C546 H532 0.930 . S
C546 C544 1.395 . S
C546 C549 1.403 . S
C547 C544 1.403 1_455 S
C547 C548 1.524 . S
C547 C551 1.400 . S
C548 H533 0.960 . S
C548 H534 0.960 . S
C548 H535 0.960 . S
C548 C547 1.524 . S
C549 C546 1.403 . S
C549 C550 1.392 1_655 S
C549 C553 1.495 . S
C550 C549 1.392 1_455 S
C550 C551 1.385 . S
C550 C552 1.478 . S
C551 H545 0.930 . S
C551 C547 1.400 . S
C551 C550 1.385 . S
C552 C550 1.478 . S
C552 C554 1.381 . S
C552 C558 1.383 . S
C553 C549 1.495 . S
C553 H559 0.959 . S
C553 H560 0.961 . S
C553 H561 0.960 . S
C554 C552 1.381 . S
C554 C555 1.394 . S
C554 H562 0.930 1_455 S
C555 C554 1.394 . S
C555 C556 1.383 . S
C555 H563 0.929 . S
C556 C555 1.383 . S
C556 C557 1.377 . S
C557 H541 0.930 . S
C557 C556 1.377 . S
C557 C558 1.379 . S
C558 H542 0.931 . S
C558 C552 1.383 . S
C558 C557 1.379 . S
H559 C553 0.959 . S
H560 C553 0.961 . S
H561 C553 0.960 . S
H562 C554 0.930 1_655 S
H563 C555 0.929 . S
H564 C572 0.929 . S
H565 C574 0.930 . S
H566 C576 0.930 . S
H567 C579 0.929 . S
H568 C582 0.930 . S
H569 C584 0.960 . S
H570 C584 0.960 . S
H571 C584 0.960 . S
C572 H564 0.929 . S
C572 C573 1.377 . S
C572 C574 1.384 . S
C573 C572 1.377 . S
C573 C579 1.390 . S
C574 H565 0.930 . S
C574 C572 1.384 . S
C574 C575 1.372 . S
C575 C574 1.372 . S
C575 C576 1.400 . S
C575 C580 1.490 . S
C576 H566 0.930 . S
C576 C575 1.400 . S
C576 C579 1.386 . S
H577 C593 0.930 . S
H578 C594 0.931 . S
C579 H567 0.929 . S
C579 C573 1.390 . S
C579 C576 1.386 . S
C580 C575 1.490 . S
C580 C582 1.395 1_545 S
C580 C583 1.403 . S
H581 C587 0.930 . S
C582 H568 0.930 . S
C582 C580 1.395 1_565 S
C582 C585 1.403 . S
C583 C580 1.403 . S
C583 C584 1.524 . S
C583 C587 1.400 . S
C584 H569 0.960 . S
C584 H570 0.960 . S
C584 H571 0.960 . S
C584 C583 1.524 . S
C585 C582 1.403 . S
C585 C586 1.392 . S
C585 C589 1.495 . S
C586 C585 1.392 . S
C586 C587 1.385 1_565 S
C586 C588 1.478 . S
C587 H581 0.930 . S
C587 C583 1.400 . S
C587 C586 1.385 1_545 S
C588 C586 1.478 . S
C588 C590 1.381 . S
C588 C594 1.383 . S
C589 C585 1.495 . S
C589 H595 0.959 . S
C589 H596 0.961 . S
C589 H597 0.960 . S
C590 C588 1.381 . S
C590 C591 1.394 . S
C590 H598 0.930 . S
C591 C590 1.394 . S
C591 C592 1.383 . S
C591 H599 0.929 . S
C592 C591 1.383 . S
C592 C593 1.377 . S
C593 H577 0.930 . S
C593 C592 1.377 . S
C593 C594 1.379 . S
C594 H578 0.931 . S
C594 C588 1.383 . S
C594 C593 1.379 . S
H595 C589 0.959 . S
H596 C589 0.961 . S
H597 C589 0.960 . S
H598 C590 0.930 . S
H599 C591 0.929 . S
H600 C608 0.929 . S
H601 C610 0.930 . S
H602 C612 0.930 1_455 S
H603 C615 0.929 . S
H604 C618 0.930 . S
H605 C620 0.960 . S
H606 C620 0.960 . S
H607 C620 0.960 . S
C608 H600 0.929 . S
C608 C609 1.377 . S
C608 C610 1.384 . S
C609 C608 1.377 . S
C609 C615 1.390 . S
C610 H601 0.930 . S
C610 C608 1.384 . S
C610 C611 1.372 . S
C611 C610 1.372 . S
C611 C612 1.400 . S
C611 C616 1.490 . S
C612 H602 0.930 1_655 S
C612 C611 1.400 . S
C612 C615 1.386 . S
H613 C629 0.930 . S
H614 C630 0.931 . S
C615 H603 0.929 . S
C615 C609 1.390 . S
C615 C612 1.386 . S
C616 C611 1.490 . S
C616 C618 1.395 . S
C616 C619 1.403 1_655 S
H617 C623 0.930 . S
C618 H604 0.930 . S
C618 C616 1.395 . S
C618 C621 1.403 . S
C619 C616 1.403 1_455 S
C619 C620 1.524 . S
C619 C623 1.400 . S
C620 H605 0.960 . S
C620 H606 0.960 . S
C620 H607 0.960 . S
C620 C619 1.524 . S
C621 C618 1.403 . S
C621 C622 1.392 1_655 S
C621 C625 1.495 . S
C622 C621 1.392 1_455 S
C622 C623 1.385 . S
C622 C624 1.478 . S
C623 H617 0.930 . S
C623 C619 1.400 . S
C623 C622 1.385 . S
C624 C622 1.478 . S
C624 C626 1.381 . S
C624 C630 1.383 . S
C625 C621 1.495 . S
C625 H631 0.959 . S
C625 H632 0.961 . S
C625 H633 0.960 . S
C626 C624 1.381 . S
C626 C627 1.394 . S
C626 H634 0.930 1_455 S
C627 C626 1.394 . S
C627 C628 1.383 . S
C627 H635 0.929 . S
C628 C627 1.383 . S
C628 C629 1.377 . S
C629 H613 0.930 . S
C629 C628 1.377 . S
C629 C630 1.379 . S
C630 H614 0.931 . S
C630 C624 1.383 . S
C630 C629 1.379 . S
H631 C625 0.959 . S
H632 C625 0.961 . S
H633 C625 0.960 . S
H634 C626 0.930 1_655 S
H635 C627 0.929 . S
H636 C644 0.929 . S
H637 C646 0.930 . S
H638 C648 0.930 1_545 S
H639 C651 0.929 . S
H640 C654 0.930 . S
H641 C656 0.960 . S
H642 C656 0.960 . S
H643 C656 0.960 . S
C644 H636 0.929 . S
C644 C645 1.377 . S
C644 C646 1.384 . S
C645 C644 1.377 . S
C645 C651 1.390 . S
C646 H637 0.930 . S
C646 C644 1.384 . S
C646 C647 1.372 . S
C647 C646 1.372 . S
C647 C648 1.400 . S
C647 C652 1.490 . S
C648 H638 0.930 1_565 S
C648 C647 1.400 . S
C648 C651 1.386 . S
H649 C665 0.930 . S
H650 C666 0.931 . S
C651 H639 0.929 . S
C651 C645 1.390 . S
C651 C648 1.386 . S
C652 C647 1.490 . S
C652 C654 1.395 . S
C652 C655 1.403 1_565 S
H653 C659 0.930 . S
C654 H640 0.930 . S
C654 C652 1.395 . S
C654 C657 1.403 . S
C655 C652 1.403 1_545 S
C655 C656 1.524 . S
C655 C659 1.400 . S
C656 H641 0.960 . S
C656 H642 0.960 . S
C656 H643 0.960 . S
C656 C655 1.524 . S
C657 C654 1.403 . S
C657 C658 1.392 1_565 S
C657 C661 1.495 . S
C658 C657 1.392 1_545 S
C658 C659 1.385 . S
C658 C660 1.478 . S
C659 H653 0.930 . S
C659 C655 1.400 . S
C659 C658 1.385 . S
C660 C658 1.478 . S
C660 C662 1.381 . S
C660 C666 1.383 . S
C661 C657 1.495 . S
C661 H667 0.959 . S
C661 H668 0.961 . S
C661 H669 0.960 . S
C662 C660 1.381 . S
C662 C663 1.394 . S
C662 H670 0.930 1_545 S
C663 C662 1.394 . S
C663 C664 1.383 . S
C663 H671 0.929 . S
C664 C663 1.383 . S
C664 C665 1.377 . S
C665 H649 0.930 . S
C665 C664 1.377 . S
C665 C666 1.379 . S
C666 H650 0.931 . S
C666 C660 1.383 . S
C666 C665 1.379 . S
H667 C661 0.959 . S
H668 C661 0.961 . S
H669 C661 0.960 . S
H670 C662 0.930 1_565 S
H671 C663 0.929 . S
H672 C680 0.929 . S
H673 C682 0.930 . S
H674 C684 0.930 . S
H675 C687 0.929 . S
H676 C690 0.930 . S
H677 C692 0.960 . S
H678 C692 0.960 . S
H679 C692 0.960 . S
C680 H672 0.929 . S
C680 C681 1.377 . S
C680 C682 1.384 . S
C681 C680 1.377 . S
C681 C687 1.390 . S
C682 H673 0.930 . S
C682 C680 1.384 . S
C682 C683 1.372 . S
C683 C682 1.372 . S
C683 C684 1.400 . S
C683 C688 1.490 . S
C684 H674 0.930 . S
C684 C683 1.400 . S
C684 C687 1.386 . S
H685 C701 0.930 . S
H686 C702 0.931 . S
C687 H675 0.929 . S
C687 C681 1.390 . S
C687 C684 1.386 . S
C688 C683 1.490 . S
C688 C690 1.395 . S
C688 C691 1.403 . S
H689 C695 0.930 . S
C690 H676 0.930 . S
C690 C688 1.395 . S
C690 C693 1.403 1_565 S
C691 C688 1.403 . S
C691 C692 1.524 . S
C691 C695 1.400 1_565 S
C692 H677 0.960 . S
C692 H678 0.960 . S
C692 H679 0.960 . S
C692 C691 1.524 . S
C693 C690 1.403 1_545 S
C693 C694 1.392 . S
C693 C697 1.495 . S
C694 C693 1.392 . S
C694 C695 1.385 . S
C694 C696 1.478 . S
C695 H689 0.930 . S
C695 C691 1.400 1_545 S
C695 C694 1.385 . S
C696 C694 1.478 . S
C696 C698 1.381 . S
C696 C702 1.383 . S
C697 C693 1.495 . S
C697 H703 0.959 . S
C697 H704 0.961 . S
C697 H705 0.960 . S
C698 C696 1.381 . S
C698 C699 1.394 . S
C698 H706 0.930 . S
C699 C698 1.394 . S
C699 C700 1.383 . S
C699 H707 0.929 . S
C700 C699 1.383 . S
C700 C701 1.377 . S
C701 H685 0.930 . S
C701 C700 1.377 . S
C701 C702 1.379 . S
C702 H686 0.931 . S
C702 C696 1.383 . S
C702 C701 1.379 . S
H703 C697 0.959 . S
H704 C697 0.961 . S
H705 C697 0.960 . S
H706 C698 0.930 . S
H707 C699 0.929 . S
H708 C716 0.929 . S
H709 C718 0.930 . S
H710 C720 0.930 . S
H711 C723 0.929 . S
H712 C726 0.930 . S
H713 C728 0.964 . S
H714 C728 0.960 . S
H715 C728 0.960 . S
C716 H708 0.929 . S
C716 C717 1.377 . S
C716 C718 1.384 . S
C717 C716 1.377 . S
C717 C723 1.390 . S
C718 H709 0.930 . S
C718 C716 1.384 . S
C718 C719 1.372 . S
C719 C718 1.372 . S
C719 C720 1.400 . S
C719 C724 1.490 . S
C720 H710 0.930 . S
C720 C719 1.400 . S
C720 C723 1.386 . S
H721 C737 0.930 . S
H722 C738 0.931 . S
C723 H711 0.929 . S
C723 C717 1.390 . S
C723 C720 1.386 . S
C724 C719 1.490 . S
C724 C726 1.395 . S
C724 C727 1.403 . S
H725 C731 0.930 . S
C726 H712 0.930 . S
C726 C724 1.395 . S
C726 C729 1.403 1_655 S
C727 C724 1.403 . S
C727 C728 1.524 . S
C727 C731 1.400 1_655 S
C728 H713 0.964 . S
C728 H714 0.960 . S
C728 H715 0.960 . S
C728 C727 1.524 . S
C729 C726 1.403 1_455 S
C729 C730 1.392 . S
C729 C733 1.495 . S
C730 C729 1.392 . S
C730 C731 1.385 . S
C730 C732 1.478 . S
C731 H725 0.930 . S
C731 C727 1.400 1_455 S
C731 C730 1.385 . S
C732 C730 1.478 . S
C732 C734 1.381 . S
C732 C738 1.383 . S
C733 C729 1.495 . S
C733 H739 0.959 . S
C733 H740 0.961 . S
C733 H741 0.960 . S
C734 C732 1.381 . S
C734 C735 1.394 . S
C734 H742 0.930 . S
C735 C734 1.394 . S
C735 C736 1.383 . S
C735 H743 0.929 . S
C736 C735 1.383 . S
C736 C737 1.377 . S
C737 H721 0.930 . S
C737 C736 1.377 . S
C737 C738 1.379 . S
C738 H722 0.931 . S
C738 C732 1.383 . S
C738 C737 1.379 . S
H739 C733 0.959 . S
H740 C733 0.961 . S
H741 C733 0.960 . S
H742 C734 0.930 . S
H743 C735 0.929 . S
H744 C752 0.929 . S
H745 C754 0.930 . S
H746 C756 0.930 . S
H747 C759 0.929 . S
H748 C762 0.930 . S
H749 C764 0.960 1_545 S
H750 C764 0.960 . S
H751 C764 0.960 . S
C752 H744 0.929 . S
C752 C753 1.377 . S
C752 C754 1.384 . S
C753 C752 1.377 . S
C753 C759 1.390 . S
C754 H745 0.930 . S
C754 C752 1.384 . S
C754 C755 1.372 . S
C755 C754 1.372 . S
C755 C756 1.400 . S
C755 C760 1.490 . S
C756 H746 0.930 . S
C756 C755 1.400 . S
C756 C759 1.386 . S
H757 C773 0.930 . S
H758 C774 0.931 . S
C759 H747 0.929 . S
C759 C753 1.390 . S
C759 C756 1.386 . S
C760 C755 1.490 . S
C760 C762 1.395 . S
C760 C763 1.403 . S
H761 C767 0.930 . S
C762 H748 0.930 . S
C762 C760 1.395 . S
C762 C765 1.403 1_565 S
C763 C760 1.403 . S
C763 C764 1.524 . S
C763 C767 1.400 1_565 S
C764 H749 0.960 1_565 S
C764 H750 0.960 . S
C764 H751 0.960 . S
C764 C763 1.524 . S
C765 C762 1.403 1_545 S
C765 C766 1.392 . S
C765 C769 1.495 . S
C766 C765 1.392 . S
C766 C767 1.385 . S
C766 C768 1.478 . S
C767 H761 0.930 . S
C767 C763 1.400 1_545 S
C767 C766 1.385 . S
C768 C766 1.478 . S
C768 C770 1.381 . S
C768 C774 1.383 . S
C769 C765 1.495 . S
C769 H775 0.959 1_545 S
C769 H776 0.961 . S
C769 H777 0.960 . S
C770 C768 1.381 . S
C770 C771 1.394 . S
C770 H778 0.930 . S
C771 C770 1.394 . S
C771 C772 1.383 . S
C771 H779 0.929 . S
C772 C771 1.383 . S
C772 C773 1.377 . S
C773 H757 0.930 . S
C773 C772 1.377 . S
C773 C774 1.379 . S
C774 H758 0.931 . S
C774 C768 1.383 . S
C774 C773 1.379 . S
H775 C769 0.959 1_565 S
H776 C769 0.961 . S
H777 C769 0.960 . S
H778 C770 0.930 . S
H779 C771 0.929 . S
H780 C788 0.929 . S
H781 C790 0.930 . S
H782 C792 0.930 . S
H783 C795 0.929 . S
H784 C798 0.930 . S
H785 C800 0.960 . S
H786 C800 0.960 . S
H787 C800 0.960 . S
C788 H780 0.929 . S
C788 C789 1.377 . S
C788 C790 1.384 . S
C789 C788 1.377 . S
C789 C795 1.390 . S
C790 H781 0.930 . S
C790 C788 1.384 . S
C790 C791 1.372 . S
C791 C790 1.372 . S
C791 C792 1.400 . S
C791 C796 1.490 . S
C792 H782 0.930 . S
C792 C791 1.400 . S
C792 C795 1.386 . S
H793 C809 0.930 . S
H794 C810 0.931 . S
C795 H783 0.929 . S
C795 C789 1.390 . S
C795 C792 1.386 . S
C796 C791 1.490 . S
C796 C798 1.395 . S
C796 C799 1.403 . S
H797 C803 0.930 . S
C798 H784 0.930 . S
C798 C796 1.395 . S
C798 C801 1.403 1_655 S
C799 C796 1.403 . S
C799 C800 1.524 . S
C799 C803 1.400 1_655 S
C800 H785 0.960 . S
C800 H786 0.960 . S
C800 H787 0.960 . S
C800 C799 1.524 . S
C801 C798 1.403 1_455 S
C801 C802 1.392 . S
C801 C805 1.495 . S
C802 C801 1.392 . S
C802 C803 1.385 . S
C802 C804 1.478 . S
C803 H797 0.930 . S
C803 C799 1.400 1_455 S
C803 C802 1.385 . S
C804 C802 1.478 . S
C804 C806 1.381 . S
C804 C810 1.383 . S
C805 C801 1.495 . S
C805 H811 0.959 . S
C805 H812 0.961 . S
C805 H813 0.960 . S
C806 C804 1.381 . S
C806 C807 1.394 . S
C806 H814 0.930 . S
C807 C806 1.394 . S
C807 C808 1.383 . S
C807 H815 0.929 . S
C808 C807 1.383 . S
C808 C809 1.377 . S
C809 H793 0.930 . S
C809 C808 1.377 . S
C809 C810 1.379 . S
C810 H794 0.931 . S
C810 C804 1.383 . S
C810 C809 1.379 . S
H811 C805 0.959 . S
H812 C805 0.961 . S
H813 C805 0.960 . S
H814 C806 0.930 . S
H815 C807 0.929 . S
H816 C824 0.929 . S
H817 C826 0.930 . S
H818 C828 0.930 . S
H819 C831 0.929 . S
H820 C834 0.930 . S
H821 C836 0.960 . S
H822 C836 0.960 . S
H823 C836 0.960 . S
C824 H816 0.929 . S
C824 C825 1.377 . S
C824 C826 1.384 . S
C825 C824 1.377 . S
C825 C831 1.390 . S
C826 H817 0.930 . S
C826 C824 1.384 . S
C826 C827 1.372 . S
C827 C826 1.372 . S
C827 C828 1.400 . S
C827 C832 1.490 . S
C828 H818 0.930 . S
C828 C827 1.400 . S
C828 C831 1.386 . S
H829 C845 0.930 . S
H830 C846 0.931 . S
C831 H819 0.929 . S
C831 C825 1.390 . S
C831 C828 1.386 . S
C832 C827 1.490 . S
C832 C834 1.395 . S
C832 C835 1.403 . S
H833 C839 0.930 . S
C834 H820 0.930 . S
C834 C832 1.395 . S
C834 C837 1.403 . S
C835 C832 1.403 . S
C835 C836 1.524 . S
C835 C839 1.400 . S
C836 H821 0.960 . S
C836 H822 0.960 . S
C836 H823 0.960 . S
C836 C835 1.524 . S
C837 C834 1.403 . S
C837 C838 1.392 . S
C837 C841 1.495 . S
C838 C837 1.392 . S
C838 C839 1.385 . S
C838 C840 1.478 . S
C839 H833 0.930 . S
C839 C835 1.400 . S
C839 C838 1.385 . S
C840 C838 1.478 . S
C840 C842 1.381 . S
C840 C846 1.383 . S
C841 C837 1.495 . S
C841 H847 0.959 . S
C841 H848 0.961 . S
C841 H849 0.960 . S
C842 C840 1.381 . S
C842 C843 1.394 . S
C842 H850 0.930 . S
C843 C842 1.394 . S
C843 C844 1.383 . S
C843 H851 0.929 . S
C844 C843 1.383 . S
C844 C845 1.377 . S
C845 H829 0.930 . S
C845 C844 1.377 . S
C845 C846 1.379 . S
C846 H830 0.931 . S
C846 C840 1.383 . S
C846 C845 1.379 . S
H847 C841 0.959 . S
H848 C841 0.961 . S
H849 C841 0.960 . S
H850 C842 0.930 . S
H851 C843 0.929 . S
H852 C860 0.929 . S
H853 C862 0.930 . S
H854 C864 0.930 . S
H855 C867 0.929 . S
H856 C870 0.930 . S
H857 C872 0.960 . S
H858 C872 0.960 . S
H859 C872 0.960 . S
C860 H852 0.929 . S
C860 C861 1.377 . S
C860 C862 1.384 . S
C861 C860 1.377 . S
C861 C867 1.390 . S
C862 H853 0.930 . S
C862 C860 1.384 . S
C862 C863 1.372 . S
C863 C862 1.372 . S
C863 C864 1.400 . S
C863 C868 1.490 . S
C864 H854 0.930 . S
C864 C863 1.400 . S
C864 C867 1.386 . S
H865 C881 0.930 . S
H866 C882 0.931 . S
C867 H855 0.929 . S
C867 C861 1.390 . S
C867 C864 1.386 . S
C868 C863 1.490 . S
C868 C870 1.395 . S
C868 C871 1.403 . S
H869 C875 0.930 . S
C870 H856 0.930 . S
C870 C868 1.395 . S
C870 C873 1.403 . S
C871 C868 1.403 . S
C871 C872 1.524 . S
C871 C875 1.400 . S
C872 H857 0.960 . S
C872 H858 0.960 . S
C872 H859 0.960 . S
C872 C871 1.524 . S
C873 C870 1.403 . S
C873 C874 1.392 . S
C873 C877 1.495 . S
C874 C873 1.392 . S
C874 C875 1.385 . S
C874 C876 1.478 . S
C875 H869 0.930 . S
C875 C871 1.400 . S
C875 C874 1.385 . S
C876 C874 1.478 . S
C876 C878 1.381 . S
C876 C882 1.383 . S
C877 C873 1.495 . S
C877 H883 0.959 . S
C877 H884 0.961 . S
C877 H885 0.960 . S
C878 C876 1.381 . S
C878 C879 1.394 . S
C878 H886 0.930 . S
C879 C878 1.394 . S
C879 C880 1.383 . S
C879 H887 0.929 . S
C880 C879 1.383 . S
C880 C881 1.377 . S
C881 H865 0.930 . S
C881 C880 1.377 . S
C881 C882 1.379 . S
C882 H866 0.931 . S
C882 C876 1.383 . S
C882 C881 1.379 . S
H883 C877 0.959 . S
H884 C877 0.961 . S
H885 C877 0.960 . S
H886 C878 0.930 . S
H887 C879 0.929 . S
H888 C896 0.929 . S
H889 C898 0.930 . S
H890 C900 0.930 . S
H891 C903 0.929 . S
H892 C906 0.930 . S
H893 C908 0.960 . S
H894 C908 0.960 . S
H895 C908 0.960 . S
C896 H888 0.929 . S
C896 C897 1.377 . S
C896 C898 1.384 . S
C897 C896 1.377 . S
C897 C903 1.390 . S
C898 H889 0.930 . S
C898 C896 1.384 . S
C898 C899 1.372 . S
C899 C898 1.372 . S
C899 C900 1.400 . S
C899 C904 1.490 . S
C900 H890 0.930 . S
C900 C899 1.400 . S
C900 C903 1.386 . S
H901 C917 0.930 . S
H902 C918 0.931 . S
C903 H891 0.929 . S
C903 C897 1.390 . S
C903 C900 1.386 . S
C904 C899 1.490 . S
C904 C906 1.395 . S
C904 C907 1.403 . S
H905 C911 0.930 . S
C906 H892 0.930 . S
C906 C904 1.395 . S
C906 C909 1.403 . S
C907 C904 1.403 . S
C907 C908 1.524 . S
C907 C911 1.400 . S
C908 H893 0.960 . S
C908 H894 0.960 . S
C908 H895 0.960 . S
C908 C907 1.524 . S
C909 C906 1.403 . S
C909 C910 1.392 . S
C909 C913 1.495 . S
C910 C909 1.392 . S
C910 C911 1.385 . S
C910 C912 1.478 . S
C911 H905 0.930 . S
C911 C907 1.400 . S
C911 C910 1.385 . S
C912 C910 1.478 . S
C912 C914 1.381 . S
C912 C918 1.383 . S
C913 C909 1.495 . S
C913 H919 0.959 . S
C913 H920 0.961 . S
C913 H921 0.960 . S
C914 C912 1.381 . S
C914 C915 1.394 . S
C914 H922 0.930 . S
C915 C914 1.394 . S
C915 C916 1.383 . S
C915 H923 0.929 . S
C916 C915 1.383 . S
C916 C917 1.377 . S
C917 H901 0.930 . S
C917 C916 1.377 . S
C917 C918 1.379 . S
C918 H902 0.931 . S
C918 C912 1.383 . S
C918 C917 1.379 . S
H919 C913 0.959 . S
H920 C913 0.961 . S
H921 C913 0.960 . S
H922 C914 0.930 . S
H923 C915 0.929 . S
H924 C932 0.929 . S
H925 C934 0.930 . S
H926 C936 0.930 . S
H927 C939 0.929 . S
H928 C942 0.930 . S
H929 C944 0.960 . S
H930 C944 0.960 . S
H931 C944 0.960 . S
C932 H924 0.929 . S
C932 C933 1.377 . S
C932 C934 1.384 . S
C933 C932 1.377 . S
C933 C939 1.390 . S
C934 H925 0.930 . S
C934 C932 1.384 . S
C934 C935 1.372 . S
C935 C934 1.372 . S
C935 C936 1.400 . S
C935 C940 1.490 . S
C936 H926 0.930 . S
C936 C935 1.400 . S
C936 C939 1.386 . S
H937 C953 0.930 . S
H938 C954 0.931 . S
C939 H927 0.929 . S
C939 C933 1.390 . S
C939 C936 1.386 . S
C940 C935 1.490 . S
C940 C942 1.395 . S
C940 C943 1.403 . S
H941 C947 0.930 . S
C942 H928 0.930 . S
C942 C940 1.395 . S
C942 C945 1.403 . S
C943 C940 1.403 . S
C943 C944 1.524 . S
C943 C947 1.400 . S
C944 H929 0.960 . S
C944 H930 0.960 . S
C944 H931 0.960 . S
C944 C943 1.524 . S
C945 C942 1.403 . S
C945 C946 1.392 . S
C945 C949 1.495 . S
C946 C945 1.392 . S
C946 C947 1.385 . S
C946 C948 1.478 . S
C947 H941 0.930 . S
C947 C943 1.400 . S
C947 C946 1.385 . S
C948 C946 1.478 . S
C948 C950 1.381 . S
C948 C954 1.383 . S
C949 C945 1.495 . S
C949 H955 0.959 . S
C949 H956 0.961 . S
C949 H957 0.960 . S
C950 C948 1.381 . S
C950 C951 1.394 . S
C950 H958 0.930 . S
C951 C950 1.394 . S
C951 C952 1.383 . S
C951 H959 0.929 . S
C952 C951 1.383 . S
C952 C953 1.377 . S
C953 H937 0.930 . S
C953 C952 1.377 . S
C953 C954 1.379 . S
C954 H938 0.931 . S
C954 C948 1.383 . S
C954 C953 1.379 . S
H955 C949 0.959 . S
H956 C949 0.961 . S
H957 C949 0.960 . S
H958 C950 0.930 . S
H959 C951 0.929 . S
H960 C968 0.929 . S
H961 C970 0.930 . S
H962 C972 0.930 . S
H963 C975 0.929 . S
H964 C978 0.930 . S
H965 C980 0.960 . S
H966 C980 0.960 . S
H967 C980 0.960 . S
C968 H960 0.929 . S
C968 C969 1.377 . S
C968 C970 1.384 . S
C969 C968 1.377 . S
C969 C975 1.390 . S
C970 H961 0.930 . S
C970 C968 1.384 . S
C970 C971 1.372 . S
C971 C970 1.372 . S
C971 C972 1.400 . S
C971 C976 1.490 . S
C972 H962 0.930 . S
C972 C971 1.400 . S
C972 C975 1.386 . S
H973 C989 0.930 . S
H974 C990 0.931 . S
C975 H963 0.929 . S
C975 C969 1.390 . S
C975 C972 1.386 . S
C976 C971 1.490 . S
C976 C978 1.395 . S
C976 C979 1.403 . S
H977 C983 0.930 . S
C978 H964 0.930 . S
C978 C976 1.395 . S
C978 C981 1.403 . S
C979 C976 1.403 . S
C979 C980 1.524 . S
C979 C983 1.400 . S
C980 H965 0.960 . S
C980 H966 0.960 . S
C980 H967 0.960 . S
C980 C979 1.524 . S
C981 C978 1.403 . S
C981 C982 1.392 . S
C981 C985 1.495 . S
C982 C981 1.392 . S
C982 C983 1.385 . S
C982 C984 1.478 . S
C983 H977 0.930 . S
C983 C979 1.400 . S
C983 C982 1.385 . S
C984 C982 1.478 . S
C984 C986 1.381 . S
C984 C990 1.383 . S
C985 C981 1.495 . S
C985 H991 0.959 . S
C985 H992 0.961 . S
C985 H993 0.960 . S
C986 C984 1.381 . S
C986 C987 1.394 . S
C986 H994 0.930 . S
C987 C986 1.394 . S
C987 C988 1.383 . S
C987 H995 0.929 . S
C988 C987 1.383 . S
C988 C989 1.377 . S
C989 H973 0.930 . S
C989 C988 1.377 . S
C989 C990 1.379 . S
C990 H974 0.931 . S
C990 C984 1.383 . S
C990 C989 1.379 . S
H991 C985 0.959 . S
H992 C985 0.961 . S
H993 C985 0.960 . S
H994 C986 0.930 . S
H995 C987 0.929 . S
H996 C1004 0.929 . S
H997 C1006 0.930 . S
H998 C1008 0.930 . S
H999 C1011 0.929 . S
H1000 C1014 0.930 . S
H1001 C1016 0.960 . S
H1002 C1016 0.960 . S
H1003 C1016 0.960 . S
C1004 H996 0.929 . S
C1004 C1005 1.377 . S
C1004 C1006 1.384 . S
C1005 C1004 1.377 . S
C1005 C1011 1.390 . S
C1006 H997 0.930 . S
C1006 C1004 1.384 . S
C1006 C1007 1.372 . S
C1007 C1006 1.372 . S
C1007 C1008 1.400 . S
C1007 C1012 1.490 . S
C1008 H998 0.930 . S
C1008 C1007 1.400 . S
C1008 C1011 1.386 . S
H1009 C1025 0.930 . S
H1010 C1026 0.931 . S
C1011 H999 0.929 . S
C1011 C1005 1.390 . S
C1011 C1008 1.386 . S
C1012 C1007 1.490 . S
C1012 C1014 1.395 . S
C1012 C1015 1.403 . S
H1013 C1019 0.930 . S
C1014 H1000 0.930 . S
C1014 C1012 1.395 . S
C1014 C1017 1.403 . S
C1015 C1012 1.403 . S
C1015 C1016 1.524 . S
C1015 C1019 1.400 . S
C1016 H1001 0.960 . S
C1016 H1002 0.960 . S
C1016 H1003 0.960 . S
C1016 C1015 1.524 . S
C1017 C1014 1.403 . S
C1017 C1018 1.392 . S
C1017 C1021 1.495 . S
C1018 C1017 1.392 . S
C1018 C1019 1.385 . S
C1018 C1020 1.478 . S
C1019 H1013 0.930 . S
C1019 C1015 1.400 . S
C1019 C1018 1.385 . S
C1020 C1018 1.478 . S
C1020 C1022 1.381 . S
C1020 C1026 1.383 . S
C1021 C1017 1.495 . S
C1021 H1027 0.959 . S
C1021 H1028 0.961 . S
C1021 H1029 0.960 . S
C1022 C1020 1.381 . S
C1022 C1023 1.394 . S
C1022 H1030 0.930 . S
C1023 C1022 1.394 . S
C1023 C1024 1.383 . S
C1023 H1031 0.929 . S
C1024 C1023 1.383 . S
C1024 C1025 1.377 . S
C1025 H1009 0.930 . S
C1025 C1024 1.377 . S
C1025 C1026 1.379 . S
C1026 H1010 0.931 . S
C1026 C1020 1.383 . S
C1026 C1025 1.379 . S
H1027 C1021 0.959 . S
H1028 C1021 0.961 . S
H1029 C1021 0.960 . S
H1030 C1022 0.930 . S
H1031 C1023 0.929 . S
H1032 C1040 0.929 . S
H1033 C1042 0.930 . S
H1034 C1044 0.930 . S
H1035 C1047 0.929 . S
H1036 C1050 0.930 . S
H1037 C1052 0.960 . S
H1038 C1052 0.960 . S
H1039 C1052 0.960 . S
C1040 H1032 0.929 . S
C1040 C1041 1.377 . S
C1040 C1042 1.384 . S
C1041 C1040 1.377 . S
C1041 C1047 1.390 . S
C1042 H1033 0.930 . S
C1042 C1040 1.384 . S
C1042 C1043 1.372 . S
C1043 C1042 1.372 . S
C1043 C1044 1.400 . S
C1043 C1048 1.490 . S
C1044 H1034 0.930 . S
C1044 C1043 1.400 . S
C1044 C1047 1.386 . S
H1045 C1061 0.930 . S
H1046 C1062 0.931 . S
C1047 H1035 0.929 . S
C1047 C1041 1.390 . S
C1047 C1044 1.386 . S
C1048 C1043 1.490 . S
C1048 C1050 1.395 . S
C1048 C1051 1.403 . S
H1049 C1055 0.930 . S
C1050 H1036 0.930 . S
C1050 C1048 1.395 . S
C1050 C1053 1.403 . S
C1051 C1048 1.403 . S
C1051 C1052 1.524 . S
C1051 C1055 1.400 . S
C1052 H1037 0.960 . S
C1052 H1038 0.960 . S
C1052 H1039 0.960 . S
C1052 C1051 1.524 . S
C1053 C1050 1.403 . S
C1053 C1054 1.392 . S
C1053 C1057 1.495 . S
C1054 C1053 1.392 . S
C1054 C1055 1.385 . S
C1054 C1056 1.478 . S
C1055 H1049 0.930 . S
C1055 C1051 1.400 . S
C1055 C1054 1.385 . S
C1056 C1054 1.478 . S
C1056 C1058 1.381 . S
C1056 C1062 1.383 . S
C1057 C1053 1.495 . S
C1057 H1063 0.959 . S
C1057 H1064 0.961 . S
C1057 H1065 0.960 . S
C1058 C1056 1.381 . S
C1058 C1059 1.394 . S
C1058 H1066 0.930 . S
C1059 C1058 1.394 . S
C1059 C1060 1.383 . S
C1059 H1067 0.929 . S
C1060 C1059 1.383 . S
C1060 C1061 1.377 . S
C1061 H1045 0.930 . S
C1061 C1060 1.377 . S
C1061 C1062 1.379 . S
C1062 H1046 0.931 . S
C1062 C1056 1.383 . S
C1062 C1061 1.379 . S
H1063 C1057 0.959 . S
H1064 C1057 0.961 . S
H1065 C1057 0.960 . S
H1066 C1058 0.930 . S
H1067 C1059 0.929 . S
H1068 C1076 0.929 . S
H1069 C1078 0.930 . S
H1070 C1080 0.930 . S
H1071 C1083 0.929 . S
H1072 C1086 0.930 . S
H1073 C1088 0.960 . S
H1074 C1088 0.960 . S
H1075 C1088 0.960 . S
C1076 H1068 0.929 . S
C1076 C1077 1.377 . S
C1076 C1078 1.384 . S
C1077 C1076 1.377 . S
C1077 C1083 1.390 . S
C1078 H1069 0.930 . S
C1078 C1076 1.384 . S
C1078 C1079 1.372 . S
C1079 C1078 1.372 . S
C1079 C1080 1.400 . S
C1079 C1084 1.490 . S
C1080 H1070 0.930 . S
C1080 C1079 1.400 . S
C1080 C1083 1.386 . S
H1081 C1097 0.930 . S
H1082 C1098 0.931 . S
C1083 H1071 0.929 . S
C1083 C1077 1.390 . S
C1083 C1080 1.386 . S
C1084 C1079 1.490 . S
C1084 C1086 1.395 . S
C1084 C1087 1.403 . S
H1085 C1091 0.930 . S
C1086 H1072 0.930 . S
C1086 C1084 1.395 . S
C1086 C1089 1.403 . S
C1087 C1084 1.403 . S
C1087 C1088 1.524 . S
C1087 C1091 1.400 . S
C1088 H1073 0.960 . S
C1088 H1074 0.960 . S
C1088 H1075 0.960 . S
C1088 C1087 1.524 . S
C1089 C1086 1.403 . S
C1089 C1090 1.392 . S
C1089 C1093 1.495 . S
C1090 C1089 1.392 . S
C1090 C1091 1.385 . S
C1090 C1092 1.478 . S
C1091 H1085 0.930 . S
C1091 C1087 1.400 . S
C1091 C1090 1.385 . S
C1092 C1090 1.478 . S
C1092 C1094 1.381 . S
C1092 C1098 1.383 . S
C1093 C1089 1.495 . S
C1093 H1099 0.959 . S
C1093 H1100 0.961 . S
C1093 H1101 0.960 . S
C1094 C1092 1.381 . S
C1094 C1095 1.394 . S
C1094 H1102 0.930 . S
C1095 C1094 1.394 . S
C1095 C1096 1.383 . S
C1095 H1103 0.929 . S
C1096 C1095 1.383 . S
C1096 C1097 1.377 . S
C1097 H1081 0.930 . S
C1097 C1096 1.377 . S
C1097 C1098 1.379 . S
C1098 H1082 0.931 . S
C1098 C1092 1.383 . S
C1098 C1097 1.379 . S
H1099 C1093 0.959 . S
H1100 C1093 0.961 . S
H1101 C1093 0.960 . S
H1102 C1094 0.930 . S
H1103 C1095 0.929 . S
H1104 C1112 0.929 . S
H1105 C1114 0.930 . S
H1106 C1116 0.930 . S
H1107 C1119 0.929 . S
H1108 C1122 0.930 . S
H1109 C1124 0.960 . S
H1110 C1124 0.960 . S
H1111 C1124 0.960 . S
C1112 H1104 0.929 . S
C1112 C1113 1.377 . S
C1112 C1114 1.384 . S
C1113 C1112 1.377 . S
C1113 C1119 1.390 . S
C1114 H1105 0.930 . S
C1114 C1112 1.384 . S
C1114 C1115 1.372 . S
C1115 C1114 1.372 . S
C1115 C1116 1.400 . S
C1115 C1120 1.490 . S
C1116 H1106 0.930 . S
C1116 C1115 1.400 . S
C1116 C1119 1.386 . S
H1117 C1133 0.930 . S
H1118 C1134 0.931 . S
C1119 H1107 0.929 . S
C1119 C1113 1.390 . S
C1119 C1116 1.386 . S
C1120 C1115 1.490 . S
C1120 C1122 1.395 . S
C1120 C1123 1.403 . S
H1121 C1127 0.930 . S
C1122 H1108 0.930 . S
C1122 C1120 1.395 . S
C1122 C1125 1.403 . S
C1123 C1120 1.403 . S
C1123 C1124 1.524 . S
C1123 C1127 1.400 . S
C1124 H1109 0.960 . S
C1124 H1110 0.960 . S
C1124 H1111 0.960 . S
C1124 C1123 1.524 . S
C1125 C1122 1.403 . S
C1125 C1126 1.392 . S
C1125 C1129 1.495 . S
C1126 C1125 1.392 . S
C1126 C1127 1.385 . S
C1126 C1128 1.478 . S
C1127 H1121 0.930 . S
C1127 C1123 1.400 . S
C1127 C1126 1.385 . S
C1128 C1126 1.478 . S
C1128 C1130 1.381 . S
C1128 C1134 1.383 . S
C1129 C1125 1.495 . S
C1129 H1135 0.959 . S
C1129 H1136 0.961 . S
C1129 H1137 0.960 . S
C1130 C1128 1.381 . S
C1130 C1131 1.394 . S
C1130 H1138 0.930 . S
C1131 C1130 1.394 . S
C1131 C1132 1.383 . S
C1131 H1139 0.929 . S
C1132 C1131 1.383 . S
C1132 C1133 1.377 . S
C1133 H1117 0.930 . S
C1133 C1132 1.377 . S
C1133 C1134 1.379 . S
C1134 H1118 0.931 . S
C1134 C1128 1.383 . S
C1134 C1133 1.379 . S
H1135 C1129 0.959 . S
H1136 C1129 0.961 . S
H1137 C1129 0.960 . S
H1138 C1130 0.930 . S
H1139 C1131 0.929 . S
H1140 C1148 0.929 . S
H1141 C1150 0.930 . S
H1142 C1152 0.930 . S
H1143 C1155 0.929 . S
H1144 C1158 0.930 . S
H1145 C1160 0.960 . S
H1146 C1160 0.960 . S
H1147 C1160 0.960 . S
C1148 H1140 0.929 . S
C1148 C1149 1.377 . S
C1148 C1150 1.384 . S
C1149 C1148 1.377 . S
C1149 C1155 1.390 . S
C1150 H1141 0.930 . S
C1150 C1148 1.384 . S
C1150 C1151 1.372 . S
C1151 C1150 1.372 . S
C1151 C1152 1.400 . S
C1151 C1156 1.490 . S
C1152 H1142 0.930 . S
C1152 C1151 1.400 . S
C1152 C1155 1.386 . S
H1153 C1169 0.930 . S
H1154 C1170 0.931 . S
C1155 H1143 0.929 . S
C1155 C1149 1.390 . S
C1155 C1152 1.386 . S
C1156 C1151 1.490 . S
C1156 C1158 1.395 . S
C1156 C1159 1.403 . S
H1157 C1163 0.930 . S
C1158 H1144 0.930 . S
C1158 C1156 1.395 . S
C1158 C1161 1.403 . S
C1159 C1156 1.403 . S
C1159 C1160 1.524 . S
C1159 C1163 1.400 . S
C1160 H1145 0.960 . S
C1160 H1146 0.960 . S
C1160 H1147 0.960 . S
C1160 C1159 1.524 . S
C1161 C1158 1.403 . S
C1161 C1162 1.392 . S
C1161 C1165 1.495 . S
C1162 C1161 1.392 . S
C1162 C1163 1.385 . S
C1162 C1164 1.478 . S
C1163 H1157 0.930 . S
C1163 C1159 1.400 . S
C1163 C1162 1.385 . S
C1164 C1162 1.478 . S
C1164 C1166 1.381 . S
C1164 C1170 1.383 . S
C1165 C1161 1.495 . S
C1165 H1171 0.959 . S
C1165 H1172 0.961 . S
C1165 H1173 0.960 . S
C1166 C1164 1.381 . S
C1166 C1167 1.394 . S
C1166 H1174 0.930 . S
C1167 C1166 1.394 . S
C1167 C1168 1.383 . S
C1167 H1175 0.929 . S
C1168 C1167 1.383 . S
C1168 C1169 1.377 . S
C1169 H1153 0.930 . S
C1169 C1168 1.377 . S
C1169 C1170 1.379 . S
C1170 H1154 0.931 . S
C1170 C1164 1.383 . S
C1170 C1169 1.379 . S
H1171 C1165 0.959 . S
H1172 C1165 0.961 . S
H1173 C1165 0.960 . S
H1174 C1166 0.930 . S
H1175 C1167 0.929 . S
H1176 C1184 0.929 . S
H1177 C1186 0.930 . S
H1178 C1188 0.930 . S
H1179 C1191 0.929 . S
H1180 C1194 0.930 . S
H1181 C1196 0.960 . S
H1182 C1196 0.960 . S
H1183 C1196 0.960 . S
C1184 H1176 0.929 . S
C1184 C1185 1.377 . S
C1184 C1186 1.384 . S
C1185 C1184 1.377 . S
C1185 C1191 1.390 . S
C1186 H1177 0.930 . S
C1186 C1184 1.384 . S
C1186 C1187 1.372 . S
C1187 C1186 1.372 . S
C1187 C1188 1.400 . S
C1187 C1192 1.490 . S
C1188 H1178 0.930 . S
C1188 C1187 1.400 . S
C1188 C1191 1.386 . S
H1189 C1205 0.930 . S
H1190 C1206 0.931 . S
C1191 H1179 0.929 . S
C1191 C1185 1.390 . S
C1191 C1188 1.386 . S
C1192 C1187 1.490 . S
C1192 C1194 1.395 . S
C1192 C1195 1.403 . S
H1193 C1199 0.930 . S
C1194 H1180 0.930 . S
C1194 C1192 1.395 . S
C1194 C1197 1.403 . S
C1195 C1192 1.403 . S
C1195 C1196 1.524 . S
C1195 C1199 1.400 . S
C1196 H1181 0.960 . S
C1196 H1182 0.960 . S
C1196 H1183 0.960 . S
C1196 C1195 1.524 . S
C1197 C1194 1.403 . S
C1197 C1198 1.392 . S
C1197 C1201 1.495 . S
C1198 C1197 1.392 . S
C1198 C1199 1.385 . S
C1198 C1200 1.478 . S
C1199 H1193 0.930 . S
C1199 C1195 1.400 . S
C1199 C1198 1.385 . S
C1200 C1198 1.478 . S
C1200 C1202 1.381 . S
C1200 C1206 1.383 . S
C1201 C1197 1.495 . S
C1201 H1207 0.959 . S
C1201 H1208 0.961 . S
C1201 H1209 0.960 . S
C1202 C1200 1.381 . S
C1202 C1203 1.394 . S
C1202 H1210 0.930 . S
C1203 C1202 1.394 . S
C1203 C1204 1.383 . S
C1203 H1211 0.929 . S
C1204 C1203 1.383 . S
C1204 C1205 1.377 . S
C1205 H1189 0.930 . S
C1205 C1204 1.377 . S
C1205 C1206 1.379 . S
C1206 H1190 0.931 . S
C1206 C1200 1.383 . S
C1206 C1205 1.379 . S
H1207 C1201 0.959 . S
H1208 C1201 0.961 . S
H1209 C1201 0.960 . S
H1210 C1202 0.930 . S
H1211 C1203 0.929 . S
H1212 C1220 0.929 . S
H1213 C1222 0.930 . S
H1214 C1224 0.930 . S
H1215 C1227 0.929 . S
H1216 C1230 0.930 . S
H1217 C1232 0.960 . S
H1218 C1232 0.960 . S
H1219 C1232 0.960 . S
C1220 H1212 0.929 . S
C1220 C1221 1.377 . S
C1220 C1222 1.384 . S
C1221 C1220 1.377 . S
C1221 C1227 1.390 . S
C1222 H1213 0.930 . S
C1222 C1220 1.384 . S
C1222 C1223 1.372 . S
C1223 C1222 1.372 . S
C1223 C1224 1.400 . S
C1223 C1228 1.490 . S
C1224 H1214 0.930 . S
C1224 C1223 1.400 . S
C1224 C1227 1.386 . S
H1225 C1241 0.930 . S
H1226 C1242 0.931 . S
C1227 H1215 0.929 . S
C1227 C1221 1.390 . S
C1227 C1224 1.386 . S
C1228 C1223 1.490 . S
C1228 C1230 1.395 . S
C1228 C1231 1.403 . S
H1229 C1235 0.930 . S
C1230 H1216 0.930 . S
C1230 C1228 1.395 . S
C1230 C1233 1.403 . S
C1231 C1228 1.403 . S
C1231 C1232 1.524 . S
C1231 C1235 1.400 . S
C1232 H1217 0.960 . S
C1232 H1218 0.960 . S
C1232 H1219 0.960 . S
C1232 C1231 1.524 . S
C1233 C1230 1.403 . S
C1233 C1234 1.392 . S
C1233 C1237 1.495 . S
C1234 C1233 1.392 . S
C1234 C1235 1.385 . S
C1234 C1236 1.478 . S
C1235 H1229 0.930 . S
C1235 C1231 1.400 . S
C1235 C1234 1.385 . S
C1236 C1234 1.478 . S
C1236 C1238 1.381 . S
C1236 C1242 1.383 . S
C1237 C1233 1.495 . S
C1237 H1243 0.959 . S
C1237 H1244 0.961 . S
C1237 H1245 0.960 . S
C1238 C1236 1.381 . S
C1238 C1239 1.394 . S
C1238 H1246 0.930 . S
C1239 C1238 1.394 . S
C1239 C1240 1.383 . S
C1239 H1247 0.929 . S
C1240 C1239 1.383 . S
C1240 C1241 1.377 . S
C1241 H1225 0.930 . S
C1241 C1240 1.377 . S
C1241 C1242 1.379 . S
C1242 H1226 0.931 . S
C1242 C1236 1.383 . S
C1242 C1241 1.379 . S
H1243 C1237 0.959 . S
H1244 C1237 0.961 . S
H1245 C1237 0.960 . S
H1246 C1238 0.930 . S
H1247 C1239 0.929 . S
H1248 C1256 0.929 . S
H1249 C1258 0.930 . S
H1250 C1260 0.930 . S
H1251 C1263 0.929 . S
H1252 C1266 0.930 . S
H1253 C1268 0.960 . S
H1254 C1268 0.960 . S
H1255 C1268 0.960 . S
C1256 H1248 0.929 . S
C1256 C1257 1.377 . S
C1256 C1258 1.384 . S
C1257 C1256 1.377 . S
C1257 C1263 1.390 . S
C1258 H1249 0.930 . S
C1258 C1256 1.384 . S
C1258 C1259 1.372 . S
C1259 C1258 1.372 . S
C1259 C1260 1.400 . S
C1259 C1264 1.490 . S
C1260 H1250 0.930 . S
C1260 C1259 1.400 . S
C1260 C1263 1.386 . S
H1261 C1277 0.930 . S
H1262 C1278 0.931 . S
C1263 H1251 0.929 . S
C1263 C1257 1.390 . S
C1263 C1260 1.386 . S
C1264 C1259 1.490 . S
C1264 C1266 1.395 . S
C1264 C1267 1.403 . S
H1265 C1271 0.930 . S
C1266 H1252 0.930 . S
C1266 C1264 1.395 . S
C1266 C1269 1.403 . S
C1267 C1264 1.403 . S
C1267 C1268 1.524 . S
C1267 C1271 1.400 . S
C1268 H1253 0.960 . S
C1268 H1254 0.960 . S
C1268 H1255 0.960 . S
C1268 C1267 1.524 . S
C1269 C1266 1.403 . S
C1269 C1270 1.392 . S
C1269 C1273 1.495 . S
C1270 C1269 1.392 . S
C1270 C1271 1.385 . S
C1270 C1272 1.478 . S
C1271 H1265 0.930 . S
C1271 C1267 1.400 . S
C1271 C1270 1.385 . S
C1272 C1270 1.478 . S
C1272 C1274 1.381 . S
C1272 C1278 1.383 . S
C1273 C1269 1.495 . S
C1273 H1279 0.959 . S
C1273 H1280 0.961 . S
C1273 H1281 0.960 . S
C1274 C1272 1.381 . S
C1274 C1275 1.394 . S
C1274 H1282 0.930 . S
C1275 C1274 1.394 . S
C1275 C1276 1.383 . S
C1275 H1283 0.929 . S
C1276 C1275 1.383 . S
C1276 C1277 1.377 . S
C1277 H1261 0.930 . S
C1277 C1276 1.377 . S
C1277 C1278 1.379 . S
C1278 H1262 0.931 . S
C1278 C1272 1.383 . S
C1278 C1277 1.379 . S
H1279 C1273 0.959 . S
H1280 C1273 0.961 . S
H1281 C1273 0.960 . S
H1282 C1274 0.930 . S
H1283 C1275 0.929 . S
H1284 C1292 0.929 . S
H1285 C1294 0.930 . S
H1286 C1296 0.930 . S
H1287 C1299 0.929 . S
H1288 C1302 0.930 . S
H1289 C1304 0.960 . S
H1290 C1304 0.960 . S
H1291 C1304 0.960 . S
C1292 H1284 0.929 . S
C1292 C1293 1.377 . S
C1292 C1294 1.384 . S
C1293 C1292 1.377 . S
C1293 C1299 1.390 . S
C1294 H1285 0.930 . S
C1294 C1292 1.384 . S
C1294 C1295 1.372 . S
C1295 C1294 1.372 . S
C1295 C1296 1.400 . S
C1295 C1300 1.490 . S
C1296 H1286 0.930 . S
C1296 C1295 1.400 . S
C1296 C1299 1.386 . S
H1297 C1313 0.930 . S
H1298 C1314 0.931 . S
C1299 H1287 0.929 . S
C1299 C1293 1.390 . S
C1299 C1296 1.386 . S
C1300 C1295 1.490 . S
C1300 C1302 1.395 . S
C1300 C1303 1.403 . S
H1301 C1307 0.930 . S
C1302 H1288 0.930 . S
C1302 C1300 1.395 . S
C1302 C1305 1.403 . S
C1303 C1300 1.403 . S
C1303 C1304 1.524 . S
C1303 C1307 1.400 . S
C1304 H1289 0.960 . S
C1304 H1290 0.960 . S
C1304 H1291 0.960 . S
C1304 C1303 1.524 . S
C1305 C1302 1.403 . S
C1305 C1306 1.392 . S
C1305 C1309 1.495 . S
C1306 C1305 1.392 . S
C1306 C1307 1.385 . S
C1306 C1308 1.478 . S
C1307 H1301 0.930 . S
C1307 C1303 1.400 . S
C1307 C1306 1.385 . S
C1308 C1306 1.478 . S
C1308 C1310 1.381 . S
C1308 C1314 1.383 . S
C1309 C1305 1.495 . S
C1309 H1315 0.959 . S
C1309 H1316 0.961 . S
C1309 H1317 0.960 . S
C1310 C1308 1.381 . S
C1310 C1311 1.394 . S
C1310 H1318 0.930 . S
C1311 C1310 1.394 . S
C1311 C1312 1.383 . S
C1311 H1319 0.929 . S
C1312 C1311 1.383 . S
C1312 C1313 1.377 . S
C1313 H1297 0.930 . S
C1313 C1312 1.377 . S
C1313 C1314 1.379 . S
C1314 H1298 0.931 . S
C1314 C1308 1.383 . S
C1314 C1313 1.379 . S
H1315 C1309 0.959 . S
H1316 C1309 0.961 . S
H1317 C1309 0.960 . S
H1318 C1310 0.930 . S
H1319 C1311 0.929 . S
H1320 C1328 0.929 . S
H1321 C1330 0.930 . S
H1322 C1332 0.930 . S
H1323 C1335 0.929 . S
H1324 C1338 0.930 . S
H1325 C1340 0.960 . S
H1326 C1340 0.960 . S
H1327 C1340 0.960 . S
C1328 H1320 0.929 . S
C1328 C1329 1.377 . S
C1328 C1330 1.384 . S
C1329 C1328 1.377 . S
C1329 C1335 1.390 . S
C1330 H1321 0.930 . S
C1330 C1328 1.384 . S
C1330 C1331 1.372 . S
C1331 C1330 1.372 . S
C1331 C1332 1.400 . S
C1331 C1336 1.490 . S
C1332 H1322 0.930 . S
C1332 C1331 1.400 . S
C1332 C1335 1.386 . S
H1333 C1349 0.930 . S
H1334 C1350 0.931 . S
C1335 H1323 0.929 . S
C1335 C1329 1.390 . S
C1335 C1332 1.386 . S
C1336 C1331 1.490 . S
C1336 C1338 1.395 . S
C1336 C1339 1.403 . S
H1337 C1343 0.930 . S
C1338 H1324 0.930 . S
C1338 C1336 1.395 . S
C1338 C1341 1.403 . S
C1339 C1336 1.403 . S
C1339 C1340 1.524 . S
C1339 C1343 1.400 . S
C1340 H1325 0.960 . S
C1340 H1326 0.960 . S
C1340 H1327 0.960 . S
C1340 C1339 1.524 . S
C1341 C1338 1.403 . S
C1341 C1342 1.392 . S
C1341 C1345 1.495 . S
C1342 C1341 1.392 . S
C1342 C1343 1.385 . S
C1342 C1344 1.478 . S
C1343 H1337 0.930 . S
C1343 C1339 1.400 . S
C1343 C1342 1.385 . S
C1344 C1342 1.478 . S
C1344 C1346 1.381 . S
C1344 C1350 1.383 . S
C1345 C1341 1.495 . S
C1345 H1351 0.959 . S
C1345 H1352 0.961 . S
C1345 H1353 0.960 . S
C1346 C1344 1.381 . S
C1346 C1347 1.394 . S
C1346 H1354 0.930 . S
C1347 C1346 1.394 . S
C1347 C1348 1.383 . S
C1347 H1355 0.929 . S
C1348 C1347 1.383 . S
C1348 C1349 1.377 . S
C1349 H1333 0.930 . S
C1349 C1348 1.377 . S
C1349 C1350 1.379 . S
C1350 H1334 0.931 . S
C1350 C1344 1.383 . S
C1350 C1349 1.379 . S
H1351 C1345 0.959 . S
H1352 C1345 0.961 . S
H1353 C1345 0.960 . S
H1354 C1346 0.930 . S
H1355 C1347 0.929 . S
H1356 C1364 0.929 . S
H1357 C1366 0.930 . S
H1358 C1368 0.930 . S
H1359 C1371 0.929 . S
H1360 C1374 0.930 . S
H1361 C1376 0.960 . S
H1362 C1376 0.960 . S
H1363 C1376 0.960 . S
C1364 H1356 0.929 . S
C1364 C1365 1.377 . S
C1364 C1366 1.384 . S
C1365 C1364 1.377 . S
C1365 C1371 1.390 . S
C1366 H1357 0.930 . S
C1366 C1364 1.384 . S
C1366 C1367 1.372 . S
C1367 C1366 1.372 . S
C1367 C1368 1.400 . S
C1367 C1372 1.490 . S
C1368 H1358 0.930 . S
C1368 C1367 1.400 . S
C1368 C1371 1.386 . S
H1369 C1385 0.930 . S
H1370 C1386 0.931 . S
C1371 H1359 0.929 . S
C1371 C1365 1.390 . S
C1371 C1368 1.386 . S
C1372 C1367 1.490 . S
C1372 C1374 1.395 . S
C1372 C1375 1.403 . S
H1373 C1379 0.930 . S
C1374 H1360 0.930 . S
C1374 C1372 1.395 . S
C1374 C1377 1.403 . S
C1375 C1372 1.403 . S
C1375 C1376 1.524 . S
C1375 C1379 1.400 . S
C1376 H1361 0.960 . S
C1376 H1362 0.960 . S
C1376 H1363 0.960 . S
C1376 C1375 1.524 . S
C1377 C1374 1.403 . S
C1377 C1378 1.392 . S
C1377 C1381 1.495 . S
C1378 C1377 1.392 . S
C1378 C1379 1.385 . S
C1378 C1380 1.478 . S
C1379 H1373 0.930 . S
C1379 C1375 1.400 . S
C1379 C1378 1.385 . S
C1380 C1378 1.478 . S
C1380 C1382 1.381 . S
C1380 C1386 1.383 . S
C1381 C1377 1.495 . S
C1381 H1387 0.959 . S
C1381 H1388 0.961 . S
C1381 H1389 0.960 . S
C1382 C1380 1.381 . S
C1382 C1383 1.394 . S
C1382 H1390 0.930 . S
C1383 C1382 1.394 . S
C1383 C1384 1.383 . S
C1383 H1391 0.929 . S
C1384 C1383 1.383 . S
C1384 C1385 1.377 . S
C1385 H1369 0.930 . S
C1385 C1384 1.377 . S
C1385 C1386 1.379 . S
C1386 H1370 0.931 . S
C1386 C1380 1.383 . S
C1386 C1385 1.379 . S
H1387 C1381 0.959 . S
H1388 C1381 0.961 . S
H1389 C1381 0.960 . S
H1390 C1382 0.930 . S
H1391 C1383 0.929 . S
H1392 C1400 0.929 . S
H1393 C1402 0.930 . S
H1394 C1404 0.930 . S
H1395 C1407 0.929 . S
H1396 C1410 0.930 . S
H1397 C1412 0.960 . S
H1398 C1412 0.960 . S
H1399 C1412 0.960 . S
C1400 H1392 0.929 . S
C1400 C1401 1.377 . S
C1400 C1402 1.384 . S
C1401 C1400 1.377 . S
C1401 C1407 1.390 . S
C1402 H1393 0.930 . S
C1402 C1400 1.384 . S
C1402 C1403 1.372 . S
C1403 C1402 1.372 . S
C1403 C1404 1.400 . S
C1403 C1408 1.490 . S
C1404 H1394 0.930 . S
C1404 C1403 1.400 . S
C1404 C1407 1.386 . S
H1405 C1421 0.930 . S
H1406 C1422 0.931 . S
C1407 H1395 0.929 . S
C1407 C1401 1.390 . S
C1407 C1404 1.386 . S
C1408 C1403 1.490 . S
C1408 C1410 1.395 . S
C1408 C1411 1.403 . S
H1409 C1415 0.930 . S
C1410 H1396 0.930 . S
C1410 C1408 1.395 . S
C1410 C1413 1.403 . S
C1411 C1408 1.403 . S
C1411 C1412 1.524 . S
C1411 C1415 1.400 . S
C1412 H1397 0.960 . S
C1412 H1398 0.960 . S
C1412 H1399 0.960 . S
C1412 C1411 1.524 . S
C1413 C1410 1.403 . S
C1413 C1414 1.392 . S
C1413 C1417 1.495 . S
C1414 C1413 1.392 . S
C1414 C1415 1.385 . S
C1414 C1416 1.478 . S
C1415 H1409 0.930 . S
C1415 C1411 1.400 . S
C1415 C1414 1.385 . S
C1416 C1414 1.478 . S
C1416 C1418 1.381 . S
C1416 C1422 1.383 . S
C1417 C1413 1.495 . S
C1417 H1423 0.959 . S
C1417 H1424 0.961 . S
C1417 H1425 0.960 . S
C1418 C1416 1.381 . S
C1418 C1419 1.394 . S
C1418 H1426 0.930 . S
C1419 C1418 1.394 . S
C1419 C1420 1.383 . S
C1419 H1427 0.929 . S
C1420 C1419 1.383 . S
C1420 C1421 1.377 . S
C1421 H1405 0.930 . S
C1421 C1420 1.377 . S
C1421 C1422 1.379 . S
C1422 H1406 0.931 . S
C1422 C1416 1.383 . S
C1422 C1421 1.379 . S
H1423 C1417 0.959 . S
H1424 C1417 0.961 . S
H1425 C1417 0.960 . S
H1426 C1418 0.930 . S
H1427 C1419 0.929 . S
H1428 C1436 0.929 . S
H1429 C1438 0.930 . S
H1430 C1440 0.930 . S
H1431 C1443 0.929 . S
H1432 C1446 0.930 . S
H1433 C1448 0.960 . S
H1434 C1448 0.960 . S
H1435 C1448 0.960 . S
C1436 H1428 0.929 . S
C1436 C1437 1.377 . S
C1436 C1438 1.384 . S
C1437 C1436 1.377 . S
C1437 C1443 1.390 . S
C1438 H1429 0.930 . S
C1438 C1436 1.384 . S
C1438 C1439 1.372 . S
C1439 C1438 1.372 . S
C1439 C1440 1.400 . S
C1439 C1444 1.490 . S
C1440 H1430 0.930 . S
C1440 C1439 1.400 . S
C1440 C1443 1.386 . S
H1441 C1457 0.930 . S
H1442 C1458 0.931 . S
C1443 H1431 0.929 . S
C1443 C1437 1.390 . S
C1443 C1440 1.386 . S
C1444 C1439 1.490 . S
C1444 C1446 1.395 . S
C1444 C1447 1.403 . S
H1445 C1451 0.930 . S
C1446 H1432 0.930 . S
C1446 C1444 1.395 . S
C1446 C1449 1.403 . S
C1447 C1444 1.403 . S
C1447 C1448 1.524 . S
C1447 C1451 1.400 . S
C1448 H1433 0.960 . S
C1448 H1434 0.960 . S
C1448 H1435 0.960 . S
C1448 C1447 1.524 . S
C1449 C1446 1.403 . S
C1449 C1450 1.392 . S
C1449 C1453 1.495 . S
C1450 C1449 1.392 . S
C1450 C1451 1.385 . S
C1450 C1452 1.478 . S
C1451 H1445 0.930 . S
C1451 C1447 1.400 . S
C1451 C1450 1.385 . S
C1452 C1450 1.478 . S
C1452 C1454 1.381 . S
C1452 C1458 1.383 . S
C1453 C1449 1.495 . S
C1453 H1459 0.959 . S
C1453 H1460 0.961 . S
C1453 H1461 0.960 . S
C1454 C1452 1.381 . S
C1454 C1455 1.394 . S
C1454 H1462 0.930 . S
C1455 C1454 1.394 . S
C1455 C1456 1.383 . S
C1455 H1463 0.929 . S
C1456 C1455 1.383 . S
C1456 C1457 1.377 . S
C1457 H1441 0.930 . S
C1457 C1456 1.377 . S
C1457 C1458 1.379 . S
C1458 H1442 0.931 . S
C1458 C1452 1.383 . S
C1458 C1457 1.379 . S
H1459 C1453 0.959 . S
H1460 C1453 0.961 . S
H1461 C1453 0.960 . S
H1462 C1454 0.930 . S
H1463 C1455 0.929 . S
H1464 C1472 0.929 . S
H1465 C1474 0.930 . S
H1466 C1476 0.930 . S
H1467 C1479 0.929 . S
H1468 C1482 0.930 . S
H1469 C1484 0.960 . S
H1470 C1484 0.960 . S
H1471 C1484 0.960 . S
C1472 H1464 0.929 . S
C1472 C1473 1.377 . S
C1472 C1474 1.384 . S
C1473 C1472 1.377 . S
C1473 C1479 1.390 . S
C1474 H1465 0.930 . S
C1474 C1472 1.384 . S
C1474 C1475 1.372 . S
C1475 C1474 1.372 . S
C1475 C1476 1.400 . S
C1475 C1480 1.490 . S
C1476 H1466 0.930 . S
C1476 C1475 1.400 . S
C1476 C1479 1.386 . S
H1477 C1493 0.930 . S
H1478 C1494 0.931 . S
C1479 H1467 0.929 . S
C1479 C1473 1.390 . S
C1479 C1476 1.386 . S
C1480 C1475 1.490 . S
C1480 C1482 1.395 . S
C1480 C1483 1.403 . S
H1481 C1487 0.930 . S
C1482 H1468 0.930 . S
C1482 C1480 1.395 . S
C1482 C1485 1.403 . S
C1483 C1480 1.403 . S
C1483 C1484 1.524 . S
C1483 C1487 1.400 . S
C1484 H1469 0.960 . S
C1484 H1470 0.960 . S
C1484 H1471 0.960 . S
C1484 C1483 1.524 . S
C1485 C1482 1.403 . S
C1485 C1486 1.392 . S
C1485 C1489 1.495 . S
C1486 C1485 1.392 . S
C1486 C1487 1.385 . S
C1486 C1488 1.478 . S
C1487 H1481 0.930 . S
C1487 C1483 1.400 . S
C1487 C1486 1.385 . S
C1488 C1486 1.478 . S
C1488 C1490 1.381 . S
C1488 C1494 1.383 . S
C1489 C1485 1.495 . S
C1489 H1495 0.959 . S
C1489 H1496 0.961 . S
C1489 H1497 0.960 . S
C1490 C1488 1.381 . S
C1490 C1491 1.394 . S
C1490 H1498 0.930 . S
C1491 C1490 1.394 . S
C1491 C1492 1.383 . S
C1491 H1499 0.929 . S
C1492 C1491 1.383 . S
C1492 C1493 1.377 . S
C1493 H1477 0.930 . S
C1493 C1492 1.377 . S
C1493 C1494 1.379 . S
C1494 H1478 0.931 . S
C1494 C1488 1.383 . S
C1494 C1493 1.379 . S
H1495 C1489 0.959 . S
H1496 C1489 0.961 . S
H1497 C1489 0.960 . S
H1498 C1490 0.930 . S
H1499 C1491 0.929 . S
H1500 C1508 0.929 . S
H1501 C1510 0.930 . S
H1502 C1512 0.930 . S
H1503 C1515 0.929 . S
H1504 C1518 0.930 . S
H1505 C1520 0.960 . S
H1506 C1520 0.960 . S
H1507 C1520 0.960 . S
C1508 H1500 0.929 . S
C1508 C1509 1.377 . S
C1508 C1510 1.384 . S
C1509 C1508 1.377 . S
C1509 C1515 1.390 . S
C1510 H1501 0.930 . S
C1510 C1508 1.384 . S
C1510 C1511 1.372 . S
C1511 C1510 1.372 . S
C1511 C1512 1.400 . S
C1511 C1516 1.490 . S
C1512 H1502 0.930 . S
C1512 C1511 1.400 . S
C1512 C1515 1.386 . S
H1513 C1529 0.930 . S
H1514 C1530 0.931 . S
C1515 H1503 0.929 . S
C1515 C1509 1.390 . S
C1515 C1512 1.386 . S
C1516 C1511 1.490 . S
C1516 C1518 1.395 . S
C1516 C1519 1.403 . S
H1517 C1523 0.930 . S
C1518 H1504 0.930 . S
C1518 C1516 1.395 . S
C1518 C1521 1.403 . S
C1519 C1516 1.403 . S
C1519 C1520 1.524 . S
C1519 C1523 1.400 . S
C1520 H1505 0.960 . S
C1520 H1506 0.960 . S
C1520 H1507 0.960 . S
C1520 C1519 1.524 . S
C1521 C1518 1.403 . S
C1521 C1522 1.392 . S
C1521 C1525 1.495 . S
C1522 C1521 1.392 . S
C1522 C1523 1.385 . S
C1522 C1524 1.478 . S
C1523 H1517 0.930 . S
C1523 C1519 1.400 . S
C1523 C1522 1.385 . S
C1524 C1522 1.478 . S
C1524 C1526 1.381 . S
C1524 C1530 1.383 . S
C1525 C1521 1.495 . S
C1525 H1531 0.959 . S
C1525 H1532 0.961 . S
C1525 H1533 0.960 . S
C1526 C1524 1.381 . S
C1526 C1527 1.394 . S
C1526 H1534 0.930 . S
C1527 C1526 1.394 . S
C1527 C1528 1.383 . S
C1527 H1535 0.929 . S
C1528 C1527 1.383 . S
C1528 C1529 1.377 . S
C1529 H1513 0.930 . S
C1529 C1528 1.377 . S
C1529 C1530 1.379 . S
C1530 H1514 0.931 . S
C1530 C1524 1.383 . S
C1530 C1529 1.379 . S
H1531 C1525 0.959 . S
H1532 C1525 0.961 . S
H1533 C1525 0.960 . S
H1534 C1526 0.930 . S
H1535 C1527 0.929 . S
H1536 C1544 0.929 . S
H1537 C1546 0.930 . S
H1538 C1548 0.930 . S
H1539 C1551 0.929 . S
H1540 C1554 0.930 . S
H1541 C1556 0.960 . S
H1542 C1556 0.960 . S
H1543 C1556 0.960 . S
C1544 H1536 0.929 . S
C1544 C1545 1.377 . S
C1544 C1546 1.384 . S
C1545 C1544 1.377 . S
C1545 C1551 1.390 . S
C1546 H1537 0.930 . S
C1546 C1544 1.384 . S
C1546 C1547 1.372 . S
C1547 C1546 1.372 . S
C1547 C1548 1.400 . S
C1547 C1552 1.490 . S
C1548 H1538 0.930 . S
C1548 C1547 1.400 . S
C1548 C1551 1.386 . S
H1549 C1565 0.930 . S
H1550 C1566 0.931 . S
C1551 H1539 0.929 . S
C1551 C1545 1.390 . S
C1551 C1548 1.386 . S
C1552 C1547 1.490 . S
C1552 C1554 1.395 . S
C1552 C1555 1.403 . S
H1553 C1559 0.930 . S
C1554 H1540 0.930 . S
C1554 C1552 1.395 . S
C1554 C1557 1.403 . S
C1555 C1552 1.403 . S
C1555 C1556 1.524 . S
C1555 C1559 1.400 . S
C1556 H1541 0.960 . S
C1556 H1542 0.960 . S
C1556 H1543 0.960 . S
C1556 C1555 1.524 . S
C1557 C1554 1.403 . S
C1557 C1558 1.392 . S
C1557 C1561 1.495 . S
C1558 C1557 1.392 . S
C1558 C1559 1.385 . S
C1558 C1560 1.478 . S
C1559 H1553 0.930 . S
C1559 C1555 1.400 . S
C1559 C1558 1.385 . S
C1560 C1558 1.478 . S
C1560 C1562 1.381 . S
C1560 C1566 1.383 . S
C1561 C1557 1.495 . S
C1561 H1567 0.959 . S
C1561 H1568 0.961 . S
C1561 H1569 0.960 . S
C1562 C1560 1.381 . S
C1562 C1563 1.394 . S
C1562 H1570 0.930 . S
C1563 C1562 1.394 . S
C1563 C1564 1.383 . S
C1563 H1571 0.929 . S
C1564 C1563 1.383 . S
C1564 C1565 1.377 . S
C1565 H1549 0.930 . S
C1565 C1564 1.377 . S
C1565 C1566 1.379 . S
C1566 H1550 0.931 . S
C1566 C1560 1.383 . S
C1566 C1565 1.379 . S
H1567 C1561 0.959 . S
H1568 C1561 0.961 . S
H1569 C1561 0.960 . S
H1570 C1562 0.930 . S
H1571 C1563 0.929 . S
H1572 C1580 0.929 . S
H1573 C1582 0.930 . S
H1574 C1584 0.930 . S
H1575 C1587 0.929 . S
H1576 C1590 0.930 . S
H1577 C1592 0.960 . S
H1578 C1592 0.960 . S
H1579 C1592 0.960 . S
C1580 H1572 0.929 . S
C1580 C1581 1.377 . S
C1580 C1582 1.384 . S
C1581 C1580 1.377 . S
C1581 C1587 1.390 . S
C1582 H1573 0.930 . S
C1582 C1580 1.384 . S
C1582 C1583 1.372 . S
C1583 C1582 1.372 . S
C1583 C1584 1.400 . S
C1583 C1588 1.490 . S
C1584 H1574 0.930 . S
C1584 C1583 1.400 . S
C1584 C1587 1.386 . S
H1585 C1601 0.930 . S
H1586 C1602 0.931 . S
C1587 H1575 0.929 . S
C1587 C1581 1.390 . S
C1587 C1584 1.386 . S
C1588 C1583 1.490 . S
C1588 C1590 1.395 . S
C1588 C1591 1.403 . S
H1589 C1595 0.930 . S
C1590 H1576 0.930 . S
C1590 C1588 1.395 . S
C1590 C1593 1.403 . S
C1591 C1588 1.403 . S
C1591 C1592 1.524 . S
C1591 C1595 1.400 . S
C1592 H1577 0.960 . S
C1592 H1578 0.960 . S
C1592 H1579 0.960 . S
C1592 C1591 1.524 . S
C1593 C1590 1.403 . S
C1593 C1594 1.392 . S
C1593 C1597 1.495 . S
C1594 C1593 1.392 . S
C1594 C1595 1.385 . S
C1594 C1596 1.478 . S
C1595 H1589 0.930 . S
C1595 C1591 1.400 . S
C1595 C1594 1.385 . S
C1596 C1594 1.478 . S
C1596 C1598 1.381 . S
C1596 C1602 1.383 . S
C1597 C1593 1.495 . S
C1597 H1603 0.959 . S
C1597 H1604 0.961 . S
C1597 H1605 0.960 . S
C1598 C1596 1.381 . S
C1598 C1599 1.394 . S
C1598 H1606 0.930 . S
C1599 C1598 1.394 . S
C1599 C1600 1.383 . S
C1599 H1607 0.929 . S
C1600 C1599 1.383 . S
C1600 C1601 1.377 . S
C1601 H1585 0.930 . S
C1601 C1600 1.377 . S
C1601 C1602 1.379 . S
C1602 H1586 0.931 . S
C1602 C1596 1.383 . S
C1602 C1601 1.379 . S
H1603 C1597 0.959 . S
H1604 C1597 0.961 . S
H1605 C1597 0.960 . S
H1606 C1598 0.930 . S
H1607 C1599 0.929 . S
H1608 C1616 0.929 . S
H1609 C1618 0.930 . S
H1610 C1620 0.930 . S
H1611 C1623 0.929 . S
H1612 C1626 0.930 . S
H1613 C1628 0.960 . S
H1614 C1628 0.960 . S
H1615 C1628 0.960 . S
C1616 H1608 0.929 . S
C1616 C1617 1.377 . S
C1616 C1618 1.384 . S
C1617 C1616 1.377 . S
C1617 C1623 1.390 . S
C1618 H1609 0.930 . S
C1618 C1616 1.384 . S
C1618 C1619 1.372 . S
C1619 C1618 1.372 . S
C1619 C1620 1.400 . S
C1619 C1624 1.490 . S
C1620 H1610 0.930 . S
C1620 C1619 1.400 . S
C1620 C1623 1.386 . S
H1621 C1637 0.930 . S
H1622 C1638 0.931 . S
C1623 H1611 0.929 . S
C1623 C1617 1.390 . S
C1623 C1620 1.386 . S
C1624 C1619 1.490 . S
C1624 C1626 1.395 . S
C1624 C1627 1.403 . S
H1625 C1631 0.930 . S
C1626 H1612 0.930 . S
C1626 C1624 1.395 . S
C1626 C1629 1.403 . S
C1627 C1624 1.403 . S
C1627 C1628 1.524 . S
C1627 C1631 1.400 . S
C1628 H1613 0.960 . S
C1628 H1614 0.960 . S
C1628 H1615 0.960 . S
C1628 C1627 1.524 . S
C1629 C1626 1.403 . S
C1629 C1630 1.392 . S
C1629 C1633 1.495 . S
C1630 C1629 1.392 . S
C1630 C1631 1.385 . S
C1630 C1632 1.478 . S
C1631 H1625 0.930 . S
C1631 C1627 1.400 . S
C1631 C1630 1.385 . S
C1632 C1630 1.478 . S
C1632 C1634 1.381 . S
C1632 C1638 1.383 . S
C1633 C1629 1.495 . S
C1633 H1639 0.959 . S
C1633 H1640 0.961 . S
C1633 H1641 0.960 . S
C1634 C1632 1.381 . S
C1634 C1635 1.394 . S
C1634 H1642 0.930 . S
C1635 C1634 1.394 . S
C1635 C1636 1.383 . S
C1635 H1643 0.929 . S
C1636 C1635 1.383 . S
C1636 C1637 1.377 . S
C1637 H1621 0.930 . S
C1637 C1636 1.377 . S
C1637 C1638 1.379 . S
C1638 H1622 0.931 . S
C1638 C1632 1.383 . S
C1638 C1637 1.379 . S
H1639 C1633 0.959 . S
H1640 C1633 0.961 . S
H1641 C1633 0.960 . S
H1642 C1634 0.930 . S
H1643 C1635 0.929 . S
H1644 C1652 0.929 . S
H1645 C1654 0.930 . S
H1646 C1656 0.930 . S
H1647 C1659 0.929 . S
H1648 C1662 0.930 . S
H1649 C1664 0.960 . S
H1650 C1664 0.960 . S
H1651 C1664 0.960 . S
C1652 H1644 0.929 . S
C1652 C1653 1.377 . S
C1652 C1654 1.384 . S
C1653 C1652 1.377 . S
C1653 C1659 1.390 . S
C1654 H1645 0.930 . S
C1654 C1652 1.384 . S
C1654 C1655 1.372 . S
C1655 C1654 1.372 . S
C1655 C1656 1.400 . S
C1655 C1660 1.490 . S
C1656 H1646 0.930 . S
C1656 C1655 1.400 . S
C1656 C1659 1.386 . S
H1657 C1673 0.930 . S
H1658 C1674 0.931 . S
C1659 H1647 0.929 . S
C1659 C1653 1.390 . S
C1659 C1656 1.386 . S
C1660 C1655 1.490 . S
C1660 C1662 1.395 . S
C1660 C1663 1.403 . S
H1661 C1667 0.930 . S
C1662 H1648 0.930 . S
C1662 C1660 1.395 . S
C1662 C1665 1.403 . S
C1663 C1660 1.403 . S
C1663 C1664 1.524 . S
C1663 C1667 1.400 . S
C1664 H1649 0.960 . S
C1664 H1650 0.960 . S
C1664 H1651 0.960 . S
C1664 C1663 1.524 . S
C1665 C1662 1.403 . S
C1665 C1666 1.392 . S
C1665 C1669 1.495 . S
C1666 C1665 1.392 . S
C1666 C1667 1.385 . S
C1666 C1668 1.478 . S
C1667 H1661 0.930 . S
C1667 C1663 1.400 . S
C1667 C1666 1.385 . S
C1668 C1666 1.478 . S
C1668 C1670 1.381 . S
C1668 C1674 1.383 . S
C1669 C1665 1.495 . S
C1669 H1675 0.959 . S
C1669 H1676 0.961 . S
C1669 H1677 0.960 . S
C1670 C1668 1.381 . S
C1670 C1671 1.394 . S
C1670 H1678 0.930 . S
C1671 C1670 1.394 . S
C1671 C1672 1.383 . S
C1671 H1679 0.929 . S
C1672 C1671 1.383 . S
C1672 C1673 1.377 . S
C1673 H1657 0.930 . S
C1673 C1672 1.377 . S
C1673 C1674 1.379 . S
C1674 H1658 0.931 . S
C1674 C1668 1.383 . S
C1674 C1673 1.379 . S
H1675 C1669 0.959 . S
H1676 C1669 0.961 . S
H1677 C1669 0.960 . S
H1678 C1670 0.930 . S
H1679 C1671 0.929 . S
H1680 C1688 0.929 . S
H1681 C1690 0.930 . S
H1682 C1692 0.930 . S
H1683 C1695 0.929 . S
H1684 C1698 0.930 . S
H1685 C1700 0.960 . S
H1686 C1700 0.960 . S
H1687 C1700 0.960 . S
C1688 H1680 0.929 . S
C1688 C1689 1.377 1_655 S
C1688 C1690 1.384 . S
C1689 C1688 1.377 1_455 S
C1689 C1695 1.390 . S
C1690 H1681 0.930 . S
C1690 C1688 1.384 . S
C1690 C1691 1.372 1_655 S
C1691 C1690 1.372 1_455 S
C1691 C1692 1.400 . S
C1691 C1696 1.495 . S
C1692 H1682 0.930 . S
C1692 C1691 1.400 . S
C1692 C1695 1.386 . S
H1693 C1709 0.930 . S
H1694 C1710 0.931 . S
C1695 H1683 0.929 . S
C1695 C1689 1.390 . S
C1695 C1692 1.386 . S
C1696 C1691 1.495 . S
C1696 C1698 1.380 1_455 S
C1696 C1699 1.413 . S
H1697 C1703 0.930 . S
C1698 H1684 0.930 . S
C1698 C1696 1.380 1_655 S
C1698 C1701 1.403 . S
C1699 C1696 1.413 . S
C1699 C1700 1.524 . S
C1699 C1703 1.400 . S
C1700 H1685 0.960 . S
C1700 H1686 0.960 . S
C1700 H1687 0.960 . S
C1700 C1699 1.524 . S
C1701 C1698 1.403 . S
C1701 C1702 1.392 . S
C1701 C1705 1.495 . S
C1702 C1701 1.392 . S
C1702 C1703 1.385 1_655 S
C1702 C1704 1.478 . S
C1703 H1697 0.930 . S
C1703 C1699 1.400 . S
C1703 C1702 1.385 1_455 S
C1704 C1702 1.478 . S
C1704 C1706 1.381 . S
C1704 C1710 1.383 1_655 S
C1705 C1701 1.495 . S
C1705 H1711 0.959 . S
C1705 H1712 0.961 . S
C1705 H1713 0.960 . S
C1706 C1704 1.381 . S
C1706 C1707 1.394 . S
C1706 H1714 0.930 . S
C1707 C1706 1.394 . S
C1707 C1708 1.383 . S
C1707 H1715 0.929 . S
C1708 C1707 1.383 . S
C1708 C1709 1.377 1_655 S
C1709 H1693 0.930 . S
C1709 C1708 1.377 1_455 S
C1709 C1710 1.379 . S
C1710 H1694 0.931 . S
C1710 C1704 1.383 1_455 S
C1710 C1709 1.379 . S
H1711 C1705 0.959 . S
H1712 C1705 0.961 . S
H1713 C1705 0.960 . S
H1714 C1706 0.930 . S
H1715 C1707 0.929 . S
H1716 C1724 0.929 . S
H1717 C1726 0.930 . S
H1718 C1728 0.930 1_545 S
H1719 C1731 0.929 . S
H1720 C1734 0.930 . S
H1721 C1736 0.960 . S
H1722 C1736 0.960 . S
H1723 C1736 0.960 . S
C1724 H1716 0.929 . S
C1724 C1725 1.377 . S
C1724 C1726 1.384 . S
C1725 C1724 1.377 . S
C1725 C1731 1.390 . S
C1726 H1717 0.930 . S
C1726 C1724 1.384 . S
C1726 C1727 1.372 . S
C1727 C1726 1.372 . S
C1727 C1728 1.400 . S
C1727 C1732 1.490 . S
C1728 H1718 0.930 1_565 S
C1728 C1727 1.400 . S
C1728 C1731 1.386 . S
H1729 C1745 0.930 . S
H1730 C1746 0.931 . S
C1731 H1719 0.929 . S
C1731 C1725 1.390 . S
C1731 C1728 1.386 . S
C1732 C1727 1.490 . S
C1732 C1734 1.395 1_565 S
C1732 C1735 1.403 . S
H1733 C1739 0.930 . S
C1734 H1720 0.930 . S
C1734 C1732 1.395 1_545 S
C1734 C1737 1.403 . S
C1735 C1732 1.403 . S
C1735 C1736 1.524 . S
C1735 C1739 1.400 . S
C1736 H1721 0.960 . S
C1736 H1722 0.960 . S
C1736 H1723 0.960 . S
C1736 C1735 1.524 . S
C1737 C1734 1.403 . S
C1737 C1738 1.392 . S
C1737 C1741 1.495 . S
C1738 C1737 1.392 . S
C1738 C1739 1.385 1_545 S
C1738 C1740 1.478 . S
C1739 H1733 0.930 . S
C1739 C1735 1.400 . S
C1739 C1738 1.385 1_565 S
C1740 C1738 1.478 . S
C1740 C1742 1.381 . S
C1740 C1746 1.383 . S
C1741 C1737 1.495 . S
C1741 H1747 0.959 . S
C1741 H1748 0.961 . S
C1741 H1749 0.960 . S
C1742 C1740 1.381 . S
C1742 C1743 1.394 . S
C1742 H1750 0.930 1_545 S
C1743 C1742 1.394 . S
C1743 C1744 1.383 . S
C1743 H1751 0.929 1_545 S
C1744 C1743 1.383 . S
C1744 C1745 1.377 . S
C1745 H1729 0.930 . S
C1745 C1744 1.377 . S
C1745 C1746 1.379 . S
C1746 H1730 0.931 . S
C1746 C1740 1.383 . S
C1746 C1745 1.379 . S
H1747 C1741 0.959 . S
H1748 C1741 0.961 . S
H1749 C1741 0.960 . S
H1750 C1742 0.930 1_565 S
H1751 C1743 0.929 1_565 S
H1752 C1760 0.929 . S
H1753 C1762 0.930 . S
H1754 C1764 0.930 . S
H1755 C1767 0.929 . S
H1756 C1770 0.930 . S
H1757 C1772 0.960 . S
H1758 C1772 0.960 . S
H1759 C1772 0.960 . S
C1760 H1752 0.929 . S
C1760 C1761 1.377 . S
C1760 C1762 1.384 . S
C1761 C1760 1.377 . S
C1761 C1767 1.390 . S
C1762 H1753 0.930 . S
C1762 C1760 1.384 . S
C1762 C1763 1.372 . S
C1763 C1762 1.372 . S
C1763 C1764 1.400 . S
C1763 C1768 1.490 . S
C1764 H1754 0.930 . S
C1764 C1763 1.400 . S
C1764 C1767 1.386 . S
H1765 C1781 0.930 . S
H1766 C1782 0.931 . S
C1767 H1755 0.929 . S
C1767 C1761 1.390 . S
C1767 C1764 1.386 . S
C1768 C1763 1.490 . S
C1768 C1770 1.395 1_455 S
C1768 C1771 1.403 . S
H1769 C1775 0.930 . S
C1770 H1756 0.930 . S
C1770 C1768 1.395 1_655 S
C1770 C1773 1.403 . S
C1771 C1768 1.403 . S
C1771 C1772 1.524 . S
C1771 C1775 1.400 . S
C1772 H1757 0.960 . S
C1772 H1758 0.960 . S
C1772 H1759 0.960 . S
C1772 C1771 1.524 . S
C1773 C1770 1.403 . S
C1773 C1774 1.392 . S
C1773 C1777 1.495 . S
C1774 C1773 1.392 . S
C1774 C1775 1.385 1_655 S
C1774 C1776 1.478 . S
C1775 H1769 0.930 . S
C1775 C1771 1.400 . S
C1775 C1774 1.385 1_455 S
C1776 C1774 1.478 . S
C1776 C1778 1.381 . S
C1776 C1782 1.383 . S
C1777 C1773 1.495 . S
C1777 H1783 0.959 . S
C1777 H1784 0.961 . S
C1777 H1785 0.960 . S
C1778 C1776 1.381 . S
C1778 C1779 1.394 . S
C1778 H1786 0.930 . S
C1779 C1778 1.394 . S
C1779 C1780 1.383 . S
C1779 H1787 0.929 . S
C1780 C1779 1.383 . S
C1780 C1781 1.377 . S
C1781 H1765 0.930 . S
C1781 C1780 1.377 . S
C1781 C1782 1.379 . S
C1782 H1766 0.931 . S
C1782 C1776 1.383 . S
C1782 C1781 1.379 . S
H1783 C1777 0.959 . S
H1784 C1777 0.961 . S
H1785 C1777 0.960 . S
H1786 C1778 0.930 . S
H1787 C1779 0.929 . S
H1788 C1796 0.929 . S
H1789 C1798 0.930 . S
H1790 C1800 0.935 . S
H1791 C1803 0.929 1_565 S
H1792 C1806 0.930 . S
H1793 C1808 0.960 . S
H1794 C1808 0.960 . S
H1795 C1808 0.960 . S
C1796 H1788 0.929 . S
C1796 C1797 1.377 . S
C1796 C1798 1.384 . S
C1797 C1796 1.377 . S
C1797 C1803 1.390 . S
C1798 H1789 0.930 . S
C1798 C1796 1.384 . S
C1798 C1799 1.372 . S
C1799 C1798 1.372 . S
C1799 C1800 1.396 1_545 S
C1799 C1804 1.490 . S
C1800 H1790 0.935 . S
C1800 C1799 1.396 1_565 S
C1800 C1803 1.384 1_565 S
H1801 C1817 0.930 . S
H1802 C1818 0.931 . S
C1803 H1791 0.929 1_545 S
C1803 C1797 1.390 . S
C1803 C1800 1.384 1_545 S
C1804 C1799 1.490 . S
C1804 C1806 1.395 1_545 S
C1804 C1807 1.403 . S
H1805 C1811 0.930 . S
C1806 H1792 0.930 . S
C1806 C1804 1.395 1_565 S
C1806 C1809 1.403 . S
C1807 C1804 1.403 . S
C1807 C1808 1.524 . S
C1807 C1811 1.400 . S
C1808 H1793 0.960 . S
C1808 H1794 0.960 . S
C1808 H1795 0.960 . S
C1808 C1807 1.524 . S
C1809 C1806 1.403 . S
C1809 C1810 1.392 . S
C1809 C1813 1.495 . S
C1810 C1809 1.392 . S
C1810 C1811 1.385 1_565 S
C1810 C1812 1.478 . S
C1811 H1805 0.930 . S
C1811 C1807 1.400 . S
C1811 C1810 1.385 1_545 S
C1812 C1810 1.478 . S
C1812 C1814 1.373 1_565 S
C1812 C1818 1.383 . S
C1813 C1809 1.495 . S
C1813 H1819 0.959 . S
C1813 H1820 0.961 . S
C1813 H1821 0.960 . S
C1814 C1812 1.373 1_545 S
C1814 C1815 1.393 1_545 S
C1814 H1822 0.940 . S
C1815 C1814 1.393 1_565 S
C1815 C1816 1.383 . S
C1815 H1823 0.929 1_565 S
C1816 C1815 1.383 . S
C1816 C1817 1.377 . S
C1817 H1801 0.930 . S
C1817 C1816 1.377 . S
C1817 C1818 1.379 . S
C1818 H1802 0.931 . S
C1818 C1812 1.383 . S
C1818 C1817 1.379 . S
H1819 C1813 0.959 . S
H1820 C1813 0.961 . S
H1821 C1813 0.960 . S
H1822 C1814 0.940 . S
H1823 C1815 0.929 1_545 S
H1824 C1832 0.929 . S
H1825 C1834 0.930 . S
H1826 C1836 0.930 . S
H1827 C1839 0.929 . S
H1828 C1842 0.930 . S
H1829 C1844 0.960 . S
H1830 C1844 0.960 . S
H1831 C1844 0.960 . S
C1832 H1824 0.929 . S
C1832 C1833 1.377 . S
C1832 C1834 1.384 . S
C1833 C1832 1.377 . S
C1833 C1839 1.390 . S
C1834 H1825 0.930 . S
C1834 C1832 1.384 . S
C1834 C1835 1.372 . S
C1835 C1834 1.372 . S
C1835 C1836 1.400 . S
C1835 C1840 1.490 . S
C1836 H1826 0.930 . S
C1836 C1835 1.400 . S
C1836 C1839 1.386 . S
H1837 C1853 0.930 . S
H1838 C1854 0.931 . S
C1839 H1827 0.929 . S
C1839 C1833 1.390 . S
C1839 C1836 1.386 . S
C1840 C1835 1.490 . S
C1840 C1842 1.395 . S
C1840 C1843 1.403 . S
H1841 C1847 0.930 . S
C1842 H1828 0.930 . S
C1842 C1840 1.395 . S
C1842 C1845 1.403 1_556 S
C1843 C1840 1.403 . S
C1843 C1844 1.524 . S
C1843 C1847 1.400 1_556 S
C1844 H1829 0.960 . S
C1844 H1830 0.960 . S
C1844 H1831 0.960 . S
C1844 C1843 1.524 . S
C1845 C1842 1.403 1_554 S
C1845 C1846 1.392 . S
C1845 C1849 1.495 . S
C1846 C1845 1.392 . S
C1846 C1847 1.385 . S
C1846 C1848 1.478 . S
C1847 H1841 0.930 . S
C1847 C1843 1.400 1_554 S
C1847 C1846 1.385 . S
C1848 C1846 1.478 . S
C1848 C1850 1.381 . S
C1848 C1854 1.383 . S
C1849 C1845 1.495 . S
C1849 H1855 0.959 . S
C1849 H1856 0.961 . S
C1849 H1857 0.960 . S
C1850 C1848 1.381 . S
C1850 C1851 1.394 . S
C1850 H1858 0.930 . S
C1851 C1850 1.394 . S
C1851 C1852 1.383 . S
C1851 H1859 0.929 . S
C1852 C1851 1.383 . S
C1852 C1853 1.377 . S
C1853 H1837 0.930 . S
C1853 C1852 1.377 . S
C1853 C1854 1.379 . S
C1854 H1838 0.931 . S
C1854 C1848 1.383 . S
C1854 C1853 1.379 . S
H1855 C1849 0.959 . S
H1856 C1849 0.961 . S
H1857 C1849 0.960 . S
H1858 C1850 0.930 . S
H1859 C1851 0.929 . S
H1860 C1868 0.929 . S
H1861 C1870 0.930 . S
H1862 C1872 0.930 . S
H1863 C1875 0.929 . S
H1864 C1878 0.930 . S
H1865 C1880 0.960 . S
H1866 C1880 0.960 . S
H1867 C1880 0.960 . S
C1868 H1860 0.929 . S
C1868 C1869 1.377 . S
C1868 C1870 1.384 . S
C1869 C1868 1.377 . S
C1869 C1875 1.390 . S
C1870 H1861 0.930 . S
C1870 C1868 1.384 . S
C1870 C1871 1.372 . S
C1871 C1870 1.372 . S
C1871 C1872 1.400 . S
C1871 C1876 1.490 . S
C1872 H1862 0.930 . S
C1872 C1871 1.400 . S
C1872 C1875 1.386 . S
H1873 C1889 0.930 . S
H1874 C1890 0.931 . S
C1875 H1863 0.929 . S
C1875 C1869 1.390 . S
C1875 C1872 1.386 . S
C1876 C1871 1.490 . S
C1876 C1878 1.395 . S
C1876 C1879 1.403 . S
H1877 C1883 0.930 . S
C1878 H1864 0.930 . S
C1878 C1876 1.395 . S
C1878 C1881 1.403 1_554 S
C1879 C1876 1.403 . S
C1879 C1880 1.524 . S
C1879 C1883 1.400 1_554 S
C1880 H1865 0.960 . S
C1880 H1866 0.960 . S
C1880 H1867 0.960 . S
C1880 C1879 1.524 . S
C1881 C1878 1.403 1_556 S
C1881 C1882 1.392 . S
C1881 C1885 1.495 . S
C1882 C1881 1.392 . S
C1882 C1883 1.385 . S
C1882 C1884 1.478 . S
C1883 H1877 0.930 . S
C1883 C1879 1.400 1_556 S
C1883 C1882 1.385 . S
C1884 C1882 1.478 . S
C1884 C1886 1.381 . S
C1884 C1890 1.383 . S
C1885 C1881 1.495 . S
C1885 H1891 0.959 . S
C1885 H1892 0.961 . S
C1885 H1893 0.960 . S
C1886 C1884 1.381 . S
C1886 C1887 1.394 . S
C1886 H1894 0.930 . S
C1887 C1886 1.394 . S
C1887 C1888 1.383 . S
C1887 H1895 0.929 . S
C1888 C1887 1.383 . S
C1888 C1889 1.377 . S
C1889 H1873 0.930 . S
C1889 C1888 1.377 . S
C1889 C1890 1.379 . S
C1890 H1874 0.931 . S
C1890 C1884 1.383 . S
C1890 C1889 1.379 . S
H1891 C1885 0.959 . S
H1892 C1885 0.961 . S
H1893 C1885 0.960 . S
H1894 C1886 0.930 . S
H1895 C1887 0.929 . S
H1896 C1904 0.929 . S
H1897 C1906 0.930 . S
H1898 C1908 0.930 . S
H1899 C1911 0.929 . S
H1900 C1914 0.930 . S
H1901 C1916 0.960 . S
H1902 C1916 0.960 . S
H1903 C1916 0.960 . S
C1904 H1896 0.929 . S
C1904 C1905 1.377 . S
C1904 C1906 1.384 . S
C1905 C1904 1.377 . S
C1905 C1911 1.390 . S
C1906 H1897 0.930 . S
C1906 C1904 1.384 . S
C1906 C1907 1.372 . S
C1907 C1906 1.372 . S
C1907 C1908 1.400 . S
C1907 C1912 1.490 . S
C1908 H1898 0.930 . S
C1908 C1907 1.400 . S
C1908 C1911 1.386 . S
H1909 C1925 0.930 . S
H1910 C1926 0.931 . S
C1911 H1899 0.929 . S
C1911 C1905 1.390 . S
C1911 C1908 1.386 . S
C1912 C1907 1.490 . S
C1912 C1914 1.395 . S
C1912 C1915 1.403 . S
H1913 C1919 0.930 . S
C1914 H1900 0.930 . S
C1914 C1912 1.395 . S
C1914 C1917 1.403 1_554 S
C1915 C1912 1.403 . S
C1915 C1916 1.524 . S
C1915 C1919 1.400 1_554 S
C1916 H1901 0.960 . S
C1916 H1902 0.960 . S
C1916 H1903 0.960 . S
C1916 C1915 1.524 . S
C1917 C1914 1.403 1_556 S
C1917 C1918 1.392 . S
C1917 C1921 1.495 . S
C1918 C1917 1.392 . S
C1918 C1919 1.385 . S
C1918 C1920 1.478 . S
C1919 H1913 0.930 . S
C1919 C1915 1.400 1_556 S
C1919 C1918 1.385 . S
C1920 C1918 1.478 . S
C1920 C1922 1.381 . S
C1920 C1926 1.383 . S
C1921 C1917 1.495 . S
C1921 H1927 0.959 . S
C1921 H1928 0.961 . S
C1921 H1929 0.960 . S
C1922 C1920 1.381 . S
C1922 C1923 1.394 . S
C1922 H1930 0.930 . S
C1923 C1922 1.394 . S
C1923 C1924 1.383 . S
C1923 H1931 0.929 . S
C1924 C1923 1.383 . S
C1924 C1925 1.377 . S
C1925 H1909 0.930 . S
C1925 C1924 1.377 . S
C1925 C1926 1.379 . S
C1926 H1910 0.931 . S
C1926 C1920 1.383 . S
C1926 C1925 1.379 . S
H1927 C1921 0.959 . S
H1928 C1921 0.961 . S
H1929 C1921 0.960 . S
H1930 C1922 0.930 . S
H1931 C1923 0.929 . S
H1932 C1940 0.929 . S
H1933 C1942 0.930 . S
H1934 C1944 0.930 . S
H1935 C1947 0.929 . S
H1936 C1950 0.930 . S
H1937 C1952 0.960 . S
H1938 C1952 0.960 . S
H1939 C1952 0.960 . S
C1940 H1932 0.929 . S
C1940 C1941 1.377 . S
C1940 C1942 1.384 . S
C1941 C1940 1.377 . S
C1941 C1947 1.390 . S
C1942 H1933 0.930 . S
C1942 C1940 1.384 . S
C1942 C1943 1.372 . S
C1943 C1942 1.372 . S
C1943 C1944 1.400 . S
C1943 C1948 1.490 . S
C1944 H1934 0.930 . S
C1944 C1943 1.400 . S
C1944 C1947 1.386 . S
H1945 C1961 0.930 . S
H1946 C1962 0.931 . S
C1947 H1935 0.929 . S
C1947 C1941 1.390 . S
C1947 C1944 1.386 . S
C1948 C1943 1.490 . S
C1948 C1950 1.395 . S
C1948 C1951 1.403 . S
H1949 C1955 0.930 . S
C1950 H1936 0.930 . S
C1950 C1948 1.395 . S
C1950 C1953 1.403 1_556 S
C1951 C1948 1.403 . S
C1951 C1952 1.524 . S
C1951 C1955 1.400 1_556 S
C1952 H1937 0.960 . S
C1952 H1938 0.960 . S
C1952 H1939 0.960 . S
C1952 C1951 1.524 . S
C1953 C1950 1.403 1_554 S
C1953 C1954 1.392 . S
C1953 C1957 1.495 . S
C1954 C1953 1.392 . S
C1954 C1955 1.385 . S
C1954 C1956 1.478 . S
C1955 H1949 0.930 . S
C1955 C1951 1.400 1_554 S
C1955 C1954 1.385 . S
C1956 C1954 1.478 . S
C1956 C1958 1.381 . S
C1956 C1962 1.383 . S
C1957 C1953 1.495 . S
C1957 H1963 0.959 . S
C1957 H1964 0.961 . S
C1957 H1965 0.960 . S
C1958 C1956 1.381 . S
C1958 C1959 1.394 . S
C1958 H1966 0.930 . S
C1959 C1958 1.394 . S
C1959 C1960 1.383 . S
C1959 H1967 0.929 . S
C1960 C1959 1.383 . S
C1960 C1961 1.377 . S
C1961 H1945 0.930 . S
C1961 C1960 1.377 . S
C1961 C1962 1.379 . S
C1962 H1946 0.931 . S
C1962 C1956 1.383 . S
C1962 C1961 1.379 . S
H1963 C1957 0.959 . S
H1964 C1957 0.961 . S
H1965 C1957 0.960 . S
H1966 C1958 0.930 . S
H1967 C1959 0.929 . S
C537 C94 0.627 . S
C556 C28 0.582 . S
C573 C61 0.635 . S
C592 C127 0.685 . S
C609 C226 0.625 . S
C628 C160 0.577 . S
C645 C259 0.631 . S
C664 C193 0.599 . S
C681 C292 0.615 . S
C700 C358 0.596 . S
C717 C391 0.639 . S
C736 C325 0.659 . S
C753 C490 0.621 . S
C772 C424 0.648 . S
C789 C457 0.637 . S
C808 C523 0.635 . S
C825 N5 1.733 . S
C844 N500 1.733 . S
C861 N401 1.732 . S
C880 N38 1.723 . S
C897 N434 1.731 . S
C916 N71 1.723 . S
C933 N467 1.733 . S
C952 N104 1.731 . S
C969 N302 1.731 . S
C988 N137 1.730 . S
C1005 N335 1.731 . S
C1024 N170 1.730 . S
C1041 N368 1.731 . S
C1060 N203 1.723 . S
C1077 N269 1.731 . S
C1096 N236 1.730 . S
C1113 C17 1.365 . S
C1132 C107 1.397 . S
C1149 C8 1.400 . S
C1168 C50 1.347 . S
C1185 C83 1.367 . S
C1204 C41 1.397 . S
C1221 C74 1.398 . S
C1240 C116 1.377 . S
C1257 C173 1.400 . S
C1276 C149 1.343 . S
C1293 C182 1.370 . S
C1312 C206 1.391 . S
C1329 C239 1.397 . S
C1348 C215 1.384 . S
C1365 C140 1.397 . S
C1384 C248 1.378 . S
C1401 C281 1.362 . S
C1420 C371 1.403 . S
C1437 C272 1.400 . S
C1456 C314 1.343 . S
C1473 C347 1.365 . S
C1492 C305 1.400 . S
C1509 C380 1.367 . S
C1528 C338 1.396 . S
C1545 C413 1.363 . S
C1564 C437 1.403 . S
C1581 C470 1.400 . S
C1600 C446 1.344 . S
C1617 C503 1.397 . S
C1636 C479 1.388 . S
C1653 C512 1.362 . S
C1672 C404 1.403 . S
C1689 N14 1.560 . S
C1708 N212 1.564 . S
C1725 N245 1.553 . S
C1744 N47 1.528 . S
C1761 N146 1.553 . S
C1780 N80 1.529 . S
C1797 N179 1.553 . S
C1816 N113 1.529 . S
C1833 N278 1.557 . S
C1852 N476 1.551 . S
C1869 N509 1.562 . S
C1888 N311 1.566 . S
C1905 N410 1.555 . S
C1924 N344 1.533 . S
C1941 N377 1.554 . S
C1960 N443 1.537 . S
