# Generated by pormake.
# Topology ske, (6)-cn, num edge types: 1
# Building blocks:
#     Node 0, Type 0, BuildingBlock: HISSIN_clean_sbu_0, # of connection points: 6
#     Node 1, Type 0, BuildingBlock: HISSIN_clean_sbu_0, # of connection points: 6
#     Node 2, Type 0, BuildingBlock: HISSIN_clean_sbu_0, # of connection points: 6
#     Node 3, Type 0, BuildingBlock: HISSIN_clean_sbu_0, # of connection points: 6
#     Node 4, Type 0, BuildingBlock: HISSIN_clean_sbu_0, # of connection points: 6
#     Node 5, Type 0, BuildingBlock: HISSIN_clean_sbu_0, # of connection points: 6
#     Node 6, Type 0, BuildingBlock: HISSIN_clean_sbu_0, # of connection points: 6
#     Node 7, Type 0, BuildingBlock: HISSIN_clean_sbu_0, # of connection points: 6
#     Edge 8, Type (0, 0), None
#     Edge 9, Type (0, 0), None
#     Edge 10, Type (0, 0), None
#     Edge 11, Type (0, 0), None
#     Edge 12, Type (0, 0), None
#     Edge 13, Type (0, 0), None
#     Edge 14, Type (0, 0), None
#     Edge 15, Type (0, 0), None
#     Edge 16, Type (0, 0), None
#     Edge 17, Type (0, 0), None
#     Edge 18, Type (0, 0), None
#     Edge 19, Type (0, 0), None
#     Edge 20, Type (0, 0), None
#     Edge 21, Type (0, 0), None
#     Edge 22, Type (0, 0), None
#     Edge 23, Type (0, 0), None
#     Edge 24, Type (0, 0), None
#     Edge 25, Type (0, 0), None
#     Edge 26, Type (0, 0), None
#     Edge 27, Type (0, 0), None
#     Edge 28, Type (0, 0), None
#     Edge 29, Type (0, 0), None
#     Edge 30, Type (0, 0), None
#     Edge 31, Type (0, 0), None
# Relax obj value: 0.172
# Max RMSD: 0.215
# Mean RMSD: 0.209
data_MOF--net-ske--node1-HISSIN_clean_sbu_0--edge1-none
_symmetry_space_group_name_H-M    P1
_symmetry_Int_Tables_number       1
_symmetry_cell_setting            triclinic
loop_
_symmetry_equiv_pos_as_xyz
'x, y, z'
_cell_length_a     71.22627
_cell_length_b     13.504952
_cell_length_c     6.949779
_cell_angle_alpha  90.217062
_cell_angle_beta   90.830382
_cell_angle_gamma 99.314186
loop_
_atom_site_label
_atom_site_type_symbol
_atom_site_fract_x
_atom_site_fract_y
_atom_site_fract_z
_atom_type_partial_charge
Eu0 Eu 0.12227 0.19928 0.50601 0.0
Eu1 Eu 0.17079 0.24519 0.51147 0.0
C2 C 0.14559 0.41757 0.54218 0.0
C3 C 0.06706 0.18518 0.55847 0.0
C4 C 0.06153 0.27896 0.52416 0.0
C5 C 0.03533 0.12367 0.67714 0.0
C6 C 0.04292 0.29379 0.55995 0.0
C7 C 0.05395 0.10878 0.64066 0.0
C8 C 0.0294 0.21532 0.63096 0.0
C9 C 0.08513 0.16112 0.483 0.0
O10 O 0.16322 0.24068 0.82436 0.0
O11 O 0.13007 0.2039 0.82008 0.0
C12 C 0.14666 0.22193 0.90951 0.0
O13 O 0.13337 0.05604 0.45102 0.0
O14 O 0.19705 0.34653 0.58395 0.0
O15 O 0.19805 0.21209 0.41394 0.0
O16 O 0.16224 0.08738 0.61111 0.0
C17 C 0.14744 0.0256 0.54524 0.0
O18 O 0.13142 0.23965 0.20495 0.0
O19 O 0.16186 0.20237 0.2086 0.0
O20 O 0.15909 0.38567 0.44555 0.0
O21 O 0.09566 0.22959 0.3821 0.0
O22 O 0.09519 0.10938 0.59026 0.0
O23 O 0.1311 0.35655 0.61006 0.0
C24 C 0.22567 0.27879 0.59309 0.0
C25 C 0.22593 0.21552 0.75212 0.0
C26 C 0.26016 0.31674 0.60613 0.0
C27 C 0.24328 0.20253 0.83732 0.0
C28 C 0.24283 0.32964 0.52139 0.0
C29 C 0.26061 0.2526 0.76446 0.0
C30 C 0.20782 0.29158 0.49615 0.0
C31 C 0.14665 0.22121 0.11769 0.0
H32 H 0.07125 0.33948 0.46016 0.0
H33 H 0.0254 0.06205 0.73467 0.0
H34 H 0.03887 0.3649 0.52017 0.0
H35 H 0.05784 0.03581 0.66828 0.0
H36 H 0.21276 0.17596 0.80937 0.0
H37 H 0.2732 0.3554 0.54497 0.0
H38 H 0.24313 0.15369 0.96074 0.0
H39 H 0.24284 0.37859 0.39812 0.0
Eu40 Eu 0.91543 0.24118 0.51013 0.0
Eu41 Eu 0.86683 0.19668 0.50162 0.0
C42 C 0.89186 0.02312 0.54002 0.0
C43 C 0.97087 0.25534 0.57025 0.0
C44 C 0.97612 0.16072 0.53839 0.0
C45 C 1.00325 0.31832 0.679 0.0
C46 C 0.9949 0.14618 0.5699 0.0
C47 C 0.98446 0.33292 0.64677 0.0
C48 C 1.00887 0.22579 0.63409 0.0
C49 C 0.95256 0.27904 0.49578 0.0
O50 O 0.87447 0.20113 0.81642 0.0
O51 O 0.90764 0.23632 0.82218 0.0
C52 C 0.89104 0.2188 0.90659 0.0
O53 O 0.90449 0.38452 0.45184 0.0
O54 O 0.84025 0.09828 0.56807 0.0
O55 O 0.83974 0.23182 0.3961 0.0
O56 O 0.87577 0.35421 0.60564 0.0
C57 C 0.89051 0.41554 0.54268 0.0
O58 O 0.90619 0.20003 0.20644 0.0
O59 O 0.87579 0.23798 0.2013 0.0
O60 O 0.87818 0.05459 0.44159 0.0
O61 O 0.94191 0.21106 0.3907 0.0
O62 O 0.94264 0.32988 0.60439 0.0
O63 O 0.90652 0.08416 0.60985 0.0
C64 C 0.81237 0.17254 0.5764 0.0
C65 C 0.81279 0.25109 0.70956 0.0
C66 C 0.77825 0.12821 0.6176 0.0
C67 C 0.79599 0.26841 0.79574 0.0
C68 C 0.79505 0.11112 0.53142 0.0
C69 C 0.77849 0.20727 0.75051 0.0
C70 C 0.82968 0.15467 0.47899 0.0
C71 C 0.89101 0.21906 0.11481 0.0
H72 H 0.966 0.09929 0.47889 0.0
H73 H 1.01354 0.38084 0.73166 0.0
H74 H 0.99869 0.07428 0.5316 0.0
H75 H 0.98077 0.40652 0.6724 0.0
H76 H 0.82607 0.29946 0.74539 0.0
H77 H 0.76511 0.07889 0.58142 0.0
H78 H 0.79666 0.33077 0.89539 0.0
H79 H 0.7945 0.04999 0.4289 0.0
Eu80 Eu 0.17096 0.74066 0.61324 0.0
Eu81 Eu 0.12243 0.70124 0.60601 0.0
C82 C 0.14648 0.52455 0.56946 0.0
C83 C 0.2259 0.75429 0.55711 0.0
C84 C 0.22682 0.66798 0.4467 0.0
C85 C 0.2599 0.80608 0.52104 0.0
C86 C 0.24427 0.65104 0.37331 0.0
C87 C 0.24253 0.82287 0.5938 0.0
C88 C 0.26102 0.72001 0.40986 0.0
C89 C 0.20809 0.77348 0.64295 0.0
O90 O 0.13169 0.74357 0.90892 0.0
O91 O 0.1617 0.70102 0.9135 0.0
C92 C 0.14674 0.72284 1.0004 0.0
O93 O 0.16071 0.88692 0.66573 0.0
O94 O 0.09599 0.73341 0.72322 0.0
O95 O 0.09516 0.613 0.51268 0.0
O96 O 0.13175 0.85808 0.50704 0.0
C97 C 0.14673 0.91864 0.57225 0.0
O98 O 0.16339 0.73785 0.29832 0.0
O99 O 0.13019 0.70722 0.29364 0.0
O100 O 0.13294 0.55678 0.66509 0.0
O101 O 0.19835 0.83291 0.55076 0.0
O102 O 0.19727 0.69764 0.72184 0.0
O103 O 0.16115 0.58509 0.50346 0.0
C104 C 0.06698 0.68808 0.54438 0.0
C105 C 0.06158 0.78229 0.57681 0.0
C106 C 0.0347 0.6242 0.43379 0.0
C107 C 0.04277 0.79616 0.5447 0.0
C108 C 0.05352 0.61026 0.4667 0.0
C109 C 0.02892 0.71627 0.47931 0.0
C110 C 0.0853 0.66489 0.61967 0.0
C111 C 0.14678 0.72297 0.20865 0.0
H112 H 0.21412 0.61377 0.41795 0.0
H113 H 0.27241 0.86176 0.54887 0.0
H114 H 0.24466 0.58376 0.28916 0.0
H115 H 0.24209 0.88977 0.67922 0.0
H116 H 0.07159 0.84387 0.63732 0.0
H117 H 0.02451 0.56149 0.38029 0.0
H118 H 0.03885 0.86768 0.58356 0.0
H119 H 0.05731 0.53689 0.44083 0.0
Eu120 Eu 0.86683 0.69953 0.60207 0.0
Eu121 Eu 0.91535 0.7404 0.60902 0.0
C122 C 0.89102 0.91628 0.56715 0.0
C123 C 0.81237 0.69048 0.52833 0.0
C124 C 0.81276 0.73784 0.34891 0.0
C125 C 0.77837 0.69078 0.54404 0.0
C126 C 0.79595 0.76117 0.26692 0.0
C127 C 0.79514 0.66753 0.62547 0.0
C128 C 0.77855 0.73757 0.36349 0.0
C129 C 0.8297 0.66565 0.61973 0.0
O130 O 0.90621 0.69899 0.90928 0.0
O131 O 0.87609 0.74025 0.90523 0.0
C132 C 0.8911 0.71898 0.99639 0.0
O133 O 0.87724 0.55432 0.65894 0.0
O134 O 0.94195 0.70808 0.73032 0.0
O135 O 0.94248 0.83006 0.52587 0.0
O136 O 0.90606 0.58314 0.50672 0.0
C137 C 0.89121 0.52254 0.56913 0.0
O138 O 0.87444 0.70336 0.28931 0.0
O139 O 0.90763 0.73428 0.29454 0.0
O140 O 0.90468 0.88465 0.66555 0.0
O141 O 0.83953 0.60945 0.52218 0.0
O142 O 0.84046 0.73837 0.71221 0.0
O143 O 0.87629 0.8554 0.49803 0.0
C144 C 0.97061 0.75415 0.55517 0.0
C145 C 0.97627 0.66063 0.58853 0.0
C146 C 1.00229 0.81722 0.43696 0.0
C147 C 0.99493 0.6467 0.55252 0.0
C148 C 0.98363 0.83124 0.47371 0.0
C149 C 1.00836 0.72582 0.48226 0.0
C150 C 0.95251 0.77732 0.63133 0.0
C151 C 0.89105 0.71864 0.2046 0.0
H152 H 0.826 0.7564 0.27245 0.0
H153 H 0.7653 0.67307 0.62353 0.0
H154 H 0.79653 0.79625 0.12675 0.0
H155 H 0.79465 0.63177 0.76512 0.0
H156 H 0.96664 0.59964 0.65209 0.0
H157 H 1.01215 0.87935 0.38008 0.0
H158 H 0.9991 0.57579 0.59169 0.0
H159 H 0.97964 0.90409 0.44705 0.0
Eu160 Eu 0.62399 0.72086 1.00084 0.0
Eu161 Eu 0.67234 0.77709 1.01241 0.0
C162 C 0.64541 0.94632 1.01245 0.0
C163 C 0.56805 0.68377 0.96503 0.0
C164 C 0.56497 0.7775 0.89688 0.0
C165 C 0.53404 0.63397 1.00347 0.0
C166 C 0.54643 0.79956 0.88331 0.0
C167 C 0.55249 0.61209 1.01649 0.0
C168 C 0.53073 0.72818 0.93806 0.0
C169 C 0.58717 0.65714 0.98286 0.0
O170 O 0.66426 0.78664 0.3221 0.0
O171 O 0.63234 0.7149 0.31414 0.0
C172 C 0.64812 0.75299 0.4064 0.0
O173 O 0.63691 0.58383 0.9478 0.0
O174 O 0.69872 0.8764 0.09357 0.0
O175 O 0.69955 0.7477 0.90769 0.0
O176 O 0.66506 0.61943 0.11735 0.0
C177 C 0.65102 0.55559 1.04369 0.0
O178 O 0.63279 0.77313 0.70398 0.0
O179 O 0.66318 0.73521 0.70794 0.0
O180 O 0.66044 0.91602 0.94008 0.0
O181 O 0.59804 0.66989 0.83316 0.0
O182 O 0.5966 0.68034 0.14288 0.0
O183 O 0.63017 0.88508 0.06513 0.0
C184 C 0.72665 0.80205 0.10366 0.0
C185 C 0.7268 0.71157 0.20166 0.0
C186 C 0.76025 0.85186 0.18026 0.0
C187 C 0.74364 0.69095 0.28683 0.0
C188 C 0.74341 0.87232 0.09484 0.0
C189 C 0.76059 0.76056 0.27599 0.0
C190 C 0.70945 0.82261 1.00235 0.0
C191 C 0.64798 0.75405 0.61584 0.0
H192 H 0.57686 0.83354 0.85549 0.0
H193 H 0.52242 0.57793 1.05073 0.0
H194 H 0.54441 0.87256 0.83094 0.0
H195 H 0.55463 0.53922 0.0692 0.0
H196 H 0.714 0.65629 0.20975 0.0
H197 H 0.77297 0.90767 0.17197 0.0
H198 H 0.74346 0.61951 0.35775 0.0
H199 H 0.74352 0.94268 1.01994 0.0
Eu200 Eu 0.41861 0.77511 0.07268 0.0
Eu201 Eu 0.36979 0.74084 1.06077 0.0
C202 C 0.39305 0.55895 1.06368 0.0
C203 C 0.47409 0.79203 1.01409 0.0
C204 C 0.47673 0.69891 0.9385 0.0
C205 C 0.50822 0.84866 1.00664 0.0
C206 C 0.4951 0.67998 0.90197 0.0
C207 C 0.48987 0.86759 1.04151 0.0
C208 C 0.51114 0.75349 0.94255 0.0
C209 C 0.45572 0.80847 0.09128 0.0
O210 O 0.3777 0.76165 0.37402 0.0
O211 O 0.40977 0.74621 0.37772 0.0
C212 C 0.39376 0.75324 0.46345 0.0
O213 O 0.40899 0.91459 0.17616 0.0
O214 O 0.3416 0.65187 1.00316 0.0
O215 O 0.34438 0.80927 0.08398 0.0
O216 O 0.38259 0.89676 0.98222 0.0
C217 C 0.39543 0.95196 0.08958 0.0
O218 O 0.41006 0.78841 0.76173 0.0
O219 O 0.37801 0.71891 0.75695 0.0
O220 O 0.37866 0.59488 0.13708 0.0
O221 O 0.44582 0.86656 0.99749 0.0
O222 O 0.44516 0.7326 0.17318 0.0
O223 O 0.40802 0.61534 0.99251 0.0
C224 C 0.31486 0.70777 0.14669 0.0
C225 C 0.31418 0.73335 0.342 0.0
C226 C 0.28029 0.67453 0.1327 0.0
C227 C 0.29663 0.73236 0.43052 0.0
C228 C 0.29784 0.67549 1.04449 0.0
C229 C 0.27949 0.70605 0.32512 0.0
C230 C 0.33275 0.72708 1.04005 0.0
C231 C 0.39399 0.75312 0.67147 0.0
H232 H 0.46471 0.63954 0.91568 0.0
H233 H 0.52015 0.9068 1.04136 0.0
H234 H 0.49678 0.60653 0.84865 0.0
H235 H 0.48808 0.93973 0.10034 0.0
H236 H 0.32717 0.75821 0.42368 0.0
H237 H 0.26741 0.65453 1.04688 0.0
H238 H 0.2965 0.75536 0.57987 0.0
H239 H 0.2981 0.65572 0.89339 0.0
Eu240 Eu 0.67286 0.26756 0.08461 0.0
Eu241 Eu 0.62416 0.23925 0.07293 0.0
C242 C 0.64608 0.05344 1.03562 0.0
C243 C 0.72704 0.26729 1.01307 0.0
C244 C 0.72681 0.23816 0.81907 0.0
C245 C 0.76057 0.25389 1.0367 0.0
C246 C 0.74348 0.21775 0.73384 0.0
C247 C 0.74395 0.27444 0.12127 0.0
C248 C 0.76061 0.22616 0.84144 0.0
C249 C 0.71001 0.29185 0.10665 0.0
O250 O 0.63266 0.26445 0.38336 0.0
O251 O 0.66369 0.2328 0.38621 0.0
C252 C 0.6482 0.24791 0.47266 0.0
O253 O 0.66404 0.41426 0.15971 0.0
O254 O 0.59529 0.15611 1.02171 0.0
O255 O 0.59966 0.31434 0.10227 0.0
O256 O 0.6375 0.38934 0.96733 0.0
C257 C 0.65095 0.44888 1.05919 0.0
O258 O 0.66486 0.27396 0.77058 0.0
O259 O 0.63198 0.22342 0.76535 0.0
O260 O 0.63181 0.08672 0.11734 0.0
O261 O 0.70057 0.35379 1.0176 0.0
O262 O 0.69888 0.21803 0.18804 0.0
O263 O 0.66164 0.11193 0.98199 0.0
C264 C 0.56849 0.22244 0.15007 0.0
C265 C 0.56421 0.2921 0.28711 0.0
C266 C 0.53472 0.15693 0.11703 0.0
C267 C 0.5453 0.29679 0.33233 0.0
C268 C 0.55362 0.15235 0.07171 0.0
C269 C 0.53029 0.23219 0.24113 0.0
C270 C 0.58735 0.23464 1.05891 0.0
C271 C 0.6484 0.24774 0.6805 0.0
H272 H 0.71384 0.2321 0.73345 0.0
H273 H 0.77337 0.25922 0.12481 0.0
H274 H 0.74303 0.19715 0.58296 0.0
H275 H 0.74434 0.29656 0.27149 0.0
H276 H 0.57536 0.3472 0.35035 0.0
H277 H 0.52355 0.10654 1.04261 0.0
H278 H 0.54238 0.35462 0.43076 0.0
H279 H 0.55649 0.09853 0.96438 0.0
Eu280 Eu 0.36899 0.23002 0.10318 0.0
Eu281 Eu 0.41758 0.27674 0.1112 0.0
C282 C 0.39277 0.45191 0.0706 0.0
C283 C 0.31414 0.20581 1.01486 0.0
C284 C 0.31153 0.30223 0.95706 0.0
C285 C 0.28191 0.14025 0.907 0.0
C286 C 0.29414 0.31755 0.87583 0.0
C287 C 0.29925 0.12509 0.98846 0.0
C288 C 0.2791 0.23675 0.85076 0.0
C289 C 0.33177 0.1876 0.11169 0.0
O290 O 0.40843 0.29803 0.41543 0.0
O291 O 0.37811 0.20587 0.40764 0.0
C292 C 0.39293 0.25466 0.50078 0.0
O293 O 0.3802 0.09047 1.02787 0.0
O294 O 0.44476 0.36542 0.20699 0.0
O295 O 0.44425 0.24092 1.00617 0.0
O296 O 0.40873 0.11663 0.19306 0.0
C297 C 0.39476 0.0577 0.10628 0.0
O298 O 0.37672 0.2674 0.79611 0.0
O299 O 0.40843 0.24633 0.80216 0.0
O300 O 0.4079 0.41722 1.01334 0.0
O301 O 0.34235 0.13358 1.01994 0.0
O302 O 0.34181 0.26212 0.20551 0.0
O303 O 0.37773 0.39544 0.13925 0.0
C304 C 0.47303 0.2909 0.18432 0.0
C305 C 0.47631 0.19237 0.21614 0.0
C306 C 0.50678 0.35149 0.23264 0.0
C307 C 0.49485 0.17344 0.24946 0.0
C308 C 0.4883 0.37037 0.19972 0.0
C309 C 0.51038 0.25247 0.25027 0.0
C310 C 0.45476 0.31191 0.10543 0.0
C311 C 0.39261 0.25638 0.71024 0.0
H312 H 0.3228 0.36582 0.97661 0.0
H313 H 0.27075 0.07617 0.88671 0.0
H314 H 0.29238 0.39297 0.8357 0.0
H315 H 0.30098 0.05015 1.03248 0.0
H316 H 0.46474 0.12967 0.20559 0.0
H317 H 0.51837 0.41413 0.23063 0.0
H318 H 0.49715 0.09669 0.26646 0.0
H319 H 0.48611 0.44686 0.17417 0.0
loop_
_geom_bond_atom_site_label_1
_geom_bond_atom_site_label_2
_geom_bond_distance
_geom_bond_site_symmetry_2
_ccdc_geom_bond_type
Eu0 C9 2.828 . S
Eu0 O11 2.392 . S
Eu0 O13 2.418 . S
Eu0 O18 2.373 . S
Eu0 O21 2.488 . S
Eu0 O22 2.471 . S
Eu0 O23 2.349 . S
Eu1 O10 2.373 . S
Eu1 O14 2.488 . S
Eu1 O15 2.471 . S
Eu1 O16 2.349 . S
Eu1 O19 2.392 . S
Eu1 O20 2.418 . S
Eu1 C30 2.828 . S
C2 O20 1.244 . S
C2 O23 1.265 . S
C3 C4 1.379 . S
C3 C7 1.373 . S
C3 C9 1.505 . S
C4 C3 1.379 . S
C4 C6 1.369 . S
C4 H32 0.930 . S
C5 C7 1.383 . S
C5 C8 1.382 . S
C5 H33 0.930 . S
C6 C4 1.369 . S
C6 C8 1.392 . S
C6 H34 0.930 1_554 S
C7 C3 1.373 . S
C7 C5 1.383 . S
C7 H35 0.931 . S
C8 C5 1.382 . S
C8 C6 1.392 . S
C9 Eu0 2.828 . S
C9 C3 1.505 . S
C9 O21 1.249 . S
C9 O22 1.244 . S
O10 Eu1 2.373 . S
O10 C12 1.258 . S
O11 Eu0 2.392 . S
O11 C12 1.242 . S
C12 O10 1.258 . S
C12 O11 1.242 . S
O13 Eu0 2.418 . S
O13 C17 1.244 . S
O14 Eu1 2.488 . S
O14 C30 1.249 . S
O15 Eu1 2.471 . S
O15 C30 1.244 . S
O16 Eu1 2.349 . S
O16 C17 1.265 . S
C17 O13 1.244 . S
C17 O16 1.265 . S
O18 Eu0 2.373 . S
O18 C31 1.258 . S
O19 Eu1 2.392 . S
O19 C31 1.242 . S
O20 Eu1 2.418 . S
O20 C2 1.244 . S
O21 Eu0 2.488 . S
O21 C9 1.249 . S
O22 Eu0 2.471 . S
O22 C9 1.244 . S
O23 Eu0 2.349 . S
O23 C2 1.265 . S
C24 C25 1.379 . S
C24 C28 1.373 . S
C24 C30 1.505 . S
C25 C24 1.379 . S
C25 C27 1.369 . S
C25 H36 0.930 . S
C26 C28 1.383 . S
C26 C29 1.382 . S
C26 H37 0.930 . S
C27 C25 1.369 . S
C27 C29 1.392 . S
C27 H38 0.930 . S
C28 C24 1.373 . S
C28 C26 1.383 . S
C28 H39 0.931 . S
C29 C26 1.382 . S
C29 C27 1.392 . S
C30 Eu1 2.828 . S
C30 O14 1.249 . S
C30 O15 1.244 . S
C30 C24 1.505 . S
C31 O18 1.258 . S
C31 O19 1.242 . S
H32 C4 0.930 . S
H33 C5 0.930 . S
H34 C6 0.930 1_556 S
H35 C7 0.931 . S
H36 C25 0.930 . S
H37 C26 0.930 . S
H38 C27 0.930 . S
H39 C28 0.931 . S
Eu40 C49 2.828 . S
Eu40 O51 2.392 . S
Eu40 O53 2.418 . S
Eu40 O58 2.373 . S
Eu40 O61 2.488 . S
Eu40 O62 2.471 . S
Eu40 O63 2.349 . S
Eu41 O50 2.373 . S
Eu41 O54 2.488 . S
Eu41 O55 2.471 . S
Eu41 O56 2.349 . S
Eu41 O59 2.392 . S
Eu41 O60 2.418 . S
Eu41 C70 2.828 . S
C42 O60 1.244 . S
C42 O63 1.265 . S
C43 C44 1.379 . S
C43 C47 1.373 . S
C43 C49 1.505 . S
C44 C43 1.379 . S
C44 C46 1.369 . S
C44 H72 0.930 . S
C45 C47 1.383 . S
C45 C48 1.382 . S
C45 H73 0.930 . S
C46 C44 1.369 . S
C46 C48 1.392 . S
C46 H74 0.930 1_554 S
C47 C43 1.373 . S
C47 C45 1.383 . S
C47 H75 0.931 . S
C48 C45 1.382 . S
C48 C46 1.392 . S
C49 Eu40 2.828 . S
C49 C43 1.505 . S
C49 O61 1.249 . S
C49 O62 1.244 . S
O50 Eu41 2.373 . S
O50 C52 1.258 . S
O51 Eu40 2.392 . S
O51 C52 1.242 . S
C52 O50 1.258 . S
C52 O51 1.242 . S
O53 Eu40 2.418 . S
O53 C57 1.244 . S
O54 Eu41 2.488 . S
O54 C70 1.249 . S
O55 Eu41 2.471 . S
O55 C70 1.244 . S
O56 Eu41 2.349 . S
O56 C57 1.265 . S
C57 O53 1.244 . S
C57 O56 1.265 . S
O58 Eu40 2.373 . S
O58 C71 1.258 . S
O59 Eu41 2.392 . S
O59 C71 1.242 . S
O60 Eu41 2.418 . S
O60 C42 1.244 . S
O61 Eu40 2.488 . S
O61 C49 1.249 . S
O62 Eu40 2.471 . S
O62 C49 1.244 . S
O63 Eu40 2.349 . S
O63 C42 1.265 . S
C64 C65 1.379 . S
C64 C68 1.373 . S
C64 C70 1.505 . S
C65 C64 1.379 . S
C65 C67 1.369 . S
C65 H76 0.930 . S
C66 C68 1.383 . S
C66 C69 1.382 . S
C66 H77 0.930 . S
C67 C65 1.369 . S
C67 C69 1.392 . S
C67 H78 0.930 . S
C68 C64 1.373 . S
C68 C66 1.383 . S
C68 H79 0.931 . S
C69 C66 1.382 . S
C69 C67 1.392 . S
C70 Eu41 2.828 . S
C70 O54 1.249 . S
C70 O55 1.244 . S
C70 C64 1.505 . S
C71 O58 1.258 . S
C71 O59 1.242 . S
H72 C44 0.930 . S
H73 C45 0.930 . S
H74 C46 0.930 1_556 S
H75 C47 0.931 . S
H76 C65 0.930 . S
H77 C66 0.930 . S
H78 C67 0.930 . S
H79 C68 0.931 . S
Eu80 C89 2.828 . S
Eu80 O91 2.392 . S
Eu80 O93 2.418 . S
Eu80 O98 2.373 . S
Eu80 O101 2.488 . S
Eu80 O102 2.471 . S
Eu80 O103 2.349 . S
Eu81 O90 2.373 . S
Eu81 O94 2.488 . S
Eu81 O95 2.471 . S
Eu81 O96 2.349 . S
Eu81 O99 2.392 . S
Eu81 O100 2.418 . S
Eu81 C110 2.828 . S
C82 O100 1.244 . S
C82 O103 1.265 . S
C83 C84 1.379 . S
C83 C87 1.373 . S
C83 C89 1.505 . S
C84 C83 1.379 . S
C84 C86 1.369 . S
C84 H112 0.930 . S
C85 C87 1.383 . S
C85 C88 1.382 . S
C85 H113 0.930 . S
C86 C84 1.369 . S
C86 C88 1.392 . S
C86 H114 0.930 . S
C87 C83 1.373 . S
C87 C85 1.383 . S
C87 H115 0.931 . S
C88 C85 1.382 . S
C88 C86 1.392 . S
C89 Eu80 2.828 . S
C89 C83 1.505 . S
C89 O101 1.249 . S
C89 O102 1.244 . S
O90 Eu81 2.373 . S
O90 C92 1.258 . S
O91 Eu80 2.392 . S
O91 C92 1.242 . S
C92 O90 1.258 . S
C92 O91 1.242 . S
O93 Eu80 2.418 . S
O93 C97 1.244 . S
O94 Eu81 2.488 . S
O94 C110 1.249 . S
O95 Eu81 2.471 . S
O95 C110 1.244 . S
O96 Eu81 2.349 . S
O96 C97 1.265 . S
C97 O93 1.244 . S
C97 O96 1.265 . S
O98 Eu80 2.373 . S
O98 C111 1.258 . S
O99 Eu81 2.392 . S
O99 C111 1.242 . S
O100 Eu81 2.418 . S
O100 C82 1.244 . S
O101 Eu80 2.488 . S
O101 C89 1.249 . S
O102 Eu80 2.471 . S
O102 C89 1.244 . S
O103 Eu80 2.349 . S
O103 C82 1.265 . S
C104 C105 1.379 . S
C104 C108 1.373 . S
C104 C110 1.505 . S
C105 C104 1.379 . S
C105 C107 1.369 . S
C105 H116 0.930 . S
C106 C108 1.383 . S
C106 C109 1.382 . S
C106 H117 0.930 . S
C107 C105 1.369 . S
C107 C109 1.392 . S
C107 H118 0.930 1_556 S
C108 C104 1.373 . S
C108 C106 1.383 . S
C108 H119 0.931 . S
C109 C106 1.382 . S
C109 C107 1.392 . S
C110 Eu81 2.828 . S
C110 O94 1.249 . S
C110 O95 1.244 . S
C110 C104 1.505 . S
C111 O98 1.258 . S
C111 O99 1.242 . S
H112 C84 0.930 . S
H113 C85 0.930 . S
H114 C86 0.930 . S
H115 C87 0.931 . S
H116 C105 0.930 . S
H117 C106 0.930 . S
H118 C107 0.930 1_554 S
H119 C108 0.931 . S
Eu120 C129 2.828 . S
Eu120 O131 2.392 . S
Eu120 O133 2.418 . S
Eu120 O138 2.373 . S
Eu120 O141 2.488 . S
Eu120 O142 2.471 . S
Eu120 O143 2.349 . S
Eu121 O130 2.373 . S
Eu121 O134 2.488 . S
Eu121 O135 2.471 . S
Eu121 O136 2.349 . S
Eu121 O139 2.392 . S
Eu121 O140 2.418 . S
Eu121 C150 2.828 . S
C122 O140 1.244 . S
C122 O143 1.265 . S
C123 C124 1.379 . S
C123 C127 1.373 . S
C123 C129 1.505 . S
C124 C123 1.379 . S
C124 C126 1.369 . S
C124 H152 0.930 . S
C125 C127 1.383 . S
C125 C128 1.382 . S
C125 H153 0.930 . S
C126 C124 1.369 . S
C126 C128 1.392 . S
C126 H154 0.930 . S
C127 C123 1.373 . S
C127 C125 1.383 . S
C127 H155 0.931 . S
C128 C125 1.382 . S
C128 C126 1.392 . S
C129 Eu120 2.828 . S
C129 C123 1.505 . S
C129 O141 1.249 . S
C129 O142 1.244 . S
O130 Eu121 2.373 . S
O130 C132 1.258 . S
O131 Eu120 2.392 . S
O131 C132 1.242 . S
C132 O130 1.258 . S
C132 O131 1.242 . S
O133 Eu120 2.418 . S
O133 C137 1.244 . S
O134 Eu121 2.488 . S
O134 C150 1.249 . S
O135 Eu121 2.471 . S
O135 C150 1.244 . S
O136 Eu121 2.349 . S
O136 C137 1.265 . S
C137 O133 1.244 . S
C137 O136 1.265 . S
O138 Eu120 2.373 . S
O138 C151 1.258 . S
O139 Eu121 2.392 . S
O139 C151 1.242 . S
O140 Eu121 2.418 . S
O140 C122 1.244 . S
O141 Eu120 2.488 . S
O141 C129 1.249 . S
O142 Eu120 2.471 . S
O142 C129 1.244 . S
O143 Eu120 2.349 . S
O143 C122 1.265 . S
C144 C145 1.379 . S
C144 C148 1.373 . S
C144 C150 1.505 . S
C145 C144 1.379 . S
C145 C147 1.369 . S
C145 H156 0.930 . S
C146 C148 1.383 . S
C146 C149 1.382 . S
C146 H157 0.930 . S
C147 C145 1.369 . S
C147 C149 1.392 . S
C147 H158 0.930 1_556 S
C148 C144 1.373 . S
C148 C146 1.383 . S
C148 H159 0.931 . S
C149 C146 1.382 . S
C149 C147 1.392 . S
C150 Eu121 2.828 . S
C150 O134 1.249 . S
C150 O135 1.244 . S
C150 C144 1.505 . S
C151 O138 1.258 . S
C151 O139 1.242 . S
H152 C124 0.930 . S
H153 C125 0.930 . S
H154 C126 0.930 . S
H155 C127 0.931 . S
H156 C145 0.930 . S
H157 C146 0.930 . S
H158 C147 0.930 1_554 S
H159 C148 0.931 . S
Eu160 C169 2.828 1_554 S
Eu160 O171 2.392 . S
Eu160 O173 2.418 . S
Eu160 O178 2.373 1_554 S
Eu160 O181 2.488 1_554 S
Eu160 O182 2.471 1_554 S
Eu160 O183 2.349 . S
Eu161 O170 2.373 1_556 S
Eu161 O174 2.488 1_556 S
Eu161 O175 2.471 1_556 S
Eu161 O176 2.349 . S
Eu161 O179 2.392 . S
Eu161 O180 2.418 . S
Eu161 C190 2.828 1_556 S
C162 O180 1.244 1_554 S
C162 O183 1.265 . S
C163 C164 1.379 . S
C163 C167 1.373 . S
C163 C169 1.505 . S
C164 C163 1.379 . S
C164 C166 1.369 . S
C164 H192 0.930 . S
C165 C167 1.383 . S
C165 C168 1.382 . S
C165 H193 0.930 . S
C166 C164 1.369 . S
C166 C168 1.392 . S
C166 H194 0.930 . S
C167 C163 1.373 . S
C167 C165 1.383 . S
C167 H195 0.931 . S
C168 C165 1.382 . S
C168 C166 1.392 . S
C169 Eu160 2.828 1_556 S
C169 C163 1.505 . S
C169 O181 1.249 . S
C169 O182 1.244 . S
O170 Eu161 2.373 1_554 S
O170 C172 1.258 . S
O171 Eu160 2.392 . S
O171 C172 1.242 . S
C172 O170 1.258 . S
C172 O171 1.242 . S
O173 Eu160 2.418 . S
O173 C177 1.244 1_554 S
O174 Eu161 2.488 1_554 S
O174 C190 1.249 . S
O175 Eu161 2.471 1_554 S
O175 C190 1.244 . S
O176 Eu161 2.349 . S
O176 C177 1.265 . S
C177 O173 1.244 1_556 S
C177 O176 1.265 . S
O178 Eu160 2.373 1_556 S
O178 C191 1.258 . S
O179 Eu161 2.392 . S
O179 C191 1.242 . S
O180 Eu161 2.418 . S
O180 C162 1.244 1_556 S
O181 Eu160 2.488 1_556 S
O181 C169 1.249 . S
O182 Eu160 2.471 1_556 S
O182 C169 1.244 . S
O183 Eu160 2.349 . S
O183 C162 1.265 . S
C184 C185 1.379 . S
C184 C188 1.373 . S
C184 C190 1.505 . S
C185 C184 1.379 . S
C185 C187 1.369 . S
C185 H196 0.930 . S
C186 C188 1.383 . S
C186 C189 1.382 . S
C186 H197 0.930 . S
C187 C185 1.369 . S
C187 C189 1.392 . S
C187 H198 0.930 . S
C188 C184 1.373 . S
C188 C186 1.383 . S
C188 H199 0.931 . S
C189 C186 1.382 . S
C189 C187 1.392 . S
C190 Eu161 2.828 1_554 S
C190 O174 1.249 . S
C190 O175 1.244 . S
C190 C184 1.505 . S
C191 O178 1.258 . S
C191 O179 1.242 . S
H192 C164 0.930 . S
H193 C165 0.930 . S
H194 C166 0.930 . S
H195 C167 0.931 . S
H196 C185 0.930 . S
H197 C186 0.930 . S
H198 C187 0.930 . S
H199 C188 0.931 . S
Eu200 C209 2.828 1_554 S
Eu200 O211 2.392 . S
Eu200 O213 2.418 . S
Eu200 O218 2.373 1_554 S
Eu200 O221 2.488 1_554 S
Eu200 O222 2.471 1_554 S
Eu200 O223 2.349 . S
Eu201 O210 2.373 1_556 S
Eu201 O214 2.488 1_556 S
Eu201 O215 2.471 1_556 S
Eu201 O216 2.349 . S
Eu201 O219 2.392 . S
Eu201 O220 2.418 . S
Eu201 C230 2.828 1_556 S
C202 O220 1.244 1_554 S
C202 O223 1.265 . S
C203 C204 1.379 . S
C203 C207 1.373 . S
C203 C209 1.505 . S
C204 C203 1.379 . S
C204 C206 1.369 . S
C204 H232 0.930 . S
C205 C207 1.383 . S
C205 C208 1.382 . S
C205 H233 0.930 . S
C206 C204 1.369 . S
C206 C208 1.392 . S
C206 H234 0.930 . S
C207 C203 1.373 . S
C207 C205 1.383 . S
C207 H235 0.931 . S
C208 C205 1.382 . S
C208 C206 1.392 . S
C209 Eu200 2.828 1_556 S
C209 C203 1.505 . S
C209 O221 1.249 . S
C209 O222 1.244 . S
O210 Eu201 2.373 1_554 S
O210 C212 1.258 . S
O211 Eu200 2.392 . S
O211 C212 1.242 . S
C212 O210 1.258 . S
C212 O211 1.242 . S
O213 Eu200 2.418 . S
O213 C217 1.244 1_554 S
O214 Eu201 2.488 1_554 S
O214 C230 1.249 . S
O215 Eu201 2.471 1_554 S
O215 C230 1.244 . S
O216 Eu201 2.349 . S
O216 C217 1.265 . S
C217 O213 1.244 1_556 S
C217 O216 1.265 . S
O218 Eu200 2.373 1_556 S
O218 C231 1.258 . S
O219 Eu201 2.392 . S
O219 C231 1.242 . S
O220 Eu201 2.418 . S
O220 C202 1.244 1_556 S
O221 Eu200 2.488 1_556 S
O221 C209 1.249 . S
O222 Eu200 2.471 1_556 S
O222 C209 1.244 . S
O223 Eu200 2.349 . S
O223 C202 1.265 . S
C224 C225 1.379 . S
C224 C228 1.373 . S
C224 C230 1.505 . S
C225 C224 1.379 . S
C225 C227 1.369 . S
C225 H236 0.930 . S
C226 C228 1.383 . S
C226 C229 1.382 . S
C226 H237 0.930 . S
C227 C225 1.369 . S
C227 C229 1.392 . S
C227 H238 0.930 . S
C228 C224 1.373 . S
C228 C226 1.383 . S
C228 H239 0.931 . S
C229 C226 1.382 . S
C229 C227 1.392 . S
C230 Eu201 2.828 1_554 S
C230 O214 1.249 . S
C230 O215 1.244 . S
C230 C224 1.505 . S
C231 O218 1.258 . S
C231 O219 1.242 . S
H232 C204 0.930 . S
H233 C205 0.930 . S
H234 C206 0.930 . S
H235 C207 0.931 . S
H236 C225 0.930 . S
H237 C226 0.930 . S
H238 C227 0.930 . S
H239 C228 0.931 . S
Eu240 C249 2.828 1_554 S
Eu240 O251 2.392 . S
Eu240 O253 2.418 . S
Eu240 O258 2.373 1_554 S
Eu240 O261 2.488 1_554 S
Eu240 O262 2.471 1_554 S
Eu240 O263 2.349 . S
Eu241 O250 2.373 1_556 S
Eu241 O254 2.488 1_556 S
Eu241 O255 2.471 1_556 S
Eu241 O256 2.349 . S
Eu241 O259 2.392 . S
Eu241 O260 2.418 . S
Eu241 C270 2.828 1_556 S
C242 O260 1.244 1_554 S
C242 O263 1.265 . S
C243 C244 1.379 . S
C243 C247 1.373 . S
C243 C249 1.505 . S
C244 C243 1.379 . S
C244 C246 1.369 . S
C244 H272 0.930 . S
C245 C247 1.383 . S
C245 C248 1.382 . S
C245 H273 0.930 . S
C246 C244 1.369 . S
C246 C248 1.392 . S
C246 H274 0.930 . S
C247 C243 1.373 . S
C247 C245 1.383 . S
C247 H275 0.931 . S
C248 C245 1.382 . S
C248 C246 1.392 . S
C249 Eu240 2.828 1_556 S
C249 C243 1.505 . S
C249 O261 1.249 . S
C249 O262 1.244 . S
O250 Eu241 2.373 1_554 S
O250 C252 1.258 . S
O251 Eu240 2.392 . S
O251 C252 1.242 . S
C252 O250 1.258 . S
C252 O251 1.242 . S
O253 Eu240 2.418 . S
O253 C257 1.244 1_554 S
O254 Eu241 2.488 1_554 S
O254 C270 1.249 . S
O255 Eu241 2.471 1_554 S
O255 C270 1.244 . S
O256 Eu241 2.349 . S
O256 C257 1.265 . S
C257 O253 1.244 1_556 S
C257 O256 1.265 . S
O258 Eu240 2.373 1_556 S
O258 C271 1.258 . S
O259 Eu241 2.392 . S
O259 C271 1.242 . S
O260 Eu241 2.418 . S
O260 C242 1.244 1_556 S
O261 Eu240 2.488 1_556 S
O261 C249 1.249 . S
O262 Eu240 2.471 1_556 S
O262 C249 1.244 . S
O263 Eu240 2.349 . S
O263 C242 1.265 . S
C264 C265 1.379 . S
C264 C268 1.373 . S
C264 C270 1.505 . S
C265 C264 1.379 . S
C265 C267 1.369 . S
C265 H276 0.930 . S
C266 C268 1.383 . S
C266 C269 1.382 . S
C266 H277 0.930 . S
C267 C265 1.369 . S
C267 C269 1.392 . S
C267 H278 0.930 . S
C268 C264 1.373 . S
C268 C266 1.383 . S
C268 H279 0.931 . S
C269 C266 1.382 . S
C269 C267 1.392 . S
C270 Eu241 2.828 1_554 S
C270 O254 1.249 . S
C270 O255 1.244 . S
C270 C264 1.505 . S
C271 O258 1.258 . S
C271 O259 1.242 . S
H272 C244 0.930 . S
H273 C245 0.930 . S
H274 C246 0.930 . S
H275 C247 0.931 . S
H276 C265 0.930 . S
H277 C266 0.930 . S
H278 C267 0.930 . S
H279 C268 0.931 . S
Eu280 C289 2.828 1_554 S
Eu280 O291 2.392 . S
Eu280 O293 2.418 . S
Eu280 O298 2.373 1_554 S
Eu280 O301 2.488 1_554 S
Eu280 O302 2.471 1_554 S
Eu280 O303 2.349 . S
Eu281 O290 2.373 1_556 S
Eu281 O294 2.488 1_556 S
Eu281 O295 2.471 1_556 S
Eu281 O296 2.349 . S
Eu281 O299 2.392 . S
Eu281 O300 2.418 . S
Eu281 C310 2.828 1_556 S
C282 O300 1.244 1_554 S
C282 O303 1.265 . S
C283 C284 1.379 . S
C283 C287 1.373 . S
C283 C289 1.505 . S
C284 C283 1.379 . S
C284 C286 1.369 . S
C284 H312 0.930 . S
C285 C287 1.383 . S
C285 C288 1.382 . S
C285 H313 0.930 . S
C286 C284 1.369 . S
C286 C288 1.392 . S
C286 H314 0.930 . S
C287 C283 1.373 . S
C287 C285 1.383 . S
C287 H315 0.931 . S
C288 C285 1.382 . S
C288 C286 1.392 . S
C289 Eu280 2.828 1_556 S
C289 C283 1.505 . S
C289 O301 1.249 . S
C289 O302 1.244 . S
O290 Eu281 2.373 1_554 S
O290 C292 1.258 . S
O291 Eu280 2.392 . S
O291 C292 1.242 . S
C292 O290 1.258 . S
C292 O291 1.242 . S
O293 Eu280 2.418 . S
O293 C297 1.244 1_554 S
O294 Eu281 2.488 1_554 S
O294 C310 1.249 . S
O295 Eu281 2.471 1_554 S
O295 C310 1.244 . S
O296 Eu281 2.349 . S
O296 C297 1.265 . S
C297 O293 1.244 1_556 S
C297 O296 1.265 . S
O298 Eu280 2.373 1_556 S
O298 C311 1.258 . S
O299 Eu281 2.392 . S
O299 C311 1.242 . S
O300 Eu281 2.418 . S
O300 C282 1.244 1_556 S
O301 Eu280 2.488 1_556 S
O301 C289 1.249 . S
O302 Eu280 2.471 1_556 S
O302 C289 1.244 . S
O303 Eu280 2.349 . S
O303 C282 1.265 . S
C304 C305 1.379 . S
C304 C308 1.373 . S
C304 C310 1.505 . S
C305 C304 1.379 . S
C305 C307 1.369 . S
C305 H316 0.930 . S
C306 C308 1.383 . S
C306 C309 1.382 . S
C306 H317 0.930 . S
C307 C305 1.369 . S
C307 C309 1.392 . S
C307 H318 0.930 . S
C308 C304 1.373 . S
C308 C306 1.383 . S
C308 H319 0.931 . S
C309 C306 1.382 . S
C309 C307 1.392 . S
C310 Eu281 2.828 1_554 S
C310 O294 1.249 . S
C310 O295 1.244 . S
C310 C304 1.505 . S
C311 O298 1.258 . S
C311 O299 1.242 . S
H312 C284 0.930 . S
H313 C285 0.930 . S
H314 C286 0.930 . S
H315 C287 0.931 . S
H316 C305 0.930 . S
H317 C306 0.930 . S
H318 C307 0.930 . S
H319 C308 0.931 . S
C29 C288 2.370 . S
C248 C69 2.369 . S
C229 C88 2.369 . S
C189 C128 2.371 . S
C97 C17 2.255 1_565 S
C57 C137 2.254 . S
C122 C42 2.257 1_565 S
C82 C2 2.255 . S
C177 C257 1.439 . S
C217 C297 1.438 1_565 S
C282 C202 1.438 . S
C242 C162 1.436 1_545 S
C31 C12 2.781 1_554 S
C71 C52 2.780 1_554 S
C111 C92 2.780 1_554 S
C132 C151 2.781 1_556 S
C172 C191 2.778 . S
C231 C212 2.778 . S
C252 C271 2.778 . S
C292 C311 2.778 . S
C8 C48 2.647 1_455 S
C149 C109 2.647 1_655 S
C168 C208 2.651 . S
C309 C269 2.651 . S
