# Generated by pormake.
# Topology hcp, (12)-cn, num edge types: 1
# Building blocks:
#     Node 0, Type 0, BuildingBlock: QEWDON_clean_sbu_0, # of connection points: 12
#     Node 1, Type 0, BuildingBlock: QEWDON_clean_sbu_0, # of connection points: 12
#     Edge 2, Type (0, 0), BuildingBlock: TEMPAE_clean_linker_10, # of connection points: 2
#     Edge 3, Type (0, 0), BuildingBlock: TEMPAE_clean_linker_10, # of connection points: 2
#     Edge 4, Type (0, 0), BuildingBlock: TEMPAE_clean_linker_10, # of connection points: 2
#     Edge 5, Type (0, 0), BuildingBlock: TEMPAE_clean_linker_10, # of connection points: 2
#     Edge 6, Type (0, 0), BuildingBlock: TEMPAE_clean_linker_10, # of connection points: 2
#     Edge 7, Type (0, 0), BuildingBlock: TEMPAE_clean_linker_10, # of connection points: 2
#     Edge 8, Type (0, 0), BuildingBlock: TEMPAE_clean_linker_10, # of connection points: 2
#     Edge 9, Type (0, 0), BuildingBlock: TEMPAE_clean_linker_10, # of connection points: 2
#     Edge 10, Type (0, 0), BuildingBlock: TEMPAE_clean_linker_10, # of connection points: 2
#     Edge 11, Type (0, 0), BuildingBlock: TEMPAE_clean_linker_10, # of connection points: 2
#     Edge 12, Type (0, 0), BuildingBlock: TEMPAE_clean_linker_10, # of connection points: 2
#     Edge 13, Type (0, 0), BuildingBlock: TEMPAE_clean_linker_10, # of connection points: 2
# Relax obj value: 0.193
# Max RMSD: 0.273
# Mean RMSD: 0.273
data_MOF--net-hcp--node1-QEWDON_clean_sbu_0--edge1-TEMPAE_clean_linker_10
_symmetry_space_group_name_H-M    P1
_symmetry_Int_Tables_number       1
_symmetry_cell_setting            triclinic
loop_
_symmetry_equiv_pos_as_xyz
'x, y, z'
_cell_length_a     18.876425
_cell_length_b     18.566141
_cell_length_c     31.751859
_cell_angle_alpha  94.034628
_cell_angle_beta   89.245587
_cell_angle_gamma 120.03276
loop_
_atom_site_label
_atom_site_type_symbol
_atom_site_fract_x
_atom_site_fract_y
_atom_site_fract_z
_atom_type_partial_charge
Zn0 Zn 0.71051 0.21273 0.28234 0.0
Zn1 Zn 0.79255 0.34726 0.20839 0.0
O2 O 0.71112 0.3095 0.25615 0.0
H3 H 0.68351 0.33637 0.2696 0.0
C4 C 0.56088 0.0756 0.24267 0.0
O5 O 0.49266 0.06351 0.26009 0.0
Zn6 Zn 0.51231 0.45959 0.22411 0.0
Zn7 Zn 0.43475 0.28526 0.27289 0.0
O8 O 0.4798 0.33651 0.2165 0.0
H9 H 0.46044 0.30309 0.19003 0.0
Zn10 Zn 0.54627 0.2112 0.21406 0.0
O11 O 0.61446 0.33131 0.19713 0.0
Zn12 Zn 0.5795 0.3264 0.13782 0.0
H13 H 0.64111 0.38258 0.21498 0.0
Zn14 Zn 0.61852 0.34696 0.35295 0.0
O15 O 0.61892 0.4152 0.30601 0.0
H16 H 0.58008 0.39036 0.28263 0.0
Zn17 Zn 0.73481 0.5106 0.30454 0.0
C18 C 0.46273 0.23823 0.40034 0.0
O19 O 0.40043 0.16432 0.40688 0.0
O20 O 0.79124 0.18207 0.2539 0.0
O21 O 0.83945 0.27073 0.20289 0.0
O22 O 0.43231 0.3833 0.30553 0.0
O23 O 0.42566 0.46311 0.26029 0.0
O24 O 0.44764 0.13718 0.17485 0.0
O25 O 0.49883 0.20645 0.11761 0.0
C26 C 0.86806 0.5126 0.24609 0.0
O27 O 0.72269 0.40218 0.3897 0.0
O28 O 0.79336 0.52268 0.35961 0.0
O29 O 0.33318 0.16421 0.27284 0.0
C30 C 0.83671 0.2112 0.2222 0.0
O31 O 0.63956 0.15375 0.33479 0.0
C32 C 0.51479 0.46049 0.13285 0.0
O33 O 0.60112 0.13921 0.22166 0.0
C34 C 0.39205 0.41262 0.28894 0.0
O35 O 0.51171 0.2435 0.37115 0.0
C36 C 0.74304 0.3721 0.11623 0.0
O37 O 0.88349 0.46513 0.22182 0.0
O38 O 0.79673 0.48094 0.2613 0.0
C39 C 0.45062 0.13934 0.13491 0.0
O40 O 0.50509 0.49547 0.16654 0.0
O41 O 0.53981 0.40874 0.13501 0.0
C42 C 0.67371 0.60322 0.2676 0.0
O43 O 0.67747 0.36385 0.10074 0.0
O44 O 0.74078 0.35265 0.15413 0.0
C45 C 0.78562 0.47428 0.38814 0.0
O46 O 0.73362 0.61465 0.29061 0.0
O47 O 0.62273 0.52842 0.25425 0.0
C48 C 0.33417 0.10614 0.29131 0.0
O49 O 0.40151 0.1218 0.31111 0.0
C50 C 0.66679 0.17862 0.37265 0.0
O51 O 0.74074 0.24324 0.37913 0.0
Zn52 Zn 0.44394 0.5806 0.75125 0.0
Zn53 Zn 0.55724 0.73755 0.70617 0.0
O54 O 0.44878 0.68605 0.73266 0.0
H55 H 0.4178 0.712 0.74267 0.0
C56 C 0.32474 0.37789 0.63926 0.0
O57 O 0.25584 0.3551 0.61878 0.0
Zn58 Zn 0.29713 0.8333 0.7058 0.0
Zn59 Zn 0.19605 0.66028 0.74266 0.0
O60 O 0.25621 0.71086 0.68881 0.0
H61 H 0.23843 0.68491 0.66056 0.0
Zn62 Zn 0.36849 0.54963 0.61786 0.0
O63 O 0.37225 0.63749 0.66093 0.0
Zn64 Zn 0.40648 0.7236 0.61973 0.0
H65 H 0.32806 0.62271 0.68035 0.0
Zn66 Zn 0.35541 0.70267 0.86267 0.0
O67 O 0.36279 0.76788 0.8118 0.0
H68 H 0.33137 0.73951 0.78617 0.0
Zn69 Zn 0.47684 0.87079 0.81448 0.0
C70 C 0.19758 0.5925 0.90555 0.0
O71 O 0.18588 0.54199 0.87196 0.0
O72 O 0.54398 0.56822 0.73594 0.0
O73 O 0.62499 0.70577 0.73887 0.0
O74 O 0.20605 0.75646 0.78331 0.0
O75 O 0.2018 0.83382 0.7349 0.0
O76 O 0.2884 0.53186 0.5693 0.0
O77 O 0.32674 0.6667 0.57159 0.0
C78 C 0.6004 0.90106 0.74213 0.0
O79 O 0.47161 0.75087 0.88734 0.0
O80 O 0.51899 0.88301 0.87488 0.0
O81 O 0.08154 0.54708 0.74116 0.0
C82 C 0.61359 0.63311 0.74296 0.0
O83 O 0.44653 0.57549 0.81547 0.0
C84 C 0.37778 0.87499 0.63023 0.0
O85 O 0.38034 0.45428 0.64178 0.0
C86 C 0.1775 0.79994 0.7699 0.0
O87 O 0.26129 0.66475 0.90795 0.0
C88 C 0.54664 0.70805 0.60915 0.0
O89 O 0.61508 0.86235 0.71179 0.0
O90 O 0.54476 0.85731 0.76765 0.0
C91 C 0.28184 0.59181 0.5563 0.0
O92 O 0.33988 0.90125 0.65435 0.0
O93 O 0.38324 0.81381 0.64228 0.0
C94 C 0.41932 0.95111 0.76822 0.0
O95 O 0.52209 0.75935 0.60389 0.0
O96 O 0.55496 0.69035 0.64615 0.0
C97 C 0.51176 0.82801 0.89947 0.0
O98 O 0.46499 0.96827 0.80069 0.0
O99 O 0.38631 0.87786 0.75021 0.0
C100 C 0.07453 0.48626 0.7607 0.0
O101 O 0.13974 0.49457 0.77987 0.0
C102 C 0.38967 0.55245 0.84184 0.0
O103 O 0.31474 0.52776 0.82871 0.0
C104 C 0.56746 0.93173 0.96146 0.0
C105 C 0.5143 0.85006 0.94515 0.0
C106 C 0.55148 0.96208 -8e-05 0.0
C107 C 0.47878 0.91046 0.02124 0.0
C108 C 0.43005 0.82535 0.00735 0.0
C109 C 0.44969 0.79551 0.96987 0.0
C110 C 0.60818 0.0518 0.01552 0.0
C111 C 0.35237 0.7683 0.0293 0.0
C112 C 0.45554 0.00925 0.12458 0.0
C113 C 0.42804 0.0609 0.10985 0.0
C114 C 0.46766 0.95486 0.09659 0.0
C115 C 0.44807 0.94956 0.05327 0.0
C116 C 0.4094 0.99282 0.03944 0.0
C117 C 0.4019 0.04992 0.06776 0.0
C118 C 0.51086 0.91213 0.113 0.0
C119 C 0.38313 0.9849 0.99384 0.0
H120 H 0.61805 0.97353 0.94272 0.0
H121 H 0.40875 0.73174 0.95772 0.0
H122 H 0.58023 0.08996 0.00837 0.0
H123 H 0.61795 0.05726 0.05027 0.0
H124 H 0.66854 0.07819 0.00022 0.0
H125 H 0.32531 0.70218 0.01677 0.0
H126 H 0.36404 0.77225 0.06375 0.0
H127 H 0.30681 0.78844 0.02491 0.0
H128 H 0.47691 0.0183 0.1571 0.0
H129 H 0.38088 0.08995 0.0564 0.0
H130 H 0.49715 0.85452 0.0935 0.0
H131 H 0.49425 0.89635 0.14615 0.0
H132 H 0.57794 0.95553 0.11268 0.0
H133 H 0.43786 0.02023 0.97461 0.0
H134 H 0.34126 0.00993 0.98991 0.0
H135 H 0.35191 0.91866 0.98119 0.0
C136 C 0.5914 0.61308 0.57483 0.0
C137 C 0.54444 0.65209 0.5731 0.0
C138 C 0.58179 0.55094 0.54386 0.0
C139 C 0.52121 0.52471 0.51148 0.0
C140 C 0.47511 0.56548 0.50892 0.0
C141 C 0.489 0.63036 0.53917 0.0
C142 C 0.63462 0.51148 0.54661 0.0
C143 C 0.4076 0.53721 0.47599 0.0
C144 C 0.52604 0.39332 0.41545 0.0
C145 C 0.47596 0.31214 0.42779 0.0
C146 C 0.54183 0.46323 0.44238 0.0
C147 C 0.50335 0.45166 0.48185 0.0
C148 C 0.44938 0.36989 0.49368 0.0
C149 C 0.43715 0.30119 0.46673 0.0
C150 C 0.60073 0.54935 0.42886 0.0
C151 C 0.40511 0.35491 0.53497 0.0
H152 H 0.63491 0.63037 0.60084 0.0
H153 H 0.45314 0.66087 0.53755 0.0
H154 H 0.59654 0.44588 0.55476 0.0
H155 H 0.66203 0.51046 0.51558 0.0
H156 H 0.68465 0.54511 0.57082 0.0
H157 H 0.38246 0.58003 0.47598 0.0
H158 H 0.4298 0.53233 0.44401 0.0
H159 H 0.35703 0.47416 0.48235 0.0
H160 H 0.55234 0.40284 0.38461 0.0
H161 H 0.39747 0.23871 0.47641 0.0
H162 H 0.65131 0.58326 0.45272 0.0
H163 H 0.56911 0.58581 0.42695 0.0
H164 H 0.6275 0.54746 0.3977 0.0
H165 H 0.4499 0.3778 0.56181 0.0
H166 H 0.36059 0.2878 0.53801 0.0
H167 H 0.37193 0.39024 0.53784 0.0
C168 C 0.89071 0.41107 0.10268 0.0
C169 C 0.8188 0.41004 0.09083 0.0
C170 C 0.95968 0.44363 0.07651 0.0
C171 C 0.95665 0.47608 0.03774 0.0
C172 C 0.88499 0.47725 0.02649 0.0
C173 C 0.81747 0.44426 0.05291 0.0
C174 C 0.03458 0.4407 0.08974 0.0
C175 C 0.87862 0.51166 0.98582 0.0
C176 C 0.1434 0.61796 0.97481 0.0
C177 C 0.13953 0.56286 0.94109 0.0
C178 C 0.08708 0.58996 0.0078 0.0
C179 C 0.02544 0.50467 0.00726 0.0
C180 C 0.02344 0.44835 0.97413 0.0
C181 C 0.07998 0.47807 0.9415 0.0
C182 C 0.09159 0.65227 0.04238 0.0
C183 C 0.95948 0.35689 0.97226 0.0
H184 H 0.89253 0.38491 0.13183 0.0
H185 H 0.76279 0.44476 0.04341 0.0
H186 H 0.03816 0.39093 0.07001 0.0
H187 H 0.09111 0.5005 0.08475 0.0
H188 H 0.03296 0.42738 0.12342 0.0
H189 H 0.82037 0.51229 0.98277 0.0
H190 H 0.93033 0.57624 0.98397 0.0
H191 H 0.88253 0.47335 0.95843 0.0
H192 H 0.18924 0.68346 0.97492 0.0
H193 H 0.07698 0.43452 0.91601 0.0
H194 H 0.09136 0.62954 0.07381 0.0
H195 H 0.03685 0.65943 0.04012 0.0
H196 H 0.14717 0.7145 0.04049 0.0
H197 H 0.95768 0.33094 0.00294 0.0
H198 H 0.97101 0.31986 0.94693 0.0
H199 H 0.89818 0.34918 0.96631 0.0
C200 C 0.45513 0.88735 0.56313 0.0
C201 C 0.40962 0.91241 0.58914 0.0
C202 C 0.49199 0.92808 0.52649 0.0
C203 C 0.48274 0.99553 0.51516 0.0
C204 C 0.43396 0.01898 0.54031 0.0
C205 C 0.39808 0.97721 0.57683 0.0
C206 C 0.54321 0.90063 0.5007 0.0
C207 C 0.4217 0.09 0.52945 0.0
C208 C 0.65135 0.15804 0.45028 0.0
C209 C 0.61763 0.13363 0.40906 0.0
C210 C 0.60777 0.11435 0.48494 0.0
C211 C 0.52797 0.04441 0.47854 0.0
C212 C 0.49266 0.02066 0.43715 0.0
C213 C 0.53786 0.06538 0.40297 0.0
C214 C 0.64789 0.14232 0.52841 0.0
C215 C 0.40734 0.94755 0.4289 0.0
H216 H 0.4635 0.83696 0.57179 0.0
H217 H 0.36212 0.99661 0.59626 0.0
H218 H 0.52226 0.88703 0.46711 0.0
H219 H 0.60794 0.95182 0.50189 0.0
H220 H 0.54062 0.84427 0.51228 0.0
H221 H 0.3757 0.09517 0.54964 0.0
H222 H 0.48057 0.14968 0.5336 0.0
H223 H 0.40178 0.08183 0.49588 0.0
H224 H 0.71264 0.21092 0.45552 0.0
H225 H 0.51076 0.04647 0.37139 0.0
H226 H 0.65417 0.09155 0.54111 0.0
H227 H 0.60907 0.15578 0.55036 0.0
H228 H 0.70949 0.19898 0.52828 0.0
H229 H 0.40424 0.88974 0.43849 0.0
H230 H 0.38808 0.93803 0.39511 0.0
H231 H 0.36299 0.95732 0.44817 0.0
C232 C 0.50489 0.558 0.08602 0.0
C233 C 0.49785 0.48036 0.09139 0.0
C234 C 0.48812 0.57668 0.04657 0.0
C235 C 0.46155 0.51527 0.01227 0.0
C236 C 0.45313 0.43635 0.01784 0.0
C237 C 0.4725 0.4203 0.05722 0.0
C238 C 0.49955 0.66213 0.04143 0.0
C239 C 0.42353 0.36873 0.9822 0.0
C240 C 0.34741 0.52183 0.91664 0.0
C241 C 0.40865 0.54939 0.88651 0.0
C242 C 0.36468 0.51462 0.95847 0.0
C243 C 0.44472 0.5336 0.97004 0.0
C244 C 0.50735 0.56357 0.94007 0.0
C245 C 0.48868 0.57159 0.89877 0.0
C246 C 0.29655 0.48355 0.98978 0.0
C247 C 0.59345 0.58423 0.95115 0.0
H248 H 0.5248 0.60458 0.11249 0.0
H249 H 0.46616 0.35993 0.06152 0.0
H250 H 0.5445 0.69282 0.01652 0.0
H251 H 0.441 0.65643 0.03102 0.0
H252 H 0.52127 0.70309 0.07116 0.0
H253 H 0.41714 0.3097 0.99229 0.0
H254 H 0.36333 0.3557 0.96965 0.0
H255 H 0.467 0.38989 0.9559 0.0
H256 H 0.28549 0.50378 0.90739 0.0
H257 H 0.5367 0.59328 0.87577 0.0
H258 H 0.31548 0.52664 0.0187 0.0
H259 H 0.2832 0.42173 0.99938 0.0
H260 H 0.2394 0.47745 0.97659 0.0
H261 H 0.61675 0.62774 0.9799 0.0
H262 H 0.6364 0.61281 0.92513 0.0
H263 H 0.59342 0.52654 0.95825 0.0
C264 C 0.93572 0.55044 0.40113 0.0
C265 C 0.85712 0.49637 0.41525 0.0
C266 C 0.00526 0.56246 0.4227 0.0
C267 C -0.00416 0.5216 0.46003 0.0
C268 C 0.91675 0.46893 0.47524 0.0
C269 C 0.84802 0.45609 0.45229 0.0
C270 C 0.08864 0.61843 0.40526 0.0
C271 C 0.90477 0.42629 0.51566 0.0
C272 C 0.17448 0.50421 0.50058 0.0
C273 C 0.21168 0.57439 0.5293 0.0
C274 C 0.10395 0.48616 0.47737 0.0
C275 C 0.06926 0.53819 0.48435 0.0
C276 C 0.10619 0.60836 0.51374 0.0
C277 C 0.17757 0.62625 0.53538 0.0
C278 C 0.06701 0.41222 0.44518 0.0
C279 C 0.06983 0.66409 0.52275 0.0
H280 H 0.94305 0.58083 0.37215 0.0
H281 H 0.78719 0.41405 0.46312 0.0
H282 H 0.12099 0.67722 0.42574 0.0
H283 H 0.12654 0.5881 0.40494 0.0
H284 H 0.08446 0.63437 0.37266 0.0
H285 H 0.83905 0.38691 0.52292 0.0
H286 H 0.93322 0.38644 0.51343 0.0
H287 H 0.93569 0.47373 0.54243 0.0
H288 H 0.20078 0.46407 0.49611 0.0
H289 H 0.20519 0.6797 0.5583 0.0
H290 H 0.06623 0.4335 0.41347 0.0
H291 H 0.00261 0.36837 0.4529 0.0
H292 H 0.10142 0.37804 0.44359 0.0
H293 H 0.06989 0.69429 0.49382 0.0
H294 H 0.10403 0.71367 0.54827 0.0
H295 H 0.00521 0.62642 0.53212 0.0
C296 C 0.56041 0.96099 0.27924 0.0
C297 C 0.58688 0.01303 0.24573 0.0
C298 C 0.57929 0.89725 0.28146 0.0
C299 C 0.62391 0.88359 0.24873 0.0
C300 C 0.65183 0.93675 0.21503 0.0
C301 C 0.63373 1.00154 0.21419 0.0
C302 C 0.55076 0.84402 0.31872 0.0
C303 C 0.69831 0.92352 0.17916 0.0
C304 C 0.72236 0.75612 0.27479 0.0
C305 C 0.66256 0.6751 0.25991 0.0
C306 C 0.71157 0.82479 0.27045 0.0
C307 C 0.63999 0.81282 0.24993 0.0
C308 C 0.58084 0.73182 0.23338 0.0
C309 C 0.59242 0.66393 0.23906 0.0
C310 C 0.77643 0.90998 0.28833 0.0
C311 C 0.50421 0.71644 0.21065 0.0
H312 H 0.52465 0.97004 0.30383 0.0
H313 H 0.65372 0.04129 0.18804 0.0
H314 H 0.50699 0.77832 0.30775 0.0
H315 H 0.60354 0.84494 0.33428 0.0
H316 H 0.52041 0.86552 0.34255 0.0
H317 H 0.71933 0.97286 0.15653 0.0
H318 H 0.75236 0.92236 0.19153 0.0
H319 H 0.65848 0.86216 0.16182 0.0
H320 H 0.77735 0.76596 0.29065 0.0
H321 H 0.54561 0.60207 0.2279 0.0
H322 H 0.74875 0.93909 0.30931 0.0
H323 H 0.80516 0.95084 0.26212 0.0
H324 H 0.8251 0.90767 0.30647 0.0
H325 H 0.46477 0.72758 0.23324 0.0
H326 H 0.46843 0.65168 0.196 0.0
H327 H 0.52003 0.76055 0.18563 0.0
C328 C 0.05166 0.71328 0.80916 0.0
C329 C 0.09713 0.78277 0.78541 0.0
C330 C 0.96701 0.67804 0.81241 0.0
C331 C 0.92795 0.71483 0.79247 0.0
C332 C 0.97496 0.79117 0.77337 0.0
C333 C 0.05938 0.82412 0.76983 0.0
C334 C 0.91926 0.59703 0.83329 0.0
C335 C 0.9353 0.83396 0.75318 0.0
C336 C 0.72414 0.5994 0.73571 0.0
C337 C 0.68059 0.62727 0.7611 0.0
C338 C 0.80338 0.61994 0.74805 0.0
C339 C 0.83824 0.66941 0.78633 0.0
C340 C 0.78989 0.68786 0.81438 0.0
C341 C 0.71128 0.66704 0.80113 0.0
C342 C 0.85272 0.59691 0.71798 0.0
C343 C 0.82393 0.73771 0.85607 0.0
H344 H 0.08055 0.68142 0.82198 0.0
H345 H 0.09469 0.87875 0.75228 0.0
H346 H 0.86471 0.59255 0.84924 0.0
H347 H 0.89769 0.54418 0.80885 0.0
H348 H 0.95791 0.58966 0.85677 0.0
H349 H 0.98109 0.89713 0.74399 0.0
H350 H 0.89988 0.79588 0.72443 0.0
H351 H 0.89192 0.83983 0.7751 0.0
H352 H 0.69949 0.56857 0.70475 0.0
H353 H 0.67625 0.68768 0.82067 0.0
H354 H 0.88796 0.57477 0.73531 0.0
H355 H 0.89727 0.65295 0.70205 0.0
H356 H 0.81329 0.54762 0.69338 0.0
H357 H 0.86481 0.72002 0.87152 0.0
H358 H 0.77426 0.72903 0.87796 0.0
H359 H 0.86057 0.80495 0.85052 0.0
C360 C 0.262 0.95768 0.31062 0.0
C361 C 0.26139 0.02102 0.28924 0.0
C362 C 0.19525 0.87576 0.3071 0.0
C363 C 0.12644 0.85647 0.28131 0.0
C364 C 0.12438 0.92069 0.26075 0.0
C365 C 0.19167 0.00215 0.26513 0.0
C366 C 0.19889 0.80955 0.33044 0.0
C367 C 0.05239 0.90281 0.23283 0.0
C368 C 0.00379 0.63497 0.23159 0.0
C369 C 0.9333 0.60071 0.25606 0.0
C370 C 0.0666 0.71796 0.23945 0.0
C371 C 0.05975 0.76816 0.27308 0.0
C372 C 0.98925 0.73405 0.29818 0.0
C373 C 0.92656 0.65104 0.28904 0.0
C374 C 0.14021 0.75202 0.21152 0.0
C375 C 0.97999 0.78514 0.33466 0.0
H376 H 0.31513 0.97179 0.32978 0.0
H377 H 0.19026 0.05073 0.24889 0.0
H378 H 0.14661 0.78172 0.35197 0.0
H379 H 0.19338 0.7586 0.30778 0.0
H380 H 0.25663 0.83466 0.34932 0.0
H381 H 0.05781 0.96048 0.22137 0.0
H382 H 0.04779 0.86074 0.20507 0.0
H383 H -0.00546 0.87029 0.25013 0.0
H384 H 0.00967 0.5971 0.20573 0.0
H385 H 0.87288 0.62576 0.308 0.0
H386 H 0.19662 0.77266 0.23079 0.0
H387 H 0.14716 0.80741 0.19658 0.0
H388 H 0.13551 0.70525 0.1862 0.0
H389 H 0.03301 0.80957 0.35703 0.0
H390 H 0.92289 0.74841 0.35209 0.0
H391 H 0.97934 0.8397 0.32295 0.0
C392 C 0.40221 0.34227 0.68933 0.0
C393 C 0.33703 0.31584 0.66021 0.0
C394 C 0.41475 0.28445 0.70949 0.0
C395 C 0.36152 0.19796 0.69988 0.0
C396 C 0.29519 0.17085 0.6708 0.0
C397 C 0.28347 0.23009 0.65151 0.0
C398 C 0.48548 0.316 0.74076 0.0
C399 C 0.23777 0.07919 0.65929 0.0
C400 C 0.44257 0.05056 0.7145 0.0
C401 C 0.40505 0.0148 0.75169 0.0
C402 C 0.42931 0.11067 0.69748 0.0
C403 C 0.37761 0.13581 0.71844 0.0
C404 C 0.34071 0.10064 0.75659 0.0
C405 C 0.35513 0.04046 0.77287 0.0
C406 C 0.47076 0.14737 0.65711 0.0
C407 C 0.28569 0.12614 0.78001 0.0
H408 H 0.44346 0.40838 0.69655 0.0
H409 H 0.233 0.20912 0.62907 0.0
H410 H 0.46324 0.28768 0.77127 0.0
H411 H 0.52978 0.29718 0.72883 0.0
H412 H 0.51825 0.38502 0.74662 0.0
H413 H 0.1871 0.06821 0.63758 0.0
H414 H 0.27231 0.05117 0.64381 0.0
H415 H 0.21106 0.04601 0.68817 0.0
H416 H 0.48225 0.03119 0.69868 0.0
H417 H 0.3267 0.01272 0.80183 0.0
H418 H 0.51474 0.21494 0.66344 0.0
H419 H 0.42498 0.14125 0.63345 0.0
H420 H 0.50444 0.11696 0.64322 0.0
H421 H 0.31862 0.19469 0.78737 0.0
H422 H 0.26405 0.09503 0.80994 0.0
H423 H 0.23156 0.11018 0.7598 0.0
C424 C 0.28272 0.28971 0.24808 0.0
C425 C 0.30533 0.35453 0.27968 0.0
C426 C 0.20154 0.24056 0.23374 0.0
C427 C 0.14272 0.25981 0.25008 0.0
C428 C 0.16492 0.32434 0.28274 0.0
C429 C 0.24643 0.37083 0.29737 0.0
C430 C 0.18012 0.17204 0.19925 0.0
C431 C 0.10379 0.34768 0.30045 0.0
C432 C 0.96716 0.24244 0.18881 0.0
C433 C 0.90321 0.19232 0.2149 0.0
C434 C 0.04655 0.25874 0.19685 0.0
C435 C 0.06032 0.22011 0.23016 0.0
C436 C -0.00662 0.15588 0.25006 0.0
C437 C 0.91481 0.14304 0.24247 0.0
C438 C 0.11604 0.32746 0.17442 0.0
C439 C 0.00614 0.10926 0.28346 0.0
H440 H 0.32905 0.27991 0.23295 0.0
H441 H 0.2649 0.42234 0.32111 0.0
H442 H 0.12177 0.11533 0.20589 0.0
H443 H 0.17158 0.19255 0.16872 0.0
H444 H 0.22903 0.15557 0.1955 0.0
H445 H 0.13081 0.39822 0.32624 0.0
H446 H 0.08038 0.36885 0.27497 0.0
H447 H 0.05067 0.29256 0.31295 0.0
H448 H 0.95796 0.27824 0.16613 0.0
H449 H 0.86491 0.1018 0.26167 0.0
H450 H 0.1679 0.31606 0.16963 0.0
H451 H 0.13899 0.38723 0.19396 0.0
H452 H 0.09551 0.3349 0.1432 0.0
H453 H 0.05389 0.0935 0.27404 0.0
H454 H 0.94879 0.05102 0.28952 0.0
H455 H 0.02729 0.14928 0.31344 0.0
C456 C -0.00635 0.33512 0.77495 0.0
C457 C -0.00493 0.40624 0.76149 0.0
C458 C 0.92068 0.25778 0.77443 0.0
C459 C 0.84612 0.25089 0.76086 0.0
C460 C 0.84633 0.32333 0.74904 0.0
C461 C 0.92085 0.39985 0.74902 0.0
C462 C 0.92423 0.18247 0.78669 0.0
C463 C 0.76825 0.3197 0.73541 0.0
C464 C 0.69635 0.03508 0.71133 0.0
C465 C 0.64948 0.99418 0.74583 0.0
C466 C 0.75725 0.11955 0.71529 0.0
C467 C 0.77104 0.16608 0.75458 0.0
C468 C 0.7192 0.12735 0.78863 0.0
C469 C 0.6597 0.04148 0.78407 0.0
C470 C 0.81108 0.15699 0.67814 0.0
C471 C 0.72956 0.17531 0.83061 0.0
H472 H 0.05035 0.33917 0.78485 0.0
H473 H 0.92095 0.45458 0.73912 0.0
H474 H 0.87999 0.15167 0.81182 0.0
H475 H 0.90665 0.13637 0.75903 0.0
H476 H 0.9862 0.19879 0.79819 0.0
H477 H 0.776 0.38294 0.73427 0.0
H478 H 0.74872 0.28705 0.7035 0.0
H479 H 0.71826 0.28382 0.75722 0.0
H480 H 0.6886 0.99972 0.6814 0.0
H481 H 0.62449 0.01077 0.81102 0.0
H482 H 0.87433 0.17153 0.68571 0.0
H483 H 0.81413 0.21633 0.67159 0.0
H484 H 0.78899 0.11432 0.64899 0.0
H485 H 0.78449 0.18386 0.84763 0.0
H486 H 0.67569 0.14216 0.85077 0.0
H487 H 0.73906 0.23824 0.82602 0.0
loop_
_geom_bond_atom_site_label_1
_geom_bond_atom_site_label_2
_geom_bond_distance
_geom_bond_site_symmetry_2
_ccdc_geom_bond_type
Zn0 O2 1.933 . S
Zn0 O20 1.985 . S
Zn0 O31 1.955 . S
Zn1 O2 1.911 . S
Zn1 O21 1.970 . S
Zn1 O37 1.945 . S
Zn1 O44 1.981 . S
O2 Zn0 1.933 . S
O2 Zn1 1.911 . S
O2 H3 0.841 . S
H3 O2 0.841 . S
C4 O5 1.246 . S
C4 O33 1.276 . S
O5 C4 1.246 . S
Zn6 O8 1.911 . S
Zn6 O23 1.970 . S
Zn6 O40 1.945 . S
Zn6 O47 1.981 . S
Zn7 O8 1.933 . S
Zn7 O22 1.985 . S
Zn7 O29 1.955 . S
O8 Zn6 1.911 . S
O8 Zn7 1.933 . S
O8 H9 0.841 . S
H9 O8 0.841 . S
Zn10 O11 1.933 . S
Zn10 O24 1.985 . S
Zn10 O33 1.955 . S
O11 Zn10 1.933 . S
O11 Zn12 1.911 . S
O11 H13 0.841 . S
Zn12 O11 1.911 . S
Zn12 O25 1.970 . S
Zn12 O41 1.981 . S
Zn12 O43 1.945 . S
H13 O11 0.841 . S
Zn14 O15 1.933 . S
Zn14 O27 1.985 . S
Zn14 O35 1.955 . S
O15 Zn14 1.933 . S
O15 H16 0.841 . S
O15 Zn17 1.911 . S
H16 O15 0.841 . S
Zn17 O15 1.911 . S
Zn17 O28 1.970 . S
Zn17 O38 1.981 . S
Zn17 O46 1.945 . S
C18 O19 1.246 . S
C18 O35 1.276 . S
O19 C18 1.246 . S
O20 Zn0 1.985 . S
O20 C30 1.245 . S
O21 Zn1 1.970 . S
O21 C30 1.263 . S
O22 Zn7 1.985 . S
O22 C34 1.245 . S
O23 Zn6 1.970 . S
O23 C34 1.263 . S
O24 Zn10 1.985 . S
O24 C39 1.245 . S
O25 Zn12 1.970 . S
O25 C39 1.263 . S
C26 O37 1.262 . S
C26 O38 1.245 . S
O27 Zn14 1.985 . S
O27 C45 1.245 . S
O28 Zn17 1.970 . S
O28 C45 1.263 . S
O29 Zn7 1.955 . S
O29 C48 1.276 . S
C30 O20 1.245 . S
C30 O21 1.263 . S
O31 Zn0 1.955 . S
O31 C50 1.276 . S
C32 O40 1.262 . S
C32 O41 1.245 . S
O33 C4 1.276 . S
O33 Zn10 1.955 . S
C34 O22 1.245 . S
C34 O23 1.263 . S
O35 Zn14 1.955 . S
O35 C18 1.276 . S
C36 O43 1.262 . S
C36 O44 1.245 . S
O37 Zn1 1.945 . S
O37 C26 1.262 . S
O38 Zn17 1.981 . S
O38 C26 1.245 . S
C39 O24 1.245 . S
C39 O25 1.263 . S
O40 Zn6 1.945 . S
O40 C32 1.262 . S
O41 Zn12 1.981 . S
O41 C32 1.245 . S
C42 O46 1.262 . S
C42 O47 1.245 . S
O43 Zn12 1.945 . S
O43 C36 1.262 . S
O44 Zn1 1.981 . S
O44 C36 1.245 . S
C45 O27 1.245 . S
C45 O28 1.263 . S
O46 Zn17 1.945 . S
O46 C42 1.262 . S
O47 Zn6 1.981 . S
O47 C42 1.245 . S
C48 O29 1.276 . S
C48 O49 1.246 . S
O49 C48 1.246 . S
C50 O31 1.276 . S
C50 O51 1.246 . S
O51 C50 1.246 . S
Zn52 O54 1.933 . S
Zn52 O72 1.985 . S
Zn52 O83 1.955 . S
Zn53 O54 1.911 . S
Zn53 O73 1.970 . S
Zn53 O89 1.945 . S
Zn53 O96 1.981 . S
O54 Zn52 1.933 . S
O54 Zn53 1.911 . S
O54 H55 0.841 . S
H55 O54 0.841 . S
C56 O57 1.246 . S
C56 O85 1.276 . S
O57 C56 1.246 . S
Zn58 O60 1.911 . S
Zn58 O75 1.970 . S
Zn58 O92 1.945 . S
Zn58 O99 1.981 . S
Zn59 O60 1.933 . S
Zn59 O74 1.985 . S
Zn59 O81 1.955 . S
O60 Zn58 1.911 . S
O60 Zn59 1.933 . S
O60 H61 0.841 . S
H61 O60 0.841 . S
Zn62 O63 1.933 . S
Zn62 O76 1.985 . S
Zn62 O85 1.955 . S
O63 Zn62 1.933 . S
O63 Zn64 1.911 . S
O63 H65 0.841 . S
Zn64 O63 1.911 . S
Zn64 O77 1.970 . S
Zn64 O93 1.981 . S
Zn64 O95 1.945 . S
H65 O63 0.841 . S
Zn66 O67 1.933 . S
Zn66 O79 1.985 . S
Zn66 O87 1.955 . S
O67 Zn66 1.933 . S
O67 H68 0.841 . S
O67 Zn69 1.911 . S
H68 O67 0.841 . S
Zn69 O67 1.911 . S
Zn69 O80 1.970 . S
Zn69 O90 1.981 . S
Zn69 O98 1.945 . S
C70 O71 1.246 . S
C70 O87 1.276 . S
O71 C70 1.246 . S
O72 Zn52 1.985 . S
O72 C82 1.245 . S
O73 Zn53 1.970 . S
O73 C82 1.263 . S
O74 Zn59 1.985 . S
O74 C86 1.245 . S
O75 Zn58 1.970 . S
O75 C86 1.263 . S
O76 Zn62 1.985 . S
O76 C91 1.245 . S
O77 Zn64 1.970 . S
O77 C91 1.263 . S
C78 O89 1.262 . S
C78 O90 1.245 . S
O79 Zn66 1.985 . S
O79 C97 1.245 . S
O80 Zn69 1.970 . S
O80 C97 1.263 . S
O81 Zn59 1.955 . S
O81 C100 1.276 . S
C82 O72 1.245 . S
C82 O73 1.263 . S
O83 Zn52 1.955 . S
O83 C102 1.276 . S
C84 O92 1.262 . S
C84 O93 1.245 . S
O85 C56 1.276 . S
O85 Zn62 1.955 . S
C86 O74 1.245 . S
C86 O75 1.263 . S
O87 Zn66 1.955 . S
O87 C70 1.276 . S
C88 O95 1.262 . S
C88 O96 1.245 . S
O89 Zn53 1.945 . S
O89 C78 1.262 . S
O90 Zn69 1.981 . S
O90 C78 1.245 . S
C91 O76 1.245 . S
C91 O77 1.263 . S
O92 Zn58 1.945 . S
O92 C84 1.262 . S
O93 Zn64 1.981 . S
O93 C84 1.245 . S
C94 O98 1.262 . S
C94 O99 1.245 . S
O95 Zn64 1.945 . S
O95 C88 1.262 . S
O96 Zn53 1.981 . S
O96 C88 1.245 . S
C97 O79 1.245 . S
C97 O80 1.263 . S
O98 Zn69 1.945 . S
O98 C94 1.262 . S
O99 Zn58 1.981 . S
O99 C94 1.245 . S
C100 O81 1.276 . S
C100 O101 1.246 . S
O101 C100 1.246 . S
C102 O83 1.276 . S
C102 O103 1.246 . S
O103 C102 1.246 . S
C104 C105 1.391 . S
C104 C106 1.394 1_565 S
C104 H120 0.931 . S
C105 C104 1.391 . S
C105 C109 1.376 . S
C106 C104 1.394 1_545 S
C106 C107 1.369 1_545 S
C106 C110 1.531 . S
C107 C106 1.369 1_565 S
C107 C108 1.410 . S
C107 C115 1.503 1_566 S
C108 C107 1.410 . S
C108 C109 1.392 . S
C108 C111 1.510 . S
C109 C105 1.376 . S
C109 C108 1.392 . S
C109 H121 0.929 . S
C110 C106 1.531 . S
C110 H122 0.960 . S
C110 H123 0.962 . S
C110 H124 0.960 . S
C111 C108 1.510 . S
C111 H125 0.962 . S
C111 H126 0.963 1_556 S
C111 H127 0.960 . S
C112 C113 1.370 . S
C112 C114 1.363 . S
C112 H128 0.931 . S
C113 C112 1.370 . S
C113 C117 1.408 . S
C114 C112 1.363 . S
C114 C115 1.370 . S
C114 C118 1.524 1_545 S
C115 C107 1.503 1_544 S
C115 C114 1.370 . S
C115 C116 1.403 . S
C116 C115 1.403 . S
C116 C117 1.404 . S
C116 C119 1.539 1_554 S
C117 C113 1.408 . S
C117 C116 1.404 . S
C117 H129 0.930 . S
C118 C114 1.524 1_565 S
C118 H130 0.956 1_565 S
C118 H131 0.961 . S
C118 H132 0.961 . S
C119 C116 1.539 1_556 S
C119 H133 0.958 . S
C119 H134 0.961 . S
C119 H135 0.960 . S
H120 C104 0.931 . S
H121 C109 0.929 . S
H122 C110 0.960 . S
H123 C110 0.962 . S
H124 C110 0.960 . S
H125 C111 0.962 . S
H126 C111 0.963 1_554 S
H127 C111 0.960 . S
H128 C112 0.931 . S
H129 C117 0.930 . S
H130 C118 0.956 1_545 S
H131 C118 0.961 . S
H132 C118 0.961 . S
H133 C119 0.958 . S
H134 C119 0.961 . S
H135 C119 0.960 . S
C136 C137 1.391 . S
C136 C138 1.394 . S
C136 H152 0.931 . S
C137 C136 1.391 . S
C137 C141 1.376 . S
C138 C136 1.394 . S
C138 C139 1.369 . S
C138 C142 1.531 . S
C139 C138 1.369 . S
C139 C140 1.410 . S
C139 C147 1.503 . S
C140 C139 1.410 . S
C140 C141 1.392 . S
C140 C143 1.511 . S
C141 C137 1.376 . S
C141 C140 1.392 . S
C141 H153 0.929 . S
C142 C138 1.531 . S
C142 H154 0.960 . S
C142 H155 0.962 . S
C142 H156 0.960 . S
C143 C140 1.511 . S
C143 H157 0.961 . S
C143 H158 0.961 . S
C143 H159 0.961 . S
C144 C145 1.370 . S
C144 C146 1.363 . S
C144 H160 0.931 . S
C145 C144 1.370 . S
C145 C149 1.408 . S
C146 C144 1.363 . S
C146 C147 1.370 . S
C146 C150 1.524 . S
C147 C139 1.503 . S
C147 C146 1.370 . S
C147 C148 1.403 . S
C148 C147 1.403 . S
C148 C149 1.404 . S
C148 C151 1.539 . S
C149 C145 1.408 . S
C149 C148 1.404 . S
C149 H161 0.930 . S
C150 C146 1.524 . S
C150 H162 0.956 . S
C150 H163 0.961 . S
C150 H164 0.961 . S
C151 C148 1.539 . S
C151 H165 0.958 . S
C151 H166 0.961 . S
C151 H167 0.960 . S
H152 C136 0.931 . S
H153 C141 0.929 . S
H154 C142 0.960 . S
H155 C142 0.962 . S
H156 C142 0.960 . S
H157 C143 0.961 . S
H158 C143 0.961 . S
H159 C143 0.961 . S
H160 C144 0.931 . S
H161 C149 0.930 . S
H162 C150 0.956 . S
H163 C150 0.961 . S
H164 C150 0.961 . S
H165 C151 0.958 . S
H166 C151 0.961 . S
H167 C151 0.960 . S
C168 C169 1.391 . S
C168 C170 1.394 . S
C168 H184 0.931 . S
C169 C168 1.391 . S
C169 C173 1.376 . S
C170 C168 1.394 . S
C170 C171 1.369 . S
C170 C174 1.531 1_655 S
C171 C170 1.369 . S
C171 C172 1.410 . S
C171 C179 1.503 1_654 S
C172 C171 1.410 . S
C172 C173 1.392 . S
C172 C175 1.511 1_554 S
C173 C169 1.376 . S
C173 C172 1.392 . S
C173 H185 0.929 . S
C174 C170 1.531 1_455 S
C174 H186 0.960 . S
C174 H187 0.962 . S
C174 H188 0.960 . S
C175 C172 1.511 1_556 S
C175 H189 0.961 . S
C175 H190 0.961 . S
C175 H191 0.961 . S
C176 C177 1.370 . S
C176 C178 1.363 . S
C176 H192 0.931 . S
C177 C176 1.370 . S
C177 C181 1.408 . S
C178 C176 1.363 . S
C178 C179 1.370 . S
C178 C182 1.524 1_556 S
C179 C171 1.503 1_456 S
C179 C178 1.370 . S
C179 C180 1.403 1_455 S
C180 C179 1.403 1_655 S
C180 C181 1.404 1_655 S
C180 C183 1.539 . S
C181 C177 1.408 . S
C181 C180 1.404 1_455 S
C181 H193 0.930 . S
C182 C178 1.524 1_554 S
C182 H194 0.956 . S
C182 H195 0.961 . S
C182 H196 0.961 . S
C183 C180 1.539 . S
C183 H197 0.958 . S
C183 H198 0.961 . S
C183 H199 0.960 . S
H184 C168 0.931 . S
H185 C173 0.929 . S
H186 C174 0.960 . S
H187 C174 0.962 . S
H188 C174 0.960 . S
H189 C175 0.961 . S
H190 C175 0.961 . S
H191 C175 0.961 . S
H192 C176 0.931 . S
H193 C181 0.930 . S
H194 C182 0.956 . S
H195 C182 0.961 . S
H196 C182 0.961 . S
H197 C183 0.958 . S
H198 C183 0.961 . S
H199 C183 0.960 . S
C200 C201 1.391 . S
C200 C202 1.394 . S
C200 H216 0.931 . S
C201 C200 1.391 . S
C201 C205 1.376 . S
C202 C200 1.394 . S
C202 C203 1.369 . S
C202 C206 1.531 . S
C203 C202 1.369 . S
C203 C204 1.410 . S
C203 C211 1.503 1_565 S
C204 C203 1.410 . S
C204 C205 1.392 . S
C204 C207 1.511 . S
C205 C201 1.376 . S
C205 C204 1.392 . S
C205 H217 0.929 . S
C206 C202 1.531 . S
C206 H218 0.960 . S
C206 H219 0.962 . S
C206 H220 0.960 . S
C207 C204 1.511 . S
C207 H221 0.961 . S
C207 H222 0.961 1_565 S
C207 H223 0.961 . S
C208 C209 1.370 . S
C208 C210 1.363 . S
C208 H224 0.931 . S
C209 C208 1.370 . S
C209 C213 1.408 . S
C210 C208 1.363 . S
C210 C211 1.370 . S
C210 C214 1.524 . S
C211 C203 1.503 1_545 S
C211 C210 1.370 . S
C211 C212 1.403 1_545 S
C212 C211 1.403 1_565 S
C212 C213 1.404 1_565 S
C212 C215 1.539 . S
C213 C209 1.408 . S
C213 C212 1.404 1_545 S
C213 H225 0.930 . S
C214 C210 1.524 . S
C214 H226 0.956 . S
C214 H227 0.961 . S
C214 H228 0.961 . S
C215 C212 1.539 . S
C215 H229 0.958 . S
C215 H230 0.961 . S
C215 H231 0.960 . S
H216 C200 0.931 . S
H217 C205 0.929 . S
H218 C206 0.960 . S
H219 C206 0.962 . S
H220 C206 0.960 . S
H221 C207 0.961 . S
H222 C207 0.961 1_545 S
H223 C207 0.961 . S
H224 C208 0.931 . S
H225 C213 0.930 . S
H226 C214 0.956 . S
H227 C214 0.961 . S
H228 C214 0.961 . S
H229 C215 0.958 . S
H230 C215 0.961 . S
H231 C215 0.960 . S
C232 C233 1.391 . S
C232 C234 1.394 . S
C232 H248 0.931 . S
C233 C232 1.391 . S
C233 C237 1.376 . S
C234 C232 1.394 . S
C234 C235 1.369 . S
C234 C238 1.531 1_554 S
C235 C234 1.369 . S
C235 C236 1.410 . S
C235 C243 1.503 1_554 S
C236 C235 1.410 . S
C236 C237 1.392 . S
C236 C239 1.511 . S
C237 C233 1.376 . S
C237 C236 1.392 . S
C237 H249 0.929 . S
C238 C234 1.531 1_556 S
C238 H250 0.960 . S
C238 H251 0.962 1_556 S
C238 H252 0.962 . S
C239 C236 1.511 . S
C239 H253 0.961 . S
C239 H254 0.961 . S
C239 H255 0.961 . S
C240 C241 1.370 . S
C240 C242 1.363 . S
C240 H256 0.931 . S
C241 C240 1.370 . S
C241 C245 1.408 . S
C242 C240 1.363 . S
C242 C243 1.370 . S
C242 C246 1.524 1_556 S
C243 C235 1.503 1_556 S
C243 C242 1.370 . S
C243 C244 1.403 . S
C244 C243 1.403 . S
C244 C245 1.404 . S
C244 C247 1.539 . S
C245 C241 1.408 . S
C245 C244 1.404 . S
C245 H257 0.930 . S
C246 C242 1.524 1_554 S
C246 H258 0.956 . S
C246 H259 0.961 . S
C246 H260 0.961 . S
C247 C244 1.539 . S
C247 H261 0.958 . S
C247 H262 0.961 . S
C247 H263 0.960 . S
H248 C232 0.931 . S
H249 C237 0.929 . S
H250 C238 0.960 . S
H251 C238 0.962 1_554 S
H252 C238 0.962 . S
H253 C239 0.961 . S
H254 C239 0.961 . S
H255 C239 0.961 . S
H256 C240 0.931 . S
H257 C245 0.930 . S
H258 C246 0.956 . S
H259 C246 0.961 . S
H260 C246 0.961 . S
H261 C247 0.958 . S
H262 C247 0.961 . S
H263 C247 0.960 . S
C264 C265 1.391 . S
C264 C266 1.394 1_655 S
C264 H280 0.931 . S
C265 C264 1.391 . S
C265 C269 1.376 . S
C266 C264 1.394 1_455 S
C266 C267 1.369 1_455 S
C266 C270 1.531 . S
C267 C266 1.369 1_655 S
C267 C268 1.410 . S
C267 C275 1.503 1_655 S
C268 C267 1.410 . S
C268 C269 1.392 . S
C268 C271 1.511 . S
C269 C265 1.376 . S
C269 C268 1.392 . S
C269 H281 0.929 . S
C270 C266 1.531 . S
C270 H282 0.960 . S
C270 H283 0.962 . S
C270 H284 0.960 . S
C271 C268 1.511 . S
C271 H285 0.961 . S
C271 H286 0.961 . S
C271 H287 0.961 . S
C272 C273 1.370 . S
C272 C274 1.363 . S
C272 H288 0.931 . S
C273 C272 1.370 . S
C273 C277 1.408 . S
C274 C272 1.363 . S
C274 C275 1.370 . S
C274 C278 1.524 . S
C275 C267 1.503 1_455 S
C275 C274 1.370 . S
C275 C276 1.403 . S
C276 C275 1.403 . S
C276 C277 1.404 . S
C276 C279 1.539 . S
C277 C273 1.408 . S
C277 C276 1.404 . S
C277 H289 0.930 . S
C278 C274 1.524 . S
C278 H290 0.956 . S
C278 H291 0.961 1_455 S
C278 H292 0.961 . S
C279 C276 1.539 . S
C279 H293 0.958 . S
C279 H294 0.961 . S
C279 H295 0.960 1_455 S
H280 C264 0.931 . S
H281 C269 0.929 . S
H282 C270 0.960 . S
H283 C270 0.962 . S
H284 C270 0.960 . S
H285 C271 0.961 . S
H286 C271 0.961 . S
H287 C271 0.961 . S
H288 C272 0.931 . S
H289 C277 0.930 . S
H290 C278 0.956 . S
H291 C278 0.961 1_655 S
H292 C278 0.961 . S
H293 C279 0.958 . S
H294 C279 0.961 . S
H295 C279 0.960 1_655 S
C296 C297 1.391 1_565 S
C296 C298 1.394 . S
C296 H312 0.931 1_565 S
C297 C296 1.391 1_545 S
C297 C301 1.376 1_545 S
C298 C296 1.394 . S
C298 C299 1.369 . S
C298 C302 1.531 . S
C299 C298 1.369 . S
C299 C300 1.410 . S
C299 C307 1.503 . S
C300 C299 1.410 . S
C300 C301 1.392 . S
C300 C303 1.511 . S
C301 C297 1.376 1_565 S
C301 C300 1.392 . S
C301 H313 0.929 . S
C302 C298 1.531 . S
C302 H314 0.960 . S
C302 H315 0.962 . S
C302 H316 0.960 . S
C303 C300 1.511 . S
C303 H317 0.961 . S
C303 H318 0.961 . S
C303 H319 0.961 . S
C304 C305 1.370 . S
C304 C306 1.363 . S
C304 H320 0.931 . S
C305 C304 1.370 . S
C305 C309 1.408 . S
C306 C304 1.363 . S
C306 C307 1.370 . S
C306 C310 1.524 . S
C307 C299 1.503 . S
C307 C306 1.370 . S
C307 C308 1.403 . S
C308 C307 1.403 . S
C308 C309 1.404 . S
C308 C311 1.539 . S
C309 C305 1.408 . S
C309 C308 1.404 . S
C309 H321 0.930 . S
C310 C306 1.524 . S
C310 H322 0.956 . S
C310 H323 0.961 . S
C310 H324 0.961 . S
C311 C308 1.539 . S
C311 H325 0.958 . S
C311 H326 0.961 . S
C311 H327 0.960 . S
H312 C296 0.931 1_545 S
H313 C301 0.929 . S
H314 C302 0.960 . S
H315 C302 0.962 . S
H316 C302 0.960 . S
H317 C303 0.961 . S
H318 C303 0.961 . S
H319 C303 0.961 . S
H320 C304 0.931 . S
H321 C309 0.930 . S
H322 C310 0.956 . S
H323 C310 0.961 . S
H324 C310 0.961 . S
H325 C311 0.958 . S
H326 C311 0.961 . S
H327 C311 0.960 . S
C328 C329 1.391 1_655 S
C328 C330 1.394 . S
C328 H344 0.931 1_655 S
C329 C328 1.391 1_455 S
C329 C333 1.376 . S
C330 C328 1.394 . S
C330 C331 1.369 . S
C330 C334 1.531 . S
C331 C330 1.369 . S
C331 C332 1.410 . S
C331 C339 1.503 . S
C332 C331 1.410 . S
C332 C333 1.392 1_655 S
C332 C335 1.511 . S
C333 C329 1.376 . S
C333 C332 1.392 1_455 S
C333 H345 0.929 . S
C334 C330 1.531 . S
C334 H346 0.960 . S
C334 H347 0.962 . S
C334 H348 0.960 . S
C335 C332 1.511 . S
C335 H349 0.961 . S
C335 H350 0.961 . S
C335 H351 0.961 . S
C336 C337 1.370 . S
C336 C338 1.363 . S
C336 H352 0.931 . S
C337 C336 1.370 . S
C337 C341 1.408 . S
C338 C336 1.363 . S
C338 C339 1.370 . S
C338 C342 1.524 . S
C339 C331 1.503 . S
C339 C338 1.370 . S
C339 C340 1.403 . S
C340 C339 1.403 . S
C340 C341 1.404 . S
C340 C343 1.539 . S
C341 C337 1.408 . S
C341 C340 1.404 . S
C341 H353 0.930 . S
C342 C338 1.524 . S
C342 H354 0.956 . S
C342 H355 0.961 . S
C342 H356 0.961 . S
C343 C340 1.539 . S
C343 H357 0.958 . S
C343 H358 0.961 . S
C343 H359 0.960 . S
H344 C328 0.931 1_455 S
H345 C333 0.929 . S
H346 C334 0.960 . S
H347 C334 0.962 . S
H348 C334 0.960 . S
H349 C335 0.961 . S
H350 C335 0.961 . S
H351 C335 0.961 . S
H352 C336 0.931 . S
H353 C341 0.930 . S
H354 C342 0.956 . S
H355 C342 0.961 . S
H356 C342 0.961 . S
H357 C343 0.958 . S
H358 C343 0.961 . S
H359 C343 0.960 . S
C360 C361 1.391 1_565 S
C360 C362 1.394 . S
C360 H376 0.931 1_565 S
C361 C360 1.391 1_545 S
C361 C365 1.376 1_545 S
C362 C360 1.394 . S
C362 C363 1.369 . S
C362 C366 1.531 . S
C363 C362 1.369 . S
C363 C364 1.410 . S
C363 C371 1.503 . S
C364 C363 1.410 . S
C364 C365 1.392 . S
C364 C367 1.511 . S
C365 C361 1.376 1_565 S
C365 C364 1.392 . S
C365 H377 0.929 1_565 S
C366 C362 1.531 . S
C366 H378 0.960 . S
C366 H379 0.962 . S
C366 H380 0.960 . S
C367 C364 1.511 . S
C367 H381 0.961 . S
C367 H382 0.961 . S
C367 H383 0.961 . S
C368 C369 1.370 1_455 S
C368 C370 1.363 . S
C368 H384 0.931 . S
C369 C368 1.370 1_655 S
C369 C373 1.408 . S
C370 C368 1.363 . S
C370 C371 1.370 . S
C370 C374 1.524 . S
C371 C363 1.503 . S
C371 C370 1.370 . S
C371 C372 1.403 . S
C372 C371 1.403 . S
C372 C373 1.404 1_455 S
C372 C375 1.539 . S
C373 C369 1.408 . S
C373 C372 1.404 1_655 S
C373 H385 0.930 . S
C374 C370 1.524 . S
C374 H386 0.956 . S
C374 H387 0.961 . S
C374 H388 0.961 . S
C375 C372 1.539 . S
C375 H389 0.958 . S
C375 H390 0.961 1_455 S
C375 H391 0.960 . S
H376 C360 0.931 1_545 S
H377 C365 0.929 1_545 S
H378 C366 0.960 . S
H379 C366 0.962 . S
H380 C366 0.960 . S
H381 C367 0.961 . S
H382 C367 0.961 . S
H383 C367 0.961 . S
H384 C368 0.931 . S
H385 C373 0.930 . S
H386 C374 0.956 . S
H387 C374 0.961 . S
H388 C374 0.961 . S
H389 C375 0.958 . S
H390 C375 0.961 1_655 S
H391 C375 0.960 . S
C392 C393 1.391 . S
C392 C394 1.394 . S
C392 H408 0.931 . S
C393 C392 1.391 . S
C393 C397 1.376 . S
C394 C392 1.394 . S
C394 C395 1.369 . S
C394 C398 1.531 . S
C395 C394 1.369 . S
C395 C396 1.410 . S
C395 C403 1.503 . S
C396 C395 1.410 . S
C396 C397 1.392 . S
C396 C399 1.511 . S
C397 C393 1.376 . S
C397 C396 1.392 . S
C397 H409 0.929 . S
C398 C394 1.531 . S
C398 H410 0.960 . S
C398 H411 0.962 . S
C398 H412 0.960 . S
C399 C396 1.511 . S
C399 H413 0.961 . S
C399 H414 0.961 . S
C399 H415 0.961 . S
C400 C401 1.370 1_545 S
C400 C402 1.363 . S
C400 H416 0.931 . S
C401 C400 1.370 1_565 S
C401 C405 1.408 1_565 S
C402 C400 1.363 . S
C402 C403 1.370 . S
C402 C406 1.524 . S
C403 C395 1.503 . S
C403 C402 1.370 . S
C403 C404 1.403 . S
C404 C403 1.403 . S
C404 C405 1.404 . S
C404 C407 1.539 . S
C405 C401 1.408 1_545 S
C405 C404 1.404 . S
C405 H417 0.930 1_545 S
C406 C402 1.524 . S
C406 H418 0.956 . S
C406 H419 0.961 . S
C406 H420 0.961 . S
C407 C404 1.539 . S
C407 H421 0.958 . S
C407 H422 0.961 . S
C407 H423 0.960 . S
H408 C392 0.931 . S
H409 C397 0.929 . S
H410 C398 0.960 . S
H411 C398 0.962 . S
H412 C398 0.960 . S
H413 C399 0.961 . S
H414 C399 0.961 . S
H415 C399 0.961 . S
H416 C400 0.931 . S
H417 C405 0.930 1_565 S
H418 C406 0.956 . S
H419 C406 0.961 . S
H420 C406 0.961 . S
H421 C407 0.958 . S
H422 C407 0.961 . S
H423 C407 0.960 . S
C424 C425 1.391 . S
C424 C426 1.394 . S
C424 H440 0.931 . S
C425 C424 1.391 . S
C425 C429 1.376 . S
C426 C424 1.394 . S
C426 C427 1.369 . S
C426 C430 1.531 . S
C427 C426 1.369 . S
C427 C428 1.410 . S
C427 C435 1.503 . S
C428 C427 1.410 . S
C428 C429 1.392 . S
C428 C431 1.511 . S
C429 C425 1.376 . S
C429 C428 1.392 . S
C429 H441 0.929 . S
C430 C426 1.531 . S
C430 H442 0.960 . S
C430 H443 0.962 . S
C430 H444 0.960 . S
C431 C428 1.511 . S
C431 H445 0.961 . S
C431 H446 0.961 . S
C431 H447 0.961 . S
C432 C433 1.370 1_455 S
C432 C434 1.363 . S
C432 H448 0.931 . S
C433 C432 1.370 1_655 S
C433 C437 1.408 . S
C434 C432 1.363 . S
C434 C435 1.370 . S
C434 C438 1.524 . S
C435 C427 1.503 . S
C435 C434 1.370 . S
C435 C436 1.403 . S
C436 C435 1.403 . S
C436 C437 1.404 1_455 S
C436 C439 1.539 . S
C437 C433 1.408 . S
C437 C436 1.404 1_655 S
C437 H449 0.930 . S
C438 C434 1.524 . S
C438 H450 0.956 . S
C438 H451 0.961 . S
C438 H452 0.961 . S
C439 C436 1.539 . S
C439 H453 0.958 . S
C439 H454 0.961 . S
C439 H455 0.960 . S
H440 C424 0.931 . S
H441 C429 0.929 . S
H442 C430 0.960 . S
H443 C430 0.962 . S
H444 C430 0.960 . S
H445 C431 0.961 . S
H446 C431 0.961 . S
H447 C431 0.961 . S
H448 C432 0.931 . S
H449 C437 0.930 . S
H450 C438 0.956 . S
H451 C438 0.961 . S
H452 C438 0.961 . S
H453 C439 0.958 . S
H454 C439 0.961 . S
H455 C439 0.960 . S
C456 C457 1.391 . S
C456 C458 1.394 1_455 S
C456 H472 0.931 . S
C457 C456 1.391 . S
C457 C461 1.376 1_455 S
C458 C456 1.394 1_655 S
C458 C459 1.369 . S
C458 C462 1.531 . S
C459 C458 1.369 . S
C459 C460 1.410 . S
C459 C467 1.503 . S
C460 C459 1.410 . S
C460 C461 1.392 . S
C460 C463 1.511 . S
C461 C457 1.376 1_655 S
C461 C460 1.392 . S
C461 H473 0.929 . S
C462 C458 1.531 . S
C462 H474 0.960 . S
C462 H475 0.962 . S
C462 H476 0.960 . S
C463 C460 1.511 . S
C463 H477 0.961 . S
C463 H478 0.961 . S
C463 H479 0.961 . S
C464 C465 1.370 . S
C464 C466 1.363 1_565 S
C464 H480 0.931 . S
C465 C464 1.370 . S
C465 C469 1.408 1_565 S
C466 C464 1.363 1_545 S
C466 C467 1.370 . S
C466 C470 1.524 . S
C467 C459 1.503 . S
C467 C466 1.370 . S
C467 C468 1.403 . S
C468 C467 1.403 . S
C468 C469 1.404 . S
C468 C471 1.539 . S
C469 C465 1.408 1_545 S
C469 C468 1.404 . S
C469 H481 0.930 . S
C470 C466 1.524 . S
C470 H482 0.956 . S
C470 H483 0.961 . S
C470 H484 0.961 . S
C471 C468 1.539 . S
C471 H485 0.958 . S
C471 H486 0.961 . S
C471 H487 0.960 . S
H472 C456 0.931 . S
H473 C461 0.929 . S
H474 C462 0.960 . S
H475 C462 0.962 . S
H476 C462 0.960 . S
H477 C463 0.961 . S
H478 C463 0.961 . S
H479 C463 0.961 . S
H480 C464 0.931 . S
H481 C469 0.930 . S
H482 C470 0.956 . S
H483 C470 0.961 . S
H484 C470 0.961 . S
H485 C471 0.958 . S
H486 C471 0.961 . S
H487 C471 0.960 . S
C105 C97 0.570 . S
C113 C39 0.689 . S
C137 C88 2.393 . S
C145 C18 2.421 . S
C169 C36 1.765 . S
C177 C70 1.798 . S
C201 C84 2.817 . S
C209 C50 2.811 . S
C233 C32 1.804 . S
C241 C102 1.767 . S
C265 C45 1.876 . S
C273 C91 1.836 . S
C297 C4 1.347 . S
C305 C42 1.346 . S
C329 C86 0.795 . S
C337 C82 0.739 . S
C361 C48 1.357 . S
C369 C26 1.414 . S
C393 C56 1.380 . S
C401 C94 1.331 . S
C425 C34 0.725 . S
C433 C30 0.766 . S
C457 C100 1.368 . S
C465 C78 1.410 . S
