# Generated by pormake.
# Topology umc, (4)-cn, num edge types: 1
# Building blocks:
#     Node 0, Type 0, BuildingBlock: MUDLON_clean_sbu_0, # of connection points: 4
#     Node 1, Type 0, BuildingBlock: MUDLON_clean_sbu_0, # of connection points: 4
#     Node 2, Type 0, BuildingBlock: MUDLON_clean_sbu_0, # of connection points: 4
#     Node 3, Type 0, BuildingBlock: MUDLON_clean_sbu_0, # of connection points: 4
#     Node 4, Type 0, BuildingBlock: MUDLON_clean_sbu_0, # of connection points: 4
#     Node 5, Type 0, BuildingBlock: MUDLON_clean_sbu_0, # of connection points: 4
#     Node 6, Type 0, BuildingBlock: MUDLON_clean_sbu_0, # of connection points: 4
#     Node 7, Type 0, BuildingBlock: MUDLON_clean_sbu_0, # of connection points: 4
#     Node 8, Type 0, BuildingBlock: MUDLON_clean_sbu_0, # of connection points: 4
#     Node 9, Type 0, BuildingBlock: MUDLON_clean_sbu_0, # of connection points: 4
#     Node 10, Type 0, BuildingBlock: MUDLON_clean_sbu_0, # of connection points: 4
#     Node 11, Type 0, BuildingBlock: MUDLON_clean_sbu_0, # of connection points: 4
#     Node 12, Type 0, BuildingBlock: MUDLON_clean_sbu_0, # of connection points: 4
#     Node 13, Type 0, BuildingBlock: MUDLON_clean_sbu_0, # of connection points: 4
#     Node 14, Type 0, BuildingBlock: MUDLON_clean_sbu_0, # of connection points: 4
#     Node 15, Type 0, BuildingBlock: MUDLON_clean_sbu_0, # of connection points: 4
#     Edge 16, Type (0, 0), BuildingBlock: ZUJKAS_clean_linker_0, # of connection points: 2
#     Edge 17, Type (0, 0), BuildingBlock: ZUJKAS_clean_linker_0, # of connection points: 2
#     Edge 18, Type (0, 0), BuildingBlock: ZUJKAS_clean_linker_0, # of connection points: 2
#     Edge 19, Type (0, 0), BuildingBlock: ZUJKAS_clean_linker_0, # of connection points: 2
#     Edge 20, Type (0, 0), BuildingBlock: ZUJKAS_clean_linker_0, # of connection points: 2
#     Edge 21, Type (0, 0), BuildingBlock: ZUJKAS_clean_linker_0, # of connection points: 2
#     Edge 22, Type (0, 0), BuildingBlock: ZUJKAS_clean_linker_0, # of connection points: 2
#     Edge 23, Type (0, 0), BuildingBlock: ZUJKAS_clean_linker_0, # of connection points: 2
#     Edge 24, Type (0, 0), BuildingBlock: ZUJKAS_clean_linker_0, # of connection points: 2
#     Edge 25, Type (0, 0), BuildingBlock: ZUJKAS_clean_linker_0, # of connection points: 2
#     Edge 26, Type (0, 0), BuildingBlock: ZUJKAS_clean_linker_0, # of connection points: 2
#     Edge 27, Type (0, 0), BuildingBlock: ZUJKAS_clean_linker_0, # of connection points: 2
#     Edge 28, Type (0, 0), BuildingBlock: ZUJKAS_clean_linker_0, # of connection points: 2
#     Edge 29, Type (0, 0), BuildingBlock: ZUJKAS_clean_linker_0, # of connection points: 2
#     Edge 30, Type (0, 0), BuildingBlock: ZUJKAS_clean_linker_0, # of connection points: 2
#     Edge 31, Type (0, 0), BuildingBlock: ZUJKAS_clean_linker_0, # of connection points: 2
#     Edge 32, Type (0, 0), BuildingBlock: ZUJKAS_clean_linker_0, # of connection points: 2
#     Edge 33, Type (0, 0), BuildingBlock: ZUJKAS_clean_linker_0, # of connection points: 2
#     Edge 34, Type (0, 0), BuildingBlock: ZUJKAS_clean_linker_0, # of connection points: 2
#     Edge 35, Type (0, 0), BuildingBlock: ZUJKAS_clean_linker_0, # of connection points: 2
#     Edge 36, Type (0, 0), BuildingBlock: ZUJKAS_clean_linker_0, # of connection points: 2
#     Edge 37, Type (0, 0), BuildingBlock: ZUJKAS_clean_linker_0, # of connection points: 2
#     Edge 38, Type (0, 0), BuildingBlock: ZUJKAS_clean_linker_0, # of connection points: 2
#     Edge 39, Type (0, 0), BuildingBlock: ZUJKAS_clean_linker_0, # of connection points: 2
#     Edge 40, Type (0, 0), BuildingBlock: ZUJKAS_clean_linker_0, # of connection points: 2
#     Edge 41, Type (0, 0), BuildingBlock: ZUJKAS_clean_linker_0, # of connection points: 2
#     Edge 42, Type (0, 0), BuildingBlock: ZUJKAS_clean_linker_0, # of connection points: 2
#     Edge 43, Type (0, 0), BuildingBlock: ZUJKAS_clean_linker_0, # of connection points: 2
#     Edge 44, Type (0, 0), BuildingBlock: ZUJKAS_clean_linker_0, # of connection points: 2
#     Edge 45, Type (0, 0), BuildingBlock: ZUJKAS_clean_linker_0, # of connection points: 2
#     Edge 46, Type (0, 0), BuildingBlock: ZUJKAS_clean_linker_0, # of connection points: 2
#     Edge 47, Type (0, 0), BuildingBlock: ZUJKAS_clean_linker_0, # of connection points: 2
# Relax obj value: 0.000
# Max RMSD: 0.077
# Mean RMSD: 0.076
data_MOF--net-umc--node1-MUDLON_clean_sbu_0--edge1-ZUJKAS_clean_linker_0
_symmetry_space_group_name_H-M    P1
_symmetry_Int_Tables_number       1
_symmetry_cell_setting            triclinic
loop_
_symmetry_equiv_pos_as_xyz
'x, y, z'
_cell_length_a     75.988576
_cell_length_b     19.19983
_cell_length_c     77.972665
_cell_angle_alpha  89.999821
_cell_angle_beta   89.981923
_cell_angle_gamma 90.06159
loop_
_atom_site_label
_atom_site_type_symbol
_atom_site_fract_x
_atom_site_fract_y
_atom_site_fract_z
_atom_type_partial_charge
Mg0 Mg 0.384 0.01157 0.39409 0.0
C1 C 0.38617 0.97751 0.42998 0.0
O2 O 0.39379 0.03834 0.42775 0.0
C3 C 0.37954 0.02325 0.35756 0.0
O4 O 0.38105 0.08666 0.36374 0.0
C5 C 0.34886 0.06365 0.40042 0.0
O6 O 0.34799 -0.00448 0.40182 0.0
O7 O 0.36375 0.09127 0.39717 0.0
O8 O 0.38025 0.94597 0.4168 0.0
O9 O 0.41179 0.0411 0.39469 0.0
C10 C 0.42169 0.98797 0.39635 0.0
O11 O 0.41423 0.9264 0.39761 0.0
O12 O 0.37995 0.97239 0.36807 0.0
Mg13 Mg 0.64876 0.97955 0.39313 0.0
C14 C 0.64255 0.04541 0.42743 0.0
O15 O 0.62831 0.00739 0.4255 0.0
C16 C 0.65292 0.96445 0.35644 0.0
O17 O 0.65028 0.90177 0.36271 0.0
C18 C 0.68395 0.92739 0.39662 0.0
O19 O 0.68496 -0.00456 0.39504 0.0
O20 O 0.66875 0.89931 0.39654 0.0
O21 O 0.65345 0.04914 0.41503 0.0
O22 O 0.62089 0.951 0.39341 0.0
C23 C 0.61118 0.00135 0.38854 0.0
O24 O 0.61886 0.05968 0.38383 0.0
O25 O 0.65335 0.01559 0.36687 0.0
Mg26 Mg 0.3835 0.97658 0.13649 0.0
C27 C 0.36773 0.04208 0.10439 0.0
O28 O 0.35553 -0.00471 0.10749 0.0
C29 C 0.3835 0.96166 0.17335 0.0
O30 O 0.38651 0.89965 0.16684 0.0
C31 C 0.34827 0.9186 0.14096 0.0
O32 O 0.3479 0.98028 0.14825 0.0
O33 O 0.36269 0.89807 0.13431 0.0
O34 O 0.38006 0.05046 0.11526 0.0
O35 O 0.41098 0.94443 0.13421 0.0
C36 C 0.42104 -0.00257 0.13322 0.0
O37 O 0.4138 0.05955 0.13331 0.0
O38 O 0.38152 0.01256 0.16303 0.0
Mg39 Mg 0.64829 0.00069 0.13533 0.0
C40 C 0.64235 0.93707 0.10086 0.0
O41 O 0.62882 0.97909 0.10241 0.0
C42 C 0.65234 0.01744 0.17194 0.0
O43 O 0.64957 0.07965 0.16545 0.0
C44 C 0.68335 0.0533 0.12952 0.0
O45 O 0.68435 0.98498 0.12922 0.0
O46 O 0.6683 0.0811 0.13171 0.0
O47 O 0.65276 0.93015 0.11357 0.0
O48 O 0.6204 0.02873 0.13492 0.0
C49 C 0.61065 0.97695 0.13875 0.0
O50 O 0.6183 0.91767 0.14266 0.0
O51 O 0.65286 0.96575 0.16168 0.0
Mg52 Mg 0.65019 0.96205 0.63719 0.0
C53 C 0.66723 0.04398 0.6068 0.0
O54 O 0.68232 0.02965 0.61421 0.0
C55 C 0.66614 -0.00719 0.67197 0.0
O56 O 0.67873 0.95448 0.66536 0.0
C57 C 0.67831 0.85987 0.62314 0.0
O58 O 0.67306 0.88203 0.60805 0.0
O59 O 0.66997 0.87905 0.63649 0.0
O60 O 0.65296 0.02679 0.61425 0.0
O61 O 0.62232 0.93314 0.63681 0.0
C62 C 0.61261 0.98714 0.63768 0.0
O63 O 0.62033 0.0483 0.63866 0.0
O64 O 0.65332 0.01086 0.66242 0.0
Mg65 Mg 0.38495 0.00263 0.63985 0.0
C66 C 0.36633 0.9285 0.60967 0.0
O67 O 0.35187 0.95017 0.6172 0.0
C68 C 0.36828 0.96156 0.67367 0.0
O69 O 0.35446 0.9891 0.66617 0.0
C70 C 0.35799 0.1119 0.62663 0.0
O71 O 0.36464 0.09845 0.61143 0.0
O72 O 0.36498 0.08465 0.63985 0.0
O73 O 0.38105 0.93817 0.61708 0.0
O74 O 0.41279 0.0316 0.6386 0.0
C75 C 0.42252 0.97756 0.63825 0.0
O76 O 0.41484 0.91621 0.63854 0.0
O77 O 0.38235 0.95383 0.66501 0.0
Mg78 Mg 0.64691 0.00742 0.89197 0.0
C79 C 0.66584 0.93231 0.922 0.0
O80 O 0.68019 0.95955 0.9154 0.0
C81 C 0.64103 0.00126 0.85491 0.0
O82 O 0.63114 0.05277 0.86038 0.0
C83 C 0.67372 0.11781 0.90543 0.0
O84 O 0.66663 0.10691 0.92057 0.0
O85 O 0.66713 0.0883 0.8923 0.0
O86 O 0.65133 0.93905 0.91403 0.0
O87 O 0.61921 0.03792 0.89437 0.0
C88 C 0.60916 0.98735 0.89847 0.0
O89 O 0.61633 0.92625 0.90141 0.0
O90 O 0.64951 0.96565 0.86596 0.0
Mg91 Mg 0.38214 0.9765 0.89448 0.0
C92 C 0.39078 0.0709 0.92502 0.0
O93 O 0.40699 0.05758 0.92019 0.0
C94 C 0.37276 0.95867 0.85831 0.0
O95 O 0.37163 0.89614 0.86506 0.0
C96 C 0.34733 0.9213 0.90369 0.0
O97 O 0.34609 0.98886 0.90604 0.0
O98 O 0.36218 0.89619 0.89924 0.0
O99 O 0.3781 0.04998 0.91567 0.0
O100 O 0.41002 0.94717 0.89482 0.0
C101 C 0.41987 0.99021 0.88687 0.0
O102 O 0.4124 0.04299 0.879 0.0
O103 O 0.37683 0.00951 0.86805 0.0
Mg104 Mg 0.88377 0.50404 0.39519 0.0
C105 C 0.88696 0.46768 0.43102 0.0
O106 O 0.8955 0.52653 0.42878 0.0
C107 C 0.87988 0.51433 0.35864 0.0
O108 O 0.8824 0.57752 0.36465 0.0
C109 C 0.84836 0.55443 0.39812 0.0
O110 O 0.84763 0.48619 0.39695 0.0
O111 O 0.86345 0.58342 0.39796 0.0
O112 O 0.87997 0.43889 0.41796 0.0
O113 O 0.91156 0.53351 0.39538 0.0
C114 C 0.92144 0.48021 0.39677 0.0
O115 O 0.91396 0.41869 0.39807 0.0
O116 O 0.87948 0.46397 0.3693 0.0
Mg117 Mg 0.14841 0.47745 0.39137 0.0
C118 C 0.14054 0.54984 0.42471 0.0
O119 O 0.12625 0.51231 0.42263 0.0
C120 C 0.15337 0.45813 0.35492 0.0
O121 O 0.15112 0.39599 0.36164 0.0
C122 C 0.18339 0.42637 0.3995 0.0
O123 O 0.18425 0.49453 0.40075 0.0
O124 O 0.16862 0.39866 0.39583 0.0
O125 O 0.15196 0.55082 0.41273 0.0
O126 O 0.12073 0.44625 0.39144 0.0
C127 C 0.11079 0.49467 0.38589 0.0
O128 O 0.11817 0.55265 0.38052 0.0
O129 O 0.15327 0.51059 0.36495 0.0
Mg130 Mg 0.88354 0.47508 0.13781 0.0
C131 C 0.8897 0.53901 0.10364 0.0
O132 O 0.90237 0.49286 0.10485 0.0
C133 C 0.87995 0.45733 0.17438 0.0
O134 O 0.88254 0.39524 0.16775 0.0
C135 C 0.84794 0.42509 0.136 0.0
O136 O 0.84731 0.49185 0.13968 0.0
O137 O 0.863 0.39708 0.13403 0.0
O138 O 0.87951 0.54777 0.11646 0.0
O139 O 0.91125 0.44466 0.1373 0.0
C140 C 0.92119 0.49656 0.1405 0.0
O141 O 0.91375 0.55689 0.14379 0.0
O142 O 0.8794 0.50935 0.16424 0.0
Mg143 Mg 0.14849 0.50074 0.13416 0.0
C144 C 0.14377 0.45917 0.09855 0.0
O145 O 0.13465 0.5167 0.10058 0.0
C146 C 0.15312 0.51297 0.17066 0.0
O147 O 0.1503 0.57581 0.16457 0.0
C148 C 0.18298 0.5583 0.12554 0.0
O149 O 0.1841 0.49157 0.12198 0.0
O150 O 0.16829 0.58219 0.13076 0.0
O151 O 0.15153 0.43357 0.1116 0.0
O152 O 0.12067 0.52937 0.13455 0.0
C153 C 0.11086 0.47562 0.13527 0.0
O154 O 0.11841 0.4141 0.13571 0.0
O155 O 0.15346 0.46227 0.1601 0.0
Mg156 Mg 0.14916 0.47002 0.63425 0.0
C157 C 0.16597 0.54315 0.60312 0.0
O158 O 0.1794 0.50346 0.6071 0.0
C159 C 0.14193 0.46855 0.67126 0.0
O160 O 0.13234 0.41769 0.66495 0.0
C161 C 0.18494 0.41941 0.63818 0.0
O162 O 0.18457 0.48259 0.64466 0.0
O163 O 0.17062 0.39383 0.6324 0.0
O164 O 0.15264 0.54437 0.61303 0.0
O165 O 0.12158 0.43841 0.63108 0.0
C166 C 0.11166 0.49192 0.63056 0.0
O167 O 0.11908 0.55366 0.63151 0.0
O168 O 0.15076 0.50625 0.6609 0.0
Mg169 Mg 0.88424 0.51163 0.63912 0.0
C170 C 0.86582 0.43417 0.61033 0.0
O171 O 0.85234 0.46982 0.61618 0.0
C172 C 0.8676 0.46993 0.67404 0.0
O173 O 0.85255 0.47654 0.66592 0.0
C174 C 0.85674 0.62644 0.64604 0.0
O175 O 0.86285 0.62278 0.66177 0.0
O176 O 0.8644 0.59202 0.63425 0.0
O177 O 0.8802 0.4355 0.61869 0.0
O178 O 0.9121 0.53866 0.6363 0.0
C179 C 0.92183 0.48509 0.6381 0.0
O180 O 0.91417 0.42508 0.64131 0.0
O181 O 0.88191 0.47646 0.66571 0.0
Mg182 Mg 0.14627 0.50284 0.89074 0.0
C183 C 0.1646 0.4245 0.91987 0.0
O184 O 0.17814 0.46131 0.91464 0.0
C185 C 0.15479 0.42769 0.85523 0.0
O186 O 0.16587 0.38659 0.86327 0.0
C187 C 0.18131 0.56656 0.88581 0.0
O188 O 0.18173 0.50905 0.87673 0.0
O189 O 0.16704 0.58208 0.89352 0.0
O190 O 0.15048 0.42567 0.91107 0.0
O191 O 0.11888 0.53372 0.89497 0.0
C192 C 0.1088 0.48058 0.89479 0.0
O193 O 0.11598 0.419 0.89254 0.0
O194 O 0.14598 0.47236 0.86367 0.0
Mg195 Mg 0.88137 0.48721 0.89498 0.0
C196 C 0.86511 0.56549 0.9257 0.0
O197 O 0.85068 0.53365 0.92079 0.0
C198 C 0.88353 0.4758 0.85805 0.0
O199 O 0.88949 0.41705 0.86444 0.0
C200 C 0.84558 0.43494 0.89185 0.0
O201 O 0.84568 0.49713 0.8848 0.0
O202 O 0.86003 0.41082 0.89764 0.0
O203 O 0.87888 0.56064 0.91645 0.0
O204 O 0.90892 0.45452 0.89688 0.0
C205 C 0.91902 0.50751 0.89597 0.0
O206 O 0.91172 0.56912 0.89417 0.0
O207 O 0.87886 0.5235 0.86847 0.0
H208 H 0.40193 0.02531 0.45884 0.0
H209 H 0.39568 -0.00593 0.48844 0.0
H210 H 0.35821 0.84019 0.47142 0.0
H211 H 0.36446 0.87137 0.44136 0.0
H212 H 0.36056 0.00499 0.50273 0.0
H213 H 0.38972 0.74008 0.50894 0.0
H214 H 0.39674 0.80039 0.4925 0.0
H215 H 0.37577 0.75816 0.49078 0.0
C216 C 0.39248 0.98419 0.46128 0.0
C217 C 0.38361 0.95111 0.4477 0.0
C218 C 0.38894 0.9664 0.47826 0.0
C219 C 0.3765 0.9149 0.48215 0.0
C220 C 0.36799 0.87971 0.46868 0.0
H221 H 0.33765 0.91485 0.58853 0.0
H222 H 0.33779 0.89936 0.55736 0.0
C223 C 0.37156 0.89757 0.45153 0.0
C224 C 0.37181 0.90271 0.5004 0.0
H225 H 0.37796 0.7908 0.53395 0.0
C226 C 0.3641 0.95774 0.50954 0.0
C227 C 0.3766 0.84127 0.50921 0.0
C228 C 0.38525 0.78142 0.49998 0.0
C229 C 0.3616 0.95414 0.52735 0.0
C230 C 0.36668 0.89317 0.53629 0.0
C231 C 0.37394 0.83719 0.52707 0.0
C232 C 0.36608 0.88989 0.55534 0.0
C233 C 0.35443 0.01724 0.53656 0.0
C234 C 0.38183 0.88575 0.56468 0.0
C235 C 0.38179 0.89397 0.5825 0.0
C236 C 0.36598 0.90658 0.59138 0.0
C237 C 0.35008 0.90583 0.58212 0.0
C238 C 0.35014 0.89732 0.56427 0.0
H239 H 0.35454 0.06442 0.52831 0.0
H240 H 0.34062 0.00706 0.54045 0.0
H241 H 0.36219 0.02838 0.54831 0.0
H242 H 0.39429 0.87977 0.55807 0.0
H243 H 0.39428 0.89382 0.5892 0.0
H244 H 0.63822 0.06514 0.58666 0.0
H245 H 0.63743 0.08732 0.55585 0.0
H246 H 0.69407 0.10003 0.55482 0.0
H247 H 0.69504 0.0761 0.58566 0.0
H248 H 0.64912 0.1928 0.53485 0.0
H249 H 0.68452 0.94632 0.52034 0.0
H250 H 0.67614 0.96596 0.54143 0.0
H251 H 0.69615 0.00586 0.53401 0.0
C252 C 0.65054 0.07337 0.57996 0.0
C253 C 0.66672 0.06798 0.58866 0.0
C254 C 0.65005 0.08612 0.56231 0.0
C255 C 0.66569 0.09385 0.55291 0.0
C256 C 0.68183 0.09253 0.5617 0.0
H257 H 0.67486 0.08431 0.44021 0.0
H258 H 0.68216 0.10912 0.47029 0.0
C259 C 0.68235 0.07939 0.57938 0.0
C260 C 0.66494 0.09987 0.53387 0.0
H261 H 0.67571 0.01439 0.49686 0.0
C262 C 0.65508 0.15413 0.52654 0.0
C263 C 0.67272 0.04947 0.52298 0.0
C264 C 0.68286 0.98824 0.53003 0.0
C265 C 0.65249 0.15851 0.50871 0.0
C266 C 0.65978 0.10684 0.4979 0.0
C267 C 0.67021 0.05418 0.50514 0.0
C268 C 0.6553 0.10194 0.47935 0.0
C269 C 0.6418 0.21804 0.50161 0.0
C270 C 0.63778 0.09064 0.4744 0.0
C271 C 0.6336 0.07632 0.45731 0.0
C272 C 0.64685 0.07282 0.44473 0.0
C273 C 0.66433 0.08725 0.44954 0.0
C274 C 0.66853 0.1011 0.46674 0.0
H275 H 0.64204 0.26371 0.51036 0.0
H276 H 0.64673 0.23441 0.48882 0.0
H277 H 0.62791 0.20114 0.50021 0.0
H278 H 0.62738 0.0896 0.4839 0.0
H279 H 0.62002 0.0653 0.45407 0.0
H280 H 0.39562 0.11171 0.08991 0.0
H281 H 0.39926 0.14305 0.05966 0.0
H282 H 0.34653 0.07191 0.04911 0.0
H283 H 0.34274 0.04093 0.07924 0.0
H284 H 0.39714 0.04254 0.03385 0.0
H285 H 0.34906 0.25352 0.02163 0.0
H286 H 0.35643 0.23091 0.04295 0.0
H287 H 0.33983 0.17945 0.03246 0.0
C288 C 0.38462 0.10454 0.08126 0.0
C289 C 0.3689 0.07354 0.08702 0.0
C290 C 0.38675 0.1223 0.06395 0.0
C291 C 0.37312 0.11037 0.05212 0.0
C292 C 0.35711 0.08285 0.05802 0.0
H293 H 0.35986 0.06649 0.94317 0.0
H294 H 0.3561 0.08548 0.97399 0.0
C295 C 0.35501 0.06475 0.07528 0.0
C296 C 0.3763 0.11828 0.0334 0.0
H297 H 0.36046 0.19464 0.99692 0.0
C298 C 0.38932 0.07664 0.0258 0.0
C299 C 0.36593 0.16212 0.02289 0.0
C300 C 0.35213 0.20954 0.03039 0.0
C301 C 0.39183 0.07562 1.00796 0.0
C302 C 0.38135 0.11898 0.99739 0.0
C303 C 0.36853 0.16165 1.00501 0.0
C304 C 0.38302 0.11777 0.97836 0.0
C305 C 0.40515 0.02557 1.00057 0.0
C306 C 0.39916 0.13276 0.9704 0.0
C307 C 0.4014 0.12142 0.95281 0.0
C308 C 0.38744 0.09585 0.94276 0.0
C309 C 0.37089 0.08613 0.95052 0.0
C310 C 0.36873 0.09686 0.96816 0.0
H311 H 0.40875 0.9841 1.00987 0.0
H312 H 0.40005 0.00046 0.98875 0.0
H313 H 0.41732 0.05451 0.99724 0.0
H314 H 0.41026 0.15075 0.97792 0.0
H315 H 0.41427 0.13016 0.94722 0.0
H316 H 0.69407 0.91481 0.94352 0.0
H317 H 0.6934 0.88897 0.97425 0.0
H318 H 0.63689 0.86961 0.97213 0.0
H319 H 0.63749 0.89329 0.94144 0.0
H320 H 0.67843 0.96728 0.99799 0.0
H321 H 0.64816 0.70634 1.00189 0.0
H322 H 0.65655 0.74144 0.98201 0.0
H323 H 0.63483 0.76423 0.98941 0.0
C324 C 0.68154 0.90331 0.9495 0.0
C325 C 0.66584 0.90613 0.93995 0.0
C326 C 0.68117 0.8887 0.96711 0.0
C327 C 0.66512 0.87642 0.97556 0.0
C328 C 0.6495 0.87695 0.96592 0.0
H329 H 0.62007 0.9205 0.07391 0.0
H330 H 0.62771 0.89477 0.04416 0.0
C331 C 0.64986 0.89104 0.94831 0.0
C332 C 0.66442 0.87068 0.99463 0.0
H333 H 0.64604 0.77749 0.02747 0.0
C334 C 0.67169 0.92493 1.00444 0.0
C335 C 0.65561 0.81549 1.00313 0.0
C336 C 0.64852 0.75327 0.99355 0.0
C337 C 0.66957 0.9275 0.02234 0.0
C338 C 0.66004 0.87407 0.03072 0.0
C339 C 0.65333 0.81844 0.02103 0.0
C340 C 0.65541 0.87925 0.04919 0.0
C341 C 0.67673 0.9893 0.03207 0.0
C342 C 0.66836 0.8765 0.06204 0.0
C343 C 0.664 0.89081 0.07918 0.0
C344 C 0.64664 0.90858 0.08367 0.0
C345 C 0.63358 0.90737 0.07088 0.0
C346 C 0.63791 0.89256 0.05385 0.0
H347 H 0.68166 0.03084 0.02339 0.0
H348 H 0.66641 0.01173 0.04051 0.0
H349 H 0.68778 0.97213 0.04035 0.0
H350 H 0.68192 0.86567 0.05873 0.0
H351 H 0.67436 0.89156 0.08872 0.0
H352 H 0.89345 0.38407 0.59132 0.0
H353 H 0.89414 0.36627 0.56027 0.0
H354 H 0.83844 0.4069 0.55754 0.0
H355 H 0.83764 0.42596 0.58855 0.0
H356 H 0.87585 0.28276 0.5353 0.0
H357 H 0.86102 0.56557 0.52952 0.0
H358 H 0.86715 0.52594 0.54961 0.0
H359 H 0.84522 0.51534 0.5414 0.0
C360 C 0.88124 0.38766 0.58421 0.0
C361 C 0.86554 0.40765 0.59242 0.0
C362 C 0.88167 0.37737 0.56643 0.0
C363 C 0.86641 0.38667 0.55655 0.0
C364 C 0.85043 0.4007 0.56489 0.0
H365 H 0.86311 0.37012 0.44293 0.0
H366 H 0.85716 0.34043 0.47313 0.0
C367 C 0.85 0.41134 0.58264 0.0
C368 C 0.86769 0.38973 0.53753 0.0
H369 H 0.86513 0.50348 0.50394 0.0
C370 C 0.87332 0.33072 0.52839 0.0
C371 C 0.8646 0.45269 0.52857 0.0
C372 C 0.8593 0.51874 0.53773 0.0
C373 C 0.87613 0.33339 0.51053 0.0
C374 C 0.8732 0.39655 0.50167 0.0
C375 C 0.86724 0.45497 0.51077 0.0
C376 C 0.87784 0.40605 0.48332 0.0
C377 C 0.88288 0.26978 0.50131 0.0
C378 C 0.89154 0.45179 0.47907 0.0
C379 C 0.8949 0.46882 0.462 0.0
C380 C 0.88459 0.44073 0.44871 0.0
C381 C 0.87132 0.39237 0.45287 0.0
C382 C 0.86793 0.37534 0.4701 0.0
H383 H 0.88622 0.22692 0.51031 0.0
H384 H 0.87267 0.25077 0.49227 0.0
H385 H 0.89474 0.28322 0.49368 0.0
H386 H 0.89936 0.476 0.48905 0.0
H387 H 0.90531 0.5058 0.45929 0.0
H388 H 0.19303 0.56491 0.58072 0.0
H389 H 0.19094 0.59406 0.55029 0.0
H390 H 0.13465 0.61485 0.55516 0.0
H391 H 0.13671 0.58782 0.58571 0.0
H392 H 0.17469 0.51511 0.52769 0.0
H393 H 0.14487 0.77723 0.52449 0.0
H394 H 0.15399 0.74232 0.54407 0.0
H395 H 0.13206 0.71892 0.53742 0.0
C396 C 0.18025 0.57759 0.57542 0.0
C397 C 0.16503 0.5739 0.58566 0.0
C398 C 0.17907 0.59413 0.55799 0.0
C399 C 0.16266 0.60718 0.55036 0.0
C400 C 0.14752 0.60672 0.56074 0.0
H401 H 0.11747 0.57128 0.45091 0.0
H402 H 0.12441 0.5961 0.48087 0.0
C403 C 0.14871 0.59089 0.57825 0.0
C404 C 0.16117 0.61254 0.53133 0.0
H405 H 0.14295 0.7077 0.49878 0.0
C406 C 0.16804 0.55796 0.52137 0.0
C407 C 0.15242 0.66822 0.52302 0.0
C408 C 0.14558 0.7303 0.53281 0.0
C409 C 0.1658 0.55603 0.5035 0.0
C410 C 0.1566 0.61058 0.49526 0.0
C411 C 0.15006 0.66604 0.50512 0.0
C412 C 0.15239 0.60726 0.47666 0.0
C413 C 0.17261 0.49391 0.49366 0.0
C414 C 0.16575 0.60813 0.46419 0.0
C415 C 0.16182 0.5941 0.44696 0.0
C416 C 0.14446 0.57871 0.44196 0.0
C417 C 0.131 0.58244 0.45433 0.0
C418 C 0.13493 0.59678 0.47148 0.0
H419 H 0.17672 0.45081 0.50228 0.0
H420 H 0.1624 0.47394 0.48472 0.0
H421 H 0.18419 0.50986 0.48592 0.0
H422 H 0.17931 0.6169 0.4679 0.0
H423 H 0.17249 0.59158 0.43777 0.0
H424 H 0.83801 0.59459 0.94761 0.0
H425 H 0.83992 0.61979 0.97827 0.0
H426 H 0.89659 0.62005 0.97491 0.0
H427 H 0.89476 0.59704 0.94418 0.0
H428 H 0.85342 0.5339 1.0009 0.0
H429 H 0.88965 0.78243 1.00621 0.0
H430 H 0.88025 0.75288 0.98623 0.0
H431 H 0.90138 0.72113 0.9932 0.0
C432 C 0.85088 0.60193 0.9533 0.0
C433 C 0.86623 0.59367 0.94341 0.0
C434 C 0.85196 0.61621 0.97087 0.0
C435 C 0.86839 0.62245 0.97898 0.0
C436 C 0.88373 0.61731 0.96897 0.0
H437 H 0.91241 0.55205 0.07693 0.0
H438 H 0.90554 0.58446 0.04742 0.0
C439 C 0.88267 0.60373 0.95135 0.0
C440 C 0.86952 0.62559 0.99805 0.0
H441 H 0.88998 0.70855 0.03137 0.0
C442 C 0.86111 0.57304 1.00757 0.0
C443 C 0.87959 0.67649 1.00683 0.0
C444 C 0.88807 0.73679 0.99758 0.0
C445 C 0.86317 0.56794 0.02543 0.0
C446 C 0.87382 0.61708 0.03409 0.0
C447 C 0.88179 0.671 0.02471 0.0
C448 C 0.87825 0.60851 0.05252 0.0
C449 C 0.85468 0.50782 0.03479 0.0
C450 C 0.86532 0.61381 0.06536 0.0
C451 C 0.86924 0.59555 0.08237 0.0
C452 C 0.88612 0.57127 0.08672 0.0
C453 C 0.89924 0.57007 0.07399 0.0
C454 C 0.89537 0.58877 0.0571 0.0
H455 H 0.84899 0.46875 0.02585 0.0
H456 H 0.86442 0.48139 0.04317 0.0
H457 H 0.84394 0.52779 0.04308 0.0
H458 H 0.85206 0.62958 0.0621 0.0
H459 H 0.85884 0.59689 0.09186 0.0
H460 H 0.16814 0.36322 0.08704 0.0
H461 H 0.17409 0.33127 0.05697 0.0
H462 H 0.13095 0.46042 0.0405 0.0
H463 H 0.1249 0.49227 0.07017 0.0
H464 H 0.14557 0.2822 0.02699 0.0
H465 H 0.18195 0.53202 0.01936 0.0
H466 H 0.17984 0.48854 0.03982 0.0
H467 H 0.16149 0.53502 0.031 0.0
C468 C 0.15972 0.3836 0.07702 0.0
C469 C 0.14614 0.43075 0.081 0.0
C470 C 0.16314 0.36535 0.05988 0.0
C471 C 0.15299 0.39384 0.04657 0.0
C472 C 0.13894 0.43801 0.0506 0.0
H473 H 0.13631 0.37807 0.93858 0.0
H474 H 0.13535 0.35702 0.96945 0.0
C475 C 0.13555 0.45627 0.0676 0.0
C476 C 0.15774 0.38328 0.02831 0.0
H477 H 0.17459 0.47119 0.99402 0.0
C478 C 0.15217 0.32285 0.01977 0.0
C479 C 0.16642 0.43625 0.019 0.0
C480 C 0.17291 0.5016 0.0277 0.0
C481 C 0.1545 0.31526 1.00193 0.0
C482 C 0.16235 0.37007 0.99244 0.0
C483 C 0.16856 0.42911 1.00121 0.0
C484 C 0.16337 0.37008 0.97335 0.0
C485 C 0.14845 0.24889 0.99344 0.0
C486 C 0.17945 0.38368 0.96511 0.0
C487 C 0.18002 0.39654 0.94745 0.0
C488 C 0.16449 0.39626 0.93762 0.0
C489 C 0.14855 0.37828 0.9457 0.0
C490 C 0.14799 0.36585 0.9634 0.0
H491 H 0.14839 0.20471 1.00265 0.0
H492 H 0.13479 0.25592 0.98872 0.0
H493 H 0.15696 0.23518 0.98237 0.0
H494 H 0.1915 0.38735 0.97248 0.0
H495 H 0.19252 0.41001 0.94166 0.0
H496 H 0.59009 0.89195 0.39877 0.0
H497 H 0.55776 0.88945 0.3999 0.0
H498 H 0.55604 0.10013 0.38083 0.0
H499 H 0.58802 0.10272 0.37937 0.0
H500 H 0.53519 0.97498 0.41846 0.0
H501 H 0.522 0.002 0.34888 0.0
H502 H 0.54343 0.97961 0.35718 0.0
H503 H 0.53619 0.0688 0.35713 0.0
C504 C 0.5828 0.93743 0.39466 0.0
C505 C 0.59167 -0.00266 0.38889 0.0
C506 C 0.56434 0.93601 0.39535 0.0
C507 C 0.55446 -0.00577 0.39017 0.0
C508 C 0.56332 0.05401 0.3845 0.0
H509 H 0.44254 0.10189 0.38907 0.0
H510 H 0.47489 0.10607 0.38831 0.0
C511 C 0.58167 0.05545 0.38378 0.0
C512 C 0.53492 -0.00603 0.39125 0.0
H513 H 0.49755 0.01846 0.36758 0.0
C514 C 0.52696 0.98398 0.40732 0.0
C515 C 0.52417 0.00619 0.37672 0.0
C516 C 0.53185 0.0141 0.35897 0.0
C517 C 0.50858 0.98697 0.40929 0.0
C518 C 0.49787 -0.0005 0.39478 0.0
C519 C 0.50581 0.00955 0.37872 0.0
C520 C 0.47836 -0.00154 0.39583 0.0
C521 C 0.50078 0.97774 0.42694 0.0
C522 C 0.46963 0.93663 0.40019 0.0
C523 C 0.45128 0.93404 0.40056 0.0
C524 C 0.44118 -0.00673 0.39655 0.0
C525 C 0.44992 0.05551 0.3923 0.0
C526 C 0.46838 0.05791 0.39182 0.0
H527 H 0.51069 0.98674 0.43718 0.0
H528 H 0.48956 0.01385 0.42896 0.0
H529 H 0.4958 0.92365 0.42827 0.0
H530 H 0.47704 0.88985 0.40304 0.0
H531 H 0.44502 0.88516 0.40388 0.0
H532 H 0.44169 0.88061 0.13776 0.0
H533 H 0.47404 0.87575 0.1386 0.0
H534 H 0.47654 0.09596 0.12805 0.0
H535 H 0.44456 0.10153 0.12742 0.0
H536 H 0.49946 0.91216 0.11382 0.0
H537 H 0.50594 0.07876 0.17155 0.0
H538 H 0.48527 0.04042 0.16513 0.0
H539 H 0.4932 0.11811 0.15478 0.0
C540 C 0.44916 0.92786 0.13557 0.0
C541 C 0.44052 0.99154 0.1327 0.0
C542 C 0.46762 0.92506 0.13608 0.0
C543 C 0.4777 0.98586 0.13377 0.0
C544 C 0.46907 0.04878 0.13032 0.0
H545 H 0.58962 0.08987 0.13119 0.0
H546 H 0.55731 0.09222 0.12952 0.0
C547 C 0.45073 0.05169 0.12987 0.0
C548 C 0.49723 0.98421 0.13485 0.0
H549 H 0.53226 0.05599 0.15598 0.0
C550 C 0.50663 0.94317 0.12311 0.0
C551 C 0.50659 0.02497 0.14695 0.0
C552 C 0.49725 0.06756 0.16043 0.0
C553 C 0.52514 0.94293 0.12292 0.0
C554 C 0.53447 0.98413 0.13493 0.0
C555 C 0.52508 0.02495 0.1467 0.0
C556 C 0.55399 0.98331 0.13592 0.0
C557 C 0.53457 0.89959 0.10966 0.0
C558 C 0.56278 0.9218 0.14038 0.0
C559 C 0.58112 0.9204 0.14141 0.0
C560 C 0.59114 0.9806 0.13805 0.0
C561 C 0.58231 0.04261 0.13381 0.0
C562 C 0.56387 0.044 0.13285 0.0
H563 H 0.52578 0.88546 0.09881 0.0
H564 H 0.5462 0.92773 0.10452 0.0
H565 H 0.53923 0.85065 0.1157 0.0
H566 H 0.55542 0.87476 0.14315 0.0
H567 H 0.58742 0.87174 0.14479 0.0
H568 H 0.58962 0.09551 0.6392 0.0
H569 H 0.5576 0.0921 0.6392 0.0
H570 H 0.55888 0.86806 0.63569 0.0
H571 H 0.59122 0.87087 0.63588 0.0
H572 H 0.53489 0.04066 0.61451 0.0
H573 H 0.52591 0.90229 0.67647 0.0
H574 H 0.54667 0.94021 0.67015 0.0
H575 H 0.53975 0.85832 0.66125 0.0
C576 C 0.58317 0.04525 0.63848 0.0
C577 C 0.59306 0.98333 0.63761 0.0
C578 C 0.56481 0.04353 0.63845 0.0
C579 C 0.55579 0.9799 0.63764 0.0
C580 C 0.56555 0.91778 0.63663 0.0
H581 H 0.44552 0.86933 0.63638 0.0
H582 H 0.47753 0.87291 0.63588 0.0
C583 C 0.58403 0.91943 0.63665 0.0
C584 C 0.5362 0.97954 0.63762 0.0
H585 H 0.50024 0.92454 0.66022 0.0
C586 C 0.5273 0.01536 0.62452 0.0
C587 C 0.52631 0.94684 0.65073 0.0
C588 C 0.5351 0.91022 0.66555 0.0
C589 C 0.50881 0.01829 0.62398 0.0
C590 C 0.49892 0.98556 0.63709 0.0
C591 C 0.50782 0.94979 0.6502 0.0
C592 C 0.47932 0.98519 0.6371 0.0
C593 C 0.50003 0.05492 0.60917 0.0
C594 C 0.46956 0.04732 0.63803 0.0
C595 C 0.45107 0.04556 0.63828 0.0
C596 C 0.44206 0.98155 0.63771 0.0
C597 C 0.45195 0.91966 0.63683 0.0
C598 C 0.47032 0.92149 0.63657 0.0
H599 H 0.50919 0.06247 0.59821 0.0
H600 H 0.48839 0.02518 0.60462 0.0
H601 H 0.49549 0.10701 0.61344 0.0
H602 H 0.47622 0.0971 0.63878 0.0
H603 H 0.44388 0.09411 0.63905 0.0
H604 H 0.58851 0.09293 0.88552 0.0
H605 H 0.55617 0.09626 0.88427 0.0
H606 H 0.55368 0.89942 0.91076 0.0
H607 H 0.58572 0.89569 0.91209 0.0
H608 H 0.53429 0.99043 0.8684 0.0
H609 H 0.51871 0.02371 0.93748 0.0
H610 H 0.54008 0.04379 0.9286 0.0
H611 H 0.534 0.95496 0.9328 0.0
C612 C 0.58105 0.05096 0.8913 0.0
C613 C 0.5897 -0.00589 0.89891 0.0
C614 C 0.56259 0.05278 0.89052 0.0
C615 C 0.55252 -0.0016 0.89758 0.0
C616 C 0.56115 0.94246 0.90547 0.0
H617 H 0.44064 0.89427 0.90371 0.0
H618 H 0.47292 0.89364 0.90572 0.0
C619 C 0.57951 0.94032 0.90613 0.0
C620 C 0.53303 -0.00248 0.89591 0.0
H621 H 0.4949 -0.00599 0.91915 0.0
C622 C 0.52566 0.99181 0.87947 0.0
C623 C 0.52181 -0.00169 0.91039 0.0
C624 C 0.52899 0.0061 0.92832 0.0
C625 C 0.50737 0.98569 0.87713 0.0
C626 C 0.4961 0.98696 0.89161 0.0
C627 C 0.50351 -0.0073 0.90806 0.0
C628 C 0.47658 0.98527 0.88993 0.0
C629 C 0.50036 0.97611 0.85918 0.0
C630 C 0.4679 0.03703 0.88049 0.0
C631 C 0.44957 0.03723 0.87924 0.0
C632 C 0.43939 0.9861 0.88758 0.0
C633 C 0.44807 0.93414 0.89706 0.0
C634 C 0.46651 0.93387 0.89826 0.0
H635 H 0.51056 0.95459 0.85045 0.0
H636 H 0.48878 0.94082 0.85904 0.0
H637 H 0.49626 0.02743 0.85401 0.0
H638 H 0.4753 0.07823 0.87431 0.0
H639 H 0.44338 0.07843 0.87193 0.0
H640 H 0.94482 0.37729 0.404 0.0
H641 H 0.97682 0.38169 0.40269 0.0
H642 H 0.97448 0.59733 0.38737 0.0
H643 H 0.94221 0.59376 0.38902 0.0
H644 H 0.9975 0.40693 0.37518 0.0
H645 H 1.01046 0.60393 0.42572 0.0
H646 H 0.98926 0.5629 0.42308 0.0
H647 H 0.99577 0.63318 0.40921 0.0
C648 C 0.95106 0.42599 0.40047 0.0
C649 C 0.94093 0.48529 0.39663 0.0
C650 C 0.9694 0.42831 0.39971 0.0
C651 C 0.97811 0.48992 0.3951 0.0
C652 C 0.96807 0.54953 0.39131 0.0
H653 H 0.08708 0.59333 0.37624 0.0
H654 H 0.05511 0.58917 0.37838 0.0
C655 C 0.94963 0.54737 0.39217 0.0
C656 C 0.99764 0.49025 0.39369 0.0
H657 H 0.03493 0.56819 0.40895 0.0
C658 C 1.00569 0.442 0.38263 0.0
C659 C 1.00832 0.53586 0.40344 0.0
C660 C 1.00056 0.58648 0.41616 0.0
C661 C 0.02407 0.43885 0.38086 0.0
C662 C 0.03472 0.4847 0.39053 0.0
C663 C 0.02671 0.53299 0.40157 0.0
C664 C 0.05419 0.48514 0.38894 0.0
C665 C 0.03196 0.38758 0.36838 0.0
C666 C 0.06435 0.4278 0.39417 0.0
C667 C 0.08277 0.42994 0.39299 0.0
C668 C 0.0913 0.48954 0.38656 0.0
C669 C 0.081 0.54648 0.38123 0.0
C670 C 0.06268 0.54437 0.38247 0.0
H671 H 0.02195 0.36602 0.35945 0.0
H672 H 0.04258 0.41252 0.36074 0.0
H673 H 0.03785 0.34362 0.37561 0.0
H674 H 0.05805 0.38185 0.3994 0.0
H675 H 0.09031 0.3854 0.39728 0.0
H676 H 0.09005 0.59312 0.1365 0.0
H677 H 0.05773 0.59789 0.13719 0.0
H678 H 0.05543 0.37365 0.13535 0.0
H679 H 0.08745 0.3683 0.13457 0.0
H680 H 0.03233 0.4413 0.11208 0.0
H681 H 0.02609 0.54395 0.17848 0.0
H682 H 0.04017 0.59286 0.16439 0.0
H683 H 0.04621 0.50593 0.17049 0.0
C684 C 0.08264 0.54491 0.13626 0.0
C685 C 0.09136 0.48038 0.13555 0.0
C686 C 0.0642 0.54767 0.13674 0.0
C687 C 0.05419 0.48602 0.13651 0.0
C688 C 0.06287 0.42181 0.13559 0.0
H689 H 0.94187 0.37999 0.13601 0.0
H690 H 0.97415 0.37509 0.13501 0.0
C691 C 0.08122 0.41896 0.13517 0.0
C692 C 0.03466 0.48771 0.1371 0.0
H693 H 0.99982 0.53079 0.16263 0.0
C694 C 0.02519 0.46083 0.12312 0.0
C695 C 0.02541 0.51295 0.15155 0.0
C696 C 0.03493 0.5401 0.16717 0.0
C697 C 1.00669 0.45971 0.12306 0.0
C698 C 0.99741 0.48466 0.13756 0.0
C699 C 1.00692 0.51144 0.15155 0.0
C700 C 0.97785 0.4862 0.13826 0.0
C701 C 0.99727 0.43352 0.10729 0.0
C702 C 0.9692 0.54976 0.14089 0.0
C703 C 0.95086 0.55252 0.14168 0.0
C704 C 0.94067 0.4917 0.13986 0.0
C705 C 0.94932 0.42779 0.13735 0.0
C706 C 0.96776 0.42503 0.13666 0.0
H707 H 1.00599 0.43365 0.09585 0.0
H708 H 0.99286 0.37916 0.10952 0.0
H709 H 0.9855 0.46573 0.10445 0.0
H710 H 0.97666 0.5976 0.14221 0.0
H711 H 0.94469 0.60272 0.14362 0.0
H712 H 0.94486 0.37735 0.64114 0.0
H713 H 0.97682 0.37979 0.63908 0.0
H714 H 0.97533 0.60082 0.62944 0.0
H715 H 0.94307 0.59908 0.63171 0.0
H716 H 0.99814 0.41916 0.61188 0.0
H717 H 1.01052 0.5845 0.66909 0.0
H718 H 0.98945 0.54438 0.66496 0.0
H719 H 0.99584 0.6216 0.65352 0.0
C720 C 0.95125 0.42676 0.63863 0.0
C721 C 0.94134 0.48819 0.63667 0.0
C722 C 0.96958 0.42791 0.63741 0.0
C723 C 0.97853 0.4905 0.6343 0.0
C724 C 0.96873 0.55204 0.63216 0.0
H725 H 0.08862 0.59812 0.62558 0.0
H726 H 0.05662 0.59443 0.62579 0.0
C727 C 0.95029 0.55096 0.63337 0.0
C728 C 0.9981 0.49041 0.6332 0.0
H729 H 0.03523 0.55442 0.65223 0.0
C730 C 1.00626 0.44869 0.62071 0.0
C731 C 1.0087 0.5286 0.64479 0.0
C732 C 1.00074 0.57187 0.65896 0.0
C733 C 0.0247 0.44514 0.61928 0.0
C734 C 0.0353 0.48337 0.63086 0.0
C735 C 0.02712 0.52501 0.64337 0.0
C736 C 0.05488 0.48328 0.62991 0.0
C737 C 0.03266 0.40182 0.60513 0.0
C738 C 0.0647 0.42175 0.63207 0.0
C739 C 0.08319 0.42356 0.63188 0.0
C740 C 0.09215 0.48708 0.62969 0.0
C741 C 0.08222 0.54822 0.62736 0.0
C742 C 0.06386 0.54632 0.62749 0.0
H743 H 0.02293 0.38986 0.59491 0.0
H744 H 0.04409 0.42887 0.59925 0.0
H745 H 0.03735 0.35173 0.61055 0.0
H746 H 0.05808 0.37259 0.63428 0.0
H747 H 0.09043 0.37566 0.63384 0.0
H748 H 0.0881 0.59873 0.89599 0.0
H749 H 0.05579 0.60399 0.89756 0.0
H750 H 0.0534 0.3797 0.89855 0.0
H751 H 0.08535 0.3739 0.89717 0.0
H752 H 0.03149 0.5455 0.87409 0.0
H753 H 0.02202 0.43353 0.93899 0.0
H754 H 0.043 0.46624 0.93166 0.0
H755 H 0.03556 0.38124 0.92522 0.0
C756 C 0.08068 0.55065 0.89673 0.0
C757 C 0.08936 0.48596 0.8965 0.0
C758 C 0.06223 0.55368 0.89759 0.0
C759 C 0.05217 0.4922 0.89844 0.0
C760 C 0.06084 0.42782 0.89828 0.0
H761 H 0.93976 0.3894 0.89757 0.0
H762 H 0.97213 0.38426 0.89793 0.0
C763 C 0.07918 0.42472 0.89737 0.0
C764 C 0.0326 0.49453 0.89864 0.0
H765 H 0.99644 0.44274 0.92149 0.0
C766 C 0.02383 0.52359 0.88452 0.0
C767 C 0.02259 0.46516 0.91216 0.0
C768 C 0.03124 0.43531 0.92794 0.0
C769 C 1.00536 0.52305 0.88341 0.0
C770 C 0.99534 0.49384 0.89695 0.0
C771 C 1.00411 0.46473 0.91107 0.0
C772 C 0.97576 0.49604 0.897 0.0
C773 C 0.99675 0.55246 0.86754 0.0
C774 C 0.96708 0.56037 0.89672 0.0
C775 C 0.94873 0.56341 0.89648 0.0
C776 C 0.93852 0.50213 0.89667 0.0
C777 C 0.94721 0.43751 0.89735 0.0
C778 C 0.96569 0.43454 0.89756 0.0
H779 H 1.00601 0.55387 0.85651 0.0
H780 H 0.98501 0.52146 0.86385 0.0
H781 H 0.99245 0.60664 0.87016 0.0
H782 H 0.97452 0.60853 0.89671 0.0
H783 H 0.94256 0.61421 0.89613 0.0
H784 H 0.21449 0.4694 0.41301 0.0
H785 H 0.24239 0.40689 0.41383 0.0
H786 H 0.21766 0.22769 0.39079 0.0
H787 H 0.18945 0.29035 0.38987 0.0
H788 H 0.25088 0.27601 0.42963 0.0
H789 H 0.26038 0.27551 0.35887 0.0
H790 H 0.24487 0.33242 0.36942 0.0
H791 H 0.23973 0.24191 0.36657 0.0
C792 C 0.21489 0.41653 0.40817 0.0
C793 C 0.19975 0.38495 0.40127 0.0
C794 C 0.23088 0.38089 0.40868 0.0
C795 C 0.23215 0.3131 0.40216 0.0
C796 C 0.21698 0.28043 0.39567 0.0
H797 H 0.31735 0.0202 0.41292 0.0
H798 H 0.28962 0.08379 0.41377 0.0
C799 C 0.20087 0.31603 0.39527 0.0
C800 C 0.24949 0.27763 0.40207 0.0
H801 H 0.28192 0.21779 0.3755 0.0
C802 C 0.25765 0.2631 0.41781 0.0
C803 C 0.25842 0.26205 0.38661 0.0
C804 C 0.25053 0.27912 0.36937 0.0
C805 C 0.2744 0.2323 0.41851 0.0
C806 C 0.28317 0.2154 0.40307 0.0
C807 C 0.27514 0.23087 0.38732 0.0
C808 C 0.30032 0.17861 0.40304 0.0
C809 C 0.28267 0.21855 0.43577 0.0
C810 C 0.31559 0.21083 0.39663 0.0
C811 C 0.33161 0.17456 0.39618 0.0
C812 C 0.33249 0.10519 0.40191 0.0
C813 C 0.31716 0.07355 0.4084 0.0
C814 C 0.30127 0.10986 0.40896 0.0
H815 H 0.2762 0.24889 0.44613 0.0
H816 H 0.28137 0.16239 0.43889 0.0
H817 H 0.29691 0.23161 0.43558 0.0
H818 H 0.31507 0.26387 0.39192 0.0
H819 H 0.34315 0.20017 0.39101 0.0
H820 H 0.7174 0.9772 0.39838 0.0
H821 H 0.74479 0.91182 0.39943 0.0
H822 H 0.71562 0.71907 0.39922 0.0
H823 H 0.68787 0.78459 0.39791 0.0
H824 H 0.75694 0.81739 0.42354 0.0
H825 H 0.7503 0.69445 0.35934 0.0
H826 H 0.7367 0.76637 0.36612 0.0
H827 H 0.73213 0.67976 0.37365 0.0
C828 C 0.71671 0.92086 0.39854 0.0
C829 C 0.70039 0.88611 0.39795 0.0
C830 C 0.73244 0.88358 0.39918 0.0
C831 C 0.73229 0.81062 0.39918 0.0
C832 C 0.71605 0.77544 0.39892 0.0
H833 H 0.81506 0.50281 0.39929 0.0
H834 H 0.78744 0.56668 0.40015 0.0
C835 C 0.70021 0.81288 0.39828 0.0
C836 C 0.74925 0.77222 0.3994 0.0
H837 H 0.77482 0.66094 0.37603 0.0
C838 C 0.76087 0.78316 0.41316 0.0
C839 C 0.75439 0.72799 0.38578 0.0
C840 C 0.74283 0.71671 0.37029 0.0
C841 C 0.77737 0.75023 0.4138 0.0
C842 C 0.7825 0.70604 0.40018 0.0
C843 C 0.77087 0.69501 0.38644 0.0
C844 C 0.79959 0.66854 0.40018 0.0
C845 C 0.78901 0.76183 0.42921 0.0
C846 C 0.8157 0.70464 0.39988 0.0
C847 C 0.83168 0.66806 0.39941 0.0
C848 C 0.83175 0.59482 0.39914 0.0
C849 C 0.81556 0.55918 0.39949 0.0
C850 C 0.79969 0.5956 0.39996 0.0
H851 H 0.78158 0.78399 0.4402 0.0
H852 H 0.79525 0.71232 0.43334 0.0
H853 H 0.79964 0.79897 0.42577 0.0
H854 H 0.81592 0.76103 0.39976 0.0
H855 H 0.84391 0.69703 0.39906 0.0
H856 H 0.18853 0.68801 0.13961 0.0
H857 H 0.21654 0.75185 0.14112 0.0
H858 H 0.24194 0.58893 0.11225 0.0
H859 H 0.21421 0.52545 0.11058 0.0
H860 H 0.24796 0.69833 0.15619 0.0
H861 H 0.25843 0.76693 0.0878 0.0
H862 H 0.23719 0.74187 0.09618 0.0
H863 H 0.25346 0.6767 0.09149 0.0
C864 C 0.20002 0.66652 0.13332 0.0
C865 C 0.19913 0.60168 0.12497 0.0
C866 C 0.21601 0.70286 0.13425 0.0
C867 C 0.23129 0.67544 0.12664 0.0
C868 C 0.23029 0.61169 0.11795 0.0
H869 H 0.34244 0.79504 0.1238 0.0
H870 H 0.31432 0.73269 0.12079 0.0
C871 C 0.2144 0.57527 0.1171 0.0
C872 C 0.24857 0.71059 0.12876 0.0
H873 H 0.28286 0.7821 0.10649 0.0
C874 C 0.25554 0.71717 0.14534 0.0
C875 C 0.25854 0.7342 0.11456 0.0
C876 C 0.2515 0.73021 0.0965 0.0
C877 C 0.27231 0.7459 0.14811 0.0
C878 C 0.28224 0.77005 0.13394 0.0
C879 C 0.27529 0.76325 0.11733 0.0
C880 C 0.29944 0.80578 0.13616 0.0
C881 C 0.27938 0.74881 0.16618 0.0
C882 C 0.30038 0.86757 0.14568 0.0
C883 C 0.31633 0.90291 0.14746 0.0
C884 C 0.33175 0.8777 0.13961 0.0
C885 C 0.33084 0.81561 0.13008 0.0
C886 C 0.31478 0.78011 0.12831 0.0
H887 H 0.27279 0.7101 0.17462 0.0
H888 H 0.29378 0.73913 0.16645 0.0
H889 H 0.27689 0.80132 0.17161 0.0
H890 H 0.28868 0.88924 0.15154 0.0
H891 H 0.31647 0.95071 0.15483 0.0
H892 H 0.71593 0.00644 0.12103 0.0
H893 H 0.7436 0.07041 0.12116 0.0
H894 H 0.71617 0.2578 0.13566 0.0
H895 H 0.6881 0.19382 0.13541 0.0
H896 H 0.74219 0.27621 0.10945 0.0
H897 H 0.76896 0.13105 0.16517 0.0
H898 H 0.76139 0.07648 0.14799 0.0
H899 H 0.74592 0.12949 0.15955 0.0
C900 C 0.71568 0.06133 0.12422 0.0
C901 C 0.69978 0.09488 0.12838 0.0
C902 C 0.73158 0.09773 0.12436 0.0
C903 C 0.73201 0.16842 0.12879 0.0
C904 C 0.71612 0.203 0.13235 0.0
H905 H 0.8147 0.47394 0.14052 0.0
H906 H 0.78704 0.41085 0.13809 0.0
C907 C 0.70011 0.16648 0.13218 0.0
C908 C 0.74914 0.20552 0.12975 0.0
H909 H 0.78892 0.20431 0.15022 0.0
C910 C 0.75238 0.26082 0.11842 0.0
C911 C 0.76246 0.18498 0.14139 0.0
C912 C 0.75951 0.12767 0.15433 0.0
C913 C 0.76869 0.29544 0.11823 0.0
C914 C 0.782 0.27498 0.1299 0.0
C915 C 0.77876 0.21959 0.1412 0.0
C916 C 0.79903 0.3127 0.13117 0.0
C917 C 0.77163 0.3528 0.10531 0.0
C918 C 0.81511 0.278 0.1286 0.0
C919 C 0.83112 0.31403 0.13011 0.0
C920 C 0.83128 0.38524 0.13434 0.0
C921 C 0.81512 0.4193 0.1371 0.0
C922 C 0.79923 0.38341 0.13561 0.0
H923 H 0.76245 0.34831 0.09427 0.0
H924 H 0.76926 0.40387 0.11155 0.0
H925 H 0.78535 0.35222 0.10039 0.0
H926 H 0.81526 0.22318 0.12533 0.0
H927 H 0.84332 0.28624 0.12797 0.0
H928 H 0.7007 0.81738 0.59761 0.0
H929 H 0.73075 0.77347 0.60072 0.0
H930 H 0.72563 0.78229 0.65575 0.0
H931 H 0.6955 0.82439 0.65278 0.0
H932 H 0.75827 0.84023 0.61518 0.0
H933 H 0.74709 0.59255 0.64987 0.0
H934 H 0.72947 0.63976 0.63962 0.0
H935 H 0.7372 0.66549 0.66051 0.0
C936 C 0.70582 0.80858 0.61038 0.0
C937 C 0.6956 0.82429 0.62494 0.0
C938 C 0.72306 0.78376 0.61214 0.0
C939 C 0.73046 0.77383 0.62847 0.0
C940 C 0.72014 0.78792 0.64301 0.0
H941 H 0.83404 0.68373 0.66937 0.0
H942 H 0.80381 0.72259 0.66445 0.0
C943 C 0.70289 0.81236 0.64128 0.0
C944 C 0.74929 0.75327 0.63031 0.0
H945 H 0.77662 0.63556 0.64959 0.0
C946 C 0.76226 0.79506 0.62257 0.0
C947 C 0.75455 0.6944 0.63997 0.0
C948 C 0.74134 0.64508 0.64782 0.0
C949 C 0.78029 0.7806 0.62457 0.0
C950 C 0.78552 0.72254 0.63448 0.0
C951 C 0.77258 0.68039 0.64209 0.0
C952 C 0.80434 0.70429 0.63709 0.0
C953 C 0.79364 0.82849 0.61643 0.0
C954 C 0.81479 0.68188 0.6233 0.0
C955 C 0.8321 0.65948 0.62606 0.0
C956 C 0.83933 0.65906 0.64269 0.0
C957 C 0.82898 0.68366 0.65638 0.0
C958 C 0.81165 0.70561 0.65362 0.0
H959 H 0.78767 0.87857 0.61232 0.0
H960 H 0.80458 0.83966 0.62548 0.0
H961 H 0.79932 0.80274 0.60496 0.0
H962 H 0.80936 0.6796 0.61047 0.0
H963 H 0.83963 0.64051 0.61523 0.0
H964 H 0.2171 0.48006 0.63796 0.0
H965 H 0.24576 0.42528 0.63524 0.0
H966 H 0.22092 0.22348 0.632 0.0
H967 H 0.19184 0.27911 0.63395 0.0
H968 H 0.26183 0.34074 0.65547 0.0
H969 H 0.25431 0.20867 0.59268 0.0
H970 H 0.23848 0.27086 0.60053 0.0
H971 H 0.23812 0.18233 0.60813 0.0
C972 C 0.21765 0.42397 0.63657 0.0
C973 C 0.20216 0.3839 0.63619 0.0
C974 C 0.23412 0.39263 0.63501 0.0
C975 C 0.23564 0.32016 0.63324 0.0
C976 C 0.22017 0.27964 0.63292 0.0
H977 H 0.33594 0.11486 0.65433 0.0
H978 H 0.30643 0.16386 0.65598 0.0
C979 C 0.20354 0.31136 0.63416 0.0
C980 C 0.25353 0.28821 0.63243 0.0
H981 H 0.28028 0.18341 0.6084 0.0
C982 C 0.26583 0.30644 0.64513 0.0
C983 C 0.25894 0.24418 0.61883 0.0
C984 C 0.24684 0.22585 0.60417 0.0
C985 C 0.2833 0.28262 0.6446 0.0
C986 C 0.28856 0.2367 0.63134 0.0
C987 C 0.27627 0.21821 0.61864 0.0
C988 C 0.30673 0.20749 0.63037 0.0
C989 C 0.29603 0.30902 0.65797 0.0
C990 C 0.31672 0.21378 0.61526 0.0
C991 C 0.33357 0.18444 0.61415 0.0
C992 C 0.34085 0.14858 0.62818 0.0
C993 C 0.33091 0.14308 0.64336 0.0
C994 C 0.31398 0.1714 0.64435 0.0
H995 H 0.29169 0.35971 0.66339 0.0
H996 H 0.29668 0.27111 0.66869 0.0
H997 H 0.30945 0.31569 0.65259 0.0
H998 H 0.31144 0.24114 0.60426 0.0
H999 H 0.34081 0.18927 0.60225 0.0
H1000 H 0.69033 0.19922 0.92946 0.0
H1001 H 0.71955 0.25285 0.92736 0.0
H1002 H 0.72557 0.16857 0.87642 0.0
H1003 H 0.69625 0.11764 0.87813 0.0
H1004 H 0.75118 0.19684 0.92388 0.0
H1005 H 0.73909 0.36527 0.86757 0.0
H1006 H 0.72151 0.32116 0.87866 0.0
H1007 H 0.73453 0.27567 0.86293 0.0
C1008 C 0.69777 0.19314 0.91771 0.0
C1009 C 0.69082 0.15485 0.9039 0.0
C1010 C 0.71452 0.22349 0.91656 0.0
C1011 C 0.72472 0.21585 0.90162 0.0
C1012 C 0.71783 0.17715 0.88789 0.0
H1013 H 0.83919 0.29491 0.89722 0.0
H1014 H 0.81031 0.23783 0.89983 0.0
C1015 C 0.70102 0.14776 0.88892 0.0
C1016 C 0.74272 0.24659 0.90053 0.0
H1017 H 0.76903 0.34958 0.87565 0.0
C1018 C 0.75505 0.23065 0.91339 0.0
C1019 C 0.7478 0.29126 0.88695 0.0
C1020 C 0.73498 0.31494 0.87336 0.0
C1021 C 0.77227 0.25784 0.913 0.0
C1022 C 0.77751 0.30052 0.89908 0.0
C1023 C 0.76515 0.31631 0.88625 0.0
C1024 C 0.79527 0.33345 0.89799 0.0
C1025 C 0.78445 0.24218 0.92778 0.0
C1026 C 0.79653 0.40576 0.8957 0.0
C1027 C 0.81288 0.43787 0.89378 0.0
C1028 C 0.8285 0.39875 0.8943 0.0
C1029 C 0.82738 0.32642 0.89688 0.0
C1030 C 0.81088 0.2939 0.8985 0.0
H1031 H 0.77705 0.2259 0.93941 0.0
H1032 H 0.79334 0.1988 0.92415 0.0
H1033 H 0.79264 0.28819 0.93107 0.0
H1034 H 0.78478 0.43766 0.89531 0.0
H1035 H 0.81324 0.49379 0.89196 0.0
H1036 H 0.21324 0.53915 0.87165 0.0
H1037 H 0.241 0.59912 0.87634 0.0
H1038 H 0.215 0.74676 0.90941 0.0
H1039 H 0.18694 0.68532 0.90511 0.0
H1040 H 0.25096 0.72999 0.86912 0.0
H1041 H 0.25572 0.68474 0.93931 0.0
H1042 H 0.23981 0.64046 0.92602 0.0
H1043 H 0.23605 0.7289 0.93266 0.0
C1044 C 0.21332 0.58437 0.87995 0.0
C1045 C 0.19781 0.60714 0.88809 0.0
C1046 C 0.22927 0.61868 0.88261 0.0
C1047 C 0.23022 0.67679 0.89345 0.0
C1048 C 0.2147 0.701 0.90131 0.0
H1049 H 0.31601 0.9561 0.91817 0.0
H1050 H 0.28808 0.8937 0.91623 0.0
C1051 C 0.19864 0.66627 0.89872 0.0
C1052 C 0.2475 0.71175 0.89616 0.0
H1053 H 0.27784 0.7554 0.92674 0.0
C1054 C 0.25684 0.73534 0.88172 0.0
C1055 C 0.25524 0.71853 0.91261 0.0
C1056 C 0.24629 0.6913 0.92854 0.0
C1057 C 0.27356 0.76601 0.88327 0.0
C1058 C 0.28128 0.7727 0.89969 0.0
C1059 C 0.27193 0.74973 0.91416 0.0
C1060 C 0.29871 0.80651 0.9021 0.0
C1061 C 0.2827 0.7923 0.86735 0.0
C1062 C 0.31413 0.77712 0.89524 0.0
C1063 C 0.33023 0.81263 0.8964 0.0
C1064 C 0.33113 0.87823 0.90438 0.0
C1065 C 0.31578 0.90589 0.91184 0.0
C1066 C 0.29977 0.87027 0.91077 0.0
H1067 H 0.27358 0.79591 0.85625 0.0
H1068 H 0.2886 0.84441 0.86965 0.0
H1069 H 0.29349 0.75598 0.86389 0.0
H1070 H 0.31362 0.72742 0.88869 0.0
H1071 H 0.3418 0.78999 0.89051 0.0
H1072 H 0.38124 0.90115 0.33887 0.0
H1073 H 0.38125 0.88955 0.30743 0.0
H1074 H 0.37485 0.11169 0.30242 0.0
H1075 H 0.37501 0.12384 0.33347 0.0
H1076 H 0.35587 0.93073 0.28248 0.0
H1077 H 0.4188 0.07287 0.27361 0.0
H1078 H 0.41173 0.04021 0.2942 0.0
H1079 H 0.4028 0.1201 0.2859 0.0
C1080 C 0.37977 0.94737 0.33104 0.0
C1081 C 0.37832 0.01344 0.3387 0.0
C1082 C 0.37979 0.94072 0.3131 0.0
C1083 C 0.37844 -0.0 0.30258 0.0
C1084 C 0.37636 0.06546 0.31025 0.0
H1085 H 0.37862 0.0818 0.1922 0.0
H1086 H 0.37657 0.09191 0.22359 0.0
C1087 C 0.37637 0.07217 0.32806 0.0
C1088 C 0.37919 -0.00575 0.28358 0.0
H1089 H 0.40209 0.05041 0.24844 0.0
C1090 C 0.36604 0.95646 0.27503 0.0
C1091 C 0.39242 0.02823 0.27387 0.0
C1092 C 0.40734 0.06712 0.28234 0.0
C1093 C 0.36557 0.95283 0.25702 0.0
C1094 C 0.37875 0.98706 0.24732 0.0
C1095 C 0.39191 0.02475 0.25588 0.0
C1096 C 0.37962 0.9815 0.22833 0.0
C1097 C 0.35076 0.91344 0.24851 0.0
C1098 C 0.38227 0.91642 0.22063 0.0
C1099 C 0.38349 0.91058 0.20283 0.0
C1100 C 0.38217 0.96978 0.19225 0.0
C1101 C 0.37964 0.03522 0.19997 0.0
C1102 C 0.37847 0.04104 0.21788 0.0
H1103 H 0.33933 0.90683 0.25724 0.0
H1104 H 0.34629 0.94049 0.2367 0.0
H1105 H 0.35548 0.86084 0.24483 0.0
H1106 H 0.38359 0.87001 0.22843 0.0
H1107 H 0.38552 0.85932 0.19739 0.0
H1108 H 0.65398 0.1212 0.1956 0.0
H1109 H 0.65575 0.11144 0.22667 0.0
H1110 H 0.65628 0.88751 0.22255 0.0
H1111 H 0.65472 0.89682 0.19114 0.0
H1112 H 0.63196 0.04919 0.24828 0.0
H1113 H 0.69768 0.92584 0.25476 0.0
H1114 H 0.69032 0.96555 0.23505 0.0
H1115 H 0.68266 0.88028 0.24095 0.0
C1116 C 0.65459 0.06965 0.20121 0.0
C1117 C 0.65421 0.00969 0.19082 0.0
C1118 C 0.6556 0.06427 0.21904 0.0
C1119 C 0.65632 -0.00113 0.22698 0.0
C1120 C 0.65607 0.93864 0.2167 0.0
H1121 H 0.65474 0.86223 0.33236 0.0
H1122 H 0.656 0.8741 0.3013 0.0
C1123 C 0.65509 0.94398 0.19875 0.0
C1124 C 0.65659 -0.00537 0.24605 0.0
H1125 H 0.6808 0.93743 0.28019 0.0
C1126 C 0.64268 0.025 0.25526 0.0
C1127 C 0.6706 0.96324 0.25516 0.0
C1128 C 0.68626 0.93237 0.24602 0.0
C1129 C 0.64221 0.02369 0.27329 0.0
C1130 C 0.65619 0.99221 0.2824 0.0
C1131 C 0.67013 0.96191 0.2732 0.0
C1132 C 0.65611 0.98668 0.30144 0.0
C1133 C 0.62649 0.05428 0.2824 0.0
C1134 C 0.65606 0.04622 0.31197 0.0
C1135 C 0.65532 0.03967 0.3299 0.0
C1136 C 0.65465 0.97343 0.33758 0.0
C1137 C 0.65514 0.91415 0.32695 0.0
C1138 C 0.6559 0.92073 0.30913 0.0
H1139 H 0.61518 0.06212 0.27357 0.0
H1140 H 0.6222 0.02014 0.29311 0.0
H1141 H 0.63014 0.10569 0.28784 0.0
H1142 H 0.65653 0.09771 0.30633 0.0
H1143 H 0.65504 0.08632 0.33771 0.0
H1144 H 0.667 0.92833 0.83794 0.0
H1145 H 0.67263 0.92736 0.80687 0.0
H1146 H 0.62615 0.0515 0.79862 0.0
H1147 H 0.62063 0.05365 0.8294 0.0
H1148 H 0.65271 0.88367 0.77869 0.0
H1149 H 0.66413 0.16846 0.7757 0.0
H1150 H 0.66335 0.12125 0.7957 0.0
H1151 H 0.6433 0.14611 0.78506 0.0
C1152 C 0.6579 0.95475 0.82947 0.0
C1153 C 0.64348 0.99171 0.83617 0.0
C1154 C 0.66116 0.9544 0.81173 0.0
C1155 C 0.65007 0.99102 0.80046 0.0
C1156 C 0.63519 0.02467 0.80709 0.0
H1157 H 0.64014 0.05603 0.69094 0.0
H1158 H 0.63716 0.0569 0.72226 0.0
C1159 C 0.63198 0.02539 0.82472 0.0
C1160 C 0.65399 -0.00508 0.78178 0.0
H1161 H 0.66057 0.11008 0.74891 0.0
C1162 C 0.6546 0.93308 0.7722 0.0
C1163 C 0.65648 0.05951 0.77331 0.0
C1164 C 0.65696 0.12756 0.78298 0.0
C1165 C 0.65707 0.93424 0.75432 0.0
C1166 C 0.6592 -0.0011 0.74583 0.0
C1167 C 0.65883 0.06064 0.75543 0.0
C1168 C 0.66171 0.0033 0.72696 0.0
C1169 C 0.6569 0.86637 0.74457 0.0
C1170 C 0.6768 0.97521 0.71927 0.0
C1171 C 0.6786 0.97504 0.70142 0.0
C1172 C 0.66534 0.00298 0.69086 0.0
C1173 C 0.6506 0.03404 0.69866 0.0
C1174 C 0.64885 0.03439 0.71656 0.0
H1175 H 0.6514 0.82304 0.75236 0.0
H1176 H 0.64906 0.8713 0.73261 0.0
H1177 H 0.67057 0.85247 0.74093 0.0
H1178 H 0.68705 0.95217 0.72707 0.0
H1179 H 0.69018 0.95095 0.69589 0.0
H1180 H 0.38479 0.06387 0.83728 0.0
H1181 H 0.38382 0.0666 0.80578 0.0
H1182 H 0.35459 0.87387 0.80562 0.0
H1183 H 0.35591 0.86997 0.83682 0.0
H1184 H 0.3817 0.86747 0.78399 0.0
H1185 H 0.3447 0.11204 0.77252 0.0
H1186 H 0.36399 0.12305 0.78552 0.0
H1187 H 0.34591 0.07157 0.79337 0.0
C1188 C 0.37791 0.02282 0.8305 0.0
C1189 C 0.37046 0.96667 0.83953 0.0
C1190 C 0.37732 0.02446 0.8125 0.0
C1191 C 0.36902 0.9706 0.80328 0.0
C1192 C 0.36112 0.91587 0.81239 0.0
H1193 H 0.34024 0.96699 0.6956 0.0
H1194 H 0.34082 0.96593 0.72695 0.0
C1195 C 0.36186 0.91383 0.83026 0.0
C1196 C 0.3693 0.96832 0.78419 0.0
H1197 H 0.35701 0.05672 0.7481 0.0
C1198 C 0.37628 0.90888 0.77615 0.0
C1199 C 0.36207 0.02193 0.77393 0.0
C1200 C 0.35359 0.08548 0.78174 0.0
C1201 C 0.37618 0.90141 0.75823 0.0
C1202 C 0.36932 0.9557 0.74795 0.0
C1203 C 0.36235 0.01522 0.75596 0.0
C1204 C 0.36899 0.95154 0.72887 0.0
C1205 C 0.38299 0.8345 0.75054 0.0
C1206 C 0.3846 0.94283 0.71945 0.0
C1207 C 0.38428 0.94246 0.70149 0.0
C1208 C 0.36836 0.95192 0.69257 0.0
C1209 C 0.35272 0.95937 0.70204 0.0
C1210 C 0.35303 0.95918 0.71999 0.0
H1211 H 0.38288 0.79131 0.76003 0.0
H1212 H 0.37503 0.81857 0.73926 0.0
H1213 H 0.39679 0.84226 0.74629 0.0
H1214 H 0.39712 0.93832 0.72597 0.0
H1215 H 0.3966 0.93746 0.69462 0.0
H1216 H 0.87873 0.35302 0.19794 0.0
H1217 H 0.87703 0.36223 0.22902 0.0
H1218 H 0.876 0.58621 0.22511 0.0
H1219 H 0.87749 0.57745 0.1937 0.0
H1220 H 0.90069 0.42525 0.25069 0.0
H1221 H 0.83461 0.54561 0.2572 0.0
H1222 H 0.84212 0.5064 0.23747 0.0
H1223 H 0.84948 0.59205 0.2434 0.0
C1224 C 0.87803 0.40445 0.2036 0.0
C1225 C 0.87823 0.46461 0.19327 0.0
C1226 C 0.87707 0.40951 0.22143 0.0
C1227 C 0.87621 0.47477 0.22943 0.0
C1228 C 0.87632 0.53518 0.21921 0.0
H1229 H 0.87795 0.61492 0.33421 0.0
H1230 H 0.8766 0.6011 0.30322 0.0
C1231 C 0.87726 0.53016 0.20126 0.0
C1232 C 0.87591 0.47881 0.24848 0.0
H1233 H 0.85162 0.53563 0.2826 0.0
C1234 C 0.88991 0.44908 0.25768 0.0
C1235 C 0.86182 0.50968 0.25758 0.0
C1236 C 0.84606 0.53974 0.24846 0.0
C1237 C 0.89042 0.45074 0.27569 0.0
C1238 C 0.87638 0.48195 0.2848 0.0
C1239 C 0.86233 0.51138 0.27561 0.0
C1240 C 0.87657 0.48853 0.30379 0.0
C1241 C 0.90623 0.42096 0.28481 0.0
C1242 C 0.87672 0.42964 0.31454 0.0
C1243 C 0.87752 0.43731 0.33243 0.0
C1244 C 0.87815 0.50405 0.33984 0.0
C1245 C 0.87759 0.56265 0.329 0.0
C1246 C 0.87677 0.55495 0.31122 0.0
H1247 H 0.91748 0.41269 0.27594 0.0
H1248 H 0.91054 0.45587 0.29536 0.0
H1249 H 0.90266 0.36988 0.2905 0.0
H1250 H 0.87627 0.3778 0.30908 0.0
H1251 H 0.87786 0.39118 0.34042 0.0
H1252 H 0.15455 0.57786 0.33531 0.0
H1253 H 0.15582 0.58554 0.30383 0.0
H1254 H 0.15776 0.36157 0.30053 0.0
H1255 H 0.15634 0.35332 0.33165 0.0
H1256 H 0.18133 0.53267 0.28017 0.0
H1257 H 0.11584 0.41157 0.26982 0.0
H1258 H 0.12279 0.44438 0.29044 0.0
H1259 H 0.13039 0.36102 0.283 0.0
C1260 C 0.1553 0.53035 0.32786 0.0
C1261 C 0.15517 0.46501 0.33602 0.0
C1262 C 0.15602 0.53478 0.30989 0.0
C1263 C 0.15653 0.47402 0.29982 0.0
C1264 C 0.15695 0.40905 0.30799 0.0
H1265 H 0.15543 0.39058 0.18917 0.0
H1266 H 0.15758 0.3785 0.22052 0.0
C1267 C 0.15622 0.40456 0.32584 0.0
C1268 C 0.15663 0.47786 0.28078 0.0
H1269 H 0.13359 0.42824 0.24514 0.0
C1270 C 0.17086 0.51016 0.2725 0.0
C1271 C 0.14302 0.44792 0.27078 0.0
C1272 C 0.12705 0.41478 0.27893 0.0
C1273 C 0.17196 0.51262 0.2545 0.0
C1274 C 0.15829 0.48304 0.24451 0.0
C1275 C 0.14412 0.45039 0.25279 0.0
C1276 C 0.15788 0.48942 0.2255 0.0
C1277 C 0.18788 0.546 0.24635 0.0
C1278 C 0.15719 0.55554 0.21793 0.0
C1279 C 0.15595 0.5625 0.20016 0.0
C1280 C 0.15525 0.50347 0.18946 0.0
C1281 C 0.15602 0.43704 0.19702 0.0
C1282 C 0.15722 0.43011 0.21492 0.0
H1283 H 0.19928 0.54682 0.25526 0.0
H1284 H 0.19177 0.5182 0.23445 0.0
H1285 H 0.18471 0.60069 0.24295 0.0
H1286 H 0.15726 0.60201 0.2258 0.0
H1287 H 0.15533 0.61454 0.19483 0.0
H1288 H 0.17696 0.36408 0.83219 0.0
H1289 H 0.17684 0.3757 0.80087 0.0
H1290 H 0.13048 0.50447 0.8039 0.0
H1291 H 0.13074 0.49452 0.83509 0.0
H1292 H 0.15324 0.33996 0.77683 0.0
H1293 H 0.16221 0.62575 0.77518 0.0
H1294 H 0.1651 0.57537 0.79452 0.0
H1295 H 0.14341 0.60094 0.78769 0.0
C1296 C 0.1667 0.39465 0.82618 0.0
C1297 C 0.15394 0.42881 0.83619 0.0
C1298 C 0.16668 0.40147 0.80827 0.0
C1299 C 0.15393 0.44255 0.80002 0.0
C1300 C 0.1408 0.47441 0.80996 0.0
H1301 H 0.11956 0.41764 0.69533 0.0
H1302 H 0.1236 0.41436 0.72632 0.0
C1303 C 0.14088 0.46806 0.82782 0.0
C1304 C 0.154 0.45075 0.78102 0.0
H1305 H 0.15261 0.57235 0.74897 0.0
C1306 C 0.15327 0.39079 0.77075 0.0
C1307 C 0.1544 0.51702 0.773 0.0
C1308 C 0.15652 0.58338 0.78316 0.0
C1309 C 0.15222 0.39527 0.75279 0.0
C1310 C 0.15143 0.46161 0.74485 0.0
C1311 C 0.15291 0.52156 0.75505 0.0
C1312 C 0.14845 0.46939 0.72608 0.0
C1313 C 0.15202 0.32869 0.7425 0.0
C1314 C 0.16057 0.5051 0.71563 0.0
C1315 C 0.15815 0.50807 0.69779 0.0
C1316 C 0.14356 0.47528 0.69015 0.0
C1317 C 0.13106 0.44265 0.70077 0.0
C1318 C 0.13341 0.44023 0.71851 0.0
H1319 H 0.15824 0.28517 0.74967 0.0
H1320 H 0.13819 0.31371 0.7398 0.0
H1321 H 0.15901 0.3352 0.73009 0.0
H1322 H 0.17218 0.52872 0.72122 0.0
H1323 H 0.16801 0.53351 0.68995 0.0
H1324 H 0.83972 0.47108 0.69644 0.0
H1325 H 0.84078 0.47832 0.72779 0.0
H1326 H 0.89744 0.46898 0.72617 0.0
H1327 H 0.89654 0.4624 0.69489 0.0
H1328 H 0.85481 0.38913 0.75221 0.0
H1329 H 0.88839 0.64532 0.75433 0.0
H1330 H 0.87845 0.61123 0.73504 0.0
H1331 H 0.89986 0.58185 0.74166 0.0
C1332 C 0.85241 0.47003 0.70274 0.0
C1333 C 0.86805 0.46655 0.69309 0.0
C1334 C 0.85299 0.47443 0.72067 0.0
C1335 C 0.8692 0.47586 0.72931 0.0
C1336 C 0.88479 0.46979 0.71977 0.0
H1337 H 0.89483 0.38516 0.83366 0.0
H1338 H 0.89012 0.38989 0.80283 0.0
C1339 C 0.88424 0.46537 0.70187 0.0
C1340 C 0.86987 0.48283 0.74831 0.0
H1341 H 0.88716 0.58178 0.78068 0.0
C1342 C 0.86175 0.43158 0.75843 0.0
C1343 C 0.87864 0.53895 0.75646 0.0
C1344 C 0.88668 0.59789 0.74633 0.0
C1345 C 0.86282 0.4333 0.77642 0.0
C1346 C 0.87246 0.48721 0.78452 0.0
C1347 C 0.87993 0.54011 0.77446 0.0
C1348 C 0.87574 0.48701 0.80333 0.0
C1349 C 0.85365 0.37711 0.78659 0.0
C1350 C 0.86983 0.54159 0.81388 0.0
C1351 C 0.87261 0.53933 0.83169 0.0
C1352 C 0.88144 0.48259 0.83917 0.0
C1353 C 0.88781 0.42936 0.82842 0.0
C1354 C 0.88504 0.43169 0.81074 0.0
H1355 H 0.84281 0.35276 0.77914 0.0
H1356 H 0.86327 0.3357 0.78984 0.0
H1357 H 0.84818 0.39813 0.79874 0.0
H1358 H 0.86276 0.58517 0.80838 0.0
H1359 H 0.86757 0.58118 0.83959 0.0
loop_
_geom_bond_atom_site_label_1
_geom_bond_atom_site_label_2
_geom_bond_distance
_geom_bond_site_symmetry_2
_ccdc_geom_bond_type
Mg0 O7 2.141 . S
Mg0 O8 2.048 . S
Mg0 O9 2.048 . S
Mg0 O12 2.141 . S
C1 O2 1.313 . S
C1 O8 1.195 . S
O2 C1 1.313 . S
C3 O4 1.245 . S
C3 O12 1.289 . S
O4 C3 1.245 . S
C5 O6 1.245 . S
C5 O7 1.289 . S
O6 C5 1.245 . S
O7 Mg0 2.141 . S
O7 C5 1.289 . S
O8 Mg0 2.048 . S
O8 C1 1.195 . S
O9 Mg0 2.048 . S
O9 C10 1.195 . S
C10 O9 1.195 . S
C10 O11 1.313 . S
O11 C10 1.313 . S
O12 Mg0 2.141 . S
O12 C3 1.289 . S
Mg13 O20 2.141 . S
Mg13 O21 2.048 . S
Mg13 O22 2.048 . S
Mg13 O25 2.141 . S
C14 O15 1.313 . S
C14 O21 1.195 . S
O15 C14 1.313 . S
C16 O17 1.245 . S
C16 O25 1.289 . S
O17 C16 1.245 . S
C18 O19 1.245 . S
C18 O20 1.289 . S
O19 C18 1.245 . S
O20 Mg13 2.141 . S
O20 C18 1.289 . S
O21 Mg13 2.048 . S
O21 C14 1.195 . S
O22 Mg13 2.048 . S
O22 C23 1.195 . S
C23 O22 1.195 . S
C23 O24 1.313 . S
O24 C23 1.313 . S
O25 Mg13 2.141 . S
O25 C16 1.289 . S
Mg26 O33 2.141 . S
Mg26 O34 2.048 . S
Mg26 O35 2.048 . S
Mg26 O38 2.141 . S
C27 O28 1.313 . S
C27 O34 1.195 . S
O28 C27 1.313 . S
C29 O30 1.245 . S
C29 O38 1.289 . S
O30 C29 1.245 . S
C31 O32 1.245 . S
C31 O33 1.289 . S
O32 C31 1.245 . S
O33 Mg26 2.141 . S
O33 C31 1.289 . S
O34 Mg26 2.048 . S
O34 C27 1.195 . S
O35 Mg26 2.048 . S
O35 C36 1.195 . S
C36 O35 1.195 . S
C36 O37 1.313 . S
O37 C36 1.313 . S
O38 Mg26 2.141 . S
O38 C29 1.289 . S
Mg39 O46 2.141 . S
Mg39 O47 2.048 . S
Mg39 O48 2.048 . S
Mg39 O51 2.141 . S
C40 O41 1.313 . S
C40 O47 1.195 . S
O41 C40 1.313 . S
C42 O43 1.245 . S
C42 O51 1.289 . S
O43 C42 1.245 . S
C44 O45 1.245 . S
C44 O46 1.289 . S
O45 C44 1.245 . S
O46 Mg39 2.141 . S
O46 C44 1.289 . S
O47 Mg39 2.048 . S
O47 C40 1.195 . S
O48 Mg39 2.048 . S
O48 C49 1.195 . S
C49 O48 1.195 . S
C49 O50 1.313 . S
O50 C49 1.313 . S
O51 Mg39 2.141 . S
O51 C42 1.289 . S
Mg52 O59 2.141 . S
Mg52 O60 2.048 . S
Mg52 O61 2.048 . S
Mg52 O64 2.141 . S
C53 O54 1.313 . S
C53 O60 1.195 . S
O54 C53 1.313 . S
C55 O56 1.245 . S
C55 O64 1.289 . S
O56 C55 1.245 . S
C57 O58 1.245 . S
C57 O59 1.289 . S
O58 C57 1.245 . S
O59 Mg52 2.141 . S
O59 C57 1.289 . S
O60 Mg52 2.048 . S
O60 C53 1.195 . S
O61 Mg52 2.048 . S
O61 C62 1.195 . S
C62 O61 1.195 . S
C62 O63 1.313 1_565 S
O63 C62 1.313 1_545 S
O64 Mg52 2.141 . S
O64 C55 1.289 . S
Mg65 O72 2.141 . S
Mg65 O73 2.048 . S
Mg65 O74 2.048 . S
Mg65 O77 2.141 . S
C66 O67 1.313 . S
C66 O73 1.195 . S
O67 C66 1.313 . S
C68 O69 1.245 . S
C68 O77 1.289 . S
O69 C68 1.245 . S
C70 O71 1.245 . S
C70 O72 1.289 . S
O71 C70 1.245 . S
O72 Mg65 2.141 . S
O72 C70 1.289 . S
O73 Mg65 2.048 . S
O73 C66 1.195 . S
O74 Mg65 2.048 . S
O74 C75 1.195 . S
C75 O74 1.195 . S
C75 O76 1.313 1_545 S
O76 C75 1.313 1_565 S
O77 Mg65 2.141 . S
O77 C68 1.289 . S
Mg78 O85 2.141 . S
Mg78 O86 2.048 . S
Mg78 O87 2.048 . S
Mg78 O90 2.141 . S
C79 O80 1.313 . S
C79 O86 1.195 . S
O80 C79 1.313 . S
C81 O82 1.245 . S
C81 O90 1.289 . S
O82 C81 1.245 . S
C83 O84 1.245 . S
C83 O85 1.289 . S
O84 C83 1.245 . S
O85 Mg78 2.141 . S
O85 C83 1.289 . S
O86 Mg78 2.048 . S
O86 C79 1.195 . S
O87 Mg78 2.048 . S
O87 C88 1.195 . S
C88 O87 1.195 . S
C88 O89 1.313 1_545 S
O89 C88 1.313 1_565 S
O90 Mg78 2.141 . S
O90 C81 1.289 . S
Mg91 O98 2.141 . S
Mg91 O99 2.048 . S
Mg91 O100 2.048 . S
Mg91 O103 2.141 . S
C92 O93 1.313 . S
C92 O99 1.195 . S
O93 C92 1.313 . S
C94 O95 1.245 . S
C94 O103 1.289 . S
O95 C94 1.245 . S
C96 O97 1.245 . S
C96 O98 1.289 . S
O97 C96 1.245 . S
O98 Mg91 2.141 . S
O98 C96 1.289 . S
O99 Mg91 2.048 . S
O99 C92 1.195 . S
O100 Mg91 2.048 . S
O100 C101 1.195 . S
C101 O100 1.195 . S
C101 O102 1.313 1_565 S
O102 C101 1.313 1_545 S
O103 Mg91 2.141 . S
O103 C94 1.289 . S
Mg104 O111 2.141 . S
Mg104 O112 2.048 . S
Mg104 O113 2.048 . S
Mg104 O116 2.141 . S
C105 O106 1.313 . S
C105 O112 1.195 . S
O106 C105 1.313 . S
C107 O108 1.245 . S
C107 O116 1.289 . S
O108 C107 1.245 . S
C109 O110 1.245 . S
C109 O111 1.289 . S
O110 C109 1.245 . S
O111 Mg104 2.141 . S
O111 C109 1.289 . S
O112 Mg104 2.048 . S
O112 C105 1.195 . S
O113 Mg104 2.048 . S
O113 C114 1.195 . S
C114 O113 1.195 . S
C114 O115 1.313 . S
O115 C114 1.313 . S
O116 Mg104 2.141 . S
O116 C107 1.289 . S
Mg117 O124 2.141 . S
Mg117 O125 2.048 . S
Mg117 O126 2.048 . S
Mg117 O129 2.141 . S
C118 O119 1.313 . S
C118 O125 1.195 . S
O119 C118 1.313 . S
C120 O121 1.245 . S
C120 O129 1.289 . S
O121 C120 1.245 . S
C122 O123 1.245 . S
C122 O124 1.289 . S
O123 C122 1.245 . S
O124 Mg117 2.141 . S
O124 C122 1.289 . S
O125 Mg117 2.048 . S
O125 C118 1.195 . S
O126 Mg117 2.048 . S
O126 C127 1.195 . S
C127 O126 1.195 . S
C127 O128 1.313 . S
O128 C127 1.313 . S
O129 Mg117 2.141 . S
O129 C120 1.289 . S
Mg130 O137 2.141 . S
Mg130 O138 2.048 . S
Mg130 O139 2.048 . S
Mg130 O142 2.141 . S
C131 O132 1.313 . S
C131 O138 1.195 . S
O132 C131 1.313 . S
C133 O134 1.245 . S
C133 O142 1.289 . S
O134 C133 1.245 . S
C135 O136 1.245 . S
C135 O137 1.289 . S
O136 C135 1.245 . S
O137 Mg130 2.141 . S
O137 C135 1.289 . S
O138 Mg130 2.048 . S
O138 C131 1.195 . S
O139 Mg130 2.048 . S
O139 C140 1.195 . S
C140 O139 1.195 . S
C140 O141 1.313 . S
O141 C140 1.313 . S
O142 Mg130 2.141 . S
O142 C133 1.289 . S
Mg143 O150 2.141 . S
Mg143 O151 2.048 . S
Mg143 O152 2.048 . S
Mg143 O155 2.141 . S
C144 O145 1.313 . S
C144 O151 1.195 . S
O145 C144 1.313 . S
C146 O147 1.245 . S
C146 O155 1.289 . S
O147 C146 1.245 . S
C148 O149 1.245 . S
C148 O150 1.289 . S
O149 C148 1.245 . S
O150 Mg143 2.141 . S
O150 C148 1.289 . S
O151 Mg143 2.048 . S
O151 C144 1.195 . S
O152 Mg143 2.048 . S
O152 C153 1.195 . S
C153 O152 1.195 . S
C153 O154 1.313 . S
O154 C153 1.313 . S
O155 Mg143 2.141 . S
O155 C146 1.289 . S
Mg156 O163 2.141 . S
Mg156 O164 2.048 . S
Mg156 O165 2.048 . S
Mg156 O168 2.141 . S
C157 O158 1.313 . S
C157 O164 1.195 . S
O158 C157 1.313 . S
C159 O160 1.245 . S
C159 O168 1.289 . S
O160 C159 1.245 . S
C161 O162 1.245 . S
C161 O163 1.289 . S
O162 C161 1.245 . S
O163 Mg156 2.141 . S
O163 C161 1.289 . S
O164 Mg156 2.048 . S
O164 C157 1.195 . S
O165 Mg156 2.048 . S
O165 C166 1.195 . S
C166 O165 1.195 . S
C166 O167 1.313 . S
O167 C166 1.313 . S
O168 Mg156 2.141 . S
O168 C159 1.289 . S
Mg169 O176 2.141 . S
Mg169 O177 2.048 . S
Mg169 O178 2.048 . S
Mg169 O181 2.141 . S
C170 O171 1.313 . S
C170 O177 1.195 . S
O171 C170 1.313 . S
C172 O173 1.245 . S
C172 O181 1.289 . S
O173 C172 1.245 . S
C174 O175 1.245 . S
C174 O176 1.289 . S
O175 C174 1.245 . S
O176 Mg169 2.141 . S
O176 C174 1.289 . S
O177 Mg169 2.048 . S
O177 C170 1.195 . S
O178 Mg169 2.048 . S
O178 C179 1.195 . S
C179 O178 1.195 . S
C179 O180 1.313 . S
O180 C179 1.313 . S
O181 Mg169 2.141 . S
O181 C172 1.289 . S
Mg182 O189 2.141 . S
Mg182 O190 2.048 . S
Mg182 O191 2.048 . S
Mg182 O194 2.141 . S
C183 O184 1.313 . S
C183 O190 1.195 . S
O184 C183 1.313 . S
C185 O186 1.245 . S
C185 O194 1.289 . S
O186 C185 1.245 . S
C187 O188 1.245 . S
C187 O189 1.289 . S
O188 C187 1.245 . S
O189 Mg182 2.141 . S
O189 C187 1.289 . S
O190 Mg182 2.048 . S
O190 C183 1.195 . S
O191 Mg182 2.048 . S
O191 C192 1.195 . S
C192 O191 1.195 . S
C192 O193 1.313 . S
O193 C192 1.313 . S
O194 Mg182 2.141 . S
O194 C185 1.289 . S
Mg195 O202 2.141 . S
Mg195 O203 2.048 . S
Mg195 O204 2.048 . S
Mg195 O207 2.141 . S
C196 O197 1.313 . S
C196 O203 1.195 . S
O197 C196 1.313 . S
C198 O199 1.245 . S
C198 O207 1.289 . S
O199 C198 1.245 . S
C200 O201 1.245 . S
C200 O202 1.289 . S
O201 C200 1.245 . S
O202 Mg195 2.141 . S
O202 C200 1.289 . S
O203 Mg195 2.048 . S
O203 C196 1.195 . S
O204 Mg195 2.048 . S
O204 C205 1.195 . S
C205 O204 1.195 . S
C205 O206 1.313 . S
O206 C205 1.313 . S
O207 Mg195 2.141 . S
O207 C198 1.289 . S
H208 C216 0.929 . S
H209 C218 0.930 . S
H210 C220 0.930 . S
H211 C223 0.929 . S
H212 C226 0.930 . S
H213 C228 0.960 . S
H214 C228 0.960 1_545 S
H215 C228 0.960 . S
C216 H208 0.929 . S
C216 C217 1.377 . S
C216 C218 1.384 . S
C217 C216 1.377 . S
C217 C223 1.390 . S
C218 H209 0.930 . S
C218 C216 1.384 . S
C218 C219 1.372 . S
C219 C218 1.372 . S
C219 C220 1.400 . S
C219 C224 1.490 . S
C220 H210 0.930 . S
C220 C219 1.400 . S
C220 C223 1.386 . S
H221 C237 0.930 . S
H222 C238 0.931 . S
C223 H211 0.929 . S
C223 C217 1.390 . S
C223 C220 1.386 . S
C224 C219 1.490 . S
C224 C226 1.395 . S
C224 C227 1.403 . S
H225 C231 0.930 . S
C226 H212 0.930 . S
C226 C224 1.395 . S
C226 C229 1.403 . S
C227 C224 1.403 . S
C227 C228 1.524 1_545 S
C227 C231 1.400 . S
C228 H213 0.960 . S
C228 H214 0.960 1_565 S
C228 H215 0.960 . S
C228 C227 1.524 1_565 S
C229 C226 1.403 . S
C229 C230 1.392 . S
C229 C233 1.495 . S
C230 C229 1.392 . S
C230 C231 1.385 . S
C230 C232 1.478 . S
C231 H225 0.930 . S
C231 C227 1.400 . S
C231 C230 1.385 . S
C232 C230 1.478 . S
C232 C234 1.381 . S
C232 C238 1.383 . S
C233 C229 1.495 . S
C233 H239 0.959 . S
C233 H240 0.961 . S
C233 H241 0.960 . S
C234 C232 1.381 . S
C234 C235 1.394 . S
C234 H242 0.930 . S
C235 C234 1.394 . S
C235 C236 1.383 . S
C235 H243 0.929 . S
C236 C235 1.383 . S
C236 C237 1.377 . S
C237 H221 0.930 . S
C237 C236 1.377 . S
C237 C238 1.379 . S
C238 H222 0.931 . S
C238 C232 1.383 . S
C238 C237 1.379 . S
H239 C233 0.959 . S
H240 C233 0.961 . S
H241 C233 0.960 . S
H242 C234 0.930 . S
H243 C235 0.929 . S
H244 C252 0.929 . S
H245 C254 0.930 . S
H246 C256 0.930 . S
H247 C259 0.929 . S
H248 C262 0.930 . S
H249 C264 0.960 . S
H250 C264 0.960 . S
H251 C264 0.960 . S
C252 H244 0.929 . S
C252 C253 1.377 . S
C252 C254 1.384 . S
C253 C252 1.377 . S
C253 C259 1.390 . S
C254 H245 0.930 . S
C254 C252 1.384 . S
C254 C255 1.372 . S
C255 C254 1.372 . S
C255 C256 1.400 . S
C255 C260 1.490 . S
C256 H246 0.930 . S
C256 C255 1.400 . S
C256 C259 1.386 . S
H257 C273 0.930 . S
H258 C274 0.931 . S
C259 H247 0.929 . S
C259 C253 1.390 . S
C259 C256 1.386 . S
C260 C255 1.490 . S
C260 C262 1.395 . S
C260 C263 1.403 . S
H261 C267 0.930 . S
C262 H248 0.930 . S
C262 C260 1.395 . S
C262 C265 1.403 . S
C263 C260 1.403 . S
C263 C264 1.524 . S
C263 C267 1.400 . S
C264 H249 0.960 . S
C264 H250 0.960 . S
C264 H251 0.960 . S
C264 C263 1.524 . S
C265 C262 1.403 . S
C265 C266 1.392 . S
C265 C269 1.495 . S
C266 C265 1.392 . S
C266 C267 1.385 . S
C266 C268 1.478 . S
C267 H261 0.930 . S
C267 C263 1.400 . S
C267 C266 1.385 . S
C268 C266 1.478 . S
C268 C270 1.381 . S
C268 C274 1.383 . S
C269 C265 1.495 . S
C269 H275 0.959 . S
C269 H276 0.961 . S
C269 H277 0.960 . S
C270 C268 1.381 . S
C270 C271 1.394 . S
C270 H278 0.930 . S
C271 C270 1.394 . S
C271 C272 1.383 . S
C271 H279 0.929 . S
C272 C271 1.383 . S
C272 C273 1.377 . S
C273 H257 0.930 . S
C273 C272 1.377 . S
C273 C274 1.379 . S
C274 H258 0.931 . S
C274 C268 1.383 . S
C274 C273 1.379 . S
H275 C269 0.959 . S
H276 C269 0.961 . S
H277 C269 0.960 . S
H278 C270 0.930 . S
H279 C271 0.929 . S
H280 C288 0.929 1_545 S
H281 C290 0.930 1_545 S
H282 C292 0.930 . S
H283 C295 0.929 . S
H284 C298 0.930 . S
H285 C300 0.960 . S
H286 C300 0.960 . S
H287 C300 0.960 . S
C288 H280 0.929 1_565 S
C288 C289 1.377 . S
C288 C290 1.384 . S
C289 C288 1.377 . S
C289 C295 1.390 . S
C290 H281 0.930 1_565 S
C290 C288 1.384 . S
C290 C291 1.372 . S
C291 C290 1.372 . S
C291 C292 1.400 . S
C291 C296 1.490 . S
C292 H282 0.930 . S
C292 C291 1.400 . S
C292 C295 1.386 . S
H293 C309 0.930 . S
H294 C310 0.931 . S
C295 H283 0.929 . S
C295 C289 1.390 . S
C295 C292 1.386 . S
C296 C291 1.490 . S
C296 C298 1.395 . S
C296 C299 1.403 . S
H297 C303 0.930 . S
C298 H284 0.930 . S
C298 C296 1.395 . S
C298 C301 1.403 1_554 S
C299 C296 1.403 . S
C299 C300 1.524 . S
C299 C303 1.400 1_554 S
C300 H285 0.960 . S
C300 H286 0.960 . S
C300 H287 0.960 . S
C300 C299 1.524 . S
C301 C298 1.403 1_556 S
C301 C302 1.392 . S
C301 C305 1.495 . S
C302 C301 1.392 . S
C302 C303 1.385 . S
C302 C304 1.478 . S
C303 H297 0.930 . S
C303 C299 1.400 1_556 S
C303 C302 1.385 . S
C304 C302 1.478 . S
C304 C306 1.381 . S
C304 C310 1.383 . S
C305 C301 1.495 . S
C305 H311 0.959 1_565 S
C305 H312 0.961 . S
C305 H313 0.960 1_565 S
C306 C304 1.381 . S
C306 C307 1.394 . S
C306 H314 0.930 1_565 S
C307 C306 1.394 . S
C307 C308 1.383 . S
C307 H315 0.929 1_565 S
C308 C307 1.383 . S
C308 C309 1.377 . S
C309 H293 0.930 . S
C309 C308 1.377 . S
C309 C310 1.379 . S
C310 H294 0.931 . S
C310 C304 1.383 . S
C310 C309 1.379 . S
H311 C305 0.959 1_545 S
H312 C305 0.961 . S
H313 C305 0.960 1_545 S
H314 C306 0.930 1_545 S
H315 C307 0.929 1_545 S
H316 C324 0.929 . S
H317 C326 0.930 . S
H318 C328 0.930 . S
H319 C331 0.929 . S
H320 C334 0.930 . S
H321 C336 0.960 1_565 S
H322 C336 0.960 1_565 S
H323 C336 0.960 . S
C324 H316 0.929 . S
C324 C325 1.377 . S
C324 C326 1.384 . S
C325 C324 1.377 . S
C325 C331 1.390 . S
C326 H317 0.930 . S
C326 C324 1.384 . S
C326 C327 1.372 . S
C327 C326 1.372 . S
C327 C328 1.400 . S
C327 C332 1.490 . S
C328 H318 0.930 . S
C328 C327 1.400 . S
C328 C331 1.386 . S
H329 C345 0.930 . S
H330 C346 0.931 . S
C331 H319 0.929 . S
C331 C325 1.390 . S
C331 C328 1.386 . S
C332 C327 1.490 . S
C332 C334 1.395 . S
C332 C335 1.403 . S
H333 C339 0.930 . S
C334 H320 0.930 . S
C334 C332 1.395 . S
C334 C337 1.403 1_556 S
C335 C332 1.403 . S
C335 C336 1.524 . S
C335 C339 1.400 1_556 S
C336 H321 0.960 1_545 S
C336 H322 0.960 1_545 S
C336 H323 0.960 . S
C336 C335 1.524 . S
C337 C334 1.403 1_554 S
C337 C338 1.392 . S
C337 C341 1.495 . S
C338 C337 1.392 . S
C338 C339 1.385 . S
C338 C340 1.478 . S
C339 H333 0.930 . S
C339 C335 1.400 1_554 S
C339 C338 1.385 . S
C340 C338 1.478 . S
C340 C342 1.381 . S
C340 C346 1.383 . S
C341 C337 1.495 . S
C341 H347 0.959 . S
C341 H348 0.961 . S
C341 H349 0.960 . S
C342 C340 1.381 . S
C342 C343 1.394 . S
C342 H350 0.930 . S
C343 C342 1.394 . S
C343 C344 1.383 . S
C343 H351 0.929 . S
C344 C343 1.383 . S
C344 C345 1.377 . S
C345 H329 0.930 . S
C345 C344 1.377 . S
C345 C346 1.379 . S
C346 H330 0.931 . S
C346 C340 1.383 . S
C346 C345 1.379 . S
H347 C341 0.959 . S
H348 C341 0.961 . S
H349 C341 0.960 . S
H350 C342 0.930 . S
H351 C343 0.929 . S
H352 C360 0.929 . S
H353 C362 0.930 . S
H354 C364 0.930 . S
H355 C367 0.929 . S
H356 C370 0.930 . S
H357 C372 0.960 . S
H358 C372 0.960 . S
H359 C372 0.960 . S
C360 H352 0.929 . S
C360 C361 1.377 . S
C360 C362 1.384 . S
C361 C360 1.377 . S
C361 C367 1.390 . S
C362 H353 0.930 . S
C362 C360 1.384 . S
C362 C363 1.372 . S
C363 C362 1.372 . S
C363 C364 1.400 . S
C363 C368 1.490 . S
C364 H354 0.930 . S
C364 C363 1.400 . S
C364 C367 1.386 . S
H365 C381 0.930 . S
H366 C382 0.931 . S
C367 H355 0.929 . S
C367 C361 1.390 . S
C367 C364 1.386 . S
C368 C363 1.490 . S
C368 C370 1.395 . S
C368 C371 1.403 . S
H369 C375 0.930 . S
C370 H356 0.930 . S
C370 C368 1.395 . S
C370 C373 1.403 . S
C371 C368 1.403 . S
C371 C372 1.524 . S
C371 C375 1.400 . S
C372 H357 0.960 . S
C372 H358 0.960 . S
C372 H359 0.960 . S
C372 C371 1.524 . S
C373 C370 1.403 . S
C373 C374 1.392 . S
C373 C377 1.495 . S
C374 C373 1.392 . S
C374 C375 1.385 . S
C374 C376 1.478 . S
C375 H369 0.930 . S
C375 C371 1.400 . S
C375 C374 1.385 . S
C376 C374 1.478 . S
C376 C378 1.381 . S
C376 C382 1.383 . S
C377 C373 1.495 . S
C377 H383 0.959 . S
C377 H384 0.961 . S
C377 H385 0.960 . S
C378 C376 1.381 . S
C378 C379 1.394 . S
C378 H386 0.930 . S
C379 C378 1.394 . S
C379 C380 1.383 . S
C379 H387 0.929 . S
C380 C379 1.383 . S
C380 C381 1.377 . S
C381 H365 0.930 . S
C381 C380 1.377 . S
C381 C382 1.379 . S
C382 H366 0.931 . S
C382 C376 1.383 . S
C382 C381 1.379 . S
H383 C377 0.959 . S
H384 C377 0.961 . S
H385 C377 0.960 . S
H386 C378 0.930 . S
H387 C379 0.929 . S
H388 C396 0.929 . S
H389 C398 0.930 . S
H390 C400 0.930 . S
H391 C403 0.929 . S
H392 C406 0.930 . S
H393 C408 0.960 . S
H394 C408 0.960 . S
H395 C408 0.960 . S
C396 H388 0.929 . S
C396 C397 1.377 . S
C396 C398 1.384 . S
C397 C396 1.377 . S
C397 C403 1.390 . S
C398 H389 0.930 . S
C398 C396 1.384 . S
C398 C399 1.372 . S
C399 C398 1.372 . S
C399 C400 1.400 . S
C399 C404 1.490 . S
C400 H390 0.930 . S
C400 C399 1.400 . S
C400 C403 1.386 . S
H401 C417 0.930 . S
H402 C418 0.931 . S
C403 H391 0.929 . S
C403 C397 1.390 . S
C403 C400 1.386 . S
C404 C399 1.490 . S
C404 C406 1.395 . S
C404 C407 1.403 . S
H405 C411 0.930 . S
C406 H392 0.930 . S
C406 C404 1.395 . S
C406 C409 1.403 . S
C407 C404 1.403 . S
C407 C408 1.524 . S
C407 C411 1.400 . S
C408 H393 0.960 . S
C408 H394 0.960 . S
C408 H395 0.960 . S
C408 C407 1.524 . S
C409 C406 1.403 . S
C409 C410 1.392 . S
C409 C413 1.495 . S
C410 C409 1.392 . S
C410 C411 1.385 . S
C410 C412 1.478 . S
C411 H405 0.930 . S
C411 C407 1.400 . S
C411 C410 1.385 . S
C412 C410 1.478 . S
C412 C414 1.381 . S
C412 C418 1.383 . S
C413 C409 1.495 . S
C413 H419 0.959 . S
C413 H420 0.961 . S
C413 H421 0.960 . S
C414 C412 1.381 . S
C414 C415 1.394 . S
C414 H422 0.930 . S
C415 C414 1.394 . S
C415 C416 1.383 . S
C415 H423 0.929 . S
C416 C415 1.383 . S
C416 C417 1.377 . S
C417 H401 0.930 . S
C417 C416 1.377 . S
C417 C418 1.379 . S
C418 H402 0.931 . S
C418 C412 1.383 . S
C418 C417 1.379 . S
H419 C413 0.959 . S
H420 C413 0.961 . S
H421 C413 0.960 . S
H422 C414 0.930 . S
H423 C415 0.929 . S
H424 C432 0.929 . S
H425 C434 0.930 . S
H426 C436 0.930 . S
H427 C439 0.929 . S
H428 C442 0.930 . S
H429 C444 0.960 . S
H430 C444 0.960 . S
H431 C444 0.960 . S
C432 H424 0.929 . S
C432 C433 1.377 . S
C432 C434 1.384 . S
C433 C432 1.377 . S
C433 C439 1.390 . S
C434 H425 0.930 . S
C434 C432 1.384 . S
C434 C435 1.372 . S
C435 C434 1.372 . S
C435 C436 1.400 . S
C435 C440 1.490 . S
C436 H426 0.930 . S
C436 C435 1.400 . S
C436 C439 1.386 . S
H437 C453 0.930 . S
H438 C454 0.931 . S
C439 H427 0.929 . S
C439 C433 1.390 . S
C439 C436 1.386 . S
C440 C435 1.490 . S
C440 C442 1.395 . S
C440 C443 1.403 . S
H441 C447 0.930 . S
C442 H428 0.930 . S
C442 C440 1.395 . S
C442 C445 1.403 1_556 S
C443 C440 1.403 . S
C443 C444 1.524 . S
C443 C447 1.400 1_556 S
C444 H429 0.960 . S
C444 H430 0.960 . S
C444 H431 0.960 . S
C444 C443 1.524 . S
C445 C442 1.403 1_554 S
C445 C446 1.392 . S
C445 C449 1.495 . S
C446 C445 1.392 . S
C446 C447 1.385 . S
C446 C448 1.478 . S
C447 H441 0.930 . S
C447 C443 1.400 1_554 S
C447 C446 1.385 . S
C448 C446 1.478 . S
C448 C450 1.381 . S
C448 C454 1.383 . S
C449 C445 1.495 . S
C449 H455 0.959 . S
C449 H456 0.961 . S
C449 H457 0.960 . S
C450 C448 1.381 . S
C450 C451 1.394 . S
C450 H458 0.930 . S
C451 C450 1.394 . S
C451 C452 1.383 . S
C451 H459 0.929 . S
C452 C451 1.383 . S
C452 C453 1.377 . S
C453 H437 0.930 . S
C453 C452 1.377 . S
C453 C454 1.379 . S
C454 H438 0.931 . S
C454 C448 1.383 . S
C454 C453 1.379 . S
H455 C449 0.959 . S
H456 C449 0.961 . S
H457 C449 0.960 . S
H458 C450 0.930 . S
H459 C451 0.929 . S
H460 C468 0.929 . S
H461 C470 0.930 . S
H462 C472 0.930 . S
H463 C475 0.929 . S
H464 C478 0.930 . S
H465 C480 0.960 . S
H466 C480 0.960 . S
H467 C480 0.960 . S
C468 H460 0.929 . S
C468 C469 1.377 . S
C468 C470 1.384 . S
C469 C468 1.377 . S
C469 C475 1.390 . S
C470 H461 0.930 . S
C470 C468 1.384 . S
C470 C471 1.372 . S
C471 C470 1.372 . S
C471 C472 1.400 . S
C471 C476 1.490 . S
C472 H462 0.930 . S
C472 C471 1.400 . S
C472 C475 1.386 . S
H473 C489 0.930 . S
H474 C490 0.931 . S
C475 H463 0.929 . S
C475 C469 1.390 . S
C475 C472 1.386 . S
C476 C471 1.490 . S
C476 C478 1.395 . S
C476 C479 1.403 . S
H477 C483 0.930 . S
C478 H464 0.930 . S
C478 C476 1.395 . S
C478 C481 1.403 1_554 S
C479 C476 1.403 . S
C479 C480 1.524 . S
C479 C483 1.400 1_554 S
C480 H465 0.960 . S
C480 H466 0.960 . S
C480 H467 0.960 . S
C480 C479 1.524 . S
C481 C478 1.403 1_556 S
C481 C482 1.392 . S
C481 C485 1.495 . S
C482 C481 1.392 . S
C482 C483 1.385 . S
C482 C484 1.478 . S
C483 H477 0.930 . S
C483 C479 1.400 1_556 S
C483 C482 1.385 . S
C484 C482 1.478 . S
C484 C486 1.381 . S
C484 C490 1.383 . S
C485 C481 1.495 . S
C485 H491 0.959 . S
C485 H492 0.961 . S
C485 H493 0.960 . S
C486 C484 1.381 . S
C486 C487 1.394 . S
C486 H494 0.930 . S
C487 C486 1.394 . S
C487 C488 1.383 . S
C487 H495 0.929 . S
C488 C487 1.383 . S
C488 C489 1.377 . S
C489 H473 0.930 . S
C489 C488 1.377 . S
C489 C490 1.379 . S
C490 H474 0.931 . S
C490 C484 1.383 . S
C490 C489 1.379 . S
H491 C485 0.959 . S
H492 C485 0.961 . S
H493 C485 0.960 . S
H494 C486 0.930 . S
H495 C487 0.929 . S
H496 C504 0.929 . S
H497 C506 0.930 1_545 S
H498 C508 0.930 . S
H499 C511 0.929 . S
H500 C514 0.930 . S
H501 C516 0.960 . S
H502 C516 0.960 . S
H503 C516 0.960 . S
C504 H496 0.929 . S
C504 C505 1.377 . S
C504 C506 1.384 . S
C505 C504 1.377 . S
C505 C511 1.390 . S
C506 H497 0.930 1_565 S
C506 C504 1.384 . S
C506 C507 1.372 . S
C507 C506 1.372 . S
C507 C508 1.400 . S
C507 C512 1.490 . S
C508 H498 0.930 . S
C508 C507 1.400 . S
C508 C511 1.386 . S
H509 C525 0.930 . S
H510 C526 0.931 . S
C511 H499 0.929 . S
C511 C505 1.390 . S
C511 C508 1.386 . S
C512 C507 1.490 . S
C512 C514 1.395 1_565 S
C512 C515 1.403 . S
H513 C519 0.930 . S
C514 H500 0.930 . S
C514 C512 1.395 1_545 S
C514 C517 1.403 . S
C515 C512 1.403 . S
C515 C516 1.524 . S
C515 C519 1.400 . S
C516 H501 0.960 . S
C516 H502 0.960 . S
C516 H503 0.960 . S
C516 C515 1.524 . S
C517 C514 1.403 . S
C517 C518 1.392 . S
C517 C521 1.495 . S
C518 C517 1.392 . S
C518 C519 1.385 1_545 S
C518 C520 1.478 . S
C519 H513 0.930 . S
C519 C515 1.400 . S
C519 C518 1.385 1_565 S
C520 C518 1.478 . S
C520 C522 1.381 . S
C520 C526 1.383 . S
C521 C517 1.495 . S
C521 H527 0.959 . S
C521 H528 0.961 . S
C521 H529 0.960 . S
C522 C520 1.381 . S
C522 C523 1.394 . S
C522 H530 0.930 . S
C523 C522 1.394 . S
C523 C524 1.383 . S
C523 H531 0.929 . S
C524 C523 1.383 . S
C524 C525 1.377 . S
C525 H509 0.930 . S
C525 C524 1.377 . S
C525 C526 1.379 . S
C526 H510 0.931 . S
C526 C520 1.383 . S
C526 C525 1.379 . S
H527 C521 0.959 . S
H528 C521 0.961 . S
H529 C521 0.960 . S
H530 C522 0.930 . S
H531 C523 0.929 . S
H532 C540 0.929 . S
H533 C542 0.930 . S
H534 C544 0.930 . S
H535 C547 0.929 . S
H536 C550 0.930 . S
H537 C552 0.960 . S
H538 C552 0.960 . S
H539 C552 0.960 1_565 S
C540 H532 0.929 . S
C540 C541 1.377 1_545 S
C540 C542 1.384 . S
C541 C540 1.377 1_565 S
C541 C547 1.390 . S
C542 H533 0.930 . S
C542 C540 1.384 . S
C542 C543 1.372 1_545 S
C543 C542 1.372 1_565 S
C543 C544 1.400 . S
C543 C548 1.490 . S
C544 H534 0.930 . S
C544 C543 1.400 . S
C544 C547 1.386 . S
H545 C561 0.930 . S
H546 C562 0.931 . S
C547 H535 0.929 . S
C547 C541 1.390 . S
C547 C544 1.386 . S
C548 C543 1.490 . S
C548 C550 1.395 . S
C548 C551 1.403 1_565 S
H549 C555 0.930 . S
C550 H536 0.930 . S
C550 C548 1.395 . S
C550 C553 1.403 . S
C551 C548 1.403 1_545 S
C551 C552 1.524 . S
C551 C555 1.400 . S
C552 H537 0.960 . S
C552 H538 0.960 . S
C552 H539 0.960 1_545 S
C552 C551 1.524 . S
C553 C550 1.403 . S
C553 C554 1.392 1_565 S
C553 C557 1.495 . S
C554 C553 1.392 1_545 S
C554 C555 1.385 . S
C554 C556 1.478 . S
C555 H549 0.930 . S
C555 C551 1.400 . S
C555 C554 1.385 . S
C556 C554 1.478 . S
C556 C558 1.381 . S
C556 C562 1.383 1_545 S
C557 C553 1.495 . S
C557 H563 0.959 . S
C557 H564 0.961 . S
C557 H565 0.960 1_565 S
C558 C556 1.381 . S
C558 C559 1.394 . S
C558 H566 0.930 . S
C559 C558 1.394 . S
C559 C560 1.383 . S
C559 H567 0.929 . S
C560 C559 1.383 . S
C560 C561 1.377 1_545 S
C561 H545 0.930 . S
C561 C560 1.377 1_565 S
C561 C562 1.379 . S
C562 H546 0.931 . S
C562 C556 1.383 1_565 S
C562 C561 1.379 . S
H563 C557 0.959 . S
H564 C557 0.961 . S
H565 C557 0.960 1_545 S
H566 C558 0.930 . S
H567 C559 0.929 . S
H568 C576 0.929 . S
H569 C578 0.930 . S
H570 C580 0.930 . S
H571 C583 0.929 . S
H572 C586 0.930 . S
H573 C588 0.960 . S
H574 C588 0.960 1_545 S
H575 C588 0.960 . S
C576 H568 0.929 . S
C576 C577 1.377 1_545 S
C576 C578 1.384 . S
C577 C576 1.377 1_565 S
C577 C583 1.390 . S
C578 H569 0.930 . S
C578 C576 1.384 . S
C578 C579 1.372 1_545 S
C579 C578 1.372 1_565 S
C579 C580 1.400 . S
C579 C584 1.490 . S
C580 H570 0.930 . S
C580 C579 1.400 . S
C580 C583 1.386 . S
H581 C597 0.930 . S
H582 C598 0.931 . S
C583 H571 0.929 . S
C583 C577 1.390 . S
C583 C580 1.386 . S
C584 C579 1.490 . S
C584 C586 1.395 1_565 S
C584 C587 1.403 . S
H585 C591 0.930 . S
C586 H572 0.930 . S
C586 C584 1.395 1_545 S
C586 C589 1.403 . S
C587 C584 1.403 . S
C587 C588 1.524 . S
C587 C591 1.400 . S
C588 H573 0.960 . S
C588 H574 0.960 1_565 S
C588 H575 0.960 . S
C588 C587 1.524 . S
C589 C586 1.403 . S
C589 C590 1.392 . S
C589 C593 1.495 . S
C590 C589 1.392 . S
C590 C591 1.385 1_545 S
C590 C592 1.478 . S
C591 H585 0.930 . S
C591 C587 1.400 . S
C591 C590 1.385 1_565 S
C592 C590 1.478 . S
C592 C594 1.381 . S
C592 C598 1.383 1_545 S
C593 C589 1.495 . S
C593 H599 0.959 . S
C593 H600 0.961 1_545 S
C593 H601 0.960 . S
C594 C592 1.381 . S
C594 C595 1.394 . S
C594 H602 0.930 . S
C595 C594 1.394 . S
C595 C596 1.383 . S
C595 H603 0.929 . S
C596 C595 1.383 . S
C596 C597 1.377 1_545 S
C597 H581 0.930 . S
C597 C596 1.377 1_565 S
C597 C598 1.379 . S
C598 H582 0.931 . S
C598 C592 1.383 1_565 S
C598 C597 1.379 . S
H599 C593 0.959 . S
H600 C593 0.961 1_565 S
H601 C593 0.960 . S
H602 C594 0.930 . S
H603 C595 0.929 . S
H604 C612 0.929 . S
H605 C614 0.930 . S
H606 C616 0.930 . S
H607 C619 0.929 . S
H608 C622 0.930 . S
H609 C624 0.960 . S
H610 C624 0.960 . S
H611 C624 0.960 . S
C612 H604 0.929 . S
C612 C613 1.377 . S
C612 C614 1.384 . S
C613 C612 1.377 . S
C613 C619 1.390 1_545 S
C614 H605 0.930 . S
C614 C612 1.384 . S
C614 C615 1.372 . S
C615 C614 1.372 . S
C615 C616 1.400 1_545 S
C615 C620 1.490 . S
C616 H606 0.930 . S
C616 C615 1.400 1_565 S
C616 C619 1.386 . S
H617 C633 0.930 . S
H618 C634 0.931 . S
C619 H607 0.929 . S
C619 C613 1.390 1_565 S
C619 C616 1.386 . S
C620 C615 1.490 . S
C620 C622 1.395 . S
C620 C623 1.403 1_545 S
H621 C627 0.930 . S
C622 H608 0.930 . S
C622 C620 1.395 . S
C622 C625 1.403 . S
C623 C620 1.403 1_565 S
C623 C624 1.524 . S
C623 C627 1.400 . S
C624 H609 0.960 . S
C624 H610 0.960 . S
C624 H611 0.960 . S
C624 C623 1.524 . S
C625 C622 1.403 . S
C625 C626 1.392 . S
C625 C629 1.495 . S
C626 C625 1.392 . S
C626 C627 1.385 1_545 S
C626 C628 1.478 1_545 S
C627 H621 0.930 . S
C627 C623 1.400 . S
C627 C626 1.385 1_565 S
C628 C626 1.478 1_565 S
C628 C630 1.381 1_565 S
C628 C634 1.383 . S
C629 C625 1.495 . S
C629 H635 0.959 . S
C629 H636 0.961 . S
C629 H637 0.960 . S
C630 C628 1.381 1_545 S
C630 C631 1.394 . S
C630 H638 0.930 . S
C631 C630 1.394 . S
C631 C632 1.383 1_545 S
C631 H639 0.929 . S
C632 C631 1.383 1_565 S
C632 C633 1.377 . S
C633 H617 0.930 . S
C633 C632 1.377 . S
C633 C634 1.379 . S
C634 H618 0.931 . S
C634 C628 1.383 . S
C634 C633 1.379 . S
H635 C629 0.959 . S
H636 C629 0.961 . S
H637 C629 0.960 . S
H638 C630 0.930 . S
H639 C631 0.929 . S
H640 C648 0.929 . S
H641 C650 0.930 . S
H642 C652 0.930 . S
H643 C655 0.929 . S
H644 C658 0.930 . S
H645 C660 0.960 . S
H646 C660 0.960 . S
H647 C660 0.960 . S
C648 H640 0.929 . S
C648 C649 1.377 . S
C648 C650 1.384 . S
C649 C648 1.377 . S
C649 C655 1.390 . S
C650 H641 0.930 . S
C650 C648 1.384 . S
C650 C651 1.372 . S
C651 C650 1.372 . S
C651 C652 1.400 . S
C651 C656 1.490 . S
C652 H642 0.930 . S
C652 C651 1.400 . S
C652 C655 1.386 . S
H653 C669 0.930 . S
H654 C670 0.931 . S
C655 H643 0.929 . S
C655 C649 1.390 . S
C655 C652 1.386 . S
C656 C651 1.490 . S
C656 C658 1.395 . S
C656 C659 1.403 . S
H657 C663 0.930 . S
C658 H644 0.930 . S
C658 C656 1.395 . S
C658 C661 1.403 1_655 S
C659 C656 1.403 . S
C659 C660 1.524 . S
C659 C663 1.400 1_655 S
C660 H645 0.960 . S
C660 H646 0.960 . S
C660 H647 0.960 . S
C660 C659 1.524 . S
C661 C658 1.403 1_455 S
C661 C662 1.392 . S
C661 C665 1.495 . S
C662 C661 1.392 . S
C662 C663 1.385 . S
C662 C664 1.478 . S
C663 H657 0.930 . S
C663 C659 1.400 1_455 S
C663 C662 1.385 . S
C664 C662 1.478 . S
C664 C666 1.381 . S
C664 C670 1.383 . S
C665 C661 1.495 . S
C665 H671 0.959 . S
C665 H672 0.961 . S
C665 H673 0.960 . S
C666 C664 1.381 . S
C666 C667 1.394 . S
C666 H674 0.930 . S
C667 C666 1.394 . S
C667 C668 1.383 . S
C667 H675 0.929 . S
C668 C667 1.383 . S
C668 C669 1.377 . S
C669 H653 0.930 . S
C669 C668 1.377 . S
C669 C670 1.379 . S
C670 H654 0.931 . S
C670 C664 1.383 . S
C670 C669 1.379 . S
H671 C665 0.959 . S
H672 C665 0.961 . S
H673 C665 0.960 . S
H674 C666 0.930 . S
H675 C667 0.929 . S
H676 C684 0.929 . S
H677 C686 0.930 . S
H678 C688 0.930 . S
H679 C691 0.929 . S
H680 C694 0.930 . S
H681 C696 0.960 . S
H682 C696 0.960 . S
H683 C696 0.960 . S
C684 H676 0.929 . S
C684 C685 1.377 . S
C684 C686 1.384 . S
C685 C684 1.377 . S
C685 C691 1.390 . S
C686 H677 0.930 . S
C686 C684 1.384 . S
C686 C687 1.372 . S
C687 C686 1.372 . S
C687 C688 1.400 . S
C687 C692 1.490 . S
C688 H678 0.930 . S
C688 C687 1.400 . S
C688 C691 1.386 . S
H689 C705 0.930 . S
H690 C706 0.931 . S
C691 H679 0.929 . S
C691 C685 1.390 . S
C691 C688 1.386 . S
C692 C687 1.490 . S
C692 C694 1.395 . S
C692 C695 1.403 . S
H693 C699 0.930 . S
C694 H680 0.930 . S
C694 C692 1.395 . S
C694 C697 1.403 1_455 S
C695 C692 1.403 . S
C695 C696 1.524 . S
C695 C699 1.400 1_455 S
C696 H681 0.960 . S
C696 H682 0.960 . S
C696 H683 0.960 . S
C696 C695 1.524 . S
C697 C694 1.403 1_655 S
C697 C698 1.392 . S
C697 C701 1.495 . S
C698 C697 1.392 . S
C698 C699 1.385 . S
C698 C700 1.478 . S
C699 H693 0.930 . S
C699 C695 1.400 1_655 S
C699 C698 1.385 . S
C700 C698 1.478 . S
C700 C702 1.381 . S
C700 C706 1.383 . S
C701 C697 1.495 . S
C701 H707 0.959 . S
C701 H708 0.961 . S
C701 H709 0.960 . S
C702 C700 1.381 . S
C702 C703 1.394 . S
C702 H710 0.930 . S
C703 C702 1.394 . S
C703 C704 1.383 . S
C703 H711 0.929 . S
C704 C703 1.383 . S
C704 C705 1.377 . S
C705 H689 0.930 . S
C705 C704 1.377 . S
C705 C706 1.379 . S
C706 H690 0.931 . S
C706 C700 1.383 . S
C706 C705 1.379 . S
H707 C701 0.959 . S
H708 C701 0.961 . S
H709 C701 0.960 . S
H710 C702 0.930 . S
H711 C703 0.929 . S
H712 C720 0.929 . S
H713 C722 0.930 . S
H714 C724 0.930 . S
H715 C727 0.929 . S
H716 C730 0.930 . S
H717 C732 0.960 . S
H718 C732 0.960 . S
H719 C732 0.960 . S
C720 H712 0.929 . S
C720 C721 1.377 . S
C720 C722 1.384 . S
C721 C720 1.377 . S
C721 C727 1.390 . S
C722 H713 0.930 . S
C722 C720 1.384 . S
C722 C723 1.372 . S
C723 C722 1.372 . S
C723 C724 1.400 . S
C723 C728 1.490 . S
C724 H714 0.930 . S
C724 C723 1.400 . S
C724 C727 1.386 . S
H725 C741 0.930 . S
H726 C742 0.931 . S
C727 H715 0.929 . S
C727 C721 1.390 . S
C727 C724 1.386 . S
C728 C723 1.490 . S
C728 C730 1.395 . S
C728 C731 1.403 . S
H729 C735 0.930 . S
C730 H716 0.930 . S
C730 C728 1.395 . S
C730 C733 1.403 1_655 S
C731 C728 1.403 . S
C731 C732 1.524 . S
C731 C735 1.400 1_655 S
C732 H717 0.960 . S
C732 H718 0.960 . S
C732 H719 0.960 . S
C732 C731 1.524 . S
C733 C730 1.403 1_455 S
C733 C734 1.392 . S
C733 C737 1.495 . S
C734 C733 1.392 . S
C734 C735 1.385 . S
C734 C736 1.478 . S
C735 H729 0.930 . S
C735 C731 1.400 1_455 S
C735 C734 1.385 . S
C736 C734 1.478 . S
C736 C738 1.381 . S
C736 C742 1.383 . S
C737 C733 1.495 . S
C737 H743 0.959 . S
C737 H744 0.961 . S
C737 H745 0.960 . S
C738 C736 1.381 . S
C738 C739 1.394 . S
C738 H746 0.930 . S
C739 C738 1.394 . S
C739 C740 1.383 . S
C739 H747 0.929 . S
C740 C739 1.383 . S
C740 C741 1.377 . S
C741 H725 0.930 . S
C741 C740 1.377 . S
C741 C742 1.379 . S
C742 H726 0.931 . S
C742 C736 1.383 . S
C742 C741 1.379 . S
H743 C737 0.959 . S
H744 C737 0.961 . S
H745 C737 0.960 . S
H746 C738 0.930 . S
H747 C739 0.929 . S
H748 C756 0.929 . S
H749 C758 0.930 . S
H750 C760 0.930 . S
H751 C763 0.929 . S
H752 C766 0.930 . S
H753 C768 0.960 . S
H754 C768 0.960 . S
H755 C768 0.960 . S
C756 H748 0.929 . S
C756 C757 1.377 . S
C756 C758 1.384 . S
C757 C756 1.377 . S
C757 C763 1.390 . S
C758 H749 0.930 . S
C758 C756 1.384 . S
C758 C759 1.372 . S
C759 C758 1.372 . S
C759 C760 1.400 . S
C759 C764 1.490 . S
C760 H750 0.930 . S
C760 C759 1.400 . S
C760 C763 1.386 . S
H761 C777 0.930 . S
H762 C778 0.931 . S
C763 H751 0.929 . S
C763 C757 1.390 . S
C763 C760 1.386 . S
C764 C759 1.490 . S
C764 C766 1.395 . S
C764 C767 1.403 . S
H765 C771 0.930 . S
C766 H752 0.930 . S
C766 C764 1.395 . S
C766 C769 1.403 1_455 S
C767 C764 1.403 . S
C767 C768 1.524 . S
C767 C771 1.400 1_455 S
C768 H753 0.960 . S
C768 H754 0.960 . S
C768 H755 0.960 . S
C768 C767 1.524 . S
C769 C766 1.403 1_655 S
C769 C770 1.392 . S
C769 C773 1.495 . S
C770 C769 1.392 . S
C770 C771 1.385 . S
C770 C772 1.478 . S
C771 H765 0.930 . S
C771 C767 1.400 1_655 S
C771 C770 1.385 . S
C772 C770 1.478 . S
C772 C774 1.381 . S
C772 C778 1.383 . S
C773 C769 1.495 . S
C773 H779 0.959 . S
C773 H780 0.961 . S
C773 H781 0.960 . S
C774 C772 1.381 . S
C774 C775 1.394 . S
C774 H782 0.930 . S
C775 C774 1.394 . S
C775 C776 1.383 . S
C775 H783 0.929 . S
C776 C775 1.383 . S
C776 C777 1.377 . S
C777 H761 0.930 . S
C777 C776 1.377 . S
C777 C778 1.379 . S
C778 H762 0.931 . S
C778 C772 1.383 . S
C778 C777 1.379 . S
H779 C773 0.959 . S
H780 C773 0.961 . S
H781 C773 0.960 . S
H782 C774 0.930 . S
H783 C775 0.929 . S
H784 C792 0.929 . S
H785 C794 0.930 . S
H786 C796 0.930 . S
H787 C799 0.929 . S
H788 C802 0.930 . S
H789 C804 0.960 . S
H790 C804 0.960 . S
H791 C804 0.960 . S
C792 H784 0.929 . S
C792 C793 1.377 . S
C792 C794 1.384 . S
C793 C792 1.377 . S
C793 C799 1.390 . S
C794 H785 0.930 . S
C794 C792 1.384 . S
C794 C795 1.372 . S
C795 C794 1.372 . S
C795 C796 1.400 . S
C795 C800 1.490 . S
C796 H786 0.930 . S
C796 C795 1.400 . S
C796 C799 1.386 . S
H797 C813 0.930 . S
H798 C814 0.931 . S
C799 H787 0.929 . S
C799 C793 1.390 . S
C799 C796 1.386 . S
C800 C795 1.490 . S
C800 C802 1.395 . S
C800 C803 1.403 . S
H801 C807 0.930 . S
C802 H788 0.930 . S
C802 C800 1.395 . S
C802 C805 1.403 . S
C803 C800 1.403 . S
C803 C804 1.524 . S
C803 C807 1.400 . S
C804 H789 0.960 . S
C804 H790 0.960 . S
C804 H791 0.960 . S
C804 C803 1.524 . S
C805 C802 1.403 . S
C805 C806 1.392 . S
C805 C809 1.495 . S
C806 C805 1.392 . S
C806 C807 1.385 . S
C806 C808 1.478 . S
C807 H801 0.930 . S
C807 C803 1.400 . S
C807 C806 1.385 . S
C808 C806 1.478 . S
C808 C810 1.381 . S
C808 C814 1.383 . S
C809 C805 1.495 . S
C809 H815 0.959 . S
C809 H816 0.961 . S
C809 H817 0.960 . S
C810 C808 1.381 . S
C810 C811 1.394 . S
C810 H818 0.930 . S
C811 C810 1.394 . S
C811 C812 1.383 . S
C811 H819 0.929 . S
C812 C811 1.383 . S
C812 C813 1.377 . S
C813 H797 0.930 . S
C813 C812 1.377 . S
C813 C814 1.379 . S
C814 H798 0.931 . S
C814 C808 1.383 . S
C814 C813 1.379 . S
H815 C809 0.959 . S
H816 C809 0.961 . S
H817 C809 0.960 . S
H818 C810 0.930 . S
H819 C811 0.929 . S
H820 C828 0.929 . S
H821 C830 0.930 . S
H822 C832 0.930 . S
H823 C835 0.929 . S
H824 C838 0.930 . S
H825 C840 0.960 . S
H826 C840 0.960 . S
H827 C840 0.960 . S
C828 H820 0.929 . S
C828 C829 1.377 . S
C828 C830 1.384 . S
C829 C828 1.377 . S
C829 C835 1.390 . S
C830 H821 0.930 . S
C830 C828 1.384 . S
C830 C831 1.372 . S
C831 C830 1.372 . S
C831 C832 1.400 . S
C831 C836 1.490 . S
C832 H822 0.930 . S
C832 C831 1.400 . S
C832 C835 1.386 . S
H833 C849 0.930 . S
H834 C850 0.931 . S
C835 H823 0.929 . S
C835 C829 1.390 . S
C835 C832 1.386 . S
C836 C831 1.490 . S
C836 C838 1.395 . S
C836 C839 1.403 . S
H837 C843 0.930 . S
C838 H824 0.930 . S
C838 C836 1.395 . S
C838 C841 1.403 . S
C839 C836 1.403 . S
C839 C840 1.524 . S
C839 C843 1.400 . S
C840 H825 0.960 . S
C840 H826 0.960 . S
C840 H827 0.960 . S
C840 C839 1.524 . S
C841 C838 1.403 . S
C841 C842 1.392 . S
C841 C845 1.495 . S
C842 C841 1.392 . S
C842 C843 1.385 . S
C842 C844 1.478 . S
C843 H837 0.930 . S
C843 C839 1.400 . S
C843 C842 1.385 . S
C844 C842 1.478 . S
C844 C846 1.381 . S
C844 C850 1.383 . S
C845 C841 1.495 . S
C845 H851 0.959 . S
C845 H852 0.961 . S
C845 H853 0.960 . S
C846 C844 1.381 . S
C846 C847 1.394 . S
C846 H854 0.930 . S
C847 C846 1.394 . S
C847 C848 1.383 . S
C847 H855 0.929 . S
C848 C847 1.383 . S
C848 C849 1.377 . S
C849 H833 0.930 . S
C849 C848 1.377 . S
C849 C850 1.379 . S
C850 H834 0.931 . S
C850 C844 1.383 . S
C850 C849 1.379 . S
H851 C845 0.959 . S
H852 C845 0.961 . S
H853 C845 0.960 . S
H854 C846 0.930 . S
H855 C847 0.929 . S
H856 C864 0.929 . S
H857 C866 0.930 . S
H858 C868 0.930 . S
H859 C871 0.929 . S
H860 C874 0.930 . S
H861 C876 0.960 . S
H862 C876 0.960 . S
H863 C876 0.960 . S
C864 H856 0.929 . S
C864 C865 1.377 . S
C864 C866 1.384 . S
C865 C864 1.377 . S
C865 C871 1.390 . S
C866 H857 0.930 . S
C866 C864 1.384 . S
C866 C867 1.372 . S
C867 C866 1.372 . S
C867 C868 1.400 . S
C867 C872 1.490 . S
C868 H858 0.930 . S
C868 C867 1.400 . S
C868 C871 1.386 . S
H869 C885 0.930 . S
H870 C886 0.931 . S
C871 H859 0.929 . S
C871 C865 1.390 . S
C871 C868 1.386 . S
C872 C867 1.490 . S
C872 C874 1.395 . S
C872 C875 1.403 . S
H873 C879 0.930 . S
C874 H860 0.930 . S
C874 C872 1.395 . S
C874 C877 1.403 . S
C875 C872 1.403 . S
C875 C876 1.524 . S
C875 C879 1.400 . S
C876 H861 0.960 . S
C876 H862 0.960 . S
C876 H863 0.960 . S
C876 C875 1.524 . S
C877 C874 1.403 . S
C877 C878 1.392 . S
C877 C881 1.495 . S
C878 C877 1.392 . S
C878 C879 1.385 . S
C878 C880 1.478 . S
C879 H873 0.930 . S
C879 C875 1.400 . S
C879 C878 1.385 . S
C880 C878 1.478 . S
C880 C882 1.381 . S
C880 C886 1.383 . S
C881 C877 1.495 . S
C881 H887 0.959 . S
C881 H888 0.961 . S
C881 H889 0.960 . S
C882 C880 1.381 . S
C882 C883 1.394 . S
C882 H890 0.930 . S
C883 C882 1.394 . S
C883 C884 1.383 . S
C883 H891 0.929 . S
C884 C883 1.383 . S
C884 C885 1.377 . S
C885 H869 0.930 . S
C885 C884 1.377 . S
C885 C886 1.379 . S
C886 H870 0.931 . S
C886 C880 1.383 . S
C886 C885 1.379 . S
H887 C881 0.959 . S
H888 C881 0.961 . S
H889 C881 0.960 . S
H890 C882 0.930 . S
H891 C883 0.929 . S
H892 C900 0.929 . S
H893 C902 0.930 . S
H894 C904 0.930 . S
H895 C907 0.929 . S
H896 C910 0.930 . S
H897 C912 0.960 . S
H898 C912 0.960 . S
H899 C912 0.960 . S
C900 H892 0.929 . S
C900 C901 1.377 . S
C900 C902 1.384 . S
C901 C900 1.377 . S
C901 C907 1.390 . S
C902 H893 0.930 . S
C902 C900 1.384 . S
C902 C903 1.372 . S
C903 C902 1.372 . S
C903 C904 1.400 . S
C903 C908 1.490 . S
C904 H894 0.930 . S
C904 C903 1.400 . S
C904 C907 1.386 . S
H905 C921 0.930 . S
H906 C922 0.931 . S
C907 H895 0.929 . S
C907 C901 1.390 . S
C907 C904 1.386 . S
C908 C903 1.490 . S
C908 C910 1.395 . S
C908 C911 1.403 . S
H909 C915 0.930 . S
C910 H896 0.930 . S
C910 C908 1.395 . S
C910 C913 1.403 . S
C911 C908 1.403 . S
C911 C912 1.524 . S
C911 C915 1.400 . S
C912 H897 0.960 . S
C912 H898 0.960 . S
C912 H899 0.960 . S
C912 C911 1.524 . S
C913 C910 1.403 . S
C913 C914 1.392 . S
C913 C917 1.495 . S
C914 C913 1.392 . S
C914 C915 1.385 . S
C914 C916 1.478 . S
C915 H909 0.930 . S
C915 C911 1.400 . S
C915 C914 1.385 . S
C916 C914 1.478 . S
C916 C918 1.381 . S
C916 C922 1.383 . S
C917 C913 1.495 . S
C917 H923 0.959 . S
C917 H924 0.961 . S
C917 H925 0.960 . S
C918 C916 1.381 . S
C918 C919 1.394 . S
C918 H926 0.930 . S
C919 C918 1.394 . S
C919 C920 1.383 . S
C919 H927 0.929 . S
C920 C919 1.383 . S
C920 C921 1.377 . S
C921 H905 0.930 . S
C921 C920 1.377 . S
C921 C922 1.379 . S
C922 H906 0.931 . S
C922 C916 1.383 . S
C922 C921 1.379 . S
H923 C917 0.959 . S
H924 C917 0.961 . S
H925 C917 0.960 . S
H926 C918 0.930 . S
H927 C919 0.929 . S
H928 C936 0.929 . S
H929 C938 0.930 . S
H930 C940 0.930 . S
H931 C943 0.929 . S
H932 C946 0.930 . S
H933 C948 0.960 . S
H934 C948 0.960 . S
H935 C948 0.960 . S
C936 H928 0.929 . S
C936 C937 1.377 . S
C936 C938 1.384 . S
C937 C936 1.377 . S
C937 C943 1.390 . S
C938 H929 0.930 . S
C938 C936 1.384 . S
C938 C939 1.372 . S
C939 C938 1.372 . S
C939 C940 1.400 . S
C939 C944 1.490 . S
C940 H930 0.930 . S
C940 C939 1.400 . S
C940 C943 1.386 . S
H941 C957 0.930 . S
H942 C958 0.931 . S
C943 H931 0.929 . S
C943 C937 1.390 . S
C943 C940 1.386 . S
C944 C939 1.490 . S
C944 C946 1.395 . S
C944 C947 1.403 . S
H945 C951 0.930 . S
C946 H932 0.930 . S
C946 C944 1.395 . S
C946 C949 1.403 . S
C947 C944 1.403 . S
C947 C948 1.524 . S
C947 C951 1.400 . S
C948 H933 0.960 . S
C948 H934 0.960 . S
C948 H935 0.960 . S
C948 C947 1.524 . S
C949 C946 1.403 . S
C949 C950 1.392 . S
C949 C953 1.495 . S
C950 C949 1.392 . S
C950 C951 1.385 . S
C950 C952 1.478 . S
C951 H945 0.930 . S
C951 C947 1.400 . S
C951 C950 1.385 . S
C952 C950 1.478 . S
C952 C954 1.381 . S
C952 C958 1.383 . S
C953 C949 1.495 . S
C953 H959 0.959 . S
C953 H960 0.961 . S
C953 H961 0.960 . S
C954 C952 1.381 . S
C954 C955 1.394 . S
C954 H962 0.930 . S
C955 C954 1.394 . S
C955 C956 1.383 . S
C955 H963 0.929 . S
C956 C955 1.383 . S
C956 C957 1.377 . S
C957 H941 0.930 . S
C957 C956 1.377 . S
C957 C958 1.379 . S
C958 H942 0.931 . S
C958 C952 1.383 . S
C958 C957 1.379 . S
H959 C953 0.959 . S
H960 C953 0.961 . S
H961 C953 0.960 . S
H962 C954 0.930 . S
H963 C955 0.929 . S
H964 C972 0.929 . S
H965 C974 0.930 . S
H966 C976 0.930 . S
H967 C979 0.929 . S
H968 C982 0.930 . S
H969 C984 0.960 . S
H970 C984 0.960 . S
H971 C984 0.960 . S
C972 H964 0.929 . S
C972 C973 1.377 . S
C972 C974 1.384 . S
C973 C972 1.377 . S
C973 C979 1.390 . S
C974 H965 0.930 . S
C974 C972 1.384 . S
C974 C975 1.372 . S
C975 C974 1.372 . S
C975 C976 1.400 . S
C975 C980 1.490 . S
C976 H966 0.930 . S
C976 C975 1.400 . S
C976 C979 1.386 . S
H977 C993 0.930 . S
H978 C994 0.931 . S
C979 H967 0.929 . S
C979 C973 1.390 . S
C979 C976 1.386 . S
C980 C975 1.490 . S
C980 C982 1.395 . S
C980 C983 1.403 . S
H981 C987 0.930 . S
C982 H968 0.930 . S
C982 C980 1.395 . S
C982 C985 1.403 . S
C983 C980 1.403 . S
C983 C984 1.524 . S
C983 C987 1.400 . S
C984 H969 0.960 . S
C984 H970 0.960 . S
C984 H971 0.960 . S
C984 C983 1.524 . S
C985 C982 1.403 . S
C985 C986 1.392 . S
C985 C989 1.495 . S
C986 C985 1.392 . S
C986 C987 1.385 . S
C986 C988 1.478 . S
C987 H981 0.930 . S
C987 C983 1.400 . S
C987 C986 1.385 . S
C988 C986 1.478 . S
C988 C990 1.381 . S
C988 C994 1.383 . S
C989 C985 1.495 . S
C989 H995 0.959 . S
C989 H996 0.961 . S
C989 H997 0.960 . S
C990 C988 1.381 . S
C990 C991 1.394 . S
C990 H998 0.930 . S
C991 C990 1.394 . S
C991 C992 1.383 . S
C991 H999 0.929 . S
C992 C991 1.383 . S
C992 C993 1.377 . S
C993 H977 0.930 . S
C993 C992 1.377 . S
C993 C994 1.379 . S
C994 H978 0.931 . S
C994 C988 1.383 . S
C994 C993 1.379 . S
H995 C989 0.959 . S
H996 C989 0.961 . S
H997 C989 0.960 . S
H998 C990 0.930 . S
H999 C991 0.929 . S
H1000 C1008 0.929 . S
H1001 C1010 0.930 . S
H1002 C1012 0.930 . S
H1003 C1015 0.929 . S
H1004 C1018 0.930 . S
H1005 C1020 0.960 . S
H1006 C1020 0.960 . S
H1007 C1020 0.960 . S
C1008 H1000 0.929 . S
C1008 C1009 1.377 . S
C1008 C1010 1.384 . S
C1009 C1008 1.377 . S
C1009 C1015 1.390 . S
C1010 H1001 0.930 . S
C1010 C1008 1.384 . S
C1010 C1011 1.372 . S
C1011 C1010 1.372 . S
C1011 C1012 1.400 . S
C1011 C1016 1.490 . S
C1012 H1002 0.930 . S
C1012 C1011 1.400 . S
C1012 C1015 1.386 . S
H1013 C1029 0.930 . S
H1014 C1030 0.931 . S
C1015 H1003 0.929 . S
C1015 C1009 1.390 . S
C1015 C1012 1.386 . S
C1016 C1011 1.490 . S
C1016 C1018 1.395 . S
C1016 C1019 1.403 . S
H1017 C1023 0.930 . S
C1018 H1004 0.930 . S
C1018 C1016 1.395 . S
C1018 C1021 1.403 . S
C1019 C1016 1.403 . S
C1019 C1020 1.524 . S
C1019 C1023 1.400 . S
C1020 H1005 0.960 . S
C1020 H1006 0.960 . S
C1020 H1007 0.960 . S
C1020 C1019 1.524 . S
C1021 C1018 1.403 . S
C1021 C1022 1.392 . S
C1021 C1025 1.495 . S
C1022 C1021 1.392 . S
C1022 C1023 1.385 . S
C1022 C1024 1.478 . S
C1023 H1017 0.930 . S
C1023 C1019 1.400 . S
C1023 C1022 1.385 . S
C1024 C1022 1.478 . S
C1024 C1026 1.381 . S
C1024 C1030 1.383 . S
C1025 C1021 1.495 . S
C1025 H1031 0.959 . S
C1025 H1032 0.961 . S
C1025 H1033 0.960 . S
C1026 C1024 1.381 . S
C1026 C1027 1.394 . S
C1026 H1034 0.930 . S
C1027 C1026 1.394 . S
C1027 C1028 1.383 . S
C1027 H1035 0.929 . S
C1028 C1027 1.383 . S
C1028 C1029 1.377 . S
C1029 H1013 0.930 . S
C1029 C1028 1.377 . S
C1029 C1030 1.379 . S
C1030 H1014 0.931 . S
C1030 C1024 1.383 . S
C1030 C1029 1.379 . S
H1031 C1025 0.959 . S
H1032 C1025 0.961 . S
H1033 C1025 0.960 . S
H1034 C1026 0.930 . S
H1035 C1027 0.929 . S
H1036 C1044 0.929 . S
H1037 C1046 0.930 . S
H1038 C1048 0.930 . S
H1039 C1051 0.929 . S
H1040 C1054 0.930 . S
H1041 C1056 0.960 . S
H1042 C1056 0.960 . S
H1043 C1056 0.960 . S
C1044 H1036 0.929 . S
C1044 C1045 1.377 . S
C1044 C1046 1.384 . S
C1045 C1044 1.377 . S
C1045 C1051 1.390 . S
C1046 H1037 0.930 . S
C1046 C1044 1.384 . S
C1046 C1047 1.372 . S
C1047 C1046 1.372 . S
C1047 C1048 1.400 . S
C1047 C1052 1.490 . S
C1048 H1038 0.930 . S
C1048 C1047 1.400 . S
C1048 C1051 1.386 . S
H1049 C1065 0.930 . S
H1050 C1066 0.931 . S
C1051 H1039 0.929 . S
C1051 C1045 1.390 . S
C1051 C1048 1.386 . S
C1052 C1047 1.490 . S
C1052 C1054 1.395 . S
C1052 C1055 1.403 . S
H1053 C1059 0.930 . S
C1054 H1040 0.930 . S
C1054 C1052 1.395 . S
C1054 C1057 1.403 . S
C1055 C1052 1.403 . S
C1055 C1056 1.524 . S
C1055 C1059 1.400 . S
C1056 H1041 0.960 . S
C1056 H1042 0.960 . S
C1056 H1043 0.960 . S
C1056 C1055 1.524 . S
C1057 C1054 1.403 . S
C1057 C1058 1.392 . S
C1057 C1061 1.495 . S
C1058 C1057 1.392 . S
C1058 C1059 1.385 . S
C1058 C1060 1.478 . S
C1059 H1053 0.930 . S
C1059 C1055 1.400 . S
C1059 C1058 1.385 . S
C1060 C1058 1.478 . S
C1060 C1062 1.381 . S
C1060 C1066 1.383 . S
C1061 C1057 1.495 . S
C1061 H1067 0.959 . S
C1061 H1068 0.961 . S
C1061 H1069 0.960 . S
C1062 C1060 1.381 . S
C1062 C1063 1.394 . S
C1062 H1070 0.930 . S
C1063 C1062 1.394 . S
C1063 C1064 1.383 . S
C1063 H1071 0.929 . S
C1064 C1063 1.383 . S
C1064 C1065 1.377 . S
C1065 H1049 0.930 . S
C1065 C1064 1.377 . S
C1065 C1066 1.379 . S
C1066 H1050 0.931 . S
C1066 C1060 1.383 . S
C1066 C1065 1.379 . S
H1067 C1061 0.959 . S
H1068 C1061 0.961 . S
H1069 C1061 0.960 . S
H1070 C1062 0.930 . S
H1071 C1063 0.929 . S
H1072 C1080 0.929 1_565 S
H1073 C1082 0.930 . S
H1074 C1084 0.930 . S
H1075 C1087 0.929 . S
H1076 C1090 0.930 . S
H1077 C1092 0.960 . S
H1078 C1092 0.960 . S
H1079 C1092 0.960 . S
C1080 H1072 0.929 1_545 S
C1080 C1081 1.377 . S
C1080 C1082 1.384 1_545 S
C1081 C1080 1.377 . S
C1081 C1087 1.390 . S
C1082 H1073 0.930 . S
C1082 C1080 1.384 1_565 S
C1082 C1083 1.372 1_565 S
C1083 C1082 1.372 1_545 S
C1083 C1084 1.400 . S
C1083 C1088 1.490 . S
C1084 H1074 0.930 . S
C1084 C1083 1.400 . S
C1084 C1087 1.386 . S
H1085 C1101 0.930 . S
H1086 C1102 0.931 1_545 S
C1087 H1075 0.929 . S
C1087 C1081 1.390 . S
C1087 C1084 1.386 . S
C1088 C1083 1.490 . S
C1088 C1090 1.395 1_545 S
C1088 C1091 1.403 . S
H1089 C1095 0.930 . S
C1090 H1076 0.930 . S
C1090 C1088 1.395 1_565 S
C1090 C1093 1.403 . S
C1091 C1088 1.403 . S
C1091 C1092 1.524 . S
C1091 C1095 1.400 . S
C1092 H1077 0.960 . S
C1092 H1078 0.960 . S
C1092 H1079 0.960 . S
C1092 C1091 1.524 . S
C1093 C1090 1.403 . S
C1093 C1094 1.392 . S
C1093 C1097 1.495 . S
C1094 C1093 1.392 . S
C1094 C1095 1.385 1_565 S
C1094 C1096 1.478 . S
C1095 H1089 0.930 . S
C1095 C1091 1.400 . S
C1095 C1094 1.385 1_545 S
C1096 C1094 1.478 . S
C1096 C1098 1.381 . S
C1096 C1102 1.383 . S
C1097 C1093 1.495 . S
C1097 H1103 0.959 . S
C1097 H1104 0.961 . S
C1097 H1105 0.960 . S
C1098 C1096 1.381 . S
C1098 C1099 1.394 . S
C1098 H1106 0.930 . S
C1099 C1098 1.394 . S
C1099 C1100 1.383 . S
C1099 H1107 0.929 . S
C1100 C1099 1.383 . S
C1100 C1101 1.377 . S
C1101 H1085 0.930 . S
C1101 C1100 1.377 . S
C1101 C1102 1.379 . S
C1102 H1086 0.931 1_565 S
C1102 C1096 1.383 . S
C1102 C1101 1.379 . S
H1103 C1097 0.959 . S
H1104 C1097 0.961 . S
H1105 C1097 0.960 . S
H1106 C1098 0.930 . S
H1107 C1099 0.929 . S
H1108 C1116 0.929 . S
H1109 C1118 0.930 . S
H1110 C1120 0.930 1_565 S
H1111 C1123 0.929 . S
H1112 C1126 0.930 . S
H1113 C1128 0.960 . S
H1114 C1128 0.960 . S
H1115 C1128 0.960 . S
C1116 H1108 0.929 . S
C1116 C1117 1.377 . S
C1116 C1118 1.384 . S
C1117 C1116 1.377 . S
C1117 C1123 1.390 . S
C1118 H1109 0.930 . S
C1118 C1116 1.384 . S
C1118 C1119 1.372 . S
C1119 C1118 1.372 . S
C1119 C1120 1.400 . S
C1119 C1124 1.490 . S
C1120 H1110 0.930 1_545 S
C1120 C1119 1.400 . S
C1120 C1123 1.386 . S
H1121 C1137 0.930 . S
H1122 C1138 0.931 . S
C1123 H1111 0.929 . S
C1123 C1117 1.390 . S
C1123 C1120 1.386 . S
C1124 C1119 1.490 . S
C1124 C1126 1.395 1_545 S
C1124 C1127 1.403 . S
H1125 C1131 0.930 . S
C1126 H1112 0.930 . S
C1126 C1124 1.395 1_565 S
C1126 C1129 1.403 . S
C1127 C1124 1.403 . S
C1127 C1128 1.524 . S
C1127 C1131 1.400 . S
C1128 H1113 0.960 . S
C1128 H1114 0.960 . S
C1128 H1115 0.960 . S
C1128 C1127 1.524 . S
C1129 C1126 1.403 . S
C1129 C1130 1.392 . S
C1129 C1133 1.495 . S
C1130 C1129 1.392 . S
C1130 C1131 1.385 1_565 S
C1130 C1132 1.478 . S
C1131 H1125 0.930 . S
C1131 C1127 1.400 . S
C1131 C1130 1.385 1_545 S
C1132 C1130 1.478 . S
C1132 C1134 1.381 . S
C1132 C1138 1.383 . S
C1133 C1129 1.495 . S
C1133 H1139 0.959 . S
C1133 H1140 0.961 . S
C1133 H1141 0.960 . S
C1134 C1132 1.381 . S
C1134 C1135 1.394 . S
C1134 H1142 0.930 1_565 S
C1135 C1134 1.394 . S
C1135 C1136 1.383 . S
C1135 H1143 0.929 1_565 S
C1136 C1135 1.383 . S
C1136 C1137 1.377 . S
C1137 H1121 0.930 . S
C1137 C1136 1.377 . S
C1137 C1138 1.379 . S
C1138 H1122 0.931 . S
C1138 C1132 1.383 . S
C1138 C1137 1.379 . S
H1139 C1133 0.959 . S
H1140 C1133 0.961 . S
H1141 C1133 0.960 . S
H1142 C1134 0.930 1_545 S
H1143 C1135 0.929 1_545 S
H1144 C1152 0.929 . S
H1145 C1154 0.930 . S
H1146 C1156 0.930 1_565 S
H1147 C1159 0.929 . S
H1148 C1162 0.930 . S
H1149 C1164 0.960 . S
H1150 C1164 0.960 . S
H1151 C1164 0.960 . S
C1152 H1144 0.929 . S
C1152 C1153 1.377 . S
C1152 C1154 1.384 . S
C1153 C1152 1.377 . S
C1153 C1159 1.390 . S
C1154 H1145 0.930 . S
C1154 C1152 1.384 . S
C1154 C1155 1.372 . S
C1155 C1154 1.372 . S
C1155 C1156 1.400 . S
C1155 C1160 1.490 . S
C1156 H1146 0.930 1_545 S
C1156 C1155 1.400 . S
C1156 C1159 1.386 . S
H1157 C1173 0.930 . S
H1158 C1174 0.931 . S
C1159 H1147 0.929 . S
C1159 C1153 1.390 . S
C1159 C1156 1.386 . S
C1160 C1155 1.490 . S
C1160 C1162 1.395 1_545 S
C1160 C1163 1.403 . S
H1161 C1167 0.930 . S
C1162 H1148 0.930 . S
C1162 C1160 1.395 1_565 S
C1162 C1165 1.403 . S
C1163 C1160 1.403 . S
C1163 C1164 1.524 . S
C1163 C1167 1.400 . S
C1164 H1149 0.960 . S
C1164 H1150 0.960 . S
C1164 H1151 0.960 . S
C1164 C1163 1.524 . S
C1165 C1162 1.403 . S
C1165 C1166 1.392 . S
C1165 C1169 1.495 . S
C1166 C1165 1.392 . S
C1166 C1167 1.385 1_565 S
C1166 C1168 1.478 . S
C1167 H1161 0.930 . S
C1167 C1163 1.400 . S
C1167 C1166 1.385 1_545 S
C1168 C1166 1.478 . S
C1168 C1170 1.381 . S
C1168 C1174 1.383 . S
C1169 C1165 1.495 . S
C1169 H1175 0.959 . S
C1169 H1176 0.961 . S
C1169 H1177 0.960 . S
C1170 C1168 1.381 . S
C1170 C1171 1.394 . S
C1170 H1178 0.930 1_565 S
C1171 C1170 1.394 . S
C1171 C1172 1.383 . S
C1171 H1179 0.929 1_565 S
C1172 C1171 1.383 . S
C1172 C1173 1.377 . S
C1173 H1157 0.930 . S
C1173 C1172 1.377 . S
C1173 C1174 1.379 . S
C1174 H1158 0.931 . S
C1174 C1168 1.383 . S
C1174 C1173 1.379 . S
H1175 C1169 0.959 . S
H1176 C1169 0.961 . S
H1177 C1169 0.960 . S
H1178 C1170 0.930 1_545 S
H1179 C1171 0.929 1_545 S
H1180 C1188 0.929 . S
H1181 C1190 0.930 . S
H1182 C1192 0.930 . S
H1183 C1195 0.929 . S
H1184 C1198 0.930 . S
H1185 C1200 0.960 . S
H1186 C1200 0.960 . S
H1187 C1200 0.960 . S
C1188 H1180 0.929 . S
C1188 C1189 1.377 . S
C1188 C1190 1.384 . S
C1189 C1188 1.377 . S
C1189 C1195 1.390 . S
C1190 H1181 0.930 . S
C1190 C1188 1.384 . S
C1190 C1191 1.372 . S
C1191 C1190 1.372 . S
C1191 C1192 1.400 . S
C1191 C1196 1.490 . S
C1192 H1182 0.930 . S
C1192 C1191 1.400 . S
C1192 C1195 1.386 . S
H1193 C1209 0.930 . S
H1194 C1210 0.931 . S
C1195 H1183 0.929 . S
C1195 C1189 1.390 . S
C1195 C1192 1.386 . S
C1196 C1191 1.490 . S
C1196 C1198 1.395 . S
C1196 C1199 1.403 1_565 S
H1197 C1203 0.930 . S
C1198 H1184 0.930 . S
C1198 C1196 1.395 . S
C1198 C1201 1.403 . S
C1199 C1196 1.403 1_545 S
C1199 C1200 1.524 . S
C1199 C1203 1.400 . S
C1200 H1185 0.960 . S
C1200 H1186 0.960 . S
C1200 H1187 0.960 . S
C1200 C1199 1.524 . S
C1201 C1198 1.403 . S
C1201 C1202 1.392 1_565 S
C1201 C1205 1.495 . S
C1202 C1201 1.392 1_545 S
C1202 C1203 1.385 . S
C1202 C1204 1.478 . S
C1203 H1197 0.930 . S
C1203 C1199 1.400 . S
C1203 C1202 1.385 . S
C1204 C1202 1.478 . S
C1204 C1206 1.381 . S
C1204 C1210 1.383 . S
C1205 C1201 1.495 . S
C1205 H1211 0.959 . S
C1205 H1212 0.961 . S
C1205 H1213 0.960 . S
C1206 C1204 1.381 . S
C1206 C1207 1.394 . S
C1206 H1214 0.930 . S
C1207 C1206 1.394 . S
C1207 C1208 1.383 . S
C1207 H1215 0.929 . S
C1208 C1207 1.383 . S
C1208 C1209 1.377 . S
C1209 H1193 0.930 . S
C1209 C1208 1.377 . S
C1209 C1210 1.379 . S
C1210 H1194 0.931 . S
C1210 C1204 1.383 . S
C1210 C1209 1.379 . S
H1211 C1205 0.959 . S
H1212 C1205 0.961 . S
H1213 C1205 0.960 . S
H1214 C1206 0.930 . S
H1215 C1207 0.929 . S
H1216 C1224 0.929 . S
H1217 C1226 0.930 . S
H1218 C1228 0.930 . S
H1219 C1231 0.929 . S
H1220 C1234 0.930 . S
H1221 C1236 0.960 . S
H1222 C1236 0.960 . S
H1223 C1236 0.960 . S
C1224 H1216 0.929 . S
C1224 C1225 1.377 . S
C1224 C1226 1.384 . S
C1225 C1224 1.377 . S
C1225 C1231 1.390 . S
C1226 H1217 0.930 . S
C1226 C1224 1.384 . S
C1226 C1227 1.372 . S
C1227 C1226 1.372 . S
C1227 C1228 1.400 . S
C1227 C1232 1.490 . S
C1228 H1218 0.930 . S
C1228 C1227 1.400 . S
C1228 C1231 1.386 . S
H1229 C1245 0.930 . S
H1230 C1246 0.931 . S
C1231 H1219 0.929 . S
C1231 C1225 1.390 . S
C1231 C1228 1.386 . S
C1232 C1227 1.490 . S
C1232 C1234 1.395 . S
C1232 C1235 1.403 . S
H1233 C1239 0.930 . S
C1234 H1220 0.930 . S
C1234 C1232 1.395 . S
C1234 C1237 1.403 . S
C1235 C1232 1.403 . S
C1235 C1236 1.524 . S
C1235 C1239 1.400 . S
C1236 H1221 0.960 . S
C1236 H1222 0.960 . S
C1236 H1223 0.960 . S
C1236 C1235 1.524 . S
C1237 C1234 1.403 . S
C1237 C1238 1.392 . S
C1237 C1241 1.495 . S
C1238 C1237 1.392 . S
C1238 C1239 1.385 . S
C1238 C1240 1.478 . S
C1239 H1233 0.930 . S
C1239 C1235 1.400 . S
C1239 C1238 1.385 . S
C1240 C1238 1.478 . S
C1240 C1242 1.381 . S
C1240 C1246 1.383 . S
C1241 C1237 1.495 . S
C1241 H1247 0.959 . S
C1241 H1248 0.961 . S
C1241 H1249 0.960 . S
C1242 C1240 1.381 . S
C1242 C1243 1.394 . S
C1242 H1250 0.930 . S
C1243 C1242 1.394 . S
C1243 C1244 1.383 . S
C1243 H1251 0.929 . S
C1244 C1243 1.383 . S
C1244 C1245 1.377 . S
C1245 H1229 0.930 . S
C1245 C1244 1.377 . S
C1245 C1246 1.379 . S
C1246 H1230 0.931 . S
C1246 C1240 1.383 . S
C1246 C1245 1.379 . S
H1247 C1241 0.959 . S
H1248 C1241 0.961 . S
H1249 C1241 0.960 . S
H1250 C1242 0.930 . S
H1251 C1243 0.929 . S
H1252 C1260 0.929 . S
H1253 C1262 0.930 . S
H1254 C1264 0.930 . S
H1255 C1267 0.929 . S
H1256 C1270 0.930 . S
H1257 C1272 0.960 . S
H1258 C1272 0.960 . S
H1259 C1272 0.960 . S
C1260 H1252 0.929 . S
C1260 C1261 1.377 . S
C1260 C1262 1.384 . S
C1261 C1260 1.377 . S
C1261 C1267 1.390 . S
C1262 H1253 0.930 . S
C1262 C1260 1.384 . S
C1262 C1263 1.372 . S
C1263 C1262 1.372 . S
C1263 C1264 1.400 . S
C1263 C1268 1.490 . S
C1264 H1254 0.930 . S
C1264 C1263 1.400 . S
C1264 C1267 1.386 . S
H1265 C1281 0.930 . S
H1266 C1282 0.931 . S
C1267 H1255 0.929 . S
C1267 C1261 1.390 . S
C1267 C1264 1.386 . S
C1268 C1263 1.490 . S
C1268 C1270 1.395 . S
C1268 C1271 1.403 . S
H1269 C1275 0.930 . S
C1270 H1256 0.930 . S
C1270 C1268 1.395 . S
C1270 C1273 1.403 . S
C1271 C1268 1.403 . S
C1271 C1272 1.524 . S
C1271 C1275 1.400 . S
C1272 H1257 0.960 . S
C1272 H1258 0.960 . S
C1272 H1259 0.960 . S
C1272 C1271 1.524 . S
C1273 C1270 1.403 . S
C1273 C1274 1.392 . S
C1273 C1277 1.495 . S
C1274 C1273 1.392 . S
C1274 C1275 1.385 . S
C1274 C1276 1.478 . S
C1275 H1269 0.930 . S
C1275 C1271 1.400 . S
C1275 C1274 1.385 . S
C1276 C1274 1.478 . S
C1276 C1278 1.381 . S
C1276 C1282 1.383 . S
C1277 C1273 1.495 . S
C1277 H1283 0.959 . S
C1277 H1284 0.961 . S
C1277 H1285 0.960 . S
C1278 C1276 1.381 . S
C1278 C1279 1.394 . S
C1278 H1286 0.930 . S
C1279 C1278 1.394 . S
C1279 C1280 1.383 . S
C1279 H1287 0.929 . S
C1280 C1279 1.383 . S
C1280 C1281 1.377 . S
C1281 H1265 0.930 . S
C1281 C1280 1.377 . S
C1281 C1282 1.379 . S
C1282 H1266 0.931 . S
C1282 C1276 1.383 . S
C1282 C1281 1.379 . S
H1283 C1277 0.959 . S
H1284 C1277 0.961 . S
H1285 C1277 0.960 . S
H1286 C1278 0.930 . S
H1287 C1279 0.929 . S
H1288 C1296 0.929 . S
H1289 C1298 0.930 . S
H1290 C1300 0.930 . S
H1291 C1303 0.929 . S
H1292 C1306 0.930 . S
H1293 C1308 0.960 . S
H1294 C1308 0.960 . S
H1295 C1308 0.960 . S
C1296 H1288 0.929 . S
C1296 C1297 1.377 . S
C1296 C1298 1.384 . S
C1297 C1296 1.377 . S
C1297 C1303 1.390 . S
C1298 H1289 0.930 . S
C1298 C1296 1.384 . S
C1298 C1299 1.372 . S
C1299 C1298 1.372 . S
C1299 C1300 1.400 . S
C1299 C1304 1.490 . S
C1300 H1290 0.930 . S
C1300 C1299 1.400 . S
C1300 C1303 1.386 . S
H1301 C1317 0.930 . S
H1302 C1318 0.931 . S
C1303 H1291 0.929 . S
C1303 C1297 1.390 . S
C1303 C1300 1.386 . S
C1304 C1299 1.490 . S
C1304 C1306 1.395 . S
C1304 C1307 1.403 . S
H1305 C1311 0.930 . S
C1306 H1292 0.930 . S
C1306 C1304 1.395 . S
C1306 C1309 1.403 . S
C1307 C1304 1.403 . S
C1307 C1308 1.524 . S
C1307 C1311 1.400 . S
C1308 H1293 0.960 . S
C1308 H1294 0.960 . S
C1308 H1295 0.960 . S
C1308 C1307 1.524 . S
C1309 C1306 1.403 . S
C1309 C1310 1.392 . S
C1309 C1313 1.495 . S
C1310 C1309 1.392 . S
C1310 C1311 1.385 . S
C1310 C1312 1.478 . S
C1311 H1305 0.930 . S
C1311 C1307 1.400 . S
C1311 C1310 1.385 . S
C1312 C1310 1.478 . S
C1312 C1314 1.381 . S
C1312 C1318 1.383 . S
C1313 C1309 1.495 . S
C1313 H1319 0.959 . S
C1313 H1320 0.961 . S
C1313 H1321 0.960 . S
C1314 C1312 1.381 . S
C1314 C1315 1.394 . S
C1314 H1322 0.930 . S
C1315 C1314 1.394 . S
C1315 C1316 1.383 . S
C1315 H1323 0.929 . S
C1316 C1315 1.383 . S
C1316 C1317 1.377 . S
C1317 H1301 0.930 . S
C1317 C1316 1.377 . S
C1317 C1318 1.379 . S
C1318 H1302 0.931 . S
C1318 C1312 1.383 . S
C1318 C1317 1.379 . S
H1319 C1313 0.959 . S
H1320 C1313 0.961 . S
H1321 C1313 0.960 . S
H1322 C1314 0.930 . S
H1323 C1315 0.929 . S
H1324 C1332 0.929 . S
H1325 C1334 0.930 . S
H1326 C1336 0.930 . S
H1327 C1339 0.929 . S
H1328 C1342 0.930 . S
H1329 C1344 0.960 . S
H1330 C1344 0.960 . S
H1331 C1344 0.960 . S
C1332 H1324 0.929 . S
C1332 C1333 1.377 . S
C1332 C1334 1.384 . S
C1333 C1332 1.377 . S
C1333 C1339 1.390 . S
C1334 H1325 0.930 . S
C1334 C1332 1.384 . S
C1334 C1335 1.372 . S
C1335 C1334 1.372 . S
C1335 C1336 1.400 . S
C1335 C1340 1.490 . S
C1336 H1326 0.930 . S
C1336 C1335 1.400 . S
C1336 C1339 1.386 . S
H1337 C1353 0.930 . S
H1338 C1354 0.931 . S
C1339 H1327 0.929 . S
C1339 C1333 1.390 . S
C1339 C1336 1.386 . S
C1340 C1335 1.490 . S
C1340 C1342 1.395 . S
C1340 C1343 1.403 . S
H1341 C1347 0.930 . S
C1342 H1328 0.930 . S
C1342 C1340 1.395 . S
C1342 C1345 1.403 . S
C1343 C1340 1.403 . S
C1343 C1344 1.524 . S
C1343 C1347 1.400 . S
C1344 H1329 0.960 . S
C1344 H1330 0.960 . S
C1344 H1331 0.960 . S
C1344 C1343 1.524 . S
C1345 C1342 1.403 . S
C1345 C1346 1.392 . S
C1345 C1349 1.495 . S
C1346 C1345 1.392 . S
C1346 C1347 1.385 . S
C1346 C1348 1.478 . S
C1347 H1341 0.930 . S
C1347 C1343 1.400 . S
C1347 C1346 1.385 . S
C1348 C1346 1.478 . S
C1348 C1350 1.381 . S
C1348 C1354 1.383 . S
C1349 C1345 1.495 . S
C1349 H1355 0.959 . S
C1349 H1356 0.961 . S
C1349 H1357 0.960 . S
C1350 C1348 1.381 . S
C1350 C1351 1.394 . S
C1350 H1358 0.930 . S
C1351 C1350 1.394 . S
C1351 C1352 1.383 . S
C1351 H1359 0.929 . S
C1352 C1351 1.383 . S
C1352 C1353 1.377 . S
C1353 H1337 0.930 . S
C1353 C1352 1.377 . S
C1353 C1354 1.379 . S
C1354 H1338 0.931 . S
C1354 C1348 1.383 . S
C1354 C1353 1.379 . S
H1355 C1349 0.959 . S
H1356 C1349 0.961 . S
H1357 C1349 0.960 . S
H1358 C1350 0.930 . S
H1359 C1351 0.929 . S
C217 C1 1.528 . S
C236 C66 1.526 . S
C253 C53 1.520 . S
C272 C14 1.521 . S
C289 C27 1.530 . S
C308 C92 1.507 . S
C325 C79 1.515 . S
C344 C40 1.526 . S
C361 C170 1.521 . S
C380 C105 1.525 . S
C397 C157 1.515 . S
C416 C118 1.526 . S
C433 C196 1.515 . S
C452 C131 1.530 . S
C469 C144 1.530 . S
C488 C183 1.502 . S
C505 C23 1.513 . S
C524 C10 1.497 . S
C541 C36 1.518 . S
C560 C49 1.518 . S
C577 C62 1.531 . S
C596 C75 1.524 . S
C613 C88 1.530 . S
C632 C101 1.526 . S
C649 C114 1.512 . S
C668 C127 1.498 . S
C685 C153 1.513 . S
C704 C140 1.497 . S
C721 C179 1.532 . S
C740 C166 1.529 . S
C757 C192 1.530 . S
C776 C205 1.529 . S
C793 C122 1.511 . S
C812 C5 1.523 . S
C829 C18 1.512 . S
C848 C109 1.523 . S
C865 C148 1.508 . S
C884 C31 1.490 . S
C901 C44 1.509 . S
C920 C135 1.517 . S
C937 C57 1.531 . S
C956 C174 1.533 . S
C973 C161 1.531 . S
C992 C70 1.533 . S
C1009 C83 1.531 . S
C1028 C200 1.533 . S
C1045 C187 1.530 . S
C1064 C96 1.532 . S
C1081 C3 1.535 . S
C1100 C29 1.527 . S
C1117 C42 1.532 . S
C1136 C16 1.526 . S
C1153 C81 1.517 . S
C1172 C55 1.515 . S
C1189 C94 1.510 . S
C1208 C68 1.495 . S
C1225 C133 1.536 . S
C1244 C107 1.538 . S
C1261 C120 1.532 . S
C1280 C146 1.524 . S
C1297 C185 1.511 . S
C1316 C159 1.524 . S
C1333 C172 1.509 . S
C1352 C198 1.516 . S
