# Generated by pormake.
# Topology lcy-e, (6)-cn, num edge types: 1
# Building blocks:
#     Node 0, Type 0, BuildingBlock: UKALOJ_clean_sbu_0, # of connection points: 6
#     Node 1, Type 0, BuildingBlock: UKALOJ_clean_sbu_0, # of connection points: 6
#     Node 2, Type 0, BuildingBlock: UKALOJ_clean_sbu_0, # of connection points: 6
#     Node 3, Type 0, BuildingBlock: UKALOJ_clean_sbu_0, # of connection points: 6
#     Node 4, Type 0, BuildingBlock: UKALOJ_clean_sbu_0, # of connection points: 6
#     Node 5, Type 0, BuildingBlock: UKALOJ_clean_sbu_0, # of connection points: 6
#     Node 6, Type 0, BuildingBlock: UKALOJ_clean_sbu_0, # of connection points: 6
#     Node 7, Type 0, BuildingBlock: UKALOJ_clean_sbu_0, # of connection points: 6
#     Node 8, Type 0, BuildingBlock: UKALOJ_clean_sbu_0, # of connection points: 6
#     Node 9, Type 0, BuildingBlock: UKALOJ_clean_sbu_0, # of connection points: 6
#     Node 10, Type 0, BuildingBlock: UKALOJ_clean_sbu_0, # of connection points: 6
#     Node 11, Type 0, BuildingBlock: UKALOJ_clean_sbu_0, # of connection points: 6
#     Edge 12, Type (0, 0), BuildingBlock: ZUJKAS_clean_linker_0, # of connection points: 2
#     Edge 13, Type (0, 0), BuildingBlock: ZUJKAS_clean_linker_0, # of connection points: 2
#     Edge 14, Type (0, 0), BuildingBlock: ZUJKAS_clean_linker_0, # of connection points: 2
#     Edge 15, Type (0, 0), BuildingBlock: ZUJKAS_clean_linker_0, # of connection points: 2
#     Edge 16, Type (0, 0), BuildingBlock: ZUJKAS_clean_linker_0, # of connection points: 2
#     Edge 17, Type (0, 0), BuildingBlock: ZUJKAS_clean_linker_0, # of connection points: 2
#     Edge 18, Type (0, 0), BuildingBlock: ZUJKAS_clean_linker_0, # of connection points: 2
#     Edge 19, Type (0, 0), BuildingBlock: ZUJKAS_clean_linker_0, # of connection points: 2
#     Edge 20, Type (0, 0), BuildingBlock: ZUJKAS_clean_linker_0, # of connection points: 2
#     Edge 21, Type (0, 0), BuildingBlock: ZUJKAS_clean_linker_0, # of connection points: 2
#     Edge 22, Type (0, 0), BuildingBlock: ZUJKAS_clean_linker_0, # of connection points: 2
#     Edge 23, Type (0, 0), BuildingBlock: ZUJKAS_clean_linker_0, # of connection points: 2
#     Edge 24, Type (0, 0), BuildingBlock: ZUJKAS_clean_linker_0, # of connection points: 2
#     Edge 25, Type (0, 0), BuildingBlock: ZUJKAS_clean_linker_0, # of connection points: 2
#     Edge 26, Type (0, 0), BuildingBlock: ZUJKAS_clean_linker_0, # of connection points: 2
#     Edge 27, Type (0, 0), BuildingBlock: ZUJKAS_clean_linker_0, # of connection points: 2
#     Edge 28, Type (0, 0), BuildingBlock: ZUJKAS_clean_linker_0, # of connection points: 2
#     Edge 29, Type (0, 0), BuildingBlock: ZUJKAS_clean_linker_0, # of connection points: 2
#     Edge 30, Type (0, 0), BuildingBlock: ZUJKAS_clean_linker_0, # of connection points: 2
#     Edge 31, Type (0, 0), BuildingBlock: ZUJKAS_clean_linker_0, # of connection points: 2
#     Edge 32, Type (0, 0), BuildingBlock: ZUJKAS_clean_linker_0, # of connection points: 2
#     Edge 33, Type (0, 0), BuildingBlock: ZUJKAS_clean_linker_0, # of connection points: 2
#     Edge 34, Type (0, 0), BuildingBlock: ZUJKAS_clean_linker_0, # of connection points: 2
#     Edge 35, Type (0, 0), BuildingBlock: ZUJKAS_clean_linker_0, # of connection points: 2
#     Edge 36, Type (0, 0), BuildingBlock: ZUJKAS_clean_linker_0, # of connection points: 2
#     Edge 37, Type (0, 0), BuildingBlock: ZUJKAS_clean_linker_0, # of connection points: 2
#     Edge 38, Type (0, 0), BuildingBlock: ZUJKAS_clean_linker_0, # of connection points: 2
#     Edge 39, Type (0, 0), BuildingBlock: ZUJKAS_clean_linker_0, # of connection points: 2
#     Edge 40, Type (0, 0), BuildingBlock: ZUJKAS_clean_linker_0, # of connection points: 2
#     Edge 41, Type (0, 0), BuildingBlock: ZUJKAS_clean_linker_0, # of connection points: 2
#     Edge 42, Type (0, 0), BuildingBlock: ZUJKAS_clean_linker_0, # of connection points: 2
#     Edge 43, Type (0, 0), BuildingBlock: ZUJKAS_clean_linker_0, # of connection points: 2
#     Edge 44, Type (0, 0), BuildingBlock: ZUJKAS_clean_linker_0, # of connection points: 2
#     Edge 45, Type (0, 0), BuildingBlock: ZUJKAS_clean_linker_0, # of connection points: 2
#     Edge 46, Type (0, 0), BuildingBlock: ZUJKAS_clean_linker_0, # of connection points: 2
#     Edge 47, Type (0, 0), BuildingBlock: ZUJKAS_clean_linker_0, # of connection points: 2
# Relax obj value: 0.288
# Max RMSD: 0.288
# Mean RMSD: 0.288
data_MOF--net-lcy-e--node1-UKALOJ_clean_sbu_0--edge1-ZUJKAS_clean_linker_0
_symmetry_space_group_name_H-M    P1
_symmetry_Int_Tables_number       1
_symmetry_cell_setting            triclinic
loop_
_symmetry_equiv_pos_as_xyz
'x, y, z'
_cell_length_a     49.260583
_cell_length_b     49.291161
_cell_length_c     49.25167
_cell_angle_alpha  90.06599
_cell_angle_beta   89.978229
_cell_angle_gamma 89.870115
loop_
_atom_site_label
_atom_site_type_symbol
_atom_site_fract_x
_atom_site_fract_y
_atom_site_fract_z
_atom_type_partial_charge
Zn0 Zn 0.10357 0.22737 0.44353 0.0
O1 O 0.13046 0.25754 0.45494 0.0
C2 C 0.15 0.19607 0.42046 0.0
Zn3 Zn 0.12199 0.19929 0.47326 0.0
C4 C 0.14666 0.25457 0.47471 0.0
O5 O 0.14745 0.23194 0.48721 0.0
C6 C 0.07826 0.17331 0.44081 0.0
O7 O 0.09287 0.21022 0.50169 0.0
O8 O 0.07621 0.24132 0.47445 0.0
N9 N 0.13967 0.17309 0.4999 0.0
C10 C 0.12845 0.15469 0.51663 0.0
C11 C 0.1713 0.14841 0.51756 0.0
N12 N 0.16631 0.16928 0.50059 0.0
N13 N 0.14785 0.13894 0.5278 0.0
C14 C 0.09589 0.26524 0.39439 0.0
C15 C 0.05322 0.27279 0.39468 0.0
N16 N 0.08559 0.25248 0.41619 0.0
N17 N 0.05909 0.25724 0.41643 0.0
N18 N 0.07598 0.27779 0.38045 0.0
H19 H 0.13836 0.26396 0.40562 0.0
H20 H 0.13044 0.28626 0.37772 0.0
H21 H 0.13043 0.25016 0.37278 0.0
C22 C 0.12551 0.26656 0.38741 0.0
C23 C 0.09882 0.1537 0.52383 0.0
H24 H 0.094 0.17136 0.53694 0.0
H25 H 0.09342 0.13519 0.53533 0.0
H26 H 0.086 0.15503 0.50547 0.0
O27 O 0.09632 0.16747 0.45832 0.0
O28 O 0.07649 0.19743 0.43216 0.0
C29 C 0.07615 0.22926 0.49728 0.0
O30 O 0.13148 0.21258 0.41326 0.0
O31 O 0.15098 0.18828 0.44493 0.0
Zn32 Zn 0.0216 0.8698 0.70051 0.0
O33 O -0.00323 0.89984 0.71669 0.0
C34 C 0.05997 0.91397 0.68401 0.0
Zn35 Zn 0.05186 0.88012 0.732 0.0
C36 C 0.0018 0.91261 0.73847 0.0
O37 O 0.02409 0.90822 0.75088 0.0
C38 C 0.07027 0.83678 0.69304 0.0
O39 O 0.03606 0.84931 0.75584 0.0
O40 O 0.00284 0.84109 0.72725 0.0
N41 N 0.08104 0.88771 0.7604 0.0
C42 C 0.10059 0.87116 0.76998 0.0
C43 C 0.10955 0.911 0.78417 0.0
N44 N 0.08648 0.91246 0.76943 0.0
N45 N 0.11872 0.88527 0.78468 0.0
C46 C 0.98314 0.8778 0.65166 0.0
C47 C 0.96816 0.83784 0.64477 0.0
N48 N 0.99368 0.86174 0.6711 0.0
N49 N 0.98427 0.83693 0.66688 0.0
N50 N 0.96735 0.86323 0.63474 0.0
H51 H 0.96872 0.9179 0.64163 0.0
H52 H 0.00429 0.91224 0.63599 0.0
H53 H 0.99189 0.9168 0.66995 0.0
C54 C 0.98717 0.90792 0.6499 0.0
C55 C 0.1024 0.84114 0.76509 0.0
H56 H 0.08242 0.83227 0.76023 0.0
H57 H 0.11083 0.83085 0.78327 0.0
H58 H 0.11647 0.83718 0.74798 0.0
O59 O 0.0785 0.85204 0.71214 0.0
O60 O 0.04617 0.83933 0.68448 0.0
C61 C 0.0148 0.83629 0.74965 0.0
O62 O 0.04131 0.89877 0.67473 0.0
O63 O 0.06767 0.91103 0.70836 0.0
Zn64 Zn 0.37449 0.79179 0.97074 0.0
O65 O 0.40055 0.78381 0.00288 0.0
C66 C 0.42167 0.81091 0.93837 0.0
Zn67 Zn 0.39351 0.75883 0.94676 0.0
C68 C 0.41676 0.7638 0.00248 0.0
O69 O 0.41804 0.74872 0.98148 0.0
C70 C 0.35086 0.78832 0.91589 0.0
O71 O 0.36427 0.73204 0.96044 0.0
O72 O 0.34628 0.76289 0.98718 0.0
N73 N 0.41146 0.72905 0.92428 0.0
C74 C 0.40055 0.71035 0.90758 0.0
C75 C 0.44346 0.70894 0.90198 0.0
N76 N 0.43814 0.72799 0.92095 0.0
N77 N 0.42019 0.69739 0.89359 0.0
C78 C 0.36594 0.84198 0.00755 0.0
C79 C 0.32347 0.84931 0.00306 0.0
N80 N 0.35594 0.82206 0.99178 0.0
N81 N 0.32953 0.82655 0.98913 0.0
N82 N 0.34595 0.85921 0.01496 0.0
H83 H 0.4088 0.83397 0.00054 0.0
H84 H 0.39915 0.83874 0.03528 0.0
H85 H 0.40102 0.86749 0.013 0.0
C86 C 0.39545 0.84572 0.0142 0.0
C87 C 0.37069 0.70626 0.90291 0.0
H88 H 0.36468 0.68628 0.91131 0.0
H89 H 0.36631 0.70595 0.8808 0.0
H90 H 0.35806 0.72201 0.91255 0.0
O91 O 0.3686 0.76985 0.91269 0.0
O92 O 0.34861 0.79992 0.93872 0.0
C93 C 0.34674 0.73873 0.97803 0.0
O94 O 0.4028 0.81982 0.95361 0.0
O95 O 0.42289 0.78576 0.93316 0.0
Zn96 Zn 0.46905 0.11455 0.20152 0.0
O97 O 0.49366 0.08135 0.21084 0.0
C98 C 0.42987 0.07593 0.17538 0.0
Zn99 Zn 0.43862 0.09742 0.22984 0.0
C100 C 0.48814 0.06397 0.22895 0.0
O101 O 0.46571 0.06549 0.24174 0.0
C102 C 0.42091 0.14891 0.20201 0.0
O103 O 0.45524 0.12135 0.25993 0.0
O104 O 0.48775 0.13711 0.23389 0.0
N105 N 0.40934 0.08393 0.25579 0.0
C106 C 0.39197 0.09777 0.27185 0.0
C107 C 0.37835 0.05677 0.27048 0.0
N108 N 0.40101 0.0584 0.25522 0.0
N109 N 0.37242 0.08118 0.28129 0.0
C110 C 0.50683 0.1154 0.15177 0.0
C111 C 0.52164 0.156 0.15107 0.0
N112 N 0.49704 0.12795 0.17405 0.0
N113 N 0.5064 0.15315 0.1737 0.0
N114 N 0.522 0.13257 0.13701 0.0
H115 H 0.52043 0.07761 0.13447 0.0
H116 H 0.48526 0.08513 0.12938 0.0
H117 H 0.49678 0.07378 0.16211 0.0
C118 C 0.50206 0.08626 0.14429 0.0
C119 C 0.39219 0.12797 0.2761 0.0
H120 H 0.39391 0.13244 0.29809 0.0
H121 H 0.37272 0.13677 0.2689 0.0
H122 H 0.40919 0.13807 0.26571 0.0
O123 O 0.41246 0.12996 0.21731 0.0
O124 O 0.44484 0.14777 0.19263 0.0
C125 C 0.47606 0.13609 0.25697 0.0
O126 O 0.449 0.09233 0.17011 0.0
O127 O 0.42205 0.07317 0.1997 0.0
Zn128 Zn 0.61527 0.27198 0.54083 0.0
O129 O 0.6387 0.23948 0.52821 0.0
C130 C 0.66522 0.30263 0.55574 0.0
Zn131 Zn 0.63139 0.29693 0.50701 0.0
C132 C 0.65332 0.24048 0.50706 0.0
O133 O 0.65442 0.26242 0.49345 0.0
C134 C 0.59305 0.32737 0.54232 0.0
O135 O 0.59934 0.28406 0.48298 0.0
O136 O 0.58329 0.25774 0.51508 0.0
N137 N 0.64631 0.31968 0.47593 0.0
C138 C 0.6337 0.33611 0.45808 0.0
C139 C 0.67629 0.34051 0.45174 0.0
N140 N 0.67277 0.3223 0.47184 0.0
N141 N 0.65204 0.34914 0.44257 0.0
C142 C 0.61314 0.23807 0.59334 0.0
C143 C 0.57063 0.23296 0.59978 0.0
N144 N 0.60029 0.24991 0.57234 0.0
N145 N 0.57388 0.24664 0.57629 0.0
N146 N 0.59501 0.22765 0.6109 0.0
H147 H 0.65362 0.23631 0.57621 0.0
H148 H 0.64876 0.21618 0.60637 0.0
H149 H 0.651 0.25241 0.6089 0.0
C150 C 0.64337 0.23552 0.59617 0.0
C151 C 0.60365 0.34127 0.4571 0.0
H152 H 0.59285 0.33283 0.47477 0.0
H153 H 0.59524 0.3319 0.43845 0.0
H154 H 0.5996 0.36341 0.45602 0.0
O155 O 0.608 0.33082 0.52158 0.0
O156 O 0.59195 0.30435 0.5536 0.0
C157 C 0.58191 0.26699 0.49101 0.0
O158 O 0.64737 0.28689 0.56559 0.0
O159 O 0.66365 0.30959 0.53103 0.0
Zn160 Zn 0.94632 0.37554 0.77153 0.0
O161 O 0.95833 0.34624 0.74399 0.0
C162 C 0.92333 0.33239 0.80621 0.0
Zn163 Zn 0.97602 0.36058 0.80171 0.0
C164 C 0.97842 0.33092 0.74878 0.0
O165 O 0.99083 0.33275 0.77138 0.0
C166 C 0.94223 0.40533 0.82331 0.0
O167 O 0.00423 0.38891 0.78866 0.0
O168 O 0.97697 0.40198 0.75589 0.0
N169 N 0.00287 0.34502 0.82891 0.0
C170 C 0.02164 0.35689 0.8448 0.0
C171 C 0.02206 0.31458 0.85389 0.0
N172 N 0.00324 0.31872 0.83449 0.0
N173 N 0.03407 0.33819 0.86045 0.0
C174 C 0.89794 0.37909 0.73209 0.0
C175 C 0.89819 0.42074 0.72035 0.0
N176 N 0.91921 0.39082 0.74451 0.0
N177 N 0.91941 0.41669 0.73717 0.0
N178 N 0.88431 0.39748 0.71714 0.0
H179 H 0.90945 0.33702 0.7377 0.0
H180 H 0.88215 0.34247 0.71399 0.0
H181 H 0.87621 0.34601 0.74981 0.0
C182 C 0.89123 0.34942 0.7334 0.0
C183 C 0.02665 0.38688 0.84625 0.0
H184 H 0.04435 0.3919 0.83328 0.0
H185 H 0.03138 0.39314 0.86737 0.0
H186 H 0.00898 0.39864 0.839 0.0
O187 O 0.96048 0.38885 0.83123 0.0
O188 O 0.93392 0.40454 0.799 0.0
C189 C -0.00035 0.40365 0.76812 0.0
O190 O 0.91655 0.34918 0.78789 0.0
O191 O 0.94757 0.33217 0.81482 0.0
Zn192 Zn 0.86746 0.71405 0.03535 0.0
O193 O 0.84618 0.74878 0.02497 0.0
C194 C 0.81539 0.68539 0.04711 0.0
Zn195 Zn 0.85016 0.69299 -0.00058 0.0
C196 C 0.83122 0.75015 0.00408 0.0
O197 O 0.8287 0.72939 0.98884 0.0
C198 C 0.88669 0.65754 0.03184 0.0
O199 O 0.88298 0.70626 0.97684 0.0
O200 O 0.90083 0.72828 0.01125 0.0
N201 N 0.83498 0.67317 0.96641 0.0
C202 C 0.84729 0.65614 0.94884 0.0
C203 C 0.80473 0.65346 0.94166 0.0
N204 N 0.80854 0.67172 0.96171 0.0
N205 N 0.82879 0.64367 0.93304 0.0
C206 C 0.87229 0.74942 0.08722 0.0
C207 C 0.91291 0.74119 0.09987 0.0
N208 N 0.88334 0.73258 0.0687 0.0
N209 N 0.90859 0.72756 0.07654 0.0
N210 N 0.89049 0.75522 0.10684 0.0
H211 H 0.84235 0.78008 0.08021 0.0
H212 H 0.83484 0.75801 0.10813 0.0
H213 H 0.83041 0.74642 0.07367 0.0
C214 C 0.84326 0.75874 0.08724 0.0
C215 C 0.87708 0.64935 0.94874 0.0
H216 H 0.88844 0.65922 0.96523 0.0
H217 H 0.88607 0.65591 0.92918 0.0
H218 H 0.87989 0.62706 0.95033 0.0
O219 O 0.8716 0.65724 0.01097 0.0
O220 O 0.88884 0.67915 0.04561 0.0
C221 C 0.90167 0.72098 0.98649 0.0
O222 O 0.83372 0.69956 0.05847 0.0
O223 O 0.81729 0.67984 0.02206 0.0
Zn224 Zn 0.53655 0.61915 0.26376 0.0
O225 O 0.52522 0.65509 0.24512 0.0
C226 C 0.57302 0.65135 0.29881 0.0
Zn227 Zn 0.51572 0.63365 0.30083 0.0
C228 C 0.50959 0.67247 0.25584 0.0
O229 O 0.5008 0.66884 0.27985 0.0
C230 C 0.54374 0.58001 0.30767 0.0
O231 O 0.48043 0.61332 0.2898 0.0
O232 O 0.49907 0.60147 0.25105 0.0
N233 N 0.49853 0.64667 0.33607 0.0
C234 C 0.48316 0.63366 0.35452 0.0
C235 C 0.49281 0.67249 0.37105 0.0
N236 N 0.50439 0.67084 0.3463 0.0
N237 N 0.47923 0.64948 0.37652 0.0
C238 C 0.57037 0.61972 0.2109 0.0
C239 C 0.56903 0.57829 0.19849 0.0
N240 N 0.55463 0.60641 0.22884 0.0
N241 N 0.55364 0.58072 0.22099 0.0
N242 N 0.5795 0.60254 0.19157 0.0
H243 H 0.57407 0.6576 0.23345 0.0
H244 H 0.56647 0.66105 0.1982 0.0
H245 H 0.60017 0.65166 0.20867 0.0
C246 C 0.57826 0.64908 0.2132 0.0
C247 C 0.47364 0.60484 0.35205 0.0
H248 H 0.45172 0.60484 0.34694 0.0
H249 H 0.47619 0.5941 0.37168 0.0
H250 H 0.48456 0.59354 0.33607 0.0
O251 O 0.53122 0.59839 0.32083 0.0
O252 O 0.54784 0.58309 0.28246 0.0
C253 C 0.47861 0.60181 0.26685 0.0
O254 O 0.5736 0.637 0.27739 0.0
O255 O 0.55093 0.654 0.31173 0.0
Zn256 Zn 0.1878 0.48216 0.13007 0.0
O257 O 0.20562 0.50596 0.10032 0.0
C258 C 0.17887 0.44043 0.08699 0.0
Zn259 Zn 0.22131 0.45274 0.12653 0.0
C260 C 0.22945 0.50126 0.09182 0.0
O261 O 0.24216 0.48034 0.10015 0.0
C262 C 0.17844 0.4349 0.165 0.0
O263 O 0.23972 0.47142 0.15965 0.0
O264 O 0.20968 0.50444 0.16005 0.0
N265 N 0.2524 0.42564 0.12349 0.0
C266 C 0.26167 0.40693 0.14113 0.0
C267 C 0.28284 0.40099 0.10383 0.0
N268 N 0.26568 0.42204 0.10038 0.0
N269 N 0.28054 0.39104 0.12919 0.0
C270 C 0.13735 0.5154 0.11427 0.0
C271 C 0.1241 0.53137 0.15228 0.0
N272 N 0.15597 0.50826 0.13296 0.0
N273 N 0.14784 0.51838 0.15655 0.0
N274 N 0.11712 0.52959 0.12593 0.0
H275 H 0.16035 0.50637 0.07787 0.0
H276 H 0.12971 0.52582 0.07252 0.0
H277 H 0.12762 0.49037 0.08012 0.0
C278 C 0.13907 0.50919 0.08449 0.0
C279 C 0.25324 0.40501 0.17034 0.0
H280 H 0.24676 0.42499 0.1783 0.0
H281 H 0.27018 0.39715 0.18295 0.0
H282 H 0.23595 0.39079 0.17215 0.0
O283 O 0.19955 0.42619 0.15292 0.0
O284 O 0.1699 0.45861 0.15996 0.0
C285 C 0.23128 0.49374 0.16934 0.0
O286 O 0.16693 0.45918 0.1001 0.0
O287 O 0.20303 0.43415 0.09315 0.0
Zn288 Zn 0.72172 0.05346 0.88319 0.0
O289 O 0.75509 0.04257 0.85967 0.0
C290 C 0.69247 0.07235 0.83342 0.0
Zn291 Zn 0.69738 0.0212 0.86348 0.0
C292 C 0.75459 0.02257 0.84344 0.0
O293 O 0.73263 0.00923 0.84051 0.0
C294 C 0.66572 0.05315 0.90408 0.0
O295 O 0.70909 -0.00525 0.8939 0.0
O296 O 0.73499 0.02518 0.91349 0.0
N297 N 0.67463 0.9917 0.84554 0.0
C298 C 0.65696 0.97384 0.85628 0.0
C299 C 0.65333 0.97113 0.81321 0.0
N300 N 0.67249 0.98984 0.81877 0.0
N301 N 0.64358 0.96061 0.83645 0.0
C302 C 0.7551 0.10554 0.89094 0.0
C303 C 0.75797 0.10897 0.93402 0.0
N304 N 0.74322 0.08344 0.90155 0.0
N305 N 0.74513 0.08548 0.92834 0.0
N306 N 0.76419 0.12189 0.91082 0.0
H307 H 0.75829 0.09206 0.84919 0.0
H308 H 0.77783 0.1219 0.85739 0.0
H309 H 0.74167 0.12428 0.8542 0.0
C310 C 0.75848 0.11104 0.86118 0.0
C311 C 0.65078 0.97089 0.88601 0.0
H312 H 0.66058 0.98654 0.89859 0.0
H313 H 0.65794 0.95072 0.89299 0.0
H314 H 0.62851 0.97177 0.88935 0.0
O315 O 0.66288 0.0341 0.88691 0.0
O316 O 0.68868 0.0643 0.90684 0.0
C317 C 0.72542 0.00124 0.91265 0.0
O318 O 0.70756 0.08096 0.8525 0.0
O319 O 0.68578 0.04757 0.83294 0.0
Zn320 Zn 0.7666 0.94148 0.36931 0.0
O321 O 0.73944 0.95144 0.33848 0.0
C322 C 0.80385 0.919 0.32668 0.0
Zn323 Zn 0.79499 0.97184 0.35242 0.0
C324 C 0.74327 0.9708 0.322 0.0
O325 O 0.76524 0.98436 0.32309 0.0
C326 C 0.81706 0.94173 0.40055 0.0
O327 O 0.7789 0.0 0.37932 0.0
O328 O 0.74818 0.97172 0.39471 0.0
N329 N 0.82227 -0.00045 0.33839 0.0
C330 C 0.83987 0.01552 0.35191 0.0
C331 C 0.85083 0.01682 0.31005 0.0
N332 N 0.82894 0.00061 0.31234 0.0
N333 N 0.85788 0.02659 0.33459 0.0
C334 C 0.731 0.8904 0.37102 0.0
C335 C 0.72024 0.88725 0.41283 0.0
N336 N 0.74087 0.91254 0.38359 0.0
N337 N 0.73401 0.91068 0.40956 0.0
N338 N 0.71829 0.87424 0.38889 0.0
H339 H 0.73717 0.90276 0.32916 0.0
H340 H 0.71483 0.87421 0.33382 0.0
H341 H 0.75063 0.86998 0.33807 0.0
C342 C 0.73354 0.88428 0.34126 0.0
C343 C 0.84161 0.01813 0.38226 0.0
H344 H 0.82563 0.00675 0.39294 0.0
H345 H 0.83974 0.0398 0.38804 0.0
H346 H 0.8618 0.01095 0.38926 0.0
O347 O 0.82386 0.95856 0.38225 0.0
O348 O 0.7934 0.93175 0.4002 0.0
C349 C 0.75888 -0.00478 0.39475 0.0
O350 O 0.78601 0.91208 0.34396 0.0
O351 O 0.81089 0.94364 0.32518 0.0
Zn352 Zn 0.30156 0.50821 0.63544 0.0
O353 O 0.28777 0.4836 0.60433 0.0
C354 C 0.32774 0.54349 0.59405 0.0
Zn355 Zn 0.27463 0.54119 0.62126 0.0
C356 C 0.26841 0.49048 0.58887 0.0
O357 O 0.25779 0.51394 0.59145 0.0
C358 C 0.30873 0.55748 0.66841 0.0
O359 O 0.24515 0.52856 0.64878 0.0
O360 O 0.26966 0.49313 0.66046 0.0
N361 N 0.25024 0.57175 0.60773 0.0
C362 C 0.23385 0.58927 0.62093 0.0
C363 C 0.23449 0.60109 0.57929 0.0
N364 N 0.25051 0.57905 0.58185 0.0
N365 N 0.22366 0.60777 0.6035 0.0
C366 C 0.34546 0.46347 0.63508 0.0
C367 C 0.35181 0.4566 0.67734 0.0
N368 N 0.327 0.47848 0.64863 0.0
N369 N 0.33077 0.47397 0.67487 0.0
N370 N 0.36114 0.44955 0.65262 0.0
H371 H 0.33567 0.47758 0.59425 0.0
H372 H 0.34886 0.4438 0.59636 0.0
H373 H 0.37122 0.47198 0.60103 0.0
C374 C 0.35034 0.46453 0.60498 0.0
C375 C 0.22914 0.58939 0.65104 0.0
H376 H 0.20931 0.57967 0.65536 0.0
H377 H 0.22837 0.61051 0.65885 0.0
H378 H 0.24502 0.57807 0.66207 0.0
O379 O 0.29228 0.5675 0.6512 0.0
O380 O 0.31508 0.53263 0.66677 0.0
C381 C 0.24787 0.50691 0.66241 0.0
O382 O 0.33299 0.5242 0.6103 0.0
O383 O 0.3041 0.55365 0.59379 0.0
H384 H 0.15261 0.30258 0.44834 0.0
H385 H 0.17527 0.34333 0.4644 0.0
H386 H 0.20029 0.3013 0.53699 0.0
H387 H 0.17709 0.26015 0.52118 0.0
H388 H 0.17532 0.35135 0.54679 0.0
H389 H 0.25587 0.36138 0.46877 0.0
H390 H 0.22244 0.3576 0.4548 0.0
H391 H 0.23727 0.33029 0.47395 0.0
C392 C 0.16318 0.30178 0.46761 0.0
C393 C 0.16302 0.27809 0.48354 0.0
C394 C 0.17628 0.32511 0.47665 0.0
C395 C 0.18972 0.32523 0.50169 0.0
C396 C 0.19012 0.30151 0.51749 0.0
H397 H 0.29391 0.44523 0.57069 0.0
H398 H 0.27374 0.40684 0.54709 0.0
C399 C 0.17698 0.27802 0.50842 0.0
C400 C 0.20177 0.35071 0.512 0.0
H401 H 0.24822 0.3998 0.49716 0.0
C402 C 0.19133 0.36192 0.53603 0.0
C403 C 0.22265 0.36438 0.49787 0.0
C404 C 0.23542 0.3527 0.47255 0.0
C405 C 0.20116 0.38657 0.54631 0.0
C406 C 0.22162 0.40056 0.53185 0.0
C407 C 0.23217 0.38926 0.50789 0.0
C408 C 0.2342 0.42551 0.54278 0.0
C409 C 0.19009 0.39704 0.57292 0.0
C410 C 0.21892 0.44923 0.54715 0.0
C411 C 0.23045 0.47139 0.56072 0.0
C412 C 0.25736 0.46997 0.57006 0.0
C413 C 0.27302 0.44684 0.56399 0.0
C414 C 0.26156 0.42487 0.55045 0.0
H415 H 0.17851 0.38125 0.58405 0.0
H416 H 0.20678 0.40438 0.58618 0.0
H417 H 0.17622 0.41435 0.56894 0.0
H418 H 0.19787 0.45025 0.5409 0.0
H419 H 0.21795 0.48896 0.5651 0.0
H420 H 0.8031 0.04883 0.84462 0.0
H421 H 0.84643 0.03345 0.82651 0.0
H422 H 0.80785 0.96224 0.79347 0.0
H423 H 0.76412 0.97727 0.81215 0.0
H424 H 0.85454 0.95066 0.82261 0.0
H425 H 0.87398 0.03329 0.74887 0.0
H426 H 0.86686 0.04529 0.78254 0.0
H427 H 0.84101 0.02763 0.7638 0.0
C428 C 0.80364 0.03002 0.83325 0.0
C429 C 0.78008 0.01426 0.82981 0.0
C430 C 0.82849 0.02135 0.82277 0.0
C431 C 0.83032 -0.00311 0.80836 0.0
C432 C 0.80681 0.98127 0.80445 0.0
H433 H 0.95921 0.93417 0.71116 0.0
H434 H 0.91949 0.95667 0.73003 0.0
C435 C 0.78184 0.98992 0.81501 0.0
C436 C 0.85708 0.98707 0.79867 0.0
H437 H 0.91101 0.00381 0.75852 0.0
C438 C 0.86689 0.96222 0.80854 0.0
C439 C 0.8731 0.00222 0.7803 0.0
C440 C 0.86313 0.02846 0.76804 0.0
C441 C 0.89229 0.95204 0.8005 0.0
C442 C 0.90853 0.96742 0.78253 0.0
C443 C 0.89873 0.9923 0.77268 0.0
C444 C 0.93433 0.95664 0.77135 0.0
C445 C 0.90111 0.9245 0.81062 0.0
C446 C 0.95642 0.95007 0.78821 0.0
C447 C 0.97937 0.93705 0.77742 0.0
C448 C 0.98042 0.9305 0.74966 0.0
C449 C 0.95894 0.93867 0.7327 0.0
C450 C 0.93619 0.95161 0.74343 0.0
H451 H 0.88401 0.91304 0.81979 0.0
H452 H 0.90987 0.91221 0.79385 0.0
H453 H 0.91699 0.92709 0.82638 0.0
H454 H 0.95558 0.95429 0.80977 0.0
H455 H -0.00437 0.93103 0.79095 0.0
H456 H 0.32474 0.69765 0.94937 0.0
H457 H 0.30192 0.65759 0.96724 0.0
H458 H 0.3071 0.69074 0.04824 0.0
H459 H 0.32907 0.73153 0.03011 0.0
H460 H 0.32488 0.62256 0.00054 0.0
H461 H 0.23087 0.66219 0.04829 0.0
H462 H 0.25128 0.68233 0.02557 0.0
H463 H 0.26101 0.67847 0.06057 0.0
C464 C 0.32032 0.69669 0.9709 0.0
C465 C 0.32852 0.7176 0.98842 0.0
C466 C 0.30741 0.67377 0.9811 0.0
C467 C 0.30276 0.67115 0.00906 0.0
C468 C 0.30997 0.69255 0.02653 0.0
H469 H 0.28288 0.51582 0.09111 0.0
H470 H 0.30199 0.55634 0.06962 0.0
C471 C 0.3225 0.71582 0.0162 0.0
C472 C 0.2926 0.64504 0.01987 0.0
H473 H 0.24289 0.61654 0.05854 0.0
C474 C 0.30682 0.62121 0.01309 0.0
C475 C 0.26899 0.6433 0.03607 0.0
C476 C 0.25199 0.6679 0.04285 0.0
C477 C 0.29807 0.59568 0.02199 0.0
C478 C 0.27493 0.59403 0.03886 0.0
C479 C 0.26072 0.61785 0.04568 0.0
C480 C 0.26464 0.56786 0.04939 0.0
C481 C 0.31333 0.57077 0.01268 0.0
C482 C 0.23742 0.56079 0.04505 0.0
C483 C 0.22644 0.53803 0.05764 0.0
C484 C 0.24257 0.52172 0.07457 0.0
C485 C 0.27019 0.52784 0.07776 0.0
C486 C 0.28109 0.55098 0.0655 0.0
H487 H 0.325 0.57473 0.99379 0.0
H488 H 0.32801 0.56468 0.02865 0.0
H489 H 0.29934 0.55354 0.00895 0.0
H490 H 0.22439 0.57344 0.03263 0.0
H491 H 0.20506 0.53371 0.0549 0.0
H492 H 0.50408 0.05077 0.28015 0.0
H493 H 0.54794 0.03076 0.29263 0.0
H494 H 0.56475 0.01459 0.20813 0.0
H495 H 0.52166 0.03591 0.19558 0.0
H496 H 0.57501 0.98481 0.28764 0.0
H497 H 0.62682 0.06329 0.22622 0.0
H498 H 0.59075 0.06382 0.23225 0.0
H499 H 0.60488 0.04234 0.20618 0.0
C500 C 0.51684 0.0422 0.26437 0.0
C501 C 0.5097 0.04494 0.23694 0.0
C502 C 0.54197 0.03097 0.27146 0.0
C503 C 0.56007 0.02207 0.25121 0.0
C504 C 0.5516 0.02226 0.22401 0.0
H505 H 0.70931 0.93731 0.29486 0.0
H506 H 0.66575 0.94939 0.27432 0.0
C507 C 0.52682 0.03405 0.21689 0.0
C508 C 0.58832 0.01431 0.25838 0.0
H509 H 0.65479 0.02894 0.24503 0.0
C510 C 0.59245 0.99444 0.27832 0.0
C511 C 0.61112 0.02739 0.24668 0.0
C512 C 0.60822 0.05059 0.22688 0.0
C513 C 0.61868 0.98715 0.28678 0.0
C514 C 0.64149 -0.00069 0.27416 0.0
C515 C 0.63735 0.0193 0.25434 0.0
C516 C 0.66975 0.99243 0.28216 0.0
C517 C 0.62152 0.96723 0.30989 0.0
C518 C 0.68754 0.01284 0.29115 0.0
C519 C 0.71293 0.00603 0.30197 0.0
C520 C 0.72064 0.97872 0.30422 0.0
C521 C 0.70368 0.95853 0.29345 0.0
C522 C 0.67866 0.96538 0.28209 0.0
H523 H 0.60276 0.9663 0.32239 0.0
H524 H 0.62523 0.94664 0.30152 0.0
H525 H 0.63875 0.97266 0.32335 0.0
H526 H 0.68123 0.03391 0.29114 0.0
H527 H 0.72557 0.02191 0.3104 0.0
H528 H 0.67821 0.23064 0.45808 0.0
H529 H 0.69638 0.18709 0.44195 0.0
H530 H 0.67686 0.15039 0.51896 0.0
H531 H 0.65921 0.19357 0.53534 0.0
H532 H 0.72751 0.13571 0.49991 0.0
H533 H 0.64799 0.12234 0.42113 0.0
H534 H 0.66654 0.15358 0.41861 0.0
H535 H 0.64541 0.14746 0.44772 0.0
C536 C 0.67811 0.21336 0.47164 0.0
C537 C 0.66709 0.21548 0.49787 0.0
C538 C 0.68824 0.18848 0.46234 0.0
C539 C 0.68739 0.16546 0.47912 0.0
C540 C 0.67746 0.16786 0.50564 0.0
H541 H 0.70946 -0.00136 0.42058 0.0
H542 H 0.69093 0.03837 0.44461 0.0
C543 C 0.66737 0.1926 0.51493 0.0
C544 C 0.69657 0.13869 0.46916 0.0
H545 H 0.68423 0.0904 0.42106 0.0
C546 C 0.71799 0.12573 0.48274 0.0
C547 C 0.68362 0.12547 0.44721 0.0
C548 C 0.65944 0.13775 0.43294 0.0
C549 C 0.72748 0.10025 0.47433 0.0
C550 C 0.71545 0.08767 0.45152 0.0
C551 C 0.69342 0.10018 0.43851 0.0
C552 C 0.727 0.06281 0.43935 0.0
C553 C 0.75037 0.08706 0.48986 0.0
C554 C 0.7533 0.06353 0.42862 0.0
C555 C 0.7638 0.04113 0.41498 0.0
C556 C 0.74815 0.01753 0.41164 0.0
C557 C 0.72199 0.01651 0.42298 0.0
C558 C 0.71139 0.03915 0.4366 0.0
H559 H 0.75152 0.09483 0.51101 0.0
H560 H 0.74798 0.06467 0.49046 0.0
H561 H 0.7699 0.09175 0.47968 0.0
H562 H 0.76546 0.08176 0.43008 0.0
H563 H 0.78405 0.04258 0.40653 0.0
H564 H 0.01274 0.41298 0.71523 0.0
H565 H 0.05526 0.43267 0.6985 0.0
H566 H 0.07843 0.45231 0.78071 0.0
H567 H 0.03669 0.43148 0.7975 0.0
H568 H 0.08014 0.48006 0.70016 0.0
H569 H 0.14091 0.40549 0.75829 0.0
H570 H 0.10451 0.40321 0.75543 0.0
H571 H 0.1197 0.42567 0.77996 0.0
C572 C 0.02674 0.42198 0.7296 0.0
C573 C 0.02177 0.42052 0.7576 0.0
C574 C 0.05104 0.43307 0.72008 0.0
C575 C 0.07039 0.44311 0.73847 0.0
C576 C 0.06425 0.44375 0.76627 0.0
H577 H 0.21022 0.53741 0.68857 0.0
H578 H 0.16775 0.52177 0.70879 0.0
C579 C 0.04032 0.43214 0.77581 0.0
C580 C 0.09741 0.45188 0.72873 0.0
H581 H 0.16537 0.4417 0.73786 0.0
C582 C 0.09879 0.47163 0.70832 0.0
C583 C 0.12171 0.44033 0.73894 0.0
C584 C 0.12168 0.41729 0.75914 0.0
C585 C 0.12381 0.48051 0.69814 0.0
C586 C 0.14812 0.47009 0.70947 0.0
C587 C 0.14673 0.45001 0.72955 0.0
C588 C 0.17519 0.47928 0.70027 0.0
C589 C 0.12383 0.5004 0.67483 0.0
C590 C 0.19436 0.46041 0.69066 0.0
C591 C 0.21905 0.46926 0.67989 0.0
C592 C 0.22466 0.49711 0.67831 0.0
C593 C 0.20613 0.51583 0.68928 0.0
C594 C 0.18178 0.50695 0.70054 0.0
H595 H 0.10449 0.49963 0.66325 0.0
H596 H 0.12606 0.52129 0.68294 0.0
H597 H 0.14084 0.49633 0.6606 0.0
H598 H 0.1898 0.43892 0.69053 0.0
H599 H 0.23299 0.45448 0.67143 0.0
H600 H 0.77422 -0.00273 0.93908 0.0
H601 H 0.79234 0.95634 0.96117 0.0
H602 H 0.71559 0.91608 0.94928 0.0
H603 H 0.69743 0.95663 0.92763 0.0
H604 H 0.74112 0.90395 -0.00049 0.0
H605 H 0.80903 0.89121 0.90992 0.0
H606 H 0.81204 0.92266 0.92822 0.0
H607 H 0.78122 0.9151 0.91032 0.0
C608 C 0.76105 0.97994 0.94196 0.0
C609 C 0.73459 0.97988 0.93136 0.0
C610 C 0.77145 0.95657 0.95432 0.0
C611 C 0.75541 0.93312 0.95627 0.0
C612 C 0.72831 0.93393 0.94778 0.0
H613 H 0.80054 0.7632 0.9593 0.0
H614 H 0.78078 0.80769 0.94846 0.0
C615 C 0.71801 0.95708 0.93536 0.0
C616 C 0.76717 0.90686 0.96454 0.0
H617 H 0.81038 0.85701 0.94317 0.0
C618 C 0.75645 0.89374 0.98739 0.0
C619 C 0.78663 0.89343 0.94819 0.0
C620 C 0.79782 0.90613 0.92265 0.0
C621 C 0.76477 0.86745 0.99441 0.0
C622 C 0.78451 0.8542 0.97827 0.0
C623 C 0.79522 0.86731 0.95542 0.0
C624 C 0.79504 0.82706 0.98525 0.0
C625 C 0.75197 0.85383 0.01865 0.0
C626 C 0.80958 0.82344 0.00936 0.0
C627 C 0.82081 0.79828 0.01553 0.0
C628 C 0.81784 0.77619 -0.00236 0.0
C629 C 0.80306 0.77978 0.97352 0.0
C630 C 0.79183 0.80513 0.96731 0.0
H631 H 0.73249 0.86366 0.02446 0.0
H632 H 0.74817 0.83201 0.01451 0.0
H633 H 0.76599 0.85526 0.03622 0.0
H634 H 0.81273 0.84027 0.02317 0.0
H635 H 0.83224 0.79634 0.03419 0.0
H636 H 0.46123 0.59076 0.2153 0.0
H637 H 0.41596 0.57546 0.2016 0.0
H638 H 0.3919 0.57109 0.28574 0.0
H639 H 0.43663 0.58718 0.29946 0.0
H640 H 0.38951 0.53 0.21173 0.0
H641 H 0.33096 0.61569 0.25508 0.0
H642 H 0.36746 0.61624 0.25214 0.0
H643 H 0.35147 0.59904 0.28011 0.0
C644 C 0.44628 0.58645 0.23083 0.0
C645 C 0.45234 0.59033 0.25841 0.0
C646 C 0.42043 0.57785 0.22301 0.0
C647 C 0.40035 0.57285 0.24264 0.0
C648 C 0.40676 0.57574 0.27022 0.0
H649 H 0.26154 0.47223 0.20978 0.0
H650 H 0.30076 0.49354 0.23141 0.0
C651 C 0.43242 0.58467 0.27803 0.0
C652 C 0.37302 0.56362 0.23434 0.0
H653 H 0.30525 0.5768 0.24149 0.0
C654 C 0.37111 0.54033 0.21811 0.0
C655 C 0.34903 0.57739 0.24234 0.0
C656 C 0.3498 0.60364 0.25813 0.0
C657 C 0.34589 0.5301 0.21006 0.0
C658 C 0.32187 0.54298 0.2193 0.0
C659 C 0.32371 0.56665 0.23499 0.0
C660 C 0.29479 0.53244 0.21193 0.0
C661 C 0.34529 0.50587 0.19125 0.0
C662 C 0.27715 0.54805 0.19587 0.0
C663 C 0.25426 0.53611 0.18412 0.0
C664 C 0.24909 0.50841 0.18813 0.0
C665 C 0.26529 0.4936 0.20631 0.0
C666 C 0.28778 0.50566 0.21844 0.0
H667 H 0.36483 0.50331 0.18024 0.0
H668 H 0.34176 0.48721 0.20332 0.0
H669 H 0.32874 0.50777 0.17607 0.0
H670 H 0.28213 0.56884 0.19084 0.0
H671 H 0.24214 0.54783 0.16999 0.0
H672 H 0.52277 0.16649 0.2619 0.0
H673 H 0.53837 0.19083 0.30266 0.0
H674 H 0.46698 0.1646 0.34594 0.0
H675 H 0.45123 0.14077 0.30584 0.0
H676 H 0.4786 0.21994 0.35231 0.0
H677 H 0.56795 0.1536 0.37231 0.0
H678 H 0.56609 0.16831 0.33896 0.0
H679 H 0.54107 0.144 0.34934 0.0
C680 C 0.51045 0.16602 0.28011 0.0
C681 C 0.48589 0.15158 0.28067 0.0
C682 C 0.5194 0.17978 0.30335 0.0
C683 C 0.50389 0.1792 0.3273 0.0
C684 C 0.47923 0.16522 0.32766 0.0
H685 H 0.55741 0.21722 0.49094 0.0
H686 H 0.53435 0.19594 0.45222 0.0
C687 C 0.47034 0.15154 0.30467 0.0
C688 C 0.51303 0.19291 0.35233 0.0
H689 H 0.56119 0.19067 0.40198 0.0
C690 C 0.4967 0.21363 0.36318 0.0
C691 C 0.5363 0.18416 0.36664 0.0
C692 C 0.55382 0.16116 0.35643 0.0
C693 C 0.50321 0.2261 0.38791 0.0
C694 C 0.52682 0.21778 0.40191 0.0
C695 C 0.54301 0.19688 0.3912 0.0
C696 C 0.53623 0.23165 0.42675 0.0
C697 C 0.48464 0.24783 0.39901 0.0
C698 C 0.54409 0.25889 0.4254 0.0
C699 C 0.55712 0.271 0.44735 0.0
C700 C 0.56264 0.25604 0.47099 0.0
C701 C 0.55319 0.22926 0.47303 0.0
C702 C 0.54023 0.21706 0.45091 0.0
H703 H 0.4639 0.24628 0.39029 0.0
H704 H 0.48318 0.2466 0.42147 0.0
H705 H 0.49289 0.26805 0.39362 0.0
H706 H 0.54155 0.27037 0.40682 0.0
H707 H 0.56413 0.2917 0.44526 0.0
H708 H 0.06513 0.28136 0.51202 0.0
H709 H 0.04637 0.29621 0.55575 0.0
H710 H 0.02999 0.21289 0.57693 0.0
H711 H 0.04982 0.19801 0.53388 0.0
H712 H 3e-05 0.29252 0.58245 0.0
H713 H 0.0785 0.23452 0.63835 0.0
H714 H 0.07933 0.23858 0.60199 0.0
H715 H 0.05804 0.21312 0.61724 0.0
C716 C 0.05695 0.26635 0.52582 0.0
C717 C 0.0591 0.23859 0.51989 0.0
C718 C 0.04643 0.27478 0.55083 0.0
C719 C 0.03767 0.25556 0.56998 0.0
C720 C 0.0376 0.22798 0.56292 0.0
H721 H 0.94763 0.30167 0.71417 0.0
H722 H 0.96241 0.28051 0.67174 0.0
C723 C 0.04862 0.21953 0.53824 0.0
C724 C 0.02968 0.26424 0.59767 0.0
H725 H 0.04299 0.25376 0.66493 0.0
C726 C 0.00946 0.28409 0.60048 0.0
C727 C 0.04249 0.25369 0.62119 0.0
C728 C 0.06599 0.23403 0.61958 0.0
C729 C 0.00138 0.29343 0.62614 0.0
C730 C 0.01313 0.2818 0.64969 0.0
C731 C 0.03366 0.26226 0.64688 0.0
C732 C 0.00487 0.2903 0.67736 0.0
C733 C 0.9809 0.31624 0.62763 0.0
C734 C 0.02414 0.30069 0.69565 0.0
C735 C 0.01581 0.31195 0.72039 0.0
C736 C 0.9881 0.31319 0.72686 0.0
C737 C 0.96911 0.30107 0.70944 0.0
C738 C 0.97748 0.28931 0.68509 0.0
H739 H 0.98038 0.32816 0.6085 0.0
H740 H 0.96036 0.30763 0.63083 0.0
H741 H 0.98547 0.33028 0.64467 0.0
H742 H 0.04544 0.30137 0.6902 0.0
H743 H 0.03075 0.3214 0.73346 0.0
H744 H 0.96166 0.8299 0.76376 0.0
H745 H 0.94494 0.80792 0.80523 0.0
H746 H 0.0259 0.77919 0.82265 0.0
H747 H 0.04277 0.80207 0.78205 0.0
H748 H 0.94389 0.75804 0.82631 0.0
H749 H 0.01013 0.8231 0.88956 0.0
H750 H 0.00567 0.82855 0.85365 0.0
H751 H 0.0291 0.80317 0.86568 0.0
C752 C 0.97567 0.81832 0.77616 0.0
C753 C 0.00346 0.81777 0.76999 0.0
C754 C 0.96619 0.80596 0.7999 0.0
C755 C 0.98439 0.79273 0.81748 0.0
C756 C 0.01171 0.79013 0.80991 0.0
H757 H 0.9305 0.69155 0.95039 0.0
H758 H 0.95417 0.70911 0.91048 0.0
C759 C 0.02125 0.80289 0.78657 0.0
C760 C 0.97513 0.78267 0.84423 0.0
H761 H 0.9878 0.78686 0.91232 0.0
C762 C 0.95344 0.76437 0.84512 0.0
C763 C 0.98722 0.79149 0.86882 0.0
C764 C 0.00911 0.81289 0.86946 0.0
C765 C 0.94377 0.75423 0.86988 0.0
C766 C 0.95686 0.76187 0.89435 0.0
C767 C 0.97821 0.7806 0.89351 0.0
C768 C 0.94791 0.75132 0.92101 0.0
C769 C 0.91916 0.73601 0.86954 0.0
C770 C 0.93887 0.76922 0.94136 0.0
C771 C 0.92619 0.75915 0.96468 0.0
C772 C 0.92225 0.73115 0.96763 0.0
C773 C 0.93336 0.71325 0.94842 0.0
C774 C 0.94651 0.72326 0.92548 0.0
H775 H 0.90708 0.73869 0.85068 0.0
H776 H 0.92585 0.71452 0.87038 0.0
H777 H 0.90576 0.74005 0.88723 0.0
H778 H 0.94003 0.79096 0.93841 0.0
H779 H 0.91742 0.77327 0.97912 0.0
H780 H 0.45733 0.68197 0.24194 0.0
H781 H 0.44301 0.70408 0.19976 0.0
H782 H 0.52477 0.73268 0.18708 0.0
H783 H 0.53932 0.70929 0.22842 0.0
H784 H 0.44279 0.75213 0.17433 0.0
H785 H 0.51542 0.68252 0.12347 0.0
H786 H 0.5079 0.68038 0.15919 0.0
H787 H 0.53155 0.70527 0.14682 0.0
C788 C 0.4719 0.694 0.23072 0.0
C789 C 0.49934 0.69411 0.23827 0.0
C790 C 0.46381 0.70639 0.2065 0.0
C791 C 0.48306 0.71919 0.18982 0.0
C792 C 0.50979 0.72215 0.19921 0.0
H793 H 0.43638 0.79957 0.0393 0.0
H794 H 0.45468 0.78947 0.08427 0.0
C795 C 0.51799 0.70924 0.22303 0.0
C796 C 0.47591 0.72662 0.16155 0.0
H797 H 0.49266 0.71406 0.09538 0.0
C798 C 0.45372 0.7439 0.15705 0.0
C799 C 0.48975 0.71519 0.13899 0.0
C800 C 0.51228 0.69459 0.14228 0.0
C801 C 0.44509 0.75026 0.13065 0.0
C802 C 0.45968 0.73978 0.10812 0.0
C803 C 0.48176 0.72238 0.11264 0.0
C804 C 0.45177 0.74589 0.07971 0.0
C805 C 0.41983 0.76734 0.12726 0.0
C806 C 0.44601 0.72472 0.06143 0.0
C807 C 0.43632 0.73047 0.03535 0.0
C808 C 0.432 0.75745 0.02738 0.0
C809 C 0.43924 0.77857 0.04513 0.0
C810 C 0.4494 0.77283 0.07092 0.0
H811 H 0.4068 0.76669 0.14567 0.0
H812 H 0.42576 0.78878 0.1239 0.0
H813 H 0.40763 0.76047 0.10961 0.0
H814 H 0.44798 0.70375 0.0677 0.0
H815 H 0.43073 0.71386 0.02208 0.0
H816 H 0.05626 0.32756 0.36983 0.0
H817 H 0.06533 0.35471 0.32893 0.0
H818 H 0.10999 0.28754 0.29443 0.0
H819 H 0.10014 0.26039 0.33472 0.0
H820 H 0.1171 0.36788 0.3145 0.0
H821 H 0.06735 0.314 0.22944 0.0
H822 H 0.05857 0.30789 0.26452 0.0
H823 H 0.08787 0.29176 0.2497 0.0
C824 C 0.0674 0.31857 0.35311 0.0
C825 C 0.07808 0.2923 0.35539 0.0
C826 C 0.07258 0.33396 0.32989 0.0
C827 C 0.08816 0.32303 0.30861 0.0
C828 C 0.09753 0.29621 0.31037 0.0
H829 H 0.18754 0.38154 0.17807 0.0
H830 H 0.16361 0.35468 0.21242 0.0
C831 C 0.09231 0.28089 0.33351 0.0
C832 C 0.09783 0.34054 0.28636 0.0
H833 H 0.10375 0.34437 0.21743 0.0
C834 C 0.11379 0.36304 0.29327 0.0
C835 C 0.09366 0.33395 0.25872 0.0
C836 C 0.0757 0.31072 0.25014 0.0
C837 C 0.12655 0.3786 0.27327 0.0
C838 C 0.12296 0.37158 0.2457 0.0
C839 C 0.10654 0.34947 0.23867 0.0
C840 C 0.13626 0.38711 0.22397 0.0
C841 C 0.14452 0.40189 0.28176 0.0
C842 C 0.12841 0.41395 0.21902 0.0
C843 C 0.14206 0.42931 0.19967 0.0
C844 C 0.16379 0.41805 0.18488 0.0
C845 C 0.17116 0.39087 0.1894 0.0
C846 C 0.15742 0.37547 0.20883 0.0
H847 H 0.14933 0.40131 0.30379 0.0
H848 H 0.16383 0.40165 0.27012 0.0
H849 H 0.134 0.42134 0.27741 0.0
H850 H 0.11192 0.42309 0.23039 0.0
H851 H 0.13573 0.45014 0.19655 0.0
H852 H 0.98908 0.8929 0.59421 0.0
H853 H 0.96589 0.90897 0.55329 0.0
H854 H 0.89332 0.86677 0.57792 0.0
H855 H 0.91634 0.85147 0.61946 0.0
H856 H 0.94194 0.87931 0.51165 0.0
H857 H 0.86646 0.94441 0.56434 0.0
H858 H 0.89639 0.9314 0.58103 0.0
H859 H 0.86715 0.91009 0.57649 0.0
C860 C 0.96801 0.8876 0.59113 0.0
C861 C 0.95408 0.87178 0.61029 0.0
C862 C 0.95491 0.89649 0.56766 0.0
C863 C 0.92775 0.88956 0.56295 0.0
C864 C 0.9141 0.87288 0.58158 0.0
H865 H 0.80767 0.90592 0.44134 0.0
H866 H 0.83712 0.89488 0.47942 0.0
C867 C 0.92722 0.86402 0.6051 0.0
C868 C 0.91376 0.8995 0.53838 0.0
H869 H 0.85847 0.93554 0.51742 0.0
C870 C 0.92386 0.89185 0.51283 0.0
C871 C 0.89038 0.9161 0.5401 0.0
C872 C 0.87957 0.92623 0.56695 0.0
C873 C 0.91038 0.89938 0.48889 0.0
C874 C 0.88644 0.91507 0.49073 0.0
C875 C 0.87684 0.92342 0.51621 0.0
C876 C 0.86973 0.92125 0.46669 0.0
C877 C 0.92113 0.88968 0.46188 0.0
C878 C 0.87851 0.93968 0.44688 0.0
C879 C 0.86165 0.94614 0.42493 0.0
C880 C 0.83582 0.93424 0.42267 0.0
C881 C 0.82741 0.9155 0.44245 0.0
C882 C 0.84418 0.90915 0.46427 0.0
H883 H 0.93803 0.8749 0.46421 0.0
H884 H 0.90464 0.88004 0.44993 0.0
H885 H 0.92867 0.9073 0.4501 0.0
H886 H 0.89814 0.94939 0.44865 0.0
H887 H 0.86864 0.9607 0.41004 0.0
H888 H 0.34219 0.54005 0.70852 0.0
H889 H 0.36369 0.56675 0.74392 0.0
H890 H 0.32589 0.63932 0.71273 0.0
H891 H 0.30367 0.61246 0.67703 0.0
H892 H 0.3995 0.61035 0.73858 0.0
H893 H 0.30481 0.63857 0.79374 0.0
H894 H 0.30561 0.61218 0.76832 0.0
H895 H 0.30613 0.64719 0.7583 0.0
C896 C 0.33829 0.56169 0.7091 0.0
C897 C 0.32112 0.57415 0.68999 0.0
C898 C 0.35072 0.57691 0.72933 0.0
C899 C 0.34629 0.60491 0.73097 0.0
C900 C 0.32929 0.61762 0.71192 0.0
H901 H 0.43674 0.7086 0.84297 0.0
H902 H 0.42128 0.68588 0.80139 0.0
C903 C 0.31667 0.6023 0.69157 0.0
C904 C 0.35943 0.6203 0.75306 0.0
H905 H 0.3461 0.65353 0.81232 0.0
C906 C 0.3879 0.62004 0.75462 0.0
C907 C 0.34411 0.63257 0.77401 0.0
C908 C 0.31347 0.63257 0.77377 0.0
C909 C 0.4015 0.63124 0.77697 0.0
C910 C 0.38616 0.64329 0.79801 0.0
C911 C 0.35774 0.64413 0.79612 0.0
C912 C 0.39894 0.65463 0.82263 0.0
C913 C 0.43204 0.62922 0.77837 0.0
C914 C 0.39195 0.64423 0.8482 0.0
C915 C 0.40072 0.65719 0.87178 0.0
C916 C 0.4165 0.68073 0.87007 0.0
C917 C 0.42489 0.69019 0.84457 0.0
C918 C 0.41602 0.6773 0.82093 0.0
H919 H 0.44018 0.614 0.76382 0.0
H920 H 0.44098 0.64921 0.77327 0.0
H921 H 0.43876 0.62368 0.79916 0.0
H922 H 0.37882 0.6267 0.84988 0.0
H923 H 0.39413 0.64968 0.89135 0.0
H924 H 0.49338 0.11952 0.09266 0.0
H925 H 0.51172 0.10578 0.04835 0.0
H926 H 0.59284 0.12172 0.07719 0.0
H927 H 0.57431 0.13535 0.12168 0.0
H928 H 0.54764 0.13469 0.01073 0.0
H929 H 0.5913 0.03963 0.05293 0.0
H930 H 0.56545 0.05906 0.07032 0.0
H931 H 0.60017 0.07007 0.07099 0.0
C932 C 0.51509 0.12025 0.0893 0.0
C933 C 0.53262 0.1281 0.11033 0.0
C934 C 0.52549 0.1125 0.06412 0.0
C935 C 0.55359 0.11237 0.05977 0.0
C936 C 0.57109 0.1214 0.0804 0.0
H937 H 0.66045 0.10202 0.92847 0.0
H938 H 0.62745 0.11529 0.9628 0.0
C939 C 0.56061 0.12933 0.10558 0.0
C940 C 0.56466 0.10184 0.034 0.0
H941 H 0.60437 0.05139 0.00798 0.0
C942 C 0.55985 0.11636 0.01001 0.0
C943 C 0.57992 0.07754 0.03312 0.0
C944 C 0.58438 0.06046 0.05814 0.0
C945 C 0.57129 0.10797 0.98529 0.0
C946 C 0.58801 0.08463 0.98477 0.0
C947 C 0.59154 0.0693 0.00849 0.0
C948 C 0.60488 0.07773 0.96095 0.0
C949 C 0.56587 0.12442 0.96006 0.0
C950 C 0.603 0.05219 0.9484 0.0
C951 C 0.62192 0.04451 0.92858 0.0
C952 C 0.6432 0.06211 0.92162 0.0
C953 C 0.64432 0.08799 0.93354 0.0
C954 C 0.62534 0.09572 0.95299 0.0
H955 H 0.54654 0.13595 0.96175 0.0
H956 H 0.58254 0.13926 0.95723 0.0
H957 H 0.56499 0.11125 0.94177 0.0
H958 H 0.58745 0.03795 0.95455 0.0
H959 H 0.62072 0.0244 0.91977 0.0
H960 H 0.62477 0.24773 0.65191 0.0
H961 H 0.63899 0.22334 0.69295 0.0
H962 H 0.59085 0.15452 0.66848 0.0
H963 H 0.57681 0.17897 0.62721 0.0
H964 H 0.60619 0.19441 0.73625 0.0
H965 H 0.6737 0.1295 0.67271 0.0
H966 H 0.66061 0.16169 0.66104 0.0
H967 H 0.63893 0.1325 0.66192 0.0
C968 C 0.61716 0.22746 0.65552 0.0
C969 C 0.60026 0.21481 0.63641 0.0
C970 C 0.62507 0.2137 0.67893 0.0
C971 C 0.61618 0.18712 0.68342 0.0
C972 C 0.59801 0.17501 0.66512 0.0
H973 H 0.66083 0.0586 0.79046 0.0
H974 H 0.64232 0.0882 0.75561 0.0
C975 C 0.58998 0.18888 0.64174 0.0
C976 C 0.62773 0.17133 0.70599 0.0
H977 H 0.67135 0.11931 0.71938 0.0
C978 C 0.62045 0.17798 0.73271 0.0
C979 C 0.64651 0.15022 0.70106 0.0
C980 C 0.65565 0.14306 0.67268 0.0
C981 C 0.63095 0.16334 0.75478 0.0
C982 C 0.64954 0.14199 0.7498 0.0
C983 C 0.65708 0.13572 0.72306 0.0
C984 C 0.66035 0.12477 0.7718 0.0
C985 C 0.6215 0.17025 0.7831 0.0
C986 C 0.67681 0.13557 0.7924 0.0
C987 C 0.68744 0.11864 0.81256 0.0
C988 C 0.68193 0.09067 0.81219 0.0
C989 C 0.66554 0.08003 0.79138 0.0
C990 C 0.6549 0.09691 0.77141 0.0
H991 H 0.60292 0.18308 0.78291 0.0
H992 H 0.61726 0.15154 0.79489 0.0
H993 H 0.63773 0.18163 0.79376 0.0
H994 H 0.68163 0.157 0.79272 0.0
H995 H 0.69987 0.12743 0.82838 0.0
H996 H 0.20191 0.40752 0.04888 0.0
H997 H 0.1798 0.38661 0.00971 0.0
H998 H 0.10297 0.42043 0.0349 0.0
H999 H 0.12492 0.44161 0.07406 0.0
H1000 H 0.13678 0.34995 0.00613 0.0
H1001 H 0.11212 0.4483 0.95706 0.0
H1002 H 0.13556 0.44555 0.98508 0.0
H1003 H 0.09956 0.44532 0.99115 0.0
C1004 C 0.18028 0.41045 0.04614 0.0
C1005 C 0.1652 0.42659 0.06427 0.0
C1006 C 0.16772 0.39846 0.02379 0.0
C1007 C 0.13992 0.40243 0.01923 0.0
C1008 C 0.1246 0.41769 0.0378 0.0
H1009 H 0.02958 0.32069 0.91178 0.0
H1010 H 0.05854 0.33362 0.95013 0.0
C1011 C 0.13716 0.42978 0.06012 0.0
C1012 C 0.12706 0.39101 0.99472 0.0
H1013 H 0.09243 0.40891 0.9376 0.0
C1014 C 0.12719 0.36278 0.99102 0.0
C1015 C 0.11507 0.40792 0.97489 0.0
C1016 C 0.11575 0.43847 0.97703 0.0
C1017 C 0.11491 0.35091 0.96825 0.0
C1018 C 0.10188 0.36777 0.94904 0.0
C1019 C 0.10236 0.39603 0.95245 0.0
C1020 C 0.08673 0.35675 0.92564 0.0
C1021 C 0.11619 0.32051 0.96486 0.0
C1022 C 0.09307 0.36537 0.89924 0.0
C1023 C 0.0764 0.35823 0.87751 0.0
C1024 C 0.05313 0.34253 0.88194 0.0
C1025 C 0.04755 0.33273 0.90806 0.0
C1026 C 0.06412 0.34 0.92985 0.0
H1027 H 0.13347 0.31162 0.97632 0.0
H1028 H 0.09721 0.31144 0.97286 0.0
H1029 H 0.11818 0.31476 0.94315 0.0
H1030 H 0.11045 0.37831 0.89561 0.0
H1031 H 0.0812 0.36556 0.85737 0.0
H1032 H 0.83795 0.92891 0.28439 0.0
H1033 H 0.85593 0.89641 0.25164 0.0
H1034 H 0.81579 0.83121 0.29385 0.0
H1035 H 0.79762 0.86369 0.32693 0.0
H1036 H 0.88819 0.84827 0.2589 0.0
H1037 H 0.7859 0.82838 0.21496 0.0
H1038 H 0.79248 0.85693 0.23694 0.0
H1039 H 0.7896 0.82346 0.25095 0.0
C1040 C 0.83302 0.90765 0.28687 0.0
C1041 C 0.81593 0.89892 0.30798 0.0
C1042 C 0.84342 0.88912 0.26819 0.0
C1043 C 0.83691 0.86155 0.27023 0.0
C1044 C 0.82068 0.85253 0.29179 0.0
H1045 H 0.90263 0.73948 0.15766 0.0
H1046 H 0.89158 0.76392 0.19984 0.0
C1047 C 0.81025 0.8711 0.31057 0.0
C1048 C 0.84605 0.84276 0.24876 0.0
H1049 H 0.8231 0.80695 0.19417 0.0
C1050 C 0.87402 0.8389 0.2449 0.0
C1051 C 0.82739 0.83092 0.23049 0.0
C1052 C 0.79716 0.83518 0.23328 0.0
C1053 C 0.8839 0.82392 0.22275 0.0
C1054 C 0.86523 0.81251 0.20426 0.0
C1055 C 0.83727 0.81577 0.20852 0.0
C1056 C 0.87414 0.7986 0.17929 0.0
C1057 C 0.91413 0.82129 0.21861 0.0
C1058 C 0.86821 0.81023 0.154 0.0
C1059 C 0.8745 0.79638 0.13013 0.0
C1060 C 0.88647 0.77058 0.13123 0.0
C1061 C 0.89336 0.75938 0.1565 0.0
C1062 C 0.88709 0.77326 0.18046 0.0
H1063 H 0.92577 0.8347 0.23249 0.0
H1064 H 0.92039 0.8 0.22244 0.0
H1065 H 0.9196 0.82629 0.19732 0.0
H1066 H 0.85838 0.82988 0.15278 0.0
H1067 H 0.86975 0.80567 0.11081 0.0
H1068 H 0.32181 0.5847 0.55804 0.0
H1069 H 0.35542 0.60256 0.52672 0.0
H1070 H 0.41479 0.54574 0.55708 0.0
H1071 H 0.38087 0.52723 0.58856 0.0
H1072 H 0.40681 0.62566 0.53702 0.0
H1073 H 0.41254 0.53146 0.47444 0.0
H1074 H 0.38582 0.53703 0.49889 0.0
H1075 H 0.41937 0.5284 0.51018 0.0
C1076 C 0.34199 0.57593 0.55817 0.0
C1077 C 0.34864 0.55439 0.57564 0.0
C1078 C 0.36121 0.58629 0.54033 0.0
C1079 C 0.38747 0.57537 0.53954 0.0
C1080 C 0.39448 0.55421 0.55727 0.0
H1081 H 0.50217 0.65286 0.4259 0.0
H1082 H 0.48341 0.63516 0.46863 0.0
C1083 C 0.37514 0.54372 0.57521 0.0
C1084 C 0.4067 0.58579 0.51912 0.0
H1085 H 0.43487 0.56995 0.45789 0.0
C1086 C 0.41343 0.61344 0.51991 0.0
C1087 C 0.41503 0.5697 0.49686 0.0
C1088 C 0.40777 0.54003 0.49477 0.0
C1089 C 0.42713 0.6258 0.49827 0.0
C1090 C 0.4345 0.60991 0.47555 0.0
C1091 C 0.42905 0.58198 0.47541 0.0
C1092 C 0.44554 0.62216 0.45059 0.0
C1093 C 0.4322 0.65597 0.49913 0.0
C1094 C 0.43034 0.62083 0.42655 0.0
C1095 C 0.441 0.63082 0.40235 0.0
C1096 C 0.46706 0.64211 0.40185 0.0
C1097 C 0.48193 0.64433 0.42605 0.0
C1098 C 0.4713 0.63423 0.45031 0.0
H1099 H 0.42132 0.66597 0.5162 0.0
H1100 H 0.45426 0.65969 0.50168 0.0
H1101 H 0.42574 0.6656 0.47981 0.0
H1102 H 0.41032 0.61175 0.42647 0.0
H1103 H 0.42913 0.62937 0.38393 0.0
H1104 H 0.15506 0.20667 0.36568 0.0
H1105 H 0.18803 0.18622 0.33409 0.0
H1106 H 0.22221 0.13967 0.39984 0.0
H1107 H 0.18995 0.15974 0.43122 0.0
H1108 H 0.24706 0.18702 0.33905 0.0
H1109 H 0.20573 0.08269 0.33995 0.0
H1110 H 0.18593 0.11199 0.34988 0.0
H1111 H 0.20934 0.09673 0.3734 0.0
C1112 C 0.16964 0.19211 0.37333 0.0
C1113 C 0.16984 0.18483 0.40094 0.0
C1114 C 0.18833 0.18041 0.35529 0.0
C1115 C 0.20709 0.16108 0.36463 0.0
C1116 C 0.20747 0.1541 0.39216 0.0
H1117 H 0.36542 0.10796 0.32845 0.0
H1118 H 0.32282 0.12778 0.34515 0.0
C1119 C 0.18908 0.1658 0.4101 0.0
C1120 C 0.22742 0.14874 0.34638 0.0
H1121 H 0.25308 0.08705 0.32802 0.0
C1122 C 0.24812 0.16523 0.33606 0.0
C1123 C 0.22853 0.12036 0.34229 0.0
C1124 C 0.20603 0.10192 0.35173 0.0
C1125 C 0.27096 0.15382 0.32341 0.0
C1126 C 0.27316 0.12526 0.32149 0.0
C1127 C 0.25152 0.10892 0.32999 0.0
C1128 C 0.29841 0.11199 0.31218 0.0
C1129 C 0.29286 0.17238 0.31284 0.0
C1130 C 0.29842 0.09549 0.28897 0.0
C1131 C 0.32268 0.08415 0.27956 0.0
C1132 C 0.34713 0.08914 0.29331 0.0
C1133 C 0.34682 0.1044 0.31733 0.0
C1134 C 0.32261 0.11574 0.32673 0.0
H1135 H 0.28479 0.19301 0.30857 0.0
H1136 H 0.30903 0.17433 0.3284 0.0
H1137 H 0.30215 0.16412 0.29401 0.0
H1138 H 0.27985 0.09212 0.2777 0.0
H1139 H 0.32262 0.07249 0.26092 0.0
H1140 H 0.11923 0.09545 0.5125 0.0
H1141 H 0.10989 0.05493 0.53975 0.0
H1142 H 0.16069 0.08631 0.60384 0.0
H1143 H 0.16958 0.12723 0.57653 0.0
H1144 H 0.14445 0.01569 0.56394 0.0
H1145 H 0.08568 0.07553 0.63988 0.0
H1146 H 0.09506 0.08909 0.60719 0.0
H1147 H 0.11986 0.08666 0.6338 0.0
C1148 C 0.12834 0.09352 0.53242 0.0
C1149 C 0.14445 0.11445 0.54295 0.0
C1150 C 0.12319 0.07044 0.54783 0.0
C1151 C 0.13423 0.06794 0.57393 0.0
C1152 C 0.15162 0.08818 0.5839 0.0
H1153 H 0.09753 0.95115 0.69982 0.0
H1154 H 0.1179 0.98702 0.67264 0.0
C1155 C 0.15676 0.11136 0.5684 0.0
C1156 C 0.12616 0.04478 0.59104 0.0
H1157 H 0.08929 0.02855 0.64729 0.0
C1158 C 0.13254 0.01843 0.58227 0.0
C1159 C 0.11047 0.04857 0.61478 0.0
C1160 C 0.10212 0.07644 0.62446 0.0
C1161 C 0.1236 -0.00437 0.59673 0.0
C1162 C 0.10757 -0.00056 0.62023 0.0
C1163 C 0.10159 0.0258 0.62922 0.0
C1164 C 0.09648 0.97645 0.63582 0.0
C1165 C 0.13149 0.96772 0.58688 0.0
C1166 C 0.07765 0.95865 0.62403 0.0
C1167 C 0.06591 0.93802 0.63951 0.0
C1168 C 0.07269 0.9351 0.66707 0.0
C1169 C 0.0918 0.95285 0.67866 0.0
C1170 C 0.1035 0.97336 0.66318 0.0
H1171 H 0.14925 0.96843 0.57297 0.0
H1172 H 0.1364 0.95416 0.6042 0.0
H1173 H 0.11421 0.95872 0.5756 0.0
H1174 H 0.07163 0.96105 0.60301 0.0
H1175 H 0.05144 0.92456 0.62997 0.0
H1176 H 0.15823 0.86565 0.75284 0.0
H1177 H 0.20158 0.84596 0.76768 0.0
H1178 H 0.18147 0.86515 0.8508 0.0
H1179 H 0.1379 0.88474 0.83578 0.0
H1180 H 0.2446 0.87071 0.79937 0.0
H1181 H 0.19751 0.78136 0.84905 0.0
H1182 H 0.17978 0.80202 0.82447 0.0
H1183 H 0.18324 0.81349 0.85894 0.0
C1184 C 0.16325 0.86562 0.77424 0.0
C1185 C 0.14493 0.87624 0.79335 0.0
C1186 C 0.18788 0.8545 0.78265 0.0
C1187 C 0.19438 0.85372 0.81031 0.0
C1188 C 0.17649 0.86522 0.82938 0.0
H1189 H 0.3285 0.83781 0.90941 0.0
H1190 H 0.29372 0.85127 0.87707 0.0
C1191 C 0.15187 0.87653 0.8209 0.0
C1192 C 0.21984 0.84076 0.81929 0.0
H1193 H 0.24414 0.78973 0.85916 0.0
C1194 C 0.24459 0.85279 0.81213 0.0
C1195 C 0.21969 0.81701 0.83532 0.0
C1196 C 0.19366 0.8025 0.84223 0.0
C1197 C 0.26922 0.84266 0.82221 0.0
C1198 C 0.26889 0.82013 0.83992 0.0
C1199 C 0.24429 0.80703 0.84557 0.0
C1200 C 0.29286 0.81262 0.85622 0.0
C1201 C 0.29532 0.85666 0.81457 0.0
C1202 C 0.30401 0.78638 0.85508 0.0
C1203 C 0.32416 0.7786 0.8736 0.0
C1204 C 0.33274 0.79684 0.89376 0.0
C1205 C 0.32212 0.8233 0.89416 0.0
C1206 C 0.30243 0.83112 0.87554 0.0
H1207 H 0.29339 0.86733 0.79481 0.0
H1208 H 0.30029 0.87201 0.83029 0.0
H1209 H 0.31241 0.84198 0.81333 0.0
H1210 H 0.29657 0.77176 0.84044 0.0
H1211 H 0.33199 0.75805 0.87303 0.0
H1212 H 0.43733 0.0799 0.1203 0.0
H1213 H 0.4172 0.05107 0.08511 0.0
H1214 H 0.37297 0.00724 0.14659 0.0
H1215 H 0.3927 0.03579 0.18161 0.0
H1216 H 0.42452 -0.00323 0.08165 0.0
H1217 H 0.31487 0.01833 0.08967 0.0
H1218 H 0.34031 0.0406 0.10381 0.0
H1219 H 0.32896 0.01132 0.12248 0.0
C1220 C 0.42319 0.06422 0.12625 0.0
C1221 C 0.41684 0.0599 0.15374 0.0
C1222 C 0.41154 0.04797 0.10614 0.0
C1223 C 0.3932 0.02741 0.11323 0.0
C1224 C 0.38644 0.02351 0.14059 0.0
H1225 H 0.37023 0.86806 0.06303 0.0
H1226 H 0.3802 0.91234 0.08331 0.0
C1227 C 0.39802 0.03967 0.16063 0.0
C1228 C 0.38362 0.00769 0.09284 0.0
H1229 H 0.327 0.97307 0.07323 0.0
C1230 C 0.40316 0.99203 0.07924 0.0
C1231 C 0.35574 0.00177 0.08942 0.0
C1232 C 0.33379 0.01913 0.10192 0.0
C1233 C 0.39566 0.9692 0.06414 0.0
C1234 C 0.36801 0.96174 0.06304 0.0
C1235 C 0.34825 0.97862 0.07466 0.0
C1236 C 0.35974 0.9353 0.05191 0.0
C1237 C 0.41748 0.9526 0.05038 0.0
C1238 C 0.34391 0.93371 0.02833 0.0
C1239 C 0.33828 0.90845 0.01678 0.0
C1240 C 0.34847 0.88466 0.02872 0.0
C1241 C 0.36286 0.88626 0.0532 0.0
C1242 C 0.36849 0.91143 0.06472 0.0
H1243 H 0.43602 0.96483 0.04659 0.0
H1244 H 0.42319 0.93536 0.0637 0.0
H1245 H 0.41016 0.94423 0.03077 0.0
H1246 H 0.3368 0.95199 0.01839 0.0
H1247 H 0.32706 0.90749 -0.0021 0.0
H1248 H 0.83793 0.37457 0.73428 0.0
H1249 H 0.79892 0.36219 0.70605 0.0
H1250 H 0.83676 0.40037 0.63696 0.0
H1251 H 0.87622 0.41216 0.66523 0.0
H1252 H 0.76296 0.39334 0.67267 0.0
H1253 H 0.82618 0.31995 0.61427 0.0
H1254 H 0.83723 0.3346 0.64598 0.0
H1255 H 0.83861 0.35419 0.61529 0.0
C1256 C 0.8378 0.38026 0.71306 0.0
C1257 C 0.86015 0.39356 0.70154 0.0
C1258 C 0.81553 0.37343 0.69708 0.0
C1259 C 0.81533 0.37994 0.6694 0.0
C1260 C 0.83688 0.39481 0.65823 0.0
H1261 H 0.70833 0.33277 0.53917 0.0
H1262 H 0.74391 0.35257 0.56725 0.0
C1263 C 0.8592 0.40165 0.67429 0.0
C1264 C 0.79334 0.36957 0.65203 0.0
H1265 H 0.78045 0.32461 0.60103 0.0
C1266 C 0.7667 0.37838 0.65693 0.0
C1267 C 0.79846 0.34989 0.63176 0.0
C1268 C 0.82661 0.33886 0.62656 0.0
C1269 C 0.74492 0.3682 0.64174 0.0
C1270 C 0.75006 0.34846 0.62155 0.0
C1271 C 0.77671 0.33976 0.61658 0.0
C1272 C 0.72813 0.3367 0.605 0.0
C1273 C 0.71669 0.37887 0.64713 0.0
C1274 C 0.70774 0.32093 0.61701 0.0
C1275 C 0.68732 0.30952 0.60102 0.0
C1276 C 0.68716 0.31365 0.57279 0.0
C1277 C 0.70785 0.32924 0.56087 0.0
C1278 C 0.72818 0.34059 0.57684 0.0
H1279 H 0.71707 0.39824 0.65868 0.0
H1280 H 0.70554 0.38215 0.62782 0.0
H1281 H 0.70528 0.36377 0.65929 0.0
H1282 H 0.70771 0.31734 0.6387 0.0
H1283 H 0.67159 0.29774 0.61078 0.0
H1284 H 0.96638 0.44093 0.85854 0.0
H1285 H 0.94395 0.48002 0.88029 0.0
H1286 H 0.86647 0.45221 0.85042 0.0
H1287 H 0.8888 0.41398 0.82818 0.0
H1288 H 0.87815 0.50352 0.83434 0.0
H1289 H 0.8938 0.49237 0.94548 0.0
H1290 H 0.92419 0.48975 0.92544 0.0
H1291 H 0.89816 0.46449 0.92202 0.0
C1292 C 0.94449 0.44285 0.85746 0.0
C1293 C 0.92921 0.42474 0.84173 0.0
C1294 C 0.9317 0.46509 0.86983 0.0
C1295 C 0.90354 0.46896 0.86691 0.0
C1296 C 0.8882 0.44964 0.85282 0.0
H1297 H 0.80661 0.59506 0.94288 0.0
H1298 H 0.82237 0.5515 0.92445 0.0
C1299 C 0.90093 0.42783 0.84021 0.0
C1300 C 0.89031 0.49452 0.87542 0.0
H1301 H 0.87612 0.53459 0.93009 0.0
C1302 C 0.87758 0.51025 0.85532 0.0
C1303 C 0.88946 0.5031 0.90277 0.0
C1304 C 0.90191 0.48647 0.92525 0.0
C1305 C 0.86412 0.53445 0.86179 0.0
C1306 C 0.86387 0.5434 0.88901 0.0
C1307 C 0.87639 0.5276 0.9092 0.0
C1308 C 0.85147 0.56953 0.89697 0.0
C1309 C 0.85002 0.55003 0.83949 0.0
C1310 C 0.86195 0.59397 0.88685 0.0
C1311 C 0.85271 0.61872 0.8971 0.0
C1312 C 0.83314 0.61931 0.91777 0.0
C1313 C 0.82148 0.59496 0.92668 0.0
C1314 C 0.83068 0.57018 0.91643 0.0
H1315 H 0.84553 0.53689 0.82172 0.0
H1316 H 0.83074 0.55914 0.84686 0.0
H1317 H 0.86343 0.56669 0.83252 0.0
H1318 H 0.87824 0.59388 0.87208 0.0
H1319 H 0.86187 0.63736 0.89003 0.0
H1320 H 0.78357 0.64245 0.0345 0.0
H1321 H 0.74273 0.62726 0.05786 0.0
H1322 H 0.75219 0.69134 0.11687 0.0
H1323 H 0.79394 0.70606 0.09406 0.0
H1324 H 0.73804 0.6451 0.14056 0.0
H1325 H 0.6699 0.66314 0.05312 0.0
H1326 H 0.69707 0.64042 0.04459 0.0
H1327 H 0.7045 0.675 0.0538 0.0
C1328 C 0.77698 0.65329 0.05249 0.0
C1329 C 0.79171 0.67559 0.06238 0.0
C1330 C 0.75353 0.64472 0.06567 0.0
C1331 C 0.74399 0.65868 0.08858 0.0
C1332 C 0.7591 0.68048 0.09901 0.0
H1333 H 0.58246 0.64415 0.15592 0.0
H1334 H 0.62265 0.65724 0.12983 0.0
C1335 C 0.78291 0.68883 0.08605 0.0
C1336 C 0.71846 0.65016 0.10181 0.0
H1337 H 0.65169 0.63665 0.08942 0.0
C1338 C 0.71911 0.64341 0.12945 0.0
C1339 C 0.69369 0.64842 0.08734 0.0
C1340 C 0.69114 0.65742 0.05816 0.0
C1341 C 0.69574 0.63449 0.14294 0.0
C1342 C 0.67133 0.63132 0.1281 0.0
C1343 C 0.67056 0.63857 0.10059 0.0
C1344 C 0.64609 0.62178 0.14115 0.0
C1345 C 0.69734 0.62923 0.1731 0.0
C1346 C 0.64545 0.59687 0.15492 0.0
C1347 C 0.62278 0.58977 0.17032 0.0
C1348 C 0.60037 0.60733 0.17184 0.0
C1349 C 0.59998 0.63088 0.15587 0.0
C1350 C 0.62279 0.6382 0.14081 0.0
H1351 H 0.71482 0.63991 0.18251 0.0
H1352 H 0.67848 0.63584 0.18356 0.0
H1353 H 0.70013 0.60717 0.17663 0.0
H1354 H 0.66287 0.58344 0.15462 0.0
H1355 H 0.62332 0.57131 0.18219 0.0
H1356 H 0.67224 0.39944 0.4471 0.0
H1357 H 0.6562 0.43977 0.42255 0.0
H1358 H 0.60411 0.3892 0.37362 0.0
H1359 H 0.6201 0.34899 0.39833 0.0
H1360 H 0.65353 0.45525 0.36731 0.0
H1361 H 0.55153 0.44121 0.41312 0.0
H1362 H 0.58117 0.42311 0.42485 0.0
H1363 H 0.56377 0.4122 0.39468 0.0
C1364 C 0.65791 0.39703 0.43062 0.0
C1365 C 0.64701 0.37144 0.42468 0.0
C1366 C 0.64867 0.41995 0.41675 0.0
C1367 C 0.62851 0.41742 0.39681 0.0
C1368 C 0.61922 0.39156 0.38943 0.0
H1369 H 0.56853 0.53643 0.28432 0.0
H1370 H 0.58945 0.49778 0.30701 0.0
C1371 C 0.62837 0.3687 0.40337 0.0
C1372 C 0.61591 0.44188 0.38499 0.0
H1373 H 0.55543 0.47525 0.37928 0.0
C1374 C 0.63212 0.45971 0.36994 0.0
C1375 C 0.58811 0.44787 0.38908 0.0
C1376 C 0.57014 0.43026 0.40653 0.0
C1377 C 0.62101 0.48309 0.35811 0.0
C1378 C 0.59292 0.48837 0.36111 0.0
C1379 C 0.5769 0.47094 0.37682 0.0
C1380 C 0.57961 0.51156 0.34756 0.0
C1381 C 0.63947 0.50203 0.34273 0.0
C1382 C 0.56618 0.53153 0.36287 0.0
C1383 C 0.55389 0.55359 0.34994 0.0
C1384 C 0.55483 0.55589 0.32151 0.0
C1385 C 0.56765 0.53539 0.30627 0.0
C1386 C 0.57981 0.51338 0.31919 0.0
H1387 H 0.66102 0.4994 0.34886 0.0
H1388 H 0.63798 0.49757 0.32069 0.0
H1389 H 0.63354 0.52354 0.34601 0.0
H1390 H 0.56559 0.53025 0.38482 0.0
H1391 H 0.5441 0.56903 0.36221 0.0
H1392 H 0.33282 0.37654 0.1232 0.0
H1393 H 0.35404 0.334 0.13836 0.0
H1394 H 0.27759 0.30825 0.17235 0.0
H1395 H 0.25626 0.35005 0.15627 0.0
H1396 H 0.35804 0.31293 0.19136 0.0
H1397 H 0.2992 0.2447 0.12344 0.0
H1398 H 0.30029 0.28099 0.11869 0.0
H1399 H 0.27904 0.26659 0.14458 0.0
C1400 C 0.3207 0.36174 0.13396 0.0
C1401 C 0.29316 0.36677 0.13918 0.0
C1402 C 0.33275 0.33758 0.14263 0.0
C1403 C 0.31728 0.31798 0.1563 0.0
C1404 C 0.28978 0.32302 0.16161 0.0
H1405 H 0.36844 0.15879 0.21821 0.0
H1406 H 0.34136 0.19974 0.20926 0.0
C1407 C 0.27775 0.34711 0.15288 0.0
C1408 C 0.33002 0.29227 0.16497 0.0
H1409 H 0.32896 0.22376 0.15472 0.0
C1410 C 0.35165 0.29343 0.18343 0.0
C1411 C 0.32145 0.26688 0.15466 0.0
C1412 C 0.29887 0.26459 0.13407 0.0
C1413 C 0.36522 0.26982 0.19163 0.0
C1414 C 0.35706 0.24456 0.18084 0.0
C1415 C 0.33498 0.24325 0.16298 0.0
C1416 C 0.37281 0.21965 0.18604 0.0
C1417 C 0.38835 0.27204 0.21157 0.0
C1418 C 0.39907 0.21729 0.17542 0.0
C1419 C 0.41442 0.19407 0.1803 0.0
C1420 C 0.40377 0.17273 0.19592 0.0
C1421 C 0.37719 0.17492 0.20616 0.0
C1422 C 0.36174 0.19823 0.20111 0.0
H1423 H 0.38774 0.29153 0.22293 0.0
H1424 H 0.38792 0.25502 0.22632 0.0
H1425 H 0.40789 0.27102 0.20038 0.0
H1426 H 0.40772 0.2335 0.16338 0.0
H1427 H 0.43477 0.19303 0.17203 0.0
H1428 H 0.93314 0.29134 0.84171 0.0
H1429 H 0.90018 0.26124 0.86289 0.0
H1430 H 0.83524 0.30176 0.8203 0.0
H1431 H 0.86823 0.33197 0.79865 0.0
H1432 H 0.85482 0.2747 0.89589 0.0
H1433 H 0.82578 0.22105 0.80064 0.0
H1434 H 0.85567 0.24202 0.8029 0.0
H1435 H 0.8227 0.25739 0.80031 0.0
C1436 C 0.91186 0.29384 0.83673 0.0
C1437 C 0.90328 0.31387 0.81831 0.0
C1438 C 0.89308 0.27671 0.84896 0.0
C1439 C 0.8654 0.27925 0.843 0.0
C1440 C 0.85662 0.29933 0.82484 0.0
H1441 H 0.73977 0.16429 0.88729 0.0
H1442 H 0.76126 0.20728 0.87463 0.0
C1443 C 0.87546 0.3165 0.81247 0.0
C1444 C 0.84603 0.26027 0.85553 0.0
H1445 H 0.80525 0.2065 0.841 0.0
C1446 C 0.84372 0.25993 0.88394 0.0
C1447 C 0.83166 0.24114 0.83978 0.0
C1448 C 0.83412 0.24014 0.80923 0.0
C1449 C 0.82773 0.24047 0.89712 0.0
C1450 C 0.81413 0.22077 0.8814 0.0
C1451 C 0.8157 0.22175 0.85296 0.0
C1452 C 0.79967 0.1977 0.89373 0.0
C1453 C 0.82572 0.24103 0.92767 0.0
C1454 C 0.81395 0.17852 0.9093 0.0
C1455 C 0.80163 0.15408 0.91656 0.0
C1456 C 0.77514 0.14853 0.90796 0.0
C1457 C 0.76036 0.16832 0.89381 0.0
C1458 C 0.77255 0.19276 0.8867 0.0
H1459 H 0.83008 0.26157 0.93587 0.0
H1460 H 0.80525 0.23467 0.93461 0.0
H1461 H 0.84088 0.22677 0.93631 0.0
H1462 H 0.83508 0.18172 0.91442 0.0
H1463 H 0.81323 0.13883 0.92733 0.0
H1464 H 0.08268 0.49588 0.10054 0.0
H1465 H 0.03915 0.50799 0.07947 0.0
H1466 H 0.0498 0.59093 0.10534 0.0
H1467 H 0.09352 0.57874 0.12635 0.0
H1468 H 0.99228 0.53569 0.1072 0.0
H1469 H 0.03631 0.5913 0.01962 0.0
H1470 H 0.05514 0.56625 0.03873 0.0
H1471 H 0.05047 0.59982 0.05219 0.0
C1472 C 0.07575 0.51672 0.10139 0.0
C1473 C 0.09142 0.53664 0.11441 0.0
C1474 C 0.05095 0.52353 0.08958 0.0
C1475 C 0.04166 0.55036 0.09058 0.0
C1476 C 0.05699 0.57018 0.10413 0.0
H1477 H 0.90664 0.64602 0.08166 0.0
H1478 H 0.94028 0.61168 0.09312 0.0
C1479 C 0.08172 0.56329 0.11614 0.0
C1480 C 0.01576 0.55779 0.07772 0.0
H1481 H 0.98935 0.59892 0.02891 0.0
C1482 C 0.99151 0.54911 0.08977 0.0
C1483 C 0.01499 0.57473 0.05466 0.0
C1484 C 0.04059 0.58343 0.04032 0.0
C1485 C 0.96638 0.55876 0.08052 0.0
C1486 C 0.96576 0.57756 0.0589 0.0
C1487 C 0.98992 0.5845 0.04553 0.0
C1488 C 0.9414 0.59389 0.05293 0.0
C1489 C 0.94081 0.54965 0.09463 0.0
C1490 C 0.93063 0.59499 0.02657 0.0
C1491 C 0.91126 0.61468 0.01994 0.0
C1492 C 0.90301 0.63377 0.03949 0.0
C1493 C 0.9128 0.63164 0.06617 0.0
C1494 C 0.9318 0.61184 0.07283 0.0
H1495 H 0.94343 0.52919 0.10372 0.0
H1496 H 0.93599 0.56404 0.1113 0.0
H1497 H 0.92334 0.5492 0.08039 0.0
H1498 H 0.93811 0.58145 0.0109 0.0
H1499 H 0.90405 0.61599 -0.00079 0.0
H1500 H 0.74868 0.83198 0.37317 0.0
H1501 H 0.73197 0.7876 0.35782 0.0
H1502 H 0.65025 0.81173 0.37837 0.0
H1503 H 0.66713 0.85623 0.39366 0.0
H1504 H 0.69652 0.74624 0.38551 0.0
H1505 H 0.65313 0.79484 0.29342 0.0
H1506 H 0.67897 0.81075 0.31396 0.0
H1507 H 0.64425 0.81079 0.32508 0.0
C1508 C 0.72723 0.82745 0.37475 0.0
C1509 C 0.70899 0.8472 0.38426 0.0
C1510 C 0.71777 0.80227 0.36608 0.0
C1511 C 0.68993 0.7967 0.36672 0.0
C1512 C 0.67182 0.81591 0.3776 0.0
H1513 H 0.58221 0.66948 0.3498 0.0
H1514 H 0.61766 0.70031 0.36467 0.0
C1515 C 0.68136 0.84108 0.38643 0.0
C1516 C 0.67953 0.77164 0.35427 0.0
H1517 H 0.63991 0.74935 0.30223 0.0
C1518 C 0.68439 0.74676 0.36714 0.0
C1519 C 0.66447 0.77245 0.32989 0.0
C1520 C 0.66004 0.79858 0.31456 0.0
C1521 C 0.67293 0.72273 0.35712 0.0
C1522 C 0.6561 0.72388 0.33389 0.0
C1523 C 0.6528 0.74853 0.32006 0.0
C1524 C 0.63844 0.70108 0.32595 0.0
C1525 C 0.67833 0.69646 0.37186 0.0
C1526 C 0.63849 0.69108 0.29922 0.0
C1527 C 0.61806 0.67339 0.29057 0.0
C1528 C 0.59714 0.66601 0.30846 0.0
C1529 C 0.598 0.67499 0.33552 0.0
C1530 C 0.61845 0.69237 0.34417 0.0
H1531 H 0.69825 0.69698 0.38242 0.0
H1532 H 0.66237 0.69337 0.38745 0.0
H1533 H 0.67804 0.6789 0.35771 0.0
H1534 H 0.65363 0.69787 0.28481 0.0
H1535 H 0.61778 0.66678 0.26958 0.0
H1536 H 0.55845 0.36182 0.51606 0.0
H1537 H 0.52264 0.38898 0.53787 0.0
H1538 H 0.55534 0.36876 0.61662 0.0
H1539 H 0.59027 0.341 0.59496 0.0
H1540 H 0.50357 0.3525 0.61057 0.0
H1541 H 0.51345 0.46015 0.57936 0.0
H1542 H 0.51416 0.43658 0.55152 0.0
H1543 H 0.54098 0.43605 0.57627 0.0
C1544 C 0.55846 0.36411 0.53794 0.0
C1545 C 0.5768 0.34938 0.55397 0.0
C1546 C 0.5381 0.37962 0.55039 0.0
C1547 C 0.53639 0.38085 0.57887 0.0
C1548 C 0.55629 0.36802 0.59464 0.0
H1549 H 0.41008 0.46486 0.67071 0.0
H1550 H 0.45422 0.44758 0.65493 0.0
C1551 C 0.57622 0.35224 0.58229 0.0
C1552 C 0.51173 0.39142 0.59235 0.0
H1553 H 0.4711 0.4471 0.59927 0.0
C1554 C 0.49664 0.37329 0.60832 0.0
C1555 C 0.50282 0.41851 0.58946 0.0
C1556 C 0.51881 0.43905 0.57343 0.0
C1557 C 0.47259 0.38137 0.6211 0.0
C1558 C 0.46312 0.40813 0.61736 0.0
C1559 C 0.47845 0.42651 0.60193 0.0
C1560 C 0.43682 0.41712 0.62852 0.0
C1561 C 0.45751 0.3612 0.6385 0.0
C1562 C 0.41265 0.40531 0.61922 0.0
C1563 C 0.38764 0.415 0.62835 0.0
C1564 C 0.38652 0.43669 0.64672 0.0
C1565 C 0.41068 0.44787 0.65676 0.0
C1566 C 0.43573 0.43824 0.64759 0.0
H1567 H 0.47089 0.34428 0.64511 0.0
H1568 H 0.44882 0.37117 0.65678 0.0
H1569 H 0.44055 0.35242 0.62659 0.0
H1570 H 0.41313 0.38915 0.6043 0.0
H1571 H 0.36913 0.40615 0.62052 0.0
H1572 H 0.1772 0.61024 0.6324 0.0
H1573 H 0.15228 0.65142 0.6453 0.0
H1574 H 0.20985 0.69998 0.60074 0.0
H1575 H 0.23464 0.6587 0.58777 0.0
H1576 H 0.17237 0.69444 0.67501 0.0
H1577 H 0.13708 0.72854 0.57351 0.0
H1578 H 0.15011 0.69482 0.57953 0.0
H1579 H 0.17303 0.72291 0.57589 0.0
C1580 C 0.18442 0.62974 0.62542 0.0
C1581 C 0.2079 0.63153 0.60942 0.0
C1582 C 0.17019 0.65317 0.63266 0.0
C1583 C 0.17915 0.67869 0.62382 0.0
C1584 C 0.20234 0.68044 0.60737 0.0
H1585 H 0.12514 0.83023 0.69998 0.0
H1586 H 0.15351 0.7932 0.68257 0.0
C1587 C 0.21648 0.65697 0.60003 0.0
C1588 C 0.16486 0.70349 0.63291 0.0
H1589 H 0.12956 0.75864 0.61033 0.0
C1590 C 0.16301 0.70852 0.6609 0.0
C1591 C 0.15262 0.72167 0.61439 0.0
C1592 C 0.15304 0.71667 0.58416 0.0
C1593 C 0.14899 0.73118 0.67095 0.0
C1594 C 0.13702 0.74955 0.65243 0.0
C1595 C 0.13904 0.74463 0.62442 0.0
C1596 C 0.1206 0.77289 0.66177 0.0
C1597 C 0.14637 0.73477 0.70128 0.0
C1598 C 0.09299 0.77415 0.65506 0.0
C1599 C 0.07683 0.79525 0.66483 0.0
C1600 C 0.08799 0.81549 0.68155 0.0
C1601 C 0.11587 0.81464 0.6876 0.0
C1602 C 0.13208 0.79353 0.67768 0.0
H1603 H 0.1514 0.71583 0.71245 0.0
H1604 H 0.16058 0.75081 0.70813 0.0
H1605 H 0.12546 0.74112 0.70687 0.0
H1606 H 0.08378 0.75845 0.64273 0.0
H1607 H 0.05544 0.79534 0.65973 0.0
H1608 H 0.42525 0.86636 0.94324 0.0
H1609 H 0.45856 0.8962 0.92128 0.0
H1610 H 0.49658 0.8266 0.88399 0.0
H1611 H 0.46357 0.79691 0.90531 0.0
H1612 H 0.51434 0.89524 0.92708 0.0
H1613 H 0.48666 0.87755 0.81974 0.0
H1614 H 0.46452 0.86867 0.84758 0.0
H1615 H 0.49175 0.84631 0.83769 0.0
C1616 C 0.44064 0.8575 0.93024 0.0
C1617 C 0.44171 0.82931 0.92592 0.0
C1618 C 0.45955 0.87453 0.91767 0.0
C1619 C 0.47956 0.8636 0.90051 0.0
C1620 C 0.4808 0.8355 0.89651 0.0
H1621 H 0.64 0.91379 0.86398 0.0
H1622 H 0.59783 0.8912 0.8777 0.0
C1623 C 0.46203 0.81854 0.90897 0.0
C1624 C 0.50051 0.88102 0.88811 0.0
H1625 H 0.53212 0.89411 0.82785 0.0
C1626 C 0.51796 0.8954 0.90535 0.0
C1627 C 0.50494 0.88149 0.85972 0.0
C1628 C 0.48578 0.8679 0.8401 0.0
C1629 C 0.54073 0.90891 0.89508 0.0
C1630 C 0.54635 0.90752 0.86694 0.0
C1631 C 0.52801 0.8946 0.84948 0.0
C1632 C 0.57166 0.91874 0.85559 0.0
C1633 C 0.55881 0.92423 0.91448 0.0
C1634 C 0.57081 0.94056 0.83735 0.0
C1635 C 0.59487 0.95323 0.82938 0.0
C1636 C 0.61988 0.94418 0.83959 0.0
C1637 C 0.62079 0.92115 0.85621 0.0
C1638 C 0.59682 0.90844 0.86411 0.0
H1639 H 0.54789 0.92969 0.93347 0.0
H1640 H 0.57637 0.91124 0.92005 0.0
H1641 H 0.56671 0.94307 0.90502 0.0
H1642 H 0.55154 0.94859 0.83041 0.0
H1643 H 0.59388 0.97111 0.81665 0.0
H1644 H 0.90781 0.0075 0.32386 0.0
H1645 H 0.95075 0.0251 0.34214 0.0
H1646 H 0.90723 0.09136 0.37966 0.0
H1647 H 0.86441 0.07354 0.36155 0.0
H1648 H 0.97694 0.07354 0.33631 0.0
H1649 H 0.94785 0.05818 0.44361 0.0
H1650 H 0.92917 0.04337 0.41577 0.0
H1651 H 0.92311 0.07803 0.42571 0.0
C1652 C 0.90767 0.02606 0.33566 0.0
C1653 C 0.88307 0.03919 0.34161 0.0
C1654 C 0.93203 0.03593 0.34624 0.0
C1655 C 0.932 0.05905 0.3629 0.0
C1656 C 0.90755 0.07299 0.36757 0.0
H1657 H 0.04121 0.18033 0.40077 0.0
H1658 H 0.00992 0.14731 0.38217 0.0
C1659 C 0.88322 0.06303 0.3571 0.0
C1660 C 0.95748 0.06895 0.37521 0.0
H1661 H 0.98455 0.08961 0.43552 0.0
C1662 C 0.97882 0.07661 0.35804 0.0
C1663 C 0.96026 0.07217 0.40364 0.0
C1664 C 0.93899 0.0622 0.42327 0.0
C1665 C 0.00198 0.08943 0.36838 0.0
C1666 C 0.00349 0.09513 0.3965 0.0
C1667 C 0.98317 0.08552 0.41392 0.0
C1668 C 0.02376 0.11423 0.40751 0.0
C1669 C 0.02424 0.09757 0.349 0.0
C1670 C 0.04145 0.10677 0.4286 0.0
C1671 C 0.05946 0.12583 0.43957 0.0
C1672 C 0.05966 0.15262 0.42976 0.0
C1673 C 0.0417 0.15988 0.40879 0.0
C1674 C 0.02393 0.14094 0.39789 0.0
H1675 H 0.02488 0.08386 0.33108 0.0
H1676 H 0.02022 0.11842 0.34153 0.0
H1677 H 0.04441 0.09731 0.35906 0.0
H1678 H 0.04128 0.08628 0.43652 0.0
H1679 H 0.073 0.11969 0.45578 0.0
loop_
_geom_bond_atom_site_label_1
_geom_bond_atom_site_label_2
_geom_bond_distance
_geom_bond_site_symmetry_2
_ccdc_geom_bond_type
Zn0 O1 2.055 . S
Zn0 O8 2.046 . S
Zn0 N16 2.036 . S
Zn0 O28 2.053 . S
Zn0 O30 2.066 . S
O1 Zn0 2.055 . S
O1 C4 1.259 . S
C2 O30 1.256 . S
C2 O31 1.244 . S
Zn3 O5 2.046 . S
Zn3 O7 2.055 . S
Zn3 N9 2.036 . S
Zn3 O27 2.066 . S
Zn3 O31 2.053 . S
C4 O1 1.259 . S
C4 O5 1.254 . S
O5 Zn3 2.046 . S
O5 C4 1.254 . S
C6 O27 1.256 . S
C6 O28 1.244 . S
O7 Zn3 2.055 . S
O7 C29 1.259 . S
O8 Zn0 2.046 . S
O8 C29 1.254 . S
N9 Zn3 2.036 . S
N9 C10 1.298 . S
N9 N12 1.398 . S
C10 N9 1.298 . S
C10 N13 1.367 . S
C10 C23 1.481 . S
C11 N12 1.299 . S
C11 N13 1.379 . S
N12 N9 1.398 . S
N12 C11 1.299 . S
N13 C10 1.367 . S
N13 C11 1.379 . S
C14 N16 1.298 . S
C14 N18 1.367 . S
C14 C22 1.481 . S
C15 N17 1.299 . S
C15 N18 1.379 . S
N16 Zn0 2.036 . S
N16 C14 1.298 . S
N16 N17 1.398 . S
N17 C15 1.299 . S
N17 N16 1.398 . S
N18 C14 1.367 . S
N18 C15 1.379 . S
H19 C22 0.980 . S
H20 C22 0.981 . S
H21 C22 0.981 . S
C22 C14 1.481 . S
C22 H19 0.980 . S
C22 H20 0.981 . S
C22 H21 0.981 . S
C23 C10 1.481 . S
C23 H24 0.980 . S
C23 H25 0.981 . S
C23 H26 0.981 . S
H24 C23 0.980 . S
H25 C23 0.981 . S
H26 C23 0.981 . S
O27 Zn3 2.066 . S
O27 C6 1.256 . S
O28 Zn0 2.053 . S
O28 C6 1.244 . S
C29 O7 1.259 . S
C29 O8 1.254 . S
O30 Zn0 2.066 . S
O30 C2 1.256 . S
O31 C2 1.244 . S
O31 Zn3 2.053 . S
Zn32 O33 2.055 1_455 S
Zn32 O40 2.046 1_455 S
Zn32 N48 2.036 1_455 S
Zn32 O60 2.053 . S
Zn32 O62 2.066 . S
O33 Zn32 2.055 1_655 S
O33 C36 1.259 . S
C34 O62 1.256 . S
C34 O63 1.244 . S
Zn35 O37 2.046 . S
Zn35 O39 2.055 . S
Zn35 N41 2.036 . S
Zn35 O59 2.066 . S
Zn35 O63 2.053 . S
C36 O33 1.259 . S
C36 O37 1.254 1_655 S
O37 Zn35 2.046 . S
O37 C36 1.254 1_455 S
C38 O59 1.256 . S
C38 O60 1.244 . S
O39 Zn35 2.055 . S
O39 C61 1.259 . S
O40 Zn32 2.046 1_655 S
O40 C61 1.254 1_655 S
N41 Zn35 2.036 . S
N41 C42 1.298 . S
N41 N44 1.398 . S
C42 N41 1.298 . S
C42 N45 1.367 . S
C42 C55 1.481 . S
C43 N44 1.299 . S
C43 N45 1.379 . S
N44 N41 1.398 . S
N44 C43 1.299 . S
N45 C42 1.367 . S
N45 C43 1.379 . S
C46 N48 1.298 . S
C46 N50 1.367 . S
C46 C54 1.481 . S
C47 N49 1.299 . S
C47 N50 1.379 . S
N48 Zn32 2.036 1_655 S
N48 C46 1.298 . S
N48 N49 1.398 . S
N49 C47 1.299 . S
N49 N48 1.398 . S
N50 C46 1.367 . S
N50 C47 1.379 . S
H51 C54 0.980 . S
H52 C54 0.981 . S
H53 C54 0.981 . S
C54 C46 1.481 . S
C54 H51 0.980 . S
C54 H52 0.981 . S
C54 H53 0.981 . S
C55 C42 1.481 . S
C55 H56 0.980 . S
C55 H57 0.981 . S
C55 H58 0.981 . S
H56 C55 0.980 . S
H57 C55 0.981 . S
H58 C55 0.981 . S
O59 Zn35 2.066 . S
O59 C38 1.256 . S
O60 Zn32 2.053 . S
O60 C38 1.244 . S
C61 O39 1.259 . S
C61 O40 1.254 1_455 S
O62 Zn32 2.066 . S
O62 C34 1.256 . S
O63 C34 1.244 . S
O63 Zn35 2.053 . S
Zn64 O65 2.055 1_556 S
Zn64 O72 2.046 1_556 S
Zn64 N80 2.036 1_556 S
Zn64 O92 2.053 . S
Zn64 O94 2.066 . S
O65 Zn64 2.055 1_554 S
O65 C68 1.259 . S
C66 O94 1.256 . S
C66 O95 1.244 . S
Zn67 O69 2.046 . S
Zn67 O71 2.055 . S
Zn67 N73 2.036 . S
Zn67 O91 2.066 . S
Zn67 O95 2.053 . S
C68 O65 1.259 . S
C68 O69 1.254 1_554 S
O69 Zn67 2.046 . S
O69 C68 1.254 1_556 S
C70 O91 1.256 . S
C70 O92 1.244 . S
O71 Zn67 2.055 . S
O71 C93 1.259 . S
O72 Zn64 2.046 1_554 S
O72 C93 1.254 1_554 S
N73 Zn67 2.036 . S
N73 C74 1.298 . S
N73 N76 1.398 . S
C74 N73 1.298 . S
C74 N77 1.367 . S
C74 C87 1.481 . S
C75 N76 1.299 . S
C75 N77 1.379 . S
N76 N73 1.398 . S
N76 C75 1.299 . S
N77 C74 1.367 . S
N77 C75 1.379 . S
C78 N80 1.298 . S
C78 N82 1.367 . S
C78 C86 1.481 . S
C79 N81 1.299 . S
C79 N82 1.379 . S
N80 Zn64 2.036 1_554 S
N80 C78 1.298 . S
N80 N81 1.398 . S
N81 C79 1.299 . S
N81 N80 1.398 . S
N82 C78 1.367 . S
N82 C79 1.379 . S
H83 C86 0.980 . S
H84 C86 0.981 . S
H85 C86 0.981 . S
C86 C78 1.481 . S
C86 H83 0.980 . S
C86 H84 0.981 . S
C86 H85 0.981 . S
C87 C74 1.481 . S
C87 H88 0.980 . S
C87 H89 0.981 . S
C87 H90 0.981 . S
H88 C87 0.980 . S
H89 C87 0.981 . S
H90 C87 0.981 . S
O91 Zn67 2.066 . S
O91 C70 1.256 . S
O92 Zn64 2.053 . S
O92 C70 1.244 . S
C93 O71 1.259 . S
C93 O72 1.254 1_556 S
O94 Zn64 2.066 . S
O94 C66 1.256 . S
O95 C66 1.244 . S
O95 Zn67 2.053 . S
Zn96 O97 2.055 . S
Zn96 O104 2.046 . S
Zn96 N112 2.036 . S
Zn96 O124 2.053 . S
Zn96 O126 2.066 . S
O97 Zn96 2.055 . S
O97 C100 1.259 . S
C98 O126 1.256 . S
C98 O127 1.244 . S
Zn99 O101 2.046 . S
Zn99 O103 2.055 . S
Zn99 N105 2.036 . S
Zn99 O123 2.066 . S
Zn99 O127 2.053 . S
C100 O97 1.259 . S
C100 O101 1.254 . S
O101 Zn99 2.046 . S
O101 C100 1.254 . S
C102 O123 1.256 . S
C102 O124 1.244 . S
O103 Zn99 2.055 . S
O103 C125 1.259 . S
O104 Zn96 2.046 . S
O104 C125 1.254 . S
N105 Zn99 2.036 . S
N105 C106 1.298 . S
N105 N108 1.398 . S
C106 N105 1.298 . S
C106 N109 1.367 . S
C106 C119 1.481 . S
C107 N108 1.299 . S
C107 N109 1.379 . S
N108 N105 1.398 . S
N108 C107 1.299 . S
N109 C106 1.367 . S
N109 C107 1.379 . S
C110 N112 1.298 . S
C110 N114 1.367 . S
C110 C118 1.481 . S
C111 N113 1.299 . S
C111 N114 1.379 . S
N112 Zn96 2.036 . S
N112 C110 1.298 . S
N112 N113 1.398 . S
N113 C111 1.299 . S
N113 N112 1.398 . S
N114 C110 1.367 . S
N114 C111 1.379 . S
H115 C118 0.980 . S
H116 C118 0.981 . S
H117 C118 0.981 . S
C118 C110 1.481 . S
C118 H115 0.980 . S
C118 H116 0.981 . S
C118 H117 0.981 . S
C119 C106 1.481 . S
C119 H120 0.980 . S
C119 H121 0.981 . S
C119 H122 0.981 . S
H120 C119 0.980 . S
H121 C119 0.981 . S
H122 C119 0.981 . S
O123 Zn99 2.066 . S
O123 C102 1.256 . S
O124 Zn96 2.053 . S
O124 C102 1.244 . S
C125 O103 1.259 . S
C125 O104 1.254 . S
O126 Zn96 2.066 . S
O126 C98 1.256 . S
O127 C98 1.244 . S
O127 Zn99 2.053 . S
Zn128 O129 2.055 . S
Zn128 O136 2.046 . S
Zn128 N144 2.036 . S
Zn128 O156 2.053 . S
Zn128 O158 2.066 . S
O129 Zn128 2.055 . S
O129 C132 1.259 . S
C130 O158 1.256 . S
C130 O159 1.244 . S
Zn131 O133 2.046 . S
Zn131 O135 2.055 . S
Zn131 N137 2.036 . S
Zn131 O155 2.066 . S
Zn131 O159 2.053 . S
C132 O129 1.259 . S
C132 O133 1.254 . S
O133 Zn131 2.046 . S
O133 C132 1.254 . S
C134 O155 1.256 . S
C134 O156 1.244 . S
O135 Zn131 2.055 . S
O135 C157 1.259 . S
O136 Zn128 2.046 . S
O136 C157 1.254 . S
N137 Zn131 2.036 . S
N137 C138 1.298 . S
N137 N140 1.398 . S
C138 N137 1.298 . S
C138 N141 1.367 . S
C138 C151 1.481 . S
C139 N140 1.299 . S
C139 N141 1.379 . S
N140 N137 1.398 . S
N140 C139 1.299 . S
N141 C138 1.367 . S
N141 C139 1.379 . S
C142 N144 1.298 . S
C142 N146 1.367 . S
C142 C150 1.481 . S
C143 N145 1.299 . S
C143 N146 1.379 . S
N144 Zn128 2.036 . S
N144 C142 1.298 . S
N144 N145 1.398 . S
N145 C143 1.299 . S
N145 N144 1.398 . S
N146 C142 1.367 . S
N146 C143 1.379 . S
H147 C150 0.980 . S
H148 C150 0.981 . S
H149 C150 0.981 . S
C150 C142 1.481 . S
C150 H147 0.980 . S
C150 H148 0.981 . S
C150 H149 0.981 . S
C151 C138 1.481 . S
C151 H152 0.980 . S
C151 H153 0.981 . S
C151 H154 0.981 . S
H152 C151 0.980 . S
H153 C151 0.981 . S
H154 C151 0.981 . S
O155 Zn131 2.066 . S
O155 C134 1.256 . S
O156 Zn128 2.053 . S
O156 C134 1.244 . S
C157 O135 1.259 . S
C157 O136 1.254 . S
O158 Zn128 2.066 . S
O158 C130 1.256 . S
O159 C130 1.244 . S
O159 Zn131 2.053 . S
Zn160 O161 2.055 . S
Zn160 O168 2.046 . S
Zn160 N176 2.036 . S
Zn160 O188 2.053 . S
Zn160 O190 2.066 . S
O161 Zn160 2.055 . S
O161 C164 1.259 . S
C162 O190 1.256 . S
C162 O191 1.244 . S
Zn163 O165 2.046 1_655 S
Zn163 O167 2.055 1_655 S
Zn163 N169 2.036 1_655 S
Zn163 O187 2.066 . S
Zn163 O191 2.053 . S
C164 O161 1.259 . S
C164 O165 1.254 1_655 S
O165 Zn163 2.046 1_455 S
O165 C164 1.254 1_455 S
C166 O187 1.256 . S
C166 O188 1.244 . S
O167 Zn163 2.055 1_455 S
O167 C189 1.259 . S
O168 Zn160 2.046 . S
O168 C189 1.254 1_655 S
N169 Zn163 2.036 1_455 S
N169 C170 1.298 . S
N169 N172 1.398 . S
C170 N169 1.298 . S
C170 N173 1.367 . S
C170 C183 1.481 . S
C171 N172 1.299 . S
C171 N173 1.379 . S
N172 N169 1.398 . S
N172 C171 1.299 . S
N173 C170 1.367 . S
N173 C171 1.379 . S
C174 N176 1.298 . S
C174 N178 1.367 . S
C174 C182 1.481 . S
C175 N177 1.299 . S
C175 N178 1.379 . S
N176 Zn160 2.036 . S
N176 C174 1.298 . S
N176 N177 1.398 . S
N177 C175 1.299 . S
N177 N176 1.398 . S
N178 C174 1.367 . S
N178 C175 1.379 . S
H179 C182 0.980 . S
H180 C182 0.981 . S
H181 C182 0.981 . S
C182 C174 1.481 . S
C182 H179 0.980 . S
C182 H180 0.981 . S
C182 H181 0.981 . S
C183 C170 1.481 . S
C183 H184 0.980 . S
C183 H185 0.981 . S
C183 H186 0.981 . S
H184 C183 0.980 . S
H185 C183 0.981 . S
H186 C183 0.981 . S
O187 Zn163 2.066 . S
O187 C166 1.256 . S
O188 Zn160 2.053 . S
O188 C166 1.244 . S
C189 O167 1.259 . S
C189 O168 1.254 1_455 S
O190 Zn160 2.066 . S
O190 C162 1.256 . S
O191 C162 1.244 . S
O191 Zn163 2.053 . S
Zn192 O193 2.055 . S
Zn192 O200 2.046 . S
Zn192 N208 2.036 . S
Zn192 O220 2.053 . S
Zn192 O222 2.066 . S
O193 Zn192 2.055 . S
O193 C196 1.259 . S
C194 O222 1.256 . S
C194 O223 1.244 . S
Zn195 O197 2.046 1_554 S
Zn195 O199 2.055 1_554 S
Zn195 N201 2.036 1_554 S
Zn195 O219 2.066 . S
Zn195 O223 2.053 . S
C196 O193 1.259 . S
C196 O197 1.254 1_554 S
O197 Zn195 2.046 1_556 S
O197 C196 1.254 1_556 S
C198 O219 1.256 . S
C198 O220 1.244 . S
O199 Zn195 2.055 1_556 S
O199 C221 1.259 . S
O200 Zn192 2.046 . S
O200 C221 1.254 1_554 S
N201 Zn195 2.036 1_556 S
N201 C202 1.298 . S
N201 N204 1.398 . S
C202 N201 1.298 . S
C202 N205 1.367 . S
C202 C215 1.481 . S
C203 N204 1.299 . S
C203 N205 1.379 . S
N204 N201 1.398 . S
N204 C203 1.299 . S
N205 C202 1.367 . S
N205 C203 1.379 . S
C206 N208 1.298 . S
C206 N210 1.367 . S
C206 C214 1.481 . S
C207 N209 1.299 . S
C207 N210 1.379 . S
N208 Zn192 2.036 . S
N208 C206 1.298 . S
N208 N209 1.398 . S
N209 C207 1.299 . S
N209 N208 1.398 . S
N210 C206 1.367 . S
N210 C207 1.379 . S
H211 C214 0.980 . S
H212 C214 0.981 . S
H213 C214 0.981 . S
C214 C206 1.481 . S
C214 H211 0.980 . S
C214 H212 0.981 . S
C214 H213 0.981 . S
C215 C202 1.481 . S
C215 H216 0.980 . S
C215 H217 0.981 . S
C215 H218 0.981 . S
H216 C215 0.980 . S
H217 C215 0.981 . S
H218 C215 0.981 . S
O219 Zn195 2.066 . S
O219 C198 1.256 . S
O220 Zn192 2.053 . S
O220 C198 1.244 . S
C221 O199 1.259 . S
C221 O200 1.254 1_556 S
O222 Zn192 2.066 . S
O222 C194 1.256 . S
O223 C194 1.244 . S
O223 Zn195 2.053 . S
Zn224 O225 2.055 . S
Zn224 O232 2.046 . S
Zn224 N240 2.036 . S
Zn224 O252 2.053 . S
Zn224 O254 2.066 . S
O225 Zn224 2.055 . S
O225 C228 1.259 . S
C226 O254 1.256 . S
C226 O255 1.244 . S
Zn227 O229 2.046 . S
Zn227 O231 2.055 . S
Zn227 N233 2.036 . S
Zn227 O251 2.066 . S
Zn227 O255 2.053 . S
C228 O225 1.259 . S
C228 O229 1.254 . S
O229 Zn227 2.046 . S
O229 C228 1.254 . S
C230 O251 1.256 . S
C230 O252 1.244 . S
O231 Zn227 2.055 . S
O231 C253 1.259 . S
O232 Zn224 2.046 . S
O232 C253 1.254 . S
N233 Zn227 2.036 . S
N233 C234 1.298 . S
N233 N236 1.398 . S
C234 N233 1.298 . S
C234 N237 1.367 . S
C234 C247 1.481 . S
C235 N236 1.299 . S
C235 N237 1.379 . S
N236 N233 1.398 . S
N236 C235 1.299 . S
N237 C234 1.367 . S
N237 C235 1.379 . S
C238 N240 1.298 . S
C238 N242 1.367 . S
C238 C246 1.481 . S
C239 N241 1.299 . S
C239 N242 1.379 . S
N240 Zn224 2.036 . S
N240 C238 1.298 . S
N240 N241 1.398 . S
N241 C239 1.299 . S
N241 N240 1.398 . S
N242 C238 1.367 . S
N242 C239 1.379 . S
H243 C246 0.980 . S
H244 C246 0.981 . S
H245 C246 0.981 . S
C246 C238 1.481 . S
C246 H243 0.980 . S
C246 H244 0.981 . S
C246 H245 0.981 . S
C247 C234 1.481 . S
C247 H248 0.980 . S
C247 H249 0.981 . S
C247 H250 0.981 . S
H248 C247 0.980 . S
H249 C247 0.981 . S
H250 C247 0.981 . S
O251 Zn227 2.066 . S
O251 C230 1.256 . S
O252 Zn224 2.053 . S
O252 C230 1.244 . S
C253 O231 1.259 . S
C253 O232 1.254 . S
O254 Zn224 2.066 . S
O254 C226 1.256 . S
O255 C226 1.244 . S
O255 Zn227 2.053 . S
Zn256 O257 2.055 . S
Zn256 O264 2.046 . S
Zn256 N272 2.036 . S
Zn256 O284 2.053 . S
Zn256 O286 2.066 . S
O257 Zn256 2.055 . S
O257 C260 1.259 . S
C258 O286 1.256 . S
C258 O287 1.244 . S
Zn259 O261 2.046 . S
Zn259 O263 2.055 . S
Zn259 N265 2.036 . S
Zn259 O283 2.066 . S
Zn259 O287 2.053 . S
C260 O257 1.259 . S
C260 O261 1.254 . S
O261 Zn259 2.046 . S
O261 C260 1.254 . S
C262 O283 1.256 . S
C262 O284 1.244 . S
O263 Zn259 2.055 . S
O263 C285 1.259 . S
O264 Zn256 2.046 . S
O264 C285 1.254 . S
N265 Zn259 2.036 . S
N265 C266 1.298 . S
N265 N268 1.398 . S
C266 N265 1.298 . S
C266 N269 1.367 . S
C266 C279 1.481 . S
C267 N268 1.299 . S
C267 N269 1.379 . S
N268 N265 1.398 . S
N268 C267 1.299 . S
N269 C266 1.367 . S
N269 C267 1.379 . S
C270 N272 1.298 . S
C270 N274 1.367 . S
C270 C278 1.481 . S
C271 N273 1.299 . S
C271 N274 1.379 . S
N272 Zn256 2.036 . S
N272 C270 1.298 . S
N272 N273 1.398 . S
N273 C271 1.299 . S
N273 N272 1.398 . S
N274 C270 1.367 . S
N274 C271 1.379 . S
H275 C278 0.980 . S
H276 C278 0.981 . S
H277 C278 0.981 . S
C278 C270 1.481 . S
C278 H275 0.980 . S
C278 H276 0.981 . S
C278 H277 0.981 . S
C279 C266 1.481 . S
C279 H280 0.980 . S
C279 H281 0.981 . S
C279 H282 0.981 . S
H280 C279 0.980 . S
H281 C279 0.981 . S
H282 C279 0.981 . S
O283 Zn259 2.066 . S
O283 C262 1.256 . S
O284 Zn256 2.053 . S
O284 C262 1.244 . S
C285 O263 1.259 . S
C285 O264 1.254 . S
O286 Zn256 2.066 . S
O286 C258 1.256 . S
O287 C258 1.244 . S
O287 Zn259 2.053 . S
Zn288 O289 2.055 . S
Zn288 O296 2.046 . S
Zn288 N304 2.036 . S
Zn288 O316 2.053 . S
Zn288 O318 2.066 . S
O289 Zn288 2.055 . S
O289 C292 1.259 . S
C290 O318 1.256 . S
C290 O319 1.244 . S
Zn291 O293 2.046 1_545 S
Zn291 O295 2.055 1_545 S
Zn291 N297 2.036 1_545 S
Zn291 O315 2.066 . S
Zn291 O319 2.053 . S
C292 O289 1.259 . S
C292 O293 1.254 1_545 S
O293 Zn291 2.046 1_565 S
O293 C292 1.254 1_565 S
C294 O315 1.256 . S
C294 O316 1.244 . S
O295 Zn291 2.055 1_565 S
O295 C317 1.259 . S
O296 Zn288 2.046 . S
O296 C317 1.254 1_545 S
N297 Zn291 2.036 1_565 S
N297 C298 1.298 . S
N297 N300 1.398 . S
C298 N297 1.298 . S
C298 N301 1.367 . S
C298 C311 1.481 . S
C299 N300 1.299 . S
C299 N301 1.379 . S
N300 N297 1.398 . S
N300 C299 1.299 . S
N301 C298 1.367 . S
N301 C299 1.379 . S
C302 N304 1.298 . S
C302 N306 1.367 . S
C302 C310 1.481 . S
C303 N305 1.299 . S
C303 N306 1.379 . S
N304 Zn288 2.036 . S
N304 C302 1.298 . S
N304 N305 1.398 . S
N305 C303 1.299 . S
N305 N304 1.398 . S
N306 C302 1.367 . S
N306 C303 1.379 . S
H307 C310 0.980 . S
H308 C310 0.981 . S
H309 C310 0.981 . S
C310 C302 1.481 . S
C310 H307 0.980 . S
C310 H308 0.981 . S
C310 H309 0.981 . S
C311 C298 1.481 . S
C311 H312 0.980 . S
C311 H313 0.981 . S
C311 H314 0.981 . S
H312 C311 0.980 . S
H313 C311 0.981 . S
H314 C311 0.981 . S
O315 Zn291 2.066 . S
O315 C294 1.256 . S
O316 Zn288 2.053 . S
O316 C294 1.244 . S
C317 O295 1.259 . S
C317 O296 1.254 1_565 S
O318 Zn288 2.066 . S
O318 C290 1.256 . S
O319 C290 1.244 . S
O319 Zn291 2.053 . S
Zn320 O321 2.055 . S
Zn320 O328 2.046 . S
Zn320 N336 2.036 . S
Zn320 O348 2.053 . S
Zn320 O350 2.066 . S
O321 Zn320 2.055 . S
O321 C324 1.259 . S
C322 O350 1.256 . S
C322 O351 1.244 . S
Zn323 O325 2.046 1_565 S
Zn323 O327 2.055 1_565 S
Zn323 N329 2.036 1_565 S
Zn323 O347 2.066 . S
Zn323 O351 2.053 . S
C324 O321 1.259 . S
C324 O325 1.254 1_565 S
O325 Zn323 2.046 1_545 S
O325 C324 1.254 1_545 S
C326 O347 1.256 . S
C326 O348 1.244 . S
O327 Zn323 2.055 1_545 S
O327 C349 1.259 . S
O328 Zn320 2.046 . S
O328 C349 1.254 1_565 S
N329 Zn323 2.036 1_545 S
N329 C330 1.298 . S
N329 N332 1.398 . S
C330 N329 1.298 . S
C330 N333 1.367 . S
C330 C343 1.481 . S
C331 N332 1.299 . S
C331 N333 1.379 . S
N332 N329 1.398 . S
N332 C331 1.299 . S
N333 C330 1.367 . S
N333 C331 1.379 . S
C334 N336 1.298 . S
C334 N338 1.367 . S
C334 C342 1.481 . S
C335 N337 1.299 . S
C335 N338 1.379 . S
N336 Zn320 2.036 . S
N336 C334 1.298 . S
N336 N337 1.398 . S
N337 C335 1.299 . S
N337 N336 1.398 . S
N338 C334 1.367 . S
N338 C335 1.379 . S
H339 C342 0.980 . S
H340 C342 0.981 . S
H341 C342 0.981 . S
C342 C334 1.481 . S
C342 H339 0.980 . S
C342 H340 0.981 . S
C342 H341 0.981 . S
C343 C330 1.481 . S
C343 H344 0.980 . S
C343 H345 0.981 . S
C343 H346 0.981 . S
H344 C343 0.980 . S
H345 C343 0.981 . S
H346 C343 0.981 . S
O347 Zn323 2.066 . S
O347 C326 1.256 . S
O348 Zn320 2.053 . S
O348 C326 1.244 . S
C349 O327 1.259 . S
C349 O328 1.254 1_545 S
O350 Zn320 2.066 . S
O350 C322 1.256 . S
O351 C322 1.244 . S
O351 Zn323 2.053 . S
Zn352 O353 2.055 . S
Zn352 O360 2.046 . S
Zn352 N368 2.036 . S
Zn352 O380 2.053 . S
Zn352 O382 2.066 . S
O353 Zn352 2.055 . S
O353 C356 1.259 . S
C354 O382 1.256 . S
C354 O383 1.244 . S
Zn355 O357 2.046 . S
Zn355 O359 2.055 . S
Zn355 N361 2.036 . S
Zn355 O379 2.066 . S
Zn355 O383 2.053 . S
C356 O353 1.259 . S
C356 O357 1.254 . S
O357 Zn355 2.046 . S
O357 C356 1.254 . S
C358 O379 1.256 . S
C358 O380 1.244 . S
O359 Zn355 2.055 . S
O359 C381 1.259 . S
O360 Zn352 2.046 . S
O360 C381 1.254 . S
N361 Zn355 2.036 . S
N361 C362 1.298 . S
N361 N364 1.398 . S
C362 N361 1.298 . S
C362 N365 1.367 . S
C362 C375 1.481 . S
C363 N364 1.299 . S
C363 N365 1.379 . S
N364 N361 1.398 . S
N364 C363 1.299 . S
N365 C362 1.367 . S
N365 C363 1.379 . S
C366 N368 1.298 . S
C366 N370 1.367 . S
C366 C374 1.481 . S
C367 N369 1.299 . S
C367 N370 1.379 . S
N368 Zn352 2.036 . S
N368 C366 1.298 . S
N368 N369 1.398 . S
N369 C367 1.299 . S
N369 N368 1.398 . S
N370 C366 1.367 . S
N370 C367 1.379 . S
H371 C374 0.980 . S
H372 C374 0.981 . S
H373 C374 0.981 . S
C374 C366 1.481 . S
C374 H371 0.980 . S
C374 H372 0.981 . S
C374 H373 0.981 . S
C375 C362 1.481 . S
C375 H376 0.980 . S
C375 H377 0.981 . S
C375 H378 0.981 . S
H376 C375 0.980 . S
H377 C375 0.981 . S
H378 C375 0.981 . S
O379 Zn355 2.066 . S
O379 C358 1.256 . S
O380 Zn352 2.053 . S
O380 C358 1.244 . S
C381 O359 1.259 . S
C381 O360 1.254 . S
O382 Zn352 2.066 . S
O382 C354 1.256 . S
O383 C354 1.244 . S
O383 Zn355 2.053 . S
H384 C392 0.929 . S
H385 C394 0.930 . S
H386 C396 0.930 . S
H387 C399 0.929 . S
H388 C402 0.930 . S
H389 C404 0.960 . S
H390 C404 0.960 . S
H391 C404 0.960 . S
C392 H384 0.929 . S
C392 C393 1.377 . S
C392 C394 1.384 . S
C393 C392 1.377 . S
C393 C399 1.390 . S
C394 H385 0.930 . S
C394 C392 1.384 . S
C394 C395 1.372 . S
C395 C394 1.372 . S
C395 C396 1.400 . S
C395 C400 1.490 . S
C396 H386 0.930 . S
C396 C395 1.400 . S
C396 C399 1.386 . S
H397 C413 0.930 . S
H398 C414 0.931 . S
C399 H387 0.929 . S
C399 C393 1.390 . S
C399 C396 1.386 . S
C400 C395 1.490 . S
C400 C402 1.395 . S
C400 C403 1.403 . S
H401 C407 0.930 . S
C402 H388 0.930 . S
C402 C400 1.395 . S
C402 C405 1.403 . S
C403 C400 1.403 . S
C403 C404 1.524 . S
C403 C407 1.400 . S
C404 H389 0.960 . S
C404 H390 0.960 . S
C404 H391 0.960 . S
C404 C403 1.524 . S
C405 C402 1.403 . S
C405 C406 1.392 . S
C405 C409 1.495 . S
C406 C405 1.392 . S
C406 C407 1.385 . S
C406 C408 1.478 . S
C407 H401 0.930 . S
C407 C403 1.400 . S
C407 C406 1.385 . S
C408 C406 1.478 . S
C408 C410 1.381 . S
C408 C414 1.383 . S
C409 C405 1.495 . S
C409 H415 0.959 . S
C409 H416 0.961 . S
C409 H417 0.960 . S
C410 C408 1.381 . S
C410 C411 1.394 . S
C410 H418 0.930 . S
C411 C410 1.394 . S
C411 C412 1.383 . S
C411 H419 0.929 . S
C412 C411 1.383 . S
C412 C413 1.377 . S
C413 H397 0.930 . S
C413 C412 1.377 . S
C413 C414 1.379 . S
C414 H398 0.931 . S
C414 C408 1.383 . S
C414 C413 1.379 . S
H415 C409 0.959 . S
H416 C409 0.961 . S
H417 C409 0.960 . S
H418 C410 0.930 . S
H419 C411 0.929 . S
H420 C428 0.929 . S
H421 C430 0.930 . S
H422 C432 0.930 . S
H423 C435 0.929 1_545 S
H424 C438 0.930 . S
H425 C440 0.960 . S
H426 C440 0.960 . S
H427 C440 0.960 . S
C428 H420 0.929 . S
C428 C429 1.377 . S
C428 C430 1.384 . S
C429 C428 1.377 . S
C429 C435 1.390 . S
C430 H421 0.930 . S
C430 C428 1.384 . S
C430 C431 1.372 . S
C431 C430 1.372 . S
C431 C432 1.400 . S
C431 C436 1.490 . S
C432 H422 0.930 . S
C432 C431 1.400 . S
C432 C435 1.386 . S
H433 C449 0.930 . S
H434 C450 0.931 . S
C435 H423 0.929 1_565 S
C435 C429 1.390 . S
C435 C432 1.386 . S
C436 C431 1.490 . S
C436 C438 1.395 . S
C436 C439 1.403 . S
H437 C443 0.930 . S
C438 H424 0.930 . S
C438 C436 1.395 . S
C438 C441 1.403 . S
C439 C436 1.403 . S
C439 C440 1.524 1_565 S
C439 C443 1.400 . S
C440 H425 0.960 . S
C440 H426 0.960 . S
C440 H427 0.960 . S
C440 C439 1.524 1_545 S
C441 C438 1.403 . S
C441 C442 1.392 . S
C441 C445 1.495 . S
C442 C441 1.392 . S
C442 C443 1.385 . S
C442 C444 1.478 . S
C443 H437 0.930 . S
C443 C439 1.400 . S
C443 C442 1.385 . S
C444 C442 1.478 . S
C444 C446 1.381 . S
C444 C450 1.383 . S
C445 C441 1.495 . S
C445 H451 0.959 . S
C445 H452 0.961 . S
C445 H453 0.960 . S
C446 C444 1.381 . S
C446 C447 1.394 . S
C446 H454 0.930 . S
C447 C446 1.394 . S
C447 C448 1.383 . S
C447 H455 0.929 . S
C448 C447 1.383 . S
C448 C449 1.377 . S
C449 H433 0.930 . S
C449 C448 1.377 . S
C449 C450 1.379 . S
C450 H434 0.931 . S
C450 C444 1.383 . S
C450 C449 1.379 . S
H451 C445 0.959 . S
H452 C445 0.961 . S
H453 C445 0.960 . S
H454 C446 0.930 . S
H455 C447 0.929 . S
H456 C464 0.929 . S
H457 C466 0.930 . S
H458 C468 0.930 . S
H459 C471 0.929 . S
H460 C474 0.930 . S
H461 C476 0.960 . S
H462 C476 0.960 . S
H463 C476 0.960 . S
C464 H456 0.929 . S
C464 C465 1.377 1_556 S
C464 C466 1.384 . S
C465 C464 1.377 1_554 S
C465 C471 1.390 . S
C466 H457 0.930 . S
C466 C464 1.384 . S
C466 C467 1.372 1_556 S
C467 C466 1.372 1_554 S
C467 C468 1.400 . S
C467 C472 1.490 . S
C468 H458 0.930 . S
C468 C467 1.400 . S
C468 C471 1.386 . S
H469 C485 0.930 . S
H470 C486 0.931 . S
C471 H459 0.929 . S
C471 C465 1.390 . S
C471 C468 1.386 . S
C472 C467 1.490 . S
C472 C474 1.395 . S
C472 C475 1.403 . S
H473 C479 0.930 . S
C474 H460 0.930 . S
C474 C472 1.395 . S
C474 C477 1.403 . S
C475 C472 1.403 . S
C475 C476 1.524 . S
C475 C479 1.400 . S
C476 H461 0.960 . S
C476 H462 0.960 . S
C476 H463 0.960 . S
C476 C475 1.524 . S
C477 C474 1.403 . S
C477 C478 1.392 . S
C477 C481 1.495 . S
C478 C477 1.392 . S
C478 C479 1.385 . S
C478 C480 1.478 . S
C479 H473 0.930 . S
C479 C475 1.400 . S
C479 C478 1.385 . S
C480 C478 1.478 . S
C480 C482 1.381 . S
C480 C486 1.383 . S
C481 C477 1.495 . S
C481 H487 0.959 . S
C481 H488 0.961 . S
C481 H489 0.960 . S
C482 C480 1.381 . S
C482 C483 1.394 . S
C482 H490 0.930 . S
C483 C482 1.394 . S
C483 C484 1.383 . S
C483 H491 0.929 . S
C484 C483 1.383 . S
C484 C485 1.377 . S
C485 H469 0.930 . S
C485 C484 1.377 . S
C485 C486 1.379 . S
C486 H470 0.931 . S
C486 C480 1.383 . S
C486 C485 1.379 . S
H487 C481 0.959 . S
H488 C481 0.961 . S
H489 C481 0.960 . S
H490 C482 0.930 . S
H491 C483 0.929 . S
H492 C500 0.929 . S
H493 C502 0.930 . S
H494 C504 0.930 . S
H495 C507 0.929 . S
H496 C510 0.930 . S
H497 C512 0.960 . S
H498 C512 0.960 . S
H499 C512 0.960 . S
C500 H492 0.929 . S
C500 C501 1.377 . S
C500 C502 1.384 . S
C501 C500 1.377 . S
C501 C507 1.390 . S
C502 H493 0.930 . S
C502 C500 1.384 . S
C502 C503 1.372 . S
C503 C502 1.372 . S
C503 C504 1.400 . S
C503 C508 1.490 . S
C504 H494 0.930 . S
C504 C503 1.400 . S
C504 C507 1.386 . S
H505 C521 0.942 . S
H506 C522 0.931 . S
C507 H495 0.929 . S
C507 C501 1.390 . S
C507 C504 1.386 . S
C508 C503 1.490 . S
C508 C510 1.395 . S
C508 C511 1.403 . S
H509 C515 0.930 . S
C510 H496 0.930 . S
C510 C508 1.395 . S
C510 C513 1.403 . S
C511 C508 1.403 . S
C511 C512 1.524 . S
C511 C515 1.400 . S
C512 H497 0.960 . S
C512 H498 0.960 . S
C512 H499 0.960 . S
C512 C511 1.524 . S
C513 C510 1.403 . S
C513 C514 1.392 . S
C513 C517 1.495 1_545 S
C514 C513 1.392 . S
C514 C515 1.385 . S
C514 C516 1.478 . S
C515 H509 0.930 . S
C515 C511 1.400 . S
C515 C514 1.385 . S
C516 C514 1.478 . S
C516 C518 1.381 . S
C516 C522 1.383 . S
C517 C513 1.495 1_565 S
C517 H523 0.959 . S
C517 H524 0.961 . S
C517 H525 0.960 . S
C518 C516 1.381 . S
C518 C519 1.394 . S
C518 H526 0.930 . S
C519 C518 1.394 . S
C519 C520 1.391 . S
C519 H527 0.929 . S
C520 C519 1.391 . S
C520 C521 1.375 1_545 S
C521 H505 0.942 . S
C521 C520 1.375 1_565 S
C521 C522 1.371 1_565 S
C522 H506 0.931 . S
C522 C516 1.383 . S
C522 C521 1.371 1_545 S
H523 C517 0.959 . S
H524 C517 0.961 . S
H525 C517 0.960 . S
H526 C518 0.930 . S
H527 C519 0.929 . S
H528 C536 0.929 . S
H529 C538 0.930 . S
H530 C540 0.930 . S
H531 C543 0.929 . S
H532 C546 0.930 . S
H533 C548 0.960 . S
H534 C548 0.960 . S
H535 C548 0.960 . S
C536 H528 0.929 . S
C536 C537 1.377 . S
C536 C538 1.384 . S
C537 C536 1.377 . S
C537 C543 1.390 . S
C538 H529 0.930 . S
C538 C536 1.384 . S
C538 C539 1.372 . S
C539 C538 1.372 . S
C539 C540 1.400 . S
C539 C544 1.490 . S
C540 H530 0.930 . S
C540 C539 1.400 . S
C540 C543 1.386 . S
H541 C557 0.930 . S
H542 C558 0.931 . S
C543 H531 0.929 . S
C543 C537 1.390 . S
C543 C540 1.386 . S
C544 C539 1.490 . S
C544 C546 1.395 . S
C544 C547 1.403 . S
H545 C551 0.930 . S
C546 H532 0.930 . S
C546 C544 1.395 . S
C546 C549 1.403 . S
C547 C544 1.403 . S
C547 C548 1.524 . S
C547 C551 1.400 . S
C548 H533 0.960 . S
C548 H534 0.960 . S
C548 H535 0.960 . S
C548 C547 1.524 . S
C549 C546 1.403 . S
C549 C550 1.392 . S
C549 C553 1.495 . S
C550 C549 1.392 . S
C550 C551 1.385 . S
C550 C552 1.478 . S
C551 H545 0.930 . S
C551 C547 1.400 . S
C551 C550 1.385 . S
C552 C550 1.478 . S
C552 C554 1.381 . S
C552 C558 1.383 . S
C553 C549 1.495 . S
C553 H559 0.959 . S
C553 H560 0.961 . S
C553 H561 0.960 . S
C554 C552 1.381 . S
C554 C555 1.394 . S
C554 H562 0.930 . S
C555 C554 1.394 . S
C555 C556 1.383 . S
C555 H563 0.929 . S
C556 C555 1.383 . S
C556 C557 1.377 . S
C557 H541 0.930 . S
C557 C556 1.377 . S
C557 C558 1.379 . S
C558 H542 0.931 . S
C558 C552 1.383 . S
C558 C557 1.379 . S
H559 C553 0.959 . S
H560 C553 0.961 . S
H561 C553 0.960 . S
H562 C554 0.930 . S
H563 C555 0.929 . S
H564 C572 0.929 . S
H565 C574 0.930 . S
H566 C576 0.930 . S
H567 C579 0.929 . S
H568 C582 0.930 . S
H569 C584 0.960 . S
H570 C584 0.960 . S
H571 C584 0.960 . S
C572 H564 0.929 . S
C572 C573 1.377 . S
C572 C574 1.384 . S
C573 C572 1.377 . S
C573 C579 1.390 . S
C574 H565 0.930 . S
C574 C572 1.384 . S
C574 C575 1.372 . S
C575 C574 1.372 . S
C575 C576 1.400 . S
C575 C580 1.490 . S
C576 H566 0.930 . S
C576 C575 1.400 . S
C576 C579 1.386 . S
H577 C593 0.930 . S
H578 C594 0.931 . S
C579 H567 0.929 . S
C579 C573 1.390 . S
C579 C576 1.386 . S
C580 C575 1.490 . S
C580 C582 1.395 . S
C580 C583 1.403 . S
H581 C587 0.930 . S
C582 H568 0.930 . S
C582 C580 1.395 . S
C582 C585 1.403 . S
C583 C580 1.403 . S
C583 C584 1.524 . S
C583 C587 1.400 . S
C584 H569 0.960 . S
C584 H570 0.960 . S
C584 H571 0.960 . S
C584 C583 1.524 . S
C585 C582 1.403 . S
C585 C586 1.392 . S
C585 C589 1.495 . S
C586 C585 1.392 . S
C586 C587 1.385 . S
C586 C588 1.478 . S
C587 H581 0.930 . S
C587 C583 1.400 . S
C587 C586 1.385 . S
C588 C586 1.478 . S
C588 C590 1.381 . S
C588 C594 1.383 . S
C589 C585 1.495 . S
C589 H595 0.959 . S
C589 H596 0.961 . S
C589 H597 0.960 . S
C590 C588 1.381 . S
C590 C591 1.394 . S
C590 H598 0.930 . S
C591 C590 1.394 . S
C591 C592 1.383 . S
C591 H599 0.929 . S
C592 C591 1.383 . S
C592 C593 1.377 . S
C593 H577 0.930 . S
C593 C592 1.377 . S
C593 C594 1.379 . S
C594 H578 0.931 . S
C594 C588 1.383 . S
C594 C593 1.379 . S
H595 C589 0.959 . S
H596 C589 0.961 . S
H597 C589 0.960 . S
H598 C590 0.930 . S
H599 C591 0.929 . S
H600 C608 0.929 . S
H601 C610 0.930 . S
H602 C612 0.930 . S
H603 C615 0.929 . S
H604 C618 0.930 . S
H605 C620 0.960 . S
H606 C620 0.960 . S
H607 C620 0.960 . S
C608 H600 0.929 . S
C608 C609 1.377 . S
C608 C610 1.384 . S
C609 C608 1.377 . S
C609 C615 1.390 . S
C610 H601 0.930 . S
C610 C608 1.384 . S
C610 C611 1.372 . S
C611 C610 1.372 . S
C611 C612 1.400 . S
C611 C616 1.490 . S
C612 H602 0.930 . S
C612 C611 1.400 . S
C612 C615 1.386 . S
H613 C629 0.930 . S
H614 C630 0.931 . S
C615 H603 0.929 . S
C615 C609 1.390 . S
C615 C612 1.386 . S
C616 C611 1.490 . S
C616 C618 1.395 . S
C616 C619 1.403 . S
H617 C623 0.930 . S
C618 H604 0.930 . S
C618 C616 1.395 . S
C618 C621 1.403 . S
C619 C616 1.403 . S
C619 C620 1.524 . S
C619 C623 1.400 . S
C620 H605 0.960 . S
C620 H606 0.960 . S
C620 H607 0.960 . S
C620 C619 1.524 . S
C621 C618 1.403 . S
C621 C622 1.392 . S
C621 C625 1.495 1_556 S
C622 C621 1.392 . S
C622 C623 1.385 . S
C622 C624 1.478 . S
C623 H617 0.930 . S
C623 C619 1.400 . S
C623 C622 1.385 . S
C624 C622 1.478 . S
C624 C626 1.381 . S
C624 C630 1.383 . S
C625 C621 1.495 1_554 S
C625 H631 0.959 . S
C625 H632 0.961 . S
C625 H633 0.960 . S
C626 C624 1.381 . S
C626 C627 1.394 1_556 S
C626 H634 0.924 1_556 S
C627 C626 1.394 1_554 S
C627 C628 1.382 1_554 S
C627 H635 0.929 . S
C628 C627 1.382 1_556 S
C628 C629 1.381 . S
C629 H613 0.930 . S
C629 C628 1.381 . S
C629 C630 1.379 . S
C630 H614 0.931 . S
C630 C624 1.383 . S
C630 C629 1.379 . S
H631 C625 0.959 . S
H632 C625 0.961 . S
H633 C625 0.960 . S
H634 C626 0.924 1_554 S
H635 C627 0.929 . S
H636 C644 0.929 . S
H637 C646 0.930 . S
H638 C648 0.930 . S
H639 C651 0.929 . S
H640 C654 0.930 . S
H641 C656 0.960 . S
H642 C656 0.960 . S
H643 C656 0.960 . S
C644 H636 0.929 . S
C644 C645 1.377 . S
C644 C646 1.384 . S
C645 C644 1.377 . S
C645 C651 1.390 . S
C646 H637 0.930 . S
C646 C644 1.384 . S
C646 C647 1.372 . S
C647 C646 1.372 . S
C647 C648 1.400 . S
C647 C652 1.490 . S
C648 H638 0.930 . S
C648 C647 1.400 . S
C648 C651 1.386 . S
H649 C665 0.930 . S
H650 C666 0.931 . S
C651 H639 0.929 . S
C651 C645 1.390 . S
C651 C648 1.386 . S
C652 C647 1.490 . S
C652 C654 1.395 . S
C652 C655 1.403 . S
H653 C659 0.930 . S
C654 H640 0.930 . S
C654 C652 1.395 . S
C654 C657 1.403 . S
C655 C652 1.403 . S
C655 C656 1.524 . S
C655 C659 1.400 . S
C656 H641 0.960 . S
C656 H642 0.960 . S
C656 H643 0.960 . S
C656 C655 1.524 . S
C657 C654 1.403 . S
C657 C658 1.392 . S
C657 C661 1.495 . S
C658 C657 1.392 . S
C658 C659 1.385 . S
C658 C660 1.478 . S
C659 H653 0.930 . S
C659 C655 1.400 . S
C659 C658 1.385 . S
C660 C658 1.478 . S
C660 C662 1.381 . S
C660 C666 1.383 . S
C661 C657 1.495 . S
C661 H667 0.959 . S
C661 H668 0.961 . S
C661 H669 0.960 . S
C662 C660 1.381 . S
C662 C663 1.394 . S
C662 H670 0.930 . S
C663 C662 1.394 . S
C663 C664 1.383 . S
C663 H671 0.929 . S
C664 C663 1.383 . S
C664 C665 1.377 . S
C665 H649 0.930 . S
C665 C664 1.377 . S
C665 C666 1.379 . S
C666 H650 0.931 . S
C666 C660 1.383 . S
C666 C665 1.379 . S
H667 C661 0.959 . S
H668 C661 0.961 . S
H669 C661 0.960 . S
H670 C662 0.930 . S
H671 C663 0.929 . S
H672 C680 0.929 . S
H673 C682 0.930 . S
H674 C684 0.930 . S
H675 C687 0.929 . S
H676 C690 0.930 . S
H677 C692 0.960 . S
H678 C692 0.960 . S
H679 C692 0.960 . S
C680 H672 0.929 . S
C680 C681 1.377 . S
C680 C682 1.384 . S
C681 C680 1.377 . S
C681 C687 1.390 . S
C682 H673 0.930 . S
C682 C680 1.384 . S
C682 C683 1.372 . S
C683 C682 1.372 . S
C683 C684 1.400 . S
C683 C688 1.490 . S
C684 H674 0.930 . S
C684 C683 1.400 . S
C684 C687 1.386 . S
H685 C701 0.930 . S
H686 C702 0.931 . S
C687 H675 0.929 . S
C687 C681 1.390 . S
C687 C684 1.386 . S
C688 C683 1.490 . S
C688 C690 1.395 . S
C688 C691 1.403 . S
H689 C695 0.930 . S
C690 H676 0.930 . S
C690 C688 1.395 . S
C690 C693 1.403 . S
C691 C688 1.403 . S
C691 C692 1.524 . S
C691 C695 1.400 . S
C692 H677 0.960 . S
C692 H678 0.960 . S
C692 H679 0.960 . S
C692 C691 1.524 . S
C693 C690 1.403 . S
C693 C694 1.392 . S
C693 C697 1.495 . S
C694 C693 1.392 . S
C694 C695 1.385 . S
C694 C696 1.478 . S
C695 H689 0.930 . S
C695 C691 1.400 . S
C695 C694 1.385 . S
C696 C694 1.478 . S
C696 C698 1.381 . S
C696 C702 1.383 . S
C697 C693 1.495 . S
C697 H703 0.959 . S
C697 H704 0.961 . S
C697 H705 0.960 . S
C698 C696 1.381 . S
C698 C699 1.394 . S
C698 H706 0.930 . S
C699 C698 1.394 . S
C699 C700 1.383 . S
C699 H707 0.929 . S
C700 C699 1.383 . S
C700 C701 1.377 . S
C701 H685 0.930 . S
C701 C700 1.377 . S
C701 C702 1.379 . S
C702 H686 0.931 . S
C702 C696 1.383 . S
C702 C701 1.379 . S
H703 C697 0.959 . S
H704 C697 0.961 . S
H705 C697 0.960 . S
H706 C698 0.930 . S
H707 C699 0.929 . S
H708 C716 0.929 . S
H709 C718 0.930 . S
H710 C720 0.930 . S
H711 C723 0.929 . S
H712 C726 0.930 . S
H713 C728 0.960 . S
H714 C728 0.960 . S
H715 C728 0.960 . S
C716 H708 0.929 . S
C716 C717 1.377 . S
C716 C718 1.384 . S
C717 C716 1.377 . S
C717 C723 1.390 . S
C718 H709 0.930 . S
C718 C716 1.384 . S
C718 C719 1.372 . S
C719 C718 1.372 . S
C719 C720 1.400 . S
C719 C724 1.490 . S
C720 H710 0.930 . S
C720 C719 1.400 . S
C720 C723 1.386 . S
H721 C737 0.930 . S
H722 C738 0.929 1_655 S
C723 H711 0.929 . S
C723 C717 1.390 . S
C723 C720 1.386 . S
C724 C719 1.490 . S
C724 C726 1.395 . S
C724 C727 1.403 . S
H725 C731 0.930 . S
C726 H712 0.930 . S
C726 C724 1.395 . S
C726 C729 1.403 . S
C727 C724 1.403 . S
C727 C728 1.524 . S
C727 C731 1.400 . S
C728 H713 0.960 . S
C728 H714 0.960 . S
C728 H715 0.960 . S
C728 C727 1.524 . S
C729 C726 1.403 . S
C729 C730 1.392 . S
C729 C733 1.495 1_455 S
C730 C729 1.392 . S
C730 C731 1.385 . S
C730 C732 1.478 . S
C731 H725 0.930 . S
C731 C727 1.400 . S
C731 C730 1.385 . S
C732 C730 1.478 . S
C732 C734 1.381 . S
C732 C738 1.386 . S
C733 C729 1.495 1_655 S
C733 H739 0.959 . S
C733 H740 0.961 . S
C733 H741 0.960 1_655 S
C734 C732 1.381 . S
C734 C735 1.394 . S
C734 H742 0.930 . S
C735 C734 1.394 . S
C735 C736 1.407 . S
C735 H743 0.929 . S
C736 C735 1.407 . S
C736 C737 1.365 1_455 S
C737 H721 0.930 . S
C737 C736 1.365 1_655 S
C737 C738 1.378 1_655 S
C738 H722 0.929 1_455 S
C738 C732 1.386 . S
C738 C737 1.378 1_455 S
H739 C733 0.959 . S
H740 C733 0.961 . S
H741 C733 0.960 1_455 S
H742 C734 0.930 . S
H743 C735 0.929 . S
H744 C752 0.929 . S
H745 C754 0.930 . S
H746 C756 0.930 . S
H747 C759 0.929 . S
H748 C762 0.930 . S
H749 C764 0.960 . S
H750 C764 0.960 . S
H751 C764 0.960 . S
C752 H744 0.929 . S
C752 C753 1.377 . S
C752 C754 1.384 . S
C753 C752 1.377 . S
C753 C759 1.390 1_655 S
C754 H745 0.930 . S
C754 C752 1.384 . S
C754 C755 1.372 . S
C755 C754 1.372 . S
C755 C756 1.400 1_655 S
C755 C760 1.490 . S
C756 H746 0.930 . S
C756 C755 1.400 1_455 S
C756 C759 1.386 . S
H757 C773 0.930 . S
H758 C774 0.931 . S
C759 H747 0.929 . S
C759 C753 1.390 1_455 S
C759 C756 1.386 . S
C760 C755 1.490 . S
C760 C762 1.395 . S
C760 C763 1.403 . S
H761 C767 0.930 . S
C762 H748 0.930 . S
C762 C760 1.395 . S
C762 C765 1.403 . S
C763 C760 1.403 . S
C763 C764 1.524 1_655 S
C763 C767 1.400 . S
C764 H749 0.960 . S
C764 H750 0.960 . S
C764 H751 0.960 . S
C764 C763 1.524 1_455 S
C765 C762 1.403 . S
C765 C766 1.392 . S
C765 C769 1.495 . S
C766 C765 1.392 . S
C766 C767 1.385 . S
C766 C768 1.478 . S
C767 H761 0.930 . S
C767 C763 1.400 . S
C767 C766 1.385 . S
C768 C766 1.478 . S
C768 C770 1.381 . S
C768 C774 1.383 . S
C769 C765 1.495 . S
C769 H775 0.959 . S
C769 H776 0.961 . S
C769 H777 0.960 . S
C770 C768 1.381 . S
C770 C771 1.394 . S
C770 H778 0.930 . S
C771 C770 1.394 . S
C771 C772 1.383 . S
C771 H779 0.929 . S
C772 C771 1.383 . S
C772 C773 1.377 . S
C773 H757 0.930 . S
C773 C772 1.377 . S
C773 C774 1.379 . S
C774 H758 0.931 . S
C774 C768 1.383 . S
C774 C773 1.379 . S
H775 C769 0.959 . S
H776 C769 0.961 . S
H777 C769 0.960 . S
H778 C770 0.930 . S
H779 C771 0.929 . S
H780 C788 0.929 . S
H781 C790 0.930 . S
H782 C792 0.930 . S
H783 C795 0.929 . S
H784 C798 0.930 . S
H785 C800 0.960 . S
H786 C800 0.960 . S
H787 C800 0.960 . S
C788 H780 0.929 . S
C788 C789 1.377 . S
C788 C790 1.384 . S
C789 C788 1.377 . S
C789 C795 1.390 . S
C790 H781 0.930 . S
C790 C788 1.384 . S
C790 C791 1.372 . S
C791 C790 1.372 . S
C791 C792 1.400 . S
C791 C796 1.490 . S
C792 H782 0.930 . S
C792 C791 1.400 . S
C792 C795 1.386 . S
H793 C809 0.930 . S
H794 C810 0.931 . S
C795 H783 0.929 . S
C795 C789 1.390 . S
C795 C792 1.386 . S
C796 C791 1.490 . S
C796 C798 1.395 . S
C796 C799 1.403 . S
H797 C803 0.930 . S
C798 H784 0.930 . S
C798 C796 1.395 . S
C798 C801 1.403 . S
C799 C796 1.403 . S
C799 C800 1.524 . S
C799 C803 1.400 . S
C800 H785 0.960 . S
C800 H786 0.960 . S
C800 H787 0.960 . S
C800 C799 1.524 . S
C801 C798 1.403 . S
C801 C802 1.392 . S
C801 C805 1.495 . S
C802 C801 1.392 . S
C802 C803 1.385 . S
C802 C804 1.478 . S
C803 H797 0.930 . S
C803 C799 1.400 . S
C803 C802 1.385 . S
C804 C802 1.478 . S
C804 C806 1.381 . S
C804 C810 1.383 . S
C805 C801 1.495 . S
C805 H811 0.959 . S
C805 H812 0.961 . S
C805 H813 0.960 . S
C806 C804 1.381 . S
C806 C807 1.394 . S
C806 H814 0.930 . S
C807 C806 1.394 . S
C807 C808 1.383 . S
C807 H815 0.929 . S
C808 C807 1.383 . S
C808 C809 1.377 . S
C809 H793 0.930 . S
C809 C808 1.377 . S
C809 C810 1.379 . S
C810 H794 0.931 . S
C810 C804 1.383 . S
C810 C809 1.379 . S
H811 C805 0.959 . S
H812 C805 0.961 . S
H813 C805 0.960 . S
H814 C806 0.930 . S
H815 C807 0.929 . S
H816 C824 0.929 . S
H817 C826 0.930 . S
H818 C828 0.930 . S
H819 C831 0.929 . S
H820 C834 0.930 . S
H821 C836 0.960 . S
H822 C836 0.960 . S
H823 C836 0.960 . S
C824 H816 0.929 . S
C824 C825 1.377 . S
C824 C826 1.384 . S
C825 C824 1.377 . S
C825 C831 1.390 . S
C826 H817 0.930 . S
C826 C824 1.384 . S
C826 C827 1.372 . S
C827 C826 1.372 . S
C827 C828 1.400 . S
C827 C832 1.490 . S
C828 H818 0.930 . S
C828 C827 1.400 . S
C828 C831 1.386 . S
H829 C845 0.930 . S
H830 C846 0.931 . S
C831 H819 0.929 . S
C831 C825 1.390 . S
C831 C828 1.386 . S
C832 C827 1.490 . S
C832 C834 1.395 . S
C832 C835 1.403 . S
H833 C839 0.930 . S
C834 H820 0.930 . S
C834 C832 1.395 . S
C834 C837 1.403 . S
C835 C832 1.403 . S
C835 C836 1.524 . S
C835 C839 1.400 . S
C836 H821 0.960 . S
C836 H822 0.960 . S
C836 H823 0.960 . S
C836 C835 1.524 . S
C837 C834 1.403 . S
C837 C838 1.392 . S
C837 C841 1.495 . S
C838 C837 1.392 . S
C838 C839 1.385 . S
C838 C840 1.478 . S
C839 H833 0.930 . S
C839 C835 1.400 . S
C839 C838 1.385 . S
C840 C838 1.478 . S
C840 C842 1.381 . S
C840 C846 1.383 . S
C841 C837 1.495 . S
C841 H847 0.959 . S
C841 H848 0.961 . S
C841 H849 0.960 . S
C842 C840 1.381 . S
C842 C843 1.394 . S
C842 H850 0.930 . S
C843 C842 1.394 . S
C843 C844 1.383 . S
C843 H851 0.929 . S
C844 C843 1.383 . S
C844 C845 1.377 . S
C845 H829 0.930 . S
C845 C844 1.377 . S
C845 C846 1.379 . S
C846 H830 0.931 . S
C846 C840 1.383 . S
C846 C845 1.379 . S
H847 C841 0.959 . S
H848 C841 0.961 . S
H849 C841 0.960 . S
H850 C842 0.930 . S
H851 C843 0.929 . S
H852 C860 0.929 . S
H853 C862 0.930 . S
H854 C864 0.930 . S
H855 C867 0.929 . S
H856 C870 0.930 . S
H857 C872 0.960 . S
H858 C872 0.960 . S
H859 C872 0.960 . S
C860 H852 0.929 . S
C860 C861 1.377 . S
C860 C862 1.384 . S
C861 C860 1.377 . S
C861 C867 1.390 . S
C862 H853 0.930 . S
C862 C860 1.384 . S
C862 C863 1.372 . S
C863 C862 1.372 . S
C863 C864 1.400 . S
C863 C868 1.490 . S
C864 H854 0.930 . S
C864 C863 1.400 . S
C864 C867 1.386 . S
H865 C881 0.930 . S
H866 C882 0.931 . S
C867 H855 0.929 . S
C867 C861 1.390 . S
C867 C864 1.386 . S
C868 C863 1.490 . S
C868 C870 1.395 . S
C868 C871 1.403 . S
H869 C875 0.930 . S
C870 H856 0.930 . S
C870 C868 1.395 . S
C870 C873 1.403 . S
C871 C868 1.403 . S
C871 C872 1.524 . S
C871 C875 1.400 . S
C872 H857 0.960 . S
C872 H858 0.960 . S
C872 H859 0.960 . S
C872 C871 1.524 . S
C873 C870 1.403 . S
C873 C874 1.392 . S
C873 C877 1.495 . S
C874 C873 1.392 . S
C874 C875 1.385 . S
C874 C876 1.478 . S
C875 H869 0.930 . S
C875 C871 1.400 . S
C875 C874 1.385 . S
C876 C874 1.478 . S
C876 C878 1.381 . S
C876 C882 1.383 . S
C877 C873 1.495 . S
C877 H883 0.959 . S
C877 H884 0.961 . S
C877 H885 0.960 . S
C878 C876 1.381 . S
C878 C879 1.394 . S
C878 H886 0.930 . S
C879 C878 1.394 . S
C879 C880 1.383 . S
C879 H887 0.929 . S
C880 C879 1.383 . S
C880 C881 1.377 . S
C881 H865 0.930 . S
C881 C880 1.377 . S
C881 C882 1.379 . S
C882 H866 0.931 . S
C882 C876 1.383 . S
C882 C881 1.379 . S
H883 C877 0.959 . S
H884 C877 0.961 . S
H885 C877 0.960 . S
H886 C878 0.930 . S
H887 C879 0.929 . S
H888 C896 0.929 . S
H889 C898 0.930 . S
H890 C900 0.930 . S
H891 C903 0.929 . S
H892 C906 0.930 . S
H893 C908 0.960 . S
H894 C908 0.960 . S
H895 C908 0.960 . S
C896 H888 0.929 . S
C896 C897 1.377 . S
C896 C898 1.384 . S
C897 C896 1.377 . S
C897 C903 1.390 . S
C898 H889 0.930 . S
C898 C896 1.384 . S
C898 C899 1.372 . S
C899 C898 1.372 . S
C899 C900 1.400 . S
C899 C904 1.490 . S
C900 H890 0.930 . S
C900 C899 1.400 . S
C900 C903 1.386 . S
H901 C917 0.930 . S
H902 C918 0.931 . S
C903 H891 0.929 . S
C903 C897 1.390 . S
C903 C900 1.386 . S
C904 C899 1.490 . S
C904 C906 1.395 . S
C904 C907 1.403 . S
H905 C911 0.930 . S
C906 H892 0.930 . S
C906 C904 1.395 . S
C906 C909 1.403 . S
C907 C904 1.403 . S
C907 C908 1.524 . S
C907 C911 1.400 . S
C908 H893 0.960 . S
C908 H894 0.960 . S
C908 H895 0.960 . S
C908 C907 1.524 . S
C909 C906 1.403 . S
C909 C910 1.392 . S
C909 C913 1.495 . S
C910 C909 1.392 . S
C910 C911 1.385 . S
C910 C912 1.478 . S
C911 H905 0.930 . S
C911 C907 1.400 . S
C911 C910 1.385 . S
C912 C910 1.478 . S
C912 C914 1.381 . S
C912 C918 1.383 . S
C913 C909 1.495 . S
C913 H919 0.959 . S
C913 H920 0.961 . S
C913 H921 0.960 . S
C914 C912 1.381 . S
C914 C915 1.394 . S
C914 H922 0.930 . S
C915 C914 1.394 . S
C915 C916 1.383 . S
C915 H923 0.929 . S
C916 C915 1.383 . S
C916 C917 1.377 . S
C917 H901 0.930 . S
C917 C916 1.377 . S
C917 C918 1.379 . S
C918 H902 0.931 . S
C918 C912 1.383 . S
C918 C917 1.379 . S
H919 C913 0.959 . S
H920 C913 0.961 . S
H921 C913 0.960 . S
H922 C914 0.930 . S
H923 C915 0.929 . S
H924 C932 0.929 . S
H925 C934 0.930 . S
H926 C936 0.930 . S
H927 C939 0.929 . S
H928 C942 0.930 . S
H929 C944 0.960 . S
H930 C944 0.960 . S
H931 C944 0.960 . S
C932 H924 0.929 . S
C932 C933 1.377 . S
C932 C934 1.384 . S
C933 C932 1.377 . S
C933 C939 1.390 . S
C934 H925 0.930 . S
C934 C932 1.384 . S
C934 C935 1.372 . S
C935 C934 1.372 . S
C935 C936 1.400 . S
C935 C940 1.490 . S
C936 H926 0.930 . S
C936 C935 1.400 . S
C936 C939 1.386 . S
H937 C953 0.930 . S
H938 C954 0.931 . S
C939 H927 0.929 . S
C939 C933 1.390 . S
C939 C936 1.386 . S
C940 C935 1.490 . S
C940 C942 1.395 . S
C940 C943 1.403 . S
H941 C947 0.930 . S
C942 H928 0.930 . S
C942 C940 1.395 . S
C942 C945 1.403 1_554 S
C943 C940 1.403 . S
C943 C944 1.524 . S
C943 C947 1.400 . S
C944 H929 0.960 . S
C944 H930 0.960 . S
C944 H931 0.960 . S
C944 C943 1.524 . S
C945 C942 1.403 1_556 S
C945 C946 1.392 . S
C945 C949 1.495 . S
C946 C945 1.392 . S
C946 C947 1.385 1_556 S
C946 C948 1.478 . S
C947 H941 0.930 . S
C947 C943 1.400 . S
C947 C946 1.385 1_554 S
C948 C946 1.478 . S
C948 C950 1.381 . S
C948 C954 1.383 . S
C949 C945 1.495 . S
C949 H955 0.959 . S
C949 H956 0.961 . S
C949 H957 0.960 . S
C950 C948 1.381 . S
C950 C951 1.394 . S
C950 H958 0.930 . S
C951 C950 1.394 . S
C951 C952 1.383 . S
C951 H959 0.929 . S
C952 C951 1.383 . S
C952 C953 1.377 . S
C953 H937 0.930 . S
C953 C952 1.377 . S
C953 C954 1.379 . S
C954 H938 0.931 . S
C954 C948 1.383 . S
C954 C953 1.379 . S
H955 C949 0.959 . S
H956 C949 0.961 . S
H957 C949 0.960 . S
H958 C950 0.930 . S
H959 C951 0.929 . S
H960 C968 0.929 . S
H961 C970 0.930 . S
H962 C972 0.930 . S
H963 C975 0.929 . S
H964 C978 0.930 . S
H965 C980 0.960 . S
H966 C980 0.960 . S
H967 C980 0.960 . S
C968 H960 0.929 . S
C968 C969 1.377 . S
C968 C970 1.384 . S
C969 C968 1.377 . S
C969 C975 1.390 . S
C970 H961 0.930 . S
C970 C968 1.384 . S
C970 C971 1.372 . S
C971 C970 1.372 . S
C971 C972 1.400 . S
C971 C976 1.490 . S
C972 H962 0.930 . S
C972 C971 1.400 . S
C972 C975 1.386 . S
H973 C989 0.930 . S
H974 C990 0.931 . S
C975 H963 0.929 . S
C975 C969 1.390 . S
C975 C972 1.386 . S
C976 C971 1.490 . S
C976 C978 1.395 . S
C976 C979 1.403 . S
H977 C983 0.930 . S
C978 H964 0.930 . S
C978 C976 1.395 . S
C978 C981 1.403 . S
C979 C976 1.403 . S
C979 C980 1.524 . S
C979 C983 1.400 . S
C980 H965 0.960 . S
C980 H966 0.960 . S
C980 H967 0.960 . S
C980 C979 1.524 . S
C981 C978 1.403 . S
C981 C982 1.392 . S
C981 C985 1.495 . S
C982 C981 1.392 . S
C982 C983 1.385 . S
C982 C984 1.478 . S
C983 H977 0.930 . S
C983 C979 1.400 . S
C983 C982 1.385 . S
C984 C982 1.478 . S
C984 C986 1.381 . S
C984 C990 1.383 . S
C985 C981 1.495 . S
C985 H991 0.959 . S
C985 H992 0.961 . S
C985 H993 0.960 . S
C986 C984 1.381 . S
C986 C987 1.394 . S
C986 H994 0.930 . S
C987 C986 1.394 . S
C987 C988 1.383 . S
C987 H995 0.929 . S
C988 C987 1.383 . S
C988 C989 1.377 . S
C989 H973 0.930 . S
C989 C988 1.377 . S
C989 C990 1.379 . S
C990 H974 0.931 . S
C990 C984 1.383 . S
C990 C989 1.379 . S
H991 C985 0.959 . S
H992 C985 0.961 . S
H993 C985 0.960 . S
H994 C986 0.930 . S
H995 C987 0.929 . S
H996 C1004 0.929 . S
H997 C1006 0.930 . S
H998 C1008 0.930 . S
H999 C1011 0.929 . S
H1000 C1014 0.927 1_554 S
H1001 C1016 0.960 . S
H1002 C1016 0.960 . S
H1003 C1016 0.960 . S
C1004 H996 0.929 . S
C1004 C1005 1.377 . S
C1004 C1006 1.384 . S
C1005 C1004 1.377 . S
C1005 C1011 1.390 . S
C1006 H997 0.930 . S
C1006 C1004 1.384 . S
C1006 C1007 1.372 . S
C1007 C1006 1.372 . S
C1007 C1008 1.400 . S
C1007 C1012 1.490 1_554 S
C1008 H998 0.930 . S
C1008 C1007 1.400 . S
C1008 C1011 1.386 . S
H1009 C1025 0.930 . S
H1010 C1026 0.931 . S
C1011 H999 0.929 . S
C1011 C1005 1.390 . S
C1011 C1008 1.386 . S
C1012 C1007 1.490 1_556 S
C1012 C1014 1.395 . S
C1012 C1015 1.403 . S
H1013 C1019 0.930 . S
C1014 H1000 0.927 1_556 S
C1014 C1012 1.395 . S
C1014 C1017 1.406 . S
C1015 C1012 1.403 . S
C1015 C1016 1.524 . S
C1015 C1019 1.400 . S
C1016 H1001 0.960 . S
C1016 H1002 0.960 . S
C1016 H1003 0.960 . S
C1016 C1015 1.524 . S
C1017 C1014 1.406 . S
C1017 C1018 1.392 . S
C1017 C1021 1.495 . S
C1018 C1017 1.392 . S
C1018 C1019 1.385 . S
C1018 C1020 1.478 . S
C1019 H1013 0.930 . S
C1019 C1015 1.400 . S
C1019 C1018 1.385 . S
C1020 C1018 1.478 . S
C1020 C1022 1.381 . S
C1020 C1026 1.383 . S
C1021 C1017 1.495 . S
C1021 H1027 0.959 . S
C1021 H1028 0.961 . S
C1021 H1029 0.960 . S
C1022 C1020 1.381 . S
C1022 C1023 1.394 . S
C1022 H1030 0.930 . S
C1023 C1022 1.394 . S
C1023 C1024 1.383 . S
C1023 H1031 0.929 . S
C1024 C1023 1.383 . S
C1024 C1025 1.377 . S
C1025 H1009 0.930 . S
C1025 C1024 1.377 . S
C1025 C1026 1.379 . S
C1026 H1010 0.931 . S
C1026 C1020 1.383 . S
C1026 C1025 1.379 . S
H1027 C1021 0.959 . S
H1028 C1021 0.961 . S
H1029 C1021 0.960 . S
H1030 C1022 0.930 . S
H1031 C1023 0.929 . S
H1032 C1040 0.929 . S
H1033 C1042 0.930 . S
H1034 C1044 0.930 . S
H1035 C1047 0.929 . S
H1036 C1050 0.930 . S
H1037 C1052 0.960 . S
H1038 C1052 0.960 . S
H1039 C1052 0.960 . S
C1040 H1032 0.929 . S
C1040 C1041 1.377 . S
C1040 C1042 1.384 . S
C1041 C1040 1.377 . S
C1041 C1047 1.390 . S
C1042 H1033 0.930 . S
C1042 C1040 1.384 . S
C1042 C1043 1.372 . S
C1043 C1042 1.372 . S
C1043 C1044 1.400 . S
C1043 C1048 1.490 . S
C1044 H1034 0.930 . S
C1044 C1043 1.400 . S
C1044 C1047 1.386 . S
H1045 C1061 0.930 . S
H1046 C1062 0.931 . S
C1047 H1035 0.929 . S
C1047 C1041 1.390 . S
C1047 C1044 1.386 . S
C1048 C1043 1.490 . S
C1048 C1050 1.395 . S
C1048 C1051 1.403 . S
H1049 C1055 0.930 . S
C1050 H1036 0.930 . S
C1050 C1048 1.395 . S
C1050 C1053 1.403 . S
C1051 C1048 1.403 . S
C1051 C1052 1.524 . S
C1051 C1055 1.400 . S
C1052 H1037 0.960 . S
C1052 H1038 0.960 . S
C1052 H1039 0.960 . S
C1052 C1051 1.524 . S
C1053 C1050 1.403 . S
C1053 C1054 1.392 . S
C1053 C1057 1.495 . S
C1054 C1053 1.392 . S
C1054 C1055 1.385 . S
C1054 C1056 1.478 . S
C1055 H1049 0.930 . S
C1055 C1051 1.400 . S
C1055 C1054 1.385 . S
C1056 C1054 1.478 . S
C1056 C1058 1.381 . S
C1056 C1062 1.383 . S
C1057 C1053 1.495 . S
C1057 H1063 0.959 . S
C1057 H1064 0.961 . S
C1057 H1065 0.960 . S
C1058 C1056 1.381 . S
C1058 C1059 1.394 . S
C1058 H1066 0.930 . S
C1059 C1058 1.394 . S
C1059 C1060 1.383 . S
C1059 H1067 0.929 . S
C1060 C1059 1.383 . S
C1060 C1061 1.377 . S
C1061 H1045 0.930 . S
C1061 C1060 1.377 . S
C1061 C1062 1.379 . S
C1062 H1046 0.931 . S
C1062 C1056 1.383 . S
C1062 C1061 1.379 . S
H1063 C1057 0.959 . S
H1064 C1057 0.961 . S
H1065 C1057 0.960 . S
H1066 C1058 0.930 . S
H1067 C1059 0.929 . S
H1068 C1076 0.929 . S
H1069 C1078 0.930 . S
H1070 C1080 0.930 . S
H1071 C1083 0.929 . S
H1072 C1086 0.930 . S
H1073 C1088 0.960 . S
H1074 C1088 0.960 . S
H1075 C1088 0.960 . S
C1076 H1068 0.929 . S
C1076 C1077 1.377 . S
C1076 C1078 1.384 . S
C1077 C1076 1.377 . S
C1077 C1083 1.390 . S
C1078 H1069 0.930 . S
C1078 C1076 1.384 . S
C1078 C1079 1.372 . S
C1079 C1078 1.372 . S
C1079 C1080 1.400 . S
C1079 C1084 1.490 . S
C1080 H1070 0.930 . S
C1080 C1079 1.400 . S
C1080 C1083 1.386 . S
H1081 C1097 0.930 . S
H1082 C1098 0.931 . S
C1083 H1071 0.929 . S
C1083 C1077 1.390 . S
C1083 C1080 1.386 . S
C1084 C1079 1.490 . S
C1084 C1086 1.395 . S
C1084 C1087 1.403 . S
H1085 C1091 0.930 . S
C1086 H1072 0.930 . S
C1086 C1084 1.395 . S
C1086 C1089 1.403 . S
C1087 C1084 1.403 . S
C1087 C1088 1.524 . S
C1087 C1091 1.400 . S
C1088 H1073 0.960 . S
C1088 H1074 0.960 . S
C1088 H1075 0.960 . S
C1088 C1087 1.524 . S
C1089 C1086 1.403 . S
C1089 C1090 1.392 . S
C1089 C1093 1.495 . S
C1090 C1089 1.392 . S
C1090 C1091 1.385 . S
C1090 C1092 1.478 . S
C1091 H1085 0.930 . S
C1091 C1087 1.400 . S
C1091 C1090 1.385 . S
C1092 C1090 1.478 . S
C1092 C1094 1.381 . S
C1092 C1098 1.383 . S
C1093 C1089 1.495 . S
C1093 H1099 0.959 . S
C1093 H1100 0.961 . S
C1093 H1101 0.960 . S
C1094 C1092 1.381 . S
C1094 C1095 1.394 . S
C1094 H1102 0.930 . S
C1095 C1094 1.394 . S
C1095 C1096 1.383 . S
C1095 H1103 0.929 . S
C1096 C1095 1.383 . S
C1096 C1097 1.377 . S
C1097 H1081 0.930 . S
C1097 C1096 1.377 . S
C1097 C1098 1.379 . S
C1098 H1082 0.931 . S
C1098 C1092 1.383 . S
C1098 C1097 1.379 . S
H1099 C1093 0.959 . S
H1100 C1093 0.961 . S
H1101 C1093 0.960 . S
H1102 C1094 0.930 . S
H1103 C1095 0.929 . S
H1104 C1112 0.929 . S
H1105 C1114 0.930 . S
H1106 C1116 0.930 . S
H1107 C1119 0.929 . S
H1108 C1122 0.930 . S
H1109 C1124 0.960 . S
H1110 C1124 0.960 . S
H1111 C1124 0.960 . S
C1112 H1104 0.929 . S
C1112 C1113 1.377 . S
C1112 C1114 1.384 . S
C1113 C1112 1.377 . S
C1113 C1119 1.390 . S
C1114 H1105 0.930 . S
C1114 C1112 1.384 . S
C1114 C1115 1.372 . S
C1115 C1114 1.372 . S
C1115 C1116 1.400 . S
C1115 C1120 1.490 . S
C1116 H1106 0.930 . S
C1116 C1115 1.400 . S
C1116 C1119 1.386 . S
H1117 C1133 0.930 . S
H1118 C1134 0.931 . S
C1119 H1107 0.929 . S
C1119 C1113 1.390 . S
C1119 C1116 1.386 . S
C1120 C1115 1.490 . S
C1120 C1122 1.395 . S
C1120 C1123 1.403 . S
H1121 C1127 0.930 . S
C1122 H1108 0.930 . S
C1122 C1120 1.395 . S
C1122 C1125 1.403 . S
C1123 C1120 1.403 . S
C1123 C1124 1.524 . S
C1123 C1127 1.400 . S
C1124 H1109 0.960 . S
C1124 H1110 0.960 . S
C1124 H1111 0.960 . S
C1124 C1123 1.524 . S
C1125 C1122 1.403 . S
C1125 C1126 1.392 . S
C1125 C1129 1.495 . S
C1126 C1125 1.392 . S
C1126 C1127 1.385 . S
C1126 C1128 1.478 . S
C1127 H1121 0.930 . S
C1127 C1123 1.400 . S
C1127 C1126 1.385 . S
C1128 C1126 1.478 . S
C1128 C1130 1.381 . S
C1128 C1134 1.383 . S
C1129 C1125 1.495 . S
C1129 H1135 0.959 . S
C1129 H1136 0.961 . S
C1129 H1137 0.960 . S
C1130 C1128 1.381 . S
C1130 C1131 1.394 . S
C1130 H1138 0.930 . S
C1131 C1130 1.394 . S
C1131 C1132 1.383 . S
C1131 H1139 0.929 . S
C1132 C1131 1.383 . S
C1132 C1133 1.377 . S
C1133 H1117 0.930 . S
C1133 C1132 1.377 . S
C1133 C1134 1.379 . S
C1134 H1118 0.931 . S
C1134 C1128 1.383 . S
C1134 C1133 1.379 . S
H1135 C1129 0.959 . S
H1136 C1129 0.961 . S
H1137 C1129 0.960 . S
H1138 C1130 0.930 . S
H1139 C1131 0.929 . S
H1140 C1148 0.929 . S
H1141 C1150 0.930 . S
H1142 C1152 0.930 . S
H1143 C1155 0.929 . S
H1144 C1158 0.930 . S
H1145 C1160 0.960 . S
H1146 C1160 0.960 . S
H1147 C1160 0.960 . S
C1148 H1140 0.929 . S
C1148 C1149 1.377 . S
C1148 C1150 1.384 . S
C1149 C1148 1.377 . S
C1149 C1155 1.390 . S
C1150 H1141 0.930 . S
C1150 C1148 1.384 . S
C1150 C1151 1.372 . S
C1151 C1150 1.372 . S
C1151 C1152 1.400 . S
C1151 C1156 1.490 . S
C1152 H1142 0.930 . S
C1152 C1151 1.400 . S
C1152 C1155 1.386 . S
H1153 C1169 0.930 . S
H1154 C1170 0.931 . S
C1155 H1143 0.929 . S
C1155 C1149 1.390 . S
C1155 C1152 1.386 . S
C1156 C1151 1.490 . S
C1156 C1158 1.395 . S
C1156 C1159 1.403 . S
H1157 C1163 0.930 . S
C1158 H1144 0.930 . S
C1158 C1156 1.395 . S
C1158 C1161 1.403 . S
C1159 C1156 1.403 . S
C1159 C1160 1.524 . S
C1159 C1163 1.400 . S
C1160 H1145 0.960 . S
C1160 H1146 0.960 . S
C1160 H1147 0.960 . S
C1160 C1159 1.524 . S
C1161 C1158 1.403 . S
C1161 C1162 1.392 1_545 S
C1161 C1165 1.495 1_545 S
C1162 C1161 1.392 1_565 S
C1162 C1163 1.384 1_565 S
C1162 C1164 1.480 . S
C1163 H1157 0.930 . S
C1163 C1159 1.400 . S
C1163 C1162 1.384 1_545 S
C1164 C1162 1.480 . S
C1164 C1166 1.381 . S
C1164 C1170 1.383 . S
C1165 C1161 1.495 1_565 S
C1165 H1171 0.961 . S
C1165 H1172 0.961 . S
C1165 H1173 0.960 . S
C1166 C1164 1.381 . S
C1166 C1167 1.394 . S
C1166 H1174 0.930 . S
C1167 C1166 1.394 . S
C1167 C1168 1.383 . S
C1167 H1175 0.929 . S
C1168 C1167 1.383 . S
C1168 C1169 1.377 . S
C1169 H1153 0.930 . S
C1169 C1168 1.377 . S
C1169 C1170 1.379 . S
C1170 H1154 0.931 . S
C1170 C1164 1.383 . S
C1170 C1169 1.379 . S
H1171 C1165 0.961 . S
H1172 C1165 0.961 . S
H1173 C1165 0.960 . S
H1174 C1166 0.930 . S
H1175 C1167 0.929 . S
H1176 C1184 0.929 . S
H1177 C1186 0.930 . S
H1178 C1188 0.930 . S
H1179 C1191 0.929 . S
H1180 C1194 0.930 . S
H1181 C1196 0.960 . S
H1182 C1196 0.960 . S
H1183 C1196 0.960 . S
C1184 H1176 0.929 . S
C1184 C1185 1.377 . S
C1184 C1186 1.384 . S
C1185 C1184 1.377 . S
C1185 C1191 1.390 . S
C1186 H1177 0.930 . S
C1186 C1184 1.384 . S
C1186 C1187 1.372 . S
C1187 C1186 1.372 . S
C1187 C1188 1.400 . S
C1187 C1192 1.490 . S
C1188 H1178 0.930 . S
C1188 C1187 1.400 . S
C1188 C1191 1.386 . S
H1189 C1205 0.930 . S
H1190 C1206 0.931 . S
C1191 H1179 0.929 . S
C1191 C1185 1.390 . S
C1191 C1188 1.386 . S
C1192 C1187 1.490 . S
C1192 C1194 1.395 . S
C1192 C1195 1.403 . S
H1193 C1199 0.930 . S
C1194 H1180 0.930 . S
C1194 C1192 1.395 . S
C1194 C1197 1.403 . S
C1195 C1192 1.403 . S
C1195 C1196 1.524 . S
C1195 C1199 1.400 . S
C1196 H1181 0.960 . S
C1196 H1182 0.960 . S
C1196 H1183 0.960 . S
C1196 C1195 1.524 . S
C1197 C1194 1.403 . S
C1197 C1198 1.392 . S
C1197 C1201 1.495 . S
C1198 C1197 1.392 . S
C1198 C1199 1.385 . S
C1198 C1200 1.478 . S
C1199 H1193 0.930 . S
C1199 C1195 1.400 . S
C1199 C1198 1.385 . S
C1200 C1198 1.478 . S
C1200 C1202 1.381 . S
C1200 C1206 1.383 . S
C1201 C1197 1.495 . S
C1201 H1207 0.959 . S
C1201 H1208 0.961 . S
C1201 H1209 0.960 . S
C1202 C1200 1.381 . S
C1202 C1203 1.394 . S
C1202 H1210 0.930 . S
C1203 C1202 1.394 . S
C1203 C1204 1.383 . S
C1203 H1211 0.929 . S
C1204 C1203 1.383 . S
C1204 C1205 1.377 . S
C1205 H1189 0.930 . S
C1205 C1204 1.377 . S
C1205 C1206 1.379 . S
C1206 H1190 0.931 . S
C1206 C1200 1.383 . S
C1206 C1205 1.379 . S
H1207 C1201 0.959 . S
H1208 C1201 0.961 . S
H1209 C1201 0.960 . S
H1210 C1202 0.930 . S
H1211 C1203 0.929 . S
H1212 C1220 0.929 . S
H1213 C1222 0.930 . S
H1214 C1224 0.930 . S
H1215 C1227 0.929 . S
H1216 C1230 0.930 1_545 S
H1217 C1232 0.960 . S
H1218 C1232 0.960 1_545 S
H1219 C1232 0.960 . S
C1220 H1212 0.929 . S
C1220 C1221 1.377 . S
C1220 C1222 1.384 . S
C1221 C1220 1.377 . S
C1221 C1227 1.390 . S
C1222 H1213 0.930 . S
C1222 C1220 1.384 . S
C1222 C1223 1.372 . S
C1223 C1222 1.372 . S
C1223 C1224 1.400 . S
C1223 C1228 1.488 . S
C1224 H1214 0.930 . S
C1224 C1223 1.400 . S
C1224 C1227 1.386 . S
H1225 C1241 0.930 . S
H1226 C1242 0.931 . S
C1227 H1215 0.929 . S
C1227 C1221 1.390 . S
C1227 C1224 1.386 . S
C1228 C1223 1.488 . S
C1228 C1230 1.395 1_545 S
C1228 C1231 1.405 1_545 S
H1229 C1235 0.930 . S
C1230 H1216 0.930 1_565 S
C1230 C1228 1.395 1_565 S
C1230 C1233 1.403 . S
C1231 C1228 1.405 1_565 S
C1231 C1232 1.524 . S
C1231 C1235 1.400 . S
C1232 H1217 0.960 . S
C1232 H1218 0.960 1_565 S
C1232 H1219 0.960 . S
C1232 C1231 1.524 . S
C1233 C1230 1.403 . S
C1233 C1234 1.392 . S
C1233 C1237 1.495 . S
C1234 C1233 1.392 . S
C1234 C1235 1.385 . S
C1234 C1236 1.478 . S
C1235 H1229 0.930 . S
C1235 C1231 1.400 . S
C1235 C1234 1.385 . S
C1236 C1234 1.478 . S
C1236 C1238 1.381 . S
C1236 C1242 1.383 . S
C1237 C1233 1.495 . S
C1237 H1243 0.959 . S
C1237 H1244 0.961 . S
C1237 H1245 0.960 . S
C1238 C1236 1.381 . S
C1238 C1239 1.394 . S
C1238 H1246 0.930 . S
C1239 C1238 1.394 . S
C1239 C1240 1.383 . S
C1239 H1247 0.929 . S
C1240 C1239 1.383 . S
C1240 C1241 1.377 . S
C1241 H1225 0.930 . S
C1241 C1240 1.377 . S
C1241 C1242 1.379 . S
C1242 H1226 0.931 . S
C1242 C1236 1.383 . S
C1242 C1241 1.379 . S
H1243 C1237 0.959 . S
H1244 C1237 0.961 . S
H1245 C1237 0.960 . S
H1246 C1238 0.930 . S
H1247 C1239 0.929 . S
H1248 C1256 0.929 . S
H1249 C1258 0.930 . S
H1250 C1260 0.930 . S
H1251 C1263 0.929 . S
H1252 C1266 0.930 . S
H1253 C1268 0.960 . S
H1254 C1268 0.960 . S
H1255 C1268 0.960 . S
C1256 H1248 0.929 . S
C1256 C1257 1.377 . S
C1256 C1258 1.384 . S
C1257 C1256 1.377 . S
C1257 C1263 1.390 . S
C1258 H1249 0.930 . S
C1258 C1256 1.384 . S
C1258 C1259 1.372 . S
C1259 C1258 1.372 . S
C1259 C1260 1.400 . S
C1259 C1264 1.490 . S
C1260 H1250 0.930 . S
C1260 C1259 1.400 . S
C1260 C1263 1.386 . S
H1261 C1277 0.930 . S
H1262 C1278 0.931 . S
C1263 H1251 0.929 . S
C1263 C1257 1.390 . S
C1263 C1260 1.386 . S
C1264 C1259 1.490 . S
C1264 C1266 1.395 . S
C1264 C1267 1.403 . S
H1265 C1271 0.930 . S
C1266 H1252 0.930 . S
C1266 C1264 1.395 . S
C1266 C1269 1.403 . S
C1267 C1264 1.403 . S
C1267 C1268 1.524 . S
C1267 C1271 1.400 . S
C1268 H1253 0.960 . S
C1268 H1254 0.960 . S
C1268 H1255 0.960 . S
C1268 C1267 1.524 . S
C1269 C1266 1.403 . S
C1269 C1270 1.392 . S
C1269 C1273 1.495 . S
C1270 C1269 1.392 . S
C1270 C1271 1.385 . S
C1270 C1272 1.478 . S
C1271 H1265 0.930 . S
C1271 C1267 1.400 . S
C1271 C1270 1.385 . S
C1272 C1270 1.478 . S
C1272 C1274 1.381 . S
C1272 C1278 1.383 . S
C1273 C1269 1.495 . S
C1273 H1279 0.959 . S
C1273 H1280 0.961 . S
C1273 H1281 0.960 . S
C1274 C1272 1.381 . S
C1274 C1275 1.394 . S
C1274 H1282 0.930 . S
C1275 C1274 1.394 . S
C1275 C1276 1.383 . S
C1275 H1283 0.929 . S
C1276 C1275 1.383 . S
C1276 C1277 1.377 . S
C1277 H1261 0.930 . S
C1277 C1276 1.377 . S
C1277 C1278 1.379 . S
C1278 H1262 0.931 . S
C1278 C1272 1.383 . S
C1278 C1277 1.379 . S
H1279 C1273 0.959 . S
H1280 C1273 0.961 . S
H1281 C1273 0.960 . S
H1282 C1274 0.930 . S
H1283 C1275 0.929 . S
H1284 C1292 0.929 . S
H1285 C1294 0.930 . S
H1286 C1296 0.930 . S
H1287 C1299 0.929 . S
H1288 C1302 0.930 . S
H1289 C1304 0.960 . S
H1290 C1304 0.960 . S
H1291 C1304 0.960 . S
C1292 H1284 0.929 . S
C1292 C1293 1.377 . S
C1292 C1294 1.384 . S
C1293 C1292 1.377 . S
C1293 C1299 1.390 . S
C1294 H1285 0.930 . S
C1294 C1292 1.384 . S
C1294 C1295 1.372 . S
C1295 C1294 1.372 . S
C1295 C1296 1.400 . S
C1295 C1300 1.490 . S
C1296 H1286 0.930 . S
C1296 C1295 1.400 . S
C1296 C1299 1.386 . S
H1297 C1313 0.930 . S
H1298 C1314 0.931 . S
C1299 H1287 0.929 . S
C1299 C1293 1.390 . S
C1299 C1296 1.386 . S
C1300 C1295 1.490 . S
C1300 C1302 1.395 . S
C1300 C1303 1.403 . S
H1301 C1307 0.930 . S
C1302 H1288 0.930 . S
C1302 C1300 1.395 . S
C1302 C1305 1.403 . S
C1303 C1300 1.403 . S
C1303 C1304 1.524 . S
C1303 C1307 1.400 . S
C1304 H1289 0.960 . S
C1304 H1290 0.960 . S
C1304 H1291 0.960 . S
C1304 C1303 1.524 . S
C1305 C1302 1.403 . S
C1305 C1306 1.392 . S
C1305 C1309 1.495 . S
C1306 C1305 1.392 . S
C1306 C1307 1.385 . S
C1306 C1308 1.478 . S
C1307 H1301 0.930 . S
C1307 C1303 1.400 . S
C1307 C1306 1.385 . S
C1308 C1306 1.478 . S
C1308 C1310 1.381 . S
C1308 C1314 1.383 . S
C1309 C1305 1.495 . S
C1309 H1315 0.959 . S
C1309 H1316 0.961 . S
C1309 H1317 0.960 . S
C1310 C1308 1.381 . S
C1310 C1311 1.394 . S
C1310 H1318 0.930 . S
C1311 C1310 1.394 . S
C1311 C1312 1.383 . S
C1311 H1319 0.929 . S
C1312 C1311 1.383 . S
C1312 C1313 1.377 . S
C1313 H1297 0.930 . S
C1313 C1312 1.377 . S
C1313 C1314 1.379 . S
C1314 H1298 0.931 . S
C1314 C1308 1.383 . S
C1314 C1313 1.379 . S
H1315 C1309 0.959 . S
H1316 C1309 0.961 . S
H1317 C1309 0.960 . S
H1318 C1310 0.930 . S
H1319 C1311 0.929 . S
H1320 C1328 0.929 . S
H1321 C1330 0.930 . S
H1322 C1332 0.930 . S
H1323 C1335 0.929 . S
H1324 C1338 0.930 . S
H1325 C1340 0.960 . S
H1326 C1340 0.960 . S
H1327 C1340 0.960 . S
C1328 H1320 0.929 . S
C1328 C1329 1.377 . S
C1328 C1330 1.384 . S
C1329 C1328 1.377 . S
C1329 C1335 1.390 . S
C1330 H1321 0.930 . S
C1330 C1328 1.384 . S
C1330 C1331 1.372 . S
C1331 C1330 1.372 . S
C1331 C1332 1.400 . S
C1331 C1336 1.490 . S
C1332 H1322 0.930 . S
C1332 C1331 1.400 . S
C1332 C1335 1.386 . S
H1333 C1349 0.930 . S
H1334 C1350 0.931 . S
C1335 H1323 0.929 . S
C1335 C1329 1.390 . S
C1335 C1332 1.386 . S
C1336 C1331 1.490 . S
C1336 C1338 1.395 . S
C1336 C1339 1.403 . S
H1337 C1343 0.930 . S
C1338 H1324 0.930 . S
C1338 C1336 1.395 . S
C1338 C1341 1.403 . S
C1339 C1336 1.403 . S
C1339 C1340 1.524 . S
C1339 C1343 1.400 . S
C1340 H1325 0.960 . S
C1340 H1326 0.960 . S
C1340 H1327 0.960 . S
C1340 C1339 1.524 . S
C1341 C1338 1.403 . S
C1341 C1342 1.392 . S
C1341 C1345 1.495 . S
C1342 C1341 1.392 . S
C1342 C1343 1.385 . S
C1342 C1344 1.478 . S
C1343 H1337 0.930 . S
C1343 C1339 1.400 . S
C1343 C1342 1.385 . S
C1344 C1342 1.478 . S
C1344 C1346 1.381 . S
C1344 C1350 1.383 . S
C1345 C1341 1.495 . S
C1345 H1351 0.959 . S
C1345 H1352 0.961 . S
C1345 H1353 0.960 . S
C1346 C1344 1.381 . S
C1346 C1347 1.394 . S
C1346 H1354 0.930 . S
C1347 C1346 1.394 . S
C1347 C1348 1.383 . S
C1347 H1355 0.929 . S
C1348 C1347 1.383 . S
C1348 C1349 1.377 . S
C1349 H1333 0.930 . S
C1349 C1348 1.377 . S
C1349 C1350 1.379 . S
C1350 H1334 0.931 . S
C1350 C1344 1.383 . S
C1350 C1349 1.379 . S
H1351 C1345 0.959 . S
H1352 C1345 0.961 . S
H1353 C1345 0.960 . S
H1354 C1346 0.930 . S
H1355 C1347 0.929 . S
H1356 C1364 0.929 . S
H1357 C1366 0.930 . S
H1358 C1368 0.930 . S
H1359 C1371 0.929 . S
H1360 C1374 0.930 . S
H1361 C1376 0.960 . S
H1362 C1376 0.960 . S
H1363 C1376 0.960 . S
C1364 H1356 0.929 . S
C1364 C1365 1.377 . S
C1364 C1366 1.384 . S
C1365 C1364 1.377 . S
C1365 C1371 1.390 . S
C1366 H1357 0.930 . S
C1366 C1364 1.384 . S
C1366 C1367 1.372 . S
C1367 C1366 1.372 . S
C1367 C1368 1.400 . S
C1367 C1372 1.490 . S
C1368 H1358 0.930 . S
C1368 C1367 1.400 . S
C1368 C1371 1.386 . S
H1369 C1385 0.930 . S
H1370 C1386 0.931 . S
C1371 H1359 0.929 . S
C1371 C1365 1.390 . S
C1371 C1368 1.386 . S
C1372 C1367 1.490 . S
C1372 C1374 1.395 . S
C1372 C1375 1.403 . S
H1373 C1379 0.930 . S
C1374 H1360 0.930 . S
C1374 C1372 1.395 . S
C1374 C1377 1.403 . S
C1375 C1372 1.403 . S
C1375 C1376 1.524 . S
C1375 C1379 1.400 . S
C1376 H1361 0.960 . S
C1376 H1362 0.960 . S
C1376 H1363 0.960 . S
C1376 C1375 1.524 . S
C1377 C1374 1.403 . S
C1377 C1378 1.392 . S
C1377 C1381 1.495 . S
C1378 C1377 1.392 . S
C1378 C1379 1.385 . S
C1378 C1380 1.478 . S
C1379 H1373 0.930 . S
C1379 C1375 1.400 . S
C1379 C1378 1.385 . S
C1380 C1378 1.478 . S
C1380 C1382 1.381 . S
C1380 C1386 1.383 . S
C1381 C1377 1.495 . S
C1381 H1387 0.959 . S
C1381 H1388 0.961 . S
C1381 H1389 0.960 . S
C1382 C1380 1.381 . S
C1382 C1383 1.394 . S
C1382 H1390 0.930 . S
C1383 C1382 1.394 . S
C1383 C1384 1.383 . S
C1383 H1391 0.929 . S
C1384 C1383 1.383 . S
C1384 C1385 1.377 . S
C1385 H1369 0.930 . S
C1385 C1384 1.377 . S
C1385 C1386 1.379 . S
C1386 H1370 0.931 . S
C1386 C1380 1.383 . S
C1386 C1385 1.379 . S
H1387 C1381 0.959 . S
H1388 C1381 0.961 . S
H1389 C1381 0.960 . S
H1390 C1382 0.930 . S
H1391 C1383 0.929 . S
H1392 C1400 0.929 . S
H1393 C1402 0.930 . S
H1394 C1404 0.930 . S
H1395 C1407 0.929 . S
H1396 C1410 0.930 . S
H1397 C1412 0.960 . S
H1398 C1412 0.960 . S
H1399 C1412 0.960 . S
C1400 H1392 0.929 . S
C1400 C1401 1.377 . S
C1400 C1402 1.384 . S
C1401 C1400 1.377 . S
C1401 C1407 1.390 . S
C1402 H1393 0.930 . S
C1402 C1400 1.384 . S
C1402 C1403 1.372 . S
C1403 C1402 1.372 . S
C1403 C1404 1.400 . S
C1403 C1408 1.490 . S
C1404 H1394 0.930 . S
C1404 C1403 1.400 . S
C1404 C1407 1.386 . S
H1405 C1421 0.930 . S
H1406 C1422 0.931 . S
C1407 H1395 0.929 . S
C1407 C1401 1.390 . S
C1407 C1404 1.386 . S
C1408 C1403 1.490 . S
C1408 C1410 1.395 . S
C1408 C1411 1.403 . S
H1409 C1415 0.930 . S
C1410 H1396 0.930 . S
C1410 C1408 1.395 . S
C1410 C1413 1.403 . S
C1411 C1408 1.403 . S
C1411 C1412 1.524 . S
C1411 C1415 1.400 . S
C1412 H1397 0.960 . S
C1412 H1398 0.960 . S
C1412 H1399 0.960 . S
C1412 C1411 1.524 . S
C1413 C1410 1.403 . S
C1413 C1414 1.392 . S
C1413 C1417 1.495 . S
C1414 C1413 1.392 . S
C1414 C1415 1.385 . S
C1414 C1416 1.478 . S
C1415 H1409 0.930 . S
C1415 C1411 1.400 . S
C1415 C1414 1.385 . S
C1416 C1414 1.478 . S
C1416 C1418 1.381 . S
C1416 C1422 1.383 . S
C1417 C1413 1.495 . S
C1417 H1423 0.959 . S
C1417 H1424 0.961 . S
C1417 H1425 0.960 . S
C1418 C1416 1.381 . S
C1418 C1419 1.394 . S
C1418 H1426 0.930 . S
C1419 C1418 1.394 . S
C1419 C1420 1.383 . S
C1419 H1427 0.929 . S
C1420 C1419 1.383 . S
C1420 C1421 1.377 . S
C1421 H1405 0.930 . S
C1421 C1420 1.377 . S
C1421 C1422 1.379 . S
C1422 H1406 0.931 . S
C1422 C1416 1.383 . S
C1422 C1421 1.379 . S
H1423 C1417 0.959 . S
H1424 C1417 0.961 . S
H1425 C1417 0.960 . S
H1426 C1418 0.930 . S
H1427 C1419 0.929 . S
H1428 C1436 0.929 . S
H1429 C1438 0.930 . S
H1430 C1440 0.930 . S
H1431 C1443 0.929 . S
H1432 C1446 0.930 . S
H1433 C1448 0.960 . S
H1434 C1448 0.960 . S
H1435 C1448 0.960 . S
C1436 H1428 0.929 . S
C1436 C1437 1.377 . S
C1436 C1438 1.384 . S
C1437 C1436 1.377 . S
C1437 C1443 1.390 . S
C1438 H1429 0.930 . S
C1438 C1436 1.384 . S
C1438 C1439 1.372 . S
C1439 C1438 1.372 . S
C1439 C1440 1.400 . S
C1439 C1444 1.490 . S
C1440 H1430 0.930 . S
C1440 C1439 1.400 . S
C1440 C1443 1.386 . S
H1441 C1457 0.930 . S
H1442 C1458 0.931 . S
C1443 H1431 0.929 . S
C1443 C1437 1.390 . S
C1443 C1440 1.386 . S
C1444 C1439 1.490 . S
C1444 C1446 1.395 . S
C1444 C1447 1.403 . S
H1445 C1451 0.930 . S
C1446 H1432 0.930 . S
C1446 C1444 1.395 . S
C1446 C1449 1.403 . S
C1447 C1444 1.403 . S
C1447 C1448 1.524 . S
C1447 C1451 1.400 . S
C1448 H1433 0.960 . S
C1448 H1434 0.960 . S
C1448 H1435 0.960 . S
C1448 C1447 1.524 . S
C1449 C1446 1.403 . S
C1449 C1450 1.392 . S
C1449 C1453 1.495 . S
C1450 C1449 1.392 . S
C1450 C1451 1.385 . S
C1450 C1452 1.478 . S
C1451 H1445 0.930 . S
C1451 C1447 1.400 . S
C1451 C1450 1.385 . S
C1452 C1450 1.478 . S
C1452 C1454 1.381 . S
C1452 C1458 1.383 . S
C1453 C1449 1.495 . S
C1453 H1459 0.959 . S
C1453 H1460 0.961 . S
C1453 H1461 0.960 . S
C1454 C1452 1.381 . S
C1454 C1455 1.394 . S
C1454 H1462 0.930 . S
C1455 C1454 1.394 . S
C1455 C1456 1.383 . S
C1455 H1463 0.929 . S
C1456 C1455 1.383 . S
C1456 C1457 1.377 . S
C1457 H1441 0.930 . S
C1457 C1456 1.377 . S
C1457 C1458 1.379 . S
C1458 H1442 0.931 . S
C1458 C1452 1.383 . S
C1458 C1457 1.379 . S
H1459 C1453 0.959 . S
H1460 C1453 0.961 . S
H1461 C1453 0.960 . S
H1462 C1454 0.930 . S
H1463 C1455 0.929 . S
H1464 C1472 0.929 . S
H1465 C1474 0.930 . S
H1466 C1476 0.930 . S
H1467 C1479 0.929 . S
H1468 C1482 0.930 . S
H1469 C1484 0.960 . S
H1470 C1484 0.960 . S
H1471 C1484 0.960 . S
C1472 H1464 0.929 . S
C1472 C1473 1.377 . S
C1472 C1474 1.384 . S
C1473 C1472 1.377 . S
C1473 C1479 1.390 . S
C1474 H1465 0.930 . S
C1474 C1472 1.384 . S
C1474 C1475 1.372 . S
C1475 C1474 1.372 . S
C1475 C1476 1.400 . S
C1475 C1480 1.490 . S
C1476 H1466 0.930 . S
C1476 C1475 1.400 . S
C1476 C1479 1.386 . S
H1477 C1493 0.930 . S
H1478 C1494 0.931 . S
C1479 H1467 0.929 . S
C1479 C1473 1.390 . S
C1479 C1476 1.386 . S
C1480 C1475 1.490 . S
C1480 C1482 1.395 . S
C1480 C1483 1.403 . S
H1481 C1487 0.930 . S
C1482 H1468 0.930 . S
C1482 C1480 1.395 . S
C1482 C1485 1.403 1_455 S
C1483 C1480 1.403 . S
C1483 C1484 1.524 . S
C1483 C1487 1.400 . S
C1484 H1469 0.960 . S
C1484 H1470 0.960 . S
C1484 H1471 0.960 . S
C1484 C1483 1.524 . S
C1485 C1482 1.403 1_655 S
C1485 C1486 1.392 . S
C1485 C1489 1.495 . S
C1486 C1485 1.392 . S
C1486 C1487 1.385 1_655 S
C1486 C1488 1.478 . S
C1487 H1481 0.930 . S
C1487 C1483 1.400 . S
C1487 C1486 1.385 1_455 S
C1488 C1486 1.478 . S
C1488 C1490 1.381 . S
C1488 C1494 1.383 . S
C1489 C1485 1.495 . S
C1489 H1495 0.959 . S
C1489 H1496 0.961 . S
C1489 H1497 0.960 . S
C1490 C1488 1.381 . S
C1490 C1491 1.394 . S
C1490 H1498 0.930 . S
C1491 C1490 1.394 . S
C1491 C1492 1.383 . S
C1491 H1499 0.929 . S
C1492 C1491 1.383 . S
C1492 C1493 1.377 . S
C1493 H1477 0.930 . S
C1493 C1492 1.377 . S
C1493 C1494 1.379 . S
C1494 H1478 0.931 . S
C1494 C1488 1.383 . S
C1494 C1493 1.379 . S
H1495 C1489 0.959 . S
H1496 C1489 0.961 . S
H1497 C1489 0.960 . S
H1498 C1490 0.930 . S
H1499 C1491 0.929 . S
H1500 C1508 0.929 . S
H1501 C1510 0.930 . S
H1502 C1512 0.930 . S
H1503 C1515 0.929 . S
H1504 C1518 0.930 . S
H1505 C1520 0.960 . S
H1506 C1520 0.960 . S
H1507 C1520 0.960 . S
C1508 H1500 0.929 . S
C1508 C1509 1.377 . S
C1508 C1510 1.384 . S
C1509 C1508 1.377 . S
C1509 C1515 1.390 . S
C1510 H1501 0.930 . S
C1510 C1508 1.384 . S
C1510 C1511 1.372 . S
C1511 C1510 1.372 . S
C1511 C1512 1.400 . S
C1511 C1516 1.490 . S
C1512 H1502 0.930 . S
C1512 C1511 1.400 . S
C1512 C1515 1.386 . S
H1513 C1529 0.930 . S
H1514 C1530 0.931 . S
C1515 H1503 0.929 . S
C1515 C1509 1.390 . S
C1515 C1512 1.386 . S
C1516 C1511 1.490 . S
C1516 C1518 1.395 . S
C1516 C1519 1.403 . S
H1517 C1523 0.930 . S
C1518 H1504 0.930 . S
C1518 C1516 1.395 . S
C1518 C1521 1.403 . S
C1519 C1516 1.403 . S
C1519 C1520 1.524 . S
C1519 C1523 1.400 . S
C1520 H1505 0.960 . S
C1520 H1506 0.960 . S
C1520 H1507 0.960 . S
C1520 C1519 1.524 . S
C1521 C1518 1.403 . S
C1521 C1522 1.392 . S
C1521 C1525 1.495 . S
C1522 C1521 1.392 . S
C1522 C1523 1.385 . S
C1522 C1524 1.478 . S
C1523 H1517 0.930 . S
C1523 C1519 1.400 . S
C1523 C1522 1.385 . S
C1524 C1522 1.478 . S
C1524 C1526 1.381 . S
C1524 C1530 1.383 . S
C1525 C1521 1.495 . S
C1525 H1531 0.959 . S
C1525 H1532 0.961 . S
C1525 H1533 0.960 . S
C1526 C1524 1.381 . S
C1526 C1527 1.394 . S
C1526 H1534 0.930 . S
C1527 C1526 1.394 . S
C1527 C1528 1.383 . S
C1527 H1535 0.929 . S
C1528 C1527 1.383 . S
C1528 C1529 1.377 . S
C1529 H1513 0.930 . S
C1529 C1528 1.377 . S
C1529 C1530 1.379 . S
C1530 H1514 0.931 . S
C1530 C1524 1.383 . S
C1530 C1529 1.379 . S
H1531 C1525 0.959 . S
H1532 C1525 0.961 . S
H1533 C1525 0.960 . S
H1534 C1526 0.930 . S
H1535 C1527 0.929 . S
H1536 C1544 0.929 . S
H1537 C1546 0.930 . S
H1538 C1548 0.930 . S
H1539 C1551 0.929 . S
H1540 C1554 0.930 . S
H1541 C1556 0.960 . S
H1542 C1556 0.960 . S
H1543 C1556 0.960 . S
C1544 H1536 0.929 . S
C1544 C1545 1.377 . S
C1544 C1546 1.384 . S
C1545 C1544 1.377 . S
C1545 C1551 1.390 . S
C1546 H1537 0.930 . S
C1546 C1544 1.384 . S
C1546 C1547 1.372 . S
C1547 C1546 1.372 . S
C1547 C1548 1.400 . S
C1547 C1552 1.490 . S
C1548 H1538 0.930 . S
C1548 C1547 1.400 . S
C1548 C1551 1.386 . S
H1549 C1565 0.930 . S
H1550 C1566 0.931 . S
C1551 H1539 0.929 . S
C1551 C1545 1.390 . S
C1551 C1548 1.386 . S
C1552 C1547 1.490 . S
C1552 C1554 1.395 . S
C1552 C1555 1.403 . S
H1553 C1559 0.930 . S
C1554 H1540 0.930 . S
C1554 C1552 1.395 . S
C1554 C1557 1.403 . S
C1555 C1552 1.403 . S
C1555 C1556 1.524 . S
C1555 C1559 1.400 . S
C1556 H1541 0.960 . S
C1556 H1542 0.960 . S
C1556 H1543 0.960 . S
C1556 C1555 1.524 . S
C1557 C1554 1.403 . S
C1557 C1558 1.392 . S
C1557 C1561 1.495 . S
C1558 C1557 1.392 . S
C1558 C1559 1.385 . S
C1558 C1560 1.478 . S
C1559 H1553 0.930 . S
C1559 C1555 1.400 . S
C1559 C1558 1.385 . S
C1560 C1558 1.478 . S
C1560 C1562 1.381 . S
C1560 C1566 1.383 . S
C1561 C1557 1.495 . S
C1561 H1567 0.959 . S
C1561 H1568 0.961 . S
C1561 H1569 0.960 . S
C1562 C1560 1.381 . S
C1562 C1563 1.394 . S
C1562 H1570 0.930 . S
C1563 C1562 1.394 . S
C1563 C1564 1.383 . S
C1563 H1571 0.929 . S
C1564 C1563 1.383 . S
C1564 C1565 1.377 . S
C1565 H1549 0.930 . S
C1565 C1564 1.377 . S
C1565 C1566 1.379 . S
C1566 H1550 0.931 . S
C1566 C1560 1.383 . S
C1566 C1565 1.379 . S
H1567 C1561 0.959 . S
H1568 C1561 0.961 . S
H1569 C1561 0.960 . S
H1570 C1562 0.930 . S
H1571 C1563 0.929 . S
H1572 C1580 0.929 . S
H1573 C1582 0.930 . S
H1574 C1584 0.930 . S
H1575 C1587 0.929 . S
H1576 C1590 0.930 . S
H1577 C1592 0.960 . S
H1578 C1592 0.960 . S
H1579 C1592 0.960 . S
C1580 H1572 0.929 . S
C1580 C1581 1.377 . S
C1580 C1582 1.384 . S
C1581 C1580 1.377 . S
C1581 C1587 1.390 . S
C1582 H1573 0.930 . S
C1582 C1580 1.384 . S
C1582 C1583 1.372 . S
C1583 C1582 1.372 . S
C1583 C1584 1.400 . S
C1583 C1588 1.490 . S
C1584 H1574 0.930 . S
C1584 C1583 1.400 . S
C1584 C1587 1.386 . S
H1585 C1601 0.930 . S
H1586 C1602 0.931 . S
C1587 H1575 0.929 . S
C1587 C1581 1.390 . S
C1587 C1584 1.386 . S
C1588 C1583 1.490 . S
C1588 C1590 1.395 . S
C1588 C1591 1.403 . S
H1589 C1595 0.930 . S
C1590 H1576 0.930 . S
C1590 C1588 1.395 . S
C1590 C1593 1.403 . S
C1591 C1588 1.403 . S
C1591 C1592 1.524 . S
C1591 C1595 1.400 . S
C1592 H1577 0.960 . S
C1592 H1578 0.960 . S
C1592 H1579 0.960 . S
C1592 C1591 1.524 . S
C1593 C1590 1.403 . S
C1593 C1594 1.392 . S
C1593 C1597 1.495 . S
C1594 C1593 1.392 . S
C1594 C1595 1.385 . S
C1594 C1596 1.478 . S
C1595 H1589 0.930 . S
C1595 C1591 1.400 . S
C1595 C1594 1.385 . S
C1596 C1594 1.478 . S
C1596 C1598 1.381 . S
C1596 C1602 1.383 . S
C1597 C1593 1.495 . S
C1597 H1603 0.959 . S
C1597 H1604 0.961 . S
C1597 H1605 0.960 . S
C1598 C1596 1.381 . S
C1598 C1599 1.394 . S
C1598 H1606 0.930 . S
C1599 C1598 1.394 . S
C1599 C1600 1.383 . S
C1599 H1607 0.929 . S
C1600 C1599 1.383 . S
C1600 C1601 1.377 . S
C1601 H1585 0.930 . S
C1601 C1600 1.377 . S
C1601 C1602 1.379 . S
C1602 H1586 0.931 . S
C1602 C1596 1.383 . S
C1602 C1601 1.379 . S
H1603 C1597 0.959 . S
H1604 C1597 0.961 . S
H1605 C1597 0.960 . S
H1606 C1598 0.930 . S
H1607 C1599 0.929 . S
H1608 C1616 0.929 . S
H1609 C1618 0.930 . S
H1610 C1620 0.930 . S
H1611 C1623 0.929 . S
H1612 C1626 0.930 . S
H1613 C1628 0.960 . S
H1614 C1628 0.960 . S
H1615 C1628 0.960 . S
C1616 H1608 0.929 . S
C1616 C1617 1.377 . S
C1616 C1618 1.384 . S
C1617 C1616 1.377 . S
C1617 C1623 1.390 . S
C1618 H1609 0.930 . S
C1618 C1616 1.384 . S
C1618 C1619 1.372 . S
C1619 C1618 1.372 . S
C1619 C1620 1.400 . S
C1619 C1624 1.490 . S
C1620 H1610 0.930 . S
C1620 C1619 1.400 . S
C1620 C1623 1.386 . S
H1621 C1637 0.930 . S
H1622 C1638 0.931 . S
C1623 H1611 0.929 . S
C1623 C1617 1.390 . S
C1623 C1620 1.386 . S
C1624 C1619 1.490 . S
C1624 C1626 1.395 . S
C1624 C1627 1.403 . S
H1625 C1631 0.930 . S
C1626 H1612 0.930 . S
C1626 C1624 1.395 . S
C1626 C1629 1.403 . S
C1627 C1624 1.403 . S
C1627 C1628 1.524 . S
C1627 C1631 1.400 . S
C1628 H1613 0.960 . S
C1628 H1614 0.960 . S
C1628 H1615 0.960 . S
C1628 C1627 1.524 . S
C1629 C1626 1.403 . S
C1629 C1630 1.392 . S
C1629 C1633 1.495 . S
C1630 C1629 1.392 . S
C1630 C1631 1.385 . S
C1630 C1632 1.478 . S
C1631 H1625 0.930 . S
C1631 C1627 1.400 . S
C1631 C1630 1.385 . S
C1632 C1630 1.478 . S
C1632 C1634 1.381 . S
C1632 C1638 1.383 . S
C1633 C1629 1.495 . S
C1633 H1639 0.959 . S
C1633 H1640 0.961 . S
C1633 H1641 0.960 . S
C1634 C1632 1.381 . S
C1634 C1635 1.394 . S
C1634 H1642 0.930 . S
C1635 C1634 1.394 . S
C1635 C1636 1.383 . S
C1635 H1643 0.929 . S
C1636 C1635 1.383 . S
C1636 C1637 1.377 . S
C1637 H1621 0.930 . S
C1637 C1636 1.377 . S
C1637 C1638 1.379 . S
C1638 H1622 0.931 . S
C1638 C1632 1.383 . S
C1638 C1637 1.379 . S
H1639 C1633 0.959 . S
H1640 C1633 0.961 . S
H1641 C1633 0.960 . S
H1642 C1634 0.930 . S
H1643 C1635 0.929 . S
H1644 C1652 0.929 . S
H1645 C1654 0.930 . S
H1646 C1656 0.930 . S
H1647 C1659 0.929 . S
H1648 C1662 0.930 . S
H1649 C1664 0.960 . S
H1650 C1664 0.960 . S
H1651 C1664 0.960 . S
C1652 H1644 0.929 . S
C1652 C1653 1.377 . S
C1652 C1654 1.384 . S
C1653 C1652 1.377 . S
C1653 C1659 1.390 . S
C1654 H1645 0.930 . S
C1654 C1652 1.384 . S
C1654 C1655 1.372 . S
C1655 C1654 1.372 . S
C1655 C1656 1.400 . S
C1655 C1660 1.490 . S
C1656 H1646 0.930 . S
C1656 C1655 1.400 . S
C1656 C1659 1.386 . S
H1657 C1673 0.930 . S
H1658 C1674 0.931 . S
C1659 H1647 0.929 . S
C1659 C1653 1.390 . S
C1659 C1656 1.386 . S
C1660 C1655 1.490 . S
C1660 C1662 1.395 . S
C1660 C1663 1.403 . S
H1661 C1667 0.930 . S
C1662 H1648 0.930 . S
C1662 C1660 1.395 . S
C1662 C1665 1.403 1_655 S
C1663 C1660 1.403 . S
C1663 C1664 1.524 . S
C1663 C1667 1.400 . S
C1664 H1649 0.960 . S
C1664 H1650 0.960 . S
C1664 H1651 0.960 . S
C1664 C1663 1.524 . S
C1665 C1662 1.403 1_455 S
C1665 C1666 1.392 . S
C1665 C1669 1.495 . S
C1666 C1665 1.392 . S
C1666 C1667 1.385 1_455 S
C1666 C1668 1.478 . S
C1667 H1661 0.930 . S
C1667 C1663 1.400 . S
C1667 C1666 1.385 1_655 S
C1668 C1666 1.478 . S
C1668 C1670 1.381 . S
C1668 C1674 1.383 . S
C1669 C1665 1.495 . S
C1669 H1675 0.959 . S
C1669 H1676 0.961 . S
C1669 H1677 0.960 . S
C1670 C1668 1.381 . S
C1670 C1671 1.394 . S
C1670 H1678 0.930 . S
C1671 C1670 1.394 . S
C1671 C1672 1.383 . S
C1671 H1679 0.929 . S
C1672 C1671 1.383 . S
C1672 C1673 1.377 . S
C1673 H1657 0.930 . S
C1673 C1672 1.377 . S
C1673 C1674 1.379 . S
C1674 H1658 0.931 . S
C1674 C1668 1.383 . S
C1674 C1673 1.379 . S
H1675 C1669 0.959 . S
H1676 C1669 0.961 . S
H1677 C1669 0.960 . S
H1678 C1670 0.930 . S
H1679 C1671 0.929 . S
C393 C4 1.177 . S
C412 C356 1.144 . S
C429 C292 1.177 1_565 S
C448 C36 1.143 . S
C465 C93 1.189 1_554 S
C484 C260 1.199 . S
C501 C100 1.177 . S
C520 C324 1.152 1_545 S
C537 C132 1.185 . S
C556 C349 1.199 . S
C573 C189 1.178 . S
C592 C381 1.160 . S
C609 C317 1.181 . S
C628 C196 1.177 1_556 S
C645 C253 1.175 . S
C664 C285 1.142 . S
C681 C125 1.188 . S
C700 C157 1.211 . S
C717 C29 1.176 . S
C736 C164 1.138 1_455 S
C753 C61 1.175 1_655 S
C772 C221 1.141 . S
C789 C228 1.176 . S
C808 C68 1.150 . S
C825 N18 1.139 . S
C844 C262 1.139 . S
C861 N50 1.143 . S
C880 C326 1.140 . S
C897 C358 1.143 . S
C916 N77 1.129 . S
C933 N114 1.142 . S
C952 C294 1.144 . S
C969 N146 1.142 . S
C988 C290 1.143 . S
C1005 C258 1.143 . S
C1024 N173 1.128 . S
C1041 C322 1.143 . S
C1060 N210 1.129 . S
C1077 C354 1.143 . S
C1096 N237 1.132 . S
C1113 C2 1.144 . S
C1132 N109 1.143 . S
C1149 N13 1.143 . S
C1168 C34 1.139 . S
C1185 N45 1.143 . S
C1204 C70 1.140 . S
C1221 C98 1.144 . S
C1240 N82 1.141 . S
C1257 N178 1.143 . S
C1276 C130 1.141 . S
C1293 C166 1.143 . S
C1312 N205 1.144 . S
C1329 C194 1.144 . S
C1348 N242 1.134 . S
C1365 N141 1.140 . S
C1384 C230 1.145 . S
C1401 N269 1.139 . S
C1420 C102 1.144 . S
C1437 C162 1.143 . S
C1456 N306 1.129 . S
C1473 N274 1.143 . S
C1492 C198 1.141 . S
C1509 N338 1.142 . S
C1528 C226 1.143 . S
C1545 C134 1.143 . S
C1564 N370 1.143 . S
C1581 N365 1.141 . S
C1600 C38 1.138 . S
C1617 C66 1.144 . S
C1636 N301 1.140 . S
C1653 N333 1.143 . S
C1672 C6 1.141 . S
