# Generated by pormake.
# Topology zfp, (5)-cn, num edge types: 1
# Building blocks:
#     Node 0, Type 0, BuildingBlock: XOMCOT_clean_sbu_1, # of connection points: 5
#     Node 1, Type 0, BuildingBlock: XOMCOT_clean_sbu_1, # of connection points: 5
#     Node 2, Type 0, BuildingBlock: XOMCOT_clean_sbu_1, # of connection points: 5
#     Node 3, Type 0, BuildingBlock: XOMCOT_clean_sbu_1, # of connection points: 5
#     Node 4, Type 0, BuildingBlock: XOMCOT_clean_sbu_1, # of connection points: 5
#     Node 5, Type 0, BuildingBlock: XOMCOT_clean_sbu_1, # of connection points: 5
#     Node 6, Type 0, BuildingBlock: XOMCOT_clean_sbu_1, # of connection points: 5
#     Node 7, Type 0, BuildingBlock: XOMCOT_clean_sbu_1, # of connection points: 5
#     Node 8, Type 0, BuildingBlock: XOMCOT_clean_sbu_1, # of connection points: 5
#     Node 9, Type 0, BuildingBlock: XOMCOT_clean_sbu_1, # of connection points: 5
#     Node 10, Type 0, BuildingBlock: XOMCOT_clean_sbu_1, # of connection points: 5
#     Node 11, Type 0, BuildingBlock: XOMCOT_clean_sbu_1, # of connection points: 5
#     Node 12, Type 0, BuildingBlock: XOMCOT_clean_sbu_1, # of connection points: 5
#     Node 13, Type 0, BuildingBlock: XOMCOT_clean_sbu_1, # of connection points: 5
#     Node 14, Type 0, BuildingBlock: XOMCOT_clean_sbu_1, # of connection points: 5
#     Node 15, Type 0, BuildingBlock: XOMCOT_clean_sbu_1, # of connection points: 5
#     Edge 16, Type (0, 0), None
#     Edge 17, Type (0, 0), None
#     Edge 18, Type (0, 0), None
#     Edge 19, Type (0, 0), None
#     Edge 20, Type (0, 0), None
#     Edge 21, Type (0, 0), None
#     Edge 22, Type (0, 0), None
#     Edge 23, Type (0, 0), None
#     Edge 24, Type (0, 0), None
#     Edge 25, Type (0, 0), None
#     Edge 26, Type (0, 0), None
#     Edge 27, Type (0, 0), None
#     Edge 28, Type (0, 0), None
#     Edge 29, Type (0, 0), None
#     Edge 30, Type (0, 0), None
#     Edge 31, Type (0, 0), None
#     Edge 32, Type (0, 0), None
#     Edge 33, Type (0, 0), None
#     Edge 34, Type (0, 0), None
#     Edge 35, Type (0, 0), None
#     Edge 36, Type (0, 0), None
#     Edge 37, Type (0, 0), None
#     Edge 38, Type (0, 0), None
#     Edge 39, Type (0, 0), None
#     Edge 40, Type (0, 0), None
#     Edge 41, Type (0, 0), None
#     Edge 42, Type (0, 0), None
#     Edge 43, Type (0, 0), None
#     Edge 44, Type (0, 0), None
#     Edge 45, Type (0, 0), None
#     Edge 46, Type (0, 0), None
#     Edge 47, Type (0, 0), None
#     Edge 48, Type (0, 0), None
#     Edge 49, Type (0, 0), None
#     Edge 50, Type (0, 0), None
#     Edge 51, Type (0, 0), None
#     Edge 52, Type (0, 0), None
#     Edge 53, Type (0, 0), None
#     Edge 54, Type (0, 0), None
#     Edge 55, Type (0, 0), None
# Relax obj value: 0.331
# Max RMSD: 0.241
# Mean RMSD: 0.241
data_MOF--net-zfp--node1-XOMCOT_clean_sbu_1--edge1-none
_symmetry_space_group_name_H-M    P1
_symmetry_Int_Tables_number       1
_symmetry_cell_setting            triclinic
loop_
_symmetry_equiv_pos_as_xyz
'x, y, z'
_cell_length_a     14.051198
_cell_length_b     14.051667
_cell_length_c     36.700373
_cell_angle_alpha  87.942731
_cell_angle_beta   87.953535
_cell_angle_gamma 90.502961
loop_
_atom_site_label
_atom_site_type_symbol
_atom_site_fract_x
_atom_site_fract_y
_atom_site_fract_z
_atom_type_partial_charge
C0 C 0.32915 0.3595 0.09211 0.0
C1 C 0.31145 0.35332 0.05565 0.0
N2 N 0.24726 0.28322 0.05248 0.0
N3 N 0.27364 0.2961 0.11219 0.0
C4 C 0.22725 0.24825 0.08664 0.0
H5 H 0.38308 0.40505 0.10269 0.0
Co6 Co 0.28047 0.25805 0.16245 0.0
C7 C 0.07403 0.23604 0.15189 0.0
O8 O 0.07487 0.31845 0.1338 0.0
N9 N 0.29265 0.21239 0.21065 0.0
C10 C 0.26768 0.12275 0.26157 0.0
C11 C 0.25185 0.13108 0.22486 0.0
C12 C 0.33521 0.2515 0.23905 0.0
N13 N 0.32012 0.19838 0.27011 0.0
O14 O 0.40809 0.31224 0.16263 0.0
H15 H 0.21046 0.08229 0.20972 0.0
H16 H 0.37155 0.31982 0.23748 0.0
O17 O 0.15197 0.19977 0.1625 0.0
C18 C 0.48304 0.36315 0.16555 0.0
O19 O 0.47736 0.44788 0.1793 0.0
N20 N 0.22047 0.37319 0.17961 0.0
C21 C 0.07502 0.50512 0.18782 0.0
C22 C 0.15197 0.52434 0.16329 0.0
C23 C 0.22599 0.45853 0.16049 0.0
C24 C 0.15304 0.36213 0.20763 0.0
C25 C 0.07984 0.42734 0.21213 0.0
H26 H 0.28371 0.47458 0.14133 0.0
H27 H 0.14636 0.29694 0.2239 0.0
H28 H 0.18321 0.18592 0.09277 0.0
H29 H 0.34561 0.39464 1.03334 0.0
H30 H 0.24161 0.06696 0.28055 0.0
H31 H 0.15329 0.5879 0.14566 0.0
H32 H 0.02362 0.41302 0.23257 0.0
C33 C 0.91219 0.20127 0.59437 0.0
C34 C 0.8961 0.18737 0.55819 0.0
N35 N 0.8097 0.22196 0.55136 0.0
N36 N 0.83512 0.24114 0.61085 0.0
C37 C 0.77564 0.25719 0.58303 0.0
H38 H 0.97631 0.18176 0.60818 0.0
Co39 Co 0.84077 0.26308 0.66167 0.0
C40 C 0.8435 0.05608 0.65584 0.0
O41 O 0.77598 0.06906 0.63237 0.0
N42 N 0.85965 0.28836 0.71049 0.0
C43 C 0.92501 0.2839 0.76497 0.0
C44 C 0.93675 0.2606 0.72896 0.0
C45 C 0.80314 0.33104 0.73543 0.0
N46 N 0.84115 0.32826 0.76856 0.0
O47 O 0.79983 0.39596 0.65333 0.0
H48 H 0.99612 0.22271 0.71723 0.0
H49 H 0.7327 0.35692 0.73031 0.0
O50 O 0.88369 0.12829 0.66979 0.0
C51 C 0.73399 0.45696 0.65938 0.0
O52 O 0.65473 0.43206 0.67734 0.0
N53 N 0.71317 0.21626 0.67448 0.0
C54 C 0.56763 0.08119 0.68033 0.0
C55 C 0.56411 0.15661 0.65439 0.0
C56 C 0.63647 0.22609 0.65289 0.0
C57 C 0.70653 0.15281 0.70393 0.0
C58 C 0.6349 0.08413 0.70709 0.0
H59 H 0.63206 0.28496 0.63368 0.0
H60 H 0.76373 0.14455 0.72259 0.0
H61 H 0.7109 0.29691 0.585 0.0
H62 H 0.94422 0.15533 0.5386 0.0
H63 H 0.97275 0.26788 0.78683 0.0
H64 H 0.50743 0.1606 0.63515 0.0
H65 H 0.63665 0.02936 0.72863 0.0
C66 C 0.89455 0.88927 0.09567 0.0
C67 C 0.89035 0.87464 0.05898 0.0
N68 N 0.82988 0.80175 0.05492 0.0
N69 N 0.84042 0.82334 0.11494 0.0
C70 C 0.79831 0.77373 0.08884 0.0
H71 H 0.93175 0.94776 0.10745 0.0
Co72 Co 0.81245 0.83526 0.16531 0.0
C73 C 1.02091 0.83596 0.16075 0.0
O74 O 1.01391 0.76685 0.13781 0.0
N75 N 0.78096 0.86053 0.2135 0.0
C76 C 0.78311 0.93135 0.26677 0.0
C77 C 0.81554 0.9358 0.23101 0.0
C78 C 0.72558 0.81243 0.23876 0.0
N79 N 0.72657 0.85409 0.27116 0.0
O80 O 0.67984 0.79479 0.1579 0.0
H81 H 0.86339 0.98932 0.21877 0.0
H82 H 0.69025 0.74552 0.23426 0.0
O83 O 0.94577 0.87741 0.1728 0.0
C84 C 0.61611 0.72911 0.16253 0.0
O85 O 0.63568 0.64784 0.17923 0.0
N86 N 0.85431 0.70755 0.17957 0.0
C87 C 0.98984 0.5654 0.18778 0.0
C88 C 0.92526 0.56229 0.15962 0.0
C89 C 0.85566 0.63287 0.15664 0.0
C90 C 0.90731 0.70087 0.21043 0.0
C91 C 0.97558 0.63068 0.2149 0.0
H92 H 0.8089 0.63056 0.13427 0.0
H93 H 0.90928 0.75734 0.22946 0.0
H94 H 0.7408 0.72313 0.09423 0.0
H95 H 0.92563 0.91677 1.03715 0.0
H96 H 0.801 0.97932 0.28797 0.0
H97 H 0.93151 0.50875 0.13917 0.0
H98 H 0.02277 0.63318 0.23759 0.0
C99 C 0.16591 0.89762 0.59872 0.0
C100 C 0.17532 0.89024 0.56165 0.0
N101 N 0.24859 0.83235 0.55493 0.0
N102 N 0.23545 0.84833 0.61557 0.0
C103 C 0.28227 0.80544 0.5878 0.0
H104 H 0.10807 0.93326 0.61267 0.0
Co105 Co 0.22417 0.8283 0.66674 0.0
C106 C 0.23482 0.03633 0.6552 0.0
O107 O 0.30337 1.02068 0.631 0.0
N108 N 0.19592 0.80346 0.71653 0.0
C109 C 0.11955 0.81241 0.77064 0.0
C110 C 0.12378 0.84586 0.73496 0.0
C111 C 0.23318 0.74238 0.74141 0.0
N112 N 0.18792 0.74713 0.77423 0.0
O113 O 0.26263 0.69462 0.66144 0.0
H114 H 0.07828 0.89949 0.72341 0.0
H115 H 0.29414 0.69822 0.73632 0.0
O116 O 0.18904 0.96592 0.67142 0.0
C117 C 0.33017 0.63596 0.668 0.0
O118 O 0.40701 0.66326 0.68419 0.0
N119 N 0.35214 0.86938 0.67679 0.0
C120 C 0.49987 1.00112 0.68066 0.0
C121 C 0.50064 0.93569 0.65274 0.0
C122 C 0.42685 0.86805 0.65187 0.0
C123 C 0.36007 0.92395 0.70696 0.0
C124 C 0.43312 0.99013 0.7093 0.0
H125 H 0.42673 0.82076 0.62959 0.0
H126 H 0.30367 0.9283 0.72739 0.0
H127 H 0.3343 0.75015 0.5916 0.0
H128 H 0.12915 0.92117 0.54155 0.0
H129 H 0.07107 0.83458 0.79223 0.0
H130 H 0.55532 0.93933 0.63115 0.0
H131 H 0.43259 0.03786 0.73188 0.0
C132 C 0.64509 0.37642 0.97682 0.0
C133 C 0.65251 0.36696 1.01389 0.0
N134 N 0.71036 0.29364 1.0206 0.0
N135 N 0.69432 0.30687 0.95996 0.0
C136 C 0.73721 0.25999 0.98772 0.0
H137 H 0.60946 0.43429 0.96287 0.0
Co138 Co 0.71428 0.31819 0.90878 0.0
C139 C 0.50626 0.30765 0.92035 0.0
O140 O 0.52191 0.23906 0.94454 0.0
N141 N 0.73906 0.34646 0.85899 0.0
C142 C 0.73008 0.4229 0.8049 0.0
C143 C 0.69669 0.41866 0.84058 0.0
C144 C 0.80005 0.30915 0.83411 0.0
N145 N 0.79523 0.35441 0.80128 0.0
O146 O 0.84794 0.27971 0.91407 0.0
H147 H 0.64316 0.46423 0.85214 0.0
H148 H 0.8442 0.24819 0.83919 0.0
O149 O 0.57668 0.35339 0.90413 0.0
C150 C 0.90663 0.21219 0.90752 0.0
O151 O 0.87936 0.13534 0.89134 0.0
N152 N 0.67313 0.19025 0.89874 0.0
C153 C 0.54134 0.04255 0.89488 0.0
C154 C 0.60684 0.04173 0.92278 0.0
C155 C 0.67449 0.1155 0.92365 0.0
C156 C 0.61849 0.18237 0.86858 0.0
C157 C 0.55229 0.10935 0.86624 0.0
H158 H 0.72183 0.11558 0.94591 0.0
H159 H 0.6141 0.23881 0.84816 0.0
H160 H 0.79247 0.20793 0.98391 0.0
H161 H 0.62162 0.41311 1.034 0.0
H162 H 0.70798 0.47147 0.78332 0.0
H163 H 0.60323 0.98701 0.94436 0.0
H164 H 0.50452 0.10991 0.84367 0.0
C165 C 0.65329 0.64777 0.47985 0.0
C166 C 0.66788 0.65201 0.51655 0.0
N167 N 0.74076 0.71249 0.52061 0.0
N168 N 0.71923 0.70189 0.46058 0.0
C169 C 0.76882 0.74404 0.48669 0.0
H170 H 0.59481 0.61057 0.46807 0.0
Co171 Co 0.70733 0.72987 0.41021 0.0
C172 C 0.70662 0.52141 0.41478 0.0
O173 O 0.77572 0.52838 0.43773 0.0
N174 N 0.68205 0.76138 0.36203 0.0
C175 C 0.61111 0.75929 0.30877 0.0
C176 C 0.60672 0.72686 0.34453 0.0
C177 C 0.73016 0.81672 0.33675 0.0
N178 N 0.68845 0.81569 0.30435 0.0
O179 O 0.74776 0.86247 0.41762 0.0
H180 H 0.55316 0.6791 0.35679 0.0
H181 H 0.79706 0.85207 0.34124 0.0
O182 O 0.66518 0.59656 0.40272 0.0
C183 C 0.81343 0.92622 0.413 0.0
O184 O 0.89471 0.90667 0.3963 0.0
N185 N 0.83505 0.68801 0.39597 0.0
C186 C 0.97718 0.55244 0.38776 0.0
C187 C 0.98029 0.617 0.41593 0.0
C188 C 0.90972 0.68662 0.41891 0.0
C189 C 0.84172 0.63503 0.36511 0.0
C190 C 0.9119 0.56674 0.36064 0.0
H191 H 0.91202 0.73334 0.44129 0.0
H192 H 0.78525 0.63308 0.34607 0.0
H193 H 0.81942 0.80154 0.48129 0.0
H194 H 0.62572 0.61676 0.53837 0.0
H195 H 0.56301 0.74151 0.28759 0.0
H196 H 0.03383 0.61072 0.43638 0.0
H197 H 0.90941 0.51959 0.33795 0.0
C198 C 0.34109 0.63023 0.98119 0.0
C199 C 0.35495 0.64633 1.01737 0.0
N200 N 0.32038 0.73274 1.02418 0.0
N201 N 0.30125 0.7073 0.96468 0.0
C202 C 0.28519 0.7668 0.9925 0.0
H203 H 0.36059 0.5661 0.96739 0.0
Co204 Co 0.27933 0.70166 0.91387 0.0
C205 C 0.48632 0.69884 0.91973 0.0
O206 O 0.47337 0.76636 0.94318 0.0
N207 N 0.25406 0.68281 0.86504 0.0
C208 C 0.25845 0.6174 0.81057 0.0
C209 C 0.28172 0.60565 0.84659 0.0
C210 C 0.21148 0.73936 0.84008 0.0
N211 N 0.21429 0.70136 0.80696 0.0
O212 O 0.14646 0.74263 0.92219 0.0
H213 H 0.31947 0.54621 0.85834 0.0
H214 H 0.18563 0.80982 0.84519 0.0
O215 O 0.4141 0.6587 0.90577 0.0
C216 C 0.08545 0.80846 0.91612 0.0
O217 O 0.11032 0.88771 0.89815 0.0
N218 N 0.3262 0.82925 0.90106 0.0
C219 C 0.46128 0.97478 0.89521 0.0
C220 C 0.38584 0.97832 0.92113 0.0
C221 C 0.31635 0.90596 0.92263 0.0
C222 C 0.38968 0.83587 0.87161 0.0
C223 C 0.45837 0.90749 0.86846 0.0
H224 H 0.25746 0.91039 0.94182 0.0
H225 H 0.39795 0.77866 0.85297 0.0
H226 H 0.24549 0.83154 0.99051 0.0
H227 H 0.38696 0.59821 1.03697 0.0
H228 H 0.27434 0.56958 0.78874 0.0
H229 H 0.38183 0.03502 0.94035 0.0
H230 H 0.51315 0.90573 0.84693 0.0
C231 C 0.18355 0.21335 0.48338 0.0
C232 C 0.18965 0.23102 0.51984 0.0
N233 N 0.25965 0.2953 0.52304 0.0
N234 N 0.24688 0.26899 0.46331 0.0
C235 C 0.29465 0.31539 0.48888 0.0
H236 H 0.13809 0.15937 0.47278 0.0
Co237 Co 0.28494 0.26225 0.41305 0.0
C238 C 0.30636 0.46864 0.42364 0.0
O239 O 0.22403 0.46741 0.44178 0.0
N240 N 0.33058 0.25016 0.36485 0.0
C241 C 0.42016 0.27533 0.31393 0.0
C242 C 0.41184 0.29106 0.35064 0.0
C243 C 0.29148 0.20762 0.33644 0.0
N244 N 0.34454 0.22291 0.30538 0.0
O245 O 0.23123 0.13451 0.41291 0.0
H246 H 0.46059 0.33245 0.36581 0.0
H247 H 0.22322 0.17119 0.33801 0.0
O248 O 0.34287 0.39089 0.41298 0.0
C249 C 0.18001 0.05984 0.40989 0.0
O250 O 0.0954 0.06595 0.39605 0.0
N251 N 0.16959 0.32195 0.39588 0.0
C252 C 0.0375 0.46729 0.38771 0.0
C253 C 1.0184 0.39031 0.41224 0.0
C254 C 0.08428 0.31635 0.41502 0.0
C255 C 0.18052 0.3894 0.36786 0.0
C256 C 0.11523 0.46254 0.36338 0.0
H257 H 0.06832 0.25861 0.43418 0.0
H258 H 0.24568 0.39618 0.35158 0.0
H259 H 0.35691 0.35955 0.48277 0.0
H260 H 0.14834 0.19678 0.54213 0.0
H261 H 0.47593 0.30147 0.29496 0.0
H262 H 0.95487 0.38893 0.42988 0.0
H263 H 0.12946 0.51877 0.34293 0.0
C264 C 0.72521 0.6872 0.981 0.0
C265 C 0.73816 0.69478 1.01766 0.0
N266 N 0.80061 0.76591 1.02166 0.0
N267 N 0.7824 0.75048 0.96155 0.0
C268 C 0.82469 0.79995 0.98768 0.0
H269 H 0.67113 0.6427 0.97 0.0
Co270 Co 0.77701 0.79133 0.91163 0.0
C271 C 0.98409 0.78725 0.92558 0.0
O272 O 0.96559 0.7075 0.9443 0.0
N273 N 0.76227 0.83973 0.86347 0.0
C274 C 0.77741 0.92555 0.81121 0.0
C275 C 0.80074 0.91999 0.84752 0.0
C276 C 0.71354 0.79923 0.8367 0.0
N277 N 0.72207 0.84974 0.80488 0.0
O278 O 0.64537 0.7494 0.91311 0.0
H279 H 0.84613 0.96906 0.86102 0.0
H280 H 0.67832 0.73074 0.83959 0.0
O281 O 0.91525 0.83482 0.91144 0.0
C282 C 0.58403 0.68598 0.90566 0.0
O283 O 0.60844 0.61052 0.88772 0.0
N284 N 0.82478 0.67425 0.89275 0.0
C285 C 0.96689 0.54225 0.88346 0.0
C286 C 0.89013 0.522 0.90786 0.0
C287 C 0.81723 0.58813 0.91114 0.0
C288 C 0.89134 0.68538 0.86439 0.0
C289 C 0.96317 0.61994 0.85934 0.0
H290 H 0.76027 0.57229 0.93057 0.0
H291 H 0.90055 0.75134 0.84881 0.0
H292 H 0.86848 0.8627 0.98189 0.0
H293 H 0.70071 0.65468 0.03952 0.0
H294 H 0.80104 0.97931 0.79094 0.0
H295 H 0.88924 0.45871 0.92557 0.0
H296 H 1.02015 0.63486 0.8392 0.0
C297 C 0.35134 0.72249 0.47738 0.0
C298 C 0.35013 0.74019 0.51385 0.0
N299 N 0.27864 0.80012 0.52047 0.0
N300 N 0.28321 0.77379 0.46032 0.0
C301 C 0.23798 0.81814 0.48811 0.0
H302 H 0.39618 0.66966 0.46517 0.0
Co303 Co 0.2398 0.75908 0.41193 0.0
C304 C 0.21946 0.96673 0.42087 0.0
O305 O 0.30323 0.96587 0.43565 0.0
N306 N 0.19345 0.73634 0.36563 0.0
C307 C 0.11289 0.74348 0.31441 0.0
C308 C 0.11187 0.76638 0.35076 0.0
C309 C 0.24128 0.69263 0.33835 0.0
N310 N 0.19399 0.69652 0.30714 0.0
O311 O 0.29325 0.63393 0.41284 0.0
H312 H 0.05763 0.80665 0.36486 0.0
H313 H 0.31265 0.66525 0.34048 0.0
O314 O 0.18098 0.88825 0.41159 0.0
C315 C 0.34502 0.56063 0.40969 0.0
O316 O 0.42869 0.56685 0.39269 0.0
N317 N 0.35163 0.81829 0.38867 0.0
C318 C 0.48396 0.96171 0.37159 0.0
C319 C 0.50623 0.88619 0.39549 0.0
C320 C 0.44012 0.81279 0.40264 0.0
C321 C 0.33611 0.88433 0.36091 0.0
C322 C 0.40111 0.95752 0.35228 0.0
H323 H 0.45896 0.75581 0.42101 0.0
H324 H 0.26788 0.89009 0.34853 0.0
H325 H 0.17372 0.8589 0.48495 0.0
H326 H 0.39523 0.7079 0.53403 0.0
H327 H 0.06027 0.76256 0.29465 0.0
H328 H 0.57157 0.88674 0.41012 0.0
H329 H 0.38306 1.0143 0.33307 0.0
C330 C 0.13717 0.16544 0.9804 0.0
C331 C 0.14678 0.1799 1.01688 0.0
N332 N 0.21119 0.24997 1.0198 0.0
N333 N 0.19188 0.2288 0.96009 0.0
C334 C 0.23941 0.27681 0.98536 0.0
H335 H 0.0963 0.10825 0.96943 0.0
Co336 Co 0.2164 0.21257 0.90958 0.0
C337 C 1.0064 0.22482 0.9178 0.0
O338 O 0.02306 0.29505 0.93937 0.0
N339 N 0.24814 0.18356 0.86098 0.0
C340 C 0.25397 0.11327 0.80744 0.0
C341 C 0.21658 0.10818 0.84282 0.0
C342 C 0.3069 0.23159 0.83656 0.0
N343 N 0.31123 0.19051 0.80408 0.0
O344 O 0.34935 0.24957 0.91583 0.0
H345 H 0.16734 0.05459 0.85426 0.0
H346 H 0.34022 0.29902 0.84129 0.0
O347 O 0.07678 0.17742 0.90393 0.0
C348 C 0.40795 0.31908 0.90914 0.0
O349 O 0.38203 0.39747 0.89196 0.0
N350 N 0.18047 0.33917 0.89419 0.0
C351 C 0.05155 0.48364 0.88369 0.0
C352 C 0.11542 0.4881 0.91196 0.0
C353 C 0.18187 0.41562 0.91619 0.0
C354 C 0.12822 0.3444 0.86314 0.0
C355 C 0.06349 0.41633 0.8574 0.0
H356 H 0.22716 0.41749 0.93903 0.0
H357 H 0.12294 0.28591 0.84517 0.0
H358 H 0.29853 0.32487 0.97893 0.0
H359 H 0.11259 0.13907 0.03931 0.0
H360 H 0.23869 0.06574 0.78578 0.0
H361 H 0.10965 0.54298 0.93189 0.0
H362 H 1.01589 0.413 0.83485 0.0
C363 C 0.67293 0.26987 0.47354 0.0
C364 C 0.68355 0.26935 0.51044 0.0
N365 N 0.76391 0.22299 0.51768 0.0
N366 N 0.74382 0.22003 0.45707 0.0
C367 C 0.7994 0.19392 0.48517 0.0
H368 H 0.62528 0.31819 0.4602 0.0
Co369 Co 0.79177 0.233 0.40797 0.0
C370 C 0.79089 0.02489 0.42318 0.0
O371 O 0.70961 0.03793 0.44098 0.0
N372 N 0.84695 0.25616 0.36093 0.0
C373 C 0.94343 0.25636 0.3113 0.0
C374 C 0.93087 0.22432 0.34722 0.0
C375 C 0.81103 0.30947 0.33327 0.0
N376 N 0.86834 0.31066 0.30312 0.0
O377 O 0.74816 0.36225 0.40792 0.0
H378 H 0.97869 0.179 0.36212 0.0
H379 H 0.74191 0.34232 0.33437 0.0
O380 O 0.83836 0.09754 0.40957 0.0
C381 C 0.69001 0.428 0.39969 0.0
O382 O 0.61751 0.41201 0.37917 0.0
N383 N 0.6782 0.18357 0.38642 0.0
C384 C 0.54189 0.04859 0.37054 0.0
C385 C 0.51874 0.12181 0.3939 0.0
C386 C 0.58734 0.19098 0.4005 0.0
C387 C 0.69513 0.12043 0.35913 0.0
C388 C 0.62796 0.0522 0.35094 0.0
H389 H 0.56719 0.24614 0.41828 0.0
H390 H 0.76501 0.1123 0.34665 0.0
H391 H 0.86913 0.16308 0.48125 0.0
H392 H 0.64137 0.30949 0.52963 0.0
H393 H 1.0019 0.24019 0.29259 0.0
H394 H 0.45038 0.12241 0.40853 0.0
H395 H 0.6465 0.99768 0.33195 0.0
C396 C 0.2724 0.86953 0.10197 0.0
C397 C 0.27293 0.85889 0.06507 0.0
N398 N 0.31932 0.77854 0.05785 0.0
N399 N 0.32225 0.79866 0.11846 0.0
C400 C 0.34838 0.74307 0.09037 0.0
H401 H 0.22407 0.91718 0.1153 0.0
Co402 Co 0.3093 0.75074 0.16756 0.0
C403 C 0.51742 0.75164 0.15236 0.0
O404 O 0.50435 0.83292 0.13455 0.0
N405 N 0.28616 0.69559 0.21462 0.0
C406 C 0.28586 0.59905 0.26424 0.0
C407 C 0.31789 0.6116 0.22831 0.0
C408 C 0.23292 0.73157 0.24228 0.0
N409 N 0.23176 0.67427 0.27243 0.0
O410 O 0.18006 0.79436 0.16761 0.0
H411 H 0.36305 0.56369 0.2134 0.0
H412 H 0.20009 0.80069 0.24117 0.0
O413 O 0.44478 0.70416 0.16597 0.0
C414 C 0.11436 0.85257 0.17583 0.0
O415 O 0.13043 0.92515 0.19629 0.0
N416 N 0.35874 0.8643 0.1891 0.0
C417 C 0.49363 1.00067 0.20501 0.0
C418 C 0.42046 0.02377 0.18162 0.0
C419 C 0.35132 0.95516 0.17501 0.0
C420 C 0.42185 0.84739 0.2164 0.0
C421 C 0.49003 0.91459 0.22462 0.0
H422 H 0.2962 0.97529 0.1572 0.0
H423 H 0.43001 0.77751 0.22888 0.0
H424 H 0.37925 0.67336 0.0943 0.0
H425 H 0.23279 0.90105 0.04587 0.0
H426 H 0.30186 0.54049 0.28293 0.0
H427 H 0.41987 0.09211 0.16698 0.0
H428 H 0.54454 0.89606 0.24362 0.0
C429 C 0.37717 0.40542 0.59517 0.0
C430 C 0.36283 0.39581 0.55867 0.0
N431 N 0.29278 0.33139 0.55573 0.0
N432 N 0.31377 0.35071 0.61545 0.0
C433 C 0.26584 0.30318 0.59016 0.0
H434 H 0.43433 0.44629 0.60616 0.0
Co435 Co 0.32994 0.32618 0.66597 0.0
C436 C 0.3176 0.53618 0.65772 0.0
O437 O 0.2474 0.51949 0.63614 0.0
N438 N 0.35891 0.29445 0.71457 0.0
C439 C 0.42933 0.28858 0.76809 0.0
C440 C 0.43439 0.32592 0.73271 0.0
C441 C 0.31084 0.23577 0.73902 0.0
N442 N 0.35195 0.23151 0.7715 0.0
O443 O 0.29296 0.19322 0.65972 0.0
H444 H 0.48805 0.37502 0.72123 0.0
H445 H 0.24341 0.20245 0.7343 0.0
O446 O 0.36502 0.46582 0.67162 0.0
C447 C 0.22344 0.13463 0.66642 0.0
O448 O 0.14507 0.16057 0.68361 0.0
N449 N 0.20332 0.36208 0.68132 0.0
C450 C 0.05877 0.4909 0.69181 0.0
C451 C 0.05436 0.42706 0.66353 0.0
C452 C 0.12689 0.36066 0.65931 0.0
C453 C 0.19806 0.4143 0.71238 0.0
C454 C 0.12607 0.47897 0.71811 0.0
H455 H 0.12507 0.31539 0.63646 0.0
H456 H 0.25654 0.41963 0.73035 0.0
H457 H 0.21777 0.24405 0.59658 0.0
H458 H 0.40372 0.43 0.53627 0.0
H459 H 0.477 0.30372 0.78973 0.0
H460 H 0.99949 0.43282 0.6436 0.0
H461 H 0.12937 0.52655 0.74067 0.0
C462 C 0.82011 0.19066 0.09815 0.0
C463 C 0.80241 0.19193 0.06167 0.0
N464 N 0.74259 0.26351 0.05505 0.0
N465 N 0.76892 0.25886 0.1152 0.0
C466 C 0.72463 0.30418 0.08741 0.0
H467 H 0.87285 0.14572 0.11037 0.0
Co468 Co 0.78365 0.30228 0.16358 0.0
C469 C 0.57598 0.32327 0.15459 0.0
O470 O 0.5765 0.23943 0.13986 0.0
N471 N 0.80637 0.34864 0.20988 0.0
C472 C 0.79926 0.4294 0.26104 0.0
C473 C 0.77649 0.43036 0.22468 0.0
C474 C 0.84986 0.30077 0.2372 0.0
N475 N 0.84588 0.34814 0.26839 0.0
O476 O 0.9086 0.24824 0.1628 0.0
H477 H 0.73646 0.48468 0.21052 0.0
H478 H 0.87717 0.22936 0.23512 0.0
O479 O 0.65463 0.36151 0.16383 0.0
C480 C 0.98223 0.19688 0.16584 0.0
O481 O 0.9765 0.11308 0.18278 0.0
N482 N 0.72406 0.1907 0.18684 0.0
C483 C 0.58053 0.05855 0.20395 0.0
C484 C 0.65604 0.03615 0.18008 0.0
C485 C 0.7295 0.10217 0.17291 0.0
C486 C 0.65799 0.20638 0.21457 0.0
C487 C 0.58475 0.14146 0.22321 0.0
H488 H 0.7865 0.08325 0.15456 0.0
H489 H 0.65231 0.27465 0.22692 0.0
H490 H 0.68398 0.3685 0.09056 0.0
H491 H 0.83462 0.14678 0.0415 0.0
H492 H 0.78037 0.48218 0.28075 0.0
H493 H 0.65544 0.97079 0.16548 0.0
H494 H 0.52798 0.15959 0.24241 0.0
C495 C 0.85514 0.81729 0.59454 0.0
C496 C 0.84761 0.80433 0.55787 0.0
N497 N 0.77653 0.74182 0.55387 0.0
N498 N 0.79189 0.76007 0.61398 0.0
C499 C 0.74247 0.71774 0.58785 0.0
H500 H 0.89961 0.8714 0.60554 0.0
Co501 Co 0.75104 0.76539 0.6639 0.0
C502 C 0.75518 0.55832 0.64994 0.0
O503 O 0.83493 0.57686 0.63122 0.0
N504 N 0.70264 0.78006 0.71206 0.0
C505 C 0.61676 0.76484 0.7643 0.0
C506 C 0.62234 0.74158 0.72798 0.0
C507 C 0.74313 0.82872 0.73885 0.0
N508 N 0.69263 0.82006 0.77067 0.0
O509 O 0.79294 0.89704 0.66244 0.0
H510 H 0.57326 0.69628 0.71446 0.0
H511 H 0.8116 0.864 0.73597 0.0
O512 O 0.70759 0.62714 0.66408 0.0
C513 C 0.85635 0.95837 0.6699 0.0
O514 O 0.93181 0.93393 0.68785 0.0
N515 N 0.86812 0.71764 0.68278 0.0
C516 C 1.00014 0.57553 0.69205 0.0
C517 C 1.02037 0.65232 0.66765 0.0
C518 C 0.95424 0.72523 0.66438 0.0
C519 C 0.85702 0.65105 0.71113 0.0
C520 C 0.92247 0.57922 0.71617 0.0
H521 H 0.97007 0.78221 0.64497 0.0
H522 H 0.79107 0.64181 0.72671 0.0
H523 H 0.67975 0.67391 0.59363 0.0
H524 H 0.88771 0.84179 0.53602 0.0
H525 H 0.56293 0.74127 0.78455 0.0
H526 H 0.08365 0.65324 0.64994 0.0
H527 H 0.90758 0.52223 0.73631 0.0
loop_
_geom_bond_atom_site_label_1
_geom_bond_atom_site_label_2
_geom_bond_distance
_geom_bond_site_symmetry_2
_ccdc_geom_bond_type
C0 C1 1.351 . S
C0 N3 1.368 . S
C0 H5 0.931 . S
C1 C0 1.351 . S
C1 N2 1.373 . S
C1 H29 0.930 . S
N2 C1 1.373 . S
N2 C4 1.340 . S
N3 C0 1.368 . S
N3 C4 1.321 . S
N3 Co6 2.135 . S
C4 N2 1.340 . S
C4 N3 1.321 . S
C4 H28 0.930 . S
H5 C0 0.931 . S
Co6 N3 2.135 . S
Co6 N9 2.121 . S
Co6 O14 2.055 . S
Co6 O17 2.039 . S
Co6 N20 2.140 . S
C7 O8 1.227 . S
C7 O17 1.265 1_655 S
O8 C7 1.227 . S
N9 Co6 2.121 . S
N9 C11 1.375 . S
N9 C12 1.313 . S
C10 C11 1.338 . S
C10 N13 1.377 . S
C10 H30 0.930 . S
C11 N9 1.375 . S
C11 C10 1.338 . S
C11 H15 0.931 1_455 S
C12 N9 1.313 . S
C12 N13 1.344 . S
C12 H16 0.930 . S
N13 C10 1.377 . S
N13 C12 1.344 . S
O14 Co6 2.055 . S
O14 C18 1.253 . S
H15 C11 0.931 1_655 S
H16 C12 0.930 . S
O17 Co6 2.039 . S
O17 C7 1.265 1_455 S
C18 O14 1.253 . S
C18 O19 1.227 . S
O19 C18 1.227 . S
N20 Co6 2.140 . S
N20 C23 1.346 . S
N20 C24 1.345 . S
C21 C22 1.387 . S
C21 C25 1.391 . S
C22 C21 1.387 . S
C22 C23 1.369 . S
C22 H31 0.929 1_455 S
C23 N20 1.346 . S
C23 C22 1.369 . S
C23 H26 0.928 . S
C24 N20 1.345 . S
C24 C25 1.371 . S
C24 H27 0.931 . S
C25 C21 1.391 . S
C25 C24 1.371 . S
C25 H32 0.930 . S
H26 C23 0.928 . S
H27 C24 0.931 . S
H28 C4 0.930 . S
H29 C1 0.930 . S
H30 C10 0.930 . S
H31 C22 0.929 1_655 S
H32 C25 0.930 . S
C33 C34 1.351 . S
C33 N36 1.368 . S
C33 H38 0.931 . S
C34 C33 1.351 . S
C34 N35 1.373 . S
C34 H62 0.930 . S
N35 C34 1.373 . S
N35 C37 1.340 . S
N36 C33 1.368 . S
N36 C37 1.321 . S
N36 Co39 2.135 . S
C37 N35 1.340 . S
C37 N36 1.321 . S
C37 H61 0.930 . S
H38 C33 0.931 . S
Co39 N36 2.135 . S
Co39 N42 2.121 . S
Co39 O47 2.055 . S
Co39 O50 2.039 . S
Co39 N53 2.140 . S
C40 O41 1.227 . S
C40 O50 1.265 1_565 S
O41 C40 1.227 . S
N42 Co39 2.121 . S
N42 C44 1.375 . S
N42 C45 1.313 . S
C43 C44 1.338 . S
C43 N46 1.377 . S
C43 H63 0.930 . S
C44 N42 1.375 . S
C44 C43 1.338 . S
C44 H48 0.931 1_545 S
C45 N42 1.313 . S
C45 N46 1.344 . S
C45 H49 0.930 . S
N46 C43 1.377 . S
N46 C45 1.344 . S
O47 Co39 2.055 . S
O47 C51 1.253 . S
H48 C44 0.931 1_565 S
H49 C45 0.930 . S
O50 Co39 2.039 . S
O50 C40 1.265 1_545 S
C51 O47 1.253 . S
C51 O52 1.227 . S
O52 C51 1.227 . S
N53 Co39 2.140 . S
N53 C56 1.346 . S
N53 C57 1.345 . S
C54 C55 1.387 . S
C54 C58 1.391 . S
C55 C54 1.387 . S
C55 C56 1.369 . S
C55 H64 0.929 1_545 S
C56 N53 1.346 . S
C56 C55 1.369 . S
C56 H59 0.928 . S
C57 N53 1.345 . S
C57 C58 1.371 . S
C57 H60 0.931 . S
C58 C54 1.391 . S
C58 C57 1.371 . S
C58 H65 0.930 . S
H59 C56 0.928 . S
H60 C57 0.931 . S
H61 C37 0.930 . S
H62 C34 0.930 . S
H63 C43 0.930 . S
H64 C55 0.929 1_565 S
H65 C58 0.930 . S
C66 C67 1.351 . S
C66 N69 1.368 . S
C66 H71 0.931 . S
C67 C66 1.351 . S
C67 N68 1.373 . S
C67 H95 0.930 . S
N68 C67 1.373 . S
N68 C70 1.340 . S
N69 C66 1.368 . S
N69 C70 1.321 . S
N69 Co72 2.135 . S
C70 N68 1.340 . S
C70 N69 1.321 . S
C70 H94 0.930 . S
H71 C66 0.931 . S
Co72 N69 2.135 . S
Co72 N75 2.121 . S
Co72 O80 2.055 . S
Co72 O83 2.039 . S
Co72 N86 2.140 . S
C73 O74 1.227 . S
C73 O83 1.265 1_455 S
O74 C73 1.227 . S
N75 Co72 2.121 . S
N75 C77 1.375 . S
N75 C78 1.313 . S
C76 C77 1.338 . S
C76 N79 1.377 . S
C76 H96 0.930 . S
C77 N75 1.375 . S
C77 C76 1.338 . S
C77 H81 0.931 1_655 S
C78 N75 1.313 . S
C78 N79 1.344 . S
C78 H82 0.930 . S
N79 C76 1.377 . S
N79 C78 1.344 . S
O80 Co72 2.055 . S
O80 C84 1.253 . S
H81 C77 0.931 1_455 S
H82 C78 0.930 . S
O83 Co72 2.039 . S
O83 C73 1.265 1_655 S
C84 O80 1.253 . S
C84 O85 1.227 . S
O85 C84 1.227 . S
N86 Co72 2.140 . S
N86 C89 1.346 . S
N86 C90 1.345 . S
C87 C88 1.387 . S
C87 C91 1.391 . S
C88 C87 1.387 . S
C88 C89 1.369 . S
C88 H97 0.929 1_655 S
C89 N86 1.346 . S
C89 C88 1.369 . S
C89 H92 0.928 . S
C90 N86 1.345 . S
C90 C91 1.371 . S
C90 H93 0.931 . S
C91 C87 1.391 . S
C91 C90 1.371 . S
C91 H98 0.930 . S
H92 C89 0.928 . S
H93 C90 0.931 . S
H94 C70 0.930 . S
H95 C67 0.930 . S
H96 C76 0.930 . S
H97 C88 0.929 1_455 S
H98 C91 0.930 . S
C99 C100 1.351 . S
C99 N102 1.368 . S
C99 H104 0.931 . S
C100 C99 1.351 . S
C100 N101 1.373 . S
C100 H128 0.930 . S
N101 C100 1.373 . S
N101 C103 1.340 . S
N102 C99 1.368 . S
N102 C103 1.321 . S
N102 Co105 2.135 . S
C103 N101 1.340 . S
C103 N102 1.321 . S
C103 H127 0.930 . S
H104 C99 0.931 . S
Co105 N102 2.135 . S
Co105 N108 2.121 . S
Co105 O113 2.055 . S
Co105 O116 2.039 . S
Co105 N119 2.140 . S
C106 O107 1.227 . S
C106 O116 1.265 1_545 S
O107 C106 1.227 . S
N108 Co105 2.121 . S
N108 C110 1.375 . S
N108 C111 1.313 . S
C109 C110 1.338 . S
C109 N112 1.377 . S
C109 H129 0.930 . S
C110 N108 1.375 . S
C110 C109 1.338 . S
C110 H114 0.931 1_565 S
C111 N108 1.313 . S
C111 N112 1.344 . S
C111 H115 0.930 . S
N112 C109 1.377 . S
N112 C111 1.344 . S
O113 Co105 2.055 . S
O113 C117 1.253 . S
H114 C110 0.931 1_545 S
H115 C111 0.930 . S
O116 Co105 2.039 . S
O116 C106 1.265 1_565 S
C117 O113 1.253 . S
C117 O118 1.227 . S
O118 C117 1.227 . S
N119 Co105 2.140 . S
N119 C122 1.346 . S
N119 C123 1.345 . S
C120 C121 1.387 . S
C120 C124 1.391 . S
C121 C120 1.387 . S
C121 C122 1.369 . S
C121 H130 0.929 1_565 S
C122 N119 1.346 . S
C122 C121 1.369 . S
C122 H125 0.928 . S
C123 N119 1.345 . S
C123 C124 1.371 . S
C123 H126 0.931 . S
C124 C120 1.391 . S
C124 C123 1.371 . S
C124 H131 0.930 . S
H125 C122 0.928 . S
H126 C123 0.931 . S
H127 C103 0.930 . S
H128 C100 0.930 . S
H129 C109 0.930 . S
H130 C121 0.929 1_545 S
H131 C124 0.930 . S
C132 C133 1.351 . S
C132 N135 1.368 . S
C132 H137 0.931 . S
C133 C132 1.351 . S
C133 N134 1.373 . S
C133 H161 0.930 . S
N134 C133 1.373 . S
N134 C136 1.340 . S
N135 C132 1.368 . S
N135 C136 1.321 . S
N135 Co138 2.135 . S
C136 N134 1.340 . S
C136 N135 1.321 . S
C136 H160 0.930 . S
H137 C132 0.931 . S
Co138 N135 2.135 . S
Co138 N141 2.121 . S
Co138 O146 2.055 . S
Co138 O149 2.039 . S
Co138 N152 2.140 . S
C139 O140 1.227 . S
C139 O149 1.265 . S
O140 C139 1.227 . S
N141 Co138 2.121 . S
N141 C143 1.375 . S
N141 C144 1.313 . S
C142 C143 1.338 . S
C142 N145 1.377 . S
C142 H162 0.930 . S
C143 N141 1.375 . S
C143 C142 1.338 . S
C143 H147 0.931 . S
C144 N141 1.313 . S
C144 N145 1.344 . S
C144 H148 0.930 . S
N145 C142 1.377 . S
N145 C144 1.344 . S
O146 Co138 2.055 . S
O146 C150 1.253 . S
H147 C143 0.931 . S
H148 C144 0.930 . S
O149 Co138 2.039 . S
O149 C139 1.265 . S
C150 O146 1.253 . S
C150 O151 1.227 . S
O151 C150 1.227 . S
N152 Co138 2.140 . S
N152 C155 1.346 . S
N152 C156 1.345 . S
C153 C154 1.387 1_565 S
C153 C157 1.391 . S
C154 C153 1.387 1_545 S
C154 C155 1.369 . S
C154 H163 0.929 . S
C155 N152 1.346 . S
C155 C154 1.369 . S
C155 H158 0.928 . S
C156 N152 1.345 . S
C156 C157 1.371 1_545 S
C156 H159 0.931 . S
C157 C153 1.391 . S
C157 C156 1.371 1_565 S
C157 H164 0.930 . S
H158 C155 0.928 . S
H159 C156 0.931 . S
H160 C136 0.930 . S
H161 C133 0.930 . S
H162 C142 0.930 . S
H163 C154 0.929 . S
H164 C157 0.930 . S
C165 C166 1.351 . S
C165 N168 1.368 . S
C165 H170 0.931 . S
C166 C165 1.351 . S
C166 N167 1.373 . S
C166 H194 0.930 . S
N167 C166 1.373 . S
N167 C169 1.340 . S
N168 C165 1.368 . S
N168 C169 1.321 . S
N168 Co171 2.135 . S
C169 N167 1.340 . S
C169 N168 1.321 . S
C169 H193 0.930 . S
H170 C165 0.931 . S
Co171 N168 2.135 . S
Co171 N174 2.121 . S
Co171 O179 2.055 . S
Co171 O182 2.039 . S
Co171 N185 2.140 . S
C172 O173 1.227 . S
C172 O182 1.265 . S
O173 C172 1.227 . S
N174 Co171 2.121 . S
N174 C176 1.375 . S
N174 C177 1.313 . S
C175 C176 1.338 . S
C175 N178 1.377 . S
C175 H195 0.930 . S
C176 N174 1.375 . S
C176 C175 1.338 . S
C176 H180 0.931 . S
C177 N174 1.313 . S
C177 N178 1.344 . S
C177 H181 0.930 . S
N178 C175 1.377 . S
N178 C177 1.344 . S
O179 Co171 2.055 . S
O179 C183 1.253 . S
H180 C176 0.931 . S
H181 C177 0.930 . S
O182 Co171 2.039 . S
O182 C172 1.265 . S
C183 O179 1.253 . S
C183 O184 1.227 . S
O184 C183 1.227 . S
N185 Co171 2.140 . S
N185 C188 1.346 . S
N185 C189 1.345 . S
C186 C187 1.387 1_455 S
C186 C190 1.391 . S
C187 C186 1.387 1_655 S
C187 C188 1.369 . S
C187 H196 0.929 . S
C188 N185 1.346 . S
C188 C187 1.369 . S
C188 H191 0.928 . S
C189 N185 1.345 . S
C189 C190 1.371 1_655 S
C189 H192 0.931 . S
C190 C186 1.391 . S
C190 C189 1.371 1_455 S
C190 H197 0.930 . S
H191 C188 0.928 . S
H192 C189 0.931 . S
H193 C169 0.930 . S
H194 C166 0.930 . S
H195 C175 0.930 . S
H196 C187 0.929 . S
H197 C190 0.930 . S
C198 C199 1.351 . S
C198 N201 1.368 . S
C198 H203 0.931 . S
C199 C198 1.351 . S
C199 N200 1.373 . S
C199 H227 0.930 . S
N200 C199 1.373 . S
N200 C202 1.340 . S
N201 C198 1.368 . S
N201 C202 1.321 . S
N201 Co204 2.135 . S
C202 N200 1.340 . S
C202 N201 1.321 . S
C202 H226 0.930 . S
H203 C198 0.931 . S
Co204 N201 2.135 . S
Co204 N207 2.121 . S
Co204 O212 2.055 . S
Co204 O215 2.039 . S
Co204 N218 2.140 . S
C205 O206 1.227 . S
C205 O215 1.265 . S
O206 C205 1.227 . S
N207 Co204 2.121 . S
N207 C209 1.375 . S
N207 C210 1.313 . S
C208 C209 1.338 . S
C208 N211 1.377 . S
C208 H228 0.930 . S
C209 N207 1.375 . S
C209 C208 1.338 . S
C209 H213 0.931 . S
C210 N207 1.313 . S
C210 N211 1.344 . S
C210 H214 0.930 . S
N211 C208 1.377 . S
N211 C210 1.344 . S
O212 Co204 2.055 . S
O212 C216 1.253 . S
H213 C209 0.931 . S
H214 C210 0.930 . S
O215 Co204 2.039 . S
O215 C205 1.265 . S
C216 O212 1.253 . S
C216 O217 1.227 . S
O217 C216 1.227 . S
N218 Co204 2.140 . S
N218 C221 1.346 . S
N218 C222 1.345 . S
C219 C220 1.387 1_545 S
C219 C223 1.391 . S
C220 C219 1.387 1_565 S
C220 C221 1.369 . S
C220 H229 0.929 . S
C221 N218 1.346 . S
C221 C220 1.369 . S
C221 H224 0.928 . S
C222 N218 1.345 . S
C222 C223 1.371 1_565 S
C222 H225 0.931 . S
C223 C219 1.391 . S
C223 C222 1.371 1_545 S
C223 H230 0.930 . S
H224 C221 0.928 . S
H225 C222 0.931 . S
H226 C202 0.930 . S
H227 C199 0.930 . S
H228 C208 0.930 . S
H229 C220 0.929 . S
H230 C223 0.930 . S
C231 C232 1.351 . S
C231 N234 1.368 . S
C231 H236 0.931 . S
C232 C231 1.351 . S
C232 N233 1.373 . S
C232 H260 0.930 . S
N233 C232 1.373 . S
N233 C235 1.340 . S
N234 C231 1.368 . S
N234 C235 1.321 . S
N234 Co237 2.135 . S
C235 N233 1.340 . S
C235 N234 1.321 . S
C235 H259 0.930 . S
H236 C231 0.931 . S
Co237 N234 2.135 . S
Co237 N240 2.121 . S
Co237 O245 2.055 . S
Co237 O248 2.039 . S
Co237 N251 2.140 . S
C238 O239 1.227 . S
C238 O248 1.265 . S
O239 C238 1.227 . S
N240 Co237 2.121 . S
N240 C242 1.375 . S
N240 C243 1.313 . S
C241 C242 1.338 . S
C241 N244 1.377 . S
C241 H261 0.930 . S
C242 N240 1.375 . S
C242 C241 1.338 . S
C242 H246 0.931 . S
C243 N240 1.313 . S
C243 N244 1.344 . S
C243 H247 0.930 . S
N244 C241 1.377 . S
N244 C243 1.344 . S
O245 Co237 2.055 . S
O245 C249 1.253 . S
H246 C242 0.931 . S
H247 C243 0.930 . S
O248 Co237 2.039 . S
O248 C238 1.265 . S
C249 O245 1.253 . S
C249 O250 1.227 . S
O250 C249 1.227 . S
N251 Co237 2.140 . S
N251 C254 1.346 . S
N251 C255 1.345 . S
C252 C253 1.387 1_655 S
C252 C256 1.391 . S
C253 C252 1.387 1_455 S
C253 C254 1.369 . S
C253 H262 0.929 . S
C254 N251 1.346 . S
C254 C253 1.369 . S
C254 H257 0.928 . S
C255 N251 1.345 . S
C255 C256 1.371 1_455 S
C255 H258 0.931 . S
C256 C252 1.391 . S
C256 C255 1.371 1_655 S
C256 H263 0.930 . S
H257 C254 0.928 . S
H258 C255 0.931 . S
H259 C235 0.930 . S
H260 C232 0.930 . S
H261 C241 0.930 . S
H262 C253 0.929 . S
H263 C256 0.930 . S
C264 C265 1.351 . S
C264 N267 1.368 . S
C264 H269 0.931 . S
C265 C264 1.351 . S
C265 N266 1.373 . S
C265 H293 0.930 . S
N266 C265 1.373 . S
N266 C268 1.340 . S
N267 C264 1.368 . S
N267 C268 1.321 . S
N267 Co270 2.135 . S
C268 N266 1.340 . S
C268 N267 1.321 . S
C268 H292 0.930 . S
H269 C264 0.931 . S
Co270 N267 2.135 . S
Co270 N273 2.121 . S
Co270 O278 2.055 . S
Co270 O281 2.039 . S
Co270 N284 2.140 . S
C271 O272 1.227 . S
C271 O281 1.265 1_455 S
O272 C271 1.227 . S
N273 Co270 2.121 . S
N273 C275 1.375 . S
N273 C276 1.313 . S
C274 C275 1.338 . S
C274 N277 1.377 . S
C274 H294 0.930 . S
C275 N273 1.375 . S
C275 C274 1.338 . S
C275 H279 0.931 1_655 S
C276 N273 1.313 . S
C276 N277 1.344 . S
C276 H280 0.930 . S
N277 C274 1.377 . S
N277 C276 1.344 . S
O278 Co270 2.055 . S
O278 C282 1.253 . S
H279 C275 0.931 1_455 S
H280 C276 0.930 . S
O281 Co270 2.039 . S
O281 C271 1.265 1_655 S
C282 O278 1.253 . S
C282 O283 1.227 . S
O283 C282 1.227 . S
N284 Co270 2.140 . S
N284 C287 1.346 . S
N284 C288 1.345 . S
C285 C286 1.387 . S
C285 C289 1.391 . S
C286 C285 1.387 . S
C286 C287 1.369 . S
C286 H295 0.929 1_655 S
C287 N284 1.346 . S
C287 C286 1.369 . S
C287 H290 0.928 . S
C288 N284 1.345 . S
C288 C289 1.371 . S
C288 H291 0.931 . S
C289 C285 1.391 . S
C289 C288 1.371 . S
C289 H296 0.930 . S
H290 C287 0.928 . S
H291 C288 0.931 . S
H292 C268 0.930 . S
H293 C265 0.930 . S
H294 C274 0.930 . S
H295 C286 0.929 1_455 S
H296 C289 0.930 . S
C297 C298 1.351 . S
C297 N300 1.368 . S
C297 H302 0.931 . S
C298 C297 1.351 . S
C298 N299 1.373 . S
C298 H326 0.930 . S
N299 C298 1.373 . S
N299 C301 1.340 . S
N300 C297 1.368 . S
N300 C301 1.321 . S
N300 Co303 2.135 . S
C301 N299 1.340 . S
C301 N300 1.321 . S
C301 H325 0.930 . S
H302 C297 0.931 . S
Co303 N300 2.135 . S
Co303 N306 2.121 . S
Co303 O311 2.055 . S
Co303 O314 2.039 . S
Co303 N317 2.140 . S
C304 O305 1.227 . S
C304 O314 1.265 1_545 S
O305 C304 1.227 . S
N306 Co303 2.121 . S
N306 C308 1.375 . S
N306 C309 1.313 . S
C307 C308 1.338 . S
C307 N310 1.377 . S
C307 H327 0.930 . S
C308 N306 1.375 . S
C308 C307 1.338 . S
C308 H312 0.931 1_565 S
C309 N306 1.313 . S
C309 N310 1.344 . S
C309 H313 0.930 . S
N310 C307 1.377 . S
N310 C309 1.344 . S
O311 Co303 2.055 . S
O311 C315 1.253 . S
H312 C308 0.931 1_545 S
H313 C309 0.930 . S
O314 Co303 2.039 . S
O314 C304 1.265 1_565 S
C315 O311 1.253 . S
C315 O316 1.227 . S
O316 C315 1.227 . S
N317 Co303 2.140 . S
N317 C320 1.346 . S
N317 C321 1.345 . S
C318 C319 1.387 . S
C318 C322 1.391 . S
C319 C318 1.387 . S
C319 C320 1.369 . S
C319 H328 0.929 1_565 S
C320 N317 1.346 . S
C320 C319 1.369 . S
C320 H323 0.928 . S
C321 N317 1.345 . S
C321 C322 1.371 . S
C321 H324 0.931 . S
C322 C318 1.391 . S
C322 C321 1.371 . S
C322 H329 0.930 . S
H323 C320 0.928 . S
H324 C321 0.931 . S
H325 C301 0.930 . S
H326 C298 0.930 . S
H327 C307 0.930 . S
H328 C319 0.929 1_545 S
H329 C322 0.930 . S
C330 C331 1.351 . S
C330 N333 1.368 . S
C330 H335 0.931 . S
C331 C330 1.351 . S
C331 N332 1.373 . S
C331 H359 0.930 . S
N332 C331 1.373 . S
N332 C334 1.340 . S
N333 C330 1.368 . S
N333 C334 1.321 . S
N333 Co336 2.135 . S
C334 N332 1.340 . S
C334 N333 1.321 . S
C334 H358 0.930 . S
H335 C330 0.931 . S
Co336 N333 2.135 . S
Co336 N339 2.121 . S
Co336 O344 2.055 . S
Co336 O347 2.039 . S
Co336 N350 2.140 . S
C337 O338 1.227 . S
C337 O347 1.265 1_655 S
O338 C337 1.227 . S
N339 Co336 2.121 . S
N339 C341 1.375 . S
N339 C342 1.313 . S
C340 C341 1.338 . S
C340 N343 1.377 . S
C340 H360 0.930 . S
C341 N339 1.375 . S
C341 C340 1.338 . S
C341 H345 0.931 1_455 S
C342 N339 1.313 . S
C342 N343 1.344 . S
C342 H346 0.930 . S
N343 C340 1.377 . S
N343 C342 1.344 . S
O344 Co336 2.055 . S
O344 C348 1.253 . S
H345 C341 0.931 1_655 S
H346 C342 0.930 . S
O347 Co336 2.039 . S
O347 C337 1.265 1_455 S
C348 O344 1.253 . S
C348 O349 1.227 . S
O349 C348 1.227 . S
N350 Co336 2.140 . S
N350 C353 1.346 . S
N350 C354 1.345 . S
C351 C352 1.387 . S
C351 C355 1.391 . S
C352 C351 1.387 . S
C352 C353 1.369 . S
C352 H361 0.929 1_455 S
C353 N350 1.346 . S
C353 C352 1.369 . S
C353 H356 0.928 . S
C354 N350 1.345 . S
C354 C355 1.371 . S
C354 H357 0.931 . S
C355 C351 1.391 . S
C355 C354 1.371 . S
C355 H362 0.930 . S
H356 C353 0.928 . S
H357 C354 0.931 . S
H358 C334 0.930 . S
H359 C331 0.930 . S
H360 C340 0.930 . S
H361 C352 0.929 1_655 S
H362 C355 0.930 . S
C363 C364 1.351 . S
C363 N366 1.368 . S
C363 H368 0.931 . S
C364 C363 1.351 . S
C364 N365 1.373 . S
C364 H392 0.930 . S
N365 C364 1.373 . S
N365 C367 1.340 . S
N366 C363 1.368 . S
N366 C367 1.321 . S
N366 Co369 2.135 . S
C367 N365 1.340 . S
C367 N366 1.321 . S
C367 H391 0.930 . S
H368 C363 0.931 . S
Co369 N366 2.135 . S
Co369 N372 2.121 . S
Co369 O377 2.055 . S
Co369 O380 2.039 . S
Co369 N383 2.140 . S
C370 O371 1.227 . S
C370 O380 1.265 1_565 S
O371 C370 1.227 . S
N372 Co369 2.121 . S
N372 C374 1.375 . S
N372 C375 1.313 . S
C373 C374 1.338 . S
C373 N376 1.377 . S
C373 H393 0.930 . S
C374 N372 1.375 . S
C374 C373 1.338 . S
C374 H378 0.931 1_545 S
C375 N372 1.313 . S
C375 N376 1.344 . S
C375 H379 0.930 . S
N376 C373 1.377 . S
N376 C375 1.344 . S
O377 Co369 2.055 . S
O377 C381 1.253 . S
H378 C374 0.931 1_565 S
H379 C375 0.930 . S
O380 Co369 2.039 . S
O380 C370 1.265 1_545 S
C381 O377 1.253 . S
C381 O382 1.227 . S
O382 C381 1.227 . S
N383 Co369 2.140 . S
N383 C386 1.346 . S
N383 C387 1.345 . S
C384 C385 1.387 . S
C384 C388 1.391 . S
C385 C384 1.387 . S
C385 C386 1.369 . S
C385 H394 0.929 1_545 S
C386 N383 1.346 . S
C386 C385 1.369 . S
C386 H389 0.928 . S
C387 N383 1.345 . S
C387 C388 1.371 . S
C387 H390 0.931 . S
C388 C384 1.391 . S
C388 C387 1.371 . S
C388 H395 0.930 . S
H389 C386 0.928 . S
H390 C387 0.931 . S
H391 C367 0.930 . S
H392 C364 0.930 . S
H393 C373 0.930 . S
H394 C385 0.929 1_565 S
H395 C388 0.930 . S
C396 C397 1.351 . S
C396 N399 1.368 . S
C396 H401 0.931 . S
C397 C396 1.351 . S
C397 N398 1.373 . S
C397 H425 0.930 . S
N398 C397 1.373 . S
N398 C400 1.340 . S
N399 C396 1.368 . S
N399 C400 1.321 . S
N399 Co402 2.135 . S
C400 N398 1.340 . S
C400 N399 1.321 . S
C400 H424 0.930 . S
H401 C396 0.931 . S
Co402 N399 2.135 . S
Co402 N405 2.121 . S
Co402 O410 2.055 . S
Co402 O413 2.039 . S
Co402 N416 2.140 . S
C403 O404 1.227 . S
C403 O413 1.265 . S
O404 C403 1.227 . S
N405 Co402 2.121 . S
N405 C407 1.375 . S
N405 C408 1.313 . S
C406 C407 1.338 . S
C406 N409 1.377 . S
C406 H426 0.930 . S
C407 N405 1.375 . S
C407 C406 1.338 . S
C407 H411 0.931 . S
C408 N405 1.313 . S
C408 N409 1.344 . S
C408 H412 0.930 . S
N409 C406 1.377 . S
N409 C408 1.344 . S
O410 Co402 2.055 . S
O410 C414 1.253 . S
H411 C407 0.931 . S
H412 C408 0.930 . S
O413 Co402 2.039 . S
O413 C403 1.265 . S
C414 O410 1.253 . S
C414 O415 1.227 . S
O415 C414 1.227 . S
N416 Co402 2.140 . S
N416 C419 1.346 . S
N416 C420 1.345 . S
C417 C418 1.387 1_545 S
C417 C421 1.391 . S
C418 C417 1.387 1_565 S
C418 C419 1.369 . S
C418 H427 0.929 . S
C419 N416 1.346 . S
C419 C418 1.369 . S
C419 H422 0.928 . S
C420 N416 1.345 . S
C420 C421 1.371 1_565 S
C420 H423 0.931 . S
C421 C417 1.391 . S
C421 C420 1.371 1_545 S
C421 H428 0.930 . S
H422 C419 0.928 . S
H423 C420 0.931 . S
H424 C400 0.930 . S
H425 C397 0.930 . S
H426 C406 0.930 . S
H427 C418 0.929 . S
H428 C421 0.930 . S
C429 C430 1.351 . S
C429 N432 1.368 . S
C429 H434 0.931 . S
C430 C429 1.351 . S
C430 N431 1.373 . S
C430 H458 0.930 . S
N431 C430 1.373 . S
N431 C433 1.340 . S
N432 C429 1.368 . S
N432 C433 1.321 . S
N432 Co435 2.135 . S
C433 N431 1.340 . S
C433 N432 1.321 . S
C433 H457 0.930 . S
H434 C429 0.931 . S
Co435 N432 2.135 . S
Co435 N438 2.121 . S
Co435 O443 2.055 . S
Co435 O446 2.039 . S
Co435 N449 2.140 . S
C436 O437 1.227 . S
C436 O446 1.265 . S
O437 C436 1.227 . S
N438 Co435 2.121 . S
N438 C440 1.375 . S
N438 C441 1.313 . S
C439 C440 1.338 . S
C439 N442 1.377 . S
C439 H459 0.930 . S
C440 N438 1.375 . S
C440 C439 1.338 . S
C440 H444 0.931 . S
C441 N438 1.313 . S
C441 N442 1.344 . S
C441 H445 0.930 . S
N442 C439 1.377 . S
N442 C441 1.344 . S
O443 Co435 2.055 . S
O443 C447 1.253 . S
H444 C440 0.931 . S
H445 C441 0.930 . S
O446 Co435 2.039 . S
O446 C436 1.265 . S
C447 O443 1.253 . S
C447 O448 1.227 . S
O448 C447 1.227 . S
N449 Co435 2.140 . S
N449 C452 1.346 . S
N449 C453 1.345 . S
C450 C451 1.387 1_655 S
C450 C454 1.391 . S
C451 C450 1.387 1_455 S
C451 C452 1.369 . S
C451 H460 0.929 . S
C452 N449 1.346 . S
C452 C451 1.369 . S
C452 H455 0.928 . S
C453 N449 1.345 . S
C453 C454 1.371 1_455 S
C453 H456 0.931 . S
C454 C450 1.391 . S
C454 C453 1.371 1_655 S
C454 H461 0.930 . S
H455 C452 0.928 . S
H456 C453 0.931 . S
H457 C433 0.930 . S
H458 C430 0.930 . S
H459 C439 0.930 . S
H460 C451 0.929 . S
H461 C454 0.930 . S
C462 C463 1.351 . S
C462 N465 1.368 . S
C462 H467 0.931 . S
C463 C462 1.351 . S
C463 N464 1.373 . S
C463 H491 0.930 . S
N464 C463 1.373 . S
N464 C466 1.340 . S
N465 C462 1.368 . S
N465 C466 1.321 . S
N465 Co468 2.135 . S
C466 N464 1.340 . S
C466 N465 1.321 . S
C466 H490 0.930 . S
H467 C462 0.931 . S
Co468 N465 2.135 . S
Co468 N471 2.121 . S
Co468 O476 2.055 . S
Co468 O479 2.039 . S
Co468 N482 2.140 . S
C469 O470 1.227 . S
C469 O479 1.265 . S
O470 C469 1.227 . S
N471 Co468 2.121 . S
N471 C473 1.375 . S
N471 C474 1.313 . S
C472 C473 1.338 . S
C472 N475 1.377 . S
C472 H492 0.930 . S
C473 N471 1.375 . S
C473 C472 1.338 . S
C473 H477 0.931 . S
C474 N471 1.313 . S
C474 N475 1.344 . S
C474 H478 0.930 . S
N475 C472 1.377 . S
N475 C474 1.344 . S
O476 Co468 2.055 . S
O476 C480 1.253 . S
H477 C473 0.931 . S
H478 C474 0.930 . S
O479 Co468 2.039 . S
O479 C469 1.265 . S
C480 O476 1.253 . S
C480 O481 1.227 . S
O481 C480 1.227 . S
N482 Co468 2.140 . S
N482 C485 1.346 . S
N482 C486 1.345 . S
C483 C484 1.387 1_565 S
C483 C487 1.391 . S
C484 C483 1.387 1_545 S
C484 C485 1.369 . S
C484 H493 0.929 . S
C485 N482 1.346 . S
C485 C484 1.369 . S
C485 H488 0.928 . S
C486 N482 1.345 . S
C486 C487 1.371 1_545 S
C486 H489 0.931 . S
C487 C483 1.391 . S
C487 C486 1.371 1_565 S
C487 H494 0.930 . S
H488 C485 0.928 . S
H489 C486 0.931 . S
H490 C466 0.930 . S
H491 C463 0.930 . S
H492 C472 0.930 . S
H493 C484 0.929 . S
H494 C487 0.930 . S
C495 C496 1.351 . S
C495 N498 1.368 . S
C495 H500 0.931 . S
C496 C495 1.351 . S
C496 N497 1.373 . S
C496 H524 0.930 . S
N497 C496 1.373 . S
N497 C499 1.340 . S
N498 C495 1.368 . S
N498 C499 1.321 . S
N498 Co501 2.135 . S
C499 N497 1.340 . S
C499 N498 1.321 . S
C499 H523 0.930 . S
H500 C495 0.931 . S
Co501 N498 2.135 . S
Co501 N504 2.121 . S
Co501 O509 2.055 . S
Co501 O512 2.039 . S
Co501 N515 2.140 . S
C502 O503 1.227 . S
C502 O512 1.265 . S
O503 C502 1.227 . S
N504 Co501 2.121 . S
N504 C506 1.375 . S
N504 C507 1.313 . S
C505 C506 1.338 . S
C505 N508 1.377 . S
C505 H525 0.930 . S
C506 N504 1.375 . S
C506 C505 1.338 . S
C506 H510 0.931 . S
C507 N504 1.313 . S
C507 N508 1.344 . S
C507 H511 0.930 . S
N508 C505 1.377 . S
N508 C507 1.344 . S
O509 Co501 2.055 . S
O509 C513 1.253 . S
H510 C506 0.931 . S
H511 C507 0.930 . S
O512 Co501 2.039 . S
O512 C502 1.265 . S
C513 O509 1.253 . S
C513 O514 1.227 . S
O514 C513 1.227 . S
N515 Co501 2.140 . S
N515 C518 1.346 . S
N515 C519 1.345 . S
C516 C517 1.387 1_455 S
C516 C520 1.391 . S
C517 C516 1.387 1_655 S
C517 C518 1.369 . S
C517 H526 0.929 . S
C518 N515 1.346 . S
C518 C517 1.369 . S
C518 H521 0.928 . S
C519 N515 1.345 . S
C519 C520 1.371 1_655 S
C519 H522 0.931 . S
C520 C516 1.391 . S
C520 C519 1.371 1_455 S
C520 H527 0.930 . S
H521 C518 0.928 . S
H522 C519 0.931 . S
H523 C499 0.930 . S
H524 C496 0.930 . S
H525 C505 0.930 . S
H526 C517 0.929 . S
H527 C520 0.930 . S
N13 N244 2.600 . S
N145 N46 2.600 . S
N178 N79 2.600 . S
N211 N112 2.600 . S
N277 N508 2.600 . S
N310 N409 2.600 . S
N442 N343 2.600 . S
N376 N475 2.600 . S
N2 N332 1.452 1_554 S
N365 N35 1.452 . S
N266 N68 1.452 1_556 S
N299 N101 1.452 . S
N464 N134 1.452 1_554 S
N497 N167 1.452 . S
N398 N200 1.452 1_554 S
N431 N233 1.452 . S
C21 C87 1.980 1_455 S
C120 C54 1.980 1_565 S
C219 C153 1.980 1_545 S
C252 C186 1.980 1_655 S
C285 C351 1.980 1_655 S
C384 C318 1.980 1_545 S
C417 C483 1.980 1_545 S
C450 C516 1.980 1_655 S
C469 C18 3.212 . S
C51 C502 3.212 . S
C403 C84 3.213 . S
C436 C117 3.213 . S
C337 C150 3.213 . S
C183 C370 3.213 . S
C271 C216 3.212 . S
C249 C304 3.212 . S
C205 C282 3.212 . S
C238 C315 3.212 . S
C139 C348 3.213 . S
C381 C172 3.213 . S
C73 C414 3.213 . S
C447 C106 3.213 . S
C480 C7 3.212 . S
C40 C513 3.212 . S
