# Generated by pormake.
# Topology wmi, (6)-cn, num edge types: 1
# Building blocks:
#     Node 0, Type 0, BuildingBlock: JUFBIX_clean_sbu_0, # of connection points: 6
#     Node 1, Type 0, BuildingBlock: JUFBIX_clean_sbu_0, # of connection points: 6
#     Node 2, Type 0, BuildingBlock: JUFBIX_clean_sbu_0, # of connection points: 6
#     Node 3, Type 0, BuildingBlock: JUFBIX_clean_sbu_0, # of connection points: 6
#     Node 4, Type 0, BuildingBlock: JUFBIX_clean_sbu_0, # of connection points: 6
#     Node 5, Type 0, BuildingBlock: JUFBIX_clean_sbu_0, # of connection points: 6
#     Node 6, Type 0, BuildingBlock: JUFBIX_clean_sbu_0, # of connection points: 6
#     Node 7, Type 0, BuildingBlock: JUFBIX_clean_sbu_0, # of connection points: 6
#     Node 8, Type 0, BuildingBlock: JUFBIX_clean_sbu_0, # of connection points: 6
#     Node 9, Type 0, BuildingBlock: JUFBIX_clean_sbu_0, # of connection points: 6
#     Node 10, Type 0, BuildingBlock: JUFBIX_clean_sbu_0, # of connection points: 6
#     Node 11, Type 0, BuildingBlock: JUFBIX_clean_sbu_0, # of connection points: 6
#     Node 12, Type 0, BuildingBlock: JUFBIX_clean_sbu_0, # of connection points: 6
#     Node 13, Type 0, BuildingBlock: JUFBIX_clean_sbu_0, # of connection points: 6
#     Node 14, Type 0, BuildingBlock: JUFBIX_clean_sbu_0, # of connection points: 6
#     Node 15, Type 0, BuildingBlock: JUFBIX_clean_sbu_0, # of connection points: 6
#     Node 16, Type 0, BuildingBlock: JUFBIX_clean_sbu_0, # of connection points: 6
#     Node 17, Type 0, BuildingBlock: JUFBIX_clean_sbu_0, # of connection points: 6
#     Edge 18, Type (0, 0), BuildingBlock: XIVTED_clean_linker_0, # of connection points: 2
#     Edge 19, Type (0, 0), BuildingBlock: XIVTED_clean_linker_0, # of connection points: 2
#     Edge 20, Type (0, 0), BuildingBlock: XIVTED_clean_linker_0, # of connection points: 2
#     Edge 21, Type (0, 0), BuildingBlock: XIVTED_clean_linker_0, # of connection points: 2
#     Edge 22, Type (0, 0), BuildingBlock: XIVTED_clean_linker_0, # of connection points: 2
#     Edge 23, Type (0, 0), BuildingBlock: XIVTED_clean_linker_0, # of connection points: 2
#     Edge 24, Type (0, 0), BuildingBlock: XIVTED_clean_linker_0, # of connection points: 2
#     Edge 25, Type (0, 0), BuildingBlock: XIVTED_clean_linker_0, # of connection points: 2
#     Edge 26, Type (0, 0), BuildingBlock: XIVTED_clean_linker_0, # of connection points: 2
#     Edge 27, Type (0, 0), BuildingBlock: XIVTED_clean_linker_0, # of connection points: 2
#     Edge 28, Type (0, 0), BuildingBlock: XIVTED_clean_linker_0, # of connection points: 2
#     Edge 29, Type (0, 0), BuildingBlock: XIVTED_clean_linker_0, # of connection points: 2
#     Edge 30, Type (0, 0), BuildingBlock: XIVTED_clean_linker_0, # of connection points: 2
#     Edge 31, Type (0, 0), BuildingBlock: XIVTED_clean_linker_0, # of connection points: 2
#     Edge 32, Type (0, 0), BuildingBlock: XIVTED_clean_linker_0, # of connection points: 2
#     Edge 33, Type (0, 0), BuildingBlock: XIVTED_clean_linker_0, # of connection points: 2
#     Edge 34, Type (0, 0), BuildingBlock: XIVTED_clean_linker_0, # of connection points: 2
#     Edge 35, Type (0, 0), BuildingBlock: XIVTED_clean_linker_0, # of connection points: 2
#     Edge 36, Type (0, 0), BuildingBlock: XIVTED_clean_linker_0, # of connection points: 2
#     Edge 37, Type (0, 0), BuildingBlock: XIVTED_clean_linker_0, # of connection points: 2
#     Edge 38, Type (0, 0), BuildingBlock: XIVTED_clean_linker_0, # of connection points: 2
#     Edge 39, Type (0, 0), BuildingBlock: XIVTED_clean_linker_0, # of connection points: 2
#     Edge 40, Type (0, 0), BuildingBlock: XIVTED_clean_linker_0, # of connection points: 2
#     Edge 41, Type (0, 0), BuildingBlock: XIVTED_clean_linker_0, # of connection points: 2
#     Edge 42, Type (0, 0), BuildingBlock: XIVTED_clean_linker_0, # of connection points: 2
#     Edge 43, Type (0, 0), BuildingBlock: XIVTED_clean_linker_0, # of connection points: 2
#     Edge 44, Type (0, 0), BuildingBlock: XIVTED_clean_linker_0, # of connection points: 2
#     Edge 45, Type (0, 0), BuildingBlock: XIVTED_clean_linker_0, # of connection points: 2
#     Edge 46, Type (0, 0), BuildingBlock: XIVTED_clean_linker_0, # of connection points: 2
#     Edge 47, Type (0, 0), BuildingBlock: XIVTED_clean_linker_0, # of connection points: 2
#     Edge 48, Type (0, 0), BuildingBlock: XIVTED_clean_linker_0, # of connection points: 2
#     Edge 49, Type (0, 0), BuildingBlock: XIVTED_clean_linker_0, # of connection points: 2
#     Edge 50, Type (0, 0), BuildingBlock: XIVTED_clean_linker_0, # of connection points: 2
#     Edge 51, Type (0, 0), BuildingBlock: XIVTED_clean_linker_0, # of connection points: 2
#     Edge 52, Type (0, 0), BuildingBlock: XIVTED_clean_linker_0, # of connection points: 2
#     Edge 53, Type (0, 0), BuildingBlock: XIVTED_clean_linker_0, # of connection points: 2
#     Edge 54, Type (0, 0), BuildingBlock: XIVTED_clean_linker_0, # of connection points: 2
#     Edge 55, Type (0, 0), BuildingBlock: XIVTED_clean_linker_0, # of connection points: 2
#     Edge 56, Type (0, 0), BuildingBlock: XIVTED_clean_linker_0, # of connection points: 2
#     Edge 57, Type (0, 0), BuildingBlock: XIVTED_clean_linker_0, # of connection points: 2
#     Edge 58, Type (0, 0), BuildingBlock: XIVTED_clean_linker_0, # of connection points: 2
#     Edge 59, Type (0, 0), BuildingBlock: XIVTED_clean_linker_0, # of connection points: 2
#     Edge 60, Type (0, 0), BuildingBlock: XIVTED_clean_linker_0, # of connection points: 2
#     Edge 61, Type (0, 0), BuildingBlock: XIVTED_clean_linker_0, # of connection points: 2
#     Edge 62, Type (0, 0), BuildingBlock: XIVTED_clean_linker_0, # of connection points: 2
#     Edge 63, Type (0, 0), BuildingBlock: XIVTED_clean_linker_0, # of connection points: 2
#     Edge 64, Type (0, 0), BuildingBlock: XIVTED_clean_linker_0, # of connection points: 2
#     Edge 65, Type (0, 0), BuildingBlock: XIVTED_clean_linker_0, # of connection points: 2
#     Edge 66, Type (0, 0), BuildingBlock: XIVTED_clean_linker_0, # of connection points: 2
#     Edge 67, Type (0, 0), BuildingBlock: XIVTED_clean_linker_0, # of connection points: 2
#     Edge 68, Type (0, 0), BuildingBlock: XIVTED_clean_linker_0, # of connection points: 2
#     Edge 69, Type (0, 0), BuildingBlock: XIVTED_clean_linker_0, # of connection points: 2
#     Edge 70, Type (0, 0), BuildingBlock: XIVTED_clean_linker_0, # of connection points: 2
#     Edge 71, Type (0, 0), BuildingBlock: XIVTED_clean_linker_0, # of connection points: 2
# Relax obj value: 0.301
# Max RMSD: 0.237
# Mean RMSD: 0.237
data_MOF--net-wmi--node1-JUFBIX_clean_sbu_0--edge1-XIVTED_clean_linker_0
_symmetry_space_group_name_H-M    P1
_symmetry_Int_Tables_number       1
_symmetry_cell_setting            triclinic
loop_
_symmetry_equiv_pos_as_xyz
'x, y, z'
_cell_length_a     33.305951
_cell_length_b     33.393688
_cell_length_c     84.241566
_cell_angle_alpha  89.991275
_cell_angle_beta   89.950521
_cell_angle_gamma 120.16876
loop_
_atom_site_label
_atom_site_type_symbol
_atom_site_fract_x
_atom_site_fract_y
_atom_site_fract_z
_atom_type_partial_charge
Co0 Co 0.48299 0.99557 0.12382 0.0
C1 C 0.48198 0.01995 0.09201 0.0
Co2 Co 0.45517 0.04239 0.11987 0.0
C3 C 0.50789 0.92681 0.1163 0.0
C4 C 0.5347 0.95895 0.13879 0.0
N5 N 0.50774 0.95756 0.12663 0.0
N6 N 0.53438 0.90938 0.12143 0.0
C7 C 0.55109 0.92934 0.13564 0.0
H8 H 0.49043 0.91883 0.10494 0.0
H9 H 0.54316 0.98124 0.14905 0.0
C10 C 0.45043 0.01453 0.15135 0.0
N11 N 0.43194 0.08247 0.11739 0.0
C12 C 0.45629 0.12834 0.11417 0.0
C13 C 0.38861 0.07372 0.12062 0.0
N14 N 0.43031 0.14878 0.1156 0.0
C15 C 0.38747 0.11426 0.11951 0.0
C16 C 0.38871 0.94856 0.11825 0.0
O17 O 0.46974 0.99265 0.14606 0.0
O18 O 0.44405 0.04064 0.14199 0.0
O19 O 0.39415 0.98906 0.11713 0.0
O20 O 0.42363 0.94391 0.12095 0.0
O21 O 0.46473 0.04307 0.09784 0.0
H22 H 0.36011 0.04052 0.12432 0.0
H23 H 0.49312 0.14701 0.11171 0.0
O24 O 0.49414 0.99784 0.1013 0.0
O25 O 0.54294 0.04704 0.12666 0.0
O26 O 0.51717 0.09458 0.12236 0.0
C27 C 0.55107 0.08812 0.12497 0.0
H28 H 0.57376 0.92326 0.14319 0.0
H29 H 0.35764 0.11806 0.1219 0.0
Co30 Co 0.03903 0.51143 0.08036 0.0
C31 C 0.99618 0.47596 0.05109 0.0
Co32 Co 0.98531 0.43758 0.08081 0.0
C33 C 0.1001 0.6084 0.08927 0.0
C34 C 0.11103 0.59251 0.0656 0.0
N35 N 0.0854 0.57315 0.07878 0.0
N36 N 0.1332 0.64892 0.08296 0.0
C37 C 0.14011 0.63896 0.0681 0.0
H38 H 0.08642 0.6046 0.10119 0.0
H39 H 0.10875 0.57399 0.05479 0.0
C40 C 0.02979 0.47057 0.10978 0.0
N41 N 0.93825 0.37597 0.08204 0.0
C42 C 0.89951 0.3583 0.09111 0.0
C43 C 0.9348 0.3393 0.07411 0.0
N44 N 0.87205 0.31215 0.08917 0.0
C45 C 0.89426 0.30002 0.07852 0.0
C46 C 0.07245 0.45191 0.07401 0.0
O47 O 0.05463 0.50831 0.10223 0.0
O48 O 0.99561 0.43713 0.10279 0.0
O49 O 0.03124 0.41977 0.07711 0.0
O50 O 0.08185 0.4937 0.07416 0.0
O51 O 0.97572 0.43778 0.05858 0.0
H52 H 0.95991 0.34106 0.06558 0.0
H53 H 0.89176 0.37885 0.09913 0.0
O54 O 0.02335 0.51276 0.0586 0.0
O55 O 0.99597 0.52945 0.0865 0.0
O56 O 0.94081 0.45687 0.08455 0.0
C57 C 0.95313 0.4991 0.087 0.0
H58 H 0.16523 0.66341 0.05976 0.0
H59 H 0.88163 0.2654 0.07397 0.0
Co60 Co 0.51368 0.55238 0.10324 0.0
C61 C 0.53716 0.53891 0.07265 0.0
Co62 Co 0.58849 0.57783 0.10007 0.0
C63 C 0.41695 0.52025 0.09575 0.0
C64 C 0.42749 0.50853 0.11997 0.0
N65 N 0.45047 0.52794 0.10636 0.0
N66 N 0.37398 0.49637 0.10218 0.0
C67 C 0.38066 0.48929 0.11746 0.0
H68 H 0.42387 0.53043 0.0834 0.0
H69 H 0.44364 0.50711 0.13092 0.0
C70 C 0.56699 0.59561 0.13028 0.0
N71 N 0.65163 0.60084 0.09755 0.0
C72 C 0.67316 0.57714 0.09357 0.0
C73 C 0.68623 0.64371 0.10123 0.0
N74 N 0.71983 0.60325 0.09485 0.0
C75 C 0.72811 0.64533 0.09957 0.0
C76 C 0.56047 0.64217 0.09333 0.0
O77 O 0.52587 0.5758 0.12475 0.0
O78 O 0.5993 0.59776 0.12165 0.0
O79 O 0.59561 0.63667 0.09417 0.0
O80 O 0.52038 0.60854 0.09654 0.0
O81 O 0.57795 0.55869 0.07842 0.0
H82 H 0.68126 0.6714 0.10558 0.0
H83 H 0.65472 0.54099 0.09021 0.0
O84 O 0.50317 0.5313 0.08159 0.0
O85 O 0.5065 0.49538 0.10994 0.0
O86 O 0.57989 0.51853 0.106 0.0
C87 C 0.53944 0.48675 0.10996 0.0
H88 H 0.35366 0.47132 0.12623 0.0
H89 H 0.7618 0.6746 0.10243 0.0
Co90 Co 0.9973 0.48795 0.90091 0.0
C91 C 0.02173 0.48665 0.9327 0.0
Co92 Co 0.04095 0.4567 0.90494 0.0
C93 C 0.93006 0.51422 0.9086 0.0
C94 C 0.96255 0.54197 0.88619 0.0
N95 N 0.9609 0.51446 0.89819 0.0
N96 N 0.91265 0.54087 0.90369 0.0
C97 C 0.93287 0.55827 0.88954 0.0
H98 H 0.92176 0.496 0.91982 0.0
H99 H 0.98476 0.55052 0.87588 0.0
C100 C 0.01323 0.45241 0.8735 0.0
N101 N 0.07929 0.43155 0.90752 0.0
C102 C 0.12463 0.45444 0.91164 0.0
C103 C 0.07027 0.3887 0.90356 0.0
N104 N 0.14466 0.42814 0.91007 0.0
C105 C 0.11027 0.38647 0.90512 0.0
C106 C 0.94647 0.39426 0.90716 0.0
O107 O 0.99192 0.47238 0.87876 0.0
O108 O 0.03929 0.44583 0.88284 0.0
O109 O 0.98596 0.39678 0.90758 0.0
O110 O 0.94453 0.43069 0.9047 0.0
O111 O 0.04168 0.46606 0.92693 0.0
H112 H 0.03738 0.36148 0.89906 0.0
H113 H 0.14335 0.49065 0.91486 0.0
O114 O 0.00199 0.50146 0.92337 0.0
O115 O 0.04984 0.54599 0.89717 0.0
O116 O 0.09475 0.51768 0.90261 0.0
C117 C 0.09019 0.55234 0.89933 0.0
H118 H 0.92673 0.5811 0.88212 0.0
H119 H 0.11387 0.35683 0.90232 0.0
Co120 Co 0.55022 0.50862 0.92353 0.0
C121 C 0.53661 0.53233 0.95408 0.0
Co122 Co 0.57403 0.58284 0.92642 0.0
C123 C 0.52193 0.41367 0.93143 0.0
C124 C 0.50636 0.42194 0.90742 0.0
N125 N 0.52723 0.44598 0.9207 0.0
N126 N 0.49802 0.3704 0.92541 0.0
C127 C 0.48846 0.37556 0.91027 0.0
H128 H 0.53372 0.42159 0.9436 0.0
H129 H 0.50294 0.43705 0.89651 0.0
C130 C 0.59211 0.56129 0.89627 0.0
N131 N 0.59581 0.64561 0.92872 0.0
C132 C 0.57068 0.66643 0.93142 0.0
C133 C 0.63951 0.68064 0.92627 0.0
N134 N 0.5967 0.71302 0.9305 0.0
C135 C 0.6402 0.72205 0.92739 0.0
C136 C 0.64036 0.55741 0.93316 0.0
O137 O 0.57291 0.52041 0.90192 0.0
O138 O 0.59383 0.59343 0.90483 0.0
O139 O 0.63358 0.59161 0.93231 0.0
O140 O 0.60737 0.51699 0.93003 0.0
O141 O 0.55514 0.57271 0.94809 0.0
H142 H 0.66872 0.67642 0.92322 0.0
H143 H 0.53351 0.64765 0.93324 0.0
O144 O 0.52981 0.49844 0.9453 0.0
O145 O 0.49215 0.49955 0.91702 0.0
O146 O 0.51392 0.57251 0.92048 0.0
C147 C 0.48256 0.53173 0.9168 0.0
H148 H 0.46964 0.34781 0.90186 0.0
H149 H 0.6703 0.75603 0.92566 0.0
Co150 Co 0.50941 0.03013 0.9445 0.0
C151 C 0.47158 0.98672 0.97394 0.0
Co152 Co 0.43389 0.98019 0.94471 0.0
C153 C 0.60327 0.10609 0.93697 0.0
C154 C 0.60114 0.05967 0.95489 0.0
N155 N 0.57352 0.06873 0.94565 0.0
N156 N 0.64816 0.1202 0.94044 0.0
C157 C 0.64667 0.09119 0.95181 0.0
H158 H 0.59231 0.12131 0.92783 0.0
H159 H 0.5892 0.03073 0.96297 0.0
C160 C 0.46875 0.0257 0.91564 0.0
N161 N 0.36994 0.93839 0.94316 0.0
C162 C 0.34915 0.89202 0.94103 0.0
C163 C 0.33587 0.94828 0.94054 0.0
N164 N 0.30416 0.87284 0.93678 0.0
C165 C 0.29554 0.90819 0.93662 0.0
C166 C 0.45839 0.07096 0.95219 0.0
O167 O 0.50776 0.04751 0.92275 0.0
O168 O 0.43426 0.99338 0.92291 0.0
O169 O 0.4238 0.0307 0.94955 0.0
O170 O 0.49938 0.07768 0.95113 0.0
O171 O 0.43301 0.96773 0.96663 0.0
H172 H 0.34055 0.98274 0.94039 0.0
H173 H 0.3673 0.87284 0.94139 0.0
O174 O 0.50864 0.01296 0.96631 0.0
O175 O 0.52015 0.98281 0.93782 0.0
O176 O 0.44656 0.93149 0.93992 0.0
C177 C 0.48783 0.94111 0.93702 0.0
H178 H 0.67639 0.09222 0.95742 0.0
H179 H 0.26308 0.90575 0.9332 0.0
Co180 Co 0.15689 0.33996 0.41422 0.0
C181 C 0.1651 0.38607 0.38538 0.0
Co182 Co 0.13549 0.39287 0.41505 0.0
C183 C 0.19367 0.27947 0.42273 0.0
C184 C 0.17149 0.27264 0.39854 0.0
N185 N 0.17463 0.29552 0.41211 0.0
N186 N 0.20312 0.24817 0.41614 0.0
C187 C 0.18918 0.24387 0.40094 0.0
H188 H 0.20083 0.29075 0.43496 0.0
H189 H 0.15691 0.27634 0.38754 0.0
C190 C 0.12348 0.34553 0.44362 0.0
N191 N 0.11774 0.43782 0.41732 0.0
C192 C 0.14493 0.48423 0.41932 0.0
C193 C 0.07429 0.42935 0.42014 0.0
N194 N 0.12026 0.50481 0.42346 0.0
C195 C 0.07569 0.47005 0.42385 0.0
C196 C 0.06423 0.30494 0.40723 0.0
O197 O 0.13763 0.32201 0.43595 0.0
O198 O 0.1233 0.37935 0.4368 0.0
O199 O 0.07258 0.34566 0.41043 0.0
O200 O 0.09706 0.29618 0.40764 0.0
O201 O 0.14689 0.40579 0.39304 0.0
H202 H 0.0435 0.39543 0.42048 0.0
H203 H 0.18231 0.50236 0.41831 0.0
O204 O 0.17432 0.35824 0.39261 0.0
O205 O 0.21735 0.38384 0.42072 0.0
O206 O 0.19868 0.43805 0.41965 0.0
C207 C 0.22911 0.42625 0.42183 0.0
H208 H 0.19052 0.22057 0.3923 0.0
H209 H 0.04611 0.47297 0.42746 0.0
Co210 Co 0.72446 0.86452 0.43649 0.0
C211 C 0.68797 0.84283 0.40571 0.0
Co212 Co 0.67463 0.79029 0.43277 0.0
C213 C 0.78945 0.96082 0.42918 0.0
C214 C 0.76752 0.95009 0.45346 0.0
N215 N 0.76368 0.92732 0.43981 0.0
N216 N 0.80873 0.0036 0.43562 0.0
C217 C 0.79521 0.99684 0.45094 0.0
H218 H 0.79243 0.95404 0.4168 0.0
H219 H 0.74997 0.93386 0.46443 0.0
C220 C 0.7136 0.81004 0.46314 0.0
N221 N 0.63411 0.72748 0.43004 0.0
C222 C 0.58853 0.70612 0.42638 0.0
C223 C 0.64249 0.69289 0.4334 0.0
N224 N 0.56785 0.65955 0.42757 0.0
C225 C 0.60194 0.65117 0.43188 0.0
C226 C 0.7672 0.81807 0.42609 0.0
O227 O 0.73541 0.85139 0.45789 0.0
O228 O 0.68334 0.7785 0.4543 0.0
O229 O 0.72632 0.78311 0.42677 0.0
O230 O 0.77392 0.8579 0.42963 0.0
O231 O 0.66645 0.80175 0.41117 0.0
H232 H 0.67541 0.69773 0.43751 0.0
H233 H 0.57061 0.72456 0.42336 0.0
O234 O 0.71417 0.87602 0.41492 0.0
O235 O 0.67469 0.87173 0.44333 0.0
O236 O 0.6239 0.79899 0.43881 0.0
C237 C 0.63283 0.83913 0.44307 0.0
H238 H 0.80436 0.02373 0.45972 0.0
H239 H 0.59753 0.61753 0.43461 0.0
Co240 Co 0.19962 0.89747 0.45608 0.0
C241 C 0.22541 0.90061 0.42422 0.0
Co242 Co 0.27466 0.92621 0.45208 0.0
C243 C 0.10552 0.87195 0.44859 0.0
C244 C 0.11083 0.84457 0.47095 0.0
N245 N 0.13654 0.87212 0.45889 0.0
N246 N 0.0614 0.84488 0.45362 0.0
C247 C 0.06463 0.82782 0.46776 0.0
H248 H 0.11508 0.88981 0.43729 0.0
H249 H 0.1247 0.83592 0.48115 0.0
C250 C 0.2508 0.92839 0.48372 0.0
N251 N 0.33829 0.94989 0.44959 0.0
C252 C 0.35992 0.92587 0.44614 0.0
C253 C 0.37295 0.99282 0.45321 0.0
N254 N 0.40646 0.95158 0.44782 0.0
C255 C 0.41478 0.99399 0.45212 0.0
C256 C 0.24658 0.99195 0.45106 0.0
O257 O 0.20957 0.9091 0.47835 0.0
O258 O 0.28376 0.93601 0.47432 0.0
O259 O 0.28203 0.98706 0.4498 0.0
O260 O 0.20701 0.95669 0.45368 0.0
O261 O 0.26601 0.91799 0.42997 0.0
H262 H 0.36813 0.02088 0.45722 0.0
H263 H 0.34173 0.88934 0.44337 0.0
O264 O 0.19101 0.8877 0.43356 0.0
O265 O 0.19143 0.83783 0.45842 0.0
O266 O 0.26509 0.86428 0.45405 0.0
C267 C 0.22462 0.83011 0.45648 0.0
H268 H 0.03573 0.80463 0.47523 0.0
H269 H 0.44846 0.02345 0.45484 0.0
Co270 Co 0.64932 0.83357 0.25631 0.0
C271 C 0.68467 0.84726 0.28722 0.0
Co272 Co 0.69954 0.80995 0.25999 0.0
C273 C 0.58258 0.86199 0.26353 0.0
C274 C 0.60708 0.877 0.23955 0.0
N275 N 0.60985 0.85646 0.25296 0.0
N276 N 0.56341 0.88575 0.25729 0.0
C277 C 0.57854 0.89497 0.24217 0.0
H278 H 0.57843 0.85052 0.27574 0.0
H279 H 0.62595 0.88019 0.22873 0.0
C280 C 0.66205 0.79176 0.22949 0.0
N281 N 0.74011 0.78799 0.26283 0.0
C282 C 0.7862 0.81302 0.26552 0.0
C283 C 0.73111 0.74422 0.26071 0.0
N284 N 0.80655 0.78688 0.26487 0.0
C285 C 0.77183 0.7434 0.26198 0.0
C286 C 0.60703 0.74401 0.26628 0.0
O287 O 0.63962 0.81063 0.23472 0.0
O288 O 0.69191 0.79028 0.23845 0.0
O289 O 0.64811 0.75065 0.26573 0.0
O290 O 0.59983 0.77677 0.26276 0.0
O291 O 0.7069 0.82871 0.28162 0.0
H292 H 0.69754 0.71506 0.2577 0.0
H293 H 0.80492 0.85019 0.26704 0.0
O294 O 0.65832 0.85416 0.27807 0.0
O295 O 0.69901 0.89145 0.2499 0.0
O296 O 0.75007 0.86994 0.25423 0.0
C297 C 0.74096 0.90115 0.25017 0.0
H298 H 0.5699 0.91365 0.23362 0.0
H299 H 0.7756 0.7133 0.26042 0.0
Co300 Co 0.21201 0.8757 0.27701 0.0
C301 C 0.20728 0.91507 0.3062 0.0
Co302 Co 0.23775 0.95102 0.27676 0.0
C303 C 0.19329 0.78151 0.27008 0.0
C304 C 0.14937 0.78466 0.28798 0.0
N305 N 0.186 0.81169 0.27856 0.0
N306 N 0.16239 0.73691 0.27385 0.0
C307 C 0.13509 0.73906 0.2852 0.0
H308 H 0.21939 0.79196 0.26089 0.0
H309 H 0.13262 0.79705 0.29598 0.0
C310 C 0.2471 0.91446 0.24789 0.0
N311 N 0.26047 0.01453 0.27468 0.0
C312 C 0.23545 0.03626 0.27407 0.0
C313 C 0.30303 0.04633 0.26947 0.0
N314 N 0.26011 0.07977 0.26819 0.0
C315 C 0.30296 0.08626 0.26552 0.0
C316 C 0.30424 0.92675 0.28434 0.0
O317 O 0.23018 0.87596 0.25525 0.0
O318 O 0.24985 0.94926 0.255 0.0
O319 O 0.29852 0.96111 0.28156 0.0
O320 O 0.26984 0.88579 0.2835 0.0
O321 O 0.22669 0.95319 0.29865 0.0
H322 H 0.33124 0.03976 0.26736 0.0
H323 H 0.199 0.01948 0.27703 0.0
O324 O 0.19634 0.87776 0.29881 0.0
O325 O 0.15383 0.86518 0.27046 0.0
O326 O 0.1765 0.93882 0.272 0.0
C327 C 0.14464 0.8975 0.26938 0.0
H328 H 0.10637 0.70975 0.29101 0.0
H329 H 0.33144 0.11625 0.25992 0.0
Co330 Co 0.17984 0.38775 0.23523 0.0
C331 C 0.15345 0.36329 0.26697 0.0
Co332 Co 0.10457 0.34374 0.23907 0.0
C333 C 0.27411 0.45447 0.24283 0.0
C334 C 0.26856 0.42149 0.22051 0.0
N335 N 0.243 0.42386 0.2325 0.0
N336 N 0.31817 0.47094 0.23788 0.0
C337 C 0.31485 0.45044 0.22378 0.0
H338 H 0.26457 0.46318 0.25405 0.0
H339 H 0.25447 0.39914 0.21027 0.0
C340 C 0.12879 0.37176 0.20765 0.0
N341 N 0.04071 0.3053 0.24154 0.0
C342 C 0.01806 0.25985 0.24539 0.0
C343 C 0.00685 0.31444 0.23768 0.0
N344 N 0.97157 0.23986 0.24373 0.0
C345 C 0.96442 0.2744 0.23903 0.0
C346 C 0.13676 0.43824 0.24125 0.0
O347 O 0.17006 0.39269 0.21303 0.0
O348 O 0.09569 0.3458 0.21691 0.0
O349 O 0.09971 0.39872 0.24174 0.0
O350 O 0.17533 0.44037 0.23876 0.0
O351 O 0.11289 0.34275 0.26109 0.0
H352 H 0.01264 0.34745 0.23338 0.0
H353 H 0.03551 0.24104 0.24847 0.0
O354 O 0.18833 0.38353 0.25772 0.0
O355 O 0.18545 0.3355 0.23178 0.0
O356 O 0.11179 0.28995 0.23671 0.0
C357 C 0.15151 0.29502 0.23375 0.0
H358 H 0.34373 0.45588 0.21637 0.0
H359 H 0.93111 0.2709 0.23622 0.0
Co360 Co 0.82723 0.64701 0.76871 0.0
C361 C 0.83927 0.6845 0.73836 0.0
Co362 Co 0.80353 0.69753 0.76654 0.0
C363 C 0.85608 0.58056 0.76065 0.0
C364 C 0.8705 0.60382 0.78475 0.0
N365 N 0.85002 0.60709 0.77139 0.0
N366 N 0.88011 0.56148 0.76677 0.0
C367 C 0.88894 0.57585 0.78196 0.0
H368 H 0.84486 0.57691 0.74842 0.0
H369 H 0.87343 0.62207 0.79569 0.0
C370 C 0.78654 0.65818 0.79647 0.0
N371 N 0.7821 0.7388 0.76448 0.0
C372 C 0.80745 0.78479 0.76175 0.0
C373 C 0.73866 0.73046 0.76723 0.0
N374 N 0.78187 0.80569 0.76297 0.0
C375 C 0.73838 0.77141 0.76628 0.0
C376 C 0.73681 0.60608 0.75957 0.0
O377 O 0.80401 0.63532 0.79044 0.0
O378 O 0.78574 0.68947 0.78816 0.0
O379 O 0.74351 0.64689 0.76115 0.0
O380 O 0.77004 0.59856 0.762 0.0
O381 O 0.82014 0.7051 0.74482 0.0
H382 H 0.70941 0.69711 0.7704 0.0
H383 H 0.84453 0.803 0.75973 0.0
O384 O 0.84822 0.65835 0.74686 0.0
O385 O 0.8851 0.69546 0.77535 0.0
O386 O 0.86432 0.74731 0.77196 0.0
C387 C 0.89536 0.73742 0.77555 0.0
H388 H 0.90769 0.56704 0.79044 0.0
H389 H 0.70862 0.77562 0.76829 0.0
Co390 Co 0.38272 0.17941 0.79223 0.0
C391 C 0.35784 0.15137 0.76058 0.0
Co392 Co 0.33729 0.10451 0.78883 0.0
C393 C 0.44945 0.27283 0.78388 0.0
C394 C 0.41818 0.26862 0.80649 0.0
N395 N 0.41948 0.24243 0.79454 0.0
N396 N 0.46657 0.31706 0.78858 0.0
C397 C 0.44717 0.31456 0.80287 0.0
H398 H 0.45718 0.26265 0.77261 0.0
H399 H 0.39649 0.2552 0.81693 0.0
C400 C 0.36565 0.12981 0.82018 0.0
N401 N 0.29855 0.0412 0.78685 0.0
C402 C 0.25447 0.01922 0.78144 0.0
C403 C 0.30489 0.00746 0.79292 0.0
N404 N 0.23243 0.97322 0.78428 0.0
C405 C 0.26436 0.96566 0.79136 0.0
C406 C 0.4317 0.13473 0.78689 0.0
O407 O 0.3874 0.17076 0.81459 0.0
O408 O 0.33906 0.0968 0.81105 0.0
O409 O 0.39159 0.09845 0.78643 0.0
O410 O 0.43513 0.17387 0.78911 0.0
O411 O 0.33639 0.1114 0.7668 0.0
H412 H 0.33593 0.01324 0.79902 0.0
H413 H 0.23829 0.03705 0.77612 0.0
O414 O 0.3789 0.18668 0.76954 0.0
O415 O 0.33052 0.18601 0.79525 0.0
O416 O 0.28379 0.11243 0.79082 0.0
C417 C 0.28963 0.15256 0.79332 0.0
H418 H 0.45331 0.34375 0.81018 0.0
H419 H 0.25814 0.93286 0.79605 0.0
Co420 Co 0.86895 0.20957 0.74935 0.0
C421 C 0.90351 0.20226 0.71931 0.0
Co422 Co 0.94438 0.23496 0.74788 0.0
C423 C 0.7743 0.19267 0.75569 0.0
C424 C 0.77777 0.14218 0.74104 0.0
N425 N 0.80468 0.18249 0.7487 0.0
N426 N 0.72958 0.16011 0.75258 0.0
C427 C 0.73208 0.12846 0.74338 0.0
H428 H 0.78487 0.22288 0.76305 0.0
H429 H 0.79055 0.12287 0.73457 0.0
C430 C 0.91158 0.24707 0.77748 0.0
N431 N 0.00852 0.25826 0.74897 0.0
C432 C 0.03045 0.23347 0.74994 0.0
C433 C 0.04083 0.3014 0.75342 0.0
N434 N 0.0745 0.2588 0.75537 0.0
C435 C 0.08119 0.30187 0.75731 0.0
C436 C 0.9181 0.30049 0.74066 0.0
O437 O 0.87167 0.2287 0.77097 0.0
O438 O 0.94551 0.24968 0.76969 0.0
O439 O 0.95312 0.29505 0.74252 0.0
O440 O 0.87735 0.26644 0.74272 0.0
O441 O 0.94322 0.22109 0.72589 0.0
H442 H 0.03434 0.32974 0.75517 0.0
H443 H 0.01344 0.19673 0.74765 0.0
O444 O 0.86807 0.19308 0.72763 0.0
O445 O 0.86012 0.15208 0.75609 0.0
O446 O 0.93351 0.17459 0.75322 0.0
C447 C 0.89262 0.143 0.75662 0.0
H448 H 0.70303 0.09645 0.7391 0.0
H449 H 0.11161 0.33099 0.76244 0.0
Co450 Co 0.33689 0.15021 0.6126 0.0
C451 C 0.37948 0.15902 0.64205 0.0
Co452 Co 0.39073 0.13038 0.61262 0.0
C453 C 0.27581 0.18569 0.60327 0.0
C454 C 0.26442 0.15898 0.62698 0.0
N455 N 0.29039 0.16534 0.61389 0.0
N456 N 0.24242 0.19286 0.60941 0.0
C457 C 0.23522 0.17604 0.6243 0.0
H458 H 0.28979 0.1956 0.59139 0.0
H459 H 0.26654 0.14288 0.63784 0.0
C460 C 0.3468 0.11807 0.58346 0.0
N461 N 0.43801 0.11608 0.61166 0.0
C462 C 0.47678 0.13683 0.60257 0.0
C463 C 0.44145 0.0832 0.61982 0.0
N464 N 0.50421 0.11822 0.60471 0.0
C465 C 0.48195 0.0843 0.61553 0.0
C466 C 0.30344 0.05738 0.61938 0.0
O467 O 0.3215 0.13064 0.59084 0.0
O468 O 0.38094 0.11925 0.59062 0.0
O469 O 0.34467 0.06644 0.61636 0.0
O470 O 0.29411 0.08979 0.61909 0.0
O471 O 0.3998 0.14067 0.63486 0.0
H472 H 0.41631 0.06012 0.62841 0.0
H473 H 0.48451 0.16478 0.59438 0.0
O474 O 0.35255 0.16836 0.63428 0.0
O475 O 0.37977 0.21099 0.60612 0.0
O476 O 0.43521 0.19431 0.60881 0.0
C477 C 0.42267 0.22381 0.60588 0.0
H478 H 0.20984 0.17522 0.63254 0.0
H479 H 0.49448 0.06245 0.62025 0.0
Co480 Co 0.89417 0.19072 0.56895 0.0
C481 C 0.89335 0.21351 0.60098 0.0
Co482 Co 0.92014 0.26467 0.57358 0.0
C483 C 0.87039 0.09715 0.57582 0.0
C484 C 0.84284 0.10294 0.55355 0.0
N485 N 0.87011 0.12826 0.56571 0.0
N486 N 0.8438 0.05333 0.57059 0.0
C487 C 0.82665 0.05684 0.55651 0.0
H488 H 0.88805 0.10636 0.58715 0.0
H489 H 0.83386 0.11696 0.54348 0.0
C490 C 0.92624 0.2436 0.5418 0.0
N491 N 0.94285 0.32765 0.5765 0.0
C492 C 0.91811 0.34855 0.57989 0.0
C493 C 0.98606 0.36272 0.57334 0.0
N494 N 0.94371 0.39509 0.57862 0.0
C495 C 0.98672 0.40413 0.57465 0.0
C496 C 0.98795 0.2388 0.57487 0.0
O497 O 0.90574 0.20199 0.54673 0.0
O498 O 0.93358 0.27572 0.55151 0.0
O499 O 0.98112 0.27273 0.57695 0.0
O500 O 0.95404 0.19944 0.57115 0.0
O501 O 0.90793 0.25403 0.59558 0.0
H502 H 0.01471 0.35851 0.5695 0.0
H503 H 0.88124 0.3299 0.5823 0.0
O504 O 0.88481 0.18072 0.59141 0.0
O505 O 0.83341 0.18116 0.56684 0.0
O506 O 0.85842 0.25466 0.57046 0.0
C507 C 0.82475 0.21384 0.56826 0.0
H508 H 0.80363 0.02819 0.54896 0.0
H509 H 0.01625 0.43806 0.57229 0.0
Co510 Co 0.86274 0.71624 0.5888 0.0
C511 C 0.83774 0.67954 0.61928 0.0
Co512 Co 0.78769 0.6674 0.59147 0.0
C513 C 0.95986 0.78069 0.59638 0.0
C514 C 0.94888 0.75876 0.57212 0.0
N515 N 0.92611 0.75511 0.58577 0.0
N516 N 0.00275 0.79967 0.58987 0.0
C517 C 0.99578 0.7861 0.57457 0.0
H518 H 0.9532 0.78383 0.60876 0.0
H519 H 0.93253 0.74136 0.56116 0.0
C520 C 0.80974 0.70633 0.56145 0.0
N521 N 0.72441 0.62719 0.59398 0.0
C522 C 0.70283 0.58158 0.59748 0.0
C523 C 0.68975 0.63607 0.59126 0.0
N524 N 0.65609 0.56135 0.59685 0.0
C525 C 0.64782 0.5958 0.59304 0.0
C526 C 0.816 0.75951 0.59838 0.0
O527 O 0.85058 0.72844 0.56725 0.0
O528 O 0.77738 0.67537 0.56987 0.0
O529 O 0.78061 0.71922 0.59688 0.0
O530 O 0.85625 0.76562 0.59581 0.0
O531 O 0.79747 0.66015 0.61313 0.0
H532 H 0.69458 0.66932 0.5877 0.0
H533 H 0.72123 0.56319 0.59978 0.0
O534 O 0.8729 0.70438 0.61052 0.0
O535 O 0.86971 0.66671 0.5818 0.0
O536 O 0.79648 0.61649 0.58604 0.0
C537 C 0.83676 0.62512 0.58194 0.0
H538 H 0.02265 0.79508 0.56576 0.0
H539 H 0.61399 0.59227 0.59136 0.0
H540 H 0.47989 0.845 0.09967 0.0
H541 H 0.63645 0.72669 0.09979 0.0
H542 H 0.61066 0.90033 0.12433 0.0
H543 H 0.49597 0.66201 0.08216 0.0
H544 H 0.63632 0.79966 0.10262 0.0
H545 H 0.49386 0.78694 0.08743 0.0
C546 C 0.51181 0.84533 0.10237 0.0
C547 C 0.54375 0.87707 0.11328 0.0
C548 C 0.60591 0.76973 0.09782 0.0
C549 C 0.55983 0.81046 0.09938 0.0
C550 C 0.60613 0.72825 0.09606 0.0
C551 C 0.56587 0.68826 0.091 0.0
C552 C 0.5652 0.77093 0.09442 0.0
C553 C 0.52745 0.69199 0.08637 0.0
C554 C 0.51973 0.81208 0.0954 0.0
C555 C 0.5845 0.87574 0.11634 0.0
N556 N 0.52782 0.73243 0.0884 0.0
N557 N 0.59117 0.84266 0.10955 0.0
H558 H 0.35816 0.86426 0.13167 0.0
H559 H 0.15878 0.73199 0.06983 0.0
H560 H 0.31551 0.93736 0.09997 0.0
H561 H 0.16702 0.66714 0.11294 0.0
H562 H 0.21365 0.80791 0.08098 0.0
H563 H 0.2868 0.79218 0.12561 0.0
C564 C 0.33341 0.86514 0.12355 0.0
C565 C 0.34285 0.90664 0.11617 0.0
C566 C 0.20284 0.77721 0.08814 0.0
C567 C 0.26141 0.82414 0.109 0.0
C568 C 0.17173 0.73397 0.08177 0.0
C569 C 0.15887 0.69345 0.09046 0.0
C570 C 0.22203 0.77983 0.10319 0.0
C571 C 0.17613 0.69766 0.1059 0.0
C572 C 0.29258 0.82403 0.12015 0.0
C573 C 0.30949 0.906 0.10587 0.0
N574 N 0.2076 0.74009 0.11168 0.0
N575 N 0.27054 0.86514 0.10234 0.0
H576 H 0.08282 0.38393 0.08832 0.0
H577 H 0.35701 0.53388 0.0762 0.0
H578 H 0.15167 0.50187 0.0571 0.0
H579 H 0.29007 0.42313 0.11036 0.0
H580 H 0.28113 0.51143 0.06489 0.0
H581 H 0.15679 0.38572 0.09195 0.0
C582 C 0.11313 0.40913 0.08181 0.0
C583 C 0.11144 0.44314 0.07256 0.0
C584 C 0.28307 0.49173 0.07477 0.0
C585 C 0.196 0.44613 0.0769 0.0
C586 C 0.32648 0.5045 0.08121 0.0
C587 C 0.32996 0.481 0.09447 0.0
C588 C 0.24275 0.45525 0.08164 0.0
C589 C 0.28902 0.44314 0.10044 0.0
C590 C 0.15545 0.41052 0.08401 0.0
C591 C 0.15175 0.47537 0.0645 0.0
N592 N 0.24712 0.43177 0.09411 0.0
N593 N 0.19252 0.47652 0.06704 0.0
H594 H 0.84904 0.48526 0.92554 0.0
H595 H 0.72358 0.63479 0.92639 0.0
H596 H 0.9009 0.61547 0.90091 0.0
H597 H 0.66329 0.4951 0.94418 0.0
H598 H 0.79793 0.63729 0.92315 0.0
H599 H 0.79015 0.49727 0.93813 0.0
C600 C 0.84849 0.51669 0.92291 0.0
C601 C 0.87959 0.54906 0.91194 0.0
C602 C 0.76866 0.60649 0.92808 0.0
C603 C 0.81173 0.56279 0.92622 0.0
C604 C 0.7264 0.60521 0.93007 0.0
C605 C 0.68723 0.56438 0.93529 0.0
C606 C 0.77145 0.56672 0.93142 0.0
C607 C 0.69259 0.52697 0.93986 0.0
C608 C 0.8147 0.52347 0.93009 0.0
C609 C 0.87689 0.58903 0.90896 0.0
N610 N 0.73376 0.52879 0.9376 0.0
N611 N 0.84322 0.59455 0.91594 0.0
H612 H 0.38613 0.08177 0.94224 0.0
H613 H 0.54241 0.35625 0.94987 0.0
H614 H 0.51823 0.15277 0.96629 0.0
H615 H 0.42264 0.28638 0.91939 0.0
H616 H 0.52315 0.28158 0.96146 0.0
H617 H 0.3878 0.15568 0.93964 0.0
C618 C 0.41477 0.11266 0.94739 0.0
C619 C 0.45248 0.11147 0.95424 0.0
C620 C 0.50079 0.28266 0.95236 0.0
C621 C 0.45499 0.19583 0.95112 0.0
C622 C 0.51172 0.3253 0.94577 0.0
C623 C 0.48465 0.32741 0.93342 0.0
C624 C 0.46251 0.24189 0.94655 0.0
C625 C 0.44522 0.28617 0.92857 0.0
C626 C 0.41593 0.15487 0.94578 0.0
C627 C 0.48882 0.15244 0.96068 0.0
N628 N 0.4356 0.24503 0.93502 0.0
N629 N 0.48951 0.19309 0.95876 0.0
H630 H 0.65906 0.19862 0.92666 0.0
H631 H 0.93403 0.30952 0.91641 0.0
H632 H 0.73206 0.12584 0.9377 0.0
H633 H 0.85872 0.3792 0.90408 0.0
H634 H 0.85987 0.23957 0.92257 0.0
H635 H 0.73147 0.26311 0.91638 0.0
C636 C 0.69016 0.19602 0.92679 0.0
C637 C 0.68958 0.15708 0.93327 0.0
C638 C 0.8597 0.27016 0.91841 0.0
C639 C 0.77271 0.23081 0.9217 0.0
C640 C 0.90199 0.31 0.91489 0.0
C641 C 0.90263 0.35035 0.90988 0.0
C642 C 0.81796 0.27087 0.9169 0.0
C643 C 0.86004 0.34905 0.90806 0.0
C644 C 0.73159 0.23291 0.921 0.0
C645 C 0.73107 0.15566 0.9332 0.0
N646 N 0.81957 0.31013 0.91165 0.0
N647 N 0.77097 0.19209 0.92762 0.0
H648 H 0.19065 0.02051 0.4641 0.0
H649 H 0.2628 0.22448 0.40356 0.0
H650 H 0.30938 0.06637 0.43332 0.0
H651 H 0.18294 0.21033 0.44558 0.0
H652 H 0.28281 0.1689 0.41459 0.0
H653 H 0.18912 0.09123 0.45809 0.0
C654 C 0.21676 0.04582 0.4562 0.0
C655 C 0.24995 0.03747 0.44907 0.0
C656 C 0.26159 0.17851 0.42154 0.0
C657 C 0.24797 0.11824 0.44195 0.0
C658 C 0.25005 0.21004 0.41523 0.0
C659 C 0.22088 0.22156 0.42364 0.0
C660 C 0.243 0.15758 0.43624 0.0
C661 C 0.20558 0.20235 0.43876 0.0
C662 C 0.21598 0.08628 0.45283 0.0
C663 C 0.2832 0.07153 0.43904 0.0
N664 N 0.21611 0.1706 0.44447 0.0
N665 N 0.28086 0.11013 0.43554 0.0
H666 H 0.98457 0.29399 0.42079 0.0
H667 H 0.86279 0.02064 0.40948 0.0
H668 H 0.03642 0.22587 0.39053 0.0
H669 H 0.81892 0.08698 0.44375 0.0
H670 H 0.91547 0.09628 0.39787 0.0
H671 H 0.9124 0.21985 0.42434 0.0
C672 C 0.98008 0.26378 0.41446 0.0
C673 C 0.01657 0.26573 0.40554 0.0
C674 C 0.89396 0.09425 0.40784 0.0
C675 C 0.93499 0.18101 0.40978 0.0
C676 C 0.86376 0.05099 0.41445 0.0
C677 C 0.83703 0.04746 0.42782 0.0
C678 C 0.89757 0.13435 0.41466 0.0
C679 C 0.83984 0.08814 0.43375 0.0
C680 C 0.93914 0.22138 0.41662 0.0
C681 C 0.00923 0.22557 0.39768 0.0
N682 N 0.86995 0.12991 0.42724 0.0
N683 N 0.96958 0.18471 0.40018 0.0
H684 H 0.05134 0.89927 0.43194 0.0
H685 H 0.77565 0.74217 0.43222 0.0
H686 H 0.97594 0.76823 0.45636 0.0
H687 H 0.85158 0.8825 0.41471 0.0
H688 H 0.84903 0.74233 0.43477 0.0
H689 H 0.97908 0.88496 0.41965 0.0
C690 C 0.01972 0.86722 0.43458 0.0
C691 C 0.0196 0.83531 0.44544 0.0
C692 C 0.84947 0.7727 0.43003 0.0
C693 C 0.93661 0.81886 0.4315 0.0
C694 C 0.8076 0.77245 0.42845 0.0
C695 C 0.80788 0.81268 0.42352 0.0
C696 C 0.8915 0.81339 0.4266 0.0
C697 C 0.85011 0.85106 0.41882 0.0
C698 C 0.97841 0.8591 0.42758 0.0
C699 C 0.97745 0.79438 0.44841 0.0
N700 N 0.89034 0.85072 0.4207 0.0
N701 N 0.93754 0.78754 0.44161 0.0
H702 H 0.3872 0.99834 0.27381 0.0
H703 H 0.50535 0.84281 0.28207 0.0
H704 H 0.32678 0.86808 0.29886 0.0
H705 H 0.55444 0.96042 0.25069 0.0
H706 H 0.45059 0.86288 0.2937 0.0
H707 H 0.45954 0.9966 0.27104 0.0
C708 C 0.38965 0.97012 0.27914 0.0
C709 C 0.35087 0.93289 0.28632 0.0
C710 C 0.4737 0.88459 0.28438 0.0
C711 C 0.4328 0.93029 0.28302 0.0
C712 C 0.50505 0.87319 0.27777 0.0
C713 C 0.53384 0.89942 0.26517 0.0
C714 C 0.47112 0.92246 0.27835 0.0
C715 C 0.53194 0.93846 0.26006 0.0
C716 C 0.43075 0.96892 0.27744 0.0
C717 C 0.35574 0.89708 0.29299 0.0
N718 N 0.50074 0.94853 0.26656 0.0
N719 N 0.39573 0.89631 0.29097 0.0
H720 H 0.22951 0.72547 0.25984 0.0
H721 H 0.06455 0.45059 0.25102 0.0
H722 H 0.08385 0.65271 0.27197 0.0
H723 H 0.20935 0.52585 0.23765 0.0
H724 H 0.06904 0.52461 0.2572 0.0
H725 H 0.22112 0.65289 0.24988 0.0
C726 C 0.19573 0.69439 0.26029 0.0
C727 C 0.15756 0.69517 0.26697 0.0
C728 C 0.0997 0.5248 0.25281 0.0
C729 C 0.14763 0.61176 0.25574 0.0
C730 C 0.09708 0.48258 0.24926 0.0
C731 C 0.13666 0.48196 0.24395 0.0
C732 C 0.14218 0.56649 0.25101 0.0
C733 C 0.17797 0.5245 0.24186 0.0
C734 C 0.19093 0.65285 0.25468 0.0
C735 C 0.11455 0.65363 0.26731 0.0
N736 N 0.17968 0.56487 0.24547 0.0
N737 N 0.11083 0.61363 0.26187 0.0
H738 H 0.52291 0.72238 0.2783 0.0
H739 H 0.40328 0.47902 0.23563 0.0
H740 H 0.59956 0.6606 0.25938 0.0
H741 H 0.3284 0.53685 0.2589 0.0
H742 H 0.47502 0.53896 0.2478 0.0
H743 H 0.45133 0.64816 0.2758 0.0
C744 C 0.52468 0.69276 0.27395 0.0
C745 C 0.56686 0.69757 0.26878 0.0
C746 C 0.44278 0.53813 0.25042 0.0
C747 C 0.48513 0.61297 0.26544 0.0
C748 C 0.4019 0.50422 0.24334 0.0
C749 C 0.35993 0.50347 0.24601 0.0
C750 C 0.4417 0.57176 0.26012 0.0
C751 C 0.35991 0.53614 0.25647 0.0
C752 C 0.48382 0.65042 0.27247 0.0
C753 C 0.56755 0.65822 0.2634 0.0
N754 N 0.40027 0.56931 0.26296 0.0
N755 N 0.52699 0.61765 0.26151 0.0
H756 H 0.95745 0.55646 0.77254 0.0
H757 H 0.85824 0.32074 0.72578 0.0
H758 H 0.83554 0.50048 0.74293 0.0
H759 H 0.98909 0.38443 0.75062 0.0
H760 H 0.85669 0.39273 0.72798 0.0
H761 H 0.97622 0.5004 0.76139 0.0
C762 C 0.93474 0.53246 0.76362 0.0
C763 C 0.89432 0.53241 0.75889 0.0
C764 C 0.88628 0.39145 0.73267 0.0
C765 C 0.9157 0.46826 0.74599 0.0
C766 C 0.88724 0.35038 0.73137 0.0
C767 C 0.92356 0.3466 0.73822 0.0
C768 C 0.92144 0.42871 0.74118 0.0
C769 C 0.96041 0.38598 0.74522 0.0
C770 C 0.94569 0.50072 0.75715 0.0
C771 C 0.86687 0.50149 0.74696 0.0
N772 N 0.95792 0.4252 0.74684 0.0
N773 N 0.87765 0.47014 0.7411 0.0
H774 H 0.65369 0.60008 0.76647 0.0
H775 H 0.52894 0.32534 0.7662 0.0
H776 H 0.71367 0.52148 0.74779 0.0
H777 H 0.47687 0.40285 0.79118 0.0
H778 H 0.58677 0.39645 0.75336 0.0
H779 H 0.57905 0.52817 0.76912 0.0
C780 C 0.65078 0.56787 0.76249 0.0
C781 C 0.68993 0.56636 0.75723 0.0
C782 C 0.56236 0.39785 0.76153 0.0
C783 C 0.60536 0.48442 0.76041 0.0
C784 C 0.5292 0.35716 0.76885 0.0
C785 C 0.49852 0.35822 0.78003 0.0
C786 C 0.56512 0.43999 0.76549 0.0
C787 C 0.50069 0.40064 0.78299 0.0
C788 C 0.60832 0.52685 0.76412 0.0
C789 C 0.68441 0.52387 0.75221 0.0
N790 N 0.53384 0.43998 0.7759 0.0
N791 N 0.64305 0.48444 0.75416 0.0
H792 H 0.44175 0.06879 0.77084 0.0
H793 H 0.71889 0.2042 0.77818 0.0
H794 H 0.51908 0.19748 0.7964 0.0
H795 H 0.64276 0.10866 0.74031 0.0
H796 H 0.64558 0.19463 0.78829 0.0
H797 H 0.51531 0.0735 0.76343 0.0
C798 C 0.47413 0.09756 0.77509 0.0
C799 C 0.47448 0.13298 0.7841 0.0
C800 C 0.64518 0.17571 0.77779 0.0
C801 C 0.55831 0.13872 0.77569 0.0
C802 C 0.68706 0.18141 0.77194 0.0
C803 C 0.6873 0.15697 0.75841 0.0
C804 C 0.6033 0.14508 0.77015 0.0
C805 C 0.64457 0.1275 0.75096 0.0
C806 C 0.51603 0.10046 0.77077 0.0
C807 C 0.51738 0.16968 0.78927 0.0
N808 N 0.60443 0.12226 0.75696 0.0
N809 N 0.55761 0.1717 0.78495 0.0
H810 H 0.05935 0.30058 0.59385 0.0
H811 H 0.21067 0.17829 0.57916 0.0
H812 H 0.02114 0.18751 0.56122 0.0
H813 H 0.21519 0.24918 0.62243 0.0
H814 H 0.15578 0.1997 0.56806 0.0
H815 H 0.13097 0.29959 0.60008 0.0
C816 C 0.06646 0.27618 0.5878 0.0
C817 C 0.03411 0.24365 0.57719 0.0
C818 C 0.16942 0.21118 0.57989 0.0
C819 C 0.11563 0.24259 0.58411 0.0
C820 C 0.20088 0.19925 0.58615 0.0
C821 C 0.21683 0.21155 0.60177 0.0
C822 C 0.15444 0.23604 0.58927 0.0
C823 C 0.20297 0.23847 0.61043 0.0
C824 C 0.10713 0.27551 0.59139 0.0
C825 C 0.04491 0.21273 0.56966 0.0
N826 N 0.17231 0.24958 0.60411 0.0
N827 N 0.08462 0.21279 0.57332 0.0
H828 H 0.74034 0.7684 0.59196 0.0
H829 H 0.89831 0.04312 0.5922 0.0
H830 H 0.88073 0.84371 0.60974 0.0
H831 H 0.76708 0.96814 0.56774 0.0
H832 H 0.88375 0.97102 0.60454 0.0
H833 H 0.74076 0.84164 0.58936 0.0
C834 C 0.77073 0.80019 0.59575 0.0
C835 C 0.81091 0.80032 0.60076 0.0
C836 C 0.85792 0.97041 0.59658 0.0
C837 C 0.81188 0.88379 0.59762 0.0
C838 C 0.86618 0.01161 0.58955 0.0
C839 C 0.83427 0.01154 0.57869 0.0
C840 C 0.81753 0.92878 0.59268 0.0
C841 C 0.79324 0.96958 0.5757 0.0
C842 C 0.7711 0.84197 0.59414 0.0
C843 C 0.84935 0.84234 0.60553 0.0
N844 N 0.78624 0.92976 0.58254 0.0
N845 N 0.84915 0.88252 0.60361 0.0
H846 H 0.22544 0.02784 0.63699 0.0
H847 H 0.08551 0.80769 0.58188 0.0
H848 H 0.29118 0.97943 0.60422 0.0
H849 H 0.0214 0.85614 0.61539 0.0
H850 H 0.16136 0.86184 0.59306 0.0
H851 H 0.1519 0.95614 0.63311 0.0
C852 C 0.22459 0.00139 0.62932 0.0
C853 C 0.26425 0.0096 0.62081 0.0
C854 C 0.13069 0.8603 0.5981 0.0
C855 C 0.17982 0.92805 0.61588 0.0
C856 C 0.08734 0.82964 0.59163 0.0
C857 C 0.04702 0.82801 0.59749 0.0
C858 C 0.13396 0.88987 0.61049 0.0
C859 C 0.05147 0.85631 0.61045 0.0
C860 C 0.1825 0.96057 0.62701 0.0
C861 C 0.26137 0.97432 0.61102 0.0
N862 N 0.0942 0.88649 0.61637 0.0
N863 N 0.21954 0.9354 0.60855 0.0
H864 H 0.43088 0.03448 0.07008 0.0
H865 H 0.54596 0.00464 0.99281 0.0
H866 H 0.53397 0.99291 0.07429 0.0
H867 H 0.40077 0.96351 0.99491 0.0
H868 H 0.54951 0.01023 0.02194 0.0
H869 H 0.42759 0.02097 0.04153 0.0
C870 C 0.45325 0.02299 0.06498 0.0
C871 C 0.4829 0.01497 0.07458 0.0
C872 C 0.51683 -0.00061 0.01597 0.0
C873 C 0.47921 -0.0005 0.04185 0.0
C874 C 0.51473 0.99617 0.9994 0.0
C875 C 0.47298 0.9836 0.99143 0.0
C876 C 0.47727 0.99121 0.02453 0.0
C877 C 0.4336 0.97312 1.00054 0.0
C878 C 0.45097 0.01486 0.0487 0.0
C879 C 0.51068 -0.00044 0.0673 0.0
N880 N 0.4369 0.97792 0.01658 0.0
N881 N 0.50849 0.99268 0.05129 0.0
H882 H 0.00261 0.54459 0.95046 0.0
H883 H 0.96596 0.40349 0.03045 0.0
H884 H 0.02969 0.43146 0.95461 0.0
H885 H 0.01941 0.551 0.03188 0.0
H886 H 0.97004 0.4073 1.00146 0.0
H887 H 0.99207 0.5425 0.97952 0.0
C888 C 0.00649 0.51953 0.95746 0.0
C889 C 0.01744 0.48843 0.95014 0.0
C890 C 0.98044 0.43873 1.00814 0.0
C891 C 0.00405 0.48497 0.98303 0.0
C892 C 0.9778 0.43656 0.02467 0.0
C893 C 0.9926 0.47704 0.0336 0.0
C894 C 0.99721 0.4815 1.00044 0.0
C895 C 0.00791 0.51901 0.02543 0.0
C896 C 0.00045 0.51835 0.97397 0.0
C897 C 0.02179 0.45643 0.95974 0.0
N898 N 0.00983 0.52021 1.00928 0.0
N899 N 0.01467 0.45526 0.97563 0.0
H900 H 0.51104 0.5808 0.97379 0.0
H901 H 0.58706 0.51539 0.05276 0.0
H902 H 0.54325 0.47085 0.97382 0.0
H903 H 0.47272 0.54146 0.0532 0.0
H904 H 0.5802 0.50713 0.02374 0.0
H905 H 0.50476 0.57568 1.00289 0.0
C906 C 0.51627 0.55526 0.97992 0.0
C907 C 0.52743 0.52604 0.97139 0.0
C908 C 0.5563 0.5141 0.03024 0.0
C909 C 0.52175 0.52106 1.00461 0.0
C910 C 0.56023 0.5189 0.04676 0.0
C911 C 0.53026 0.52891 0.05539 0.0
C912 C 0.52323 0.5209 0.02224 0.0
C913 C 0.49624 0.53333 0.04701 0.0
C914 C 0.51262 0.55233 0.99648 0.0
C915 C 0.53414 0.49372 0.97993 0.0
N916 N 0.49417 0.53014 0.03087 0.0
N917 N 0.53205 0.49266 0.9961 0.0
H918 H 0.12254 0.41622 0.36482 0.0
H919 H 0.2306 0.38325 0.28491 0.0
H920 H 0.21899 0.36568 0.36616 0.0
H921 H 0.08936 0.35468 0.28871 0.0
H922 H 0.23845 0.39377 0.31396 0.0
H923 H 0.12308 0.4132 0.33579 0.0
C924 C 0.1445 0.40532 0.35901 0.0
C925 C 0.17058 0.39096 0.36792 0.0
C926 C 0.20584 0.3851 0.30834 0.0
C927 C 0.17134 0.38752 0.33475 0.0
C928 C 0.20131 0.37906 0.29184 0.0
C929 C 0.15913 0.36764 0.28442 0.0
C930 C 0.16838 0.38103 0.31731 0.0
C931 C 0.12233 0.36292 0.29393 0.0
C932 C 0.14448 0.40326 0.34247 0.0
C933 C 0.19817 0.37682 0.35973 0.0
N934 N 0.12795 0.37003 0.30983 0.0
N935 N 0.19785 0.37543 0.34357 0.0
H936 H 0.75619 0.90958 0.38717 0.0
H937 H 0.61421 0.83929 0.30613 0.0
H938 H 0.61612 0.79401 0.38498 0.0
H939 H 0.75725 0.873 0.30775 0.0
H940 H 0.61374 0.84298 0.33531 0.0
H941 H 0.75598 0.91673 0.35812 0.0
C942 C 0.72509 0.88631 0.38062 0.0
C943 C 0.6861 0.85108 0.38849 0.0
C944 C 0.64533 0.85018 0.32921 0.0
C945 C 0.68553 0.85961 0.35538 0.0
C946 C 0.64578 0.84846 0.3126 0.0
C947 C 0.68587 0.85588 0.30453 0.0
C948 C 0.68562 0.8607 0.33776 0.0
C949 C 0.72562 0.86698 0.31352 0.0
C950 C 0.72516 0.89025 0.36407 0.0
C951 C 0.64693 0.82153 0.37937 0.0
N952 N 0.72459 0.86928 0.32965 0.0
N953 N 0.64753 0.82658 0.3633 0.0
H954 H 0.25417 0.98706 0.32674 0.0
H955 H 0.1464 0.84688 0.40673 0.0
H956 H 0.15163 0.84143 0.32547 0.0
H957 H 0.28997 0.95421 0.40221 0.0
H958 H 0.13717 0.85069 0.37784 0.0
H959 H 0.25565 0.9829 0.35571 0.0
C960 C 0.2313 0.95441 0.33256 0.0
C961 C 0.2029 0.91446 0.32368 0.0
C962 C 0.17061 0.87321 0.38326 0.0
C963 C 0.20449 0.90959 0.35678 0.0
C964 C 0.17593 0.87104 0.39967 0.0
C965 C 0.21913 0.89997 0.40683 0.0
C966 C 0.20839 0.90545 0.37412 0.0
C967 C 0.25621 0.93089 0.39717 0.0
C968 C 0.23249 0.95201 0.34907 0.0
C969 C 0.17422 0.87299 0.33188 0.0
N970 N 0.24987 0.9331 0.38135 0.0
N971 N 0.17573 0.87157 0.348 0.0
H972 H 0.80051 0.71574 0.7169 0.0
H973 H 0.91597 0.70169 0.63732 0.0
H974 H 0.89138 0.65869 0.71972 0.0
H975 H 0.76934 0.65331 0.64127 0.0
H976 H 0.92093 0.70328 0.66665 0.0
H977 H 0.80354 0.71338 0.68805 0.0
C978 C 0.82171 0.70329 0.71148 0.0
C979 C 0.84562 0.68721 0.72082 0.0
C980 C 0.88777 0.69194 0.66097 0.0
C981 C 0.84939 0.68489 0.6876 0.0
C982 C 0.88487 0.69106 0.6443 0.0
C983 C 0.84215 0.67726 0.63679 0.0
C984 C 0.84799 0.68031 0.67006 0.0
C985 C 0.803 0.66402 0.64644 0.0
C986 C 0.82313 0.70174 0.69499 0.0
C987 C 0.87229 0.67127 0.71298 0.0
N988 N 0.80703 0.66655 0.66249 0.0
N989 N 0.87364 0.67063 0.69676 0.0
H990 H 0.35877 0.21429 0.66033 0.0
H991 H 0.34641 0.08466 0.73969 0.0
H992 H 0.40745 0.11673 0.6635 0.0
H993 H 0.37969 0.22729 0.74162 0.0
H994 H 0.35685 0.09121 0.711 0.0
H995 H 0.35662 0.2165 0.68948 0.0
C996 C 0.3695 0.19377 0.66715 0.0
C997 C 0.38327 0.16521 0.65949 0.0
C998 C 0.36188 0.12109 0.71769 0.0
C999 C 0.37978 0.16683 0.69266 0.0
C1000 C 0.35551 0.11732 0.73406 0.0
C1001 C 0.36198 0.15548 0.74308 0.0
C1002 C 0.37388 0.16301 0.71012 0.0
C1003 C 0.37432 0.19705 0.7351 0.0
C1004 C 0.36831 0.19514 0.68374 0.0
C1005 C 0.39676 0.13932 0.66889 0.0
N1006 N 0.37944 0.19964 0.71899 0.0
N1007 N 0.39398 0.1402 0.68497 0.0
H1008 H 0.91269 0.15505 0.61763 0.0
H1009 H 0.8343 0.19853 0.70123 0.0
H1010 H 0.86817 0.25513 0.62361 0.0
H1011 H 0.96142 0.1943 0.69763 0.0
H1012 H 0.82924 0.1974 0.67229 0.0
H1013 H 0.91418 0.14805 0.64671 0.0
C1014 C 0.90254 0.17495 0.62507 0.0
C1015 C 0.89015 0.20564 0.61829 0.0
C1016 C 0.85793 0.19623 0.67787 0.0
C1017 C 0.89119 0.19726 0.65126 0.0
C1018 C 0.86079 0.19657 0.69437 0.0
C1019 C 0.89845 0.19657 0.70187 0.0
C1020 C 0.89228 0.19471 0.66875 0.0
C1021 C 0.93193 0.19447 0.69232 0.0
C1022 C 0.9038 0.17121 0.64158 0.0
C1023 C 0.87792 0.23112 0.6284 0.0
N1024 N 0.92797 0.19338 0.67619 0.0
N1025 N 0.87832 0.22605 0.64441 0.0
H1026 H 0.28345 0.86503 0.23371 0.0
H1027 H 0.41402 0.06048 0.16705 0.0
H1028 H 0.26672 0.98392 0.22703 0.0
H1029 H 0.43105 0.94102 0.17101 0.0
H1030 H 0.36203 0.03314 0.18984 0.0
H1031 H 0.33635 0.89012 0.21073 0.0
C1032 C 0.28997 0.89571 0.2272 0.0
C1033 C 0.27053 0.92236 0.23228 0.0
C1034 C 0.37734 0.01295 0.18585 0.0
C1035 C 0.33185 0.95189 0.20635 0.0
C1036 C 0.40749 0.02885 0.17289 0.0
C1037 C 0.42708 0.00311 0.16708 0.0
C1038 C 0.36623 0.97071 0.19312 0.0
C1039 C 0.41703 0.9622 0.17515 0.0
C1040 C 0.32065 0.91036 0.21423 0.0
C1041 C 0.2809 0.96229 0.22357 0.0
N1042 N 0.38699 0.94705 0.18768 0.0
N1043 N 0.31093 0.97589 0.21116 0.0
H1044 H 0.9759 0.40299 0.1309 0.0
H1045 H 0.18654 0.4421 0.18731 0.0
H1046 H 0.11596 0.51575 0.12408 0.0
H1047 H 0.04509 0.33041 0.19241 0.0
H1048 H 0.16308 0.46951 0.16399 0.0
H1049 H 0.00149 0.37809 0.154 0.0
C1050 C 0.01201 0.42305 0.13443 0.0
C1051 C 0.04378 0.46163 0.12552 0.0
C1052 C 0.13733 0.43879 0.17015 0.0
C1053 C 0.0738 0.43247 0.15194 0.0
C1054 C 0.15079 0.42278 0.18336 0.0
C1055 C 0.11778 0.38377 0.19187 0.0
C1056 C 0.09052 0.41566 0.16541 0.0
C1057 C 0.07183 0.36058 0.18628 0.0
C1058 C 0.02673 0.40854 0.14759 0.0
C1059 C 0.09018 0.48608 0.13068 0.0
N1060 N 0.05963 0.37699 0.17352 0.0
N1061 N 0.1039 0.47087 0.14348 0.0
H1062 H 0.71104 0.75908 0.21332 0.0
H1063 H 0.51188 0.61647 0.14893 0.0
H1064 H 0.5851 0.76557 0.21061 0.0
H1065 H 0.64933 0.63427 0.14658 0.0
H1066 H 0.53532 0.66602 0.1726 0.0
H1067 H 0.68715 0.71021 0.18967 0.0
C1068 C 0.67854 0.75067 0.20766 0.0
C1069 C 0.65021 0.7668 0.21399 0.0
C1070 C 0.56025 0.65888 0.16694 0.0
C1071 C 0.62202 0.70967 0.1869 0.0
C1072 C 0.54677 0.63022 0.15349 0.0
C1073 C 0.57858 0.62091 0.14572 0.0
C1074 C 0.60582 0.67821 0.17278 0.0
C1075 C 0.62351 0.64027 0.15213 0.0
C1076 C 0.66481 0.72253 0.19415 0.0
C1077 C 0.60831 0.75435 0.20611 0.0
N1078 N 0.63569 0.66785 0.16523 0.0
N1079 N 0.59535 0.72631 0.19307 0.0
H1080 H 0.06082 0.41853 0.85737 0.0
H1081 H 0.85997 0.27851 0.79321 0.0
H1082 H 0.93784 0.4303 0.85436 0.0
H1083 H 0.98735 0.27477 0.79633 0.0
H1084 H 0.88554 0.332 0.81593 0.0
H1085 H 0.03399 0.36667 0.8346 0.0
C1086 C 0.0285 0.41086 0.85174 0.0
C1087 C 0.00166 0.42899 0.85781 0.0
C1088 C 0.90764 0.3191 0.8117 0.0
C1089 C 0.96987 0.36826 0.83179 0.0
C1090 C 0.89279 0.28811 0.79886 0.0
C1091 C 0.92147 0.27197 0.79287 0.0
C1092 C 0.9514 0.33391 0.81857 0.0
C1093 C 0.96403 0.28625 0.80051 0.0
C1094 C 0.01293 0.38084 0.83877 0.0
C1095 C 0.95989 0.41749 0.85001 0.0
N1096 N 0.97767 0.3164 0.81286 0.0
N1097 N 0.94505 0.38752 0.8375 0.0
H1098 H 0.61233 0.50626 0.87734 0.0
H1099 H 0.758 0.70807 0.81405 0.0
H1100 H 0.63107 0.64364 0.88011 0.0
H1101 H 0.7578 0.57879 0.81428 0.0
H1102 H 0.70968 0.6836 0.83784 0.0
H1103 H 0.66171 0.52985 0.85355 0.0
C1104 C 0.62626 0.54117 0.87286 0.0
C1105 C 0.61725 0.57291 0.88078 0.0
C1106 C 0.72039 0.66059 0.8328 0.0
C1107 C 0.6744 0.60033 0.8536 0.0
C1108 C 0.74824 0.67467 0.8192 0.0
C1109 C 0.76229 0.64558 0.81212 0.0
C1110 C 0.70576 0.61675 0.83942 0.0
C1111 C 0.74819 0.60256 0.81937 0.0
C1112 C 0.65481 0.55472 0.85934 0.0
C1113 C 0.63681 0.61785 0.87445 0.0
N1114 N 0.72047 0.58932 0.83254 0.0
N1115 N 0.66433 0.63012 0.86131 0.0
H1116 H 0.31851 0.04876 0.83661 0.0
H1117 H 0.51887 0.11128 0.90115 0.0
H1118 H 0.44176 0.18375 0.83904 0.0
H1119 H 0.39668 0.97669 0.89546 0.0
H1120 H 0.49316 0.13964 0.87857 0.0
H1121 H 0.34634 0.02406 0.85916 0.0
C1122 C 0.3511 0.07357 0.84208 0.0
C1123 C 0.37771 0.11849 0.83589 0.0
C1124 C 0.4723 0.1038 0.8822 0.0
C1125 C 0.41069 0.08986 0.86167 0.0
C1126 C 0.48728 0.08744 0.89495 0.0
C1127 C 0.45997 0.04147 0.90021 0.0
C1128 C 0.42975 0.07395 0.8747 0.0
C1129 C 0.4189 0.01238 0.89188 0.0
C1130 C 0.36727 0.05926 0.85491 0.0
C1131 C 0.41986 0.14892 0.84348 0.0
N1132 N 0.40503 0.02914 0.87968 0.0
N1133 N 0.43525 0.13395 0.85589 0.0
H1134 H 0.93582 0.18665 0.52039 0.0
H1135 H 0.1118 0.39888 0.46535 0.0
H1136 H 0.9718 0.32881 0.52764 0.0
H1137 H 0.08107 0.25869 0.45733 0.0
H1138 H 0.06155 0.37291 0.48858 0.0
H1139 H 0.98665 0.21078 0.49701 0.0
C1140 C 0.95364 0.22277 0.51691 0.0
C1141 C 0.94937 0.25573 0.52603 0.0
C1142 C 0.06597 0.34772 0.48188 0.0
C1143 C 0.00845 0.28367 0.49947 0.0
C1144 C 0.09505 0.36263 0.46865 0.0
C1145 C 0.10082 0.33095 0.45938 0.0
C1146 C 0.0419 0.30054 0.48593 0.0
C1147 C 0.07801 0.28438 0.46423 0.0
C1148 C 0.98308 0.23657 0.50365 0.0
C1149 C 0.97384 0.30211 0.52101 0.0
N1150 N 0.04919 0.27047 0.47711 0.0
N1151 N 0.00239 0.31463 0.50817 0.0
H1152 H 0.78916 0.86355 0.48229 0.0
H1153 H 0.72997 0.65817 0.54416 0.0
H1154 H 0.66922 0.72656 0.47864 0.0
H1155 H 0.86156 0.78586 0.54379 0.0
H1156 H 0.7064 0.68421 0.52074 0.0
H1157 H 0.81445 0.83818 0.50569 0.0
C1158 C 0.76778 0.82835 0.48651 0.0
C1159 C 0.72682 0.79726 0.47845 0.0
C1160 C 0.74059 0.7065 0.52567 0.0
C1161 C 0.75596 0.7678 0.50519 0.0
C1162 C 0.75422 0.69153 0.53905 0.0
C1163 C 0.798 0.7197 0.54598 0.0
C1164 C 0.77062 0.75037 0.51913 0.0
C1165 C 0.82767 0.76275 0.5388 0.0
C1166 C 0.78249 0.81378 0.4998 0.0
C1167 C 0.70094 0.75189 0.48442 0.0
N1168 N 0.81333 0.77689 0.52586 0.0
N1169 N 0.7159 0.73864 0.49736 0.0
H1170 H 0.19277 0.93811 0.50466 0.0
H1171 H 0.40121 0.10348 0.56287 0.0
H1172 H 0.33464 0.96999 0.49894 0.0
H1173 H 0.26187 0.07909 0.56843 0.0
H1174 H 0.37657 0.05461 0.53934 0.0
H1175 H 0.21574 0.98654 0.52855 0.0
C1176 C 0.22854 0.9545 0.50858 0.0
C1177 C 0.26181 0.94985 0.49974 0.0
C1178 C 0.35133 0.06012 0.54559 0.0
C1179 C 0.28847 0.00618 0.5269 0.0
C1180 C 0.36549 0.08838 0.559 0.0
C1181 C 0.3336 0.09556 0.56765 0.0
C1182 C 0.30472 0.03834 0.54074 0.0
C1183 C 0.28773 0.07487 0.56205 0.0
C1184 C 0.24171 0.98258 0.52213 0.0
C1185 C 0.30774 0.97244 0.50533 0.0
N1186 N 0.27455 0.04688 0.54901 0.0
N1187 N 0.31967 -0.0003 0.51846 0.0
H1188 H 0.59135 0.44622 0.10238 0.0
H1189 H 0.39081 0.19409 0.12962 0.0
H1190 H 0.46244 0.41782 0.12428 0.0
H1191 H 0.50806 0.21662 0.101 0.0
H1192 H 0.4205 0.27709 0.12973 0.0
H1193 H 0.56639 0.36354 0.10439 0.0
C1194 C 0.5582 0.42277 0.10783 0.0
C1195 C 0.52881 0.43884 0.11309 0.0
C1196 C 0.43977 0.26391 0.12341 0.0
C1197 C 0.49993 0.34452 0.11528 0.0
C1198 C 0.42256 0.21627 0.12322 0.0
C1199 C 0.44672 0.19791 0.11523 0.0
C1200 C 0.48161 0.29378 0.11559 0.0
C1201 C 0.48838 0.229 0.10746 0.0
C1202 C 0.54381 0.37558 0.10886 0.0
C1203 C 0.48608 0.40691 0.11997 0.0
N1204 N 0.50448 0.27537 0.10784 0.0
N1205 N 0.4729 0.36137 0.12079 0.0
H1206 H 0.58402 0.17974 0.11712 0.0
H1207 H 0.83624 0.22216 0.09732 0.0
H1208 H 0.6298 0.08338 0.12917 0.0
H1209 H 0.80647 0.33374 0.09779 0.0
H1210 H 0.75962 0.17075 0.1087 0.0
H1211 H 0.66444 0.2375 0.11029 0.0
C1212 C 0.61099 0.17097 0.11862 0.0
C1213 C 0.59994 0.12643 0.12361 0.0
C1214 C 0.76987 0.20656 0.10644 0.0
C1215 C 0.69175 0.19199 0.11553 0.0
C1216 C 0.81351 0.2358 0.09983 0.0
C1217 C 0.82768 0.28221 0.09654 0.0
C1218 C 0.73966 0.22352 0.10958 0.0
C1219 C 0.79701 0.29826 0.10024 0.0
C1220 C 0.65687 0.20391 0.11465 0.0
C1221 C 0.63643 0.11707 0.12526 0.0
N1222 N 0.75423 0.26884 0.10641 0.0
N1223 N 0.68042 0.14926 0.12105 0.0
H1224 H 0.81249 0.65684 0.08931 0.0
H1225 H 0.85859 0.44359 0.08967 0.0
H1226 H 0.70442 0.51509 0.09699 0.0
H1227 H 0.96757 0.58705 0.08926 0.0
H1228 H 0.80109 0.46855 0.09153 0.0
H1229 H 0.86934 0.63132 0.08814 0.0
C1230 C 0.80062 0.62037 0.09078 0.0
C1231 C 0.75342 0.5882 0.0933 0.0
C1232 C 0.8376 0.49453 0.0911 0.0
C1233 C 0.81854 0.55859 0.09183 0.0
C1234 C 0.87045 0.48031 0.09006 0.0
C1235 C 0.91799 0.51328 0.08929 0.0
C1236 C 0.85237 0.54204 0.09125 0.0
C1237 C 0.93133 0.56039 0.08984 0.0
C1238 C 0.83316 0.60579 0.09008 0.0
C1239 C 0.74019 0.5412 0.09483 0.0
N1240 N 0.8987 0.57332 0.09071 0.0
N1241 N 0.77256 0.52786 0.09409 0.0
H1242 H 0.41443 0.45407 0.90258 0.0
H1243 H 0.21105 0.50316 0.9262 0.0
H1244 H 0.44016 0.58183 0.92435 0.0
H1245 H 0.19131 0.38944 0.89638 0.0
H1246 H 0.29438 0.53163 0.92642 0.0
H1247 H 0.33232 0.42965 0.90058 0.0
C1248 C 0.40284 0.47725 0.90679 0.0
C1249 C 0.43419 0.52004 0.91368 0.0
C1250 C 0.27174 0.50048 0.91982 0.0
C1251 C 0.33979 0.49186 0.91164 0.0
C1252 C 0.22402 0.48414 0.91965 0.0
C1253 C 0.19368 0.44374 0.9112 0.0
C1254 C 0.28941 0.47616 0.91157 0.0
C1255 C 0.21287 0.4203 0.90322 0.0
C1256 C 0.35587 0.46321 0.90567 0.0
C1257 C 0.4172 0.54865 0.9189 0.0
N1258 N 0.25937 0.43684 0.90361 0.0
N1259 N 0.37099 0.53383 0.91792 0.0
H1260 H 0.43413 0.84739 0.94225 0.0
H1261 H 0.63818 0.79933 0.91757 0.0
H1262 H 0.56859 0.95225 0.92505 0.0
H1263 H 0.51706 0.70123 0.944 0.0
H1264 H 0.60898 0.85295 0.91769 0.0
H1265 H 0.45908 0.78985 0.93988 0.0
C1266 C 0.4686 0.85815 0.93778 0.0
C1267 C 0.49946 0.90466 0.93393 0.0
C1268 C 0.58877 0.81968 0.92348 0.0
C1269 C 0.52817 0.83942 0.9313 0.0
C1270 C 0.60565 0.78907 0.92354 0.0
C1271 C 0.58027 0.74558 0.93087 0.0
C1272 C 0.54605 0.80684 0.93076 0.0
C1273 C 0.53768 0.7341 0.93807 0.0
C1274 C 0.48291 0.82543 0.93654 0.0
C1275 C 0.54379 0.91682 0.92827 0.0
N1276 N 0.52191 0.76456 0.93784 0.0
N1277 N 0.55683 0.88447 0.92717 0.0
H1278 H 0.3084 0.7958 0.9443 0.0
H1279 H 0.09528 0.63125 0.8881 0.0
H1280 H 0.23358 0.84335 0.91543 0.0
H1281 H 0.17274 0.58292 0.91508 0.0
H1282 H 0.15022 0.71034 0.89624 0.0
H1283 H 0.26222 0.71863 0.93275 0.0
C1284 C 0.28234 0.79012 0.93553 0.0
C1285 C 0.27494 0.82634 0.93088 0.0
C1286 C 0.15569 0.68262 0.90023 0.0
C1287 C 0.22181 0.73781 0.91759 0.0
C1288 C 0.12448 0.63742 0.89548 0.0
C1289 C 0.12927 0.60036 0.90098 0.0
C1290 C 0.19182 0.69096 0.91072 0.0
C1291 C 0.16778 0.61044 0.91052 0.0
C1292 C 0.25598 0.74599 0.92893 0.0
C1293 C 0.24018 0.81657 0.9196 0.0
N1294 N 0.19724 0.65475 0.91527 0.0
N1295 N 0.21499 0.77334 0.91336 0.0
H1296 H 0.28321 0.7978 0.44748 0.0
H1297 H 0.07064 0.54886 0.427 0.0
H1298 H 0.14106 0.75142 0.46056 0.0
H1299 H 0.20981 0.57114 0.43096 0.0
H1300 H 0.09838 0.62652 0.43689 0.0
H1301 H 0.25981 0.71783 0.43987 0.0
C1302 C 0.24736 0.77081 0.44903 0.0
C1303 C 0.21403 0.78153 0.45459 0.0
C1304 C 0.12286 0.61437 0.43566 0.0
C1305 C 0.18702 0.69055 0.44555 0.0
C1306 C 0.10699 0.56969 0.43 0.0
C1307 C 0.13753 0.55244 0.42828 0.0
C1308 C 0.16993 0.64287 0.43947 0.0
C1309 C 0.18471 0.58246 0.432 0.0
C1310 C 0.23402 0.72528 0.4446 0.0
C1311 C 0.16801 0.74509 0.45625 0.0
N1312 N 0.19947 0.62621 0.43739 0.0
N1313 N 0.15587 0.70156 0.45157 0.0
H1314 H 0.52806 0.56727 0.42189 0.0
H1315 H 0.26792 0.52056 0.42471 0.0
H1316 H 0.49518 0.67498 0.43075 0.0
H1317 H 0.303 0.4124 0.42409 0.0
H1318 H 0.35076 0.57826 0.42618 0.0
H1319 H 0.44534 0.51056 0.4215 0.0
C1320 C 0.50356 0.57908 0.42379 0.0
C1321 C 0.51891 0.62612 0.42641 0.0
C1322 C 0.34023 0.54187 0.42582 0.0
C1323 C 0.42374 0.56116 0.42585 0.0
C1324 C 0.29296 0.50891 0.42501 0.0
C1325 C 0.27848 0.46156 0.42423 0.0
C1326 C 0.37319 0.52735 0.42573 0.0
C1327 C 0.31249 0.4485 0.42466 0.0
C1328 C 0.45623 0.54663 0.42354 0.0
C1329 C 0.48524 0.63931 0.4285 0.0
N1330 N 0.35819 0.4812 0.42528 0.0
N1331 N 0.43928 0.60701 0.42819 0.0
H1332 H 0.54054 0.78886 0.43475 0.0
H1333 H 0.4906 0.98936 0.46245 0.0
H1334 H 0.64102 0.91515 0.45795 0.0
H1335 H 0.39681 0.87501 0.43267 0.0
H1336 H 0.54318 0.95877 0.46279 0.0
H1337 H 0.48348 0.81478 0.43648 0.0
C1338 C 0.55033 0.8216 0.44044 0.0
C1339 C 0.59564 0.85001 0.44614 0.0
C1340 C 0.51109 0.94033 0.45617 0.0
C1341 C 0.53097 0.88002 0.44799 0.0
C1342 C 0.4811 0.95808 0.45584 0.0
C1343 C 0.43901 0.93495 0.44747 0.0
C1344 C 0.4991 0.899 0.44811 0.0
C1345 C 0.42851 0.89387 0.43943 0.0
C1346 C 0.51793 0.83656 0.4413 0.0
C1347 C 0.60658 0.89226 0.4533 0.0
N1348 N 0.45831 0.87722 0.43996 0.0
N1349 N 0.57461 0.90603 0.45394 0.0
H1350 H 0.85097 0.74567 0.25156 0.0
H1351 H 0.10465 0.95098 0.27456 0.0
H1352 H 0.87492 0.86638 0.27811 0.0
H1353 H 0.07485 0.81682 0.25754 0.0
H1354 H 0.0217 0.92556 0.27258 0.0
H1355 H 0.93421 0.77553 0.25096 0.0
C1356 C 0.87357 0.77822 0.25741 0.0
C1357 C 0.85567 0.80336 0.26498 0.0
C1358 C 0.03352 0.90191 0.26919 0.0
C1359 C 0.95146 0.83832 0.26403 0.0
C1360 C 0.08078 0.91649 0.2702 0.0
C1361 C 0.09645 0.88579 0.26633 0.0
C1362 C 0.0021 0.85657 0.26415 0.0
C1363 C 0.06416 0.84145 0.26079 0.0
C1364 C 0.92125 0.79549 0.25693 0.0
C1365 C 0.88708 0.84599 0.27201 0.0
N1366 N 0.01853 0.82813 0.25993 0.0
N1367 N 0.93349 0.86214 0.27137 0.0
H1368 H 0.31039 0.17091 0.25989 0.0
H1369 H 0.0948 0.2072 0.24584 0.0
H1370 H 0.16921 0.05771 0.2647 0.0
H1371 H 0.23123 0.29577 0.22608 0.0
H1372 H 0.11948 0.15199 0.25379 0.0
H1373 H 0.28085 0.2188 0.24936 0.0
C1374 C 0.27324 0.15583 0.25873 0.0
C1375 C 0.24259 0.10965 0.26313 0.0
C1376 C 0.14366 0.18324 0.2475 0.0
C1377 C 0.20827 0.16516 0.25115 0.0
C1378 C 0.12949 0.21456 0.24284 0.0
C1379 C 0.16109 0.2564 0.23539 0.0
C1380 C 0.18979 0.19422 0.24482 0.0
C1381 C 0.20575 0.26423 0.23193 0.0
C1382 C 0.25634 0.18338 0.25268 0.0
C1383 C 0.19454 0.09295 0.26162 0.0
N1384 N 0.21889 0.23385 0.23686 0.0
N1385 N 0.17892 0.12069 0.25579 0.0
H1386 H 0.83368 0.94292 0.25787 0.0
H1387 H 0.88612 0.19408 0.22988 0.0
H1388 H 0.73222 0.96988 0.23619 0.0
H1389 H 0.97995 0.17263 0.25925 0.0
H1390 H 0.83191 0.11107 0.23024 0.0
H1391 H 0.89122 0.02582 0.25595 0.0
C1392 C 0.82372 0.96611 0.25249 0.0
C1393 C 0.77805 0.9495 0.24724 0.0
C1394 C 0.86437 0.12453 0.23662 0.0
C1395 C 0.84336 0.04417 0.24515 0.0
C1396 C 0.89534 0.17219 0.23654 0.0
C1397 C 0.93798 0.19087 0.24455 0.0
C1398 C 0.87596 0.09497 0.24473 0.0
C1399 C 0.94793 0.16007 0.25271 0.0
C1400 C 0.85642 0.01344 0.25152 0.0
C1401 C 0.76694 0.98116 0.24048 0.0
N1402 N 0.91723 0.11372 0.25256 0.0
N1403 N 0.79925 0.02687 0.23968 0.0
H1404 H 0.7423 0.85111 0.77674 0.0
H1405 H 0.94564 0.10272 0.75073 0.0
H1406 H 0.86085 0.87319 0.74898 0.0
H1407 H 0.81334 0.07409 0.76972 0.0
H1408 H 0.92051 0.02013 0.75319 0.0
H1409 H 0.77246 0.93418 0.77686 0.0
C1410 C 0.77445 0.87324 0.77054 0.0
C1411 C 0.79883 0.85481 0.76275 0.0
C1412 C 0.89722 0.03213 0.75692 0.0
C1413 C 0.83418 0.95054 0.76313 0.0
C1414 C 0.91165 0.07921 0.75562 0.0
C1415 C 0.88137 0.09512 0.75991 0.0
C1416 C 0.85245 0.0011 0.76266 0.0
C1417 C 0.83766 0.06324 0.76614 0.0
C1418 C 0.79191 0.92086 0.77074 0.0
C1419 C 0.84101 0.88571 0.75526 0.0
N1420 N 0.82447 0.01779 0.76725 0.0
N1421 N 0.85734 0.93207 0.75562 0.0
H1422 H 0.16164 0.99186 0.7816 0.0
H1423 H 0.96644 0.72467 0.78466 0.0
H1424 H 0.19041 0.87936 0.78311 0.0
H1425 H 0.93561 0.83232 0.77298 0.0
H1426 H 0.04819 0.78265 0.78673 0.0
H1427 H 0.07889 0.93556 0.78014 0.0
C1428 C 0.15085 0.95544 0.78144 0.0
C1429 C 0.18347 0.9405 0.78249 0.0
C1430 C 0.02365 0.79375 0.78376 0.0
C1431 C 0.08827 0.87582 0.78119 0.0
C1432 C 0.9768 0.76064 0.78265 0.0
C1433 C 0.94404 0.77361 0.77855 0.0
C1434 C 0.03821 0.84042 0.7808 0.0
C1435 C 0.95967 0.82081 0.77616 0.0
C1436 C 0.10339 0.92329 0.78074 0.0
C1437 C 0.1668 0.89265 0.78255 0.0
N1438 N 0.00578 0.85259 0.77727 0.0
N1439 N 0.12045 0.86212 0.78197 0.0
H1440 H 0.20073 0.09526 0.78207 0.0
H1441 H 0.16631 0.30978 0.76312 0.0
H1442 H 0.29265 0.23447 0.79866 0.0
H1443 H 0.05241 0.16861 0.7604 0.0
H1444 H 0.21458 0.28151 0.77438 0.0
H1445 H 0.14598 0.11965 0.77317 0.0
C1446 C 0.20898 0.1306 0.78417 0.0
C1447 C 0.25156 0.1629 0.79105 0.0
C1448 C 0.17893 0.25673 0.77135 0.0
C1449 C 0.1898 0.19121 0.78052 0.0
C1450 C 0.15115 0.2729 0.76488 0.0
C1451 C 0.10464 0.2419 0.76084 0.0
C1452 C 0.1606 0.20902 0.77368 0.0
C1453 C 0.08787 0.19421 0.76316 0.0
C1454 C 0.17789 0.14458 0.77897 0.0
C1455 C 0.26048 0.20836 0.79333 0.0
N1456 N 0.11581 0.1793 0.76939 0.0
N1457 N 0.23026 0.22122 0.7879 0.0
H1458 H 0.53996 0.06349 0.59731 0.0
H1459 H 0.7913 0.27263 0.57511 0.0
H1460 H 0.56972 0.20481 0.59527 0.0
H1461 H 0.74623 0.12912 0.56558 0.0
H1462 H 0.71112 0.25004 0.58219 0.0
H1463 H 0.61634 0.0879 0.58591 0.0
C1464 C 0.56262 0.09969 0.59446 0.0
C1465 C 0.54848 0.13214 0.59732 0.0
C1466 C 0.71876 0.22365 0.57833 0.0
C1467 C 0.63632 0.16059 0.58423 0.0
C1468 C 0.76452 0.23654 0.57422 0.0
C1469 C 0.77574 0.20273 0.56982 0.0
C1470 C 0.68412 0.17659 0.5782 0.0
C1471 C 0.73947 0.15645 0.56897 0.0
C1472 C 0.60615 0.11363 0.58784 0.0
C1473 C 0.57911 0.1786 0.59317 0.0
N1474 N 0.6956 0.14476 0.57329 0.0
N1475 N 0.62177 0.19153 0.58699 0.0
H1476 H 0.86641 0.38438 0.59365 0.0
H1477 H 0.91145 0.63252 0.56626 0.0
H1478 H 0.98123 0.47908 0.5641 0.0
H1479 H 0.78718 0.53364 0.591 0.0
H1480 H 0.93578 0.57507 0.56474 0.0
H1481 H 0.83591 0.43736 0.5927 0.0
C1482 C 0.88523 0.41618 0.58694 0.0
C1483 C 0.92662 0.42716 0.57896 0.0
C1484 C 0.90296 0.56561 0.57038 0.0
C1485 C 0.89188 0.48809 0.5779 0.0
C1486 C 0.88896 0.59841 0.57121 0.0
C1487 C 0.84733 0.58788 0.57884 0.0
C1488 C 0.87545 0.52195 0.57739 0.0
C1489 C 0.81948 0.5431 0.58498 0.0
C1490 C 0.86775 0.44643 0.58642 0.0
C1491 C 0.9497 0.46928 0.57065 0.0
N1492 N 0.83432 0.51185 0.58428 0.0
N1493 N 0.93203 0.4981 0.57035 0.0
H1494 H 0.40742 0.29303 0.59605 0.0
H1495 H 0.66842 0.49464 0.61088 0.0
H1496 H 0.51704 0.26703 0.60994 0.0
H1497 H 0.5666 0.51549 0.58625 0.0
H1498 H 0.61248 0.41195 0.61214 0.0
H1499 H 0.46446 0.37536 0.59368 0.0
C1500 C 0.44355 0.30459 0.59852 0.0
C1501 C 0.45748 0.2731 0.60324 0.0
C1502 C 0.60249 0.4347 0.60644 0.0
C1503 C 0.5229 0.36747 0.6007 0.0
C1504 C 0.63451 0.48207 0.60567 0.0
C1505 C 0.62259 0.51255 0.59837 0.0
C1506 C 0.55797 0.41751 0.6 0.0
C1507 C 0.57751 0.49382 0.59215 0.0
C1508 C 0.4761 0.35163 0.59716 0.0
C1509 C 0.50478 0.29009 0.60625 0.0
N1510 N 0.54693 0.44762 0.59312 0.0
N1511 N 0.53577 0.3362 0.60504 0.0
loop_
_geom_bond_atom_site_label_1
_geom_bond_atom_site_label_2
_geom_bond_distance
_geom_bond_site_symmetry_2
_ccdc_geom_bond_type
Co0 N5 2.057 . S
Co0 O17 2.021 . S
Co0 O20 2.062 . S
Co0 O24 2.117 . S
Co0 O25 2.020 1_565 S
C1 O21 1.259 . S
C1 O24 1.258 1_545 S
Co2 N11 2.057 . S
Co2 O18 2.117 . S
Co2 O19 2.020 1_545 S
Co2 O21 2.021 . S
Co2 O26 2.062 . S
C3 N5 1.316 . S
C3 N6 1.347 . S
C3 H8 0.931 . S
C4 N5 1.375 . S
C4 C7 1.350 . S
C4 H9 0.930 . S
N5 Co0 2.057 . S
N5 C3 1.316 . S
N5 C4 1.375 . S
N6 C3 1.347 . S
N6 C7 1.373 . S
C7 C4 1.350 . S
C7 N6 1.373 . S
C7 H28 0.931 . S
H8 C3 0.931 . S
H9 C4 0.930 . S
C10 O17 1.259 1_545 S
C10 O18 1.258 . S
N11 Co2 2.057 . S
N11 C12 1.316 . S
N11 C13 1.375 . S
C12 N11 1.316 . S
C12 N14 1.347 . S
C12 H23 0.931 . S
C13 N11 1.375 . S
C13 C15 1.350 . S
C13 H22 0.930 . S
N14 C12 1.347 . S
N14 C15 1.373 . S
C15 C13 1.350 . S
C15 N14 1.373 . S
C15 H29 0.931 . S
C16 O19 1.256 . S
C16 O20 1.255 . S
O17 Co0 2.021 . S
O17 C10 1.259 1_565 S
O18 Co2 2.117 . S
O18 C10 1.258 . S
O19 Co2 2.020 1_565 S
O19 C16 1.256 . S
O20 Co0 2.062 . S
O20 C16 1.255 . S
O21 C1 1.259 . S
O21 Co2 2.021 . S
H22 C13 0.930 . S
H23 C12 0.931 . S
O24 Co0 2.117 . S
O24 C1 1.258 1_565 S
O25 Co0 2.020 1_545 S
O25 C27 1.256 . S
O26 Co2 2.062 . S
O26 C27 1.255 . S
C27 O25 1.256 . S
C27 O26 1.255 . S
H28 C7 0.931 . S
H29 C15 0.931 . S
Co30 N35 2.057 . S
Co30 O47 2.021 . S
Co30 O50 2.062 . S
Co30 O54 2.117 . S
Co30 O55 2.020 . S
C31 O51 1.259 1_455 S
C31 O54 1.258 . S
Co32 N41 2.062 . S
Co32 O48 2.114 1_655 S
Co32 O49 2.001 1_655 S
Co32 O51 2.023 . S
Co32 O56 2.079 . S
C33 N35 1.316 . S
C33 N36 1.347 . S
C33 H38 0.931 . S
C34 N35 1.375 . S
C34 C37 1.350 . S
C34 H39 0.930 . S
N35 Co30 2.057 . S
N35 C33 1.316 . S
N35 C34 1.375 . S
N36 C33 1.347 . S
N36 C37 1.373 . S
C37 C34 1.350 . S
C37 N36 1.373 . S
C37 H58 0.931 . S
H38 C33 0.931 . S
H39 C34 0.930 . S
C40 O47 1.259 . S
C40 O48 1.258 . S
N41 Co32 2.062 . S
N41 C42 1.316 . S
N41 C43 1.375 . S
C42 N41 1.316 . S
C42 N44 1.347 . S
C42 H53 0.931 . S
C43 N41 1.375 . S
C43 C45 1.350 . S
C43 H52 0.930 . S
N44 C42 1.347 . S
N44 C45 1.373 . S
C45 C43 1.350 . S
C45 N44 1.373 . S
C45 H59 0.931 . S
C46 O49 1.256 . S
C46 O50 1.255 . S
O47 Co30 2.021 . S
O47 C40 1.259 . S
O48 Co32 2.114 1_455 S
O48 C40 1.258 . S
O49 Co32 2.001 1_455 S
O49 C46 1.256 . S
O50 Co30 2.062 . S
O50 C46 1.255 . S
O51 C31 1.259 1_655 S
O51 Co32 2.023 . S
H52 C43 0.930 . S
H53 C42 0.931 . S
O54 Co30 2.117 . S
O54 C31 1.258 . S
O55 Co30 2.020 . S
O55 C57 1.256 1_455 S
O56 Co32 2.079 . S
O56 C57 1.255 . S
C57 O55 1.256 1_655 S
C57 O56 1.255 . S
H58 C37 0.931 . S
H59 C45 0.931 . S
Co60 N65 2.057 . S
Co60 O77 2.021 . S
Co60 O80 2.062 . S
Co60 O84 2.117 . S
Co60 O85 2.020 . S
C61 O81 1.259 . S
C61 O84 1.258 . S
Co62 N71 2.057 . S
Co62 O78 2.117 . S
Co62 O79 2.020 . S
Co62 O81 2.021 . S
Co62 O86 2.062 . S
C63 N65 1.316 . S
C63 N66 1.347 . S
C63 H68 0.931 . S
C64 N65 1.375 . S
C64 C67 1.350 . S
C64 H69 0.930 . S
N65 Co60 2.057 . S
N65 C63 1.316 . S
N65 C64 1.375 . S
N66 C63 1.347 . S
N66 C67 1.373 . S
C67 C64 1.350 . S
C67 N66 1.373 . S
C67 H88 0.931 . S
H68 C63 0.931 . S
H69 C64 0.930 . S
C70 O77 1.259 . S
C70 O78 1.258 . S
N71 Co62 2.057 . S
N71 C72 1.316 . S
N71 C73 1.375 . S
C72 N71 1.316 . S
C72 N74 1.347 . S
C72 H83 0.931 . S
C73 N71 1.375 . S
C73 C75 1.350 . S
C73 H82 0.930 . S
N74 C72 1.347 . S
N74 C75 1.373 . S
C75 C73 1.350 . S
C75 N74 1.373 . S
C75 H89 0.931 . S
C76 O79 1.256 . S
C76 O80 1.255 . S
O77 Co60 2.021 . S
O77 C70 1.259 . S
O78 Co62 2.117 . S
O78 C70 1.258 . S
O79 Co62 2.020 . S
O79 C76 1.256 . S
O80 Co60 2.062 . S
O80 C76 1.255 . S
O81 C61 1.259 . S
O81 Co62 2.021 . S
H82 C73 0.930 . S
H83 C72 0.931 . S
O84 Co60 2.117 . S
O84 C61 1.258 . S
O85 Co60 2.020 . S
O85 C87 1.256 . S
O86 Co62 2.062 . S
O86 C87 1.255 . S
C87 O85 1.256 . S
C87 O86 1.255 . S
H88 C67 0.931 . S
H89 C75 0.931 . S
Co90 N95 2.057 . S
Co90 O107 2.021 . S
Co90 O110 2.062 . S
Co90 O114 2.117 . S
Co90 O115 2.020 1_655 S
C91 O111 1.259 . S
C91 O114 1.258 1_455 S
Co92 N101 2.057 . S
Co92 O108 2.117 . S
Co92 O109 2.020 1_455 S
Co92 O111 2.021 . S
Co92 O116 2.062 . S
C93 N95 1.316 . S
C93 N96 1.347 . S
C93 H98 0.931 . S
C94 N95 1.375 . S
C94 C97 1.350 . S
C94 H99 0.930 . S
N95 Co90 2.057 . S
N95 C93 1.316 . S
N95 C94 1.375 . S
N96 C93 1.347 . S
N96 C97 1.373 . S
C97 C94 1.350 . S
C97 N96 1.373 . S
C97 H118 0.931 . S
H98 C93 0.931 . S
H99 C94 0.930 . S
C100 O107 1.259 1_455 S
C100 O108 1.258 . S
N101 Co92 2.057 . S
N101 C102 1.316 . S
N101 C103 1.375 . S
C102 N101 1.316 . S
C102 N104 1.347 . S
C102 H113 0.931 . S
C103 N101 1.375 . S
C103 C105 1.350 . S
C103 H112 0.930 . S
N104 C102 1.347 . S
N104 C105 1.373 . S
C105 C103 1.350 . S
C105 N104 1.373 . S
C105 H119 0.931 . S
C106 O109 1.256 . S
C106 O110 1.255 . S
O107 Co90 2.021 . S
O107 C100 1.259 1_655 S
O108 Co92 2.117 . S
O108 C100 1.258 . S
O109 Co92 2.020 1_655 S
O109 C106 1.256 . S
O110 Co90 2.062 . S
O110 C106 1.255 . S
O111 C91 1.259 . S
O111 Co92 2.021 . S
H112 C103 0.930 . S
H113 C102 0.931 . S
O114 Co90 2.117 . S
O114 C91 1.258 1_655 S
O115 Co90 2.020 1_455 S
O115 C117 1.256 . S
O116 Co92 2.062 . S
O116 C117 1.255 . S
C117 O115 1.256 . S
C117 O116 1.255 . S
H118 C97 0.931 . S
H119 C105 0.931 . S
Co120 N125 2.057 . S
Co120 O137 2.021 . S
Co120 O140 2.062 . S
Co120 O144 2.117 . S
Co120 O145 2.020 . S
C121 O141 1.259 . S
C121 O144 1.258 . S
Co122 N131 2.057 . S
Co122 O138 2.117 . S
Co122 O139 2.020 . S
Co122 O141 2.021 . S
Co122 O146 2.062 . S
C123 N125 1.316 . S
C123 N126 1.347 . S
C123 H128 0.931 . S
C124 N125 1.375 . S
C124 C127 1.350 . S
C124 H129 0.930 . S
N125 Co120 2.057 . S
N125 C123 1.316 . S
N125 C124 1.375 . S
N126 C123 1.347 . S
N126 C127 1.373 . S
C127 C124 1.350 . S
C127 N126 1.373 . S
C127 H148 0.931 . S
H128 C123 0.931 . S
H129 C124 0.930 . S
C130 O137 1.259 . S
C130 O138 1.258 . S
N131 Co122 2.057 . S
N131 C132 1.316 . S
N131 C133 1.375 . S
C132 N131 1.316 . S
C132 N134 1.347 . S
C132 H143 0.931 . S
C133 N131 1.375 . S
C133 C135 1.350 . S
C133 H142 0.930 . S
N134 C132 1.347 . S
N134 C135 1.373 . S
C135 C133 1.350 . S
C135 N134 1.373 . S
C135 H149 0.931 . S
C136 O139 1.256 . S
C136 O140 1.255 . S
O137 Co120 2.021 . S
O137 C130 1.259 . S
O138 Co122 2.117 . S
O138 C130 1.258 . S
O139 Co122 2.020 . S
O139 C136 1.256 . S
O140 Co120 2.062 . S
O140 C136 1.255 . S
O141 C121 1.259 . S
O141 Co122 2.021 . S
H142 C133 0.930 . S
H143 C132 0.931 . S
O144 Co120 2.117 . S
O144 C121 1.258 . S
O145 Co120 2.020 . S
O145 C147 1.256 . S
O146 Co122 2.062 . S
O146 C147 1.255 . S
C147 O145 1.256 . S
C147 O146 1.255 . S
H148 C127 0.931 . S
H149 C135 0.931 . S
Co150 N155 2.057 . S
Co150 O167 2.021 . S
Co150 O170 2.062 . S
Co150 O174 2.117 . S
Co150 O175 2.020 . S
C151 O171 1.259 1_545 S
C151 O174 1.258 . S
Co152 N161 2.062 . S
Co152 O168 2.114 1_565 S
Co152 O169 2.001 1_565 S
Co152 O171 2.023 . S
Co152 O176 2.079 . S
C153 N155 1.316 . S
C153 N156 1.347 . S
C153 H158 0.931 . S
C154 N155 1.375 . S
C154 C157 1.350 . S
C154 H159 0.930 . S
N155 Co150 2.057 . S
N155 C153 1.316 . S
N155 C154 1.375 . S
N156 C153 1.347 . S
N156 C157 1.373 . S
C157 C154 1.350 . S
C157 N156 1.373 . S
C157 H178 0.931 . S
H158 C153 0.931 . S
H159 C154 0.930 . S
C160 O167 1.259 . S
C160 O168 1.258 . S
N161 Co152 2.062 . S
N161 C162 1.316 . S
N161 C163 1.375 . S
C162 N161 1.316 . S
C162 N164 1.347 . S
C162 H173 0.931 . S
C163 N161 1.375 . S
C163 C165 1.350 . S
C163 H172 0.930 . S
N164 C162 1.347 . S
N164 C165 1.373 . S
C165 C163 1.350 . S
C165 N164 1.373 . S
C165 H179 0.931 . S
C166 O169 1.256 . S
C166 O170 1.255 . S
O167 Co150 2.021 . S
O167 C160 1.259 . S
O168 Co152 2.114 1_545 S
O168 C160 1.258 . S
O169 Co152 2.001 1_545 S
O169 C166 1.256 . S
O170 Co150 2.062 . S
O170 C166 1.255 . S
O171 C151 1.259 1_565 S
O171 Co152 2.023 . S
H172 C163 0.930 . S
H173 C162 0.931 . S
O174 Co150 2.117 . S
O174 C151 1.258 . S
O175 Co150 2.020 . S
O175 C177 1.256 1_545 S
O176 Co152 2.079 . S
O176 C177 1.255 . S
C177 O175 1.256 1_565 S
C177 O176 1.255 . S
H178 C157 0.931 . S
H179 C165 0.931 . S
Co180 N185 2.057 . S
Co180 O197 2.021 . S
Co180 O200 2.062 . S
Co180 O204 2.117 . S
Co180 O205 2.020 . S
C181 O201 1.259 . S
C181 O204 1.258 . S
Co182 N191 2.057 . S
Co182 O198 2.117 . S
Co182 O199 2.020 . S
Co182 O201 2.021 . S
Co182 O206 2.062 . S
C183 N185 1.316 . S
C183 N186 1.347 . S
C183 H188 0.931 . S
C184 N185 1.375 . S
C184 C187 1.350 . S
C184 H189 0.930 . S
N185 Co180 2.057 . S
N185 C183 1.316 . S
N185 C184 1.375 . S
N186 C183 1.347 . S
N186 C187 1.373 . S
C187 C184 1.350 . S
C187 N186 1.373 . S
C187 H208 0.931 . S
H188 C183 0.931 . S
H189 C184 0.930 . S
C190 O197 1.259 . S
C190 O198 1.258 . S
N191 Co182 2.057 . S
N191 C192 1.316 . S
N191 C193 1.375 . S
C192 N191 1.316 . S
C192 N194 1.347 . S
C192 H203 0.931 . S
C193 N191 1.375 . S
C193 C195 1.350 . S
C193 H202 0.930 . S
N194 C192 1.347 . S
N194 C195 1.373 . S
C195 C193 1.350 . S
C195 N194 1.373 . S
C195 H209 0.931 . S
C196 O199 1.256 . S
C196 O200 1.255 . S
O197 Co180 2.021 . S
O197 C190 1.259 . S
O198 Co182 2.117 . S
O198 C190 1.258 . S
O199 Co182 2.020 . S
O199 C196 1.256 . S
O200 Co180 2.062 . S
O200 C196 1.255 . S
O201 C181 1.259 . S
O201 Co182 2.021 . S
H202 C193 0.930 . S
H203 C192 0.931 . S
O204 Co180 2.117 . S
O204 C181 1.258 . S
O205 Co180 2.020 . S
O205 C207 1.256 . S
O206 Co182 2.062 . S
O206 C207 1.255 . S
C207 O205 1.256 . S
C207 O206 1.255 . S
H208 C187 0.931 . S
H209 C195 0.931 . S
Co210 N215 2.057 . S
Co210 O227 2.021 . S
Co210 O230 2.062 . S
Co210 O234 2.117 . S
Co210 O235 2.020 . S
C211 O231 1.259 . S
C211 O234 1.258 . S
Co212 N221 2.057 . S
Co212 O228 2.117 . S
Co212 O229 2.020 . S
Co212 O231 2.021 . S
Co212 O236 2.062 . S
C213 N215 1.316 . S
C213 N216 1.347 1_565 S
C213 H218 0.931 . S
C214 N215 1.375 . S
C214 C217 1.350 1_565 S
C214 H219 0.930 . S
N215 Co210 2.057 . S
N215 C213 1.316 . S
N215 C214 1.375 . S
N216 C213 1.347 1_545 S
N216 C217 1.373 . S
C217 C214 1.350 1_545 S
C217 N216 1.373 . S
C217 H238 0.931 . S
H218 C213 0.931 . S
H219 C214 0.930 . S
C220 O227 1.259 . S
C220 O228 1.258 . S
N221 Co212 2.057 . S
N221 C222 1.316 . S
N221 C223 1.375 . S
C222 N221 1.316 . S
C222 N224 1.347 . S
C222 H233 0.931 . S
C223 N221 1.375 . S
C223 C225 1.350 . S
C223 H232 0.930 . S
N224 C222 1.347 . S
N224 C225 1.373 . S
C225 C223 1.350 . S
C225 N224 1.373 . S
C225 H239 0.931 . S
C226 O229 1.256 . S
C226 O230 1.255 . S
O227 Co210 2.021 . S
O227 C220 1.259 . S
O228 Co212 2.117 . S
O228 C220 1.258 . S
O229 Co212 2.020 . S
O229 C226 1.256 . S
O230 Co210 2.062 . S
O230 C226 1.255 . S
O231 C211 1.259 . S
O231 Co212 2.021 . S
H232 C223 0.930 . S
H233 C222 0.931 . S
O234 Co210 2.117 . S
O234 C211 1.258 . S
O235 Co210 2.020 . S
O235 C237 1.256 . S
O236 Co212 2.062 . S
O236 C237 1.255 . S
C237 O235 1.256 . S
C237 O236 1.255 . S
H238 C217 0.931 . S
H239 C225 0.931 . S
Co240 N245 2.057 . S
Co240 O257 2.021 . S
Co240 O260 2.062 . S
Co240 O264 2.117 . S
Co240 O265 2.020 . S
C241 O261 1.259 . S
C241 O264 1.258 . S
Co242 N251 2.057 . S
Co242 O258 2.117 . S
Co242 O259 2.020 . S
Co242 O261 2.021 . S
Co242 O266 2.062 . S
C243 N245 1.316 . S
C243 N246 1.347 . S
C243 H248 0.931 . S
C244 N245 1.375 . S
C244 C247 1.350 . S
C244 H249 0.930 . S
N245 Co240 2.057 . S
N245 C243 1.316 . S
N245 C244 1.375 . S
N246 C243 1.347 . S
N246 C247 1.373 . S
C247 C244 1.350 . S
C247 N246 1.373 . S
C247 H268 0.931 . S
H248 C243 0.931 . S
H249 C244 0.930 . S
C250 O257 1.259 . S
C250 O258 1.258 . S
N251 Co242 2.057 . S
N251 C252 1.316 . S
N251 C253 1.375 . S
C252 N251 1.316 . S
C252 N254 1.347 . S
C252 H263 0.931 . S
C253 N251 1.375 . S
C253 C255 1.350 . S
C253 H262 0.930 . S
N254 C252 1.347 . S
N254 C255 1.373 . S
C255 C253 1.350 . S
C255 N254 1.373 . S
C255 H269 0.931 . S
C256 O259 1.256 . S
C256 O260 1.255 . S
O257 Co240 2.021 . S
O257 C250 1.259 . S
O258 Co242 2.117 . S
O258 C250 1.258 . S
O259 Co242 2.020 . S
O259 C256 1.256 . S
O260 Co240 2.062 . S
O260 C256 1.255 . S
O261 C241 1.259 . S
O261 Co242 2.021 . S
H262 C253 0.930 . S
H263 C252 0.931 . S
O264 Co240 2.117 . S
O264 C241 1.258 . S
O265 Co240 2.020 . S
O265 C267 1.256 . S
O266 Co242 2.062 . S
O266 C267 1.255 . S
C267 O265 1.256 . S
C267 O266 1.255 . S
H268 C247 0.931 . S
H269 C255 0.931 . S
Co270 N275 2.057 . S
Co270 O287 2.021 . S
Co270 O290 2.062 . S
Co270 O294 2.117 . S
Co270 O295 2.020 . S
C271 O291 1.259 . S
C271 O294 1.258 . S
Co272 N281 2.057 . S
Co272 O288 2.117 . S
Co272 O289 2.020 . S
Co272 O291 2.021 . S
Co272 O296 2.062 . S
C273 N275 1.316 . S
C273 N276 1.347 . S
C273 H278 0.931 . S
C274 N275 1.375 . S
C274 C277 1.350 . S
C274 H279 0.930 . S
N275 Co270 2.057 . S
N275 C273 1.316 . S
N275 C274 1.375 . S
N276 C273 1.347 . S
N276 C277 1.373 . S
C277 C274 1.350 . S
C277 N276 1.373 . S
C277 H298 0.931 . S
H278 C273 0.931 . S
H279 C274 0.930 . S
C280 O287 1.259 . S
C280 O288 1.258 . S
N281 Co272 2.057 . S
N281 C282 1.316 . S
N281 C283 1.375 . S
C282 N281 1.316 . S
C282 N284 1.347 . S
C282 H293 0.931 . S
C283 N281 1.375 . S
C283 C285 1.350 . S
C283 H292 0.930 . S
N284 C282 1.347 . S
N284 C285 1.373 . S
C285 C283 1.350 . S
C285 N284 1.373 . S
C285 H299 0.931 . S
C286 O289 1.256 . S
C286 O290 1.255 . S
O287 Co270 2.021 . S
O287 C280 1.259 . S
O288 Co272 2.117 . S
O288 C280 1.258 . S
O289 Co272 2.020 . S
O289 C286 1.256 . S
O290 Co270 2.062 . S
O290 C286 1.255 . S
O291 C271 1.259 . S
O291 Co272 2.021 . S
H292 C283 0.930 . S
H293 C282 0.931 . S
O294 Co270 2.117 . S
O294 C271 1.258 . S
O295 Co270 2.020 . S
O295 C297 1.256 . S
O296 Co272 2.062 . S
O296 C297 1.255 . S
C297 O295 1.256 . S
C297 O296 1.255 . S
H298 C277 0.931 . S
H299 C285 0.931 . S
Co300 N305 2.057 . S
Co300 O317 2.021 . S
Co300 O320 2.062 . S
Co300 O324 2.117 . S
Co300 O325 2.020 . S
C301 O321 1.259 . S
C301 O324 1.258 . S
Co302 N311 2.066 . S
Co302 O318 2.117 . S
Co302 O319 2.020 . S
Co302 O321 2.021 . S
Co302 O326 2.062 . S
C303 N305 1.316 . S
C303 N306 1.347 . S
C303 H308 0.931 . S
C304 N305 1.375 . S
C304 C307 1.350 . S
C304 H309 0.930 . S
N305 Co300 2.057 . S
N305 C303 1.316 . S
N305 C304 1.375 . S
N306 C303 1.347 . S
N306 C307 1.373 . S
C307 C304 1.350 . S
C307 N306 1.373 . S
C307 H328 0.931 . S
H308 C303 0.931 . S
H309 C304 0.930 . S
C310 O317 1.259 . S
C310 O318 1.258 . S
N311 Co302 2.066 . S
N311 C312 1.309 1_565 S
N311 C313 1.371 1_565 S
C312 N311 1.309 1_545 S
C312 N314 1.347 . S
C312 H323 0.931 . S
C313 N311 1.371 1_545 S
C313 C315 1.350 . S
C313 H322 0.930 . S
N314 C312 1.347 . S
N314 C315 1.373 . S
C315 C313 1.350 . S
C315 N314 1.373 . S
C315 H329 0.931 . S
C316 O319 1.256 . S
C316 O320 1.255 . S
O317 Co300 2.021 . S
O317 C310 1.259 . S
O318 Co302 2.117 . S
O318 C310 1.258 . S
O319 Co302 2.020 . S
O319 C316 1.256 . S
O320 Co300 2.062 . S
O320 C316 1.255 . S
O321 C301 1.259 . S
O321 Co302 2.021 . S
H322 C313 0.930 . S
H323 C312 0.931 . S
O324 Co300 2.117 . S
O324 C301 1.258 . S
O325 Co300 2.020 . S
O325 C327 1.256 . S
O326 Co302 2.062 . S
O326 C327 1.255 . S
C327 O325 1.256 . S
C327 O326 1.255 . S
H328 C307 0.931 . S
H329 C315 0.931 . S
Co330 N335 2.057 . S
Co330 O347 2.021 . S
Co330 O350 2.062 . S
Co330 O354 2.117 . S
Co330 O355 2.020 . S
C331 O351 1.259 . S
C331 O354 1.258 . S
Co332 N341 2.057 . S
Co332 O348 2.117 . S
Co332 O349 2.020 . S
Co332 O351 2.021 . S
Co332 O356 2.062 . S
C333 N335 1.316 . S
C333 N336 1.347 . S
C333 H338 0.931 . S
C334 N335 1.375 . S
C334 C337 1.350 . S
C334 H339 0.930 . S
N335 Co330 2.057 . S
N335 C333 1.316 . S
N335 C334 1.375 . S
N336 C333 1.347 . S
N336 C337 1.373 . S
C337 C334 1.350 . S
C337 N336 1.373 . S
C337 H358 0.931 . S
H338 C333 0.931 . S
H339 C334 0.930 . S
C340 O347 1.259 . S
C340 O348 1.258 . S
N341 Co332 2.057 . S
N341 C342 1.316 . S
N341 C343 1.375 . S
C342 N341 1.316 . S
C342 N344 1.347 1_455 S
C342 H353 0.931 . S
C343 N341 1.375 . S
C343 C345 1.350 1_455 S
C343 H352 0.930 . S
N344 C342 1.347 1_655 S
N344 C345 1.373 . S
C345 C343 1.350 1_655 S
C345 N344 1.373 . S
C345 H359 0.931 . S
C346 O349 1.256 . S
C346 O350 1.255 . S
O347 Co330 2.021 . S
O347 C340 1.259 . S
O348 Co332 2.117 . S
O348 C340 1.258 . S
O349 Co332 2.020 . S
O349 C346 1.256 . S
O350 Co330 2.062 . S
O350 C346 1.255 . S
O351 C331 1.259 . S
O351 Co332 2.021 . S
H352 C343 0.930 . S
H353 C342 0.931 . S
O354 Co330 2.117 . S
O354 C331 1.258 . S
O355 Co330 2.020 . S
O355 C357 1.256 . S
O356 Co332 2.062 . S
O356 C357 1.255 . S
C357 O355 1.256 . S
C357 O356 1.255 . S
H358 C337 0.931 . S
H359 C345 0.931 . S
Co360 N365 2.057 . S
Co360 O377 2.021 . S
Co360 O380 2.062 . S
Co360 O384 2.117 . S
Co360 O385 2.020 . S
C361 O381 1.259 . S
C361 O384 1.258 . S
Co362 N371 2.057 . S
Co362 O378 2.117 . S
Co362 O379 2.020 . S
Co362 O381 2.021 . S
Co362 O386 2.062 . S
C363 N365 1.316 . S
C363 N366 1.347 . S
C363 H368 0.931 . S
C364 N365 1.375 . S
C364 C367 1.350 . S
C364 H369 0.930 . S
N365 Co360 2.057 . S
N365 C363 1.316 . S
N365 C364 1.375 . S
N366 C363 1.347 . S
N366 C367 1.373 . S
C367 C364 1.350 . S
C367 N366 1.373 . S
C367 H388 0.931 . S
H368 C363 0.931 . S
H369 C364 0.930 . S
C370 O377 1.259 . S
C370 O378 1.258 . S
N371 Co362 2.057 . S
N371 C372 1.316 . S
N371 C373 1.375 . S
C372 N371 1.316 . S
C372 N374 1.347 . S
C372 H383 0.931 . S
C373 N371 1.375 . S
C373 C375 1.350 . S
C373 H382 0.930 . S
N374 C372 1.347 . S
N374 C375 1.373 . S
C375 C373 1.350 . S
C375 N374 1.373 . S
C375 H389 0.931 . S
C376 O379 1.256 . S
C376 O380 1.255 . S
O377 Co360 2.021 . S
O377 C370 1.259 . S
O378 Co362 2.117 . S
O378 C370 1.258 . S
O379 Co362 2.020 . S
O379 C376 1.256 . S
O380 Co360 2.062 . S
O380 C376 1.255 . S
O381 C361 1.259 . S
O381 Co362 2.021 . S
H382 C373 0.930 . S
H383 C372 0.931 . S
O384 Co360 2.117 . S
O384 C361 1.258 . S
O385 Co360 2.020 . S
O385 C387 1.256 . S
O386 Co362 2.062 . S
O386 C387 1.255 . S
C387 O385 1.256 . S
C387 O386 1.255 . S
H388 C367 0.931 . S
H389 C375 0.931 . S
Co390 N395 2.057 . S
Co390 O407 2.021 . S
Co390 O410 2.062 . S
Co390 O414 2.117 . S
Co390 O415 2.020 . S
C391 O411 1.259 . S
C391 O414 1.258 . S
Co392 N401 2.057 . S
Co392 O408 2.117 . S
Co392 O409 2.020 . S
Co392 O411 2.021 . S
Co392 O416 2.062 . S
C393 N395 1.316 . S
C393 N396 1.347 . S
C393 H398 0.931 . S
C394 N395 1.375 . S
C394 C397 1.350 . S
C394 H399 0.930 . S
N395 Co390 2.057 . S
N395 C393 1.316 . S
N395 C394 1.375 . S
N396 C393 1.347 . S
N396 C397 1.373 . S
C397 C394 1.350 . S
C397 N396 1.373 . S
C397 H418 0.931 . S
H398 C393 0.931 . S
H399 C394 0.930 . S
C400 O407 1.259 . S
C400 O408 1.258 . S
N401 Co392 2.057 . S
N401 C402 1.316 . S
N401 C403 1.375 . S
C402 N401 1.316 . S
C402 N404 1.347 1_545 S
C402 H413 0.931 . S
C403 N401 1.375 . S
C403 C405 1.350 1_545 S
C403 H412 0.930 . S
N404 C402 1.347 1_565 S
N404 C405 1.373 . S
C405 C403 1.350 1_565 S
C405 N404 1.373 . S
C405 H419 0.931 . S
C406 O409 1.256 . S
C406 O410 1.255 . S
O407 Co390 2.021 . S
O407 C400 1.259 . S
O408 Co392 2.117 . S
O408 C400 1.258 . S
O409 Co392 2.020 . S
O409 C406 1.256 . S
O410 Co390 2.062 . S
O410 C406 1.255 . S
O411 C391 1.259 . S
O411 Co392 2.021 . S
H412 C403 0.930 . S
H413 C402 0.931 . S
O414 Co390 2.117 . S
O414 C391 1.258 . S
O415 Co390 2.020 . S
O415 C417 1.256 . S
O416 Co392 2.062 . S
O416 C417 1.255 . S
C417 O415 1.256 . S
C417 O416 1.255 . S
H418 C397 0.931 . S
H419 C405 0.931 . S
Co420 N425 2.057 . S
Co420 O437 2.021 . S
Co420 O440 2.062 . S
Co420 O444 2.117 . S
Co420 O445 2.020 . S
C421 O441 1.259 . S
C421 O444 1.258 . S
Co422 N431 2.066 . S
Co422 O438 2.117 . S
Co422 O439 2.020 . S
Co422 O441 2.021 . S
Co422 O446 2.062 . S
C423 N425 1.316 . S
C423 N426 1.347 . S
C423 H428 0.931 . S
C424 N425 1.375 . S
C424 C427 1.350 . S
C424 H429 0.930 . S
N425 Co420 2.057 . S
N425 C423 1.316 . S
N425 C424 1.375 . S
N426 C423 1.347 . S
N426 C427 1.373 . S
C427 C424 1.350 . S
C427 N426 1.373 . S
C427 H448 0.931 . S
H428 C423 0.931 . S
H429 C424 0.930 . S
C430 O437 1.259 . S
C430 O438 1.258 . S
N431 Co422 2.066 . S
N431 C432 1.309 1_655 S
N431 C433 1.371 1_655 S
C432 N431 1.309 1_455 S
C432 N434 1.347 . S
C432 H443 0.931 . S
C433 N431 1.371 1_455 S
C433 C435 1.350 . S
C433 H442 0.930 . S
N434 C432 1.347 . S
N434 C435 1.373 . S
C435 C433 1.350 . S
C435 N434 1.373 . S
C435 H449 0.931 . S
C436 O439 1.256 . S
C436 O440 1.255 . S
O437 Co420 2.021 . S
O437 C430 1.259 . S
O438 Co422 2.117 . S
O438 C430 1.258 . S
O439 Co422 2.020 . S
O439 C436 1.256 . S
O440 Co420 2.062 . S
O440 C436 1.255 . S
O441 C421 1.259 . S
O441 Co422 2.021 . S
H442 C433 0.930 . S
H443 C432 0.931 . S
O444 Co420 2.117 . S
O444 C421 1.258 . S
O445 Co420 2.020 . S
O445 C447 1.256 . S
O446 Co422 2.062 . S
O446 C447 1.255 . S
C447 O445 1.256 . S
C447 O446 1.255 . S
H448 C427 0.931 . S
H449 C435 0.931 . S
Co450 N455 2.057 . S
Co450 O467 2.021 . S
Co450 O470 2.062 . S
Co450 O474 2.117 . S
Co450 O475 2.020 . S
C451 O471 1.259 . S
C451 O474 1.258 . S
Co452 N461 2.057 . S
Co452 O468 2.117 . S
Co452 O469 2.020 . S
Co452 O471 2.021 . S
Co452 O476 2.062 . S
C453 N455 1.316 . S
C453 N456 1.347 . S
C453 H458 0.931 . S
C454 N455 1.375 . S
C454 C457 1.350 . S
C454 H459 0.930 . S
N455 Co450 2.057 . S
N455 C453 1.316 . S
N455 C454 1.375 . S
N456 C453 1.347 . S
N456 C457 1.373 . S
C457 C454 1.350 . S
C457 N456 1.373 . S
C457 H478 0.931 . S
H458 C453 0.931 . S
H459 C454 0.930 . S
C460 O467 1.259 . S
C460 O468 1.258 . S
N461 Co452 2.057 . S
N461 C462 1.316 . S
N461 C463 1.375 . S
C462 N461 1.316 . S
C462 N464 1.347 . S
C462 H473 0.931 . S
C463 N461 1.375 . S
C463 C465 1.350 . S
C463 H472 0.930 . S
N464 C462 1.347 . S
N464 C465 1.373 . S
C465 C463 1.350 . S
C465 N464 1.373 . S
C465 H479 0.931 . S
C466 O469 1.256 . S
C466 O470 1.255 . S
O467 Co450 2.021 . S
O467 C460 1.259 . S
O468 Co452 2.117 . S
O468 C460 1.258 . S
O469 Co452 2.020 . S
O469 C466 1.256 . S
O470 Co450 2.062 . S
O470 C466 1.255 . S
O471 C451 1.259 . S
O471 Co452 2.021 . S
H472 C463 0.930 . S
H473 C462 0.931 . S
O474 Co450 2.117 . S
O474 C451 1.258 . S
O475 Co450 2.020 . S
O475 C477 1.256 . S
O476 Co452 2.062 . S
O476 C477 1.255 . S
C477 O475 1.256 . S
C477 O476 1.255 . S
H478 C457 0.931 . S
H479 C465 0.931 . S
Co480 N485 2.057 . S
Co480 O497 2.021 . S
Co480 O500 2.062 . S
Co480 O504 2.117 . S
Co480 O505 2.020 . S
C481 O501 1.259 . S
C481 O504 1.258 . S
Co482 N491 2.057 . S
Co482 O498 2.117 . S
Co482 O499 2.020 . S
Co482 O501 2.021 . S
Co482 O506 2.062 . S
C483 N485 1.316 . S
C483 N486 1.347 . S
C483 H488 0.931 . S
C484 N485 1.375 . S
C484 C487 1.350 . S
C484 H489 0.930 . S
N485 Co480 2.057 . S
N485 C483 1.316 . S
N485 C484 1.375 . S
N486 C483 1.347 . S
N486 C487 1.373 . S
C487 C484 1.350 . S
C487 N486 1.373 . S
C487 H508 0.931 . S
H488 C483 0.931 . S
H489 C484 0.930 . S
C490 O497 1.259 . S
C490 O498 1.258 . S
N491 Co482 2.057 . S
N491 C492 1.316 . S
N491 C493 1.375 . S
C492 N491 1.316 . S
C492 N494 1.347 . S
C492 H503 0.931 . S
C493 N491 1.375 . S
C493 C495 1.350 . S
C493 H502 0.930 . S
N494 C492 1.347 . S
N494 C495 1.373 . S
C495 C493 1.350 . S
C495 N494 1.373 . S
C495 H509 0.931 . S
C496 O499 1.256 . S
C496 O500 1.255 . S
O497 Co480 2.021 . S
O497 C490 1.259 . S
O498 Co482 2.117 . S
O498 C490 1.258 . S
O499 Co482 2.020 . S
O499 C496 1.256 . S
O500 Co480 2.062 . S
O500 C496 1.255 . S
O501 C481 1.259 . S
O501 Co482 2.021 . S
H502 C493 0.930 . S
H503 C492 0.931 . S
O504 Co480 2.117 . S
O504 C481 1.258 . S
O505 Co480 2.020 . S
O505 C507 1.256 . S
O506 Co482 2.062 . S
O506 C507 1.255 . S
C507 O505 1.256 . S
C507 O506 1.255 . S
H508 C487 0.931 . S
H509 C495 0.931 . S
Co510 N515 2.057 . S
Co510 O527 2.021 . S
Co510 O530 2.062 . S
Co510 O534 2.117 . S
Co510 O535 2.020 . S
C511 O531 1.259 . S
C511 O534 1.258 . S
Co512 N521 2.057 . S
Co512 O528 2.117 . S
Co512 O529 2.020 . S
Co512 O531 2.021 . S
Co512 O536 2.062 . S
C513 N515 1.316 . S
C513 N516 1.347 1_655 S
C513 H518 0.931 . S
C514 N515 1.375 . S
C514 C517 1.350 1_655 S
C514 H519 0.930 . S
N515 Co510 2.057 . S
N515 C513 1.316 . S
N515 C514 1.375 . S
N516 C513 1.347 1_455 S
N516 C517 1.373 . S
C517 C514 1.350 1_455 S
C517 N516 1.373 . S
C517 H538 0.931 . S
H518 C513 0.931 . S
H519 C514 0.930 . S
C520 O527 1.259 . S
C520 O528 1.258 . S
N521 Co512 2.057 . S
N521 C522 1.316 . S
N521 C523 1.375 . S
C522 N521 1.316 . S
C522 N524 1.347 . S
C522 H533 0.931 . S
C523 N521 1.375 . S
C523 C525 1.350 . S
C523 H532 0.930 . S
N524 C522 1.347 . S
N524 C525 1.373 . S
C525 C523 1.350 . S
C525 N524 1.373 . S
C525 H539 0.931 . S
C526 O529 1.256 . S
C526 O530 1.255 . S
O527 Co510 2.021 . S
O527 C520 1.259 . S
O528 Co512 2.117 . S
O528 C520 1.258 . S
O529 Co512 2.020 . S
O529 C526 1.256 . S
O530 Co510 2.062 . S
O530 C526 1.255 . S
O531 C511 1.259 . S
O531 Co512 2.021 . S
H532 C523 0.930 . S
H533 C522 0.931 . S
O534 Co510 2.117 . S
O534 C511 1.258 . S
O535 Co510 2.020 . S
O535 C537 1.256 . S
O536 Co512 2.062 . S
O536 C537 1.255 . S
C537 O535 1.256 . S
C537 O536 1.255 . S
H538 C517 0.931 . S
H539 C525 0.931 . S
H540 C546 0.930 . S
H541 C550 0.930 . S
H542 C555 0.929 . S
H543 C553 0.929 . S
H544 C548 0.929 . S
H545 C554 0.929 . S
C546 H540 0.930 . S
C546 C547 1.367 . S
C546 C554 1.378 . S
C547 C546 1.367 . S
C547 C555 1.433 . S
C548 H544 0.929 . S
C548 C550 1.378 . S
C548 C552 1.350 . S
C549 C552 1.463 . S
C549 C554 1.350 . S
C549 N557 1.427 . S
C550 H541 0.930 . S
C550 C548 1.378 . S
C550 C551 1.367 . S
C551 C550 1.367 . S
C551 C553 1.433 . S
C552 C548 1.350 . S
C552 C549 1.463 . S
C552 N556 1.427 . S
C553 H543 0.929 . S
C553 C551 1.433 . S
C553 N556 1.384 . S
C554 H545 0.929 . S
C554 C546 1.378 . S
C554 C549 1.350 . S
C555 H542 0.929 . S
C555 C547 1.433 . S
C555 N557 1.384 . S
N556 C552 1.427 . S
N556 C553 1.384 . S
N557 C549 1.427 . S
N557 C555 1.384 . S
H558 C564 0.930 . S
H559 C568 0.930 . S
H560 C573 0.929 . S
H561 C571 0.929 . S
H562 C566 0.929 . S
H563 C572 0.929 . S
C564 H558 0.930 . S
C564 C565 1.367 . S
C564 C572 1.378 . S
C565 C564 1.367 . S
C565 C573 1.433 . S
C566 H562 0.929 . S
C566 C568 1.378 . S
C566 C570 1.350 . S
C567 C570 1.463 . S
C567 C572 1.350 . S
C567 N575 1.427 . S
C568 H559 0.930 . S
C568 C566 1.378 . S
C568 C569 1.367 . S
C569 C568 1.367 . S
C569 C571 1.433 . S
C570 C566 1.350 . S
C570 C567 1.463 . S
C570 N574 1.427 . S
C571 H561 0.929 . S
C571 C569 1.433 . S
C571 N574 1.384 . S
C572 H563 0.929 . S
C572 C564 1.378 . S
C572 C567 1.350 . S
C573 H560 0.929 . S
C573 C565 1.433 . S
C573 N575 1.384 . S
N574 C570 1.427 . S
N574 C571 1.384 . S
N575 C567 1.427 . S
N575 C573 1.384 . S
H576 C582 0.930 . S
H577 C586 0.930 . S
H578 C591 0.929 . S
H579 C589 0.929 . S
H580 C584 0.929 . S
H581 C590 0.929 . S
C582 H576 0.930 . S
C582 C583 1.367 . S
C582 C590 1.378 . S
C583 C582 1.367 . S
C583 C591 1.433 . S
C584 H580 0.929 . S
C584 C586 1.378 . S
C584 C588 1.350 . S
C585 C588 1.463 . S
C585 C590 1.350 . S
C585 N593 1.427 . S
C586 H577 0.930 . S
C586 C584 1.378 . S
C586 C587 1.367 . S
C587 C586 1.367 . S
C587 C589 1.433 . S
C588 C584 1.350 . S
C588 C585 1.463 . S
C588 N592 1.427 . S
C589 H579 0.929 . S
C589 C587 1.433 . S
C589 N592 1.384 . S
C590 H581 0.929 . S
C590 C582 1.378 . S
C590 C585 1.350 . S
C591 H578 0.929 . S
C591 C583 1.433 . S
C591 N593 1.384 . S
N592 C588 1.427 . S
N592 C589 1.384 . S
N593 C585 1.427 . S
N593 C591 1.384 . S
H594 C600 0.930 . S
H595 C604 0.930 . S
H596 C609 0.929 . S
H597 C607 0.929 . S
H598 C602 0.929 . S
H599 C608 0.929 . S
C600 H594 0.930 . S
C600 C601 1.367 . S
C600 C608 1.378 . S
C601 C600 1.367 . S
C601 C609 1.433 . S
C602 H598 0.929 . S
C602 C604 1.378 . S
C602 C606 1.350 . S
C603 C606 1.463 . S
C603 C608 1.350 . S
C603 N611 1.427 . S
C604 H595 0.930 . S
C604 C602 1.378 . S
C604 C605 1.367 . S
C605 C604 1.367 . S
C605 C607 1.433 . S
C606 C602 1.350 . S
C606 C603 1.463 . S
C606 N610 1.427 . S
C607 H597 0.929 . S
C607 C605 1.433 . S
C607 N610 1.384 . S
C608 H599 0.929 . S
C608 C600 1.378 . S
C608 C603 1.350 . S
C609 H596 0.929 . S
C609 C601 1.433 . S
C609 N611 1.384 . S
N610 C606 1.427 . S
N610 C607 1.384 . S
N611 C603 1.427 . S
N611 C609 1.384 . S
H612 C618 0.930 . S
H613 C622 0.930 . S
H614 C627 0.929 . S
H615 C625 0.929 . S
H616 C620 0.929 . S
H617 C626 0.929 . S
C618 H612 0.930 . S
C618 C619 1.367 . S
C618 C626 1.378 . S
C619 C618 1.367 . S
C619 C627 1.433 . S
C620 H616 0.929 . S
C620 C622 1.378 . S
C620 C624 1.350 . S
C621 C624 1.463 . S
C621 C626 1.350 . S
C621 N629 1.427 . S
C622 H613 0.930 . S
C622 C620 1.378 . S
C622 C623 1.367 . S
C623 C622 1.367 . S
C623 C625 1.433 . S
C624 C620 1.350 . S
C624 C621 1.463 . S
C624 N628 1.427 . S
C625 H615 0.929 . S
C625 C623 1.433 . S
C625 N628 1.384 . S
C626 H617 0.929 . S
C626 C618 1.378 . S
C626 C621 1.350 . S
C627 H614 0.929 . S
C627 C619 1.433 . S
C627 N629 1.384 . S
N628 C624 1.427 . S
N628 C625 1.384 . S
N629 C621 1.427 . S
N629 C627 1.384 . S
H630 C636 0.930 . S
H631 C640 0.930 . S
H632 C645 0.929 . S
H633 C643 0.929 . S
H634 C638 0.929 . S
H635 C644 0.929 . S
C636 H630 0.930 . S
C636 C637 1.367 . S
C636 C644 1.378 . S
C637 C636 1.367 . S
C637 C645 1.433 . S
C638 H634 0.929 . S
C638 C640 1.378 . S
C638 C642 1.350 . S
C639 C642 1.463 . S
C639 C644 1.350 . S
C639 N647 1.427 . S
C640 H631 0.930 . S
C640 C638 1.378 . S
C640 C641 1.367 . S
C641 C640 1.367 . S
C641 C643 1.433 . S
C642 C638 1.350 . S
C642 C639 1.463 . S
C642 N646 1.427 . S
C643 H633 0.929 . S
C643 C641 1.433 . S
C643 N646 1.384 . S
C644 H635 0.929 . S
C644 C636 1.378 . S
C644 C639 1.350 . S
C645 H632 0.929 . S
C645 C637 1.433 . S
C645 N647 1.384 . S
N646 C642 1.427 . S
N646 C643 1.384 . S
N647 C639 1.427 . S
N647 C645 1.384 . S
H648 C654 0.930 1_565 S
H649 C658 0.930 . S
H650 C663 0.929 . S
H651 C661 0.929 . S
H652 C656 0.929 . S
H653 C662 0.929 . S
C654 H648 0.930 1_545 S
C654 C655 1.363 1_545 S
C654 C662 1.378 . S
C655 C654 1.363 1_565 S
C655 C663 1.426 1_565 S
C656 H652 0.929 . S
C656 C658 1.378 . S
C656 C660 1.350 . S
C657 C660 1.463 . S
C657 C662 1.350 . S
C657 N665 1.427 . S
C658 H649 0.930 . S
C658 C656 1.378 . S
C658 C659 1.367 . S
C659 C658 1.367 . S
C659 C661 1.433 . S
C660 C656 1.350 . S
C660 C657 1.463 . S
C660 N664 1.427 . S
C661 H651 0.929 . S
C661 C659 1.433 . S
C661 N664 1.384 . S
C662 H653 0.929 . S
C662 C654 1.378 . S
C662 C657 1.350 . S
C663 H650 0.929 . S
C663 C655 1.426 1_545 S
C663 N665 1.384 . S
N664 C660 1.427 . S
N664 C661 1.384 . S
N665 C657 1.427 . S
N665 C663 1.384 . S
H666 C672 0.930 . S
H667 C676 0.930 . S
H668 C681 0.929 . S
H669 C679 0.929 . S
H670 C674 0.929 . S
H671 C680 0.929 . S
C672 H666 0.930 . S
C672 C673 1.367 . S
C672 C680 1.378 1_455 S
C673 C672 1.367 . S
C673 C681 1.433 . S
C674 H670 0.929 . S
C674 C676 1.378 . S
C674 C678 1.350 . S
C675 C678 1.463 . S
C675 C680 1.350 . S
C675 N683 1.425 1_655 S
C676 H667 0.930 . S
C676 C674 1.378 . S
C676 C677 1.367 . S
C677 C676 1.367 . S
C677 C679 1.433 . S
C678 C674 1.350 . S
C678 C675 1.463 . S
C678 N682 1.427 . S
C679 H669 0.929 . S
C679 C677 1.433 . S
C679 N682 1.384 . S
C680 H671 0.929 . S
C680 C672 1.378 1_655 S
C680 C675 1.350 . S
C681 H668 0.929 . S
C681 C673 1.433 . S
C681 N683 1.385 . S
N682 C678 1.427 . S
N682 C679 1.384 . S
N683 C675 1.425 1_455 S
N683 C681 1.385 . S
H684 C690 0.930 . S
H685 C694 0.930 . S
H686 C699 0.929 . S
H687 C697 0.929 . S
H688 C692 0.929 . S
H689 C698 0.929 . S
C690 H684 0.930 . S
C690 C691 1.367 . S
C690 C698 1.378 1_455 S
C691 C690 1.367 . S
C691 C699 1.433 1_455 S
C692 H688 0.929 . S
C692 C694 1.378 . S
C692 C696 1.350 . S
C693 C696 1.463 . S
C693 C698 1.350 . S
C693 N701 1.427 . S
C694 H685 0.930 . S
C694 C692 1.378 . S
C694 C695 1.367 . S
C695 C694 1.367 . S
C695 C697 1.433 . S
C696 C692 1.350 . S
C696 C693 1.463 . S
C696 N700 1.427 . S
C697 H687 0.929 . S
C697 C695 1.433 . S
C697 N700 1.384 . S
C698 H689 0.929 . S
C698 C690 1.378 1_655 S
C698 C693 1.350 . S
C699 H686 0.929 . S
C699 C691 1.433 1_655 S
C699 N701 1.384 . S
N700 C696 1.427 . S
N700 C697 1.384 . S
N701 C693 1.427 . S
N701 C699 1.384 . S
H702 C708 0.930 . S
H703 C712 0.930 . S
H704 C717 0.929 . S
H705 C715 0.929 . S
H706 C710 0.929 . S
H707 C716 0.929 . S
C708 H702 0.930 . S
C708 C709 1.367 . S
C708 C716 1.378 . S
C709 C708 1.367 . S
C709 C717 1.433 . S
C710 H706 0.929 . S
C710 C712 1.378 . S
C710 C714 1.350 . S
C711 C714 1.463 . S
C711 C716 1.350 . S
C711 N719 1.427 . S
C712 H703 0.930 . S
C712 C710 1.378 . S
C712 C713 1.367 . S
C713 C712 1.367 . S
C713 C715 1.433 . S
C714 C710 1.350 . S
C714 C711 1.463 . S
C714 N718 1.427 . S
C715 H705 0.929 . S
C715 C713 1.433 . S
C715 N718 1.384 . S
C716 H707 0.929 . S
C716 C708 1.378 . S
C716 C711 1.350 . S
C717 H704 0.929 . S
C717 C709 1.433 . S
C717 N719 1.384 . S
N718 C714 1.427 . S
N718 C715 1.384 . S
N719 C711 1.427 . S
N719 C717 1.384 . S
H720 C726 0.930 . S
H721 C730 0.930 . S
H722 C735 0.929 . S
H723 C733 0.929 . S
H724 C728 0.929 . S
H725 C734 0.929 . S
C726 H720 0.930 . S
C726 C727 1.367 . S
C726 C734 1.378 . S
C727 C726 1.367 . S
C727 C735 1.433 . S
C728 H724 0.929 . S
C728 C730 1.378 . S
C728 C732 1.350 . S
C729 C732 1.463 . S
C729 C734 1.350 . S
C729 N737 1.427 . S
C730 H721 0.930 . S
C730 C728 1.378 . S
C730 C731 1.367 . S
C731 C730 1.367 . S
C731 C733 1.433 . S
C732 C728 1.350 . S
C732 C729 1.463 . S
C732 N736 1.427 . S
C733 H723 0.929 . S
C733 C731 1.433 . S
C733 N736 1.384 . S
C734 H725 0.929 . S
C734 C726 1.378 . S
C734 C729 1.350 . S
C735 H722 0.929 . S
C735 C727 1.433 . S
C735 N737 1.384 . S
N736 C732 1.427 . S
N736 C733 1.384 . S
N737 C729 1.427 . S
N737 C735 1.384 . S
H738 C744 0.930 . S
H739 C748 0.930 . S
H740 C753 0.929 . S
H741 C751 0.929 . S
H742 C746 0.929 . S
H743 C752 0.929 . S
C744 H738 0.930 . S
C744 C745 1.367 . S
C744 C752 1.378 . S
C745 C744 1.367 . S
C745 C753 1.433 . S
C746 H742 0.929 . S
C746 C748 1.378 . S
C746 C750 1.350 . S
C747 C750 1.463 . S
C747 C752 1.350 . S
C747 N755 1.427 . S
C748 H739 0.930 . S
C748 C746 1.378 . S
C748 C749 1.367 . S
C749 C748 1.367 . S
C749 C751 1.433 . S
C750 C746 1.350 . S
C750 C747 1.463 . S
C750 N754 1.427 . S
C751 H741 0.929 . S
C751 C749 1.433 . S
C751 N754 1.384 . S
C752 H743 0.929 . S
C752 C744 1.378 . S
C752 C747 1.350 . S
C753 H740 0.929 . S
C753 C745 1.433 . S
C753 N755 1.384 . S
N754 C750 1.427 . S
N754 C751 1.384 . S
N755 C747 1.427 . S
N755 C753 1.384 . S
H756 C762 0.930 . S
H757 C766 0.930 . S
H758 C771 0.929 . S
H759 C769 0.929 . S
H760 C764 0.929 . S
H761 C770 0.929 . S
C762 H756 0.930 . S
C762 C763 1.367 . S
C762 C770 1.378 . S
C763 C762 1.367 . S
C763 C771 1.433 . S
C764 H760 0.929 . S
C764 C766 1.378 . S
C764 C768 1.350 . S
C765 C768 1.463 . S
C765 C770 1.350 . S
C765 N773 1.427 . S
C766 H757 0.930 . S
C766 C764 1.378 . S
C766 C767 1.367 . S
C767 C766 1.367 . S
C767 C769 1.433 . S
C768 C764 1.350 . S
C768 C765 1.463 . S
C768 N772 1.427 . S
C769 H759 0.929 . S
C769 C767 1.433 . S
C769 N772 1.384 . S
C770 H761 0.929 . S
C770 C762 1.378 . S
C770 C765 1.350 . S
C771 H758 0.929 . S
C771 C763 1.433 . S
C771 N773 1.384 . S
N772 C768 1.427 . S
N772 C769 1.384 . S
N773 C765 1.427 . S
N773 C771 1.384 . S
H774 C780 0.930 . S
H775 C784 0.930 . S
H776 C789 0.929 . S
H777 C787 0.929 . S
H778 C782 0.929 . S
H779 C788 0.929 . S
C780 H774 0.930 . S
C780 C781 1.367 . S
C780 C788 1.378 . S
C781 C780 1.367 . S
C781 C789 1.433 . S
C782 H778 0.929 . S
C782 C784 1.378 . S
C782 C786 1.350 . S
C783 C786 1.463 . S
C783 C788 1.350 . S
C783 N791 1.427 . S
C784 H775 0.930 . S
C784 C782 1.378 . S
C784 C785 1.367 . S
C785 C784 1.367 . S
C785 C787 1.433 . S
C786 C782 1.350 . S
C786 C783 1.463 . S
C786 N790 1.427 . S
C787 H777 0.929 . S
C787 C785 1.433 . S
C787 N790 1.384 . S
C788 H779 0.929 . S
C788 C780 1.378 . S
C788 C783 1.350 . S
C789 H776 0.929 . S
C789 C781 1.433 . S
C789 N791 1.384 . S
N790 C786 1.427 . S
N790 C787 1.384 . S
N791 C783 1.427 . S
N791 C789 1.384 . S
H792 C798 0.930 . S
H793 C802 0.930 . S
H794 C807 0.929 . S
H795 C805 0.929 . S
H796 C800 0.929 . S
H797 C806 0.929 . S
C798 H792 0.930 . S
C798 C799 1.367 . S
C798 C806 1.378 . S
C799 C798 1.367 . S
C799 C807 1.433 . S
C800 H796 0.929 . S
C800 C802 1.378 . S
C800 C804 1.350 . S
C801 C804 1.463 . S
C801 C806 1.350 . S
C801 N809 1.427 . S
C802 H793 0.930 . S
C802 C800 1.378 . S
C802 C803 1.367 . S
C803 C802 1.367 . S
C803 C805 1.433 . S
C804 C800 1.350 . S
C804 C801 1.463 . S
C804 N808 1.427 . S
C805 H795 0.929 . S
C805 C803 1.433 . S
C805 N808 1.384 . S
C806 H797 0.929 . S
C806 C798 1.378 . S
C806 C801 1.350 . S
C807 H794 0.929 . S
C807 C799 1.433 . S
C807 N809 1.384 . S
N808 C804 1.427 . S
N808 C805 1.384 . S
N809 C801 1.427 . S
N809 C807 1.384 . S
H810 C816 0.930 . S
H811 C820 0.930 . S
H812 C825 0.929 . S
H813 C823 0.929 . S
H814 C818 0.929 . S
H815 C824 0.929 . S
C816 H810 0.930 . S
C816 C817 1.375 . S
C816 C824 1.378 . S
C817 C816 1.375 . S
C817 C825 1.437 1_455 S
C818 H814 0.929 . S
C818 C820 1.378 . S
C818 C822 1.350 . S
C819 C822 1.463 . S
C819 C824 1.350 . S
C819 N827 1.427 . S
C820 H811 0.930 . S
C820 C818 1.378 . S
C820 C821 1.367 . S
C821 C820 1.367 . S
C821 C823 1.433 . S
C822 C818 1.350 . S
C822 C819 1.463 . S
C822 N826 1.427 . S
C823 H813 0.929 . S
C823 C821 1.433 . S
C823 N826 1.384 . S
C824 H815 0.929 . S
C824 C816 1.378 . S
C824 C819 1.350 . S
C825 H812 0.929 . S
C825 C817 1.437 1_655 S
C825 N827 1.384 1_655 S
N826 C822 1.427 . S
N826 C823 1.384 . S
N827 C819 1.427 . S
N827 C825 1.384 1_455 S
H828 C834 0.930 . S
H829 C838 0.930 . S
H830 C843 0.929 . S
H831 C841 0.929 . S
H832 C836 0.929 . S
H833 C842 0.929 . S
C834 H828 0.930 . S
C834 C835 1.367 . S
C834 C842 1.378 . S
C835 C834 1.367 . S
C835 C843 1.433 . S
C836 H832 0.929 . S
C836 C838 1.378 1_565 S
C836 C840 1.350 . S
C837 C840 1.463 . S
C837 C842 1.350 . S
C837 N845 1.427 . S
C838 H829 0.930 . S
C838 C836 1.378 1_545 S
C838 C839 1.367 . S
C839 C838 1.367 . S
C839 C841 1.433 1_545 S
C840 C836 1.350 . S
C840 C837 1.463 . S
C840 N844 1.427 . S
C841 H831 0.929 . S
C841 C839 1.433 1_565 S
C841 N844 1.384 . S
C842 H833 0.929 . S
C842 C834 1.378 . S
C842 C837 1.350 . S
C843 H830 0.929 . S
C843 C835 1.433 . S
C843 N845 1.384 . S
N844 C840 1.427 . S
N844 C841 1.384 . S
N845 C837 1.427 . S
N845 C843 1.384 . S
H846 C852 0.930 . S
H847 C856 0.930 . S
H848 C861 0.929 . S
H849 C859 0.929 . S
H850 C854 0.929 . S
H851 C860 0.929 . S
C852 H846 0.930 . S
C852 C853 1.367 . S
C852 C860 1.378 . S
C853 C852 1.367 . S
C853 C861 1.433 . S
C854 H850 0.929 . S
C854 C856 1.378 . S
C854 C858 1.350 . S
C855 C858 1.463 . S
C855 C860 1.350 1_565 S
C855 N863 1.427 . S
C856 H847 0.930 . S
C856 C854 1.378 . S
C856 C857 1.367 . S
C857 C856 1.367 . S
C857 C859 1.433 . S
C858 C854 1.350 . S
C858 C855 1.463 . S
C858 N862 1.427 . S
C859 H849 0.929 . S
C859 C857 1.433 . S
C859 N862 1.384 . S
C860 H851 0.929 . S
C860 C852 1.378 . S
C860 C855 1.350 1_545 S
C861 H848 0.929 . S
C861 C853 1.433 . S
C861 N863 1.384 1_545 S
N862 C858 1.427 . S
N862 C859 1.384 . S
N863 C855 1.427 . S
N863 C861 1.384 1_565 S
H864 C870 0.930 . S
H865 C874 0.930 . S
H866 C879 0.929 . S
H867 C877 0.929 . S
H868 C872 0.929 . S
H869 C878 0.929 . S
C870 H864 0.930 . S
C870 C871 1.367 1_565 S
C870 C878 1.378 . S
C871 C870 1.367 1_545 S
C871 C879 1.433 . S
C872 H868 0.929 . S
C872 C874 1.378 . S
C872 C876 1.350 . S
C873 C876 1.463 1_554 S
C873 C878 1.350 1_545 S
C873 N881 1.427 . S
C874 H865 0.930 . S
C874 C872 1.378 . S
C874 C875 1.367 . S
C875 C874 1.367 . S
C875 C877 1.433 1_545 S
C876 C872 1.350 . S
C876 C873 1.463 1_556 S
C876 N880 1.427 1_545 S
C877 H867 0.929 . S
C877 C875 1.433 1_565 S
C877 N880 1.384 . S
C878 H869 0.929 . S
C878 C870 1.378 . S
C878 C873 1.350 1_565 S
C879 H866 0.929 . S
C879 C871 1.433 . S
C879 N881 1.384 . S
N880 C876 1.427 1_565 S
N880 C877 1.384 . S
N881 C873 1.427 . S
N881 C879 1.384 . S
H882 C888 0.930 . S
H883 C892 0.930 . S
H884 C897 0.929 . S
H885 C895 0.929 . S
H886 C890 0.929 . S
H887 C896 0.929 . S
C888 H882 0.930 . S
C888 C889 1.367 . S
C888 C896 1.378 . S
C889 C888 1.367 . S
C889 C897 1.433 . S
C890 H886 0.929 . S
C890 C892 1.378 . S
C890 C894 1.350 . S
C891 C894 1.463 1_556 S
C891 C896 1.350 . S
C891 N899 1.427 . S
C892 H883 0.930 . S
C892 C890 1.378 . S
C892 C893 1.367 . S
C893 C892 1.367 . S
C893 C895 1.433 . S
C894 C890 1.350 . S
C894 C891 1.463 1_554 S
C894 N898 1.427 . S
C895 H885 0.929 . S
C895 C893 1.433 . S
C895 N898 1.384 . S
C896 H887 0.929 . S
C896 C888 1.378 . S
C896 C891 1.350 . S
C897 H884 0.929 . S
C897 C889 1.433 . S
C897 N899 1.384 . S
N898 C894 1.427 . S
N898 C895 1.384 . S
N899 C891 1.427 . S
N899 C897 1.384 . S
H900 C906 0.930 . S
H901 C910 0.930 . S
H902 C915 0.929 . S
H903 C913 0.929 . S
H904 C908 0.929 . S
H905 C914 0.929 . S
C906 H900 0.930 . S
C906 C907 1.367 . S
C906 C914 1.378 . S
C907 C906 1.367 . S
C907 C915 1.433 . S
C908 H904 0.929 . S
C908 C910 1.378 . S
C908 C912 1.350 . S
C909 C912 1.463 1_556 S
C909 C914 1.350 . S
C909 N917 1.427 . S
C910 H901 0.930 . S
C910 C908 1.378 . S
C910 C911 1.367 . S
C911 C910 1.367 . S
C911 C913 1.433 . S
C912 C908 1.350 . S
C912 C909 1.463 1_554 S
C912 N916 1.427 . S
C913 H903 0.929 . S
C913 C911 1.433 . S
C913 N916 1.384 . S
C914 H905 0.929 . S
C914 C906 1.378 . S
C914 C909 1.350 . S
C915 H902 0.929 . S
C915 C907 1.433 . S
C915 N917 1.384 . S
N916 C912 1.427 . S
N916 C913 1.384 . S
N917 C909 1.427 . S
N917 C915 1.384 . S
H918 C924 0.930 . S
H919 C928 0.930 . S
H920 C933 0.929 . S
H921 C931 0.929 . S
H922 C926 0.929 . S
H923 C932 0.929 . S
C924 H918 0.930 . S
C924 C925 1.367 . S
C924 C932 1.378 . S
C925 C924 1.367 . S
C925 C933 1.433 . S
C926 H922 0.929 . S
C926 C928 1.378 . S
C926 C930 1.350 . S
C927 C930 1.463 . S
C927 C932 1.350 . S
C927 N935 1.427 . S
C928 H919 0.930 . S
C928 C926 1.378 . S
C928 C929 1.367 . S
C929 C928 1.367 . S
C929 C931 1.433 . S
C930 C926 1.350 . S
C930 C927 1.463 . S
C930 N934 1.427 . S
C931 H921 0.929 . S
C931 C929 1.433 . S
C931 N934 1.384 . S
C932 H923 0.929 . S
C932 C924 1.378 . S
C932 C927 1.350 . S
C933 H920 0.929 . S
C933 C925 1.433 . S
C933 N935 1.384 . S
N934 C930 1.427 . S
N934 C931 1.384 . S
N935 C927 1.427 . S
N935 C933 1.384 . S
H936 C942 0.930 . S
H937 C946 0.930 . S
H938 C951 0.929 . S
H939 C949 0.929 . S
H940 C944 0.929 . S
H941 C950 0.929 . S
C942 H936 0.930 . S
C942 C943 1.367 . S
C942 C950 1.378 . S
C943 C942 1.367 . S
C943 C951 1.433 . S
C944 H940 0.929 . S
C944 C946 1.378 . S
C944 C948 1.350 . S
C945 C948 1.463 . S
C945 C950 1.350 . S
C945 N953 1.427 . S
C946 H937 0.930 . S
C946 C944 1.378 . S
C946 C947 1.367 . S
C947 C946 1.367 . S
C947 C949 1.433 . S
C948 C944 1.350 . S
C948 C945 1.463 . S
C948 N952 1.427 . S
C949 H939 0.929 . S
C949 C947 1.433 . S
C949 N952 1.384 . S
C950 H941 0.929 . S
C950 C942 1.378 . S
C950 C945 1.350 . S
C951 H938 0.929 . S
C951 C943 1.433 . S
C951 N953 1.384 . S
N952 C948 1.427 . S
N952 C949 1.384 . S
N953 C945 1.427 . S
N953 C951 1.384 . S
H954 C960 0.930 . S
H955 C964 0.930 . S
H956 C969 0.929 . S
H957 C967 0.929 . S
H958 C962 0.929 . S
H959 C968 0.929 . S
C960 H954 0.930 . S
C960 C961 1.367 . S
C960 C968 1.378 . S
C961 C960 1.367 . S
C961 C969 1.433 . S
C962 H958 0.929 . S
C962 C964 1.378 . S
C962 C966 1.350 . S
C963 C966 1.463 . S
C963 C968 1.350 . S
C963 N971 1.427 . S
C964 H955 0.930 . S
C964 C962 1.378 . S
C964 C965 1.367 . S
C965 C964 1.367 . S
C965 C967 1.433 . S
C966 C962 1.350 . S
C966 C963 1.463 . S
C966 N970 1.427 . S
C967 H957 0.929 . S
C967 C965 1.433 . S
C967 N970 1.384 . S
C968 H959 0.929 . S
C968 C960 1.378 . S
C968 C963 1.350 . S
C969 H956 0.929 . S
C969 C961 1.433 . S
C969 N971 1.384 . S
N970 C966 1.427 . S
N970 C967 1.384 . S
N971 C963 1.427 . S
N971 C969 1.384 . S
H972 C978 0.930 . S
H973 C982 0.930 . S
H974 C987 0.929 . S
H975 C985 0.929 . S
H976 C980 0.929 . S
H977 C986 0.929 . S
C978 H972 0.930 . S
C978 C979 1.367 . S
C978 C986 1.378 . S
C979 C978 1.367 . S
C979 C987 1.433 . S
C980 H976 0.929 . S
C980 C982 1.378 . S
C980 C984 1.350 . S
C981 C984 1.463 . S
C981 C986 1.350 . S
C981 N989 1.427 . S
C982 H973 0.930 . S
C982 C980 1.378 . S
C982 C983 1.367 . S
C983 C982 1.367 . S
C983 C985 1.433 . S
C984 C980 1.350 . S
C984 C981 1.463 . S
C984 N988 1.427 . S
C985 H975 0.929 . S
C985 C983 1.433 . S
C985 N988 1.384 . S
C986 H977 0.929 . S
C986 C978 1.378 . S
C986 C981 1.350 . S
C987 H974 0.929 . S
C987 C979 1.433 . S
C987 N989 1.384 . S
N988 C984 1.427 . S
N988 C985 1.384 . S
N989 C981 1.427 . S
N989 C987 1.384 . S
H990 C996 0.930 . S
H991 C1000 0.930 . S
H992 C1005 0.929 . S
H993 C1003 0.929 . S
H994 C998 0.929 . S
H995 C1004 0.929 . S
C996 H990 0.930 . S
C996 C997 1.367 . S
C996 C1004 1.378 . S
C997 C996 1.367 . S
C997 C1005 1.433 . S
C998 H994 0.929 . S
C998 C1000 1.378 . S
C998 C1002 1.350 . S
C999 C1002 1.463 . S
C999 C1004 1.350 . S
C999 N1007 1.427 . S
C1000 H991 0.930 . S
C1000 C998 1.378 . S
C1000 C1001 1.367 . S
C1001 C1000 1.367 . S
C1001 C1003 1.433 . S
C1002 C998 1.350 . S
C1002 C999 1.463 . S
C1002 N1006 1.427 . S
C1003 H993 0.929 . S
C1003 C1001 1.433 . S
C1003 N1006 1.384 . S
C1004 H995 0.929 . S
C1004 C996 1.378 . S
C1004 C999 1.350 . S
C1005 H992 0.929 . S
C1005 C997 1.433 . S
C1005 N1007 1.384 . S
N1006 C1002 1.427 . S
N1006 C1003 1.384 . S
N1007 C999 1.427 . S
N1007 C1005 1.384 . S
H1008 C1014 0.930 . S
H1009 C1018 0.930 . S
H1010 C1023 0.929 . S
H1011 C1021 0.929 . S
H1012 C1016 0.929 . S
H1013 C1022 0.929 . S
C1014 H1008 0.930 . S
C1014 C1015 1.367 . S
C1014 C1022 1.378 . S
C1015 C1014 1.367 . S
C1015 C1023 1.433 . S
C1016 H1012 0.929 . S
C1016 C1018 1.378 . S
C1016 C1020 1.350 . S
C1017 C1020 1.463 . S
C1017 C1022 1.350 . S
C1017 N1025 1.427 . S
C1018 H1009 0.930 . S
C1018 C1016 1.378 . S
C1018 C1019 1.367 . S
C1019 C1018 1.367 . S
C1019 C1021 1.433 . S
C1020 C1016 1.350 . S
C1020 C1017 1.463 . S
C1020 N1024 1.427 . S
C1021 H1011 0.929 . S
C1021 C1019 1.433 . S
C1021 N1024 1.384 . S
C1022 H1013 0.929 . S
C1022 C1014 1.378 . S
C1022 C1017 1.350 . S
C1023 H1010 0.929 . S
C1023 C1015 1.433 . S
C1023 N1025 1.384 . S
N1024 C1020 1.427 . S
N1024 C1021 1.384 . S
N1025 C1017 1.427 . S
N1025 C1023 1.384 . S
H1026 C1032 0.930 . S
H1027 C1036 0.930 . S
H1028 C1041 0.929 . S
H1029 C1039 0.929 . S
H1030 C1034 0.929 1_545 S
H1031 C1040 0.929 . S
C1032 H1026 0.930 . S
C1032 C1033 1.367 . S
C1032 C1040 1.378 . S
C1033 C1032 1.367 . S
C1033 C1041 1.433 . S
C1034 H1030 0.929 1_565 S
C1034 C1036 1.378 1_565 S
C1034 C1038 1.350 . S
C1035 C1038 1.463 . S
C1035 C1040 1.350 . S
C1035 N1043 1.427 . S
C1036 H1027 0.930 . S
C1036 C1034 1.378 1_545 S
C1036 C1037 1.367 1_545 S
C1037 C1036 1.367 1_565 S
C1037 C1039 1.433 . S
C1038 C1034 1.350 . S
C1038 C1035 1.463 . S
C1038 N1042 1.427 . S
C1039 H1029 0.929 . S
C1039 C1037 1.433 . S
C1039 N1042 1.384 . S
C1040 H1031 0.929 . S
C1040 C1032 1.378 . S
C1040 C1035 1.350 . S
C1041 H1028 0.929 . S
C1041 C1033 1.433 . S
C1041 N1043 1.384 . S
N1042 C1038 1.427 . S
N1042 C1039 1.384 . S
N1043 C1035 1.427 . S
N1043 C1041 1.384 . S
H1044 C1050 0.930 . S
H1045 C1054 0.930 . S
H1046 C1059 0.929 . S
H1047 C1057 0.929 . S
H1048 C1052 0.929 . S
H1049 C1058 0.929 . S
C1050 H1044 0.930 . S
C1050 C1051 1.367 . S
C1050 C1058 1.378 . S
C1051 C1050 1.367 . S
C1051 C1059 1.433 . S
C1052 H1048 0.929 . S
C1052 C1054 1.378 . S
C1052 C1056 1.350 . S
C1053 C1056 1.463 . S
C1053 C1058 1.350 . S
C1053 N1061 1.427 . S
C1054 H1045 0.930 . S
C1054 C1052 1.378 . S
C1054 C1055 1.367 . S
C1055 C1054 1.367 . S
C1055 C1057 1.433 . S
C1056 C1052 1.350 . S
C1056 C1053 1.463 . S
C1056 N1060 1.427 . S
C1057 H1047 0.929 . S
C1057 C1055 1.433 . S
C1057 N1060 1.384 . S
C1058 H1049 0.929 . S
C1058 C1050 1.378 . S
C1058 C1053 1.350 . S
C1059 H1046 0.929 . S
C1059 C1051 1.433 . S
C1059 N1061 1.384 . S
N1060 C1056 1.427 . S
N1060 C1057 1.384 . S
N1061 C1053 1.427 . S
N1061 C1059 1.384 . S
H1062 C1068 0.930 . S
H1063 C1072 0.930 . S
H1064 C1077 0.929 . S
H1065 C1075 0.929 . S
H1066 C1070 0.929 . S
H1067 C1076 0.929 . S
C1068 H1062 0.930 . S
C1068 C1069 1.367 . S
C1068 C1076 1.378 . S
C1069 C1068 1.367 . S
C1069 C1077 1.433 . S
C1070 H1066 0.929 . S
C1070 C1072 1.378 . S
C1070 C1074 1.350 . S
C1071 C1074 1.463 . S
C1071 C1076 1.350 . S
C1071 N1079 1.427 . S
C1072 H1063 0.930 . S
C1072 C1070 1.378 . S
C1072 C1073 1.367 . S
C1073 C1072 1.367 . S
C1073 C1075 1.433 . S
C1074 C1070 1.350 . S
C1074 C1071 1.463 . S
C1074 N1078 1.427 . S
C1075 H1065 0.929 . S
C1075 C1073 1.433 . S
C1075 N1078 1.384 . S
C1076 H1067 0.929 . S
C1076 C1068 1.378 . S
C1076 C1071 1.350 . S
C1077 H1064 0.929 . S
C1077 C1069 1.433 . S
C1077 N1079 1.384 . S
N1078 C1074 1.427 . S
N1078 C1075 1.384 . S
N1079 C1071 1.427 . S
N1079 C1077 1.384 . S
H1080 C1086 0.930 . S
H1081 C1090 0.930 . S
H1082 C1095 0.929 . S
H1083 C1093 0.929 . S
H1084 C1088 0.929 . S
H1085 C1094 0.929 1_455 S
C1086 H1080 0.930 . S
C1086 C1087 1.367 1_455 S
C1086 C1094 1.378 1_455 S
C1087 C1086 1.367 1_655 S
C1087 C1095 1.433 . S
C1088 H1084 0.929 . S
C1088 C1090 1.378 . S
C1088 C1092 1.350 . S
C1089 C1092 1.463 . S
C1089 C1094 1.350 . S
C1089 N1097 1.427 . S
C1090 H1081 0.930 . S
C1090 C1088 1.378 . S
C1090 C1091 1.367 . S
C1091 C1090 1.367 . S
C1091 C1093 1.433 . S
C1092 C1088 1.350 . S
C1092 C1089 1.463 . S
C1092 N1096 1.427 . S
C1093 H1083 0.929 . S
C1093 C1091 1.433 . S
C1093 N1096 1.384 . S
C1094 H1085 0.929 1_655 S
C1094 C1086 1.378 1_655 S
C1094 C1089 1.350 . S
C1095 H1082 0.929 . S
C1095 C1087 1.433 . S
C1095 N1097 1.384 . S
N1096 C1092 1.427 . S
N1096 C1093 1.384 . S
N1097 C1089 1.427 . S
N1097 C1095 1.384 . S
H1098 C1104 0.930 . S
H1099 C1108 0.930 . S
H1100 C1113 0.929 . S
H1101 C1111 0.929 . S
H1102 C1106 0.929 . S
H1103 C1112 0.929 . S
C1104 H1098 0.930 . S
C1104 C1105 1.367 . S
C1104 C1112 1.378 . S
C1105 C1104 1.367 . S
C1105 C1113 1.433 . S
C1106 H1102 0.929 . S
C1106 C1108 1.378 . S
C1106 C1110 1.350 . S
C1107 C1110 1.463 . S
C1107 C1112 1.350 . S
C1107 N1115 1.427 . S
C1108 H1099 0.930 . S
C1108 C1106 1.378 . S
C1108 C1109 1.367 . S
C1109 C1108 1.367 . S
C1109 C1111 1.433 . S
C1110 C1106 1.350 . S
C1110 C1107 1.463 . S
C1110 N1114 1.427 . S
C1111 H1101 0.929 . S
C1111 C1109 1.433 . S
C1111 N1114 1.384 . S
C1112 H1103 0.929 . S
C1112 C1104 1.378 . S
C1112 C1107 1.350 . S
C1113 H1100 0.929 . S
C1113 C1105 1.433 . S
C1113 N1115 1.384 . S
N1114 C1110 1.427 . S
N1114 C1111 1.384 . S
N1115 C1107 1.427 . S
N1115 C1113 1.384 . S
H1116 C1122 0.930 . S
H1117 C1126 0.930 . S
H1118 C1131 0.929 . S
H1119 C1129 0.929 . S
H1120 C1124 0.929 . S
H1121 C1130 0.929 . S
C1122 H1116 0.930 . S
C1122 C1123 1.367 . S
C1122 C1130 1.378 . S
C1123 C1122 1.367 . S
C1123 C1131 1.433 . S
C1124 H1120 0.929 . S
C1124 C1126 1.378 . S
C1124 C1128 1.350 . S
C1125 C1128 1.463 . S
C1125 C1130 1.350 . S
C1125 N1133 1.427 . S
C1126 H1117 0.930 . S
C1126 C1124 1.378 . S
C1126 C1127 1.367 . S
C1127 C1126 1.367 . S
C1127 C1129 1.433 . S
C1128 C1124 1.350 . S
C1128 C1125 1.463 . S
C1128 N1132 1.427 . S
C1129 H1119 0.929 . S
C1129 C1127 1.433 . S
C1129 N1132 1.384 . S
C1130 H1121 0.929 . S
C1130 C1122 1.378 . S
C1130 C1125 1.350 . S
C1131 H1118 0.929 . S
C1131 C1123 1.433 . S
C1131 N1133 1.384 . S
N1132 C1128 1.427 . S
N1132 C1129 1.384 . S
N1133 C1125 1.427 . S
N1133 C1131 1.384 . S
H1134 C1140 0.930 . S
H1135 C1144 0.930 . S
H1136 C1149 0.929 . S
H1137 C1147 0.929 . S
H1138 C1142 0.929 . S
H1139 C1148 0.929 . S
C1140 H1134 0.930 . S
C1140 C1141 1.367 . S
C1140 C1148 1.378 1_655 S
C1141 C1140 1.367 . S
C1141 C1149 1.433 . S
C1142 H1138 0.929 . S
C1142 C1144 1.378 . S
C1142 C1146 1.350 . S
C1143 C1146 1.463 . S
C1143 C1148 1.350 . S
C1143 N1151 1.427 1_455 S
C1144 H1135 0.930 . S
C1144 C1142 1.378 . S
C1144 C1145 1.367 . S
C1145 C1144 1.367 . S
C1145 C1147 1.433 . S
C1146 C1142 1.350 . S
C1146 C1143 1.463 . S
C1146 N1150 1.427 . S
C1147 H1137 0.929 . S
C1147 C1145 1.433 . S
C1147 N1150 1.384 . S
C1148 H1139 0.929 . S
C1148 C1140 1.378 1_455 S
C1148 C1143 1.350 . S
C1149 H1136 0.929 . S
C1149 C1141 1.433 . S
C1149 N1151 1.384 . S
N1150 C1146 1.427 . S
N1150 C1147 1.384 . S
N1151 C1143 1.427 1_655 S
N1151 C1149 1.384 . S
H1152 C1158 0.930 . S
H1153 C1162 0.930 . S
H1154 C1167 0.929 . S
H1155 C1165 0.929 . S
H1156 C1160 0.929 . S
H1157 C1166 0.929 . S
C1158 H1152 0.930 . S
C1158 C1159 1.367 . S
C1158 C1166 1.378 . S
C1159 C1158 1.367 . S
C1159 C1167 1.433 . S
C1160 H1156 0.929 . S
C1160 C1162 1.378 . S
C1160 C1164 1.350 . S
C1161 C1164 1.463 . S
C1161 C1166 1.350 . S
C1161 N1169 1.427 . S
C1162 H1153 0.930 . S
C1162 C1160 1.378 . S
C1162 C1163 1.367 . S
C1163 C1162 1.367 . S
C1163 C1165 1.433 . S
C1164 C1160 1.350 . S
C1164 C1161 1.463 . S
C1164 N1168 1.427 . S
C1165 H1155 0.929 . S
C1165 C1163 1.433 . S
C1165 N1168 1.384 . S
C1166 H1157 0.929 . S
C1166 C1158 1.378 . S
C1166 C1161 1.350 . S
C1167 H1154 0.929 . S
C1167 C1159 1.433 . S
C1167 N1169 1.384 . S
N1168 C1164 1.427 . S
N1168 C1165 1.384 . S
N1169 C1161 1.427 . S
N1169 C1167 1.384 . S
H1170 C1176 0.930 . S
H1171 C1180 0.930 . S
H1172 C1185 0.929 . S
H1173 C1183 0.929 . S
H1174 C1178 0.929 1_565 S
H1175 C1184 0.929 . S
C1176 H1170 0.930 . S
C1176 C1177 1.367 . S
C1176 C1184 1.378 1_565 S
C1177 C1176 1.367 . S
C1177 C1185 1.433 . S
C1178 H1174 0.929 1_545 S
C1178 C1180 1.378 . S
C1178 C1182 1.350 . S
C1179 C1182 1.463 . S
C1179 C1184 1.350 . S
C1179 N1187 1.427 1_545 S
C1180 H1171 0.930 . S
C1180 C1178 1.378 . S
C1180 C1181 1.367 . S
C1181 C1180 1.367 . S
C1181 C1183 1.433 . S
C1182 C1178 1.350 . S
C1182 C1179 1.463 . S
C1182 N1186 1.427 . S
C1183 H1173 0.929 . S
C1183 C1181 1.433 . S
C1183 N1186 1.384 . S
C1184 H1175 0.929 . S
C1184 C1176 1.378 1_545 S
C1184 C1179 1.350 . S
C1185 H1172 0.929 . S
C1185 C1177 1.433 . S
C1185 N1187 1.384 . S
N1186 C1182 1.427 . S
N1186 C1183 1.384 . S
N1187 C1179 1.427 1_565 S
N1187 C1185 1.384 . S
H1188 C1194 0.930 . S
H1189 C1198 0.930 . S
H1190 C1203 0.929 . S
H1191 C1201 0.929 . S
H1192 C1196 0.929 . S
H1193 C1202 0.929 . S
C1194 H1188 0.930 . S
C1194 C1195 1.367 . S
C1194 C1202 1.378 . S
C1195 C1194 1.367 . S
C1195 C1203 1.433 . S
C1196 H1192 0.929 . S
C1196 C1198 1.378 . S
C1196 C1200 1.350 . S
C1197 C1200 1.463 . S
C1197 C1202 1.350 . S
C1197 N1205 1.427 . S
C1198 H1189 0.930 . S
C1198 C1196 1.378 . S
C1198 C1199 1.367 . S
C1199 C1198 1.367 . S
C1199 C1201 1.433 . S
C1200 C1196 1.350 . S
C1200 C1197 1.463 . S
C1200 N1204 1.427 . S
C1201 H1191 0.929 . S
C1201 C1199 1.433 . S
C1201 N1204 1.384 . S
C1202 H1193 0.929 . S
C1202 C1194 1.378 . S
C1202 C1197 1.350 . S
C1203 H1190 0.929 . S
C1203 C1195 1.433 . S
C1203 N1205 1.384 . S
N1204 C1200 1.427 . S
N1204 C1201 1.384 . S
N1205 C1197 1.427 . S
N1205 C1203 1.384 . S
H1206 C1212 0.930 . S
H1207 C1216 0.930 . S
H1208 C1221 0.929 . S
H1209 C1219 0.929 . S
H1210 C1214 0.929 . S
H1211 C1220 0.929 . S
C1212 H1206 0.930 . S
C1212 C1213 1.367 . S
C1212 C1220 1.378 . S
C1213 C1212 1.367 . S
C1213 C1221 1.433 . S
C1214 H1210 0.929 . S
C1214 C1216 1.378 . S
C1214 C1218 1.350 . S
C1215 C1218 1.463 . S
C1215 C1220 1.350 . S
C1215 N1223 1.427 . S
C1216 H1207 0.930 . S
C1216 C1214 1.378 . S
C1216 C1217 1.367 . S
C1217 C1216 1.367 . S
C1217 C1219 1.433 . S
C1218 C1214 1.350 . S
C1218 C1215 1.463 . S
C1218 N1222 1.427 . S
C1219 H1209 0.929 . S
C1219 C1217 1.433 . S
C1219 N1222 1.384 . S
C1220 H1211 0.929 . S
C1220 C1212 1.378 . S
C1220 C1215 1.350 . S
C1221 H1208 0.929 . S
C1221 C1213 1.433 . S
C1221 N1223 1.384 . S
N1222 C1218 1.427 . S
N1222 C1219 1.384 . S
N1223 C1215 1.427 . S
N1223 C1221 1.384 . S
H1224 C1230 0.930 . S
H1225 C1234 0.930 . S
H1226 C1239 0.929 . S
H1227 C1237 0.929 . S
H1228 C1232 0.929 . S
H1229 C1238 0.929 . S
C1230 H1224 0.930 . S
C1230 C1231 1.367 . S
C1230 C1238 1.378 . S
C1231 C1230 1.367 . S
C1231 C1239 1.433 . S
C1232 H1228 0.929 . S
C1232 C1234 1.378 . S
C1232 C1236 1.350 . S
C1233 C1236 1.463 . S
C1233 C1238 1.350 . S
C1233 N1241 1.427 . S
C1234 H1225 0.930 . S
C1234 C1232 1.378 . S
C1234 C1235 1.367 . S
C1235 C1234 1.367 . S
C1235 C1237 1.433 . S
C1236 C1232 1.350 . S
C1236 C1233 1.463 . S
C1236 N1240 1.427 . S
C1237 H1227 0.929 . S
C1237 C1235 1.433 . S
C1237 N1240 1.384 . S
C1238 H1229 0.929 . S
C1238 C1230 1.378 . S
C1238 C1233 1.350 . S
C1239 H1226 0.929 . S
C1239 C1231 1.433 . S
C1239 N1241 1.384 . S
N1240 C1236 1.427 . S
N1240 C1237 1.384 . S
N1241 C1233 1.427 . S
N1241 C1239 1.384 . S
H1242 C1248 0.930 . S
H1243 C1252 0.930 . S
H1244 C1257 0.929 . S
H1245 C1255 0.929 . S
H1246 C1250 0.929 . S
H1247 C1256 0.929 . S
C1248 H1242 0.930 . S
C1248 C1249 1.367 . S
C1248 C1256 1.378 . S
C1249 C1248 1.367 . S
C1249 C1257 1.433 . S
C1250 H1246 0.929 . S
C1250 C1252 1.378 . S
C1250 C1254 1.350 . S
C1251 C1254 1.463 . S
C1251 C1256 1.350 . S
C1251 N1259 1.427 . S
C1252 H1243 0.930 . S
C1252 C1250 1.378 . S
C1252 C1253 1.367 . S
C1253 C1252 1.367 . S
C1253 C1255 1.433 . S
C1254 C1250 1.350 . S
C1254 C1251 1.463 . S
C1254 N1258 1.427 . S
C1255 H1245 0.929 . S
C1255 C1253 1.433 . S
C1255 N1258 1.384 . S
C1256 H1247 0.929 . S
C1256 C1248 1.378 . S
C1256 C1251 1.350 . S
C1257 H1244 0.929 . S
C1257 C1249 1.433 . S
C1257 N1259 1.384 . S
N1258 C1254 1.427 . S
N1258 C1255 1.384 . S
N1259 C1251 1.427 . S
N1259 C1257 1.384 . S
H1260 C1266 0.930 . S
H1261 C1270 0.930 . S
H1262 C1275 0.929 . S
H1263 C1273 0.929 . S
H1264 C1268 0.929 . S
H1265 C1274 0.929 . S
C1266 H1260 0.930 . S
C1266 C1267 1.367 . S
C1266 C1274 1.378 . S
C1267 C1266 1.367 . S
C1267 C1275 1.433 . S
C1268 H1264 0.929 . S
C1268 C1270 1.378 . S
C1268 C1272 1.350 . S
C1269 C1272 1.463 . S
C1269 C1274 1.350 . S
C1269 N1277 1.427 . S
C1270 H1261 0.930 . S
C1270 C1268 1.378 . S
C1270 C1271 1.367 . S
C1271 C1270 1.367 . S
C1271 C1273 1.433 . S
C1272 C1268 1.350 . S
C1272 C1269 1.463 . S
C1272 N1276 1.427 . S
C1273 H1263 0.929 . S
C1273 C1271 1.433 . S
C1273 N1276 1.384 . S
C1274 H1265 0.929 . S
C1274 C1266 1.378 . S
C1274 C1269 1.350 . S
C1275 H1262 0.929 . S
C1275 C1267 1.433 . S
C1275 N1277 1.384 . S
N1276 C1272 1.427 . S
N1276 C1273 1.384 . S
N1277 C1269 1.427 . S
N1277 C1275 1.384 . S
H1278 C1284 0.930 . S
H1279 C1288 0.930 . S
H1280 C1293 0.929 . S
H1281 C1291 0.929 . S
H1282 C1286 0.929 . S
H1283 C1292 0.929 . S
C1284 H1278 0.930 . S
C1284 C1285 1.367 . S
C1284 C1292 1.378 . S
C1285 C1284 1.367 . S
C1285 C1293 1.433 . S
C1286 H1282 0.929 . S
C1286 C1288 1.378 . S
C1286 C1290 1.350 . S
C1287 C1290 1.463 . S
C1287 C1292 1.350 . S
C1287 N1295 1.427 . S
C1288 H1279 0.930 . S
C1288 C1286 1.378 . S
C1288 C1289 1.367 . S
C1289 C1288 1.367 . S
C1289 C1291 1.433 . S
C1290 C1286 1.350 . S
C1290 C1287 1.463 . S
C1290 N1294 1.427 . S
C1291 H1281 0.929 . S
C1291 C1289 1.433 . S
C1291 N1294 1.384 . S
C1292 H1283 0.929 . S
C1292 C1284 1.378 . S
C1292 C1287 1.350 . S
C1293 H1280 0.929 . S
C1293 C1285 1.433 . S
C1293 N1295 1.384 . S
N1294 C1290 1.427 . S
N1294 C1291 1.384 . S
N1295 C1287 1.427 . S
N1295 C1293 1.384 . S
H1296 C1302 0.930 . S
H1297 C1306 0.930 . S
H1298 C1311 0.929 . S
H1299 C1309 0.929 . S
H1300 C1304 0.929 . S
H1301 C1310 0.929 . S
C1302 H1296 0.930 . S
C1302 C1303 1.367 . S
C1302 C1310 1.378 . S
C1303 C1302 1.367 . S
C1303 C1311 1.433 . S
C1304 H1300 0.929 . S
C1304 C1306 1.378 . S
C1304 C1308 1.350 . S
C1305 C1308 1.463 . S
C1305 C1310 1.350 . S
C1305 N1313 1.427 . S
C1306 H1297 0.930 . S
C1306 C1304 1.378 . S
C1306 C1307 1.367 . S
C1307 C1306 1.367 . S
C1307 C1309 1.433 . S
C1308 C1304 1.350 . S
C1308 C1305 1.463 . S
C1308 N1312 1.427 . S
C1309 H1299 0.929 . S
C1309 C1307 1.433 . S
C1309 N1312 1.384 . S
C1310 H1301 0.929 . S
C1310 C1302 1.378 . S
C1310 C1305 1.350 . S
C1311 H1298 0.929 . S
C1311 C1303 1.433 . S
C1311 N1313 1.384 . S
N1312 C1308 1.427 . S
N1312 C1309 1.384 . S
N1313 C1305 1.427 . S
N1313 C1311 1.384 . S
H1314 C1320 0.930 . S
H1315 C1324 0.930 . S
H1316 C1329 0.929 . S
H1317 C1327 0.929 . S
H1318 C1322 0.929 . S
H1319 C1328 0.929 . S
C1320 H1314 0.930 . S
C1320 C1321 1.367 . S
C1320 C1328 1.378 . S
C1321 C1320 1.367 . S
C1321 C1329 1.433 . S
C1322 H1318 0.929 . S
C1322 C1324 1.378 . S
C1322 C1326 1.350 . S
C1323 C1326 1.463 . S
C1323 C1328 1.350 . S
C1323 N1331 1.427 . S
C1324 H1315 0.930 . S
C1324 C1322 1.378 . S
C1324 C1325 1.367 . S
C1325 C1324 1.367 . S
C1325 C1327 1.433 . S
C1326 C1322 1.350 . S
C1326 C1323 1.463 . S
C1326 N1330 1.427 . S
C1327 H1317 0.929 . S
C1327 C1325 1.433 . S
C1327 N1330 1.384 . S
C1328 H1319 0.929 . S
C1328 C1320 1.378 . S
C1328 C1323 1.350 . S
C1329 H1316 0.929 . S
C1329 C1321 1.433 . S
C1329 N1331 1.384 . S
N1330 C1326 1.427 . S
N1330 C1327 1.384 . S
N1331 C1323 1.427 . S
N1331 C1329 1.384 . S
H1332 C1338 0.930 . S
H1333 C1342 0.930 . S
H1334 C1347 0.929 . S
H1335 C1345 0.929 . S
H1336 C1340 0.929 . S
H1337 C1346 0.929 . S
C1338 H1332 0.930 . S
C1338 C1339 1.367 . S
C1338 C1346 1.378 . S
C1339 C1338 1.367 . S
C1339 C1347 1.433 . S
C1340 H1336 0.929 . S
C1340 C1342 1.378 . S
C1340 C1344 1.350 . S
C1341 C1344 1.463 . S
C1341 C1346 1.350 . S
C1341 N1349 1.427 . S
C1342 H1333 0.930 . S
C1342 C1340 1.378 . S
C1342 C1343 1.367 . S
C1343 C1342 1.367 . S
C1343 C1345 1.433 . S
C1344 C1340 1.350 . S
C1344 C1341 1.463 . S
C1344 N1348 1.427 . S
C1345 H1335 0.929 . S
C1345 C1343 1.433 . S
C1345 N1348 1.384 . S
C1346 H1337 0.929 . S
C1346 C1338 1.378 . S
C1346 C1341 1.350 . S
C1347 H1334 0.929 . S
C1347 C1339 1.433 . S
C1347 N1349 1.384 . S
N1348 C1344 1.427 . S
N1348 C1345 1.384 . S
N1349 C1341 1.427 . S
N1349 C1347 1.384 . S
H1350 C1356 0.930 . S
H1351 C1360 0.930 . S
H1352 C1365 0.929 . S
H1353 C1363 0.929 . S
H1354 C1358 0.929 . S
H1355 C1364 0.929 . S
C1356 H1350 0.930 . S
C1356 C1357 1.367 . S
C1356 C1364 1.378 . S
C1357 C1356 1.367 . S
C1357 C1365 1.433 . S
C1358 H1354 0.929 . S
C1358 C1360 1.378 . S
C1358 C1362 1.350 . S
C1359 C1362 1.463 1_655 S
C1359 C1364 1.350 . S
C1359 N1367 1.427 . S
C1360 H1351 0.930 . S
C1360 C1358 1.378 . S
C1360 C1361 1.367 . S
C1361 C1360 1.367 . S
C1361 C1363 1.433 . S
C1362 C1358 1.350 . S
C1362 C1359 1.463 1_455 S
C1362 N1366 1.427 . S
C1363 H1353 0.929 . S
C1363 C1361 1.433 . S
C1363 N1366 1.384 . S
C1364 H1355 0.929 . S
C1364 C1356 1.378 . S
C1364 C1359 1.350 . S
C1365 H1352 0.929 . S
C1365 C1357 1.433 . S
C1365 N1367 1.384 . S
N1366 C1362 1.427 . S
N1366 C1363 1.384 . S
N1367 C1359 1.427 . S
N1367 C1365 1.384 . S
H1368 C1374 0.930 . S
H1369 C1378 0.930 . S
H1370 C1383 0.929 . S
H1371 C1381 0.929 . S
H1372 C1376 0.929 . S
H1373 C1382 0.929 . S
C1374 H1368 0.930 . S
C1374 C1375 1.367 . S
C1374 C1382 1.378 . S
C1375 C1374 1.367 . S
C1375 C1383 1.433 . S
C1376 H1372 0.929 . S
C1376 C1378 1.378 . S
C1376 C1380 1.350 . S
C1377 C1380 1.463 . S
C1377 C1382 1.350 . S
C1377 N1385 1.427 . S
C1378 H1369 0.930 . S
C1378 C1376 1.378 . S
C1378 C1379 1.367 . S
C1379 C1378 1.367 . S
C1379 C1381 1.433 . S
C1380 C1376 1.350 . S
C1380 C1377 1.463 . S
C1380 N1384 1.427 . S
C1381 H1371 0.929 . S
C1381 C1379 1.433 . S
C1381 N1384 1.384 . S
C1382 H1373 0.929 . S
C1382 C1374 1.378 . S
C1382 C1377 1.350 . S
C1383 H1370 0.929 . S
C1383 C1375 1.433 . S
C1383 N1385 1.384 . S
N1384 C1380 1.427 . S
N1384 C1381 1.384 . S
N1385 C1377 1.427 . S
N1385 C1383 1.384 . S
H1386 C1392 0.930 . S
H1387 C1396 0.930 . S
H1388 C1401 0.929 . S
H1389 C1399 0.929 . S
H1390 C1394 0.929 . S
H1391 C1400 0.929 . S
C1392 H1386 0.930 . S
C1392 C1393 1.367 . S
C1392 C1400 1.378 1_565 S
C1393 C1392 1.367 . S
C1393 C1401 1.433 . S
C1394 H1390 0.929 . S
C1394 C1396 1.378 . S
C1394 C1398 1.350 . S
C1395 C1398 1.463 . S
C1395 C1400 1.350 . S
C1395 N1403 1.427 . S
C1396 H1387 0.930 . S
C1396 C1394 1.378 . S
C1396 C1397 1.367 . S
C1397 C1396 1.367 . S
C1397 C1399 1.433 . S
C1398 C1394 1.350 . S
C1398 C1395 1.463 . S
C1398 N1402 1.427 . S
C1399 H1389 0.929 . S
C1399 C1397 1.433 . S
C1399 N1402 1.384 . S
C1400 H1391 0.929 . S
C1400 C1392 1.378 1_545 S
C1400 C1395 1.350 . S
C1401 H1388 0.929 . S
C1401 C1393 1.433 . S
C1401 N1403 1.384 1_565 S
N1402 C1398 1.427 . S
N1402 C1399 1.384 . S
N1403 C1395 1.427 . S
N1403 C1401 1.384 1_545 S
H1404 C1410 0.930 . S
H1405 C1414 0.930 . S
H1406 C1419 0.929 . S
H1407 C1417 0.929 . S
H1408 C1412 0.929 . S
H1409 C1418 0.929 . S
C1410 H1404 0.930 . S
C1410 C1411 1.367 . S
C1410 C1418 1.378 . S
C1411 C1410 1.367 . S
C1411 C1419 1.433 . S
C1412 H1408 0.929 . S
C1412 C1414 1.378 . S
C1412 C1416 1.350 . S
C1413 C1416 1.463 1_565 S
C1413 C1418 1.350 . S
C1413 N1421 1.427 . S
C1414 H1405 0.930 . S
C1414 C1412 1.378 . S
C1414 C1415 1.367 . S
C1415 C1414 1.367 . S
C1415 C1417 1.433 . S
C1416 C1412 1.350 . S
C1416 C1413 1.463 1_545 S
C1416 N1420 1.427 . S
C1417 H1407 0.929 . S
C1417 C1415 1.433 . S
C1417 N1420 1.384 . S
C1418 H1409 0.929 . S
C1418 C1410 1.378 . S
C1418 C1413 1.350 . S
C1419 H1406 0.929 . S
C1419 C1411 1.433 . S
C1419 N1421 1.384 . S
N1420 C1416 1.427 . S
N1420 C1417 1.384 . S
N1421 C1413 1.427 . S
N1421 C1419 1.384 . S
H1422 C1428 0.930 . S
H1423 C1432 0.930 . S
H1424 C1437 0.929 . S
H1425 C1435 0.929 . S
H1426 C1430 0.929 . S
H1427 C1436 0.929 . S
C1428 H1422 0.930 . S
C1428 C1429 1.367 . S
C1428 C1436 1.378 . S
C1429 C1428 1.367 . S
C1429 C1437 1.433 . S
C1430 H1426 0.929 . S
C1430 C1432 1.378 1_455 S
C1430 C1434 1.350 . S
C1431 C1434 1.463 . S
C1431 C1436 1.350 . S
C1431 N1439 1.427 . S
C1432 H1423 0.930 . S
C1432 C1430 1.378 1_655 S
C1432 C1433 1.367 . S
C1433 C1432 1.367 . S
C1433 C1435 1.433 . S
C1434 C1430 1.350 . S
C1434 C1431 1.463 . S
C1434 N1438 1.427 . S
C1435 H1425 0.929 . S
C1435 C1433 1.433 . S
C1435 N1438 1.384 1_655 S
C1436 H1427 0.929 . S
C1436 C1428 1.378 . S
C1436 C1431 1.350 . S
C1437 H1424 0.929 . S
C1437 C1429 1.433 . S
C1437 N1439 1.384 . S
N1438 C1434 1.427 . S
N1438 C1435 1.384 1_455 S
N1439 C1431 1.427 . S
N1439 C1437 1.384 . S
H1440 C1446 0.930 . S
H1441 C1450 0.930 . S
H1442 C1455 0.929 . S
H1443 C1453 0.929 . S
H1444 C1448 0.929 . S
H1445 C1454 0.929 . S
C1446 H1440 0.930 . S
C1446 C1447 1.367 . S
C1446 C1454 1.378 . S
C1447 C1446 1.367 . S
C1447 C1455 1.433 . S
C1448 H1444 0.929 . S
C1448 C1450 1.378 . S
C1448 C1452 1.350 . S
C1449 C1452 1.463 . S
C1449 C1454 1.350 . S
C1449 N1457 1.427 . S
C1450 H1441 0.930 . S
C1450 C1448 1.378 . S
C1450 C1451 1.367 . S
C1451 C1450 1.367 . S
C1451 C1453 1.433 . S
C1452 C1448 1.350 . S
C1452 C1449 1.463 . S
C1452 N1456 1.427 . S
C1453 H1443 0.929 . S
C1453 C1451 1.433 . S
C1453 N1456 1.384 . S
C1454 H1445 0.929 . S
C1454 C1446 1.378 . S
C1454 C1449 1.350 . S
C1455 H1442 0.929 . S
C1455 C1447 1.433 . S
C1455 N1457 1.384 . S
N1456 C1452 1.427 . S
N1456 C1453 1.384 . S
N1457 C1449 1.427 . S
N1457 C1455 1.384 . S
H1458 C1464 0.930 . S
H1459 C1468 0.930 . S
H1460 C1473 0.929 . S
H1461 C1471 0.929 . S
H1462 C1466 0.929 . S
H1463 C1472 0.929 . S
C1464 H1458 0.930 . S
C1464 C1465 1.367 . S
C1464 C1472 1.378 . S
C1465 C1464 1.367 . S
C1465 C1473 1.433 . S
C1466 H1462 0.929 . S
C1466 C1468 1.378 . S
C1466 C1470 1.350 . S
C1467 C1470 1.463 . S
C1467 C1472 1.350 . S
C1467 N1475 1.427 . S
C1468 H1459 0.930 . S
C1468 C1466 1.378 . S
C1468 C1469 1.367 . S
C1469 C1468 1.367 . S
C1469 C1471 1.433 . S
C1470 C1466 1.350 . S
C1470 C1467 1.463 . S
C1470 N1474 1.427 . S
C1471 H1461 0.929 . S
C1471 C1469 1.433 . S
C1471 N1474 1.384 . S
C1472 H1463 0.929 . S
C1472 C1464 1.378 . S
C1472 C1467 1.350 . S
C1473 H1460 0.929 . S
C1473 C1465 1.433 . S
C1473 N1475 1.384 . S
N1474 C1470 1.427 . S
N1474 C1471 1.384 . S
N1475 C1467 1.427 . S
N1475 C1473 1.384 . S
H1476 C1482 0.930 . S
H1477 C1486 0.930 . S
H1478 C1491 0.929 . S
H1479 C1489 0.929 . S
H1480 C1484 0.929 . S
H1481 C1490 0.929 . S
C1482 H1476 0.930 . S
C1482 C1483 1.367 . S
C1482 C1490 1.378 . S
C1483 C1482 1.367 . S
C1483 C1491 1.433 . S
C1484 H1480 0.929 . S
C1484 C1486 1.378 . S
C1484 C1488 1.350 . S
C1485 C1488 1.463 . S
C1485 C1490 1.350 . S
C1485 N1493 1.427 . S
C1486 H1477 0.930 . S
C1486 C1484 1.378 . S
C1486 C1487 1.367 . S
C1487 C1486 1.367 . S
C1487 C1489 1.433 . S
C1488 C1484 1.350 . S
C1488 C1485 1.463 . S
C1488 N1492 1.427 . S
C1489 H1479 0.929 . S
C1489 C1487 1.433 . S
C1489 N1492 1.384 . S
C1490 H1481 0.929 . S
C1490 C1482 1.378 . S
C1490 C1485 1.350 . S
C1491 H1478 0.929 . S
C1491 C1483 1.433 . S
C1491 N1493 1.384 . S
N1492 C1488 1.427 . S
N1492 C1489 1.384 . S
N1493 C1485 1.427 . S
N1493 C1491 1.384 . S
H1494 C1500 0.930 . S
H1495 C1504 0.930 . S
H1496 C1509 0.929 . S
H1497 C1507 0.929 . S
H1498 C1502 0.929 . S
H1499 C1508 0.929 . S
C1500 H1494 0.930 . S
C1500 C1501 1.367 . S
C1500 C1508 1.378 . S
C1501 C1500 1.367 . S
C1501 C1509 1.433 . S
C1502 H1498 0.929 . S
C1502 C1504 1.378 . S
C1502 C1506 1.350 . S
C1503 C1506 1.463 . S
C1503 C1508 1.350 . S
C1503 N1511 1.427 . S
C1504 H1495 0.930 . S
C1504 C1502 1.378 . S
C1504 C1505 1.367 . S
C1505 C1504 1.367 . S
C1505 C1507 1.433 . S
C1506 C1502 1.350 . S
C1506 C1503 1.463 . S
C1506 N1510 1.427 . S
C1507 H1497 0.929 . S
C1507 C1505 1.433 . S
C1507 N1510 1.384 . S
C1508 H1499 0.929 . S
C1508 C1500 1.378 . S
C1508 C1503 1.350 . S
C1509 H1496 0.929 . S
C1509 C1501 1.433 . S
C1509 N1511 1.384 . S
N1510 C1506 1.427 . S
N1510 C1507 1.384 . S
N1511 C1503 1.427 . S
N1511 C1509 1.384 . S
C547 N6 0.752 . S
C551 C76 0.760 . S
C565 C16 0.756 . S
C569 N36 0.750 . S
C583 C46 0.769 . S
C587 N66 0.762 . S
C601 N96 0.754 . S
C605 C136 0.762 . S
C619 C166 0.769 . S
C623 N126 0.762 . S
C637 N156 0.760 . S
C641 C106 0.768 . S
C655 C256 0.767 . S
C659 N186 0.750 . S
C673 C196 0.765 . S
C677 N216 0.757 . S
C691 N246 0.768 . S
C695 C226 0.773 . S
C709 C316 0.776 . S
C713 N276 0.774 . S
C727 N306 0.751 . S
C731 C346 0.759 . S
C745 C286 0.771 . S
C749 N336 0.777 . S
C763 N366 0.777 . S
C767 C436 0.777 . S
C781 C376 0.755 . S
C785 N396 0.754 . S
C799 C406 0.756 . S
C803 N426 0.757 . S
C817 C496 0.765 1_455 S
C821 N456 0.779 . S
C835 C526 0.769 . S
C839 N486 0.761 . S
C853 C466 0.763 . S
C857 N516 0.767 . S
C871 C1 1.661 . S
C875 C151 1.665 . S
C889 C91 1.666 . S
C893 C31 1.659 . S
C907 C121 1.662 . S
C911 C61 1.665 . S
C925 C181 1.660 . S
C929 C331 1.666 . S
C943 C211 1.664 . S
C947 C271 1.662 . S
C961 C301 1.662 . S
C965 C241 1.666 . S
C979 C361 1.660 . S
C983 C511 1.666 . S
C997 C451 1.667 . S
C1001 C391 1.660 . S
C1015 C481 1.664 . S
C1019 C421 1.661 . S
C1033 C310 1.960 . S
C1037 C10 1.962 1_565 S
C1051 C40 1.968 . S
C1055 C340 1.968 . S
C1069 C280 1.967 . S
C1073 C70 1.966 . S
C1087 C100 1.967 1_655 S
C1091 C430 1.966 . S
C1105 C130 1.967 . S
C1109 C370 1.967 . S
C1123 C400 1.958 . S
C1127 C160 1.957 . S
C1141 C490 1.958 . S
C1145 C190 1.959 . S
C1159 C220 1.959 . S
C1163 C520 1.961 . S
C1177 C250 1.957 . S
C1181 C460 1.957 . S
C1195 C87 1.304 . S
C1199 N14 1.268 . S
C1213 C27 1.303 . S
C1217 N44 1.267 . S
C1231 N74 1.283 . S
C1235 C57 1.311 . S
C1249 C147 1.309 . S
C1253 N104 1.280 . S
C1267 C177 1.308 . S
C1271 N134 1.276 . S
C1285 N164 1.283 . S
C1289 C117 1.311 . S
C1303 C267 1.306 . S
C1307 N194 1.272 . S
C1321 N224 1.283 . S
C1325 C207 1.311 . S
C1339 C237 1.310 . S
C1343 N254 1.279 . S
C1357 N284 1.267 . S
C1361 C327 1.303 . S
C1375 N314 1.282 . S
C1379 C357 1.311 . S
C1393 C297 1.304 . S
C1397 N344 1.269 . S
C1411 N374 1.267 . S
C1415 C447 1.303 . S
C1429 N404 1.267 . S
C1433 C387 1.303 . S
C1447 C417 1.311 . S
C1451 N434 1.282 . S
C1465 N464 1.274 . S
C1469 C507 1.307 . S
C1483 N494 1.277 . S
C1487 C537 1.307 . S
C1501 C477 1.310 . S
C1505 N524 1.282 . S
