# Generated by pormake.
# Topology wne, (6)-cn, num edge types: 1
# Building blocks:
#     Node 0, Type 0, BuildingBlock: LEVNOQ01_clean_sbu_1, # of connection points: 6
#     Node 1, Type 0, BuildingBlock: LEVNOQ01_clean_sbu_1, # of connection points: 6
#     Node 2, Type 0, BuildingBlock: LEVNOQ01_clean_sbu_1, # of connection points: 6
#     Node 3, Type 0, BuildingBlock: LEVNOQ01_clean_sbu_1, # of connection points: 6
#     Node 4, Type 0, BuildingBlock: LEVNOQ01_clean_sbu_1, # of connection points: 6
#     Node 5, Type 0, BuildingBlock: LEVNOQ01_clean_sbu_1, # of connection points: 6
#     Node 6, Type 0, BuildingBlock: LEVNOQ01_clean_sbu_1, # of connection points: 6
#     Node 7, Type 0, BuildingBlock: LEVNOQ01_clean_sbu_1, # of connection points: 6
#     Node 8, Type 0, BuildingBlock: LEVNOQ01_clean_sbu_1, # of connection points: 6
#     Node 9, Type 0, BuildingBlock: LEVNOQ01_clean_sbu_1, # of connection points: 6
#     Node 10, Type 0, BuildingBlock: LEVNOQ01_clean_sbu_1, # of connection points: 6
#     Node 11, Type 0, BuildingBlock: LEVNOQ01_clean_sbu_1, # of connection points: 6
#     Node 12, Type 0, BuildingBlock: LEVNOQ01_clean_sbu_1, # of connection points: 6
#     Node 13, Type 0, BuildingBlock: LEVNOQ01_clean_sbu_1, # of connection points: 6
#     Node 14, Type 0, BuildingBlock: LEVNOQ01_clean_sbu_1, # of connection points: 6
#     Node 15, Type 0, BuildingBlock: LEVNOQ01_clean_sbu_1, # of connection points: 6
#     Node 16, Type 0, BuildingBlock: LEVNOQ01_clean_sbu_1, # of connection points: 6
#     Node 17, Type 0, BuildingBlock: LEVNOQ01_clean_sbu_1, # of connection points: 6
#     Node 18, Type 0, BuildingBlock: LEVNOQ01_clean_sbu_1, # of connection points: 6
#     Node 19, Type 0, BuildingBlock: LEVNOQ01_clean_sbu_1, # of connection points: 6
#     Node 20, Type 0, BuildingBlock: LEVNOQ01_clean_sbu_1, # of connection points: 6
#     Node 21, Type 0, BuildingBlock: LEVNOQ01_clean_sbu_1, # of connection points: 6
#     Node 22, Type 0, BuildingBlock: LEVNOQ01_clean_sbu_1, # of connection points: 6
#     Node 23, Type 0, BuildingBlock: LEVNOQ01_clean_sbu_1, # of connection points: 6
#     Node 24, Type 0, BuildingBlock: LEVNOQ01_clean_sbu_1, # of connection points: 6
#     Node 25, Type 0, BuildingBlock: LEVNOQ01_clean_sbu_1, # of connection points: 6
#     Node 26, Type 0, BuildingBlock: LEVNOQ01_clean_sbu_1, # of connection points: 6
#     Node 27, Type 0, BuildingBlock: LEVNOQ01_clean_sbu_1, # of connection points: 6
#     Node 28, Type 0, BuildingBlock: LEVNOQ01_clean_sbu_1, # of connection points: 6
#     Node 29, Type 0, BuildingBlock: LEVNOQ01_clean_sbu_1, # of connection points: 6
#     Node 30, Type 0, BuildingBlock: LEVNOQ01_clean_sbu_1, # of connection points: 6
#     Node 31, Type 0, BuildingBlock: LEVNOQ01_clean_sbu_1, # of connection points: 6
#     Node 32, Type 0, BuildingBlock: LEVNOQ01_clean_sbu_1, # of connection points: 6
#     Node 33, Type 0, BuildingBlock: LEVNOQ01_clean_sbu_1, # of connection points: 6
#     Node 34, Type 0, BuildingBlock: LEVNOQ01_clean_sbu_1, # of connection points: 6
#     Node 35, Type 0, BuildingBlock: LEVNOQ01_clean_sbu_1, # of connection points: 6
#     Edge 36, Type (0, 0), None
#     Edge 37, Type (0, 0), None
#     Edge 38, Type (0, 0), None
#     Edge 39, Type (0, 0), None
#     Edge 40, Type (0, 0), None
#     Edge 41, Type (0, 0), None
#     Edge 42, Type (0, 0), None
#     Edge 43, Type (0, 0), None
#     Edge 44, Type (0, 0), None
#     Edge 45, Type (0, 0), None
#     Edge 46, Type (0, 0), None
#     Edge 47, Type (0, 0), None
#     Edge 48, Type (0, 0), None
#     Edge 49, Type (0, 0), None
#     Edge 50, Type (0, 0), None
#     Edge 51, Type (0, 0), None
#     Edge 52, Type (0, 0), None
#     Edge 53, Type (0, 0), None
#     Edge 54, Type (0, 0), None
#     Edge 55, Type (0, 0), None
#     Edge 56, Type (0, 0), None
#     Edge 57, Type (0, 0), None
#     Edge 58, Type (0, 0), None
#     Edge 59, Type (0, 0), None
#     Edge 60, Type (0, 0), None
#     Edge 61, Type (0, 0), None
#     Edge 62, Type (0, 0), None
#     Edge 63, Type (0, 0), None
#     Edge 64, Type (0, 0), None
#     Edge 65, Type (0, 0), None
#     Edge 66, Type (0, 0), None
#     Edge 67, Type (0, 0), None
#     Edge 68, Type (0, 0), None
#     Edge 69, Type (0, 0), None
#     Edge 70, Type (0, 0), None
#     Edge 71, Type (0, 0), None
#     Edge 72, Type (0, 0), None
#     Edge 73, Type (0, 0), None
#     Edge 74, Type (0, 0), None
#     Edge 75, Type (0, 0), None
#     Edge 76, Type (0, 0), None
#     Edge 77, Type (0, 0), None
#     Edge 78, Type (0, 0), None
#     Edge 79, Type (0, 0), None
#     Edge 80, Type (0, 0), None
#     Edge 81, Type (0, 0), None
#     Edge 82, Type (0, 0), None
#     Edge 83, Type (0, 0), None
#     Edge 84, Type (0, 0), None
#     Edge 85, Type (0, 0), None
#     Edge 86, Type (0, 0), None
#     Edge 87, Type (0, 0), None
#     Edge 88, Type (0, 0), None
#     Edge 89, Type (0, 0), None
#     Edge 90, Type (0, 0), None
#     Edge 91, Type (0, 0), None
#     Edge 92, Type (0, 0), None
#     Edge 93, Type (0, 0), None
#     Edge 94, Type (0, 0), None
#     Edge 95, Type (0, 0), None
#     Edge 96, Type (0, 0), None
#     Edge 97, Type (0, 0), None
#     Edge 98, Type (0, 0), None
#     Edge 99, Type (0, 0), None
#     Edge 100, Type (0, 0), None
#     Edge 101, Type (0, 0), None
#     Edge 102, Type (0, 0), None
#     Edge 103, Type (0, 0), None
#     Edge 104, Type (0, 0), None
#     Edge 105, Type (0, 0), None
#     Edge 106, Type (0, 0), None
#     Edge 107, Type (0, 0), None
#     Edge 108, Type (0, 0), None
#     Edge 109, Type (0, 0), None
#     Edge 110, Type (0, 0), None
#     Edge 111, Type (0, 0), None
#     Edge 112, Type (0, 0), None
#     Edge 113, Type (0, 0), None
#     Edge 114, Type (0, 0), None
#     Edge 115, Type (0, 0), None
#     Edge 116, Type (0, 0), None
#     Edge 117, Type (0, 0), None
#     Edge 118, Type (0, 0), None
#     Edge 119, Type (0, 0), None
#     Edge 120, Type (0, 0), None
#     Edge 121, Type (0, 0), None
#     Edge 122, Type (0, 0), None
#     Edge 123, Type (0, 0), None
#     Edge 124, Type (0, 0), None
#     Edge 125, Type (0, 0), None
#     Edge 126, Type (0, 0), None
#     Edge 127, Type (0, 0), None
#     Edge 128, Type (0, 0), None
#     Edge 129, Type (0, 0), None
#     Edge 130, Type (0, 0), None
#     Edge 131, Type (0, 0), None
#     Edge 132, Type (0, 0), None
#     Edge 133, Type (0, 0), None
#     Edge 134, Type (0, 0), None
#     Edge 135, Type (0, 0), None
#     Edge 136, Type (0, 0), None
#     Edge 137, Type (0, 0), None
#     Edge 138, Type (0, 0), None
#     Edge 139, Type (0, 0), None
#     Edge 140, Type (0, 0), None
#     Edge 141, Type (0, 0), None
#     Edge 142, Type (0, 0), None
#     Edge 143, Type (0, 0), None
# Relax obj value: 0.157
# Max RMSD: 0.135
# Mean RMSD: 0.135
data_MOF--net-wne--node1-LEVNOQ01_clean_sbu_1--edge1-none
_symmetry_space_group_name_H-M    P1
_symmetry_Int_Tables_number       1
_symmetry_cell_setting            triclinic
loop_
_symmetry_equiv_pos_as_xyz
'x, y, z'
_cell_length_a     32.046633
_cell_length_b     32.046414
_cell_length_c     18.873687
_cell_angle_alpha  90.00181
_cell_angle_beta   89.99802
_cell_angle_gamma 119.99868
loop_
_atom_site_label
_atom_site_type_symbol
_atom_site_fract_x
_atom_site_fract_y
_atom_site_fract_z
_atom_type_partial_charge
O0 O 0.14704 0.05017 0.9457 0.0
Mg1 Mg 0.16152 0.1154 0.89485 0.0
O2 O 0.17305 0.07999 0.05435 0.0
Mg3 Mg 0.20678 0.16411 0.05106 0.0
O4 O 0.14899 0.1548 0.96973 0.0
O5 O 0.1079 0.13205 0.8689 0.0
O6 O 0.2433 0.25052 0.03912 0.0
O7 O 0.16017 0.15914 0.14791 0.0
Mg8 Mg 0.27802 0.22494 0.19475 0.0
O9 O 0.26351 0.17258 0.12655 0.0
O10 O 0.29371 0.2869 0.12931 0.0
O11 O 0.20966 0.18847 0.24192 0.0
O12 O 0.31827 0.18885 0.20779 0.0
C13 C 0.26614 0.1683 0.90326 0.0
C14 C 0.15468 0.04476 0.01024 0.0
C15 C 0.11478 0.1523 0.93007 0.0
C16 C 0.27486 0.28909 0.07081 0.0
C17 C 0.16772 0.16524 0.21504 0.0
C18 C 0.29146 0.16082 0.15806 0.0
O19 O 0.23292 0.15421 0.85741 0.0
O20 O 0.25824 0.17036 0.96818 0.0
O21 O 0.88018 0.08293 0.94566 0.0
Mg22 Mg 0.81495 0.03219 0.8948 0.0
O23 O 0.85037 0.07913 0.05431 0.0
Mg24 Mg 0.76624 0.02874 0.05103 0.0
O25 O 0.77555 -0.01974 0.96969 0.0
O26 O 0.79829 0.96191 0.86887 0.0
O27 O 0.67983 -0.02115 0.03909 0.0
O28 O 0.77121 -0.0129 0.14787 0.0
Mg29 Mg 0.70542 0.03916 0.19473 0.0
O30 O 0.75777 0.077 0.12653 0.0
O31 O 0.64345 -0.00712 0.12929 0.0
O32 O 0.74189 0.00726 0.24189 0.0
O33 O 0.7415 0.11549 0.20777 0.0
C34 C 0.76206 0.08392 0.90323 0.0
C35 C 0.8856 0.09599 0.01019 0.0
C36 C 0.77805 0.94855 0.93005 0.0
C37 C 0.64127 0.97185 0.07079 0.0
C38 C 0.76511 -0.01145 0.215 0.0
C39 C 0.76953 0.11671 0.15803 0.0
O40 O 0.77614 0.06478 0.85737 0.0
O41 O 0.75999 0.07395 0.96815 0.0
O42 O 0.84744 0.78334 0.9457 0.0
Mg43 Mg 0.89818 0.76885 0.89486 0.0
O44 O 0.85123 0.75732 0.05436 0.0
Mg45 Mg 0.90162 0.72359 0.05108 0.0
O46 O 0.95011 0.78138 0.96975 0.0
O47 O -0.03154 0.82247 0.86892 0.0
O48 O 0.95151 0.68706 0.03914 0.0
O49 O 0.94326 0.7702 0.14793 0.0
Mg50 Mg 0.8912 0.65234 0.19477 0.0
O51 O 0.85336 0.66686 0.12657 0.0
O52 O 0.93748 0.63666 0.12933 0.0
O53 O 0.92309 0.72071 0.24194 0.0
O54 O 0.81487 0.6121 0.20781 0.0
C55 C 0.84645 0.66423 0.90328 0.0
C56 C 0.83437 0.77569 0.01023 0.0
C57 C -0.01819 0.81558 0.9301 0.0
C58 C -0.04149 0.6555 0.07083 0.0
C59 C 0.94181 0.76265 0.21506 0.0
C60 C 0.81365 0.6389 0.15807 0.0
O61 O 0.8656 0.69745 0.85742 0.0
O62 O 0.85641 0.67213 0.9682 0.0
O63 O 0.02802 0.15938 0.5184 0.0
Mg64 Mg 0.09277 0.17559 0.57257 0.0
O65 O 0.05657 0.1799 0.40778 0.0
Mg66 Mg 0.13924 0.21339 0.4093 0.0
O67 O 0.13081 0.16264 0.49836 0.0
O68 O 0.11188 0.12335 0.59979 0.0
O69 O 0.22339 0.2509 0.4127 0.0
O70 O 0.13461 0.15771 0.32568 0.0
Mg71 Mg 0.18495 0.26479 0.24486 0.0
O72 O 0.14829 0.26662 0.32655 0.0
O73 O 0.2524 0.28367 0.30638 0.0
O74 O 0.12061 0.19472 0.24131 0.0
O75 O 0.16254 0.31755 0.24058 0.0
C76 C 0.1518 0.28125 0.54877 0.0
C77 C 0.02202 0.16339 0.45263 0.0
C78 C 0.1312 0.13022 0.53799 0.0
C79 C 0.25906 0.27589 0.37114 0.0
C80 C 0.1301 0.16282 0.25948 0.0
C81 C 0.14086 0.29862 0.29927 0.0
O82 O 0.13703 0.24877 0.59601 0.0
O83 O 0.149 0.27195 0.48335 0.0
O84 O 0.77099 0.85473 0.51838 0.0
Mg85 Mg 0.75478 0.90328 0.57254 0.0
O86 O 0.75047 0.86275 0.40776 0.0
Mg87 Mg 0.71697 0.91193 0.40927 0.0
O88 O 0.76772 0.95425 0.49832 0.0
O89 O 0.80702 -0.02537 0.59975 0.0
O90 O 0.67946 0.95857 0.41267 0.0
O91 O 0.77265 0.96298 0.32564 0.0
Mg92 Mg 0.66557 0.90623 0.24484 0.0
O93 O 0.66375 0.86775 0.32653 0.0
O94 O 0.64669 0.95481 0.30635 0.0
O95 O 0.73564 0.91196 0.24127 0.0
O96 O 0.6128 0.83105 0.24057 0.0
C97 C 0.64912 0.85664 0.54875 0.0
C98 C 0.76698 0.84471 0.45262 0.0
C99 C 0.80015 -0.01293 0.53794 0.0
C100 C 0.65447 0.96925 0.37111 0.0
C101 C 0.76753 0.95335 0.25943 0.0
C102 C 0.63174 0.82832 0.29926 0.0
O103 O 0.6816 0.87435 0.59599 0.0
O104 O 0.65842 0.86313 0.48333 0.0
O105 O 0.07563 0.90234 0.51843 0.0
Mg106 Mg 0.02709 0.83758 0.5726 0.0
O107 O 0.06761 0.87379 0.40781 0.0
Mg108 Mg 0.01843 0.79112 0.40932 0.0
O109 O -0.02388 0.79955 0.49837 0.0
O110 O 0.95573 0.81846 0.5998 0.0
O111 O -0.02821 0.70697 0.41271 0.0
O112 O -0.03262 0.79575 0.3257 0.0
Mg113 Mg 0.02413 0.74541 0.24488 0.0
O114 O 0.06261 0.78206 0.32658 0.0
O115 O -0.02445 0.67796 0.30639 0.0
O116 O 0.01839 0.80975 0.24132 0.0
O117 O 0.09931 0.76782 0.2406 0.0
C118 C 0.07372 0.77856 0.54879 0.0
C119 C 0.08565 0.90834 0.45267 0.0
C120 C 0.94329 0.79915 0.53799 0.0
C121 C -0.03889 0.6713 0.37115 0.0
C122 C -0.02299 0.80026 0.25949 0.0
C123 C 0.10204 0.7895 0.2993 0.0
O124 O 0.05602 0.79333 0.59604 0.0
O125 O 0.06723 0.78136 0.48338 0.0
O126 O 0.70684 0.7559 0.72328 0.0
Mg127 Mg 0.63848 0.71935 0.77045 0.0
O128 O 0.7563 0.78521 0.81731 0.0
Mg129 Mg 0.70967 0.78017 0.91418 0.0
O130 O 0.65284 0.77159 0.83879 0.0
O131 O 0.59822 0.75542 0.75734 0.0
O132 O 0.65822 0.77387 -0.00292 0.0
O133 O 0.74333 0.86429 0.91088 0.0
Mg134 Mg 0.75492 0.82891 0.07038 0.0
O135 O 0.76751 0.78957 -0.00452 0.0
O136 O 0.68352 0.79005 0.10786 0.0
O137 O 0.76934 0.89413 0.01953 0.0
O138 O 0.8086 0.81234 0.0963 0.0
C139 C 0.64169 0.6552 0.89438 0.0
C140 C 0.74877 0.77915 0.75018 0.0
C141 C 0.625 0.78343 0.80712 0.0
C142 C 0.6503 0.77594 0.062 0.0
C143 C 0.76168 0.89952 0.95499 0.0
C144 C 0.80172 0.79208 0.03513 0.0
O145 O 0.62286 0.65738 0.83587 0.0
O146 O 0.67322 0.69377 0.9261 0.0
O147 O 0.17446 0.93702 0.72331 0.0
Mg148 Mg 0.21102 0.90521 0.77047 0.0
O149 O 0.14516 0.95717 0.81734 0.0
Mg150 Mg 0.1502 0.91558 0.91421 0.0
O151 O 0.15878 0.86733 0.83881 0.0
O152 O 0.17495 0.82889 0.75736 0.0
O153 O 0.15649 0.87042 -0.00289 0.0
O154 O 0.06608 0.86512 0.91092 0.0
Mg155 Mg 0.10145 0.91209 0.07043 0.0
O156 O 0.1408 0.96402 -0.00449 0.0
O157 O 0.14032 0.87956 0.10789 0.0
O158 O 0.03624 0.8613 0.01957 0.0
O159 O 0.11804 -0.01764 0.09633 0.0
C160 C 0.27517 -0.02742 0.8944 0.0
C161 C 0.15122 0.95571 0.75021 0.0
C162 C 0.14694 0.82765 0.80714 0.0
C163 C 0.15443 0.86044 0.06203 0.0
C164 C 0.03084 0.84824 0.95504 0.0
C165 C 0.13829 -0.00428 0.03515 0.0
O166 O 0.27298 0.95156 0.83588 0.0
O167 O 0.2366 0.96554 0.92613 0.0
O168 O -0.00665 0.22352 0.72326 0.0
Mg169 Mg 0.02515 0.29188 0.77043 0.0
O170 O -0.02681 0.17405 0.81729 0.0
Mg171 Mg 0.01477 0.22068 0.91416 0.0
O172 O 0.06303 0.27752 0.83877 0.0
O173 O 0.10147 0.33213 0.75733 0.0
O174 O 0.05993 0.27214 -0.00294 0.0
O175 O 0.06524 0.18702 0.91087 0.0
Mg176 Mg 0.01826 0.17544 0.07037 0.0
O177 O -0.03367 0.16285 -0.00455 0.0
O178 O 0.05078 0.24683 0.10784 0.0
O179 O 0.06905 0.16101 0.01953 0.0
O180 O 0.948 0.12176 0.09628 0.0
C181 C 0.95778 0.28866 0.89435 0.0
C182 C -0.02534 0.18158 0.75016 0.0
C183 C 0.10271 0.30536 0.8071 0.0
C184 C 0.06991 0.28005 0.06198 0.0
C185 C 0.08212 0.16867 0.955 0.0
C186 C 0.93463 0.12864 0.0351 0.0
O187 O -0.0212 0.3075 0.83584 0.0
O188 O -0.03518 0.25714 0.92608 0.0
O189 O 0.79582 0.74967 0.72388 0.0
Mg190 Mg 0.73146 0.67961 0.72035 0.0
O191 O 0.78189 0.7867 0.63948 0.0
Mg192 Mg 0.77719 0.73096 0.5559 0.0
O193 O 0.76805 0.67771 0.63864 0.0
O194 O 0.75389 0.62685 0.7247 0.0
O195 O 0.76737 0.67235 0.48188 0.0
O196 O 0.85985 0.76437 0.5574 0.0
Mg197 Mg 0.82366 0.7687 0.39259 0.0
O198 O 0.78571 0.78172 0.46683 0.0
O199 O 0.77934 0.69551 0.36921 0.0
O200 O 0.8884 0.78486 0.44677 0.0
O201 O 0.80459 0.82098 0.36537 0.0
C202 C 0.65737 0.66853 0.59404 0.0
C203 C 0.78638 0.78159 0.70569 0.0
C204 C 0.77555 0.64576 0.66599 0.0
C205 C 0.76455 0.66304 0.41647 0.0
C206 C 0.8944 0.78085 0.51254 0.0
C207 C 0.78529 0.81413 0.42719 0.0
O208 O 0.66402 0.66074 0.65881 0.0
O209 O 0.69305 0.69352 0.55248 0.0
O210 O 0.1807 0.03224 0.72392 0.0
Mg211 Mg 0.25076 0.03794 0.72037 0.0
O212 O 0.14367 -0.01872 0.63952 0.0
Mg213 Mg 0.1994 0.03231 0.55593 0.0
O214 O 0.25266 0.07643 0.63866 0.0
O215 O 0.30352 0.11313 0.72471 0.0
O216 O 0.258 0.08109 0.4819 0.0
O217 O 0.16598 0.08156 0.55742 0.0
Mg218 Mg 0.16166 0.04103 0.39261 0.0
O219 O 0.14863 -0.00994 0.46687 0.0
O220 O 0.23484 0.06989 0.36923 0.0
O221 O 0.14549 0.08961 0.44679 0.0
O222 O 0.10938 0.96967 0.36541 0.0
C223 C 0.26183 -0.02508 0.59407 0.0
C224 C 0.14877 -0.00913 0.70573 0.0
C225 C 0.2846 0.11587 0.666 0.0
C226 C 0.26731 0.08758 0.41649 0.0
C227 C 0.14951 0.09963 0.51255 0.0
C228 C 0.11623 0.95723 0.42723 0.0
O229 O 0.26962 -0.01064 0.65883 0.0
O230 O 0.23684 -0.01439 0.55252 0.0
O231 O 0.89812 0.13454 0.72387 0.0
Mg232 Mg 0.89242 0.19889 0.72033 0.0
O233 O 0.94908 0.14847 0.63946 0.0
Mg234 Mg 0.89805 0.15317 0.55588 0.0
O235 O 0.85393 0.16231 0.63862 0.0
O236 O 0.81724 0.17648 0.72468 0.0
O237 O 0.84928 0.163 0.48185 0.0
O238 O 0.84881 0.07051 0.55737 0.0
Mg239 Mg 0.88933 0.10671 0.39256 0.0
O240 O 0.9403 0.14466 0.46682 0.0
O241 O 0.86046 0.15103 0.36918 0.0
O242 O 0.84075 0.04196 0.44673 0.0
O243 O -0.03931 0.12578 0.36536 0.0
C244 C 0.95544 0.27299 0.59403 0.0
C245 C 0.93949 0.14398 0.70567 0.0
C246 C 0.81449 0.15482 0.66597 0.0
C247 C 0.84278 0.16581 0.41644 0.0
C248 C 0.83073 0.03596 0.5125 0.0
C249 C -0.02687 0.14507 0.42719 0.0
O250 O 0.941 0.26634 0.6588 0.0
O251 O 0.94475 0.23731 0.55247 0.0
O252 O 0.8137 0.38351 0.27902 0.0
Mg253 Mg 0.82819 0.44874 0.22818 0.0
O254 O 0.83971 0.41332 0.38768 0.0
Mg255 Mg 0.87344 0.49745 0.3844 0.0
O256 O 0.81565 0.48814 0.30307 0.0
O257 O 0.77457 0.4654 0.20223 0.0
O258 O 0.90997 0.58386 0.37246 0.0
O259 O 0.82683 0.49248 0.48125 0.0
Mg260 Mg 0.94468 0.55826 0.5281 0.0
O261 O 0.93017 0.50591 0.45989 0.0
O262 O -0.03964 0.62023 0.46267 0.0
O263 O 0.87632 0.52179 0.57527 0.0
O264 O -0.01507 0.52218 0.54113 0.0
C265 C 0.93281 0.50163 0.2366 0.0
C266 C 0.82134 0.37809 0.34355 0.0
C267 C 0.78145 0.48564 0.26341 0.0
C268 C 0.94152 0.62242 0.40417 0.0
C269 C 0.83438 0.49857 0.54838 0.0
C270 C 0.95813 0.49416 0.49139 0.0
O271 O 0.89958 0.48755 0.19074 0.0
O272 O 0.9249 0.50369 0.30152 0.0
O273 O 0.54685 0.41626 0.27902 0.0
Mg274 Mg 0.48162 0.36552 0.22817 0.0
O275 O 0.51704 0.41247 0.38767 0.0
Mg276 Mg 0.43291 0.36207 0.38439 0.0
O277 O 0.44222 0.31359 0.30306 0.0
O278 O 0.46496 0.29524 0.20223 0.0
O279 O 0.3465 0.31219 0.37246 0.0
O280 O 0.43789 0.32044 0.48124 0.0
Mg281 Mg 0.3721 0.3725 0.5281 0.0
O282 O 0.42445 0.41034 0.45989 0.0
O283 O 0.31013 0.32621 0.46266 0.0
O284 O 0.40857 0.3406 0.57526 0.0
O285 O 0.40818 0.44883 0.54113 0.0
C286 C 0.42873 0.41725 0.23659 0.0
C287 C 0.55227 0.42933 0.34355 0.0
C288 C 0.44471 0.28188 0.26341 0.0
C289 C 0.30794 0.30518 0.40416 0.0
C290 C 0.43179 0.32189 0.54837 0.0
C291 C 0.4362 0.45005 0.49139 0.0
O292 O 0.44281 0.3981 0.19074 0.0
O293 O 0.42666 0.40728 0.30152 0.0
O294 O 0.51409 0.11666 0.27902 0.0
Mg295 Mg 0.56483 0.10217 0.22816 0.0
O296 O 0.51789 0.09065 0.38767 0.0
Mg297 Mg 0.56829 0.05692 0.38438 0.0
O298 O 0.61676 0.1147 0.30304 0.0
O299 O 0.63511 0.15579 0.20222 0.0
O300 O 0.61817 0.02039 0.37243 0.0
O301 O 0.60992 0.10353 0.48123 0.0
Mg302 Mg 0.55787 -0.01432 0.52808 0.0
O303 O 0.52002 0.00019 0.45988 0.0
O304 O 0.60415 0.97 0.46264 0.0
O305 O 0.58976 0.05405 0.57525 0.0
O306 O 0.48154 0.94543 0.54112 0.0
C307 C 0.5131 -0.00244 0.23658 0.0
C308 C 0.50103 0.10902 0.34355 0.0
C309 C 0.64847 0.14891 0.2634 0.0
C310 C 0.62518 -0.01116 0.40413 0.0
C311 C 0.60847 0.09599 0.54835 0.0
C312 C 0.48031 -0.02777 0.49138 0.0
O313 O 0.53225 0.03078 0.19073 0.0
O314 O 0.52307 0.00546 0.3015 0.0
O315 O 0.69469 0.49271 0.85175 0.0
Mg316 Mg 0.75944 0.50893 0.90592 0.0
O317 O 0.72324 0.51324 0.74113 0.0
Mg318 Mg 0.80591 0.54673 0.74264 0.0
O319 O 0.79747 0.49598 0.8317 0.0
O320 O 0.77856 0.45668 0.93312 0.0
O321 O 0.89006 0.58424 0.74605 0.0
O322 O 0.80128 0.49105 0.65902 0.0
Mg323 Mg 0.85163 0.59813 0.57821 0.0
O324 O 0.81497 0.59996 0.6599 0.0
O325 O 0.91908 0.61701 0.63972 0.0
O326 O 0.78729 0.52806 0.57465 0.0
O327 O 0.82921 0.6509 0.57393 0.0
C328 C 0.81845 0.61458 0.88212 0.0
C329 C 0.68869 0.49673 0.78598 0.0
C330 C 0.79787 0.46356 0.87131 0.0
C331 C 0.92573 0.60923 0.70449 0.0
C332 C 0.79677 0.49616 0.59282 0.0
C333 C 0.80753 0.63196 0.63262 0.0
O334 O 0.80369 0.58211 0.92936 0.0
O335 O 0.81567 0.60529 0.8167 0.0
O336 O 0.43766 0.18807 0.85174 0.0
Mg337 Mg 0.42144 0.23661 0.90591 0.0
O338 O 0.41713 0.19609 0.74112 0.0
Mg339 Mg 0.38364 0.24526 0.74263 0.0
O340 O 0.43439 0.28758 0.83168 0.0
O341 O 0.47368 0.30797 0.93312 0.0
O342 O 0.34613 0.2919 0.74603 0.0
O343 O 0.43932 0.29631 0.659 0.0
Mg344 Mg 0.33224 0.23957 0.57819 0.0
O345 O 0.33041 0.20109 0.65989 0.0
O346 O 0.31336 0.28814 0.6397 0.0
O347 O 0.40231 0.2453 0.57463 0.0
O348 O 0.27947 0.16439 0.57392 0.0
C349 C 0.31579 0.18995 0.8821 0.0
C350 C 0.43364 0.17804 0.78598 0.0
C351 C 0.46681 0.32041 0.8713 0.0
C352 C 0.32114 0.30258 0.70446 0.0
C353 C 0.4342 0.28669 0.5928 0.0
C354 C 0.29841 0.16165 0.63261 0.0
O355 O 0.34826 0.20767 0.92935 0.0
O356 O 0.32508 0.19647 0.81669 0.0
O357 O 0.7423 0.23568 0.85172 0.0
Mg358 Mg 0.69376 0.17093 0.90589 0.0
O359 O 0.73428 0.20713 0.7411 0.0
Mg360 Mg 0.6851 0.12446 0.74261 0.0
O361 O 0.64279 0.13289 0.83167 0.0
O362 O 0.62241 0.15181 0.93311 0.0
O363 O 0.63846 0.04031 0.74601 0.0
O364 O 0.63405 0.12909 0.65899 0.0
Mg365 Mg 0.69079 0.07875 0.57817 0.0
O366 O 0.72927 0.11541 0.65986 0.0
O367 O 0.64222 0.0113 0.63968 0.0
O368 O 0.68506 0.14309 0.57461 0.0
O369 O 0.76597 0.10116 0.57389 0.0
C370 C 0.74041 0.11192 0.88207 0.0
C371 C 0.75232 0.24169 0.78595 0.0
C372 C 0.60996 0.1325 0.8713 0.0
C373 C 0.62778 0.00464 0.70445 0.0
C374 C 0.64367 0.1336 0.59278 0.0
C375 C 0.76871 0.12284 0.63258 0.0
O376 O 0.72269 0.12668 0.92933 0.0
O377 O 0.7339 0.1147 0.81666 0.0
O378 O 0.3735 0.08923 0.05663 0.0
Mg379 Mg 0.30514 0.05267 0.10379 0.0
O380 O 0.42297 0.11854 0.15066 0.0
Mg381 Mg 0.37633 0.1135 0.24752 0.0
O382 O 0.3195 0.10491 0.17213 0.0
O383 O 0.26489 0.08874 0.09068 0.0
O384 O 0.32488 0.1072 0.33043 0.0
O385 O 0.40999 0.19762 0.24424 0.0
Mg386 Mg 0.42158 0.16224 0.40374 0.0
O387 O 0.43417 0.1229 0.32882 0.0
O388 O 0.35019 0.12337 0.44121 0.0
O389 O 0.436 0.22745 0.35288 0.0
O390 O 0.47526 0.14566 0.42964 0.0
C391 C 0.30836 -0.01147 0.22772 0.0
C392 C 0.41544 0.11248 0.08353 0.0
C393 C 0.29167 0.11676 0.14045 0.0
C394 C 0.31697 0.10927 0.39535 0.0
C395 C 0.42834 0.23285 0.28835 0.0
C396 C 0.46838 0.12541 0.36847 0.0
O397 O 0.28952 -0.00929 0.16921 0.0
O398 O 0.33989 0.02709 0.25945 0.0
O399 O 0.84112 0.27035 0.0566 0.0
Mg400 Mg 0.87767 0.23854 0.10376 0.0
O401 O 0.81181 0.2905 0.15063 0.0
Mg402 Mg 0.81685 0.24891 0.24749 0.0
O403 O 0.82543 0.20066 0.1721 0.0
O404 O 0.8416 0.16222 0.09065 0.0
O405 O 0.82315 0.20375 0.33039 0.0
O406 O 0.73273 0.19846 0.24421 0.0
Mg407 Mg 0.76811 0.24542 0.40372 0.0
O408 O 0.80746 0.29735 0.3288 0.0
O409 O 0.80699 0.2129 0.44117 0.0
O410 O 0.7029 0.19463 0.35286 0.0
O411 O 0.78469 0.31568 0.42963 0.0
C412 C 0.94182 0.3059 0.22769 0.0
C413 C 0.81788 0.28904 0.0835 0.0
C414 C 0.81359 0.16098 0.14042 0.0
C415 C 0.82108 0.19377 0.39531 0.0
C416 C 0.6975 0.18157 0.28833 0.0
C417 C 0.80495 0.32905 0.36846 0.0
O418 O 0.93964 0.28488 0.16918 0.0
O419 O 0.90326 0.29887 0.25942 0.0
O420 O 0.66002 0.55686 0.05662 0.0
Mg421 Mg 0.69182 0.62521 0.10379 0.0
O422 O 0.63986 0.50739 0.15064 0.0
Mg423 Mg 0.68144 0.55402 0.24751 0.0
O424 O 0.7297 0.61085 0.17212 0.0
O425 O 0.76814 0.66547 0.09068 0.0
O426 O 0.7266 0.60547 0.33042 0.0
O427 O 0.7319 0.52036 0.24423 0.0
Mg428 Mg 0.68493 0.50877 0.40373 0.0
O429 O 0.633 0.49618 0.32881 0.0
O430 O 0.71745 0.58017 0.4412 0.0
O431 O 0.73572 0.49435 0.35288 0.0
O432 O 0.61467 0.45509 0.42964 0.0
C433 C 0.62445 0.622 0.22771 0.0
C434 C 0.64132 0.51492 0.08351 0.0
C435 C 0.76938 0.63869 0.14046 0.0
C436 C 0.73658 0.61338 0.39534 0.0
C437 C 0.74879 0.50201 0.28834 0.0
C438 C 0.6013 0.46197 0.36846 0.0
O439 O 0.64547 0.64084 0.1692 0.0
O440 O 0.63149 0.59047 0.25944 0.0
O441 O 0.4625 0.083 0.05723 0.0
Mg442 Mg 0.39814 0.01294 0.0537 0.0
O443 O 0.44856 0.12003 0.97283 0.0
Mg444 Mg 0.44386 0.0643 0.88924 0.0
O445 O 0.43472 0.01104 0.97198 0.0
O446 O 0.42056 0.96018 0.05804 0.0
O447 O 0.43403 0.00569 0.81521 0.0
O448 O 0.52652 0.09771 0.89073 0.0
Mg449 Mg 0.49032 0.10203 0.72592 0.0
O450 O 0.45237 0.11506 0.80018 0.0
O451 O 0.44601 0.02885 0.70254 0.0
O452 O 0.55507 0.1182 0.78009 0.0
O453 O 0.47125 0.15431 0.69872 0.0
C454 C 0.32405 0.00188 0.92741 0.0
C455 C 0.45305 0.11492 0.03904 0.0
C456 C 0.44222 -0.02091 -0.00068 0.0
C457 C 0.43122 -0.00362 0.7498 0.0
C458 C 0.56107 0.11419 0.84586 0.0
C459 C 0.45196 0.14747 0.76054 0.0
O460 O 0.3307 -0.00592 -0.00783 0.0
O461 O 0.35972 0.02686 0.88584 0.0
O462 O 0.84736 0.36557 0.05721 0.0
Mg463 Mg 0.91741 0.37127 0.05367 0.0
O464 O 0.81033 0.31461 0.97281 0.0
Mg465 Mg 0.86607 0.36565 0.88922 0.0
O466 O 0.91932 0.40976 0.97196 0.0
O467 O -0.02982 0.44645 0.05803 0.0
O468 O 0.92467 0.41442 0.8152 0.0
O469 O 0.83265 0.41489 0.89073 0.0
Mg470 Mg 0.82833 0.37438 0.72591 0.0
O471 O 0.81531 0.3234 0.80016 0.0
O472 O 0.90151 0.40324 0.70253 0.0
O473 O 0.81216 0.42296 0.7801 0.0
O474 O 0.77605 0.30302 0.6987 0.0
C475 C 0.92848 0.30825 0.92737 0.0
C476 C 0.81543 0.32421 0.03902 0.0
C477 C 0.95127 0.4492 -0.00068 0.0
C478 C 0.93398 0.42092 0.74979 0.0
C479 C 0.81618 0.43297 0.84587 0.0
C480 C 0.7829 0.29058 0.76052 0.0
O481 O 0.93628 0.32269 -0.00787 0.0
O482 O 0.9035 0.31894 0.88581 0.0
O483 O 0.56479 0.46787 0.05722 0.0
Mg484 Mg 0.55909 0.53223 0.05369 0.0
O485 O 0.61575 0.4818 0.97282 0.0
Mg486 Mg 0.56472 0.4865 0.88923 0.0
O487 O 0.5206 0.49565 0.97197 0.0
O488 O 0.4839 0.50981 0.05803 0.0
O489 O 0.51595 0.49634 0.81521 0.0
O490 O 0.51547 0.40385 0.89073 0.0
Mg491 Mg 0.556 0.44004 0.72592 0.0
O492 O 0.60697 0.47799 0.80017 0.0
O493 O 0.52713 0.48436 0.70253 0.0
O494 O 0.50742 0.3753 0.78009 0.0
O495 O 0.62736 0.45912 0.69872 0.0
C496 C 0.62211 0.60632 0.92739 0.0
C497 C 0.60615 0.47731 0.03903 0.0
C498 C 0.48116 0.48815 -0.00068 0.0
C499 C 0.50945 0.49915 0.7498 0.0
C500 C 0.4974 0.3693 0.84586 0.0
C501 C 0.63979 0.47841 0.76054 0.0
O502 O 0.60766 0.59967 -0.00785 0.0
O503 O 0.61143 0.57065 0.88583 0.0
O504 O 0.48037 0.71685 0.61234 0.0
Mg505 Mg 0.49486 0.78207 0.56149 0.0
O506 O 0.50638 0.74666 0.721 0.0
Mg507 Mg 0.54011 0.83079 0.71771 0.0
O508 O 0.48233 0.82147 0.63638 0.0
O509 O 0.44124 0.79873 0.53555 0.0
O510 O 0.57664 0.9172 0.70577 0.0
O511 O 0.4935 0.82581 0.81456 0.0
Mg512 Mg 0.61135 0.89161 0.86141 0.0
O513 O 0.59684 0.83925 0.79321 0.0
O514 O 0.62703 0.95357 0.79597 0.0
O515 O 0.54298 0.85513 0.90858 0.0
O516 O 0.6516 0.85552 0.87446 0.0
C517 C 0.59947 0.83496 0.56991 0.0
C518 C 0.48802 0.71143 0.67688 0.0
C519 C 0.44812 0.81898 0.59673 0.0
C520 C 0.60819 0.95576 0.73747 0.0
C521 C 0.50104 0.83191 0.88168 0.0
C522 C 0.62479 0.82749 0.82472 0.0
O523 O 0.56625 0.82089 0.52405 0.0
O524 O 0.59158 0.83703 0.63484 0.0
O525 O 0.21352 0.7496 0.61237 0.0
Mg526 Mg 0.14829 0.69886 0.56152 0.0
O527 O 0.18372 0.7458 0.72103 0.0
Mg528 Mg 0.09959 0.69541 0.71774 0.0
O529 O 0.10889 0.64693 0.6364 0.0
O530 O 0.13164 0.62858 0.53557 0.0
O531 O 0.01318 0.64552 0.7058 0.0
O532 O 0.10456 0.65377 0.81459 0.0
Mg533 Mg 0.03877 0.70583 0.86145 0.0
O534 O 0.09112 0.74367 0.79325 0.0
O535 O -0.0232 0.65955 0.79601 0.0
O536 O 0.07524 0.67393 0.90861 0.0
O537 O 0.07485 0.78216 0.87449 0.0
C538 C 0.09541 0.75059 0.56995 0.0
C539 C 0.21894 0.76267 0.6769 0.0
C540 C 0.11139 0.61522 0.59675 0.0
C541 C -0.02539 0.63852 0.73751 0.0
C542 C 0.09846 0.65522 0.88171 0.0
C543 C 0.10288 0.78338 0.82475 0.0
O544 O 0.10948 0.73144 0.52409 0.0
O545 O 0.09334 0.74062 0.63487 0.0
O546 O 0.18076 0.45 0.61235 0.0
Mg547 Mg 0.23151 0.43551 0.5615 0.0
O548 O 0.18456 0.42399 0.72101 0.0
Mg549 Mg 0.23496 0.39026 0.71772 0.0
O550 O 0.28344 0.44804 0.63639 0.0
O551 O 0.30179 0.48913 0.53556 0.0
O552 O 0.28484 0.35373 0.70578 0.0
O553 O 0.27659 0.43686 0.81457 0.0
Mg554 Mg 0.22453 0.31901 0.86142 0.0
O555 O 0.18669 0.33353 0.79322 0.0
O556 O 0.27081 0.30333 0.79598 0.0
O557 O 0.25642 0.38738 0.90859 0.0
O558 O 0.1482 0.27877 0.87446 0.0
C559 C 0.17977 0.3309 0.56992 0.0
C560 C 0.1677 0.44235 0.67689 0.0
C561 C 0.31514 0.48225 0.59674 0.0
C562 C 0.29184 0.32217 0.73748 0.0
C563 C 0.27514 0.42932 0.8817 0.0
C564 C 0.14698 0.30557 0.82472 0.0
O565 O 0.19893 0.36412 0.52407 0.0
O566 O 0.18974 0.3388 0.63485 0.0
O567 O 0.36135 0.82603 0.18507 0.0
Mg568 Mg 0.42611 0.84225 0.23923 0.0
O569 O 0.3899 0.84656 0.07444 0.0
Mg570 Mg 0.47257 0.88005 0.07595 0.0
O571 O 0.46414 0.82931 0.16501 0.0
O572 O 0.44522 0.79002 0.26644 0.0
O573 O 0.55672 0.91756 0.07934 0.0
O574 O 0.46793 0.82437 -0.00768 0.0
Mg575 Mg 0.51828 0.93145 0.91151 0.0
O576 O 0.48162 0.93328 -0.00679 0.0
O577 O 0.58573 0.95033 0.97301 0.0
O578 O 0.45394 0.86139 0.90796 0.0
O579 O 0.49586 -0.01578 0.90724 0.0
C580 C 0.48511 0.94791 0.21542 0.0
C581 C 0.35534 0.83005 0.1193 0.0
C582 C 0.46454 0.79688 0.20463 0.0
C583 C 0.59239 0.94254 0.03777 0.0
C584 C 0.46343 0.82949 0.92612 0.0
C585 C 0.47419 0.96529 0.96593 0.0
O586 O 0.47035 0.91543 0.26267 0.0
O587 O 0.48233 0.93862 0.15001 0.0
O588 O 0.10432 0.52138 0.18507 0.0
Mg589 Mg 0.08811 0.56992 0.23925 0.0
O590 O 0.08379 0.52941 0.07445 0.0
Mg591 Mg 0.05031 0.57859 0.07597 0.0
O592 O 0.10105 0.6209 0.16503 0.0
O593 O 0.14035 0.64128 0.26646 0.0
O594 O 0.0128 0.62524 0.07938 0.0
O595 O 0.10599 0.62964 -0.00765 0.0
Mg596 Mg -0.00109 0.57291 0.91154 0.0
O597 O -0.00292 0.53442 -0.00677 0.0
O598 O -0.01997 0.62148 0.97305 0.0
O599 O 0.06897 0.57863 0.90798 0.0
O600 O 0.94614 0.49773 0.90725 0.0
C601 C -0.01754 0.52328 0.21544 0.0
C602 C 0.10031 0.51136 0.1193 0.0
C603 C 0.13348 0.65372 0.20465 0.0
C604 C -0.01218 0.63592 0.03781 0.0
C605 C 0.10087 0.62001 0.92615 0.0
C606 C -0.03493 0.49499 0.96594 0.0
O607 O 0.01493 0.54099 0.26269 0.0
O608 O -0.00826 0.52979 0.15003 0.0
O609 O 0.40896 0.56901 0.18507 0.0
Mg610 Mg 0.36042 0.50425 0.23924 0.0
O611 O 0.40095 0.54045 0.07445 0.0
Mg612 Mg 0.35177 0.45779 0.07596 0.0
O613 O 0.30945 0.46622 0.16502 0.0
O614 O 0.28906 0.48513 0.26645 0.0
O615 O 0.30512 0.37363 0.07936 0.0
O616 O 0.30072 0.46242 -0.00766 0.0
Mg617 Mg 0.35746 0.41207 0.91152 0.0
O618 O 0.39594 0.44873 -0.00678 0.0
O619 O 0.30889 0.34462 0.97303 0.0
O620 O 0.35173 0.47641 0.90796 0.0
O621 O 0.43264 0.43449 0.90725 0.0
C622 C 0.40707 0.44524 0.21543 0.0
C623 C 0.41899 0.57501 0.11931 0.0
C624 C 0.27662 0.46582 0.20464 0.0
C625 C 0.29444 0.33797 0.03779 0.0
C626 C 0.31035 0.46693 0.92613 0.0
C627 C 0.43538 0.45616 0.96594 0.0
O628 O 0.38936 0.46 0.26268 0.0
O629 O 0.40056 0.44802 0.15002 0.0
O630 O 0.04018 0.42258 0.38994 0.0
Mg631 Mg -0.02818 0.38602 0.4371 0.0
O632 O 0.08964 0.45188 0.48396 0.0
Mg633 Mg 0.04301 0.44684 0.58083 0.0
O634 O -0.01382 0.43826 0.50544 0.0
O635 O 0.93156 0.42209 0.42399 0.0
O636 O -0.00845 0.44054 0.66374 0.0
O637 O 0.07667 0.53096 0.57755 0.0
Mg638 Mg 0.08825 0.49557 0.73706 0.0
O639 O 0.10084 0.45623 0.66214 0.0
O640 O 0.01686 0.4567 0.77452 0.0
O641 O 0.10267 0.56079 0.68621 0.0
O642 O 0.14193 0.47899 0.76297 0.0
C643 C -0.02497 0.32187 0.56102 0.0
C644 C 0.08211 0.44582 0.41683 0.0
C645 C -0.04166 0.4501 0.47377 0.0
C646 C -0.01636 0.44261 0.72866 0.0
C647 C 0.09502 0.56619 0.62167 0.0
C648 C 0.13505 0.45874 0.70179 0.0
O649 O 0.9562 0.32406 0.50251 0.0
O650 O 0.00656 0.36043 0.59276 0.0
O651 O 0.50778 0.60368 0.38994 0.0
Mg652 Mg 0.54434 0.57187 0.4371 0.0
O653 O 0.47848 0.62384 0.48398 0.0
Mg654 Mg 0.48353 0.58225 0.58084 0.0
O655 O 0.49211 0.534 0.50544 0.0
O656 O 0.50827 0.49555 0.42399 0.0
O657 O 0.48982 0.53709 0.66374 0.0
O658 O 0.39941 0.53179 0.57756 0.0
Mg659 Mg 0.43479 0.57876 0.73706 0.0
O660 O 0.47413 0.63069 0.66214 0.0
O661 O 0.47366 0.54624 0.77452 0.0
O662 O 0.36958 0.52797 0.68621 0.0
O663 O 0.45137 0.64903 0.76297 0.0
C664 C 0.60849 0.63924 0.56102 0.0
C665 C 0.48454 0.62237 0.41684 0.0
C666 C 0.48026 0.49432 0.47377 0.0
C667 C 0.48776 0.52711 0.72866 0.0
C668 C 0.36417 0.51491 0.62168 0.0
C669 C 0.47162 0.66239 0.70179 0.0
O670 O 0.60631 0.61822 0.50251 0.0
O671 O 0.56993 0.6322 0.59276 0.0
O672 O 0.32668 0.89018 0.38996 0.0
Mg673 Mg 0.35848 0.95854 0.43712 0.0
O674 O 0.30652 0.84072 0.48399 0.0
Mg675 Mg 0.34811 0.88735 0.58085 0.0
O676 O 0.39637 0.94419 0.50545 0.0
O677 O 0.4348 -0.0012 0.424 0.0
O678 O 0.39327 0.93881 0.66375 0.0
O679 O 0.39857 0.85369 0.57756 0.0
Mg680 Mg 0.35161 0.84211 0.73707 0.0
O681 O 0.29968 0.82952 0.66216 0.0
O682 O 0.38413 0.9135 0.77453 0.0
O683 O 0.4024 0.82769 0.68621 0.0
O684 O 0.28135 0.78843 0.76298 0.0
C685 C 0.29112 0.95533 0.56105 0.0
C686 C 0.30799 0.84825 0.41686 0.0
C687 C 0.43604 0.97202 0.47378 0.0
C688 C 0.40326 0.94672 0.72867 0.0
C689 C 0.41546 0.83535 0.62167 0.0
C690 C 0.26798 0.79531 0.70181 0.0
O691 O 0.31214 -0.02584 0.50253 0.0
O692 O 0.29816 0.92381 0.59278 0.0
O693 O 0.12915 0.41632 0.39054 0.0
Mg694 Mg 0.06479 0.34627 0.387 0.0
O695 O 0.11523 0.45336 0.30614 0.0
Mg696 Mg 0.11052 0.39762 0.22255 0.0
O697 O 0.10138 0.34436 0.30529 0.0
O698 O 0.08721 0.2935 0.39135 0.0
O699 O 0.1007 0.33902 0.14853 0.0
O700 O 0.19318 0.43103 0.22405 0.0
Mg701 Mg 0.157 0.43536 0.05923 0.0
O702 O 0.11904 0.44838 0.13349 0.0
O703 O 0.11268 0.36217 0.03585 0.0
O704 O 0.22174 0.45153 0.11342 0.0
O705 O 0.13792 0.48764 0.03204 0.0
C706 C -0.0093 0.3352 0.26071 0.0
C707 C 0.11972 0.44825 0.37235 0.0
C708 C 0.10887 0.31242 0.33265 0.0
C709 C 0.0979 0.32971 0.08312 0.0
C710 C 0.22773 0.44751 0.17919 0.0
C711 C 0.11862 0.48079 0.09386 0.0
O712 O -0.00265 0.3274 0.32547 0.0
O713 O 0.02638 0.36018 0.21914 0.0
O714 O 0.51403 0.69891 0.39056 0.0
Mg715 Mg 0.58408 0.70461 0.38702 0.0
O716 O 0.477 0.64795 0.30616 0.0
Mg717 Mg 0.53273 0.69898 0.22256 0.0
O718 O 0.58599 0.74309 0.30531 0.0
O719 O 0.63685 0.77979 0.39136 0.0
O720 O 0.59133 0.74775 0.14854 0.0
O721 O 0.49932 0.74822 0.22406 0.0
Mg722 Mg 0.49499 0.7077 0.05925 0.0
O723 O 0.48197 0.65673 0.1335 0.0
O724 O 0.56818 0.73657 0.03586 0.0
O725 O 0.47882 0.75627 0.11342 0.0
O726 O 0.44272 0.63634 0.03204 0.0
C727 C 0.59515 0.64158 0.26073 0.0
C728 C 0.4821 0.65754 0.37237 0.0
C729 C 0.61793 0.78253 0.33265 0.0
C730 C 0.60064 0.75427 0.08313 0.0
C731 C 0.48284 0.7663 0.17919 0.0
C732 C 0.44956 0.6239 0.09387 0.0
O733 O 0.60295 0.65603 0.32549 0.0
O734 O 0.57017 0.65227 0.21916 0.0
O735 O 0.23145 0.8012 0.39057 0.0
Mg736 Mg 0.22576 0.86556 0.38704 0.0
O737 O 0.28241 0.81512 0.30617 0.0
Mg738 Mg 0.23138 0.81982 0.22258 0.0
O739 O 0.18726 0.82897 0.30533 0.0
O740 O 0.15057 0.84313 0.39139 0.0
O741 O 0.1826 0.82965 0.14856 0.0
O742 O 0.18213 0.73716 0.22408 0.0
Mg743 Mg 0.22265 0.77336 0.05926 0.0
O744 O 0.27362 0.81131 0.13351 0.0
O745 O 0.19378 0.81767 0.03589 0.0
O746 O 0.17408 0.70861 0.11344 0.0
O747 O 0.29401 0.79244 0.03205 0.0
C748 C 0.28878 0.93964 0.26074 0.0
C749 C 0.27282 0.81063 0.37238 0.0
C750 C 0.14783 0.82147 0.33268 0.0
C751 C 0.17609 0.83245 0.08316 0.0
C752 C 0.16406 0.70261 0.17921 0.0
C753 C 0.30645 0.81173 0.09387 0.0
O754 O 0.27433 0.933 0.3255 0.0
O755 O 0.27809 0.90397 0.21918 0.0
loop_
_geom_bond_atom_site_label_1
_geom_bond_atom_site_label_2
_geom_bond_distance
_geom_bond_site_symmetry_2
_ccdc_geom_bond_type
O0 Mg1 1.990 . S
O0 C14 1.253 1_556 S
Mg1 O0 1.990 . S
Mg1 O4 2.180 . S
Mg1 O5 2.117 . S
Mg1 O19 2.030 . S
O2 Mg3 2.072 . S
O2 C14 1.260 . S
Mg3 O2 2.072 . S
Mg3 O4 2.099 1_554 S
Mg3 O6 2.079 . S
Mg3 O7 2.072 . S
Mg3 O9 2.099 . S
Mg3 O20 2.079 1_554 S
O4 Mg1 2.180 . S
O4 Mg3 2.099 1_556 S
O4 C15 1.279 . S
O5 Mg1 2.117 . S
O5 C15 1.250 . S
O6 Mg3 2.079 . S
O6 C16 1.264 . S
O7 Mg3 2.072 . S
O7 C17 1.260 . S
Mg8 O9 2.180 . S
Mg8 O10 2.030 . S
Mg8 O11 1.990 . S
Mg8 O12 2.117 . S
O9 Mg3 2.099 . S
O9 Mg8 2.180 . S
O9 C18 1.279 . S
O10 Mg8 2.030 . S
O10 C16 1.248 . S
O11 Mg8 1.990 . S
O11 C17 1.253 . S
O12 Mg8 2.117 . S
O12 C18 1.250 . S
C13 O19 1.248 . S
C13 O20 1.264 . S
C14 O0 1.253 1_554 S
C14 O2 1.260 . S
C15 O4 1.279 . S
C15 O5 1.250 . S
C16 O6 1.264 . S
C16 O10 1.248 . S
C17 O7 1.260 . S
C17 O11 1.253 . S
C18 O9 1.279 . S
C18 O12 1.250 . S
O19 Mg1 2.030 . S
O19 C13 1.248 . S
O20 Mg3 2.079 1_556 S
O20 C13 1.264 . S
O21 Mg22 1.990 . S
O21 C35 1.253 1_556 S
Mg22 O21 1.990 . S
Mg22 O25 2.180 . S
Mg22 O26 2.117 1_545 S
Mg22 O40 2.030 . S
O23 Mg24 2.072 . S
O23 C35 1.260 . S
Mg24 O23 2.072 . S
Mg24 O25 2.099 1_554 S
Mg24 O27 2.079 . S
Mg24 O28 2.072 . S
Mg24 O30 2.099 . S
Mg24 O41 2.079 1_554 S
O25 Mg22 2.180 . S
O25 Mg24 2.099 1_556 S
O25 C36 1.279 1_545 S
O26 Mg22 2.117 1_565 S
O26 C36 1.250 . S
O27 Mg24 2.079 . S
O27 C37 1.264 1_545 S
O28 Mg24 2.072 . S
O28 C38 1.260 . S
Mg29 O30 2.180 . S
Mg29 O31 2.030 . S
Mg29 O32 1.990 . S
Mg29 O33 2.117 . S
O30 Mg24 2.099 . S
O30 Mg29 2.180 . S
O30 C39 1.279 . S
O31 Mg29 2.030 . S
O31 C37 1.248 1_545 S
O32 Mg29 1.990 . S
O32 C38 1.253 . S
O33 Mg29 2.117 . S
O33 C39 1.250 . S
C34 O40 1.248 . S
C34 O41 1.264 . S
C35 O21 1.253 1_554 S
C35 O23 1.260 . S
C36 O25 1.279 1_565 S
C36 O26 1.250 . S
C37 O27 1.264 1_565 S
C37 O31 1.248 1_565 S
C38 O28 1.260 . S
C38 O32 1.253 . S
C39 O30 1.279 . S
C39 O33 1.250 . S
O40 Mg22 2.030 . S
O40 C34 1.248 . S
O41 Mg24 2.079 1_556 S
O41 C34 1.264 . S
O42 Mg43 1.990 . S
O42 C56 1.253 1_556 S
Mg43 O42 1.990 . S
Mg43 O46 2.180 . S
Mg43 O47 2.117 1_655 S
Mg43 O61 2.030 . S
O44 Mg45 2.072 . S
O44 C56 1.260 . S
Mg45 O44 2.072 . S
Mg45 O46 2.099 1_554 S
Mg45 O48 2.079 . S
Mg45 O49 2.072 . S
Mg45 O51 2.099 . S
Mg45 O62 2.079 1_554 S
O46 Mg43 2.180 . S
O46 Mg45 2.099 1_556 S
O46 C57 1.279 1_655 S
O47 Mg43 2.117 1_455 S
O47 C57 1.250 . S
O48 Mg45 2.079 . S
O48 C58 1.264 1_655 S
O49 Mg45 2.072 . S
O49 C59 1.260 . S
Mg50 O51 2.180 . S
Mg50 O52 2.030 . S
Mg50 O53 1.990 . S
Mg50 O54 2.117 . S
O51 Mg45 2.099 . S
O51 Mg50 2.180 . S
O51 C60 1.279 . S
O52 Mg50 2.030 . S
O52 C58 1.248 1_655 S
O53 Mg50 1.990 . S
O53 C59 1.253 . S
O54 Mg50 2.117 . S
O54 C60 1.250 . S
C55 O61 1.248 . S
C55 O62 1.264 . S
C56 O42 1.253 1_554 S
C56 O44 1.260 . S
C57 O46 1.279 1_455 S
C57 O47 1.250 . S
C58 O48 1.264 1_455 S
C58 O52 1.248 1_455 S
C59 O49 1.260 . S
C59 O53 1.253 . S
C60 O51 1.279 . S
C60 O54 1.250 . S
O61 Mg43 2.030 . S
O61 C55 1.248 . S
O62 Mg45 2.079 1_556 S
O62 C55 1.264 . S
O63 Mg64 1.990 . S
O63 C77 1.253 . S
Mg64 O63 1.990 . S
Mg64 O67 2.180 . S
Mg64 O68 2.117 . S
Mg64 O82 2.030 . S
O65 Mg66 2.072 . S
O65 C77 1.260 . S
Mg66 O65 2.072 . S
Mg66 O67 2.099 . S
Mg66 O69 2.079 . S
Mg66 O70 2.072 . S
Mg66 O72 2.099 . S
Mg66 O83 2.079 . S
O67 Mg64 2.180 . S
O67 Mg66 2.099 . S
O67 C78 1.279 . S
O68 Mg64 2.117 . S
O68 C78 1.250 . S
O69 Mg66 2.079 . S
O69 C79 1.264 . S
O70 Mg66 2.072 . S
O70 C80 1.260 . S
Mg71 O72 2.180 . S
Mg71 O73 2.030 . S
Mg71 O74 1.990 . S
Mg71 O75 2.117 . S
O72 Mg66 2.099 . S
O72 Mg71 2.180 . S
O72 C81 1.279 . S
O73 Mg71 2.030 . S
O73 C79 1.248 . S
O74 Mg71 1.990 . S
O74 C80 1.253 . S
O75 Mg71 2.117 . S
O75 C81 1.250 . S
C76 O82 1.248 . S
C76 O83 1.264 . S
C77 O63 1.253 . S
C77 O65 1.260 . S
C78 O67 1.279 . S
C78 O68 1.250 . S
C79 O69 1.264 . S
C79 O73 1.248 . S
C80 O70 1.260 . S
C80 O74 1.253 . S
C81 O72 1.279 . S
C81 O75 1.250 . S
O82 Mg64 2.030 . S
O82 C76 1.248 . S
O83 Mg66 2.079 . S
O83 C76 1.264 . S
O84 Mg85 1.990 . S
O84 C98 1.253 . S
Mg85 O84 1.990 . S
Mg85 O88 2.180 . S
Mg85 O89 2.117 1_565 S
Mg85 O103 2.030 . S
O86 Mg87 2.072 . S
O86 C98 1.260 . S
Mg87 O86 2.072 . S
Mg87 O88 2.099 . S
Mg87 O90 2.079 . S
Mg87 O91 2.072 . S
Mg87 O93 2.099 . S
Mg87 O104 2.079 . S
O88 Mg85 2.180 . S
O88 Mg87 2.099 . S
O88 C99 1.279 1_565 S
O89 Mg85 2.117 1_545 S
O89 C99 1.250 . S
O90 Mg87 2.079 . S
O90 C100 1.264 1_565 S
O91 Mg87 2.072 . S
O91 C101 1.260 . S
Mg92 O93 2.180 . S
Mg92 O94 2.030 . S
Mg92 O95 1.990 . S
Mg92 O96 2.117 . S
O93 Mg87 2.099 . S
O93 Mg92 2.180 . S
O93 C102 1.279 . S
O94 Mg92 2.030 . S
O94 C100 1.248 1_565 S
O95 Mg92 1.990 . S
O95 C101 1.253 . S
O96 Mg92 2.117 . S
O96 C102 1.250 . S
C97 O103 1.248 . S
C97 O104 1.264 . S
C98 O84 1.253 . S
C98 O86 1.260 . S
C99 O88 1.279 1_545 S
C99 O89 1.250 . S
C100 O90 1.264 1_545 S
C100 O94 1.248 1_545 S
C101 O91 1.260 . S
C101 O95 1.253 . S
C102 O93 1.279 . S
C102 O96 1.250 . S
O103 Mg85 2.030 . S
O103 C97 1.248 . S
O104 Mg87 2.079 . S
O104 C97 1.264 . S
O105 Mg106 1.990 . S
O105 C119 1.253 . S
Mg106 O105 1.990 . S
Mg106 O109 2.180 . S
Mg106 O110 2.117 1_455 S
Mg106 O124 2.030 . S
O107 Mg108 2.072 . S
O107 C119 1.260 . S
Mg108 O107 2.072 . S
Mg108 O109 2.099 . S
Mg108 O111 2.079 . S
Mg108 O112 2.072 . S
Mg108 O114 2.099 . S
Mg108 O125 2.079 . S
O109 Mg106 2.180 . S
O109 Mg108 2.099 . S
O109 C120 1.279 1_455 S
O110 Mg106 2.117 1_655 S
O110 C120 1.250 . S
O111 Mg108 2.079 . S
O111 C121 1.264 1_455 S
O112 Mg108 2.072 . S
O112 C122 1.260 . S
Mg113 O114 2.180 . S
Mg113 O115 2.030 . S
Mg113 O116 1.990 . S
Mg113 O117 2.117 . S
O114 Mg108 2.099 . S
O114 Mg113 2.180 . S
O114 C123 1.279 . S
O115 Mg113 2.030 . S
O115 C121 1.248 1_455 S
O116 Mg113 1.990 . S
O116 C122 1.253 . S
O117 Mg113 2.117 . S
O117 C123 1.250 . S
C118 O124 1.248 . S
C118 O125 1.264 . S
C119 O105 1.253 . S
C119 O107 1.260 . S
C120 O109 1.279 1_655 S
C120 O110 1.250 . S
C121 O111 1.264 1_655 S
C121 O115 1.248 1_655 S
C122 O112 1.260 . S
C122 O116 1.253 . S
C123 O114 1.279 . S
C123 O117 1.250 . S
O124 Mg106 2.030 . S
O124 C118 1.248 . S
O125 Mg108 2.079 . S
O125 C118 1.264 . S
O126 Mg127 1.990 . S
O126 C140 1.253 . S
Mg127 O126 1.990 . S
Mg127 O130 2.180 . S
Mg127 O131 2.117 . S
Mg127 O145 2.030 . S
O128 Mg129 2.072 . S
O128 C140 1.260 . S
Mg129 O128 2.072 . S
Mg129 O130 2.099 . S
Mg129 O132 2.079 1_556 S
Mg129 O133 2.072 . S
Mg129 O135 2.099 1_556 S
Mg129 O146 2.079 . S
O130 Mg127 2.180 . S
O130 Mg129 2.099 . S
O130 C141 1.279 . S
O131 Mg127 2.117 . S
O131 C141 1.250 . S
O132 Mg129 2.079 1_554 S
O132 C142 1.264 . S
O133 Mg129 2.072 . S
O133 C143 1.260 . S
Mg134 O135 2.180 . S
Mg134 O136 2.030 . S
Mg134 O137 1.990 . S
Mg134 O138 2.117 . S
O135 Mg129 2.099 1_554 S
O135 Mg134 2.180 . S
O135 C144 1.279 . S
O136 Mg134 2.030 . S
O136 C142 1.248 . S
O137 Mg134 1.990 . S
O137 C143 1.253 1_554 S
O138 Mg134 2.117 . S
O138 C144 1.250 . S
C139 O145 1.248 . S
C139 O146 1.264 . S
C140 O126 1.253 . S
C140 O128 1.260 . S
C141 O130 1.279 . S
C141 O131 1.250 . S
C142 O132 1.264 . S
C142 O136 1.248 . S
C143 O133 1.260 . S
C143 O137 1.253 1_556 S
C144 O135 1.279 . S
C144 O138 1.250 . S
O145 Mg127 2.030 . S
O145 C139 1.248 . S
O146 Mg129 2.079 . S
O146 C139 1.264 . S
O147 Mg148 1.990 . S
O147 C161 1.253 . S
Mg148 O147 1.990 . S
Mg148 O151 2.180 . S
Mg148 O152 2.117 . S
Mg148 O166 2.030 . S
O149 Mg150 2.072 . S
O149 C161 1.260 . S
Mg150 O149 2.072 . S
Mg150 O151 2.099 . S
Mg150 O153 2.079 1_556 S
Mg150 O154 2.072 . S
Mg150 O156 2.099 1_556 S
Mg150 O167 2.079 . S
O151 Mg148 2.180 . S
O151 Mg150 2.099 . S
O151 C162 1.279 . S
O152 Mg148 2.117 . S
O152 C162 1.250 . S
O153 Mg150 2.079 1_554 S
O153 C163 1.264 . S
O154 Mg150 2.072 . S
O154 C164 1.260 . S
Mg155 O156 2.180 . S
Mg155 O157 2.030 . S
Mg155 O158 1.990 . S
Mg155 O159 2.117 1_565 S
O156 Mg150 2.099 1_554 S
O156 Mg155 2.180 . S
O156 C165 1.279 1_565 S
O157 Mg155 2.030 . S
O157 C163 1.248 . S
O158 Mg155 1.990 . S
O158 C164 1.253 1_554 S
O159 Mg155 2.117 1_545 S
O159 C165 1.250 . S
C160 O166 1.248 1_545 S
C160 O167 1.264 1_545 S
C161 O147 1.253 . S
C161 O149 1.260 . S
C162 O151 1.279 . S
C162 O152 1.250 . S
C163 O153 1.264 . S
C163 O157 1.248 . S
C164 O154 1.260 . S
C164 O158 1.253 1_556 S
C165 O156 1.279 1_545 S
C165 O159 1.250 . S
O166 Mg148 2.030 . S
O166 C160 1.248 1_565 S
O167 Mg150 2.079 . S
O167 C160 1.264 1_565 S
O168 Mg169 1.990 . S
O168 C182 1.253 . S
Mg169 O168 1.990 . S
Mg169 O172 2.180 . S
Mg169 O173 2.117 . S
Mg169 O187 2.030 . S
O170 Mg171 2.072 . S
O170 C182 1.260 . S
Mg171 O170 2.072 . S
Mg171 O172 2.099 . S
Mg171 O174 2.079 1_556 S
Mg171 O175 2.072 . S
Mg171 O177 2.099 1_556 S
Mg171 O188 2.079 . S
O172 Mg169 2.180 . S
O172 Mg171 2.099 . S
O172 C183 1.279 . S
O173 Mg169 2.117 . S
O173 C183 1.250 . S
O174 Mg171 2.079 1_554 S
O174 C184 1.264 . S
O175 Mg171 2.072 . S
O175 C185 1.260 . S
Mg176 O177 2.180 . S
Mg176 O178 2.030 . S
Mg176 O179 1.990 . S
Mg176 O180 2.117 1_455 S
O177 Mg171 2.099 1_554 S
O177 Mg176 2.180 . S
O177 C186 1.279 1_455 S
O178 Mg176 2.030 . S
O178 C184 1.248 . S
O179 Mg176 1.990 . S
O179 C185 1.253 1_554 S
O180 Mg176 2.117 1_655 S
O180 C186 1.250 . S
C181 O187 1.248 1_655 S
C181 O188 1.264 1_655 S
C182 O168 1.253 . S
C182 O170 1.260 . S
C183 O172 1.279 . S
C183 O173 1.250 . S
C184 O174 1.264 . S
C184 O178 1.248 . S
C185 O175 1.260 . S
C185 O179 1.253 1_556 S
C186 O177 1.279 1_655 S
C186 O180 1.250 . S
O187 Mg169 2.030 . S
O187 C181 1.248 1_455 S
O188 Mg171 2.079 . S
O188 C181 1.264 1_455 S
O189 Mg190 1.990 . S
O189 C203 1.253 . S
Mg190 O189 1.990 . S
Mg190 O193 2.180 . S
Mg190 O194 2.117 . S
Mg190 O208 2.030 . S
O191 Mg192 2.072 . S
O191 C203 1.260 . S
Mg192 O191 2.072 . S
Mg192 O193 2.099 . S
Mg192 O195 2.079 . S
Mg192 O196 2.072 . S
Mg192 O198 2.099 . S
Mg192 O209 2.079 . S
O193 Mg190 2.180 . S
O193 Mg192 2.099 . S
O193 C204 1.279 . S
O194 Mg190 2.117 . S
O194 C204 1.250 . S
O195 Mg192 2.079 . S
O195 C205 1.264 . S
O196 Mg192 2.072 . S
O196 C206 1.260 . S
Mg197 O198 2.180 . S
Mg197 O199 2.030 . S
Mg197 O200 1.990 . S
Mg197 O201 2.117 . S
O198 Mg192 2.099 . S
O198 Mg197 2.180 . S
O198 C207 1.279 . S
O199 Mg197 2.030 . S
O199 C205 1.248 . S
O200 Mg197 1.990 . S
O200 C206 1.253 . S
O201 Mg197 2.117 . S
O201 C207 1.250 . S
C202 O208 1.248 . S
C202 O209 1.264 . S
C203 O189 1.253 . S
C203 O191 1.260 . S
C204 O193 1.279 . S
C204 O194 1.250 . S
C205 O195 1.264 . S
C205 O199 1.248 . S
C206 O196 1.260 . S
C206 O200 1.253 . S
C207 O198 1.279 . S
C207 O201 1.250 . S
O208 Mg190 2.030 . S
O208 C202 1.248 . S
O209 Mg192 2.079 . S
O209 C202 1.264 . S
O210 Mg211 1.990 . S
O210 C224 1.253 . S
Mg211 O210 1.990 . S
Mg211 O214 2.180 . S
Mg211 O215 2.117 . S
Mg211 O229 2.030 . S
O212 Mg213 2.072 . S
O212 C224 1.260 . S
Mg213 O212 2.072 . S
Mg213 O214 2.099 . S
Mg213 O216 2.079 . S
Mg213 O217 2.072 . S
Mg213 O219 2.099 . S
Mg213 O230 2.079 . S
O214 Mg211 2.180 . S
O214 Mg213 2.099 . S
O214 C225 1.279 . S
O215 Mg211 2.117 . S
O215 C225 1.250 . S
O216 Mg213 2.079 . S
O216 C226 1.264 . S
O217 Mg213 2.072 . S
O217 C227 1.260 . S
Mg218 O219 2.180 . S
Mg218 O220 2.030 . S
Mg218 O221 1.990 . S
Mg218 O222 2.117 1_545 S
O219 Mg213 2.099 . S
O219 Mg218 2.180 . S
O219 C228 1.279 1_545 S
O220 Mg218 2.030 . S
O220 C226 1.248 . S
O221 Mg218 1.990 . S
O221 C227 1.253 . S
O222 Mg218 2.117 1_565 S
O222 C228 1.250 . S
C223 O229 1.248 1_565 S
C223 O230 1.264 1_565 S
C224 O210 1.253 . S
C224 O212 1.260 . S
C225 O214 1.279 . S
C225 O215 1.250 . S
C226 O216 1.264 . S
C226 O220 1.248 . S
C227 O217 1.260 . S
C227 O221 1.253 . S
C228 O219 1.279 1_565 S
C228 O222 1.250 . S
O229 Mg211 2.030 . S
O229 C223 1.248 1_545 S
O230 Mg213 2.079 . S
O230 C223 1.264 1_545 S
O231 Mg232 1.990 . S
O231 C245 1.253 . S
Mg232 O231 1.990 . S
Mg232 O235 2.180 . S
Mg232 O236 2.117 . S
Mg232 O250 2.030 . S
O233 Mg234 2.072 . S
O233 C245 1.260 . S
Mg234 O233 2.072 . S
Mg234 O235 2.099 . S
Mg234 O237 2.079 . S
Mg234 O238 2.072 . S
Mg234 O240 2.099 . S
Mg234 O251 2.079 . S
O235 Mg232 2.180 . S
O235 Mg234 2.099 . S
O235 C246 1.279 . S
O236 Mg232 2.117 . S
O236 C246 1.250 . S
O237 Mg234 2.079 . S
O237 C247 1.264 . S
O238 Mg234 2.072 . S
O238 C248 1.260 . S
Mg239 O240 2.180 . S
Mg239 O241 2.030 . S
Mg239 O242 1.990 . S
Mg239 O243 2.117 1_655 S
O240 Mg234 2.099 . S
O240 Mg239 2.180 . S
O240 C249 1.279 1_655 S
O241 Mg239 2.030 . S
O241 C247 1.248 . S
O242 Mg239 1.990 . S
O242 C248 1.253 . S
O243 Mg239 2.117 1_455 S
O243 C249 1.250 . S
C244 O250 1.248 1_455 S
C244 O251 1.264 1_455 S
C245 O231 1.253 . S
C245 O233 1.260 . S
C246 O235 1.279 . S
C246 O236 1.250 . S
C247 O237 1.264 . S
C247 O241 1.248 . S
C248 O238 1.260 . S
C248 O242 1.253 . S
C249 O240 1.279 1_455 S
C249 O243 1.250 . S
O250 Mg232 2.030 . S
O250 C244 1.248 1_655 S
O251 Mg234 2.079 . S
O251 C244 1.264 1_655 S
O252 Mg253 1.990 . S
O252 C266 1.253 . S
Mg253 O252 1.990 . S
Mg253 O256 2.180 . S
Mg253 O257 2.117 . S
Mg253 O271 2.030 . S
O254 Mg255 2.072 . S
O254 C266 1.260 . S
Mg255 O254 2.072 . S
Mg255 O256 2.099 . S
Mg255 O258 2.079 . S
Mg255 O259 2.072 . S
Mg255 O261 2.099 . S
Mg255 O272 2.079 . S
O256 Mg253 2.180 . S
O256 Mg255 2.099 . S
O256 C267 1.279 . S
O257 Mg253 2.117 . S
O257 C267 1.250 . S
O258 Mg255 2.079 . S
O258 C268 1.264 . S
O259 Mg255 2.072 . S
O259 C269 1.260 . S
Mg260 O261 2.180 . S
Mg260 O262 2.030 . S
Mg260 O263 1.990 . S
Mg260 O264 2.117 . S
O261 Mg255 2.099 . S
O261 Mg260 2.180 . S
O261 C270 1.279 . S
O262 Mg260 2.030 . S
O262 C268 1.248 . S
O263 Mg260 1.990 . S
O263 C269 1.253 . S
O264 Mg260 2.117 . S
O264 C270 1.250 . S
C265 O271 1.248 . S
C265 O272 1.264 . S
C266 O252 1.253 . S
C266 O254 1.260 . S
C267 O256 1.279 . S
C267 O257 1.250 . S
C268 O258 1.264 . S
C268 O262 1.248 . S
C269 O259 1.260 . S
C269 O263 1.253 . S
C270 O261 1.279 . S
C270 O264 1.250 . S
O271 Mg253 2.030 . S
O271 C265 1.248 . S
O272 Mg255 2.079 . S
O272 C265 1.264 . S
O273 Mg274 1.990 . S
O273 C287 1.253 . S
Mg274 O273 1.990 . S
Mg274 O277 2.180 . S
Mg274 O278 2.117 . S
Mg274 O292 2.030 . S
O275 Mg276 2.072 . S
O275 C287 1.260 . S
Mg276 O275 2.072 . S
Mg276 O277 2.099 . S
Mg276 O279 2.079 . S
Mg276 O280 2.072 . S
Mg276 O282 2.099 . S
Mg276 O293 2.079 . S
O277 Mg274 2.180 . S
O277 Mg276 2.099 . S
O277 C288 1.279 . S
O278 Mg274 2.117 . S
O278 C288 1.250 . S
O279 Mg276 2.079 . S
O279 C289 1.264 . S
O280 Mg276 2.072 . S
O280 C290 1.260 . S
Mg281 O282 2.180 . S
Mg281 O283 2.030 . S
Mg281 O284 1.990 . S
Mg281 O285 2.117 . S
O282 Mg276 2.099 . S
O282 Mg281 2.180 . S
O282 C291 1.279 . S
O283 Mg281 2.030 . S
O283 C289 1.248 . S
O284 Mg281 1.990 . S
O284 C290 1.253 . S
O285 Mg281 2.117 . S
O285 C291 1.250 . S
C286 O292 1.248 . S
C286 O293 1.264 . S
C287 O273 1.253 . S
C287 O275 1.260 . S
C288 O277 1.279 . S
C288 O278 1.250 . S
C289 O279 1.264 . S
C289 O283 1.248 . S
C290 O280 1.260 . S
C290 O284 1.253 . S
C291 O282 1.279 . S
C291 O285 1.250 . S
O292 Mg274 2.030 . S
O292 C286 1.248 . S
O293 Mg276 2.079 . S
O293 C286 1.264 . S
O294 Mg295 1.990 . S
O294 C308 1.253 . S
Mg295 O294 1.990 . S
Mg295 O298 2.180 . S
Mg295 O299 2.117 . S
Mg295 O313 2.030 . S
O296 Mg297 2.072 . S
O296 C308 1.260 . S
Mg297 O296 2.072 . S
Mg297 O298 2.099 . S
Mg297 O300 2.079 . S
Mg297 O301 2.072 . S
Mg297 O303 2.099 . S
Mg297 O314 2.079 . S
O298 Mg295 2.180 . S
O298 Mg297 2.099 . S
O298 C309 1.279 . S
O299 Mg295 2.117 . S
O299 C309 1.250 . S
O300 Mg297 2.079 . S
O300 C310 1.264 . S
O301 Mg297 2.072 . S
O301 C311 1.260 . S
Mg302 O303 2.180 . S
Mg302 O304 2.030 . S
Mg302 O305 1.990 . S
Mg302 O306 2.117 . S
O303 Mg297 2.099 . S
O303 Mg302 2.180 . S
O303 C312 1.279 . S
O304 Mg302 2.030 . S
O304 C310 1.248 . S
O305 Mg302 1.990 . S
O305 C311 1.253 . S
O306 Mg302 2.117 . S
O306 C312 1.250 . S
C307 O313 1.248 . S
C307 O314 1.264 . S
C308 O294 1.253 . S
C308 O296 1.260 . S
C309 O298 1.279 . S
C309 O299 1.250 . S
C310 O300 1.264 . S
C310 O304 1.248 . S
C311 O301 1.260 . S
C311 O305 1.253 . S
C312 O303 1.279 . S
C312 O306 1.250 . S
O313 Mg295 2.030 . S
O313 C307 1.248 . S
O314 Mg297 2.079 . S
O314 C307 1.264 . S
O315 Mg316 1.990 . S
O315 C329 1.253 . S
Mg316 O315 1.990 . S
Mg316 O319 2.180 . S
Mg316 O320 2.117 . S
Mg316 O334 2.030 . S
O317 Mg318 2.072 . S
O317 C329 1.260 . S
Mg318 O317 2.072 . S
Mg318 O319 2.099 . S
Mg318 O321 2.079 . S
Mg318 O322 2.072 . S
Mg318 O324 2.099 . S
Mg318 O335 2.079 . S
O319 Mg316 2.180 . S
O319 Mg318 2.099 . S
O319 C330 1.279 . S
O320 Mg316 2.117 . S
O320 C330 1.250 . S
O321 Mg318 2.079 . S
O321 C331 1.264 . S
O322 Mg318 2.072 . S
O322 C332 1.260 . S
Mg323 O324 2.180 . S
Mg323 O325 2.030 . S
Mg323 O326 1.990 . S
Mg323 O327 2.117 . S
O324 Mg318 2.099 . S
O324 Mg323 2.180 . S
O324 C333 1.279 . S
O325 Mg323 2.030 . S
O325 C331 1.248 . S
O326 Mg323 1.990 . S
O326 C332 1.253 . S
O327 Mg323 2.117 . S
O327 C333 1.250 . S
C328 O334 1.248 . S
C328 O335 1.264 . S
C329 O315 1.253 . S
C329 O317 1.260 . S
C330 O319 1.279 . S
C330 O320 1.250 . S
C331 O321 1.264 . S
C331 O325 1.248 . S
C332 O322 1.260 . S
C332 O326 1.253 . S
C333 O324 1.279 . S
C333 O327 1.250 . S
O334 Mg316 2.030 . S
O334 C328 1.248 . S
O335 Mg318 2.079 . S
O335 C328 1.264 . S
O336 Mg337 1.990 . S
O336 C350 1.253 . S
Mg337 O336 1.990 . S
Mg337 O340 2.180 . S
Mg337 O341 2.117 . S
Mg337 O355 2.030 . S
O338 Mg339 2.072 . S
O338 C350 1.260 . S
Mg339 O338 2.072 . S
Mg339 O340 2.099 . S
Mg339 O342 2.079 . S
Mg339 O343 2.072 . S
Mg339 O345 2.099 . S
Mg339 O356 2.079 . S
O340 Mg337 2.180 . S
O340 Mg339 2.099 . S
O340 C351 1.279 . S
O341 Mg337 2.117 . S
O341 C351 1.250 . S
O342 Mg339 2.079 . S
O342 C352 1.264 . S
O343 Mg339 2.072 . S
O343 C353 1.260 . S
Mg344 O345 2.180 . S
Mg344 O346 2.030 . S
Mg344 O347 1.990 . S
Mg344 O348 2.117 . S
O345 Mg339 2.099 . S
O345 Mg344 2.180 . S
O345 C354 1.279 . S
O346 Mg344 2.030 . S
O346 C352 1.248 . S
O347 Mg344 1.990 . S
O347 C353 1.253 . S
O348 Mg344 2.117 . S
O348 C354 1.250 . S
C349 O355 1.248 . S
C349 O356 1.264 . S
C350 O336 1.253 . S
C350 O338 1.260 . S
C351 O340 1.279 . S
C351 O341 1.250 . S
C352 O342 1.264 . S
C352 O346 1.248 . S
C353 O343 1.260 . S
C353 O347 1.253 . S
C354 O345 1.279 . S
C354 O348 1.250 . S
O355 Mg337 2.030 . S
O355 C349 1.248 . S
O356 Mg339 2.079 . S
O356 C349 1.264 . S
O357 Mg358 1.990 . S
O357 C371 1.253 . S
Mg358 O357 1.990 . S
Mg358 O361 2.180 . S
Mg358 O362 2.117 . S
Mg358 O376 2.030 . S
O359 Mg360 2.072 . S
O359 C371 1.260 . S
Mg360 O359 2.072 . S
Mg360 O361 2.099 . S
Mg360 O363 2.079 . S
Mg360 O364 2.072 . S
Mg360 O366 2.099 . S
Mg360 O377 2.079 . S
O361 Mg358 2.180 . S
O361 Mg360 2.099 . S
O361 C372 1.279 . S
O362 Mg358 2.117 . S
O362 C372 1.250 . S
O363 Mg360 2.079 . S
O363 C373 1.264 . S
O364 Mg360 2.072 . S
O364 C374 1.260 . S
Mg365 O366 2.180 . S
Mg365 O367 2.030 . S
Mg365 O368 1.990 . S
Mg365 O369 2.117 . S
O366 Mg360 2.099 . S
O366 Mg365 2.180 . S
O366 C375 1.279 . S
O367 Mg365 2.030 . S
O367 C373 1.248 . S
O368 Mg365 1.990 . S
O368 C374 1.253 . S
O369 Mg365 2.117 . S
O369 C375 1.250 . S
C370 O376 1.248 . S
C370 O377 1.264 . S
C371 O357 1.253 . S
C371 O359 1.260 . S
C372 O361 1.279 . S
C372 O362 1.250 . S
C373 O363 1.264 . S
C373 O367 1.248 . S
C374 O364 1.260 . S
C374 O368 1.253 . S
C375 O366 1.279 . S
C375 O369 1.250 . S
O376 Mg358 2.030 . S
O376 C370 1.248 . S
O377 Mg360 2.079 . S
O377 C370 1.264 . S
O378 Mg379 1.990 . S
O378 C392 1.253 . S
Mg379 O378 1.990 . S
Mg379 O382 2.180 . S
Mg379 O383 2.117 . S
Mg379 O397 2.030 . S
O380 Mg381 2.072 . S
O380 C392 1.260 . S
Mg381 O380 2.072 . S
Mg381 O382 2.099 . S
Mg381 O384 2.079 . S
Mg381 O385 2.072 . S
Mg381 O387 2.099 . S
Mg381 O398 2.079 . S
O382 Mg379 2.180 . S
O382 Mg381 2.099 . S
O382 C393 1.279 . S
O383 Mg379 2.117 . S
O383 C393 1.250 . S
O384 Mg381 2.079 . S
O384 C394 1.264 . S
O385 Mg381 2.072 . S
O385 C395 1.260 . S
Mg386 O387 2.180 . S
Mg386 O388 2.030 . S
Mg386 O389 1.990 . S
Mg386 O390 2.117 . S
O387 Mg381 2.099 . S
O387 Mg386 2.180 . S
O387 C396 1.279 . S
O388 Mg386 2.030 . S
O388 C394 1.248 . S
O389 Mg386 1.990 . S
O389 C395 1.253 . S
O390 Mg386 2.117 . S
O390 C396 1.250 . S
C391 O397 1.248 . S
C391 O398 1.264 . S
C392 O378 1.253 . S
C392 O380 1.260 . S
C393 O382 1.279 . S
C393 O383 1.250 . S
C394 O384 1.264 . S
C394 O388 1.248 . S
C395 O385 1.260 . S
C395 O389 1.253 . S
C396 O387 1.279 . S
C396 O390 1.250 . S
O397 Mg379 2.030 . S
O397 C391 1.248 . S
O398 Mg381 2.079 . S
O398 C391 1.264 . S
O399 Mg400 1.990 . S
O399 C413 1.253 . S
Mg400 O399 1.990 . S
Mg400 O403 2.180 . S
Mg400 O404 2.117 . S
Mg400 O418 2.030 . S
O401 Mg402 2.072 . S
O401 C413 1.260 . S
Mg402 O401 2.072 . S
Mg402 O403 2.099 . S
Mg402 O405 2.079 . S
Mg402 O406 2.072 . S
Mg402 O408 2.099 . S
Mg402 O419 2.079 . S
O403 Mg400 2.180 . S
O403 Mg402 2.099 . S
O403 C414 1.279 . S
O404 Mg400 2.117 . S
O404 C414 1.250 . S
O405 Mg402 2.079 . S
O405 C415 1.264 . S
O406 Mg402 2.072 . S
O406 C416 1.260 . S
Mg407 O408 2.180 . S
Mg407 O409 2.030 . S
Mg407 O410 1.990 . S
Mg407 O411 2.117 . S
O408 Mg402 2.099 . S
O408 Mg407 2.180 . S
O408 C417 1.279 . S
O409 Mg407 2.030 . S
O409 C415 1.248 . S
O410 Mg407 1.990 . S
O410 C416 1.253 . S
O411 Mg407 2.117 . S
O411 C417 1.250 . S
C412 O418 1.248 . S
C412 O419 1.264 . S
C413 O399 1.253 . S
C413 O401 1.260 . S
C414 O403 1.279 . S
C414 O404 1.250 . S
C415 O405 1.264 . S
C415 O409 1.248 . S
C416 O406 1.260 . S
C416 O410 1.253 . S
C417 O408 1.279 . S
C417 O411 1.250 . S
O418 Mg400 2.030 . S
O418 C412 1.248 . S
O419 Mg402 2.079 . S
O419 C412 1.264 . S
O420 Mg421 1.990 . S
O420 C434 1.253 . S
Mg421 O420 1.990 . S
Mg421 O424 2.180 . S
Mg421 O425 2.117 . S
Mg421 O439 2.030 . S
O422 Mg423 2.072 . S
O422 C434 1.260 . S
Mg423 O422 2.072 . S
Mg423 O424 2.099 . S
Mg423 O426 2.079 . S
Mg423 O427 2.072 . S
Mg423 O429 2.099 . S
Mg423 O440 2.079 . S
O424 Mg421 2.180 . S
O424 Mg423 2.099 . S
O424 C435 1.279 . S
O425 Mg421 2.117 . S
O425 C435 1.250 . S
O426 Mg423 2.079 . S
O426 C436 1.264 . S
O427 Mg423 2.072 . S
O427 C437 1.260 . S
Mg428 O429 2.180 . S
Mg428 O430 2.030 . S
Mg428 O431 1.990 . S
Mg428 O432 2.117 . S
O429 Mg423 2.099 . S
O429 Mg428 2.180 . S
O429 C438 1.279 . S
O430 Mg428 2.030 . S
O430 C436 1.248 . S
O431 Mg428 1.990 . S
O431 C437 1.253 . S
O432 Mg428 2.117 . S
O432 C438 1.250 . S
C433 O439 1.248 . S
C433 O440 1.264 . S
C434 O420 1.253 . S
C434 O422 1.260 . S
C435 O424 1.279 . S
C435 O425 1.250 . S
C436 O426 1.264 . S
C436 O430 1.248 . S
C437 O427 1.260 . S
C437 O431 1.253 . S
C438 O429 1.279 . S
C438 O432 1.250 . S
O439 Mg421 2.030 . S
O439 C433 1.248 . S
O440 Mg423 2.079 . S
O440 C433 1.264 . S
O441 Mg442 1.990 . S
O441 C455 1.253 . S
Mg442 O441 1.990 . S
Mg442 O445 2.180 1_554 S
Mg442 O446 2.117 . S
Mg442 O460 2.030 . S
O443 Mg444 2.072 . S
O443 C455 1.260 1_556 S
Mg444 O443 2.072 . S
Mg444 O445 2.099 . S
Mg444 O447 2.079 . S
Mg444 O448 2.072 . S
Mg444 O450 2.099 . S
Mg444 O461 2.079 . S
O445 Mg442 2.180 1_556 S
O445 Mg444 2.099 . S
O445 C456 1.279 1_556 S
O446 Mg442 2.117 . S
O446 C456 1.250 . S
O447 Mg444 2.079 . S
O447 C457 1.264 . S
O448 Mg444 2.072 . S
O448 C458 1.260 . S
Mg449 O450 2.180 . S
Mg449 O451 2.030 . S
Mg449 O452 1.990 . S
Mg449 O453 2.117 . S
O450 Mg444 2.099 . S
O450 Mg449 2.180 . S
O450 C459 1.279 . S
O451 Mg449 2.030 . S
O451 C457 1.248 . S
O452 Mg449 1.990 . S
O452 C458 1.253 . S
O453 Mg449 2.117 . S
O453 C459 1.250 . S
C454 O460 1.248 1_556 S
C454 O461 1.264 . S
C455 O441 1.253 . S
C455 O443 1.260 1_554 S
C456 O445 1.279 1_554 S
C456 O446 1.250 . S
C457 O447 1.264 . S
C457 O451 1.248 . S
C458 O448 1.260 . S
C458 O452 1.253 . S
C459 O450 1.279 . S
C459 O453 1.250 . S
O460 Mg442 2.030 . S
O460 C454 1.248 1_554 S
O461 Mg444 2.079 . S
O461 C454 1.264 . S
O462 Mg463 1.990 . S
O462 C476 1.253 . S
Mg463 O462 1.990 . S
Mg463 O466 2.180 1_554 S
Mg463 O467 2.117 . S
Mg463 O481 2.030 . S
O464 Mg465 2.072 . S
O464 C476 1.260 1_556 S
Mg465 O464 2.072 . S
Mg465 O466 2.099 . S
Mg465 O468 2.079 . S
Mg465 O469 2.072 . S
Mg465 O471 2.099 . S
Mg465 O482 2.079 . S
O466 Mg463 2.180 1_556 S
O466 Mg465 2.099 . S
O466 C477 1.279 1_556 S
O467 Mg463 2.117 . S
O467 C477 1.250 . S
O468 Mg465 2.079 . S
O468 C478 1.264 . S
O469 Mg465 2.072 . S
O469 C479 1.260 . S
Mg470 O471 2.180 . S
Mg470 O472 2.030 . S
Mg470 O473 1.990 . S
Mg470 O474 2.117 . S
O471 Mg465 2.099 . S
O471 Mg470 2.180 . S
O471 C480 1.279 . S
O472 Mg470 2.030 . S
O472 C478 1.248 . S
O473 Mg470 1.990 . S
O473 C479 1.253 . S
O474 Mg470 2.117 . S
O474 C480 1.250 . S
C475 O481 1.248 1_556 S
C475 O482 1.264 . S
C476 O462 1.253 . S
C476 O464 1.260 1_554 S
C477 O466 1.279 1_554 S
C477 O467 1.250 . S
C478 O468 1.264 . S
C478 O472 1.248 . S
C479 O469 1.260 . S
C479 O473 1.253 . S
C480 O471 1.279 . S
C480 O474 1.250 . S
O481 Mg463 2.030 . S
O481 C475 1.248 1_554 S
O482 Mg465 2.079 . S
O482 C475 1.264 . S
O483 Mg484 1.990 . S
O483 C497 1.253 . S
Mg484 O483 1.990 . S
Mg484 O487 2.180 1_554 S
Mg484 O488 2.117 . S
Mg484 O502 2.030 . S
O485 Mg486 2.072 . S
O485 C497 1.260 1_556 S
Mg486 O485 2.072 . S
Mg486 O487 2.099 . S
Mg486 O489 2.079 . S
Mg486 O490 2.072 . S
Mg486 O492 2.099 . S
Mg486 O503 2.079 . S
O487 Mg484 2.180 1_556 S
O487 Mg486 2.099 . S
O487 C498 1.279 1_556 S
O488 Mg484 2.117 . S
O488 C498 1.250 . S
O489 Mg486 2.079 . S
O489 C499 1.264 . S
O490 Mg486 2.072 . S
O490 C500 1.260 . S
Mg491 O492 2.180 . S
Mg491 O493 2.030 . S
Mg491 O494 1.990 . S
Mg491 O495 2.117 . S
O492 Mg486 2.099 . S
O492 Mg491 2.180 . S
O492 C501 1.279 . S
O493 Mg491 2.030 . S
O493 C499 1.248 . S
O494 Mg491 1.990 . S
O494 C500 1.253 . S
O495 Mg491 2.117 . S
O495 C501 1.250 . S
C496 O502 1.248 1_556 S
C496 O503 1.264 . S
C497 O483 1.253 . S
C497 O485 1.260 1_554 S
C498 O487 1.279 1_554 S
C498 O488 1.250 . S
C499 O489 1.264 . S
C499 O493 1.248 . S
C500 O490 1.260 . S
C500 O494 1.253 . S
C501 O492 1.279 . S
C501 O495 1.250 . S
O502 Mg484 2.030 . S
O502 C496 1.248 1_554 S
O503 Mg486 2.079 . S
O503 C496 1.264 . S
O504 Mg505 1.990 . S
O504 C518 1.253 . S
Mg505 O504 1.990 . S
Mg505 O508 2.180 . S
Mg505 O509 2.117 . S
Mg505 O523 2.030 . S
O506 Mg507 2.072 . S
O506 C518 1.260 . S
Mg507 O506 2.072 . S
Mg507 O508 2.099 . S
Mg507 O510 2.079 . S
Mg507 O511 2.072 . S
Mg507 O513 2.099 . S
Mg507 O524 2.079 . S
O508 Mg505 2.180 . S
O508 Mg507 2.099 . S
O508 C519 1.279 . S
O509 Mg505 2.117 . S
O509 C519 1.250 . S
O510 Mg507 2.079 . S
O510 C520 1.264 . S
O511 Mg507 2.072 . S
O511 C521 1.260 . S
Mg512 O513 2.180 . S
Mg512 O514 2.030 . S
Mg512 O515 1.990 . S
Mg512 O516 2.117 . S
O513 Mg507 2.099 . S
O513 Mg512 2.180 . S
O513 C522 1.279 . S
O514 Mg512 2.030 . S
O514 C520 1.248 . S
O515 Mg512 1.990 . S
O515 C521 1.253 . S
O516 Mg512 2.117 . S
O516 C522 1.250 . S
C517 O523 1.248 . S
C517 O524 1.264 . S
C518 O504 1.253 . S
C518 O506 1.260 . S
C519 O508 1.279 . S
C519 O509 1.250 . S
C520 O510 1.264 . S
C520 O514 1.248 . S
C521 O511 1.260 . S
C521 O515 1.253 . S
C522 O513 1.279 . S
C522 O516 1.250 . S
O523 Mg505 2.030 . S
O523 C517 1.248 . S
O524 Mg507 2.079 . S
O524 C517 1.264 . S
O525 Mg526 1.990 . S
O525 C539 1.253 . S
Mg526 O525 1.990 . S
Mg526 O529 2.180 . S
Mg526 O530 2.117 . S
Mg526 O544 2.030 . S
O527 Mg528 2.072 . S
O527 C539 1.260 . S
Mg528 O527 2.072 . S
Mg528 O529 2.099 . S
Mg528 O531 2.079 . S
Mg528 O532 2.072 . S
Mg528 O534 2.099 . S
Mg528 O545 2.079 . S
O529 Mg526 2.180 . S
O529 Mg528 2.099 . S
O529 C540 1.279 . S
O530 Mg526 2.117 . S
O530 C540 1.250 . S
O531 Mg528 2.079 . S
O531 C541 1.264 . S
O532 Mg528 2.072 . S
O532 C542 1.260 . S
Mg533 O534 2.180 . S
Mg533 O535 2.030 . S
Mg533 O536 1.990 . S
Mg533 O537 2.117 . S
O534 Mg528 2.099 . S
O534 Mg533 2.180 . S
O534 C543 1.279 . S
O535 Mg533 2.030 . S
O535 C541 1.248 . S
O536 Mg533 1.990 . S
O536 C542 1.253 . S
O537 Mg533 2.117 . S
O537 C543 1.250 . S
C538 O544 1.248 . S
C538 O545 1.264 . S
C539 O525 1.253 . S
C539 O527 1.260 . S
C540 O529 1.279 . S
C540 O530 1.250 . S
C541 O531 1.264 . S
C541 O535 1.248 . S
C542 O532 1.260 . S
C542 O536 1.253 . S
C543 O534 1.279 . S
C543 O537 1.250 . S
O544 Mg526 2.030 . S
O544 C538 1.248 . S
O545 Mg528 2.079 . S
O545 C538 1.264 . S
O546 Mg547 1.990 . S
O546 C560 1.253 . S
Mg547 O546 1.990 . S
Mg547 O550 2.180 . S
Mg547 O551 2.117 . S
Mg547 O565 2.030 . S
O548 Mg549 2.072 . S
O548 C560 1.260 . S
Mg549 O548 2.072 . S
Mg549 O550 2.099 . S
Mg549 O552 2.079 . S
Mg549 O553 2.072 . S
Mg549 O555 2.099 . S
Mg549 O566 2.079 . S
O550 Mg547 2.180 . S
O550 Mg549 2.099 . S
O550 C561 1.279 . S
O551 Mg547 2.117 . S
O551 C561 1.250 . S
O552 Mg549 2.079 . S
O552 C562 1.264 . S
O553 Mg549 2.072 . S
O553 C563 1.260 . S
Mg554 O555 2.180 . S
Mg554 O556 2.030 . S
Mg554 O557 1.990 . S
Mg554 O558 2.117 . S
O555 Mg549 2.099 . S
O555 Mg554 2.180 . S
O555 C564 1.279 . S
O556 Mg554 2.030 . S
O556 C562 1.248 . S
O557 Mg554 1.990 . S
O557 C563 1.253 . S
O558 Mg554 2.117 . S
O558 C564 1.250 . S
C559 O565 1.248 . S
C559 O566 1.264 . S
C560 O546 1.253 . S
C560 O548 1.260 . S
C561 O550 1.279 . S
C561 O551 1.250 . S
C562 O552 1.264 . S
C562 O556 1.248 . S
C563 O553 1.260 . S
C563 O557 1.253 . S
C564 O555 1.279 . S
C564 O558 1.250 . S
O565 Mg547 2.030 . S
O565 C559 1.248 . S
O566 Mg549 2.079 . S
O566 C559 1.264 . S
O567 Mg568 1.990 . S
O567 C581 1.253 . S
Mg568 O567 1.990 . S
Mg568 O571 2.180 . S
Mg568 O572 2.117 . S
Mg568 O586 2.030 . S
O569 Mg570 2.072 . S
O569 C581 1.260 . S
Mg570 O569 2.072 . S
Mg570 O571 2.099 . S
Mg570 O573 2.079 . S
Mg570 O574 2.072 . S
Mg570 O576 2.099 . S
Mg570 O587 2.079 . S
O571 Mg568 2.180 . S
O571 Mg570 2.099 . S
O571 C582 1.279 . S
O572 Mg568 2.117 . S
O572 C582 1.250 . S
O573 Mg570 2.079 . S
O573 C583 1.264 . S
O574 Mg570 2.072 . S
O574 C584 1.260 1_554 S
Mg575 O576 2.180 1_556 S
Mg575 O577 2.030 . S
Mg575 O578 1.990 . S
Mg575 O579 2.117 . S
O576 Mg570 2.099 . S
O576 Mg575 2.180 1_554 S
O576 C585 1.279 1_554 S
O577 Mg575 2.030 . S
O577 C583 1.248 1_556 S
O578 Mg575 1.990 . S
O578 C584 1.253 . S
O579 Mg575 2.117 . S
O579 C585 1.250 . S
C580 O586 1.248 . S
C580 O587 1.264 . S
C581 O567 1.253 . S
C581 O569 1.260 . S
C582 O571 1.279 . S
C582 O572 1.250 . S
C583 O573 1.264 . S
C583 O577 1.248 1_554 S
C584 O574 1.260 1_556 S
C584 O578 1.253 . S
C585 O576 1.279 1_556 S
C585 O579 1.250 . S
O586 Mg568 2.030 . S
O586 C580 1.248 . S
O587 Mg570 2.079 . S
O587 C580 1.264 . S
O588 Mg589 1.990 . S
O588 C602 1.253 . S
Mg589 O588 1.990 . S
Mg589 O592 2.180 . S
Mg589 O593 2.117 . S
Mg589 O607 2.030 . S
O590 Mg591 2.072 . S
O590 C602 1.260 . S
Mg591 O590 2.072 . S
Mg591 O592 2.099 . S
Mg591 O594 2.079 . S
Mg591 O595 2.072 . S
Mg591 O597 2.099 . S
Mg591 O608 2.079 . S
O592 Mg589 2.180 . S
O592 Mg591 2.099 . S
O592 C603 1.279 . S
O593 Mg589 2.117 . S
O593 C603 1.250 . S
O594 Mg591 2.079 . S
O594 C604 1.264 . S
O595 Mg591 2.072 . S
O595 C605 1.260 1_554 S
Mg596 O597 2.180 1_556 S
Mg596 O598 2.030 . S
Mg596 O599 1.990 . S
Mg596 O600 2.117 . S
O597 Mg591 2.099 . S
O597 Mg596 2.180 1_554 S
O597 C606 1.279 1_554 S
O598 Mg596 2.030 . S
O598 C604 1.248 1_556 S
O599 Mg596 1.990 . S
O599 C605 1.253 . S
O600 Mg596 2.117 . S
O600 C606 1.250 . S
C601 O607 1.248 . S
C601 O608 1.264 . S
C602 O588 1.253 . S
C602 O590 1.260 . S
C603 O592 1.279 . S
C603 O593 1.250 . S
C604 O594 1.264 . S
C604 O598 1.248 1_554 S
C605 O595 1.260 1_556 S
C605 O599 1.253 . S
C606 O597 1.279 1_556 S
C606 O600 1.250 . S
O607 Mg589 2.030 . S
O607 C601 1.248 . S
O608 Mg591 2.079 . S
O608 C601 1.264 . S
O609 Mg610 1.990 . S
O609 C623 1.253 . S
Mg610 O609 1.990 . S
Mg610 O613 2.180 . S
Mg610 O614 2.117 . S
Mg610 O628 2.030 . S
O611 Mg612 2.072 . S
O611 C623 1.260 . S
Mg612 O611 2.072 . S
Mg612 O613 2.099 . S
Mg612 O615 2.079 . S
Mg612 O616 2.072 . S
Mg612 O618 2.099 . S
Mg612 O629 2.079 . S
O613 Mg610 2.180 . S
O613 Mg612 2.099 . S
O613 C624 1.279 . S
O614 Mg610 2.117 . S
O614 C624 1.250 . S
O615 Mg612 2.079 . S
O615 C625 1.264 . S
O616 Mg612 2.072 . S
O616 C626 1.260 1_554 S
Mg617 O618 2.180 1_556 S
Mg617 O619 2.030 . S
Mg617 O620 1.990 . S
Mg617 O621 2.117 . S
O618 Mg612 2.099 . S
O618 Mg617 2.180 1_554 S
O618 C627 1.279 1_554 S
O619 Mg617 2.030 . S
O619 C625 1.248 1_556 S
O620 Mg617 1.990 . S
O620 C626 1.253 . S
O621 Mg617 2.117 . S
O621 C627 1.250 . S
C622 O628 1.248 . S
C622 O629 1.264 . S
C623 O609 1.253 . S
C623 O611 1.260 . S
C624 O613 1.279 . S
C624 O614 1.250 . S
C625 O615 1.264 . S
C625 O619 1.248 1_554 S
C626 O616 1.260 1_556 S
C626 O620 1.253 . S
C627 O618 1.279 1_556 S
C627 O621 1.250 . S
O628 Mg610 2.030 . S
O628 C622 1.248 . S
O629 Mg612 2.079 . S
O629 C622 1.264 . S
O630 Mg631 1.990 . S
O630 C644 1.253 . S
Mg631 O630 1.990 . S
Mg631 O634 2.180 . S
Mg631 O635 2.117 . S
Mg631 O649 2.030 . S
O632 Mg633 2.072 . S
O632 C644 1.260 . S
Mg633 O632 2.072 . S
Mg633 O634 2.099 . S
Mg633 O636 2.079 . S
Mg633 O637 2.072 . S
Mg633 O639 2.099 . S
Mg633 O650 2.079 . S
O634 Mg631 2.180 . S
O634 Mg633 2.099 . S
O634 C645 1.279 . S
O635 Mg631 2.117 . S
O635 C645 1.250 . S
O636 Mg633 2.079 . S
O636 C646 1.264 . S
O637 Mg633 2.072 . S
O637 C647 1.260 . S
Mg638 O639 2.180 . S
Mg638 O640 2.030 . S
Mg638 O641 1.990 . S
Mg638 O642 2.117 . S
O639 Mg633 2.099 . S
O639 Mg638 2.180 . S
O639 C648 1.279 . S
O640 Mg638 2.030 . S
O640 C646 1.248 . S
O641 Mg638 1.990 . S
O641 C647 1.253 . S
O642 Mg638 2.117 . S
O642 C648 1.250 . S
C643 O649 1.248 . S
C643 O650 1.264 . S
C644 O630 1.253 . S
C644 O632 1.260 . S
C645 O634 1.279 . S
C645 O635 1.250 . S
C646 O636 1.264 . S
C646 O640 1.248 . S
C647 O637 1.260 . S
C647 O641 1.253 . S
C648 O639 1.279 . S
C648 O642 1.250 . S
O649 Mg631 2.030 . S
O649 C643 1.248 . S
O650 Mg633 2.079 . S
O650 C643 1.264 . S
O651 Mg652 1.990 . S
O651 C665 1.253 . S
Mg652 O651 1.990 . S
Mg652 O655 2.180 . S
Mg652 O656 2.117 . S
Mg652 O670 2.030 . S
O653 Mg654 2.072 . S
O653 C665 1.260 . S
Mg654 O653 2.072 . S
Mg654 O655 2.099 . S
Mg654 O657 2.079 . S
Mg654 O658 2.072 . S
Mg654 O660 2.099 . S
Mg654 O671 2.079 . S
O655 Mg652 2.180 . S
O655 Mg654 2.099 . S
O655 C666 1.279 . S
O656 Mg652 2.117 . S
O656 C666 1.250 . S
O657 Mg654 2.079 . S
O657 C667 1.264 . S
O658 Mg654 2.072 . S
O658 C668 1.260 . S
Mg659 O660 2.180 . S
Mg659 O661 2.030 . S
Mg659 O662 1.990 . S
Mg659 O663 2.117 . S
O660 Mg654 2.099 . S
O660 Mg659 2.180 . S
O660 C669 1.279 . S
O661 Mg659 2.030 . S
O661 C667 1.248 . S
O662 Mg659 1.990 . S
O662 C668 1.253 . S
O663 Mg659 2.117 . S
O663 C669 1.250 . S
C664 O670 1.248 . S
C664 O671 1.264 . S
C665 O651 1.253 . S
C665 O653 1.260 . S
C666 O655 1.279 . S
C666 O656 1.250 . S
C667 O657 1.264 . S
C667 O661 1.248 . S
C668 O658 1.260 . S
C668 O662 1.253 . S
C669 O660 1.279 . S
C669 O663 1.250 . S
O670 Mg652 2.030 . S
O670 C664 1.248 . S
O671 Mg654 2.079 . S
O671 C664 1.264 . S
O672 Mg673 1.990 . S
O672 C686 1.253 . S
Mg673 O672 1.990 . S
Mg673 O676 2.180 . S
Mg673 O677 2.117 . S
Mg673 O691 2.030 . S
O674 Mg675 2.072 . S
O674 C686 1.260 . S
Mg675 O674 2.072 . S
Mg675 O676 2.099 . S
Mg675 O678 2.079 . S
Mg675 O679 2.072 . S
Mg675 O681 2.099 . S
Mg675 O692 2.079 . S
O676 Mg673 2.180 . S
O676 Mg675 2.099 . S
O676 C687 1.279 . S
O677 Mg673 2.117 . S
O677 C687 1.250 . S
O678 Mg675 2.079 . S
O678 C688 1.264 . S
O679 Mg675 2.072 . S
O679 C689 1.260 . S
Mg680 O681 2.180 . S
Mg680 O682 2.030 . S
Mg680 O683 1.990 . S
Mg680 O684 2.117 . S
O681 Mg675 2.099 . S
O681 Mg680 2.180 . S
O681 C690 1.279 . S
O682 Mg680 2.030 . S
O682 C688 1.248 . S
O683 Mg680 1.990 . S
O683 C689 1.253 . S
O684 Mg680 2.117 . S
O684 C690 1.250 . S
C685 O691 1.248 . S
C685 O692 1.264 . S
C686 O672 1.253 . S
C686 O674 1.260 . S
C687 O676 1.279 . S
C687 O677 1.250 . S
C688 O678 1.264 . S
C688 O682 1.248 . S
C689 O679 1.260 . S
C689 O683 1.253 . S
C690 O681 1.279 . S
C690 O684 1.250 . S
O691 Mg673 2.030 . S
O691 C685 1.248 . S
O692 Mg675 2.079 . S
O692 C685 1.264 . S
O693 Mg694 1.990 . S
O693 C707 1.253 . S
Mg694 O693 1.990 . S
Mg694 O697 2.180 . S
Mg694 O698 2.117 . S
Mg694 O712 2.030 . S
O695 Mg696 2.072 . S
O695 C707 1.260 . S
Mg696 O695 2.072 . S
Mg696 O697 2.099 . S
Mg696 O699 2.079 . S
Mg696 O700 2.072 . S
Mg696 O702 2.099 . S
Mg696 O713 2.079 . S
O697 Mg694 2.180 . S
O697 Mg696 2.099 . S
O697 C708 1.279 . S
O698 Mg694 2.117 . S
O698 C708 1.250 . S
O699 Mg696 2.079 . S
O699 C709 1.264 . S
O700 Mg696 2.072 . S
O700 C710 1.260 . S
Mg701 O702 2.180 . S
Mg701 O703 2.030 . S
Mg701 O704 1.990 . S
Mg701 O705 2.117 . S
O702 Mg696 2.099 . S
O702 Mg701 2.180 . S
O702 C711 1.279 . S
O703 Mg701 2.030 . S
O703 C709 1.248 . S
O704 Mg701 1.990 . S
O704 C710 1.253 . S
O705 Mg701 2.117 . S
O705 C711 1.250 . S
C706 O712 1.248 . S
C706 O713 1.264 . S
C707 O693 1.253 . S
C707 O695 1.260 . S
C708 O697 1.279 . S
C708 O698 1.250 . S
C709 O699 1.264 . S
C709 O703 1.248 . S
C710 O700 1.260 . S
C710 O704 1.253 . S
C711 O702 1.279 . S
C711 O705 1.250 . S
O712 Mg694 2.030 . S
O712 C706 1.248 . S
O713 Mg696 2.079 . S
O713 C706 1.264 . S
O714 Mg715 1.990 . S
O714 C728 1.253 . S
Mg715 O714 1.990 . S
Mg715 O718 2.180 . S
Mg715 O719 2.117 . S
Mg715 O733 2.030 . S
O716 Mg717 2.072 . S
O716 C728 1.260 . S
Mg717 O716 2.072 . S
Mg717 O718 2.099 . S
Mg717 O720 2.079 . S
Mg717 O721 2.072 . S
Mg717 O723 2.099 . S
Mg717 O734 2.079 . S
O718 Mg715 2.180 . S
O718 Mg717 2.099 . S
O718 C729 1.279 . S
O719 Mg715 2.117 . S
O719 C729 1.250 . S
O720 Mg717 2.079 . S
O720 C730 1.264 . S
O721 Mg717 2.072 . S
O721 C731 1.260 . S
Mg722 O723 2.180 . S
Mg722 O724 2.030 . S
Mg722 O725 1.990 . S
Mg722 O726 2.117 . S
O723 Mg717 2.099 . S
O723 Mg722 2.180 . S
O723 C732 1.279 . S
O724 Mg722 2.030 . S
O724 C730 1.248 . S
O725 Mg722 1.990 . S
O725 C731 1.253 . S
O726 Mg722 2.117 . S
O726 C732 1.250 . S
C727 O733 1.248 . S
C727 O734 1.264 . S
C728 O714 1.253 . S
C728 O716 1.260 . S
C729 O718 1.279 . S
C729 O719 1.250 . S
C730 O720 1.264 . S
C730 O724 1.248 . S
C731 O721 1.260 . S
C731 O725 1.253 . S
C732 O723 1.279 . S
C732 O726 1.250 . S
O733 Mg715 2.030 . S
O733 C727 1.248 . S
O734 Mg717 2.079 . S
O734 C727 1.264 . S
O735 Mg736 1.990 . S
O735 C749 1.253 . S
Mg736 O735 1.990 . S
Mg736 O739 2.180 . S
Mg736 O740 2.117 . S
Mg736 O754 2.030 . S
O737 Mg738 2.072 . S
O737 C749 1.260 . S
Mg738 O737 2.072 . S
Mg738 O739 2.099 . S
Mg738 O741 2.079 . S
Mg738 O742 2.072 . S
Mg738 O744 2.099 . S
Mg738 O755 2.079 . S
O739 Mg736 2.180 . S
O739 Mg738 2.099 . S
O739 C750 1.279 . S
O740 Mg736 2.117 . S
O740 C750 1.250 . S
O741 Mg738 2.079 . S
O741 C751 1.264 . S
O742 Mg738 2.072 . S
O742 C752 1.260 . S
Mg743 O744 2.180 . S
Mg743 O745 2.030 . S
Mg743 O746 1.990 . S
Mg743 O747 2.117 . S
O744 Mg738 2.099 . S
O744 Mg743 2.180 . S
O744 C753 1.279 . S
O745 Mg743 2.030 . S
O745 C751 1.248 . S
O746 Mg743 1.990 . S
O746 C752 1.253 . S
O747 Mg743 2.117 . S
O747 C753 1.250 . S
C748 O754 1.248 . S
C748 O755 1.264 . S
C749 O735 1.253 . S
C749 O737 1.260 . S
C750 O739 1.279 . S
C750 O740 1.250 . S
C751 O741 1.264 . S
C751 O745 1.248 . S
C752 O742 1.260 . S
C752 O746 1.253 . S
C753 O744 1.279 . S
C753 O747 1.250 . S
O754 Mg736 2.030 . S
O754 C748 1.248 . S
O755 Mg738 2.079 . S
O755 C748 1.264 . S
C14 C165 1.267 . S
C186 C35 1.267 . S
C144 C56 1.267 . S
C249 C77 1.267 . S
C98 C207 1.267 . S
C119 C228 1.267 . S
C36 C143 1.267 . S
C164 C57 1.267 . S
C15 C185 1.267 . S
C120 C206 1.267 . S
C227 C78 1.267 . S
C248 C99 1.267 . S
C266 C417 1.267 . S
C438 C287 1.267 . S
C396 C308 1.267 . S
C329 C501 1.267 . S
C459 C350 1.267 . S
C371 C480 1.267 . S
C395 C288 1.267 . S
C309 C416 1.267 . S
C437 C267 1.267 . S
C372 C458 1.267 . S
C330 C479 1.267 . S
C500 C351 1.267 . S
C518 C669 1.267 . S
C539 C690 1.267 . S
C648 C560 1.267 . S
C753 C581 1.267 . S
C602 C711 1.267 . S
C732 C623 1.267 . S
C540 C647 1.267 . S
C668 C561 1.267 . S
C519 C689 1.267 . S
C710 C624 1.267 . S
C731 C582 1.267 . S
C752 C603 1.267 . S
C18 C393 0.981 . S
C39 C414 0.981 . S
C435 C60 0.981 . S
C708 C81 0.981 . S
C729 C102 0.981 . S
C750 C123 0.981 . S
C141 C522 0.981 . S
C543 C162 0.981 . S
C183 C564 0.981 . S
C204 C333 0.981 . S
C225 C354 0.981 . S
C246 C375 0.981 . S
C270 C645 0.981 1_655 S
C666 C291 0.981 . S
C312 C687 0.981 1_545 S
C585 C456 0.981 1_566 S
C477 C606 0.981 1_654 S
C627 C498 0.981 1_556 S
C13 C349 2.223 . S
C34 C370 2.223 . S
C328 C55 2.223 . S
C76 C559 2.223 . S
C517 C97 2.223 . S
C118 C538 2.223 . S
C730 C142 2.223 . S
C163 C751 2.223 . S
C709 C184 2.223 . S
C205 C436 2.223 . S
C226 C394 2.223 . S
C247 C415 2.223 . S
C601 C265 2.223 1_455 S
C286 C622 2.223 . S
C307 C580 2.223 1_545 S
C688 C457 2.223 1_565 S
C646 C478 2.223 1_455 S
C667 C499 2.223 . S
C80 C17 1.328 . S
C38 C101 1.328 1_545 S
C59 C122 1.328 1_655 S
C203 C140 1.328 . S
C161 C224 1.328 1_565 S
C245 C182 1.328 1_655 S
C332 C269 1.328 . S
C290 C353 1.328 . S
C311 C374 1.328 . S
C392 C455 1.328 . S
C413 C476 1.328 . S
C434 C497 1.328 . S
C521 C584 1.328 . S
C605 C542 1.328 . S
C626 C563 1.328 . S
C644 C707 1.328 . S
C728 C665 1.328 . S
C686 C749 1.328 . S
C16 C625 2.204 . S
C583 C37 2.204 . S
C58 C604 2.204 . S
C289 C79 2.204 . S
C100 C310 2.204 . S
C121 C268 2.204 . S
C496 C139 2.204 . S
C160 C454 2.204 . S
C475 C181 2.204 . S
C202 C664 2.204 . S
C685 C223 2.204 . S
C643 C244 2.204 . S
C331 C541 2.204 1_655 S
C352 C562 2.204 . S
C373 C520 2.204 1_545 S
C391 C748 2.204 1_545 S
C412 C706 2.204 1_655 S
C727 C433 2.204 . S
