# Generated by pormake.
# Topology ukf, (4)-cn, num edge types: 1
# Building blocks:
#     Node 0, Type 0, BuildingBlock: KUFVIS_clean_sbu_0, # of connection points: 4
#     Node 1, Type 0, BuildingBlock: KUFVIS_clean_sbu_0, # of connection points: 4
#     Node 2, Type 0, BuildingBlock: KUFVIS_clean_sbu_0, # of connection points: 4
#     Node 3, Type 0, BuildingBlock: KUFVIS_clean_sbu_0, # of connection points: 4
#     Node 4, Type 0, BuildingBlock: KUFVIS_clean_sbu_0, # of connection points: 4
#     Node 5, Type 0, BuildingBlock: KUFVIS_clean_sbu_0, # of connection points: 4
#     Node 6, Type 0, BuildingBlock: KUFVIS_clean_sbu_0, # of connection points: 4
#     Node 7, Type 0, BuildingBlock: KUFVIS_clean_sbu_0, # of connection points: 4
#     Node 8, Type 0, BuildingBlock: KUFVIS_clean_sbu_0, # of connection points: 4
#     Node 9, Type 0, BuildingBlock: KUFVIS_clean_sbu_0, # of connection points: 4
#     Node 10, Type 0, BuildingBlock: KUFVIS_clean_sbu_0, # of connection points: 4
#     Node 11, Type 0, BuildingBlock: KUFVIS_clean_sbu_0, # of connection points: 4
#     Edge 12, Type (0, 0), BuildingBlock: ZUJKAS_clean_linker_0, # of connection points: 2
#     Edge 13, Type (0, 0), BuildingBlock: ZUJKAS_clean_linker_0, # of connection points: 2
#     Edge 14, Type (0, 0), BuildingBlock: ZUJKAS_clean_linker_0, # of connection points: 2
#     Edge 15, Type (0, 0), BuildingBlock: ZUJKAS_clean_linker_0, # of connection points: 2
#     Edge 16, Type (0, 0), BuildingBlock: ZUJKAS_clean_linker_0, # of connection points: 2
#     Edge 17, Type (0, 0), BuildingBlock: ZUJKAS_clean_linker_0, # of connection points: 2
#     Edge 18, Type (0, 0), BuildingBlock: ZUJKAS_clean_linker_0, # of connection points: 2
#     Edge 19, Type (0, 0), BuildingBlock: ZUJKAS_clean_linker_0, # of connection points: 2
#     Edge 20, Type (0, 0), BuildingBlock: ZUJKAS_clean_linker_0, # of connection points: 2
#     Edge 21, Type (0, 0), BuildingBlock: ZUJKAS_clean_linker_0, # of connection points: 2
#     Edge 22, Type (0, 0), BuildingBlock: ZUJKAS_clean_linker_0, # of connection points: 2
#     Edge 23, Type (0, 0), BuildingBlock: ZUJKAS_clean_linker_0, # of connection points: 2
#     Edge 24, Type (0, 0), BuildingBlock: ZUJKAS_clean_linker_0, # of connection points: 2
#     Edge 25, Type (0, 0), BuildingBlock: ZUJKAS_clean_linker_0, # of connection points: 2
#     Edge 26, Type (0, 0), BuildingBlock: ZUJKAS_clean_linker_0, # of connection points: 2
#     Edge 27, Type (0, 0), BuildingBlock: ZUJKAS_clean_linker_0, # of connection points: 2
#     Edge 28, Type (0, 0), BuildingBlock: ZUJKAS_clean_linker_0, # of connection points: 2
#     Edge 29, Type (0, 0), BuildingBlock: ZUJKAS_clean_linker_0, # of connection points: 2
#     Edge 30, Type (0, 0), BuildingBlock: ZUJKAS_clean_linker_0, # of connection points: 2
#     Edge 31, Type (0, 0), BuildingBlock: ZUJKAS_clean_linker_0, # of connection points: 2
#     Edge 32, Type (0, 0), BuildingBlock: ZUJKAS_clean_linker_0, # of connection points: 2
#     Edge 33, Type (0, 0), BuildingBlock: ZUJKAS_clean_linker_0, # of connection points: 2
#     Edge 34, Type (0, 0), BuildingBlock: ZUJKAS_clean_linker_0, # of connection points: 2
#     Edge 35, Type (0, 0), BuildingBlock: ZUJKAS_clean_linker_0, # of connection points: 2
# Relax obj value: 0.099
# Max RMSD: 0.094
# Mean RMSD: 0.094
data_MOF--net-ukf--node1-KUFVIS_clean_sbu_0--edge1-ZUJKAS_clean_linker_0
_symmetry_space_group_name_H-M    P1
_symmetry_Int_Tables_number       1
_symmetry_cell_setting            triclinic
loop_
_symmetry_equiv_pos_as_xyz
'x, y, z'
_cell_length_a     42.121674
_cell_length_b     42.130665
_cell_length_c     81.828951
_cell_angle_alpha  90.00768
_cell_angle_beta   90.02395
_cell_angle_gamma 120.00892
loop_
_atom_site_label
_atom_site_type_symbol
_atom_site_fract_x
_atom_site_fract_y
_atom_site_fract_z
_atom_type_partial_charge
Mn0 Mn 0.41359 0.23188 0.05084 0.0
Mn1 Mn 0.49038 0.27697 0.07378 0.0
C2 C 0.46968 0.24514 0.04019 0.0
C3 C 0.36376 0.17558 0.04252 0.0
C4 C 0.45379 0.3149 0.05721 0.0
O5 O 0.39326 0.22661 0.07395 0.0
O6 O 0.44646 0.2547 0.08808 0.0
C7 C 0.48714 0.21326 0.09064 0.0
N8 N 0.5056 0.24359 0.0811 0.0
C9 C 0.55788 0.23504 0.07941 0.0
C10 C 0.53952 0.20384 0.08932 0.0
C11 C 0.50397 0.19287 0.09492 0.0
C12 C 0.53979 0.25435 0.07561 0.0
H13 H 0.45977 0.20471 0.09493 0.0
C14 C 0.41139 0.23716 0.08727 0.0
O15 O 0.36312 0.20596 0.04081 0.0
O16 O 0.39248 0.17798 0.04944 0.0
N17 N 0.53512 0.29987 0.06157 0.0
C18 C 0.54822 0.32939 0.0514 0.0
C19 C 0.58312 0.34329 0.04439 0.0
C20 C 0.60429 0.32694 0.04802 0.0
C21 C 0.59038 0.29682 0.05864 0.0
C22 C 0.55555 0.28435 0.06537 0.0
H23 H 0.53212 0.34214 0.0486 0.0
O24 O 0.44249 0.2381 0.03057 0.0
O25 O 0.46321 0.24387 0.05577 0.0
O26 O 0.42789 0.28676 0.05003 0.0
O27 O 0.47739 0.31338 0.06648 0.0
C28 C 0.60939 0.27822 0.06256 0.0
C29 C 0.59312 0.24731 0.07291 0.0
H30 H 0.55233 0.18793 0.09258 0.0
H31 H 0.48955 0.16872 0.1025 0.0
H32 H 0.59365 0.36652 0.03619 0.0
H33 H 0.63111 0.33762 0.04252 0.0
H34 H 0.63629 0.28712 0.05747 0.0
H35 H 0.60778 0.23291 0.07563 0.0
Mn36 Mn 0.18955 0.41669 0.38258 0.0
Mn37 Mn 0.22421 0.49725 0.40269 0.0
C38 C 0.22927 0.47086 0.36943 0.0
C39 C 0.19636 0.36637 0.37543 0.0
C40 C 0.14628 0.45592 0.38946 0.0
O41 O 0.17907 0.4009 0.40653 0.0
O42 O 0.20793 0.45645 0.41858 0.0
C43 C 0.29005 0.50021 0.41717 0.0
N44 N 0.27474 0.51562 0.40771 0.0
C45 C 0.33373 0.56859 0.40246 0.0
C46 C 0.35011 0.55338 0.41222 0.0
C47 C 0.32817 0.51902 0.41958 0.0
C48 C 0.29559 0.54865 0.40056 0.0
H49 H 0.27327 0.47376 0.42281 0.0
C50 C 0.19027 0.42134 0.41922 0.0
O51 O 0.16453 0.36434 0.37461 0.0
O52 O 0.22322 0.39674 0.38091 0.0
N53 N 0.24125 0.53911 0.38873 0.0
C54 C 0.22142 0.54899 0.37896 0.0
C55 C 0.23939 0.58227 0.37037 0.0
C56 C 0.27746 0.60515 0.37201 0.0
C57 C 0.29725 0.59452 0.38221 0.0
C58 C 0.27782 0.5612 0.39058 0.0
H59 H 0.19214 0.53158 0.37768 0.0
O60 O 0.20791 0.44176 0.36104 0.0
O61 O 0.22699 0.46726 0.38521 0.0
O62 O 0.14809 0.42966 0.38243 0.0
O63 O 0.17265 0.48109 0.39769 0.0
C64 C 0.33558 0.61537 0.38418 0.0
C65 C 0.35381 0.60238 0.39427 0.0
H66 H 0.37952 0.5677 0.41405 0.0
H67 H 0.34064 0.50703 0.42707 0.0
H68 H 0.22393 0.59026 0.3625 0.0
H69 H 0.29122 0.63073 0.36531 0.0
H70 H 0.35136 0.64115 0.37779 0.0
H71 H 0.38335 0.61839 0.3955 0.0
Mn72 Mn 0.77972 0.18982 0.71693 0.0
Mn73 Mn 0.72971 0.21929 0.73745 0.0
C74 C 0.76288 0.2283 0.70433 0.0
C75 C 0.83801 0.19985 0.70963 0.0
C76 C 0.69723 0.14258 0.72332 0.0
O77 O 0.78539 0.17876 0.74077 0.0
O78 O 0.75514 0.20367 0.75316 0.0
C79 C 0.79002 0.28565 0.75289 0.0
N80 N 0.75973 0.26977 0.74316 0.0
C81 C 0.76299 0.32775 0.73858 0.0
C82 C 0.79409 0.34471 0.74863 0.0
C83 C 0.80769 0.32357 0.75579 0.0
C84 C 0.7464 0.28984 0.73621 0.0
H85 H 0.8006 0.2695 0.75838 0.0
C86 C 0.77434 0.1878 0.75357 0.0
O87 O 0.80913 0.16739 0.70859 0.0
O88 O 0.83301 0.22553 0.71548 0.0
N89 N 0.70386 0.23542 0.72364 0.0
C90 C 0.67497 0.21523 0.7135 0.0
C91 C 0.65877 0.23247 0.70499 0.0
C92 C 0.67227 0.27017 0.70708 0.0
C93 C 0.70187 0.29033 0.71767 0.0
C94 C 0.71669 0.27161 0.72593 0.0
H95 H 0.66445 0.18624 0.71184 0.0
O96 O 0.77214 0.20849 0.69565 0.0
O97 O 0.76397 0.22515 0.72007 0.0
O98 O 0.7262 0.1465 0.71633 0.0
O99 O 0.69639 0.16758 0.73181 0.0
C100 C 0.71769 0.32839 0.7201 0.0
C101 C 0.74826 0.34709 0.73054 0.0
H102 H 0.80795 0.37398 0.75082 0.0
H103 H 0.83179 0.3365 0.7635 0.0
H104 H 0.63598 0.21673 0.69682 0.0
H105 H 0.65985 0.2834 0.70042 0.0
H106 H 0.70694 0.34363 0.71381 0.0
H107 H 0.76053 0.37644 0.73212 0.0
Mn108 Mn 0.58671 0.77234 0.04984 0.0
Mn109 Mn 0.509 0.72536 0.07193 0.0
C110 C 0.53054 0.75592 0.03808 0.0
C111 C 0.63553 0.82949 0.0416 0.0
C112 C 0.54956 0.68987 0.05685 0.0
O113 O 0.60582 0.77916 0.07331 0.0
O114 O 0.55193 0.75034 0.08669 0.0
C115 C 0.50751 0.78797 0.08756 0.0
N116 N 0.49083 0.75693 0.07834 0.0
C117 C 0.4358 0.76063 0.07619 0.0
C118 C 0.4523 0.79254 0.08574 0.0
C119 C 0.48835 0.80633 0.09141 0.0
C120 C 0.45622 0.7435 0.07278 0.0
H121 H 0.5352 0.7986 0.09194 0.0
C122 C 0.58702 0.76897 0.08647 0.0
O123 O 0.63788 0.79991 0.04061 0.0
O124 O 0.60567 0.82584 0.04784 0.0
N125 N 0.46499 0.6998 0.05934 0.0
C126 C 0.45393 0.67006 0.04945 0.0
C127 C 0.41864 0.65315 0.0426 0.0
C128 C 0.39505 0.66683 0.04609 0.0
C129 C 0.40715 0.69764 0.05617 0.0
C130 C 0.44241 0.71303 0.06283 0.0
H131 H 0.4718 0.65919 0.04689 0.0
O132 O 0.55886 0.76404 0.02904 0.0
O133 O 0.53599 0.75816 0.05379 0.0
O134 O 0.57497 0.71827 0.04965 0.0
O135 O 0.52488 0.69046 0.06567 0.0
C136 C 0.38578 0.71393 0.05974 0.0
C137 C 0.40015 0.7455 0.06968 0.0
H138 H 0.43767 0.80685 0.08869 0.0
H139 H 0.50132 0.83103 0.09873 0.0
H140 H 0.40955 0.62951 0.03474 0.0
H141 H 0.36775 0.65357 0.04087 0.0
H142 H 0.35845 0.70271 0.0547 0.0
H143 H 0.38368 0.75812 0.07212 0.0
Mn144 Mn 0.82049 0.58818 0.38266 0.0
Mn145 Mn 0.78578 0.50848 0.40349 0.0
C146 C 0.77925 0.53366 0.37015 0.0
C147 C 0.81466 0.63891 0.37534 0.0
C148 C 0.86287 0.54791 0.38931 0.0
O149 O 0.83274 0.60513 0.40642 0.0
O150 O 0.8038 0.55017 0.41898 0.0
C151 C 0.72156 0.50769 0.4186 0.0
N152 N 0.73576 0.49126 0.40912 0.0
C153 C 0.67603 0.43852 0.4049 0.0
C154 C 0.66078 0.45479 0.41471 0.0
C155 C 0.68364 0.48956 0.42155 0.0
C156 C 0.71402 0.45784 0.40245 0.0
H157 H 0.73905 0.53444 0.42385 0.0
C158 C 0.82207 0.58529 0.41929 0.0
O159 O 0.84596 0.63996 0.37406 0.0
O160 O 0.78767 0.60927 0.38131 0.0
N161 N 0.76713 0.46577 0.38997 0.0
C162 C 0.7859 0.45481 0.38008 0.0
C163 C 0.76691 0.42096 0.37198 0.0
C164 C 0.72893 0.39862 0.37422 0.0
C165 C 0.71025 0.41037 0.38452 0.0
C166 C 0.73068 0.44422 0.39239 0.0
H167 H 0.81511 0.47178 0.37836 0.0
O168 O 0.80043 0.56222 0.36144 0.0
O169 O 0.78247 0.53798 0.38589 0.0
O170 O 0.86117 0.57411 0.38216 0.0
O171 O 0.83676 0.52345 0.39789 0.0
C172 C 0.67207 0.39013 0.38706 0.0
C173 C 0.65496 0.40423 0.39722 0.0
H174 H 0.63153 0.44098 0.41695 0.0
H175 H 0.67205 0.50236 0.42906 0.0
H176 H 0.78152 0.4121 0.36403 0.0
H177 H 0.71438 0.37257 0.36791 0.0
H178 H 0.65553 0.36395 0.38106 0.0
H179 H 0.62552 0.38867 0.39888 0.0
Mn180 Mn 0.23883 0.82091 0.71724 0.0
Mn181 Mn 0.28427 0.79622 0.74374 0.0
C182 C 0.25922 0.7817 0.70898 0.0
C183 C 0.18243 0.80975 0.70638 0.0
C184 C 0.32082 0.86874 0.72574 0.0
O185 O 0.22768 0.83601 0.73926 0.0
O186 O 0.2588 0.81799 0.75556 0.0
C187 C 0.21906 0.73679 0.76024 0.0
N188 N 0.25078 0.7483 0.75175 0.0
C189 C 0.24518 0.68876 0.75368 0.0
C190 C 0.21251 0.67627 0.76248 0.0
C191 C 0.19931 0.70036 0.76571 0.0
C192 C 0.2634 0.72522 0.74835 0.0
H193 H 0.20896 0.75529 0.76287 0.0
C194 C 0.23862 0.83229 0.75328 0.0
O195 O 0.21173 0.84185 0.70518 0.0
O196 O 0.18597 0.78488 0.71409 0.0
N197 N 0.31036 0.77438 0.73435 0.0
C198 C 0.34232 0.79078 0.72573 0.0
C199 C 0.35911 0.77036 0.72144 0.0
C200 C 0.34338 0.73364 0.7264 0.0
C201 C 0.31089 0.71758 0.73555 0.0
C202 C 0.29519 0.73914 0.7393 0.0
H203 H 0.35487 0.8192 0.72215 0.0
O204 O 0.25121 0.79937 0.69832 0.0
O205 O 0.25391 0.78647 0.72422 0.0
O206 O 0.29258 0.86426 0.71779 0.0
O207 O 0.32032 0.84517 0.73572 0.0
C208 C 0.2936 0.68111 0.74122 0.0
C209 C 0.26054 0.66657 0.75009 0.0
H210 H 0.19736 0.64826 0.76683 0.0
H211 H 0.1741 0.69093 0.77249 0.0
H212 H 0.38428 0.783 0.71445 0.0
H213 H 0.35658 0.71808 0.72316 0.0
H214 H 0.30541 0.66391 0.73877 0.0
H215 H 0.24729 0.63836 0.75419 0.0
Mn216 Mn 0.77736 0.59163 0.61877 0.0
Mn217 Mn 0.72633 0.51499 0.59646 0.0
C218 C 0.75838 0.5345 0.63012 0.0
C219 C 0.83587 0.63839 0.62684 0.0
C220 C 0.69538 0.55926 0.61194 0.0
O221 O 0.78453 0.6112 0.59535 0.0
O222 O 0.75332 0.55761 0.58179 0.0
C223 C 0.78593 0.50862 0.58048 0.0
N224 N 0.75513 0.49377 0.58987 0.0
C225 C 0.75467 0.43657 0.59196 0.0
C226 C 0.7863 0.45118 0.58224 0.0
C227 C 0.80205 0.4874 0.57652 0.0
C228 C 0.73981 0.459 0.59547 0.0
H229 H 0.79806 0.53643 0.57605 0.0
C230 C 0.7734 0.59258 0.58214 0.0
O231 O 0.80732 0.64245 0.62811 0.0
O232 O 0.83044 0.60796 0.62046 0.0
N233 N 0.69876 0.47142 0.6091 0.0
C234 C 0.66962 0.4623 0.61914 0.0
C235 C 0.6509 0.4271 0.62603 0.0
C236 C 0.66221 0.40164 0.62248 0.0
C237 C 0.69253 0.4118 0.61229 0.0
C238 C 0.70977 0.44708 0.60557 0.0
H239 H 0.66056 0.48163 0.62176 0.0
O240 O 0.76817 0.56287 0.63939 0.0
O241 O 0.76032 0.54047 0.61447 0.0
O242 O 0.72439 0.58295 0.61939 0.0
O243 O 0.69407 0.53407 0.60282 0.0
C244 C 0.70654 0.38845 0.60864 0.0
C245 C 0.73768 0.40089 0.59854 0.0
H246 H 0.79889 0.43495 0.57921 0.0
H247 H 0.82654 0.49891 0.56907 0.0
H248 H 0.62766 0.41951 0.63398 0.0
H249 H 0.64749 0.3744 0.6277 0.0
H250 H 0.69387 0.36107 0.61372 0.0
H251 H 0.74853 0.38288 0.59602 0.0
Mn252 Mn 0.18154 0.77389 0.95322 0.0
Mn253 Mn 0.21137 0.72638 0.93088 0.0
C254 C 0.22301 0.75922 0.9643 0.0
C255 C 0.18952 0.83107 0.96098 0.0
C256 C 0.13642 0.69112 0.94692 0.0
O257 O 0.16719 0.77899 0.92991 0.0
O258 O 0.19186 0.75 0.91616 0.0
C259 C 0.27409 0.78845 0.91428 0.0
N260 N 0.2607 0.75818 0.92397 0.0
C261 C 0.32045 0.76435 0.92655 0.0
C262 C 0.33485 0.79546 0.91651 0.0
C263 C 0.31158 0.8076 0.91038 0.0
C264 C 0.28284 0.74628 0.92994 0.0
H265 H 0.25628 0.79791 0.9096 0.0
C266 C 0.17494 0.76816 0.9167 0.0
O267 O 0.15805 0.80124 0.96276 0.0
O268 O 0.2155 0.82765 0.95434 0.0
N269 N 0.23106 0.70214 0.94362 0.0
C270 C 0.21323 0.67297 0.95388 0.0
C271 C 0.23281 0.65809 0.96143 0.0
C272 C 0.27041 0.67315 0.95826 0.0
C273 C 0.28809 0.70296 0.94755 0.0
C274 C 0.26709 0.71644 0.94027 0.0
H275 H 0.18433 0.66125 0.95636 0.0
O276 O 0.20344 0.76744 0.97371 0.0
O277 O 0.21802 0.76019 0.94867 0.0
O278 O 0.13987 0.71957 0.95425 0.0
O279 O 0.16099 0.69142 0.9377 0.0
C280 C 0.32587 0.72031 0.94407 0.0
C281 C 0.34205 0.75101 0.93359 0.0
H282 H 0.36379 0.81044 0.91354 0.0
H283 H 0.32253 0.8317 0.90269 0.0
H284 H 0.21898 0.63511 0.9697 0.0
H285 H 0.28546 0.66174 0.96419 0.0
H286 H 0.34285 0.71061 0.94958 0.0
H287 H 0.37122 0.76444 0.9312 0.0
Mn288 Mn 0.41336 0.18022 0.28805 0.0
Mn289 Mn 0.48837 0.20688 0.26438 0.0
C290 C 0.47106 0.22028 0.29831 0.0
C291 C 0.3661 0.19029 0.29701 0.0
C292 C 0.44826 0.13276 0.28106 0.0
O293 O 0.39161 0.16638 0.26506 0.0
O294 O 0.44392 0.1877 0.25057 0.0
C295 C 0.48911 0.26941 0.24752 0.0
N296 N 0.50639 0.25586 0.25685 0.0
C297 C 0.562 0.31437 0.25729 0.0
C298 C 0.54485 0.32895 0.24762 0.0
C299 C 0.50822 0.30638 0.24276 0.0
C300 C 0.54159 0.27732 0.26163 0.0
H301 H 0.46097 0.25212 0.24374 0.0
C302 C 0.40902 0.17254 0.25159 0.0
O303 O 0.36331 0.15822 0.29831 0.0
O304 O 0.39553 0.21568 0.29011 0.0
N305 N 0.53365 0.22625 0.27605 0.0
C306 C 0.54543 0.20845 0.2861 0.0
C307 C 0.5814 0.22725 0.2922 0.0
C308 C 0.6049 0.26399 0.28781 0.0
C309 C 0.59207 0.28181 0.27756 0.0
C310 C 0.55612 0.26154 0.27169 0.0
H311 H 0.52759 0.18009 0.28936 0.0
O312 O 0.44377 0.20135 0.30809 0.0
O313 O 0.46376 0.21547 0.28276 0.0
O314 O 0.42393 0.1371 0.2885 0.0
O315 O 0.47252 0.1568 0.27166 0.0
C316 C 0.61339 0.31896 0.27309 0.0
C317 C 0.59831 0.33527 0.26301 0.0
H318 H 0.55946 0.35748 0.24397 0.0
H319 H 0.49477 0.31746 0.23534 0.0
H320 H 0.59107 0.21339 0.30018 0.0
H321 H 0.63272 0.27833 0.29244 0.0
H322 H 0.64125 0.33537 0.2775 0.0
H323 H 0.6148 0.364 0.25984 0.0
Mn324 Mn 0.23783 0.4241 0.61761 0.0
Mn325 Mn 0.28321 0.49646 0.59226 0.0
C326 C 0.25758 0.48299 0.62691 0.0
C327 C 0.18167 0.37769 0.62808 0.0
C328 C 0.32003 0.45968 0.60939 0.0
O329 O 0.22737 0.39954 0.59515 0.0
O330 O 0.2583 0.45015 0.57976 0.0
C331 C 0.21781 0.49113 0.57611 0.0
N332 N 0.24953 0.51103 0.58465 0.0
C333 C 0.24407 0.5651 0.58319 0.0
C334 C 0.21141 0.54525 0.57433 0.0
C335 C 0.1981 0.50803 0.57086 0.0
C336 C 0.26215 0.5466 0.58836 0.0
H337 H 0.2077 0.46262 0.57328 0.0
C338 C 0.23844 0.41543 0.58136 0.0
O339 O 0.21117 0.37517 0.62894 0.0
O340 O 0.18481 0.40641 0.62082 0.0
N341 N 0.30886 0.54374 0.60229 0.0
C342 C 0.34075 0.55893 0.61096 0.0
C343 C 0.35765 0.59601 0.61548 0.0
C344 C 0.34217 0.61732 0.61063 0.0
C345 C 0.30972 0.60125 0.60143 0.0
C346 C 0.29384 0.56406 0.5975 0.0
H347 H 0.3532 0.54287 0.61439 0.0
O348 O 0.24964 0.45651 0.63711 0.0
O349 O 0.25255 0.47412 0.61152 0.0
O350 O 0.29168 0.43504 0.61695 0.0
O351 O 0.3195 0.48347 0.59988 0.0
C352 C 0.29267 0.62075 0.59586 0.0
C353 C 0.2596 0.60258 0.58696 0.0
H354 H 0.19634 0.55831 0.57011 0.0
H355 H 0.17289 0.49251 0.56405 0.0
H356 H 0.38278 0.60826 0.62251 0.0
H357 H 0.35552 0.64601 0.61399 0.0
H358 H 0.30463 0.64972 0.59845 0.0
H359 H 0.2465 0.61776 0.58297 0.0
Mn360 Mn 0.81917 0.2319 0.95449 0.0
Mn361 Mn 0.79022 0.28204 0.93382 0.0
C362 C 0.78211 0.25047 0.96737 0.0
C363 C 0.8088 0.17362 0.962 0.0
C364 C 0.86782 0.31317 0.9468 0.0
O365 O 0.82871 0.22497 0.9305 0.0
O366 O 0.80126 0.2529 0.91825 0.0
C367 C 0.72019 0.22297 0.92033 0.0
N368 N 0.73889 0.2542 0.92931 0.0
C369 C 0.68388 0.25675 0.93423 0.0
C370 C 0.66404 0.22472 0.92495 0.0
C371 C 0.68227 0.20771 0.91801 0.0
C372 C 0.72162 0.27073 0.93608 0.0
H373 H 0.73411 0.20982 0.915 0.0
C374 C 0.81696 0.23356 0.91778 0.0
O375 O 0.84145 0.2023 0.96265 0.0
O376 O 0.78294 0.17876 0.95646 0.0
N377 N 0.77824 0.31125 0.94758 0.0
C378 C 0.80093 0.34059 0.95704 0.0
C379 C 0.78694 0.36048 0.96501 0.0
C380 C 0.74985 0.35009 0.96315 0.0
C381 C 0.72689 0.31947 0.95356 0.0
C382 C 0.74251 0.30105 0.9457 0.0
H383 H 0.82955 0.34898 0.95839 0.0
O384 O 0.80188 0.24086 0.97589 0.0
O385 O 0.78447 0.24864 0.95161 0.0
O386 O 0.8631 0.28483 0.95461 0.0
O387 O 0.84305 0.31375 0.93803 0.0
C388 C 0.68909 0.30633 0.9516 0.0
C389 C 0.66757 0.2749 0.94199 0.0
H390 H 0.63477 0.21275 0.9232 0.0
H391 H 0.66711 0.18288 0.91091 0.0
H392 H 0.80475 0.38393 0.97249 0.0
H393 H 0.73927 0.36573 0.96921 0.0
H394 H 0.67621 0.3199 0.95761 0.0
H395 H 0.63843 0.26472 0.94079 0.0
Mn396 Mn 0.59465 0.82007 0.28449 0.0
Mn397 Mn 0.51875 0.7935 0.26143 0.0
C398 C 0.5374 0.77931 0.295 0.0
C399 C 0.64258 0.81049 0.2928 0.0
C400 C 0.55885 0.86711 0.27864 0.0
O401 O 0.61566 0.83524 0.26142 0.0
O402 O 0.56277 0.8132 0.24734 0.0
C403 C 0.51792 0.73152 0.244 0.0
N404 N 0.50071 0.74476 0.25357 0.0
C405 C 0.44518 0.68618 0.25385 0.0
C406 C 0.46223 0.67194 0.24391 0.0
C407 C 0.49879 0.69469 0.23902 0.0
C408 C 0.46561 0.72309 0.2584 0.0
H409 H 0.546 0.74896 0.2402 0.0
C410 C 0.59778 0.82895 0.24805 0.0
O411 O 0.64484 0.84222 0.29459 0.0
O412 O 0.61334 0.78514 0.28574 0.0
N413 N 0.47376 0.77364 0.27335 0.0
C414 C 0.4621 0.79105 0.2837 0.0
C415 C 0.42623 0.77201 0.28988 0.0
C416 C 0.40267 0.73543 0.28526 0.0
C417 C 0.41536 0.71801 0.2747 0.0
C418 C 0.45121 0.7385 0.26876 0.0
H419 H 0.47997 0.8193 0.28714 0.0
O420 O 0.56505 0.79795 0.30463 0.0
O421 O 0.54409 0.78457 0.27941 0.0
O422 O 0.58343 0.86265 0.28576 0.0
O423 O 0.53456 0.84338 0.26913 0.0
C424 C 0.394 0.68101 0.26998 0.0
C425 C 0.40895 0.66505 0.25962 0.0
H426 H 0.44761 0.64352 0.24008 0.0
H427 H 0.51218 0.68386 0.23141 0.0
H428 H 0.41667 0.78556 0.29811 0.0
H429 H 0.37493 0.72089 0.28997 0.0
H430 H 0.36621 0.66443 0.27444 0.0
H431 H 0.39246 0.63643 0.25628 0.0
H432 H 0.15682 0.84566 0.98668 0.0
H433 H 0.17838 0.90515 1.00003 0.0
H434 H 0.26129 0.95744 0.96285 0.0
H435 H 0.24091 0.89807 0.94999 0.0
H436 H 0.29142 0.97563 0.99128 0.0
H437 H 0.17075 0.99488 0.99246 0.0
H438 H 0.16148 0.95237 0.00157 0.0
H439 H 0.17219 0.96009 0.98012 0.0
C440 C 0.17903 0.87003 0.98116 0.0
C441 C 0.19724 0.86722 0.96732 0.0
C442 C 0.19129 0.90412 0.98876 0.0
C443 C 0.2214 0.93609 0.98243 0.0
C444 C 0.23812 0.93334 0.96805 0.0
H445 H 0.31699 0.16314 0.01675 0.0
H446 H 0.27934 0.10458 0.00246 0.0
C447 C 0.22637 0.89934 0.96067 0.0
C448 C 0.23834 0.97154 0.99158 0.0
H449 H 0.22117 0.03468 0.00972 0.0
C450 C 0.27596 0.98855 0.99517 0.0
C451 C 0.21848 0.98884 0.9966 0.0
C452 C 0.17858 0.97331 0.99235 0.0
C453 C 0.29414 0.02189 0.00369 0.0
C454 C 0.27401 0.03835 0.00939 0.0
C455 C 0.23651 0.02182 0.00559 0.0
C456 C 0.29188 0.07269 0.01927 0.0
C457 C 0.33503 0.03945 0.00622 0.0
C458 C 0.30999 0.07398 0.03387 0.0
C459 C 0.33176 0.1073 0.04188 0.0
C460 C 0.33525 0.14002 0.03569 0.0
C461 C 0.31474 0.13836 0.02182 0.0
C462 C 0.2933 0.10492 0.01363 0.0
H463 H 0.34769 0.02954 0.99712 0.0
H464 H 0.34872 0.06977 0.00531 0.0
H465 H 0.34044 0.03224 0.01855 0.0
H466 H 0.30852 0.04937 0.03873 0.0
H467 H 0.3469 0.10761 0.05264 0.0
H468 H 0.2592 0.36377 0.37839 0.0
H469 H 0.27505 0.32177 0.36526 0.0
H470 H 0.16597 0.26074 0.34517 0.0
H471 H 0.15 0.30364 0.35811 0.0
H472 H 0.24866 0.24829 0.36697 0.0
H473 H 0.22952 0.28769 0.30439 0.0
H474 H 0.22963 0.31263 0.32232 0.0
H475 H 0.19007 0.26921 0.31751 0.0
C476 C 0.23833 0.34127 0.37131 0.0
C477 C 0.20338 0.33732 0.36918 0.0
C478 C 0.24747 0.31714 0.36382 0.0
C479 C 0.22199 0.28839 0.35397 0.0
C480 C 0.18639 0.28316 0.35243 0.0
H481 H 0.30322 0.14526 0.31442 0.0
H482 H 0.26165 0.16255 0.32765 0.0
C483 C 0.17717 0.3075 0.35995 0.0
C484 C 0.23399 0.26553 0.34487 0.0
H485 H 0.25339 0.24814 0.30644 0.0
C486 C 0.24919 0.24774 0.35373 0.0
C487 C 0.23502 0.26512 0.32757 0.0
C488 C 0.22048 0.28486 0.31732 0.0
C489 C 0.26673 0.23101 0.34584 0.0
C490 C 0.26849 0.23133 0.32855 0.0
C491 C 0.25187 0.24771 0.31967 0.0
C492 C 0.29121 0.21902 0.31953 0.0
C493 C 0.28517 0.21514 0.35613 0.0
C494 C 0.32076 0.24446 0.31003 0.0
C495 C 0.34417 0.23458 0.30236 0.0
C496 C 0.33868 0.19893 0.30396 0.0
C497 C 0.30831 0.17297 0.313 0.0
C498 C 0.28469 0.18291 0.32067 0.0
H499 H 0.28746 0.22352 0.36914 0.0
H500 H 0.26888 0.18479 0.35559 0.0
H501 H 0.31308 0.22387 0.35143 0.0
H502 H 0.32639 0.27244 0.30891 0.0
H503 H 0.36717 0.2553 0.29547 0.0
H504 H 0.90181 0.26467 0.7123 0.0
H505 H 0.95998 0.28323 0.6988 0.0
H506 H 0.91613 0.17457 0.67876 0.0
H507 H 0.85699 0.15583 0.69207 0.0
H508 H 0.00992 0.2601 0.70007 0.0
H509 H 0.94889 0.23815 0.6379 0.0
H510 H 0.92403 0.23706 0.65603 0.0
H511 H 0.92971 0.19867 0.65102 0.0
C512 C 0.90447 0.24448 0.70515 0.0
C513 C 0.87453 0.20879 0.70315 0.0
C514 C 0.93791 0.25518 0.69745 0.0
C515 C 0.94239 0.23057 0.6875 0.0
C516 C 0.91315 0.19431 0.68609 0.0
H517 H 0.16584 0.31612 0.6461 0.0
H518 H 0.108 0.27459 0.66008 0.0
C519 C 0.87945 0.18352 0.69382 0.0
C520 C 0.97723 0.24403 0.67818 0.0
H521 H 0.01265 0.2637 0.63951 0.0
C522 C 0.01055 0.26043 0.68682 0.0
C523 C 0.97806 0.24481 0.66087 0.0
C524 C 0.94336 0.22903 0.65085 0.0
C525 C 0.04453 0.27872 0.6787 0.0
C526 C 0.04533 0.28008 0.6614 0.0
C527 C 0.01205 0.26246 0.65275 0.0
C528 C 0.07991 0.30311 0.65212 0.0
C529 C 0.07915 0.29821 0.68874 0.0
C530 C 0.08305 0.33214 0.64252 0.0
C531 C 0.11578 0.35555 0.63444 0.0
C532 C 0.14632 0.35057 0.63571 0.0
C533 C 0.14291 0.32081 0.64492 0.0
C534 C 0.10993 0.29721 0.65302 0.0
H535 H 0.07335 0.30062 0.70179 0.0
H536 H 0.09392 0.2826 0.68817 0.0
H537 H 0.0976 0.32613 0.68386 0.0
H538 H 0.06036 0.33729 0.64159 0.0
H539 H 0.11729 0.37808 0.62743 0.0
H540 H 0.69598 0.84529 0.02276 0.0
H541 H 0.738 0.90398 0.00946 0.0
H542 H 0.67961 0.95282 0.03148 0.0
H543 H 0.63828 0.89503 0.04485 0.0
H544 H 0.72004 0.94065 0.98714 0.0
H545 H 0.78446 0.03047 0.04049 0.0
H546 H 0.75959 0.98111 0.04211 0.0
H547 H 0.73546 0.00636 0.04216 0.0
C548 C 0.69263 0.86878 0.02501 0.0
C549 C 0.66382 0.86545 0.03491 0.0
C550 C 0.71657 0.90227 0.01736 0.0
C551 C 0.71239 0.93309 0.01965 0.0
C552 C 0.68409 0.92985 0.02981 0.0
H553 H 0.74381 0.1097 0.95987 0.0
H554 H 0.72653 0.05124 0.97281 0.0
C555 C 0.66023 0.89657 0.03738 0.0
C556 C 0.7353 0.96785 0.01049 0.0
H557 H 0.78422 0.06087 0.0154 0.0
C558 C 0.73467 0.96688 0.99333 0.0
C559 C 0.75499 1.00218 0.01848 0.0
C560 C 0.75902 0.0051 0.03683 0.0
C561 C 0.75108 0.9993 0.98402 0.0
C562 C 0.76806 0.03369 0.99206 0.0
C563 C 0.77081 0.03461 0.00919 0.0
C564 C 0.78012 0.06874 0.98311 0.0
C565 C 0.7495 0.99634 0.96563 0.0
C566 C 0.81602 0.09852 0.98469 0.0
C567 C 0.82605 0.13236 0.9773 0.0
C568 C 0.80019 0.13712 0.96836 0.0
C569 C 0.76452 0.10703 0.96658 0.0
C570 C 0.75461 0.07337 0.9739 0.0
H571 H 0.74776 0.97037 0.96153 0.0
H572 H 0.72458 0.9963 0.9612 0.0
H573 H 0.77387 0.01971 0.9599 0.0
H574 H 0.83613 0.09573 0.99185 0.0
H575 H 0.85365 0.15503 0.97901 0.0
H576 H 0.65441 0.75508 0.28389 0.0
H577 H 0.69219 0.73446 0.2978 0.0
H578 H 0.72901 0.82415 0.33189 0.0
H579 H 0.69207 0.84577 0.31756 0.0
H580 H 0.78411 0.80933 0.32443 0.0
H581 H 0.65739 0.68091 0.34067 0.0
H582 H 0.66263 0.68803 0.31901 0.0
H583 H 0.65645 0.71949 0.33168 0.0
C584 C 0.671 0.7708 0.29419 0.0
C585 C 0.66996 0.80184 0.29973 0.0
C586 C 0.69243 0.75883 0.30221 0.0
C587 C 0.71263 0.77707 0.31621 0.0
C588 C 0.71342 0.80941 0.3212 0.0
H589 H 0.76586 0.65755 0.38679 0.0
H590 H 0.74585 0.69656 0.37364 0.0
C591 C 0.69234 0.82178 0.31299 0.0
C592 C 0.73082 0.76095 0.32613 0.0
H593 H 0.71354 0.68245 0.34581 0.0
C594 C 0.7687 0.78167 0.32921 0.0
C595 C 0.71066 0.7251 0.33267 0.0
C596 C 0.66949 0.70223 0.331 0.0
C597 C 0.787 0.76717 0.3383 0.0
C598 C 0.76703 0.73067 0.34418 0.0
C599 C 0.72908 0.71033 0.34128 0.0
C600 C 0.78421 0.71261 0.35351 0.0
C601 C 0.82733 0.79139 0.34178 0.0
C602 C 0.8135 0.70953 0.347 0.0
C603 C 0.82564 0.68779 0.3548 0.0
C604 C 0.80807 0.66806 0.36901 0.0
C605 C 0.77991 0.67243 0.37585 0.0
C606 C 0.76835 0.69464 0.36829 0.0
H607 H 0.83562 0.82089 0.34114 0.0
H608 H 0.83465 0.78565 0.35403 0.0
H609 H 0.84335 0.78625 0.33246 0.0
H610 H 0.82572 0.72227 0.33545 0.0
H611 H 0.84702 0.68446 0.34912 0.0
H612 H 0.85567 0.70123 0.64459 0.0
H613 H 0.91556 0.74215 0.6572 0.0
H614 H 0.95823 0.67661 0.63684 0.0
H615 H 0.8992 0.63634 0.62411 0.0
H616 H 0.95104 0.72458 0.68005 0.0
H617 H 0.03943 0.77829 0.62555 0.0
H618 H 0.99005 0.75538 0.6243 0.0
H619 H 0.01319 0.7292 0.62518 0.0
C620 C 0.87805 0.696 0.64257 0.0
C621 C 0.87262 0.66557 0.63329 0.0
C622 C 0.91224 0.71934 0.64981 0.0
C623 C 0.94172 0.71289 0.64777 0.0
C624 C 0.93637 0.68284 0.63828 0.0
H625 H 0.11788 0.74548 0.70873 0.0
H626 H 0.06004 0.72792 0.6951 0.0
C627 C 0.90237 0.6596 0.63109 0.0
C628 C 0.97723 0.73547 0.65649 0.0
H629 H 0.0701 0.78005 0.65084 0.0
C630 C 0.97705 0.73728 0.67362 0.0
C631 C 0.01131 0.75269 0.64818 0.0
C632 C 0.01354 0.75415 0.62977 0.0
C633 C 0.00986 0.75374 0.68267 0.0
C634 C 0.04386 0.76823 0.6744 0.0
C635 C 0.04412 0.76852 0.65724 0.0
C636 C 0.079 0.78033 0.6833 0.0
C637 C 0.00771 0.75493 0.70104 0.0
C638 C 0.1095 0.81554 0.681 0.0
C639 C 0.14303 0.82572 0.68877 0.0
C640 C 0.14673 0.80069 0.69885 0.0
C641 C 0.11606 0.76559 0.70115 0.0
C642 C 0.08274 0.75553 0.69344 0.0
H643 H 0.98241 0.75483 0.70497 0.0
H644 H 0.00687 0.73023 0.70629 0.0
H645 H 0.03184 0.77961 0.70617 0.0
H646 H 0.10741 0.83507 0.67311 0.0
H647 H 0.16615 0.85287 0.68666 0.0
H648 H 0.71109 0.21526 0.95833 0.0
H649 H 0.66027 0.21766 0.97124 0.0
H650 H 0.73306 0.28604 0.00952 0.0
H651 H 0.78485 0.28702 0.99533 0.0
H652 H 0.62835 0.19319 0.99732 0.0
H653 H 0.685 0.34312 0.00156 0.0
H654 H 0.70906 0.3237 0.99131 0.0
H655 H 0.71177 0.32885 0.01317 0.0
C656 C 0.71645 0.23223 0.96907 0.0
C657 C 0.75208 0.25291 0.97527 0.0
C658 C 0.68727 0.23297 0.97668 0.0
C659 C 0.69275 0.25291 0.9912 0.0
C660 C 0.72821 0.27185 0.99797 0.0
H661 H 0.49949 0.20426 0.04968 0.0
H662 H 0.55435 0.20599 0.03869 0.0
C663 C 0.75773 0.27213 0.98997 0.0
C664 C 0.66078 0.25204 0.9994 0.0
H665 H 0.62919 0.30563 0.01575 0.0
C666 C 0.62858 0.21791 0.00122 0.0
C667 C 0.6608 0.28417 0.00459 0.0
C668 C 0.69342 0.32204 0.00242 0.0
C669 C 0.59635 0.21505 0.00756 0.0
C670 C 0.59671 0.24706 0.01306 0.0
C671 C 0.62899 0.28108 0.0116 0.0
C672 C 0.56373 0.24614 0.01996 0.0
C673 C 0.562 0.17786 0.00769 0.0
C674 C 0.55131 0.26887 0.01344 0.0
C675 C 0.52073 0.26874 0.0201 0.0
C676 C 0.50253 0.24633 0.03352 0.0
C677 C 0.51411 0.22277 0.03971 0.0
C678 C 0.54495 0.22322 0.03322 0.0
H679 H 0.56337 0.15923 0.99846 0.0
H680 H 0.55891 0.16506 0.01986 0.0
H681 H 0.53724 0.18002 0.00517 0.0
H682 H 0.56522 0.28663 0.00316 0.0
H683 H 0.51154 0.28644 0.01491 0.0
H684 H 0.22569 0.50936 0.34354 0.0
H685 H 0.27735 0.56115 0.32965 0.0
H686 H 0.35258 0.55368 0.36315 0.0
H687 H 0.30123 0.50102 0.3764 0.0
H688 H 0.32542 0.62676 0.3408 0.0
H689 H 0.40059 0.55723 0.32089 0.0
H690 H 0.35469 0.53237 0.32899 0.0
H691 H 0.39356 0.55389 0.34256 0.0
C692 C 0.25337 0.51887 0.3478 0.0
C693 C 0.25972 0.50234 0.3613 0.0
C694 C 0.28277 0.54834 0.33992 0.0
C695 C 0.31889 0.56111 0.34526 0.0
C696 C 0.32511 0.54391 0.35858 0.0
H697 H 0.50139 0.7795 0.32248 0.0
H698 H 0.44839 0.72708 0.33508 0.0
C699 C 0.29578 0.51432 0.36633 0.0
C700 C 0.34998 0.59311 0.33727 0.0
H701 H 0.43382 0.6226 0.32012 0.0
C702 C 0.34899 0.62581 0.33609 0.0
C703 C 0.38052 0.59172 0.33099 0.0
C704 C 0.38226 0.55679 0.33076 0.0
C705 C 0.37783 0.65735 0.32896 0.0
C706 C 0.4092 0.65649 0.32326 0.0
C707 C 0.40997 0.62357 0.32442 0.0
C708 C 0.44133 0.6888 0.31576 0.0
C709 C 0.37364 0.69077 0.32753 0.0
C710 C 0.45668 0.68454 0.30124 0.0
C711 C 0.48799 0.71403 0.29455 0.0
C712 C 0.50343 0.74883 0.30169 0.0
C713 C 0.48885 0.75315 0.31638 0.0
C714 C 0.45832 0.72328 0.32347 0.0
H715 H 0.34436 0.68293 0.32618 0.0
H716 H 0.38402 0.70727 0.33887 0.0
H717 H 0.38901 0.70812 0.31701 0.0
H718 H 0.44469 0.65824 0.29513 0.0
H719 H 0.50033 0.70955 0.28384 0.0
H720 H 0.72126 0.22516 0.6783 0.0
H721 H 0.71989 0.27688 0.6651 0.0
H722 H 0.79959 0.3511 0.69989 0.0
H723 H 0.80217 0.29979 0.71247 0.0
H724 H 0.70019 0.32344 0.67681 0.0
H725 H 0.84582 0.40173 0.6582 0.0
H726 H 0.82502 0.3554 0.66574 0.0
H727 H 0.84095 0.39332 0.67977 0.0
C728 C 0.73846 0.25262 0.683 0.0
C729 C 0.7609 0.25867 0.69665 0.0
C730 C 0.73768 0.28205 0.67553 0.0
C731 C 0.75988 0.31791 0.68142 0.0
C732 C 0.78277 0.32385 0.69491 0.0
H733 H 0.72154 0.49904 0.65768 0.0
H734 H 0.72109 0.44647 0.67077 0.0
C735 C 0.78376 0.29452 0.70227 0.0
C736 C 0.75861 0.34903 0.67368 0.0
H737 H 0.81242 0.4335 0.657 0.0
C738 C 0.72464 0.3474 0.6723 0.0
C739 C 0.7905 0.38011 0.66771 0.0
C740 C 0.82754 0.38262 0.66777 0.0
C741 C 0.72159 0.37602 0.66513 0.0
C742 C 0.7537 0.40778 0.65964 0.0
C743 C 0.7877 0.40931 0.66113 0.0
C744 C 0.75305 0.43939 0.65183 0.0
C745 C 0.68379 0.37118 0.66334 0.0
C746 C 0.77279 0.45439 0.63732 0.0
C747 C 0.77443 0.48534 0.63034 0.0
C748 C 0.7548 0.5008 0.63718 0.0
C749 C 0.73562 0.4865 0.65183 0.0
C750 C 0.73506 0.45624 0.6592 0.0
H751 H 0.6626 0.34176 0.66222 0.0
H752 H 0.67729 0.38208 0.6744 0.0
H753 H 0.68188 0.38586 0.65252 0.0
H754 H 0.78742 0.44246 0.63145 0.0
H755 H 0.79138 0.49743 0.61964 0.0
H756 H 0.22241 0.71767 0.98975 0.0
H757 H 0.27538 0.71707 0.00196 0.0
H758 H 0.34652 0.79716 0.96657 0.0
H759 H 0.29391 0.7991 0.95503 0.0
H760 H 0.3216 0.69819 0.98955 0.0
H761 H 0.39971 0.84431 0.00761 0.0
H762 H 0.35297 0.82297 1.00056 0.0
H763 H 0.39013 0.8386 0.98614 0.0
C764 C 0.24947 0.7351 0.98467 0.0
C765 C 0.25424 0.75748 0.97117 0.0
C766 C 0.27961 0.73474 0.99159 0.0
C767 C 0.31499 0.75729 0.98526 0.0
C768 C 0.31968 0.78006 0.97187 0.0
H769 H 0.49615 0.71903 0.0104 0.0
H770 H 0.44479 0.71924 0.99645 0.0
C771 C 0.28959 0.78067 0.96509 0.0
C772 C 0.34682 0.75659 0.99258 0.0
H773 H 0.43136 0.81103 0.00914 0.0
C774 C 0.34553 0.72278 0.99399 0.0
C775 C 0.37789 0.78869 0.99842 0.0
C776 C 0.38016 0.82561 0.99826 0.0
C777 C 0.37426 0.72001 0.00122 0.0
C778 C 0.40587 0.75229 0.00674 0.0
C779 C 0.40724 0.78618 0.00504 0.0
C780 C 0.43729 0.7519 0.0149 0.0
C781 C 0.36959 0.68229 0.00307 0.0
C782 C 0.45194 0.77204 0.02938 0.0
C783 C 0.48237 0.77338 0.03682 0.0
C784 C 0.49752 0.753 0.03053 0.0
C785 C 0.48373 0.73362 0.01587 0.0
C786 C 0.45415 0.73344 0.008 0.0
H787 H 0.34019 0.66101 0.00417 0.0
H788 H 0.38054 0.6758 0.99202 0.0
H789 H 0.38426 0.68041 0.0139 0.0
H790 H 0.44007 0.78708 0.03489 0.0
H791 H 0.49422 0.7906 0.04747 0.0
H792 H 0.50632 0.28995 0.28714 0.0
H793 H 0.56167 0.34212 0.29813 0.0
H794 H 0.56143 0.27435 0.33781 0.0
H795 H 0.50866 0.2211 0.32548 0.0
H796 H 0.57249 0.3776 0.32323 0.0
H797 H 0.66537 0.3209 0.32798 0.0
H798 H 0.62057 0.29499 0.31899 0.0
H799 H 0.62616 0.29565 0.34081 0.0
C800 C 0.51935 0.28591 0.29772 0.0
C801 C 0.50493 0.2512 0.30485 0.0
C802 C 0.5505 0.31588 0.30424 0.0
C803 C 0.56671 0.31219 0.3186 0.0
C804 C 0.55079 0.27775 0.32631 0.0
H805 H 0.70751 0.50335 0.37772 0.0
H806 H 0.65583 0.44978 0.36511 0.0
C807 C 0.5204 0.24741 0.31938 0.0
C808 C 0.59864 0.345 0.32592 0.0
H809 H 0.68373 0.377 0.34246 0.0
C810 C 0.59695 0.37742 0.32723 0.0
C811 C 0.63079 0.34516 0.3312 0.0
C812 C 0.63595 0.31237 0.32951 0.0
C813 C 0.62628 0.40977 0.33351 0.0
C814 C 0.65767 0.40941 0.33939 0.0
C815 C 0.65952 0.37717 0.33809 0.0
C816 C 0.68889 0.44205 0.34699 0.0
C817 C 0.62353 0.44416 0.33335 0.0
C818 C 0.7248 0.45498 0.34133 0.0
C819 C 0.75441 0.48488 0.34888 0.0
C820 C 0.7485 0.50177 0.36237 0.0
C821 C 0.71263 0.48974 0.36768 0.0
C822 C 0.6831 0.45965 0.36027 0.0
H823 H 0.60448 0.44299 0.32366 0.0
H824 H 0.61255 0.44694 0.34525 0.0
H825 H 0.65069 0.46896 0.33132 0.0
H826 H 0.72992 0.44192 0.33106 0.0
H827 H 0.78191 0.49445 0.34439 0.0
H828 H 0.22001 0.51829 0.62057 0.0
H829 H 0.22613 0.57225 0.6347 0.0
H830 H 0.31848 0.58168 0.6618 0.0
H831 H 0.31059 0.52618 0.64839 0.0
H832 H 0.27536 0.58711 0.68168 0.0
H833 H 0.29132 0.67892 0.63014 0.0
H834 H 0.25248 0.63389 0.62749 0.0
H835 H 0.29806 0.64016 0.62825 0.0
C836 C 0.24212 0.53255 0.62926 0.0
C837 C 0.26541 0.51884 0.63319 0.0
C838 C 0.24581 0.56354 0.63727 0.0
C839 C 0.27332 0.58173 0.64911 0.0
C840 C 0.29713 0.56833 0.65269 0.0
H841 H 0.31268 0.7904 0.68809 0.0
H842 H 0.32032 0.74203 0.67534 0.0
C843 C 0.2928 0.5368 0.645 0.0
C844 C 0.2752 0.61251 0.65884 0.0
H845 H 0.27541 0.69338 0.65571 0.0
C846 C 0.27578 0.61054 0.67597 0.0
C847 C 0.27633 0.64349 0.6515 0.0
C848 C 0.27984 0.64954 0.63332 0.0
C849 C 0.27708 0.63834 0.68588 0.0
C850 C 0.27602 0.6682 0.67854 0.0
C851 C 0.27581 0.67035 0.66142 0.0
C852 C 0.27488 0.69753 0.68819 0.0
C853 C 0.28123 0.63622 0.70405 0.0
C854 C 0.24738 0.68883 0.69995 0.0
C855 C 0.24376 0.71658 0.70756 0.0
C856 C 0.2672 0.75336 0.70334 0.0
C857 C 0.29478 0.76217 0.6917 0.0
C858 C 0.29899 0.73455 0.6844 0.0
H859 H 0.29212 0.61781 0.70721 0.0
H860 H 0.30017 0.66385 0.70897 0.0
H861 H 0.25418 0.62535 0.71008 0.0
H862 H 0.22755 0.66058 0.70269 0.0
H863 H 0.22152 0.70921 0.71612 0.0
H864 H 0.36397 0.16892 0.09874 0.0
H865 H 0.3462 0.15263 0.12737 0.0
H866 H 0.39787 0.26747 0.13977 0.0
H867 H 0.41727 0.28354 0.11137 0.0
H868 H 0.42593 0.23627 0.15673 0.0
H869 H 0.27538 0.1483 0.16112 0.0
H870 H 0.29448 0.13155 0.14614 0.0
H871 H 0.2976 0.17539 0.14319 0.0
C872 C 0.37021 0.19052 0.10752 0.0
C873 C 0.39179 0.22742 0.10296 0.0
C874 C 0.35994 0.18124 0.12388 0.0
C875 C 0.37045 0.2088 0.13579 0.0
C876 C 0.3894 0.2457 0.13085 0.0
H877 H 0.35769 0.19068 0.24249 0.0
H878 H 0.34066 0.19511 0.21416 0.0
C879 C 0.40037 0.25491 0.11463 0.0
C880 C 0.36787 0.19979 0.1535 0.0
H881 H 0.31062 0.14482 0.18374 0.0
C882 C 0.40049 0.21671 0.16262 0.0
C883 C 0.33479 0.17423 0.1613 0.0
C884 C 0.29853 0.15662 0.15246 0.0
C885 C 0.40121 0.20827 0.1791 0.0
C886 C 0.36862 0.18133 0.18665 0.0
C887 C 0.33564 0.16508 0.1778 0.0
C888 C 0.3695 0.16961 0.20362 0.0
C889 C 0.43713 0.22807 0.18827 0.0
C890 C 0.3896 0.15208 0.20703 0.0
C891 C 0.39968 0.15001 0.22306 0.0
C892 C 0.38917 0.16475 0.23595 0.0
C893 C 0.36574 0.17876 0.23275 0.0
C894 C 0.35609 0.18137 0.2166 0.0
H895 H 0.45717 0.25378 0.182 0.0
H896 H 0.4329 0.23489 0.20089 0.0
H897 H 0.4493 0.21006 0.18907 0.0
H898 H 0.40003 0.14269 0.19717 0.0
H899 H 0.41778 0.13911 0.22525 0.0
H900 H 0.20437 0.45613 0.44861 0.0
H901 H 0.19731 0.4302 0.4757 0.0
H902 H 0.15365 0.3222 0.45496 0.0
H903 H 0.16113 0.3482 0.42737 0.0
H904 H 0.1339 0.37539 0.49172 0.0
H905 H 0.24086 0.33563 0.48363 0.0
H906 H 0.23691 0.36652 0.4696 0.0
H907 H 0.20329 0.31865 0.46938 0.0
C908 C 0.19314 0.4268 0.44966 0.0
C909 C 0.18357 0.40433 0.4357 0.0
C910 C 0.18896 0.41199 0.46524 0.0
C911 C 0.17517 0.37433 0.46737 0.0
C912 C 0.16471 0.35142 0.45357 0.0
H913 H 0.1737 0.35169 0.5748 0.0
H914 H 0.15048 0.32567 0.54751 0.0
C915 C 0.16886 0.36632 0.43783 0.0
C916 C 0.17357 0.36045 0.48419 0.0
H917 H 0.2234 0.33936 0.51037 0.0
C918 C 0.1526 0.36637 0.49583 0.0
C919 C 0.19794 0.34862 0.48944 0.0
C920 C 0.22123 0.34201 0.47745 0.0
C921 C 0.15802 0.36443 0.51265 0.0
C922 C 0.18467 0.35558 0.51794 0.0
C923 C 0.20295 0.34605 0.50627 0.0
C924 C 0.19987 0.36454 0.53477 0.0
C925 C 0.13782 0.37545 0.52453 0.0
C926 C 0.23596 0.39338 0.53675 0.0
C927 C 0.24919 0.40796 0.55216 0.0
C928 C 0.2267 0.39398 0.56603 0.0
C929 C 0.1916 0.36301 0.56431 0.0
C930 C 0.17822 0.34836 0.54873 0.0
H931 H 0.12077 0.38506 0.51825 0.0
H932 H 0.11953 0.35162 0.53228 0.0
H933 H 0.15754 0.3977 0.53268 0.0
H934 H 0.25325 0.40628 0.5262 0.0
H935 H 0.27652 0.43154 0.55311 0.0
H936 H 0.78129 0.23282 0.89 0.0
H937 H 0.78613 0.21217 0.86295 0.0
H938 H 0.86435 0.18285 0.88072 0.0
H939 H 0.85956 0.20348 0.90839 0.0
H940 H 0.87517 0.23679 0.84745 0.0
H941 H 0.75622 0.0954 0.85122 0.0
H942 H 0.75154 0.13037 0.86176 0.0
H943 H 0.78505 0.11889 0.86861 0.0
C944 C 0.79965 0.22206 0.88833 0.0
C945 C 0.82021 0.22003 0.90144 0.0
C946 C 0.80224 0.21015 0.8728 0.0
C947 C 0.82551 0.19602 0.86989 0.0
C948 C 0.84618 0.19367 0.88281 0.0
H949 H 0.83113 0.17604 0.76209 0.0
H950 H 0.85011 0.17061 0.78996 0.0
C951 C 0.84336 0.20541 0.89857 0.0
C952 C 0.8278 0.18477 0.85302 0.0
H953 H 0.77163 0.12292 0.82461 0.0
C954 C 0.85353 0.21127 0.84241 0.0
C955 C 0.79937 0.15157 0.84658 0.0
C956 C 0.77152 0.12219 0.85761 0.0
C957 C 0.84931 0.20696 0.82536 0.0
C958 C 0.8187 0.17523 0.81891 0.0
C959 C 0.7951 0.14719 0.82958 0.0
C960 C 0.80627 0.17441 0.80188 0.0
C961 C 0.87539 0.2379 0.81442 0.0
C962 C 0.77493 0.17734 0.79938 0.0
C963 C 0.76418 0.1805 0.78366 0.0
C964 C 0.7844 0.18062 0.76997 0.0
C965 C 0.81499 0.17606 0.77239 0.0
C966 C 0.82596 0.17313 0.78827 0.0
H967 H 0.89686 0.26143 0.82145 0.0
H968 H 0.88905 0.22792 0.80595 0.0
H969 H 0.86003 0.2477 0.80692 0.0
H970 H 0.75935 0.1784 0.8097 0.0
H971 H 0.74026 0.18356 0.78229 0.0
H972 H 0.65737 0.82423 0.09355 0.0
H973 H 0.68461 0.8448 0.12085 0.0
H974 H 0.58564 0.75904 0.14279 0.0
H975 H 0.55874 0.73829 0.11596 0.0
H976 H 0.65843 0.87058 0.145 0.0
H977 H 0.66271 0.75057 0.16861 0.0
H978 H 0.65844 0.757 0.14705 0.0
H979 H 0.61843 0.73609 0.15999 0.0
C980 C 0.64181 0.80934 0.10421 0.0
C981 C 0.60583 0.77966 0.10255 0.0
C982 C 0.65737 0.82115 0.11978 0.0
C983 C 0.63744 0.80304 0.13387 0.0
C984 C 0.602 0.77288 0.13214 0.0
H985 H 0.57621 0.84612 0.21988 0.0
H986 H 0.60039 0.84947 0.19263 0.0
C987 C 0.58645 0.76127 0.11672 0.0
C988 C 0.65115 0.81732 0.15054 0.0
H989 H 0.65044 0.78602 0.18905 0.0
C990 C 0.65788 0.85254 0.15459 0.0
C991 C 0.65151 0.79435 0.16307 0.0
C992 C 0.6478 0.75756 0.15939 0.0
C993 C 0.66063 0.86361 0.17097 0.0
C994 C 0.65577 0.83853 0.18357 0.0
C995 C 0.65346 0.80509 0.17945 0.0
C996 C 0.64604 0.84321 0.20052 0.0
C997 C 0.66678 0.90136 0.17462 0.0
C998 C 0.66362 0.83864 0.2142 0.0
C999 C 0.64958 0.83654 0.22998 0.0
C1000 C 0.61738 0.83828 0.23221 0.0
C1001 C 0.60101 0.84459 0.21857 0.0
C1002 C 0.6151 0.84694 0.20294 0.0
H1003 H 0.68459 0.92126 0.16517 0.0
H1004 H 0.64008 0.90062 0.17435 0.0
H1005 H 0.67956 0.91127 0.1868 0.0
H1006 H 0.68728 0.83526 0.2126 0.0
H1007 H 0.66258 0.83136 0.24025 0.0
H1008 H 0.73813 0.56792 0.55324 0.0
H1009 H 0.76042 0.5921 0.52612 0.0
H1010 H 0.8566 0.68373 0.54709 0.0
H1011 H 0.83445 0.65907 0.57465 0.0
H1012 H 0.78143 0.65862 0.5101 0.0
H1013 H 0.89821 0.63295 0.51824 0.0
H1014 H 0.86054 0.6152 0.53249 0.0
H1015 H 0.89364 0.66326 0.53229 0.0
C1016 C 0.76386 0.59347 0.55218 0.0
C1017 C 0.78481 0.61127 0.5661 0.0
C1018 C 0.77647 0.60741 0.53662 0.0
C1019 C 0.8104 0.63944 0.53454 0.0
C1020 C 0.83054 0.65868 0.54842 0.0
H1021 H 0.8454 0.65759 0.42705 0.0
H1022 H 0.85241 0.68384 0.45459 0.0
C1023 C 0.81776 0.64471 0.56414 0.0
C1024 C 0.82519 0.64963 0.51771 0.0
H1025 H 0.88218 0.63873 0.49158 0.0
C1026 C 0.80423 0.65552 0.50602 0.0
C1027 C 0.85494 0.64549 0.51247 0.0
C1028 C 0.87819 0.63874 0.52444 0.0
C1029 C 0.80992 0.65378 0.4892 0.0
C1030 C 0.83766 0.64651 0.48399 0.0
C1031 C 0.86094 0.6443 0.49565 0.0
C1032 C 0.8377 0.63317 0.46721 0.0
C1033 C 0.78401 0.65624 0.47721 0.0
C1034 C 0.82823 0.59644 0.46521 0.0
C1035 C 0.82433 0.58152 0.44966 0.0
C1036 C 0.82987 0.60297 0.43563 0.0
C1037 C 0.84084 0.64029 0.4376 0.0
C1038 C 0.84468 0.65529 0.4533 0.0
H1039 H 0.76211 0.65913 0.48339 0.0
H1040 H 0.79956 0.68031 0.46913 0.0
H1041 H 0.77094 0.63138 0.46938 0.0
H1042 H 0.82268 0.57885 0.47575 0.0
H1043 H 0.81621 0.5528 0.4487 0.0
H1044 H 0.19258 0.83615 0.90573 0.0
H1045 H 0.19171 0.85327 0.87714 0.0
H1046 H 0.13594 0.73898 0.86348 0.0
H1047 H 0.13854 0.72219 0.89182 0.0
H1048 H 0.19716 0.77535 0.84756 0.0
H1049 H 0.12333 0.85287 0.84263 0.0
H1050 H 0.15813 0.87075 0.85813 0.0
H1051 H 0.11928 0.82533 0.86028 0.0
C1052 C 0.17899 0.81476 0.89667 0.0
C1053 C 0.16563 0.77791 0.90086 0.0
C1054 C 0.17835 0.8245 0.88034 0.0
C1055 C 0.16359 0.79741 0.86811 0.0
C1056 C 0.14749 0.76038 0.87266 0.0
H1057 H 0.16783 0.80878 0.76192 0.0
H1058 H 0.1462 0.80569 0.7901 0.0
C1059 C 0.14888 0.75077 0.88884 0.0
C1060 C 0.17056 0.8074 0.85052 0.0
H1061 H 0.16281 0.85886 0.82008 0.0
C1062 C 0.18912 0.79323 0.84156 0.0
C1063 C 0.16025 0.83082 0.84263 0.0
C1064 C 0.13882 0.84554 0.85137 0.0
C1065 C 0.19808 0.80209 0.82511 0.0
C1066 C 0.18919 0.82666 0.8174 0.0
C1067 C 0.16997 0.8404 0.82613 0.0
C1068 C 0.20057 0.83813 0.80031 0.0
C1069 C 0.21727 0.78515 0.81609 0.0
C1070 C 0.23806 0.8591 0.79668 0.0
C1071 C 0.25037 0.86046 0.78074 0.0
C1072 C 0.22532 0.8415 0.76814 0.0
C1073 C 0.18757 0.82406 0.77142 0.0
C1074 C 0.17522 0.82221 0.78749 0.0
H1075 H 0.21492 0.76097 0.82263 0.0
H1076 H 0.20582 0.77653 0.8036 0.0
H1077 H 0.24683 0.80574 0.81491 0.0
H1078 H 0.25799 0.87156 0.80642 0.0
H1079 H 0.27961 0.87387 0.77849 0.0
H1080 H 0.57274 0.66477 0.03077 0.0
H1081 H 0.55625 0.60071 0.0254 0.0
H1082 H 0.5009 0.56847 0.07186 0.0
H1083 H 0.51696 0.63151 0.07727 0.0
H1084 H 0.56866 0.5495 0.04345 0.0
H1085 H 0.42065 0.50249 0.03901 0.0
H1086 H 0.45556 0.55028 0.03774 0.0
H1087 H 0.44076 0.52825 0.05732 0.0
C1088 C 0.55762 0.64407 0.03993 0.0
C1089 C 0.54587 0.65323 0.05437 0.0
C1090 C 0.54796 0.60748 0.03679 0.0
C1091 C 0.52636 0.57966 0.04802 0.0
C1092 C 0.51659 0.58924 0.0628 0.0
H1093 H 0.49153 0.37483 0.07645 0.0
H1094 H 0.50809 0.4378 0.0708 0.0
C1095 C 0.52608 0.62545 0.06592 0.0
C1096 C 0.51369 0.54041 0.04466 0.0
H1097 H 0.43633 0.45585 0.04507 0.0
C1098 C 0.53974 0.52907 0.04345 0.0
C1099 C 0.4759 0.51368 0.04433 0.0
C1100 C 0.44659 0.52429 0.04449 0.0
C1101 C 0.52902 0.49165 0.04321 0.0
C1102 C 0.49134 0.46493 0.04444 0.0
C1103 C 0.46521 0.47627 0.04435 0.0
C1104 C 0.47912 0.42577 0.04778 0.0
C1105 C 0.55825 0.48102 0.04216 0.0
C1106 C 0.4556 0.39753 0.0371 0.0
C1107 C 0.44569 0.36091 0.04037 0.0
C1108 C 0.45907 0.35213 0.05441 0.0
C1109 C 0.4811 0.38047 0.06538 0.0
C1110 C 0.49088 0.41668 0.06213 0.0
H1111 H 0.58332 0.50269 0.03605 0.0
H1112 H 0.56601 0.47739 0.05469 0.0
H1113 H 0.54828 0.45487 0.0354 0.0
H1114 H 0.44575 0.40392 0.02606 0.0
H1115 H 0.42876 0.3398 0.03166 0.0
H1116 H 0.91433 0.57338 0.36445 0.0
H1117 H 0.96222 0.55705 0.35976 0.0
H1118 H 0.93212 0.49542 0.40469 0.0
H1119 H 0.88472 0.51118 0.40939 0.0
H1120 H 0.02271 0.56739 0.37856 0.0
H1121 H 0.92396 0.41956 0.37129 0.0
H1122 H 0.91033 0.45394 0.37042 0.0
H1123 H 0.91619 0.43738 0.38983 0.0
C1124 C 0.91831 0.55676 0.3734 0.0
C1125 C 0.89539 0.54329 0.3872 0.0
C1126 C 0.94547 0.54722 0.37066 0.0
C1127 C 0.94996 0.52403 0.38163 0.0
C1128 C 0.9284 0.51231 0.39579 0.0
H1129 H 0.12375 0.49173 0.40973 0.0
H1130 H 0.07608 0.50718 0.40504 0.0
C1131 C 0.90143 0.52165 0.3985 0.0
C1132 C 0.97729 0.51208 0.37872 0.0
H1133 H 0.98588 0.43552 0.37845 0.0
C1134 C 0.01464 0.53859 0.37822 0.0
C1135 C 0.96683 0.47447 0.37793 0.0
C1136 C 0.92711 0.44472 0.37721 0.0
C1137 C 0.04178 0.52845 0.37815 0.0
C1138 C 0.0313 0.49083 0.37888 0.0
C1139 C 0.99397 0.46433 0.37817 0.0
C1140 C 0.05857 0.47884 0.38188 0.0
C1141 C 0.08151 0.55822 0.37766 0.0
C1142 C 0.06327 0.45584 0.37088 0.0
C1143 C 0.09054 0.44646 0.37364 0.0
C1144 C 0.11337 0.45992 0.38747 0.0
C1145 C 0.10707 0.48127 0.39883 0.0
C1146 C 0.07996 0.49044 0.3961 0.0
H1147 H 0.08481 0.58346 0.37177 0.0
H1148 H 0.09212 0.56537 0.39033 0.0
H1149 H 0.09846 0.5491 0.37094 0.0
H1150 H 0.04666 0.44611 0.35993 0.0
H1151 H 0.09476 0.43009 0.36463 0.0
H1152 H 0.64493 0.10795 0.74628 0.0
H1153 H 0.58177 0.05871 0.74222 0.0
H1154 H 0.60439 0.05222 0.69135 0.0
H1155 H 0.6684 0.10156 0.69543 0.0
H1156 H 0.53757 0.06448 0.70333 0.0
H1157 H 0.54263 0.94437 0.72831 0.0
H1158 H 0.5683 0.98713 0.7391 0.0
H1159 H 0.58183 0.98273 0.71883 0.0
C1160 C 0.63673 0.09549 0.7343 0.0
C1161 C 0.66164 0.10838 0.72119 0.0
C1162 C 0.60062 0.06747 0.73199 0.0
C1163 C 0.58842 0.05196 0.71649 0.0
C1164 C 0.61338 0.06386 0.70342 0.0
H1165 H 0.35104 0.90444 0.69681 0.0
H1166 H 0.41597 0.94979 0.69201 0.0
C1167 C 0.64994 0.09171 0.70579 0.0
C1168 C 0.54902 0.02477 0.71416 0.0
H1169 H 0.48388 0.93843 0.72544 0.0
C1170 C 0.52571 0.03663 0.70783 0.0
C1171 C 0.53379 0.98869 0.72018 0.0
C1172 C 0.55781 0.97466 0.72692 0.0
C1173 C 0.48729 0.01386 0.70819 0.0
C1174 C 0.47195 0.97815 0.71484 0.0
C1175 C 0.49553 0.96584 0.72042 0.0
C1176 C 0.43178 0.95399 0.71747 0.0
C1177 C 0.46349 0.02894 0.70234 0.0
C1178 C 0.41887 0.94163 0.73333 0.0
C1179 C 0.38213 0.91571 0.73603 0.0
C1180 C 0.35719 0.90161 0.72296 0.0
C1181 C 0.36951 0.91534 0.70715 0.0
C1182 C 0.40664 0.94116 0.7044 0.0
H1183 H 0.47934 0.05918 0.70079 0.0
H1184 H 0.45134 0.01653 0.69034 0.0
H1185 H 0.4407 0.02198 0.71104 0.0
H1186 H 0.43757 0.95122 0.74362 0.0
H1187 H 0.37347 0.90563 0.74835 0.0
H1188 H 0.64569 0.54871 0.58867 0.0
H1189 H 0.58179 0.53197 0.59264 0.0
H1190 H 0.59982 0.54696 0.64465 0.0
H1191 H 0.66454 0.56472 0.64061 0.0
H1192 H 0.53397 0.47104 0.6101 0.0
H1193 H 0.5381 0.59547 0.63573 0.0
H1194 H 0.57698 0.59729 0.62551 0.0
H1195 H 0.56561 0.57994 0.64599 0.0
C1196 C 0.63633 0.54958 0.60091 0.0
C1197 C 0.66012 0.55831 0.61432 0.0
C1198 C 0.59973 0.53974 0.60318 0.0
C1199 C 0.58584 0.53806 0.61894 0.0
C1200 C 0.60996 0.54856 0.63235 0.0
H1201 H 0.34702 0.44488 0.63729 0.0
H1202 H 0.41095 0.46029 0.64231 0.0
C1203 C 0.64697 0.55887 0.63004 0.0
C1204 C 0.5456 0.52227 0.62108 0.0
H1205 H 0.47981 0.54324 0.63193 0.0
C1206 C 0.52219 0.48672 0.61507 0.0
C1207 C 0.53013 0.54257 0.62766 0.0
C1208 C 0.55387 0.58104 0.63401 0.0
C1209 C 0.48398 0.47162 0.61483 0.0
C1210 C 0.46867 0.49246 0.62076 0.0
C1211 C 0.49175 0.52726 0.62749 0.0
C1212 C 0.42956 0.4807 0.61788 0.0
C1213 C 0.46015 0.43403 0.60762 0.0
C1214 C 0.41894 0.48645 0.60245 0.0
C1215 C 0.38286 0.47786 0.59959 0.0
C1216 C 0.3564 0.463 0.61207 0.0
C1217 C 0.36669 0.45586 0.62739 0.0
C1218 C 0.40318 0.46495 0.63032 0.0
H1219 H 0.47534 0.41898 0.60599 0.0
H1220 H 0.43595 0.4176 0.61554 0.0
H1221 H 0.44991 0.43677 0.59549 0.0
H1222 H 0.43889 0.49848 0.5927 0.0
H1223 H 0.37584 0.48366 0.58765 0.0
H1224 H 0.09826 0.6411 0.92364 0.0
H1225 H 0.05327 0.57642 0.92749 0.0
H1226 H 0.05756 0.59301 0.97965 0.0
H1227 H 0.10216 0.6585 0.97572 0.0
H1228 H 0.06863 0.52967 0.94366 0.0
H1229 H 0.94795 0.52813 0.97213 0.0
H1230 H 0.98389 0.56824 0.96213 0.0
H1231 H 0.99105 0.55601 0.98226 0.0
C1232 C 0.08873 0.63119 0.9359 0.0
C1233 C 0.1034 0.65483 0.94937 0.0
C1234 C 0.06322 0.59415 0.9381 0.0
C1235 C 0.05197 0.57967 0.95386 0.0
C1236 C 0.0653 0.60357 0.96736 0.0
H1237 H 0.90799 0.34279 0.97473 0.0
H1238 H 0.9566 0.40701 0.97872 0.0
C1239 C 0.09067 0.641 0.96512 0.0
C1240 C 0.02881 0.53921 0.95587 0.0
H1241 H 0.94446 0.47095 0.96823 0.0
C1242 C 0.0416 0.51691 0.94917 0.0
C1243 C 0.99365 0.52242 0.96318 0.0
C1244 C 0.97806 0.54481 0.97024 0.0
C1245 C 0.01976 0.47855 0.94902 0.0
C1246 C 0.98417 0.46188 0.95575 0.0
C1247 C 0.9719 0.48389 0.96315 0.0
C1248 C 0.95782 0.42225 0.95339 0.0
C1249 C 0.03447 0.45603 0.94127 0.0
C1250 C 0.94305 0.40951 0.93781 0.0
C1251 C 0.91539 0.37321 0.93554 0.0
C1252 C 0.90214 0.34868 0.94878 0.0
C1253 C 0.91817 0.36092 0.96427 0.0
C1254 C 0.9456 0.39762 0.96659 0.0
H1255 H 0.06478 0.47189 0.93997 0.0
H1256 H 0.02678 0.43102 0.9486 0.0
H1257 H 0.02232 0.4472 0.92891 0.0
H1258 H 0.95193 0.42811 0.92749 0.0
H1259 H 0.90333 0.36463 0.92351 0.0
H1260 H 0.57203 0.90588 0.30738 0.0
H1261 H 0.55512 0.95293 0.31343 0.0
H1262 H 0.52062 0.94831 0.26348 0.0
H1263 H 0.53706 0.90164 0.25741 0.0
H1264 H 0.57286 0.02622 0.28448 0.0
H1265 H 0.43447 0.92122 0.30668 0.0
H1266 H 0.47493 0.91842 0.31139 0.0
H1267 H 0.45678 0.90911 0.29105 0.0
C1268 C 0.56172 0.91565 0.29763 0.0
C1269 C 0.55588 0.90012 0.28192 0.0
C1270 C 0.55178 0.94221 0.30113 0.0
C1271 C 0.53631 0.95371 0.28891 0.0
C1272 C 0.53231 0.93961 0.27307 0.0
H1273 H 0.46394 0.096 0.25846 0.0
H1274 H 0.48422 0.05179 0.26333 0.0
C1275 C 0.54183 0.91303 0.26963 0.0
C1276 C 0.52264 0.9793 0.2924 0.0
H1277 H 0.44326 0.9799 0.3004 0.0
C1278 C 0.54482 0.01634 0.28833 0.0
C1279 C 0.48605 0.96627 0.29743 0.0
C1280 C 0.46144 0.9266 0.30196 0.0
C1281 C 0.5308 0.04038 0.28841 0.0
C1282 C 0.4934 0.02678 0.2923 0.0
C1283 C 0.47182 0.99022 0.29733 0.0
C1284 C 0.47579 0.04932 0.28947 0.0
C1285 C 0.55587 0.07996 0.28381 0.0
C1286 C 0.46201 0.06081 0.30244 0.0
C1287 C 0.44978 0.08588 0.29963 0.0
C1288 C 0.45127 0.09966 0.28382 0.0
C1289 C 0.46261 0.08596 0.27078 0.0
C1290 C 0.47451 0.06093 0.27356 0.0
H1291 H 0.5851 0.08844 0.286 0.0
H1292 H 0.55258 0.08357 0.2706 0.0
H1293 H 0.54912 0.0984 0.29081 0.0
H1294 H 0.46247 0.05187 0.3148 0.0
H1295 H 0.44158 0.09632 0.30992 0.0
loop_
_geom_bond_atom_site_label_1
_geom_bond_atom_site_label_2
_geom_bond_distance
_geom_bond_site_symmetry_2
_ccdc_geom_bond_type
Mn0 O5 2.095 . S
Mn0 O15 2.162 . S
Mn0 O16 2.297 . S
Mn0 O24 2.385 . S
Mn0 O25 2.209 . S
Mn0 O26 2.094 . S
Mn1 O6 2.121 . S
Mn1 N8 2.257 . S
Mn1 N17 2.282 . S
Mn1 O25 2.215 . S
Mn1 O27 2.117 . S
C2 O24 1.234 . S
C2 O25 1.283 . S
C3 O15 1.281 . S
C3 O16 1.236 . S
C4 O26 1.240 . S
C4 O27 1.264 . S
O5 Mn0 2.095 . S
O5 C14 1.250 . S
O6 Mn1 2.121 . S
O6 C14 1.258 . S
C7 N8 1.326 . S
C7 C11 1.460 . S
C7 H13 0.929 . S
N8 Mn1 2.257 . S
N8 C7 1.326 . S
N8 C12 1.362 . S
C9 C10 1.258 . S
C9 C12 1.431 . S
C9 C29 1.449 . S
C10 C9 1.258 . S
C10 C11 1.477 . S
C10 H30 0.931 . S
C11 C7 1.460 . S
C11 C10 1.477 . S
C11 H31 0.930 . S
C12 N8 1.362 . S
C12 C9 1.431 . S
C12 C22 1.476 . S
H13 C7 0.929 . S
C14 O5 1.250 . S
C14 O6 1.258 . S
O15 Mn0 2.162 . S
O15 C3 1.281 . S
O16 Mn0 2.297 . S
O16 C3 1.236 . S
N17 Mn1 2.282 . S
N17 C18 1.328 . S
N17 C22 1.318 . S
C18 N17 1.328 . S
C18 C19 1.457 . S
C18 H23 0.929 . S
C19 C18 1.457 . S
C19 C20 1.291 . S
C19 H32 0.931 . S
C20 C19 1.291 . S
C20 C21 1.373 . S
C20 H33 0.929 . S
C21 C20 1.373 . S
C21 C22 1.396 . S
C21 C28 1.403 . S
C22 C12 1.476 . S
C22 N17 1.318 . S
C22 C21 1.396 . S
H23 C18 0.929 . S
O24 Mn0 2.385 . S
O24 C2 1.234 . S
O25 Mn0 2.209 . S
O25 Mn1 2.215 . S
O25 C2 1.283 . S
O26 Mn0 2.094 . S
O26 C4 1.240 . S
O27 Mn1 2.117 . S
O27 C4 1.264 . S
C28 C21 1.403 . S
C28 C29 1.399 . S
C28 H34 0.929 . S
C29 C9 1.449 . S
C29 C28 1.399 . S
C29 H35 0.930 . S
H30 C10 0.931 . S
H31 C11 0.930 . S
H32 C19 0.931 . S
H33 C20 0.929 . S
H34 C28 0.929 . S
H35 C29 0.930 . S
Mn36 O41 2.095 . S
Mn36 O51 2.162 . S
Mn36 O52 2.297 . S
Mn36 O60 2.385 . S
Mn36 O61 2.209 . S
Mn36 O62 2.094 . S
Mn37 O42 2.121 . S
Mn37 N44 2.257 . S
Mn37 N53 2.282 . S
Mn37 O61 2.215 . S
Mn37 O63 2.117 . S
C38 O60 1.234 . S
C38 O61 1.283 . S
C39 O51 1.281 . S
C39 O52 1.236 . S
C40 O62 1.240 . S
C40 O63 1.264 . S
O41 Mn36 2.095 . S
O41 C50 1.250 . S
O42 Mn37 2.121 . S
O42 C50 1.258 . S
C43 N44 1.326 . S
C43 C47 1.460 . S
C43 H49 0.929 . S
N44 Mn37 2.257 . S
N44 C43 1.326 . S
N44 C48 1.362 . S
C45 C46 1.258 . S
C45 C48 1.431 . S
C45 C65 1.449 . S
C46 C45 1.258 . S
C46 C47 1.477 . S
C46 H66 0.931 . S
C47 C43 1.460 . S
C47 C46 1.477 . S
C47 H67 0.930 . S
C48 N44 1.362 . S
C48 C45 1.431 . S
C48 C58 1.476 . S
H49 C43 0.929 . S
C50 O41 1.250 . S
C50 O42 1.258 . S
O51 Mn36 2.162 . S
O51 C39 1.281 . S
O52 Mn36 2.297 . S
O52 C39 1.236 . S
N53 Mn37 2.282 . S
N53 C54 1.328 . S
N53 C58 1.318 . S
C54 N53 1.328 . S
C54 C55 1.457 . S
C54 H59 0.929 . S
C55 C54 1.457 . S
C55 C56 1.291 . S
C55 H68 0.931 . S
C56 C55 1.291 . S
C56 C57 1.373 . S
C56 H69 0.929 . S
C57 C56 1.373 . S
C57 C58 1.396 . S
C57 C64 1.403 . S
C58 C48 1.476 . S
C58 N53 1.318 . S
C58 C57 1.396 . S
H59 C54 0.929 . S
O60 Mn36 2.385 . S
O60 C38 1.234 . S
O61 Mn36 2.209 . S
O61 Mn37 2.215 . S
O61 C38 1.283 . S
O62 Mn36 2.094 . S
O62 C40 1.240 . S
O63 Mn37 2.117 . S
O63 C40 1.264 . S
C64 C57 1.403 . S
C64 C65 1.399 . S
C64 H70 0.929 . S
C65 C45 1.449 . S
C65 C64 1.399 . S
C65 H71 0.930 . S
H66 C46 0.931 . S
H67 C47 0.930 . S
H68 C55 0.931 . S
H69 C56 0.929 . S
H70 C64 0.929 . S
H71 C65 0.930 . S
Mn72 O77 2.095 . S
Mn72 O87 2.162 . S
Mn72 O88 2.297 . S
Mn72 O96 2.385 . S
Mn72 O97 2.209 . S
Mn72 O98 2.094 . S
Mn73 O78 2.121 . S
Mn73 N80 2.257 . S
Mn73 N89 2.282 . S
Mn73 O97 2.215 . S
Mn73 O99 2.117 . S
C74 O96 1.234 . S
C74 O97 1.283 . S
C75 O87 1.281 . S
C75 O88 1.236 . S
C76 O98 1.240 . S
C76 O99 1.264 . S
O77 Mn72 2.095 . S
O77 C86 1.250 . S
O78 Mn73 2.121 . S
O78 C86 1.258 . S
C79 N80 1.326 . S
C79 C83 1.460 . S
C79 H85 0.929 . S
N80 Mn73 2.257 . S
N80 C79 1.326 . S
N80 C84 1.362 . S
C81 C82 1.258 . S
C81 C84 1.431 . S
C81 C101 1.449 . S
C82 C81 1.258 . S
C82 C83 1.477 . S
C82 H102 0.931 . S
C83 C79 1.460 . S
C83 C82 1.477 . S
C83 H103 0.930 . S
C84 N80 1.362 . S
C84 C81 1.431 . S
C84 C94 1.476 . S
H85 C79 0.929 . S
C86 O77 1.250 . S
C86 O78 1.258 . S
O87 Mn72 2.162 . S
O87 C75 1.281 . S
O88 Mn72 2.297 . S
O88 C75 1.236 . S
N89 Mn73 2.282 . S
N89 C90 1.328 . S
N89 C94 1.318 . S
C90 N89 1.328 . S
C90 C91 1.457 . S
C90 H95 0.929 . S
C91 C90 1.457 . S
C91 C92 1.291 . S
C91 H104 0.931 . S
C92 C91 1.291 . S
C92 C93 1.373 . S
C92 H105 0.929 . S
C93 C92 1.373 . S
C93 C94 1.396 . S
C93 C100 1.403 . S
C94 C84 1.476 . S
C94 N89 1.318 . S
C94 C93 1.396 . S
H95 C90 0.929 . S
O96 Mn72 2.385 . S
O96 C74 1.234 . S
O97 Mn72 2.209 . S
O97 Mn73 2.215 . S
O97 C74 1.283 . S
O98 Mn72 2.094 . S
O98 C76 1.240 . S
O99 Mn73 2.117 . S
O99 C76 1.264 . S
C100 C93 1.403 . S
C100 C101 1.399 . S
C100 H106 0.929 . S
C101 C81 1.449 . S
C101 C100 1.399 . S
C101 H107 0.930 . S
H102 C82 0.931 . S
H103 C83 0.930 . S
H104 C91 0.931 . S
H105 C92 0.929 . S
H106 C100 0.929 . S
H107 C101 0.930 . S
Mn108 O113 2.095 . S
Mn108 O123 2.162 . S
Mn108 O124 2.297 . S
Mn108 O132 2.385 . S
Mn108 O133 2.209 . S
Mn108 O134 2.094 . S
Mn109 O114 2.121 . S
Mn109 N116 2.257 . S
Mn109 N125 2.282 . S
Mn109 O133 2.215 . S
Mn109 O135 2.117 . S
C110 O132 1.234 . S
C110 O133 1.283 . S
C111 O123 1.281 . S
C111 O124 1.236 . S
C112 O134 1.240 . S
C112 O135 1.264 . S
O113 Mn108 2.095 . S
O113 C122 1.250 . S
O114 Mn109 2.121 . S
O114 C122 1.258 . S
C115 N116 1.326 . S
C115 C119 1.460 . S
C115 H121 0.929 . S
N116 Mn109 2.257 . S
N116 C115 1.326 . S
N116 C120 1.362 . S
C117 C118 1.258 . S
C117 C120 1.431 . S
C117 C137 1.449 . S
C118 C117 1.258 . S
C118 C119 1.477 . S
C118 H138 0.931 . S
C119 C115 1.460 . S
C119 C118 1.477 . S
C119 H139 0.930 . S
C120 N116 1.362 . S
C120 C117 1.431 . S
C120 C130 1.476 . S
H121 C115 0.929 . S
C122 O113 1.250 . S
C122 O114 1.258 . S
O123 Mn108 2.162 . S
O123 C111 1.281 . S
O124 Mn108 2.297 . S
O124 C111 1.236 . S
N125 Mn109 2.282 . S
N125 C126 1.328 . S
N125 C130 1.318 . S
C126 N125 1.328 . S
C126 C127 1.457 . S
C126 H131 0.929 . S
C127 C126 1.457 . S
C127 C128 1.291 . S
C127 H140 0.931 . S
C128 C127 1.291 . S
C128 C129 1.373 . S
C128 H141 0.929 . S
C129 C128 1.373 . S
C129 C130 1.396 . S
C129 C136 1.403 . S
C130 C120 1.476 . S
C130 N125 1.318 . S
C130 C129 1.396 . S
H131 C126 0.929 . S
O132 Mn108 2.385 . S
O132 C110 1.234 . S
O133 Mn108 2.209 . S
O133 Mn109 2.215 . S
O133 C110 1.283 . S
O134 Mn108 2.094 . S
O134 C112 1.240 . S
O135 Mn109 2.117 . S
O135 C112 1.264 . S
C136 C129 1.403 . S
C136 C137 1.399 . S
C136 H142 0.929 . S
C137 C117 1.449 . S
C137 C136 1.399 . S
C137 H143 0.930 . S
H138 C118 0.931 . S
H139 C119 0.930 . S
H140 C127 0.931 . S
H141 C128 0.929 . S
H142 C136 0.929 . S
H143 C137 0.930 . S
Mn144 O149 2.095 . S
Mn144 O159 2.162 . S
Mn144 O160 2.297 . S
Mn144 O168 2.385 . S
Mn144 O169 2.209 . S
Mn144 O170 2.094 . S
Mn145 O150 2.121 . S
Mn145 N152 2.257 . S
Mn145 N161 2.282 . S
Mn145 O169 2.215 . S
Mn145 O171 2.117 . S
C146 O168 1.234 . S
C146 O169 1.283 . S
C147 O159 1.281 . S
C147 O160 1.236 . S
C148 O170 1.240 . S
C148 O171 1.264 . S
O149 Mn144 2.095 . S
O149 C158 1.250 . S
O150 Mn145 2.121 . S
O150 C158 1.258 . S
C151 N152 1.326 . S
C151 C155 1.460 . S
C151 H157 0.929 . S
N152 Mn145 2.257 . S
N152 C151 1.326 . S
N152 C156 1.362 . S
C153 C154 1.258 . S
C153 C156 1.431 . S
C153 C173 1.449 . S
C154 C153 1.258 . S
C154 C155 1.477 . S
C154 H174 0.931 . S
C155 C151 1.460 . S
C155 C154 1.477 . S
C155 H175 0.930 . S
C156 N152 1.362 . S
C156 C153 1.431 . S
C156 C166 1.476 . S
H157 C151 0.929 . S
C158 O149 1.250 . S
C158 O150 1.258 . S
O159 Mn144 2.162 . S
O159 C147 1.281 . S
O160 Mn144 2.297 . S
O160 C147 1.236 . S
N161 Mn145 2.282 . S
N161 C162 1.328 . S
N161 C166 1.318 . S
C162 N161 1.328 . S
C162 C163 1.457 . S
C162 H167 0.929 . S
C163 C162 1.457 . S
C163 C164 1.291 . S
C163 H176 0.931 . S
C164 C163 1.291 . S
C164 C165 1.373 . S
C164 H177 0.929 . S
C165 C164 1.373 . S
C165 C166 1.396 . S
C165 C172 1.403 . S
C166 C156 1.476 . S
C166 N161 1.318 . S
C166 C165 1.396 . S
H167 C162 0.929 . S
O168 Mn144 2.385 . S
O168 C146 1.234 . S
O169 Mn144 2.209 . S
O169 Mn145 2.215 . S
O169 C146 1.283 . S
O170 Mn144 2.094 . S
O170 C148 1.240 . S
O171 Mn145 2.117 . S
O171 C148 1.264 . S
C172 C165 1.403 . S
C172 C173 1.399 . S
C172 H178 0.929 . S
C173 C153 1.449 . S
C173 C172 1.399 . S
C173 H179 0.930 . S
H174 C154 0.931 . S
H175 C155 0.930 . S
H176 C163 0.931 . S
H177 C164 0.929 . S
H178 C172 0.929 . S
H179 C173 0.930 . S
Mn180 O185 2.095 . S
Mn180 O195 2.162 . S
Mn180 O196 2.297 . S
Mn180 O204 2.385 . S
Mn180 O205 2.209 . S
Mn180 O206 2.094 . S
Mn181 O186 2.121 . S
Mn181 N188 2.257 . S
Mn181 N197 2.282 . S
Mn181 O205 2.215 . S
Mn181 O207 2.117 . S
C182 O204 1.234 . S
C182 O205 1.283 . S
C183 O195 1.281 . S
C183 O196 1.236 . S
C184 O206 1.240 . S
C184 O207 1.264 . S
O185 Mn180 2.095 . S
O185 C194 1.250 . S
O186 Mn181 2.121 . S
O186 C194 1.258 . S
C187 N188 1.326 . S
C187 C191 1.460 . S
C187 H193 0.929 . S
N188 Mn181 2.257 . S
N188 C187 1.326 . S
N188 C192 1.362 . S
C189 C190 1.258 . S
C189 C192 1.431 . S
C189 C209 1.449 . S
C190 C189 1.258 . S
C190 C191 1.477 . S
C190 H210 0.931 . S
C191 C187 1.460 . S
C191 C190 1.477 . S
C191 H211 0.930 . S
C192 N188 1.362 . S
C192 C189 1.431 . S
C192 C202 1.476 . S
H193 C187 0.929 . S
C194 O185 1.250 . S
C194 O186 1.258 . S
O195 Mn180 2.162 . S
O195 C183 1.281 . S
O196 Mn180 2.297 . S
O196 C183 1.236 . S
N197 Mn181 2.282 . S
N197 C198 1.328 . S
N197 C202 1.318 . S
C198 N197 1.328 . S
C198 C199 1.457 . S
C198 H203 0.929 . S
C199 C198 1.457 . S
C199 C200 1.291 . S
C199 H212 0.931 . S
C200 C199 1.291 . S
C200 C201 1.373 . S
C200 H213 0.929 . S
C201 C200 1.373 . S
C201 C202 1.396 . S
C201 C208 1.403 . S
C202 C192 1.476 . S
C202 N197 1.318 . S
C202 C201 1.396 . S
H203 C198 0.929 . S
O204 Mn180 2.385 . S
O204 C182 1.234 . S
O205 Mn180 2.209 . S
O205 Mn181 2.215 . S
O205 C182 1.283 . S
O206 Mn180 2.094 . S
O206 C184 1.240 . S
O207 Mn181 2.117 . S
O207 C184 1.264 . S
C208 C201 1.403 . S
C208 C209 1.399 . S
C208 H214 0.929 . S
C209 C189 1.449 . S
C209 C208 1.399 . S
C209 H215 0.930 . S
H210 C190 0.931 . S
H211 C191 0.930 . S
H212 C199 0.931 . S
H213 C200 0.929 . S
H214 C208 0.929 . S
H215 C209 0.930 . S
Mn216 O221 2.095 . S
Mn216 O231 2.162 . S
Mn216 O232 2.297 . S
Mn216 O240 2.385 . S
Mn216 O241 2.209 . S
Mn216 O242 2.094 . S
Mn217 O222 2.121 . S
Mn217 N224 2.257 . S
Mn217 N233 2.282 . S
Mn217 O241 2.215 . S
Mn217 O243 2.117 . S
C218 O240 1.234 . S
C218 O241 1.283 . S
C219 O231 1.281 . S
C219 O232 1.236 . S
C220 O242 1.240 . S
C220 O243 1.264 . S
O221 Mn216 2.095 . S
O221 C230 1.250 . S
O222 Mn217 2.121 . S
O222 C230 1.258 . S
C223 N224 1.326 . S
C223 C227 1.460 . S
C223 H229 0.929 . S
N224 Mn217 2.257 . S
N224 C223 1.326 . S
N224 C228 1.362 . S
C225 C226 1.258 . S
C225 C228 1.431 . S
C225 C245 1.449 . S
C226 C225 1.258 . S
C226 C227 1.477 . S
C226 H246 0.931 . S
C227 C223 1.460 . S
C227 C226 1.477 . S
C227 H247 0.930 . S
C228 N224 1.362 . S
C228 C225 1.431 . S
C228 C238 1.476 . S
H229 C223 0.929 . S
C230 O221 1.250 . S
C230 O222 1.258 . S
O231 Mn216 2.162 . S
O231 C219 1.281 . S
O232 Mn216 2.297 . S
O232 C219 1.236 . S
N233 Mn217 2.282 . S
N233 C234 1.328 . S
N233 C238 1.318 . S
C234 N233 1.328 . S
C234 C235 1.457 . S
C234 H239 0.929 . S
C235 C234 1.457 . S
C235 C236 1.291 . S
C235 H248 0.931 . S
C236 C235 1.291 . S
C236 C237 1.373 . S
C236 H249 0.929 . S
C237 C236 1.373 . S
C237 C238 1.396 . S
C237 C244 1.403 . S
C238 C228 1.476 . S
C238 N233 1.318 . S
C238 C237 1.396 . S
H239 C234 0.929 . S
O240 Mn216 2.385 . S
O240 C218 1.234 . S
O241 Mn216 2.209 . S
O241 Mn217 2.215 . S
O241 C218 1.283 . S
O242 Mn216 2.094 . S
O242 C220 1.240 . S
O243 Mn217 2.117 . S
O243 C220 1.264 . S
C244 C237 1.403 . S
C244 C245 1.399 . S
C244 H250 0.929 . S
C245 C225 1.449 . S
C245 C244 1.399 . S
C245 H251 0.930 . S
H246 C226 0.931 . S
H247 C227 0.930 . S
H248 C235 0.931 . S
H249 C236 0.929 . S
H250 C244 0.929 . S
H251 C245 0.930 . S
Mn252 O257 2.095 . S
Mn252 O267 2.162 . S
Mn252 O268 2.297 . S
Mn252 O276 2.385 . S
Mn252 O277 2.209 . S
Mn252 O278 2.094 . S
Mn253 O258 2.121 . S
Mn253 N260 2.257 . S
Mn253 N269 2.282 . S
Mn253 O277 2.215 . S
Mn253 O279 2.117 . S
C254 O276 1.234 . S
C254 O277 1.283 . S
C255 O267 1.281 . S
C255 O268 1.236 . S
C256 O278 1.240 . S
C256 O279 1.264 . S
O257 Mn252 2.095 . S
O257 C266 1.250 . S
O258 Mn253 2.121 . S
O258 C266 1.258 . S
C259 N260 1.326 . S
C259 C263 1.460 . S
C259 H265 0.929 . S
N260 Mn253 2.257 . S
N260 C259 1.326 . S
N260 C264 1.362 . S
C261 C262 1.258 . S
C261 C264 1.431 . S
C261 C281 1.449 . S
C262 C261 1.258 . S
C262 C263 1.477 . S
C262 H282 0.931 . S
C263 C259 1.460 . S
C263 C262 1.477 . S
C263 H283 0.930 . S
C264 N260 1.362 . S
C264 C261 1.431 . S
C264 C274 1.476 . S
H265 C259 0.929 . S
C266 O257 1.250 . S
C266 O258 1.258 . S
O267 Mn252 2.162 . S
O267 C255 1.281 . S
O268 Mn252 2.297 . S
O268 C255 1.236 . S
N269 Mn253 2.282 . S
N269 C270 1.328 . S
N269 C274 1.318 . S
C270 N269 1.328 . S
C270 C271 1.457 . S
C270 H275 0.929 . S
C271 C270 1.457 . S
C271 C272 1.291 . S
C271 H284 0.931 . S
C272 C271 1.291 . S
C272 C273 1.373 . S
C272 H285 0.929 . S
C273 C272 1.373 . S
C273 C274 1.396 . S
C273 C280 1.403 . S
C274 C264 1.476 . S
C274 N269 1.318 . S
C274 C273 1.396 . S
H275 C270 0.929 . S
O276 Mn252 2.385 . S
O276 C254 1.234 . S
O277 Mn252 2.209 . S
O277 Mn253 2.215 . S
O277 C254 1.283 . S
O278 Mn252 2.094 . S
O278 C256 1.240 . S
O279 Mn253 2.117 . S
O279 C256 1.264 . S
C280 C273 1.403 . S
C280 C281 1.399 . S
C280 H286 0.929 . S
C281 C261 1.449 . S
C281 C280 1.399 . S
C281 H287 0.930 . S
H282 C262 0.931 . S
H283 C263 0.930 . S
H284 C271 0.931 . S
H285 C272 0.929 . S
H286 C280 0.929 . S
H287 C281 0.930 . S
Mn288 O293 2.095 . S
Mn288 O303 2.162 . S
Mn288 O304 2.297 . S
Mn288 O312 2.385 . S
Mn288 O313 2.209 . S
Mn288 O314 2.094 . S
Mn289 O294 2.121 . S
Mn289 N296 2.257 . S
Mn289 N305 2.282 . S
Mn289 O313 2.215 . S
Mn289 O315 2.117 . S
C290 O312 1.234 . S
C290 O313 1.283 . S
C291 O303 1.281 . S
C291 O304 1.236 . S
C292 O314 1.240 . S
C292 O315 1.264 . S
O293 Mn288 2.095 . S
O293 C302 1.250 . S
O294 Mn289 2.121 . S
O294 C302 1.258 . S
C295 N296 1.326 . S
C295 C299 1.460 . S
C295 H301 0.929 . S
N296 Mn289 2.257 . S
N296 C295 1.326 . S
N296 C300 1.362 . S
C297 C298 1.258 . S
C297 C300 1.431 . S
C297 C317 1.449 . S
C298 C297 1.258 . S
C298 C299 1.477 . S
C298 H318 0.931 . S
C299 C295 1.460 . S
C299 C298 1.477 . S
C299 H319 0.930 . S
C300 N296 1.362 . S
C300 C297 1.431 . S
C300 C310 1.476 . S
H301 C295 0.929 . S
C302 O293 1.250 . S
C302 O294 1.258 . S
O303 Mn288 2.162 . S
O303 C291 1.281 . S
O304 Mn288 2.297 . S
O304 C291 1.236 . S
N305 Mn289 2.282 . S
N305 C306 1.328 . S
N305 C310 1.318 . S
C306 N305 1.328 . S
C306 C307 1.457 . S
C306 H311 0.929 . S
C307 C306 1.457 . S
C307 C308 1.291 . S
C307 H320 0.931 . S
C308 C307 1.291 . S
C308 C309 1.373 . S
C308 H321 0.929 . S
C309 C308 1.373 . S
C309 C310 1.396 . S
C309 C316 1.403 . S
C310 C300 1.476 . S
C310 N305 1.318 . S
C310 C309 1.396 . S
H311 C306 0.929 . S
O312 Mn288 2.385 . S
O312 C290 1.234 . S
O313 Mn288 2.209 . S
O313 Mn289 2.215 . S
O313 C290 1.283 . S
O314 Mn288 2.094 . S
O314 C292 1.240 . S
O315 Mn289 2.117 . S
O315 C292 1.264 . S
C316 C309 1.403 . S
C316 C317 1.399 . S
C316 H322 0.929 . S
C317 C297 1.449 . S
C317 C316 1.399 . S
C317 H323 0.930 . S
H318 C298 0.931 . S
H319 C299 0.930 . S
H320 C307 0.931 . S
H321 C308 0.929 . S
H322 C316 0.929 . S
H323 C317 0.930 . S
Mn324 O329 2.095 . S
Mn324 O339 2.162 . S
Mn324 O340 2.297 . S
Mn324 O348 2.385 . S
Mn324 O349 2.209 . S
Mn324 O350 2.094 . S
Mn325 O330 2.121 . S
Mn325 N332 2.257 . S
Mn325 N341 2.282 . S
Mn325 O349 2.215 . S
Mn325 O351 2.117 . S
C326 O348 1.234 . S
C326 O349 1.283 . S
C327 O339 1.281 . S
C327 O340 1.236 . S
C328 O350 1.240 . S
C328 O351 1.264 . S
O329 Mn324 2.095 . S
O329 C338 1.250 . S
O330 Mn325 2.121 . S
O330 C338 1.258 . S
C331 N332 1.326 . S
C331 C335 1.460 . S
C331 H337 0.929 . S
N332 Mn325 2.257 . S
N332 C331 1.326 . S
N332 C336 1.362 . S
C333 C334 1.258 . S
C333 C336 1.431 . S
C333 C353 1.449 . S
C334 C333 1.258 . S
C334 C335 1.477 . S
C334 H354 0.931 . S
C335 C331 1.460 . S
C335 C334 1.477 . S
C335 H355 0.930 . S
C336 N332 1.362 . S
C336 C333 1.431 . S
C336 C346 1.476 . S
H337 C331 0.929 . S
C338 O329 1.250 . S
C338 O330 1.258 . S
O339 Mn324 2.162 . S
O339 C327 1.281 . S
O340 Mn324 2.297 . S
O340 C327 1.236 . S
N341 Mn325 2.282 . S
N341 C342 1.328 . S
N341 C346 1.318 . S
C342 N341 1.328 . S
C342 C343 1.457 . S
C342 H347 0.929 . S
C343 C342 1.457 . S
C343 C344 1.291 . S
C343 H356 0.931 . S
C344 C343 1.291 . S
C344 C345 1.373 . S
C344 H357 0.929 . S
C345 C344 1.373 . S
C345 C346 1.396 . S
C345 C352 1.403 . S
C346 C336 1.476 . S
C346 N341 1.318 . S
C346 C345 1.396 . S
H347 C342 0.929 . S
O348 Mn324 2.385 . S
O348 C326 1.234 . S
O349 Mn324 2.209 . S
O349 Mn325 2.215 . S
O349 C326 1.283 . S
O350 Mn324 2.094 . S
O350 C328 1.240 . S
O351 Mn325 2.117 . S
O351 C328 1.264 . S
C352 C345 1.403 . S
C352 C353 1.399 . S
C352 H358 0.929 . S
C353 C333 1.449 . S
C353 C352 1.399 . S
C353 H359 0.930 . S
H354 C334 0.931 . S
H355 C335 0.930 . S
H356 C343 0.931 . S
H357 C344 0.929 . S
H358 C352 0.929 . S
H359 C353 0.930 . S
Mn360 O365 2.095 . S
Mn360 O375 2.162 . S
Mn360 O376 2.297 . S
Mn360 O384 2.385 . S
Mn360 O385 2.209 . S
Mn360 O386 2.094 . S
Mn361 O366 2.121 . S
Mn361 N368 2.257 . S
Mn361 N377 2.282 . S
Mn361 O385 2.215 . S
Mn361 O387 2.117 . S
C362 O384 1.234 . S
C362 O385 1.283 . S
C363 O375 1.281 . S
C363 O376 1.236 . S
C364 O386 1.240 . S
C364 O387 1.264 . S
O365 Mn360 2.095 . S
O365 C374 1.250 . S
O366 Mn361 2.121 . S
O366 C374 1.258 . S
C367 N368 1.326 . S
C367 C371 1.460 . S
C367 H373 0.929 . S
N368 Mn361 2.257 . S
N368 C367 1.326 . S
N368 C372 1.362 . S
C369 C370 1.258 . S
C369 C372 1.431 . S
C369 C389 1.449 . S
C370 C369 1.258 . S
C370 C371 1.477 . S
C370 H390 0.931 . S
C371 C367 1.460 . S
C371 C370 1.477 . S
C371 H391 0.930 . S
C372 N368 1.362 . S
C372 C369 1.431 . S
C372 C382 1.476 . S
H373 C367 0.929 . S
C374 O365 1.250 . S
C374 O366 1.258 . S
O375 Mn360 2.162 . S
O375 C363 1.281 . S
O376 Mn360 2.297 . S
O376 C363 1.236 . S
N377 Mn361 2.282 . S
N377 C378 1.328 . S
N377 C382 1.318 . S
C378 N377 1.328 . S
C378 C379 1.457 . S
C378 H383 0.929 . S
C379 C378 1.457 . S
C379 C380 1.291 . S
C379 H392 0.931 . S
C380 C379 1.291 . S
C380 C381 1.373 . S
C380 H393 0.929 . S
C381 C380 1.373 . S
C381 C382 1.396 . S
C381 C388 1.403 . S
C382 C372 1.476 . S
C382 N377 1.318 . S
C382 C381 1.396 . S
H383 C378 0.929 . S
O384 Mn360 2.385 . S
O384 C362 1.234 . S
O385 Mn360 2.209 . S
O385 Mn361 2.215 . S
O385 C362 1.283 . S
O386 Mn360 2.094 . S
O386 C364 1.240 . S
O387 Mn361 2.117 . S
O387 C364 1.264 . S
C388 C381 1.403 . S
C388 C389 1.399 . S
C388 H394 0.929 . S
C389 C369 1.449 . S
C389 C388 1.399 . S
C389 H395 0.930 . S
H390 C370 0.931 . S
H391 C371 0.930 . S
H392 C379 0.931 . S
H393 C380 0.929 . S
H394 C388 0.929 . S
H395 C389 0.930 . S
Mn396 O401 2.095 . S
Mn396 O411 2.162 . S
Mn396 O412 2.297 . S
Mn396 O420 2.385 . S
Mn396 O421 2.209 . S
Mn396 O422 2.094 . S
Mn397 O402 2.121 . S
Mn397 N404 2.257 . S
Mn397 N413 2.282 . S
Mn397 O421 2.215 . S
Mn397 O423 2.117 . S
C398 O420 1.234 . S
C398 O421 1.283 . S
C399 O411 1.281 . S
C399 O412 1.236 . S
C400 O422 1.240 . S
C400 O423 1.264 . S
O401 Mn396 2.095 . S
O401 C410 1.250 . S
O402 Mn397 2.121 . S
O402 C410 1.258 . S
C403 N404 1.326 . S
C403 C407 1.460 . S
C403 H409 0.929 . S
N404 Mn397 2.257 . S
N404 C403 1.326 . S
N404 C408 1.362 . S
C405 C406 1.258 . S
C405 C408 1.431 . S
C405 C425 1.449 . S
C406 C405 1.258 . S
C406 C407 1.477 . S
C406 H426 0.931 . S
C407 C403 1.460 . S
C407 C406 1.477 . S
C407 H427 0.930 . S
C408 N404 1.362 . S
C408 C405 1.431 . S
C408 C418 1.476 . S
H409 C403 0.929 . S
C410 O401 1.250 . S
C410 O402 1.258 . S
O411 Mn396 2.162 . S
O411 C399 1.281 . S
O412 Mn396 2.297 . S
O412 C399 1.236 . S
N413 Mn397 2.282 . S
N413 C414 1.328 . S
N413 C418 1.318 . S
C414 N413 1.328 . S
C414 C415 1.457 . S
C414 H419 0.929 . S
C415 C414 1.457 . S
C415 C416 1.291 . S
C415 H428 0.931 . S
C416 C415 1.291 . S
C416 C417 1.373 . S
C416 H429 0.929 . S
C417 C416 1.373 . S
C417 C418 1.396 . S
C417 C424 1.403 . S
C418 C408 1.476 . S
C418 N413 1.318 . S
C418 C417 1.396 . S
H419 C414 0.929 . S
O420 Mn396 2.385 . S
O420 C398 1.234 . S
O421 Mn396 2.209 . S
O421 Mn397 2.215 . S
O421 C398 1.283 . S
O422 Mn396 2.094 . S
O422 C400 1.240 . S
O423 Mn397 2.117 . S
O423 C400 1.264 . S
C424 C417 1.403 . S
C424 C425 1.399 . S
C424 H430 0.929 . S
C425 C405 1.449 . S
C425 C424 1.399 . S
C425 H431 0.930 . S
H426 C406 0.931 . S
H427 C407 0.930 . S
H428 C415 0.931 . S
H429 C416 0.929 . S
H430 C424 0.929 . S
H431 C425 0.930 . S
H432 C440 0.929 . S
H433 C442 0.930 1_554 S
H434 C444 0.930 . S
H435 C447 0.929 . S
H436 C450 0.930 . S
H437 C452 0.960 1_545 S
H438 C452 0.960 . S
H439 C452 0.960 . S
C440 H432 0.929 . S
C440 C441 1.377 . S
C440 C442 1.384 . S
C441 C440 1.377 . S
C441 C447 1.390 . S
C442 H433 0.930 1_556 S
C442 C440 1.384 . S
C442 C443 1.372 . S
C443 C442 1.372 . S
C443 C444 1.400 . S
C443 C448 1.490 . S
C444 H434 0.930 . S
C444 C443 1.400 . S
C444 C447 1.386 . S
H445 C461 0.930 . S
H446 C462 0.931 1_556 S
C447 H435 0.929 . S
C447 C441 1.390 . S
C447 C444 1.386 . S
C448 C443 1.490 . S
C448 C450 1.395 1_556 S
C448 C451 1.403 . S
H449 C455 0.930 . S
C450 H436 0.930 . S
C450 C448 1.395 1_554 S
C450 C453 1.403 1_565 S
C451 C448 1.403 . S
C451 C452 1.524 . S
C451 C455 1.400 1_565 S
C452 H437 0.960 1_565 S
C452 H438 0.960 . S
C452 H439 0.960 . S
C452 C451 1.524 . S
C453 C450 1.403 1_545 S
C453 C454 1.392 . S
C453 C457 1.495 . S
C454 C453 1.392 . S
C454 C455 1.385 1_554 S
C454 C456 1.478 . S
C455 H449 0.930 . S
C455 C451 1.400 1_545 S
C455 C454 1.385 1_556 S
C456 C454 1.478 . S
C456 C458 1.381 . S
C456 C462 1.383 . S
C457 C453 1.495 . S
C457 H463 0.959 1_545 S
C457 H464 0.961 . S
C457 H465 0.960 . S
C458 C456 1.381 . S
C458 C459 1.394 . S
C458 H466 0.930 . S
C459 C458 1.394 . S
C459 C460 1.383 . S
C459 H467 0.929 . S
C460 C459 1.383 . S
C460 C461 1.377 . S
C461 H445 0.930 . S
C461 C460 1.377 . S
C461 C462 1.379 . S
C462 H446 0.931 1_554 S
C462 C456 1.383 . S
C462 C461 1.379 . S
H463 C457 0.959 1_565 S
H464 C457 0.961 . S
H465 C457 0.960 . S
H466 C458 0.930 . S
H467 C459 0.929 . S
H468 C476 0.929 . S
H469 C478 0.930 . S
H470 C480 0.930 . S
H471 C483 0.929 . S
H472 C486 0.930 . S
H473 C488 0.960 . S
H474 C488 0.960 . S
H475 C488 0.960 . S
C476 H468 0.929 . S
C476 C477 1.377 . S
C476 C478 1.384 . S
C477 C476 1.377 . S
C477 C483 1.390 . S
C478 H469 0.930 . S
C478 C476 1.384 . S
C478 C479 1.372 . S
C479 C478 1.372 . S
C479 C480 1.400 . S
C479 C484 1.490 . S
C480 H470 0.930 . S
C480 C479 1.400 . S
C480 C483 1.386 . S
H481 C497 0.930 . S
H482 C498 0.931 . S
C483 H471 0.929 . S
C483 C477 1.390 . S
C483 C480 1.386 . S
C484 C479 1.490 . S
C484 C486 1.395 . S
C484 C487 1.403 . S
H485 C491 0.930 . S
C486 H472 0.930 . S
C486 C484 1.395 . S
C486 C489 1.403 . S
C487 C484 1.403 . S
C487 C488 1.524 . S
C487 C491 1.400 . S
C488 H473 0.960 . S
C488 H474 0.960 . S
C488 H475 0.960 . S
C488 C487 1.524 . S
C489 C486 1.403 . S
C489 C490 1.392 . S
C489 C493 1.495 . S
C490 C489 1.392 . S
C490 C491 1.385 . S
C490 C492 1.478 . S
C491 H485 0.930 . S
C491 C487 1.400 . S
C491 C490 1.385 . S
C492 C490 1.478 . S
C492 C494 1.381 . S
C492 C498 1.383 . S
C493 C489 1.495 . S
C493 H499 0.959 . S
C493 H500 0.961 . S
C493 H501 0.960 . S
C494 C492 1.381 . S
C494 C495 1.394 . S
C494 H502 0.930 . S
C495 C494 1.394 . S
C495 C496 1.383 . S
C495 H503 0.929 . S
C496 C495 1.383 . S
C496 C497 1.377 . S
C497 H481 0.930 . S
C497 C496 1.377 . S
C497 C498 1.379 . S
C498 H482 0.931 . S
C498 C492 1.383 . S
C498 C497 1.379 . S
H499 C493 0.959 . S
H500 C493 0.961 . S
H501 C493 0.960 . S
H502 C494 0.930 . S
H503 C495 0.929 . S
H504 C512 0.929 . S
H505 C514 0.930 . S
H506 C516 0.930 . S
H507 C519 0.929 . S
H508 C522 0.930 . S
H509 C524 0.960 . S
H510 C524 0.960 . S
H511 C524 0.960 . S
C512 H504 0.929 . S
C512 C513 1.377 . S
C512 C514 1.384 . S
C513 C512 1.377 . S
C513 C519 1.390 . S
C514 H505 0.930 . S
C514 C512 1.384 . S
C514 C515 1.372 . S
C515 C514 1.372 . S
C515 C516 1.400 . S
C515 C520 1.490 . S
C516 H506 0.930 . S
C516 C515 1.400 . S
C516 C519 1.386 . S
H517 C533 0.930 . S
H518 C534 0.931 . S
C519 H507 0.929 . S
C519 C513 1.390 . S
C519 C516 1.386 . S
C520 C515 1.490 . S
C520 C522 1.395 . S
C520 C523 1.403 . S
H521 C527 0.930 . S
C522 H508 0.930 . S
C522 C520 1.395 . S
C522 C525 1.403 1_655 S
C523 C520 1.403 . S
C523 C524 1.524 . S
C523 C527 1.400 1_655 S
C524 H509 0.960 . S
C524 H510 0.960 . S
C524 H511 0.960 . S
C524 C523 1.524 . S
C525 C522 1.403 1_455 S
C525 C526 1.392 . S
C525 C529 1.495 . S
C526 C525 1.392 . S
C526 C527 1.385 . S
C526 C528 1.478 . S
C527 H521 0.930 . S
C527 C523 1.400 1_455 S
C527 C526 1.385 . S
C528 C526 1.478 . S
C528 C530 1.381 . S
C528 C534 1.383 . S
C529 C525 1.495 . S
C529 H535 0.959 . S
C529 H536 0.961 . S
C529 H537 0.960 . S
C530 C528 1.381 . S
C530 C531 1.394 . S
C530 H538 0.930 . S
C531 C530 1.394 . S
C531 C532 1.383 . S
C531 H539 0.929 . S
C532 C531 1.383 . S
C532 C533 1.377 . S
C533 H517 0.930 . S
C533 C532 1.377 . S
C533 C534 1.379 . S
C534 H518 0.931 . S
C534 C528 1.383 . S
C534 C533 1.379 . S
H535 C529 0.959 . S
H536 C529 0.961 . S
H537 C529 0.960 . S
H538 C530 0.930 . S
H539 C531 0.929 . S
H540 C548 0.929 . S
H541 C550 0.930 . S
H542 C552 0.930 . S
H543 C555 0.929 . S
H544 C558 0.930 . S
H545 C560 0.960 1_545 S
H546 C560 0.960 . S
H547 C560 0.960 . S
C548 H540 0.929 . S
C548 C549 1.377 . S
C548 C550 1.384 . S
C549 C548 1.377 . S
C549 C555 1.390 . S
C550 H541 0.930 . S
C550 C548 1.384 . S
C550 C551 1.372 . S
C551 C550 1.372 . S
C551 C552 1.400 . S
C551 C556 1.490 . S
C552 H542 0.930 . S
C552 C551 1.400 . S
C552 C555 1.386 . S
H553 C569 0.930 . S
H554 C570 0.931 . S
C555 H543 0.929 . S
C555 C549 1.390 . S
C555 C552 1.386 . S
C556 C551 1.490 . S
C556 C558 1.395 1_554 S
C556 C559 1.403 . S
H557 C563 0.930 . S
C558 H544 0.930 . S
C558 C556 1.395 1_556 S
C558 C561 1.403 1_565 S
C559 C556 1.403 . S
C559 C560 1.524 . S
C559 C563 1.400 1_565 S
C560 H545 0.960 1_565 S
C560 H546 0.960 . S
C560 H547 0.960 . S
C560 C559 1.524 . S
C561 C558 1.403 1_545 S
C561 C562 1.392 . S
C561 C565 1.495 . S
C562 C561 1.392 . S
C562 C563 1.385 1_556 S
C562 C564 1.478 . S
C563 H557 0.930 . S
C563 C559 1.400 1_545 S
C563 C562 1.385 1_554 S
C564 C562 1.478 . S
C564 C566 1.381 . S
C564 C570 1.383 . S
C565 C561 1.495 . S
C565 H571 0.959 1_545 S
C565 H572 0.961 . S
C565 H573 0.960 . S
C566 C564 1.381 . S
C566 C567 1.394 . S
C566 H574 0.930 . S
C567 C566 1.394 . S
C567 C568 1.383 . S
C567 H575 0.929 . S
C568 C567 1.383 . S
C568 C569 1.377 . S
C569 H553 0.930 . S
C569 C568 1.377 . S
C569 C570 1.379 . S
C570 H554 0.931 . S
C570 C564 1.383 . S
C570 C569 1.379 . S
H571 C565 0.959 1_565 S
H572 C565 0.961 . S
H573 C565 0.960 . S
H574 C566 0.930 . S
H575 C567 0.929 . S
H576 C584 0.929 . S
H577 C586 0.930 . S
H578 C588 0.930 . S
H579 C591 0.929 . S
H580 C594 0.930 . S
H581 C596 0.960 . S
H582 C596 0.960 . S
H583 C596 0.960 . S
C584 H576 0.929 . S
C584 C585 1.377 . S
C584 C586 1.384 . S
C585 C584 1.377 . S
C585 C591 1.390 . S
C586 H577 0.930 . S
C586 C584 1.384 . S
C586 C587 1.372 . S
C587 C586 1.372 . S
C587 C588 1.400 . S
C587 C592 1.490 . S
C588 H578 0.930 . S
C588 C587 1.400 . S
C588 C591 1.386 . S
H589 C605 0.930 . S
H590 C606 0.931 . S
C591 H579 0.929 . S
C591 C585 1.390 . S
C591 C588 1.386 . S
C592 C587 1.490 . S
C592 C594 1.395 . S
C592 C595 1.403 . S
H593 C599 0.930 . S
C594 H580 0.930 . S
C594 C592 1.395 . S
C594 C597 1.403 . S
C595 C592 1.403 . S
C595 C596 1.524 . S
C595 C599 1.400 . S
C596 H581 0.960 . S
C596 H582 0.960 . S
C596 H583 0.960 . S
C596 C595 1.524 . S
C597 C594 1.403 . S
C597 C598 1.392 . S
C597 C601 1.495 . S
C598 C597 1.392 . S
C598 C599 1.385 . S
C598 C600 1.478 . S
C599 H593 0.930 . S
C599 C595 1.400 . S
C599 C598 1.385 . S
C600 C598 1.478 . S
C600 C602 1.381 . S
C600 C606 1.383 . S
C601 C597 1.495 . S
C601 H607 0.959 . S
C601 H608 0.961 . S
C601 H609 0.960 . S
C602 C600 1.381 . S
C602 C603 1.394 . S
C602 H610 0.930 . S
C603 C602 1.394 . S
C603 C604 1.383 . S
C603 H611 0.929 . S
C604 C603 1.383 . S
C604 C605 1.377 . S
C605 H589 0.930 . S
C605 C604 1.377 . S
C605 C606 1.379 . S
C606 H590 0.931 . S
C606 C600 1.383 . S
C606 C605 1.379 . S
H607 C601 0.959 . S
H608 C601 0.961 . S
H609 C601 0.960 . S
H610 C602 0.930 . S
H611 C603 0.929 . S
H612 C620 0.929 . S
H613 C622 0.930 . S
H614 C624 0.930 . S
H615 C627 0.929 . S
H616 C630 0.930 . S
H617 C632 0.960 1_455 S
H618 C632 0.960 . S
H619 C632 0.960 . S
C620 H612 0.929 . S
C620 C621 1.377 . S
C620 C622 1.384 . S
C621 C620 1.377 . S
C621 C627 1.390 . S
C622 H613 0.930 . S
C622 C620 1.384 . S
C622 C623 1.372 . S
C623 C622 1.372 . S
C623 C624 1.400 . S
C623 C628 1.490 . S
C624 H614 0.930 . S
C624 C623 1.400 . S
C624 C627 1.386 . S
H625 C641 0.930 . S
H626 C642 0.931 . S
C627 H615 0.929 . S
C627 C621 1.390 . S
C627 C624 1.386 . S
C628 C623 1.490 . S
C628 C630 1.395 . S
C628 C631 1.403 . S
H629 C635 0.930 . S
C630 H616 0.930 . S
C630 C628 1.395 . S
C630 C633 1.403 1_655 S
C631 C628 1.403 . S
C631 C632 1.524 . S
C631 C635 1.400 1_655 S
C632 H617 0.960 1_655 S
C632 H618 0.960 . S
C632 H619 0.960 . S
C632 C631 1.524 . S
C633 C630 1.403 1_455 S
C633 C634 1.392 . S
C633 C637 1.495 . S
C634 C633 1.392 . S
C634 C635 1.385 . S
C634 C636 1.478 . S
C635 H629 0.930 . S
C635 C631 1.400 1_455 S
C635 C634 1.385 . S
C636 C634 1.478 . S
C636 C638 1.381 . S
C636 C642 1.383 . S
C637 C633 1.495 . S
C637 H643 0.959 1_455 S
C637 H644 0.961 . S
C637 H645 0.960 . S
C638 C636 1.381 . S
C638 C639 1.394 . S
C638 H646 0.930 . S
C639 C638 1.394 . S
C639 C640 1.383 . S
C639 H647 0.929 . S
C640 C639 1.383 . S
C640 C641 1.377 . S
C641 H625 0.930 . S
C641 C640 1.377 . S
C641 C642 1.379 . S
C642 H626 0.931 . S
C642 C636 1.383 . S
C642 C641 1.379 . S
H643 C637 0.959 1_655 S
H644 C637 0.961 . S
H645 C637 0.960 . S
H646 C638 0.930 . S
H647 C639 0.929 . S
H648 C656 0.929 . S
H649 C658 0.930 . S
H650 C660 0.930 1_554 S
H651 C663 0.929 . S
H652 C666 0.930 . S
H653 C668 0.960 . S
H654 C668 0.960 . S
H655 C668 0.960 . S
C656 H648 0.929 . S
C656 C657 1.377 . S
C656 C658 1.384 . S
C657 C656 1.377 . S
C657 C663 1.390 . S
C658 H649 0.930 . S
C658 C656 1.384 . S
C658 C659 1.372 . S
C659 C658 1.372 . S
C659 C660 1.400 . S
C659 C664 1.490 . S
C660 H650 0.930 1_556 S
C660 C659 1.400 . S
C660 C663 1.386 . S
H661 C677 0.930 . S
H662 C678 0.931 . S
C663 H651 0.929 . S
C663 C657 1.390 . S
C663 C660 1.386 . S
C664 C659 1.490 . S
C664 C666 1.395 . S
C664 C667 1.403 1_556 S
H665 C671 0.930 . S
C666 H652 0.930 . S
C666 C664 1.395 . S
C666 C669 1.403 . S
C667 C664 1.403 1_554 S
C667 C668 1.524 . S
C667 C671 1.400 . S
C668 H653 0.960 . S
C668 H654 0.960 . S
C668 H655 0.960 . S
C668 C667 1.524 . S
C669 C666 1.403 . S
C669 C670 1.392 1_556 S
C669 C673 1.495 . S
C670 C669 1.392 1_554 S
C670 C671 1.385 . S
C670 C672 1.478 . S
C671 H665 0.930 . S
C671 C667 1.400 . S
C671 C670 1.385 . S
C672 C670 1.478 . S
C672 C674 1.381 . S
C672 C678 1.383 . S
C673 C669 1.495 . S
C673 H679 0.959 . S
C673 H680 0.961 . S
C673 H681 0.960 . S
C674 C672 1.381 . S
C674 C675 1.394 . S
C674 H682 0.930 1_554 S
C675 C674 1.394 . S
C675 C676 1.383 . S
C675 H683 0.929 . S
C676 C675 1.383 . S
C676 C677 1.377 . S
C677 H661 0.930 . S
C677 C676 1.377 . S
C677 C678 1.379 . S
C678 H662 0.931 . S
C678 C672 1.383 . S
C678 C677 1.379 . S
H679 C673 0.959 . S
H680 C673 0.961 . S
H681 C673 0.960 . S
H682 C674 0.930 1_556 S
H683 C675 0.929 . S
H684 C692 0.929 . S
H685 C694 0.930 . S
H686 C696 0.930 . S
H687 C699 0.929 . S
H688 C702 0.930 . S
H689 C704 0.960 . S
H690 C704 0.960 . S
H691 C704 0.960 . S
C692 H684 0.929 . S
C692 C693 1.377 . S
C692 C694 1.384 . S
C693 C692 1.377 . S
C693 C699 1.390 . S
C694 H685 0.930 . S
C694 C692 1.384 . S
C694 C695 1.372 . S
C695 C694 1.372 . S
C695 C696 1.400 . S
C695 C700 1.490 . S
C696 H686 0.930 . S
C696 C695 1.400 . S
C696 C699 1.386 . S
H697 C713 0.930 . S
H698 C714 0.931 . S
C699 H687 0.929 . S
C699 C693 1.390 . S
C699 C696 1.386 . S
C700 C695 1.490 . S
C700 C702 1.395 . S
C700 C703 1.403 . S
H701 C707 0.930 . S
C702 H688 0.930 . S
C702 C700 1.395 . S
C702 C705 1.403 . S
C703 C700 1.403 . S
C703 C704 1.524 . S
C703 C707 1.400 . S
C704 H689 0.960 . S
C704 H690 0.960 . S
C704 H691 0.960 . S
C704 C703 1.524 . S
C705 C702 1.403 . S
C705 C706 1.392 . S
C705 C709 1.495 . S
C706 C705 1.392 . S
C706 C707 1.385 . S
C706 C708 1.478 . S
C707 H701 0.930 . S
C707 C703 1.400 . S
C707 C706 1.385 . S
C708 C706 1.478 . S
C708 C710 1.381 . S
C708 C714 1.383 . S
C709 C705 1.495 . S
C709 H715 0.959 . S
C709 H716 0.961 . S
C709 H717 0.960 . S
C710 C708 1.381 . S
C710 C711 1.394 . S
C710 H718 0.930 . S
C711 C710 1.394 . S
C711 C712 1.383 . S
C711 H719 0.929 . S
C712 C711 1.383 . S
C712 C713 1.377 . S
C713 H697 0.930 . S
C713 C712 1.377 . S
C713 C714 1.379 . S
C714 H698 0.931 . S
C714 C708 1.383 . S
C714 C713 1.379 . S
H715 C709 0.959 . S
H716 C709 0.961 . S
H717 C709 0.960 . S
H718 C710 0.930 . S
H719 C711 0.929 . S
H720 C728 0.929 . S
H721 C730 0.930 . S
H722 C732 0.930 . S
H723 C735 0.929 . S
H724 C738 0.930 . S
H725 C740 0.960 . S
H726 C740 0.960 . S
H727 C740 0.960 . S
C728 H720 0.929 . S
C728 C729 1.377 . S
C728 C730 1.384 . S
C729 C728 1.377 . S
C729 C735 1.390 . S
C730 H721 0.930 . S
C730 C728 1.384 . S
C730 C731 1.372 . S
C731 C730 1.372 . S
C731 C732 1.400 . S
C731 C736 1.490 . S
C732 H722 0.930 . S
C732 C731 1.400 . S
C732 C735 1.386 . S
H733 C749 0.930 . S
H734 C750 0.931 . S
C735 H723 0.929 . S
C735 C729 1.390 . S
C735 C732 1.386 . S
C736 C731 1.490 . S
C736 C738 1.395 . S
C736 C739 1.403 . S
H737 C743 0.930 . S
C738 H724 0.930 . S
C738 C736 1.395 . S
C738 C741 1.403 . S
C739 C736 1.403 . S
C739 C740 1.524 . S
C739 C743 1.400 . S
C740 H725 0.960 . S
C740 H726 0.960 . S
C740 H727 0.960 . S
C740 C739 1.524 . S
C741 C738 1.403 . S
C741 C742 1.392 . S
C741 C745 1.495 . S
C742 C741 1.392 . S
C742 C743 1.385 . S
C742 C744 1.478 . S
C743 H737 0.930 . S
C743 C739 1.400 . S
C743 C742 1.385 . S
C744 C742 1.478 . S
C744 C746 1.381 . S
C744 C750 1.383 . S
C745 C741 1.495 . S
C745 H751 0.959 . S
C745 H752 0.961 . S
C745 H753 0.960 . S
C746 C744 1.381 . S
C746 C747 1.394 . S
C746 H754 0.930 . S
C747 C746 1.394 . S
C747 C748 1.383 . S
C747 H755 0.929 . S
C748 C747 1.383 . S
C748 C749 1.377 . S
C749 H733 0.930 . S
C749 C748 1.377 . S
C749 C750 1.379 . S
C750 H734 0.931 . S
C750 C744 1.383 . S
C750 C749 1.379 . S
H751 C745 0.959 . S
H752 C745 0.961 . S
H753 C745 0.960 . S
H754 C746 0.930 . S
H755 C747 0.929 . S
H756 C764 0.929 . S
H757 C766 0.930 1_554 S
H758 C768 0.930 . S
H759 C771 0.929 . S
H760 C774 0.937 . S
H761 C776 0.960 . S
H762 C776 0.999 . S
H763 C776 0.960 . S
C764 H756 0.929 . S
C764 C765 1.377 . S
C764 C766 1.384 . S
C765 C764 1.377 . S
C765 C771 1.390 . S
C766 H757 0.930 1_556 S
C766 C764 1.384 . S
C766 C767 1.372 . S
C767 C766 1.372 . S
C767 C768 1.400 . S
C767 C772 1.490 . S
C768 H758 0.930 . S
C768 C767 1.400 . S
C768 C771 1.386 . S
H769 C785 0.930 . S
H770 C786 0.931 1_556 S
C771 H759 0.929 . S
C771 C765 1.390 . S
C771 C768 1.386 . S
C772 C767 1.490 . S
C772 C774 1.411 . S
C772 C775 1.403 . S
H773 C779 0.930 . S
C774 H760 0.937 . S
C774 C772 1.411 . S
C774 C777 1.384 1_556 S
C775 C772 1.403 . S
C775 C776 1.524 . S
C775 C779 1.400 1_556 S
C776 H761 0.960 . S
C776 H762 0.999 . S
C776 H763 0.960 . S
C776 C775 1.524 . S
C777 C774 1.384 1_554 S
C777 C778 1.392 . S
C777 C781 1.495 . S
C778 C777 1.392 . S
C778 C779 1.385 . S
C778 C780 1.478 . S
C779 H773 0.930 . S
C779 C775 1.400 1_554 S
C779 C778 1.385 . S
C780 C778 1.478 . S
C780 C782 1.381 . S
C780 C786 1.383 . S
C781 C777 1.495 . S
C781 H787 0.959 . S
C781 H788 0.961 . S
C781 H789 0.960 . S
C782 C780 1.381 . S
C782 C783 1.394 . S
C782 H790 0.930 . S
C783 C782 1.394 . S
C783 C784 1.383 . S
C783 H791 0.929 . S
C784 C783 1.383 . S
C784 C785 1.377 . S
C785 H769 0.930 . S
C785 C784 1.377 . S
C785 C786 1.379 . S
C786 H770 0.931 1_554 S
C786 C780 1.383 . S
C786 C785 1.379 . S
H787 C781 0.959 . S
H788 C781 0.961 . S
H789 C781 0.960 . S
H790 C782 0.930 . S
H791 C783 0.929 . S
H792 C800 0.929 . S
H793 C802 0.930 . S
H794 C804 0.930 . S
H795 C807 0.929 . S
H796 C810 0.930 . S
H797 C812 0.960 . S
H798 C812 0.960 . S
H799 C812 0.960 . S
C800 H792 0.929 . S
C800 C801 1.377 . S
C800 C802 1.384 . S
C801 C800 1.377 . S
C801 C807 1.390 . S
C802 H793 0.930 . S
C802 C800 1.384 . S
C802 C803 1.372 . S
C803 C802 1.372 . S
C803 C804 1.400 . S
C803 C808 1.490 . S
C804 H794 0.930 . S
C804 C803 1.400 . S
C804 C807 1.386 . S
H805 C821 0.930 . S
H806 C822 0.931 . S
C807 H795 0.929 . S
C807 C801 1.390 . S
C807 C804 1.386 . S
C808 C803 1.490 . S
C808 C810 1.395 . S
C808 C811 1.403 . S
H809 C815 0.930 . S
C810 H796 0.930 . S
C810 C808 1.395 . S
C810 C813 1.403 . S
C811 C808 1.403 . S
C811 C812 1.524 . S
C811 C815 1.400 . S
C812 H797 0.960 . S
C812 H798 0.960 . S
C812 H799 0.960 . S
C812 C811 1.524 . S
C813 C810 1.403 . S
C813 C814 1.392 . S
C813 C817 1.495 . S
C814 C813 1.392 . S
C814 C815 1.385 . S
C814 C816 1.478 . S
C815 H809 0.930 . S
C815 C811 1.400 . S
C815 C814 1.385 . S
C816 C814 1.478 . S
C816 C818 1.381 . S
C816 C822 1.383 . S
C817 C813 1.495 . S
C817 H823 0.959 . S
C817 H824 0.961 . S
C817 H825 0.960 . S
C818 C816 1.381 . S
C818 C819 1.394 . S
C818 H826 0.930 . S
C819 C818 1.394 . S
C819 C820 1.383 . S
C819 H827 0.929 . S
C820 C819 1.383 . S
C820 C821 1.377 . S
C821 H805 0.930 . S
C821 C820 1.377 . S
C821 C822 1.379 . S
C822 H806 0.931 . S
C822 C816 1.383 . S
C822 C821 1.379 . S
H823 C817 0.959 . S
H824 C817 0.961 . S
H825 C817 0.960 . S
H826 C818 0.930 . S
H827 C819 0.929 . S
H828 C836 0.929 . S
H829 C838 0.930 . S
H830 C840 0.930 . S
H831 C843 0.929 . S
H832 C846 0.930 . S
H833 C848 0.960 . S
H834 C848 0.960 . S
H835 C848 0.960 . S
C836 H828 0.929 . S
C836 C837 1.377 . S
C836 C838 1.384 . S
C837 C836 1.377 . S
C837 C843 1.390 . S
C838 H829 0.930 . S
C838 C836 1.384 . S
C838 C839 1.372 . S
C839 C838 1.372 . S
C839 C840 1.400 . S
C839 C844 1.490 . S
C840 H830 0.930 . S
C840 C839 1.400 . S
C840 C843 1.386 . S
H841 C857 0.930 . S
H842 C858 0.931 . S
C843 H831 0.929 . S
C843 C837 1.390 . S
C843 C840 1.386 . S
C844 C839 1.490 . S
C844 C846 1.395 . S
C844 C847 1.403 . S
H845 C851 0.930 . S
C846 H832 0.930 . S
C846 C844 1.395 . S
C846 C849 1.403 . S
C847 C844 1.403 . S
C847 C848 1.524 . S
C847 C851 1.400 . S
C848 H833 0.960 . S
C848 H834 0.960 . S
C848 H835 0.960 . S
C848 C847 1.524 . S
C849 C846 1.403 . S
C849 C850 1.392 . S
C849 C853 1.495 . S
C850 C849 1.392 . S
C850 C851 1.385 . S
C850 C852 1.478 . S
C851 H845 0.930 . S
C851 C847 1.400 . S
C851 C850 1.385 . S
C852 C850 1.478 . S
C852 C854 1.381 . S
C852 C858 1.383 . S
C853 C849 1.495 . S
C853 H859 0.959 . S
C853 H860 0.961 . S
C853 H861 0.960 . S
C854 C852 1.381 . S
C854 C855 1.394 . S
C854 H862 0.930 . S
C855 C854 1.394 . S
C855 C856 1.383 . S
C855 H863 0.929 . S
C856 C855 1.383 . S
C856 C857 1.377 . S
C857 H841 0.930 . S
C857 C856 1.377 . S
C857 C858 1.379 . S
C858 H842 0.931 . S
C858 C852 1.383 . S
C858 C857 1.379 . S
H859 C853 0.959 . S
H860 C853 0.961 . S
H861 C853 0.960 . S
H862 C854 0.930 . S
H863 C855 0.929 . S
H864 C872 0.929 . S
H865 C874 0.930 . S
H866 C876 0.930 . S
H867 C879 0.929 . S
H868 C882 0.930 . S
H869 C884 0.960 . S
H870 C884 0.960 . S
H871 C884 0.960 . S
C872 H864 0.929 . S
C872 C873 1.377 . S
C872 C874 1.384 . S
C873 C872 1.377 . S
C873 C879 1.390 . S
C874 H865 0.930 . S
C874 C872 1.384 . S
C874 C875 1.372 . S
C875 C874 1.372 . S
C875 C876 1.400 . S
C875 C880 1.490 . S
C876 H866 0.930 . S
C876 C875 1.400 . S
C876 C879 1.386 . S
H877 C893 0.930 . S
H878 C894 0.931 . S
C879 H867 0.929 . S
C879 C873 1.390 . S
C879 C876 1.386 . S
C880 C875 1.490 . S
C880 C882 1.395 . S
C880 C883 1.403 . S
H881 C887 0.930 . S
C882 H868 0.930 . S
C882 C880 1.395 . S
C882 C885 1.403 . S
C883 C880 1.403 . S
C883 C884 1.524 . S
C883 C887 1.400 . S
C884 H869 0.960 . S
C884 H870 0.960 . S
C884 H871 0.960 . S
C884 C883 1.524 . S
C885 C882 1.403 . S
C885 C886 1.392 . S
C885 C889 1.495 . S
C886 C885 1.392 . S
C886 C887 1.385 . S
C886 C888 1.478 . S
C887 H881 0.930 . S
C887 C883 1.400 . S
C887 C886 1.385 . S
C888 C886 1.478 . S
C888 C890 1.381 . S
C888 C894 1.383 . S
C889 C885 1.495 . S
C889 H895 0.959 . S
C889 H896 0.961 . S
C889 H897 0.960 . S
C890 C888 1.381 . S
C890 C891 1.394 . S
C890 H898 0.930 . S
C891 C890 1.394 . S
C891 C892 1.383 . S
C891 H899 0.929 . S
C892 C891 1.383 . S
C892 C893 1.377 . S
C893 H877 0.930 . S
C893 C892 1.377 . S
C893 C894 1.379 . S
C894 H878 0.931 . S
C894 C888 1.383 . S
C894 C893 1.379 . S
H895 C889 0.959 . S
H896 C889 0.961 . S
H897 C889 0.960 . S
H898 C890 0.930 . S
H899 C891 0.929 . S
H900 C908 0.929 . S
H901 C910 0.930 . S
H902 C912 0.930 . S
H903 C915 0.929 . S
H904 C918 0.930 . S
H905 C920 0.960 . S
H906 C920 0.960 . S
H907 C920 0.960 . S
C908 H900 0.929 . S
C908 C909 1.377 . S
C908 C910 1.384 . S
C909 C908 1.377 . S
C909 C915 1.390 . S
C910 H901 0.930 . S
C910 C908 1.384 . S
C910 C911 1.372 . S
C911 C910 1.372 . S
C911 C912 1.400 . S
C911 C916 1.490 . S
C912 H902 0.930 . S
C912 C911 1.400 . S
C912 C915 1.386 . S
H913 C929 0.930 . S
H914 C930 0.931 . S
C915 H903 0.929 . S
C915 C909 1.390 . S
C915 C912 1.386 . S
C916 C911 1.490 . S
C916 C918 1.395 . S
C916 C919 1.403 . S
H917 C923 0.930 . S
C918 H904 0.930 . S
C918 C916 1.395 . S
C918 C921 1.403 . S
C919 C916 1.403 . S
C919 C920 1.524 . S
C919 C923 1.400 . S
C920 H905 0.960 . S
C920 H906 0.960 . S
C920 H907 0.960 . S
C920 C919 1.524 . S
C921 C918 1.403 . S
C921 C922 1.392 . S
C921 C925 1.495 . S
C922 C921 1.392 . S
C922 C923 1.385 . S
C922 C924 1.478 . S
C923 H917 0.930 . S
C923 C919 1.400 . S
C923 C922 1.385 . S
C924 C922 1.478 . S
C924 C926 1.381 . S
C924 C930 1.383 . S
C925 C921 1.495 . S
C925 H931 0.959 . S
C925 H932 0.961 . S
C925 H933 0.960 . S
C926 C924 1.381 . S
C926 C927 1.394 . S
C926 H934 0.930 . S
C927 C926 1.394 . S
C927 C928 1.383 . S
C927 H935 0.929 . S
C928 C927 1.383 . S
C928 C929 1.377 . S
C929 H913 0.930 . S
C929 C928 1.377 . S
C929 C930 1.379 . S
C930 H914 0.931 . S
C930 C924 1.383 . S
C930 C929 1.379 . S
H931 C925 0.959 . S
H932 C925 0.961 . S
H933 C925 0.960 . S
H934 C926 0.930 . S
H935 C927 0.929 . S
H936 C944 0.929 . S
H937 C946 0.930 . S
H938 C948 0.930 . S
H939 C951 0.929 . S
H940 C954 0.930 . S
H941 C956 0.960 . S
H942 C956 0.960 . S
H943 C956 0.960 . S
C944 H936 0.929 . S
C944 C945 1.377 . S
C944 C946 1.384 . S
C945 C944 1.377 . S
C945 C951 1.390 . S
C946 H937 0.930 . S
C946 C944 1.384 . S
C946 C947 1.372 . S
C947 C946 1.372 . S
C947 C948 1.400 . S
C947 C952 1.490 . S
C948 H938 0.930 . S
C948 C947 1.400 . S
C948 C951 1.386 . S
H949 C965 0.930 . S
H950 C966 0.931 . S
C951 H939 0.929 . S
C951 C945 1.390 . S
C951 C948 1.386 . S
C952 C947 1.490 . S
C952 C954 1.395 . S
C952 C955 1.403 . S
H953 C959 0.930 . S
C954 H940 0.930 . S
C954 C952 1.395 . S
C954 C957 1.403 . S
C955 C952 1.403 . S
C955 C956 1.524 . S
C955 C959 1.400 . S
C956 H941 0.960 . S
C956 H942 0.960 . S
C956 H943 0.960 . S
C956 C955 1.524 . S
C957 C954 1.403 . S
C957 C958 1.392 . S
C957 C961 1.495 . S
C958 C957 1.392 . S
C958 C959 1.385 . S
C958 C960 1.478 . S
C959 H953 0.930 . S
C959 C955 1.400 . S
C959 C958 1.385 . S
C960 C958 1.478 . S
C960 C962 1.381 . S
C960 C966 1.383 . S
C961 C957 1.495 . S
C961 H967 0.959 . S
C961 H968 0.961 . S
C961 H969 0.960 . S
C962 C960 1.381 . S
C962 C963 1.394 . S
C962 H970 0.930 . S
C963 C962 1.394 . S
C963 C964 1.383 . S
C963 H971 0.929 . S
C964 C963 1.383 . S
C964 C965 1.377 . S
C965 H949 0.930 . S
C965 C964 1.377 . S
C965 C966 1.379 . S
C966 H950 0.931 . S
C966 C960 1.383 . S
C966 C965 1.379 . S
H967 C961 0.959 . S
H968 C961 0.961 . S
H969 C961 0.960 . S
H970 C962 0.930 . S
H971 C963 0.929 . S
H972 C980 0.929 . S
H973 C982 0.930 . S
H974 C984 0.930 . S
H975 C987 0.929 . S
H976 C990 0.930 . S
H977 C992 0.960 . S
H978 C992 0.960 . S
H979 C992 0.960 . S
C980 H972 0.929 . S
C980 C981 1.377 . S
C980 C982 1.384 . S
C981 C980 1.377 . S
C981 C987 1.390 . S
C982 H973 0.930 . S
C982 C980 1.384 . S
C982 C983 1.372 . S
C983 C982 1.372 . S
C983 C984 1.400 . S
C983 C988 1.490 . S
C984 H974 0.930 . S
C984 C983 1.400 . S
C984 C987 1.386 . S
H985 C1001 0.930 . S
H986 C1002 0.931 . S
C987 H975 0.929 . S
C987 C981 1.390 . S
C987 C984 1.386 . S
C988 C983 1.490 . S
C988 C990 1.395 . S
C988 C991 1.403 . S
H989 C995 0.930 . S
C990 H976 0.930 . S
C990 C988 1.395 . S
C990 C993 1.403 . S
C991 C988 1.403 . S
C991 C992 1.524 . S
C991 C995 1.400 . S
C992 H977 0.960 . S
C992 H978 0.960 . S
C992 H979 0.960 . S
C992 C991 1.524 . S
C993 C990 1.403 . S
C993 C994 1.392 . S
C993 C997 1.495 . S
C994 C993 1.392 . S
C994 C995 1.385 . S
C994 C996 1.478 . S
C995 H989 0.930 . S
C995 C991 1.400 . S
C995 C994 1.385 . S
C996 C994 1.478 . S
C996 C998 1.381 . S
C996 C1002 1.383 . S
C997 C993 1.495 . S
C997 H1003 0.959 . S
C997 H1004 0.961 . S
C997 H1005 0.960 . S
C998 C996 1.381 . S
C998 C999 1.394 . S
C998 H1006 0.930 . S
C999 C998 1.394 . S
C999 C1000 1.383 . S
C999 H1007 0.929 . S
C1000 C999 1.383 . S
C1000 C1001 1.377 . S
C1001 H985 0.930 . S
C1001 C1000 1.377 . S
C1001 C1002 1.379 . S
C1002 H986 0.931 . S
C1002 C996 1.383 . S
C1002 C1001 1.379 . S
H1003 C997 0.959 . S
H1004 C997 0.961 . S
H1005 C997 0.960 . S
H1006 C998 0.930 . S
H1007 C999 0.929 . S
H1008 C1016 0.929 . S
H1009 C1018 0.930 . S
H1010 C1020 0.930 . S
H1011 C1023 0.929 . S
H1012 C1026 0.930 . S
H1013 C1028 0.960 . S
H1014 C1028 0.960 . S
H1015 C1028 0.960 . S
C1016 H1008 0.929 . S
C1016 C1017 1.377 . S
C1016 C1018 1.384 . S
C1017 C1016 1.377 . S
C1017 C1023 1.390 . S
C1018 H1009 0.930 . S
C1018 C1016 1.384 . S
C1018 C1019 1.372 . S
C1019 C1018 1.372 . S
C1019 C1020 1.400 . S
C1019 C1024 1.490 . S
C1020 H1010 0.930 . S
C1020 C1019 1.400 . S
C1020 C1023 1.386 . S
H1021 C1037 0.930 . S
H1022 C1038 0.931 . S
C1023 H1011 0.929 . S
C1023 C1017 1.390 . S
C1023 C1020 1.386 . S
C1024 C1019 1.490 . S
C1024 C1026 1.395 . S
C1024 C1027 1.403 . S
H1025 C1031 0.930 . S
C1026 H1012 0.930 . S
C1026 C1024 1.395 . S
C1026 C1029 1.403 . S
C1027 C1024 1.403 . S
C1027 C1028 1.524 . S
C1027 C1031 1.400 . S
C1028 H1013 0.960 . S
C1028 H1014 0.960 . S
C1028 H1015 0.960 . S
C1028 C1027 1.524 . S
C1029 C1026 1.403 . S
C1029 C1030 1.392 . S
C1029 C1033 1.495 . S
C1030 C1029 1.392 . S
C1030 C1031 1.385 . S
C1030 C1032 1.478 . S
C1031 H1025 0.930 . S
C1031 C1027 1.400 . S
C1031 C1030 1.385 . S
C1032 C1030 1.478 . S
C1032 C1034 1.381 . S
C1032 C1038 1.383 . S
C1033 C1029 1.495 . S
C1033 H1039 0.959 . S
C1033 H1040 0.961 . S
C1033 H1041 0.960 . S
C1034 C1032 1.381 . S
C1034 C1035 1.394 . S
C1034 H1042 0.930 . S
C1035 C1034 1.394 . S
C1035 C1036 1.383 . S
C1035 H1043 0.929 . S
C1036 C1035 1.383 . S
C1036 C1037 1.377 . S
C1037 H1021 0.930 . S
C1037 C1036 1.377 . S
C1037 C1038 1.379 . S
C1038 H1022 0.931 . S
C1038 C1032 1.383 . S
C1038 C1037 1.379 . S
H1039 C1033 0.959 . S
H1040 C1033 0.961 . S
H1041 C1033 0.960 . S
H1042 C1034 0.930 . S
H1043 C1035 0.929 . S
H1044 C1052 0.929 . S
H1045 C1054 0.930 . S
H1046 C1056 0.930 . S
H1047 C1059 0.929 . S
H1048 C1062 0.930 . S
H1049 C1064 0.960 . S
H1050 C1064 0.960 . S
H1051 C1064 0.960 . S
C1052 H1044 0.929 . S
C1052 C1053 1.377 . S
C1052 C1054 1.384 . S
C1053 C1052 1.377 . S
C1053 C1059 1.390 . S
C1054 H1045 0.930 . S
C1054 C1052 1.384 . S
C1054 C1055 1.372 . S
C1055 C1054 1.372 . S
C1055 C1056 1.400 . S
C1055 C1060 1.490 . S
C1056 H1046 0.930 . S
C1056 C1055 1.400 . S
C1056 C1059 1.386 . S
H1057 C1073 0.930 . S
H1058 C1074 0.931 . S
C1059 H1047 0.929 . S
C1059 C1053 1.390 . S
C1059 C1056 1.386 . S
C1060 C1055 1.490 . S
C1060 C1062 1.395 . S
C1060 C1063 1.403 . S
H1061 C1067 0.930 . S
C1062 H1048 0.930 . S
C1062 C1060 1.395 . S
C1062 C1065 1.403 . S
C1063 C1060 1.403 . S
C1063 C1064 1.524 . S
C1063 C1067 1.400 . S
C1064 H1049 0.960 . S
C1064 H1050 0.960 . S
C1064 H1051 0.960 . S
C1064 C1063 1.524 . S
C1065 C1062 1.403 . S
C1065 C1066 1.392 . S
C1065 C1069 1.495 . S
C1066 C1065 1.392 . S
C1066 C1067 1.385 . S
C1066 C1068 1.478 . S
C1067 H1061 0.930 . S
C1067 C1063 1.400 . S
C1067 C1066 1.385 . S
C1068 C1066 1.478 . S
C1068 C1070 1.381 . S
C1068 C1074 1.383 . S
C1069 C1065 1.495 . S
C1069 H1075 0.959 . S
C1069 H1076 0.961 . S
C1069 H1077 0.960 . S
C1070 C1068 1.381 . S
C1070 C1071 1.394 . S
C1070 H1078 0.930 . S
C1071 C1070 1.394 . S
C1071 C1072 1.383 . S
C1071 H1079 0.929 . S
C1072 C1071 1.383 . S
C1072 C1073 1.377 . S
C1073 H1057 0.930 . S
C1073 C1072 1.377 . S
C1073 C1074 1.379 . S
C1074 H1058 0.931 . S
C1074 C1068 1.383 . S
C1074 C1073 1.379 . S
H1075 C1069 0.959 . S
H1076 C1069 0.961 . S
H1077 C1069 0.960 . S
H1078 C1070 0.930 . S
H1079 C1071 0.929 . S
H1080 C1088 0.929 . S
H1081 C1090 0.930 . S
H1082 C1092 0.930 . S
H1083 C1095 0.929 . S
H1084 C1098 0.930 . S
H1085 C1100 0.960 . S
H1086 C1100 0.960 . S
H1087 C1100 0.960 . S
C1088 H1080 0.929 . S
C1088 C1089 1.377 . S
C1088 C1090 1.384 . S
C1089 C1088 1.377 . S
C1089 C1095 1.390 . S
C1090 H1081 0.930 . S
C1090 C1088 1.384 . S
C1090 C1091 1.372 . S
C1091 C1090 1.372 . S
C1091 C1092 1.400 . S
C1091 C1096 1.490 . S
C1092 H1082 0.930 . S
C1092 C1091 1.400 . S
C1092 C1095 1.386 . S
H1093 C1109 0.930 . S
H1094 C1110 0.931 . S
C1095 H1083 0.929 . S
C1095 C1089 1.390 . S
C1095 C1092 1.386 . S
C1096 C1091 1.490 . S
C1096 C1098 1.395 . S
C1096 C1099 1.403 . S
H1097 C1103 0.930 . S
C1098 H1084 0.930 . S
C1098 C1096 1.395 . S
C1098 C1101 1.403 . S
C1099 C1096 1.403 . S
C1099 C1100 1.524 . S
C1099 C1103 1.400 . S
C1100 H1085 0.960 . S
C1100 H1086 0.960 . S
C1100 H1087 0.960 . S
C1100 C1099 1.524 . S
C1101 C1098 1.403 . S
C1101 C1102 1.392 . S
C1101 C1105 1.495 . S
C1102 C1101 1.392 . S
C1102 C1103 1.385 . S
C1102 C1104 1.478 . S
C1103 H1097 0.930 . S
C1103 C1099 1.400 . S
C1103 C1102 1.385 . S
C1104 C1102 1.478 . S
C1104 C1106 1.381 . S
C1104 C1110 1.383 . S
C1105 C1101 1.495 . S
C1105 H1111 0.959 . S
C1105 H1112 0.961 . S
C1105 H1113 0.960 . S
C1106 C1104 1.381 . S
C1106 C1107 1.394 . S
C1106 H1114 0.930 . S
C1107 C1106 1.394 . S
C1107 C1108 1.383 . S
C1107 H1115 0.929 . S
C1108 C1107 1.383 . S
C1108 C1109 1.377 . S
C1109 H1093 0.930 . S
C1109 C1108 1.377 . S
C1109 C1110 1.379 . S
C1110 H1094 0.931 . S
C1110 C1104 1.383 . S
C1110 C1109 1.379 . S
H1111 C1105 0.959 . S
H1112 C1105 0.961 . S
H1113 C1105 0.960 . S
H1114 C1106 0.930 . S
H1115 C1107 0.929 . S
H1116 C1124 0.929 . S
H1117 C1126 0.930 . S
H1118 C1128 0.930 . S
H1119 C1131 0.929 . S
H1120 C1134 0.930 . S
H1121 C1136 0.960 . S
H1122 C1136 0.960 . S
H1123 C1136 0.960 . S
C1124 H1116 0.929 . S
C1124 C1125 1.377 . S
C1124 C1126 1.384 . S
C1125 C1124 1.377 . S
C1125 C1131 1.390 . S
C1126 H1117 0.930 . S
C1126 C1124 1.384 . S
C1126 C1127 1.372 . S
C1127 C1126 1.372 . S
C1127 C1128 1.400 . S
C1127 C1132 1.490 . S
C1128 H1118 0.930 . S
C1128 C1127 1.400 . S
C1128 C1131 1.386 . S
H1129 C1145 0.930 . S
H1130 C1146 0.931 . S
C1131 H1119 0.929 . S
C1131 C1125 1.390 . S
C1131 C1128 1.386 . S
C1132 C1127 1.490 . S
C1132 C1134 1.395 1_655 S
C1132 C1135 1.403 . S
H1133 C1139 0.930 . S
C1134 H1120 0.930 . S
C1134 C1132 1.395 1_455 S
C1134 C1137 1.403 . S
C1135 C1132 1.403 . S
C1135 C1136 1.524 . S
C1135 C1139 1.400 . S
C1136 H1121 0.960 . S
C1136 H1122 0.960 . S
C1136 H1123 0.960 . S
C1136 C1135 1.524 . S
C1137 C1134 1.403 . S
C1137 C1138 1.392 . S
C1137 C1141 1.495 . S
C1138 C1137 1.392 . S
C1138 C1139 1.385 1_455 S
C1138 C1140 1.478 . S
C1139 H1133 0.930 . S
C1139 C1135 1.400 . S
C1139 C1138 1.385 1_655 S
C1140 C1138 1.478 . S
C1140 C1142 1.381 . S
C1140 C1146 1.383 . S
C1141 C1137 1.495 . S
C1141 H1147 0.959 . S
C1141 H1148 0.961 . S
C1141 H1149 0.960 . S
C1142 C1140 1.381 . S
C1142 C1143 1.394 . S
C1142 H1150 0.930 . S
C1143 C1142 1.394 . S
C1143 C1144 1.383 . S
C1143 H1151 0.929 . S
C1144 C1143 1.383 . S
C1144 C1145 1.377 . S
C1145 H1129 0.930 . S
C1145 C1144 1.377 . S
C1145 C1146 1.379 . S
C1146 H1130 0.931 . S
C1146 C1140 1.383 . S
C1146 C1145 1.379 . S
H1147 C1141 0.959 . S
H1148 C1141 0.961 . S
H1149 C1141 0.960 . S
H1150 C1142 0.930 . S
H1151 C1143 0.929 . S
H1152 C1160 0.929 . S
H1153 C1162 0.930 . S
H1154 C1164 0.930 . S
H1155 C1167 0.929 . S
H1156 C1170 0.930 . S
H1157 C1172 0.960 . S
H1158 C1172 0.960 . S
H1159 C1172 0.960 . S
C1160 H1152 0.929 . S
C1160 C1161 1.377 . S
C1160 C1162 1.384 . S
C1161 C1160 1.377 . S
C1161 C1167 1.390 . S
C1162 H1153 0.930 . S
C1162 C1160 1.384 . S
C1162 C1163 1.372 . S
C1163 C1162 1.372 . S
C1163 C1164 1.400 . S
C1163 C1168 1.490 . S
C1164 H1154 0.930 . S
C1164 C1163 1.400 . S
C1164 C1167 1.386 . S
H1165 C1181 0.930 . S
H1166 C1182 0.931 . S
C1167 H1155 0.929 . S
C1167 C1161 1.390 . S
C1167 C1164 1.386 . S
C1168 C1163 1.490 . S
C1168 C1170 1.395 . S
C1168 C1171 1.403 1_545 S
H1169 C1175 0.930 . S
C1170 H1156 0.930 . S
C1170 C1168 1.395 . S
C1170 C1173 1.403 . S
C1171 C1168 1.403 1_565 S
C1171 C1172 1.524 . S
C1171 C1175 1.400 . S
C1172 H1157 0.960 . S
C1172 H1158 0.960 . S
C1172 H1159 0.960 . S
C1172 C1171 1.524 . S
C1173 C1170 1.403 . S
C1173 C1174 1.392 1_545 S
C1173 C1177 1.495 . S
C1174 C1173 1.392 1_565 S
C1174 C1175 1.385 . S
C1174 C1176 1.478 . S
C1175 H1169 0.930 . S
C1175 C1171 1.400 . S
C1175 C1174 1.385 . S
C1176 C1174 1.478 . S
C1176 C1178 1.381 . S
C1176 C1182 1.383 . S
C1177 C1173 1.495 . S
C1177 H1183 0.959 . S
C1177 H1184 0.961 . S
C1177 H1185 0.960 . S
C1178 C1176 1.381 . S
C1178 C1179 1.394 . S
C1178 H1186 0.930 . S
C1179 C1178 1.394 . S
C1179 C1180 1.383 . S
C1179 H1187 0.929 . S
C1180 C1179 1.383 . S
C1180 C1181 1.377 . S
C1181 H1165 0.930 . S
C1181 C1180 1.377 . S
C1181 C1182 1.379 . S
C1182 H1166 0.931 . S
C1182 C1176 1.383 . S
C1182 C1181 1.379 . S
H1183 C1177 0.959 . S
H1184 C1177 0.961 . S
H1185 C1177 0.960 . S
H1186 C1178 0.930 . S
H1187 C1179 0.929 . S
H1188 C1196 0.929 . S
H1189 C1198 0.930 . S
H1190 C1200 0.930 . S
H1191 C1203 0.929 . S
H1192 C1206 0.930 . S
H1193 C1208 0.960 . S
H1194 C1208 0.960 . S
H1195 C1208 0.960 . S
C1196 H1188 0.929 . S
C1196 C1197 1.377 . S
C1196 C1198 1.384 . S
C1197 C1196 1.377 . S
C1197 C1203 1.390 . S
C1198 H1189 0.930 . S
C1198 C1196 1.384 . S
C1198 C1199 1.372 . S
C1199 C1198 1.372 . S
C1199 C1200 1.400 . S
C1199 C1204 1.490 . S
C1200 H1190 0.930 . S
C1200 C1199 1.400 . S
C1200 C1203 1.386 . S
H1201 C1217 0.930 . S
H1202 C1218 0.931 . S
C1203 H1191 0.929 . S
C1203 C1197 1.390 . S
C1203 C1200 1.386 . S
C1204 C1199 1.490 . S
C1204 C1206 1.395 . S
C1204 C1207 1.403 . S
H1205 C1211 0.930 . S
C1206 H1192 0.930 . S
C1206 C1204 1.395 . S
C1206 C1209 1.403 . S
C1207 C1204 1.403 . S
C1207 C1208 1.524 . S
C1207 C1211 1.400 . S
C1208 H1193 0.960 . S
C1208 H1194 0.960 . S
C1208 H1195 0.960 . S
C1208 C1207 1.524 . S
C1209 C1206 1.403 . S
C1209 C1210 1.392 . S
C1209 C1213 1.495 . S
C1210 C1209 1.392 . S
C1210 C1211 1.385 . S
C1210 C1212 1.478 . S
C1211 H1205 0.930 . S
C1211 C1207 1.400 . S
C1211 C1210 1.385 . S
C1212 C1210 1.478 . S
C1212 C1214 1.381 . S
C1212 C1218 1.383 . S
C1213 C1209 1.495 . S
C1213 H1219 0.959 . S
C1213 H1220 0.961 . S
C1213 H1221 0.960 . S
C1214 C1212 1.381 . S
C1214 C1215 1.394 . S
C1214 H1222 0.930 . S
C1215 C1214 1.394 . S
C1215 C1216 1.383 . S
C1215 H1223 0.929 . S
C1216 C1215 1.383 . S
C1216 C1217 1.377 . S
C1217 H1201 0.930 . S
C1217 C1216 1.377 . S
C1217 C1218 1.379 . S
C1218 H1202 0.931 . S
C1218 C1212 1.383 . S
C1218 C1217 1.379 . S
H1219 C1213 0.959 . S
H1220 C1213 0.961 . S
H1221 C1213 0.960 . S
H1222 C1214 0.930 . S
H1223 C1215 0.929 . S
H1224 C1232 0.929 . S
H1225 C1234 0.930 . S
H1226 C1236 0.930 . S
H1227 C1239 0.929 . S
H1228 C1242 0.930 . S
H1229 C1244 0.960 . S
H1230 C1244 0.960 . S
H1231 C1244 0.960 . S
C1232 H1224 0.929 . S
C1232 C1233 1.377 . S
C1232 C1234 1.384 . S
C1233 C1232 1.377 . S
C1233 C1239 1.390 . S
C1234 H1225 0.930 . S
C1234 C1232 1.384 . S
C1234 C1235 1.372 . S
C1235 C1234 1.372 . S
C1235 C1236 1.400 . S
C1235 C1240 1.490 . S
C1236 H1226 0.930 . S
C1236 C1235 1.400 . S
C1236 C1239 1.386 . S
H1237 C1253 0.930 . S
H1238 C1254 0.931 . S
C1239 H1227 0.929 . S
C1239 C1233 1.390 . S
C1239 C1236 1.386 . S
C1240 C1235 1.490 . S
C1240 C1242 1.395 . S
C1240 C1243 1.403 1_455 S
H1241 C1247 0.930 . S
C1242 H1228 0.930 . S
C1242 C1240 1.395 . S
C1242 C1245 1.403 . S
C1243 C1240 1.403 1_655 S
C1243 C1244 1.524 . S
C1243 C1247 1.400 . S
C1244 H1229 0.960 . S
C1244 H1230 0.960 . S
C1244 H1231 0.960 . S
C1244 C1243 1.524 . S
C1245 C1242 1.403 . S
C1245 C1246 1.392 1_455 S
C1245 C1249 1.495 . S
C1246 C1245 1.392 1_655 S
C1246 C1247 1.385 . S
C1246 C1248 1.478 . S
C1247 H1241 0.930 . S
C1247 C1243 1.400 . S
C1247 C1246 1.385 . S
C1248 C1246 1.478 . S
C1248 C1250 1.381 . S
C1248 C1254 1.383 . S
C1249 C1245 1.495 . S
C1249 H1255 0.959 . S
C1249 H1256 0.961 . S
C1249 H1257 0.960 . S
C1250 C1248 1.381 . S
C1250 C1251 1.394 . S
C1250 H1258 0.930 . S
C1251 C1250 1.394 . S
C1251 C1252 1.383 . S
C1251 H1259 0.929 . S
C1252 C1251 1.383 . S
C1252 C1253 1.377 . S
C1253 H1237 0.930 . S
C1253 C1252 1.377 . S
C1253 C1254 1.379 . S
C1254 H1238 0.931 . S
C1254 C1248 1.383 . S
C1254 C1253 1.379 . S
H1255 C1249 0.959 . S
H1256 C1249 0.961 . S
H1257 C1249 0.960 . S
H1258 C1250 0.930 . S
H1259 C1251 0.929 . S
H1260 C1268 0.929 . S
H1261 C1270 0.930 . S
H1262 C1272 0.930 . S
H1263 C1275 0.929 . S
H1264 C1278 0.930 . S
H1265 C1280 0.960 . S
H1266 C1280 0.960 . S
H1267 C1280 0.960 . S
C1268 H1260 0.929 . S
C1268 C1269 1.377 . S
C1268 C1270 1.384 . S
C1269 C1268 1.377 . S
C1269 C1275 1.390 . S
C1270 H1261 0.930 . S
C1270 C1268 1.384 . S
C1270 C1271 1.372 . S
C1271 C1270 1.372 . S
C1271 C1272 1.400 . S
C1271 C1276 1.490 . S
C1272 H1262 0.930 . S
C1272 C1271 1.400 . S
C1272 C1275 1.386 . S
H1273 C1289 0.930 . S
H1274 C1290 0.931 . S
C1275 H1263 0.929 . S
C1275 C1269 1.390 . S
C1275 C1272 1.386 . S
C1276 C1271 1.490 . S
C1276 C1278 1.395 1_565 S
C1276 C1279 1.403 . S
H1277 C1283 0.930 . S
C1278 H1264 0.930 . S
C1278 C1276 1.395 1_545 S
C1278 C1281 1.403 . S
C1279 C1276 1.403 . S
C1279 C1280 1.524 . S
C1279 C1283 1.400 . S
C1280 H1265 0.960 . S
C1280 H1266 0.960 . S
C1280 H1267 0.960 . S
C1280 C1279 1.524 . S
C1281 C1278 1.403 . S
C1281 C1282 1.392 . S
C1281 C1285 1.495 . S
C1282 C1281 1.392 . S
C1282 C1283 1.385 1_545 S
C1282 C1284 1.478 . S
C1283 H1277 0.930 . S
C1283 C1279 1.400 . S
C1283 C1282 1.385 1_565 S
C1284 C1282 1.478 . S
C1284 C1286 1.381 . S
C1284 C1290 1.383 . S
C1285 C1281 1.495 . S
C1285 H1291 0.959 . S
C1285 H1292 0.961 . S
C1285 H1293 0.960 . S
C1286 C1284 1.381 . S
C1286 C1287 1.394 . S
C1286 H1294 0.930 . S
C1287 C1286 1.394 . S
C1287 C1288 1.383 . S
C1287 H1295 0.929 . S
C1288 C1287 1.383 . S
C1288 C1289 1.377 . S
C1289 H1273 0.930 . S
C1289 C1288 1.377 . S
C1289 C1290 1.379 . S
C1290 H1274 0.931 . S
C1290 C1284 1.383 . S
C1290 C1289 1.379 . S
H1291 C1285 0.959 . S
H1292 C1285 0.961 . S
H1293 C1285 0.960 . S
H1294 C1286 0.930 . S
H1295 C1287 0.929 . S
C441 C255 1.248 . S
C460 C3 1.230 . S
C477 C39 1.244 . S
C496 C291 1.238 . S
C513 C75 1.247 . S
C532 C327 1.230 . S
C549 C111 1.248 . S
C568 C363 1.242 . S
C585 C399 1.243 . S
C604 C147 1.256 . S
C621 C219 1.247 . S
C640 C183 1.248 . S
C657 C362 1.334 . S
C676 C2 1.322 . S
C693 C38 1.331 . S
C712 C398 1.333 . S
C729 C74 1.331 . S
C748 C218 1.331 . S
C765 C254 1.331 . S
C784 C110 1.334 . S
C801 C290 1.334 . S
C820 C146 1.323 . S
C837 C326 1.334 . S
C856 C182 1.336 . S
C873 C14 1.622 . S
C892 C302 1.588 . S
C909 C50 1.617 . S
C928 C338 1.604 . S
C945 C374 1.618 . S
C964 C86 1.602 . S
C981 C122 1.614 . S
C1000 C410 1.633 . S
C1017 C230 1.611 . S
C1036 C158 1.638 . S
C1053 C266 1.622 . S
C1072 C194 1.588 . S
C1089 C112 1.232 . S
C1108 C4 1.206 . S
C1125 C148 1.235 . S
C1144 C40 1.202 . S
C1161 C76 1.233 . S
C1180 C184 1.262 . S
C1197 C220 1.241 . S
C1216 C328 1.223 . S
C1233 C256 1.237 . S
C1252 C364 1.258 . S
C1269 C400 1.237 . S
C1288 C292 1.202 . S
