# Generated by pormake.
# Topology zfj, (5)-cn, num edge types: 1
# Building blocks:
#     Node 0, Type 0, BuildingBlock: BEQFEK_clean_sbu_0, # of connection points: 5
#     Node 1, Type 0, BuildingBlock: BEQFEK_clean_sbu_0, # of connection points: 5
#     Node 2, Type 0, BuildingBlock: BEQFEK_clean_sbu_0, # of connection points: 5
#     Node 3, Type 0, BuildingBlock: BEQFEK_clean_sbu_0, # of connection points: 5
#     Node 4, Type 0, BuildingBlock: BEQFEK_clean_sbu_0, # of connection points: 5
#     Node 5, Type 0, BuildingBlock: BEQFEK_clean_sbu_0, # of connection points: 5
#     Node 6, Type 0, BuildingBlock: BEQFEK_clean_sbu_0, # of connection points: 5
#     Node 7, Type 0, BuildingBlock: BEQFEK_clean_sbu_0, # of connection points: 5
#     Node 8, Type 0, BuildingBlock: BEQFEK_clean_sbu_0, # of connection points: 5
#     Node 9, Type 0, BuildingBlock: BEQFEK_clean_sbu_0, # of connection points: 5
#     Node 10, Type 0, BuildingBlock: BEQFEK_clean_sbu_0, # of connection points: 5
#     Node 11, Type 0, BuildingBlock: BEQFEK_clean_sbu_0, # of connection points: 5
#     Node 12, Type 0, BuildingBlock: BEQFEK_clean_sbu_0, # of connection points: 5
#     Node 13, Type 0, BuildingBlock: BEQFEK_clean_sbu_0, # of connection points: 5
#     Node 14, Type 0, BuildingBlock: BEQFEK_clean_sbu_0, # of connection points: 5
#     Node 15, Type 0, BuildingBlock: BEQFEK_clean_sbu_0, # of connection points: 5
#     Edge 16, Type (0, 0), BuildingBlock: OJICUG_clean_linker_0, # of connection points: 2
#     Edge 17, Type (0, 0), BuildingBlock: OJICUG_clean_linker_0, # of connection points: 2
#     Edge 18, Type (0, 0), BuildingBlock: OJICUG_clean_linker_0, # of connection points: 2
#     Edge 19, Type (0, 0), BuildingBlock: OJICUG_clean_linker_0, # of connection points: 2
#     Edge 20, Type (0, 0), BuildingBlock: OJICUG_clean_linker_0, # of connection points: 2
#     Edge 21, Type (0, 0), BuildingBlock: OJICUG_clean_linker_0, # of connection points: 2
#     Edge 22, Type (0, 0), BuildingBlock: OJICUG_clean_linker_0, # of connection points: 2
#     Edge 23, Type (0, 0), BuildingBlock: OJICUG_clean_linker_0, # of connection points: 2
#     Edge 24, Type (0, 0), BuildingBlock: OJICUG_clean_linker_0, # of connection points: 2
#     Edge 25, Type (0, 0), BuildingBlock: OJICUG_clean_linker_0, # of connection points: 2
#     Edge 26, Type (0, 0), BuildingBlock: OJICUG_clean_linker_0, # of connection points: 2
#     Edge 27, Type (0, 0), BuildingBlock: OJICUG_clean_linker_0, # of connection points: 2
#     Edge 28, Type (0, 0), BuildingBlock: OJICUG_clean_linker_0, # of connection points: 2
#     Edge 29, Type (0, 0), BuildingBlock: OJICUG_clean_linker_0, # of connection points: 2
#     Edge 30, Type (0, 0), BuildingBlock: OJICUG_clean_linker_0, # of connection points: 2
#     Edge 31, Type (0, 0), BuildingBlock: OJICUG_clean_linker_0, # of connection points: 2
#     Edge 32, Type (0, 0), BuildingBlock: OJICUG_clean_linker_0, # of connection points: 2
#     Edge 33, Type (0, 0), BuildingBlock: OJICUG_clean_linker_0, # of connection points: 2
#     Edge 34, Type (0, 0), BuildingBlock: OJICUG_clean_linker_0, # of connection points: 2
#     Edge 35, Type (0, 0), BuildingBlock: OJICUG_clean_linker_0, # of connection points: 2
#     Edge 36, Type (0, 0), BuildingBlock: OJICUG_clean_linker_0, # of connection points: 2
#     Edge 37, Type (0, 0), BuildingBlock: OJICUG_clean_linker_0, # of connection points: 2
#     Edge 38, Type (0, 0), BuildingBlock: OJICUG_clean_linker_0, # of connection points: 2
#     Edge 39, Type (0, 0), BuildingBlock: OJICUG_clean_linker_0, # of connection points: 2
#     Edge 40, Type (0, 0), BuildingBlock: OJICUG_clean_linker_0, # of connection points: 2
#     Edge 41, Type (0, 0), BuildingBlock: OJICUG_clean_linker_0, # of connection points: 2
#     Edge 42, Type (0, 0), BuildingBlock: OJICUG_clean_linker_0, # of connection points: 2
#     Edge 43, Type (0, 0), BuildingBlock: OJICUG_clean_linker_0, # of connection points: 2
#     Edge 44, Type (0, 0), BuildingBlock: OJICUG_clean_linker_0, # of connection points: 2
#     Edge 45, Type (0, 0), BuildingBlock: OJICUG_clean_linker_0, # of connection points: 2
#     Edge 46, Type (0, 0), BuildingBlock: OJICUG_clean_linker_0, # of connection points: 2
#     Edge 47, Type (0, 0), BuildingBlock: OJICUG_clean_linker_0, # of connection points: 2
#     Edge 48, Type (0, 0), BuildingBlock: OJICUG_clean_linker_0, # of connection points: 2
#     Edge 49, Type (0, 0), BuildingBlock: OJICUG_clean_linker_0, # of connection points: 2
#     Edge 50, Type (0, 0), BuildingBlock: OJICUG_clean_linker_0, # of connection points: 2
#     Edge 51, Type (0, 0), BuildingBlock: OJICUG_clean_linker_0, # of connection points: 2
#     Edge 52, Type (0, 0), BuildingBlock: OJICUG_clean_linker_0, # of connection points: 2
#     Edge 53, Type (0, 0), BuildingBlock: OJICUG_clean_linker_0, # of connection points: 2
#     Edge 54, Type (0, 0), BuildingBlock: OJICUG_clean_linker_0, # of connection points: 2
#     Edge 55, Type (0, 0), BuildingBlock: OJICUG_clean_linker_0, # of connection points: 2
# Relax obj value: 0.343
# Max RMSD: 0.185
# Mean RMSD: 0.185
data_MOF--net-zfj--node1-BEQFEK_clean_sbu_0--edge1-OJICUG_clean_linker_0
_symmetry_space_group_name_H-M    P1
_symmetry_Int_Tables_number       1
_symmetry_cell_setting            triclinic
loop_
_symmetry_equiv_pos_as_xyz
'x, y, z'
_cell_length_a     27.730521
_cell_length_b     27.715517
_cell_length_c     37.74908
_cell_angle_alpha  90.060499
_cell_angle_beta   90.097465
_cell_angle_gamma 90.048446
loop_
_atom_site_label
_atom_site_type_symbol
_atom_site_fract_x
_atom_site_fract_y
_atom_site_fract_z
_atom_type_partial_charge
Co0 Co 0.55204 0.2493 0.18084 0.0
Co1 Co 0.59016 0.14819 0.16001 0.0
C2 C 0.56227 0.21822 0.10424 0.0
O3 O 0.5536 0.24838 0.12867 0.0
O4 O 0.57488 0.17519 0.11173 0.0
C5 C 0.47725 0.31381 0.17246 0.0
O6 O 0.45936 0.27648 0.15544 0.0
C7 C 0.58528 0.04618 0.14132 0.0
C8 C 0.64881 0.01733 0.1696 0.0
C9 C 0.60791 0.00343 0.15106 0.0
N10 N 0.61057 0.08317 0.15484 0.0
N11 N 0.64932 0.06582 0.17076 0.0
C12 C 0.54031 0.05244 0.11977 0.0
H13 H 0.54614 0.08118 0.09979 0.0
H14 H 0.51033 0.06455 0.13698 0.0
H15 H 0.53008 0.01847 0.1061 0.0
C16 C 0.48408 0.19021 0.22469 0.0
N17 N 0.52005 0.19473 0.20075 0.0
N18 N 0.53694 0.15163 0.19289 0.0
C19 C 0.51274 0.11858 0.21239 0.0
C20 C 0.47761 0.14162 0.23223 0.0
C21 C 0.45746 0.2317 0.24076 0.0
H22 H 0.48267 0.26198 0.24597 0.0
H23 H 0.42959 0.24432 0.22182 0.0
H24 H 0.43926 0.22105 0.26571 0.0
O25 O 0.62006 0.25489 0.19748 0.0
O26 O 0.64659 0.1834 0.17952 0.0
H27 H 0.56597 0.06213 0.2129 0.0
H28 H 0.51706 0.05335 0.24335 0.0
C29 C 0.52675 0.06684 0.21661 0.0
H30 H 0.50651 0.04502 0.19714 0.0
H31 H 0.67438 0.08687 0.18447 0.0
O32 O 0.51665 0.30925 0.18942 0.0
C33 C 0.65415 0.22443 0.19371 0.0
Co34 Co 0.25445 0.55327 0.68095 0.0
Co35 Co 0.35585 0.59017 0.6602 0.0
C36 C 0.28604 0.56183 0.60429 0.0
O37 O 0.25569 0.55388 0.62869 0.0
O38 O 0.32912 0.57427 0.61187 0.0
C39 C 0.18983 0.4784 0.67309 0.0
O40 O 0.22732 0.46006 0.65667 0.0
C41 C 0.45779 0.58518 0.64163 0.0
C42 C 0.48687 0.64856 0.67009 0.0
C43 C 0.50058 0.60782 0.65136 0.0
N44 N 0.42093 0.61035 0.65529 0.0
N45 N 0.43841 0.649 0.67133 0.0
C46 C 0.45138 0.54034 0.61992 0.0
H47 H 0.43802 0.51056 0.63684 0.0
H48 H 0.48554 0.52948 0.6069 0.0
H49 H 0.42348 0.54679 0.59937 0.0
C50 C 0.31259 0.48567 0.72591 0.0
N51 N 0.30859 0.5212 0.70152 0.0
N52 N 0.35191 0.53731 0.69349 0.0
C53 C 0.38462 0.51285 0.71321 0.0
C54 C 0.36105 0.47853 0.73352 0.0
C55 C 0.27077 0.46022 0.74249 0.0
H56 H 0.24073 0.48593 0.74688 0.0
H57 H 0.25799 0.43149 0.72428 0.0
H58 H 0.28118 0.44322 0.76798 0.0
O59 O 0.24926 0.62163 0.69698 0.0
O60 O 0.32099 0.64729 0.67904 0.0
H61 H 0.44242 0.56466 0.71303 0.0
H62 H 0.45086 0.51532 0.74324 0.0
C63 C 0.43681 0.52553 0.71673 0.0
H64 H 0.45743 0.5049 0.69685 0.0
H65 H 0.41749 0.67398 0.68513 0.0
O66 O 0.19425 0.51826 0.68951 0.0
C67 C 0.28002 0.65544 0.69301 0.0
Co68 Co 0.95528 0.255 0.17892 0.0
Co69 Co 0.91655 0.35581 0.15832 0.0
C70 C 0.94393 0.28563 0.10232 0.0
O71 O 0.95319 0.25554 0.12666 0.0
O72 O 0.93116 0.32857 0.10997 0.0
C73 C 0.0301 0.19042 0.17069 0.0
O74 O 0.04794 0.22752 0.15348 0.0
C75 C 0.92102 0.45764 0.13949 0.0
C76 C 0.8574 0.4865 0.16755 0.0
C77 C 0.89824 0.50038 0.14905 0.0
N78 N 0.89587 0.42068 0.15306 0.0
N79 N 0.85707 0.43801 0.16884 0.0
C80 C 0.96605 0.45136 0.11812 0.0
H81 H 0.96047 0.42224 0.09834 0.0
H82 H 0.99611 0.43982 0.13551 0.0
H83 H 0.97602 0.48518 0.10422 0.0
C84 C 0.02315 0.31439 0.22294 0.0
N85 N 0.98729 0.30975 0.19882 0.0
N86 N 0.97017 0.35277 0.19104 0.0
C87 C 0.99415 0.3859 0.21075 0.0
C88 C 0.02934 0.363 0.23069 0.0
C89 C 0.04976 0.27297 0.23911 0.0
H90 H 0.02446 0.24283 0.24446 0.0
H91 H 0.07739 0.26004 0.22014 0.0
H92 H 0.0682 0.28376 0.26399 0.0
O93 O 0.88749 0.24927 0.19589 0.0
O94 O 0.86048 0.32069 0.17824 0.0
H95 H 0.94053 0.442 0.21118 0.0
H96 H 0.9892 0.45095 0.24196 0.0
C97 C 0.97976 0.43753 0.21511 0.0
H98 H 0.99997 0.45957 0.19584 0.0
H99 H 0.83207 0.41699 0.18254 0.0
O100 O 0.9908 0.19521 0.18764 0.0
C101 C 0.85327 0.27967 0.19245 0.0
Co102 Co 0.24981 0.9577 0.67924 0.0
Co103 Co 0.14883 0.91828 0.65858 0.0
C104 C 0.21848 0.94642 0.60267 0.0
O105 O 0.24854 0.95571 0.62708 0.0
O106 O 0.17559 0.93337 0.6102 0.0
C107 C 0.31412 0.03339 0.67058 0.0
O108 O 0.27669 0.05131 0.65377 0.0
C109 C 0.04653 0.9215 0.64025 0.0
C110 C 0.0188 0.85797 0.66908 0.0
C111 C 0.00417 0.8984 0.65038 0.0
N112 N 0.08397 0.89693 0.65373 0.0
N113 N 0.06728 0.85817 0.66996 0.0
C114 C 0.052 0.96616 0.6183 0.0
H115 H 0.06372 0.9967 0.63521 0.0
H116 H 0.01783 0.97554 0.60461 0.0
H117 H 0.08073 0.96041 0.59831 0.0
C118 C 0.19005 0.02518 0.72324 0.0
N119 N 0.1949 0.98921 0.69923 0.0
N120 N 0.15197 0.9718 0.69138 0.0
C121 C 0.11872 0.99564 0.71094 0.0
C122 C 0.14141 0.03109 0.73084 0.0
C123 C 0.23128 0.05231 0.73931 0.0
H124 H 0.26186 0.02746 0.74435 0.0
H125 H 0.24349 0.08039 0.72043 0.0
H126 H 0.22053 0.07029 0.76435 0.0
O127 O 0.25608 0.88958 0.69588 0.0
O128 O 0.18464 0.86242 0.67818 0.0
H129 H 0.06308 0.94154 0.71192 0.0
H130 H 0.05338 0.9911 0.74174 0.0
C131 C 0.06717 0.98094 0.71517 0.0
H132 H 0.04518 1.00027 0.69536 0.0
H133 H 0.08877 0.8336 0.68372 0.0
O134 O 0.30968 0.9939 0.68743 0.0
C135 C 0.22578 0.85522 0.69225 0.0
Co136 Co 0.54614 0.25513 0.88214 0.0
Co137 Co 0.58734 0.35612 0.90234 0.0
C138 C 0.56064 0.28623 0.95855 0.0
O139 O 0.55093 0.25608 0.93429 0.0
O140 O 0.57306 0.32928 0.95085 0.0
C141 C 0.4729 0.18872 0.89461 0.0
O142 O 0.46287 0.22113 0.9189 0.0
C143 C 0.58462 0.45849 0.92052 0.0
C144 C 0.64834 0.48609 0.89192 0.0
C145 C 0.60789 0.50083 0.91051 0.0
N146 N 0.60913 0.42095 0.90712 0.0
N147 N 0.64799 0.43757 0.891 0.0
C148 C 0.53976 0.45312 0.94222 0.0
H149 H 0.54485 0.42371 0.96179 0.0
H150 H 0.50914 0.44249 0.925 0.0
H151 H 0.53089 0.48709 0.95636 0.0
C152 C 0.47815 0.31588 0.83975 0.0
N153 N 0.51486 0.3108 0.86309 0.0
N154 N 0.53319 0.35355 0.87028 0.0
C155 C 0.50942 0.38689 0.85072 0.0
C156 C 0.47294 0.3645 0.83164 0.0
C157 C 0.44958 0.27473 0.82496 0.0
H158 H 0.42787 0.25836 0.84648 0.0
H159 H 0.42497 0.28665 0.80349 0.0
H160 H 0.47445 0.24663 0.81478 0.0
O161 O 0.61377 0.24837 0.86429 0.0
O162 O 0.6421 0.31948 0.88201 0.0
H163 H 0.51565 0.45081 0.81848 0.0
H164 H 0.50634 0.46123 0.86458 0.0
C165 C 0.52532 0.43794 0.84541 0.0
H166 H 0.56476 0.44133 0.84875 0.0
H167 H 0.67255 0.41601 0.87732 0.0
O168 O 0.50724 0.19656 0.87298 0.0
C169 C 0.64852 0.27833 0.8677 0.0
Co170 Co 0.24972 0.5497 0.38166 0.0
Co171 Co 0.14888 0.5883 0.40215 0.0
C172 C 0.21868 0.56011 0.45822 0.0
O173 O 0.24887 0.55111 0.43391 0.0
O174 O 0.17582 0.57306 0.45051 0.0
C175 C 0.3144 0.47485 0.38969 0.0
O176 O 0.27735 0.45681 0.40683 0.0
C177 C 0.04698 0.58369 0.42062 0.0
C178 C 0.01829 0.6475 0.39263 0.0
C179 C 0.00431 0.60653 0.41097 0.0
N180 N 0.084 0.60894 0.40726 0.0
N181 N 0.06676 0.64785 0.39152 0.0
C182 C 0.05314 0.53852 0.44192 0.0
H183 H 0.08205 0.54405 0.46186 0.0
H184 H 0.06489 0.50856 0.42451 0.0
H185 H 0.01922 0.52842 0.45561 0.0
C186 C 0.19055 0.48217 0.3372 0.0
N187 N 0.19511 0.51793 0.36141 0.0
N188 N 0.15208 0.535 0.36914 0.0
C189 C 0.11903 0.5111 0.34931 0.0
C190 C 0.142 0.476 0.32933 0.0
C191 C 0.232 0.45553 0.32113 0.0
H192 H 0.26219 0.48081 0.31592 0.0
H193 H 0.24476 0.42779 0.3401 0.0
H194 H 0.22132 0.43719 0.29619 0.0
O195 O 0.25562 0.61775 0.36518 0.0
O196 O 0.18417 0.64467 0.38273 0.0
H197 H 0.06288 0.56464 0.34892 0.0
H198 H 0.05402 0.51603 0.31807 0.0
C199 C 0.06741 0.52541 0.34495 0.0
H200 H 0.04541 0.5051 0.36418 0.0
H201 H 0.08785 0.67293 0.37796 0.0
O202 O 0.30954 0.51429 0.37288 0.0
C203 C 0.22529 0.65199 0.36875 0.0
Co204 Co 0.94997 0.24936 0.87971 0.0
Co205 Co 0.91324 0.14779 0.90042 0.0
C206 C 0.94112 0.21788 0.95635 0.0
O207 O 0.94908 0.24822 0.93194 0.0
O208 O 0.92882 0.17474 0.94879 0.0
C209 C 0.02453 0.31413 0.88791 0.0
O210 O 0.04257 0.27664 0.90456 0.0
C211 C 0.91942 0.04586 0.91896 0.0
C212 C 0.8563 0.01608 0.89059 0.0
C213 C 0.89733 0.00279 0.90917 0.0
N214 N 0.89368 0.08248 0.90545 0.0
N215 N 0.85519 0.06456 0.88948 0.0
C216 C 0.96427 0.05278 0.94056 0.0
H217 H 0.95791 0.08117 0.96075 0.0
H218 H 0.99402 0.06568 0.92345 0.0
H219 H 0.97511 0.01888 0.954 0.0
C220 C 0.01838 0.19131 0.83535 0.0
N221 N 0.98245 0.19528 0.8594 0.0
N222 N 0.96622 0.15194 0.86728 0.0
C223 C 0.9909 0.11924 0.84773 0.0
C224 C 0.02559 0.14281 0.82778 0.0
C225 C 0.04438 0.23319 0.81928 0.0
H226 H 0.01886 0.26329 0.81452 0.0
H227 H 0.07254 0.24586 0.838 0.0
H228 H 0.06216 0.22293 0.79407 0.0
O229 O 0.88166 0.25411 0.86338 0.0
O230 O 0.85601 0.18231 0.88131 0.0
H231 H 0.98788 0.05359 0.81706 0.0
H232 H 0.99841 0.046 0.86334 0.0
C233 C 0.97785 0.06718 0.84372 0.0
H234 H 0.93871 0.06175 0.84739 0.0
H235 H 0.82989 0.08524 0.87577 0.0
O236 O 0.98485 0.30973 0.87125 0.0
C237 C 0.84788 0.22327 0.86724 0.0
Co238 Co 0.25621 0.95361 0.38041 0.0
Co239 Co 0.35714 0.91562 0.40166 0.0
C240 C 0.28704 0.94427 0.45715 0.0
O241 O 0.25697 0.95266 0.43259 0.0
O242 O 0.33006 0.93149 0.44983 0.0
C243 C 0.19165 0.02847 0.38812 0.0
O244 O 0.22879 0.04655 0.40526 0.0
C245 C 0.45921 0.92033 0.4203 0.0
C246 C 0.48771 0.85647 0.39226 0.0
C247 C 0.50183 0.89747 0.41059 0.0
N248 N 0.42209 0.89506 0.40695 0.0
N249 N 0.43924 0.85612 0.39118 0.0
C250 C 0.45319 0.96548 0.44169 0.0
H251 H 0.44104 0.9954 0.4244 0.0
H252 H 0.48725 0.97572 0.45524 0.0
H253 H 0.42457 0.95984 0.46177 0.0
C254 C 0.31533 0.02123 0.33635 0.0
N255 N 0.31078 0.98539 0.36042 0.0
N256 N 0.35384 0.96858 0.36846 0.0
C257 C 0.38691 0.99272 0.34893 0.0
C258 C 0.36391 0.02772 0.3289 0.0
C259 C 0.2739 0.04775 0.3201 0.0
H260 H 0.24367 0.02247 0.3149 0.0
H261 H 0.26121 0.07573 0.33891 0.0
H262 H 0.2846 0.06583 0.29511 0.0
O263 O 0.25055 0.88543 0.36414 0.0
O264 O 0.32189 0.85895 0.38242 0.0
H265 H 0.44348 0.93962 0.34887 0.0
H266 H 0.45221 0.98826 0.31815 0.0
C267 C 0.43868 0.9788 0.34492 0.0
H268 H 0.46036 0.99934 0.36431 0.0
H269 H 0.41807 0.83102 0.37761 0.0
O270 O 0.19639 0.9889 0.3714 0.0
C271 C 0.28091 0.85131 0.36818 0.0
Co272 Co 0.4553 0.75618 0.88135 0.0
Co273 Co 0.4176 0.85688 0.90402 0.0
C274 C 0.44359 0.78931 0.9593 0.0
O275 O 0.45231 0.75979 0.93423 0.0
O276 O 0.43108 0.83273 0.95274 0.0
C277 C 0.53227 0.69208 0.88918 0.0
O278 O 0.55163 0.72952 0.90516 0.0
C279 C 0.40385 0.96235 0.91764 0.0
C280 C 0.36178 0.9793 0.86947 0.0
C281 C 0.38594 1.00042 0.89756 0.0
N282 N 0.39232 0.92081 0.90116 0.0
N283 N 0.3655 0.93135 0.87325 0.0
C284 C 0.43599 0.96577 0.94945 0.0
H285 H 0.45173 0.93006 0.95597 0.0
H286 H 0.46508 0.99258 0.94486 0.0
H287 H 0.41447 0.9786 0.97234 0.0
C288 C 0.52007 0.81773 0.83595 0.0
N289 N 0.48615 0.81106 0.86121 0.0
N290 N 0.47348 0.85317 0.87413 0.0
C291 C 0.50086 0.88767 0.85903 0.0
C292 C 0.53046 0.86698 0.83335 0.0
C293 C 0.53938 0.77797 0.81326 0.0
H294 H 0.51472 0.74643 0.81372 0.0
H295 H 0.57504 0.76662 0.82369 0.0
H296 H 0.54418 0.79055 0.78558 0.0
O297 O 0.38868 0.74794 0.86383 0.0
O298 O 0.36293 0.81805 0.88445 0.0
H299 H 0.47145 0.95895 0.86067 0.0
H300 H 0.53645 0.95698 0.8639 0.0
C301 C 0.50248 0.93876 0.87171 0.0
H302 H 0.5006 0.93902 0.90091 0.0
H303 H 0.35323 0.9059 0.85495 0.0
O304 O 0.49192 0.69675 0.87353 0.0
C305 C 0.35475 0.77791 0.86916 0.0
Co306 Co 0.74986 0.45351 0.38081 0.0
Co307 Co 0.64893 0.41499 0.40146 0.0
C308 C 0.71887 0.44338 0.45734 0.0
O309 O 0.74903 0.45214 0.43298 0.0
O310 O 0.67594 0.43045 0.44975 0.0
C311 C 0.81447 0.52839 0.38905 0.0
O312 O 0.77735 0.54632 0.40617 0.0
C313 C 0.54708 0.41949 0.42021 0.0
C314 C 0.51816 0.35591 0.39191 0.0
C315 C 0.50433 0.39671 0.41054 0.0
N316 N 0.584 0.39436 0.40659 0.0
N317 N 0.56662 0.35559 0.39066 0.0
C318 C 0.5534 0.46446 0.44179 0.0
H319 H 0.56552 0.49448 0.42461 0.0
H320 H 0.51947 0.47465 0.45542 0.0
H321 H 0.58212 0.4586 0.46182 0.0
C322 C 0.69073 0.52127 0.33684 0.0
N323 N 0.69528 0.4853 0.36081 0.0
N324 N 0.65223 0.46829 0.36862 0.0
C325 C 0.61915 0.49246 0.34908 0.0
C326 C 0.64216 0.52763 0.32925 0.0
C327 C 0.73215 0.54798 0.3208 0.0
H328 H 0.76236 0.52277 0.31554 0.0
H329 H 0.74489 0.57579 0.33978 0.0
H330 H 0.72144 0.56627 0.29588 0.0
O331 O 0.75552 0.38555 0.36416 0.0
O332 O 0.68413 0.35865 0.38192 0.0
H333 H 0.56266 0.43918 0.34861 0.0
H334 H 0.55377 0.48818 0.31819 0.0
C335 C 0.56739 0.47843 0.34491 0.0
H336 H 0.54574 0.49862 0.36443 0.0
H337 H 0.5876 0.33062 0.37689 0.0
O338 O 0.80968 0.48898 0.37211 0.0
C339 C 0.72515 0.35132 0.36778 0.0
Co340 Co 0.05261 0.74928 0.88015 0.0
Co341 Co 0.0902 0.6479 0.90081 0.0
C342 C 0.0621 0.71792 0.95667 0.0
O343 O 0.05361 0.74818 0.9323 0.0
O344 O 0.07475 0.67492 0.94909 0.0
C345 C 0.97796 0.81387 0.88813 0.0
O346 O 0.96001 0.77649 0.90497 0.0
C347 C 0.08382 0.54604 0.9193 0.0
C348 C 0.14696 0.51618 0.89122 0.0
C349 C 0.10576 0.50293 0.90954 0.0
N350 N 0.10979 0.58263 0.90599 0.0
N351 N 0.14829 0.56467 0.8902 0.0
C352 C 0.03889 0.55302 0.94067 0.0
H353 H 0.045 0.58188 0.96057 0.0
H354 H 0.00907 0.56527 0.92331 0.0
H355 H 0.02827 0.5193 0.95444 0.0
C356 C 0.98448 0.69056 0.83579 0.0
N357 N 0.02051 0.69491 0.85982 0.0
N358 N 0.03722 0.65173 0.86761 0.0
C359 C 0.01289 0.61881 0.84796 0.0
C360 C 0.97781 0.642 0.82812 0.0
C361 C 0.95792 0.73213 0.81979 0.0
H362 H 0.98313 0.76248 0.8149 0.0
H363 H 0.92989 0.74456 0.83862 0.0
H364 H 0.93993 0.72163 0.79467 0.0
O365 O 0.12093 0.75461 0.8642 0.0
O366 O 0.1471 0.68281 0.8818 0.0
H367 H 0.06601 0.56228 0.84722 0.0
H368 H 0.0168 0.55358 0.81687 0.0
C369 C 0.02676 0.56704 0.84361 0.0
H370 H 0.00669 0.54524 0.86309 0.0
H371 H 0.17373 0.58533 0.87664 0.0
O372 O 0.01752 0.80939 0.87146 0.0
C373 C 0.1549 0.724 0.868 0.0
Co374 Co 0.7563 0.0499 0.37923 0.0
Co375 Co 0.85737 0.08837 0.40008 0.0
C376 C 0.78803 0.05959 0.45582 0.0
O377 O 0.75789 0.05098 0.43134 0.0
O378 O 0.83091 0.07269 0.4484 0.0
C379 C 0.6916 0.97508 0.38764 0.0
O380 O 0.72892 0.95704 0.40451 0.0
C381 C 0.9593 0.08417 0.41878 0.0
C382 C 0.988 0.14752 0.39025 0.0
C383 C 1.00196 0.1069 0.40901 0.0
N384 N 0.92228 0.10913 0.40509 0.0
N385 N 0.93953 0.14778 0.38902 0.0
C386 C 0.95314 0.03938 0.4405 0.0
H387 H 0.94059 0.00929 0.42347 0.0
H388 H 0.98723 0.02914 0.45396 0.0
H389 H 0.92477 0.04552 0.46069 0.0
C390 C 0.81517 0.98244 0.33494 0.0
N391 N 0.81074 0.01832 0.35903 0.0
N392 N 0.85383 0.03522 0.36698 0.0
C393 C 0.88682 0.01104 0.34742 0.0
C394 C 0.86371 0.976 0.3274 0.0
C395 C 0.77365 0.95576 0.31885 0.0
H396 H 0.74337 0.98096 0.31376 0.0
H397 H 0.76108 0.92785 0.33774 0.0
H398 H 0.7842 0.93761 0.29384 0.0
O399 O 0.75042 0.11799 0.363 0.0
O400 O 0.82187 0.14478 0.38094 0.0
H401 H 0.94351 0.06408 0.34714 0.0
H402 H 0.95247 0.01477 0.31695 0.0
C403 C 0.93867 0.02481 0.34354 0.0
H404 H 0.96007 0.00473 0.36329 0.0
H405 H 0.91844 0.1726 0.37518 0.0
O406 O 0.69628 0.01445 0.37071 0.0
C407 C 0.78077 0.15221 0.36686 0.0
Co408 Co 0.45454 0.74907 0.18089 0.0
Co409 Co 0.41624 0.64805 0.15963 0.0
C410 C 0.44425 0.71832 0.10417 0.0
O411 O 0.45299 0.74823 0.12878 0.0
O412 O 0.43149 0.67524 0.11141 0.0
C413 C 0.52936 0.81371 0.17278 0.0
O414 O 0.54723 0.77648 0.15571 0.0
C415 C 0.42109 0.54613 0.14078 0.0
C416 C 0.35759 0.51706 0.16888 0.0
C417 C 0.39849 0.50329 0.15042 0.0
N418 N 0.39578 0.58303 0.15429 0.0
N419 N 0.35705 0.56555 0.17008 0.0
C420 C 0.46605 0.55256 0.11935 0.0
H421 H 0.49606 0.56457 0.13666 0.0
H422 H 0.47623 0.51867 0.10558 0.0
H423 H 0.46024 0.58141 0.09945 0.0
C424 C 0.52228 0.68992 0.22477 0.0
N425 N 0.48638 0.69447 0.20071 0.0
N426 N 0.46947 0.6514 0.19267 0.0
C427 C 0.49361 0.6183 0.2122 0.0
C428 C 0.52869 0.64132 0.23223 0.0
C429 C 0.54887 0.73137 0.24104 0.0
H430 H 0.52362 0.76156 0.24629 0.0
H431 H 0.57671 0.74419 0.2222 0.0
H432 H 0.56709 0.72064 0.266 0.0
O433 O 0.38659 0.75457 0.19737 0.0
O434 O 0.35987 0.6832 0.17912 0.0
H435 H 0.48918 0.55296 0.24303 0.0
H436 H 0.49972 0.5448 0.19683 0.0
C437 C 0.47952 0.56654 0.21629 0.0
H438 H 0.44029 0.56184 0.21247 0.0
H439 H 0.33197 0.58651 0.18377 0.0
O440 O 0.48998 0.80901 0.18967 0.0
C441 C 0.35243 0.72416 0.19343 0.0
Co442 Co 0.75497 0.45425 0.67971 0.0
Co443 Co 0.85594 0.41564 0.65923 0.0
C444 C 0.7863 0.4444 0.60325 0.0
O445 O 0.75608 0.45332 0.62754 0.0
O446 O 0.82912 0.43128 0.61093 0.0
C447 C 0.6903 0.52908 0.6718 0.0
O448 O 0.72732 0.54709 0.65461 0.0
C449 C 0.95783 0.42087 0.64083 0.0
C450 C 0.98697 0.35753 0.66913 0.0
C451 C 1.00068 0.39855 0.65073 0.0
N452 N 0.92097 0.39533 0.65416 0.0
N453 N 0.9385 0.35669 0.67008 0.0
C454 C 0.95133 0.46581 0.61932 0.0
H455 H 0.93941 0.49584 0.6366 0.0
H456 H 0.98515 0.47601 0.60555 0.0
H457 H 0.92243 0.45992 0.59942 0.0
C458 C 0.81425 0.52188 0.72408 0.0
N459 N 0.80958 0.48584 0.7001 0.0
N460 N 0.85258 0.46869 0.69237 0.0
C461 C 0.88569 0.49273 0.71203 0.0
C462 C 0.86284 0.52808 0.73181 0.0
C463 C 0.77293 0.54892 0.73994 0.0
H464 H 0.74249 0.52393 0.74511 0.0
H465 H 0.76054 0.57672 0.72089 0.0
H466 H 0.78364 0.56725 0.76489 0.0
O467 O 0.74886 0.38594 0.69556 0.0
O468 O 0.82046 0.35911 0.6782 0.0
H469 H 0.94171 0.43908 0.71287 0.0
H470 H 0.95087 0.48831 0.74314 0.0
C471 C 0.93731 0.4784 0.71641 0.0
H472 H 0.95925 0.49824 0.69689 0.0
H473 H 0.91757 0.33151 0.68368 0.0
O474 O 0.69516 0.48961 0.68857 0.0
C475 C 0.77915 0.35169 0.69185 0.0
Co476 Co 0.05141 0.75482 0.17902 0.0
Co477 Co 0.09 0.85579 0.15843 0.0
C478 C 0.06204 0.78573 0.1025 0.0
O479 O 0.05311 0.75559 0.12685 0.0
O480 O 0.0749 0.8287 0.1101 0.0
C481 C 0.97656 0.69026 0.17062 0.0
O482 O 0.95874 0.72741 0.15344 0.0
C483 C 0.08547 0.95774 0.13972 0.0
C484 C 0.14903 0.98664 0.16804 0.0
C485 C 0.10823 1.0005 0.14943 0.0
N486 N 0.11061 0.92078 0.15331 0.0
N487 N 0.14938 0.93815 0.16925 0.0
C488 C 0.0405 0.95145 0.11816 0.0
H489 H 0.04626 0.92262 0.0982 0.0
H490 H 0.01047 0.93946 0.13536 0.0
H491 H 0.03038 0.98538 0.10445 0.0
C492 C 0.98351 0.81394 0.22277 0.0
N493 N 0.01952 0.80942 0.19887 0.0
N494 N 0.03657 0.85249 0.19111 0.0
C495 C 0.01238 0.88556 0.21063 0.0
C496 C 0.97715 0.86252 0.23038 0.0
C497 C 0.95681 0.77247 0.23879 0.0
H498 H 0.98201 0.74228 0.24412 0.0
H499 H 0.92908 0.75968 0.21976 0.0
H500 H 0.93844 0.78317 0.26366 0.0
O501 O 0.11923 0.74917 0.19591 0.0
O502 O 0.1462 0.82061 0.17821 0.0
H503 H 0.01688 0.95074 0.24174 0.0
H504 H 0.00628 0.95914 0.19555 0.0
C505 C 0.02651 0.93729 0.21496 0.0
H506 H 0.06573 0.942 0.21123 0.0
H507 H 0.17435 0.91713 0.183 0.0
O508 O 0.0159 0.69501 0.18763 0.0
C509 C 0.15345 0.77957 0.1924 0.0
Co510 Co 0.74958 0.05098 0.67895 0.0
Co511 Co 0.64858 0.08664 0.65521 0.0
C512 C 0.7183 0.0599 0.6009 0.0
O513 O 0.74781 0.05206 0.62608 0.0
O514 O 0.67485 0.07215 0.60729 0.0
C515 C 0.81377 0.97481 0.67299 0.0
O516 O 0.77616 0.95514 0.65744 0.0
C517 C 0.54503 0.09234 0.63577 0.0
C518 C 0.51977 0.14283 0.67701 0.0
C519 C 0.50361 0.11229 0.65052 0.0
N520 N 0.5835 0.10909 0.65369 0.0
N521 N 0.56815 0.14048 0.67749 0.0
C522 C 0.54819 0.05828 0.605 0.0
H523 H 0.58239 0.03756 0.6059 0.0
H524 H 0.51689 0.03346 0.60396 0.0
H525 H 0.54797 0.0797 0.58018 0.0
C526 C 0.68907 0.98669 0.72519 0.0
N527 N 0.69507 0.01977 0.69921 0.0
N528 N 0.65267 0.03201 0.68654 0.0
C529 C 0.61862 0.00532 0.70282 0.0
C530 C 0.63998 0.97649 0.72866 0.0
C531 C 0.72925 0.96834 0.74792 0.0
H532 H 0.76013 0.9938 0.7475 0.0
H533 H 0.7415 0.93299 0.73747 0.0
H534 H 0.71682 0.96313 0.77559 0.0
O535 O 0.7556 0.11834 0.69535 0.0
O536 O 0.68485 0.14311 0.67496 0.0
H537 H 0.54863 0.03729 0.70126 0.0
H538 H 0.54786 0.97195 0.70176 0.0
C539 C 0.56699 0.00426 0.69166 0.0
H540 H 0.56533 0.00287 0.66248 0.0
H541 H 0.59048 0.15778 0.69581 0.0
O542 O 0.8093 0.01558 0.68807 0.0
C543 C 0.72501 0.15182 0.69014 0.0
C544 C 0.55975 0.28513 0.05937 0.0
C545 C 0.56005 0.23524 0.06688 0.0
H546 H 0.56024 0.34045 1.01958 0.0
C547 C 0.55949 0.20259 0.03847 0.0
H548 H 0.56033 0.31145 0.0806 0.0
C549 C 0.55875 0.21937 1.00347 0.0
C550 C 0.55941 0.26925 0.99594 0.0
H551 H 0.55962 0.16405 0.04324 0.0
H552 H 0.55852 0.19304 0.98224 0.0
C553 C 0.55985 0.30192 1.02436 0.0
C554 C 0.20276 0.55866 0.52398 0.0
C555 C 0.23552 0.55816 0.49569 0.0
H556 H 0.19296 0.55943 0.58018 0.0
C557 C 0.28534 0.55737 0.50346 0.0
H558 H 0.16428 0.55918 0.51903 0.0
C559 C 0.30195 0.55824 0.53855 0.0
C560 C 0.26919 0.55907 0.56684 0.0
H561 H 0.31174 0.55712 0.48235 0.0
H562 H 0.34044 0.5584 0.5435 0.0
C563 C 0.21937 0.55868 0.55908 0.0
C564 C 0.94491 0.20208 1.02212 0.0
C565 C 0.94392 0.23479 0.99378 0.0
H566 H 0.94648 0.19243 0.07835 0.0
C567 C 0.94438 0.28466 1.00146 0.0
H568 H 0.9447 0.16356 1.01724 0.0
C569 C 0.94471 0.30136 0.03652 0.0
C570 C 0.94544 0.26865 0.06487 0.0
H571 H 0.94353 0.31103 0.98031 0.0
H572 H 0.94429 0.33988 0.0414 0.0
C573 C 0.94608 0.21879 0.05719 0.0
C574 C 0.3024 0.9478 0.52296 0.0
C575 C 0.26988 0.94696 0.49446 0.0
H576 H 0.31171 0.94909 0.57922 0.0
C577 C 0.21999 0.94739 0.50185 0.0
H578 H 0.34093 0.9476 0.51829 0.0
C579 C 0.20307 0.94753 0.53681 0.0
C580 C 0.23559 0.94811 0.56532 0.0
H581 H 0.19377 0.94663 0.48055 0.0
H582 H 0.16454 0.94707 0.54149 0.0
C583 C 0.28548 0.94879 0.55792 0.0
C584 C 0.44594 0.72123 1.00333 0.0
C585 C 0.44592 0.77127 0.99639 0.0
H586 H 0.44494 0.66513 0.04255 0.0
C587 C 0.4468 0.80332 1.02516 0.0
H588 H 0.44512 0.6954 0.98178 0.0
C589 C 0.44741 0.78586 0.05995 0.0
C590 C 0.44631 0.73585 0.06694 0.0
H591 H 0.44694 0.84196 1.02084 0.0
H592 H 0.44776 0.81179 0.08144 0.0
C593 C 0.44571 0.70374 0.03817 0.0
C594 C 0.703 0.44638 0.52303 0.0
C595 C 0.73575 0.44588 0.49475 0.0
H596 H 0.69326 0.44713 0.57922 0.0
C597 C 0.78558 0.44644 0.50246 0.0
H598 H 0.66451 0.4461 0.5181 0.0
C599 C 0.80222 0.44633 0.53753 0.0
C600 C 0.76947 0.44653 0.56582 0.0
H601 H 0.81196 0.44594 0.48133 0.0
H602 H 0.84072 0.44594 0.54246 0.0
C603 C 0.71965 0.44713 0.5581 0.0
C604 C 0.05984 0.80146 0.03675 0.0
C605 C 0.05987 0.76876 0.06509 0.0
H606 H 0.05972 0.81108 0.98054 0.0
C607 C 0.05919 0.71889 0.05746 0.0
H608 H 0.06024 0.83998 0.04161 0.0
C609 C 0.0596 0.70215 1.02242 0.0
C610 C 0.05984 0.73485 0.99407 0.0
H611 H 0.05934 0.69254 0.07864 0.0
H612 H 0.05984 0.66362 1.01755 0.0
C613 C 0.0594 0.78472 1.00171 0.0
C614 C 0.72107 0.05516 0.50034 0.0
C615 C 0.77095 0.05707 0.49313 0.0
H616 H 0.66536 0.05496 0.53965 0.0
C617 C 0.8033 0.05815 0.52177 0.0
H618 H 0.69495 0.05438 0.47897 0.0
C619 C 0.78614 0.05777 0.5567 0.0
C620 C 0.7362 0.05716 0.56382 0.0
H621 H 0.84183 0.05952 0.51722 0.0
H622 H 0.8121 0.0591 0.57815 0.0
C623 C 0.70393 0.05561 0.53518 0.0
C624 C 0.59864 0.86775 0.15784 0.0
C625 C 0.54997 0.86195 0.16715 0.0
H626 H 0.65525 0.91774 0.14532 0.0
C627 C 0.51994 0.90254 0.16868 0.0
H628 H 0.62243 0.83684 0.15621 0.0
C629 C 0.53819 0.94818 0.16128 0.0
C630 C 0.5871 0.95446 0.15286 0.0
H631 H 0.48207 0.89902 0.17522 0.0
H632 H 0.51402 0.97847 0.16338 0.0
C633 C 0.61724 0.91381 0.15127 0.0
C634 C 0.60138 0.51991 0.66889 0.0
C635 C 0.64205 0.54979 0.66656 0.0
H636 H 0.52528 0.51423 0.66459 0.0
C637 C 0.63625 0.59836 0.6569 0.0
H638 H 0.60485 0.48213 0.67576 0.0
C639 C 0.59015 0.61701 0.65068 0.0
C640 C 0.54945 0.58699 0.65299 0.0
H641 H 0.6672 0.62204 0.65469 0.0
H642 H 0.58623 0.65494 0.6444 0.0
C643 C 0.55567 0.53821 0.66187 0.0
C644 C 0.88876 0.58999 0.14904 0.0
C645 C 0.91895 0.54938 0.15081 0.0
H646 H 0.8835 0.66698 0.15379 0.0
C647 C 0.96784 0.55577 0.15935 0.0
H648 H 0.85076 0.58596 0.14299 0.0
C649 C 0.98604 0.60147 0.16669 0.0
C650 C 0.95596 0.64201 0.16498 0.0
H651 H 0.99205 0.52553 0.1616 0.0
H652 H 0.02391 0.60506 0.17333 0.0
C653 C 0.90731 0.63611 0.15555 0.0
C654 C 0.8685 0.90579 0.65839 0.0
C655 C 0.86218 0.95466 0.66709 0.0
H656 H 0.91902 0.84959 0.6461 0.0
C657 C 0.9024 0.98534 0.6678 0.0
H658 H 0.83793 0.88146 0.6574 0.0
C659 C 0.94814 0.96757 0.66022 0.0
C660 C 0.95495 0.91852 0.65237 0.0
H661 H 0.89856 0.02336 0.67387 0.0
H662 H 0.97811 0.99227 0.66177 0.0
C663 C 0.91468 0.88772 0.65159 0.0
C664 C 0.60106 0.63684 0.90364 0.0
C665 C 0.55226 0.6435 0.89491 0.0
H666 H 0.65703 0.58584 0.91551 0.0
C667 C 0.52147 0.60337 0.89378 0.0
H668 H 0.62547 0.66732 0.90494 0.0
C669 C 0.53905 0.5574 0.90094 0.0
C670 C 0.58803 0.55024 0.90878 0.0
H671 H 0.48351 0.60744 0.88766 0.0
H672 H 0.51425 0.52753 0.89907 0.0
C673 C 0.61896 0.59042 0.91 0.0
C674 C 0.90323 0.51885 0.39294 0.0
C675 C 0.86273 0.54895 0.3947 0.0
H676 H 0.97914 0.51277 0.39809 0.0
C677 C 0.86866 0.59758 0.40424 0.0
H678 H 0.89963 0.481 0.38622 0.0
C679 C 0.91476 0.61608 0.41083 0.0
C680 C 0.95533 0.58585 0.40904 0.0
H681 H 0.83782 0.62142 0.40603 0.0
H682 H 0.9188 0.65406 0.41698 0.0
C683 C 0.94892 0.53699 0.40036 0.0
C684 C 0.88901 0.91308 0.90923 0.0
C685 C 0.91869 0.9541 0.90745 0.0
H686 H 0.88468 0.83603 0.90464 0.0
C687 C 0.96765 0.94838 0.89898 0.0
H688 H 0.85098 0.91658 0.91522 0.0
C689 C 0.98642 0.90289 0.89179 0.0
C690 C 0.95685 0.86193 0.89356 0.0
H691 H 0.99144 0.97899 0.89671 0.0
H692 H 0.02431 0.89979 0.88523 0.0
C693 C 0.90813 0.86721 0.90286 0.0
C694 C 0.59136 0.88777 0.41004 0.0
C695 C 0.55084 0.9181 0.40854 0.0
H696 H 0.66819 0.88217 0.4047 0.0
C697 C 0.55726 0.96695 0.39991 0.0
H698 H 0.58732 0.84979 0.41615 0.0
C699 C 0.60289 0.98495 0.3922 0.0
C700 C 0.64334 0.95472 0.39361 0.0
H701 H 0.52707 0.99126 0.39788 0.0
H702 H 0.60651 0.02279 0.3855 0.0
C703 C 0.6374 0.90611 0.40315 0.0
C704 C 0.42548 0.12514 0.92597 0.0
C705 C 0.44753 0.14204 0.89477 0.0
H706 H 0.38889 0.06633 0.95149 0.0
C707 C 0.44709 0.11296 0.8644 0.0
H708 H 0.42561 0.14681 0.94987 0.0
C709 C 0.4255 0.06756 0.86528 0.0
C710 C 0.40478 0.05006 0.89672 0.0
H711 H 0.46376 0.12513 0.84005 0.0
H712 H 0.42642 0.04545 0.84159 0.0
C713 C 0.40469 0.07919 0.92704 0.0
C714 C 0.40322 0.48442 0.39325 0.0
C715 C 0.36269 0.4543 0.3951 0.0
H716 H 0.4792 0.49048 0.39806 0.0
C717 C 0.36863 0.40564 0.40445 0.0
H718 H 0.39962 0.52229 0.38665 0.0
C719 C 0.41476 0.38713 0.41077 0.0
C720 C 0.45535 0.41737 0.4089 0.0
H721 H 0.33777 0.38179 0.40631 0.0
H722 H 0.4188 0.34913 0.41678 0.0
C723 C 0.44895 0.46626 0.4004 0.0
C724 C 0.01622 0.40312 0.89209 0.0
C725 C 0.04575 0.36216 0.8935 0.0
H726 H 0.01132 0.47914 0.89745 0.0
C727 C 0.0946 0.36738 0.90262 0.0
H728 H 0.97823 0.40006 0.88569 0.0
C729 C 0.11386 0.41319 0.90914 0.0
C730 C 0.08424 0.45424 0.90769 0.0
H731 H 0.11802 0.33618 0.90414 0.0
H732 H 0.15197 0.41663 0.91498 0.0
C733 C 0.03515 0.44856 0.89944 0.0
C734 C 0.0572 0.03727 0.39889 0.0
C735 C 0.05091 0.08621 0.40733 0.0
H736 H 0.10638 0.98111 0.38519 0.0
C737 C 0.09153 0.11642 0.40912 0.0
H738 H 0.02692 0.01305 0.39662 0.0
C739 C 0.1376 0.09783 0.40278 0.0
C740 C 0.14343 0.04911 0.3935 0.0
H741 H 0.08757 0.15446 0.41507 0.0
H742 H 0.1685 0.12166 0.40457 0.0
C743 C 0.10286 0.01902 0.39173 0.0
C744 C 0.40789 0.36765 0.15735 0.0
C745 C 0.4566 0.36198 0.1667 0.0
H746 H 0.35121 0.41747 0.14474 0.0
C747 C 0.48662 0.40264 0.16817 0.0
H748 H 0.38412 0.33668 0.15576 0.0
C749 C 0.46831 0.44822 0.16069 0.0
C750 C 0.41936 0.45438 0.15225 0.0
H751 H 0.52452 0.39923 0.17473 0.0
H752 H 0.49249 0.47856 0.16275 0.0
C753 C 0.38924 0.41364 0.15071 0.0
C754 C 0.1362 0.4086 0.65832 0.0
C755 C 0.14173 0.45748 0.66729 0.0
H756 H 0.0866 0.35153 0.6459 0.0
C757 C 0.10103 0.48738 0.66834 0.0
H758 H 0.1672 0.3849 0.65707 0.0
C759 C 0.05554 0.46878 0.6608 0.0
C760 C 0.04952 0.41967 0.65271 0.0
H761 H 0.10432 0.5254 0.6746 0.0
H762 H 0.02517 0.49291 0.66252 0.0
C763 C 0.09031 0.38967 0.6516 0.0
C764 C 0.03868 0.05586 0.15961 0.0
C765 C 0.08755 0.0495 0.15114 0.0
H766 H 0.98268 0.10514 0.17344 0.0
C767 C 0.11777 0.09013 0.14938 0.0
H768 H 0.01446 0.02559 0.16184 0.0
C769 C 0.09927 0.13625 0.15581 0.0
C770 C 0.05063 0.14214 0.16516 0.0
H771 H 0.15576 0.08613 0.1434 0.0
H772 H 0.1231 0.16714 0.15405 0.0
C773 C 0.02053 0.10157 0.16687 0.0
C774 C 0.40275 0.02391 0.66493 0.0
C775 C 0.36227 0.05415 0.6647 0.0
H776 H 0.47877 0.01832 0.65909 0.0
C777 C 0.3681 0.10332 0.6567 0.0
H778 H 0.39923 0.98572 0.67048 0.0
C779 C 0.41414 0.12218 0.65037 0.0
C780 C 0.4546 0.09178 0.65067 0.0
H781 H 0.33727 0.1273 0.65616 0.0
H782 H 0.41829 0.16056 0.64584 0.0
C783 C 0.44832 0.04246 0.6577 0.0
C784 C 0.76651 0.30081 0.20254 0.0
C785 C 0.80298 0.26557 0.20088 0.0
H786 H 0.6907 0.31548 0.20235 0.0
C787 C 0.78983 0.21668 0.20265 0.0
H788 H 0.77545 0.33885 0.20162 0.0
C789 C 0.74117 0.2033 0.20275 0.0
C790 C 0.70466 0.23853 0.20156 0.0
H791 H 0.81697 0.18863 0.20156 0.0
H792 H 0.73221 0.16526 0.20197 0.0
C793 C 0.71786 0.28743 0.20311 0.0
C794 C 0.30189 0.74265 0.70115 0.0
C795 C 0.26645 0.70622 0.70059 0.0
H796 H 0.31691 0.81848 0.69972 0.0
C797 C 0.21772 0.71966 0.70283 0.0
H798 H 0.33982 0.73353 0.69981 0.0
C799 C 0.20461 0.7684 0.70246 0.0
C800 C 0.23995 0.80479 0.70032 0.0
H801 H 0.1895 0.69261 0.70258 0.0
H802 H 0.16663 0.7775 0.70216 0.0
C803 C 0.28879 0.79142 0.70126 0.0
C804 C 0.76058 0.20146 0.85934 0.0
C805 C 0.79714 0.23679 0.8594 0.0
H806 H 0.68471 0.18678 0.86113 0.0
C807 C 0.78387 0.28552 0.85638 0.0
H808 H 0.76955 0.16352 0.86127 0.0
C809 C 0.73521 0.29882 0.85657 0.0
C810 C 0.6987 0.26368 0.85932 0.0
H811 H 0.811 0.31366 0.85619 0.0
H812 H 0.72626 0.33686 0.85635 0.0
C813 C 0.71187 0.21475 0.85907 0.0
C814 C 0.21789 0.78763 0.35863 0.0
C815 C 0.26678 0.80075 0.36042 0.0
H816 H 0.16638 0.7301 0.3597 0.0
C817 C 0.30193 0.76415 0.35938 0.0
H818 H 0.1899 0.81486 0.35927 0.0
C819 C 0.28846 0.71548 0.35928 0.0
C820 C 0.23954 0.7024 0.36071 0.0
H821 H 0.33995 0.77305 0.36037 0.0
H822 H 0.31643 0.68827 0.36044 0.0
C823 C 0.20441 0.73898 0.35901 0.0
C824 C 0.24177 0.70265 0.85848 0.0
C825 C 0.20551 0.73806 0.86057 0.0
H826 H 0.31751 0.68747 0.8588 0.0
C827 C 0.21904 0.78692 0.86021 0.0
H828 H 0.23253 0.66466 0.85841 0.0
C829 C 0.2678 0.79996 0.86086 0.0
C830 C 0.30405 0.76444 0.86133 0.0
H831 H 0.19208 0.81509 0.86175 0.0
H832 H 0.27704 0.83787 0.8626 0.0
C833 C 0.29053 0.71572 0.85859 0.0
C834 C 0.71761 0.21568 0.35767 0.0
C835 C 0.76653 0.20268 0.35913 0.0
H836 H 0.66611 0.27312 0.3591 0.0
C837 C 0.80166 0.23933 0.35782 0.0
H838 H 0.68965 0.1884 0.35852 0.0
C839 C 0.78818 0.28795 0.35783 0.0
C840 C 0.73929 0.30094 0.35962 0.0
H841 H 0.8397 0.2305 0.35854 0.0
H842 H 0.81616 0.31522 0.35878 0.0
C843 C 0.70414 0.2643 0.35814 0.0
C844 C 0.26541 0.70308 0.20241 0.0
C845 C 0.302 0.73828 0.20126 0.0
H846 H 0.18957 0.68849 0.20127 0.0
C847 C 0.28895 0.78719 0.20289 0.0
H848 H 0.27427 0.66503 0.20156 0.0
C849 C 0.24034 0.80063 0.20238 0.0
C850 C 0.20377 0.76543 0.20071 0.0
H851 H 0.31618 0.81521 0.20217 0.0
H852 H 0.23149 0.83867 0.20153 0.0
C853 C 0.21679 0.71651 0.20238 0.0
C854 C 0.70263 0.23898 0.69749 0.0
C855 C 0.73807 0.20266 0.69796 0.0
H856 H 0.68774 0.3148 0.69604 0.0
C857 C 0.78666 0.21614 0.70185 0.0
H858 H 0.66481 0.22979 0.69486 0.0
C859 C 0.7998 0.26487 0.70216 0.0
C860 C 0.7646 0.30118 0.69915 0.0
H861 H 0.81487 0.18914 0.70243 0.0
H862 H 0.83776 0.27406 0.70313 0.0
C863 C 0.71574 0.28775 0.69835 0.0
C864 C 0.42069 0.09603 0.3171 0.0
C865 C 0.3874 0.06201 0.30412 0.0
H866 H 0.47468 0.14899 0.30435 0.0
C867 C 0.38141 0.05713 0.26737 0.0
H868 H 0.42647 0.09978 0.34536 0.0
C869 C 0.40946 0.08466 0.24402 0.0
C870 C 0.44331 0.11813 0.25699 0.0
H871 H 0.35673 0.03045 0.25676 0.0
H872 H 0.40578 0.07881 0.21576 0.0
C873 C 0.44811 0.12419 0.29374 0.0
C874 C 0.44131 0.37962 0.77019 0.0
C875 C 0.43891 0.38845 0.80677 0.0
H876 H 0.41841 0.40181 0.71824 0.0
C877 C 0.4078 0.42472 0.81924 0.0
H878 H 0.46573 0.35255 0.7599 0.0
C879 C 0.38016 0.45223 0.79555 0.0
C880 C 0.38386 0.44454 0.75892 0.0
H881 H 0.40592 0.43266 0.84731 0.0
H882 H 0.35762 0.48096 0.80572 0.0
C883 C 0.41438 0.40778 0.74645 0.0
C884 C 0.085 0.40806 0.31646 0.0
C885 C 0.11855 0.44212 0.30405 0.0
H886 H 0.03114 0.35525 0.30283 0.0
C887 C 0.12498 0.44737 0.26739 0.0
H888 H 0.07886 0.40401 0.34464 0.0
C889 C 0.09717 0.42012 0.24357 0.0
C890 C 0.06315 0.38652 0.25597 0.0
H891 H 0.14986 0.47409 0.2572 0.0
H892 H 0.10126 0.42621 0.21539 0.0
C893 C 0.05784 0.38016 0.29264 0.0
C894 C 0.09468 0.08695 0.81589 0.0
C895 C 0.06032 0.11986 0.80298 0.0
H896 H 0.1484 0.03378 0.80303 0.0
C897 C 0.05566 0.12605 0.76624 0.0
H898 H 0.09832 0.08101 0.84413 0.0
C899 C 0.08371 0.09856 0.74283 0.0
C900 C 0.11752 0.06508 0.75572 0.0
H901 H 0.02875 0.15042 0.75566 0.0
H902 H 0.07799 0.10235 0.71457 0.0
C903 C 0.12336 0.0601 0.79247 0.0
C904 C 0.631 0.9027 0.76848 0.0
C905 C 0.61425 0.94776 0.75639 0.0
H906 H 0.61865 0.84209 0.80298 0.0
C907 C 0.5708 0.96549 0.7703 0.0
H908 H 0.66427 0.88777 0.75831 0.0
C909 C 0.54334 0.93813 0.79367 0.0
C910 C 0.55997 0.89354 0.80644 0.0
H911 H 0.55732 1.00066 0.7628 0.0
H912 H 0.50871 0.95233 0.80166 0.0
C913 C 0.60436 0.87606 0.79359 0.0
C914 C 0.55796 0.62386 0.29383 0.0
C915 C 0.56287 0.61782 0.25711 0.0
H916 H 0.57951 0.5995 0.34552 0.0
C917 C 0.59676 0.58445 0.24424 0.0
H918 H 0.53135 0.6486 0.30434 0.0
C919 C 0.62478 0.557 0.26769 0.0
C920 C 0.6187 0.56187 0.30441 0.0
H921 H 0.60052 0.57864 0.21599 0.0
H922 H 0.64951 0.53038 0.25717 0.0
C923 C 0.58535 0.59578 0.31728 0.0
C924 C 0.92 0.59623 0.7434 0.0
C925 C 0.88652 0.56256 0.75648 0.0
H926 H 0.97448 0.64887 0.75598 0.0
C927 C 0.88069 0.55804 0.79324 0.0
H928 H 0.92568 0.59969 0.71513 0.0
C929 C 0.90909 0.58553 0.81651 0.0
C930 C 0.94315 0.61862 0.80344 0.0
H931 H 0.85588 0.53161 0.80393 0.0
H932 H 0.90554 0.57992 0.84479 0.0
C933 C 0.94777 0.62436 0.76667 0.0
C934 C 0.94779 0.87977 0.29193 0.0
C935 C 0.94294 0.88595 0.25522 0.0
H936 H 0.9262 0.90397 0.34364 0.0
C937 C 0.90907 0.91937 0.24235 0.0
H938 H 0.97438 0.85498 0.30245 0.0
C939 C 0.88103 0.94675 0.26581 0.0
C940 C 0.88708 0.94176 0.30253 0.0
H941 H 0.90536 0.92528 0.21411 0.0
H942 H 0.85634 0.97343 0.2553 0.0
C943 C 0.92038 0.90778 0.31539 0.0
loop_
_geom_bond_atom_site_label_1
_geom_bond_atom_site_label_2
_geom_bond_distance
_geom_bond_site_symmetry_2
_ccdc_geom_bond_type
Co0 O3 1.970 . S
Co0 N17 1.989 . S
Co0 O25 1.967 . S
Co0 O32 1.920 . S
Co1 O4 1.966 . S
Co1 N10 2.022 . S
Co1 N18 1.993 . S
Co1 O26 1.941 . S
C2 O3 1.258 . S
C2 O4 1.263 . S
O3 Co0 1.970 . S
O3 C2 1.258 . S
O4 Co1 1.966 . S
O4 C2 1.263 . S
C5 O6 1.235 . S
C5 O32 1.289 . S
O6 C5 1.235 . S
C7 C9 1.400 . S
C7 N10 1.351 . S
C7 C12 1.501 . S
C8 C9 1.387 . S
C8 N11 1.341 . S
C9 C7 1.400 . S
C9 C8 1.387 . S
N10 Co1 2.022 . S
N10 C7 1.351 . S
N10 N11 1.365 . S
N11 C8 1.341 . S
N11 N10 1.365 . S
N11 H31 0.862 . S
C12 C7 1.501 . S
C12 H13 0.961 . S
C12 H14 0.961 . S
C12 H15 0.960 . S
H13 C12 0.961 . S
H14 C12 0.961 . S
H15 C12 0.960 . S
C16 N17 1.342 . S
C16 C20 1.401 . S
C16 C21 1.499 . S
N17 Co0 1.989 . S
N17 C16 1.342 . S
N17 N18 1.388 . S
N18 Co1 1.993 . S
N18 N17 1.388 . S
N18 C19 1.346 . S
C19 N18 1.346 . S
C19 C20 1.396 . S
C19 C29 1.510 . S
C20 C16 1.401 . S
C20 C19 1.396 . S
C21 C16 1.499 . S
C21 H22 0.959 . S
C21 H23 0.960 . S
C21 H24 0.961 . S
H22 C21 0.959 . S
H23 C21 0.960 . S
H24 C21 0.961 . S
O25 Co0 1.967 . S
O25 C33 1.258 . S
O26 Co1 1.941 . S
O26 C33 1.266 . S
H27 C29 0.959 . S
H28 C29 0.961 . S
C29 C19 1.510 . S
C29 H27 0.959 . S
C29 H28 0.961 . S
C29 H30 0.960 . S
H30 C29 0.960 . S
H31 N11 0.862 . S
O32 Co0 1.920 . S
O32 C5 1.289 . S
C33 O25 1.258 . S
C33 O26 1.266 . S
Co34 O37 1.970 . S
Co34 N51 1.989 . S
Co34 O59 1.967 . S
Co34 O66 1.920 . S
Co35 O38 1.966 . S
Co35 N44 2.022 . S
Co35 N52 1.993 . S
Co35 O60 1.941 . S
C36 O37 1.258 . S
C36 O38 1.263 . S
O37 Co34 1.970 . S
O37 C36 1.258 . S
O38 Co35 1.966 . S
O38 C36 1.263 . S
C39 O40 1.235 . S
C39 O66 1.289 . S
O40 C39 1.235 . S
C41 C43 1.400 . S
C41 N44 1.351 . S
C41 C46 1.501 . S
C42 C43 1.387 . S
C42 N45 1.341 . S
C43 C41 1.400 . S
C43 C42 1.387 . S
N44 Co35 2.022 . S
N44 C41 1.351 . S
N44 N45 1.365 . S
N45 C42 1.341 . S
N45 N44 1.365 . S
N45 H65 0.862 . S
C46 C41 1.501 . S
C46 H47 0.961 . S
C46 H48 0.961 . S
C46 H49 0.960 . S
H47 C46 0.961 . S
H48 C46 0.961 . S
H49 C46 0.960 . S
C50 N51 1.342 . S
C50 C54 1.401 . S
C50 C55 1.499 . S
N51 Co34 1.989 . S
N51 C50 1.342 . S
N51 N52 1.388 . S
N52 Co35 1.993 . S
N52 N51 1.388 . S
N52 C53 1.346 . S
C53 N52 1.346 . S
C53 C54 1.396 . S
C53 C63 1.510 . S
C54 C50 1.401 . S
C54 C53 1.396 . S
C55 C50 1.499 . S
C55 H56 0.959 . S
C55 H57 0.960 . S
C55 H58 0.961 . S
H56 C55 0.959 . S
H57 C55 0.960 . S
H58 C55 0.961 . S
O59 Co34 1.967 . S
O59 C67 1.258 . S
O60 Co35 1.941 . S
O60 C67 1.266 . S
H61 C63 0.959 . S
H62 C63 0.961 . S
C63 C53 1.510 . S
C63 H61 0.959 . S
C63 H62 0.961 . S
C63 H64 0.960 . S
H64 C63 0.960 . S
H65 N45 0.862 . S
O66 Co34 1.920 . S
O66 C39 1.289 . S
C67 O59 1.258 . S
C67 O60 1.266 . S
Co68 O71 1.970 . S
Co68 N85 1.989 1_655 S
Co68 O93 1.967 . S
Co68 O100 1.920 . S
Co69 O72 1.966 . S
Co69 N78 2.022 . S
Co69 N86 1.993 1_655 S
Co69 O94 1.941 . S
C70 O71 1.258 . S
C70 O72 1.263 . S
O71 Co68 1.970 . S
O71 C70 1.258 . S
O72 Co69 1.966 . S
O72 C70 1.263 . S
C73 O74 1.235 . S
C73 O100 1.289 1_455 S
O74 C73 1.235 . S
C75 C77 1.400 . S
C75 N78 1.351 . S
C75 C80 1.501 1_655 S
C76 C77 1.387 . S
C76 N79 1.341 . S
C77 C75 1.400 . S
C77 C76 1.387 . S
N78 Co69 2.022 . S
N78 C75 1.351 . S
N78 N79 1.365 . S
N79 C76 1.341 . S
N79 N78 1.365 . S
N79 H99 0.862 . S
C80 C75 1.501 1_455 S
C80 H81 0.961 1_455 S
C80 H82 0.961 . S
C80 H83 0.960 1_455 S
H81 C80 0.961 1_655 S
H82 C80 0.961 . S
H83 C80 0.960 1_655 S
C84 N85 1.342 . S
C84 C88 1.401 . S
C84 C89 1.499 . S
N85 Co68 1.989 1_455 S
N85 C84 1.342 . S
N85 N86 1.388 . S
N86 Co69 1.993 1_455 S
N86 N85 1.388 . S
N86 C87 1.346 . S
C87 N86 1.346 . S
C87 C88 1.396 . S
C87 C97 1.510 . S
C88 C84 1.401 . S
C88 C87 1.396 . S
C89 C84 1.499 . S
C89 H90 0.959 . S
C89 H91 0.960 . S
C89 H92 0.961 . S
H90 C89 0.959 . S
H91 C89 0.960 . S
H92 C89 0.961 . S
O93 Co68 1.967 . S
O93 C101 1.258 . S
O94 Co69 1.941 . S
O94 C101 1.266 . S
H95 C97 0.959 . S
H96 C97 0.961 . S
C97 C87 1.510 . S
C97 H95 0.959 . S
C97 H96 0.961 . S
C97 H98 0.960 . S
H98 C97 0.960 . S
H99 N79 0.862 . S
O100 Co68 1.920 . S
O100 C73 1.289 1_655 S
C101 O93 1.258 . S
C101 O94 1.266 . S
Co102 O105 1.970 . S
Co102 N119 1.989 1_565 S
Co102 O127 1.967 . S
Co102 O134 1.920 . S
Co103 O106 1.966 . S
Co103 N112 2.022 . S
Co103 N120 1.993 1_565 S
Co103 O128 1.941 . S
C104 O105 1.258 . S
C104 O106 1.263 . S
O105 Co102 1.970 . S
O105 C104 1.258 . S
O106 Co103 1.966 . S
O106 C104 1.263 . S
C107 O108 1.235 . S
C107 O134 1.289 1_545 S
O108 C107 1.235 . S
C109 C111 1.400 . S
C109 N112 1.351 . S
C109 C114 1.501 1_565 S
C110 C111 1.387 . S
C110 N113 1.341 . S
C111 C109 1.400 . S
C111 C110 1.387 . S
N112 Co103 2.022 . S
N112 C109 1.351 . S
N112 N113 1.365 . S
N113 C110 1.341 . S
N113 N112 1.365 . S
N113 H133 0.862 . S
C114 C109 1.501 1_545 S
C114 H115 0.961 1_545 S
C114 H116 0.961 . S
C114 H117 0.960 1_545 S
H115 C114 0.961 1_565 S
H116 C114 0.961 . S
H117 C114 0.960 1_565 S
C118 N119 1.342 . S
C118 C122 1.401 . S
C118 C123 1.499 . S
N119 Co102 1.989 1_545 S
N119 C118 1.342 . S
N119 N120 1.388 . S
N120 Co103 1.993 1_545 S
N120 N119 1.388 . S
N120 C121 1.346 . S
C121 N120 1.346 . S
C121 C122 1.396 . S
C121 C131 1.510 . S
C122 C118 1.401 . S
C122 C121 1.396 . S
C123 C118 1.499 . S
C123 H124 0.959 . S
C123 H125 0.960 . S
C123 H126 0.961 . S
H124 C123 0.959 . S
H125 C123 0.960 . S
H126 C123 0.961 . S
O127 Co102 1.967 . S
O127 C135 1.258 . S
O128 Co103 1.941 . S
O128 C135 1.266 . S
H129 C131 0.959 . S
H130 C131 0.961 . S
C131 C121 1.510 . S
C131 H129 0.959 . S
C131 H130 0.961 . S
C131 H132 0.960 . S
H132 C131 0.960 . S
H133 N113 0.862 . S
O134 Co102 1.920 . S
O134 C107 1.289 1_565 S
C135 O127 1.258 . S
C135 O128 1.266 . S
Co136 O139 1.970 . S
Co136 N153 1.989 . S
Co136 O161 1.967 . S
Co136 O168 1.920 . S
Co137 O140 1.966 . S
Co137 N146 2.022 . S
Co137 N154 1.993 . S
Co137 O162 1.941 . S
C138 O139 1.258 . S
C138 O140 1.263 . S
O139 Co136 1.970 . S
O139 C138 1.258 . S
O140 Co137 1.966 . S
O140 C138 1.263 . S
C141 O142 1.235 . S
C141 O168 1.289 . S
O142 C141 1.235 . S
C143 C145 1.400 . S
C143 N146 1.351 . S
C143 C148 1.501 . S
C144 C145 1.387 . S
C144 N147 1.341 . S
C145 C143 1.400 . S
C145 C144 1.387 . S
N146 Co137 2.022 . S
N146 C143 1.351 . S
N146 N147 1.365 . S
N147 C144 1.341 . S
N147 N146 1.365 . S
N147 H167 0.862 . S
C148 C143 1.501 . S
C148 H149 0.961 . S
C148 H150 0.961 . S
C148 H151 0.960 . S
H149 C148 0.961 . S
H150 C148 0.961 . S
H151 C148 0.960 . S
C152 N153 1.342 . S
C152 C156 1.401 . S
C152 C157 1.499 . S
N153 Co136 1.989 . S
N153 C152 1.342 . S
N153 N154 1.388 . S
N154 Co137 1.993 . S
N154 N153 1.388 . S
N154 C155 1.346 . S
C155 N154 1.346 . S
C155 C156 1.396 . S
C155 C165 1.510 . S
C156 C152 1.401 . S
C156 C155 1.396 . S
C157 C152 1.499 . S
C157 H158 0.959 . S
C157 H159 0.960 . S
C157 H160 0.961 . S
H158 C157 0.959 . S
H159 C157 0.960 . S
H160 C157 0.961 . S
O161 Co136 1.967 . S
O161 C169 1.258 . S
O162 Co137 1.941 . S
O162 C169 1.266 . S
H163 C165 0.959 . S
H164 C165 0.961 . S
C165 C155 1.510 . S
C165 H163 0.959 . S
C165 H164 0.961 . S
C165 H166 0.960 . S
H166 C165 0.960 . S
H167 N147 0.862 . S
O168 Co136 1.920 . S
O168 C141 1.289 . S
C169 O161 1.258 . S
C169 O162 1.266 . S
Co170 O173 1.970 . S
Co170 N187 1.989 . S
Co170 O195 1.967 . S
Co170 O202 1.920 . S
Co171 O174 1.966 . S
Co171 N180 2.022 . S
Co171 N188 1.993 . S
Co171 O196 1.941 . S
C172 O173 1.258 . S
C172 O174 1.263 . S
O173 Co170 1.970 . S
O173 C172 1.258 . S
O174 Co171 1.966 . S
O174 C172 1.263 . S
C175 O176 1.235 . S
C175 O202 1.289 . S
O176 C175 1.235 . S
C177 C179 1.400 . S
C177 N180 1.351 . S
C177 C182 1.501 . S
C178 C179 1.387 . S
C178 N181 1.341 . S
C179 C177 1.400 . S
C179 C178 1.387 . S
N180 Co171 2.022 . S
N180 C177 1.351 . S
N180 N181 1.365 . S
N181 C178 1.341 . S
N181 N180 1.365 . S
N181 H201 0.862 . S
C182 C177 1.501 . S
C182 H183 0.961 . S
C182 H184 0.961 . S
C182 H185 0.960 . S
H183 C182 0.961 . S
H184 C182 0.961 . S
H185 C182 0.960 . S
C186 N187 1.342 . S
C186 C190 1.401 . S
C186 C191 1.499 . S
N187 Co170 1.989 . S
N187 C186 1.342 . S
N187 N188 1.388 . S
N188 Co171 1.993 . S
N188 N187 1.388 . S
N188 C189 1.346 . S
C189 N188 1.346 . S
C189 C190 1.396 . S
C189 C199 1.510 . S
C190 C186 1.401 . S
C190 C189 1.396 . S
C191 C186 1.499 . S
C191 H192 0.959 . S
C191 H193 0.960 . S
C191 H194 0.961 . S
H192 C191 0.959 . S
H193 C191 0.960 . S
H194 C191 0.961 . S
O195 Co170 1.967 . S
O195 C203 1.258 . S
O196 Co171 1.941 . S
O196 C203 1.266 . S
H197 C199 0.959 . S
H198 C199 0.961 . S
C199 C189 1.510 . S
C199 H197 0.959 . S
C199 H198 0.961 . S
C199 H200 0.960 . S
H200 C199 0.960 . S
H201 N181 0.862 . S
O202 Co170 1.920 . S
O202 C175 1.289 . S
C203 O195 1.258 . S
C203 O196 1.266 . S
Co204 O207 1.970 . S
Co204 N221 1.989 1_655 S
Co204 O229 1.967 . S
Co204 O236 1.920 . S
Co205 O208 1.966 . S
Co205 N214 2.022 . S
Co205 N222 1.993 1_655 S
Co205 O230 1.941 . S
C206 O207 1.258 . S
C206 O208 1.263 . S
O207 Co204 1.970 . S
O207 C206 1.258 . S
O208 Co205 1.966 . S
O208 C206 1.263 . S
C209 O210 1.235 . S
C209 O236 1.289 1_455 S
O210 C209 1.235 . S
C211 C213 1.400 . S
C211 N214 1.351 . S
C211 C216 1.501 1_655 S
C212 C213 1.387 . S
C212 N215 1.341 . S
C213 C211 1.400 . S
C213 C212 1.387 . S
N214 Co205 2.022 . S
N214 C211 1.351 . S
N214 N215 1.365 . S
N215 C212 1.341 . S
N215 N214 1.365 . S
N215 H235 0.862 . S
C216 C211 1.501 1_455 S
C216 H217 0.961 1_455 S
C216 H218 0.961 . S
C216 H219 0.960 1_455 S
H217 C216 0.961 1_655 S
H218 C216 0.961 . S
H219 C216 0.960 1_655 S
C220 N221 1.342 . S
C220 C224 1.401 . S
C220 C225 1.499 . S
N221 Co204 1.989 1_455 S
N221 C220 1.342 . S
N221 N222 1.388 . S
N222 Co205 1.993 1_455 S
N222 N221 1.388 . S
N222 C223 1.346 . S
C223 N222 1.346 . S
C223 C224 1.396 . S
C223 C233 1.510 . S
C224 C220 1.401 . S
C224 C223 1.396 . S
C225 C220 1.499 . S
C225 H226 0.959 . S
C225 H227 0.960 . S
C225 H228 0.961 . S
H226 C225 0.959 . S
H227 C225 0.960 . S
H228 C225 0.961 . S
O229 Co204 1.967 . S
O229 C237 1.258 . S
O230 Co205 1.941 . S
O230 C237 1.266 . S
H231 C233 0.959 . S
H232 C233 0.961 . S
C233 C223 1.510 . S
C233 H231 0.959 . S
C233 H232 0.961 . S
C233 H234 0.960 . S
H234 C233 0.960 . S
H235 N215 0.862 . S
O236 Co204 1.920 . S
O236 C209 1.289 1_655 S
C237 O229 1.258 . S
C237 O230 1.266 . S
Co238 O241 1.970 . S
Co238 N255 1.989 1_565 S
Co238 O263 1.967 . S
Co238 O270 1.920 . S
Co239 O242 1.966 . S
Co239 N248 2.022 . S
Co239 N256 1.993 1_565 S
Co239 O264 1.941 . S
C240 O241 1.258 . S
C240 O242 1.263 . S
O241 Co238 1.970 . S
O241 C240 1.258 . S
O242 Co239 1.966 . S
O242 C240 1.263 . S
C243 O244 1.235 . S
C243 O270 1.289 1_545 S
O244 C243 1.235 . S
C245 C247 1.400 . S
C245 N248 1.351 . S
C245 C250 1.501 1_565 S
C246 C247 1.387 . S
C246 N249 1.341 . S
C247 C245 1.400 . S
C247 C246 1.387 . S
N248 Co239 2.022 . S
N248 C245 1.351 . S
N248 N249 1.365 . S
N249 C246 1.341 . S
N249 N248 1.365 . S
N249 H269 0.862 . S
C250 C245 1.501 1_545 S
C250 H251 0.961 1_545 S
C250 H252 0.961 . S
C250 H253 0.960 1_545 S
H251 C250 0.961 1_565 S
H252 C250 0.961 . S
H253 C250 0.960 1_565 S
C254 N255 1.342 . S
C254 C258 1.401 . S
C254 C259 1.499 . S
N255 Co238 1.989 1_545 S
N255 C254 1.342 . S
N255 N256 1.388 . S
N256 Co239 1.993 1_545 S
N256 N255 1.388 . S
N256 C257 1.346 . S
C257 N256 1.346 . S
C257 C258 1.396 . S
C257 C267 1.510 . S
C258 C254 1.401 . S
C258 C257 1.396 . S
C259 C254 1.499 . S
C259 H260 0.959 . S
C259 H261 0.960 . S
C259 H262 0.961 . S
H260 C259 0.959 . S
H261 C259 0.960 . S
H262 C259 0.961 . S
O263 Co238 1.967 . S
O263 C271 1.258 . S
O264 Co239 1.941 . S
O264 C271 1.266 . S
H265 C267 0.959 . S
H266 C267 0.961 . S
C267 C257 1.510 . S
C267 H265 0.959 . S
C267 H266 0.961 . S
C267 H268 0.960 . S
H268 C267 0.960 . S
H269 N249 0.862 . S
O270 Co238 1.920 . S
O270 C243 1.289 1_565 S
C271 O263 1.258 . S
C271 O264 1.266 . S
Co272 O275 1.970 . S
Co272 N289 1.989 . S
Co272 O297 1.967 . S
Co272 O304 1.920 . S
Co273 O276 1.966 . S
Co273 N282 2.022 . S
Co273 N290 1.993 . S
Co273 O298 1.941 . S
C274 O275 1.258 . S
C274 O276 1.263 . S
O275 Co272 1.970 . S
O275 C274 1.258 . S
O276 Co273 1.966 . S
O276 C274 1.263 . S
C277 O278 1.235 . S
C277 O304 1.289 . S
O278 C277 1.235 . S
C279 C281 1.400 . S
C279 N282 1.351 . S
C279 C284 1.501 . S
C280 C281 1.387 . S
C280 N283 1.341 . S
C281 C279 1.400 . S
C281 C280 1.387 . S
N282 Co273 2.022 . S
N282 C279 1.351 . S
N282 N283 1.365 . S
N283 C280 1.341 . S
N283 N282 1.365 . S
N283 H303 0.862 . S
C284 C279 1.501 . S
C284 H285 0.961 . S
C284 H286 0.961 . S
C284 H287 0.960 . S
H285 C284 0.961 . S
H286 C284 0.961 . S
H287 C284 0.960 . S
C288 N289 1.342 . S
C288 C292 1.401 . S
C288 C293 1.499 . S
N289 Co272 1.989 . S
N289 C288 1.342 . S
N289 N290 1.388 . S
N290 Co273 1.993 . S
N290 N289 1.388 . S
N290 C291 1.346 . S
C291 N290 1.346 . S
C291 C292 1.396 . S
C291 C301 1.510 . S
C292 C288 1.401 . S
C292 C291 1.396 . S
C293 C288 1.499 . S
C293 H294 0.959 . S
C293 H295 0.960 . S
C293 H296 0.961 . S
H294 C293 0.959 . S
H295 C293 0.960 . S
H296 C293 0.961 . S
O297 Co272 1.967 . S
O297 C305 1.258 . S
O298 Co273 1.941 . S
O298 C305 1.266 . S
H299 C301 0.959 . S
H300 C301 0.961 . S
C301 C291 1.510 . S
C301 H299 0.959 . S
C301 H300 0.961 . S
C301 H302 0.960 . S
H302 C301 0.960 . S
H303 N283 0.862 . S
O304 Co272 1.920 . S
O304 C277 1.289 . S
C305 O297 1.258 . S
C305 O298 1.266 . S
Co306 O309 1.970 . S
Co306 N323 1.989 . S
Co306 O331 1.967 . S
Co306 O338 1.920 . S
Co307 O310 1.966 . S
Co307 N316 2.022 . S
Co307 N324 1.993 . S
Co307 O332 1.941 . S
C308 O309 1.258 . S
C308 O310 1.263 . S
O309 Co306 1.970 . S
O309 C308 1.258 . S
O310 Co307 1.966 . S
O310 C308 1.263 . S
C311 O312 1.235 . S
C311 O338 1.289 . S
O312 C311 1.235 . S
C313 C315 1.400 . S
C313 N316 1.351 . S
C313 C318 1.501 . S
C314 C315 1.387 . S
C314 N317 1.341 . S
C315 C313 1.400 . S
C315 C314 1.387 . S
N316 Co307 2.022 . S
N316 C313 1.351 . S
N316 N317 1.365 . S
N317 C314 1.341 . S
N317 N316 1.365 . S
N317 H337 0.862 . S
C318 C313 1.501 . S
C318 H319 0.961 . S
C318 H320 0.961 . S
C318 H321 0.960 . S
H319 C318 0.961 . S
H320 C318 0.961 . S
H321 C318 0.960 . S
C322 N323 1.342 . S
C322 C326 1.401 . S
C322 C327 1.499 . S
N323 Co306 1.989 . S
N323 C322 1.342 . S
N323 N324 1.388 . S
N324 Co307 1.993 . S
N324 N323 1.388 . S
N324 C325 1.346 . S
C325 N324 1.346 . S
C325 C326 1.396 . S
C325 C335 1.510 . S
C326 C322 1.401 . S
C326 C325 1.396 . S
C327 C322 1.499 . S
C327 H328 0.959 . S
C327 H329 0.960 . S
C327 H330 0.961 . S
H328 C327 0.959 . S
H329 C327 0.960 . S
H330 C327 0.961 . S
O331 Co306 1.967 . S
O331 C339 1.258 . S
O332 Co307 1.941 . S
O332 C339 1.266 . S
H333 C335 0.959 . S
H334 C335 0.961 . S
C335 C325 1.510 . S
C335 H333 0.959 . S
C335 H334 0.961 . S
C335 H336 0.960 . S
H336 C335 0.960 . S
H337 N317 0.862 . S
O338 Co306 1.920 . S
O338 C311 1.289 . S
C339 O331 1.258 . S
C339 O332 1.266 . S
Co340 O343 1.970 . S
Co340 N357 1.989 1_455 S
Co340 O365 1.967 . S
Co340 O372 1.920 . S
Co341 O344 1.966 . S
Co341 N350 2.022 . S
Co341 N358 1.993 1_455 S
Co341 O366 1.941 . S
C342 O343 1.258 . S
C342 O344 1.263 . S
O343 Co340 1.970 . S
O343 C342 1.258 . S
O344 Co341 1.966 . S
O344 C342 1.263 . S
C345 O346 1.235 . S
C345 O372 1.289 1_655 S
O346 C345 1.235 . S
C347 C349 1.400 . S
C347 N350 1.351 . S
C347 C352 1.501 1_455 S
C348 C349 1.387 . S
C348 N351 1.341 . S
C349 C347 1.400 . S
C349 C348 1.387 . S
N350 Co341 2.022 . S
N350 C347 1.351 . S
N350 N351 1.365 . S
N351 C348 1.341 . S
N351 N350 1.365 . S
N351 H371 0.862 . S
C352 C347 1.501 1_655 S
C352 H353 0.961 1_655 S
C352 H354 0.961 . S
C352 H355 0.960 1_655 S
H353 C352 0.961 1_455 S
H354 C352 0.961 . S
H355 C352 0.960 1_455 S
C356 N357 1.342 . S
C356 C360 1.401 . S
C356 C361 1.499 . S
N357 Co340 1.989 1_655 S
N357 C356 1.342 . S
N357 N358 1.388 . S
N358 Co341 1.993 1_655 S
N358 N357 1.388 . S
N358 C359 1.346 . S
C359 N358 1.346 . S
C359 C360 1.396 . S
C359 C369 1.510 . S
C360 C356 1.401 . S
C360 C359 1.396 . S
C361 C356 1.499 . S
C361 H362 0.959 . S
C361 H363 0.960 . S
C361 H364 0.961 . S
H362 C361 0.959 . S
H363 C361 0.960 . S
H364 C361 0.961 . S
O365 Co340 1.967 . S
O365 C373 1.258 . S
O366 Co341 1.941 . S
O366 C373 1.266 . S
H367 C369 0.959 . S
H368 C369 0.961 . S
C369 C359 1.510 . S
C369 H367 0.959 . S
C369 H368 0.961 . S
C369 H370 0.960 . S
H370 C369 0.960 . S
H371 N351 0.862 . S
O372 Co340 1.920 . S
O372 C345 1.289 1_455 S
C373 O365 1.258 . S
C373 O366 1.266 . S
Co374 O377 1.970 . S
Co374 N391 1.989 1_545 S
Co374 O399 1.967 . S
Co374 O406 1.920 . S
Co375 O378 1.966 . S
Co375 N384 2.022 . S
Co375 N392 1.993 1_545 S
Co375 O400 1.941 . S
C376 O377 1.258 . S
C376 O378 1.263 . S
O377 Co374 1.970 . S
O377 C376 1.258 . S
O378 Co375 1.966 . S
O378 C376 1.263 . S
C379 O380 1.235 . S
C379 O406 1.289 1_565 S
O380 C379 1.235 . S
C381 C383 1.400 . S
C381 N384 1.351 . S
C381 C386 1.501 1_545 S
C382 C383 1.387 . S
C382 N385 1.341 . S
C383 C381 1.400 . S
C383 C382 1.387 . S
N384 Co375 2.022 . S
N384 C381 1.351 . S
N384 N385 1.365 . S
N385 C382 1.341 . S
N385 N384 1.365 . S
N385 H405 0.862 . S
C386 C381 1.501 1_565 S
C386 H387 0.961 1_565 S
C386 H388 0.961 . S
C386 H389 0.960 1_565 S
H387 C386 0.961 1_545 S
H388 C386 0.961 . S
H389 C386 0.960 1_545 S
C390 N391 1.342 . S
C390 C394 1.401 . S
C390 C395 1.499 . S
N391 Co374 1.989 1_565 S
N391 C390 1.342 . S
N391 N392 1.388 . S
N392 Co375 1.993 1_565 S
N392 N391 1.388 . S
N392 C393 1.346 . S
C393 N392 1.346 . S
C393 C394 1.396 . S
C393 C403 1.510 . S
C394 C390 1.401 . S
C394 C393 1.396 . S
C395 C390 1.499 . S
C395 H396 0.959 . S
C395 H397 0.960 . S
C395 H398 0.961 . S
H396 C395 0.959 . S
H397 C395 0.960 . S
H398 C395 0.961 . S
O399 Co374 1.967 . S
O399 C407 1.258 . S
O400 Co375 1.941 . S
O400 C407 1.266 . S
H401 C403 0.959 . S
H402 C403 0.961 . S
C403 C393 1.510 . S
C403 H401 0.959 . S
C403 H402 0.961 . S
C403 H404 0.960 . S
H404 C403 0.960 . S
H405 N385 0.862 . S
O406 Co374 1.920 . S
O406 C379 1.289 1_545 S
C407 O399 1.258 . S
C407 O400 1.266 . S
Co408 O411 1.970 . S
Co408 N425 1.989 . S
Co408 O433 1.967 . S
Co408 O440 1.920 . S
Co409 O412 1.966 . S
Co409 N418 2.022 . S
Co409 N426 1.993 . S
Co409 O434 1.941 . S
C410 O411 1.258 . S
C410 O412 1.263 . S
O411 Co408 1.970 . S
O411 C410 1.258 . S
O412 Co409 1.966 . S
O412 C410 1.263 . S
C413 O414 1.235 . S
C413 O440 1.289 . S
O414 C413 1.235 . S
C415 C417 1.400 . S
C415 N418 1.351 . S
C415 C420 1.501 . S
C416 C417 1.387 . S
C416 N419 1.341 . S
C417 C415 1.400 . S
C417 C416 1.387 . S
N418 Co409 2.022 . S
N418 C415 1.351 . S
N418 N419 1.365 . S
N419 C416 1.341 . S
N419 N418 1.365 . S
N419 H439 0.862 . S
C420 C415 1.501 . S
C420 H421 0.961 . S
C420 H422 0.961 . S
C420 H423 0.960 . S
H421 C420 0.961 . S
H422 C420 0.961 . S
H423 C420 0.960 . S
C424 N425 1.342 . S
C424 C428 1.401 . S
C424 C429 1.499 . S
N425 Co408 1.989 . S
N425 C424 1.342 . S
N425 N426 1.388 . S
N426 Co409 1.993 . S
N426 N425 1.388 . S
N426 C427 1.346 . S
C427 N426 1.346 . S
C427 C428 1.396 . S
C427 C437 1.510 . S
C428 C424 1.401 . S
C428 C427 1.396 . S
C429 C424 1.499 . S
C429 H430 0.959 . S
C429 H431 0.960 . S
C429 H432 0.961 . S
H430 C429 0.959 . S
H431 C429 0.960 . S
H432 C429 0.961 . S
O433 Co408 1.967 . S
O433 C441 1.258 . S
O434 Co409 1.941 . S
O434 C441 1.266 . S
H435 C437 0.959 . S
H436 C437 0.961 . S
C437 C427 1.510 . S
C437 H435 0.959 . S
C437 H436 0.961 . S
C437 H438 0.960 . S
H438 C437 0.960 . S
H439 N419 0.862 . S
O440 Co408 1.920 . S
O440 C413 1.289 . S
C441 O433 1.258 . S
C441 O434 1.266 . S
Co442 O445 1.970 . S
Co442 N459 1.989 . S
Co442 O467 1.967 . S
Co442 O474 1.920 . S
Co443 O446 1.966 . S
Co443 N452 2.022 . S
Co443 N460 1.993 . S
Co443 O468 1.941 . S
C444 O445 1.258 . S
C444 O446 1.263 . S
O445 Co442 1.970 . S
O445 C444 1.258 . S
O446 Co443 1.966 . S
O446 C444 1.263 . S
C447 O448 1.235 . S
C447 O474 1.289 . S
O448 C447 1.235 . S
C449 C451 1.400 . S
C449 N452 1.351 . S
C449 C454 1.501 . S
C450 C451 1.387 . S
C450 N453 1.341 . S
C451 C449 1.400 . S
C451 C450 1.387 . S
N452 Co443 2.022 . S
N452 C449 1.351 . S
N452 N453 1.365 . S
N453 C450 1.341 . S
N453 N452 1.365 . S
N453 H473 0.862 . S
C454 C449 1.501 . S
C454 H455 0.961 . S
C454 H456 0.961 . S
C454 H457 0.960 . S
H455 C454 0.961 . S
H456 C454 0.961 . S
H457 C454 0.960 . S
C458 N459 1.342 . S
C458 C462 1.401 . S
C458 C463 1.499 . S
N459 Co442 1.989 . S
N459 C458 1.342 . S
N459 N460 1.388 . S
N460 Co443 1.993 . S
N460 N459 1.388 . S
N460 C461 1.346 . S
C461 N460 1.346 . S
C461 C462 1.396 . S
C461 C471 1.510 . S
C462 C458 1.401 . S
C462 C461 1.396 . S
C463 C458 1.499 . S
C463 H464 0.959 . S
C463 H465 0.960 . S
C463 H466 0.961 . S
H464 C463 0.959 . S
H465 C463 0.960 . S
H466 C463 0.961 . S
O467 Co442 1.967 . S
O467 C475 1.258 . S
O468 Co443 1.941 . S
O468 C475 1.266 . S
H469 C471 0.959 . S
H470 C471 0.961 . S
C471 C461 1.510 . S
C471 H469 0.959 . S
C471 H470 0.961 . S
C471 H472 0.960 . S
H472 C471 0.960 . S
H473 N453 0.862 . S
O474 Co442 1.920 . S
O474 C447 1.289 . S
C475 O467 1.258 . S
C475 O468 1.266 . S
Co476 O479 1.970 . S
Co476 N493 1.989 1_455 S
Co476 O501 1.967 . S
Co476 O508 1.920 . S
Co477 O480 1.966 . S
Co477 N486 2.022 . S
Co477 N494 1.993 1_455 S
Co477 O502 1.941 . S
C478 O479 1.258 . S
C478 O480 1.263 . S
O479 Co476 1.970 . S
O479 C478 1.258 . S
O480 Co477 1.966 . S
O480 C478 1.263 . S
C481 O482 1.235 . S
C481 O508 1.289 1_655 S
O482 C481 1.235 . S
C483 C485 1.400 . S
C483 N486 1.351 . S
C483 C488 1.501 1_455 S
C484 C485 1.387 . S
C484 N487 1.341 . S
C485 C483 1.400 . S
C485 C484 1.387 . S
N486 Co477 2.022 . S
N486 C483 1.351 . S
N486 N487 1.365 . S
N487 C484 1.341 . S
N487 N486 1.365 . S
N487 H507 0.862 . S
C488 C483 1.501 1_655 S
C488 H489 0.961 1_655 S
C488 H490 0.961 . S
C488 H491 0.960 1_655 S
H489 C488 0.961 1_455 S
H490 C488 0.961 . S
H491 C488 0.960 1_455 S
C492 N493 1.342 . S
C492 C496 1.401 . S
C492 C497 1.499 . S
N493 Co476 1.989 1_655 S
N493 C492 1.342 . S
N493 N494 1.388 . S
N494 Co477 1.993 1_655 S
N494 N493 1.388 . S
N494 C495 1.346 . S
C495 N494 1.346 . S
C495 C496 1.396 . S
C495 C505 1.510 . S
C496 C492 1.401 . S
C496 C495 1.396 . S
C497 C492 1.499 . S
C497 H498 0.959 . S
C497 H499 0.960 . S
C497 H500 0.961 . S
H498 C497 0.959 . S
H499 C497 0.960 . S
H500 C497 0.961 . S
O501 Co476 1.967 . S
O501 C509 1.258 . S
O502 Co477 1.941 . S
O502 C509 1.266 . S
H503 C505 0.959 . S
H504 C505 0.961 . S
C505 C495 1.510 . S
C505 H503 0.959 . S
C505 H504 0.961 . S
C505 H506 0.960 . S
H506 C505 0.960 . S
H507 N487 0.862 . S
O508 Co476 1.920 . S
O508 C481 1.289 1_455 S
C509 O501 1.258 . S
C509 O502 1.266 . S
Co510 O513 1.970 . S
Co510 N527 1.989 1_545 S
Co510 O535 1.967 . S
Co510 O542 1.920 . S
Co511 O514 1.966 . S
Co511 N520 2.022 . S
Co511 N528 1.993 1_545 S
Co511 O536 1.941 . S
C512 O513 1.258 . S
C512 O514 1.263 . S
O513 Co510 1.970 . S
O513 C512 1.258 . S
O514 Co511 1.966 . S
O514 C512 1.263 . S
C515 O516 1.235 . S
C515 O542 1.289 1_565 S
O516 C515 1.235 . S
C517 C519 1.400 . S
C517 N520 1.351 . S
C517 C522 1.501 1_545 S
C518 C519 1.387 . S
C518 N521 1.341 . S
C519 C517 1.400 . S
C519 C518 1.387 . S
N520 Co511 2.022 . S
N520 C517 1.351 . S
N520 N521 1.365 . S
N521 C518 1.341 . S
N521 N520 1.365 . S
N521 H541 0.862 . S
C522 C517 1.501 1_565 S
C522 H523 0.961 1_565 S
C522 H524 0.961 . S
C522 H525 0.960 1_565 S
H523 C522 0.961 1_545 S
H524 C522 0.961 . S
H525 C522 0.960 1_545 S
C526 N527 1.342 . S
C526 C530 1.401 . S
C526 C531 1.499 . S
N527 Co510 1.989 1_565 S
N527 C526 1.342 . S
N527 N528 1.388 . S
N528 Co511 1.993 1_565 S
N528 N527 1.388 . S
N528 C529 1.346 . S
C529 N528 1.346 . S
C529 C530 1.396 . S
C529 C539 1.510 . S
C530 C526 1.401 . S
C530 C529 1.396 . S
C531 C526 1.499 . S
C531 H532 0.959 . S
C531 H533 0.960 . S
C531 H534 0.961 . S
H532 C531 0.959 . S
H533 C531 0.960 . S
H534 C531 0.961 . S
O535 Co510 1.967 . S
O535 C543 1.258 . S
O536 Co511 1.941 . S
O536 C543 1.266 . S
H537 C539 0.959 . S
H538 C539 0.961 . S
C539 C529 1.510 . S
C539 H537 0.959 . S
C539 H538 0.961 . S
C539 H540 0.960 . S
H540 C539 0.960 . S
H541 N521 0.862 . S
O542 Co510 1.920 . S
O542 C515 1.289 1_545 S
C543 O535 1.258 . S
C543 O536 1.266 . S
C544 C545 1.387 . S
C544 H548 0.950 . S
C544 C553 1.390 1_554 S
C545 C544 1.387 . S
C545 C547 1.387 . S
H546 C553 0.950 . S
C547 C545 1.387 . S
C547 C549 1.390 1_554 S
C547 H551 0.950 . S
H548 C544 0.950 . S
C549 C547 1.390 1_556 S
C549 C550 1.387 . S
C549 H552 0.950 . S
C550 C549 1.387 . S
C550 C553 1.387 . S
H551 C547 0.950 . S
H552 C549 0.950 . S
C553 C544 1.390 1_556 S
C553 H546 0.950 . S
C553 C550 1.387 . S
C554 C555 1.387 . S
C554 H558 0.950 . S
C554 C563 1.390 . S
C555 C554 1.387 . S
C555 C557 1.387 . S
H556 C563 0.950 . S
C557 C555 1.387 . S
C557 C559 1.390 . S
C557 H561 0.950 . S
H558 C554 0.950 . S
C559 C557 1.390 . S
C559 C560 1.387 . S
C559 H562 0.950 . S
C560 C559 1.387 . S
C560 C563 1.387 . S
H561 C557 0.950 . S
H562 C559 0.950 . S
C563 C554 1.390 . S
C563 H556 0.950 . S
C563 C560 1.387 . S
C564 C565 1.387 . S
C564 H568 0.950 . S
C564 C573 1.390 1_556 S
C565 C564 1.387 . S
C565 C567 1.387 1_655 S
H566 C573 0.950 . S
C567 C565 1.387 1_455 S
C567 C569 1.390 1_556 S
C567 H571 0.950 . S
H568 C564 0.950 . S
C569 C567 1.390 1_554 S
C569 C570 1.387 1_455 S
C569 H572 0.950 . S
C570 C569 1.387 1_655 S
C570 C573 1.387 . S
H571 C567 0.950 . S
H572 C569 0.950 . S
C573 C564 1.390 1_554 S
C573 H566 0.950 . S
C573 C570 1.387 . S
C574 C575 1.387 1_545 S
C574 H578 0.950 . S
C574 C583 1.390 . S
C575 C574 1.387 1_565 S
C575 C577 1.387 . S
H576 C583 0.950 . S
C577 C575 1.387 . S
C577 C579 1.390 . S
C577 H581 0.950 . S
H578 C574 0.950 . S
C579 C577 1.390 . S
C579 C580 1.387 . S
C579 H582 0.950 . S
C580 C579 1.387 . S
C580 C583 1.387 1_565 S
H581 C577 0.950 . S
H582 C579 0.950 . S
C583 C574 1.390 . S
C583 H576 0.950 . S
C583 C580 1.387 1_545 S
C584 C585 1.387 . S
C584 H588 0.950 . S
C584 C593 1.390 1_556 S
C585 C584 1.387 . S
C585 C587 1.387 . S
H586 C593 0.950 . S
C587 C585 1.387 . S
C587 C589 1.390 1_556 S
C587 H591 0.950 . S
H588 C584 0.950 . S
C589 C587 1.390 1_554 S
C589 C590 1.387 . S
C589 H592 0.950 . S
C590 C589 1.387 . S
C590 C593 1.387 . S
H591 C587 0.950 . S
H592 C589 0.950 . S
C593 C584 1.390 1_554 S
C593 H586 0.950 . S
C593 C590 1.387 . S
C594 C595 1.387 . S
C594 H598 0.950 . S
C594 C603 1.390 . S
C595 C594 1.387 . S
C595 C597 1.387 . S
H596 C603 0.950 . S
C597 C595 1.387 . S
C597 C599 1.390 . S
C597 H601 0.950 . S
H598 C594 0.950 . S
C599 C597 1.390 . S
C599 C600 1.387 . S
C599 H602 0.950 . S
C600 C599 1.387 . S
C600 C603 1.387 . S
H601 C597 0.950 . S
H602 C599 0.950 . S
C603 C594 1.390 . S
C603 H596 0.950 . S
C603 C600 1.387 . S
C604 C605 1.387 1_655 S
C604 H608 0.950 . S
C604 C613 1.390 1_554 S
C605 C604 1.387 1_455 S
C605 C607 1.387 . S
H606 C613 0.950 . S
C607 C605 1.387 . S
C607 C609 1.390 1_554 S
C607 H611 0.950 . S
H608 C604 0.950 . S
C609 C607 1.390 1_556 S
C609 C610 1.387 . S
C609 H612 0.950 . S
C610 C609 1.387 . S
C610 C613 1.387 1_455 S
H611 C607 0.950 . S
H612 C609 0.950 . S
C613 C604 1.390 1_556 S
C613 H606 0.950 . S
C613 C610 1.387 1_655 S
C614 C615 1.387 1_565 S
C614 H618 0.950 . S
C614 C623 1.390 . S
C615 C614 1.387 1_545 S
C615 C617 1.387 . S
H616 C623 0.950 . S
C617 C615 1.387 . S
C617 C619 1.390 . S
C617 H621 0.950 . S
H618 C614 0.950 . S
C619 C617 1.390 . S
C619 C620 1.387 . S
C619 H622 0.950 . S
C620 C619 1.387 . S
C620 C623 1.387 1_545 S
H621 C617 0.950 . S
H622 C619 0.950 . S
C623 C614 1.390 . S
C623 H616 0.950 . S
C623 C620 1.387 1_565 S
C624 C625 1.387 . S
C624 H628 0.950 . S
C624 C633 1.390 . S
C625 C624 1.387 . S
C625 C627 1.387 . S
H626 C633 0.950 . S
C627 C625 1.387 . S
C627 C629 1.390 . S
C627 H631 0.950 . S
H628 C624 0.950 . S
C629 C627 1.390 . S
C629 C630 1.387 . S
C629 H632 0.950 . S
C630 C629 1.387 . S
C630 C633 1.387 . S
H631 C627 0.950 . S
H632 C629 0.950 . S
C633 C624 1.390 . S
C633 H626 0.950 . S
C633 C630 1.387 . S
C634 C635 1.387 . S
C634 H638 0.950 . S
C634 C643 1.390 . S
C635 C634 1.387 . S
C635 C637 1.387 . S
H636 C643 0.950 . S
C637 C635 1.387 . S
C637 C639 1.390 . S
C637 H641 0.950 . S
H638 C634 0.950 . S
C639 C637 1.390 . S
C639 C640 1.387 . S
C639 H642 0.950 . S
C640 C639 1.387 . S
C640 C643 1.387 . S
H641 C637 0.950 . S
H642 C639 0.950 . S
C643 C634 1.390 . S
C643 H636 0.950 . S
C643 C640 1.387 . S
C644 C645 1.387 . S
C644 H648 0.950 . S
C644 C653 1.390 . S
C645 C644 1.387 . S
C645 C647 1.387 1_655 S
H646 C653 0.950 . S
C647 C645 1.387 1_455 S
C647 C649 1.390 . S
C647 H651 0.950 . S
H648 C644 0.950 . S
C649 C647 1.390 . S
C649 C650 1.387 1_455 S
C649 H652 0.950 . S
C650 C649 1.387 1_655 S
C650 C653 1.387 . S
H651 C647 0.950 . S
H652 C649 0.950 . S
C653 C644 1.390 . S
C653 H646 0.950 . S
C653 C650 1.387 . S
C654 C655 1.387 . S
C654 H658 0.950 . S
C654 C663 1.390 . S
C655 C654 1.387 . S
C655 C657 1.387 1_565 S
H656 C663 0.950 . S
C657 C655 1.387 1_545 S
C657 C659 1.390 . S
C657 H661 0.950 . S
H658 C654 0.950 . S
C659 C657 1.390 . S
C659 C660 1.387 1_545 S
C659 H662 0.949 1_655 S
C660 C659 1.387 1_565 S
C660 C663 1.387 . S
H661 C657 0.950 . S
H662 C659 0.949 1_455 S
C663 C654 1.390 . S
C663 H656 0.950 . S
C663 C660 1.387 . S
C664 C665 1.387 . S
C664 H668 0.950 . S
C664 C673 1.390 . S
C665 C664 1.387 . S
C665 C667 1.387 . S
H666 C673 0.950 . S
C667 C665 1.387 . S
C667 C669 1.390 . S
C667 H671 0.950 . S
H668 C664 0.950 . S
C669 C667 1.390 . S
C669 C670 1.387 . S
C669 H672 0.950 . S
C670 C669 1.387 . S
C670 C673 1.387 . S
H671 C667 0.950 . S
H672 C669 0.950 . S
C673 C664 1.390 . S
C673 H666 0.950 . S
C673 C670 1.387 . S
C674 C675 1.387 . S
C674 H678 0.950 . S
C674 C683 1.390 . S
C675 C674 1.387 . S
C675 C677 1.387 . S
H676 C683 0.950 . S
C677 C675 1.387 . S
C677 C679 1.390 . S
C677 H681 0.950 . S
H678 C674 0.950 . S
C679 C677 1.390 . S
C679 C680 1.387 . S
C679 H682 0.950 1_655 S
C680 C679 1.387 . S
C680 C683 1.387 . S
H681 C677 0.950 . S
H682 C679 0.950 1_455 S
C683 C674 1.390 . S
C683 H676 0.950 . S
C683 C680 1.387 . S
C684 C685 1.387 . S
C684 H688 0.950 . S
C684 C693 1.390 . S
C685 C684 1.387 . S
C685 C687 1.387 1_655 S
H686 C693 0.950 . S
C687 C685 1.387 1_455 S
C687 C689 1.390 . S
C687 H691 0.950 . S
H688 C684 0.950 . S
C689 C687 1.390 . S
C689 C690 1.387 1_455 S
C689 H692 0.950 . S
C690 C689 1.387 1_655 S
C690 C693 1.387 . S
H691 C687 0.950 . S
H692 C689 0.950 . S
C693 C684 1.390 . S
C693 H686 0.950 . S
C693 C690 1.387 . S
C694 C695 1.387 . S
C694 H698 0.950 . S
C694 C703 1.390 . S
C695 C694 1.387 . S
C695 C697 1.387 1_565 S
H696 C703 0.950 . S
C697 C695 1.387 1_545 S
C697 C699 1.390 . S
C697 H701 0.950 . S
H698 C694 0.950 . S
C699 C697 1.390 . S
C699 C700 1.387 1_545 S
C699 H702 0.950 . S
C700 C699 1.387 1_565 S
C700 C703 1.387 . S
H701 C697 0.950 . S
H702 C699 0.950 . S
C703 C694 1.390 . S
C703 H696 0.950 . S
C703 C700 1.387 . S
C704 C705 1.387 . S
C704 H708 0.950 . S
C704 C713 1.390 . S
C705 C704 1.387 . S
C705 C707 1.387 . S
H706 C713 0.950 . S
C707 C705 1.387 . S
C707 C709 1.390 . S
C707 H711 0.950 . S
H708 C704 0.950 . S
C709 C707 1.390 . S
C709 C710 1.387 . S
C709 H712 0.950 1_545 S
C710 C709 1.387 . S
C710 C713 1.387 . S
H711 C707 0.950 . S
H712 C709 0.950 1_565 S
C713 C704 1.390 . S
C713 H706 0.950 . S
C713 C710 1.387 . S
C714 C715 1.387 . S
C714 H718 0.950 . S
C714 C723 1.390 . S
C715 C714 1.387 . S
C715 C717 1.387 . S
H716 C723 0.950 . S
C717 C715 1.387 . S
C717 C719 1.390 . S
C717 H721 0.950 . S
H718 C714 0.950 . S
C719 C717 1.390 . S
C719 C720 1.387 . S
C719 H722 0.950 . S
C720 C719 1.387 . S
C720 C723 1.387 . S
H721 C717 0.950 . S
H722 C719 0.950 . S
C723 C714 1.390 . S
C723 H716 0.950 . S
C723 C720 1.387 . S
C724 C725 1.387 1_655 S
C724 H728 0.950 . S
C724 C733 1.390 . S
C725 C724 1.387 1_455 S
C725 C727 1.387 . S
H726 C733 0.950 . S
C727 C725 1.387 . S
C727 C729 1.390 . S
C727 H731 0.950 . S
H728 C724 0.950 . S
C729 C727 1.390 . S
C729 C730 1.387 . S
C729 H732 0.950 . S
C730 C729 1.387 . S
C730 C733 1.387 1_455 S
H731 C727 0.950 . S
H732 C729 0.950 . S
C733 C724 1.390 . S
C733 H726 0.950 . S
C733 C730 1.387 1_655 S
C734 C735 1.387 1_565 S
C734 H738 0.950 . S
C734 C743 1.390 . S
C735 C734 1.387 1_545 S
C735 C737 1.387 . S
H736 C743 0.950 . S
C737 C735 1.387 . S
C737 C739 1.390 . S
C737 H741 0.950 . S
H738 C734 0.950 . S
C739 C737 1.390 . S
C739 C740 1.387 . S
C739 H742 0.950 . S
C740 C739 1.387 . S
C740 C743 1.387 1_545 S
H741 C737 0.950 . S
H742 C739 0.950 . S
C743 C734 1.390 . S
C743 H736 0.950 . S
C743 C740 1.387 1_565 S
C744 C745 1.387 . S
C744 H748 0.950 . S
C744 C753 1.390 . S
C745 C744 1.387 . S
C745 C747 1.387 . S
H746 C753 0.950 . S
C747 C745 1.387 . S
C747 C749 1.390 . S
C747 H751 0.950 . S
H748 C744 0.950 . S
C749 C747 1.390 . S
C749 C750 1.387 . S
C749 H752 0.950 . S
C750 C749 1.387 . S
C750 C753 1.387 . S
H751 C747 0.950 . S
H752 C749 0.950 . S
C753 C744 1.390 . S
C753 H746 0.950 . S
C753 C750 1.387 . S
C754 C755 1.387 . S
C754 H758 0.950 . S
C754 C763 1.390 . S
C755 C754 1.387 . S
C755 C757 1.387 . S
H756 C763 0.950 . S
C757 C755 1.387 . S
C757 C759 1.390 . S
C757 H761 0.950 . S
H758 C754 0.950 . S
C759 C757 1.390 . S
C759 C760 1.387 . S
C759 H762 0.950 . S
C760 C759 1.387 . S
C760 C763 1.387 . S
H761 C757 0.950 . S
H762 C759 0.950 . S
C763 C754 1.390 . S
C763 H756 0.950 . S
C763 C760 1.387 . S
C764 C765 1.387 1_655 S
C764 H768 0.950 . S
C764 C773 1.390 . S
C765 C764 1.387 1_455 S
C765 C767 1.387 . S
H766 C773 0.950 . S
C767 C765 1.387 . S
C767 C769 1.390 . S
C767 H771 0.950 . S
H768 C764 0.950 . S
C769 C767 1.390 . S
C769 C770 1.387 . S
C769 H772 0.950 . S
C770 C769 1.387 . S
C770 C773 1.387 1_455 S
H771 C767 0.950 . S
H772 C769 0.950 . S
C773 C764 1.390 . S
C773 H766 0.950 . S
C773 C770 1.387 1_655 S
C774 C775 1.387 1_565 S
C774 H778 0.950 . S
C774 C783 1.390 . S
C775 C774 1.387 1_545 S
C775 C777 1.387 . S
H776 C783 0.950 . S
C777 C775 1.387 . S
C777 C779 1.390 . S
C777 H781 0.950 . S
H778 C774 0.950 . S
C779 C777 1.390 . S
C779 C780 1.387 . S
C779 H782 0.950 . S
C780 C779 1.387 . S
C780 C783 1.387 1_545 S
H781 C777 0.950 . S
H782 C779 0.950 . S
C783 C774 1.390 . S
C783 H776 0.950 . S
C783 C780 1.387 1_565 S
C784 C785 1.387 . S
C784 H788 0.950 . S
C784 C793 1.390 . S
C785 C784 1.387 . S
C785 C787 1.387 . S
H786 C793 0.950 . S
C787 C785 1.387 . S
C787 C789 1.390 . S
C787 H791 0.950 . S
H788 C784 0.950 . S
C789 C787 1.390 . S
C789 C790 1.387 . S
C789 H792 0.950 . S
C790 C789 1.387 . S
C790 C793 1.387 . S
H791 C787 0.950 . S
H792 C789 0.950 . S
C793 C784 1.390 . S
C793 H786 0.950 . S
C793 C790 1.387 . S
C794 C795 1.387 . S
C794 H798 0.950 . S
C794 C803 1.390 . S
C795 C794 1.387 . S
C795 C797 1.387 . S
H796 C803 0.950 . S
C797 C795 1.387 . S
C797 C799 1.390 . S
C797 H801 0.950 . S
H798 C794 0.950 . S
C799 C797 1.390 . S
C799 C800 1.387 . S
C799 H802 0.950 . S
C800 C799 1.387 . S
C800 C803 1.387 . S
H801 C797 0.950 . S
H802 C799 0.950 . S
C803 C794 1.390 . S
C803 H796 0.950 . S
C803 C800 1.387 . S
C804 C805 1.387 . S
C804 H808 0.950 . S
C804 C813 1.390 . S
C805 C804 1.387 . S
C805 C807 1.387 . S
H806 C813 0.950 . S
C807 C805 1.387 . S
C807 C809 1.390 . S
C807 H811 0.950 . S
H808 C804 0.950 . S
C809 C807 1.390 . S
C809 C810 1.387 . S
C809 H812 0.950 . S
C810 C809 1.387 . S
C810 C813 1.387 . S
H811 C807 0.950 . S
H812 C809 0.950 . S
C813 C804 1.390 . S
C813 H806 0.950 . S
C813 C810 1.387 . S
C814 C815 1.387 . S
C814 H818 0.950 . S
C814 C823 1.390 . S
C815 C814 1.387 . S
C815 C817 1.387 . S
H816 C823 0.950 . S
C817 C815 1.387 . S
C817 C819 1.390 . S
C817 H821 0.950 . S
H818 C814 0.950 . S
C819 C817 1.390 . S
C819 C820 1.387 . S
C819 H822 0.950 . S
C820 C819 1.387 . S
C820 C823 1.387 . S
H821 C817 0.950 . S
H822 C819 0.950 . S
C823 C814 1.390 . S
C823 H816 0.950 . S
C823 C820 1.387 . S
C824 C825 1.387 . S
C824 H828 0.950 . S
C824 C833 1.390 . S
C825 C824 1.387 . S
C825 C827 1.387 . S
H826 C833 0.950 . S
C827 C825 1.387 . S
C827 C829 1.390 . S
C827 H831 0.950 . S
H828 C824 0.950 . S
C829 C827 1.390 . S
C829 C830 1.387 . S
C829 H832 0.950 . S
C830 C829 1.387 . S
C830 C833 1.387 . S
H831 C827 0.950 . S
H832 C829 0.950 . S
C833 C824 1.390 . S
C833 H826 0.950 . S
C833 C830 1.387 . S
C834 C835 1.387 . S
C834 H838 0.950 . S
C834 C843 1.390 . S
C835 C834 1.387 . S
C835 C837 1.387 . S
H836 C843 0.950 . S
C837 C835 1.387 . S
C837 C839 1.390 . S
C837 H841 0.950 . S
H838 C834 0.950 . S
C839 C837 1.390 . S
C839 C840 1.387 . S
C839 H842 0.950 . S
C840 C839 1.387 . S
C840 C843 1.387 . S
H841 C837 0.950 . S
H842 C839 0.950 . S
C843 C834 1.390 . S
C843 H836 0.950 . S
C843 C840 1.387 . S
C844 C845 1.387 . S
C844 H848 0.950 . S
C844 C853 1.390 . S
C845 C844 1.387 . S
C845 C847 1.387 . S
H846 C853 0.950 . S
C847 C845 1.387 . S
C847 C849 1.390 . S
C847 H851 0.950 . S
H848 C844 0.950 . S
C849 C847 1.390 . S
C849 C850 1.387 . S
C849 H852 0.950 . S
C850 C849 1.387 . S
C850 C853 1.387 . S
H851 C847 0.950 . S
H852 C849 0.950 . S
C853 C844 1.390 . S
C853 H846 0.950 . S
C853 C850 1.387 . S
C854 C855 1.387 . S
C854 H858 0.950 . S
C854 C863 1.390 . S
C855 C854 1.387 . S
C855 C857 1.387 . S
H856 C863 0.950 . S
C857 C855 1.387 . S
C857 C859 1.390 . S
C857 H861 0.950 . S
H858 C854 0.950 . S
C859 C857 1.390 . S
C859 C860 1.387 . S
C859 H862 0.950 . S
C860 C859 1.387 . S
C860 C863 1.387 . S
H861 C857 0.950 . S
H862 C859 0.950 . S
C863 C854 1.390 . S
C863 H856 0.950 . S
C863 C860 1.387 . S
C864 C865 1.387 . S
C864 H868 0.950 . S
C864 C873 1.390 . S
C865 C864 1.387 . S
C865 C867 1.387 . S
H866 C873 0.950 . S
C867 C865 1.387 . S
C867 C869 1.390 . S
C867 H871 0.950 . S
H868 C864 0.950 . S
C869 C867 1.390 . S
C869 C870 1.387 . S
C869 H872 0.950 . S
C870 C869 1.387 . S
C870 C873 1.387 . S
H871 C867 0.950 . S
H872 C869 0.950 . S
C873 C864 1.390 . S
C873 H866 0.950 . S
C873 C870 1.387 . S
C874 C875 1.387 . S
C874 H878 0.950 . S
C874 C883 1.390 . S
C875 C874 1.387 . S
C875 C877 1.387 . S
H876 C883 0.950 . S
C877 C875 1.387 . S
C877 C879 1.390 . S
C877 H881 0.950 . S
H878 C874 0.950 . S
C879 C877 1.390 . S
C879 C880 1.387 . S
C879 H882 0.950 . S
C880 C879 1.387 . S
C880 C883 1.387 . S
H881 C877 0.950 . S
H882 C879 0.950 . S
C883 C874 1.390 . S
C883 H876 0.950 . S
C883 C880 1.387 . S
C884 C885 1.387 . S
C884 H888 0.950 . S
C884 C893 1.390 . S
C885 C884 1.387 . S
C885 C887 1.387 . S
H886 C893 0.950 . S
C887 C885 1.387 . S
C887 C889 1.390 . S
C887 H891 0.950 . S
H888 C884 0.950 . S
C889 C887 1.390 . S
C889 C890 1.387 . S
C889 H892 0.950 . S
C890 C889 1.387 . S
C890 C893 1.387 . S
H891 C887 0.950 . S
H892 C889 0.950 . S
C893 C884 1.390 . S
C893 H886 0.950 . S
C893 C890 1.387 . S
C894 C895 1.387 . S
C894 H898 0.950 . S
C894 C903 1.390 . S
C895 C894 1.387 . S
C895 C897 1.387 . S
H896 C903 0.950 . S
C897 C895 1.387 . S
C897 C899 1.390 . S
C897 H901 0.950 . S
H898 C894 0.950 . S
C899 C897 1.390 . S
C899 C900 1.387 . S
C899 H902 0.950 . S
C900 C899 1.387 . S
C900 C903 1.387 . S
H901 C897 0.950 . S
H902 C899 0.950 . S
C903 C894 1.390 . S
C903 H896 0.950 . S
C903 C900 1.387 . S
C904 C905 1.387 . S
C904 H908 0.950 . S
C904 C913 1.390 . S
C905 C904 1.387 . S
C905 C907 1.387 . S
H906 C913 0.950 . S
C907 C905 1.387 . S
C907 C909 1.390 . S
C907 H911 0.950 . S
H908 C904 0.950 . S
C909 C907 1.390 . S
C909 C910 1.387 . S
C909 H912 0.950 . S
C910 C909 1.387 . S
C910 C913 1.387 . S
H911 C907 0.950 . S
H912 C909 0.950 . S
C913 C904 1.390 . S
C913 H906 0.950 . S
C913 C910 1.387 . S
C914 C915 1.387 . S
C914 H918 0.950 . S
C914 C923 1.390 . S
C915 C914 1.387 . S
C915 C917 1.387 . S
H916 C923 0.950 . S
C917 C915 1.387 . S
C917 C919 1.390 . S
C917 H921 0.950 . S
H918 C914 0.950 . S
C919 C917 1.390 . S
C919 C920 1.387 . S
C919 H922 0.950 . S
C920 C919 1.387 . S
C920 C923 1.387 . S
H921 C917 0.950 . S
H922 C919 0.950 . S
C923 C914 1.390 . S
C923 H916 0.950 . S
C923 C920 1.387 . S
C924 C925 1.387 . S
C924 H928 0.950 . S
C924 C933 1.390 . S
C925 C924 1.387 . S
C925 C927 1.387 . S
H926 C933 0.950 . S
C927 C925 1.387 . S
C927 C929 1.390 . S
C927 H931 0.950 . S
H928 C924 0.950 . S
C929 C927 1.390 . S
C929 C930 1.387 . S
C929 H932 0.950 . S
C930 C929 1.387 . S
C930 C933 1.387 . S
H931 C927 0.950 . S
H932 C929 0.950 . S
C933 C924 1.390 . S
C933 H926 0.950 . S
C933 C930 1.387 . S
C934 C935 1.387 . S
C934 H938 0.950 . S
C934 C943 1.390 . S
C935 C934 1.387 . S
C935 C937 1.387 . S
H936 C943 0.950 . S
C937 C935 1.387 . S
C937 C939 1.390 . S
C937 H941 0.950 . S
H938 C934 0.950 . S
C939 C937 1.390 . S
C939 C940 1.387 . S
C939 H942 0.950 . S
C940 C939 1.387 . S
C940 C943 1.387 . S
H941 C937 0.950 . S
H942 C939 0.950 . S
C943 C934 1.390 . S
C943 H936 0.950 . S
C943 C940 1.387 . S
C545 C2 1.517 . S
C550 C138 1.517 . S
C555 C172 1.517 . S
C560 C36 1.517 . S
C565 C206 1.516 . S
C570 C70 1.516 . S
C575 C240 1.517 . S
C580 C104 1.517 . S
C585 C274 1.517 . S
C590 C410 1.517 . S
C595 C308 1.517 . S
C600 C444 1.517 . S
C605 C478 1.516 . S
C610 C342 1.516 . S
C615 C376 1.516 . S
C620 C512 1.516 . S
C625 C413 1.001 . S
C630 C9 0.924 1_565 S
C635 C447 0.995 . S
C640 C43 0.916 . S
C645 C77 0.924 . S
C650 C481 1.001 . S
C655 C515 1.000 . S
C660 C111 0.925 1_655 S
C665 C277 1.001 . S
C670 C145 0.923 . S
C675 C311 0.995 . S
C680 C179 0.920 1_655 S
C685 C213 0.924 1_565 S
C690 C345 1.001 . S
C695 C247 0.925 . S
C700 C379 1.001 . S
C705 C141 0.997 . S
C710 C281 0.918 1_545 S
C715 C175 1.001 . S
C720 C315 0.925 . S
C725 C209 1.001 . S
C730 C349 0.925 . S
C735 C383 0.925 1_455 S
C740 C243 1.001 . S
C745 C5 0.996 . S
C750 C417 0.917 . S
C755 C39 0.995 . S
C760 C451 0.917 1_455 S
C765 C485 0.925 1_545 S
C770 C73 1.001 . S
C775 C107 1.001 . S
C780 C519 0.925 . S
C785 C101 2.246 . S
C790 C33 2.246 . S
C795 C67 2.246 . S
C800 C135 2.246 . S
C805 C237 2.247 . S
C810 C169 2.247 . S
C815 C271 2.246 . S
C820 C203 2.246 . S
C825 C373 2.246 . S
C830 C305 2.246 . S
C835 C407 2.247 . S
C840 C339 2.247 . S
C845 C441 2.246 . S
C850 C509 2.246 . S
C855 C543 2.247 . S
C860 C475 2.247 . S
C865 C258 1.871 . S
C870 C20 1.870 . S
C875 C156 1.870 . S
C880 C54 1.871 . S
C885 C190 1.870 . S
C890 C88 1.870 . S
C895 C224 1.869 . S
C900 C122 1.869 . S
C905 C530 1.868 . S
C910 C292 1.869 . S
C915 C428 1.869 . S
C920 C326 1.869 . S
C925 C462 1.869 . S
C930 C360 1.870 . S
C935 C496 1.870 . S
C940 C394 1.869 . S
