# Generated by pormake.
# Topology gme, (4)-cn, num edge types: 1
# Building blocks:
#     Node 0, Type 0, BuildingBlock: NAHDIM_clean_sbu_0, # of connection points: 4
#     Node 1, Type 0, BuildingBlock: NAHDIM_clean_sbu_0, # of connection points: 4
#     Node 2, Type 0, BuildingBlock: NAHDIM_clean_sbu_0, # of connection points: 4
#     Node 3, Type 0, BuildingBlock: NAHDIM_clean_sbu_0, # of connection points: 4
#     Node 4, Type 0, BuildingBlock: NAHDIM_clean_sbu_0, # of connection points: 4
#     Node 5, Type 0, BuildingBlock: NAHDIM_clean_sbu_0, # of connection points: 4
#     Node 6, Type 0, BuildingBlock: NAHDIM_clean_sbu_0, # of connection points: 4
#     Node 7, Type 0, BuildingBlock: NAHDIM_clean_sbu_0, # of connection points: 4
#     Node 8, Type 0, BuildingBlock: NAHDIM_clean_sbu_0, # of connection points: 4
#     Node 9, Type 0, BuildingBlock: NAHDIM_clean_sbu_0, # of connection points: 4
#     Node 10, Type 0, BuildingBlock: NAHDIM_clean_sbu_0, # of connection points: 4
#     Node 11, Type 0, BuildingBlock: NAHDIM_clean_sbu_0, # of connection points: 4
#     Node 12, Type 0, BuildingBlock: NAHDIM_clean_sbu_0, # of connection points: 4
#     Node 13, Type 0, BuildingBlock: NAHDIM_clean_sbu_0, # of connection points: 4
#     Node 14, Type 0, BuildingBlock: NAHDIM_clean_sbu_0, # of connection points: 4
#     Node 15, Type 0, BuildingBlock: NAHDIM_clean_sbu_0, # of connection points: 4
#     Node 16, Type 0, BuildingBlock: NAHDIM_clean_sbu_0, # of connection points: 4
#     Node 17, Type 0, BuildingBlock: NAHDIM_clean_sbu_0, # of connection points: 4
#     Node 18, Type 0, BuildingBlock: NAHDIM_clean_sbu_0, # of connection points: 4
#     Node 19, Type 0, BuildingBlock: NAHDIM_clean_sbu_0, # of connection points: 4
#     Node 20, Type 0, BuildingBlock: NAHDIM_clean_sbu_0, # of connection points: 4
#     Node 21, Type 0, BuildingBlock: NAHDIM_clean_sbu_0, # of connection points: 4
#     Node 22, Type 0, BuildingBlock: NAHDIM_clean_sbu_0, # of connection points: 4
#     Node 23, Type 0, BuildingBlock: NAHDIM_clean_sbu_0, # of connection points: 4
#     Edge 24, Type (0, 0), BuildingBlock: CIFDUS_clean_linker_0, # of connection points: 2
#     Edge 25, Type (0, 0), BuildingBlock: CIFDUS_clean_linker_0, # of connection points: 2
#     Edge 26, Type (0, 0), BuildingBlock: CIFDUS_clean_linker_0, # of connection points: 2
#     Edge 27, Type (0, 0), BuildingBlock: CIFDUS_clean_linker_0, # of connection points: 2
#     Edge 28, Type (0, 0), BuildingBlock: CIFDUS_clean_linker_0, # of connection points: 2
#     Edge 29, Type (0, 0), BuildingBlock: CIFDUS_clean_linker_0, # of connection points: 2
#     Edge 30, Type (0, 0), BuildingBlock: CIFDUS_clean_linker_0, # of connection points: 2
#     Edge 31, Type (0, 0), BuildingBlock: CIFDUS_clean_linker_0, # of connection points: 2
#     Edge 32, Type (0, 0), BuildingBlock: CIFDUS_clean_linker_0, # of connection points: 2
#     Edge 33, Type (0, 0), BuildingBlock: CIFDUS_clean_linker_0, # of connection points: 2
#     Edge 34, Type (0, 0), BuildingBlock: CIFDUS_clean_linker_0, # of connection points: 2
#     Edge 35, Type (0, 0), BuildingBlock: CIFDUS_clean_linker_0, # of connection points: 2
#     Edge 36, Type (0, 0), BuildingBlock: CIFDUS_clean_linker_0, # of connection points: 2
#     Edge 37, Type (0, 0), BuildingBlock: CIFDUS_clean_linker_0, # of connection points: 2
#     Edge 38, Type (0, 0), BuildingBlock: CIFDUS_clean_linker_0, # of connection points: 2
#     Edge 39, Type (0, 0), BuildingBlock: CIFDUS_clean_linker_0, # of connection points: 2
#     Edge 40, Type (0, 0), BuildingBlock: CIFDUS_clean_linker_0, # of connection points: 2
#     Edge 41, Type (0, 0), BuildingBlock: CIFDUS_clean_linker_0, # of connection points: 2
#     Edge 42, Type (0, 0), BuildingBlock: CIFDUS_clean_linker_0, # of connection points: 2
#     Edge 43, Type (0, 0), BuildingBlock: CIFDUS_clean_linker_0, # of connection points: 2
#     Edge 44, Type (0, 0), BuildingBlock: CIFDUS_clean_linker_0, # of connection points: 2
#     Edge 45, Type (0, 0), BuildingBlock: CIFDUS_clean_linker_0, # of connection points: 2
#     Edge 46, Type (0, 0), BuildingBlock: CIFDUS_clean_linker_0, # of connection points: 2
#     Edge 47, Type (0, 0), BuildingBlock: CIFDUS_clean_linker_0, # of connection points: 2
#     Edge 48, Type (0, 0), BuildingBlock: CIFDUS_clean_linker_0, # of connection points: 2
#     Edge 49, Type (0, 0), BuildingBlock: CIFDUS_clean_linker_0, # of connection points: 2
#     Edge 50, Type (0, 0), BuildingBlock: CIFDUS_clean_linker_0, # of connection points: 2
#     Edge 51, Type (0, 0), BuildingBlock: CIFDUS_clean_linker_0, # of connection points: 2
#     Edge 52, Type (0, 0), BuildingBlock: CIFDUS_clean_linker_0, # of connection points: 2
#     Edge 53, Type (0, 0), BuildingBlock: CIFDUS_clean_linker_0, # of connection points: 2
#     Edge 54, Type (0, 0), BuildingBlock: CIFDUS_clean_linker_0, # of connection points: 2
#     Edge 55, Type (0, 0), BuildingBlock: CIFDUS_clean_linker_0, # of connection points: 2
#     Edge 56, Type (0, 0), BuildingBlock: CIFDUS_clean_linker_0, # of connection points: 2
#     Edge 57, Type (0, 0), BuildingBlock: CIFDUS_clean_linker_0, # of connection points: 2
#     Edge 58, Type (0, 0), BuildingBlock: CIFDUS_clean_linker_0, # of connection points: 2
#     Edge 59, Type (0, 0), BuildingBlock: CIFDUS_clean_linker_0, # of connection points: 2
#     Edge 60, Type (0, 0), BuildingBlock: CIFDUS_clean_linker_0, # of connection points: 2
#     Edge 61, Type (0, 0), BuildingBlock: CIFDUS_clean_linker_0, # of connection points: 2
#     Edge 62, Type (0, 0), BuildingBlock: CIFDUS_clean_linker_0, # of connection points: 2
#     Edge 63, Type (0, 0), BuildingBlock: CIFDUS_clean_linker_0, # of connection points: 2
#     Edge 64, Type (0, 0), BuildingBlock: CIFDUS_clean_linker_0, # of connection points: 2
#     Edge 65, Type (0, 0), BuildingBlock: CIFDUS_clean_linker_0, # of connection points: 2
#     Edge 66, Type (0, 0), BuildingBlock: CIFDUS_clean_linker_0, # of connection points: 2
#     Edge 67, Type (0, 0), BuildingBlock: CIFDUS_clean_linker_0, # of connection points: 2
#     Edge 68, Type (0, 0), BuildingBlock: CIFDUS_clean_linker_0, # of connection points: 2
#     Edge 69, Type (0, 0), BuildingBlock: CIFDUS_clean_linker_0, # of connection points: 2
#     Edge 70, Type (0, 0), BuildingBlock: CIFDUS_clean_linker_0, # of connection points: 2
#     Edge 71, Type (0, 0), BuildingBlock: CIFDUS_clean_linker_0, # of connection points: 2
# Relax obj value: 0.157
# Max RMSD: 0.150
# Mean RMSD: 0.150
data_MOF--net-gme--node1-NAHDIM_clean_sbu_0--edge1-CIFDUS_clean_linker_0
_symmetry_space_group_name_H-M    P1
_symmetry_Int_Tables_number       1
_symmetry_cell_setting            triclinic
loop_
_symmetry_equiv_pos_as_xyz
'x, y, z'
_cell_length_a     54.763851
_cell_length_b     54.71
_cell_length_c     44.986326
_cell_angle_alpha  90.009337
_cell_angle_beta   89.884865
_cell_angle_gamma 119.98347
loop_
_atom_site_label
_atom_site_type_symbol
_atom_site_fract_x
_atom_site_fract_y
_atom_site_fract_z
_atom_type_partial_charge
C0 C 0.40396 0.0661 0.03758 0.0
O1 O 0.41461 0.08984 0.02255 0.0
O2 O 0.43091 0.13532 0.07453 0.0
Zn3 Zn 0.43419 0.102 0.08788 0.0
O4 O 0.47409 0.10951 0.0863 0.0
C5 C 0.40311 0.09903 0.14105 0.0
O6 O 0.38991 0.10775 0.12341 0.0
O7 O 0.40929 0.0668 0.0651 0.0
C8 C 0.49152 0.12476 0.1062 0.0
O9 O 0.48356 0.13681 0.12628 0.0
C10 C 0.45164 0.15868 0.06609 0.0
O11 O 0.47655 0.16096 0.06306 0.0
O12 O 0.42219 0.0948 0.13044 0.0
C13 C 0.31226 0.38817 0.54807 0.0
O14 O 0.30289 0.40501 0.53973 0.0
O15 O 0.27289 0.40773 0.59949 0.0
Zn16 Zn 0.3112 0.41147 0.60447 0.0
O17 O 0.34188 0.45138 0.59673 0.0
C18 C 0.29593 0.3889 0.66472 0.0
O19 O 0.26993 0.37821 0.65513 0.0
O20 O 0.31664 0.38648 0.57554 0.0
C21 C 0.3465 0.47093 0.61502 0.0
O22 O 0.33001 0.46499 0.63837 0.0
C23 C 0.26899 0.42496 0.58409 0.0
O24 O 0.29055 0.44595 0.57056 0.0
O25 O 0.31626 0.40263 0.64677 0.0
C26 C 0.93229 0.32226 0.03934 0.0
O27 O 0.91035 0.32184 0.02701 0.0
O28 O 0.86306 0.27788 0.08002 0.0
Zn29 Zn 0.89868 0.31347 0.09036 0.0
O30 O 0.89461 0.34749 0.08312 0.0
C31 C 0.89816 0.29014 0.14841 0.0
O32 O 0.88811 0.26615 0.13397 0.0
O33 O 0.93188 0.31794 0.06711 0.0
C34 C 0.87934 0.35244 0.10059 0.0
O35 O 0.8654 0.3343 0.1219 0.0
C36 C 0.84389 0.27682 0.06331 0.0
O37 O 0.84774 0.29995 0.05021 0.0
O38 O 0.90513 0.31268 0.13403 0.0
C39 C 0.59119 0.92293 0.55491 0.0
O40 O 0.57918 0.89645 0.54645 0.0
O41 O 0.55903 0.86111 0.60205 0.0
Zn42 Zn 0.56093 0.89832 0.60974 0.0
O43 O 0.52217 0.89327 0.60546 0.0
C44 C 0.58743 0.90248 0.66698 0.0
O45 O 0.59732 0.88779 0.65378 0.0
O46 O 0.58706 0.9286 0.58122 0.0
C47 C 0.50283 0.87665 0.62314 0.0
O48 O 0.50866 0.86287 0.6432 0.0
C49 C 0.54064 0.84266 0.58487 0.0
O50 O 0.52309 0.8484 0.57081 0.0
O51 O 0.57254 0.90999 0.65216 0.0
C52 C 0.67714 0.60208 0.06388 0.0
O53 O 0.6871 0.5853 0.0574 0.0
O54 O 0.71249 0.5808 0.11635 0.0
Zn55 Zn 0.67653 0.58156 0.12247 0.0
O56 O 0.6432 0.5422 0.12135 0.0
C57 C 0.70061 0.61595 0.1747 0.0
O58 O 0.72413 0.62613 0.15934 0.0
O59 O 0.67164 0.60451 0.09081 0.0
C60 C 0.63921 0.52476 0.14203 0.0
O61 O 0.65752 0.53259 0.16385 0.0
C62 C 0.71356 0.56054 0.10383 0.0
O63 O 0.69029 0.53903 0.09357 0.0
O64 O 0.67765 0.59754 0.16288 0.0
C65 C 0.06172 0.66951 0.55127 0.0
O66 O 0.08837 0.68309 0.54329 0.0
O67 O 0.12016 0.70535 0.5994 0.0
Zn68 Zn 0.08574 0.66782 0.6074 0.0
O69 O 0.09552 0.63688 0.60592 0.0
C70 C 0.07481 0.69036 0.66086 0.0
O71 O 0.08402 0.71332 0.64471 0.0
O72 O 0.05534 0.66091 0.57794 0.0
C73 C 0.08642 0.61748 0.58645 0.0
O74 O 0.07012 0.61744 0.56505 0.0
C75 C 0.14145 0.70839 0.58493 0.0
O76 O 0.1414 0.68604 0.57418 0.0
O77 O 0.07283 0.66832 0.6491 0.0
C78 C 0.92473 0.60694 0.44968 0.0
O79 O 0.89862 0.58916 0.4576 0.0
O80 O 0.86588 0.58951 0.39953 0.0
Zn81 Zn 0.90051 0.58622 0.39325 0.0
O82 O 0.89161 0.54626 0.39939 0.0
C83 C 0.90966 0.61418 0.33626 0.0
O84 O 0.8989 0.62795 0.34979 0.0
O85 O 0.93094 0.61041 0.42219 0.0
C86 C 0.87549 0.52679 0.38165 0.0
O87 O 0.86372 0.53287 0.35961 0.0
C88 C 0.84453 0.57163 0.41422 0.0
O89 O 0.84493 0.55015 0.42674 0.0
O90 O 0.91335 0.59642 0.35089 0.0
C91 C 0.33708 0.93158 0.93169 0.0
O92 O 0.33142 0.90858 0.94639 0.0
O93 O 0.29174 0.86229 0.89226 0.0
Zn94 Zn 0.32847 0.89641 0.8805 0.0
O95 O 0.36033 0.88863 0.88596 0.0
C96 C 0.30639 0.89953 0.82245 0.0
O97 O 0.28175 0.88811 0.8358 0.0
O98 O 0.33635 0.93094 0.90349 0.0
C99 C 0.36132 0.87052 0.86906 0.0
O100 O 0.34104 0.85698 0.84964 0.0
C101 C 0.29095 0.84463 0.91117 0.0
O102 O 0.31441 0.84943 0.92412 0.0
O103 O 0.32815 0.9047 0.83728 0.0
C104 C 0.3878 0.32576 0.44777 0.0
O105 O 0.40468 0.31671 0.45682 0.0
O106 O 0.42079 0.29728 0.40047 0.0
Zn107 Zn 0.41776 0.33209 0.39368 0.0
O108 O 0.45482 0.36672 0.40257 0.0
C109 C 0.39811 0.31292 0.33352 0.0
O110 O 0.38933 0.2878 0.34499 0.0
O111 O 0.38864 0.3327 0.42065 0.0
C112 C 0.47609 0.37353 0.38599 0.0
O113 O 0.47367 0.3572 0.36346 0.0
C114 C 0.43983 0.2972 0.41655 0.0
O115 O 0.45805 0.32049 0.43016 0.0
O116 O 0.40955 0.33442 0.35038 0.0
C117 C 0.06531 0.39438 0.93168 0.0
O118 O 0.08856 0.39923 0.94518 0.0
O119 O 0.13518 0.42663 0.90316 0.0
Zn120 Zn 0.1037 0.43091 0.88607 0.0
O121 O 0.1114 0.47091 0.88855 0.0
C122 C 0.08243 0.41926 0.82581 0.0
O123 O 0.06393 0.42579 0.83604 0.0
O124 O 0.06693 0.40544 0.90641 0.0
C125 C 0.12688 0.4894 0.86951 0.0
O126 O 0.13906 0.48251 0.84852 0.0
C127 C 0.1578 0.44657 0.91399 0.0
O128 O 0.16085 0.47188 0.91625 0.0
O129 O 0.10087 0.41983 0.84329 0.0
C130 C 0.65787 0.06091 0.4541 0.0
O131 O 0.66379 0.08645 0.46184 0.0
O132 O 0.69661 0.12043 0.40248 0.0
Zn133 Zn 0.6601 0.08404 0.39693 0.0
O134 O 0.62713 0.09026 0.402 0.0
C135 C 0.68202 0.07315 0.34368 0.0
O136 O 0.7045 0.08195 0.36043 0.0
O137 O 0.65604 0.05479 0.42664 0.0
C138 C 0.624 0.10737 0.38555 0.0
O139 O 0.64306 0.12169 0.36512 0.0
C140 C 0.69905 0.14188 0.41612 0.0
O141 O 0.67684 0.14049 0.429 0.0
O142 O 0.65978 0.07112 0.35497 0.0
C143 C 0.60693 0.66363 0.95516 0.0
O144 O 0.59062 0.67399 0.96225 0.0
O145 O 0.58072 0.69502 0.90463 0.0
Zn146 Zn 0.58096 0.65872 0.8993 0.0
O147 O 0.54222 0.62529 0.90504 0.0
C148 C 0.61118 0.67956 0.84405 0.0
O149 O 0.62546 0.70308 0.85917 0.0
O150 O 0.60709 0.65605 0.9285 0.0
C151 C 0.52362 0.61897 0.88508 0.0
O152 O 0.52982 0.6352 0.8615 0.0
C153 C 0.56048 0.69697 0.9159 0.0
O154 O 0.53811 0.67415 0.92577 0.0
O155 O 0.59242 0.65764 0.85726 0.0
C156 C 0.58711 0.91261 0.9541 0.0
O157 O 0.56588 0.88774 0.96133 0.0
O158 O 0.56216 0.8528 0.90547 0.0
Zn159 Zn 0.56582 0.89058 0.89733 0.0
O160 O 0.52843 0.88868 0.90163 0.0
C161 C 0.59555 0.89438 0.84296 0.0
O162 O 0.60528 0.88097 0.85886 0.0
O163 O 0.5923 0.91898 0.92675 0.0
C164 C 0.50822 0.8742 0.88394 0.0
O165 O 0.51171 0.85965 0.86279 0.0
C166 C 0.5413 0.83215 0.91816 0.0
O167 O 0.52005 0.8349 0.92743 0.0
O168 O 0.57922 0.90168 0.85517 0.0
C169 C 0.654 0.62191 0.43285 0.0
O170 O 0.66748 0.63678 0.4093 0.0
O171 O 0.69172 0.57624 0.41056 0.0
Zn172 Zn 0.65506 0.575 0.40296 0.0
O173 O 0.62362 0.53475 0.40328 0.0
C174 C 0.67832 0.60724 0.34888 0.0
O175 O 0.70242 0.61722 0.36298 0.0
O176 O 0.64732 0.59611 0.43439 0.0
C177 C 0.62316 0.51766 0.38386 0.0
O178 O 0.64387 0.52658 0.36449 0.0
C179 C 0.69345 0.55891 0.42799 0.0
O180 O 0.67079 0.54015 0.44221 0.0
O181 O 0.65564 0.59011 0.36218 0.0
C182 C 0.06104 0.65905 0.94979 0.0
O183 O 0.08747 0.66953 0.95774 0.0
O184 O 0.1188 0.6988 0.89682 0.0
Zn185 Zn 0.08478 0.66001 0.89311 0.0
O186 O 0.09487 0.6299 0.90054 0.0
C187 C 0.07145 0.67552 0.83661 0.0
O188 O 0.08064 0.70002 0.84977 0.0
O189 O 0.05466 0.65415 0.92245 0.0
C190 C 0.11007 0.62554 0.88237 0.0
O191 O 0.12045 0.64195 0.85895 0.0
C192 C 0.14081 0.70399 0.91122 0.0
O193 O 0.14158 0.68338 0.92538 0.0
O194 O 0.0704 0.65516 0.85124 0.0
C195 C 0.39481 0.06404 0.42539 0.0
O196 O 0.40427 0.08851 0.43867 0.0
O197 O 0.42268 0.13049 0.38497 0.0
Zn198 Zn 0.42921 0.09816 0.37646 0.0
O199 O 0.46889 0.10767 0.38561 0.0
C200 C 0.4062 0.09296 0.31748 0.0
O201 O 0.39038 0.10173 0.3303 0.0
O202 O 0.40237 0.06338 0.39885 0.0
C203 C 0.48894 0.12524 0.36921 0.0
O204 O 0.48342 0.13831 0.34805 0.0
C205 C 0.43822 0.15114 0.40176 0.0
O206 O 0.45953 0.1515 0.41553 0.0
O207 O 0.42363 0.08961 0.33305 0.0
C208 C 0.33486 0.39963 0.94824 0.0
O209 O 0.32351 0.41463 0.95703 0.0
O210 O 0.30174 0.42884 0.90487 0.0
Zn211 Zn 0.33427 0.42398 0.89196 0.0
O212 O 0.36956 0.46187 0.89052 0.0
C213 C 0.30152 0.3913 0.84157 0.0
O214 O 0.28051 0.38306 0.86045 0.0
O215 O 0.34054 0.39954 0.92083 0.0
C216 C 0.37349 0.47928 0.86982 0.0
O217 O 0.35413 0.47221 0.84922 0.0
C218 C 0.30473 0.45106 0.91728 0.0
O219 O 0.33019 0.47193 0.92302 0.0
O220 O 0.32651 0.4078 0.85051 0.0
C221 C 0.91423 0.33351 0.42313 0.0
O222 O 0.89013 0.31435 0.43468 0.0
O223 O 0.84605 0.30109 0.38888 0.0
Zn224 Zn 0.87968 0.33773 0.37634 0.0
O225 O 0.87269 0.37014 0.38196 0.0
C226 C 0.88682 0.31476 0.32119 0.0
O227 O 0.88068 0.29253 0.33756 0.0
O228 O 0.9143 0.34555 0.39897 0.0
C229 C 0.85622 0.37322 0.36448 0.0
O230 O 0.84298 0.35427 0.34368 0.0
C231 C 0.82758 0.29967 0.40704 0.0
O232 O 0.83046 0.32299 0.41868 0.0
O233 O 0.88741 0.33608 0.33313 0.0
C234 C 0.04192 0.3874 0.53603 0.0
O235 O 0.06488 0.4082 0.52418 0.0
O236 O 0.10871 0.41489 0.58019 0.0
Zn237 Zn 0.07232 0.41469 0.5876 0.0
O238 O 0.07582 0.45168 0.57566 0.0
C239 C 0.07648 0.40317 0.64956 0.0
O240 O 0.09638 0.39852 0.63969 0.0
O241 O 0.04047 0.38459 0.5641 0.0
C242 C 0.09012 0.47376 0.59112 0.0
O243 O 0.10373 0.47246 0.61454 0.0
C244 C 0.12834 0.43281 0.56363 0.0
O245 O 0.12467 0.45164 0.5493 0.0
O246 O 0.0629 0.40947 0.6312 0.0
C247 C 0.66482 0.04882 0.05589 0.0
O248 O 0.68064 0.07511 0.04726 0.0
O249 O 0.69694 0.10997 0.10202 0.0
Zn250 Zn 0.65845 0.07589 0.10752 0.0
O251 O 0.62836 0.08486 0.09603 0.0
C252 C 0.67276 0.06699 0.16695 0.0
O253 O 0.69751 0.07516 0.15482 0.0
O254 O 0.65378 0.04384 0.08167 0.0
C255 C 0.62434 0.10224 0.11098 0.0
O256 O 0.64074 0.11508 0.1338 0.0
C257 C 0.70166 0.13004 0.08441 0.0
O258 O 0.68078 0.12869 0.06878 0.0
O259 O 0.65283 0.06494 0.15076 0.0
C260 C 0.58437 0.65896 0.56848 0.0
O261 O 0.58778 0.68445 0.56677 0.0
O262 O 0.55287 0.68978 0.61396 0.0
Zn263 Zn 0.54611 0.65032 0.61806 0.0
O264 O 0.5051 0.62167 0.6131 0.0
C265 C 0.58 0.66449 0.67106 0.0
O266 O 0.59673 0.68755 0.6561 0.0
O267 O 0.56821 0.64201 0.58828 0.0
C268 C 0.48702 0.61925 0.63237 0.0
O269 O 0.49526 0.63679 0.65497 0.0
C270 C 0.53888 0.69625 0.59638 0.0
O271 O 0.51933 0.67657 0.5796 0.0
O272 O 0.55746 0.64563 0.65899 0.0
C273 C 0.92494 0.5799 0.05249 0.0
O274 O 0.8986 0.56341 0.04452 0.0
O275 O 0.86639 0.55568 0.10321 0.0
Zn276 Zn 0.90245 0.55509 0.10925 0.0
O277 O 0.89528 0.5155 0.10489 0.0
C278 C 0.91354 0.58754 0.16312 0.0
O279 O 0.90366 0.60095 0.14745 0.0
O280 O 0.93172 0.58025 0.07956 0.0
C281 C 0.87906 0.4968 0.12335 0.0
O282 O 0.86718 0.50385 0.14452 0.0
C283 C 0.84529 0.53665 0.08921 0.0
O284 O 0.84689 0.51563 0.07715 0.0
O285 O 0.91579 0.56779 0.15098 0.0
C286 C 0.32789 0.93645 0.53979 0.0
O287 O 0.3232 0.9129 0.52698 0.0
O288 O 0.28936 0.86879 0.57943 0.0
Zn289 Zn 0.32368 0.90483 0.59157 0.0
O290 O 0.35863 0.90197 0.5867 0.0
C291 C 0.29558 0.90328 0.64631 0.0
O292 O 0.27314 0.89263 0.62925 0.0
O293 O 0.32816 0.93776 0.56796 0.0
C294 C 0.36304 0.88624 0.60401 0.0
O295 O 0.34409 0.8714 0.62434 0.0
C296 C 0.28955 0.84895 0.56495 0.0
O297 O 0.31358 0.85218 0.55509 0.0
O298 O 0.3195 0.91081 0.63474 0.0
C299 C 0.41277 0.33967 0.04826 0.0
O300 O 0.43172 0.33313 0.03967 0.0
O301 O 0.44136 0.30654 0.09223 0.0
Zn302 Zn 0.43639 0.33929 0.10435 0.0
O303 O 0.47354 0.37556 0.1029 0.0
C304 C 0.40586 0.30855 0.15682 0.0
O305 O 0.39808 0.28665 0.13934 0.0
O306 O 0.41011 0.34289 0.07585 0.0
C307 C 0.49214 0.38189 0.12286 0.0
O308 O 0.4871 0.36412 0.14481 0.0
C309 C 0.46364 0.30919 0.08035 0.0
O310 O 0.48509 0.33454 0.07534 0.0
O311 O 0.42153 0.33319 0.14639 0.0
H312 H 0.37675 0.10457 0.27657 0.0
H313 H 0.43457 0.07291 0.28527 0.0
H314 H 0.43715 0.07034 0.23143 0.0
H315 H 0.42552 0.07982 0.1821 0.0
H316 H 0.36852 0.11232 0.17266 0.0
H317 H 0.36294 0.11158 0.22664 0.0
C318 C 0.3897 0.09686 0.26669 0.0
C319 C 0.4056 0.08917 0.28494 0.0
C320 C 0.39136 0.09569 0.23562 0.0
C321 C 0.42224 0.07916 0.27177 0.0
C322 C 0.42377 0.07769 0.24096 0.0
C323 C 0.4117 0.08657 0.19178 0.0
C324 C 0.39765 0.09633 0.17339 0.0
C325 C 0.40882 0.08635 0.22271 0.0
C326 C 0.37967 0.10479 0.18632 0.0
C327 C 0.37651 0.10444 0.21719 0.0
H328 H 0.25772 0.36415 0.70953 0.0
H329 H 0.34721 0.41174 0.69202 0.0
H330 H 0.35684 0.41474 0.74519 0.0
H331 H 0.3399 0.40712 0.79668 0.0
H332 H 0.25043 0.36024 0.81438 0.0
H333 H 0.24086 0.35352 0.76114 0.0
C334 C 0.27935 0.37492 0.7173 0.0
C335 C 0.30167 0.38791 0.69675 0.0
C336 C 0.28478 0.37684 0.74798 0.0
C337 C 0.32957 0.40166 0.70728 0.0
C338 C 0.33514 0.40345 0.73773 0.0
C339 C 0.3183 0.39516 0.78895 0.0
C340 C 0.29593 0.38443 0.80955 0.0
C341 C 0.3129 0.39162 0.75829 0.0
C342 C 0.26808 0.36886 0.79907 0.0
C343 C 0.26256 0.36505 0.76859 0.0
H344 H 0.91017 0.33476 0.18385 0.0
H345 H 0.88535 0.24645 0.18681 0.0
H346 H 0.88085 0.24654 0.24091 0.0
H347 H 0.88147 0.27118 0.287 0.0
H348 H 0.90485 0.35912 0.28301 0.0
H349 H 0.91238 0.35959 0.22962 0.0
C350 C 0.90404 0.31555 0.19629 0.0
C351 C 0.89803 0.29062 0.18128 0.0
C352 C 0.90102 0.31562 0.2272 0.0
C353 C 0.89005 0.26594 0.19781 0.0
C354 C 0.8874 0.26595 0.22873 0.0
C355 C 0.88837 0.29048 0.27448 0.0
C356 C 0.89244 0.31501 0.289 0.0
C357 C 0.89241 0.29058 0.24361 0.0
C358 C 0.90139 0.33986 0.27241 0.0
C359 C 0.90574 0.34019 0.24185 0.0
H360 H 0.61468 0.88626 0.70597 0.0
H361 H 0.56689 0.92942 0.70121 0.0
H362 H 0.56718 0.93271 0.75525 0.0
H363 H 0.57759 0.91997 0.80389 0.0
H364 H 0.62469 0.87614 0.80889 0.0
H365 H 0.62828 0.87676 0.75477 0.0
C366 C 0.60459 0.89666 0.71671 0.0
C367 C 0.59055 0.90731 0.6995 0.0
C368 C 0.60456 0.89825 0.74789 0.0
C369 C 0.57773 0.92087 0.71385 0.0
C370 C 0.57782 0.92273 0.7448 0.0
C371 C 0.58891 0.9108 0.7932 0.0
C372 C 0.6006 0.89778 0.81046 0.0
C373 C 0.59064 0.91096 0.76205 0.0
C374 C 0.61536 0.88619 0.79618 0.0
C375 C 0.61736 0.88646 0.7652 0.0
H376 H 0.72312 0.63649 0.31181 0.0
H377 H 0.63211 0.58859 0.3133 0.0
H378 H 0.63104 0.58984 0.25921 0.0
H379 H 0.65587 0.59974 0.21163 0.0
H380 H 0.74686 0.64653 0.20977 0.0
H381 H 0.74793 0.65081 0.26385 0.0
C382 C 0.70303 0.62671 0.30035 0.0
C383 C 0.67776 0.61211 0.3166 0.0
C384 C 0.70254 0.62709 0.26914 0.0
C385 C 0.65191 0.59973 0.30136 0.0
C386 C 0.65125 0.60036 0.27039 0.0
C387 C 0.67596 0.6112 0.22299 0.0
C388 C 0.70124 0.62241 0.20671 0.0
C389 C 0.67644 0.61322 0.25407 0.0
C390 C 0.72707 0.63751 0.22176 0.0
C391 C 0.72771 0.63988 0.25272 0.0
H392 H 0.05722 0.64703 0.70013 0.0
H393 H 0.08288 0.73544 0.69454 0.0
H394 H 0.08159 0.73803 0.74867 0.0
H395 H 0.07746 0.71625 0.79757 0.0
H396 H 0.05301 0.62809 0.80281 0.0
H397 H 0.04935 0.62438 0.74883 0.0
C398 C 0.06224 0.66682 0.71069 0.0
C399 C 0.07045 0.69108 0.69327 0.0
C400 C 0.06186 0.66827 0.7418 0.0
C401 C 0.07664 0.71647 0.70737 0.0
C402 C 0.076 0.718 0.73836 0.0
C403 C 0.07099 0.69613 0.78695 0.0
C404 C 0.06583 0.67258 0.80425 0.0
C405 C 0.0693 0.6942 0.75581 0.0
C406 C 0.05732 0.64664 0.79008 0.0
C407 C 0.05527 0.64448 0.75917 0.0
H408 H 0.90572 0.62429 0.19711 0.0
H409 H 0.93315 0.56284 0.20171 0.0
H410 H 0.93683 0.56768 0.25563 0.0
H411 H 0.92839 0.5862 0.30164 0.0
H412 H 0.89978 0.64672 0.29741 0.0
H413 H 0.90076 0.6456 0.24317 0.0
C414 C 0.91282 0.61219 0.20985 0.0
C415 C 0.91887 0.59302 0.19536 0.0
C416 C 0.91454 0.61478 0.24095 0.0
C417 C 0.92816 0.57761 0.21226 0.0
C418 C 0.93024 0.58033 0.24313 0.0
C419 C 0.92268 0.59942 0.2889 0.0
C420 C 0.91375 0.6163 0.30362 0.0
C421 C 0.92288 0.59837 0.25775 0.0
C422 C 0.90659 0.6334 0.28669 0.0
C423 C 0.90706 0.63272 0.25565 0.0
H424 H 0.26414 0.88662 0.78261 0.0
H425 H 0.35459 0.92472 0.78954 0.0
H426 H 0.3592 0.93093 0.73588 0.0
H427 H 0.33764 0.92314 0.68689 0.0
H428 H 0.24724 0.88429 0.67911 0.0
H429 H 0.24261 0.88109 0.73322 0.0
C430 C 0.28486 0.89647 0.7724 0.0
C431 C 0.30893 0.90496 0.79009 0.0
C432 C 0.28741 0.89982 0.74138 0.0
C433 C 0.33566 0.91779 0.77648 0.0
C434 C 0.33836 0.92138 0.74576 0.0
C435 C 0.3169 0.91417 0.69698 0.0
C436 C 0.29282 0.90379 0.67897 0.0
C437 C 0.31437 0.91209 0.72798 0.0
C438 C 0.26615 0.89237 0.69246 0.0
C439 C 0.26347 0.89046 0.72341 0.0
H440 H 0.37741 0.27193 0.29111 0.0
H441 H 0.41871 0.3623 0.30247 0.0
H442 H 0.42315 0.3688 0.2487 0.0
H443 H 0.41838 0.34909 0.19866 0.0
H444 H 0.37752 0.25877 0.18725 0.0
H445 H 0.36973 0.25207 0.24078 0.0
C446 C 0.38713 0.29305 0.28185 0.0
C447 C 0.39791 0.31657 0.30088 0.0
C448 C 0.38987 0.29669 0.25086 0.0
C449 C 0.41031 0.34378 0.28841 0.0
C450 C 0.41294 0.34755 0.25763 0.0
C451 C 0.40755 0.32792 0.20782 0.0
C452 C 0.39878 0.3045 0.18893 0.0
C453 C 0.40328 0.32419 0.23867 0.0
C454 C 0.38462 0.27721 0.20123 0.0
C455 C 0.38018 0.27333 0.23188 0.0
H456 H 0.10579 0.39659 0.6944 0.0
H457 H 0.03671 0.41144 0.67731 0.0
H458 H 0.03154 0.41638 0.73054 0.0
H459 H 0.04832 0.41904 0.7817 0.0
H460 H 0.11807 0.40511 0.79834 0.0
H461 H 0.12118 0.39721 0.74553 0.0
C462 C 0.08943 0.40066 0.70229 0.0
C463 C 0.07178 0.40377 0.68187 0.0
C464 C 0.08678 0.40382 0.73286 0.0
C465 C 0.05068 0.40904 0.69253 0.0
C466 C 0.04772 0.41193 0.72298 0.0
C467 C 0.06408 0.4141 0.77381 0.0
C468 C 0.08301 0.41284 0.79397 0.0
C469 C 0.06593 0.40977 0.74331 0.0
C470 C 0.10328 0.40634 0.78334 0.0
C471 C 0.1051 0.40181 0.7531 0.0
H472 H 0.64044 0.05789 0.30263 0.0
H473 H 0.72733 0.07919 0.31197 0.0
H474 H 0.73156 0.07724 0.25813 0.0
H475 H 0.71165 0.0729 0.20825 0.0
H476 H 0.62498 0.05242 0.19902 0.0
H477 H 0.61964 0.05046 0.25293 0.0
C478 C 0.66024 0.06183 0.29295 0.0
C479 C 0.68358 0.0689 0.31136 0.0
C480 C 0.66264 0.06098 0.26193 0.0
C481 C 0.70903 0.07381 0.29837 0.0
C482 C 0.71151 0.07277 0.26754 0.0
C483 C 0.6915 0.06774 0.21799 0.0
C484 C 0.66885 0.06306 0.19955 0.0
C485 C 0.68861 0.06691 0.24908 0.0
C486 C 0.64285 0.05627 0.21263 0.0
C487 C 0.63976 0.05518 0.2435 0.0
H488 H 0.62076 0.70411 0.70666 0.0
H489 H 0.55209 0.61792 0.70618 0.0
H490 H 0.55804 0.6141 0.75932 0.0
H491 H 0.57958 0.63641 0.80647 0.0
H492 H 0.64687 0.7232 0.80784 0.0
H493 H 0.64489 0.72541 0.7537 0.0
C494 C 0.60732 0.68438 0.7181 0.0
C495 C 0.58582 0.66145 0.70251 0.0
C496 C 0.61053 0.68244 0.74883 0.0
C497 C 0.56864 0.63601 0.71768 0.0
C498 C 0.57202 0.63378 0.74809 0.0
C499 C 0.59412 0.65572 0.79496 0.0
C500 C 0.61315 0.67969 0.81124 0.0
C501 C 0.59243 0.65705 0.76398 0.0
C502 C 0.6319 0.70448 0.79588 0.0
C503 C 0.63071 0.7058 0.76492 0.0
H504 H 0.49274 0.21306 0.05617 0.0
H505 H 0.40345 0.16122 0.07309 0.0
H506 H 0.39916 0.2033 0.07755 0.0
H507 H 0.42122 0.2547 0.08046 0.0
H508 H 0.5105 0.3068 0.06399 0.0
H509 H 0.51425 0.26468 0.05548 0.0
C510 C 0.47227 0.21093 0.06044 0.0
C511 C 0.44852 0.184 0.06455 0.0
C512 C 0.46996 0.23526 0.06337 0.0
C513 C 0.42213 0.18167 0.06998 0.0
C514 C 0.41964 0.20574 0.07265 0.0
C515 C 0.4415 0.25688 0.07487 0.0
C516 C 0.4656 0.28384 0.0732 0.0
C517 C 0.44352 0.23262 0.07006 0.0
C518 C 0.49163 0.28628 0.06556 0.0
C519 C 0.49381 0.26221 0.06071 0.0
H520 H 0.14308 0.39839 0.59232 0.0
H521 H 0.17543 0.46947 0.53231 0.0
H522 H 0.2216 0.47285 0.53279 0.0
H523 H 0.25322 0.45672 0.55163 0.0
H524 H 0.22078 0.38581 0.61189 0.0
H525 H 0.1742 0.38131 0.60984 0.0
C526 C 0.16016 0.41454 0.57918 0.0
C527 C 0.15579 0.43371 0.56239 0.0
C528 C 0.18669 0.41649 0.57969 0.0
C529 C 0.17819 0.45446 0.54548 0.0
C530 C 0.20464 0.45645 0.54578 0.0
C531 C 0.23596 0.44022 0.56426 0.0
C532 C 0.24056 0.42172 0.58199 0.0
C533 C 0.2092 0.43776 0.56304 0.0
C534 C 0.21788 0.40039 0.5981 0.0
C535 C 0.19121 0.39779 0.59696 0.0
H536 H 0.82817 0.22756 0.09204 0.0
H537 H 0.79773 0.26681 0.03052 0.0
H538 H 0.75119 0.22436 0.03079 0.0
H539 H 0.71862 0.17701 0.05042 0.0
H540 H 0.74926 0.13855 0.11276 0.0
H541 H 0.79629 0.1799 0.11019 0.0
C542 C 0.81146 0.22682 0.07847 0.0
C543 C 0.81642 0.2504 0.06137 0.0
C544 C 0.78472 0.20256 0.07903 0.0
C545 C 0.79448 0.24899 0.04394 0.0
C546 C 0.76783 0.22475 0.04414 0.0
C547 C 0.7356 0.17761 0.06335 0.0
C548 C 0.73035 0.15476 0.08187 0.0
C549 C 0.76262 0.20156 0.06193 0.0
C550 C 0.75264 0.15588 0.09842 0.0
C551 C 0.77958 0.17951 0.09696 0.0
H552 H 0.51083 0.71662 0.56419 0.0
H553 H 0.57842 0.74162 0.62745 0.0
H554 H 0.58562 0.78932 0.6285 0.0
H555 H 0.5717 0.82349 0.61296 0.0
H556 H 0.50375 0.79857 0.55023 0.0
H557 H 0.49787 0.75136 0.54741 0.0
C558 C 0.52723 0.73253 0.57809 0.0
C559 C 0.54395 0.72547 0.5958 0.0
C560 C 0.53118 0.75994 0.57876 0.0
C561 C 0.56514 0.74639 0.61367 0.0
C562 C 0.5693 0.77372 0.61431 0.0
C563 C 0.55569 0.80781 0.59853 0.0
C564 C 0.53813 0.81456 0.58193 0.0
C565 C 0.55227 0.78065 0.59717 0.0
C566 C 0.51752 0.79395 0.56333 0.0
C567 C 0.51411 0.76691 0.56171 0.0
H568 H 0.72348 0.52115 0.07842 0.0
H569 H 0.76468 0.60086 0.12488 0.0
H570 H 0.80914 0.60083 0.12356 0.0
H571 H 0.836 0.57763 0.11068 0.0
H572 H 0.79512 0.49785 0.06442 0.0
H573 H 0.75088 0.49858 0.0641 0.0
C574 C 0.7422 0.53857 0.08816 0.0
C575 C 0.74068 0.5609 0.10182 0.0
C576 C 0.76775 0.53841 0.08741 0.0
C577 C 0.76519 0.58335 0.11426 0.0
C578 C 0.79066 0.58337 0.11354 0.0
C579 C 0.81746 0.56042 0.10041 0.0
C580 C 0.81886 0.53767 0.08771 0.0
C581 C 0.79212 0.56091 0.1004 0.0
C582 C 0.79464 0.51562 0.0744 0.0
C583 C 0.76931 0.51599 0.07425 0.0
H584 H 0.2378 0.83555 0.58543 0.0
H585 H 0.28238 0.80027 0.5395 0.0
H586 H 0.23995 0.75368 0.54043 0.0
H587 H 0.19104 0.72254 0.55704 0.0
H588 H 0.14737 0.75834 0.60393 0.0
H589 H 0.18871 0.80517 0.59984 0.0
C590 C 0.23825 0.81776 0.57537 0.0
C591 C 0.2633 0.82138 0.56258 0.0
C592 C 0.21399 0.79106 0.57635 0.0
C593 C 0.2634 0.79807 0.54956 0.0
C594 C 0.23917 0.7714 0.55017 0.0
C595 C 0.19052 0.74061 0.56622 0.0
C596 C 0.16619 0.73686 0.58096 0.0
C597 C 0.21449 0.76756 0.56397 0.0
C598 C 0.16584 0.76054 0.59262 0.0
C599 C 0.18948 0.78737 0.59028 0.0
H600 H 0.79587 0.53788 0.44427 0.0
H601 H 0.83587 0.61155 0.38778 0.0
H602 H 0.79303 0.61471 0.38816 0.0
H603 H 0.74374 0.59555 0.40273 0.0
H604 H 0.7034 0.52179 0.459 0.0
H605 H 0.74697 0.51983 0.4606 0.0
C606 C 0.79527 0.55471 0.43215 0.0
C607 C 0.81901 0.57433 0.41589 0.0
C608 C 0.77052 0.55638 0.43236 0.0
C609 C 0.8179 0.59609 0.40043 0.0
C610 C 0.79339 0.59792 0.40059 0.0
C611 C 0.74447 0.57911 0.41549 0.0
C612 C 0.72029 0.55876 0.43058 0.0
C613 C 0.7695 0.57802 0.41621 0.0
C614 C 0.72169 0.5377 0.44712 0.0
C615 C 0.74658 0.53652 0.44801 0.0
H616 H 0.19073 0.72246 0.93988 0.0
H617 H 0.14722 0.74992 0.8806 0.0
H618 H 0.1894 0.79628 0.87656 0.0
H619 H 0.23925 0.82826 0.88784 0.0
H620 H 0.28295 0.80084 0.94687 0.0
H621 H 0.24001 0.75533 0.95313 0.0
C622 C 0.1904 0.73862 0.9262 0.0
C623 C 0.16588 0.73262 0.91043 0.0
C624 C 0.21479 0.76525 0.92386 0.0
C625 C 0.16581 0.7539 0.89293 0.0
C626 C 0.18995 0.78044 0.89056 0.0
C627 C 0.23937 0.81242 0.90224 0.0
C628 C 0.26436 0.81793 0.9167 0.0
C629 C 0.21465 0.78623 0.90562 0.0
C630 C 0.26405 0.79717 0.93539 0.0
C631 C 0.2395 0.77109 0.93895 0.0
H632 H 0.46947 0.2003 0.43202 0.0
H633 H 0.39593 0.15639 0.37623 0.0
H634 H 0.38938 0.19728 0.37692 0.0
H635 H 0.40559 0.24611 0.39142 0.0
H636 H 0.47936 0.29047 0.44672 0.0
H637 H 0.48463 0.24872 0.44821 0.0
C638 C 0.4519 0.1996 0.42018 0.0
C639 C 0.43334 0.17535 0.40399 0.0
C640 C 0.44833 0.22329 0.42046 0.0
C641 C 0.41064 0.1748 0.3888 0.0
C642 C 0.40686 0.1982 0.38914 0.0
C643 C 0.42276 0.24665 0.40393 0.0
C644 C 0.44213 0.27145 0.4188 0.0
C645 C 0.42576 0.22266 0.40458 0.0
C646 C 0.46418 0.27169 0.435 0.0
C647 C 0.46724 0.24783 0.43585 0.0
H648 H 0.24981 0.41014 0.91467 0.0
H649 H 0.30372 0.49899 0.93224 0.0
H650 H 0.26249 0.505 0.93576 0.0
H651 H 0.21154 0.48579 0.92919 0.0
H652 H 0.15804 0.39692 0.91103 0.0
H653 H 0.19872 0.39018 0.91277 0.0
C654 C 0.25256 0.43079 0.91953 0.0
C655 C 0.2798 0.45414 0.92278 0.0
C656 C 0.22884 0.43414 0.92132 0.0
C657 C 0.28297 0.48067 0.92948 0.0
C658 C 0.25941 0.48415 0.93142 0.0
C659 C 0.20871 0.46487 0.92604 0.0
C660 C 0.18182 0.442 0.91958 0.0
C661 C 0.23229 0.46115 0.9267 0.0
C662 C 0.17853 0.41499 0.91575 0.0
C663 C 0.2018 0.41109 0.91667 0.0
H664 H 0.71068 0.1927 0.439 0.0
H665 H 0.74823 0.15169 0.39026 0.0
H666 H 0.79162 0.19672 0.38433 0.0
H667 H 0.81802 0.24794 0.39056 0.0
H668 H 0.78078 0.28938 0.43891 0.0
H669 H 0.73821 0.24392 0.44749 0.0
C670 C 0.72843 0.19356 0.4273 0.0
C671 C 0.72609 0.16886 0.41494 0.0
C672 C 0.75334 0.21961 0.42374 0.0
C673 C 0.74936 0.17037 0.39991 0.0
C674 C 0.7742 0.19613 0.39644 0.0
C675 C 0.80066 0.24706 0.40309 0.0
C676 C 0.8025 0.27205 0.41386 0.0
C677 C 0.77626 0.22092 0.40786 0.0
C678 C 0.77989 0.27047 0.43029 0.0
C679 C 0.75551 0.24448 0.43517 0.0
H680 H 0.52005 0.70845 0.93522 0.0
H681 H 0.60384 0.74763 0.8975 0.0
H682 H 0.60543 0.79288 0.89576 0.0
H683 H 0.5827 0.821 0.9033 0.0
H684 H 0.49886 0.78238 0.94063 0.0
H685 H 0.49772 0.73723 0.94423 0.0
C686 C 0.53872 0.72691 0.92677 0.0
C687 C 0.56173 0.72458 0.91641 0.0
C688 C 0.53948 0.75295 0.92566 0.0
C689 C 0.58577 0.74875 0.90555 0.0
C690 C 0.58672 0.77467 0.90451 0.0
C691 C 0.56417 0.80276 0.91232 0.0
C692 C 0.54085 0.80505 0.92155 0.0
C693 C 0.56362 0.77694 0.91424 0.0
C694 C 0.51709 0.7812 0.93331 0.0
C695 C 0.51641 0.75536 0.93535 0.0
H696 H 0.34297 0.94073 0.99128 0.0
H697 H 0.35321 0.98327 0.90745 0.0
H698 H 0.37331 0.02855 0.933 0.0
H699 H 0.39078 0.05642 0.97878 0.0
H700 H 0.38089 0.01372 0.06246 0.0
H701 H 0.35775 0.96824 0.03729 0.0
C702 C 0.34938 0.95986 0.9786 0.0
C703 C 0.34681 0.95859 0.94749 0.0
C704 C 0.36114 0.98588 0.99337 0.0
C705 C 0.35508 0.98361 0.93143 0.0
C706 C 0.36663 0.00956 0.946 0.0
C707 C 0.38337 0.03717 0.99155 0.0
C708 C 0.38782 0.03855 0.02241 0.0
C709 C 0.37021 0.011 0.97692 0.0
C710 C 0.37792 0.01334 0.03864 0.0
C711 C 0.36469 0.98727 0.02427 0.0
H712 H 0.35474 0.34905 0.43754 0.0
H713 H 0.38301 0.31498 0.50736 0.0
H714 H 0.36006 0.32923 0.54447 0.0
H715 H 0.33554 0.35499 0.55749 0.0
H716 H 0.30811 0.38992 0.48774 0.0
H717 H 0.32693 0.37148 0.45031 0.0
C718 C 0.35561 0.34443 0.46083 0.0
C719 C 0.37086 0.33124 0.46964 0.0
C720 C 0.34266 0.35301 0.48215 0.0
C721 C 0.37161 0.32529 0.49993 0.0
C722 C 0.35852 0.33348 0.52122 0.0
C723 C 0.33339 0.35831 0.5341 0.0
C724 C 0.32071 0.37409 0.5255 0.0
C725 C 0.34456 0.34793 0.51264 0.0
C726 C 0.31795 0.37802 0.49505 0.0
C727 C 0.32876 0.36753 0.47358 0.0
H728 H 0.05462 0.3708 0.98686 0.0
H729 H 0.01369 0.38116 0.90983 0.0
H730 H 0.96848 0.35762 0.93564 0.0
H731 H 0.94119 0.33717 0.98111 0.0
H732 H 0.9821 0.32768 0.05862 0.0
H733 H 0.0266 0.34752 0.03142 0.0
C734 C 0.03578 0.36771 0.97562 0.0
C735 C 0.03763 0.37799 0.94657 0.0
C736 C 0.00983 0.35438 0.99068 0.0
C737 C 0.01295 0.37365 0.93228 0.0
C738 C 0.98705 0.36019 0.94702 0.0
C739 C 0.95975 0.33915 0.992 0.0
C740 C 0.95835 0.33118 0.02193 0.0
C741 C 0.98534 0.35093 0.97639 0.0
C742 C 0.9826 0.33378 0.03563 0.0
C743 C 0.00809 0.3452 0.02012 0.0
H744 H 0.6412 0.00545 0.44554 0.0
H745 H 0.65743 0.06679 0.5143 0.0
H746 H 0.64017 0.0297 0.55187 0.0
H747 H 0.61711 0.9795 0.56478 0.0
H748 H 0.60009 0.91799 0.49598 0.0
H749 H 0.62125 0.95556 0.45897 0.0
C750 C 0.64124 0.01078 0.46877 0.0
C751 C 0.65034 0.03884 0.47701 0.0
C752 C 0.631 0.98929 0.49028 0.0
C753 C 0.65039 0.04535 0.50726 0.0
C754 C 0.64047 0.02414 0.5288 0.0
C755 C 0.61826 0.9743 0.54174 0.0
C756 C 0.60675 0.94592 0.53316 0.0
C757 C 0.63019 0.99597 0.52049 0.0
C758 C 0.60862 0.93962 0.50322 0.0
C759 C 0.62068 0.9611 0.48199 0.0
H760 H 0.65399 0.63569 0.06976 0.0
H761 H 0.68314 0.59854 0.00402 0.0
H762 H 0.66596 0.61639 0.96434 0.0
H763 H 0.63931 0.63916 0.94853 0.0
H764 H 0.60922 0.67534 0.0144 0.0
H765 H 0.63037 0.66143 0.05376 0.0
C766 C 0.65685 0.63171 0.04675 0.0
C767 C 0.66956 0.61553 0.0399 0.0
C768 C 0.64662 0.64173 0.02405 0.0
C769 C 0.67326 0.61077 0.00995 0.0
C770 C 0.6634 0.62093 0.98722 0.0
C771 C 0.63761 0.64427 0.97146 0.0
C772 C 0.62243 0.65799 0.97852 0.0
C773 C 0.64952 0.63591 0.99405 0.0
C774 C 0.62061 0.66461 0.00834 0.0
C775 C 0.63266 0.65662 0.0309 0.0
H776 H 0.00515 0.64327 0.56071 0.0
H777 H 0.06819 0.68016 0.49163 0.0
H778 H 0.03132 0.6658 0.45424 0.0
H779 H 0.98121 0.64025 0.44084 0.0
H780 H 0.91823 0.60287 0.50993 0.0
H781 H 0.95509 0.62022 0.5476 0.0
C782 C 0.01085 0.64833 0.5375 0.0
C783 C 0.03938 0.66255 0.52898 0.0
C784 C 0.98955 0.63989 0.51608 0.0
C785 C 0.04639 0.66912 0.49882 0.0
C786 C 0.02531 0.66089 0.47739 0.0
C787 C 0.97552 0.63613 0.46415 0.0
C788 C 0.94701 0.62008 0.4725 0.0
C789 C -0.00317 0.64591 0.48572 0.0
C790 C 0.94002 0.61503 0.50283 0.0
C791 C 0.96108 0.62489 0.52442 0.0
H792 H 0.63044 0.96636 0.94672 0.0
H793 H 0.57831 0.90656 0.014 0.0
H794 H 0.59974 0.94298 0.05202 0.0
H795 H 0.6301 0.99265 0.06545 0.0
H796 H 0.68161 0.05271 -0.00194 0.0
H797 H 0.66381 0.01523 0.96095 0.0
C798 C 0.62397 0.9612 0.96974 0.0
C799 C 0.60255 0.93386 0.97741 0.0
C800 C 0.63616 0.98232 0.9915 0.0
C801 C 0.5946 0.92748 0.00741 0.0
C802 C 0.60681 0.94832 0.0292 0.0
C803 C 0.6377 -0.00248 0.04273 0.0
C804 C 0.65689 0.02552 0.0345 0.0
C805 C 0.62712 0.97595 0.02139 0.0
C806 C 0.66667 0.03138 0.00499 0.0
C807 C 0.65646 0.00997 0.9837 0.0
H808 H 0.62756 0.59679 0.48419 0.0
H809 H 0.66038 0.67488 0.43528 0.0
H810 H 0.64282 0.69388 0.47371 0.0
H811 H 0.61614 0.6873 0.52011 0.0
H812 H 0.58306 0.60857 0.56802 0.0
H813 H 0.60284 0.59093 0.531 0.0
C814 C 0.63102 0.61803 0.48191 0.0
C815 C 0.64509 0.63431 0.45678 0.0
C816 C 0.62073 0.62869 0.50387 0.0
C817 C 0.64953 0.66186 0.45436 0.0
C818 C 0.63945 0.67272 0.4763 0.0
C819 C 0.61342 0.66636 0.52254 0.0
C820 C 0.59797 0.64925 0.54673 0.0
C821 C 0.62471 0.65618 0.50099 0.0
C822 C 0.5947 0.62217 0.54956 0.0
C823 C 0.60601 0.61202 0.52839 0.0
H824 H 0.98103 0.61514 0.06149 0.0
H825 H 0.91789 0.58109 0.99255 0.0
H826 H 0.95433 0.60458 0.95474 0.0
H827 H 0.00431 0.63189 0.94107 0.0
H828 H 0.06752 0.66514 0.00997 0.0
H829 H 0.03078 0.64509 0.04793 0.0
C830 C 0.97518 0.61302 0.03821 0.0
C831 C 0.94679 0.59614 0.02988 0.0
C832 C -0.00374 0.62638 0.01654 0.0
C833 C 0.93959 0.59381 -0.00039 0.0
C834 C 0.96043 0.60722 0.97794 0.0
C835 C 0.01007 0.63503 0.96438 0.0
C836 C 0.03866 0.64978 0.97262 0.0
C837 C 0.98886 0.62313 0.98612 0.0
C838 C 0.0457 0.65374 0.00296 0.0
C839 C 0.0247 0.64222 0.02472 0.0
H840 H 0.33357 0.94176 0.47981 0.0
H841 H 0.34132 0.98892 0.55964 0.0
H842 H 0.36068 0.03244 0.53077 0.0
H843 H 0.37916 0.05761 0.4836 0.0
H844 H 0.37234 0.01039 0.40407 0.0
H845 H 0.3487 0.96642 0.43211 0.0
C846 C 0.33919 0.96149 0.49088 0.0
C847 C 0.33629 0.9621 0.52187 0.0
C848 C 0.35068 0.9865 0.47424 0.0
C849 C 0.34351 0.98785 0.53582 0.0
C850 C 0.35465 0.01279 0.51934 0.0
C851 C 0.37224 0.03769 0.47233 0.0
C852 C 0.37782 0.03736 0.44186 0.0
C853 C 0.35893 0.01245 0.48865 0.0
C854 C 0.36855 0.01132 0.42757 0.0
C855 C 0.35503 0.98612 0.44359 0.0
H856 H 0.37579 0.35839 0.05817 0.0
H857 H 0.41395 0.33489 0.98799 0.0
H858 H 0.39132 0.34929 0.95077 0.0
H859 H 0.36365 0.37181 0.93814 0.0
H860 H 0.3264 0.3964 0.00828 0.0
H861 H 0.34551 0.37806 0.04543 0.0
C862 C 0.37894 0.35615 0.03474 0.0
C863 C 0.39676 0.34582 0.02592 0.0
C864 C 0.36613 0.36479 0.0134 0.0
C865 C 0.4005 0.34295 0.99544 0.0
C866 C 0.38759 0.35121 0.9741 0.0
C867 C 0.35944 0.3729 0.96153 0.0
C868 C 0.34383 0.3857 0.97039 0.0
C869 C 0.37081 0.36266 0.98282 0.0
C870 C 0.3385 0.38682 0.00081 0.0
C871 C 0.34947 0.37638 0.02211 0.0
H872 H 0.03632 0.39342 0.47707 0.0
H873 H 0.99057 0.34391 0.55355 0.0
H874 H 0.94716 0.321 0.52447 0.0
H875 H 0.92147 0.31836 0.47869 0.0
H876 H 0.96738 0.3694 0.40303 0.0
H877 H 0.01143 0.38827 0.43047 0.0
C878 C 0.01696 0.37736 0.48733 0.0
C879 C 0.01665 0.37062 0.51752 0.0
C880 C 0.99201 0.36473 0.4707 0.0
C881 C 0.99137 0.34964 0.53038 0.0
C882 C 0.9665 0.33659 0.5138 0.0
C883 C 0.94115 0.33338 0.4681 0.0
C884 C 0.94106 0.34268 0.43898 0.0
C885 C 0.96644 0.3445 0.48415 0.0
C886 C 0.96677 0.36208 0.42554 0.0
C887 C 0.99202 0.37289 0.44119 0.0
H888 H 0.51251 0.09901 0.07116 0.0
H889 H 0.53301 0.15445 0.14679 0.0
H890 H 0.57683 0.15375 0.15383 0.0
H891 H 0.60775 0.13489 0.14059 0.0
H892 H 0.58664 0.07869 0.06555 0.0
H893 H 0.54475 0.08236 0.05618 0.0
C894 C 0.52667 0.11117 0.08902 0.0
C895 C 0.51934 0.12658 0.10854 0.0
C896 C 0.55168 0.11041 0.09319 0.0
C897 C 0.53803 0.14228 0.13151 0.0
C898 C 0.56309 0.14186 0.1356 0.0
C899 C 0.59412 0.12361 0.12204 0.0
C900 C 0.60024 0.10636 0.10398 0.0
C901 C 0.56988 0.12559 0.11691 0.0
C902 C 0.58238 0.09199 0.07995 0.0
C903 C 0.55838 0.09405 0.07456 0.0
H904 H 0.4641 0.57892 0.58956 0.0
H905 H 0.44447 0.60495 0.67258 0.0
H906 H 0.39823 0.56222 0.67335 0.0
H907 H 0.36495 0.51579 0.65249 0.0
H908 H 0.38517 0.4895 0.56997 0.0
H909 H 0.42949 0.53413 0.56693 0.0
C910 C 0.44963 0.57542 0.6077 0.0
C911 C 0.45789 0.595 0.63112 0.0
C912 C 0.42321 0.55066 0.6082 0.0
C913 C 0.43875 0.59018 0.65433 0.0
C914 C 0.4123 0.5657 0.65484 0.0
C915 C 0.3789 0.51991 0.63368 0.0
C916 C 0.37183 0.49917 0.61167 0.0
C917 C 0.40455 0.54552 0.63221 0.0
C918 C 0.39013 0.50498 0.58736 0.0
C919 C 0.41553 0.5305 0.5856 0.0
H920 H 0.85326 0.37145 0.13772 0.0
H921 H 0.90596 0.3944 0.05944 0.0
H922 H 0.90955 0.44069 0.0589 0.0
H923 H 0.89979 0.47549 0.08211 0.0
H924 H 0.84764 0.45275 0.16081 0.0
H925 H 0.84176 0.40551 0.15962 0.0
C926 C 0.86535 0.38647 0.12038 0.0
C927 C 0.87945 0.3795 0.09877 0.0
C928 C 0.86758 0.41316 0.12036 0.0
C929 C 0.89498 0.39923 0.07643 0.0
C930 C 0.89709 0.42575 0.07612 0.0
C931 C 0.88703 0.46018 0.09894 0.0
C932 C 0.87435 0.46775 0.12163 0.0
C933 C 0.88383 0.43308 0.09823 0.0
C934 C 0.85775 0.44756 0.14315 0.0
C935 C 0.85437 0.42052 0.14251 0.0
H936 H 0.37969 0.85667 0.63892 0.0
H937 H 0.40662 0.91493 0.5651 0.0
H938 H 0.45182 0.91627 0.56384 0.0
H939 H 0.48437 0.90238 0.58487 0.0
H940 H 0.45763 0.84447 0.65899 0.0
H941 H 0.41166 0.84149 0.65883 0.0
C942 C 0.39537 0.86956 0.62245 0.0
C943 C 0.38979 0.88578 0.60225 0.0
C944 C 0.4214 0.87038 0.62194 0.0
C945 C 0.41036 0.9023 0.581 0.0
C946 C 0.43625 0.90311 0.58026 0.0
C947 C 0.46846 0.889 0.60092 0.0
C948 C 0.47452 0.8738 0.622 0.0
C949 C 0.4421 0.88747 0.60082 0.0
C950 C 0.45359 0.85648 0.64255 0.0
C951 C 0.42728 0.85477 0.64251 0.0
H952 H 0.59726 0.50284 0.10097 0.0
H953 H 0.62386 0.48286 0.18328 0.0
H954 H 0.58103 0.43669 0.18428 0.0
H955 H 0.53549 0.40244 0.16243 0.0
H956 H 0.50891 0.42276 0.08029 0.0
H957 H 0.55231 0.46832 0.07864 0.0
C958 C 0.59377 0.48838 0.1191 0.0
C959 C 0.61374 0.49638 0.14205 0.0
C960 C 0.56905 0.46192 0.11963 0.0
C961 C 0.60884 0.47731 0.16533 0.0
C962 C 0.58433 0.45088 0.16595 0.0
C963 C 0.5392 0.41678 0.14412 0.0
C964 C 0.51889 0.40918 0.12159 0.0
C965 C 0.5642 0.44304 0.14332 0.0
C966 C 0.52411 0.42805 0.09799 0.0
C967 C 0.54895 0.45414 0.09701 0.0
H968 H 0.11538 0.52329 0.62159 0.0
H969 H 0.06314 0.48279 0.54506 0.0
H970 H 0.05872 0.52435 0.5359 0.0
H971 H 0.06737 0.57105 0.55125 0.0
H972 H 0.119 0.61121 0.62825 0.0
H973 H 0.12606 0.57099 0.6354 0.0
C974 C 0.10321 0.52362 0.60276 0.0
C975 C 0.08946 0.49987 0.5842 0.0
C976 C 0.10052 0.54749 0.59774 0.0
C977 C 0.07386 0.50072 0.55982 0.0
C978 C 0.07127 0.52448 0.55456 0.0
C979 C 0.08035 0.57112 0.56947 0.0
C980 C 0.09244 0.59404 0.58929 0.0
C981 C 0.08415 0.54781 0.57364 0.0
C982 C 0.10929 0.5938 0.61272 0.0
C983 C 0.11334 0.57078 0.61687 0.0
H984 H 0.84446 0.48115 0.34636 0.0
H985 H 0.8985 0.50824 0.4235 0.0
H986 H 0.89583 0.46245 0.42603 0.0
H987 H 0.8806 0.41587 0.40464 0.0
H988 H 0.82703 0.38879 0.32717 0.0
H989 H 0.82692 0.43336 0.32668 0.0
C990 C 0.85549 0.47698 0.36387 0.0
C991 C 0.87185 0.49821 0.38453 0.0
C992 C 0.85404 0.45064 0.3651 0.0
C993 C 0.88587 0.49236 0.40718 0.0
C994 C 0.88439 0.46617 0.40864 0.0
C995 C 0.86872 0.41959 0.38776 0.0
C996 C 0.85405 0.39909 0.36584 0.0
C997 C 0.86892 0.44534 0.38745 0.0
C998 C 0.8386 0.40423 0.34426 0.0
C999 C 0.83857 0.42975 0.34391 0.0
H1000 H 0.46092 0.84548 0.85038 0.0
H1001 H 0.49566 0.9043 0.92334 0.0
H1002 H 0.45279 0.90736 0.926 0.0
H1003 H 0.40632 0.89495 0.90633 0.0
H1004 H 0.37156 0.83632 0.83324 0.0
H1005 H 0.4135 0.83148 0.8321 0.0
C1006 C 0.45908 0.85888 0.86695 0.0
C1007 C 0.48157 0.87477 0.88647 0.0
C1008 C 0.43438 0.86063 0.86834 0.0
C1009 C 0.47874 0.8919 0.90793 0.0
C1010 C 0.45422 0.8937 0.90948 0.0
C1011 C 0.40782 0.88099 0.89024 0.0
C1012 C 0.38589 0.86617 0.86979 0.0
C1013 C 0.43205 0.8784 0.88959 0.0
C1014 C 0.38815 0.84805 0.8492 0.0
C1015 C 0.41216 0.8453 0.84849 0.0
H1016 H 0.52449 0.3952 0.35356 0.0
H1017 H 0.48745 0.41206 0.43007 0.0
H1018 H 0.53022 0.45751 0.43694 0.0
H1019 H 0.57717 0.49338 0.41996 0.0
H1020 H 0.61415 0.47692 0.34315 0.0
H1021 H 0.57239 0.43033 0.33783 0.0
C1022 C 0.52581 0.40873 0.37185 0.0
C1023 C 0.50271 0.40028 0.39113 0.0
C1024 C 0.55042 0.43495 0.37559 0.0
C1025 C 0.50485 0.41806 0.41479 0.0
C1026 C 0.52931 0.44409 0.41874 0.0
C1027 C 0.5762 0.47956 0.40214 0.0
C1028 C 0.5987 0.48873 0.38188 0.0
C1029 C 0.55207 0.45289 0.39907 0.0
C1030 C 0.59711 0.47047 0.35901 0.0
C1031 C 0.57321 0.44381 0.35592 0.0
H1032 H 0.10515 0.51025 0.91007 0.0
H1033 H 0.15401 0.53193 0.82905 0.0
H1034 H 0.15464 0.57682 0.82689 0.0
H1035 H 0.13878 0.60857 0.84628 0.0
H1036 H 0.08947 0.58649 0.92703 0.0
H1037 H 0.09177 0.54324 0.93106 0.0
C1038 C 0.11612 0.52486 0.89204 0.0
C1039 C 0.1293 0.51759 0.86963 0.0
C1040 C 0.11624 0.55056 0.8908 0.0
C1041 C 0.14358 0.5369 0.84655 0.0
C1042 C 0.14391 0.56258 0.84525 0.0
C1043 C 0.12873 0.59443 0.8649 0.0
C1044 C 0.11378 0.6007 0.88616 0.0
C1045 C 0.12992 0.56943 0.86699 0.0
C1046 C 0.10101 0.58216 0.91023 0.0
C1047 C 0.10226 0.55737 0.91255 0.0
H1048 H 0.61047 0.1412 0.3536 0.0
H1049 H 0.58009 0.0794 0.42422 0.0
H1050 H 0.53652 0.08114 0.4269 0.0
H1051 H 0.50581 0.09789 0.40717 0.0
H1052 H 0.53571 0.15907 0.33599 0.0
H1053 H 0.58078 0.16008 0.33586 0.0
C1054 C 0.59441 0.12824 0.36972 0.0
C1055 C 0.59848 0.11001 0.38847 0.0
C1056 C 0.56927 0.12918 0.37104 0.0
C1057 C 0.57748 0.0935 0.40936 0.0
C1058 C 0.55252 0.09447 0.41093 0.0
C1059 C 0.52227 0.11167 0.39181 0.0
C1060 C 0.51727 0.1282 0.37147 0.0
C1061 C 0.54801 0.11189 0.39158 0.0
C1062 C 0.53891 0.14602 0.35182 0.0
C1063 C 0.56469 0.14656 0.35165 0.0
H1064 H 0.48029 0.59861 0.8456 0.0
H1065 H 0.50486 0.58037 0.93019 0.0
H1066 H 0.46038 0.53587 0.93312 0.0
H1067 H 0.41523 0.50149 0.91105 0.0
H1068 H 0.39055 0.51953 0.82644 0.0
H1069 H 0.43439 0.5648 0.82422 0.0
C1070 C 0.47588 0.58498 0.86476 0.0
C1071 C 0.49596 0.59279 0.88757 0.0
C1072 C 0.4503 0.55933 0.86627 0.0
C1073 C 0.48983 0.57488 0.91226 0.0
C1074 C 0.46441 0.54939 0.91396 0.0
C1075 C 0.41939 0.51532 0.89212 0.0
C1076 C 0.39969 0.50704 0.86888 0.0
C1077 C 0.44461 0.54129 0.89097 0.0
C1078 C 0.40537 0.52533 0.84462 0.0
C1079 C 0.43044 0.55123 0.84332 0.0
loop_
_geom_bond_atom_site_label_1
_geom_bond_atom_site_label_2
_geom_bond_distance
_geom_bond_site_symmetry_2
_ccdc_geom_bond_type
C0 O1 1.160 . S
C0 O7 1.185 . S
O1 C0 1.160 . S
O2 Zn3 1.899 . S
O2 C10 1.284 . S
Zn3 O2 1.899 . S
Zn3 O4 2.032 . S
Zn3 O7 2.086 . S
Zn3 O12 1.977 . S
O4 Zn3 2.032 . S
O4 C8 1.278 . S
C5 O6 1.203 . S
C5 O12 1.267 . S
O6 C5 1.203 . S
O7 C0 1.185 . S
O7 Zn3 2.086 . S
C8 O4 1.278 . S
C8 O9 1.211 . S
O9 C8 1.211 . S
C10 O2 1.284 . S
C10 O11 1.273 . S
O11 C10 1.273 . S
O12 Zn3 1.977 . S
O12 C5 1.267 . S
C13 O14 1.160 . S
C13 O20 1.185 . S
O14 C13 1.160 . S
O15 Zn16 1.899 . S
O15 C23 1.284 . S
Zn16 O15 1.899 . S
Zn16 O17 2.032 . S
Zn16 O20 2.086 . S
Zn16 O25 1.977 . S
O17 Zn16 2.032 . S
O17 C21 1.278 . S
C18 O19 1.203 . S
C18 O25 1.267 . S
O19 C18 1.203 . S
O20 C13 1.185 . S
O20 Zn16 2.086 . S
C21 O17 1.278 . S
C21 O22 1.211 . S
O22 C21 1.211 . S
C23 O15 1.284 . S
C23 O24 1.273 . S
O24 C23 1.273 . S
O25 Zn16 1.977 . S
O25 C18 1.267 . S
C26 O27 1.160 . S
C26 O33 1.185 . S
O27 C26 1.160 . S
O28 Zn29 1.899 . S
O28 C36 1.284 . S
Zn29 O28 1.899 . S
Zn29 O30 2.032 . S
Zn29 O33 2.086 . S
Zn29 O38 1.977 . S
O30 Zn29 2.032 . S
O30 C34 1.278 . S
C31 O32 1.203 . S
C31 O38 1.267 . S
O32 C31 1.203 . S
O33 C26 1.185 . S
O33 Zn29 2.086 . S
C34 O30 1.278 . S
C34 O35 1.211 . S
O35 C34 1.211 . S
C36 O28 1.284 . S
C36 O37 1.273 . S
O37 C36 1.273 . S
O38 Zn29 1.977 . S
O38 C31 1.267 . S
C39 O40 1.160 . S
C39 O46 1.185 . S
O40 C39 1.160 . S
O41 Zn42 1.899 . S
O41 C49 1.284 . S
Zn42 O41 1.899 . S
Zn42 O43 2.032 . S
Zn42 O46 2.086 . S
Zn42 O51 1.977 . S
O43 Zn42 2.032 . S
O43 C47 1.278 . S
C44 O45 1.203 . S
C44 O51 1.267 . S
O45 C44 1.203 . S
O46 C39 1.185 . S
O46 Zn42 2.086 . S
C47 O43 1.278 . S
C47 O48 1.211 . S
O48 C47 1.211 . S
C49 O41 1.284 . S
C49 O50 1.273 . S
O50 C49 1.273 . S
O51 Zn42 1.977 . S
O51 C44 1.267 . S
C52 O53 1.160 . S
C52 O59 1.185 . S
O53 C52 1.160 . S
O54 Zn55 1.899 . S
O54 C62 1.284 . S
Zn55 O54 1.899 . S
Zn55 O56 2.032 . S
Zn55 O59 2.086 . S
Zn55 O64 1.977 . S
O56 Zn55 2.032 . S
O56 C60 1.278 . S
C57 O58 1.203 . S
C57 O64 1.267 . S
O58 C57 1.203 . S
O59 C52 1.185 . S
O59 Zn55 2.086 . S
C60 O56 1.278 . S
C60 O61 1.211 . S
O61 C60 1.211 . S
C62 O54 1.284 . S
C62 O63 1.273 . S
O63 C62 1.273 . S
O64 Zn55 1.977 . S
O64 C57 1.267 . S
C65 O66 1.160 . S
C65 O72 1.185 . S
O66 C65 1.160 . S
O67 Zn68 1.899 . S
O67 C75 1.284 . S
Zn68 O67 1.899 . S
Zn68 O69 2.032 . S
Zn68 O72 2.086 . S
Zn68 O77 1.977 . S
O69 Zn68 2.032 . S
O69 C73 1.278 . S
C70 O71 1.203 . S
C70 O77 1.267 . S
O71 C70 1.203 . S
O72 C65 1.185 . S
O72 Zn68 2.086 . S
C73 O69 1.278 . S
C73 O74 1.211 . S
O74 C73 1.211 . S
C75 O67 1.284 . S
C75 O76 1.273 . S
O76 C75 1.273 . S
O77 Zn68 1.977 . S
O77 C70 1.267 . S
C78 O79 1.160 . S
C78 O85 1.185 . S
O79 C78 1.160 . S
O80 Zn81 1.899 . S
O80 C88 1.284 . S
Zn81 O80 1.899 . S
Zn81 O82 2.032 . S
Zn81 O85 2.086 . S
Zn81 O90 1.977 . S
O82 Zn81 2.032 . S
O82 C86 1.278 . S
C83 O84 1.203 . S
C83 O90 1.267 . S
O84 C83 1.203 . S
O85 C78 1.185 . S
O85 Zn81 2.086 . S
C86 O82 1.278 . S
C86 O87 1.211 . S
O87 C86 1.211 . S
C88 O80 1.284 . S
C88 O89 1.273 . S
O89 C88 1.273 . S
O90 Zn81 1.977 . S
O90 C83 1.267 . S
C91 O92 1.160 . S
C91 O98 1.185 . S
O92 C91 1.160 . S
O93 Zn94 1.899 . S
O93 C101 1.284 . S
Zn94 O93 1.899 . S
Zn94 O95 2.032 . S
Zn94 O98 2.086 . S
Zn94 O103 1.977 . S
O95 Zn94 2.032 . S
O95 C99 1.278 . S
C96 O97 1.203 . S
C96 O103 1.267 . S
O97 C96 1.203 . S
O98 C91 1.185 . S
O98 Zn94 2.086 . S
C99 O95 1.278 . S
C99 O100 1.211 . S
O100 C99 1.211 . S
C101 O93 1.284 . S
C101 O102 1.273 . S
O102 C101 1.273 . S
O103 Zn94 1.977 . S
O103 C96 1.267 . S
C104 O105 1.160 . S
C104 O111 1.185 . S
O105 C104 1.160 . S
O106 Zn107 1.899 . S
O106 C114 1.284 . S
Zn107 O106 1.899 . S
Zn107 O108 2.032 . S
Zn107 O111 2.086 . S
Zn107 O116 1.977 . S
O108 Zn107 2.032 . S
O108 C112 1.278 . S
C109 O110 1.203 . S
C109 O116 1.267 . S
O110 C109 1.203 . S
O111 C104 1.185 . S
O111 Zn107 2.086 . S
C112 O108 1.278 . S
C112 O113 1.211 . S
O113 C112 1.211 . S
C114 O106 1.284 . S
C114 O115 1.273 . S
O115 C114 1.273 . S
O116 Zn107 1.977 . S
O116 C109 1.267 . S
C117 O118 1.160 . S
C117 O124 1.185 . S
O118 C117 1.160 . S
O119 Zn120 1.899 . S
O119 C127 1.284 . S
Zn120 O119 1.899 . S
Zn120 O121 2.032 . S
Zn120 O124 2.086 . S
Zn120 O129 1.977 . S
O121 Zn120 2.032 . S
O121 C125 1.278 . S
C122 O123 1.203 . S
C122 O129 1.267 . S
O123 C122 1.203 . S
O124 C117 1.185 . S
O124 Zn120 2.086 . S
C125 O121 1.278 . S
C125 O126 1.211 . S
O126 C125 1.211 . S
C127 O119 1.284 . S
C127 O128 1.273 . S
O128 C127 1.273 . S
O129 Zn120 1.977 . S
O129 C122 1.267 . S
C130 O131 1.160 . S
C130 O137 1.185 . S
O131 C130 1.160 . S
O132 Zn133 1.899 . S
O132 C140 1.284 . S
Zn133 O132 1.899 . S
Zn133 O134 2.032 . S
Zn133 O137 2.086 . S
Zn133 O142 1.977 . S
O134 Zn133 2.032 . S
O134 C138 1.278 . S
C135 O136 1.203 . S
C135 O142 1.267 . S
O136 C135 1.203 . S
O137 C130 1.185 . S
O137 Zn133 2.086 . S
C138 O134 1.278 . S
C138 O139 1.211 . S
O139 C138 1.211 . S
C140 O132 1.284 . S
C140 O141 1.273 . S
O141 C140 1.273 . S
O142 Zn133 1.977 . S
O142 C135 1.267 . S
C143 O144 1.160 . S
C143 O150 1.185 . S
O144 C143 1.160 . S
O145 Zn146 1.899 . S
O145 C153 1.284 . S
Zn146 O145 1.899 . S
Zn146 O147 2.032 . S
Zn146 O150 2.086 . S
Zn146 O155 1.977 . S
O147 Zn146 2.032 . S
O147 C151 1.278 . S
C148 O149 1.203 . S
C148 O155 1.267 . S
O149 C148 1.203 . S
O150 C143 1.185 . S
O150 Zn146 2.086 . S
C151 O147 1.278 . S
C151 O152 1.211 . S
O152 C151 1.211 . S
C153 O145 1.284 . S
C153 O154 1.273 . S
O154 C153 1.273 . S
O155 Zn146 1.977 . S
O155 C148 1.267 . S
C156 O157 1.160 . S
C156 O163 1.185 . S
O157 C156 1.160 . S
O158 Zn159 1.899 . S
O158 C166 1.284 . S
Zn159 O158 1.899 . S
Zn159 O160 2.032 . S
Zn159 O163 2.086 . S
Zn159 O168 1.977 . S
O160 Zn159 2.032 . S
O160 C164 1.278 . S
C161 O162 1.203 . S
C161 O168 1.267 . S
O162 C161 1.203 . S
O163 C156 1.185 . S
O163 Zn159 2.086 . S
C164 O160 1.278 . S
C164 O165 1.211 . S
O165 C164 1.211 . S
C166 O158 1.284 . S
C166 O167 1.273 . S
O167 C166 1.273 . S
O168 Zn159 1.977 . S
O168 C161 1.267 . S
C169 O170 1.160 . S
C169 O176 1.185 . S
O170 C169 1.160 . S
O171 Zn172 1.899 . S
O171 C179 1.284 . S
Zn172 O171 1.899 . S
Zn172 O173 2.032 . S
Zn172 O176 2.086 . S
Zn172 O181 1.977 . S
O173 Zn172 2.032 . S
O173 C177 1.278 . S
C174 O175 1.203 . S
C174 O181 1.267 . S
O175 C174 1.203 . S
O176 C169 1.185 . S
O176 Zn172 2.086 . S
C177 O173 1.278 . S
C177 O178 1.211 . S
O178 C177 1.211 . S
C179 O171 1.284 . S
C179 O180 1.273 . S
O180 C179 1.273 . S
O181 Zn172 1.977 . S
O181 C174 1.267 . S
C182 O183 1.160 . S
C182 O189 1.185 . S
O183 C182 1.160 . S
O184 Zn185 1.899 . S
O184 C192 1.284 . S
Zn185 O184 1.899 . S
Zn185 O186 2.032 . S
Zn185 O189 2.086 . S
Zn185 O194 1.977 . S
O186 Zn185 2.032 . S
O186 C190 1.278 . S
C187 O188 1.203 . S
C187 O194 1.267 . S
O188 C187 1.203 . S
O189 C182 1.185 . S
O189 Zn185 2.086 . S
C190 O186 1.278 . S
C190 O191 1.211 . S
O191 C190 1.211 . S
C192 O184 1.284 . S
C192 O193 1.273 . S
O193 C192 1.273 . S
O194 Zn185 1.977 . S
O194 C187 1.267 . S
C195 O196 1.160 . S
C195 O202 1.185 . S
O196 C195 1.160 . S
O197 Zn198 1.899 . S
O197 C205 1.284 . S
Zn198 O197 1.899 . S
Zn198 O199 2.032 . S
Zn198 O202 2.086 . S
Zn198 O207 1.977 . S
O199 Zn198 2.032 . S
O199 C203 1.278 . S
C200 O201 1.203 . S
C200 O207 1.267 . S
O201 C200 1.203 . S
O202 C195 1.185 . S
O202 Zn198 2.086 . S
C203 O199 1.278 . S
C203 O204 1.211 . S
O204 C203 1.211 . S
C205 O197 1.284 . S
C205 O206 1.273 . S
O206 C205 1.273 . S
O207 Zn198 1.977 . S
O207 C200 1.267 . S
C208 O209 1.160 . S
C208 O215 1.185 . S
O209 C208 1.160 . S
O210 Zn211 1.899 . S
O210 C218 1.284 . S
Zn211 O210 1.899 . S
Zn211 O212 2.032 . S
Zn211 O215 2.086 . S
Zn211 O220 1.977 . S
O212 Zn211 2.032 . S
O212 C216 1.278 . S
C213 O214 1.203 . S
C213 O220 1.267 . S
O214 C213 1.203 . S
O215 C208 1.185 . S
O215 Zn211 2.086 . S
C216 O212 1.278 . S
C216 O217 1.211 . S
O217 C216 1.211 . S
C218 O210 1.284 . S
C218 O219 1.273 . S
O219 C218 1.273 . S
O220 Zn211 1.977 . S
O220 C213 1.267 . S
C221 O222 1.160 . S
C221 O228 1.185 . S
O222 C221 1.160 . S
O223 Zn224 1.899 . S
O223 C231 1.284 . S
Zn224 O223 1.899 . S
Zn224 O225 2.032 . S
Zn224 O228 2.086 . S
Zn224 O233 1.977 . S
O225 Zn224 2.032 . S
O225 C229 1.278 . S
C226 O227 1.203 . S
C226 O233 1.267 . S
O227 C226 1.203 . S
O228 C221 1.185 . S
O228 Zn224 2.086 . S
C229 O225 1.278 . S
C229 O230 1.211 . S
O230 C229 1.211 . S
C231 O223 1.284 . S
C231 O232 1.273 . S
O232 C231 1.273 . S
O233 Zn224 1.977 . S
O233 C226 1.267 . S
C234 O235 1.160 . S
C234 O241 1.185 . S
O235 C234 1.160 . S
O236 Zn237 1.899 . S
O236 C244 1.284 . S
Zn237 O236 1.899 . S
Zn237 O238 2.032 . S
Zn237 O241 2.086 . S
Zn237 O246 1.977 . S
O238 Zn237 2.032 . S
O238 C242 1.278 . S
C239 O240 1.203 . S
C239 O246 1.267 . S
O240 C239 1.203 . S
O241 C234 1.185 . S
O241 Zn237 2.086 . S
C242 O238 1.278 . S
C242 O243 1.211 . S
O243 C242 1.211 . S
C244 O236 1.284 . S
C244 O245 1.273 . S
O245 C244 1.273 . S
O246 Zn237 1.977 . S
O246 C239 1.267 . S
C247 O248 1.160 . S
C247 O254 1.185 . S
O248 C247 1.160 . S
O249 Zn250 1.899 . S
O249 C257 1.284 . S
Zn250 O249 1.899 . S
Zn250 O251 2.032 . S
Zn250 O254 2.086 . S
Zn250 O259 1.977 . S
O251 Zn250 2.032 . S
O251 C255 1.278 . S
C252 O253 1.203 . S
C252 O259 1.267 . S
O253 C252 1.203 . S
O254 C247 1.185 . S
O254 Zn250 2.086 . S
C255 O251 1.278 . S
C255 O256 1.211 . S
O256 C255 1.211 . S
C257 O249 1.284 . S
C257 O258 1.273 . S
O258 C257 1.273 . S
O259 Zn250 1.977 . S
O259 C252 1.267 . S
C260 O261 1.160 . S
C260 O267 1.185 . S
O261 C260 1.160 . S
O262 Zn263 1.899 . S
O262 C270 1.284 . S
Zn263 O262 1.899 . S
Zn263 O264 2.032 . S
Zn263 O267 2.086 . S
Zn263 O272 1.977 . S
O264 Zn263 2.032 . S
O264 C268 1.278 . S
C265 O266 1.203 . S
C265 O272 1.267 . S
O266 C265 1.203 . S
O267 C260 1.185 . S
O267 Zn263 2.086 . S
C268 O264 1.278 . S
C268 O269 1.211 . S
O269 C268 1.211 . S
C270 O262 1.284 . S
C270 O271 1.273 . S
O271 C270 1.273 . S
O272 Zn263 1.977 . S
O272 C265 1.267 . S
C273 O274 1.160 . S
C273 O280 1.185 . S
O274 C273 1.160 . S
O275 Zn276 1.899 . S
O275 C283 1.284 . S
Zn276 O275 1.899 . S
Zn276 O277 2.032 . S
Zn276 O280 2.086 . S
Zn276 O285 1.977 . S
O277 Zn276 2.032 . S
O277 C281 1.278 . S
C278 O279 1.203 . S
C278 O285 1.267 . S
O279 C278 1.203 . S
O280 C273 1.185 . S
O280 Zn276 2.086 . S
C281 O277 1.278 . S
C281 O282 1.211 . S
O282 C281 1.211 . S
C283 O275 1.284 . S
C283 O284 1.273 . S
O284 C283 1.273 . S
O285 Zn276 1.977 . S
O285 C278 1.267 . S
C286 O287 1.160 . S
C286 O293 1.185 . S
O287 C286 1.160 . S
O288 Zn289 1.899 . S
O288 C296 1.284 . S
Zn289 O288 1.899 . S
Zn289 O290 2.032 . S
Zn289 O293 2.086 . S
Zn289 O298 1.977 . S
O290 Zn289 2.032 . S
O290 C294 1.278 . S
C291 O292 1.203 . S
C291 O298 1.267 . S
O292 C291 1.203 . S
O293 C286 1.185 . S
O293 Zn289 2.086 . S
C294 O290 1.278 . S
C294 O295 1.211 . S
O295 C294 1.211 . S
C296 O288 1.284 . S
C296 O297 1.273 . S
O297 C296 1.273 . S
O298 Zn289 1.977 . S
O298 C291 1.267 . S
C299 O300 1.160 . S
C299 O306 1.185 . S
O300 C299 1.160 . S
O301 Zn302 1.899 . S
O301 C309 1.284 . S
Zn302 O301 1.899 . S
Zn302 O303 2.032 . S
Zn302 O306 2.086 . S
Zn302 O311 1.977 . S
O303 Zn302 2.032 . S
O303 C307 1.278 . S
C304 O305 1.203 . S
C304 O311 1.267 . S
O305 C304 1.203 . S
O306 C299 1.185 . S
O306 Zn302 2.086 . S
C307 O303 1.278 . S
C307 O308 1.211 . S
O308 C307 1.211 . S
C309 O301 1.284 . S
C309 O310 1.273 . S
O310 C309 1.273 . S
O311 Zn302 1.977 . S
O311 C304 1.267 . S
H312 C318 0.930 . S
H313 C321 0.930 . S
H314 C322 0.930 . S
H315 C323 0.930 . S
H316 C326 0.930 . S
H317 C327 0.930 . S
C318 H312 0.930 . S
C318 C319 1.355 . S
C318 C320 1.415 . S
C319 C318 1.355 . S
C319 C321 1.419 . S
C320 C318 1.415 . S
C320 C325 1.425 . S
C320 C327 1.409 . S
C321 H313 0.930 . S
C321 C319 1.419 . S
C321 C322 1.362 . S
C322 H314 0.930 . S
C322 C321 1.362 . S
C322 C325 1.409 . S
C323 H315 0.930 . S
C323 C324 1.355 . S
C323 C325 1.415 . S
C324 C323 1.355 . S
C324 C326 1.419 . S
C325 C320 1.425 . S
C325 C322 1.409 . S
C325 C323 1.415 . S
C326 H316 0.930 . S
C326 C324 1.419 . S
C326 C327 1.362 . S
C327 H317 0.930 . S
C327 C320 1.409 . S
C327 C326 1.362 . S
H328 C334 0.930 . S
H329 C337 0.930 . S
H330 C338 0.930 . S
H331 C339 0.930 . S
H332 C342 0.930 . S
H333 C343 0.930 . S
C334 H328 0.930 . S
C334 C335 1.355 . S
C334 C336 1.415 . S
C335 C334 1.355 . S
C335 C337 1.419 . S
C336 C334 1.415 . S
C336 C341 1.425 . S
C336 C343 1.409 . S
C337 H329 0.930 . S
C337 C335 1.419 . S
C337 C338 1.362 . S
C338 H330 0.930 . S
C338 C337 1.362 . S
C338 C341 1.409 . S
C339 H331 0.930 . S
C339 C340 1.355 . S
C339 C341 1.415 . S
C340 C339 1.355 . S
C340 C342 1.419 . S
C341 C336 1.425 . S
C341 C338 1.409 . S
C341 C339 1.415 . S
C342 H332 0.930 . S
C342 C340 1.419 . S
C342 C343 1.362 . S
C343 H333 0.930 . S
C343 C336 1.409 . S
C343 C342 1.362 . S
H344 C350 0.930 . S
H345 C353 0.930 . S
H346 C354 0.930 . S
H347 C355 0.930 . S
H348 C358 0.930 . S
H349 C359 0.930 . S
C350 H344 0.930 . S
C350 C351 1.355 . S
C350 C352 1.415 . S
C351 C350 1.355 . S
C351 C353 1.419 . S
C352 C350 1.415 . S
C352 C357 1.425 . S
C352 C359 1.409 . S
C353 H345 0.930 . S
C353 C351 1.419 . S
C353 C354 1.362 . S
C354 H346 0.930 . S
C354 C353 1.362 . S
C354 C357 1.409 . S
C355 H347 0.930 . S
C355 C356 1.355 . S
C355 C357 1.415 . S
C356 C355 1.355 . S
C356 C358 1.419 . S
C357 C352 1.425 . S
C357 C354 1.409 . S
C357 C355 1.415 . S
C358 H348 0.930 . S
C358 C356 1.419 . S
C358 C359 1.362 . S
C359 H349 0.930 . S
C359 C352 1.409 . S
C359 C358 1.362 . S
H360 C366 0.930 . S
H361 C369 0.930 . S
H362 C370 0.930 . S
H363 C371 0.930 . S
H364 C374 0.930 . S
H365 C375 0.930 . S
C366 H360 0.930 . S
C366 C367 1.355 . S
C366 C368 1.415 . S
C367 C366 1.355 . S
C367 C369 1.419 . S
C368 C366 1.415 . S
C368 C373 1.425 . S
C368 C375 1.409 . S
C369 H361 0.930 . S
C369 C367 1.419 . S
C369 C370 1.362 . S
C370 H362 0.930 . S
C370 C369 1.362 . S
C370 C373 1.409 . S
C371 H363 0.930 . S
C371 C372 1.355 . S
C371 C373 1.415 . S
C372 C371 1.355 . S
C372 C374 1.419 . S
C373 C368 1.425 . S
C373 C370 1.409 . S
C373 C371 1.415 . S
C374 H364 0.930 . S
C374 C372 1.419 . S
C374 C375 1.362 . S
C375 H365 0.930 . S
C375 C368 1.409 . S
C375 C374 1.362 . S
H376 C382 0.930 . S
H377 C385 0.930 . S
H378 C386 0.930 . S
H379 C387 0.930 . S
H380 C390 0.930 . S
H381 C391 0.930 . S
C382 H376 0.930 . S
C382 C383 1.355 . S
C382 C384 1.415 . S
C383 C382 1.355 . S
C383 C385 1.419 . S
C384 C382 1.415 . S
C384 C389 1.425 . S
C384 C391 1.409 . S
C385 H377 0.930 . S
C385 C383 1.419 . S
C385 C386 1.362 . S
C386 H378 0.930 . S
C386 C385 1.362 . S
C386 C389 1.409 . S
C387 H379 0.930 . S
C387 C388 1.355 . S
C387 C389 1.415 . S
C388 C387 1.355 . S
C388 C390 1.419 . S
C389 C384 1.425 . S
C389 C386 1.409 . S
C389 C387 1.415 . S
C390 H380 0.930 . S
C390 C388 1.419 . S
C390 C391 1.362 . S
C391 H381 0.930 . S
C391 C384 1.409 . S
C391 C390 1.362 . S
H392 C398 0.930 . S
H393 C401 0.930 . S
H394 C402 0.930 . S
H395 C403 0.930 . S
H396 C406 0.930 . S
H397 C407 0.930 . S
C398 H392 0.930 . S
C398 C399 1.355 . S
C398 C400 1.415 . S
C399 C398 1.355 . S
C399 C401 1.419 . S
C400 C398 1.415 . S
C400 C405 1.425 . S
C400 C407 1.409 . S
C401 H393 0.930 . S
C401 C399 1.419 . S
C401 C402 1.362 . S
C402 H394 0.930 . S
C402 C401 1.362 . S
C402 C405 1.409 . S
C403 H395 0.930 . S
C403 C404 1.355 . S
C403 C405 1.415 . S
C404 C403 1.355 . S
C404 C406 1.419 . S
C405 C400 1.425 . S
C405 C402 1.409 . S
C405 C403 1.415 . S
C406 H396 0.930 . S
C406 C404 1.419 . S
C406 C407 1.362 . S
C407 H397 0.930 . S
C407 C400 1.409 . S
C407 C406 1.362 . S
H408 C414 0.930 . S
H409 C417 0.930 . S
H410 C418 0.930 . S
H411 C419 0.930 . S
H412 C422 0.930 . S
H413 C423 0.930 . S
C414 H408 0.930 . S
C414 C415 1.355 . S
C414 C416 1.415 . S
C415 C414 1.355 . S
C415 C417 1.419 . S
C416 C414 1.415 . S
C416 C421 1.425 . S
C416 C423 1.409 . S
C417 H409 0.930 . S
C417 C415 1.419 . S
C417 C418 1.362 . S
C418 H410 0.930 . S
C418 C417 1.362 . S
C418 C421 1.409 . S
C419 H411 0.930 . S
C419 C420 1.355 . S
C419 C421 1.415 . S
C420 C419 1.355 . S
C420 C422 1.419 . S
C421 C416 1.425 . S
C421 C418 1.409 . S
C421 C419 1.415 . S
C422 H412 0.930 . S
C422 C420 1.419 . S
C422 C423 1.362 . S
C423 H413 0.930 . S
C423 C416 1.409 . S
C423 C422 1.362 . S
H424 C430 0.930 . S
H425 C433 0.930 . S
H426 C434 0.930 . S
H427 C435 0.930 . S
H428 C438 0.930 . S
H429 C439 0.930 . S
C430 H424 0.930 . S
C430 C431 1.355 . S
C430 C432 1.415 . S
C431 C430 1.355 . S
C431 C433 1.419 . S
C432 C430 1.415 . S
C432 C437 1.425 . S
C432 C439 1.409 . S
C433 H425 0.930 . S
C433 C431 1.419 . S
C433 C434 1.362 . S
C434 H426 0.930 . S
C434 C433 1.362 . S
C434 C437 1.409 . S
C435 H427 0.930 . S
C435 C436 1.355 . S
C435 C437 1.415 . S
C436 C435 1.355 . S
C436 C438 1.419 . S
C437 C432 1.425 . S
C437 C434 1.409 . S
C437 C435 1.415 . S
C438 H428 0.930 . S
C438 C436 1.419 . S
C438 C439 1.362 . S
C439 H429 0.930 . S
C439 C432 1.409 . S
C439 C438 1.362 . S
H440 C446 0.930 . S
H441 C449 0.930 . S
H442 C450 0.930 . S
H443 C451 0.930 . S
H444 C454 0.930 . S
H445 C455 0.930 . S
C446 H440 0.930 . S
C446 C447 1.355 . S
C446 C448 1.415 . S
C447 C446 1.355 . S
C447 C449 1.419 . S
C448 C446 1.415 . S
C448 C453 1.425 . S
C448 C455 1.409 . S
C449 H441 0.930 . S
C449 C447 1.419 . S
C449 C450 1.362 . S
C450 H442 0.930 . S
C450 C449 1.362 . S
C450 C453 1.409 . S
C451 H443 0.930 . S
C451 C452 1.355 . S
C451 C453 1.415 . S
C452 C451 1.355 . S
C452 C454 1.419 . S
C453 C448 1.425 . S
C453 C450 1.409 . S
C453 C451 1.415 . S
C454 H444 0.930 . S
C454 C452 1.419 . S
C454 C455 1.362 . S
C455 H445 0.930 . S
C455 C448 1.409 . S
C455 C454 1.362 . S
H456 C462 0.930 . S
H457 C465 0.930 . S
H458 C466 0.930 . S
H459 C467 0.930 . S
H460 C470 0.930 . S
H461 C471 0.930 . S
C462 H456 0.930 . S
C462 C463 1.355 . S
C462 C464 1.415 . S
C463 C462 1.355 . S
C463 C465 1.419 . S
C464 C462 1.415 . S
C464 C469 1.425 . S
C464 C471 1.409 . S
C465 H457 0.930 . S
C465 C463 1.419 . S
C465 C466 1.362 . S
C466 H458 0.930 . S
C466 C465 1.362 . S
C466 C469 1.409 . S
C467 H459 0.930 . S
C467 C468 1.355 . S
C467 C469 1.415 . S
C468 C467 1.355 . S
C468 C470 1.419 . S
C469 C464 1.425 . S
C469 C466 1.409 . S
C469 C467 1.415 . S
C470 H460 0.930 . S
C470 C468 1.419 . S
C470 C471 1.362 . S
C471 H461 0.930 . S
C471 C464 1.409 . S
C471 C470 1.362 . S
H472 C478 0.930 . S
H473 C481 0.930 . S
H474 C482 0.930 . S
H475 C483 0.930 . S
H476 C486 0.930 . S
H477 C487 0.930 . S
C478 H472 0.930 . S
C478 C479 1.355 . S
C478 C480 1.415 . S
C479 C478 1.355 . S
C479 C481 1.419 . S
C480 C478 1.415 . S
C480 C485 1.425 . S
C480 C487 1.409 . S
C481 H473 0.930 . S
C481 C479 1.419 . S
C481 C482 1.362 . S
C482 H474 0.930 . S
C482 C481 1.362 . S
C482 C485 1.409 . S
C483 H475 0.930 . S
C483 C484 1.355 . S
C483 C485 1.415 . S
C484 C483 1.355 . S
C484 C486 1.419 . S
C485 C480 1.425 . S
C485 C482 1.409 . S
C485 C483 1.415 . S
C486 H476 0.930 . S
C486 C484 1.419 . S
C486 C487 1.362 . S
C487 H477 0.930 . S
C487 C480 1.409 . S
C487 C486 1.362 . S
H488 C494 0.930 . S
H489 C497 0.930 . S
H490 C498 0.930 . S
H491 C499 0.930 . S
H492 C502 0.930 . S
H493 C503 0.930 . S
C494 H488 0.930 . S
C494 C495 1.355 . S
C494 C496 1.415 . S
C495 C494 1.355 . S
C495 C497 1.419 . S
C496 C494 1.415 . S
C496 C501 1.425 . S
C496 C503 1.409 . S
C497 H489 0.930 . S
C497 C495 1.419 . S
C497 C498 1.362 . S
C498 H490 0.930 . S
C498 C497 1.362 . S
C498 C501 1.409 . S
C499 H491 0.930 . S
C499 C500 1.355 . S
C499 C501 1.415 . S
C500 C499 1.355 . S
C500 C502 1.419 . S
C501 C496 1.425 . S
C501 C498 1.409 . S
C501 C499 1.415 . S
C502 H492 0.930 . S
C502 C500 1.419 . S
C502 C503 1.362 . S
C503 H493 0.930 . S
C503 C496 1.409 . S
C503 C502 1.362 . S
H504 C510 0.930 . S
H505 C513 0.930 . S
H506 C514 0.930 . S
H507 C515 0.930 . S
H508 C518 0.930 . S
H509 C519 0.930 . S
C510 H504 0.930 . S
C510 C511 1.355 . S
C510 C512 1.415 . S
C511 C510 1.355 . S
C511 C513 1.419 . S
C512 C510 1.415 . S
C512 C517 1.425 . S
C512 C519 1.409 . S
C513 H505 0.930 . S
C513 C511 1.419 . S
C513 C514 1.362 . S
C514 H506 0.930 . S
C514 C513 1.362 . S
C514 C517 1.409 . S
C515 H507 0.930 . S
C515 C516 1.355 . S
C515 C517 1.415 . S
C516 C515 1.355 . S
C516 C518 1.419 . S
C517 C512 1.425 . S
C517 C514 1.409 . S
C517 C515 1.415 . S
C518 H508 0.930 . S
C518 C516 1.419 . S
C518 C519 1.362 . S
C519 H509 0.930 . S
C519 C512 1.409 . S
C519 C518 1.362 . S
H520 C526 0.930 . S
H521 C529 0.930 . S
H522 C530 0.930 . S
H523 C531 0.930 . S
H524 C534 0.930 . S
H525 C535 0.930 . S
C526 H520 0.930 . S
C526 C527 1.355 . S
C526 C528 1.415 . S
C527 C526 1.355 . S
C527 C529 1.419 . S
C528 C526 1.415 . S
C528 C533 1.425 . S
C528 C535 1.409 . S
C529 H521 0.930 . S
C529 C527 1.419 . S
C529 C530 1.362 . S
C530 H522 0.930 . S
C530 C529 1.362 . S
C530 C533 1.409 . S
C531 H523 0.930 . S
C531 C532 1.355 . S
C531 C533 1.415 . S
C532 C531 1.355 . S
C532 C534 1.419 . S
C533 C528 1.425 . S
C533 C530 1.409 . S
C533 C531 1.415 . S
C534 H524 0.930 . S
C534 C532 1.419 . S
C534 C535 1.362 . S
C535 H525 0.930 . S
C535 C528 1.409 . S
C535 C534 1.362 . S
H536 C542 0.930 . S
H537 C545 0.930 . S
H538 C546 0.930 . S
H539 C547 0.930 . S
H540 C550 0.930 . S
H541 C551 0.930 . S
C542 H536 0.930 . S
C542 C543 1.355 . S
C542 C544 1.415 . S
C543 C542 1.355 . S
C543 C545 1.419 . S
C544 C542 1.415 . S
C544 C549 1.425 . S
C544 C551 1.409 . S
C545 H537 0.930 . S
C545 C543 1.419 . S
C545 C546 1.362 . S
C546 H538 0.930 . S
C546 C545 1.362 . S
C546 C549 1.409 . S
C547 H539 0.930 . S
C547 C548 1.355 . S
C547 C549 1.415 . S
C548 C547 1.355 . S
C548 C550 1.419 . S
C549 C544 1.425 . S
C549 C546 1.409 . S
C549 C547 1.415 . S
C550 H540 0.930 . S
C550 C548 1.419 . S
C550 C551 1.362 . S
C551 H541 0.930 . S
C551 C544 1.409 . S
C551 C550 1.362 . S
H552 C558 0.930 . S
H553 C561 0.930 . S
H554 C562 0.930 . S
H555 C563 0.930 . S
H556 C566 0.930 . S
H557 C567 0.930 . S
C558 H552 0.930 . S
C558 C559 1.355 . S
C558 C560 1.415 . S
C559 C558 1.355 . S
C559 C561 1.419 . S
C560 C558 1.415 . S
C560 C565 1.425 . S
C560 C567 1.409 . S
C561 H553 0.930 . S
C561 C559 1.419 . S
C561 C562 1.362 . S
C562 H554 0.930 . S
C562 C561 1.362 . S
C562 C565 1.409 . S
C563 H555 0.930 . S
C563 C564 1.355 . S
C563 C565 1.415 . S
C564 C563 1.355 . S
C564 C566 1.419 . S
C565 C560 1.425 . S
C565 C562 1.409 . S
C565 C563 1.415 . S
C566 H556 0.930 . S
C566 C564 1.419 . S
C566 C567 1.362 . S
C567 H557 0.930 . S
C567 C560 1.409 . S
C567 C566 1.362 . S
H568 C574 0.930 . S
H569 C577 0.930 . S
H570 C578 0.930 . S
H571 C579 0.930 . S
H572 C582 0.930 . S
H573 C583 0.930 . S
C574 H568 0.930 . S
C574 C575 1.355 . S
C574 C576 1.415 . S
C575 C574 1.355 . S
C575 C577 1.419 . S
C576 C574 1.415 . S
C576 C581 1.425 . S
C576 C583 1.409 . S
C577 H569 0.930 . S
C577 C575 1.419 . S
C577 C578 1.362 . S
C578 H570 0.930 . S
C578 C577 1.362 . S
C578 C581 1.409 . S
C579 H571 0.930 . S
C579 C580 1.355 . S
C579 C581 1.415 . S
C580 C579 1.355 . S
C580 C582 1.419 . S
C581 C576 1.425 . S
C581 C578 1.409 . S
C581 C579 1.415 . S
C582 H572 0.930 . S
C582 C580 1.419 . S
C582 C583 1.362 . S
C583 H573 0.930 . S
C583 C576 1.409 . S
C583 C582 1.362 . S
H584 C590 0.930 . S
H585 C593 0.930 . S
H586 C594 0.930 . S
H587 C595 0.930 . S
H588 C598 0.930 . S
H589 C599 0.930 . S
C590 H584 0.930 . S
C590 C591 1.355 . S
C590 C592 1.415 . S
C591 C590 1.355 . S
C591 C593 1.419 . S
C592 C590 1.415 . S
C592 C597 1.425 . S
C592 C599 1.409 . S
C593 H585 0.930 . S
C593 C591 1.419 . S
C593 C594 1.362 . S
C594 H586 0.930 . S
C594 C593 1.362 . S
C594 C597 1.409 . S
C595 H587 0.930 . S
C595 C596 1.355 . S
C595 C597 1.415 . S
C596 C595 1.355 . S
C596 C598 1.419 . S
C597 C592 1.425 . S
C597 C594 1.409 . S
C597 C595 1.415 . S
C598 H588 0.930 . S
C598 C596 1.419 . S
C598 C599 1.362 . S
C599 H589 0.930 . S
C599 C592 1.409 . S
C599 C598 1.362 . S
H600 C606 0.930 . S
H601 C609 0.930 . S
H602 C610 0.930 . S
H603 C611 0.930 . S
H604 C614 0.930 . S
H605 C615 0.930 . S
C606 H600 0.930 . S
C606 C607 1.355 . S
C606 C608 1.415 . S
C607 C606 1.355 . S
C607 C609 1.419 . S
C608 C606 1.415 . S
C608 C613 1.425 . S
C608 C615 1.409 . S
C609 H601 0.930 . S
C609 C607 1.419 . S
C609 C610 1.362 . S
C610 H602 0.930 . S
C610 C609 1.362 . S
C610 C613 1.409 . S
C611 H603 0.930 . S
C611 C612 1.355 . S
C611 C613 1.415 . S
C612 C611 1.355 . S
C612 C614 1.419 . S
C613 C608 1.425 . S
C613 C610 1.409 . S
C613 C611 1.415 . S
C614 H604 0.930 . S
C614 C612 1.419 . S
C614 C615 1.362 . S
C615 H605 0.930 . S
C615 C608 1.409 . S
C615 C614 1.362 . S
H616 C622 0.930 . S
H617 C625 0.930 . S
H618 C626 0.930 . S
H619 C627 0.930 . S
H620 C630 0.930 . S
H621 C631 0.930 . S
C622 H616 0.930 . S
C622 C623 1.355 . S
C622 C624 1.415 . S
C623 C622 1.355 . S
C623 C625 1.419 . S
C624 C622 1.415 . S
C624 C629 1.425 . S
C624 C631 1.409 . S
C625 H617 0.930 . S
C625 C623 1.419 . S
C625 C626 1.362 . S
C626 H618 0.930 . S
C626 C625 1.362 . S
C626 C629 1.409 . S
C627 H619 0.930 . S
C627 C628 1.355 . S
C627 C629 1.415 . S
C628 C627 1.355 . S
C628 C630 1.419 . S
C629 C624 1.425 . S
C629 C626 1.409 . S
C629 C627 1.415 . S
C630 H620 0.930 . S
C630 C628 1.419 . S
C630 C631 1.362 . S
C631 H621 0.930 . S
C631 C624 1.409 . S
C631 C630 1.362 . S
H632 C638 0.930 . S
H633 C641 0.930 . S
H634 C642 0.930 . S
H635 C643 0.930 . S
H636 C646 0.930 . S
H637 C647 0.930 . S
C638 H632 0.930 . S
C638 C639 1.355 . S
C638 C640 1.415 . S
C639 C638 1.355 . S
C639 C641 1.419 . S
C640 C638 1.415 . S
C640 C645 1.425 . S
C640 C647 1.409 . S
C641 H633 0.930 . S
C641 C639 1.419 . S
C641 C642 1.362 . S
C642 H634 0.930 . S
C642 C641 1.362 . S
C642 C645 1.409 . S
C643 H635 0.930 . S
C643 C644 1.355 . S
C643 C645 1.415 . S
C644 C643 1.355 . S
C644 C646 1.419 . S
C645 C640 1.425 . S
C645 C642 1.409 . S
C645 C643 1.415 . S
C646 H636 0.930 . S
C646 C644 1.419 . S
C646 C647 1.362 . S
C647 H637 0.930 . S
C647 C640 1.409 . S
C647 C646 1.362 . S
H648 C654 0.930 . S
H649 C657 0.930 . S
H650 C658 0.930 . S
H651 C659 0.930 . S
H652 C662 0.930 . S
H653 C663 0.930 . S
C654 H648 0.930 . S
C654 C655 1.355 . S
C654 C656 1.415 . S
C655 C654 1.355 . S
C655 C657 1.419 . S
C656 C654 1.415 . S
C656 C661 1.425 . S
C656 C663 1.409 . S
C657 H649 0.930 . S
C657 C655 1.419 . S
C657 C658 1.362 . S
C658 H650 0.930 . S
C658 C657 1.362 . S
C658 C661 1.409 . S
C659 H651 0.930 . S
C659 C660 1.355 . S
C659 C661 1.415 . S
C660 C659 1.355 . S
C660 C662 1.419 . S
C661 C656 1.425 . S
C661 C658 1.409 . S
C661 C659 1.415 . S
C662 H652 0.930 . S
C662 C660 1.419 . S
C662 C663 1.362 . S
C663 H653 0.930 . S
C663 C656 1.409 . S
C663 C662 1.362 . S
H664 C670 0.930 . S
H665 C673 0.930 . S
H666 C674 0.930 . S
H667 C675 0.930 . S
H668 C678 0.930 . S
H669 C679 0.930 . S
C670 H664 0.930 . S
C670 C671 1.355 . S
C670 C672 1.415 . S
C671 C670 1.355 . S
C671 C673 1.419 . S
C672 C670 1.415 . S
C672 C677 1.425 . S
C672 C679 1.409 . S
C673 H665 0.930 . S
C673 C671 1.419 . S
C673 C674 1.362 . S
C674 H666 0.930 . S
C674 C673 1.362 . S
C674 C677 1.409 . S
C675 H667 0.930 . S
C675 C676 1.355 . S
C675 C677 1.415 . S
C676 C675 1.355 . S
C676 C678 1.419 . S
C677 C672 1.425 . S
C677 C674 1.409 . S
C677 C675 1.415 . S
C678 H668 0.930 . S
C678 C676 1.419 . S
C678 C679 1.362 . S
C679 H669 0.930 . S
C679 C672 1.409 . S
C679 C678 1.362 . S
H680 C686 0.930 . S
H681 C689 0.930 . S
H682 C690 0.930 . S
H683 C691 0.930 . S
H684 C694 0.930 . S
H685 C695 0.930 . S
C686 H680 0.930 . S
C686 C687 1.355 . S
C686 C688 1.415 . S
C687 C686 1.355 . S
C687 C689 1.419 . S
C688 C686 1.415 . S
C688 C693 1.425 . S
C688 C695 1.409 . S
C689 H681 0.930 . S
C689 C687 1.419 . S
C689 C690 1.362 . S
C690 H682 0.930 . S
C690 C689 1.362 . S
C690 C693 1.409 . S
C691 H683 0.930 . S
C691 C692 1.355 . S
C691 C693 1.415 . S
C692 C691 1.355 . S
C692 C694 1.419 . S
C693 C688 1.425 . S
C693 C690 1.409 . S
C693 C691 1.415 . S
C694 H684 0.930 . S
C694 C692 1.419 . S
C694 C695 1.362 . S
C695 H685 0.930 . S
C695 C688 1.409 . S
C695 C694 1.362 . S
H696 C702 0.930 . S
H697 C705 0.930 . S
H698 C706 0.930 . S
H699 C707 0.930 . S
H700 C710 0.930 . S
H701 C711 0.930 . S
C702 H696 0.930 . S
C702 C703 1.355 . S
C702 C704 1.415 1_556 S
C703 C702 1.355 . S
C703 C705 1.419 . S
C704 C702 1.415 1_554 S
C704 C709 1.425 1_564 S
C704 C711 1.409 . S
C705 H697 0.930 . S
C705 C703 1.419 . S
C705 C706 1.362 1_565 S
C706 H698 0.930 . S
C706 C705 1.362 1_545 S
C706 C709 1.409 . S
C707 H699 0.930 . S
C707 C708 1.355 . S
C707 C709 1.415 1_554 S
C708 C707 1.355 . S
C708 C710 1.419 . S
C709 C704 1.425 1_546 S
C709 C706 1.409 . S
C709 C707 1.415 1_556 S
C710 H700 0.930 . S
C710 C708 1.419 . S
C710 C711 1.362 1_545 S
C711 H701 0.930 . S
C711 C704 1.409 . S
C711 C710 1.362 1_565 S
H712 C718 0.930 . S
H713 C721 0.930 . S
H714 C722 0.930 . S
H715 C723 0.930 . S
H716 C726 0.930 . S
H717 C727 0.930 . S
C718 H712 0.930 . S
C718 C719 1.355 . S
C718 C720 1.415 . S
C719 C718 1.355 . S
C719 C721 1.419 . S
C720 C718 1.415 . S
C720 C725 1.425 . S
C720 C727 1.409 . S
C721 H713 0.930 . S
C721 C719 1.419 . S
C721 C722 1.362 . S
C722 H714 0.930 . S
C722 C721 1.362 . S
C722 C725 1.409 . S
C723 H715 0.930 . S
C723 C724 1.355 . S
C723 C725 1.415 . S
C724 C723 1.355 . S
C724 C726 1.419 . S
C725 C720 1.425 . S
C725 C722 1.409 . S
C725 C723 1.415 . S
C726 H716 0.930 . S
C726 C724 1.419 . S
C726 C727 1.362 . S
C727 H717 0.930 . S
C727 C720 1.409 . S
C727 C726 1.362 . S
H728 C734 0.930 . S
H729 C737 0.930 . S
H730 C738 0.930 . S
H731 C739 0.930 . S
H732 C742 0.930 . S
H733 C743 0.930 . S
C734 H728 0.930 . S
C734 C735 1.355 . S
C734 C736 1.415 1_556 S
C735 C734 1.355 . S
C735 C737 1.419 . S
C736 C734 1.415 1_554 S
C736 C741 1.425 1_454 S
C736 C743 1.409 . S
C737 H729 0.930 . S
C737 C735 1.419 . S
C737 C738 1.362 1_455 S
C738 H730 0.930 . S
C738 C737 1.362 1_655 S
C738 C741 1.409 . S
C739 H731 0.930 . S
C739 C740 1.355 . S
C739 C741 1.415 1_554 S
C740 C739 1.355 . S
C740 C742 1.419 . S
C741 C736 1.425 1_656 S
C741 C738 1.409 . S
C741 C739 1.415 1_556 S
C742 H732 0.930 . S
C742 C740 1.419 . S
C742 C743 1.362 1_655 S
C743 H733 0.930 . S
C743 C736 1.409 . S
C743 C742 1.362 1_455 S
H744 C750 0.930 . S
H745 C753 0.930 . S
H746 C754 0.930 . S
H747 C755 0.930 . S
H748 C758 0.930 . S
H749 C759 0.930 . S
C750 H744 0.930 . S
C750 C751 1.355 . S
C750 C752 1.414 . S
C751 C750 1.355 . S
C751 C753 1.419 . S
C752 C750 1.414 . S
C752 C757 1.425 1_545 S
C752 C759 1.410 1_545 S
C753 H745 0.930 . S
C753 C751 1.419 . S
C753 C754 1.362 . S
C754 H746 0.930 . S
C754 C753 1.362 . S
C754 C757 1.408 1_545 S
C755 H747 0.930 . S
C755 C756 1.355 . S
C755 C757 1.415 . S
C756 C755 1.355 . S
C756 C758 1.419 . S
C757 C752 1.425 1_565 S
C757 C754 1.408 1_565 S
C757 C755 1.415 . S
C758 H748 0.930 . S
C758 C756 1.419 . S
C758 C759 1.362 . S
C759 H749 0.930 . S
C759 C752 1.410 1_565 S
C759 C758 1.362 . S
H760 C766 0.930 . S
H761 C769 0.930 . S
H762 C770 0.930 1_556 S
H763 C771 0.930 . S
H764 C774 0.930 . S
H765 C775 0.930 1_554 S
C766 H760 0.930 . S
C766 C767 1.355 . S
C766 C768 1.415 . S
C767 C766 1.355 . S
C767 C769 1.419 . S
C768 C766 1.415 . S
C768 C773 1.425 1_554 S
C768 C775 1.409 1_554 S
C769 H761 0.930 . S
C769 C767 1.419 . S
C769 C770 1.362 . S
C770 H762 0.930 1_554 S
C770 C769 1.362 . S
C770 C773 1.409 1_554 S
C771 H763 0.930 . S
C771 C772 1.355 . S
C771 C773 1.415 . S
C772 C771 1.355 . S
C772 C774 1.419 . S
C773 C768 1.425 1_556 S
C773 C770 1.409 1_556 S
C773 C771 1.415 . S
C774 H764 0.930 . S
C774 C772 1.419 . S
C774 C775 1.362 . S
C775 H765 0.930 1_556 S
C775 C768 1.409 1_556 S
C775 C774 1.362 . S
H776 C782 0.930 . S
H777 C785 0.930 . S
H778 C786 0.930 . S
H779 C787 0.930 . S
H780 C790 0.930 . S
H781 C791 0.930 . S
C782 H776 0.930 . S
C782 C783 1.355 . S
C782 C784 1.415 1_455 S
C783 C782 1.355 . S
C783 C785 1.419 . S
C784 C782 1.415 1_655 S
C784 C789 1.425 1_655 S
C784 C791 1.409 . S
C785 H777 0.930 . S
C785 C783 1.419 . S
C785 C786 1.362 . S
C786 H778 0.930 . S
C786 C785 1.362 . S
C786 C789 1.409 . S
C787 H779 0.930 . S
C787 C788 1.355 . S
C787 C789 1.415 1_655 S
C788 C787 1.355 . S
C788 C790 1.419 . S
C789 C784 1.425 1_455 S
C789 C786 1.409 . S
C789 C787 1.415 1_455 S
C790 H780 0.930 . S
C790 C788 1.419 . S
C790 C791 1.362 . S
C791 H781 0.930 . S
C791 C784 1.409 . S
C791 C790 1.362 . S
H792 C798 0.930 . S
H793 C801 0.930 . S
H794 C802 0.930 . S
H795 C803 0.930 . S
H796 C806 0.930 . S
H797 C807 0.930 . S
C798 H792 0.930 . S
C798 C799 1.355 . S
C798 C800 1.415 . S
C799 C798 1.355 . S
C799 C801 1.419 . S
C800 C798 1.415 . S
C800 C805 1.425 1_566 S
C800 C807 1.409 1_566 S
C801 H793 0.930 . S
C801 C799 1.419 . S
C801 C802 1.362 . S
C802 H794 0.930 . S
C802 C801 1.362 . S
C802 C805 1.409 1_566 S
C803 H795 0.930 . S
C803 C804 1.355 . S
C803 C805 1.415 . S
C804 C803 1.355 . S
C804 C806 1.419 . S
C805 C800 1.425 1_544 S
C805 C802 1.409 1_544 S
C805 C803 1.415 . S
C806 H796 0.930 . S
C806 C804 1.419 . S
C806 C807 1.362 . S
C807 H797 0.930 . S
C807 C800 1.409 1_544 S
C807 C806 1.362 . S
H808 C814 0.930 . S
H809 C817 0.930 . S
H810 C818 0.930 . S
H811 C819 0.930 . S
H812 C822 0.930 . S
H813 C823 0.930 . S
C814 H808 0.930 . S
C814 C815 1.355 . S
C814 C816 1.415 . S
C815 C814 1.355 . S
C815 C817 1.419 . S
C816 C814 1.415 . S
C816 C821 1.425 . S
C816 C823 1.409 . S
C817 H809 0.930 . S
C817 C815 1.419 . S
C817 C818 1.362 . S
C818 H810 0.930 . S
C818 C817 1.362 . S
C818 C821 1.409 . S
C819 H811 0.930 . S
C819 C820 1.355 . S
C819 C821 1.415 . S
C820 C819 1.355 . S
C820 C822 1.419 . S
C821 C816 1.425 . S
C821 C818 1.409 . S
C821 C819 1.415 . S
C822 H812 0.930 . S
C822 C820 1.419 . S
C822 C823 1.362 . S
C823 H813 0.930 . S
C823 C816 1.409 . S
C823 C822 1.362 . S
H824 C830 0.930 . S
H825 C833 0.930 . S
H826 C834 0.930 1_556 S
H827 C835 0.930 . S
H828 C838 0.930 . S
H829 C839 0.930 1_554 S
C830 H824 0.930 . S
C830 C831 1.355 . S
C830 C832 1.415 . S
C831 C830 1.355 . S
C831 C833 1.419 . S
C832 C830 1.415 . S
C832 C837 1.425 1_654 S
C832 C839 1.409 1_654 S
C833 H825 0.930 . S
C833 C831 1.419 . S
C833 C834 1.362 . S
C834 H826 0.930 1_554 S
C834 C833 1.362 . S
C834 C837 1.409 1_654 S
C835 H827 0.930 . S
C835 C836 1.355 . S
C835 C837 1.415 . S
C836 C835 1.355 . S
C836 C838 1.419 . S
C837 C832 1.425 1_456 S
C837 C834 1.409 1_456 S
C837 C835 1.415 . S
C838 H828 0.930 . S
C838 C836 1.419 . S
C838 C839 1.362 . S
C839 H829 0.930 1_556 S
C839 C832 1.409 1_456 S
C839 C838 1.362 . S
H840 C846 0.930 . S
H841 C849 0.930 . S
H842 C850 0.930 . S
H843 C851 0.930 . S
H844 C854 0.930 . S
H845 C855 0.930 . S
C846 H840 0.930 . S
C846 C847 1.355 . S
C846 C848 1.415 . S
C847 C846 1.355 . S
C847 C849 1.419 . S
C848 C846 1.415 . S
C848 C853 1.425 1_565 S
C848 C855 1.409 . S
C849 H841 0.930 . S
C849 C847 1.419 . S
C849 C850 1.362 1_565 S
C850 H842 0.930 . S
C850 C849 1.362 1_545 S
C850 C853 1.409 . S
C851 H843 0.930 . S
C851 C852 1.355 . S
C851 C853 1.415 . S
C852 C851 1.355 . S
C852 C854 1.419 . S
C853 C848 1.425 1_545 S
C853 C850 1.409 . S
C853 C851 1.415 . S
C854 H844 0.930 . S
C854 C852 1.419 . S
C854 C855 1.362 1_545 S
C855 H845 0.930 . S
C855 C848 1.409 . S
C855 C854 1.362 1_565 S
H856 C862 0.930 . S
H857 C865 0.930 . S
H858 C866 0.930 . S
H859 C867 0.930 . S
H860 C870 0.930 . S
H861 C871 0.930 . S
C862 H856 0.930 . S
C862 C863 1.355 . S
C862 C864 1.415 . S
C863 C862 1.355 . S
C863 C865 1.419 . S
C864 C862 1.415 . S
C864 C869 1.425 1_554 S
C864 C871 1.409 . S
C865 H857 0.930 . S
C865 C863 1.419 . S
C865 C866 1.362 1_554 S
C866 H858 0.930 . S
C866 C865 1.362 1_556 S
C866 C869 1.409 . S
C867 H859 0.930 . S
C867 C868 1.355 . S
C867 C869 1.415 . S
C868 C867 1.355 . S
C868 C870 1.419 . S
C869 C864 1.425 1_556 S
C869 C866 1.409 . S
C869 C867 1.415 . S
C870 H860 0.930 . S
C870 C868 1.419 . S
C870 C871 1.362 1_556 S
C871 H861 0.930 . S
C871 C864 1.409 . S
C871 C870 1.362 1_554 S
H872 C878 0.930 . S
H873 C881 0.930 . S
H874 C882 0.930 . S
H875 C883 0.930 . S
H876 C886 0.930 . S
H877 C887 0.930 . S
C878 H872 0.930 . S
C878 C879 1.355 . S
C878 C880 1.415 . S
C879 C878 1.355 . S
C879 C881 1.419 . S
C880 C878 1.415 . S
C880 C885 1.425 1_455 S
C880 C887 1.409 . S
C881 H873 0.930 . S
C881 C879 1.419 . S
C881 C882 1.362 1_455 S
C882 H874 0.930 . S
C882 C881 1.362 1_655 S
C882 C885 1.409 . S
C883 H875 0.930 . S
C883 C884 1.355 . S
C883 C885 1.415 . S
C884 C883 1.355 . S
C884 C886 1.419 . S
C885 C880 1.425 1_655 S
C885 C882 1.409 . S
C885 C883 1.415 . S
C886 H876 0.930 . S
C886 C884 1.419 . S
C886 C887 1.362 1_655 S
C887 H877 0.930 . S
C887 C880 1.409 . S
C887 C886 1.362 1_455 S
H888 C894 0.930 . S
H889 C897 0.930 . S
H890 C898 0.930 . S
H891 C899 0.930 . S
H892 C902 0.930 . S
H893 C903 0.930 . S
C894 H888 0.930 . S
C894 C895 1.355 . S
C894 C896 1.415 . S
C895 C894 1.355 . S
C895 C897 1.419 . S
C896 C894 1.415 . S
C896 C901 1.425 . S
C896 C903 1.409 . S
C897 H889 0.930 . S
C897 C895 1.419 . S
C897 C898 1.362 . S
C898 H890 0.930 . S
C898 C897 1.362 . S
C898 C901 1.409 . S
C899 H891 0.930 . S
C899 C900 1.355 . S
C899 C901 1.415 . S
C900 C899 1.355 . S
C900 C902 1.419 . S
C901 C896 1.425 . S
C901 C898 1.409 . S
C901 C899 1.415 . S
C902 H892 0.930 . S
C902 C900 1.419 . S
C902 C903 1.362 . S
C903 H893 0.930 . S
C903 C896 1.409 . S
C903 C902 1.362 . S
H904 C910 0.930 . S
H905 C913 0.930 . S
H906 C914 0.930 . S
H907 C915 0.930 . S
H908 C918 0.930 . S
H909 C919 0.930 . S
C910 H904 0.930 . S
C910 C911 1.355 . S
C910 C912 1.415 . S
C911 C910 1.355 . S
C911 C913 1.419 . S
C912 C910 1.415 . S
C912 C917 1.425 . S
C912 C919 1.409 . S
C913 H905 0.930 . S
C913 C911 1.419 . S
C913 C914 1.362 . S
C914 H906 0.930 . S
C914 C913 1.362 . S
C914 C917 1.409 . S
C915 H907 0.930 . S
C915 C916 1.355 . S
C915 C917 1.415 . S
C916 C915 1.355 . S
C916 C918 1.419 . S
C917 C912 1.425 . S
C917 C914 1.409 . S
C917 C915 1.415 . S
C918 H908 0.930 . S
C918 C916 1.419 . S
C918 C919 1.362 . S
C919 H909 0.930 . S
C919 C912 1.409 . S
C919 C918 1.362 . S
H920 C926 0.930 . S
H921 C929 0.930 . S
H922 C930 0.930 . S
H923 C931 0.930 . S
H924 C934 0.930 . S
H925 C935 0.930 . S
C926 H920 0.930 . S
C926 C927 1.355 . S
C926 C928 1.415 . S
C927 C926 1.355 . S
C927 C929 1.419 . S
C928 C926 1.415 . S
C928 C933 1.425 . S
C928 C935 1.409 . S
C929 H921 0.930 . S
C929 C927 1.419 . S
C929 C930 1.362 . S
C930 H922 0.930 . S
C930 C929 1.362 . S
C930 C933 1.409 . S
C931 H923 0.930 . S
C931 C932 1.355 . S
C931 C933 1.415 . S
C932 C931 1.355 . S
C932 C934 1.419 . S
C933 C928 1.425 . S
C933 C930 1.409 . S
C933 C931 1.415 . S
C934 H924 0.930 . S
C934 C932 1.419 . S
C934 C935 1.362 . S
C935 H925 0.930 . S
C935 C928 1.409 . S
C935 C934 1.362 . S
H936 C942 0.930 . S
H937 C945 0.930 . S
H938 C946 0.930 . S
H939 C947 0.930 . S
H940 C950 0.930 . S
H941 C951 0.930 . S
C942 H936 0.930 . S
C942 C943 1.355 . S
C942 C944 1.415 . S
C943 C942 1.355 . S
C943 C945 1.419 . S
C944 C942 1.415 . S
C944 C949 1.425 . S
C944 C951 1.409 . S
C945 H937 0.930 . S
C945 C943 1.419 . S
C945 C946 1.362 . S
C946 H938 0.930 . S
C946 C945 1.362 . S
C946 C949 1.409 . S
C947 H939 0.930 . S
C947 C948 1.355 . S
C947 C949 1.415 . S
C948 C947 1.355 . S
C948 C950 1.419 . S
C949 C944 1.425 . S
C949 C946 1.409 . S
C949 C947 1.415 . S
C950 H940 0.930 . S
C950 C948 1.419 . S
C950 C951 1.362 . S
C951 H941 0.930 . S
C951 C944 1.409 . S
C951 C950 1.362 . S
H952 C958 0.930 . S
H953 C961 0.930 . S
H954 C962 0.930 . S
H955 C963 0.930 . S
H956 C966 0.930 . S
H957 C967 0.930 . S
C958 H952 0.930 . S
C958 C959 1.355 . S
C958 C960 1.415 . S
C959 C958 1.355 . S
C959 C961 1.419 . S
C960 C958 1.415 . S
C960 C965 1.425 . S
C960 C967 1.409 . S
C961 H953 0.930 . S
C961 C959 1.419 . S
C961 C962 1.362 . S
C962 H954 0.930 . S
C962 C961 1.362 . S
C962 C965 1.409 . S
C963 H955 0.930 . S
C963 C964 1.355 . S
C963 C965 1.415 . S
C964 C963 1.355 . S
C964 C966 1.419 . S
C965 C960 1.425 . S
C965 C962 1.409 . S
C965 C963 1.415 . S
C966 H956 0.930 . S
C966 C964 1.419 . S
C966 C967 1.362 . S
C967 H957 0.930 . S
C967 C960 1.409 . S
C967 C966 1.362 . S
H968 C974 0.930 . S
H969 C977 0.930 . S
H970 C978 0.930 . S
H971 C979 0.930 . S
H972 C982 0.930 . S
H973 C983 0.930 . S
C974 H968 0.930 . S
C974 C975 1.355 . S
C974 C976 1.415 . S
C975 C974 1.355 . S
C975 C977 1.419 . S
C976 C974 1.415 . S
C976 C981 1.425 . S
C976 C983 1.409 . S
C977 H969 0.930 . S
C977 C975 1.419 . S
C977 C978 1.362 . S
C978 H970 0.930 . S
C978 C977 1.362 . S
C978 C981 1.409 . S
C979 H971 0.930 . S
C979 C980 1.355 . S
C979 C981 1.415 . S
C980 C979 1.355 . S
C980 C982 1.419 . S
C981 C976 1.425 . S
C981 C978 1.409 . S
C981 C979 1.415 . S
C982 H972 0.930 . S
C982 C980 1.419 . S
C982 C983 1.362 . S
C983 H973 0.930 . S
C983 C976 1.409 . S
C983 C982 1.362 . S
H984 C990 0.930 . S
H985 C993 0.930 . S
H986 C994 0.930 . S
H987 C995 0.930 . S
H988 C998 0.930 . S
H989 C999 0.930 . S
C990 H984 0.930 . S
C990 C991 1.355 . S
C990 C992 1.415 . S
C991 C990 1.355 . S
C991 C993 1.419 . S
C992 C990 1.415 . S
C992 C997 1.425 . S
C992 C999 1.409 . S
C993 H985 0.930 . S
C993 C991 1.419 . S
C993 C994 1.362 . S
C994 H986 0.930 . S
C994 C993 1.362 . S
C994 C997 1.409 . S
C995 H987 0.930 . S
C995 C996 1.355 . S
C995 C997 1.415 . S
C996 C995 1.355 . S
C996 C998 1.419 . S
C997 C992 1.425 . S
C997 C994 1.409 . S
C997 C995 1.415 . S
C998 H988 0.930 . S
C998 C996 1.419 . S
C998 C999 1.362 . S
C999 H989 0.930 . S
C999 C992 1.409 . S
C999 C998 1.362 . S
H1000 C1006 0.930 . S
H1001 C1009 0.930 . S
H1002 C1010 0.930 . S
H1003 C1011 0.930 . S
H1004 C1014 0.930 . S
H1005 C1015 0.930 . S
C1006 H1000 0.930 . S
C1006 C1007 1.355 . S
C1006 C1008 1.415 . S
C1007 C1006 1.355 . S
C1007 C1009 1.419 . S
C1008 C1006 1.415 . S
C1008 C1013 1.425 . S
C1008 C1015 1.409 . S
C1009 H1001 0.930 . S
C1009 C1007 1.419 . S
C1009 C1010 1.362 . S
C1010 H1002 0.930 . S
C1010 C1009 1.362 . S
C1010 C1013 1.409 . S
C1011 H1003 0.930 . S
C1011 C1012 1.355 . S
C1011 C1013 1.415 . S
C1012 C1011 1.355 . S
C1012 C1014 1.419 . S
C1013 C1008 1.425 . S
C1013 C1010 1.409 . S
C1013 C1011 1.415 . S
C1014 H1004 0.930 . S
C1014 C1012 1.419 . S
C1014 C1015 1.362 . S
C1015 H1005 0.930 . S
C1015 C1008 1.409 . S
C1015 C1014 1.362 . S
H1016 C1022 0.930 . S
H1017 C1025 0.930 . S
H1018 C1026 0.930 . S
H1019 C1027 0.930 . S
H1020 C1030 0.930 . S
H1021 C1031 0.930 . S
C1022 H1016 0.930 . S
C1022 C1023 1.355 . S
C1022 C1024 1.415 . S
C1023 C1022 1.355 . S
C1023 C1025 1.419 . S
C1024 C1022 1.415 . S
C1024 C1029 1.425 . S
C1024 C1031 1.409 . S
C1025 H1017 0.930 . S
C1025 C1023 1.419 . S
C1025 C1026 1.362 . S
C1026 H1018 0.930 . S
C1026 C1025 1.362 . S
C1026 C1029 1.409 . S
C1027 H1019 0.930 . S
C1027 C1028 1.355 . S
C1027 C1029 1.415 . S
C1028 C1027 1.355 . S
C1028 C1030 1.419 . S
C1029 C1024 1.425 . S
C1029 C1026 1.409 . S
C1029 C1027 1.415 . S
C1030 H1020 0.930 . S
C1030 C1028 1.419 . S
C1030 C1031 1.362 . S
C1031 H1021 0.930 . S
C1031 C1024 1.409 . S
C1031 C1030 1.362 . S
H1032 C1038 0.930 . S
H1033 C1041 0.930 . S
H1034 C1042 0.930 . S
H1035 C1043 0.930 . S
H1036 C1046 0.930 . S
H1037 C1047 0.930 . S
C1038 H1032 0.930 . S
C1038 C1039 1.355 . S
C1038 C1040 1.415 . S
C1039 C1038 1.355 . S
C1039 C1041 1.419 . S
C1040 C1038 1.415 . S
C1040 C1045 1.425 . S
C1040 C1047 1.409 . S
C1041 H1033 0.930 . S
C1041 C1039 1.419 . S
C1041 C1042 1.362 . S
C1042 H1034 0.930 . S
C1042 C1041 1.362 . S
C1042 C1045 1.409 . S
C1043 H1035 0.930 . S
C1043 C1044 1.355 . S
C1043 C1045 1.415 . S
C1044 C1043 1.355 . S
C1044 C1046 1.419 . S
C1045 C1040 1.425 . S
C1045 C1042 1.409 . S
C1045 C1043 1.415 . S
C1046 H1036 0.930 . S
C1046 C1044 1.419 . S
C1046 C1047 1.362 . S
C1047 H1037 0.930 . S
C1047 C1040 1.409 . S
C1047 C1046 1.362 . S
H1048 C1054 0.930 . S
H1049 C1057 0.930 . S
H1050 C1058 0.930 . S
H1051 C1059 0.930 . S
H1052 C1062 0.930 . S
H1053 C1063 0.930 . S
C1054 H1048 0.930 . S
C1054 C1055 1.355 . S
C1054 C1056 1.415 . S
C1055 C1054 1.355 . S
C1055 C1057 1.419 . S
C1056 C1054 1.415 . S
C1056 C1061 1.425 . S
C1056 C1063 1.409 . S
C1057 H1049 0.930 . S
C1057 C1055 1.419 . S
C1057 C1058 1.362 . S
C1058 H1050 0.930 . S
C1058 C1057 1.362 . S
C1058 C1061 1.409 . S
C1059 H1051 0.930 . S
C1059 C1060 1.355 . S
C1059 C1061 1.415 . S
C1060 C1059 1.355 . S
C1060 C1062 1.419 . S
C1061 C1056 1.425 . S
C1061 C1058 1.409 . S
C1061 C1059 1.415 . S
C1062 H1052 0.930 . S
C1062 C1060 1.419 . S
C1062 C1063 1.362 . S
C1063 H1053 0.930 . S
C1063 C1056 1.409 . S
C1063 C1062 1.362 . S
H1064 C1070 0.930 . S
H1065 C1073 0.930 . S
H1066 C1074 0.930 . S
H1067 C1075 0.930 . S
H1068 C1078 0.930 . S
H1069 C1079 0.930 . S
C1070 H1064 0.930 . S
C1070 C1071 1.355 . S
C1070 C1072 1.415 . S
C1071 C1070 1.355 . S
C1071 C1073 1.419 . S
C1072 C1070 1.415 . S
C1072 C1077 1.425 . S
C1072 C1079 1.409 . S
C1073 H1065 0.930 . S
C1073 C1071 1.419 . S
C1073 C1074 1.362 . S
C1074 H1066 0.930 . S
C1074 C1073 1.362 . S
C1074 C1077 1.409 . S
C1075 H1067 0.930 . S
C1075 C1076 1.355 . S
C1075 C1077 1.415 . S
C1076 C1075 1.355 . S
C1076 C1078 1.419 . S
C1077 C1072 1.425 . S
C1077 C1074 1.409 . S
C1077 C1075 1.415 . S
C1078 H1068 0.930 . S
C1078 C1076 1.419 . S
C1078 C1079 1.362 . S
C1079 H1069 0.930 . S
C1079 C1072 1.409 . S
C1079 C1078 1.362 . S
C319 C200 1.392 . S
C324 C5 1.317 . S
C335 C18 1.343 . S
C340 C213 1.367 . S
C351 C31 1.374 . S
C356 C226 1.336 . S
C367 C44 1.386 . S
C372 C161 1.324 . S
C383 C174 1.370 . S
C388 C57 1.341 . S
C399 C70 1.362 . S
C404 C187 1.348 . S
C415 C278 1.386 . S
C420 C83 1.324 . S
C431 C96 1.373 . S
C436 C291 1.337 . S
C447 C109 1.393 . S
C452 C304 1.316 . S
C463 C239 1.378 . S
C468 C122 1.332 . S
C479 C135 1.326 . S
C484 C252 1.384 . S
C495 C265 1.376 . S
C500 C148 1.334 . S
C511 C10 1.204 . S
C516 C309 1.208 . S
C527 C244 1.192 . S
C532 C23 1.220 . S
C543 C36 1.216 . S
C548 C257 1.197 . S
C559 C270 1.208 . S
C564 C49 1.204 . S
C575 C62 1.226 . S
C580 C283 1.186 . S
C591 C296 1.194 . S
C596 C75 1.219 . S
C607 C88 1.230 . S
C612 C179 1.181 . S
C623 C192 1.231 . S
C628 C101 1.181 . S
C639 C205 1.190 . S
C644 C114 1.223 . S
C655 C218 1.183 . S
C660 C127 1.229 . S
C671 C140 1.186 . S
C676 C231 1.226 . S
C687 C153 1.229 . S
C692 C166 1.184 . S
C703 C91 1.230 . S
C708 C0 1.231 . S
C719 C104 1.191 . S
C724 C13 1.188 . S
C735 C117 1.231 . S
C740 C26 1.231 . S
C751 C130 1.206 . S
C756 C39 1.202 . S
C767 C52 1.208 . S
C772 C143 1.204 . S
C783 C65 1.190 . S
C788 C78 1.187 . S
C799 C156 1.194 . S
C804 C247 1.191 . S
C815 C169 1.214 . S
C820 C260 1.217 . S
C831 C273 1.205 . S
C836 C182 1.209 . S
C847 C286 1.222 . S
C852 C195 1.219 . S
C863 C299 1.176 . S
C868 C208 1.176 . S
C879 C234 1.231 . S
C884 C221 1.231 . S
C895 C8 1.430 . S
C900 C255 1.395 . S
C911 C268 1.377 . S
C916 C21 1.446 . S
C927 C34 1.447 . S
C932 C281 1.377 . S
C943 C294 1.423 . S
C948 C47 1.401 . S
C959 C60 1.379 . S
C964 C307 1.445 . S
C975 C242 1.377 . S
C980 C73 1.446 . S
C991 C86 1.445 . S
C996 C229 1.379 . S
C1007 C164 1.447 . S
C1012 C99 1.377 . S
C1023 C112 1.400 . S
C1028 C177 1.424 . S
C1039 C125 1.416 . S
C1044 C190 1.409 . S
C1055 C138 1.400 . S
C1060 C203 1.424 . S
C1071 C151 1.447 . S
C1076 C216 1.376 . S
