# Generated by pormake.
# Topology zfs, (5)-cn, num edge types: 1
# Building blocks:
#     Node 0, Type 0, BuildingBlock: BEQFEK_clean_sbu_0, # of connection points: 5
#     Node 1, Type 0, BuildingBlock: BEQFEK_clean_sbu_0, # of connection points: 5
#     Node 2, Type 0, BuildingBlock: BEQFEK_clean_sbu_0, # of connection points: 5
#     Node 3, Type 0, BuildingBlock: BEQFEK_clean_sbu_0, # of connection points: 5
#     Node 4, Type 0, BuildingBlock: BEQFEK_clean_sbu_0, # of connection points: 5
#     Node 5, Type 0, BuildingBlock: BEQFEK_clean_sbu_0, # of connection points: 5
#     Node 6, Type 0, BuildingBlock: BEQFEK_clean_sbu_0, # of connection points: 5
#     Node 7, Type 0, BuildingBlock: BEQFEK_clean_sbu_0, # of connection points: 5
#     Edge 8, Type (0, 0), BuildingBlock: MIFKUJ_clean_linker_0, # of connection points: 2
#     Edge 9, Type (0, 0), BuildingBlock: MIFKUJ_clean_linker_0, # of connection points: 2
#     Edge 10, Type (0, 0), BuildingBlock: MIFKUJ_clean_linker_0, # of connection points: 2
#     Edge 11, Type (0, 0), BuildingBlock: MIFKUJ_clean_linker_0, # of connection points: 2
#     Edge 12, Type (0, 0), BuildingBlock: MIFKUJ_clean_linker_0, # of connection points: 2
#     Edge 13, Type (0, 0), BuildingBlock: MIFKUJ_clean_linker_0, # of connection points: 2
#     Edge 14, Type (0, 0), BuildingBlock: MIFKUJ_clean_linker_0, # of connection points: 2
#     Edge 15, Type (0, 0), BuildingBlock: MIFKUJ_clean_linker_0, # of connection points: 2
#     Edge 16, Type (0, 0), BuildingBlock: MIFKUJ_clean_linker_0, # of connection points: 2
#     Edge 17, Type (0, 0), BuildingBlock: MIFKUJ_clean_linker_0, # of connection points: 2
#     Edge 18, Type (0, 0), BuildingBlock: MIFKUJ_clean_linker_0, # of connection points: 2
#     Edge 19, Type (0, 0), BuildingBlock: MIFKUJ_clean_linker_0, # of connection points: 2
#     Edge 20, Type (0, 0), BuildingBlock: MIFKUJ_clean_linker_0, # of connection points: 2
#     Edge 21, Type (0, 0), BuildingBlock: MIFKUJ_clean_linker_0, # of connection points: 2
#     Edge 22, Type (0, 0), BuildingBlock: MIFKUJ_clean_linker_0, # of connection points: 2
#     Edge 23, Type (0, 0), BuildingBlock: MIFKUJ_clean_linker_0, # of connection points: 2
#     Edge 24, Type (0, 0), BuildingBlock: MIFKUJ_clean_linker_0, # of connection points: 2
#     Edge 25, Type (0, 0), BuildingBlock: MIFKUJ_clean_linker_0, # of connection points: 2
#     Edge 26, Type (0, 0), BuildingBlock: MIFKUJ_clean_linker_0, # of connection points: 2
#     Edge 27, Type (0, 0), BuildingBlock: MIFKUJ_clean_linker_0, # of connection points: 2
# Relax obj value: 0.255
# Max RMSD: 0.151
# Mean RMSD: 0.151
data_MOF--net-zfs--node1-BEQFEK_clean_sbu_0--edge1-MIFKUJ_clean_linker_0
_symmetry_space_group_name_H-M    P1
_symmetry_Int_Tables_number       1
_symmetry_cell_setting            triclinic
loop_
_symmetry_equiv_pos_as_xyz
'x, y, z'
_cell_length_a     41.986823
_cell_length_b     41.990271
_cell_length_c     52.173739
_cell_angle_alpha  89.994587
_cell_angle_beta   89.979477
_cell_angle_gamma 89.991749
loop_
_atom_site_label
_atom_site_type_symbol
_atom_site_fract_x
_atom_site_fract_y
_atom_site_fract_z
_atom_type_partial_charge
Co0 Co 0.05943 0.26445 0.2509 0.0
Co1 Co 0.00663 0.26856 0.20884 0.0
C2 C 0.03548 0.32714 0.23375 0.0
O3 O 0.0541 0.31076 0.24769 0.0
O4 O 0.01622 0.31377 0.21827 0.0
C5 C 0.11598 0.27683 0.28088 0.0
O6 O 0.11306 0.3064 0.27301 0.0
C7 C 0.99123 0.284 0.15641 0.0
C8 C 0.94862 0.25486 0.1484 0.0
C9 C 0.97112 0.27431 0.13682 0.0
N10 N 0.98182 0.27002 0.17827 0.0
N11 N 0.95587 0.2532 0.17355 0.0
C12 C 0.01955 0.30563 0.15449 0.0
H13 H 0.04174 0.29135 0.1554 0.0
H14 H 0.01919 0.31965 0.13646 0.0
H15 H 0.0198 0.32237 0.17086 0.0
C16 C 0.09229 0.22796 0.20997 0.0
N17 N 0.06749 0.24523 0.21877 0.0
N18 N 0.04436 0.24463 0.20178 0.0
C19 C 0.05325 0.22564 0.18212 0.0
C20 C 0.08403 0.21503 0.18647 0.0
C21 C 0.12241 0.22234 0.22457 0.0
H22 H 0.11692 0.20865 0.24222 0.0
H23 H 0.13272 0.24554 0.23046 0.0
H24 H 0.14008 0.20893 0.213 0.0
O25 O 0.02057 0.24562 0.26693 0.0
O26 O 0.98267 0.24791 0.23719 0.0
H27 H 0.00725 0.21398 0.16676 0.0
H28 H 0.03986 0.19309 0.15182 0.0
C29 C 0.03226 0.21611 0.16025 0.0
H30 H 0.03382 0.23431 0.14499 0.0
H31 H 0.94422 0.23916 0.18713 0.0
O32 O 0.09577 0.25605 0.27385 0.0
C33 C 0.992 0.2404 0.25968 0.0
Co34 Co 0.72603 0.06128 0.49876 0.0
Co35 Co 0.72334 0.00855 0.45675 0.0
C36 C 0.66406 0.0365 0.48164 0.0
O37 O 0.67978 0.05625 0.49504 0.0
O38 O 0.67813 0.0169 0.46684 0.0
C39 C 0.71482 0.10697 0.53888 0.0
O40 O 0.68711 0.0928 0.54141 0.0
C41 C 0.70732 0.99399 0.4044 0.0
C42 C 0.73653 0.95168 0.39557 0.0
C43 C 0.71683 0.97434 0.38446 0.0
N44 N 0.72163 0.98418 0.42601 0.0
N45 N 0.73847 0.9584 0.4208 0.0
C46 C 0.68562 0.02231 0.40307 0.0
H47 H 0.66942 0.02251 0.4198 0.0
H48 H 0.69994 0.04449 0.40371 0.0
H49 H 0.67101 0.02201 0.38536 0.0
C50 C 0.76284 0.09464 0.45825 0.0
N51 N 0.74572 0.06966 0.46688 0.0
N52 N 0.74615 0.04687 0.44961 0.0
C53 C 0.76452 0.05629 0.42975 0.0
C54 C 0.77518 0.08705 0.43433 0.0
C55 C 0.76717 0.12507 0.47275 0.0
H56 H 0.78429 0.12106 0.48862 0.0
H57 H 0.74413 0.13253 0.48126 0.0
H58 H 0.7763 0.14435 0.46018 0.0
O59 O 0.74449 0.02231 0.51481 0.0
O60 O 0.74526 0.98489 0.48458 0.0
H61 H 0.77734 0.01012 0.41525 0.0
H62 H 0.79904 0.04268 0.40105 0.0
C63 C 0.77546 0.03503 0.40846 0.0
H64 H 0.75822 0.03627 0.39245 0.0
H65 H 0.75275 0.94653 0.4341 0.0
O66 O 0.73437 0.09711 0.52207 0.0
C67 C 0.75128 0.99417 0.50735 0.0
Co68 Co 0.94479 0.73854 0.74577 0.0
Co69 Co 0.99692 0.73274 0.70315 0.0
C70 C 0.96806 0.67531 0.72904 0.0
O71 O 0.94873 0.69206 0.74201 0.0
O72 O 0.9883 0.68813 0.71414 0.0
C73 C 0.89213 0.72545 0.7799 0.0
O74 O 0.89901 0.69536 0.77587 0.0
C75 C 0.01339 0.71124 0.65231 0.0
C76 C 0.05376 0.74194 0.64124 0.0
C77 C 0.03302 0.71901 0.63187 0.0
N78 N 0.02148 0.72932 0.6725 0.0
N79 N 0.04616 0.74711 0.66602 0.0
C80 C 0.98662 0.68763 0.65273 0.0
H81 H 0.99193 0.66902 0.66718 0.0
H82 H 0.96426 0.69962 0.65869 0.0
H83 H 0.98331 0.67575 0.63395 0.0
C84 C 0.91269 0.7766 0.70568 0.0
N85 N 0.93682 0.75803 0.71384 0.0
N86 N 0.95872 0.75622 0.69586 0.0
C87 C 0.9493 0.7741 0.67569 0.0
C88 C 0.91971 0.78744 0.68118 0.0
C89 C 0.88495 0.7859 0.7221 0.0
H90 H 0.89385 0.79625 0.7403 0.0
H91 H 0.87092 0.76433 0.72693 0.0
H92 H 0.86934 0.80358 0.71254 0.0
O93 O 0.98423 0.75682 0.76119 0.0
O94 O 0.02122 0.7549 0.73064 0.0
H95 H 0.993 0.7848 0.6563 0.0
H96 H 0.95785 0.796 0.63844 0.0
C97 C 0.96817 0.77807 0.65156 0.0
H98 H 0.96848 0.75515 0.64121 0.0
H99 H 0.05668 0.76397 0.67803 0.0
O100 O 0.90874 0.74705 0.76923 0.0
C101 C 0.01248 0.76241 0.75329 0.0
Co102 Co 0.26784 0.94252 0.99771 0.0
Co103 Co 0.27596 0.99627 0.95688 0.0
C104 C 0.3321 0.96616 0.98423 0.0
O105 O 0.31458 0.94752 0.99724 0.0
O106 O 0.32005 0.98577 0.96836 0.0
C107 C 0.2765 0.88352 0.02508 0.0
O108 O 0.30486 0.88307 0.01445 0.0
C109 C 0.29538 0.01072 0.90532 0.0
C110 C 0.26653 0.05278 0.89519 0.0
C111 C 0.28643 0.02974 0.88478 0.0
N112 N 0.28037 0.02109 0.92646 0.0
N113 N 0.26385 0.04684 0.92051 0.0
C114 C 0.31686 0.98221 0.90497 0.0
H115 H 0.30232 0.96016 0.90526 0.0
H116 H 0.33252 0.98225 0.88784 0.0
H117 H 0.33211 0.98206 0.92221 0.0
C118 C 0.23405 0.9111 0.95457 0.0
N119 N 0.2511 0.9353 0.9646 0.0
N120 N 0.25226 0.95886 0.94802 0.0
C121 C 0.23497 0.9507 0.92718 0.0
C122 C 0.22341 0.92001 0.9304 0.0
C123 C 0.22826 0.88014 0.96796 0.0
H124 H 0.21193 0.88413 0.98437 0.0
H125 H 0.25108 0.8709 0.97562 0.0
H126 H 0.2178 0.8621 0.95491 0.0
O127 O 0.24749 0.98106 0.01292 0.0
O128 O 0.25358 0.02024 0.98457 0.0
H129 H 0.22396 0.99774 0.91359 0.0
H130 H 0.20234 0.96639 0.89778 0.0
C131 C 0.22568 0.97312 0.90616 0.0
H132 H 0.24367 0.97208 0.89069 0.0
H133 H 0.249 0.05889 0.93322 0.0
O134 O 0.2575 0.9063 0.02018 0.0
C135 C 0.2435 0.01 0.00615 0.0
Co136 Co 0.05692 0.7321 0.24851 0.0
Co137 Co 0.00373 0.72469 0.28974 0.0
C138 C 0.03641 0.66819 0.26386 0.0
O139 O 0.05507 0.68551 0.25073 0.0
O140 O 0.01595 0.68058 0.27888 0.0
C141 C 0.11694 0.72748 0.22197 0.0
O142 O 0.12079 0.70091 0.2349 0.0
C143 C 0.99415 0.7074 0.34246 0.0
C144 C 0.94604 0.72501 0.35184 0.0
C145 C 0.97294 0.71118 0.36253 0.0
N146 N 0.98087 0.7191 0.32102 0.0
N147 N 0.95183 0.7291 0.32659 0.0
C148 C 0.02693 0.6933 0.34366 0.0
H149 H 0.03288 0.68128 0.3254 0.0
H150 H 0.04471 0.71242 0.34673 0.0
H151 H 0.0288 0.67603 0.3597 0.0
C152 C 0.08726 0.76944 0.29034 0.0
N153 N 0.06365 0.75111 0.28086 0.0
N154 N 0.03961 0.75113 0.29701 0.0
C155 C 0.04641 0.77116 0.3165 0.0
C156 C 0.07707 0.78265 0.31327 0.0
C157 C 0.118 0.77593 0.27684 0.0
H158 H 0.11305 0.78801 0.25836 0.0
H159 H 0.13007 0.75303 0.27258 0.0
H160 H 0.13399 0.79116 0.28852 0.0
O161 O 0.01658 0.74872 0.23314 0.0
O162 O 0.97793 0.74484 0.26219 0.0
H163 H 0.9985 0.77736 0.33048 0.0
H164 H 0.02649 0.8068 0.34152 0.0
C165 C 0.02335 0.78125 0.33683 0.0
H166 H 0.02799 0.7676 0.35456 0.0
H167 H 0.93654 0.73995 0.31345 0.0
O168 O 0.09178 0.74384 0.22517 0.0
C169 C 0.98761 0.75281 0.23988 0.0
Co170 Co 0.25975 0.05629 0.49965 0.0
Co171 Co 0.26678 0.00465 0.54226 0.0
C172 C 0.32352 0.03184 0.51423 0.0
O173 O 0.30613 0.05005 0.50075 0.0
O174 O 0.31134 0.01325 0.53083 0.0
C175 C 0.26989 0.11508 0.47292 0.0
O176 O 0.29432 0.11845 0.4884 0.0
C177 C 0.28533 0.98976 0.59427 0.0
C178 C 0.25657 0.94728 0.60354 0.0
C179 C 0.27681 0.96972 0.61428 0.0
N180 N 0.26996 0.98033 0.57301 0.0
N181 N 0.25338 0.95446 0.57848 0.0
C182 C 0.30728 0.0179 0.5952 0.0
H183 H 0.32258 0.01828 0.57793 0.0
H184 H 0.29313 0.0402 0.59528 0.0
H185 H 0.32276 0.01718 0.61242 0.0
C186 C 0.22635 0.09076 0.54153 0.0
N187 N 0.24288 0.06569 0.53234 0.0
N188 N 0.24397 0.04317 0.54986 0.0
C189 C 0.22726 0.05296 0.57054 0.0
C190 C 0.21611 0.08358 0.56616 0.0
C191 C 0.22094 0.12101 0.52699 0.0
H192 H 0.24426 0.1312 0.52136 0.0
H193 H 0.20787 0.13894 0.53851 0.0
H194 H 0.20743 0.11574 0.50922 0.0
O195 O 0.23858 0.01781 0.48563 0.0
O196 O 0.24411 0.97998 0.51516 0.0
H197 H 0.19537 0.03998 0.60129 0.0
H198 H 0.23681 0.03396 0.60775 0.0
C199 C 0.2183 0.03221 0.59274 0.0
H200 H 0.21595 0.00712 0.5865 0.0
H201 H 0.23852 0.94278 0.5655 0.0
O202 O 0.25175 0.09102 0.47522 0.0
C203 C 0.23414 0.98934 0.49332 0.0
Co204 Co 0.94642 0.27316 0.75261 0.0
Co205 Co 0.99894 0.27935 0.79439 0.0
C206 C 0.96837 0.33654 0.76867 0.0
O207 O 0.9488 0.31969 0.75602 0.0
O208 O 0.98913 0.32377 0.78317 0.0
C209 C 0.88559 0.27755 0.72673 0.0
O210 O 0.87808 0.29946 0.74365 0.0
C211 C 0.0134 0.29849 0.84614 0.0
C212 C 0.05458 0.26841 0.85637 0.0
C213 C 0.0322 0.28911 0.86669 0.0
N214 N 0.02326 0.28299 0.82508 0.0
N215 N 0.04851 0.26576 0.83109 0.0
C216 C 0.98573 0.32105 0.84634 0.0
H217 H 0.96318 0.30742 0.84479 0.0
H218 H 0.98545 0.33584 0.86396 0.0
H219 H 0.98717 0.33719 0.82961 0.0
C220 C 0.91454 0.23535 0.79368 0.0
N221 N 0.93865 0.25341 0.78463 0.0
N222 N 0.96127 0.2551 0.80204 0.0
C223 C 0.9524 0.23755 0.82256 0.0
C224 C 0.92238 0.22497 0.81814 0.0
C225 C 0.88441 0.22878 0.77931 0.0
H226 H 0.8902 0.2186 0.76026 0.0
H227 H 0.87151 0.25149 0.77629 0.0
H228 H 0.86847 0.21228 0.78982 0.0
O229 O 0.98635 0.25607 0.73714 0.0
O230 O 0.02388 0.25778 0.76711 0.0
H231 H 0.99843 0.22723 0.83842 0.0
H232 H 0.96598 0.20708 0.85413 0.0
C233 C 0.97343 0.22967 0.84483 0.0
H234 H 0.97172 0.24888 0.85928 0.0
H235 H 0.06017 0.25049 0.81839 0.0
O236 O 0.91244 0.26368 0.72791 0.0
C237 C 0.01482 0.25069 0.74449 0.0
Co238 Co 0.73606 0.94415 0.99587 0.0
Co239 Co 0.73056 0.9934 0.04033 0.0
C240 C 0.67276 0.96638 0.01351 0.0
O241 O 0.68954 0.94935 0.9986 0.0
O242 O 0.68557 0.98422 0.03032 0.0
C243 C 0.72686 0.88558 0.96849 0.0
O244 O 0.70397 0.88035 0.98514 0.0
C245 C 0.71402 0.00689 0.09311 0.0
C246 C 0.74285 0.04941 0.10211 0.0
C247 C 0.72305 0.02674 0.11307 0.0
N248 N 0.72865 0.01668 0.07162 0.0
N249 N 0.74533 0.04253 0.07695 0.0
C250 C 0.69207 0.97877 0.09426 0.0
H251 H 0.67674 0.97822 0.07707 0.0
H252 H 0.70617 0.95645 0.09445 0.0
H253 H 0.67662 0.97966 0.1115 0.0
C254 C 0.77252 0.90839 0.03579 0.0
N255 N 0.7551 0.93354 0.02781 0.0
N256 N 0.75416 0.95505 0.04615 0.0
C257 C 0.77162 0.9445 0.06616 0.0
C258 C 0.78328 0.91442 0.0605 0.0
C259 C 0.77835 0.87913 0.02011 0.0
H260 H 0.7893 0.88592 0.00154 0.0
H261 H 0.75525 0.86742 0.01602 0.0
H262 H 0.79395 0.86186 0.03014 0.0
O263 O 0.75529 0.98379 0.98205 0.0
O264 O 0.75183 0.01951 0.01333 0.0
H265 H 0.78273 0.98951 0.08365 0.0
H266 H 0.80369 0.95609 0.09716 0.0
C267 C 0.78062 0.9641 0.08903 0.0
H268 H 0.76226 0.96141 0.10411 0.0
H269 H 0.75964 0.05451 0.06374 0.0
O270 O 0.74364 0.91066 0.97025 0.0
C271 C 0.76016 0.01179 0.99064 0.0
H272 H 0.07153 0.63382 0.22941 0.0
H273 H 0.07182 0.5762 0.22323 0.0
H274 H 0.00572 0.56528 0.28595 0.0
H275 H 0.00471 0.623 0.29191 0.0
H276 H 0.08894 0.52762 0.25149 0.0
H277 H 0.95582 0.50384 0.27406 0.0
H278 H 0.90418 0.53168 0.27124 0.0
H279 H 0.94032 0.59027 0.21036 0.0
H280 H 0.992 0.5625 0.21259 0.0
H281 H 0.06486 0.36301 0.27047 0.0
H282 H 0.06555 0.42085 0.27442 0.0
H283 H 0.00899 0.42904 0.20569 0.0
H284 H 0.00732 0.37098 0.20205 0.0
H285 H 0.98757 0.46866 0.2398 0.0
H286 H 0.09071 0.44469 0.20629 0.0
H287 H 0.14279 0.41763 0.20434 0.0
H288 H 0.16754 0.45594 0.27799 0.0
H289 H 0.11542 0.4829 0.28054 0.0
C290 C 0.05708 0.6192 0.24195 0.0
C291 C 0.03787 0.63309 0.26102 0.0
C292 C 0.05735 0.58622 0.23842 0.0
C293 C 0.03847 0.56642 0.25387 0.0
C294 C 0.02 0.58012 0.27344 0.0
C295 C 0.01954 0.61314 0.27689 0.0
C296 C 0.03786 0.53149 0.2493 0.0
C297 C 0.06678 0.51473 0.24896 0.0
C298 C 0.00901 0.51472 0.24541 0.0
C299 C 0.97787 0.53129 0.24369 0.0
C300 C 0.95269 0.52258 0.26001 0.0
C301 C 0.92343 0.53836 0.25852 0.0
C302 C 0.91901 0.5628 0.24069 0.0
C303 C 0.94381 0.57142 0.22423 0.0
C304 C 0.9731 0.55569 0.22562 0.0
C305 C 0.05261 0.37707 0.25613 0.0
C306 C 0.03612 0.36233 0.23587 0.0
C307 C 0.05315 0.4102 0.25836 0.0
C308 C 0.03775 0.42939 0.24014 0.0
C309 C 0.0211 0.41475 0.21997 0.0
C310 C 0.02023 0.38155 0.21788 0.0
C311 C 0.03864 0.46467 0.24237 0.0
C312 C 0.00976 0.48152 0.24232 0.0
C313 C 0.0676 0.48162 0.24523 0.0
C314 C 0.09905 0.46559 0.2437 0.0
C315 C 0.10718 0.44717 0.22215 0.0
C316 C 0.13672 0.43187 0.22093 0.0
C317 C 0.15843 0.435 0.24106 0.0
C318 C 0.15069 0.45351 0.26242 0.0
C319 C 0.12116 0.46883 0.26376 0.0
H320 H 0.18128 0.42313 0.24007 0.0
H321 H 0.89634 0.575 0.23959 0.0
H322 H 0.62172 0.00213 0.45274 0.0
H323 H 0.56364 0.00155 0.45633 0.0
H324 H 0.56876 0.06842 0.51897 0.0
H325 H 0.62662 0.06971 0.51518 0.0
H326 H 0.52494 0.98368 0.49331 0.0
H327 H 0.50487 0.11696 0.51855 0.0
H328 H 0.52933 0.16919 0.50949 0.0
H329 H 0.56871 0.13261 0.43946 0.0
H330 H 0.54414 0.08032 0.44792 0.0
H331 H 0.36966 0.00407 0.54398 0.0
H332 H 0.42725 0.00484 0.53704 0.0
H333 H 0.4139 0.06029 0.46823 0.0
H334 H 0.35651 0.06048 0.47544 0.0
H335 H 0.46145 0.08335 0.49344 0.0
H336 H 0.43079 0.97895 0.46656 0.0
H337 H 0.40547 0.92619 0.47056 0.0
H338 H 0.46601 0.90401 0.53443 0.0
H339 H 0.4914 0.95683 0.53103 0.0
C340 C 0.61049 0.01681 0.46723 0.0
C341 C 0.62885 0.03608 0.48359 0.0
C342 C 0.57728 0.01637 0.4693 0.0
C343 C 0.5618 0.03518 0.48774 0.0
C344 C 0.58011 0.05415 0.50428 0.0
C345 C 0.61325 0.05477 0.50213 0.0
C346 C 0.52654 0.03479 0.48991 0.0
C347 C 0.51105 0.00547 0.49331 0.0
C348 C 0.50831 0.06315 0.48942 0.0
C349 C 0.52291 0.09464 0.48402 0.0
C350 C 0.51865 0.1201 0.50117 0.0
C351 C 0.53255 0.14971 0.49614 0.0
C352 C 0.55065 0.15418 0.47395 0.0
C353 C 0.55479 0.12909 0.45669 0.0
C354 C 0.54092 0.09945 0.46161 0.0
C355 C 0.37898 0.01642 0.52736 0.0
C356 C 0.35845 0.03213 0.51023 0.0
C357 C 0.41192 0.01672 0.52335 0.0
C358 C 0.42492 0.03226 0.50191 0.0
C359 C 0.40447 0.04815 0.48491 0.0
C360 C 0.37161 0.04816 0.48905 0.0
C361 C 0.45984 0.03226 0.49723 0.0
C362 C 0.4753 0.06154 0.49342 0.0
C363 C 0.47791 0.00379 0.49664 0.0
C364 C 0.46279 0.97195 0.49868 0.0
C365 C 0.43855 0.96291 0.48157 0.0
C366 C 0.42421 0.93298 0.48371 0.0
C367 C 0.43407 0.91179 0.50277 0.0
C368 C 0.45836 0.92046 0.51969 0.0
C369 C 0.47276 0.95037 0.51765 0.0
H370 H 0.42294 0.88863 0.5044 0.0
H371 H 0.56141 0.17712 0.47011 0.0
H372 H 0.91681 0.63786 0.73968 0.0
H373 H 0.91601 0.5802 0.74584 0.0
H374 H 0.01755 0.57665 0.73281 0.0
H375 H 0.01792 0.63406 0.72488 0.0
H376 H 0.99417 0.5285 0.71189 0.0
H377 H 0.98 0.5732 0.79542 0.0
H378 H 0.95541 0.60716 0.82853 0.0
H379 H 0.86656 0.5579 0.81918 0.0
H380 H 0.89052 0.5239 0.78576 0.0
H381 H 0.01659 0.37885 0.77728 0.0
H382 H 0.01565 0.43663 0.77048 0.0
H383 H 0.91707 0.43121 0.74786 0.0
H384 H 0.91799 0.3733 0.75388 0.0
H385 H 0.93906 0.48265 0.78754 0.0
H386 H 0.95733 0.4384 0.70234 0.0
H387 H 0.98607 0.40406 0.67175 0.0
H388 H 0.07337 0.45301 0.68861 0.0
H389 H 0.04519 0.48733 0.71962 0.0
C390 C 0.93891 0.62468 0.73802 0.0
C391 C 0.96747 0.64037 0.73196 0.0
C392 C 0.93851 0.59175 0.74176 0.0
C393 C 0.96687 0.57401 0.74051 0.0
C394 C 0.99534 0.58969 0.73398 0.0
C395 C 0.99557 0.62251 0.72949 0.0
C396 C 0.96691 0.53918 0.74592 0.0
C397 C 0.98242 0.51869 0.72864 0.0
C398 C 0.95139 0.52601 0.76765 0.0
C399 C 0.93698 0.54621 0.78792 0.0
C400 C 0.95517 0.56974 0.80032 0.0
C401 C 0.94135 0.58898 0.81915 0.0
C402 C 0.90942 0.58475 0.82591 0.0
C403 C 0.89128 0.56118 0.8139 0.0
C404 C 0.90497 0.5419 0.79503 0.0
C405 C 0.99467 0.38998 0.77099 0.0
C406 C 0.9674 0.37157 0.76599 0.0
C407 C 0.99421 0.42291 0.76709 0.0
C408 C 0.96632 0.43798 0.75865 0.0
C409 C 0.93879 0.41987 0.7544 0.0
C410 C 0.93941 0.38686 0.75774 0.0
C411 C 0.96618 0.47257 0.75354 0.0
C412 C 0.95074 0.49281 0.77088 0.0
C413 C 0.98236 0.4856 0.73227 0.0
C414 C 0.99923 0.46516 0.7135 0.0
C415 C 0.98271 0.44162 0.69971 0.0
C416 C 0.99888 0.42221 0.68225 0.0
C417 C 0.03154 0.42628 0.67829 0.0
C418 C 0.04808 0.44984 0.69173 0.0
C419 C 0.03202 0.46929 0.70923 0.0
H420 H 0.04402 0.41123 0.66477 0.0
H421 H 0.89876 0.59969 0.84048 0.0
H422 H 0.36553 0.94215 0.02487 0.0
H423 H 0.42351 0.9411 0.03052 0.0
H424 H 0.43574 0.98538 0.95667 0.0
H425 H 0.37788 0.98756 0.95115 0.0
H426 H 0.47463 0.92123 0.97432 0.0
H427 H 0.44793 0.0335 0.99254 0.0
H428 H 0.41686 0.07417 0.01578 0.0
H429 H 0.44839 0.03556 0.08765 0.0
H430 H 0.47926 0.99435 0.06478 0.0
H431 H 0.63804 0.95799 0.97003 0.0
H432 H 0.58016 0.95713 0.96575 0.0
H433 H 0.57059 0.96978 0.04756 0.0
H434 H 0.62851 0.97301 0.05152 0.0
H435 H 0.52859 0.00287 0.0276 0.0
H436 H 0.55826 0.89489 0.0138 0.0
H437 H 0.58749 0.84977 0.99476 0.0
H438 H 0.54909 0.87245 0.92071 0.0
H439 H 0.51997 0.91799 0.93924 0.0
C440 C 0.38055 0.95165 0.00981 0.0
C441 C 0.3671 0.96499 0.98756 0.0
C442 C 0.4136 0.95101 0.01309 0.0
C443 C 0.4337 0.96312 0.99398 0.0
C444 C 0.42047 0.97589 0.97157 0.0
C445 C 0.38744 0.9772 0.96851 0.0
C446 C 0.46858 0.96302 0.99758 0.0
C447 C 0.48665 0.93919 0.98571 0.0
C448 C 0.4838 0.98571 0.01331 0.0
C449 C 0.46555 0.01066 0.02698 0.0
C450 C 0.44796 0.0335 0.0133 0.0
C451 C 0.43046 0.05669 0.02639 0.0
C452 C 0.43057 0.05739 0.05317 0.0
C453 C 0.44827 0.03496 0.06691 0.0
C454 C 0.46579 0.0117 0.05389 0.0
C455 C 0.62353 0.96059 0.98708 0.0
C456 C 0.63773 0.96547 0.01112 0.0
C457 C 0.5904 0.95981 0.98467 0.0
C458 C 0.57076 0.96259 0.00641 0.0
C459 C 0.58505 0.96753 0.03046 0.0
C460 C 0.61819 0.96931 0.03274 0.0
C461 C 0.5354 0.96116 0.00398 0.0
C462 C 0.51699 0.98467 0.01619 0.0
C463 C 0.51981 0.93752 0.98911 0.0
C464 C 0.53715 0.91004 0.97789 0.0
C465 C 0.55621 0.89039 0.99343 0.0
C466 C 0.57274 0.86472 0.98273 0.0
C467 C 0.57021 0.8583 0.95653 0.0
C468 C 0.55106 0.87748 0.94099 0.0
C469 C 0.53451 0.9032 0.95159 0.0
H470 H 0.58304 0.83842 0.94828 0.0
H471 H 0.417 0.07536 0.06328 0.0
H472 H 0.29245 0.17621 0.46883 0.0
H473 H 0.28085 0.21465 0.43448 0.0
H474 H 0.22273 0.14439 0.39643 0.0
H475 H 0.23368 0.10634 0.43051 0.0
H476 H 0.26619 0.17824 0.36353 0.0
H477 H 0.18755 0.19623 0.43248 0.0
H478 H 0.17347 0.2112 0.47679 0.0
H479 H 0.22071 0.30113 0.46722 0.0
H480 H 0.23543 0.28644 0.42293 0.0
H481 H 0.134 0.21677 0.29365 0.0
H482 H 0.17514 0.2008 0.32376 0.0
H483 H 0.19912 0.29933 0.33714 0.0
H484 H 0.15744 0.3157 0.30685 0.0
H485 H 0.19078 0.26641 0.38168 0.0
H486 H 0.25327 0.25372 0.30763 0.0
H487 H 0.26633 0.23867 0.26319 0.0
H488 H 0.25129 0.14012 0.28147 0.0
H489 H 0.23765 0.15455 0.32592 0.0
C490 C 0.27732 0.16902 0.45305 0.0
C491 C 0.2638 0.13838 0.45238 0.0
C492 C 0.27081 0.19092 0.4335 0.0
C493 C 0.25112 0.18217 0.41296 0.0
C494 C 0.2382 0.15143 0.41207 0.0
C495 C 0.24426 0.12982 0.43166 0.0
C496 C 0.24202 0.20504 0.3928 0.0
C497 C 0.24997 0.19778 0.36737 0.0
C498 C 0.22198 0.23127 0.39807 0.0
C499 C 0.21296 0.24008 0.42458 0.0
C500 C 0.19516 0.21907 0.43992 0.0
C501 C 0.18702 0.22752 0.465 0.0
C502 C 0.19629 0.25705 0.47485 0.0
C503 C 0.21362 0.27823 0.45959 0.0
C504 C 0.22187 0.26986 0.43451 0.0
C505 C 0.14814 0.23512 0.30279 0.0
C506 C 0.14236 0.26751 0.29799 0.0
C507 C 0.17189 0.22593 0.31983 0.0
C508 C 0.1905 0.24888 0.33239 0.0
C509 C 0.18516 0.28128 0.32745 0.0
C510 C 0.16139 0.29055 0.31018 0.0
C511 C 0.21338 0.23836 0.3522 0.0
C512 C 0.2081 0.2479 0.37763 0.0
C513 C 0.23603 0.21429 0.3469 0.0
C514 C 0.24441 0.20528 0.32018 0.0
C515 C 0.25258 0.22884 0.30216 0.0
C516 C 0.2601 0.22041 0.27696 0.0
C517 C 0.25965 0.18846 0.26951 0.0
C518 C 0.25169 0.16486 0.28728 0.0
C519 C 0.24414 0.17316 0.31251 0.0
H520 H 0.26546 0.18198 0.24999 0.0
H521 H 0.18995 0.26355 0.49427 0.0
H522 H 0.76822 0.1435 0.5362 0.0
H523 H 0.78895 0.17922 0.56896 0.0
H524 H 0.7052 0.1635 0.61509 0.0
H525 H 0.684 0.12747 0.58222 0.0
H526 H 0.73324 0.23018 0.61511 0.0
H527 H 0.75979 0.11967 0.63035 0.0
H528 H 0.7787 0.06658 0.61702 0.0
H529 H 0.86885 0.10656 0.59522 0.0
H530 H 0.85027 0.15999 0.60804 0.0
H531 H 0.82048 0.27636 0.72957 0.0
H532 H 0.78384 0.25303 0.69804 0.0
H533 H 0.86323 0.23421 0.64761 0.0
H534 H 0.8997 0.25607 0.67933 0.0
H535 H 0.8304 0.18302 0.65374 0.0
H536 H 0.80476 0.29332 0.63616 0.0
H537 H 0.78646 0.34745 0.64711 0.0
H538 H 0.69638 0.3099 0.67173 0.0
H539 H 0.71432 0.25547 0.66122 0.0
C540 C 0.75388 0.14798 0.55308 0.0
C541 C 0.72475 0.13218 0.55688 0.0
C542 C 0.76569 0.16855 0.57169 0.0
C543 C 0.74868 0.17362 0.59444 0.0
C544 C 0.71855 0.15981 0.59757 0.0
C545 C 0.70662 0.13913 0.57887 0.0
C546 C 0.76464 0.18968 0.61602 0.0
C547 C 0.75421 0.21983 0.62394 0.0
C548 C 0.79208 0.17608 0.6272 0.0
C549 C 0.80354 0.14385 0.61999 0.0
C550 C 0.78357 0.11716 0.62256 0.0
C551 C 0.79423 0.08701 0.61511 0.0
C552 C 0.82494 0.0832 0.60524 0.0
C553 C 0.84507 0.10954 0.60286 0.0
C554 C 0.83449 0.13975 0.61024 0.0
C555 C 0.82988 0.26763 0.71156 0.0
C556 C 0.86283 0.26765 0.70688 0.0
C557 C 0.80898 0.25443 0.69355 0.0
C558 C 0.82081 0.24183 0.67047 0.0
C559 C 0.85359 0.24349 0.66538 0.0
C560 C 0.87441 0.256 0.68348 0.0
C561 C 0.79997 0.2244 0.65237 0.0
C562 C 0.80932 0.19357 0.64521 0.0
C563 C 0.77178 0.2376 0.64189 0.0
C564 C 0.76102 0.2703 0.64819 0.0
C565 C 0.78116 0.29658 0.64412 0.0
C566 C 0.77082 0.32732 0.6502 0.0
C567 C 0.74031 0.3321 0.66019 0.0
C568 C 0.72003 0.30615 0.66404 0.0
C569 C 0.73026 0.27536 0.65801 0.0
H570 H 0.73236 0.35591 0.66488 0.0
H571 H 0.83314 0.05984 0.59946 0.0
H572 H 0.7112 0.82223 0.96668 0.0
H573 H 0.72595 0.78379 0.93313 0.0
H574 H 0.77187 0.85894 0.89054 0.0
H575 H 0.75776 0.89708 0.92385 0.0
H576 H 0.73415 0.81654 0.85998 0.0
H577 H 0.81521 0.8156 0.92833 0.0
H578 H 0.8319 0.80683 0.97311 0.0
H579 H 0.79778 0.71052 0.96956 0.0
H580 H 0.78046 0.71893 0.92483 0.0
H581 H 0.86779 0.78471 0.78793 0.0
H582 H 0.82633 0.80015 0.81803 0.0
H583 H 0.81476 0.7021 0.841 0.0
H584 H 0.85674 0.68634 0.81088 0.0
H585 H 0.82066 0.74071 0.88179 0.0
H586 H 0.75479 0.7378 0.80904 0.0
H587 H 0.73842 0.74628 0.76419 0.0
H588 H 0.74191 0.84753 0.77526 0.0
H589 H 0.75879 0.83973 0.82007 0.0
C590 C 0.72415 0.8305 0.95 0.0
C591 C 0.7336 0.86253 0.94792 0.0
C592 C 0.73248 0.8086 0.93092 0.0
C593 C 0.74989 0.81866 0.90943 0.0
C594 C 0.75823 0.85082 0.90693 0.0
C595 C 0.7504 0.8725 0.92608 0.0
C596 C 0.76203 0.79582 0.89028 0.0
C597 C 0.75288 0.79971 0.86464 0.0
C598 C 0.78552 0.77306 0.89666 0.0
C599 C 0.79616 0.76801 0.92342 0.0
C600 C 0.81103 0.79265 0.93718 0.0
C601 C 0.82064 0.78774 0.96253 0.0
C602 C 0.8158 0.75817 0.9742 0.0
C603 C 0.80143 0.73343 0.96052 0.0
C604 C 0.79171 0.73826 0.93518 0.0
C605 C 0.8563 0.76633 0.79919 0.0
C606 C 0.86566 0.73433 0.79712 0.0
C607 C 0.83235 0.77516 0.81624 0.0
C608 C 0.81713 0.7522 0.83148 0.0
C609 C 0.82606 0.72013 0.82925 0.0
C610 C 0.85003 0.71121 0.81206 0.0
C611 C 0.79401 0.76264 0.85118 0.0
C612 C 0.80107 0.75647 0.877 0.0
C613 C 0.76841 0.78315 0.84493 0.0
C614 C 0.75814 0.78814 0.81797 0.0
C615 C 0.75226 0.76189 0.80189 0.0
C616 C 0.74286 0.76658 0.77646 0.0
C617 C 0.73914 0.79742 0.76688 0.0
C618 C 0.74477 0.82365 0.78272 0.0
C619 C 0.75419 0.8191 0.80816 0.0
H620 H 0.73187 0.801 0.74719 0.0
H621 H 0.82327 0.75441 0.99382 0.0
H622 H 0.21831 0.87568 0.04695 0.0
H623 H 0.20409 0.83987 0.08178 0.0
H624 H 0.29858 0.79971 0.08082 0.0
H625 H 0.31336 0.83587 0.0457 0.0
H626 H 0.23698 0.75513 0.08837 0.0
H627 H 0.29765 0.8409 0.1244 0.0
H628 H 0.31451 0.89708 0.1264 0.0
H629 H 0.21876 0.9254 0.14422 0.0
H630 H 0.20123 0.86932 0.142 0.0
H631 H 0.17394 0.69907 0.20976 0.0
H632 H 0.21376 0.71808 0.17887 0.0
H633 H 0.15495 0.79989 0.16257 0.0
H634 H 0.11564 0.78154 0.19337 0.0
H635 H 0.21648 0.81656 0.16801 0.0
H636 H 0.1554 0.73258 0.12402 0.0
H637 H 0.13714 0.67706 0.11909 0.0
H638 H 0.23421 0.64508 0.11565 0.0
H639 H 0.253 0.70042 0.12084 0.0
C640 C 0.23606 0.85902 0.05383 0.0
C641 C 0.26713 0.85895 0.04385 0.0
C642 C 0.22781 0.83846 0.07364 0.0
C643 C 0.25039 0.81742 0.08383 0.0
C644 C 0.2809 0.81581 0.07303 0.0
C645 C 0.28928 0.83655 0.05312 0.0
C646 C 0.24235 0.80018 0.10755 0.0
C647 C 0.23339 0.76811 0.10612 0.0
C648 C 0.23767 0.81734 0.13051 0.0
C649 C 0.24815 0.85094 0.13297 0.0
C650 C 0.28018 0.85912 0.12869 0.0
C651 C 0.28985 0.89092 0.12986 0.0
C652 C 0.26772 0.91477 0.13541 0.0
C653 C 0.23587 0.90686 0.13995 0.0
C654 C 0.22607 0.87505 0.13881 0.0
C655 C 0.16964 0.72118 0.19965 0.0
C656 C 0.14158 0.73873 0.20391 0.0
C657 C 0.19237 0.73195 0.18202 0.0
C658 C 0.18722 0.76032 0.1684 0.0
C659 C 0.15948 0.77802 0.17299 0.0
C660 C 0.13691 0.76738 0.19053 0.0
C661 C 0.20976 0.7717 0.14864 0.0
C662 C 0.22132 0.80294 0.15077 0.0
C663 C 0.21695 0.75362 0.12646 0.0
C664 C 0.20558 0.72051 0.12311 0.0
C665 C 0.17282 0.71366 0.12237 0.0
C666 C 0.16238 0.68225 0.11951 0.0
C667 C 0.1845 0.65754 0.11714 0.0
C668 C 0.2171 0.66422 0.11754 0.0
C669 C 0.22766 0.6956 0.12043 0.0
H670 H 0.17637 0.63324 0.11494 0.0
H671 H 0.27532 0.93935 0.1362 0.0
H672 H 0.02724 0.27122 0.11037 0.0
H673 H 0.03539 0.27678 0.06451 0.0
H674 H 0.93421 0.28803 0.05348 0.0
H675 H 0.92583 0.28291 0.09998 0.0
H676 H 0.96298 0.24583 0.01867 0.0
H677 H 0.97937 0.35214 0.04994 0.0
H678 H 0.00253 0.39287 0.07842 0.0
H679 H 0.09642 0.36823 0.05248 0.0
H680 H 0.07385 0.327 0.02411 0.0
H681 H 0.97393 0.29156 0.89057 0.0
H682 H 0.96305 0.29328 0.93606 0.0
H683 H 0.06385 0.29142 0.95198 0.0
H684 H 0.07512 0.29189 0.90581 0.0
H685 H 0.03351 0.33071 0.98443 0.0
H686 H 0.01908 0.2235 0.95521 0.0
H687 H 0.99774 0.18222 0.92634 0.0
H688 H 0.90238 0.20685 0.94846 0.0
H689 H 0.92316 0.24852 0.97736 0.0
C690 C 0.00671 0.27568 0.09841 0.0
C691 C 0.97595 0.27789 0.10891 0.0
C692 C 0.01143 0.27855 0.0721 0.0
C693 C 0.98548 0.28346 0.05571 0.0
C694 C 0.95456 0.28456 0.06593 0.0
C695 C 0.94982 0.28175 0.09239 0.0
C696 C 0.99101 0.28722 0.02788 0.0
C697 C 0.97791 0.2647 0.01109 0.0
C698 C 0.0113 0.3113 0.0182 0.0
C699 C 0.02492 0.33633 0.03503 0.0
C700 C 0.00497 0.35526 0.05043 0.0
C701 C 0.01799 0.37845 0.06654 0.0
C702 C 0.05093 0.3831 0.06729 0.0
C703 C 0.07091 0.3646 0.05188 0.0
C704 C 0.05802 0.34134 0.03576 0.0
C705 C 0.99396 0.29292 0.90349 0.0
C706 C 0.02552 0.29269 0.89441 0.0
C707 C 0.98761 0.29318 0.92967 0.0
C708 C 0.01259 0.29203 0.94742 0.0
C709 C 0.04419 0.29233 0.93856 0.0
C710 C 0.05059 0.29251 0.91224 0.0
C711 C 0.00554 0.28929 0.97516 0.0
C712 C 0.01841 0.31194 0.99195 0.0
C713 C 0.98528 0.26513 0.98488 0.0
C714 C 0.97268 0.23931 0.96828 0.0
C715 C 0.99356 0.22017 0.95388 0.0
C716 C 0.98157 0.19669 0.93753 0.0
C717 C 0.94874 0.19195 0.93555 0.0
C718 C 0.92781 0.21052 0.95006 0.0
C719 C 0.93969 0.23404 0.96647 0.0
H720 H 0.93957 0.17389 0.92275 0.0
H721 H 0.06097 0.40106 0.07978 0.0
H722 H 0.7154 0.07231 0.14971 0.0
H723 H 0.71087 0.0644 0.19622 0.0
H724 H 0.71679 0.96275 0.18548 0.0
H725 H 0.72241 0.97042 0.13952 0.0
H726 H 0.66897 0.98098 0.2203 0.0
H727 H 0.78034 1.00018 0.203 0.0
H728 H 0.8259 0.03052 0.18588 0.0
H729 H 0.80156 0.10989 0.23395 0.0
H730 H 0.75553 0.08016 0.25108 0.0
H731 H 0.70992 0.92992 0.34674 0.0
H732 H 0.70756 0.93924 0.30032 0.0
H733 H 0.71449 0.0405 0.31327 0.0
H734 H 0.71839 0.03131 0.35904 0.0
H735 H 0.75364 0.02354 0.27707 0.0
H736 H 0.64351 0.00481 0.29571 0.0
H737 H 0.59732 0.97547 0.31285 0.0
H738 H 0.61784 0.89696 0.26276 0.0
H739 H 0.66446 0.92567 0.24557 0.0
C740 C 0.71541 0.0483 0.15732 0.0
C741 C 0.71821 0.02198 0.14087 0.0
C742 C 0.71282 0.04382 0.1838 0.0
C743 C 0.71326 0.01296 0.19416 0.0
C744 C 0.71586 0.9867 0.17777 0.0
C745 C 0.71871 0.99116 0.15142 0.0
C746 C 0.71257 0.00787 0.22217 0.0
C747 C 0.68756 0.99004 0.23276 0.0
C748 C 0.73657 0.02023 0.23833 0.0
C749 C 0.76428 0.03809 0.22809 0.0
C750 C 0.78453 0.02421 0.20974 0.0
C751 C 0.81047 0.04127 0.20007 0.0
C752 C 0.81656 0.07215 0.20876 0.0
C753 C 0.79677 0.086 0.22719 0.0
C754 C 0.77076 0.06905 0.2369 0.0
C755 C 0.71062 0.95414 0.3396 0.0
C756 C 0.71325 0.9799 0.35662 0.0
C757 C 0.70912 0.95946 0.31315 0.0
C758 C 0.71028 0.99064 0.30337 0.0
C759 C 0.7132 0.01629 0.32038 0.0
C760 C 0.71489 0.01098 0.34668 0.0
C761 C 0.70989 0.9967 0.27541 0.0
C762 C 0.73483 0.01462 0.26475 0.0
C763 C 0.68569 0.98459 0.25925 0.0
C764 C 0.65767 0.96727 0.26954 0.0
C765 C 0.63834 0.98118 0.28851 0.0
C766 C 0.61205 0.96468 0.2982 0.0
C767 C 0.6047 0.93434 0.28895 0.0
C768 C 0.62359 0.92045 0.26994 0.0
C769 C 0.64994 0.93684 0.26019 0.0
H770 H 0.58433 0.92161 0.29648 0.0
H771 H 0.83667 0.08532 0.20126 0.0
H772 H 0.07737 0.70239 0.59602 0.0
H773 H 0.06882 0.69582 0.54959 0.0
H774 H 0.96883 0.71547 0.55977 0.0
H775 H 0.97707 0.72178 0.60569 0.0
H776 H 0.01966 0.65429 0.52026 0.0
H777 H 0.95542 0.77395 0.51409 0.0
H778 H 0.95337 0.82535 0.53699 0.0
H779 H 0.05124 0.8145 0.55922 0.0
H780 H 0.05397 0.76329 0.53616 0.0
H781 H 0.93525 0.68464 0.39959 0.0
H782 H 0.94691 0.68082 0.44583 0.0
H783 H 0.03673 0.72803 0.43359 0.0
H784 H 0.02569 0.73146 0.38797 0.0
H785 H 0.99353 0.75422 0.47388 0.0
H786 H 0.04523 0.65837 0.44323 0.0
H787 H 0.04667 0.60676 0.42074 0.0
H788 H 0.97529 0.56992 0.47171 0.0
H789 H 0.97307 0.62154 0.49426 0.0
C790 C 0.05353 0.70467 0.5883 0.0
C791 C 0.02781 0.71196 0.60448 0.0
C792 C 0.04866 0.7008 0.56193 0.0
C793 C 0.01817 0.70501 0.55145 0.0
C794 C 0.99246 0.71187 0.56761 0.0
C795 C 0.99723 0.71533 0.59387 0.0
C796 C 0.0133 0.70503 0.52344 0.0
C797 C 0.01403 0.67608 0.51006 0.0
C798 C 0.00586 0.73351 0.51029 0.0
C799 C 0.00478 0.76467 0.52362 0.0
C800 C 0.97653 0.78263 0.52377 0.0
C801 C 0.97524 0.81171 0.53679 0.0
C802 C 0.00213 0.82313 0.54962 0.0
C803 C 0.0304 0.80557 0.54936 0.0
C804 C 0.03181 0.7765 0.53635 0.0
C805 C 0.95755 0.69392 0.40686 0.0
C806 C 0.97978 0.70787 0.39016 0.0
C807 C 0.96419 0.69168 0.43313 0.0
C808 C 0.99277 0.70405 0.44293 0.0
C809 C 0.01468 0.71827 0.4263 0.0
C810 C 0.00837 0.71998 0.40017 0.0
C811 C 0.99966 0.70345 0.47065 0.0
C812 C 0.99915 0.73237 0.48403 0.0
C813 C 0.00733 0.67496 0.48369 0.0
C814 C 0.00871 0.64393 0.47022 0.0
C815 C 0.02959 0.63938 0.44947 0.0
C816 C 0.03061 0.6101 0.43675 0.0
C817 C 0.01101 0.5851 0.44473 0.0
C818 C 0.99042 0.58932 0.46551 0.0
C819 C 0.98928 0.61858 0.47827 0.0
H820 H 0.01184 0.56244 0.43487 0.0
H821 H 0.00107 0.84562 0.55972 0.0
H822 H 0.27657 0.02598 0.64069 0.0
H823 H 0.28247 0.03387 0.68652 0.0
H824 H 0.29142 0.93243 0.69738 0.0
H825 H 0.28586 0.92431 0.65093 0.0
H826 H 0.24963 0.95968 0.73108 0.0
H827 H 0.35629 0.97921 0.70284 0.0
H828 H 0.39808 0.00356 0.67603 0.0
H829 H 0.37108 0.09647 0.70267 0.0
H830 H 0.32879 0.07272 0.72936 0.0
H831 H 0.2883 0.97141 0.86078 0.0
H832 H 0.29174 0.96056 0.81544 0.0
H833 H 0.29037 0.06136 0.79946 0.0
H834 H 0.28967 0.07262 0.84561 0.0
H835 H 0.33066 0.03222 0.76832 0.0
H836 H 0.22257 0.01329 0.79496 0.0
H837 H 0.18044 0.9894 0.82173 0.0
H838 H 0.20936 0.89588 0.79794 0.0
H839 H 0.25197 0.9192 0.77128 0.0
C840 C 0.2808 0.00534 0.65258 0.0
C841 C 0.28193 0.97454 0.64205 0.0
C842 C 0.28389 0.00991 0.67889 0.0
C843 C 0.28803 0.98381 0.69529 0.0
C844 C 0.28857 0.95292 0.68498 0.0
C845 C 0.28548 0.94832 0.65852 0.0
C846 C 0.29055 0.98903 0.72328 0.0
C847 C 0.26768 0.97507 0.73932 0.0
C848 C 0.3136 0.00983 0.73384 0.0
C849 C 0.3392 0.02418 0.71796 0.0
C850 C 0.35911 0.00485 0.70284 0.0
C851 C 0.38291 0.01855 0.68769 0.0
C852 C 0.38719 0.05154 0.68761 0.0
C853 C 0.36773 0.07091 0.70274 0.0
C854 C 0.34386 0.05734 0.71791 0.0
C855 C 0.29018 0.99148 0.84794 0.0
C856 C 0.28997 0.02303 0.85704 0.0
C857 C 0.2913 0.98512 0.82178 0.0
C858 C 0.2908 0.01009 0.80399 0.0
C859 C 0.29077 0.04168 0.81288 0.0
C860 C 0.29027 0.04809 0.8392 0.0
C861 C 0.2896 0.00306 0.77616 0.0
C862 C 0.31269 0.0167 0.76013 0.0
C863 C 0.26665 0.98206 0.7656 0.0
C864 C 0.24064 0.968 0.78126 0.0
C865 C 0.22005 0.98763 0.79553 0.0
C866 C 0.19608 0.97418 0.81068 0.0
C867 C 0.19226 0.94115 0.81156 0.0
C868 C 0.21236 0.92147 0.79724 0.0
C869 C 0.2364 0.93479 0.78208 0.0
H870 H 0.17367 0.9308 0.82328 0.0
H871 H 0.40563 0.0621 0.67586 0.0
H872 H 0.13447 0.23132 0.15671 0.0
H873 H 0.16314 0.19719 0.1261 0.0
H874 H 0.10437 0.11747 0.14821 0.0
H875 H 0.07578 0.15166 0.17874 0.0
H876 H 0.16814 0.10164 0.14389 0.0
H877 H 0.08826 0.15688 0.09486 0.0
H878 H 0.06024 0.20458 0.07897 0.0
H879 H 0.14652 0.23779 0.04378 0.0
H880 H 0.17523 0.19058 0.05989 0.0
H881 H 0.20127 0.99452 0.04382 0.0
H882 H 0.17512 0.03003 0.07422 0.0
H883 H 0.22332 0.11051 0.04037 0.0
H884 H 0.24832 0.07507 0.00893 0.0
H885 H 0.16643 0.12761 0.05113 0.0
H886 H 0.24682 0.07343 0.10006 0.0
H887 H 0.27637 0.02795 0.11826 0.0
H888 H 0.19107 0.99431 0.15471 0.0
H889 H 0.16093 0.03939 0.13652 0.0
C890 C 0.12803 0.20641 0.15512 0.0
C891 C 0.10306 0.19391 0.16986 0.0
C892 C 0.14421 0.18703 0.1376 0.0
C893 C 0.13563 0.15488 0.13468 0.0
C894 C 0.11132 0.1422 0.15011 0.0
C895 C 0.09504 0.16164 0.16749 0.0
C896 C 0.15155 0.1345 0.11526 0.0
C897 C 0.16752 0.10708 0.12356 0.0
C898 C 0.15138 0.14215 0.08883 0.0
C899 C 0.13399 0.17032 0.07881 0.0
C900 C 0.10133 0.17447 0.0839 0.0
C901 C 0.08531 0.20141 0.07484 0.0
C902 C 0.1016 0.22423 0.06042 0.0
C903 C 0.13394 0.22011 0.05498 0.0
C904 C 0.1501 0.19326 0.06407 0.0
C905 C 0.20628 0.0198 0.0428 0.0
C906 C 0.22705 0.03196 0.02406 0.0
C907 C 0.19146 0.04011 0.06036 0.0
C908 C 0.19781 0.07297 0.06015 0.0
C909 C 0.2181 0.08526 0.04109 0.0
C910 C 0.23242 0.06499 0.02312 0.0
C911 C 0.18314 0.09442 0.07969 0.0
C912 C 0.1673 0.12211 0.07143 0.0
C913 C 0.1836 0.08715 0.10625 0.0
C914 C 0.20158 0.05967 0.11677 0.0
C915 C 0.23431 0.05619 0.11178 0.0
C916 C 0.25117 0.03051 0.12213 0.0
C917 C 0.23559 0.00829 0.13763 0.0
C918 C 0.2031 0.01157 0.14271 0.0
C919 C 0.18613 0.03719 0.13241 0.0
H920 H 0.24872 0.98863 0.14583 0.0
H921 H 0.08916 0.24506 0.05341 0.0
H922 H 0.93052 0.22116 0.25065 0.0
H923 H 0.89335 0.19693 0.28099 0.0
H924 H 0.96446 0.20231 0.34049 0.0
H925 H 0.00197 0.22588 0.31021 0.0
H926 H 0.93601 0.14651 0.3421 0.0
H927 H 0.90103 0.25489 0.3379 0.0
H928 H 0.8834 0.30444 0.31687 0.0
H929 H 0.80211 0.25584 0.28586 0.0
H930 H 0.8195 0.20586 0.30643 0.0
H931 H 0.83116 0.1164 0.44679 0.0
H932 H 0.86751 0.14471 0.41773 0.0
H933 H 0.80261 0.12865 0.35497 0.0
H934 H 0.76633 0.10039 0.38397 0.0
H935 H 0.82777 0.19078 0.35592 0.0
H936 H 0.86402 0.08216 0.36023 0.0
H937 H 0.88172 0.03332 0.38224 0.0
H938 H 0.96125 0.08381 0.41426 0.0
H939 H 0.94369 0.13313 0.39276 0.0
C940 C 0.93828 0.21722 0.27019 0.0
C941 C 0.96926 0.22559 0.27796 0.0
C942 C 0.91692 0.20348 0.28757 0.0
C943 C 0.92593 0.19816 0.31316 0.0
C944 C 0.95692 0.2062 0.32088 0.0
C945 C 0.97833 0.21976 0.30351 0.0
C946 C 0.90322 0.18389 0.33183 0.0
C947 C 0.91254 0.15652 0.34537 0.0
C948 C 0.87232 0.19653 0.33583 0.0
C949 C 0.86174 0.22656 0.3235 0.0
C950 C 0.87952 0.25471 0.32643 0.0
C951 C 0.86955 0.28288 0.31463 0.0
C952 C 0.8417 0.28327 0.29998 0.0
C953 C 0.82371 0.25549 0.29718 0.0
C954 C 0.83359 0.22724 0.30893 0.0
C955 C 0.82454 0.11938 0.42687 0.0
C956 C 0.79604 0.10633 0.41753 0.0
C957 C 0.84533 0.13534 0.41029 0.0
C958 C 0.83782 0.1386 0.38416 0.0
C959 C 0.80884 0.12643 0.37504 0.0
C960 C 0.78824 0.11022 0.39155 0.0
C961 C 0.86067 0.15357 0.36611 0.0
C962 C 0.85134 0.18097 0.35268 0.0
C963 C 0.89162 0.1411 0.36232 0.0
C964 C 0.90234 0.11142 0.37511 0.0
C965 C 0.88512 0.08292 0.37214 0.0
C966 C 0.89516 0.05514 0.3845 0.0
C967 C 0.92255 0.05548 0.39969 0.0
C968 C 0.94001 0.0836 0.40251 0.0
C969 C 0.93003 0.11147 0.39024 0.0
H970 H 0.93029 0.03394 0.40924 0.0
H971 H 0.83402 0.3051 0.29086 0.0
H972 H 0.78972 0.94317 0.49681 0.0
H973 H 0.81628 0.90805 0.52749 0.0
H974 H 0.77236 0.95918 0.59002 0.0
H975 H 0.74737 0.99539 0.55947 0.0
H976 H 0.82818 0.94847 0.6031 0.0
H977 H 0.7476 0.88142 0.56845 0.0
H978 H 0.71623 0.85448 0.5349 0.0
H979 H 0.80001 0.80534 0.50911 0.0
H980 H 0.83198 0.8323 0.54231 0.0
H981 H 0.85768 0.78049 0.66706 0.0
H982 H 0.82597 0.81587 0.63974 0.0
H983 H 0.90761 0.87729 0.63021 0.0
H984 H 0.93839 0.84323 0.65901 0.0
H985 H 0.82873 0.83105 0.59291 0.0
H986 H 0.88726 0.95269 0.61914 0.0
H987 H 0.91109 0.97905 0.65678 0.0
H988 H 0.8577 0.91801 0.70694 0.0
H989 H 0.83321 0.89159 0.66963 0.0
C990 C 0.78569 0.94681 0.51711 0.0
C991 C 0.76645 0.972 0.52573 0.0
C992 C 0.80073 0.92659 0.53467 0.0
C993 C 0.796 0.9305 0.56119 0.0
C994 C 0.77655 0.95559 0.56974 0.0
C995 C 0.76217 0.97626 0.55223 0.0
C996 C 0.81189 0.90907 0.58008 0.0
C997 C 0.82817 0.92279 0.60086 0.0
C998 C 0.81137 0.87545 0.57769 0.0
C999 C 0.79223 0.85911 0.55773 0.0
C1000 C 0.75938 0.86503 0.55552 0.0
C1001 C 0.74148 0.84973 0.53658 0.0
C1002 C 0.75613 0.82827 0.51984 0.0
C1003 C 0.7887 0.822 0.52206 0.0
C1004 C 0.80672 0.83726 0.54096 0.0
C1005 C 0.86859 0.80183 0.65937 0.0
C1006 C 0.90048 0.80907 0.66493 0.0
C1007 C 0.85059 0.82189 0.6436 0.0
C1008 C 0.86422 0.84948 0.63297 0.0
C1009 C 0.89623 0.85656 0.6385 0.0
C1010 C 0.91398 0.83685 0.65466 0.0
C1011 C 0.84526 0.87051 0.61574 0.0
C1012 C 0.82854 0.85673 0.59522 0.0
C1013 C 0.84423 0.90399 0.61898 0.0
C1014 C 0.85865 0.91996 0.64156 0.0
C1015 C 0.88051 0.94498 0.6382 0.0
C1016 C 0.89415 0.95992 0.65948 0.0
C1017 C 0.886 0.95014 0.68423 0.0
C1018 C 0.86409 0.92548 0.68776 0.0
C1019 C 0.85035 0.91049 0.66655 0.0
H1020 H 0.8966 0.96172 0.70068 0.0
H1021 H 0.74224 0.81645 0.50519 0.0
H1022 H 0.00433 0.77576 0.80418 0.0
H1023 H 0.04129 0.80236 0.83311 0.0
H1024 H 0.10914 0.81227 0.77152 0.0
H1025 H 0.07247 0.7849 0.74245 0.0
H1026 H 0.13875 0.79488 0.81392 0.0
H1027 H 0.06396 0.87601 0.79242 0.0
H1028 H 0.011 0.90035 0.78667 0.0
H1029 H 0.99198 0.88971 0.86708 0.0
H1030 H 0.04468 0.86487 0.87327 0.0
H1031 H 0.23428 0.90959 0.87977 0.0
H1032 H 0.19958 0.88244 0.84899 0.0
H1033 H 0.1318 0.86351 0.90926 0.0
H1034 H 0.16645 0.89095 0.94007 0.0
H1035 H 0.10322 0.8871 0.86607 0.0
H1036 H 0.17886 0.80423 0.88635 0.0
H1037 H 0.23273 0.78154 0.89104 0.0
H1038 H 0.25111 0.79826 0.81119 0.0
H1039 H 0.19746 0.82144 0.8061 0.0
C1040 C 0.02709 0.78357 0.7967 0.0
C1041 C 0.03532 0.77829 0.77089 0.0
C1042 C 0.04818 0.79896 0.81329 0.0
C1043 C 0.07783 0.80985 0.80443 0.0
C1044 C 0.08636 0.8042 0.77879 0.0
C1045 C 0.06533 0.78858 0.76218 0.0
C1046 C 0.0999 0.82686 0.82207 0.0
C1047 C 0.13109 0.81534 0.82502 0.0
C1048 C 0.08987 0.85332 0.83688 0.0
C1049 C 0.05816 0.8683 0.83326 0.0
C1050 C 0.04839 0.87863 0.80885 0.0
C1051 C 0.01843 0.89255 0.80551 0.0
C1052 C 0.9981 0.8965 0.82649 0.0
C1053 C 0.00773 0.8866 0.85085 0.0
C1054 C 0.03766 0.87262 0.85429 0.0
C1055 C 0.21203 0.89947 0.88641 0.0
C1056 C 0.20309 0.90203 0.91228 0.0
C1057 C 0.19228 0.88392 0.86886 0.0
C1058 C 0.16317 0.87077 0.87684 0.0
C1059 C 0.15419 0.87341 0.9027 0.0
C1060 C 0.17406 0.8888 0.92031 0.0
C1061 C 0.1418 0.85481 0.85813 0.0
C1062 C 0.11081 0.86665 0.85492 0.0
C1063 C 0.1521 0.82888 0.84291 0.0
C1064 C 0.18425 0.81477 0.8459 0.0
C1065 C 0.19447 0.80325 0.86983 0.0
C1066 C 0.22495 0.79028 0.87255 0.0
C1067 C 0.24535 0.78851 0.85144 0.0
C1068 C 0.23528 0.79966 0.82753 0.0
C1069 C 0.20483 0.81267 0.82471 0.0
H1070 H 0.26894 0.77847 0.85358 0.0
H1071 H 0.97492 0.90729 0.82387 0.0
H1072 H 0.12684 0.76657 0.34367 0.0
H1073 H 0.1545 0.80052 0.37496 0.0
H1074 H 0.0946 0.87965 0.35348 0.0
H1075 H 0.06699 0.84564 0.32226 0.0
H1076 H 0.15859 0.89582 0.35721 0.0
H1077 H 0.07976 0.83891 0.40709 0.0
H1078 H 0.0528 0.79167 0.42499 0.0
H1079 H 0.14039 0.76135 0.45974 0.0
H1080 H 0.16801 0.80806 0.44167 0.0
H1081 H 0.19086 0.00376 0.45631 0.0
H1082 H 0.16476 0.96753 0.42647 0.0
H1083 H 0.21443 0.88811 0.46057 0.0
H1084 H 0.2394 0.9243 0.49148 0.0
H1085 H 0.15768 0.87026 0.45005 0.0
H1086 H 0.2375 0.92406 0.40126 0.0
H1087 H 0.26702 0.97017 0.38415 0.0
H1088 H 0.18224 0.00387 0.34698 0.0
H1089 H 0.15209 0.95817 0.36415 0.0
C1090 C 0.11983 0.79128 0.34563 0.0
C1091 C 0.09487 0.80366 0.33081 0.0
C1092 C 0.13544 0.81055 0.36354 0.0
C1093 C 0.12634 0.8425 0.36675 0.0
C1094 C 0.10189 0.85504 0.35138 0.0
C1095 C 0.08614 0.83569 0.33364 0.0
C1096 C 0.14231 0.86298 0.38604 0.0
C1097 C 0.15812 0.89045 0.37755 0.0
C1098 C 0.14261 0.85533 0.41246 0.0
C1099 C 0.12604 0.82685 0.4228 0.0
C1100 C 0.09337 0.82198 0.41828 0.0
C1101 C 0.07794 0.79532 0.42852 0.0
C1102 C 0.09489 0.77354 0.44349 0.0
C1103 C 0.1273 0.77825 0.44814 0.0
C1104 C 0.14285 0.80479 0.4379 0.0
C1105 C 0.19615 0.97855 0.45752 0.0
C1106 C 0.21738 0.96689 0.4761 0.0
C1107 C 0.18137 0.95785 0.4403 0.0
C1108 C 0.18824 0.9251 0.4407 0.0
C1109 C 0.20885 0.91327 0.45971 0.0
C1110 C 0.22313 0.93395 0.47737 0.0
C1111 C 0.17389 0.90336 0.4213 0.0
C1112 C 0.15837 0.87562 0.42971 0.0
C1113 C 0.17435 0.91044 0.39472 0.0
C1114 C 0.19248 0.93782 0.38417 0.0
C1115 C 0.2251 0.9414 0.38956 0.0
C1116 C 0.24196 0.96745 0.37984 0.0
C1117 C 0.2265 0.98997 0.36454 0.0
C1118 C 0.19418 0.98642 0.35886 0.0
C1119 C 0.1772 0.96043 0.36855 0.0
H1120 H 0.23959 0.01013 0.35704 0.0
H1121 H 0.08294 0.75307 0.45162 0.0
H1122 H 0.15876 0.11226 0.55733 0.0
H1123 H 0.12663 0.14298 0.58782 0.0
H1124 H 0.19879 0.12958 0.64575 0.0
H1125 H 0.23059 0.09845 0.61535 0.0
H1126 H 0.14234 0.11909 0.66544 0.0
H1127 H 0.18821 0.20189 0.61428 0.0
H1128 H 0.20195 0.22962 0.57411 0.0
H1129 H 0.10266 0.24127 0.55683 0.0
H1130 H 0.08831 0.21316 0.59672 0.0
H1131 H 0.07622 0.2309 0.75349 0.0
H1132 H 0.11257 0.20486 0.72333 0.0
H1133 H 0.04098 0.21016 0.66423 0.0
H1134 H 0.00468 0.23634 0.69403 0.0
H1135 H 0.09924 0.22639 0.64589 0.0
H1136 H 0.0539 0.14135 0.69611 0.0
H1137 H 0.04034 0.11291 0.73601 0.0
H1138 H 0.13958 0.10571 0.75501 0.0
H1139 H 0.15371 0.13452 0.71537 0.0
C1140 C 0.16785 0.11631 0.57648 0.0
C1141 C 0.19722 0.1034 0.58399 0.0
C1142 C 0.14954 0.13384 0.59389 0.0
C1143 C 0.16048 0.13902 0.61903 0.0
C1144 C 0.18986 0.12599 0.62649 0.0
C1145 C 0.20802 0.1083 0.60914 0.0
C1146 C 0.1409 0.15718 0.63778 0.0
C1147 C 0.13338 0.14278 0.66131 0.0
C1148 C 0.12864 0.18785 0.63224 0.0
C1149 C 0.13719 0.20516 0.6084 0.0
C1150 C 0.1693 0.21018 0.60184 0.0
C1151 C 0.1772 0.22599 0.57912 0.0
C1152 C 0.1532 0.23713 0.56289 0.0
C1153 C 0.12123 0.23259 0.5694 0.0
C1154 C 0.1132 0.21675 0.59208 0.0
C1155 C 0.06823 0.22663 0.73406 0.0
C1156 C 0.03743 0.2356 0.72627 0.0
C1157 C 0.08901 0.21166 0.71686 0.0
C1158 C 0.07938 0.20531 0.69157 0.0
C1159 C 0.04893 0.21482 0.68363 0.0
C1160 C 0.02814 0.22968 0.70078 0.0
C1161 C 0.10068 0.18822 0.67345 0.0
C1162 C 0.10846 0.20281 0.65004 0.0
C1163 C 0.11328 0.15776 0.67911 0.0
C1164 C 0.10483 0.1404 0.70293 0.0
C1165 C 0.07281 0.13394 0.70891 0.0
C1166 C 0.06503 0.11771 0.73145 0.0
C1167 C 0.08908 0.1076 0.74807 0.0
C1168 C 0.12097 0.11361 0.74214 0.0
C1169 C 0.12888 0.12987 0.71963 0.0
H1170 H 0.08301 0.09502 0.76551 0.0
H1171 H 0.15937 0.24933 0.5453 0.0
H1172 H 0.8981 0.16572 0.80926 0.0
H1173 H 0.86873 0.13185 0.83935 0.0
H1174 H 0.87555 0.20517 0.89712 0.0
H1175 H 0.90556 0.23865 0.86714 0.0
H1176 H 0.88743 0.15085 0.91796 0.0
H1177 H 0.80458 0.18875 0.86327 0.0
H1178 H 0.77766 0.19971 0.82221 0.0
H1179 H 0.77487 0.0996 0.8056 0.0
H1180 H 0.80221 0.08806 0.8464 0.0
H1181 H 0.77603 0.07393 0.00158 0.0
H1182 H 0.80182 0.11256 0.97315 0.0
H1183 H 0.80571 0.04205 0.91313 0.0
H1184 H 0.77972 0.00356 0.94112 0.0
H1185 H 0.78583 0.09817 0.8947 0.0
H1186 H 0.87141 0.06139 0.94913 0.0
H1187 H 0.89913 0.05154 0.99004 0.0
H1188 H 0.89637 0.1515 0.00731 0.0
H1189 H 0.86805 0.16183 0.96673 0.0
C1190 C 0.89289 0.17466 0.82828 0.0
C1191 C 0.90353 0.20489 0.83583 0.0
C1192 C 0.8761 0.15537 0.84547 0.0
C1193 C 0.86928 0.16616 0.8704 0.0
C1194 C 0.88028 0.19634 0.87798 0.0
C1195 C 0.89732 0.21548 0.86086 0.0
C1196 C 0.85154 0.14563 0.8888 0.0
C1197 C 0.86496 0.13978 0.91299 0.0
C1198 C 0.82238 0.13073 0.88228 0.0
C1199 C 0.80569 0.13757 0.85781 0.0
C1200 C 0.79842 0.16909 0.85079 0.0
C1201 C 0.78306 0.1754 0.82756 0.0
C1202 C 0.77462 0.15038 0.81128 0.0
C1203 C 0.78145 0.11897 0.81822 0.0
C1204 C 0.79684 0.11252 0.8414 0.0
C1205 C 0.78236 0.06664 0.98233 0.0
C1206 C 0.77581 0.03556 0.9737 0.0
C1207 C 0.79722 0.08873 0.96613 0.0
C1208 C 0.80594 0.08014 0.94105 0.0
C1209 C 0.79918 0.04926 0.93237 0.0
C1210 C 0.78438 0.02721 0.94849 0.0
C1211 C 0.82203 0.10313 0.92367 0.0
C1212 C 0.80823 0.10947 0.89968 0.0
C1213 C 0.85075 0.11866 0.93044 0.0
C1214 C 0.8673 0.11233 0.95503 0.0
C1215 C 0.8764 0.08122 0.96178 0.0
C1216 C 0.89226 0.07555 0.9849 0.0
C1217 C 0.89941 0.10086 0.0013 0.0
C1218 C 0.89075 0.1319 0.99462 0.0
C1219 C 0.87479 0.13767 0.97157 0.0
H1220 H 0.91174 0.09643 0.01917 0.0
H1221 H 0.76274 0.15532 0.79331 0.0
H1222 H 0.99956 0.76924 0.19011 0.0
H1223 H 0.96367 0.79444 0.1596 0.0
H1224 H 0.88906 0.79537 0.21642 0.0
H1225 H 0.92483 0.76951 0.24719 0.0
H1226 H 0.86612 0.7781 0.17009 0.0
H1227 H 0.9305 0.8629 0.20261 0.0
H1228 H 0.98041 0.89039 0.21401 0.0
H1229 H 0.00972 0.88887 0.13516 0.0
H1230 H 0.96016 0.86094 0.12333 0.0
H1231 H 0.76908 0.89534 0.10877 0.0
H1232 H 0.80281 0.8652 0.13848 0.0
H1233 H 0.87578 0.8586 0.08047 0.0
H1234 H 0.84198 0.88895 0.05073 0.0
H1235 H 0.89904 0.87846 0.12741 0.0
H1236 H 0.83336 0.79421 0.09513 0.0
H1237 H 0.78283 0.76752 0.08432 0.0
H1238 H 0.7551 0.76923 0.16353 0.0
H1239 H 0.80529 0.79639 0.17477 0.0
C1240 C 0.97552 0.77472 0.19624 0.0
C1241 C 0.9652 0.76749 0.22125 0.0
C1242 C 0.95503 0.78927 0.17872 0.0
C1243 C 0.9238 0.79728 0.1858 0.0
C1244 C 0.9131 0.7895 0.21055 0.0
C1245 C 0.93362 0.7748 0.22814 0.0
C1246 C 0.90257 0.81402 0.16736 0.0
C1247 C 0.87312 0.80027 0.16103 0.0
C1248 C 0.91196 0.84265 0.15511 0.0
C1249 C 0.94174 0.85955 0.16213 0.0
C1250 C 0.9477 0.8682 0.18773 0.0
C1251 C 0.97591 0.8839 0.19426 0.0
C1252 C 0.99826 0.8913 0.17533 0.0
C1253 C 0.9924 0.88308 0.14981 0.0
C1254 C 0.96424 0.86734 0.14318 0.0
C1255 C 0.7922 0.88711 0.10234 0.0
C1256 C 0.80289 0.89408 0.07746 0.0
C1257 C 0.81139 0.86986 0.11925 0.0
C1258 C 0.84172 0.85941 0.11163 0.0
C1259 C 0.8524 0.86631 0.0867 0.0
C1260 C 0.83306 0.88338 0.06969 0.0
C1261 C 0.8627 0.84246 0.13006 0.0
C1262 C 0.89208 0.85625 0.13643 0.0
C1263 C 0.85315 0.81401 0.14244 0.0
C1264 C 0.82296 0.79762 0.13575 0.0
C1265 C 0.81637 0.78915 0.11022 0.0
C1266 C 0.78781 0.77389 0.10401 0.0
C1267 C 0.76573 0.76676 0.12321 0.0
C1268 C 0.77221 0.77481 0.14867 0.0
C1269 C 0.80072 0.79011 0.15497 0.0
H1270 H 0.74364 0.75493 0.11838 0.0
H1271 H 0.02009 0.90346 0.18043 0.0
loop_
_geom_bond_atom_site_label_1
_geom_bond_atom_site_label_2
_geom_bond_distance
_geom_bond_site_symmetry_2
_ccdc_geom_bond_type
Co0 O3 1.970 . S
Co0 N17 1.989 . S
Co0 O25 1.967 . S
Co0 O32 1.920 . S
Co1 O4 1.966 . S
Co1 N10 2.022 . S
Co1 N18 1.993 . S
Co1 O26 1.941 . S
C2 O3 1.258 . S
C2 O4 1.263 . S
O3 Co0 1.970 . S
O3 C2 1.258 . S
O4 Co1 1.966 . S
O4 C2 1.263 . S
C5 O6 1.235 . S
C5 O32 1.289 . S
O6 C5 1.235 . S
C7 C9 1.400 . S
C7 N10 1.351 . S
C7 C12 1.501 . S
C8 C9 1.387 . S
C8 N11 1.341 . S
C9 C7 1.400 . S
C9 C8 1.387 . S
N10 Co1 2.022 . S
N10 C7 1.351 . S
N10 N11 1.365 . S
N11 C8 1.341 . S
N11 N10 1.365 . S
N11 H31 0.862 . S
C12 C7 1.501 . S
C12 H13 0.961 . S
C12 H14 0.961 . S
C12 H15 0.960 . S
H13 C12 0.961 . S
H14 C12 0.961 . S
H15 C12 0.960 . S
C16 N17 1.342 . S
C16 C20 1.401 . S
C16 C21 1.499 . S
N17 Co0 1.989 . S
N17 C16 1.342 . S
N17 N18 1.388 . S
N18 Co1 1.993 . S
N18 N17 1.388 . S
N18 C19 1.346 . S
C19 N18 1.346 . S
C19 C20 1.396 . S
C19 C29 1.510 . S
C20 C16 1.401 . S
C20 C19 1.396 . S
C21 C16 1.499 . S
C21 H22 0.959 . S
C21 H23 0.960 . S
C21 H24 0.961 . S
H22 C21 0.959 . S
H23 C21 0.960 . S
H24 C21 0.961 . S
O25 Co0 1.967 . S
O25 C33 1.258 . S
O26 Co1 1.941 . S
O26 C33 1.266 . S
H27 C29 0.959 . S
H28 C29 0.961 . S
C29 C19 1.510 . S
C29 H27 0.959 . S
C29 H28 0.961 . S
C29 H30 0.960 . S
H30 C29 0.960 . S
H31 N11 0.862 . S
O32 Co0 1.920 . S
O32 C5 1.289 . S
C33 O25 1.258 . S
C33 O26 1.266 . S
Co34 O37 1.970 . S
Co34 N51 1.989 . S
Co34 O59 1.967 . S
Co34 O66 1.920 . S
Co35 O38 1.966 . S
Co35 N44 2.022 . S
Co35 N52 1.993 . S
Co35 O60 1.941 . S
C36 O37 1.258 . S
C36 O38 1.263 . S
O37 Co34 1.970 . S
O37 C36 1.258 . S
O38 Co35 1.966 . S
O38 C36 1.263 . S
C39 O40 1.235 . S
C39 O66 1.289 . S
O40 C39 1.235 . S
C41 C43 1.400 . S
C41 N44 1.351 . S
C41 C46 1.501 . S
C42 C43 1.387 . S
C42 N45 1.341 . S
C43 C41 1.400 . S
C43 C42 1.387 . S
N44 Co35 2.022 . S
N44 C41 1.351 . S
N44 N45 1.365 . S
N45 C42 1.341 . S
N45 N44 1.365 . S
N45 H65 0.862 . S
C46 C41 1.501 . S
C46 H47 0.961 . S
C46 H48 0.961 . S
C46 H49 0.960 . S
H47 C46 0.961 . S
H48 C46 0.961 . S
H49 C46 0.960 . S
C50 N51 1.342 . S
C50 C54 1.401 . S
C50 C55 1.499 . S
N51 Co34 1.989 . S
N51 C50 1.342 . S
N51 N52 1.388 . S
N52 Co35 1.993 . S
N52 N51 1.388 . S
N52 C53 1.346 . S
C53 N52 1.346 . S
C53 C54 1.396 . S
C53 C63 1.510 . S
C54 C50 1.401 . S
C54 C53 1.396 . S
C55 C50 1.499 . S
C55 H56 0.959 . S
C55 H57 0.960 . S
C55 H58 0.961 . S
H56 C55 0.959 . S
H57 C55 0.960 . S
H58 C55 0.961 . S
O59 Co34 1.967 . S
O59 C67 1.258 . S
O60 Co35 1.941 . S
O60 C67 1.266 . S
H61 C63 0.959 . S
H62 C63 0.961 . S
C63 C53 1.510 . S
C63 H61 0.959 . S
C63 H62 0.961 . S
C63 H64 0.960 . S
H64 C63 0.960 . S
H65 N45 0.862 . S
O66 Co34 1.920 . S
O66 C39 1.289 . S
C67 O59 1.258 . S
C67 O60 1.266 . S
Co68 O71 1.970 . S
Co68 N85 1.989 . S
Co68 O93 1.967 . S
Co68 O100 1.920 . S
Co69 O72 1.966 . S
Co69 N78 2.022 . S
Co69 N86 1.993 . S
Co69 O94 1.941 . S
C70 O71 1.258 . S
C70 O72 1.263 . S
O71 Co68 1.970 . S
O71 C70 1.258 . S
O72 Co69 1.966 . S
O72 C70 1.263 . S
C73 O74 1.235 . S
C73 O100 1.289 . S
O74 C73 1.235 . S
C75 C77 1.400 . S
C75 N78 1.351 . S
C75 C80 1.501 . S
C76 C77 1.387 . S
C76 N79 1.341 . S
C77 C75 1.400 . S
C77 C76 1.387 . S
N78 Co69 2.022 . S
N78 C75 1.351 . S
N78 N79 1.365 . S
N79 C76 1.341 . S
N79 N78 1.365 . S
N79 H99 0.862 . S
C80 C75 1.501 . S
C80 H81 0.961 . S
C80 H82 0.961 . S
C80 H83 0.960 . S
H81 C80 0.961 . S
H82 C80 0.961 . S
H83 C80 0.960 . S
C84 N85 1.342 . S
C84 C88 1.401 . S
C84 C89 1.499 . S
N85 Co68 1.989 . S
N85 C84 1.342 . S
N85 N86 1.388 . S
N86 Co69 1.993 . S
N86 N85 1.388 . S
N86 C87 1.346 . S
C87 N86 1.346 . S
C87 C88 1.396 . S
C87 C97 1.510 . S
C88 C84 1.401 . S
C88 C87 1.396 . S
C89 C84 1.499 . S
C89 H90 0.959 . S
C89 H91 0.960 . S
C89 H92 0.961 . S
H90 C89 0.959 . S
H91 C89 0.960 . S
H92 C89 0.961 . S
O93 Co68 1.967 . S
O93 C101 1.258 . S
O94 Co69 1.941 . S
O94 C101 1.266 . S
H95 C97 0.959 . S
H96 C97 0.961 . S
C97 C87 1.510 . S
C97 H95 0.959 . S
C97 H96 0.961 . S
C97 H98 0.960 . S
H98 C97 0.960 . S
H99 N79 0.862 . S
O100 Co68 1.920 . S
O100 C73 1.289 . S
C101 O93 1.258 . S
C101 O94 1.266 . S
Co102 O105 1.970 . S
Co102 N119 1.989 . S
Co102 O127 1.967 . S
Co102 O134 1.920 1_556 S
Co103 O106 1.966 . S
Co103 N112 2.022 . S
Co103 N120 1.993 . S
Co103 O128 1.941 . S
C104 O105 1.258 . S
C104 O106 1.263 . S
O105 Co102 1.970 . S
O105 C104 1.258 . S
O106 Co103 1.966 . S
O106 C104 1.263 . S
C107 O108 1.235 . S
C107 O134 1.289 . S
O108 C107 1.235 . S
C109 C111 1.400 . S
C109 N112 1.351 . S
C109 C114 1.501 . S
C110 C111 1.387 . S
C110 N113 1.341 . S
C111 C109 1.400 . S
C111 C110 1.387 . S
N112 Co103 2.022 . S
N112 C109 1.351 . S
N112 N113 1.365 . S
N113 C110 1.341 . S
N113 N112 1.365 . S
N113 H133 0.862 . S
C114 C109 1.501 . S
C114 H115 0.961 . S
C114 H116 0.961 . S
C114 H117 0.960 . S
H115 C114 0.961 . S
H116 C114 0.961 . S
H117 C114 0.960 . S
C118 N119 1.342 . S
C118 C122 1.401 . S
C118 C123 1.499 . S
N119 Co102 1.989 . S
N119 C118 1.342 . S
N119 N120 1.388 . S
N120 Co103 1.993 . S
N120 N119 1.388 . S
N120 C121 1.346 . S
C121 N120 1.346 . S
C121 C122 1.396 . S
C121 C131 1.510 . S
C122 C118 1.401 . S
C122 C121 1.396 . S
C123 C118 1.499 . S
C123 H124 0.959 . S
C123 H125 0.960 . S
C123 H126 0.961 . S
H124 C123 0.959 . S
H125 C123 0.960 . S
H126 C123 0.961 . S
O127 Co102 1.967 . S
O127 C135 1.258 . S
O128 Co103 1.941 . S
O128 C135 1.266 . S
H129 C131 0.959 . S
H130 C131 0.961 . S
C131 C121 1.510 . S
C131 H129 0.959 . S
C131 H130 0.961 . S
C131 H132 0.960 . S
H132 C131 0.960 . S
H133 N113 0.862 . S
O134 Co102 1.920 1_554 S
O134 C107 1.289 . S
C135 O127 1.258 . S
C135 O128 1.266 . S
Co136 O139 1.970 . S
Co136 N153 1.989 . S
Co136 O161 1.967 . S
Co136 O168 1.920 . S
Co137 O140 1.966 . S
Co137 N146 2.022 . S
Co137 N154 1.993 . S
Co137 O162 1.941 . S
C138 O139 1.258 . S
C138 O140 1.263 . S
O139 Co136 1.970 . S
O139 C138 1.258 . S
O140 Co137 1.966 . S
O140 C138 1.263 . S
C141 O142 1.235 . S
C141 O168 1.289 . S
O142 C141 1.235 . S
C143 C145 1.400 . S
C143 N146 1.351 . S
C143 C148 1.501 . S
C144 C145 1.387 . S
C144 N147 1.341 . S
C145 C143 1.400 . S
C145 C144 1.387 . S
N146 Co137 2.022 . S
N146 C143 1.351 . S
N146 N147 1.365 . S
N147 C144 1.341 . S
N147 N146 1.365 . S
N147 H167 0.862 . S
C148 C143 1.501 . S
C148 H149 0.961 . S
C148 H150 0.961 . S
C148 H151 0.960 . S
H149 C148 0.961 . S
H150 C148 0.961 . S
H151 C148 0.960 . S
C152 N153 1.342 . S
C152 C156 1.401 . S
C152 C157 1.499 . S
N153 Co136 1.989 . S
N153 C152 1.342 . S
N153 N154 1.388 . S
N154 Co137 1.993 . S
N154 N153 1.388 . S
N154 C155 1.346 . S
C155 N154 1.346 . S
C155 C156 1.396 . S
C155 C165 1.510 . S
C156 C152 1.401 . S
C156 C155 1.396 . S
C157 C152 1.499 . S
C157 H158 0.959 . S
C157 H159 0.960 . S
C157 H160 0.961 . S
H158 C157 0.959 . S
H159 C157 0.960 . S
H160 C157 0.961 . S
O161 Co136 1.967 . S
O161 C169 1.258 . S
O162 Co137 1.941 . S
O162 C169 1.266 . S
H163 C165 0.959 . S
H164 C165 0.961 . S
C165 C155 1.510 . S
C165 H163 0.959 . S
C165 H164 0.961 . S
C165 H166 0.960 . S
H166 C165 0.960 . S
H167 N147 0.862 . S
O168 Co136 1.920 . S
O168 C141 1.289 . S
C169 O161 1.258 . S
C169 O162 1.266 . S
Co170 O173 1.970 . S
Co170 N187 1.989 . S
Co170 O195 1.967 . S
Co170 O202 1.920 . S
Co171 O174 1.966 . S
Co171 N180 2.022 . S
Co171 N188 1.993 . S
Co171 O196 1.941 . S
C172 O173 1.258 . S
C172 O174 1.263 . S
O173 Co170 1.970 . S
O173 C172 1.258 . S
O174 Co171 1.966 . S
O174 C172 1.263 . S
C175 O176 1.235 . S
C175 O202 1.289 . S
O176 C175 1.235 . S
C177 C179 1.400 . S
C177 N180 1.351 . S
C177 C182 1.501 . S
C178 C179 1.387 . S
C178 N181 1.341 . S
C179 C177 1.400 . S
C179 C178 1.387 . S
N180 Co171 2.022 . S
N180 C177 1.351 . S
N180 N181 1.365 . S
N181 C178 1.341 . S
N181 N180 1.365 . S
N181 H201 0.862 . S
C182 C177 1.501 . S
C182 H183 0.961 . S
C182 H184 0.961 . S
C182 H185 0.960 . S
H183 C182 0.961 . S
H184 C182 0.961 . S
H185 C182 0.960 . S
C186 N187 1.342 . S
C186 C190 1.401 . S
C186 C191 1.499 . S
N187 Co170 1.989 . S
N187 C186 1.342 . S
N187 N188 1.388 . S
N188 Co171 1.993 . S
N188 N187 1.388 . S
N188 C189 1.346 . S
C189 N188 1.346 . S
C189 C190 1.396 . S
C189 C199 1.510 . S
C190 C186 1.401 . S
C190 C189 1.396 . S
C191 C186 1.499 . S
C191 H192 0.959 . S
C191 H193 0.960 . S
C191 H194 0.961 . S
H192 C191 0.959 . S
H193 C191 0.960 . S
H194 C191 0.961 . S
O195 Co170 1.967 . S
O195 C203 1.258 . S
O196 Co171 1.941 . S
O196 C203 1.266 . S
H197 C199 0.959 . S
H198 C199 0.961 . S
C199 C189 1.510 . S
C199 H197 0.959 . S
C199 H198 0.961 . S
C199 H200 0.960 . S
H200 C199 0.960 . S
H201 N181 0.862 . S
O202 Co170 1.920 . S
O202 C175 1.289 . S
C203 O195 1.258 . S
C203 O196 1.266 . S
Co204 O207 1.970 . S
Co204 N221 1.989 . S
Co204 O229 1.967 . S
Co204 O236 1.920 . S
Co205 O208 1.966 . S
Co205 N214 2.022 . S
Co205 N222 1.993 . S
Co205 O230 1.941 . S
C206 O207 1.258 . S
C206 O208 1.263 . S
O207 Co204 1.970 . S
O207 C206 1.258 . S
O208 Co205 1.966 . S
O208 C206 1.263 . S
C209 O210 1.235 . S
C209 O236 1.289 . S
O210 C209 1.235 . S
C211 C213 1.400 . S
C211 N214 1.351 . S
C211 C216 1.501 . S
C212 C213 1.387 . S
C212 N215 1.341 . S
C213 C211 1.400 . S
C213 C212 1.387 . S
N214 Co205 2.022 . S
N214 C211 1.351 . S
N214 N215 1.365 . S
N215 C212 1.341 . S
N215 N214 1.365 . S
N215 H235 0.862 . S
C216 C211 1.501 . S
C216 H217 0.961 . S
C216 H218 0.961 . S
C216 H219 0.960 . S
H217 C216 0.961 . S
H218 C216 0.961 . S
H219 C216 0.960 . S
C220 N221 1.342 . S
C220 C224 1.401 . S
C220 C225 1.499 . S
N221 Co204 1.989 . S
N221 C220 1.342 . S
N221 N222 1.388 . S
N222 Co205 1.993 . S
N222 N221 1.388 . S
N222 C223 1.346 . S
C223 N222 1.346 . S
C223 C224 1.396 . S
C223 C233 1.510 . S
C224 C220 1.401 . S
C224 C223 1.396 . S
C225 C220 1.499 . S
C225 H226 0.959 . S
C225 H227 0.960 . S
C225 H228 0.961 . S
H226 C225 0.959 . S
H227 C225 0.960 . S
H228 C225 0.961 . S
O229 Co204 1.967 . S
O229 C237 1.258 . S
O230 Co205 1.941 . S
O230 C237 1.266 . S
H231 C233 0.959 . S
H232 C233 0.961 . S
C233 C223 1.510 . S
C233 H231 0.959 . S
C233 H232 0.961 . S
C233 H234 0.960 . S
H234 C233 0.960 . S
H235 N215 0.862 . S
O236 Co204 1.920 . S
O236 C209 1.289 . S
C237 O229 1.258 . S
C237 O230 1.266 . S
Co238 O241 1.970 . S
Co238 N255 1.989 . S
Co238 O263 1.967 . S
Co238 O270 1.920 1_554 S
Co239 O242 1.966 . S
Co239 N248 2.022 . S
Co239 N256 1.993 . S
Co239 O264 1.941 . S
C240 O241 1.258 . S
C240 O242 1.263 . S
O241 Co238 1.970 . S
O241 C240 1.258 . S
O242 Co239 1.966 . S
O242 C240 1.263 . S
C243 O244 1.235 . S
C243 O270 1.289 . S
O244 C243 1.235 . S
C245 C247 1.400 . S
C245 N248 1.351 . S
C245 C250 1.501 . S
C246 C247 1.387 . S
C246 N249 1.341 . S
C247 C245 1.400 . S
C247 C246 1.387 . S
N248 Co239 2.022 . S
N248 C245 1.351 . S
N248 N249 1.365 . S
N249 C246 1.341 . S
N249 N248 1.365 . S
N249 H269 0.862 . S
C250 C245 1.501 . S
C250 H251 0.961 . S
C250 H252 0.961 . S
C250 H253 0.960 . S
H251 C250 0.961 . S
H252 C250 0.961 . S
H253 C250 0.960 . S
C254 N255 1.342 . S
C254 C258 1.401 . S
C254 C259 1.499 . S
N255 Co238 1.989 . S
N255 C254 1.342 . S
N255 N256 1.388 . S
N256 Co239 1.993 . S
N256 N255 1.388 . S
N256 C257 1.346 . S
C257 N256 1.346 . S
C257 C258 1.396 . S
C257 C267 1.510 . S
C258 C254 1.401 . S
C258 C257 1.396 . S
C259 C254 1.499 . S
C259 H260 0.959 . S
C259 H261 0.960 . S
C259 H262 0.961 . S
H260 C259 0.959 . S
H261 C259 0.960 . S
H262 C259 0.961 . S
O263 Co238 1.967 . S
O263 C271 1.258 . S
O264 Co239 1.941 . S
O264 C271 1.266 . S
H265 C267 0.959 . S
H266 C267 0.961 . S
C267 C257 1.510 . S
C267 H265 0.959 . S
C267 H266 0.961 . S
C267 H268 0.960 . S
H268 C267 0.960 . S
H269 N249 0.862 . S
O270 Co238 1.920 1_556 S
O270 C243 1.289 . S
C271 O263 1.258 . S
C271 O264 1.266 . S
H272 C290 0.951 . S
H273 C292 0.951 . S
H274 C294 0.950 . S
H275 C295 0.950 . S
H276 C297 0.950 . S
H277 C300 0.950 . S
H278 C301 0.960 . S
H279 C303 0.950 . S
H280 C304 0.950 . S
H281 C305 0.951 . S
H282 C307 0.951 . S
H283 C309 0.950 . S
H284 C310 0.950 . S
H285 C312 0.950 . S
H286 C315 0.950 . S
H287 C316 0.950 . S
H288 C318 0.950 . S
H289 C319 0.950 . S
C290 H272 0.951 . S
C290 C291 1.366 . S
C290 C292 1.388 . S
C291 C290 1.366 . S
C291 C295 1.385 . S
C292 H273 0.951 . S
C292 C290 1.388 . S
C292 C293 1.366 . S
C293 C292 1.366 . S
C293 C294 1.414 . S
C293 C296 1.499 . S
C294 H274 0.950 . S
C294 C293 1.414 . S
C294 C295 1.374 . S
C295 H275 0.950 . S
C295 C291 1.385 . S
C295 C294 1.374 . S
C296 C293 1.499 . S
C296 C297 1.373 . S
C296 C298 1.389 . S
C297 H276 0.950 . S
C297 C296 1.373 . S
C297 C313 1.377 . S
C298 C296 1.389 . S
C298 C299 1.524 . S
C298 C312 1.377 . S
C299 C298 1.524 . S
C299 C300 1.397 . S
C299 C304 1.363 . S
C300 H277 0.950 . S
C300 C299 1.397 . S
C300 C301 1.334 . S
C301 H278 0.960 . S
C301 C300 1.334 . S
C301 C302 1.287 1_455 S
C302 C301 1.287 1_655 S
C302 C303 1.524 1_655 S
C302 H321 0.913 . S
C303 H279 0.950 . S
C303 C302 1.524 1_455 S
C303 C304 1.415 . S
C304 H280 0.950 . S
C304 C299 1.363 . S
C304 C303 1.415 . S
C305 H281 0.951 . S
C305 C306 1.366 . S
C305 C307 1.388 . S
C306 C305 1.366 . S
C306 C310 1.385 . S
C307 H282 0.951 . S
C307 C305 1.388 . S
C307 C308 1.366 . S
C308 C307 1.366 . S
C308 C309 1.414 . S
C308 C311 1.499 . S
C309 H283 0.950 . S
C309 C308 1.414 . S
C309 C310 1.374 . S
C310 H284 0.950 . S
C310 C306 1.385 . S
C310 C309 1.374 . S
C311 C308 1.499 . S
C311 C312 1.373 . S
C311 C313 1.389 . S
C312 H285 0.950 . S
C312 C298 1.377 . S
C312 C311 1.373 . S
C313 C297 1.377 . S
C313 C311 1.389 . S
C313 C314 1.524 . S
C314 C313 1.524 . S
C314 C315 1.397 . S
C314 C319 1.363 . S
C315 H286 0.950 . S
C315 C314 1.397 . S
C315 C316 1.334 . S
C316 H287 0.950 . S
C316 C315 1.334 . S
C316 C317 1.287 . S
C317 C316 1.287 . S
C317 C318 1.524 . S
C317 H320 0.999 . S
C318 H288 0.950 . S
C318 C317 1.524 . S
C318 C319 1.415 . S
C319 H289 0.950 . S
C319 C314 1.363 . S
C319 C318 1.415 . S
H320 C317 0.999 . S
H321 C302 0.913 . S
H322 C340 0.951 . S
H323 C342 0.951 . S
H324 C344 0.950 . S
H325 C345 0.950 . S
H326 C347 0.950 . S
H327 C350 0.950 . S
H328 C351 0.950 . S
H329 C353 0.950 . S
H330 C354 0.950 . S
H331 C355 0.951 . S
H332 C357 0.951 . S
H333 C359 0.950 . S
H334 C360 0.950 . S
H335 C362 0.950 . S
H336 C365 0.950 . S
H337 C366 0.959 . S
H338 C368 0.950 . S
H339 C369 0.950 . S
C340 H322 0.951 . S
C340 C341 1.366 . S
C340 C342 1.388 . S
C341 C340 1.366 . S
C341 C345 1.385 . S
C342 H323 0.951 . S
C342 C340 1.388 . S
C342 C343 1.366 . S
C343 C342 1.366 . S
C343 C344 1.414 . S
C343 C346 1.499 . S
C344 H324 0.950 . S
C344 C343 1.414 . S
C344 C345 1.374 . S
C345 H325 0.950 . S
C345 C341 1.385 . S
C345 C344 1.374 . S
C346 C343 1.499 . S
C346 C347 1.373 . S
C346 C348 1.389 . S
C347 H326 0.950 . S
C347 C346 1.373 . S
C347 C363 1.377 . S
C348 C346 1.389 . S
C348 C349 1.524 . S
C348 C362 1.377 . S
C349 C348 1.524 . S
C349 C350 1.397 . S
C349 C354 1.363 . S
C350 H327 0.950 . S
C350 C349 1.397 . S
C350 C351 1.334 . S
C351 H328 0.950 . S
C351 C350 1.334 . S
C351 C352 1.287 . S
C352 C351 1.287 . S
C352 C353 1.524 . S
C352 H371 0.913 . S
C353 H329 0.950 . S
C353 C352 1.524 . S
C353 C354 1.415 . S
C354 H330 0.950 . S
C354 C349 1.363 . S
C354 C353 1.415 . S
C355 H331 0.951 . S
C355 C356 1.366 . S
C355 C357 1.388 . S
C356 C355 1.366 . S
C356 C360 1.385 . S
C357 H332 0.951 . S
C357 C355 1.388 . S
C357 C358 1.366 . S
C358 C357 1.366 . S
C358 C359 1.414 . S
C358 C361 1.499 . S
C359 H333 0.950 . S
C359 C358 1.414 . S
C359 C360 1.374 . S
C360 H334 0.950 . S
C360 C356 1.385 . S
C360 C359 1.374 . S
C361 C358 1.499 . S
C361 C362 1.373 . S
C361 C363 1.389 . S
C362 H335 0.950 . S
C362 C348 1.377 . S
C362 C361 1.373 . S
C363 C347 1.377 . S
C363 C361 1.389 . S
C363 C364 1.524 . S
C364 C363 1.524 . S
C364 C365 1.397 . S
C364 C369 1.363 . S
C365 H336 0.950 . S
C365 C364 1.397 . S
C365 C366 1.334 . S
C366 H337 0.959 . S
C366 C365 1.334 . S
C366 C367 1.287 1_545 S
C367 C366 1.287 1_565 S
C367 C368 1.524 1_565 S
C367 H370 0.999 . S
C368 H338 0.950 . S
C368 C367 1.524 1_545 S
C368 C369 1.415 . S
C369 H339 0.950 . S
C369 C364 1.363 . S
C369 C368 1.415 . S
H370 C367 0.999 . S
H371 C352 0.913 . S
H372 C390 0.951 . S
H373 C392 0.951 . S
H374 C394 0.950 . S
H375 C395 0.950 . S
H376 C397 0.950 . S
H377 C400 0.950 . S
H378 C401 0.950 . S
H379 C403 0.950 . S
H380 C404 0.950 . S
H381 C405 0.951 . S
H382 C407 0.951 . S
H383 C409 0.950 . S
H384 C410 0.950 . S
H385 C412 0.950 . S
H386 C415 0.950 . S
H387 C416 0.950 . S
H388 C418 0.950 1_455 S
H389 C419 0.950 . S
C390 H372 0.951 . S
C390 C391 1.366 . S
C390 C392 1.388 . S
C391 C390 1.366 . S
C391 C395 1.385 . S
C392 H373 0.951 . S
C392 C390 1.388 . S
C392 C393 1.366 . S
C393 C392 1.366 . S
C393 C394 1.414 . S
C393 C396 1.499 . S
C394 H374 0.950 . S
C394 C393 1.414 . S
C394 C395 1.374 . S
C395 H375 0.950 . S
C395 C391 1.385 . S
C395 C394 1.374 . S
C396 C393 1.499 . S
C396 C397 1.373 . S
C396 C398 1.389 . S
C397 H376 0.950 . S
C397 C396 1.373 . S
C397 C413 1.377 . S
C398 C396 1.389 . S
C398 C399 1.524 . S
C398 C412 1.377 . S
C399 C398 1.524 . S
C399 C400 1.397 . S
C399 C404 1.363 . S
C400 H377 0.950 . S
C400 C399 1.397 . S
C400 C401 1.334 . S
C401 H378 0.950 . S
C401 C400 1.334 . S
C401 C402 1.287 . S
C402 C401 1.287 . S
C402 C403 1.524 . S
C402 H421 0.913 . S
C403 H379 0.950 . S
C403 C402 1.524 . S
C403 C404 1.415 . S
C404 H380 0.950 . S
C404 C399 1.363 . S
C404 C403 1.415 . S
C405 H381 0.951 . S
C405 C406 1.366 . S
C405 C407 1.388 . S
C406 C405 1.366 . S
C406 C410 1.385 . S
C407 H382 0.951 . S
C407 C405 1.388 . S
C407 C408 1.366 . S
C408 C407 1.366 . S
C408 C409 1.414 . S
C408 C411 1.499 . S
C409 H383 0.950 . S
C409 C408 1.414 . S
C409 C410 1.374 . S
C410 H384 0.950 . S
C410 C406 1.385 . S
C410 C409 1.374 . S
C411 C408 1.499 . S
C411 C412 1.373 . S
C411 C413 1.389 . S
C412 H385 0.950 . S
C412 C398 1.377 . S
C412 C411 1.373 . S
C413 C397 1.377 . S
C413 C411 1.389 . S
C413 C414 1.524 . S
C414 C413 1.524 . S
C414 C415 1.397 . S
C414 C419 1.363 . S
C415 H386 0.950 . S
C415 C414 1.397 . S
C415 C416 1.334 . S
C416 H387 0.950 . S
C416 C415 1.334 . S
C416 C417 1.287 . S
C417 C416 1.287 . S
C417 C418 1.524 . S
C417 H420 0.999 . S
C418 H388 0.950 1_655 S
C418 C417 1.524 . S
C418 C419 1.415 . S
C419 H389 0.950 . S
C419 C414 1.363 . S
C419 C418 1.415 . S
H420 C417 0.999 . S
H421 C402 0.913 . S
H422 C440 0.951 1_554 S
H423 C442 0.951 . S
H424 C444 0.950 . S
H425 C445 0.950 . S
H426 C447 0.950 . S
H427 C450 0.950 1_556 S
H428 C451 0.950 . S
H429 C453 0.950 . S
H430 C454 0.950 . S
H431 C455 0.951 1_556 S
H432 C457 0.951 . S
H433 C459 0.950 . S
H434 C460 0.950 . S
H435 C462 0.950 . S
H436 C465 0.950 1_554 S
H437 C466 0.950 . S
H438 C468 0.950 . S
H439 C469 0.950 . S
C440 H422 0.951 1_556 S
C440 C441 1.366 . S
C440 C442 1.388 1_556 S
C441 C440 1.366 . S
C441 C445 1.385 . S
C442 H423 0.951 . S
C442 C440 1.388 1_554 S
C442 C443 1.366 1_554 S
C443 C442 1.366 1_556 S
C443 C444 1.414 . S
C443 C446 1.499 . S
C444 H424 0.950 . S
C444 C443 1.414 . S
C444 C445 1.374 . S
C445 H425 0.950 . S
C445 C441 1.385 . S
C445 C444 1.374 . S
C446 C443 1.499 . S
C446 C447 1.373 . S
C446 C448 1.389 1_556 S
C447 H426 0.950 . S
C447 C446 1.373 . S
C447 C463 1.377 . S
C448 C446 1.389 1_554 S
C448 C449 1.524 . S
C448 C462 1.377 . S
C449 C448 1.524 . S
C449 C450 1.397 . S
C449 C454 1.363 . S
C450 H427 0.950 1_554 S
C450 C449 1.397 . S
C450 C451 1.334 . S
C451 H428 0.950 . S
C451 C450 1.334 . S
C451 C452 1.287 . S
C452 C451 1.287 . S
C452 C453 1.524 . S
C452 H471 0.913 . S
C453 H429 0.950 . S
C453 C452 1.524 . S
C453 C454 1.415 . S
C454 H430 0.950 . S
C454 C449 1.363 . S
C454 C453 1.415 . S
C455 H431 0.951 1_554 S
C455 C456 1.366 . S
C455 C457 1.388 1_554 S
C456 C455 1.366 . S
C456 C460 1.385 . S
C457 H432 0.951 . S
C457 C455 1.388 1_556 S
C457 C458 1.366 1_556 S
C458 C457 1.366 1_554 S
C458 C459 1.414 . S
C458 C461 1.499 . S
C459 H433 0.950 . S
C459 C458 1.414 . S
C459 C460 1.374 . S
C460 H434 0.950 . S
C460 C456 1.385 . S
C460 C459 1.374 . S
C461 C458 1.499 . S
C461 C462 1.373 . S
C461 C463 1.389 1_554 S
C462 H435 0.950 . S
C462 C448 1.377 . S
C462 C461 1.373 . S
C463 C447 1.377 . S
C463 C461 1.389 1_556 S
C463 C464 1.524 . S
C464 C463 1.524 . S
C464 C465 1.397 . S
C464 C469 1.363 . S
C465 H436 0.950 1_556 S
C465 C464 1.397 . S
C465 C466 1.334 . S
C466 H437 0.950 . S
C466 C465 1.334 . S
C466 C467 1.287 . S
C467 C466 1.287 . S
C467 C468 1.524 . S
C467 H470 0.999 . S
C468 H438 0.950 . S
C468 C467 1.524 . S
C468 C469 1.415 . S
C469 H439 0.950 . S
C469 C464 1.363 . S
C469 C468 1.415 . S
H470 C467 0.999 . S
H471 C452 0.913 . S
H472 C490 0.951 . S
H473 C492 0.951 . S
H474 C494 0.950 . S
H475 C495 0.950 . S
H476 C497 0.950 . S
H477 C500 0.950 . S
H478 C501 0.950 . S
H479 C503 0.950 . S
H480 C504 0.950 . S
H481 C505 0.951 . S
H482 C507 0.951 . S
H483 C509 0.950 . S
H484 C510 0.950 . S
H485 C512 0.950 . S
H486 C515 0.950 . S
H487 C516 0.950 . S
H488 C518 0.950 . S
H489 C519 0.950 . S
C490 H472 0.951 . S
C490 C491 1.366 . S
C490 C492 1.388 . S
C491 C490 1.366 . S
C491 C495 1.385 . S
C492 H473 0.951 . S
C492 C490 1.388 . S
C492 C493 1.366 . S
C493 C492 1.366 . S
C493 C494 1.414 . S
C493 C496 1.499 . S
C494 H474 0.950 . S
C494 C493 1.414 . S
C494 C495 1.374 . S
C495 H475 0.950 . S
C495 C491 1.385 . S
C495 C494 1.374 . S
C496 C493 1.499 . S
C496 C497 1.373 . S
C496 C498 1.389 . S
C497 H476 0.950 . S
C497 C496 1.373 . S
C497 C513 1.377 . S
C498 C496 1.389 . S
C498 C499 1.524 . S
C498 C512 1.377 . S
C499 C498 1.524 . S
C499 C500 1.397 . S
C499 C504 1.363 . S
C500 H477 0.950 . S
C500 C499 1.397 . S
C500 C501 1.334 . S
C501 H478 0.950 . S
C501 C500 1.334 . S
C501 C502 1.287 . S
C502 C501 1.287 . S
C502 C503 1.524 . S
C502 H521 0.913 . S
C503 H479 0.950 . S
C503 C502 1.524 . S
C503 C504 1.415 . S
C504 H480 0.950 . S
C504 C499 1.363 . S
C504 C503 1.415 . S
C505 H481 0.951 . S
C505 C506 1.366 . S
C505 C507 1.388 . S
C506 C505 1.366 . S
C506 C510 1.385 . S
C507 H482 0.951 . S
C507 C505 1.388 . S
C507 C508 1.366 . S
C508 C507 1.366 . S
C508 C509 1.414 . S
C508 C511 1.499 . S
C509 H483 0.950 . S
C509 C508 1.414 . S
C509 C510 1.374 . S
C510 H484 0.950 . S
C510 C506 1.385 . S
C510 C509 1.374 . S
C511 C508 1.499 . S
C511 C512 1.373 . S
C511 C513 1.389 . S
C512 H485 0.950 . S
C512 C498 1.377 . S
C512 C511 1.373 . S
C513 C497 1.377 . S
C513 C511 1.389 . S
C513 C514 1.524 . S
C514 C513 1.524 . S
C514 C515 1.397 . S
C514 C519 1.363 . S
C515 H486 0.950 . S
C515 C514 1.397 . S
C515 C516 1.334 . S
C516 H487 0.950 . S
C516 C515 1.334 . S
C516 C517 1.287 . S
C517 C516 1.287 . S
C517 C518 1.524 . S
C517 H520 0.999 . S
C518 H488 0.950 . S
C518 C517 1.524 . S
C518 C519 1.415 . S
C519 H489 0.950 . S
C519 C514 1.363 . S
C519 C518 1.415 . S
H520 C517 0.999 . S
H521 C502 0.913 . S
H522 C540 0.951 . S
H523 C542 0.951 . S
H524 C544 0.950 . S
H525 C545 0.950 . S
H526 C547 0.950 . S
H527 C550 0.950 . S
H528 C551 0.950 . S
H529 C553 0.950 . S
H530 C554 0.950 . S
H531 C555 0.951 . S
H532 C557 0.951 . S
H533 C559 0.950 . S
H534 C560 0.950 . S
H535 C562 0.950 . S
H536 C565 0.950 . S
H537 C566 0.950 . S
H538 C568 0.950 . S
H539 C569 0.950 . S
C540 H522 0.951 . S
C540 C541 1.366 . S
C540 C542 1.388 . S
C541 C540 1.366 . S
C541 C545 1.385 . S
C542 H523 0.951 . S
C542 C540 1.388 . S
C542 C543 1.366 . S
C543 C542 1.366 . S
C543 C544 1.414 . S
C543 C546 1.499 . S
C544 H524 0.950 . S
C544 C543 1.414 . S
C544 C545 1.374 . S
C545 H525 0.950 . S
C545 C541 1.385 . S
C545 C544 1.374 . S
C546 C543 1.499 . S
C546 C547 1.373 . S
C546 C548 1.389 . S
C547 H526 0.950 . S
C547 C546 1.373 . S
C547 C563 1.377 . S
C548 C546 1.389 . S
C548 C549 1.524 . S
C548 C562 1.377 . S
C549 C548 1.524 . S
C549 C550 1.397 . S
C549 C554 1.363 . S
C550 H527 0.950 . S
C550 C549 1.397 . S
C550 C551 1.334 . S
C551 H528 0.950 . S
C551 C550 1.334 . S
C551 C552 1.287 . S
C552 C551 1.287 . S
C552 C553 1.524 . S
C552 H571 0.913 . S
C553 H529 0.950 . S
C553 C552 1.524 . S
C553 C554 1.415 . S
C554 H530 0.950 . S
C554 C549 1.363 . S
C554 C553 1.415 . S
C555 H531 0.951 . S
C555 C556 1.366 . S
C555 C557 1.388 . S
C556 C555 1.366 . S
C556 C560 1.385 . S
C557 H532 0.951 . S
C557 C555 1.388 . S
C557 C558 1.366 . S
C558 C557 1.366 . S
C558 C559 1.414 . S
C558 C561 1.499 . S
C559 H533 0.950 . S
C559 C558 1.414 . S
C559 C560 1.374 . S
C560 H534 0.950 . S
C560 C556 1.385 . S
C560 C559 1.374 . S
C561 C558 1.499 . S
C561 C562 1.373 . S
C561 C563 1.389 . S
C562 H535 0.950 . S
C562 C548 1.377 . S
C562 C561 1.373 . S
C563 C547 1.377 . S
C563 C561 1.389 . S
C563 C564 1.524 . S
C564 C563 1.524 . S
C564 C565 1.397 . S
C564 C569 1.363 . S
C565 H536 0.950 . S
C565 C564 1.397 . S
C565 C566 1.334 . S
C566 H537 0.950 . S
C566 C565 1.334 . S
C566 C567 1.287 . S
C567 C566 1.287 . S
C567 C568 1.524 . S
C567 H570 0.999 . S
C568 H538 0.950 . S
C568 C567 1.524 . S
C568 C569 1.415 . S
C569 H539 0.950 . S
C569 C564 1.363 . S
C569 C568 1.415 . S
H570 C567 0.999 . S
H571 C552 0.913 . S
H572 C590 0.951 . S
H573 C592 0.951 . S
H574 C594 0.950 . S
H575 C595 0.950 . S
H576 C597 0.950 . S
H577 C600 0.950 . S
H578 C601 0.950 . S
H579 C603 0.950 . S
H580 C604 0.950 . S
H581 C605 0.951 . S
H582 C607 0.951 . S
H583 C609 0.950 . S
H584 C610 0.950 . S
H585 C612 0.950 . S
H586 C615 0.950 . S
H587 C616 0.950 . S
H588 C618 0.950 . S
H589 C619 0.950 . S
C590 H572 0.951 . S
C590 C591 1.366 . S
C590 C592 1.388 . S
C591 C590 1.366 . S
C591 C595 1.385 . S
C592 H573 0.951 . S
C592 C590 1.388 . S
C592 C593 1.366 . S
C593 C592 1.366 . S
C593 C594 1.414 . S
C593 C596 1.499 . S
C594 H574 0.950 . S
C594 C593 1.414 . S
C594 C595 1.374 . S
C595 H575 0.950 . S
C595 C591 1.385 . S
C595 C594 1.374 . S
C596 C593 1.499 . S
C596 C597 1.373 . S
C596 C598 1.389 . S
C597 H576 0.950 . S
C597 C596 1.373 . S
C597 C613 1.377 . S
C598 C596 1.389 . S
C598 C599 1.524 . S
C598 C612 1.377 . S
C599 C598 1.524 . S
C599 C600 1.397 . S
C599 C604 1.363 . S
C600 H577 0.950 . S
C600 C599 1.397 . S
C600 C601 1.334 . S
C601 H578 0.950 . S
C601 C600 1.334 . S
C601 C602 1.287 . S
C602 C601 1.287 . S
C602 C603 1.524 . S
C602 H621 0.913 . S
C603 H579 0.950 . S
C603 C602 1.524 . S
C603 C604 1.415 . S
C604 H580 0.950 . S
C604 C599 1.363 . S
C604 C603 1.415 . S
C605 H581 0.951 . S
C605 C606 1.366 . S
C605 C607 1.388 . S
C606 C605 1.366 . S
C606 C610 1.385 . S
C607 H582 0.951 . S
C607 C605 1.388 . S
C607 C608 1.366 . S
C608 C607 1.366 . S
C608 C609 1.414 . S
C608 C611 1.499 . S
C609 H583 0.950 . S
C609 C608 1.414 . S
C609 C610 1.374 . S
C610 H584 0.950 . S
C610 C606 1.385 . S
C610 C609 1.374 . S
C611 C608 1.499 . S
C611 C612 1.373 . S
C611 C613 1.389 . S
C612 H585 0.950 . S
C612 C598 1.377 . S
C612 C611 1.373 . S
C613 C597 1.377 . S
C613 C611 1.389 . S
C613 C614 1.524 . S
C614 C613 1.524 . S
C614 C615 1.397 . S
C614 C619 1.363 . S
C615 H586 0.950 . S
C615 C614 1.397 . S
C615 C616 1.334 . S
C616 H587 0.950 . S
C616 C615 1.334 . S
C616 C617 1.287 . S
C617 C616 1.287 . S
C617 C618 1.524 . S
C617 H620 0.999 . S
C618 H588 0.950 . S
C618 C617 1.524 . S
C618 C619 1.415 . S
C619 H589 0.950 . S
C619 C614 1.363 . S
C619 C618 1.415 . S
H620 C617 0.999 . S
H621 C602 0.913 . S
H622 C640 0.951 . S
H623 C642 0.951 . S
H624 C644 0.950 . S
H625 C645 0.950 . S
H626 C647 0.950 . S
H627 C650 0.950 . S
H628 C651 0.950 . S
H629 C653 0.950 . S
H630 C654 0.950 . S
H631 C655 0.951 . S
H632 C657 0.951 . S
H633 C659 0.950 . S
H634 C660 0.950 . S
H635 C662 0.950 . S
H636 C665 0.950 . S
H637 C666 0.950 . S
H638 C668 0.950 . S
H639 C669 0.950 . S
C640 H622 0.951 . S
C640 C641 1.366 . S
C640 C642 1.388 . S
C641 C640 1.366 . S
C641 C645 1.385 . S
C642 H623 0.951 . S
C642 C640 1.388 . S
C642 C643 1.366 . S
C643 C642 1.366 . S
C643 C644 1.414 . S
C643 C646 1.499 . S
C644 H624 0.950 . S
C644 C643 1.414 . S
C644 C645 1.374 . S
C645 H625 0.950 . S
C645 C641 1.385 . S
C645 C644 1.374 . S
C646 C643 1.499 . S
C646 C647 1.373 . S
C646 C648 1.389 . S
C647 H626 0.950 . S
C647 C646 1.373 . S
C647 C663 1.377 . S
C648 C646 1.389 . S
C648 C649 1.524 . S
C648 C662 1.377 . S
C649 C648 1.524 . S
C649 C650 1.397 . S
C649 C654 1.363 . S
C650 H627 0.950 . S
C650 C649 1.397 . S
C650 C651 1.334 . S
C651 H628 0.950 . S
C651 C650 1.334 . S
C651 C652 1.287 . S
C652 C651 1.287 . S
C652 C653 1.524 . S
C652 H671 0.913 . S
C653 H629 0.950 . S
C653 C652 1.524 . S
C653 C654 1.415 . S
C654 H630 0.950 . S
C654 C649 1.363 . S
C654 C653 1.415 . S
C655 H631 0.951 . S
C655 C656 1.366 . S
C655 C657 1.388 . S
C656 C655 1.366 . S
C656 C660 1.385 . S
C657 H632 0.951 . S
C657 C655 1.388 . S
C657 C658 1.366 . S
C658 C657 1.366 . S
C658 C659 1.414 . S
C658 C661 1.499 . S
C659 H633 0.950 . S
C659 C658 1.414 . S
C659 C660 1.374 . S
C660 H634 0.950 . S
C660 C656 1.385 . S
C660 C659 1.374 . S
C661 C658 1.499 . S
C661 C662 1.373 . S
C661 C663 1.389 . S
C662 H635 0.950 . S
C662 C648 1.377 . S
C662 C661 1.373 . S
C663 C647 1.377 . S
C663 C661 1.389 . S
C663 C664 1.524 . S
C664 C663 1.524 . S
C664 C665 1.397 . S
C664 C669 1.363 . S
C665 H636 0.950 . S
C665 C664 1.397 . S
C665 C666 1.334 . S
C666 H637 0.950 . S
C666 C665 1.334 . S
C666 C667 1.287 . S
C667 C666 1.287 . S
C667 C668 1.524 . S
C667 H670 0.999 . S
C668 H638 0.950 . S
C668 C667 1.524 . S
C668 C669 1.415 . S
C669 H639 0.950 . S
C669 C664 1.363 . S
C669 C668 1.415 . S
H670 C667 0.999 . S
H671 C652 0.913 . S
H672 C690 0.951 . S
H673 C692 0.951 . S
H674 C694 0.950 1_655 S
H675 C695 0.950 . S
H676 C697 0.950 . S
H677 C700 0.950 . S
H678 C701 0.950 . S
H679 C703 0.951 1_556 S
H680 C704 0.950 . S
H681 C705 0.951 . S
H682 C707 0.951 . S
H683 C709 0.950 1_455 S
H684 C710 0.950 . S
H685 C712 0.950 . S
H686 C715 0.950 . S
H687 C716 0.950 . S
H688 C718 0.951 1_554 S
H689 C719 0.950 . S
C690 H672 0.951 . S
C690 C691 1.366 . S
C690 C692 1.388 . S
C691 C690 1.366 . S
C691 C695 1.385 . S
C692 H673 0.951 . S
C692 C690 1.388 . S
C692 C693 1.366 . S
C693 C692 1.366 . S
C693 C694 1.414 . S
C693 C696 1.499 . S
C694 H674 0.950 1_455 S
C694 C693 1.414 . S
C694 C695 1.374 . S
C695 H675 0.950 . S
C695 C691 1.385 . S
C695 C694 1.374 . S
C696 C693 1.499 . S
C696 C697 1.373 1_455 S
C696 C698 1.389 . S
C697 H676 0.950 . S
C697 C696 1.373 1_655 S
C697 C713 1.377 1_554 S
C698 C696 1.389 . S
C698 C699 1.524 . S
C698 C712 1.377 1_554 S
C699 C698 1.524 . S
C699 C700 1.397 . S
C699 C704 1.363 1_554 S
C700 H677 0.950 . S
C700 C699 1.397 . S
C700 C701 1.334 . S
C701 H678 0.950 . S
C701 C700 1.334 . S
C701 C702 1.287 . S
C702 C701 1.287 . S
C702 C703 1.522 . S
C702 H721 0.913 . S
C703 H679 0.951 1_554 S
C703 C702 1.522 . S
C703 C704 1.415 1_554 S
C704 H680 0.950 . S
C704 C699 1.363 1_556 S
C704 C703 1.415 1_556 S
C705 H681 0.951 . S
C705 C706 1.366 . S
C705 C707 1.388 . S
C706 C705 1.366 . S
C706 C710 1.385 . S
C707 H682 0.951 . S
C707 C705 1.388 . S
C707 C708 1.366 . S
C708 C707 1.366 . S
C708 C709 1.414 . S
C708 C711 1.499 . S
C709 H683 0.950 1_655 S
C709 C708 1.414 . S
C709 C710 1.374 . S
C710 H684 0.950 . S
C710 C706 1.385 . S
C710 C709 1.374 . S
C711 C708 1.499 . S
C711 C712 1.373 1_655 S
C711 C713 1.389 . S
C712 H685 0.950 . S
C712 C698 1.377 1_556 S
C712 C711 1.373 1_455 S
C713 C697 1.377 1_556 S
C713 C711 1.389 . S
C713 C714 1.524 . S
C714 C713 1.524 . S
C714 C715 1.397 . S
C714 C719 1.363 1_556 S
C715 H686 0.950 . S
C715 C714 1.397 . S
C715 C716 1.334 . S
C716 H687 0.950 . S
C716 C715 1.334 . S
C716 C717 1.287 . S
C717 C716 1.287 . S
C717 C718 1.522 . S
C717 H720 0.999 . S
C718 H688 0.951 1_556 S
C718 C717 1.522 . S
C718 C719 1.415 1_556 S
C719 H689 0.950 . S
C719 C714 1.363 1_554 S
C719 C718 1.415 1_554 S
H720 C717 0.999 . S
H721 C702 0.913 . S
H722 C740 0.951 . S
H723 C742 0.951 1_545 S
H724 C744 0.950 . S
H725 C745 0.950 . S
H726 C747 0.950 . S
H727 C750 0.950 . S
H728 C751 0.950 . S
H729 C753 0.950 . S
H730 C754 0.950 . S
H731 C755 0.951 . S
H732 C757 0.951 1_565 S
H733 C759 0.950 . S
H734 C760 0.950 . S
H735 C762 0.950 . S
H736 C765 0.950 . S
H737 C766 0.950 . S
H738 C768 0.950 . S
H739 C769 0.950 . S
C740 H722 0.951 . S
C740 C741 1.366 . S
C740 C742 1.388 . S
C741 C740 1.366 . S
C741 C745 1.385 . S
C742 H723 0.951 1_565 S
C742 C740 1.388 . S
C742 C743 1.366 . S
C743 C742 1.366 . S
C743 C744 1.414 . S
C743 C746 1.499 . S
C744 H724 0.950 . S
C744 C743 1.414 . S
C744 C745 1.374 . S
C745 H725 0.950 . S
C745 C741 1.385 . S
C745 C744 1.374 . S
C746 C743 1.499 . S
C746 C747 1.373 . S
C746 C748 1.389 1_565 S
C747 H726 0.950 . S
C747 C746 1.373 . S
C747 C763 1.377 . S
C748 C746 1.389 1_545 S
C748 C749 1.524 . S
C748 C762 1.377 . S
C749 C748 1.524 . S
C749 C750 1.397 1_545 S
C749 C754 1.363 . S
C750 H727 0.950 . S
C750 C749 1.397 1_565 S
C750 C751 1.334 . S
C751 H728 0.950 . S
C751 C750 1.334 . S
C751 C752 1.287 1_565 S
C752 C751 1.287 1_545 S
C752 C753 1.524 . S
C752 H771 0.913 . S
C753 H729 0.950 . S
C753 C752 1.524 . S
C753 C754 1.415 . S
C754 H730 0.950 . S
C754 C749 1.363 . S
C754 C753 1.415 . S
C755 H731 0.951 . S
C755 C756 1.366 . S
C755 C757 1.388 . S
C756 C755 1.366 . S
C756 C760 1.385 . S
C757 H732 0.951 1_545 S
C757 C755 1.388 . S
C757 C758 1.366 . S
C758 C757 1.366 . S
C758 C759 1.414 . S
C758 C761 1.499 . S
C759 H733 0.950 . S
C759 C758 1.414 . S
C759 C760 1.374 . S
C760 H734 0.950 . S
C760 C756 1.385 . S
C760 C759 1.374 . S
C761 C758 1.499 . S
C761 C762 1.373 . S
C761 C763 1.389 1_545 S
C762 H735 0.950 . S
C762 C748 1.377 . S
C762 C761 1.373 . S
C763 C747 1.377 . S
C763 C761 1.389 1_565 S
C763 C764 1.524 . S
C764 C763 1.524 . S
C764 C765 1.397 1_565 S
C764 C769 1.363 . S
C765 H736 0.950 . S
C765 C764 1.397 1_545 S
C765 C766 1.334 . S
C766 H737 0.950 . S
C766 C765 1.334 . S
C766 C767 1.287 1_545 S
C767 C766 1.287 1_565 S
C767 C768 1.524 . S
C767 H770 0.999 . S
C768 H738 0.950 . S
C768 C767 1.524 . S
C768 C769 1.415 . S
C769 H739 0.950 . S
C769 C764 1.363 . S
C769 C768 1.415 . S
H770 C767 0.999 . S
H771 C752 0.913 . S
H772 C790 0.951 . S
H773 C792 0.951 1_455 S
H774 C794 0.950 . S
H775 C795 0.950 . S
H776 C797 0.950 . S
H777 C800 0.950 . S
H778 C801 0.950 . S
H779 C803 0.950 . S
H780 C804 0.950 . S
H781 C805 0.951 . S
H782 C807 0.951 1_655 S
H783 C809 0.950 . S
H784 C810 0.950 . S
H785 C812 0.950 . S
H786 C815 0.950 . S
H787 C816 0.950 . S
H788 C818 0.950 . S
H789 C819 0.950 . S
C790 H772 0.951 . S
C790 C791 1.366 . S
C790 C792 1.388 . S
C791 C790 1.366 . S
C791 C795 1.385 . S
C792 H773 0.951 1_655 S
C792 C790 1.388 . S
C792 C793 1.366 . S
C793 C792 1.366 . S
C793 C794 1.414 . S
C793 C796 1.499 . S
C794 H774 0.950 . S
C794 C793 1.414 . S
C794 C795 1.374 . S
C795 H775 0.950 . S
C795 C791 1.385 . S
C795 C794 1.374 . S
C796 C793 1.499 . S
C796 C797 1.373 . S
C796 C798 1.389 . S
C797 H776 0.950 . S
C797 C796 1.373 . S
C797 C813 1.377 1_655 S
C798 C796 1.389 . S
C798 C799 1.524 . S
C798 C812 1.377 1_655 S
C799 C798 1.524 . S
C799 C800 1.397 . S
C799 C804 1.363 1_655 S
C800 H777 0.950 . S
C800 C799 1.397 . S
C800 C801 1.334 . S
C801 H778 0.950 . S
C801 C800 1.334 . S
C801 C802 1.287 . S
C802 C801 1.287 . S
C802 C803 1.524 1_655 S
C802 H821 0.913 . S
C803 H779 0.950 . S
C803 C802 1.524 1_455 S
C803 C804 1.415 . S
C804 H780 0.950 . S
C804 C799 1.363 1_455 S
C804 C803 1.415 . S
C805 H781 0.951 . S
C805 C806 1.366 . S
C805 C807 1.388 . S
C806 C805 1.366 . S
C806 C810 1.385 . S
C807 H782 0.951 1_455 S
C807 C805 1.388 . S
C807 C808 1.366 . S
C808 C807 1.366 . S
C808 C809 1.414 . S
C808 C811 1.499 . S
C809 H783 0.950 . S
C809 C808 1.414 . S
C809 C810 1.374 . S
C810 H784 0.950 . S
C810 C806 1.385 . S
C810 C809 1.374 . S
C811 C808 1.499 . S
C811 C812 1.373 . S
C811 C813 1.389 . S
C812 H785 0.950 . S
C812 C798 1.377 1_455 S
C812 C811 1.373 . S
C813 C797 1.377 1_455 S
C813 C811 1.389 . S
C813 C814 1.524 . S
C814 C813 1.524 . S
C814 C815 1.397 . S
C814 C819 1.363 1_455 S
C815 H786 0.950 . S
C815 C814 1.397 . S
C815 C816 1.334 . S
C816 H787 0.950 . S
C816 C815 1.334 . S
C816 C817 1.287 . S
C817 C816 1.287 . S
C817 C818 1.524 1_455 S
C817 H820 0.999 . S
C818 H788 0.950 . S
C818 C817 1.524 1_655 S
C818 C819 1.415 . S
C819 H789 0.950 . S
C819 C814 1.363 1_655 S
C819 C818 1.415 . S
H820 C817 0.999 . S
H821 C802 0.913 . S
H822 C840 0.951 . S
H823 C842 0.951 . S
H824 C844 0.950 1_565 S
H825 C845 0.950 . S
H826 C847 0.950 . S
H827 C850 0.948 1_565 S
H828 C851 0.950 . S
H829 C853 0.950 . S
H830 C854 0.950 . S
H831 C855 0.951 . S
H832 C857 0.951 . S
H833 C859 0.950 1_545 S
H834 C860 0.950 . S
H835 C862 0.950 . S
H836 C865 0.948 1_545 S
H837 C866 0.950 . S
H838 C868 0.950 . S
H839 C869 0.950 . S
C840 H822 0.951 . S
C840 C841 1.366 . S
C840 C842 1.388 . S
C841 C840 1.366 . S
C841 C845 1.385 . S
C842 H823 0.951 . S
C842 C840 1.388 . S
C842 C843 1.366 . S
C843 C842 1.366 . S
C843 C844 1.414 . S
C843 C846 1.499 . S
C844 H824 0.950 1_545 S
C844 C843 1.414 . S
C844 C845 1.374 . S
C845 H825 0.950 . S
C845 C841 1.385 . S
C845 C844 1.374 . S
C846 C843 1.499 . S
C846 C847 1.373 1_545 S
C846 C848 1.389 . S
C847 H826 0.950 . S
C847 C846 1.373 1_565 S
C847 C863 1.377 . S
C848 C846 1.389 . S
C848 C849 1.524 . S
C848 C862 1.377 . S
C849 C848 1.524 . S
C849 C850 1.397 . S
C849 C854 1.363 . S
C850 H827 0.948 1_545 S
C850 C849 1.397 . S
C850 C851 1.334 . S
C851 H828 0.950 . S
C851 C850 1.334 . S
C851 C852 1.287 . S
C852 C851 1.287 . S
C852 C853 1.524 . S
C852 H871 0.913 . S
C853 H829 0.950 . S
C853 C852 1.524 . S
C853 C854 1.415 . S
C854 H830 0.950 . S
C854 C849 1.363 . S
C854 C853 1.415 . S
C855 H831 0.951 . S
C855 C856 1.366 . S
C855 C857 1.388 . S
C856 C855 1.366 . S
C856 C860 1.385 . S
C857 H832 0.951 . S
C857 C855 1.388 . S
C857 C858 1.366 . S
C858 C857 1.366 . S
C858 C859 1.414 . S
C858 C861 1.499 . S
C859 H833 0.950 1_565 S
C859 C858 1.414 . S
C859 C860 1.374 . S
C860 H834 0.950 . S
C860 C856 1.385 . S
C860 C859 1.374 . S
C861 C858 1.499 . S
C861 C862 1.373 1_565 S
C861 C863 1.389 . S
C862 H835 0.950 . S
C862 C848 1.377 . S
C862 C861 1.373 1_545 S
C863 C847 1.377 . S
C863 C861 1.389 . S
C863 C864 1.524 . S
C864 C863 1.524 . S
C864 C865 1.397 . S
C864 C869 1.363 . S
C865 H836 0.948 1_565 S
C865 C864 1.397 . S
C865 C866 1.334 . S
C866 H837 0.950 . S
C866 C865 1.334 . S
C866 C867 1.287 . S
C867 C866 1.287 . S
C867 C868 1.524 . S
C867 H870 0.999 . S
C868 H838 0.950 . S
C868 C867 1.524 . S
C868 C869 1.415 . S
C869 H839 0.950 . S
C869 C864 1.363 . S
C869 C868 1.415 . S
H870 C867 0.999 . S
H871 C852 0.913 . S
H872 C890 0.951 . S
H873 C892 0.951 . S
H874 C894 0.950 . S
H875 C895 0.950 . S
H876 C897 0.950 . S
H877 C900 0.950 . S
H878 C901 0.950 . S
H879 C903 0.950 . S
H880 C904 0.950 . S
H881 C905 0.945 1_566 S
H882 C907 0.951 . S
H883 C909 0.950 . S
H884 C910 0.950 1_565 S
H885 C912 0.950 . S
H886 C915 0.950 . S
H887 C916 0.950 . S
H888 C918 0.950 . S
H889 C919 0.950 . S
C890 H872 0.951 . S
C890 C891 1.366 . S
C890 C892 1.388 . S
C891 C890 1.366 . S
C891 C895 1.385 . S
C892 H873 0.951 . S
C892 C890 1.388 . S
C892 C893 1.366 . S
C893 C892 1.366 . S
C893 C894 1.414 . S
C893 C896 1.499 . S
C894 H874 0.950 . S
C894 C893 1.414 . S
C894 C895 1.374 . S
C895 H875 0.950 . S
C895 C891 1.385 . S
C895 C894 1.374 . S
C896 C893 1.499 . S
C896 C897 1.373 . S
C896 C898 1.389 . S
C897 H876 0.950 . S
C897 C896 1.373 . S
C897 C913 1.377 . S
C898 C896 1.389 . S
C898 C899 1.524 . S
C898 C912 1.377 . S
C899 C898 1.524 . S
C899 C900 1.397 . S
C899 C904 1.363 . S
C900 H877 0.950 . S
C900 C899 1.397 . S
C900 C901 1.334 . S
C901 H878 0.950 . S
C901 C900 1.334 . S
C901 C902 1.287 . S
C902 C901 1.287 . S
C902 C903 1.524 . S
C902 H921 0.913 . S
C903 H879 0.950 . S
C903 C902 1.524 . S
C903 C904 1.415 . S
C904 H880 0.950 . S
C904 C899 1.363 . S
C904 C903 1.415 . S
C905 H881 0.945 1_544 S
C905 C906 1.360 1_545 S
C905 C907 1.399 . S
C906 C905 1.360 1_565 S
C906 C910 1.385 1_565 S
C907 H882 0.951 . S
C907 C905 1.399 . S
C907 C908 1.366 . S
C908 C907 1.366 . S
C908 C909 1.414 . S
C908 C911 1.499 . S
C909 H883 0.950 . S
C909 C908 1.414 . S
C909 C910 1.374 . S
C910 H884 0.950 1_545 S
C910 C906 1.385 1_545 S
C910 C909 1.374 . S
C911 C908 1.499 . S
C911 C912 1.373 . S
C911 C913 1.389 . S
C912 H885 0.950 . S
C912 C898 1.377 . S
C912 C911 1.373 . S
C913 C897 1.377 . S
C913 C911 1.389 . S
C913 C914 1.524 . S
C914 C913 1.524 . S
C914 C915 1.397 . S
C914 C919 1.363 . S
C915 H886 0.950 . S
C915 C914 1.397 . S
C915 C916 1.334 1_545 S
C916 H887 0.950 . S
C916 C915 1.334 1_565 S
C916 C917 1.287 . S
C917 C916 1.287 . S
C917 C918 1.524 1_565 S
C917 H920 0.999 . S
C918 H888 0.950 . S
C918 C917 1.524 1_545 S
C918 C919 1.415 . S
C919 H889 0.950 . S
C919 C914 1.363 . S
C919 C918 1.415 . S
H920 C917 0.999 . S
H921 C902 0.913 . S
H922 C940 0.951 . S
H923 C942 0.951 . S
H924 C944 0.943 1_455 S
H925 C945 0.950 . S
H926 C947 0.950 . S
H927 C950 0.950 . S
H928 C951 0.950 . S
H929 C953 0.950 . S
H930 C954 0.950 . S
H931 C955 0.951 . S
H932 C957 0.951 . S
H933 C959 0.950 . S
H934 C960 0.950 . S
H935 C962 0.950 . S
H936 C965 0.950 . S
H937 C966 0.950 . S
H938 C968 0.950 . S
H939 C969 0.950 . S
C940 H922 0.951 . S
C940 C941 1.366 1_655 S
C940 C942 1.388 . S
C941 C940 1.366 1_455 S
C941 C945 1.385 . S
C942 H923 0.951 . S
C942 C940 1.388 . S
C942 C943 1.366 . S
C943 C942 1.366 . S
C943 C944 1.414 . S
C943 C946 1.499 . S
C944 H924 0.943 1_655 S
C944 C943 1.414 . S
C944 C945 1.374 1_655 S
C945 H925 0.950 . S
C945 C941 1.385 . S
C945 C944 1.374 1_455 S
C946 C943 1.499 . S
C946 C947 1.373 . S
C946 C948 1.389 . S
C947 H926 0.950 . S
C947 C946 1.373 . S
C947 C963 1.377 . S
C948 C946 1.389 . S
C948 C949 1.524 . S
C948 C962 1.377 . S
C949 C948 1.524 . S
C949 C950 1.397 . S
C949 C954 1.363 . S
C950 H927 0.950 . S
C950 C949 1.397 . S
C950 C951 1.334 . S
C951 H928 0.950 . S
C951 C950 1.334 . S
C951 C952 1.287 . S
C952 C951 1.287 . S
C952 C953 1.524 . S
C952 H971 0.913 . S
C953 H929 0.950 . S
C953 C952 1.524 . S
C953 C954 1.415 . S
C954 H930 0.950 . S
C954 C949 1.363 . S
C954 C953 1.415 . S
C955 H931 0.951 . S
C955 C956 1.366 . S
C955 C957 1.388 . S
C956 C955 1.366 . S
C956 C960 1.385 . S
C957 H932 0.951 . S
C957 C955 1.388 . S
C957 C958 1.366 . S
C958 C957 1.366 . S
C958 C959 1.414 . S
C958 C961 1.499 . S
C959 H933 0.950 . S
C959 C958 1.414 . S
C959 C960 1.374 . S
C960 H934 0.950 . S
C960 C956 1.385 . S
C960 C959 1.374 . S
C961 C958 1.499 . S
C961 C962 1.373 . S
C961 C963 1.389 . S
C962 H935 0.950 . S
C962 C948 1.377 . S
C962 C961 1.373 . S
C963 C947 1.377 . S
C963 C961 1.389 . S
C963 C964 1.524 . S
C964 C963 1.524 . S
C964 C965 1.397 . S
C964 C969 1.363 . S
C965 H936 0.950 . S
C965 C964 1.397 . S
C965 C966 1.334 . S
C966 H937 0.950 . S
C966 C965 1.334 . S
C966 C967 1.287 . S
C967 C966 1.287 . S
C967 C968 1.524 . S
C967 H970 0.999 . S
C968 H938 0.950 . S
C968 C967 1.524 . S
C968 C969 1.415 . S
C969 H939 0.950 . S
C969 C964 1.363 . S
C969 C968 1.415 . S
H970 C967 0.999 . S
H971 C952 0.913 . S
H972 C990 0.951 1_545 S
H973 C992 0.951 . S
H974 C994 0.950 . S
H975 C995 0.950 . S
H976 C997 0.950 . S
H977 C1000 0.950 . S
H978 C1001 0.950 . S
H979 C1003 0.950 . S
H980 C1004 0.950 . S
H981 C1005 0.951 . S
H982 C1007 0.951 . S
H983 C1009 0.950 . S
H984 C1010 0.950 . S
H985 C1012 0.950 . S
H986 C1015 0.950 . S
H987 C1016 0.950 . S
H988 C1018 0.950 . S
H989 C1019 0.950 . S
C990 H972 0.951 1_565 S
C990 C991 1.366 1_565 S
C990 C992 1.388 . S
C991 C990 1.366 1_545 S
C991 C995 1.385 . S
C992 H973 0.951 . S
C992 C990 1.388 . S
C992 C993 1.366 . S
C993 C992 1.366 . S
C993 C994 1.414 . S
C993 C996 1.499 . S
C994 H974 0.950 . S
C994 C993 1.414 . S
C994 C995 1.374 1_565 S
C995 H975 0.950 . S
C995 C991 1.385 . S
C995 C994 1.374 1_545 S
C996 C993 1.499 . S
C996 C997 1.373 . S
C996 C998 1.389 . S
C997 H976 0.950 . S
C997 C996 1.373 . S
C997 C1013 1.377 . S
C998 C996 1.389 . S
C998 C999 1.524 . S
C998 C1012 1.377 . S
C999 C998 1.524 . S
C999 C1000 1.397 . S
C999 C1004 1.363 . S
C1000 H977 0.950 . S
C1000 C999 1.397 . S
C1000 C1001 1.334 . S
C1001 H978 0.950 . S
C1001 C1000 1.334 . S
C1001 C1002 1.287 . S
C1002 C1001 1.287 . S
C1002 C1003 1.524 . S
C1002 H1021 0.913 . S
C1003 H979 0.950 . S
C1003 C1002 1.524 . S
C1003 C1004 1.415 . S
C1004 H980 0.950 . S
C1004 C999 1.363 . S
C1004 C1003 1.415 . S
C1005 H981 0.951 . S
C1005 C1006 1.366 . S
C1005 C1007 1.388 . S
C1006 C1005 1.366 . S
C1006 C1010 1.385 . S
C1007 H982 0.951 . S
C1007 C1005 1.388 . S
C1007 C1008 1.366 . S
C1008 C1007 1.366 . S
C1008 C1009 1.414 . S
C1008 C1011 1.499 . S
C1009 H983 0.950 . S
C1009 C1008 1.414 . S
C1009 C1010 1.374 . S
C1010 H984 0.950 . S
C1010 C1006 1.385 . S
C1010 C1009 1.374 . S
C1011 C1008 1.499 . S
C1011 C1012 1.373 . S
C1011 C1013 1.389 . S
C1012 H985 0.950 . S
C1012 C998 1.377 . S
C1012 C1011 1.373 . S
C1013 C997 1.377 . S
C1013 C1011 1.389 . S
C1013 C1014 1.524 . S
C1014 C1013 1.524 . S
C1014 C1015 1.397 . S
C1014 C1019 1.363 . S
C1015 H986 0.950 . S
C1015 C1014 1.397 . S
C1015 C1016 1.334 . S
C1016 H987 0.950 . S
C1016 C1015 1.334 . S
C1016 C1017 1.287 . S
C1017 C1016 1.287 . S
C1017 C1018 1.524 . S
C1017 H1020 0.999 . S
C1018 H988 0.950 . S
C1018 C1017 1.524 . S
C1018 C1019 1.415 . S
C1019 H989 0.950 . S
C1019 C1014 1.363 . S
C1019 C1018 1.415 . S
H1020 C1017 0.999 . S
H1021 C1002 0.913 . S
H1022 C1040 0.951 . S
H1023 C1042 0.951 . S
H1024 C1044 0.950 . S
H1025 C1045 0.950 . S
H1026 C1047 0.950 . S
H1027 C1050 0.950 . S
H1028 C1051 0.950 . S
H1029 C1053 0.950 . S
H1030 C1054 0.950 . S
H1031 C1055 0.951 . S
H1032 C1057 0.951 . S
H1033 C1059 0.950 . S
H1034 C1060 0.950 . S
H1035 C1062 0.950 . S
H1036 C1065 0.950 . S
H1037 C1066 0.950 . S
H1038 C1068 0.950 . S
H1039 C1069 0.950 . S
C1040 H1022 0.951 . S
C1040 C1041 1.366 . S
C1040 C1042 1.388 1_655 S
C1041 C1040 1.366 . S
C1041 C1045 1.385 1_655 S
C1042 H1023 0.951 . S
C1042 C1040 1.388 1_455 S
C1042 C1043 1.366 . S
C1043 C1042 1.366 . S
C1043 C1044 1.414 . S
C1043 C1046 1.499 . S
C1044 H1024 0.950 . S
C1044 C1043 1.414 . S
C1044 C1045 1.374 . S
C1045 H1025 0.950 . S
C1045 C1041 1.385 1_455 S
C1045 C1044 1.374 . S
C1046 C1043 1.499 . S
C1046 C1047 1.373 . S
C1046 C1048 1.389 . S
C1047 H1026 0.950 . S
C1047 C1046 1.373 . S
C1047 C1063 1.377 . S
C1048 C1046 1.389 . S
C1048 C1049 1.524 . S
C1048 C1062 1.377 . S
C1049 C1048 1.524 . S
C1049 C1050 1.397 . S
C1049 C1054 1.363 . S
C1050 H1027 0.950 . S
C1050 C1049 1.397 . S
C1050 C1051 1.334 . S
C1051 H1028 0.950 . S
C1051 C1050 1.334 . S
C1051 C1052 1.287 . S
C1052 C1051 1.287 . S
C1052 C1053 1.524 . S
C1052 H1071 0.913 . S
C1053 H1029 0.950 . S
C1053 C1052 1.524 . S
C1053 C1054 1.415 . S
C1054 H1030 0.950 . S
C1054 C1049 1.363 . S
C1054 C1053 1.415 . S
C1055 H1031 0.951 . S
C1055 C1056 1.366 . S
C1055 C1057 1.388 . S
C1056 C1055 1.366 . S
C1056 C1060 1.385 . S
C1057 H1032 0.951 . S
C1057 C1055 1.388 . S
C1057 C1058 1.366 . S
C1058 C1057 1.366 . S
C1058 C1059 1.414 . S
C1058 C1061 1.499 . S
C1059 H1033 0.950 . S
C1059 C1058 1.414 . S
C1059 C1060 1.374 . S
C1060 H1034 0.950 . S
C1060 C1056 1.385 . S
C1060 C1059 1.374 . S
C1061 C1058 1.499 . S
C1061 C1062 1.373 . S
C1061 C1063 1.389 . S
C1062 H1035 0.950 . S
C1062 C1048 1.377 . S
C1062 C1061 1.373 . S
C1063 C1047 1.377 . S
C1063 C1061 1.389 . S
C1063 C1064 1.524 . S
C1064 C1063 1.524 . S
C1064 C1065 1.397 . S
C1064 C1069 1.363 . S
C1065 H1036 0.950 . S
C1065 C1064 1.397 . S
C1065 C1066 1.334 . S
C1066 H1037 0.950 . S
C1066 C1065 1.334 . S
C1066 C1067 1.287 . S
C1067 C1066 1.287 . S
C1067 C1068 1.524 . S
C1067 H1070 0.999 . S
C1068 H1038 0.950 . S
C1068 C1067 1.524 . S
C1068 C1069 1.415 . S
C1069 H1039 0.950 . S
C1069 C1064 1.363 . S
C1069 C1068 1.415 . S
H1070 C1067 0.999 . S
H1071 C1052 0.913 . S
H1072 C1090 0.951 . S
H1073 C1092 0.951 . S
H1074 C1094 0.950 . S
H1075 C1095 0.950 . S
H1076 C1097 0.950 . S
H1077 C1100 0.950 . S
H1078 C1101 0.950 . S
H1079 C1103 0.950 . S
H1080 C1104 0.950 . S
H1081 C1105 0.960 . S
H1082 C1107 0.951 . S
H1083 C1109 0.950 . S
H1084 C1110 0.950 1_545 S
H1085 C1112 0.950 . S
H1086 C1115 0.952 . S
H1087 C1116 0.950 . S
H1088 C1118 0.950 1_545 S
H1089 C1119 0.950 . S
C1090 H1072 0.951 . S
C1090 C1091 1.366 . S
C1090 C1092 1.388 . S
C1091 C1090 1.366 . S
C1091 C1095 1.385 . S
C1092 H1073 0.951 . S
C1092 C1090 1.388 . S
C1092 C1093 1.366 . S
C1093 C1092 1.366 . S
C1093 C1094 1.414 . S
C1093 C1096 1.499 . S
C1094 H1074 0.950 . S
C1094 C1093 1.414 . S
C1094 C1095 1.374 . S
C1095 H1075 0.950 . S
C1095 C1091 1.385 . S
C1095 C1094 1.374 . S
C1096 C1093 1.499 . S
C1096 C1097 1.373 . S
C1096 C1098 1.389 . S
C1097 H1076 0.950 . S
C1097 C1096 1.373 . S
C1097 C1113 1.377 . S
C1098 C1096 1.389 . S
C1098 C1099 1.524 . S
C1098 C1112 1.377 . S
C1099 C1098 1.524 . S
C1099 C1100 1.397 . S
C1099 C1104 1.363 . S
C1100 H1077 0.950 . S
C1100 C1099 1.397 . S
C1100 C1101 1.334 . S
C1101 H1078 0.950 . S
C1101 C1100 1.334 . S
C1101 C1102 1.287 . S
C1102 C1101 1.287 . S
C1102 C1103 1.524 . S
C1102 H1121 0.913 . S
C1103 H1079 0.950 . S
C1103 C1102 1.524 . S
C1103 C1104 1.415 . S
C1104 H1080 0.950 . S
C1104 C1099 1.363 . S
C1104 C1103 1.415 . S
C1105 H1081 0.960 . S
C1105 C1106 1.373 . S
C1105 C1107 1.372 1_545 S
C1106 C1105 1.373 . S
C1106 C1110 1.385 1_545 S
C1107 H1082 0.951 . S
C1107 C1105 1.372 1_565 S
C1107 C1108 1.366 . S
C1108 C1107 1.366 . S
C1108 C1109 1.414 . S
C1108 C1111 1.499 . S
C1109 H1083 0.950 . S
C1109 C1108 1.414 . S
C1109 C1110 1.374 . S
C1110 H1084 0.950 1_565 S
C1110 C1106 1.385 1_565 S
C1110 C1109 1.374 . S
C1111 C1108 1.499 . S
C1111 C1112 1.373 . S
C1111 C1113 1.389 . S
C1112 H1085 0.950 . S
C1112 C1098 1.377 . S
C1112 C1111 1.373 . S
C1113 C1097 1.377 . S
C1113 C1111 1.389 . S
C1113 C1114 1.524 . S
C1114 C1113 1.524 . S
C1114 C1115 1.425 . S
C1114 C1119 1.363 . S
C1115 H1086 0.952 . S
C1115 C1114 1.425 . S
C1115 C1116 1.304 1_565 S
C1116 H1087 0.950 . S
C1116 C1115 1.304 1_545 S
C1116 C1117 1.287 . S
C1117 C1116 1.287 . S
C1117 C1118 1.526 1_545 S
C1117 H1120 0.999 . S
C1118 H1088 0.950 1_565 S
C1118 C1117 1.526 1_565 S
C1118 C1119 1.413 . S
C1119 H1089 0.950 . S
C1119 C1114 1.363 . S
C1119 C1118 1.413 . S
H1120 C1117 0.999 . S
H1121 C1102 0.913 . S
H1122 C1140 0.951 . S
H1123 C1142 0.951 . S
H1124 C1144 0.950 . S
H1125 C1145 0.950 . S
H1126 C1147 0.950 . S
H1127 C1150 0.950 . S
H1128 C1151 0.950 . S
H1129 C1153 0.950 . S
H1130 C1154 0.950 . S
H1131 C1155 0.951 . S
H1132 C1157 0.951 . S
H1133 C1159 0.950 . S
H1134 C1160 0.950 . S
H1135 C1162 0.950 . S
H1136 C1165 0.950 . S
H1137 C1166 0.950 . S
H1138 C1168 0.950 . S
H1139 C1169 0.950 . S
C1140 H1122 0.951 . S
C1140 C1141 1.366 . S
C1140 C1142 1.388 . S
C1141 C1140 1.366 . S
C1141 C1145 1.385 . S
C1142 H1123 0.951 . S
C1142 C1140 1.388 . S
C1142 C1143 1.366 . S
C1143 C1142 1.366 . S
C1143 C1144 1.414 . S
C1143 C1146 1.499 . S
C1144 H1124 0.950 . S
C1144 C1143 1.414 . S
C1144 C1145 1.374 . S
C1145 H1125 0.950 . S
C1145 C1141 1.385 . S
C1145 C1144 1.374 . S
C1146 C1143 1.499 . S
C1146 C1147 1.373 . S
C1146 C1148 1.389 . S
C1147 H1126 0.950 . S
C1147 C1146 1.373 . S
C1147 C1163 1.377 . S
C1148 C1146 1.389 . S
C1148 C1149 1.524 . S
C1148 C1162 1.377 . S
C1149 C1148 1.524 . S
C1149 C1150 1.397 . S
C1149 C1154 1.363 . S
C1150 H1127 0.950 . S
C1150 C1149 1.397 . S
C1150 C1151 1.334 . S
C1151 H1128 0.950 . S
C1151 C1150 1.334 . S
C1151 C1152 1.287 . S
C1152 C1151 1.287 . S
C1152 C1153 1.524 . S
C1152 H1171 0.913 . S
C1153 H1129 0.950 . S
C1153 C1152 1.524 . S
C1153 C1154 1.415 . S
C1154 H1130 0.950 . S
C1154 C1149 1.363 . S
C1154 C1153 1.415 . S
C1155 H1131 0.951 . S
C1155 C1156 1.366 1_455 S
C1155 C1157 1.388 . S
C1156 C1155 1.366 1_655 S
C1156 C1160 1.385 . S
C1157 H1132 0.951 . S
C1157 C1155 1.388 . S
C1157 C1158 1.366 . S
C1158 C1157 1.366 . S
C1158 C1159 1.414 . S
C1158 C1161 1.499 . S
C1159 H1133 0.950 . S
C1159 C1158 1.414 . S
C1159 C1160 1.374 1_455 S
C1160 H1134 0.950 . S
C1160 C1156 1.385 . S
C1160 C1159 1.374 1_655 S
C1161 C1158 1.499 . S
C1161 C1162 1.373 . S
C1161 C1163 1.389 . S
C1162 H1135 0.950 . S
C1162 C1148 1.377 . S
C1162 C1161 1.373 . S
C1163 C1147 1.377 . S
C1163 C1161 1.389 . S
C1163 C1164 1.524 . S
C1164 C1163 1.524 . S
C1164 C1165 1.397 . S
C1164 C1169 1.363 . S
C1165 H1136 0.950 . S
C1165 C1164 1.397 . S
C1165 C1166 1.334 . S
C1166 H1137 0.950 . S
C1166 C1165 1.334 . S
C1166 C1167 1.287 . S
C1167 C1166 1.287 . S
C1167 C1168 1.524 . S
C1167 H1170 0.999 . S
C1168 H1138 0.950 . S
C1168 C1167 1.524 . S
C1168 C1169 1.415 . S
C1169 H1139 0.950 . S
C1169 C1164 1.363 . S
C1169 C1168 1.415 . S
H1170 C1167 0.999 . S
H1171 C1152 0.913 . S
H1172 C1190 0.951 . S
H1173 C1192 0.951 . S
H1174 C1194 0.950 . S
H1175 C1195 0.950 . S
H1176 C1197 0.950 . S
H1177 C1200 0.950 . S
H1178 C1201 0.950 . S
H1179 C1203 0.950 . S
H1180 C1204 0.950 . S
H1181 C1205 0.951 1_554 S
H1182 C1207 0.951 . S
H1183 C1209 0.945 1_565 S
H1184 C1210 0.950 . S
H1185 C1212 0.950 . S
H1186 C1215 0.950 . S
H1187 C1216 0.950 . S
H1188 C1218 0.950 . S
H1189 C1219 0.950 . S
C1190 H1172 0.951 . S
C1190 C1191 1.366 . S
C1190 C1192 1.388 . S
C1191 C1190 1.366 . S
C1191 C1195 1.385 . S
C1192 H1173 0.951 . S
C1192 C1190 1.388 . S
C1192 C1193 1.366 . S
C1193 C1192 1.366 . S
C1193 C1194 1.414 . S
C1193 C1196 1.499 . S
C1194 H1174 0.950 . S
C1194 C1193 1.414 . S
C1194 C1195 1.374 . S
C1195 H1175 0.950 . S
C1195 C1191 1.385 . S
C1195 C1194 1.374 . S
C1196 C1193 1.499 . S
C1196 C1197 1.373 . S
C1196 C1198 1.389 . S
C1197 H1176 0.950 . S
C1197 C1196 1.373 . S
C1197 C1213 1.377 . S
C1198 C1196 1.389 . S
C1198 C1199 1.524 . S
C1198 C1212 1.377 . S
C1199 C1198 1.524 . S
C1199 C1200 1.397 . S
C1199 C1204 1.363 . S
C1200 H1177 0.950 . S
C1200 C1199 1.397 . S
C1200 C1201 1.334 . S
C1201 H1178 0.950 . S
C1201 C1200 1.334 . S
C1201 C1202 1.287 . S
C1202 C1201 1.287 . S
C1202 C1203 1.524 . S
C1202 H1221 0.913 . S
C1203 H1179 0.950 . S
C1203 C1202 1.524 . S
C1203 C1204 1.415 . S
C1204 H1180 0.950 . S
C1204 C1199 1.363 . S
C1204 C1203 1.415 . S
C1205 H1181 0.951 1_556 S
C1205 C1206 1.366 1_545 S
C1205 C1207 1.388 . S
C1206 C1205 1.366 1_565 S
C1206 C1210 1.385 . S
C1207 H1182 0.951 . S
C1207 C1205 1.388 . S
C1207 C1208 1.366 . S
C1208 C1207 1.366 . S
C1208 C1209 1.414 . S
C1208 C1211 1.499 . S
C1209 H1183 0.945 1_545 S
C1209 C1208 1.414 . S
C1209 C1210 1.374 1_545 S
C1210 H1184 0.950 . S
C1210 C1206 1.385 . S
C1210 C1209 1.374 1_565 S
C1211 C1208 1.499 . S
C1211 C1212 1.373 . S
C1211 C1213 1.389 . S
C1212 H1185 0.950 . S
C1212 C1198 1.377 . S
C1212 C1211 1.373 . S
C1213 C1197 1.377 . S
C1213 C1211 1.389 . S
C1213 C1214 1.524 . S
C1214 C1213 1.524 . S
C1214 C1215 1.397 . S
C1214 C1219 1.363 . S
C1215 H1186 0.950 . S
C1215 C1214 1.397 . S
C1215 C1216 1.334 1_556 S
C1216 H1187 0.950 . S
C1216 C1215 1.334 1_554 S
C1216 C1217 1.287 . S
C1217 C1216 1.287 . S
C1217 C1218 1.524 . S
C1217 H1220 0.999 . S
C1218 H1188 0.950 . S
C1218 C1217 1.524 . S
C1218 C1219 1.415 1_554 S
C1219 H1189 0.950 . S
C1219 C1214 1.363 . S
C1219 C1218 1.415 1_556 S
H1220 C1217 0.999 . S
H1221 C1202 0.913 . S
H1222 C1240 0.951 . S
H1223 C1242 0.957 . S
H1224 C1244 0.950 . S
H1225 C1245 0.950 . S
H1226 C1247 0.950 . S
H1227 C1250 0.950 . S
H1228 C1251 0.950 . S
H1229 C1253 0.936 1_455 S
H1230 C1254 0.950 . S
H1231 C1255 0.951 . S
H1232 C1257 0.951 . S
H1233 C1259 0.950 . S
H1234 C1260 0.950 . S
H1235 C1262 0.950 . S
H1236 C1265 0.950 . S
H1237 C1266 0.950 . S
H1238 C1268 0.950 . S
H1239 C1269 0.950 . S
C1240 H1222 0.951 . S
C1240 C1241 1.366 . S
C1240 C1242 1.388 1_455 S
C1241 C1240 1.366 . S
C1241 C1245 1.385 1_455 S
C1242 H1223 0.957 . S
C1242 C1240 1.388 1_655 S
C1242 C1243 1.366 . S
C1243 C1242 1.366 . S
C1243 C1244 1.414 . S
C1243 C1246 1.499 . S
C1244 H1224 0.950 . S
C1244 C1243 1.414 . S
C1244 C1245 1.374 . S
C1245 H1225 0.950 . S
C1245 C1241 1.385 1_655 S
C1245 C1244 1.374 . S
C1246 C1243 1.499 . S
C1246 C1247 1.373 . S
C1246 C1248 1.389 . S
C1247 H1226 0.950 . S
C1247 C1246 1.373 . S
C1247 C1263 1.377 . S
C1248 C1246 1.389 . S
C1248 C1249 1.524 . S
C1248 C1262 1.377 . S
C1249 C1248 1.524 . S
C1249 C1250 1.397 . S
C1249 C1254 1.363 . S
C1250 H1227 0.950 . S
C1250 C1249 1.397 . S
C1250 C1251 1.334 . S
C1251 H1228 0.950 . S
C1251 C1250 1.334 . S
C1251 C1252 1.287 . S
C1252 C1251 1.287 . S
C1252 C1253 1.524 . S
C1252 H1271 0.913 . S
C1253 H1229 0.936 1_655 S
C1253 C1252 1.524 . S
C1253 C1254 1.415 . S
C1254 H1230 0.950 . S
C1254 C1249 1.363 . S
C1254 C1253 1.415 . S
C1255 H1231 0.951 . S
C1255 C1256 1.366 . S
C1255 C1257 1.388 . S
C1256 C1255 1.366 . S
C1256 C1260 1.385 . S
C1257 H1232 0.951 . S
C1257 C1255 1.388 . S
C1257 C1258 1.366 . S
C1258 C1257 1.366 . S
C1258 C1259 1.414 . S
C1258 C1261 1.499 . S
C1259 H1233 0.950 . S
C1259 C1258 1.414 . S
C1259 C1260 1.374 . S
C1260 H1234 0.950 . S
C1260 C1256 1.385 . S
C1260 C1259 1.374 . S
C1261 C1258 1.499 . S
C1261 C1262 1.373 . S
C1261 C1263 1.389 . S
C1262 H1235 0.950 . S
C1262 C1248 1.377 . S
C1262 C1261 1.373 . S
C1263 C1247 1.377 . S
C1263 C1261 1.389 . S
C1263 C1264 1.524 . S
C1264 C1263 1.524 . S
C1264 C1265 1.397 . S
C1264 C1269 1.363 . S
C1265 H1236 0.950 . S
C1265 C1264 1.397 . S
C1265 C1266 1.334 . S
C1266 H1237 0.950 . S
C1266 C1265 1.334 . S
C1266 C1267 1.287 . S
C1267 C1266 1.287 . S
C1267 C1268 1.524 . S
C1267 H1270 0.999 . S
C1268 H1238 0.950 . S
C1268 C1267 1.524 . S
C1268 C1269 1.415 . S
C1269 H1239 0.950 . S
C1269 C1264 1.363 . S
C1269 C1268 1.415 . S
H1270 C1267 0.999 . S
H1271 C1252 0.913 . S
C291 C138 0.991 . S
C306 C2 0.990 . S
C341 C36 0.990 . S
C356 C172 0.991 . S
C391 C70 0.991 . S
C406 C206 0.991 . S
C441 C104 0.991 . S
C456 C240 0.991 . S
C491 C175 0.632 . S
C506 C5 0.632 . S
C541 C39 0.632 . S
C556 C209 0.632 . S
C591 C243 0.632 . S
C606 C73 0.632 . S
C641 C107 0.632 . S
C656 C141 0.632 . S
C691 C9 0.688 . S
C706 C213 0.691 . S
C741 C247 0.691 . S
C756 C43 0.689 . S
C791 C77 0.691 . S
C806 C145 0.688 . S
C841 C179 0.688 . S
C856 C111 0.691 . S
C891 C20 2.423 . S
C906 C135 2.426 1_554 S
C941 C33 2.426 . S
C956 C54 2.423 . S
C991 C67 2.426 . S
C1006 C88 2.423 . S
C1041 C101 2.426 . S
C1056 C122 2.423 . S
C1091 C156 2.423 . S
C1106 C203 2.426 . S
C1141 C190 2.423 . S
C1156 C237 2.426 . S
C1191 C224 2.423 . S
C1206 C271 2.426 1_556 S
C1241 C169 2.426 . S
C1256 C258 2.423 . S
