# Generated by pormake.
# Topology whw, (6)-cn, num edge types: 1
# Building blocks:
#     Node 0, Type 0, BuildingBlock: KUMBOL_clean_sbu_0, # of connection points: 6
#     Node 1, Type 0, BuildingBlock: KUMBOL_clean_sbu_0, # of connection points: 6
#     Node 2, Type 0, BuildingBlock: KUMBOL_clean_sbu_0, # of connection points: 6
#     Node 3, Type 0, BuildingBlock: KUMBOL_clean_sbu_0, # of connection points: 6
#     Node 4, Type 0, BuildingBlock: KUMBOL_clean_sbu_0, # of connection points: 6
#     Node 5, Type 0, BuildingBlock: KUMBOL_clean_sbu_0, # of connection points: 6
#     Node 6, Type 0, BuildingBlock: KUMBOL_clean_sbu_0, # of connection points: 6
#     Node 7, Type 0, BuildingBlock: KUMBOL_clean_sbu_0, # of connection points: 6
#     Node 8, Type 0, BuildingBlock: KUMBOL_clean_sbu_0, # of connection points: 6
#     Node 9, Type 0, BuildingBlock: KUMBOL_clean_sbu_0, # of connection points: 6
#     Node 10, Type 0, BuildingBlock: KUMBOL_clean_sbu_0, # of connection points: 6
#     Node 11, Type 0, BuildingBlock: KUMBOL_clean_sbu_0, # of connection points: 6
#     Node 12, Type 0, BuildingBlock: KUMBOL_clean_sbu_0, # of connection points: 6
#     Node 13, Type 0, BuildingBlock: KUMBOL_clean_sbu_0, # of connection points: 6
#     Node 14, Type 0, BuildingBlock: KUMBOL_clean_sbu_0, # of connection points: 6
#     Node 15, Type 0, BuildingBlock: KUMBOL_clean_sbu_0, # of connection points: 6
#     Edge 16, Type (0, 0), BuildingBlock: UVAHIK_clean_linker_0, # of connection points: 2
#     Edge 17, Type (0, 0), BuildingBlock: UVAHIK_clean_linker_0, # of connection points: 2
#     Edge 18, Type (0, 0), BuildingBlock: UVAHIK_clean_linker_0, # of connection points: 2
#     Edge 19, Type (0, 0), BuildingBlock: UVAHIK_clean_linker_0, # of connection points: 2
#     Edge 20, Type (0, 0), BuildingBlock: UVAHIK_clean_linker_0, # of connection points: 2
#     Edge 21, Type (0, 0), BuildingBlock: UVAHIK_clean_linker_0, # of connection points: 2
#     Edge 22, Type (0, 0), BuildingBlock: UVAHIK_clean_linker_0, # of connection points: 2
#     Edge 23, Type (0, 0), BuildingBlock: UVAHIK_clean_linker_0, # of connection points: 2
#     Edge 24, Type (0, 0), BuildingBlock: UVAHIK_clean_linker_0, # of connection points: 2
#     Edge 25, Type (0, 0), BuildingBlock: UVAHIK_clean_linker_0, # of connection points: 2
#     Edge 26, Type (0, 0), BuildingBlock: UVAHIK_clean_linker_0, # of connection points: 2
#     Edge 27, Type (0, 0), BuildingBlock: UVAHIK_clean_linker_0, # of connection points: 2
#     Edge 28, Type (0, 0), BuildingBlock: UVAHIK_clean_linker_0, # of connection points: 2
#     Edge 29, Type (0, 0), BuildingBlock: UVAHIK_clean_linker_0, # of connection points: 2
#     Edge 30, Type (0, 0), BuildingBlock: UVAHIK_clean_linker_0, # of connection points: 2
#     Edge 31, Type (0, 0), BuildingBlock: UVAHIK_clean_linker_0, # of connection points: 2
#     Edge 32, Type (0, 0), BuildingBlock: UVAHIK_clean_linker_0, # of connection points: 2
#     Edge 33, Type (0, 0), BuildingBlock: UVAHIK_clean_linker_0, # of connection points: 2
#     Edge 34, Type (0, 0), BuildingBlock: UVAHIK_clean_linker_0, # of connection points: 2
#     Edge 35, Type (0, 0), BuildingBlock: UVAHIK_clean_linker_0, # of connection points: 2
#     Edge 36, Type (0, 0), BuildingBlock: UVAHIK_clean_linker_0, # of connection points: 2
#     Edge 37, Type (0, 0), BuildingBlock: UVAHIK_clean_linker_0, # of connection points: 2
#     Edge 38, Type (0, 0), BuildingBlock: UVAHIK_clean_linker_0, # of connection points: 2
#     Edge 39, Type (0, 0), BuildingBlock: UVAHIK_clean_linker_0, # of connection points: 2
#     Edge 40, Type (0, 0), BuildingBlock: UVAHIK_clean_linker_0, # of connection points: 2
#     Edge 41, Type (0, 0), BuildingBlock: UVAHIK_clean_linker_0, # of connection points: 2
#     Edge 42, Type (0, 0), BuildingBlock: UVAHIK_clean_linker_0, # of connection points: 2
#     Edge 43, Type (0, 0), BuildingBlock: UVAHIK_clean_linker_0, # of connection points: 2
#     Edge 44, Type (0, 0), BuildingBlock: UVAHIK_clean_linker_0, # of connection points: 2
#     Edge 45, Type (0, 0), BuildingBlock: UVAHIK_clean_linker_0, # of connection points: 2
#     Edge 46, Type (0, 0), BuildingBlock: UVAHIK_clean_linker_0, # of connection points: 2
#     Edge 47, Type (0, 0), BuildingBlock: UVAHIK_clean_linker_0, # of connection points: 2
#     Edge 48, Type (0, 0), BuildingBlock: UVAHIK_clean_linker_0, # of connection points: 2
#     Edge 49, Type (0, 0), BuildingBlock: UVAHIK_clean_linker_0, # of connection points: 2
#     Edge 50, Type (0, 0), BuildingBlock: UVAHIK_clean_linker_0, # of connection points: 2
#     Edge 51, Type (0, 0), BuildingBlock: UVAHIK_clean_linker_0, # of connection points: 2
#     Edge 52, Type (0, 0), BuildingBlock: UVAHIK_clean_linker_0, # of connection points: 2
#     Edge 53, Type (0, 0), BuildingBlock: UVAHIK_clean_linker_0, # of connection points: 2
#     Edge 54, Type (0, 0), BuildingBlock: UVAHIK_clean_linker_0, # of connection points: 2
#     Edge 55, Type (0, 0), BuildingBlock: UVAHIK_clean_linker_0, # of connection points: 2
#     Edge 56, Type (0, 0), BuildingBlock: UVAHIK_clean_linker_0, # of connection points: 2
#     Edge 57, Type (0, 0), BuildingBlock: UVAHIK_clean_linker_0, # of connection points: 2
#     Edge 58, Type (0, 0), BuildingBlock: UVAHIK_clean_linker_0, # of connection points: 2
#     Edge 59, Type (0, 0), BuildingBlock: UVAHIK_clean_linker_0, # of connection points: 2
#     Edge 60, Type (0, 0), BuildingBlock: UVAHIK_clean_linker_0, # of connection points: 2
#     Edge 61, Type (0, 0), BuildingBlock: UVAHIK_clean_linker_0, # of connection points: 2
#     Edge 62, Type (0, 0), BuildingBlock: UVAHIK_clean_linker_0, # of connection points: 2
#     Edge 63, Type (0, 0), BuildingBlock: UVAHIK_clean_linker_0, # of connection points: 2
# Relax obj value: 0.289
# Max RMSD: 0.252
# Mean RMSD: 0.213
data_MOF--net-whw--node1-KUMBOL_clean_sbu_0--edge1-UVAHIK_clean_linker_0
_symmetry_space_group_name_H-M    P1
_symmetry_Int_Tables_number       1
_symmetry_cell_setting            triclinic
loop_
_symmetry_equiv_pos_as_xyz
'x, y, z'
_cell_length_a     60.486945
_cell_length_b     60.389265
_cell_length_c     40.04636
_cell_angle_alpha  98.64162
_cell_angle_beta   89.285835
_cell_angle_gamma 112.61098
loop_
_atom_site_label
_atom_site_type_symbol
_atom_site_fract_x
_atom_site_fract_y
_atom_site_fract_z
_atom_type_partial_charge
Gd0 Gd 0.00262 0.12128 0.19866 0.0
Gd1 Gd 0.06192 0.16286 0.19063 0.0
C2 C 0.11935 0.16573 0.26411 0.0
C3 C 0.13493 0.20804 0.29065 0.0
C4 C 0.10084 0.19265 0.25 0.0
C5 C 0.10163 0.16965 0.24607 0.0
C6 C 0.11781 0.21214 0.2719 0.0
C7 C 0.13574 0.18494 0.2867 0.0
C8 C 0.12015 0.1426 0.25877 0.0
C9 C 0.10359 0.12405 0.23588 0.0
N10 N 0.08545 0.15123 0.22424 0.0
C11 C 0.08632 0.12873 0.21863 0.0
H12 H 0.07401 0.11446 0.20051 0.0
C13 C 0.08574 0.2194 0.23022 0.0
N14 N 0.08451 0.19632 0.23094 0.0
C15 C 0.10191 0.23913 0.25196 0.0
C16 C 0.11782 0.23545 0.27324 0.0
H17 H 0.07405 0.2225 0.21285 0.0
H18 H 0.14934 0.18219 0.30093 0.0
H19 H 0.98209 0.16793 0.19359 0.0
H20 H 0.13353 0.13891 0.27208 0.0
H21 H 0.10421 0.10617 0.23138 0.0
H22 H 0.14804 0.22279 0.30767 0.0
H23 H 0.99223 0.06226 0.16852 0.0
H24 H 0.93572 0.14739 0.10659 0.0
H25 H 0.95604 0.17642 0.1574 0.0
H26 H 0.93193 0.06878 0.05974 0.0
H27 H 0.10245 0.25722 0.25178 0.0
H28 H 0.13064 0.25086 0.28966 0.0
H29 H 0.92729 0.10775 0.0703 0.0
H30 H 0.97131 0.03132 0.12077 0.0
N31 N 0.97734 0.13299 0.16553 0.0
C32 C 0.9472 0.14312 0.1229 0.0
C33 C 0.95852 0.15946 0.15161 0.0
C34 C 0.95066 0.1214 0.11566 0.0
C35 C 0.96601 0.11669 0.13755 0.0
C36 C 0.97339 0.15413 0.17268 0.0
N37 N 0.98356 0.09033 0.1523 0.0
C38 C 0.96923 0.09491 0.13081 0.0
C39 C 0.97094 0.04925 0.12277 0.0
C40 C 0.95782 0.05435 0.09897 0.0
C41 C 0.98322 0.06725 0.14969 0.0
C42 C 0.95638 0.07714 0.10313 0.0
H43 H 0.94806 0.04025 0.07827 0.0
O44 O 0.99074 0.08808 0.21983 0.0
O45 O 0.04017 0.13627 0.22318 0.0
O46 O 0.0547 0.12873 0.15104 0.0
O47 O 0.0256 0.1006 0.17732 0.0
O48 O 0.01225 0.13201 0.25492 0.0
O49 O 0.96703 0.10741 0.21833 0.0
O50 O 0.08301 0.19193 0.16329 0.0
O51 O 0.02635 0.14371 0.16155 0.0
O52 O 0.00396 0.15716 0.22721 0.0
O53 O 0.04466 0.18205 0.22828 0.0
O54 O 0.04291 0.18134 0.16467 0.0
O55 O 0.09424 0.16229 0.16786 0.0
C56 C 0.03519 0.13858 0.25462 0.0
C57 C 0.94169 0.08215 0.08116 0.0
C58 C 0.93895 0.10427 0.08729 0.0
C59 C 0.97029 0.0892 0.22834 0.0
C60 C 0.96286 0.08337 0.26211 0.0
C61 C 0.96261 0.06147 0.27032 0.0
C62 C 0.95568 0.09865 0.28586 0.0
C63 C 0.94788 0.09167 0.31728 0.0
C64 C 0.95537 0.05484 0.30174 0.0
C65 C 0.94798 0.06979 0.32509 0.0
C66 C 0.04122 0.10582 0.15344 0.0
C67 C 0.02503 0.16222 0.15108 0.0
C68 C 0.09949 0.18315 0.15764 0.0
C69 C 0.11224 0.18689 0.12672 0.0
C70 C 0.13115 0.20933 0.12576 0.0
C71 C 0.10733 0.16798 0.09955 0.0
C72 C 0.12187 0.17132 0.07194 0.0
C73 C 0.14539 0.21275 0.09786 0.0
C74 C 0.1409 0.19373 0.07104 0.0
C75 C 0.02241 0.17789 0.23686 0.0
H76 H 0.96801 0.04943 0.25232 0.0
H77 H 0.95567 0.11555 0.27981 0.0
H78 H 0.95536 0.038 0.30793 0.0
H79 H 0.94241 0.06429 0.3494 0.0
H80 H 0.13514 0.22401 0.14688 0.0
H81 H 0.09269 0.15063 0.1002 0.0
H82 H 0.16003 0.23003 0.09717 0.0
H83 H 0.15207 0.19653 0.04944 0.0
Gd84 Gd 0.14029 0.72441 0.42416 0.0
Gd85 Gd 0.14094 0.76974 0.36638 0.0
C86 C 0.19391 0.8482 0.40016 0.0
C87 C 0.16867 0.86659 0.43044 0.0
C88 C 0.15147 0.82474 0.40173 0.0
C89 C 0.17384 0.82606 0.39245 0.0
C90 C 0.14845 0.84533 0.41961 0.0
C91 C 0.19144 0.86801 0.42076 0.0
C92 C 0.21534 0.85032 0.38476 0.0
C93 C 0.21556 0.83159 0.35988 0.0
N94 N 0.17538 0.80673 0.37203 0.0
C95 C 0.19497 0.81021 0.35284 0.0
H96 H 0.19505 0.79614 0.33269 0.0
C97 C 0.10961 0.80339 0.39401 0.0
N98 N 0.1324 0.80379 0.39114 0.0
C99 C 0.10571 0.82336 0.41138 0.0
C100 C 0.1252 0.8442 0.42504 0.0
H101 H 0.09423 0.78763 0.38303 0.0
H102 H 0.20677 0.88495 0.42765 0.0
H103 H 0.08838 0.67798 0.39688 0.0
H104 H 0.23119 0.86697 0.38998 0.0
H105 H 0.23149 0.83363 0.34593 0.0
H106 H 0.16677 0.88237 0.44492 0.0
H107 H 0.19533 0.7385 0.45882 0.0
H108 H 0.10262 0.61415 0.36572 0.0
H109 H 0.07413 0.63469 0.37294 0.0
H110 H 0.18576 0.63963 0.39824 0.0
H111 H 0.08767 0.82271 0.41411 0.0
H112 H 0.12213 0.85964 0.43851 0.0
H113 H 0.1445 0.6163 0.37463 0.0
H114 H 0.22522 0.72011 0.45994 0.0
N115 N 0.12498 0.68253 0.40237 0.0
C116 C 0.10905 0.63326 0.37624 0.0
C117 C 0.09292 0.64478 0.3803 0.0
C118 C 0.13313 0.64638 0.38684 0.0
C119 C 0.14055 0.67124 0.40032 0.0
C120 C 0.10118 0.66947 0.39375 0.0
N121 N 0.16956 0.70776 0.4279 0.0
C122 C 0.16364 0.68429 0.4135 0.0
C123 C 0.20804 0.70989 0.44652 0.0
C124 C 0.20273 0.68627 0.4299 0.0
C125 C 0.191 0.72025 0.44584 0.0
C126 C 0.18012 0.67297 0.41369 0.0
H127 H 0.21591 0.67824 0.4306 0.0
O128 O 0.14182 0.73339 0.47964 0.0
O129 O 0.14475 0.7625 0.41869 0.0
O130 O 0.17757 0.7665 0.37021 0.0
O131 O 0.17278 0.73062 0.39182 0.0
O132 O 0.16824 0.75891 0.45199 0.0
O133 O 0.11122 0.70445 0.4549 0.0
O134 O 0.11034 0.76552 0.33333 0.0
O135 O 0.1305 0.73118 0.37434 0.0
O136 O 0.1054 0.7214 0.40043 0.0
O137 O 0.10936 0.76007 0.40157 0.0
O138 O 0.14181 0.73889 0.32704 0.0
O139 O 0.14575 0.77719 0.31462 0.0
C140 C 0.16221 0.77438 0.43954 0.0
C141 C 0.17326 0.64857 0.39871 0.0
C142 C 0.14978 0.63529 0.38529 0.0
C143 C 0.12174 0.7159 0.48402 0.0
C144 C 0.12179 0.70062 0.51033 0.0
C145 C 0.13578 0.68667 0.50527 0.0
C146 C 0.10783 0.69914 0.53978 0.0
C147 C 0.10767 0.68326 0.56306 0.0
C148 C 0.13618 0.67168 0.52829 0.0
C149 C 0.12237 0.66996 0.55665 0.0
C150 C 0.18526 0.7494 0.37638 0.0
C151 C 0.13449 0.7222 0.34572 0.0
C152 C 0.12343 0.77323 0.30799 0.0
C153 C 0.11943 0.79203 0.29104 0.0
C154 C 0.12216 0.81434 0.31045 0.0
C155 C 0.11493 0.78895 0.25532 0.0
C156 C 0.11324 0.80817 0.24002 0.0
C157 C 0.11963 0.83275 0.29579 0.0
C158 C 0.11523 0.82974 0.26106 0.0
C159 C 0.09704 0.73834 0.40948 0.0
H160 H 0.14647 0.68732 0.4833 0.0
H161 H 0.09695 0.70979 0.54419 0.0
H162 H 0.14722 0.66114 0.52401 0.0
H163 H 0.12329 0.65808 0.57388 0.0
H164 H 0.12685 0.81796 0.337 0.0
H165 H 0.1136 0.77221 0.23957 0.0
H166 H 0.1216 0.84973 0.31141 0.0
H167 H 0.11368 0.8446 0.25046 0.0
Gd168 Gd 0.60886 0.88723 0.61336 0.0
Gd169 Gd 0.54677 0.85407 0.59263 0.0
C170 C 0.49272 0.83032 0.6744 0.0
C171 C 0.47704 0.78638 0.66002 0.0
C172 C 0.50723 0.8116 0.626 0.0
C173 C 0.50783 0.83236 0.64682 0.0
C174 C 0.49145 0.78841 0.63202 0.0
C175 C 0.47766 0.80729 0.68113 0.0
C176 C 0.49309 0.85149 0.69446 0.0
C177 C 0.50802 0.87399 0.68667 0.0
N178 N 0.52291 0.85447 0.64006 0.0
C179 C 0.52273 0.8752 0.65926 0.0
H180 H 0.53422 0.89299 0.65466 0.0
C181 C 0.51897 0.79409 0.57572 0.0
N182 N 0.52131 0.81406 0.59905 0.0
C183 C 0.50367 0.77082 0.5807 0.0
C184 C 0.4901 0.76792 0.60924 0.0
H185 H 0.5293 0.79572 0.55351 0.0
H186 H 0.46618 0.80545 0.7024 0.0
H187 H 0.61785 0.83496 0.57269 0.0
H188 H 0.48183 0.85066 0.71587 0.0
H189 H 0.50836 0.89051 0.70198 0.0
H190 H 0.46502 0.76873 0.66518 0.0
H191 H 0.62293 0.94637 0.60928 0.0
H192 H 0.68503 0.85932 0.52821 0.0
H193 H 0.64922 0.82626 0.54352 0.0
H194 H 0.70818 0.94494 0.53816 0.0
H195 H 0.50242 0.75514 0.56252 0.0
H196 H 0.47823 0.74985 0.61304 0.0
H197 H 0.70674 0.90334 0.52636 0.0
H198 H 0.65572 0.98034 0.59107 0.0
N199 N 0.63564 0.87396 0.57861 0.0
C200 C 0.67131 0.86362 0.54205 0.0
C201 C 0.65123 0.84496 0.55084 0.0
C202 C 0.67296 0.88749 0.5499 0.0
C203 C 0.65447 0.89217 0.56779 0.0
C204 C 0.63347 0.85035 0.56867 0.0
N205 N 0.63657 0.91953 0.58901 0.0
C206 C 0.65496 0.91555 0.57329 0.0
C207 C 0.65567 0.96221 0.58555 0.0
C208 C 0.67454 0.95834 0.56909 0.0
C209 C 0.63689 0.94264 0.59551 0.0
C210 C 0.67437 0.93487 0.56267 0.0
H211 H 0.68922 0.9736 0.5616 0.0
O212 O 0.61194 0.91844 0.65035 0.0
O213 O 0.57219 0.87612 0.63549 0.0
O214 O 0.55543 0.89418 0.60715 0.0
O215 O 0.59179 0.90669 0.58411 0.0
O216 O 0.59867 0.87045 0.66133 0.0
O217 O 0.64103 0.90529 0.64634 0.0
O218 O 0.51085 0.84144 0.56928 0.0
O219 O 0.58286 0.86908 0.5689 0.0
O220 O 0.60339 0.84907 0.61978 0.0
O221 O 0.56217 0.82772 0.60589 0.0
O222 O 0.56051 0.83364 0.55181 0.0
O223 O 0.53978 0.87083 0.55221 0.0
C224 C 0.57665 0.86853 0.6618 0.0
C225 C 0.69312 0.93032 0.54625 0.0
C226 C 0.69235 0.90667 0.5397 0.0
C227 C 0.63314 0.92131 0.66181 0.0
C228 C 0.63817 0.92899 0.6983 0.0
C229 C 0.64494 0.95375 0.71086 0.0
C230 C 0.63607 0.91254 0.72063 0.0
C231 C 0.64055 0.92092 0.75559 0.0
C232 C 0.6496 0.96213 0.7454 0.0
C233 C 0.64744 0.94587 0.76768 0.0
C234 C 0.57252 0.91071 0.5934 0.0
C235 C 0.58092 0.85025 0.5477 0.0
C236 C 0.51765 0.85594 0.54703 0.0
C237 C 0.5109 0.84544 0.51183 0.0
C238 C 0.51476 0.82471 0.49707 0.0
C239 C 0.50411 0.85885 0.4917 0.0
C240 C 0.50199 0.85225 0.4567 0.0
C241 C 0.51208 0.81769 0.46204 0.0
C242 C 0.50595 0.83157 0.44177 0.0
C243 C 0.5837 0.8288 0.61468 0.0
H244 H 0.64663 0.96662 0.69387 0.0
H245 H 0.6308 0.8934 0.711 0.0
H246 H 0.65497 0.9813 0.75492 0.0
H247 H 0.65156 0.95291 0.79436 0.0
H248 H 0.52049 0.81444 0.51234 0.0
H249 H 0.50185 0.87528 0.50314 0.0
H250 H 0.51529 0.80185 0.45058 0.0
H251 H 0.50436 0.82626 0.41456 0.0
Gd252 Gd 0.44728 0.26925 0.89783 0.0
Gd253 Gd 0.40717 0.20898 0.90887 0.0
C254 C 0.41024 0.15034 0.82342 0.0
C255 C 0.37032 0.1351 0.79683 0.0
C256 C 0.38181 0.16761 0.84535 0.0
C257 C 0.40448 0.16689 0.84734 0.0
C258 C 0.36428 0.15093 0.82089 0.0
C259 C 0.3933 0.13497 0.79789 0.0
C260 C 0.43277 0.14931 0.82595 0.0
C261 C 0.44885 0.16402 0.85225 0.0
N262 N 0.42058 0.18166 0.87282 0.0
C263 C 0.44252 0.17996 0.87554 0.0
H264 H 0.45607 0.191 0.89468 0.0
C265 C 0.35282 0.18104 0.87086 0.0
N266 N 0.37629 0.18335 0.86843 0.0
C267 C 0.33494 0.16458 0.84765 0.0
C268 C 0.34078 0.14983 0.82205 0.0
H269 H 0.34759 0.19232 0.89022 0.0
H270 H 0.39759 0.12238 0.77935 0.0
H271 H 0.39731 0.27482 0.92888 0.0
H272 H 0.43783 0.137 0.80795 0.0
H273 H 0.46635 0.16325 0.8545 0.0
H274 H 0.35716 0.12247 0.77771 0.0
H275 H 0.50689 0.28702 0.90588 0.0
H276 H 0.41857 0.33634 1.00729 0.0
H277 H 0.38669 0.30229 0.9717 0.0
H278 H 0.50427 0.36428 1.01374 0.0
H279 H 0.31666 0.1634 0.84947 0.0
H280 H 0.32686 0.13709 0.80398 0.0
H281 H 0.46245 0.35945 1.02259 0.0
H282 H 0.54103 0.31984 0.93931 0.0
N283 N 0.43488 0.29282 0.94007 0.0
C284 C 0.42336 0.32434 0.98839 0.0
C285 C 0.40532 0.30513 0.96839 0.0
C286 C 0.44738 0.32784 0.98378 0.0
C287 C 0.45266 0.31166 0.95892 0.0
C288 C 0.41143 0.2896 0.94403 0.0
N289 N 0.48055 0.29767 0.93116 0.0
C290 C 0.47622 0.31431 0.95408 0.0
C291 C 0.52289 0.31839 0.94391 0.0
C292 C 0.51868 0.33519 0.9684 0.0
C293 C 0.50353 0.29977 0.92521 0.0
C294 C 0.49515 0.3333 0.97376 0.0
H295 H 0.53371 0.34957 0.98296 0.0
O296 O 0.47422 0.28892 0.86507 0.0
O297 O 0.42769 0.23124 0.86956 0.0
O298 O 0.44285 0.21411 0.93148 0.0
O299 O 0.46847 0.25418 0.92688 0.0
O300 O 0.46432 0.24809 0.86359 0.0
O301 O 0.4416 0.29668 0.87402 0.0
O302 O 0.37508 0.19981 0.93647 0.0
O303 O 0.4239 0.24805 0.93393 0.0
O304 O 0.41204 0.26276 0.87054 0.0
O305 O 0.38521 0.22672 0.88575 0.0
O306 O 0.41446 0.22318 0.96574 0.0
O307 O 0.3944 0.17552 0.93037 0.0
C308 C 0.44531 0.22908 0.8534 0.0
C309 C 0.48998 0.34959 0.99833 0.0
C310 C 0.46616 0.34684 1.00337 0.0
C311 C 0.46244 0.3024 0.86063 0.0
C312 C 0.47102 0.32119 0.83951 0.0
C313 C 0.4943 0.33913 0.84479 0.0
C314 C 0.45509 0.32223 0.81561 0.0
C315 C 0.46217 0.34131 0.79703 0.0
C316 C 0.50138 0.3584 0.82633 0.0
C317 C 0.48533 0.35958 0.80255 0.0
C318 C 0.46351 0.23308 0.93755 0.0
C319 C 0.42439 0.24616 0.96549 0.0
C320 C 0.37668 0.18026 0.9445 0.0
C321 C 0.37217 0.17713 0.98001 0.0
C322 C 0.35243 0.18113 0.99436 0.0
C323 C 0.38718 0.17089 0.99999 0.0
C324 C 0.38253 0.16919 0.03409 0.0
C325 C 0.348 0.17953 1.0283 0.0
C326 C 0.36303 0.17367 0.04817 0.0
C327 C 0.3902 0.24586 0.87033 0.0
H328 H 0.50668 0.33854 0.86363 0.0
H329 H 0.43713 0.3082 0.8115 0.0
H330 H 0.51927 0.37239 0.83045 0.0
H331 H 0.49113 0.37436 0.78792 0.0
H332 H 0.34054 0.18576 0.97933 0.0
H333 H 0.40241 0.16758 0.98938 0.0
H334 H 0.33287 0.18283 0.03919 0.0
H335 H 0.35931 0.17235 0.0745 0.0
Gd336 Gd 0.01907 0.84246 0.86552 0.0
Gd337 Gd 0.07761 0.88483 0.85501 0.0
C338 C 0.12662 0.8862 0.94274 0.0
C339 C 0.13116 0.92397 0.97852 0.0
C340 C 0.10779 0.91167 0.92499 0.0
C341 C 0.11235 0.89065 0.91891 0.0
C342 C 0.11837 0.92916 0.95394 0.0
C343 C 0.13509 0.90241 0.97307 0.0
C344 C 0.13288 0.86613 0.93491 0.0
C345 C 0.12662 0.85218 0.90299 0.0
N346 N 0.10462 0.87568 0.88869 0.0
C347 C 0.11317 0.85766 0.87981 0.0
H348 H 0.11048 0.84736 0.85485 0.0
C349 C 0.09664 0.93958 0.90145 0.0
N350 N 0.09543 0.91637 0.90088 0.0
C351 C 0.10687 0.95746 0.92945 0.0
C352 C 0.11714 0.952 0.95635 0.0
H353 H 0.08916 0.94434 0.88061 0.0
H354 H 0.14574 0.89903 0.99174 0.0
H355 H 0.00963 0.89361 0.85843 0.0
H356 H 0.14361 0.86203 0.95263 0.0
H357 H 0.13254 0.83741 0.89592 0.0
H358 H 0.13899 0.937 1.00115 0.0
H359 H 0.00525 0.78313 0.83452 0.0
H360 H 0.9559 0.87646 0.7806 0.0
H361 H 0.9844 0.90613 0.8251 0.0
H362 H 0.93585 0.79208 0.74066 0.0
H363 H 0.10692 0.97547 0.93013 0.0
H364 H 0.12525 0.96596 0.97796 0.0
H365 H 0.9379 0.83398 0.74946 0.0
H366 H 0.97751 0.7516 0.79139 0.0
N367 N 0.99671 0.85707 0.8332 0.0
C368 C 0.96714 0.87079 0.79527 0.0
C369 C 0.98323 0.88758 0.82025 0.0
C370 C 0.96558 0.84682 0.78969 0.0
C371 C 0.98064 0.84035 0.80947 0.0
C372 C 0.99776 0.88034 0.83919 0.0
N373 N 0.99488 0.81128 0.82283 0.0
C374 C 0.97958 0.81677 0.80433 0.0
C375 C 0.97811 0.76988 0.79458 0.0
C376 C 0.96273 0.77542 0.77488 0.0
C377 C 0.99405 0.78799 0.81863 0.0
C378 C 0.96331 0.79904 0.77954 0.0
H379 H 0.95044 0.76131 0.75619 0.0
O380 O 0.99218 0.81079 0.88164 0.0
O381 O 0.05516 0.86242 0.89307 0.0
O382 O 0.07847 0.84943 0.83046 0.0
O383 O 0.03985 0.82138 0.83772 0.0
O384 O 0.03957 0.8248 0.89005 0.0
O385 O 0.99579 0.84654 0.90561 0.0
O386 O 0.08584 0.91558 0.82849 0.0
O387 O 0.03985 0.86747 0.83139 0.0
O388 O 0.0263 0.87672 0.90509 0.0
O389 O 0.05465 0.90497 0.87814 0.0
O390 O 0.0672 0.86902 0.79928 0.0
O391 O 0.11336 0.90202 0.83796 0.0
C392 C 0.05717 0.84422 0.90357 0.0
C393 C 0.94833 0.80543 0.75991 0.0
C394 C 0.94951 0.82928 0.76491 0.0
C395 C 0.9873 0.82341 0.90749 0.0
C396 C 0.99077 0.81716 0.94038 0.0
C397 C 0.00146 0.80055 0.94396 0.0
C398 C 0.9856 0.83004 0.96899 0.0
C399 C 0.99113 0.82686 1.00116 0.0
C400 C 0.00723 0.79745 0.97611 0.0
C401 C 0.00219 0.81065 1.00476 0.0
C402 C 0.06197 0.82723 0.82702 0.0
C403 C 0.04425 0.86217 0.80053 0.0
C404 C 0.10788 0.91758 0.82405 0.0
C405 C 0.117 0.9222 0.79077 0.0
C406 C 0.1239 0.9458 0.78323 0.0
C407 C 0.11964 0.90389 0.76697 0.0
C408 C 0.12966 0.90954 0.73612 0.0
C409 C 0.13364 0.95126 0.75233 0.0
C410 C 0.13665 0.93324 0.72888 0.0
C411 C 0.03998 0.89966 0.90311 0.0
H412 H 0.00586 0.79039 0.9221 0.0
H413 H 0.97784 0.84318 0.96612 0.0
H414 H 0.01571 0.78492 0.97881 0.0
H415 H 0.00653 0.80788 0.02956 0.0
H416 H 0.12192 0.96005 0.80142 0.0
H417 H 0.11435 0.88557 0.77254 0.0
H418 H 0.13902 0.96952 0.74664 0.0
H419 H 0.14439 0.93773 0.70502 0.0
Gd420 Gd 0.44129 0.74137 0.19078 0.0
Gd421 Gd 0.43408 0.7808 0.12879 0.0
C422 C 0.44292 0.8596 0.16237 0.0
C423 C 0.40237 0.85736 0.15372 0.0
C424 C 0.41139 0.82126 0.13935 0.0
C425 C 0.43498 0.83449 0.15031 0.0
C426 C 0.39489 0.83262 0.14019 0.0
C427 C 0.42637 0.87084 0.16478 0.0
C428 C 0.46734 0.87272 0.17096 0.0
C429 C 0.48322 0.8609 0.16635 0.0
N430 N 0.45038 0.82297 0.14798 0.0
C431 C 0.47443 0.83594 0.15434 0.0
H432 H 0.48685 0.82697 0.15115 0.0
C433 C 0.38251 0.78437 0.11126 0.0
N434 N 0.40484 0.79745 0.12637 0.0
C435 C 0.36544 0.79477 0.11167 0.0
C436 C 0.37155 0.81891 0.12664 0.0
H437 H 0.37762 0.76567 0.09974 0.0
H438 H 0.43205 0.89004 0.17442 0.0
H439 H 0.38123 0.7087 0.17419 0.0
H440 H 0.47416 0.89202 0.18043 0.0
H441 H 0.50221 0.87096 0.17228 0.0
H442 H 0.38989 0.86636 0.15497 0.0
H443 H 0.49494 0.73834 0.20133 0.0
H444 H 0.37127 0.63689 0.12918 0.0
H445 H 0.35468 0.66779 0.14909 0.0
H446 H 0.45029 0.63688 0.13174 0.0
H447 H 0.3476 0.78415 0.10046 0.0
H448 H 0.35831 0.82695 0.12686 0.0
H449 H 0.407 0.62568 0.12231 0.0
H450 H 0.51399 0.7087 0.18678 0.0
N451 N 0.41329 0.70179 0.1698 0.0
C452 C 0.38318 0.65493 0.14074 0.0
C453 C 0.37375 0.67229 0.15202 0.0
C454 C 0.40785 0.661 0.14467 0.0
C455 C 0.42266 0.68484 0.15958 0.0
C456 C 0.38906 0.69564 0.16673 0.0
N457 N 0.46101 0.71442 0.17812 0.0
C458 C 0.4472 0.69135 0.16383 0.0
C459 C 0.49525 0.70366 0.17987 0.0
C460 C 0.48178 0.68051 0.16249 0.0
C461 C 0.48442 0.72034 0.18811 0.0
C462 C 0.45735 0.67394 0.1548 0.0
H463 H 0.49022 0.66763 0.15602 0.0
O464 O 0.46181 0.7472 0.23832 0.0
O465 O 0.44329 0.77727 0.1809 0.0
O466 O 0.47201 0.78199 0.13572 0.0
O467 O 0.46966 0.74623 0.15284 0.0
O468 O 0.46852 0.77811 0.21537 0.0
O469 O 0.42372 0.72688 0.23542 0.0
O470 O 0.42742 0.7711 0.07341 0.0
O471 O 0.43136 0.74438 0.13792 0.0
O472 O 0.40659 0.74755 0.19905 0.0
O473 O 0.40312 0.77473 0.16447 0.0
O474 O 0.40581 0.74537 0.10529 0.0
O475 O 0.46044 0.79903 0.09413 0.0
C476 C 0.46018 0.79129 0.20117 0.0
C477 C 0.44275 0.65039 0.13929 0.0
C478 C 0.41808 0.64398 0.13407 0.0
C479 C 0.44363 0.73395 0.25402 0.0
C480 C 0.44738 0.71532 0.27203 0.0
C481 C 0.444 0.69268 0.25313 0.0
C482 C 0.45404 0.71936 0.30743 0.0
C483 C 0.45701 0.70062 0.32278 0.0
C484 C 0.44787 0.67487 0.26763 0.0
C485 C 0.45427 0.67875 0.3019 0.0
C486 C 0.47879 0.76341 0.13383 0.0
C487 C 0.41364 0.73112 0.11785 0.0
C488 C 0.44798 0.78701 0.06636 0.0
C489 C 0.44855 0.80165 0.03887 0.0
C490 C 0.43616 0.81719 0.04318 0.0
C491 C 0.46249 0.80164 1.0095 0.0
C492 C 0.46403 0.81742 0.98539 0.0
C493 C 0.43736 0.83233 1.01955 0.0
C494 C 0.45109 0.83251 0.99124 0.0
C495 C 0.39529 0.76044 0.18816 0.0
H496 H 0.43799 0.68852 0.22697 0.0
H497 H 0.45625 0.73648 0.32284 0.0
H498 H 0.44546 0.65768 0.25224 0.0
H499 H 0.45675 0.66427 0.31237 0.0
H500 H 0.42571 0.81783 0.06519 0.0
H501 H 0.47248 0.79003 1.00597 0.0
H502 H 0.4277 0.84425 1.02339 0.0
H503 H 0.45158 0.84466 0.97363 0.0
Gd504 Gd 0.53316 0.15374 0.46402 0.0
Gd505 Gd 0.47288 0.11326 0.44486 0.0
C506 C 0.4037 0.1091 0.49765 0.0
C507 C 0.38533 0.06621 0.50194 0.0
C508 C 0.42539 0.08329 0.48097 0.0
C509 C 0.42403 0.10578 0.48376 0.0
C510 C 0.4061 0.06326 0.49017 0.0
C511 C 0.38418 0.08913 0.50588 0.0
C512 C 0.40382 0.13249 0.50398 0.0
C513 C 0.42429 0.15199 0.4981 0.0
N514 N 0.44313 0.12465 0.47498 0.0
C515 C 0.44392 0.14784 0.48421 0.0
H516 H 0.45964 0.1637 0.48196 0.0
C517 C 0.44797 0.05911 0.46747 0.0
N518 N 0.44577 0.08104 0.46987 0.0
C519 C 0.42936 0.03879 0.47613 0.0
C520 C 0.40823 0.04081 0.4873 0.0
H521 H 0.46379 0.05682 0.45768 0.0
H522 H 0.36833 0.09133 0.51601 0.0
H523 H 0.55133 0.11375 0.4126 0.0
H524 H 0.38864 0.13579 0.51477 0.0
H525 H 0.4251 0.17036 0.50457 0.0
H526 H 0.37026 0.051 0.50875 0.0
H527 H 0.54579 0.2127 0.49315 0.0
H528 H 0.59736 0.15217 0.3414 0.0
H529 H 0.57693 0.11435 0.36509 0.0
H530 H 0.60349 0.23389 0.37343 0.0
H531 H 0.43119 0.02149 0.47361 0.0
H532 H 0.39372 0.02499 0.49378 0.0
H533 H 0.60651 0.19646 0.34402 0.0
H534 H 0.5674 0.25236 0.4754 0.0
N535 N 0.55683 0.15132 0.41722 0.0
C536 C 0.5862 0.1522 0.36277 0.0
C537 C 0.57473 0.13084 0.37609 0.0
C538 C 0.58351 0.17345 0.37754 0.0
C539 C 0.56879 0.17255 0.40538 0.0
C540 C 0.5601 0.13069 0.40342 0.0
N541 N 0.55385 0.19256 0.44967 0.0
C542 C 0.56701 0.19369 0.42183 0.0
C543 C 0.56725 0.23602 0.45986 0.0
C544 C 0.57955 0.23739 0.43006 0.0
C545 C 0.55487 0.21342 0.46974 0.0
C546 C 0.58001 0.21615 0.41104 0.0
H547 H 0.58924 0.25497 0.42255 0.0
O548 O 0.5703 0.17055 0.4829 0.0
O549 O 0.49805 0.1362 0.48865 0.0
O550 O 0.47323 0.14871 0.43333 0.0
O551 O 0.51356 0.17522 0.44515 0.0
O552 O 0.51606 0.17348 0.50025 0.0
O553 O 0.54357 0.14859 0.51317 0.0
O554 O 0.47499 0.08194 0.4129 0.0
O555 O 0.50952 0.12671 0.42299 0.0
O556 O 0.52938 0.11471 0.45946 0.0
O557 O 0.49213 0.09946 0.48007 0.0
O558 O 0.48114 0.1276 0.39502 0.0
O559 O 0.44303 0.09015 0.40978 0.0
C560 C 0.49763 0.1553 0.50704 0.0
C561 C 0.59369 0.21685 0.38236 0.0
C562 C 0.59544 0.19555 0.36566 0.0
C563 C 0.56629 0.15928 0.50882 0.0
C564 C 0.58085 0.1452 0.51315 0.0
C565 C 0.59388 0.13876 0.48677 0.0
C566 C 0.5808 0.13712 0.544 0.0
C567 C 0.59369 0.12285 0.54891 0.0
C568 C 0.60686 0.12462 0.49167 0.0
C569 C 0.60694 0.11678 0.52276 0.0
C570 C 0.49098 0.17044 0.43566 0.0
C571 C 0.50367 0.13147 0.39504 0.0
C572 C 0.45441 0.0765 0.39699 0.0
C573 C 0.45425 0.07078 0.35996 0.0
C574 C 0.45906 0.05046 0.34597 0.0
C575 C 0.45061 0.08564 0.33853 0.0
C576 C 0.45268 0.08061 0.30352 0.0
C577 C 0.4607 0.04523 0.31114 0.0
C578 C 0.45772 0.06031 0.29 0.0
C579 C 0.51325 0.09831 0.47468 0.0
H580 H 0.59398 0.14453 0.46243 0.0
H581 H 0.57083 0.14215 0.56443 0.0
H582 H 0.61688 0.11972 0.47133 0.0
H583 H 0.61714 0.10593 0.52636 0.0
H584 H 0.46182 0.03877 0.3621 0.0
H585 H 0.44676 0.10133 0.34893 0.0
H586 H 0.46446 0.02955 0.30053 0.0
H587 H 0.45906 0.05596 0.26299 0.0
Gd588 Gd 0.17437 0.29675 0.64652 0.0
Gd589 Gd 0.13286 0.23748 0.65841 0.0
C590 C 0.13306 0.18011 0.56974 0.0
C591 C 0.09109 0.16146 0.55045 0.0
C592 C 0.10435 0.19434 0.59825 0.0
C593 C 0.12762 0.19578 0.59532 0.0
C594 C 0.08578 0.17714 0.57583 0.0
C595 C 0.11468 0.16296 0.54739 0.0
C596 C 0.15688 0.18236 0.56707 0.0
C597 C 0.17459 0.19996 0.58945 0.0
N598 N 0.1451 0.21313 0.61657 0.0
C599 C 0.16837 0.2152 0.61416 0.0
H600 H 0.18241 0.22893 0.63066 0.0
C601 C 0.0771 0.20933 0.62608 0.0
N602 N 0.10003 0.21045 0.62207 0.0
C603 C 0.05812 0.19257 0.60462 0.0
C604 C 0.0625 0.17648 0.57922 0.0
H605 H 0.07339 0.22137 0.64613 0.0
H606 H 0.11856 0.15087 0.52751 0.0
H607 H 0.13279 0.3259 0.65497 0.0
H608 H 0.16178 0.1707 0.54775 0.0
H609 H 0.19309 0.20191 0.58758 0.0
H610 H 0.07711 0.14825 0.53289 0.0
H611 H 0.23382 0.31189 0.66223 0.0
H612 H 0.14925 0.37199 0.74942 0.0
H613 H 0.1231 0.35245 0.69795 0.0
H614 H 0.22669 0.3776 0.78233 0.0
H615 H 0.04013 0.19204 0.60779 0.0
H616 H 0.04778 0.16358 0.56245 0.0
H617 H 0.18755 0.38086 0.78089 0.0
H618 H 0.26546 0.33827 0.70416 0.0
N619 N 0.16395 0.32682 0.68199 0.0
C620 C 0.15361 0.35953 0.73073 0.0
C621 C 0.13883 0.34853 0.70175 0.0
C622 C 0.17457 0.35548 0.7343 0.0
C623 C 0.17944 0.33892 0.7093 0.0
C624 C 0.14446 0.33268 0.67732 0.0
N625 N 0.20607 0.32128 0.6863 0.0
C626 C 0.20121 0.33638 0.71113 0.0
C627 C 0.24743 0.33771 0.70677 0.0
C628 C 0.24209 0.35142 0.73437 0.0
C629 C 0.22924 0.32284 0.68281 0.0
C630 C 0.21893 0.35123 0.73655 0.0
H631 H 0.25619 0.36284 0.75309 0.0
O632 O 0.20466 0.29924 0.61615 0.0
O633 O 0.15741 0.25743 0.62182 0.0
O634 O 0.16753 0.24183 0.68532 0.0
O635 O 0.19458 0.27858 0.67263 0.0
O636 O 0.16031 0.28329 0.59173 0.0
O637 O 0.19251 0.32931 0.62426 0.0
O638 O 0.1032 0.21561 0.68519 0.0
O639 O 0.15367 0.27539 0.68595 0.0
O640 O 0.13859 0.29416 0.62734 0.0
O641 O 0.11174 0.25545 0.63536 0.0
O642 O 0.11709 0.26085 0.69119 0.0
O643 O 0.13803 0.21414 0.69117 0.0
C644 C 0.15315 0.26025 0.5917 0.0
C645 C 0.21347 0.36648 0.76231 0.0
C646 C 0.19123 0.36839 0.76139 0.0
C647 C 0.20772 0.32076 0.60965 0.0
C648 C 0.21417 0.32499 0.57519 0.0
C649 C 0.23725 0.32714 0.5659 0.0
C650 C 0.19801 0.32631 0.55143 0.0
C651 C 0.20498 0.32934 0.5183 0.0
C652 C 0.24422 0.33039 0.53315 0.0
C653 C 0.22818 0.33141 0.50939 0.0
C654 C 0.18934 0.25896 0.687 0.0
C655 C 0.13664 0.27903 0.7017 0.0
C656 C 0.11657 0.20857 0.70236 0.0
C657 C 0.11531 0.21283 0.73903 0.0
C658 C 0.10738 0.2305 0.75558 0.0
C659 C 0.1231 0.19943 0.75785 0.0
C660 C 0.12298 0.20333 0.79308 0.0
C661 C 0.10784 0.23495 0.7908 0.0
C662 C 0.11562 0.22142 0.80961 0.0
C663 C 0.11688 0.27672 0.62529 0.0
H664 H 0.24987 0.32617 0.58405 0.0
H665 H 0.18011 0.32459 0.55841 0.0
H666 H 0.26207 0.33206 0.52614 0.0
H667 H 0.23398 0.33411 0.48408 0.0
H668 H 0.10082 0.24086 0.74155 0.0
H669 H 0.12925 0.18586 0.74498 0.0
H670 H 0.10189 0.24867 0.80348 0.0
H671 H 0.1152 0.22458 0.83691 0.0
Gd672 Gd 0.93906 0.23447 0.68611 0.0
Gd673 Gd 0.93479 0.27709 0.62796 0.0
C674 C 0.95448 0.35826 0.66245 0.0
C675 C 0.91606 0.36177 0.65658 0.0
C676 C 0.91924 0.32263 0.64147 0.0
C677 C 0.94336 0.33311 0.6507 0.0
C678 C 0.90538 0.3369 0.64348 0.0
C679 C 0.94058 0.37243 0.66611 0.0
C680 C 0.9793 0.36847 0.66935 0.0
C681 C 0.99246 0.35382 0.66323 0.0
N682 N 0.95618 0.31884 0.64685 0.0
C683 C 0.9806 0.32899 0.65134 0.0
H684 H 0.99101 0.31789 0.64679 0.0
C685 C 0.8866 0.28805 0.61528 0.0
N686 N 0.90961 0.29863 0.62878 0.0
C687 C 0.87207 0.3014 0.6168 0.0
C688 C 0.8814 0.32587 0.63138 0.0
H689 H 0.8793 0.26914 0.60398 0.0
H690 H 0.94872 0.39173 0.67547 0.0
H691 H 0.87966 0.20048 0.68131 0.0
H692 H 0.98851 0.3877 0.67858 0.0
H693 H 0.01174 0.36162 0.66777 0.0
H694 H 0.90565 0.37301 0.6587 0.0
H695 H 0.99318 0.23175 0.69221 0.0
H696 H 0.86807 0.12888 0.63278 0.0
H697 H 0.85208 0.15902 0.65912 0.0
H698 H 0.94749 0.13051 0.62202 0.0
H699 H 0.85371 0.29282 0.60668 0.0
H700 H 0.87014 0.33621 0.63242 0.0
H701 H 0.90378 0.11863 0.61817 0.0
H702 H 0.01233 0.20253 0.67408 0.0
N703 N 0.91112 0.19483 0.6666 0.0
C704 C 0.88031 0.14728 0.64219 0.0
C705 C 0.87122 0.16421 0.65709 0.0
C706 C 0.90513 0.15409 0.64071 0.0
C707 C 0.9203 0.1783 0.65342 0.0
C708 C 0.88697 0.18794 0.66935 0.0
N709 N 0.95886 0.2079 0.67025 0.0
C710 C 0.94494 0.18503 0.65529 0.0
C711 C 0.99341 0.19745 0.66841 0.0
C712 C 0.97966 0.1744 0.65094 0.0
C713 C 0.98255 0.21388 0.6787 0.0
C714 C 0.95501 0.16771 0.64493 0.0
H715 H 0.98806 0.16162 0.64334 0.0
O716 O 0.95973 0.24025 0.73331 0.0
O717 O 0.94405 0.27194 0.67927 0.0
O718 O 0.97098 0.2737 0.63201 0.0
O719 O 0.96276 0.23489 0.64257 0.0
O720 O 0.97027 0.26886 0.7084 0.0
O721 O 0.9216 0.21996 0.73082 0.0
O722 O 0.92516 0.27032 0.57352 0.0
O723 O 0.92797 0.23959 0.63585 0.0
O724 O 0.90459 0.24182 0.69386 0.0
O725 O 0.90597 0.27435 0.66623 0.0
O726 O 0.90303 0.24311 0.60656 0.0
O727 O 0.96167 0.29026 0.59093 0.0
C728 C 0.96283 0.28392 0.69743 0.0
C729 C 0.94006 0.14399 0.63046 0.0
C730 C 0.91516 0.13721 0.62831 0.0
C731 C 0.94162 0.22706 0.74915 0.0
C732 C 0.94566 0.20854 0.76679 0.0
C733 C 0.94396 0.18658 0.74734 0.0
C734 C 0.95146 0.2123 0.80233 0.0
C735 C 0.95508 0.19388 0.8175 0.0
C736 C 0.9483 0.169 0.76181 0.0
C737 C 0.95374 0.17255 0.79637 0.0
C738 C 0.97488 0.25335 0.62699 0.0
C739 C 0.90964 0.22717 0.61673 0.0
C740 C 0.94686 0.28219 0.56458 0.0
C741 C 0.95001 0.2993 0.53958 0.0
C742 C 0.93989 0.31673 0.54628 0.0
C743 C 0.96338 0.29903 0.50969 0.0
C744 C 0.96652 0.31637 0.48737 0.0
C745 C 0.94259 0.33336 0.52438 0.0
C746 C 0.95567 0.33322 0.49547 0.0
C747 C 0.89587 0.2579 0.68651 0.0
H748 H 0.9391 0.18287 0.72074 0.0
H749 H 0.95262 0.22901 0.81798 0.0
H750 H 0.94714 0.15231 0.74614 0.0
H751 H 0.95674 0.15832 0.80679 0.0
H752 H 0.92983 0.31752 0.56865 0.0
H753 H 0.97157 0.28586 0.50428 0.0
H754 H 0.93452 0.3466 0.52994 0.0
H755 H 0.95725 0.34647 0.47914 0.0
Gd756 Gd 0.67566 0.79143 0.14949 0.0
Gd757 Gd 0.64032 0.73133 0.16146 0.0
C758 C 0.64771 0.67277 0.08112 0.0
C759 C 0.60646 0.64951 0.06052 0.0
C760 C 0.6163 0.68559 0.10323 0.0
C761 C 0.64031 0.68918 0.10265 0.0
C762 C 0.59909 0.66557 0.08232 0.0
C763 C 0.63069 0.65303 0.06007 0.0
C764 C 0.67212 0.67703 0.08072 0.0
C765 C 0.6885 0.69736 0.1011 0.0
N766 N 0.65652 0.70902 0.1223 0.0
C767 C 0.68037 0.71312 0.12184 0.0
H768 H 0.69341 0.72833 0.13738 0.0
C769 C 0.58581 0.6963 0.12916 0.0
N770 N 0.60964 0.70114 0.12498 0.0
C771 C 0.56817 0.67712 0.10848 0.0
C772 C 0.57486 0.66183 0.08462 0.0
H773 H 0.58035 0.70694 0.14918 0.0
H774 H 0.63611 0.64042 0.04323 0.0
H775 H 0.6337 0.81889 0.15468 0.0
H776 H 0.6785 0.66489 0.06456 0.0
H777 H 0.70745 0.70087 0.10099 0.0
H778 H 0.5935 0.63411 0.04427 0.0
H779 H 0.73437 0.80692 0.17179 0.0
H780 H 0.64431 0.8624 0.25106 0.0
H781 H 0.62084 0.84365 0.19711 0.0
H782 H 0.72023 0.86817 0.29184 0.0
H783 H 0.54941 0.67378 0.11157 0.0
H784 H 0.56114 0.64669 0.06897 0.0
H785 H 0.68135 0.87148 0.28602 0.0
H786 H 0.76291 0.83032 0.21878 0.0
N787 N 0.66282 0.81919 0.18549 0.0
C788 C 0.64976 0.85052 0.23285 0.0
C789 C 0.63643 0.83988 0.20252 0.0
C790 C 0.67077 0.84692 0.2384 0.0
C791 C 0.67699 0.83101 0.21403 0.0
C792 C 0.64361 0.82493 0.17865 0.0
N793 N 0.70477 0.81404 0.19376 0.0
C794 C 0.69861 0.82851 0.21808 0.0
C795 C 0.74474 0.82957 0.21942 0.0
C796 C 0.7379 0.84255 0.24633 0.0
C797 C 0.72813 0.8159 0.19292 0.0
C798 C 0.71484 0.84266 0.24554 0.0
H799 H 0.7509 0.85338 0.26673 0.0
O800 O 0.70818 0.80197 0.12227 0.0
O801 O 0.66198 0.75232 0.12221 0.0
O802 O 0.6744 0.74515 0.19493 0.0
O803 O 0.69889 0.77135 0.16207 0.0
O804 O 0.66113 0.77897 0.09573 0.0
O805 O 0.68837 0.82557 0.12969 0.0
O806 O 0.61355 0.70762 0.1903 0.0
O807 O 0.65696 0.76969 0.18988 0.0
O808 O 0.63745 0.78438 0.13277 0.0
O809 O 0.61484 0.74411 0.1387 0.0
O810 O 0.62063 0.75048 0.19465 0.0
O811 O 0.6493 0.70738 0.18886 0.0
C812 C 0.65643 0.75601 0.09295 0.0
C813 C 0.70812 0.85749 0.27043 0.0
C814 C 0.68604 0.85945 0.26702 0.0
C815 C 0.70693 0.82215 0.11669 0.0
C816 C 0.71405 0.82885 0.08338 0.0
C817 C 0.73839 0.83579 0.07654 0.0
C818 C 0.69756 0.82823 0.05847 0.0
C819 C 0.7056 0.83423 1.02669 0.0
C820 C 0.74634 0.84194 0.04517 0.0
C821 C 0.73006 0.84114 1.02032 0.0
C822 C 0.69604 0.75889 0.18729 0.0
C823 C 0.63858 0.77048 0.2054 0.0
C824 C 0.62902 0.70105 0.20378 0.0
C825 C 0.6312 0.70527 0.24067 0.0
C826 C 0.62191 0.72081 0.26015 0.0
C827 C 0.64438 0.69491 0.25646 0.0
C828 C 0.64824 0.69971 0.29158 0.0
C829 C 0.62602 0.72599 0.29514 0.0
C830 C 0.63909 0.71548 0.3109 0.0
C831 C 0.61692 0.76517 0.13058 0.0
H832 H 0.75128 0.83637 0.09557 0.0
H833 H 0.67871 0.82282 0.0635 0.0
H834 H 0.76515 0.84733 0.0401 0.0
H835 H 0.73663 0.84617 0.99613 0.0
H836 H 0.61162 0.72908 0.24852 0.0
H837 H 0.65157 0.68299 0.24134 0.0
H838 H 0.61881 0.73792 0.31007 0.0
H839 H 0.64126 0.71897 0.33823 0.0
Gd840 Gd 0.64468 0.22168 0.9293 0.0
Gd841 Gd 0.63847 0.26494 0.87306 0.0
C842 C 0.66937 0.34584 0.91619 0.0
C843 C 0.63339 0.3544 0.92404 0.0
C844 C 0.63032 0.31367 0.90083 0.0
C845 C 0.65508 0.32146 0.90302 0.0
C846 C 0.61925 0.33021 0.91044 0.0
C847 C 0.65838 0.36216 0.92703 0.0
C848 C 0.6943 0.35307 0.91819 0.0
C849 C 0.70439 0.33624 0.90688 0.0
N850 N 0.66515 0.30515 0.8927 0.0
C851 C 0.6895 0.31231 0.89399 0.0
H852 H 0.69764 0.29962 0.88615 0.0
C853 C 0.59307 0.28254 0.88066 0.0
N854 N 0.61714 0.29011 0.88794 0.0
C855 C 0.58125 0.29825 0.88991 0.0
C856 C 0.59435 0.3221 0.90533 0.0
H857 H 0.58296 0.26407 0.86868 0.0
H858 H 0.66907 0.3809 0.9374 0.0
H859 H 0.58928 0.17863 0.9123 0.0
H860 H 0.70589 0.37158 0.92831 0.0
H861 H 0.72366 0.34162 0.90831 0.0
H862 H 0.62519 0.36732 0.93191 0.0
H863 H 0.70093 0.23157 0.95241 0.0
H864 H 0.59508 0.11098 0.87554 0.0
H865 H 0.57017 0.13501 0.89012 0.0
H866 H 0.67906 0.12946 0.89195 0.0
H867 H 0.56208 0.29198 0.8851 0.0
H868 H 0.58518 0.33426 0.9124 0.0
H869 H 0.63593 0.10915 0.87591 0.0
H870 H 0.72824 0.20971 0.94718 0.0
N871 N 0.6249 0.17982 0.90914 0.0
C872 C 0.60361 0.13022 0.88518 0.0
C873 C 0.5895 0.14369 0.89348 0.0
C874 C 0.6285 0.14152 0.89091 0.0
C875 C 0.63867 0.16661 0.90346 0.0
C876 C 0.60047 0.16852 0.90603 0.0
N877 N 0.67131 0.2016 0.92693 0.0
C878 C 0.66274 0.1779 0.91268 0.0
C879 C 0.70988 0.20057 0.9372 0.0
C880 C 0.70155 0.17641 0.92132 0.0
C881 C 0.69435 0.21288 0.9402 0.0
C882 C 0.6776 0.16463 0.9093 0.0
H883 H 0.71357 0.16686 0.91922 0.0
O884 O 0.65363 0.22661 0.98379 0.0
O885 O 0.65061 0.25949 0.92272 0.0
O886 O 0.67367 0.25906 0.86441 0.0
O887 O 0.67321 0.226 0.89008 0.0
O888 O 0.67519 0.2556 0.95349 0.0
O889 O 0.61705 0.20896 0.96552 0.0
O890 O 0.61789 0.25888 0.82562 0.0
O891 O 0.63508 0.22778 0.87872 0.0
O892 O 0.60795 0.22257 0.92362 0.0
O893 O 0.61373 0.26151 0.91657 0.0
O894 O 0.60828 0.23015 0.8497 0.0
O895 O 0.65591 0.27969 0.82846 0.0
C896 C 0.66919 0.27135 0.9417 0.0
C897 C 0.6679 0.13994 0.89505 0.0
C898 C 0.64336 0.12839 0.88587 0.0
C899 C 0.63157 0.21558 0.99207 0.0
C900 C 0.62673 0.19724 1.0156 0.0
C901 C 0.63121 0.17631 1.00448 0.0
C902 C 0.61679 0.19959 0.04811 0.0
C903 C 0.61211 0.18119 0.06912 0.0
C904 C 0.6262 0.15816 1.02449 0.0
C905 C 0.61685 0.16053 0.05623 0.0
C906 C 0.68291 0.24309 0.87054 0.0
C907 C 0.61656 0.21555 0.86019 0.0
C908 C 0.63596 0.27222 0.80984 0.0
C909 C 0.63172 0.29046 0.7917 0.0
C910 C 0.6331 0.3124 0.81084 0.0
C911 C 0.62616 0.28656 0.75604 0.0
C912 C 0.62241 0.30482 0.74056 0.0
C913 C 0.62859 0.32976 0.7961 0.0
C914 C 0.62334 0.32607 0.76149 0.0
C915 C 0.60311 0.24211 0.93115 0.0
H916 H 0.63845 0.17389 0.97996 0.0
H917 H 0.61311 0.21561 0.05706 0.0
H918 H 0.62962 0.14204 1.01531 0.0
H919 H 0.61321 0.14591 0.07085 0.0
H920 H 0.63792 0.3163 0.83738 0.0
H921 H 0.62531 0.26991 0.74055 0.0
H922 H 0.62951 0.34643 0.81161 0.0
H923 H 0.62023 0.34016 0.75086 0.0
Gd924 Gd 0.9487 0.76192 0.39822 0.0
Gd925 Gd 0.90666 0.70274 0.40513 0.0
C926 C 0.89778 0.63732 0.32377 0.0
C927 C 0.86116 0.6318 0.29334 0.0
C928 C 0.87629 0.66307 0.34287 0.0
C929 C 0.89575 0.6567 0.34656 0.0
C930 C 0.85818 0.64976 0.31731 0.0
C931 C 0.88104 0.62574 0.29639 0.0
C932 C 0.91566 0.62907 0.33022 0.0
C933 C 0.92961 0.63858 0.36022 0.0
N934 N 0.91115 0.6676 0.37418 0.0
C935 C 0.92655 0.65723 0.38244 0.0
H936 H 0.93655 0.66266 0.40622 0.0
C937 C 0.85235 0.6834 0.368 0.0
N938 N 0.87384 0.68062 0.36613 0.0
C939 C 0.83382 0.6704 0.34361 0.0
C940 C 0.83699 0.65397 0.31759 0.0
H941 H 0.84978 0.69662 0.38729 0.0
H942 H 0.8826 0.61112 0.27849 0.0
H943 H 0.90922 0.78197 0.44264 0.0
H944 H 0.91779 0.6143 0.31334 0.0
H945 H 0.94243 0.63119 0.36665 0.0
H946 H 0.84766 0.62176 0.27318 0.0
H947 H 0.00591 0.76867 0.3878 0.0
H948 H 0.95045 0.8445 0.51271 0.0
H949 H 0.91158 0.8167 0.48441 0.0
H950 H 0.03081 0.84923 0.50218 0.0
H951 H 0.81723 0.67331 0.3447 0.0
H952 H 0.8226 0.64393 0.29862 0.0
H953 H 0.99455 0.85583 0.52012 0.0
H954 H 0.04584 0.79448 0.41407 0.0
N955 N 0.94698 0.79022 0.44477 0.0
C956 C 0.94969 0.82929 0.4939 0.0
C957 C 0.92774 0.8137 0.47789 0.0
C958 C 0.97041 0.82514 0.48541 0.0
C959 C 0.96858 0.80537 0.4602 0.0
C960 C 0.9266 0.79395 0.45375 0.0
N961 N 0.98729 0.78413 0.42341 0.0
C962 C 0.9892 0.8019 0.44974 0.0
C963 C 0.03011 0.79673 0.42447 0.0
C964 C 0.03239 0.81464 0.45213 0.0
C965 C 0.00739 0.78197 0.40983 0.0
C966 C 0.01188 0.81777 0.46463 0.0
H967 H 0.05009 0.8264 0.46299 0.0
O968 O 0.97019 0.79607 0.38169 0.0
O969 O 0.92927 0.72475 0.36791 0.0
O970 O 0.94306 0.70261 0.41492 0.0
O971 O 0.96862 0.74351 0.42402 0.0
O972 O 0.96585 0.7407 0.36371 0.0
O973 O 0.94089 0.76977 0.34939 0.0
O974 O 0.87772 0.70616 0.43468 0.0
O975 O 0.92303 0.74146 0.43378 0.0
O976 O 0.91103 0.76087 0.39077 0.0
O977 O 0.89374 0.72073 0.36808 0.0
O978 O 0.92272 0.71374 0.45896 0.0
O979 O 0.88484 0.67305 0.43069 0.0
C980 C 0.94684 0.72196 0.35241 0.0
C981 C 0.01354 0.83685 0.49052 0.0
C982 C 0.99289 0.84062 0.50071 0.0
C983 C 0.9565 0.79195 0.35499 0.0
C984 C 0.94737 0.81069 0.35149 0.0
C985 C 0.93775 0.82077 0.37886 0.0
C986 C 0.9481 0.81853 0.32045 0.0
C987 C 0.93937 0.83647 0.31676 0.0
C988 C 0.92842 0.83809 0.37507 0.0
C989 C 0.92915 0.84595 0.344 0.0
C990 C 0.96374 0.72033 0.42578 0.0
C991 C 0.92795 0.73686 0.46261 0.0
C992 C 0.87282 0.68547 0.44551 0.0
C993 C 0.87016 0.68631 0.48224 0.0
C994 C 0.85472 0.69675 0.49761 0.0
C995 C 0.8833 0.67794 0.50238 0.0
C996 C 0.88137 0.68068 0.53763 0.0
C997 C 0.85273 0.69934 0.53254 0.0
C998 C 0.86607 0.69149 0.55251 0.0
C999 C 0.89359 0.74271 0.37252 0.0
H1000 H 0.93765 0.81548 0.40316 0.0
H1001 H 0.95559 0.81081 0.29924 0.0
H1002 H 0.92096 0.84568 0.39634 0.0
H1003 H 0.92241 0.85987 0.34148 0.0
H1004 H 0.84439 0.70321 0.48254 0.0
H1005 H 0.89534 0.66985 0.49098 0.0
H1006 H 0.84087 0.70752 0.54419 0.0
H1007 H 0.86418 0.69354 0.57962 0.0
Gd1008 Gd 0.5027 0.62002 0.70023 0.0
Gd1009 Gd 0.56254 0.66041 0.69085 0.0
C1010 C 0.62144 0.65813 0.75817 0.0
C1011 C 0.63988 0.69998 0.78614 0.0
C1012 C 0.60497 0.68734 0.74752 0.0
C1013 C 0.60426 0.66388 0.7418 0.0
C1014 C 0.62302 0.70573 0.76941 0.0
C1015 C 0.63911 0.67624 0.78051 0.0
C1016 C 0.62031 0.63429 0.75167 0.0
C1017 C 0.60233 0.61685 0.72945 0.0
N1018 N 0.58676 0.64665 0.7204 0.0
C1019 C 0.58568 0.6234 0.7139 0.0
H1020 H 0.57212 0.60975 0.69674 0.0
C1021 C 0.59032 0.71588 0.73298 0.0
N1022 N 0.58858 0.69238 0.73076 0.0
C1023 C 0.60773 0.73465 0.75454 0.0
C1024 C 0.62403 0.72952 0.77311 0.0
H1025 H 0.57818 0.72017 0.71796 0.0
H1026 H 0.65235 0.67211 0.79342 0.0
H1027 H 0.48413 0.6687 0.70021 0.0
H1028 H 0.63316 0.62915 0.76373 0.0
H1029 H 0.60129 0.59836 0.72421 0.0
H1030 H 0.65382 0.71385 0.80311 0.0
H1031 H 0.48844 0.5607 0.66829 0.0
H1032 H 0.43875 0.65302 0.61317 0.0
H1033 H 0.45963 0.68004 0.66522 0.0
H1034 H 0.43065 0.57379 0.56196 0.0
H1035 H 0.60873 0.75309 0.75647 0.0
H1036 H 0.63769 0.74414 0.78956 0.0
H1037 H 0.42845 0.61384 0.57486 0.0
H1038 H 0.46613 0.53122 0.61979 0.0
N1039 N 0.47836 0.63426 0.66949 0.0
C1040 C 0.44966 0.64753 0.62875 0.0
C1041 C 0.46131 0.66275 0.65814 0.0
C1042 C 0.4519 0.62528 0.62001 0.0
C1043 C 0.46659 0.61899 0.64094 0.0
C1044 C 0.47537 0.65582 0.67837 0.0
N1045 N 0.48218 0.59046 0.65337 0.0
C1046 C 0.46853 0.59661 0.63277 0.0
C1047 C 0.46707 0.54967 0.62259 0.0
C1048 C 0.45479 0.55634 0.59946 0.0
C1049 C 0.48016 0.56679 0.64987 0.0
C1050 C 0.45492 0.5798 0.60475 0.0
H1051 H 0.44439 0.54293 0.57849 0.0
O1052 O 0.48897 0.58671 0.72155 0.0
O1053 O 0.54069 0.63382 0.72278 0.0
O1054 O 0.55385 0.62562 0.65145 0.0
O1055 O 0.5235 0.59775 0.67656 0.0
O1056 O 0.51398 0.62919 0.75623 0.0
O1057 O 0.46698 0.60778 0.71918 0.0
O1058 O 0.58416 0.69094 0.66706 0.0
O1059 O 0.52625 0.64273 0.66322 0.0
O1060 O 0.5058 0.65554 0.73083 0.0
O1061 O 0.5464 0.68045 0.72969 0.0
O1062 O 0.54309 0.68039 0.66919 0.0
O1063 O 0.5892 0.65707 0.656 0.0
C1064 C 0.53685 0.63568 0.75456 0.0
C1065 C 0.44096 0.5864 0.58368 0.0
C1066 C 0.4396 0.60914 0.59114 0.0
C1067 C 0.46899 0.58913 0.72968 0.0
C1068 C 0.46138 0.58469 0.76378 0.0
C1069 C 0.45438 0.561 0.77109 0.0
C1070 C 0.46155 0.60353 0.78922 0.0
C1071 C 0.45505 0.59856 0.82182 0.0
C1072 C 0.44784 0.55612 0.80353 0.0
C1073 C 0.44825 0.57483 0.82887 0.0
C1074 C 0.53931 0.6028 0.65291 0.0
C1075 C 0.5253 0.66185 0.6542 0.0
C1076 C 0.59332 0.67815 0.64702 0.0
C1077 C 0.58985 0.67797 0.61087 0.0
C1078 C 0.57715 0.69078 0.59906 0.0
C1079 C 0.59735 0.66288 0.58785 0.0
C1080 C 0.59146 0.65966 0.55348 0.0
C1081 C 0.57142 0.68774 0.56461 0.0
C1082 C 0.57837 0.67205 0.54181 0.0
C1083 C 0.52443 0.67614 0.74001 0.0
H1084 H 0.45415 0.54631 0.7517 0.0
H1085 H 0.46694 0.62193 0.78394 0.0
H1086 H 0.44248 0.53783 0.80905 0.0
H1087 H 0.44305 0.57078 0.85396 0.0
H1088 H 0.57119 0.70272 0.61634 0.0
H1089 H 0.60729 0.6531 0.59674 0.0
H1090 H 0.56151 0.69745 0.55563 0.0
H1091 H 0.57406 0.67006 0.51507 0.0
Gd1092 Gd 0.10724 0.38906 0.11355 0.0
Gd1093 Gd 0.04702 0.34795 0.09134 0.0
C1094 C 0.00067 0.35349 0.18064 0.0
C1095 C 0.9862 0.31273 0.19464 0.0
C1096 C 0.01339 0.32331 0.14892 0.0
C1097 C 0.01416 0.34682 0.15488 0.0
C1098 C -0.00112 0.30588 0.16826 0.0
C1099 C 0.98706 0.33646 0.20078 0.0
C1100 C 0.00126 0.37712 0.1855 0.0
C1101 C 0.01471 0.39335 0.16462 0.0
N1102 N 0.028 0.36317 0.1356 0.0
C1103 C 0.02776 0.38596 0.13951 0.0
H1104 H 0.0371 0.39856 0.12314 0.0
C1105 C 0.02264 0.29331 0.11371 0.0
N1106 N 0.02604 0.31719 0.12348 0.0
C1107 C 0.00837 0.27544 0.13192 0.0
C1108 C 0.99685 0.28184 0.15982 0.0
H1109 H 0.03071 0.2879 0.09136 0.0
H1110 H 0.9769 0.3414 0.22093 0.0
H1111 H 0.14331 0.35529 0.1045 0.0
H1112 H 0.99117 0.38291 0.20498 0.0
H1113 H 0.01486 0.41152 0.1676 0.0
H1114 H 0.97525 0.29965 0.21 0.0
H1115 H 0.11508 0.44643 0.10472 0.0
H1116 H 0.17634 0.36417 1.01061 0.0
H1117 H 0.16689 0.34383 0.061 0.0
H1118 H 0.16615 0.43362 0.98218 0.0
H1119 H 0.00615 0.25671 0.12426 0.0
H1120 H 0.98581 0.26794 0.17396 0.0
H1121 H 0.17593 0.39769 0.9814 0.0
H1122 H 0.13024 0.47414 0.06357 0.0
N1123 N 0.13478 0.37918 0.07689 0.0
C1124 C 0.16488 0.36867 0.02911 0.0
C1125 C 0.15951 0.35709 0.05741 0.0
C1126 C 0.15695 0.38721 1.02638 0.0
C1127 C 0.14184 0.39224 0.05103 0.0
C1128 C 0.1452 0.36321 0.08171 0.0
N1129 N 0.12283 0.41758 0.07614 0.0
C1130 C 0.13577 0.41209 0.05077 0.0
C1131 C 0.1314 0.45649 0.05907 0.0
C1132 C 0.14236 0.44991 0.0307 0.0
C1133 C 0.12236 0.44036 0.08209 0.0
C1134 C 0.14538 0.42786 1.02682 0.0
H1135 H 0.14968 0.46259 1.01309 0.0
O1136 O 0.11698 0.42231 0.14949 0.0
O1137 O 0.07047 0.37351 0.13466 0.0
O1138 O 0.05461 0.38116 0.06627 0.0
O1139 O 0.08254 0.40851 0.10601 0.0
O1140 O 0.09918 0.37298 0.16211 0.0
O1141 O 0.14267 0.4055 0.13897 0.0
O1142 O 0.02029 0.31768 0.05922 0.0
O1143 O 0.08242 0.36695 0.06838 0.0
O1144 O 0.10617 0.35219 0.11837 0.0
O1145 O 0.06644 0.32543 0.10625 0.0
O1146 O 0.06397 0.32993 0.05169 0.0
O1147 O 0.01675 0.35236 0.06929 0.0
C1148 C 0.07641 0.36779 0.16171 0.0
C1149 C 0.15899 0.42194 1.00106 0.0
C1150 C 0.16463 0.40154 1.00071 0.0
C1151 C 0.13837 0.42339 0.15619 0.0
C1152 C 0.14719 0.43122 0.19163 0.0
C1153 C 0.15964 0.45613 0.20269 0.0
C1154 C 0.14296 0.41478 0.21463 0.0
C1155 C 0.15086 0.42338 0.24878 0.0
C1156 C 0.16779 0.46468 0.23636 0.0
C1157 C 0.16342 0.44846 0.25932 0.0
C1158 C 0.06732 0.40375 0.08005 0.0
C1159 C 0.083 0.34866 0.04802 0.0
C1160 C 0.00769 0.33004 0.05361 0.0
C1161 C 0.99753 0.32563 1.01923 0.0
C1162 C 0.98269 0.3018 1.00505 0.0
C1163 C 0.00126 0.34477 1.00111 0.0
C1164 C 0.98985 0.34007 0.96929 0.0
C1165 C 0.97158 0.29712 0.97303 0.0
C1166 C 0.97504 0.31623 0.95518 0.0
C1167 C 0.08912 0.33023 0.11431 0.0
H1168 H 0.163 0.46901 0.18521 0.0
H1169 H 0.13338 0.39552 0.20622 0.0
H1170 H 0.17749 0.48394 0.24471 0.0
H1171 H 0.17018 0.45553 0.28529 0.0
H1172 H 0.97955 0.28685 1.01891 0.0
H1173 H 0.01267 0.36325 1.01172 0.0
H1174 H 0.96017 0.27874 0.96215 0.0
H1175 H 0.9663 0.31244 0.93033 0.0
Gd1176 Gd 0.51856 0.33657 0.36723 0.0
Gd1177 Gd 0.57798 0.38047 0.35902 0.0
C1178 C 0.62736 0.38591 0.44817 0.0
C1179 C 0.63408 0.42577 0.47935 0.0
C1180 C 0.60839 0.41053 0.42768 0.0
C1181 C 0.61228 0.38904 0.42414 0.0
C1182 C 0.62016 0.42945 0.45468 0.0
C1183 C 0.63758 0.40402 0.47619 0.0
C1184 C 0.63241 0.36497 0.44292 0.0
C1185 C 0.62335 0.34817 0.41365 0.0
N1186 N 0.60259 0.37186 0.39643 0.0
C1187 C 0.60872 0.35204 0.39039 0.0
H1188 H 0.60195 0.33857 0.36831 0.0
C1189 C 0.59587 0.43685 0.40218 0.0
N1190 N 0.59508 0.4139 0.40328 0.0
C1191 C 0.60705 0.45594 0.4284 0.0
C1192 C 0.61878 0.45208 0.45522 0.0
H1193 H 0.58762 0.44054 0.38102 0.0
H1194 H 0.64896 0.40174 0.49495 0.0
H1195 H 0.51244 0.38781 0.3523 0.0
H1196 H 0.64379 0.36192 0.46088 0.0
H1197 H 0.62752 0.3321 0.40903 0.0
H1198 H 0.64296 0.44001 0.50036 0.0
H1199 H 0.50554 0.27727 0.33806 0.0
H1200 H 0.44944 0.36659 0.28866 0.0
H1201 H 0.48377 0.39868 0.32274 0.0
H1202 H 0.42444 0.2803 0.26085 0.0
H1203 H 0.60687 0.47371 0.42763 0.0
H1204 H 0.62773 0.46703 0.47534 0.0
H1205 H 0.42725 0.32241 0.26616 0.0
H1206 H 0.47368 0.24337 0.30265 0.0
N1207 N 0.49472 0.34982 0.33594 0.0
C1208 C 0.46197 0.36166 0.30186 0.0
C1209 C 0.48133 0.37981 0.32102 0.0
C1210 C 0.45922 0.33739 0.29949 0.0
C1211 C 0.47608 0.33194 0.31707 0.0
C1212 C 0.49757 0.37354 0.33803 0.0
N1213 N 0.49206 0.30382 0.32905 0.0
C1214 C 0.47454 0.30818 0.31388 0.0
C1215 C 0.4738 0.26152 0.30538 0.0
C1216 C 0.45573 0.26575 0.28945 0.0
C1217 C 0.49191 0.28082 0.32517 0.0
C1218 C 0.45607 0.2893 0.29328 0.0
H1219 H 0.44175 0.25075 0.274 0.0
O1220 O 0.49962 0.30508 0.39006 0.0
O1221 O 0.55452 0.35657 0.39561 0.0
O1222 O 0.57673 0.34462 0.33118 0.0
O1223 O 0.53619 0.31862 0.32778 0.0
O1224 O 0.53927 0.31878 0.39092 0.0
O1225 O 0.4892 0.33604 0.39942 0.0
O1226 O 0.59882 0.4129 0.33888 0.0
O1227 O 0.54143 0.36055 0.33382 0.0
O1228 O 0.52471 0.37161 0.40546 0.0
O1229 O 0.55522 0.40079 0.38182 0.0
O1230 O 0.56537 0.38186 0.30528 0.0
O1231 O 0.61197 0.3838 0.33707 0.0
C1232 C 0.55642 0.33811 0.4055 0.0
C1233 C 0.43883 0.29458 0.27664 0.0
C1234 C 0.44044 0.31856 0.27967 0.0
C1235 C 0.48542 0.31423 0.40572 0.0
C1236 C 0.4808 0.30911 0.44018 0.0
C1237 C 0.47857 0.28632 0.44772 0.0
C1238 C 0.47731 0.32605 0.4652 0.0
C1239 C 0.47216 0.32046 0.49761 0.0
C1240 C 0.47356 0.28087 0.48026 0.0
C1241 C 0.47045 0.29795 0.5053 0.0
C1242 C 0.55874 0.32414 0.31922 0.0
C1243 C 0.54373 0.36602 0.30405 0.0
C1244 C 0.61598 0.40551 0.33024 0.0
C1245 C 0.62726 0.41245 0.29888 0.0
C1246 C 0.63964 0.43733 0.29806 0.0
C1247 C 0.62603 0.39538 0.27024 0.0
C1248 C 0.63692 0.40346 0.24075 0.0
C1249 C 0.65057 0.44528 0.26893 0.0
C1250 C 0.64922 0.42848 0.24038 0.0
C1251 C 0.53874 0.39477 0.40454 0.0
H1252 H 0.48055 0.27266 0.42839 0.0
H1253 H 0.47828 0.34341 0.45959 0.0
H1254 H 0.47179 0.26331 0.48594 0.0
H1255 H 0.46605 0.2934 0.53037 0.0
H1256 H 0.6408 0.45066 0.32007 0.0
H1257 H 0.61646 0.37612 0.27065 0.0
H1258 H 0.66013 0.4645 0.26849 0.0
H1259 H 0.65805 0.43502 0.21803 0.0
Gd1260 Gd 0.03024 0.65155 0.96012 0.0
Gd1261 Gd 0.97037 0.60903 0.93822 0.0
C1262 C 0.9152 0.61538 1.0151 0.0
C1263 C 0.91557 0.58735 0.05237 0.0
C1264 C 0.94024 0.59239 1.00336 0.0
C1265 C 0.9323 0.60956 0.99532 0.0
C1266 C 0.93091 0.58011 0.03093 0.0
C1267 C 0.90784 0.60512 0.04458 0.0
C1268 C 0.90465 0.62985 1.00336 0.0
C1269 C 0.90952 0.63618 0.97123 0.0
N1270 N 0.93893 0.61814 0.96582 0.0
C1271 C 0.926 0.62928 0.95221 0.0
H1272 H 0.92854 0.63325 0.92668 0.0
C1273 C 0.9575 0.56434 0.9836 0.0
N1274 N 0.9548 0.58564 0.98188 0.0
C1275 C 0.94885 0.55162 1.0105 0.0
C1276 C 0.93608 0.55998 0.03491 0.0
H1277 H 0.96579 0.55647 0.96393 0.0
H1278 H 0.89505 0.60969 0.06035 0.0
H1279 H 0.0446 0.60345 0.93177 0.0
H1280 H 0.8915 0.63477 1.01781 0.0
H1281 H 0.90026 0.64597 0.9608 0.0
H1282 H 0.90863 0.57847 0.07403 0.0
H1283 H 0.04442 0.7114 0.96032 0.0
H1284 H 0.09524 0.62239 0.85585 0.0
H1285 H 0.07087 0.59283 0.89161 0.0
H1286 H 0.10669 0.70427 0.84851 0.0
H1287 H 0.95162 0.53511 1.01194 0.0
H1288 H 0.92907 0.5499 0.0555 0.0
H1289 H 0.10793 0.66363 0.83933 0.0
H1290 H 0.06897 0.74357 0.92881 0.0
N1291 N 0.0522 0.63832 0.91833 0.0
C1292 C 0.08336 0.6271 0.87336 0.0
C1293 C 0.06957 0.61035 0.89337 0.0
C1294 C 0.08199 0.64991 0.87664 0.0
C1295 C 0.06626 0.65521 0.89993 0.0
C1296 C 0.05424 0.61637 0.91598 0.0
N1297 N 0.0515 0.68318 0.92919 0.0
C1298 C 0.06553 0.6781 0.90503 0.0
C1299 C 0.06789 0.72517 0.92142 0.0
C1300 C 0.08127 0.71988 0.89519 0.0
C1301 C 0.05353 0.70671 0.93869 0.0
C1302 C 0.08056 0.69626 0.88709 0.0
H1303 H 0.09266 0.73429 0.8821 0.0
O1304 O 0.05671 0.68239 0.99136 0.0
O1305 O 0.99498 0.63191 0.98328 0.0
O1306 O 0.97039 0.64598 0.93525 0.0
O1307 O 0.0102 0.67283 0.9432 0.0
O1308 O 0.01219 0.66927 0.9982 0.0
O1309 O 0.05836 0.64714 0.98833 0.0
O1310 O 0.96208 0.57312 0.90966 0.0
O1311 O 0.00717 0.62516 0.91661 0.0
O1312 O 0.02361 0.61806 0.9841 0.0
O1313 O 0.99552 0.5901 0.94509 0.0
O1314 O 0.97774 0.62494 0.88996 0.0
O1315 O 0.93807 0.59128 0.90521 0.0
C1316 C 0.99387 0.65024 1.00304 0.0
C1317 C 0.09527 0.69064 0.86275 0.0
C1318 C 0.09604 0.66754 0.85761 0.0
C1319 C 0.06665 0.66958 1.00358 0.0
C1320 C 0.06986 0.67385 0.04059 0.0
C1321 C 0.0741 0.69707 0.05866 0.0
C1322 C 0.06794 0.65485 0.05823 0.0
C1323 C 0.06913 0.65875 0.09356 0.0
C1324 C 0.0755 0.70101 0.09388 0.0
C1325 C 0.07283 0.68191 0.11133 0.0
C1326 C 0.98727 0.66784 0.93686 0.0
C1327 C 0.00049 0.63018 0.88937 0.0
C1328 C 0.94394 0.57323 0.89282 0.0
C1329 C 0.94448 0.56774 0.85571 0.0
C1330 C 0.94966 0.54764 0.84162 0.0
C1331 C 0.94169 0.58312 0.83434 0.0
C1332 C 0.94493 0.57881 0.79955 0.0
C1333 C 0.9527 0.54329 0.80702 0.0
C1334 C 0.95056 0.5589 0.78608 0.0
C1335 C 0.0113 0.59538 0.97044 0.0
H1336 H 0.07603 0.71212 0.04557 0.0
H1337 H 0.06516 0.63697 0.04469 0.0
H1338 H 0.07862 0.71888 0.10766 0.0
H1339 H 0.07419 0.68535 0.13872 0.0
H1340 H 0.95185 0.53555 0.85756 0.0
H1341 H 0.93766 0.59872 0.84467 0.0
H1342 H 0.95689 0.52787 0.79642 0.0
H1343 H 0.95293 0.55521 0.75924 0.0
C1344 C 0.09791 0.14756 1.02007 0.0
C1345 C 0.11683 0.15193 0.04312 0.0
C1346 C 0.09751 0.13528 0.98764 0.0
C1347 C 0.10383 0.11668 0.91663 0.0
H1348 H 0.16872 0.15737 0.89816 0.0
C1349 C 0.11904 0.16208 0.80153 0.0
C1350 C 0.12901 0.18734 0.81217 0.0
C1351 C 0.12191 0.14655 0.82188 0.0
C1352 C 0.15065 0.14544 0.90263 0.0
H1353 H 0.14778 0.14403 0.05349 0.0
H1354 H 0.14665 0.12161 0.99698 0.0
H1355 H 0.16048 0.14499 0.95306 0.0
H1356 H 0.15167 0.21639 0.85027 0.0
H1357 H 0.156 0.18934 0.88661 0.0
H1358 H 0.09358 0.12014 0.86759 0.0
C1359 C 0.13258 0.12822 1.0033 0.0
C1360 C 0.14586 0.13801 0.93407 0.0
C1361 C 0.13328 0.14099 0.03551 0.0
C1362 C 0.14345 0.19694 0.84202 0.0
C1363 C 0.14627 0.18141 0.86241 0.0
C1364 C 0.10858 0.12441 0.88529 0.0
C1365 C 0.11605 0.12724 0.9782 0.0
C1366 C 0.12208 0.1252 0.94227 0.0
C1367 C 0.13463 0.15606 0.85319 0.0
C1368 C 0.13173 0.14039 0.87913 0.0
H1369 H 0.085 0.15584 1.02592 0.0
H1370 H 0.08443 0.13491 0.96912 0.0
H1371 H 0.08542 0.10639 0.92198 0.0
H1372 H 0.10781 0.15425 0.7785 0.0
H1373 H 0.11291 0.12711 0.81416 0.0
C1374 C 0.08963 0.79118 0.18333 0.0
C1375 C 0.11036 0.80747 0.20251 0.0
C1376 C 0.08467 0.79467 0.1505 0.0
C1377 C 0.10238 0.84398 0.09489 0.0
H1378 H 0.06431 0.79123 1.02589 0.0
C1379 C 0.0701 0.86095 0.96607 0.0
C1380 C 0.0677 0.84361 0.93711 0.0
C1381 C 0.07579 0.85706 0.99835 0.0
C1382 C 0.07526 0.80632 0.04455 0.0
H1383 H 0.14279 0.83934 0.2011 0.0
H1384 H 0.13489 0.84484 0.14421 0.0
H1385 H 0.07392 0.78243 0.07985 0.0
H1386 H 0.06919 0.80851 0.92002 0.0
H1387 H 0.07971 0.80214 0.97498 0.0
H1388 H 0.10438 0.86779 0.05913 0.0
C1389 C 0.1218 0.82983 0.15449 0.0
C1390 C 0.0805 0.80121 0.07606 0.0
C1391 C 0.12661 0.82642 0.18715 0.0
C1392 C 0.07138 0.82255 0.94146 0.0
C1393 C 0.07702 0.81867 0.97341 0.0
C1394 C 0.09729 0.84907 0.06328 0.0
C1395 C 0.10036 0.81455 0.13581 0.0
C1396 C 0.09434 0.81991 0.10189 0.0
C1397 C 0.07893 0.83556 1.00272 0.0
C1398 C 0.08379 0.83034 0.03729 0.0
H1399 H 0.07655 0.77658 0.19443 0.0
H1400 H 0.06793 0.78237 0.13739 0.0
H1401 H 0.11257 0.85916 0.11397 0.0
H1402 H 0.06673 0.87707 0.96399 0.0
H1403 H 0.07685 0.87056 1.02003 0.0
C1404 C 0.44118 0.82042 0.22163 0.0
C1405 C 0.46186 0.81517 0.21827 0.0
C1406 C 0.44188 0.8417 0.24131 0.0
C1407 C 0.48169 0.89647 0.29962 0.0
H1408 H 0.43752 0.86446 0.36448 0.0
C1409 C 0.51204 0.87692 0.41053 0.0
C1410 C 0.49668 0.8677 0.43586 0.0
C1411 C 0.50547 0.88875 0.3877 0.0
C1412 C 0.4495 0.87462 0.34689 0.0
H1413 H 0.49963 0.82812 0.23222 0.0
H1414 H 0.50077 0.86487 0.26853 0.0
H1415 H 0.42894 0.84884 0.30555 0.0
H1416 H 0.46422 0.86618 0.46064 0.0
H1417 H 0.45219 0.88636 0.41988 0.0
H1418 H 0.50347 0.92067 0.34189 0.0
C1419 C 0.48419 0.85315 0.25445 0.0
C1420 C 0.44456 0.86548 0.31266 0.0
C1421 C 0.48351 0.83192 0.23426 0.0
C1422 C 0.47599 0.87276 0.44058 0.0
C1423 C 0.46928 0.88451 0.41755 0.0
C1424 C 0.48648 0.90584 0.33399 0.0
C1425 C 0.4631 0.85771 0.25927 0.0
C1426 C 0.46198 0.87465 0.2893 0.0
C1427 C 0.48319 0.89114 0.38954 0.0
C1428 C 0.47196 0.89291 0.35795 0.0
H1429 H 0.42415 0.80776 0.21023 0.0
H1430 H 0.42538 0.84469 0.24457 0.0
H1431 H 0.49499 0.90434 0.28185 0.0
H1432 H 0.5285 0.87384 0.40734 0.0
H1433 H 0.51674 0.89355 0.36657 0.0
C1434 C 0.46632 0.2116 0.80928 0.0
C1435 C 0.445 0.21439 0.81916 0.0
C1436 C 0.46899 0.20187 0.77608 0.0
C1437 C 0.43709 0.16968 0.69081 0.0
H1438 H 0.50163 0.19813 0.66067 0.0
C1439 C 0.46993 0.13891 0.55571 0.0
C1440 C 0.4865 0.15801 0.5408 0.0
C1441 C 0.4622 0.14346 0.58894 0.0
C1442 C 0.48339 0.18992 0.66826 0.0
H1443 H 0.40937 0.20851 0.80079 0.0
H1444 H 0.41399 0.19157 0.74228 0.0
H1445 H 0.49299 0.21069 0.71772 0.0
H1446 H 0.50697 0.19704 0.54975 0.0
H1447 H 0.49427 0.20448 0.60585 0.0
H1448 H 0.42764 0.14955 0.64008 0.0
C1449 C 0.42872 0.19667 0.76072 0.0
C1450 C 0.47841 0.19695 0.70166 0.0
C1451 C 0.42598 0.20637 0.79446 0.0
C1452 C 0.49443 0.18157 0.55987 0.0
C1453 C 0.48719 0.18596 0.59267 0.0
C1454 C 0.44212 0.16262 0.65701 0.0
C1455 C 0.45062 0.19487 0.75061 0.0
C1456 C 0.45521 0.187 0.71395 0.0
C1457 C 0.47127 0.1671 0.60836 0.0
C1458 C 0.4654 0.17279 0.645 0.0
H1459 H 0.48142 0.21751 0.82737 0.0
H1460 H 0.48587 0.2002 0.77039 0.0
H1461 H 0.41899 0.16136 0.69883 0.0
H1462 H 0.46325 0.12054 0.54206 0.0
H1463 H 0.44976 0.12836 0.59982 0.0
C1464 C 0.96413 0.85282 0.26984 0.0
C1465 C 0.94193 0.84592 0.28483 0.0
C1466 C 0.96659 0.861 0.23895 0.0
C1467 C 0.93306 0.85052 0.16262 0.0
H1468 H 0.99188 0.90023 0.1395 0.0
C1469 C 0.96218 0.84208 0.03046 0.0
C1470 C 0.98468 0.84031 0.03059 0.0
C1471 C 0.95524 0.8535 0.05885 0.0
C1472 C 0.97513 0.88666 0.14562 0.0
H1473 H 0.90495 0.84214 0.2801 0.0
H1474 H 0.90924 0.85636 0.22526 0.0
H1475 H 0.98163 0.89974 0.19867 0.0
H1476 H 0.0183 0.85059 0.05902 0.0
H1477 H 0.00557 0.86926 0.10976 0.0
H1478 H 0.92762 0.83586 0.11034 0.0
C1479 C 0.92471 0.85577 0.23783 0.0
C1480 C 0.96929 0.88639 0.17927 0.0
C1481 C 0.92228 0.84768 0.26894 0.0
C1482 C 0.00066 0.85128 0.05877 0.0
C1483 C 0.99358 0.86247 0.0874 0.0
C1484 C 0.93892 0.85073 0.12906 0.0
C1485 C 0.94687 0.86239 0.22267 0.0
C1486 C 0.94895 0.86749 0.18798 0.0
C1487 C 0.97047 0.86284 0.08801 0.0
C1488 C 0.96072 0.86794 0.12061 0.0
H1489 H 0.97951 0.85163 0.28185 0.0
H1490 H 0.98366 0.8653 0.22716 0.0
H1491 H 0.91743 0.83561 0.16887 0.0
H1492 H 0.9495 0.8337 1.00895 0.0
H1493 H 0.93739 0.85367 0.05877 0.0
C1494 C 0.98041 0.21185 0.87301 0.0
C1495 C 0.95936 0.19505 0.85495 0.0
C1496 C 0.98666 0.20885 0.90557 0.0
C1497 C 0.97173 0.16036 0.96286 0.0
H1498 H 0.01216 0.21406 0.0287 0.0
C1499 C 0.00827 0.1447 0.08978 0.0
C1500 C 0.01365 0.16311 0.11817 0.0
C1501 C 0.00099 0.14816 0.05807 0.0
C1502 C 0.00053 0.19868 1.01106 0.0
H1503 H 0.92792 0.16259 0.85812 0.0
H1504 H 0.93795 0.15795 0.91449 0.0
H1505 H 0.00037 0.22186 0.97542 0.0
H1506 H 0.01522 0.19947 0.13497 0.0
H1507 H 0.00197 0.20517 0.08119 0.0
H1508 H 0.97113 0.13727 0.999 0.0
C1509 C 0.95033 0.17306 0.90357 0.0
C1510 C 0.99403 0.20322 0.97979 0.0
C1511 C 0.94424 0.17598 0.87119 0.0
C1512 C 0.01115 0.18477 0.11386 0.0
C1513 C 0.0038 0.18818 0.08251 0.0
C1514 C 0.978 0.15585 0.99428 0.0
C1515 C 0.97203 0.18893 0.92119 0.0
C1516 C 0.97935 0.18419 0.95496 0.0
C1517 C -0.00099 0.17022 0.05358 0.0
C1518 C 0.99246 0.1749 1.01928 0.0
H1519 H 0.99272 0.22654 0.86123 0.0
H1520 H 0.00356 0.22162 0.91772 0.0
H1521 H 0.96096 0.14489 0.94462 0.0
H1522 H 0.01042 0.12794 0.09176 0.0
H1523 H 0.99772 0.13374 0.03683 0.0
C1524 C 0.62935 0.18434 0.82931 0.0
C1525 C 0.61086 0.19107 0.84236 0.0
C1526 C 0.62408 0.16416 0.80425 0.0
C1527 C 0.57789 0.13735 0.73658 0.0
H1528 H 0.62109 0.10725 0.70009 0.0
C1529 C 0.57217 0.10409 0.59693 0.0
C1530 C 0.59394 0.11571 0.58228 0.0
C1531 C 0.57179 0.10281 0.63134 0.0
C1532 C 0.6087 0.11527 0.71019 0.0
H1533 H 0.57251 0.18077 0.84384 0.0
H1534 H 0.563 0.14418 0.80208 0.0
H1535 H 0.62341 0.1221 0.76081 0.0
H1536 H 0.63244 0.1336 0.59086 0.0
H1537 H 0.63183 0.1317 0.65143 0.0
H1538 H 0.5639 0.13161 0.68616 0.0
C1539 C 0.58163 0.15512 0.80954 0.0
C1540 C 0.61002 0.1238 0.74484 0.0
C1541 C 0.58696 0.17593 0.83343 0.0
C1542 C 0.61552 0.12427 0.60174 0.0
C1543 C 0.61514 0.12312 0.63629 0.0
C1544 C 0.57637 0.12858 0.7023 0.0
C1545 C 0.60018 0.15034 0.79245 0.0
C1546 C 0.59516 0.13571 0.75821 0.0
C1547 C 0.59317 0.11332 0.65156 0.0
C1548 C 0.59219 0.11811 0.68861 0.0
H1549 H 0.64793 0.19593 0.83589 0.0
H1550 H 0.6389 0.16114 0.79186 0.0
H1551 H 0.56665 0.14709 0.74539 0.0
H1552 H 0.55534 0.0974 0.58217 0.0
H1553 H 0.55465 0.09505 0.64256 0.0
C1554 C 0.58815 0.82266 0.49973 0.0
C1555 C 0.59397 0.84679 0.51589 0.0
C1556 C 0.59583 0.81716 0.46748 0.0
C1557 C 0.63826 0.84034 0.39936 0.0
H1558 H 0.58999 0.78553 0.34329 0.0
C1559 C 0.65644 0.79309 0.26516 0.0
C1560 C 0.63766 0.78441 0.23994 0.0
C1561 C 0.65326 0.80306 0.29856 0.0
C1562 C 0.6038 0.80101 0.35818 0.0
H1563 H 0.61407 0.88425 0.51015 0.0
H1564 H 0.62815 0.87463 0.45342 0.0
H1565 H 0.58108 0.79912 0.40001 0.0
H1566 H 0.60062 0.77908 0.23124 0.0
H1567 H 0.59504 0.79589 0.28829 0.0
H1568 H 0.66087 0.84211 0.35672 0.0
C1569 C 0.61714 0.85984 0.46612 0.0
C1570 C 0.59873 0.80874 0.39134 0.0
C1571 C 0.60913 0.86544 0.49886 0.0
C1572 C 0.6157 0.78589 0.2495 0.0
C1573 C 0.61242 0.79541 0.28267 0.0
C1574 C 0.64343 0.83244 0.36594 0.0
C1575 C 0.60994 0.83548 0.44933 0.0
C1576 C 0.61581 0.82847 0.41292 0.0
C1577 C 0.63094 0.80397 0.3082 0.0
C1578 C 0.62622 0.81261 0.34455 0.0
H1579 H 0.57679 0.80759 0.51176 0.0
H1580 H 0.59033 0.7982 0.45658 0.0
H1581 H 0.65206 0.85549 0.4148 0.0
H1582 H 0.67339 0.79159 0.25939 0.0
H1583 H 0.66805 0.8092 0.31716 0.0
C1584 C 0.6503 0.66045 0.29873 0.0
C1585 C 0.65886 0.68578 0.30833 0.0
C1586 C 0.65317 0.64608 0.32102 0.0
C1587 C 0.62954 0.64584 0.38833 0.0
H1588 H 0.66076 0.62162 0.44952 0.0
C1589 C 0.5853 0.62723 0.50429 0.0
C1590 C 0.60063 0.64485 0.52955 0.0
C1591 C 0.59494 0.61801 0.47652 0.0
C1592 C 0.65171 0.62783 0.43209 0.0
H1593 H 0.68121 0.71625 0.34493 0.0
H1594 H 0.68508 0.69094 0.38477 0.0
H1595 H 0.68066 0.63574 0.39803 0.0
H1596 H 0.63746 0.66391 0.54903 0.0
H1597 H 0.65436 0.64899 0.49964 0.0
H1598 H 0.60176 0.64033 0.42267 0.0
C1599 C 0.67659 0.68224 0.35998 0.0
C1600 C 0.6631 0.63594 0.40302 0.0
C1601 C 0.67386 0.69669 0.3376 0.0
C1602 C 0.6254 0.65057 0.52934 0.0
C1603 C 0.63506 0.64172 0.50128 0.0
C1604 C 0.61833 0.63791 0.41699 0.0
C1605 C 0.664 0.65698 0.35321 0.0
C1606 C 0.65208 0.64526 0.38144 0.0
C1607 C 0.61992 0.62718 0.47339 0.0
C1608 C 0.62942 0.62921 0.43954 0.0
H1609 H 0.63875 0.6515 0.27619 0.0
H1610 H 0.64324 0.6266 0.31554 0.0
H1611 H 0.62114 0.65366 0.3723 0.0
H1612 H 0.56607 0.62215 0.50471 0.0
H1613 H 0.58295 0.60637 0.45551 0.0
C1614 C 0.59748 0.28697 0.68467 0.0
C1615 C 0.61845 0.30368 0.70301 0.0
C1616 C 0.59144 0.29013 0.65208 0.0
C1617 C 0.60645 0.339 0.5955 0.0
H1618 H 0.56742 0.28549 0.52824 0.0
C1619 C 0.57072 0.35487 0.46796 0.0
C1620 C 0.5668 0.33702 0.43913 0.0
C1621 C 0.57747 0.35125 0.49991 0.0
C1622 C 0.57863 0.30082 0.54633 0.0
H1623 H 0.64993 0.3362 0.70032 0.0
H1624 H 0.6402 0.34116 0.64396 0.0
H1625 H 0.5787 0.27741 0.58172 0.0
H1626 H 0.5671 0.30141 0.42193 0.0
H1627 H 0.57947 0.29557 0.4762 0.0
H1628 H 0.60703 0.36235 0.55969 0.0
C1629 C 0.62778 0.32596 0.65465 0.0
C1630 C 0.58485 0.29612 0.57767 0.0
C1631 C 0.63369 0.32285 0.68702 0.0
C1632 C 0.57005 0.3157 0.44335 0.0
C1633 C 0.57686 0.31216 0.47494 0.0
C1634 C 0.60038 0.34369 0.56407 0.0
C1635 C 0.60617 0.31015 0.63674 0.0
C1636 C 0.59906 0.31507 0.60296 0.0
C1637 C 0.5803 0.32956 0.5042 0.0
C1638 C 0.58646 0.32471 0.53859 0.0
H1639 H 0.58505 0.27224 0.69626 0.0
H1640 H 0.5746 0.27741 0.63968 0.0
H1641 H 0.61688 0.3544 0.61411 0.0
H1642 H 0.56794 0.37132 0.46606 0.0
H1643 H 0.57972 0.36524 0.52143 0.0
C1644 C 0.97577 0.36882 0.9475 0.0
C1645 C 0.99369 0.35979 0.94997 0.0
C1646 C 0.97578 0.3818 0.9215 0.0
C1647 C 0.00513 0.39564 0.83947 0.0
H1648 H 0.94254 0.34855 0.80522 0.0
C1649 C 0.99152 0.3218 0.73124 0.0
C1650 C 0.96868 0.30852 0.71574 0.0
C1651 C 0.99587 0.34332 0.75346 0.0
C1652 C 0.95989 0.36254 0.81377 0.0
H1653 H 0.02729 0.35964 0.93132 0.0
H1654 H 0.02684 0.38099 0.88482 0.0
H1655 H 0.94923 0.36328 0.86428 0.0
H1656 H 0.93284 0.30778 0.70979 0.0
H1657 H 0.94073 0.34587 0.74663 0.0
H1658 H 0.01616 0.39257 0.78853 0.0
C1659 C 0.01301 0.37891 0.90291 0.0
C1660 C 0.96379 0.37117 0.84819 0.0
C1661 C 0.01321 0.36637 0.9293 0.0
C1662 C 0.95071 0.31779 0.721 0.0
C1663 C 0.95523 0.33963 0.74229 0.0
C1664 C 0.00121 0.38692 0.8048 0.0
C1665 C 0.99317 0.38484 0.897 0.0
C1666 C 0.987 0.38606 0.86178 0.0
C1667 C 0.97736 0.35182 0.76048 0.0
C1668 C 0.97909 0.36869 0.79218 0.0
H1669 H 0.96074 0.36406 0.96378 0.0
H1670 H 0.96064 0.38677 0.9182 0.0
H1671 H 0.02305 0.4077 0.84912 0.0
H1672 H 0.0056 0.31487 0.72759 0.0
H1673 H 0.01308 0.352 0.76729 0.0
C1674 C 0.96923 0.70951 0.30495 0.0
C1675 C 0.94687 0.70796 0.31761 0.0
C1676 C 0.97156 0.70075 0.27107 0.0
C1677 C 0.94039 0.65919 0.19235 0.0
H1678 H 0.99309 0.70296 0.14834 0.0
C1679 C 0.97707 0.63402 0.05798 0.0
C1680 C 0.9815 0.65128 0.03594 0.0
C1681 C 0.97009 0.63858 0.09154 0.0
C1682 C 0.97825 0.69041 0.16005 0.0
H1683 H 0.90916 0.69528 0.30311 0.0
H1684 H 0.91294 0.67838 0.24414 0.0
H1685 H 0.98583 0.71493 0.20708 0.0
H1686 H 0.98263 0.68721 0.0331 0.0
H1687 H 0.97155 0.69538 0.09096 0.0
H1688 H 0.93321 0.63449 0.14499 0.0
C1689 C 0.92885 0.68682 0.26088 0.0
C1690 C 0.97412 0.69727 0.19405 0.0
C1691 C 0.92659 0.69628 0.29497 0.0
C1692 C 0.97882 0.67314 0.04876 0.0
C1693 C 0.97263 0.67797 0.08228 0.0
C1694 C 0.94486 0.65207 0.15832 0.0
C1695 C 0.95156 0.68952 0.24808 0.0
C1696 C 0.95509 0.68188 0.21099 0.0
C1697 C 0.96841 0.66099 0.10457 0.0
C1698 C 0.96381 0.66766 0.14145 0.0
H1699 H 0.98541 0.71844 0.32115 0.0
H1700 H 0.98931 0.70304 0.26277 0.0
H1701 H 0.92567 0.64669 0.20428 0.0
H1702 H 0.98009 0.61753 0.0499 0.0
H1703 H 0.96724 0.62506 0.10785 0.0
C1704 C 0.44437 0.33937 0.51997 0.0
C1705 C 0.46646 0.33717 0.52289 0.0
C1706 C 0.43564 0.34942 0.54802 0.0
C1707 C 0.41759 0.33819 0.6169 0.0
H1708 H 0.45389 0.3878 0.69072 0.0
C1709 C 0.43852 0.32166 0.74321 0.0
C1710 C 0.44603 0.34112 0.77003 0.0
C1711 C 0.42833 0.32393 0.71363 0.0
C1712 C 0.44281 0.37422 0.67041 0.0
H1713 H 0.49834 0.34621 0.55456 0.0
H1714 H 0.48331 0.36407 0.60375 0.0
H1715 H 0.46421 0.39335 0.63307 0.0
H1716 H 0.44559 0.37625 0.78993 0.0
H1717 H 0.42726 0.38014 0.73818 0.0
H1718 H 0.39793 0.31782 0.65446 0.0
C1719 C 0.47262 0.35811 0.58016 0.0
C1720 C 0.44887 0.37745 0.63741 0.0
C1721 C 0.48116 0.34773 0.55231 0.0
C1722 C 0.44037 0.36138 0.76896 0.0
C1723 C 0.42976 0.36347 0.7396 0.0
C1724 C 0.41158 0.33489 0.64998 0.0
C1725 C 0.44916 0.35749 0.5788 0.0
C1726 C 0.43724 0.35884 0.61066 0.0
C1727 C 0.42548 0.34565 0.71087 0.0
C1728 C 0.4251 0.35228 0.67705 0.0
H1729 H 0.43297 0.33129 0.49711 0.0
H1730 H 0.41754 0.34882 0.54659 0.0
H1731 H 0.40861 0.32338 0.5966 0.0
H1732 H 0.44258 0.30575 0.74391 0.0
H1733 H 0.42531 0.30988 0.69189 0.0
C1734 C 0.50862 0.64588 0.59234 0.0
C1735 C 0.51497 0.6641 0.62109 0.0
C1736 C 0.50182 0.6502 0.56086 0.0
C1737 C 0.5046 0.70214 0.5144 0.0
H1738 H 0.46066 0.65017 0.44964 0.0
C1739 C 0.48381 0.71718 0.37729 0.0
C1740 C 0.46178 0.7018 0.36022 0.0
C1741 C 0.49015 0.71362 0.40952 0.0
C1742 C 0.47273 0.66519 0.46739 0.0
H1743 H 0.5192 0.7013 0.63837 0.0
H1744 H 0.50716 0.70862 0.58487 0.0
H1745 H 0.47092 0.64152 0.50331 0.0
H1746 H 0.4289 0.6712 0.36489 0.0
H1747 H 0.43917 0.66564 0.42064 0.0
H1748 H 0.50581 0.72596 0.47895 0.0
C1749 C 0.50756 0.69098 0.58591 0.0
C1750 C 0.47901 0.66003 0.4984 0.0
C1751 C 0.51424 0.68664 0.61711 0.0
C1752 C 0.44595 0.68357 0.37719 0.0
C1753 C 0.45215 0.68007 0.40921 0.0
C1754 C 0.49818 0.70733 0.48348 0.0
C1755 C 0.50145 0.67303 0.5568 0.0
C1756 C 0.49501 0.67839 0.52282 0.0
C1757 C 0.47469 0.69448 0.42583 0.0
C1758 C 0.48195 0.68902 0.45924 0.0
H1759 H 0.50946 0.62848 0.59392 0.0
H1760 H 0.49756 0.63576 0.53946 0.0
H1761 H 0.51736 0.71698 0.53162 0.0
H1762 H 0.49673 0.73111 0.36493 0.0
H1763 H 0.50771 0.72527 0.42083 0.0
C1764 C 0.10178 0.68392 0.32227 0.0
C1765 C 0.12604 0.69646 0.33219 0.0
C1766 C 0.09411 0.6611 0.30234 0.0
C1767 C 0.12009 0.63628 0.23412 0.0
H1768 H 0.05324 0.59364 0.2165 0.0
C1769 C 0.08458 0.62835 0.10752 0.0
C1770 C 0.06778 0.6392 0.11238 0.0
C1771 C 0.08832 0.61582 0.13207 0.0
C1772 C 0.07213 0.60493 0.22105 0.0
H1773 H 0.16117 0.6951 0.33135 0.0
H1774 H 0.14781 0.65475 0.29706 0.0
H1775 H 0.06883 0.61035 0.27468 0.0
H1776 H 0.03887 0.64203 0.14261 0.0
H1777 H 0.04561 0.62095 0.18576 0.0
H1778 H 0.12303 0.63347 0.18102 0.0
C1779 C 0.13465 0.66242 0.30452 0.0
C1780 C 0.08106 0.6145 0.25439 0.0
C1781 C 0.14236 0.68545 0.32404 0.0
C1782 C 0.05235 0.63428 0.13903 0.0
C1783 C 0.05607 0.62182 0.16351 0.0
C1784 C 0.11118 0.62686 0.20096 0.0
C1785 C 0.11073 0.65067 0.2917 0.0
C1786 C 0.10454 0.63205 0.26091 0.0
C1787 C 0.07553 0.61441 0.16183 0.0
C1788 C 0.08654 0.61305 0.19401 0.0
H1789 H 0.08905 0.69241 0.32817 0.0
H1790 H 0.07563 0.65285 0.29268 0.0
H1791 H 0.13833 0.64959 0.23803 0.0
H1792 H 0.09643 0.63166 0.0867 0.0
H1793 H 0.10302 0.60974 0.12958 0.0
C1794 C 0.11843 0.29981 0.74609 0.0
C1795 C 0.13775 0.29308 0.73658 0.0
C1796 C 0.11592 0.30873 0.77987 0.0
C1797 C 0.13545 0.31025 0.86978 0.0
H1798 H 0.1022 0.35381 0.88993 0.0
C1799 C 0.101 0.32698 1.00478 0.0
C1800 C 0.09634 0.34793 1.01609 0.0
C1801 C 0.10859 0.32249 0.97198 0.0
C1802 C 0.11184 0.34191 0.8853 0.0
H1803 H 0.1696 0.29035 0.75616 0.0
H1804 H 0.16555 0.30621 0.81523 0.0
H1805 H 0.11138 0.34319 0.83207 0.0
H1806 H 0.09592 0.38057 1.0007 0.0
H1807 H 0.11059 0.37374 0.94425 0.0
H1808 H 0.1367 0.3096 0.92305 0.0
C1809 C 0.15218 0.30467 0.79635 0.0
C1810 C 0.11682 0.33539 0.85149 0.0
C1811 C 0.15481 0.2959 0.76221 0.0
C1812 C 0.09999 0.36459 0.99344 0.0
C1813 C 0.10795 0.36027 0.96053 0.0
C1814 C 0.13068 0.31696 0.90366 0.0
C1815 C 0.13247 0.31103 0.806 0.0
C1816 C 0.12849 0.31918 0.84282 0.0
C1817 C 0.11196 0.3388 0.94872 0.0
C1818 C 0.11848 0.33275 0.9123 0.0
H1819 H 0.10465 0.29745 0.72728 0.0
H1820 H 0.10025 0.31285 0.78555 0.0
H1821 H 0.1442 0.29756 0.86477 0.0
H1822 H 0.09779 0.31337 1.02107 0.0
H1823 H 0.11074 0.30548 0.96461 0.0
C1824 C 0.10801 0.31939 0.15937 0.0
C1825 C 0.09398 0.31167 0.12902 0.0
C1826 C 0.10034 0.3063 0.18598 0.0
C1827 C 0.03871 0.26607 0.20421 0.0
H1828 H 0.06539 0.28323 0.29595 0.0
C1829 C 0.03817 0.2132 0.28302 0.0
C1830 C 0.01899 0.19728 0.26074 0.0
C1831 C 0.0378 0.23509 0.29903 0.0
C1832 C 0.05749 0.27833 0.27046 0.0
H1833 H 0.0679 0.28048 0.09753 0.0
H1834 H 0.0564 0.25606 0.14262 0.0
H1835 H 0.0916 0.29495 0.25056 0.0
H1836 H 0.98208 0.18947 0.24528 0.0
H1837 H 0.98431 0.2302 0.26836 0.0
H1838 H 0.0049 0.24832 0.22359 0.0
C1839 C 0.07081 0.27382 0.14795 0.0
C1840 C 0.07271 0.28502 0.24406 0.0
C1841 C 0.07778 0.28746 0.12175 0.0
C1842 C 0.99808 0.20213 0.25974 0.0
C1843 C -0.00089 0.22524 0.27398 0.0
C1844 C 0.02367 0.25894 0.23042 0.0
C1845 C 0.07939 0.28492 0.1814 0.0
C1846 C 0.06371 0.27778 0.21022 0.0
C1847 C 0.0217 0.24345 0.28545 0.0
C1848 C 0.03327 0.26248 0.26356 0.0
H1849 H 0.12172 0.33758 0.16499 0.0
H1850 H 0.10879 0.31508 0.21065 0.0
H1851 H 0.03046 0.26162 0.17911 0.0
H1852 H 0.05415 0.20963 0.28636 0.0
H1853 H 0.05373 0.24748 0.31394 0.0
C1854 C 0.96708 0.69461 0.46704 0.0
C1855 C 0.97819 0.71487 0.45035 0.0
C1856 C 0.97626 0.69358 0.49827 0.0
C1857 C 0.01411 0.6895 0.54136 0.0
H1858 H 0.06278 0.75416 0.55947 0.0
C1859 C 0.0622 0.71635 0.44099 0.0
C1860 C 0.08386 0.73618 0.44056 0.0
C1861 C 0.05297 0.70976 0.47172 0.0
C1862 C 0.04978 0.73559 0.55586 0.0
H1863 H 0.00888 0.74883 0.45238 0.0
H1864 H 0.02554 0.74674 0.50547 0.0
H1865 H 0.0215 0.74732 0.57033 0.0
H1866 H 0.11347 0.76302 0.47202 0.0
H1867 H 0.0965 0.75362 0.5254 0.0
H1868 H 0.04189 0.67773 0.52362 0.0
C1869 C 0.00896 0.73204 0.4956 0.0
C1870 C 0.02586 0.7316 0.56221 0.0
C1871 C -0.00015 0.733 0.46432 0.0
C1872 C 0.09575 0.74955 0.47136 0.0
C1873 C 0.08652 0.74322 0.50214 0.0
C1874 C 0.03801 0.69302 0.53583 0.0
C1875 C 0.99691 0.7126 0.51357 0.0
C1876 C 0.00833 0.71014 0.54482 0.0
C1877 C 0.06541 0.72277 0.50275 0.0
C1878 C 0.05441 0.71694 0.53527 0.0
H1879 H 0.94995 0.68059 0.45807 0.0
H1880 H 0.96684 0.67814 0.51084 0.0
H1881 H 0.00054 0.67154 0.53313 0.0
H1882 H 0.05296 0.70534 0.41756 0.0
H1883 H 0.03597 0.69448 0.47098 0.0
C1884 C 0.49771 0.69539 0.7694 0.0
C1885 C 0.52073 0.69526 0.76424 0.0
C1886 C 0.49551 0.7171 0.78344 0.0
C1887 C 0.53903 0.77779 0.76774 0.0
H1888 H 0.51718 0.742 0.67787 0.0
C1889 C 0.5962 0.8117 0.65919 0.0
C1890 C 0.58371 0.80759 0.62821 0.0
C1891 C 0.58511 0.798 0.68419 0.0
C1892 C 0.5238 0.75284 0.7023 0.0
H1893 H 0.55812 0.71419 0.7816 0.0
H1894 H 0.55389 0.75163 0.80457 0.0
H1895 H 0.49476 0.72796 0.72424 0.0
H1896 H 0.55525 0.78113 0.59434 0.0
H1897 H 0.53484 0.75853 0.63729 0.0
H1898 H 0.56771 0.80324 0.74547 0.0
C1899 C 0.53774 0.7359 0.79582 0.0
C1900 C 0.5104 0.74476 0.72959 0.0
C1901 C 0.54046 0.71469 0.78137 0.0
C1902 C 0.56396 0.78573 0.61929 0.0
C1903 C 0.55214 0.77282 0.64451 0.0
C1904 C 0.55222 0.78636 0.74026 0.0
C1905 C 0.51637 0.73855 0.78796 0.0
C1906 C 0.51956 0.75529 0.76294 0.0
C1907 C 0.56136 0.78064 0.67836 0.0
C1908 C 0.54585 0.77292 0.70729 0.0
H1909 H 0.48174 0.67986 0.75948 0.0
H1910 H 0.47808 0.71812 0.78158 0.0
H1911 H 0.54591 0.78709 0.79304 0.0
H1912 H 0.61249 0.82768 0.66608 0.0
H1913 H 0.59434 0.80285 0.70877 0.0
C1914 C 0.56787 0.23348 0.9662 0.0
C1915 C 0.59252 0.24489 0.96356 0.0
C1916 C 0.55826 0.23334 0.99794 0.0
C1917 C 0.54293 0.22679 0.0672 0.0
H1918 H 0.53514 0.28739 0.06895 0.0
C1919 C 0.46769 0.22114 0.99305 0.0
C1920 C 0.47863 0.23358 0.96635 0.0
C1921 C 0.47949 0.22703 1.02482 0.0
C1922 C 0.53698 0.27039 0.07038 0.0
H1923 H 0.62677 0.263 0.99147 0.0
H1924 H 0.6097 0.26505 0.04708 0.0
H1925 H 0.57489 0.28674 0.06625 0.0
H1926 H 0.51086 0.26104 0.9516 0.0
H1927 H 0.53192 0.2706 1.00601 0.0
H1928 H 0.50486 0.20978 0.06459 0.0
C1929 C 0.59792 0.25609 1.02476 0.0
C1930 C 0.55995 0.27004 0.06895 0.0
C1931 C 0.60754 0.25573 0.99294 0.0
C1932 C 0.50201 0.25115 0.97161 0.0
C1933 C 0.51373 0.25713 1.00331 0.0
C1934 C 0.51996 0.22711 0.06793 0.0
C1935 C 0.5732 0.2447 1.02754 0.0
C1936 C 0.56197 0.24753 0.05991 0.0
C1937 C 0.50258 0.24527 0.03051 0.0
C1938 C 0.51725 0.24823 0.06155 0.0
H1939 H 0.55612 0.22448 0.94383 0.0
H1940 H 0.53899 0.22476 0.99922 0.0
H1941 H 0.5445 0.20932 0.06308 0.0
H1942 H 0.44944 0.20778 0.99008 0.0
H1943 H 0.47062 0.21724 0.04492 0.0
C1944 C 0.07664 0.79592 0.83597 0.0
C1945 C 0.06911 0.80735 0.81333 0.0
C1946 C 0.07502 0.77228 0.82611 0.0
C1947 C 0.04982 0.72039 0.81633 0.0
H1948 H 0.98623 0.72059 0.80605 0.0
C1949 C 0.96636 0.67739 0.89239 0.0
C1950 C 0.98154 0.68586 0.92185 0.0
C1951 C 0.9734 0.68911 0.86424 0.0
C1952 C 0.00391 0.72045 0.80894 0.0
H1953 H 0.06009 0.80619 0.7608 0.0
H1954 H 0.05467 0.7637 0.74434 0.0
H1955 H 0.01717 0.74023 0.76848 0.0
H1956 H 0.00923 0.71751 0.9501 0.0
H1957 H 0.02215 0.73761 0.90087 0.0
H1958 H 0.03685 0.70289 0.85933 0.0
C1959 C 0.06194 0.7728 0.76955 0.0
C1960 C 0.0216 0.731 0.78693 0.0
C1961 C 0.0643 0.79684 0.77921 0.0
C1962 C -0.00145 0.7098 0.92661 0.0
C1963 C 0.00591 0.72128 0.89848 0.0
C1964 C 0.03244 0.71061 0.83895 0.0
C1965 C 0.06394 0.75938 0.79435 0.0
C1966 C 0.04565 0.73451 0.79423 0.0
C1967 C 0.99521 0.70913 0.86649 0.0
C1968 C 0.01024 0.71284 0.83719 0.0
H1969 H 0.08126 0.80418 0.86219 0.0
H1970 H 0.07811 0.7631 0.84573 0.0
H1971 H 0.06775 0.72115 0.8208 0.0
H1972 H 0.95222 0.65943 0.88852 0.0
H1973 H 0.96438 0.68006 0.83986 0.0
C1974 C 0.60097 0.77846 0.08396 0.0
C1975 C 0.59659 0.76454 0.11012 0.0
C1976 C 0.58681 0.76913 0.05384 0.0
C1977 C 0.53584 0.71144 1.01382 0.0
H1978 H 0.51818 0.75908 0.98097 0.0
C1979 C 0.49392 0.73507 0.0986 0.0
C1980 C 0.49029 0.75689 0.10309 0.0
C1981 C 0.49702 0.72436 0.0666 0.0
C1982 C 0.5229 0.74547 0.99024 0.0
H1983 H 0.56969 0.73497 0.13051 0.0
H1984 H 0.54457 0.71901 0.07928 0.0
H1985 H 0.55946 0.76991 0.99915 0.0
H1986 H 0.49247 0.78696 0.07823 0.0
H1987 H 0.49598 0.76792 1.02223 0.0
H1988 H 0.49839 0.68896 1.00759 0.0
C1989 C 0.56061 0.73526 0.07941 0.0
C1990 C 0.54684 0.75166 1.00036 0.0
C1991 C 0.57475 0.74463 0.10922 0.0
C1992 C 0.49272 0.76908 0.07531 0.0
C1993 C 0.49509 0.7581 0.04297 0.0
C1994 C 0.51194 0.70641 1.0043 0.0
C1995 C 0.56747 0.7464 0.05034 0.0
C1996 C 0.55222 0.73595 1.01852 0.0
C1997 C 0.49736 0.73546 0.03778 0.0
C1998 C 0.50574 0.72665 1.00468 0.0
H1999 H 0.61719 0.79464 0.08464 0.0
H2000 H 0.59213 0.77901 0.03277 0.0
H2001 H 0.54005 0.69764 1.02354 0.0
H2002 H 0.49301 0.72537 0.1195 0.0
H2003 H 0.49937 0.70737 0.06502 0.0
C2004 C 0.47486 0.17926 0.38579 0.0
C2005 C 0.48732 0.18815 0.41745 0.0
C2006 C 0.48354 0.1917 0.35876 0.0
C2007 C 0.5448 0.23036 0.34196 0.0
H2008 H 0.51836 0.22372 0.25208 0.0
C2009 C 0.58461 0.30123 0.29961 0.0
C2010 C 0.56399 0.30604 0.29509 0.0
C2011 C 0.58517 0.27912 0.28378 0.0
C2012 C 0.52626 0.22578 0.27699 0.0
H2013 H 0.51243 0.22006 0.44891 0.0
H2014 H 0.52631 0.24286 0.40238 0.0
H2015 H 0.49167 0.20902 0.29625 0.0
H2016 H 0.5323 0.29551 0.26195 0.0
H2017 H 0.53475 0.25868 0.23385 0.0
H2018 H 0.57916 0.24707 0.32348 0.0
C2019 C 0.51171 0.2252 0.39734 0.0
C2020 C 0.51076 0.21733 0.30249 0.0
C2021 C 0.50352 0.21239 0.42414 0.0
C2022 C 0.54736 0.29157 0.26863 0.0
C2023 C 0.54897 0.27027 0.25224 0.0
C2024 C 0.56019 0.23877 0.31656 0.0
C2025 C 0.50392 0.21352 0.36396 0.0
C2026 C 0.51982 0.22115 0.33585 0.0
C2027 C 0.56385 0.2612 0.26749 0.0
C2028 C 0.55095 0.23967 0.28488 0.0
H2029 H 0.46154 0.16088 0.38027 0.0
H2030 H 0.47643 0.18244 0.33358 0.0
H2031 H 0.55259 0.23148 0.3666 0.0
H2032 H 0.59898 0.31305 0.31761 0.0
H2033 H 0.59976 0.2743 0.29085 0.0
C2034 C 0.07513 0.2617 0.60282 0.0
C2035 C 0.0991 0.27741 0.60136 0.0
C2036 C 0.06076 0.25176 0.57324 0.0
C2037 C 0.0468 0.25953 0.49253 0.0
H2038 H 0.00585 0.19324 0.49708 0.0
C2039 C 0.98315 0.22397 0.58319 0.0
C2040 C 0.98675 0.24812 0.59613 0.0
C2041 C 0.98788 0.21765 0.54975 0.0
C2042 C 0.01724 0.21187 0.49539 0.0
H2043 H 0.12542 0.29882 0.56929 0.0
H2044 H 0.09952 0.28233 0.51769 0.0
H2045 H 0.04703 0.20865 0.51929 0.0
H2046 H 0.00072 0.28492 0.58531 0.0
H2047 H 0.00889 0.27448 0.52781 0.0
H2048 H 0.01536 0.26183 0.47221 0.0
C2049 C 0.09255 0.27657 0.54134 0.0
C2050 C 0.04107 0.22052 0.5075 0.0
C2051 C 0.10707 0.28641 0.57105 0.0
C2052 C 0.99693 0.26602 0.57577 0.0
C2053 C 0.00141 0.25975 0.54225 0.0
C2054 C 0.02261 0.24984 0.48123 0.0
C2055 C 0.06997 0.25793 0.54195 0.0
C2056 C 0.05483 0.24571 0.5109 0.0
C2057 C 0.99724 0.2354 0.5284 0.0
C2058 C 0.00745 0.22953 0.49518 0.0
H2059 H 0.06833 0.25514 0.62611 0.0
H2060 H 0.04274 0.23849 0.57469 0.0
H2061 H 0.05742 0.27859 0.49227 0.0
H2062 H 0.97519 0.20956 0.59808 0.0
H2063 H 0.9841 0.19868 0.54085 0.0
C2064 C 0.05108 0.08846 0.0957 0.0
C2065 C 0.04302 0.08519 0.12848 0.0
C2066 C 0.05072 0.06861 0.07157 0.0
C2067 C 0.02367 0.9996 0.05314 0.0
H2068 H 0.07162 0.00865 0.9859 0.0
C2069 C 0.03067 0.91691 0.96135 0.0
C2070 C 0.03829 0.92021 0.92839 0.0
C2071 C 0.03108 0.93671 0.98564 0.0
C2072 C 0.05781 0.00564 1.00413 0.0
H2073 H 0.02936 0.05813 0.16153 0.0
H2074 H 0.02865 0.02392 0.12008 0.0
H2075 H 0.07286 0.04311 1.02726 0.0
H2076 H 0.05133 0.94729 0.89527 0.0
H2077 H 0.05215 0.98141 0.93699 0.0
H2078 H 0.00867 0.96211 0.03001 0.0
C2079 C 0.03474 0.04166 0.11239 0.0
C2080 C 0.05853 0.02566 1.02812 0.0
C2081 C 0.0352 0.06148 0.13646 0.0
C2082 C 0.04577 0.9439 0.92044 0.0
C2083 C 0.04631 0.96367 0.94465 0.0
C2084 C 0.02297 0.97958 0.02917 0.0
C2085 C 0.04232 0.04469 0.07928 0.0
C2086 C 0.04148 0.02312 0.05322 0.0
C2087 C 0.03912 0.9606 0.97791 0.0
C2088 C 0.04 0.98213 1.00405 0.0
H2089 H 0.05708 0.1063 0.08831 0.0
H2090 H 0.05652 0.07204 0.04651 0.0
H2091 H 0.00984 0.99658 0.07133 0.0
H2092 H 0.02494 0.89907 0.96871 0.0
H2093 H 0.02558 0.93328 1.01081 0.0
C2094 C 0.22613 0.77289 0.35682 0.0
C2095 C 0.20866 0.75059 0.36233 0.0
C2096 C 0.24625 0.77402 0.33838 0.0
C2097 C 0.27014 0.73416 0.27975 0.0
H2098 H 0.32759 0.79324 0.28947 0.0
C2099 C 0.36032 0.73964 0.22231 0.0
C2100 C 0.37288 0.75933 0.20537 0.0
C2101 C 0.33988 0.73863 0.23986 0.0
C2102 C 0.31158 0.77669 0.28619 0.0
H2103 H 0.20054 0.71197 0.35652 0.0
H2104 H 0.2362 0.71382 0.32606 0.0
H2105 H 0.29457 0.79095 0.32585 0.0
H2106 H 0.37363 0.79363 0.19417 0.0
H2107 H 0.33816 0.79218 0.22588 0.0
H2108 H 0.28806 0.71967 0.24112 0.0
C2109 C 0.23361 0.73057 0.33383 0.0
C2110 C 0.29241 0.77531 0.30706 0.0
C2111 C 0.21314 0.72947 0.35178 0.0
C2112 C 0.36434 0.77808 0.20659 0.0
C2113 C 0.34409 0.77732 0.22494 0.0
C2114 C 0.28955 0.73539 0.25943 0.0
C2115 C 0.25021 0.75283 0.32583 0.0
C2116 C 0.27121 0.75404 0.3042 0.0
C2117 C 0.33161 0.75754 0.2418 0.0
C2118 C 0.31051 0.75669 0.26231 0.0
H2119 H 0.22425 0.78964 0.36663 0.0
H2120 H 0.25826 0.79165 0.33332 0.0
H2121 H 0.25419 0.7176 0.27579 0.0
H2122 H 0.36632 0.72493 0.22233 0.0
H2123 H 0.33091 0.72327 0.2528 0.0
C2124 C 0.504 0.06356 0.50773 0.0
C2125 C 0.51953 0.07936 0.48743 0.0
C2126 C 0.51012 0.04592 0.51988 0.0
C2127 C 0.56249 0.02921 0.53443 0.0
H2128 H 0.51283 0.9664 0.5413 0.0
C2129 C 0.58344 0.94698 0.56274 0.0
C2130 C 0.56794 0.93154 0.58352 0.0
C2131 C 0.5782 0.96568 0.55216 0.0
C2132 C 0.52695 0.98392 0.53996 0.0
H2133 H 0.55383 0.08884 0.46411 0.0
H2134 H 0.56441 0.05819 0.48497 0.0
H2135 H 0.50233 0.99712 0.52057 0.0
H2136 H 0.53491 0.92414 0.60983 0.0
H2137 H 0.52587 0.95654 0.59154 0.0
H2138 H 0.58713 0.01577 0.55347 0.0
C2139 C 0.54756 0.0595 0.49194 0.0
C2140 C 0.52089 0.00166 0.52805 0.0
C2141 C 0.54141 0.07709 0.47976 0.0
C2142 C 0.54725 0.93554 0.59374 0.0
C2143 C 0.54197 0.9541 0.58304 0.0
C2144 C 0.56856 0.0114 0.5462 0.0
C2145 C 0.53201 0.04358 0.5122 0.0
C2146 C 0.53854 0.02463 0.52509 0.0
C2147 C 0.55721 0.96933 0.5618 0.0
C2148 C 0.55087 0.98848 0.54923 0.0
H2149 H 0.48716 0.06494 0.51463 0.0
H2150 H 0.49778 0.03438 0.53581 0.0
H2151 H 0.5766 0.04674 0.53317 0.0
H2152 H 0.59936 0.94433 0.55395 0.0
H2153 H 0.59029 0.97683 0.53558 0.0
C2154 C 0.35338 0.22731 0.83098 0.0
C2155 C 0.37019 0.24791 0.85104 0.0
C2156 C 0.33392 0.2285 0.81374 0.0
C2157 C 0.31204 0.27172 0.78104 0.0
H2158 H 0.25037 0.21775 0.77508 0.0
C2159 C 0.22598 0.27733 0.72659 0.0
C2160 C 0.20912 0.25672 0.70658 0.0
C2161 C 0.24553 0.27615 0.74364 0.0
C2162 C 0.26749 0.23289 0.77601 0.0
H2163 H 0.38042 0.28652 0.86691 0.0
H2164 H 0.34655 0.28888 0.83653 0.0
H2165 H 0.28426 0.21648 0.80585 0.0
H2166 H 0.19892 0.21814 0.69054 0.0
H2167 H 0.23288 0.21577 0.72068 0.0
H2168 H 0.29526 0.28813 0.7512 0.0
C2169 C 0.34818 0.2715 0.83451 0.0
C2170 C 0.28707 0.23219 0.79382 0.0
C2171 C 0.36763 0.27019 0.85206 0.0
C2172 C 0.2117 0.23445 0.70544 0.0
C2173 C 0.23123 0.23315 0.72281 0.0
C2174 C 0.29246 0.27242 0.76323 0.0
C2175 C 0.3308 0.25056 0.81532 0.0
C2176 C 0.30973 0.25159 0.79667 0.0
C2177 C 0.24867 0.25408 0.74193 0.0
C2178 C 0.26979 0.25303 0.76042 0.0
H2179 H 0.35571 0.21031 0.82757 0.0
H2180 H 0.32159 0.2121 0.79845 0.0
H2181 H 0.32916 0.28686 0.78198 0.0
H2182 H 0.22368 0.29435 0.72991 0.0
H2183 H 0.25792 0.29255 0.75884 0.0
C2184 C 0.70868 0.22299 0.83936 0.0
C2185 C 0.70535 0.24423 0.85343 0.0
C2186 C 0.72922 0.22438 0.82133 0.0
C2187 C 0.79181 0.26643 0.80874 0.0
H2188 H 0.78417 0.22417 0.72306 0.0
C2189 C 0.87138 0.2787 0.71945 0.0
C2190 C 0.87339 0.25739 0.70276 0.0
C2191 C 0.85078 0.27757 0.73716 0.0
C2192 C 0.78682 0.23597 0.74712 0.0
H2193 H 0.72184 0.28352 0.86081 0.0
H2194 H 0.7575 0.28597 0.83052 0.0
H2195 H 0.74939 0.22026 0.75671 0.0
H2196 H 0.85438 0.21855 0.68938 0.0
H2197 H 0.81916 0.21637 0.72036 0.0
H2198 H 0.82926 0.28197 0.79945 0.0
C2199 C 0.74417 0.26819 0.83279 0.0
C2200 C 0.76674 0.23367 0.76649 0.0
C2201 C 0.72348 0.26678 0.85005 0.0
C2202 C 0.85392 0.23519 0.7029 0.0
C2203 C 0.83336 0.23403 0.72031 0.0
C2204 C 0.81193 0.26862 0.78948 0.0
C2205 C 0.74725 0.24706 0.81768 0.0
C2206 C 0.76889 0.24888 0.79759 0.0
C2207 C 0.83151 0.25513 0.73822 0.0
C2208 C 0.80982 0.25342 0.75832 0.0
H2209 H 0.69511 0.2053 0.8415 0.0
H2210 H 0.73101 0.20768 0.81033 0.0
H2211 H 0.79429 0.27833 0.8327 0.0
H2212 H 0.886 0.29614 0.71961 0.0
H2213 H 0.84999 0.29433 0.75003 0.0
C2214 C 0.86172 0.72966 0.32555 0.0
C2215 C 0.87493 0.74702 0.35318 0.0
C2216 C 0.84324 0.73251 0.30816 0.0
C2217 C 0.79377 0.74408 0.3086 0.0
H2218 H 0.80631 0.77929 0.23257 0.0
C2219 C 0.71607 0.7568 0.24071 0.0
C2220 C 0.71726 0.75911 0.20627 0.0
C2221 C 0.73585 0.75696 0.25894 0.0
C2222 C 0.80222 0.76913 0.25345 0.0
H2223 H 0.87953 0.7817 0.38291 0.0
H2224 H 0.84727 0.78686 0.35192 0.0
H2225 H 0.83954 0.77652 0.26342 0.0
H2226 H 0.74031 0.76343 0.16398 0.0
H2227 H 0.77428 0.76227 0.19487 0.0
H2228 H 0.75659 0.7356 0.29836 0.0
C2229 C 0.85119 0.77082 0.34432 0.0
C2230 C 0.82146 0.76785 0.2714 0.0
C2231 C 0.86967 0.76788 0.362 0.0
C2232 C 0.73881 0.76166 0.19052 0.0
C2233 C 0.75845 0.76121 0.20853 0.0
C2234 C 0.7745 0.74517 0.29058 0.0
C2235 C 0.83765 0.75302 0.31742 0.0
C2236 C 0.81744 0.75539 0.29923 0.0
C2237 C 0.75738 0.75877 0.24316 0.0
C2238 C 0.77827 0.75777 0.26261 0.0
H2239 H 0.86567 0.71375 0.31717 0.0
H2240 H 0.83324 0.71861 0.28741 0.0
H2241 H 0.79012 0.7341 0.32972 0.0
H2242 H 0.69988 0.75524 0.2538 0.0
H2243 H 0.73414 0.75585 0.28561 0.0
C2244 C 0.53136 0.55796 0.63521 0.0
C2245 C 0.54079 0.58191 0.62789 0.0
C2246 C 0.53089 0.53801 0.61134 0.0
C2247 C 0.5567 0.52123 0.52877 0.0
H2248 H 0.50546 0.4583 0.52929 0.0
C2249 C 0.54428 0.43903 0.42161 0.0
C2250 C 0.53623 0.41523 0.42942 0.0
C2251 C 0.54473 0.4589 0.44561 0.0
C2252 C 0.52015 0.47559 0.52881 0.0
H2253 H 0.55771 0.60317 0.5889 0.0
H2254 H 0.55701 0.56866 0.54737 0.0
H2255 H 0.50656 0.49309 0.56989 0.0
H2256 H 0.5214 0.39409 0.4693 0.0
H2257 H 0.52165 0.42848 0.51094 0.0
H2258 H 0.57016 0.5037 0.4875 0.0
C2259 C 0.54995 0.56514 0.57185 0.0
C2260 C 0.52083 0.49583 0.55243 0.0
C2261 C 0.55037 0.58516 0.59584 0.0
C2262 C 0.52766 0.41197 0.46199 0.0
C2263 C 0.52788 0.4319 0.48605 0.0
C2264 C 0.55597 0.50101 0.50508 0.0
C2265 C 0.54 0.54101 0.57893 0.0
C2266 C 0.53915 0.51918 0.55307 0.0
C2267 C 0.53675 0.45592 0.47854 0.0
C2268 C 0.53766 0.47767 0.50449 0.0
H2269 H 0.52434 0.5545 0.65972 0.0
H2270 H 0.52358 0.52016 0.61872 0.0
H2271 H 0.57144 0.53847 0.52828 0.0
H2272 H 0.55041 0.44245 0.39669 0.0
H2273 H 0.55117 0.47668 0.438 0.0
C2274 C 0.01161 0.55332 0.96061 0.0
C2275 C 0.01702 0.57572 0.98178 0.0
C2276 C 0.0172 0.53492 0.97126 0.0
C2277 C 0.0314 0.51419 0.04821 0.0
H2278 H 0.05679 0.47609 0.98444 0.0
C2279 C 0.06777 0.44611 0.09012 0.0
C2280 C 0.06233 0.42381 0.06867 0.0
C2281 C 0.06277 0.46487 0.0795 0.0
C2282 C 0.04947 0.48635 1.00253 0.0
H2283 H 0.03211 0.59612 0.03103 0.0
H2284 H 0.04209 0.56421 0.04952 0.0
H2285 H 0.04663 0.5079 0.96616 0.0
H2286 H 0.04767 0.40392 1.01902 0.0
H2287 H 0.03859 0.43638 1.00064 0.0
H2288 H 0.03417 0.4926 0.08455 0.0
C2289 C 0.03343 0.56075 1.02469 0.0
C2290 C 0.04362 0.50464 0.99201 0.0
C2291 C 0.02795 0.57919 1.01396 0.0
C2292 C 0.05191 0.42079 0.03627 0.0
C2293 C 0.04695 0.43955 1.0256 0.0
C2294 C 0.03723 0.49589 0.05872 0.0
C2295 C 0.02825 0.53837 1.00343 0.0
C2296 C 0.03447 0.51882 1.01468 0.0
C2297 C 0.05219 0.46183 0.04713 0.0
C2298 C 0.04632 0.48165 0.03602 0.0
H2299 H 0.00318 0.55004 0.93565 0.0
H2300 H 0.01262 0.51785 0.95434 0.0
H2301 H 0.02407 0.52445 0.06628 0.0
H2302 H 0.07565 0.44902 0.11535 0.0
H2303 H 0.06736 0.48182 0.09666 0.0
C2304 C 0.04311 0.1674 0.30992 0.0
C2305 C 0.0506 0.15189 0.28694 0.0
C2306 C 0.05515 0.17888 0.34157 0.0
C2307 C 0.10942 0.18685 0.39839 0.0
H2308 H 0.07548 0.21277 0.46531 0.0
C2309 C 0.15538 0.23906 0.53284 0.0
C2310 C 0.14132 0.24225 0.56008 0.0
C2311 C 0.14498 0.22731 0.5001 0.0
C2312 C 0.08537 0.20531 0.44766 0.0
H2313 H 0.07294 0.13128 0.28513 0.0
H2314 H 0.09429 0.15088 0.33981 0.0
H2315 H 0.05659 0.19375 0.41051 0.0
H2316 H 0.10473 0.23594 0.57217 0.0
H2317 H 0.08665 0.21363 0.5178 0.0
H2318 H 0.13764 0.19721 0.43667 0.0
C2319 C 0.08065 0.15665 0.33173 0.0
C2320 C 0.07452 0.19466 0.41502 0.0
C2321 C 0.06869 0.14559 0.29951 0.0
C2322 C 0.11642 0.23328 0.55293 0.0
C2323 C 0.10592 0.22086 0.52069 0.0
C2324 C 0.1201 0.19708 0.43143 0.0
C2325 C 0.07427 0.1738 0.35366 0.0
C2326 C 0.08623 0.18521 0.38926 0.0
C2327 C 0.11987 0.21812 0.49294 0.0
C2328 C 0.10838 0.20663 0.45708 0.0
H2329 H 0.02719 0.17027 0.30386 0.0
H2330 H 0.04887 0.19151 0.35659 0.0
H2331 H 0.11965 0.18037 0.37995 0.0
H2332 H 0.17473 0.24668 0.5365 0.0
H2333 H 0.15697 0.22639 0.48021 0.0
C2334 C 0.18495 0.80844 0.48458 0.0
C2335 C 0.16516 0.79736 0.46132 0.0
C2336 C 0.18363 0.82351 0.51403 0.0
C2337 C 0.17407 0.85896 0.57194 0.0
H2338 H 0.11622 0.82105 0.61356 0.0
C2339 C 0.15643 0.89182 0.70625 0.0
C2340 C 0.13322 0.8911 0.71107 0.0
C2341 C 0.16103 0.87833 0.67767 0.0
C2342 C 0.13232 0.83196 0.60224 0.0
H2343 H 0.12965 0.79551 0.4496 0.0
H2344 H 0.12778 0.82231 0.49915 0.0
H2345 H 0.12444 0.80619 0.55674 0.0
H2346 H 0.09629 0.8749 0.69195 0.0
H2347 H 0.10427 0.85173 0.6412 0.0
H2348 H 0.18163 0.88516 0.61673 0.0
C2349 C 0.14412 0.81909 0.49508 0.0
C2350 C 0.13701 0.82348 0.56976 0.0
C2351 C 0.14543 0.80401 0.46612 0.0
C2352 C 0.1143 0.87551 0.68846 0.0
C2353 C 0.11893 0.86226 0.65955 0.0
C2354 C 0.16923 0.86763 0.60428 0.0
C2355 C 0.16251 0.82758 0.52022 0.0
C2356 C 0.15784 0.83701 0.55437 0.0
C2357 C 0.14255 0.86438 0.65317 0.0
C2358 C 0.14829 0.85424 0.61977 0.0
H2359 H 0.20038 0.80351 0.48172 0.0
H2360 H 0.1981 0.83002 0.53322 0.0
H2361 H 0.19018 0.8696 0.56038 0.0
H2362 H 0.17118 0.90379 0.72369 0.0
H2363 H 0.17927 0.87976 0.67398 0.0
C2364 C 0.4951 0.84302 0.94896 0.0
C2365 C 0.47918 0.8198 0.95443 0.0
C2366 C 0.50568 0.84708 0.91769 0.0
C2367 C 0.50024 0.81817 0.82468 0.0
H2368 H 0.55794 0.87518 0.8204 0.0
C2369 C 0.54919 0.83825 0.69713 0.0
C2370 C 0.56198 0.86248 0.69241 0.0
C2371 C 0.53788 0.83258 0.72766 0.0
C2372 C 0.54157 0.85933 0.82065 0.0
H2373 H 0.46276 0.78236 0.93035 0.0
H2374 H 0.48183 0.78902 0.87621 0.0
H2375 H 0.54252 0.86572 0.87471 0.0
H2376 H 0.57432 0.89961 0.71773 0.0
H2377 H 0.55563 0.88996 0.77106 0.0
H2378 H 0.49974 0.81168 0.7703 0.0
C2379 C 0.48583 0.8045 0.89602 0.0
C2380 C 0.53252 0.85377 0.85241 0.0
C2381 C 0.47511 0.80046 0.92756 0.0
C2382 C 0.56399 0.88078 0.7199 0.0
C2383 C 0.55343 0.87509 0.75087 0.0
C2384 C 0.50941 0.82368 0.79281 0.0
C2385 C 0.50104 0.82807 0.89003 0.0
C2386 C 0.51144 0.83319 0.8554 0.0
C2387 C 0.54035 0.85079 0.75573 0.0
C2388 C 0.5302 0.84456 0.78998 0.0
H2389 H 0.49865 0.8585 0.96874 0.0
H2390 H 0.51676 0.8656 0.91508 0.0
H2391 H 0.48391 0.80229 0.82494 0.0
H2392 H 0.54781 0.82357 0.67703 0.0
H2393 H 0.52765 0.81372 0.7294 0.0
C2394 C 0.46652 0.10481 0.25677 0.0
C2395 C 0.44939 0.09616 0.2806 0.0
C2396 C 0.46186 0.11612 0.23144 0.0
C2397 C 0.41052 0.1155 0.18374 0.0
H2398 H 0.45906 0.16682 0.14448 0.0
C2399 C 0.39166 0.13742 0.05619 0.0
C2400 C 0.39727 0.1621 0.05555 0.0
C2401 C 0.401 0.13033 0.08244 0.0
C2402 C 0.4453 0.15254 0.15524 0.0
H2403 H 0.41477 0.09396 0.29846 0.0
H2404 H 0.4066 0.11406 0.25417 0.0
H2405 H 0.46871 0.15566 0.19685 0.0
H2406 H 0.4179 0.19884 0.07973 0.0
H2407 H 0.43441 0.18657 0.12578 0.0
H2408 H 0.38693 0.11275 0.14271 0.0
C2409 C 0.42346 0.11171 0.25472 0.0
C2410 C 0.45085 0.14607 0.18511 0.0
C2411 C 0.42819 0.10045 0.2802 0.0
C2412 C 0.4136 0.1797 0.07987 0.0
C2413 C 0.42299 0.17264 0.10611 0.0
C2414 C 0.40496 0.12203 0.154 0.0
C2415 C 0.43994 0.11895 0.22947 0.0
C2416 C 0.43356 0.12737 0.19953 0.0
C2417 C 0.41597 0.14788 0.10841 0.0
C2418 C 0.42234 0.14049 0.1393 0.0
H2419 H 0.48314 0.10196 0.25699 0.0
H2420 H 0.47489 0.12141 0.21234 0.0
H2421 H 0.3969 0.10077 0.19392 0.0
H2422 H 0.37888 0.12366 0.03764 0.0
H2423 H 0.39566 0.11112 0.08323 0.0
C2424 C 0.95787 0.74846 0.5123 0.0
C2425 C 0.94038 0.75342 0.49557 0.0
C2426 C 0.96832 0.76069 0.5445 0.0
C2427 C 0.97213 0.81332 0.61375 0.0
H2428 H -0.00077 0.7802 0.66605 0.0
C2429 C 0.0209 0.86181 0.74787 0.0
C2430 C 0.02751 0.84889 0.76963 0.0
C2431 C 0.00938 0.85046 0.71557 0.0
C2432 C 0.99162 0.79005 0.65271 0.0
H2433 H 0.91613 0.77184 0.50594 0.0
H2434 H 0.93506 0.79484 0.56089 0.0
H2435 H 0.98106 0.76093 0.61095 0.0
H2436 H 0.02687 0.81343 0.77317 0.0
H2437 H 0.00594 0.79336 0.7195 0.0
H2438 H 0.98145 0.84187 0.65619 0.0
C2439 C 0.94241 0.78251 0.54745 0.0
C2440 C 0.98136 0.77887 0.61986 0.0
C2441 C 0.93192 0.76987 0.51487 0.0
C2442 C 0.0221 0.82416 0.75768 0.0
C2443 C 0.01008 0.81258 0.72591 0.0
C2444 C 0.98206 0.8244 0.64694 0.0
C2445 C 0.9609 0.7781 0.56323 0.0
C2446 C 0.97151 0.79024 0.59926 0.0
C2447 C 0.0038 0.82547 0.70334 0.0
C2448 C 0.9923 0.8132 0.66749 0.0
H2449 H 0.96273 0.73396 0.50124 0.0
H2450 H 0.98206 0.75593 0.55474 0.0
H2451 H 0.96515 0.82319 0.59933 0.0
H2452 H 0.02544 0.8811 0.75534 0.0
H2453 H 0.00566 0.86187 0.70003 0.0
C2454 C 0.9298 0.21851 0.5665 0.0
C2455 C 0.91165 0.20949 0.58873 0.0
C2456 C 0.93051 0.20492 0.53586 0.0
C2457 C 0.91093 0.14384 0.48895 0.0
H2458 H 0.92826 0.17892 0.41254 0.0
C2459 C 0.91773 0.09578 0.35769 0.0
C2460 C 0.93936 0.10676 0.34228 0.0
C2461 C 0.91125 0.10859 0.38523 0.0
C2462 C 0.92345 0.16894 0.43364 0.0
H2463 H 0.87863 0.17954 0.59497 0.0
H2464 H 0.88073 0.15423 0.54161 0.0
H2465 H 0.92168 0.19933 0.46672 0.0
H2466 H 0.97043 0.14014 0.34171 0.0
H2467 H 0.95911 0.16274 0.39037 0.0
H2468 H 0.91298 0.11352 0.45585 0.0
C2469 C 0.89476 0.17208 0.54868 0.0
C2470 C 0.91966 0.18055 0.46462 0.0
C2471 C 0.89376 0.18626 0.57942 0.0
C2472 C 0.95365 0.13134 0.35328 0.0
C2473 C 0.94718 0.1442 0.38103 0.0
C2474 C 0.91454 0.13216 0.45785 0.0
C2475 C 0.91297 0.18166 0.52638 0.0
C2476 C 0.91384 0.16825 0.49273 0.0
C2477 C 0.92632 0.13259 0.39789 0.0
C2478 C 0.92112 0.1447 0.43006 0.0
H2479 H 0.94275 0.23689 0.57184 0.0
H2480 H 0.94459 0.21295 0.51919 0.0
H2481 H 0.9068 0.13409 0.51031 0.0
H2482 H 0.90621 0.07697 0.34914 0.0
H2483 H 0.8948 0.09946 0.39729 0.0
C2484 C 0.58122 0.18507 0.11225 0.0
C2485 C 0.60297 0.18233 0.1047 0.0
C2486 C 0.57082 0.18087 0.14396 0.0
C2487 C 0.57402 0.14961 0.21881 0.0
H2488 H 0.53329 0.18086 0.2605 0.0
C2489 C 0.52178 0.12014 0.34068 0.0
C2490 C 0.51808 0.13802 0.36435 0.0
C2491 C 0.53203 0.12549 0.30936 0.0
C2492 C 0.54487 0.17208 0.24964 0.0
H2493 H 0.63131 0.17451 0.12622 0.0
H2494 H 0.61399 0.16801 0.18064 0.0
H2495 H 0.55146 0.19168 0.20746 0.0
H2496 H 0.5217 0.17541 0.37244 0.0
H2497 H 0.53984 0.18478 0.31871 0.0
H2498 H 0.56796 0.13049 0.26136 0.0
C2499 C 0.60422 0.1725 0.16205 0.0
C2500 C 0.55511 0.17809 0.21856 0.0
C2501 C 0.61447 0.17661 0.13065 0.0
C2502 C 0.52443 0.16121 0.35521 0.0
C2503 C 0.5347 0.16657 0.32406 0.0
C2504 C 0.56387 0.14369 0.24989 0.0
C2505 C 0.58181 0.17377 0.16925 0.0
C2506 C 0.57012 0.16713 0.20248 0.0
C2507 C 0.53856 0.14887 0.3002 0.0
C2508 C 0.54915 0.15488 0.26621 0.0
H2509 H 0.5716 0.18923 0.09307 0.0
H2510 H 0.55362 0.18221 0.148 0.0
H2511 H 0.58488 0.14011 0.20747 0.0
H2512 H 0.51626 0.10179 0.34611 0.0
H2513 H 0.53417 0.111 0.29195 0.0
C2514 C 0.64938 0.8869 0.77296 0.0
C2515 C 0.63895 0.90413 0.77971 0.0
C2516 C 0.65112 0.87379 0.798 0.0
C2517 C 0.63135 0.85979 0.88383 0.0
H2518 H 0.6938 0.8565 0.89143 0.0
C2519 C 0.67576 0.84864 1.00499 0.0
C2520 C 0.68905 0.83391 0.9998 0.0
C2521 C 0.66469 0.8527 0.97738 0.0
C2522 C 0.67614 0.85696 0.88936 0.0
H2523 H 0.62022 0.91959 0.81665 0.0
H2524 H 0.62404 0.89751 0.86069 0.0
H2525 H 0.68375 0.87154 0.84334 0.0
H2526 H 0.69927 0.80995 0.96287 0.0
H2527 H 0.67979 0.81683 0.91474 0.0
H2528 H 0.62444 0.84624 0.93109 0.0
C2529 C 0.63074 0.89387 0.83615 0.0
C2530 C 0.67031 0.86546 0.8617 0.0
C2531 C 0.62883 0.90679 0.81106 0.0
C2532 C 0.68935 0.82162 0.96728 0.0
C2533 C 0.67831 0.82562 0.93984 0.0
C2534 C 0.63734 0.85152 0.91181 0.0
C2535 C 0.64258 0.87779 0.83028 0.0
C2536 C 0.64786 0.86701 0.85857 0.0
C2537 C 0.66682 0.84201 0.94445 0.0
C2538 C 0.65976 0.84998 0.9147 0.0
H2539 H 0.65729 0.88443 0.74898 0.0
H2540 H 0.65987 0.86112 0.79243 0.0
H2541 H 0.61384 0.86061 0.88207 0.0
H2542 H 0.67539 0.85834 0.02992 0.0
H2543 H 0.65593 0.86545 0.98151 0.0
C2544 C 0.57116 0.6429 0.79818 0.0
C2545 C 0.55323 0.64955 0.78589 0.0
C2546 C 0.58324 0.65367 0.83047 0.0
C2547 C 0.58018 0.69639 0.91223 0.0
H2548 H 0.6345 0.68445 0.9423 0.0
C2549 C 0.63089 0.7486 0.04028 0.0
C2550 C 0.64353 0.73955 0.06023 0.0
C2551 C 0.62019 0.73665 1.0082 0.0
C2552 C 0.61919 0.68793 0.93476 0.0
H2553 H 0.53111 0.66935 0.803 0.0
H2554 H 0.55266 0.68982 0.85491 0.0
H2555 H 0.6168 0.6672 0.88559 0.0
H2556 H 0.66054 0.71388 0.05484 0.0
H2557 H 0.63957 0.6905 1.00087 0.0
H2558 H 0.58218 0.71661 0.96142 0.0
C2559 C 0.55884 0.67704 0.84027 0.0
C2560 C 0.60881 0.67792 0.90143 0.0
C2561 C 0.54672 0.66592 0.80866 0.0
C2562 C 0.64747 0.71907 0.04396 0.0
C2563 C 0.63635 0.70647 1.01157 0.0
C2564 C 0.59045 0.70626 0.94528 0.0
C2565 C 0.57732 0.67108 0.85276 0.0
C2566 C 0.589 0.68195 0.88894 0.0
C2567 C 0.62211 0.71491 0.99298 0.0
C2568 C 0.61044 0.70264 0.95748 0.0
H2569 H 0.5751 0.62842 0.7836 0.0
H2570 H 0.59661 0.64741 0.83804 0.0
H2571 H 0.56491 0.70022 0.90584 0.0
H2572 H 0.63068 0.76628 0.04843 0.0
H2573 H 0.6114 0.74548 0.99474 0.0
C2574 C 0.62982 0.39051 0.17885 0.0
C2575 C 0.63615 0.3863 0.21014 0.0
C2576 C 0.63423 0.37823 0.14901 0.0
C2577 C 0.64904 0.32745 0.10998 0.0
H2578 H 0.68319 0.37248 0.04921 0.0
C2579 C 0.65461 0.30267 0.96951 0.0
C2580 C 0.6733 0.29443 0.9642 0.0
C2581 C 0.6545 0.31825 0.99862 0.0
C2582 C 0.67401 0.35991 0.06628 0.0
H2583 H 0.64984 0.36445 0.23523 0.0
H2584 H 0.65757 0.34266 0.18248 0.0
H2585 H 0.67086 0.38778 0.10334 0.0
H2586 H 0.70786 0.29803 0.98415 0.0
H2587 H 0.70722 0.32481 0.03639 0.0
H2588 H 0.65181 0.29956 0.07222 0.0
C2589 C 0.64936 0.35562 0.18122 0.0
C2590 C 0.66669 0.36848 0.09687 0.0
C2591 C 0.6449 0.36798 0.21127 0.0
C2592 C 0.69322 0.30416 0.98737 0.0
C2593 C 0.69287 0.31935 1.01719 0.0
C2594 C 0.65641 0.3189 0.07935 0.0
C2595 C 0.64508 0.36157 0.14999 0.0
C2596 C 0.65377 0.35227 0.11865 0.0
C2597 C 0.67292 0.32543 1.0234 0.0
C2598 C 0.66875 0.33512 0.05739 0.0
H2599 H 0.62264 0.40428 0.17752 0.0
H2600 H 0.63017 0.38258 0.12513 0.0
H2601 H 0.63899 0.31464 0.12628 0.0
H2602 H 0.63865 0.29513 0.95353 0.0
H2603 H 0.63884 0.32264 1.00329 0.0
C2604 C 0.05493 0.37697 0.21373 0.0
C2605 C 0.06204 0.36053 0.19218 0.0
C2606 C 0.04404 0.37112 0.24448 0.0
C2607 C 0.02137 0.31897 0.29817 0.0
H2608 H 0.01784 0.37048 0.36517 0.0
C2609 C 0.97571 0.29923 0.42843 0.0
C2610 C 0.98102 0.3184 0.45582 0.0
C2611 C 0.98579 0.30328 0.39653 0.0
C2612 C 0.01903 0.35566 0.34742 0.0
H2613 H 0.06407 0.32538 0.18731 0.0
H2614 H 0.04632 0.31545 0.24054 0.0
H2615 H 0.03456 0.3797 0.31196 0.0
H2616 H 0.00263 0.3566 0.47101 0.0
H2617 H 0.02086 0.36338 0.41736 0.0
H2618 H 0.00713 0.29523 0.33489 0.0
C2619 C 0.048 0.3326 0.23381 0.0
C2620 C 0.02834 0.36098 0.31572 0.0
C2621 C 0.05856 0.33837 0.20294 0.0
C2622 C 0.99785 0.34131 0.45068 0.0
C2623 C 0.00808 0.34531 0.41921 0.0
C2624 C 0.01263 0.31375 0.33029 0.0
C2625 C 0.04052 0.34883 0.25573 0.0
C2626 C 0.02987 0.34284 0.29005 0.0
C2627 C 0.00174 0.32666 0.39084 0.0
C2628 C 0.01127 0.33199 0.35589 0.0
H2629 H 0.05794 0.39455 0.20689 0.0
H2630 H 0.03845 0.3844 0.25916 0.0
H2631 H 0.02114 0.30389 0.27977 0.0
H2632 H 0.96273 0.28136 0.43105 0.0
H2633 H 0.98014 0.28813 0.37604 0.0
C2634 C 0.91992 0.59694 0.77371 0.0
C2635 C 0.94195 0.59457 0.77675 0.0
C2636 C 0.91573 0.60841 0.7481 0.0
C2637 C 0.94527 0.64808 0.68514 0.0
H2638 H 0.88445 0.61317 0.63437 0.0
C2639 C 0.90869 0.68775 0.58746 0.0
C2640 C 0.8947 0.67196 0.55943 0.0
C2641 C 0.91756 0.67878 0.61196 0.0
C2642 C 0.90166 0.62293 0.64798 0.0
H2643 H 0.97749 0.60378 0.75765 0.0
H2644 H 0.97032 0.62398 0.71295 0.0
H2645 H 0.89319 0.59827 0.68376 0.0
H2646 H 0.8803 0.63483 0.53351 0.0
H2647 H 0.896 0.61897 0.57643 0.0
H2648 H 0.95387 0.67252 0.649 0.0
C2649 C 0.95619 0.61687 0.73001 0.0
C2650 C 0.90648 0.61465 0.67665 0.0
C2651 C 0.96028 0.60523 0.7554 0.0
C2652 C 0.89107 0.6473 0.55499 0.0
C2653 C 0.89983 0.63825 0.57967 0.0
C2654 C 0.94046 0.65635 0.65643 0.0
C2655 C 0.93361 0.61786 0.72539 0.0
C2656 C 0.92828 0.62721 0.69563 0.0
C2657 C 0.9125 0.6538 0.60894 0.0
C2658 C 0.91856 0.64393 0.63765 0.0
H2659 H 0.90557 0.58884 0.79001 0.0
H2660 H 0.89831 0.60932 0.74551 0.0
H2661 H 0.9622 0.65817 0.69933 0.0
H2662 H 0.91182 0.70689 0.59115 0.0
H2663 H 0.92716 0.69122 0.63423 0.0
C2664 C 0.51435 0.32982 0.26239 0.0
C2665 C 0.52865 0.35468 0.27069 0.0
C2666 C 0.50299 0.31902 0.23 0.0
C2667 C 0.50437 0.32993 0.13825 0.0
H2668 H 0.44541 0.27262 0.1279 0.0
C2669 C 0.46169 0.27639 1.00321 0.0
C2670 C 0.43666 0.26351 0.99798 0.0
C2671 C 0.47282 0.28797 0.03558 0.0
C2672 C 0.46171 0.28879 0.12991 0.0
H2673 H 0.54292 0.38757 0.24846 0.0
H2674 H 0.52328 0.36939 0.19232 0.0
H2675 H 0.46369 0.29168 0.18401 0.0
H2676 H 0.40423 0.25191 1.02546 0.0
H2677 H 0.42304 0.27213 0.08127 0.0
H2678 H 0.50205 0.32734 0.08416 0.0
C2679 C 0.5204 0.35774 0.21136 0.0
C2680 C 0.47259 0.2997 0.16262 0.0
C2681 C 0.53156 0.3684 0.2441 0.0
C2682 C 0.4234 0.26236 1.02744 0.0
C2683 C 0.43443 0.27374 0.05998 0.0
C2684 C 0.49344 0.31905 0.10551 0.0
C2685 C 0.50583 0.33264 0.20336 0.0
C2686 C 0.49415 0.3207 0.16777 0.0
C2687 C 0.45953 0.28671 0.06502 0.0
C2688 C 0.47168 0.29829 0.10044 0.0
H2689 H 0.51288 0.31816 0.28026 0.0
H2690 H 0.49276 0.29961 0.22569 0.0
H2691 H 0.52111 0.3456 0.1402 0.0
H2692 H 0.47325 0.27685 0.98279 0.0
H2693 H 0.49216 0.29702 0.03748 0.0
C2694 C 0.43341 0.70382 0.09177 0.0
C2695 C 0.41305 0.70948 0.09454 0.0
C2696 C 0.43631 0.68905 0.06341 0.0
C2697 C 0.42264 0.67982 0.97399 0.0
H2698 H 0.45177 0.63247 0.96929 0.0
C2699 C 0.43551 0.6253 0.8497 0.0
C2700 C 0.45468 0.61769 0.8488 0.0
C2701 C 0.43185 0.63885 0.87909 0.0
C2702 C 0.44404 0.64601 0.97023 0.0
H2703 H 0.37875 0.70273 0.07026 0.0
H2704 H 0.38438 0.67787 1.01931 0.0
H2705 H 0.43909 0.64676 1.02332 0.0
H2706 H 0.48628 0.61973 0.87587 0.0
H2707 H 0.48054 0.64431 0.927 0.0
H2708 H 0.42797 0.67944 0.92103 0.0
C2709 C 0.39796 0.68455 0.0398 0.0
C2710 C 0.43651 0.65392 1.0011 0.0
C2711 C 0.39468 0.69859 0.06902 0.0
C2712 C 0.47132 0.62542 0.87636 0.0
C2713 C 0.46787 0.63922 0.90558 0.0
C2714 C 0.43029 0.67201 0.9431 0.0
C2715 C 0.41935 0.68064 0.03625 0.0
C2716 C 0.42558 0.67074 1.0032 0.0
C2717 C 0.44745 0.64504 0.90782 0.0
C2718 C 0.44099 0.65494 0.94087 0.0
H2719 H 0.44792 0.7121 0.11031 0.0
H2720 H 0.4528 0.68598 0.06155 0.0
H2721 H 0.41492 0.69339 0.97519 0.0
H2722 H 0.42245 0.61931 0.82859 0.0
H2723 H 0.41591 0.64296 0.88002 0.0
C2724 C 0.09272 0.69841 0.619 0.0
C2725 C 0.09251 0.67924 0.59389 0.0
C2726 C 0.08235 0.69376 0.65057 0.0
C2727 C 0.06256 0.64409 0.70588 0.0
H2728 H 0.03517 0.68524 0.75868 0.0
C2729 C 0.02892 0.62626 0.84227 0.0
C2730 C 0.01345 0.63682 0.85742 0.0
C2731 C 0.03902 0.6318 0.81085 0.0
C2732 C 0.04261 0.67327 0.74466 0.0
H2733 H 0.07924 0.64001 0.58203 0.0
H2734 H 0.06109 0.63202 0.63561 0.0
H2735 H 0.05069 0.69452 0.70426 0.0
H2736 H 0.99254 0.65697 0.8468 0.0
H2737 H 0.00782 0.66497 0.79201 0.0
H2738 H 0.05395 0.62241 0.74551 0.0
C2739 C 0.06999 0.65075 0.63195 0.0
C2740 C 0.05186 0.67888 0.71302 0.0
C2741 C 0.08026 0.65537 0.60072 0.0
C2742 C 0.00608 0.65043 0.8378 0.0
C2743 C 0.01509 0.65506 0.80588 0.0
C2744 C 0.05328 0.63845 0.7375 0.0
C2745 C 0.0714 0.66978 0.65807 0.0
C2746 C 0.06191 0.66431 0.69272 0.0
C2747 C 0.03251 0.64666 0.79194 0.0
C2748 C 0.04296 0.65285 0.75779 0.0
H2749 H 0.10196 0.71704 0.61499 0.0
H2750 H 0.08387 0.7091 0.66958 0.0
H2751 H 0.07047 0.63246 0.69183 0.0
H2752 H 0.03284 0.61325 0.85424 0.0
H2753 H 0.05179 0.62412 0.80154 0.0
C2754 C 0.15133 0.3853 0.2659 0.0
C2755 C 0.14667 0.40651 0.27359 0.0
C2756 C 0.15096 0.37154 0.29115 0.0
C2757 C 0.13481 0.36391 0.38017 0.0
H2758 H 0.19067 0.34736 0.38093 0.0
C2759 C 0.1791 0.34886 0.49804 0.0
C2760 C 0.18864 0.33086 0.49263 0.0
C2761 C 0.1682 0.35374 0.47101 0.0
C2762 C 0.17475 0.35147 0.38081 0.0
H2763 H 0.13574 0.42867 0.31265 0.0
H2764 H 0.13587 0.40523 0.35686 0.0
H2765 H 0.18199 0.36329 0.33284 0.0
H2766 H 0.19219 0.30218 0.45629 0.0
H2767 H 0.17294 0.31047 0.4092 0.0
H2768 H 0.12845 0.3531 0.42922 0.0
C2769 C 0.13969 0.39905 0.33147 0.0
C2770 C 0.1697 0.36051 0.35316 0.0
C2771 C 0.13994 0.41269 0.30625 0.0
C2772 C 0.18526 0.31639 0.46079 0.0
C2773 C 0.17433 0.32117 0.43393 0.0
C2774 C 0.14002 0.35503 0.40807 0.0
C2775 C 0.14599 0.3788 0.3245 0.0
C2776 C 0.14975 0.36697 0.35255 0.0
C2777 C 0.1667 0.34057 0.43845 0.0
C2778 C 0.16006 0.34877 0.40859 0.0
H2779 H 0.15647 0.38004 0.24089 0.0
H2780 H 0.15542 0.35572 0.28483 0.0
H2781 H 0.11923 0.3686 0.38037 0.0
H2782 H 0.18158 0.36024 0.52247 0.0
H2783 H 0.16248 0.36884 0.47509 0.0
loop_
_geom_bond_atom_site_label_1
_geom_bond_atom_site_label_2
_geom_bond_distance
_geom_bond_site_symmetry_2
_ccdc_geom_bond_type
Gd0 N31 2.661 . S
Gd0 N37 2.601 . S
Gd0 O44 2.545 . S
Gd0 O45 2.606 1_655 S
Gd0 O47 2.429 . S
Gd0 O48 2.545 1_655 S
Gd0 O49 2.412 . S
Gd0 O51 2.371 . S
Gd0 O52 2.323 . S
Gd0 C59 2.828 . S
Gd1 N10 2.661 . S
Gd1 N14 2.601 . S
Gd1 O45 2.362 . S
Gd1 O46 2.324 . S
Gd1 O50 2.545 . S
Gd1 O51 2.575 1_455 S
Gd1 O53 2.429 . S
Gd1 O54 2.545 . S
Gd1 O55 2.412 . S
Gd1 C68 2.828 . S
C2 C5 1.417 . S
C2 C7 1.431 . S
C2 C8 1.412 . S
C3 C6 1.437 . S
C3 C7 1.317 . S
C3 H22 0.929 . S
C4 C5 1.426 . S
C4 C6 1.413 . S
C4 N14 1.359 . S
C5 C2 1.417 . S
C5 C4 1.426 . S
C5 N10 1.350 . S
C6 C3 1.437 . S
C6 C4 1.413 . S
C6 C16 1.391 . S
C7 C2 1.431 . S
C7 C3 1.317 . S
C7 H18 0.930 . S
C8 C2 1.412 . S
C8 C9 1.355 . S
C8 H20 0.930 . S
C9 C8 1.355 . S
C9 C11 1.402 . S
C9 H21 0.930 . S
N10 Gd1 2.661 . S
N10 C5 1.350 . S
N10 C11 1.307 . S
C11 C9 1.402 . S
C11 N10 1.307 . S
C11 H12 0.930 . S
H12 C11 0.930 . S
C13 N14 1.334 . S
C13 C15 1.394 . S
C13 H17 0.930 . S
N14 Gd1 2.601 . S
N14 C4 1.359 . S
N14 C13 1.334 . S
C15 C13 1.394 . S
C15 C16 1.359 . S
C15 H27 0.930 . S
C16 C6 1.391 . S
C16 C15 1.359 . S
C16 H28 0.929 . S
H17 C13 0.930 . S
H18 C7 0.930 . S
H19 C36 0.930 . S
H20 C8 0.930 . S
H21 C9 0.930 . S
H22 C3 0.929 . S
H23 C41 0.930 . S
H24 C32 0.930 . S
H25 C33 0.930 . S
H26 C57 0.929 . S
H27 C15 0.930 . S
H28 C16 0.929 . S
H29 C58 0.930 . S
H30 C39 0.930 . S
N31 Gd0 2.661 . S
N31 C35 1.350 . S
N31 C36 1.307 . S
C32 H24 0.930 . S
C32 C33 1.355 . S
C32 C34 1.412 . S
C33 H25 0.930 . S
C33 C32 1.355 . S
C33 C36 1.402 . S
C34 C32 1.412 . S
C34 C35 1.417 . S
C34 C58 1.431 . S
C35 N31 1.350 . S
C35 C34 1.417 . S
C35 C38 1.426 . S
C36 H19 0.930 . S
C36 N31 1.307 . S
C36 C33 1.402 . S
N37 Gd0 2.601 . S
N37 C38 1.359 . S
N37 C41 1.334 . S
C38 C35 1.426 . S
C38 N37 1.359 . S
C38 C42 1.413 . S
C39 H30 0.930 . S
C39 C40 1.359 . S
C39 C41 1.394 . S
C40 C39 1.359 . S
C40 C42 1.391 . S
C40 H43 0.929 . S
C41 H23 0.930 . S
C41 N37 1.334 . S
C41 C39 1.394 . S
C42 C38 1.413 . S
C42 C40 1.391 . S
C42 C57 1.437 . S
H43 C40 0.929 . S
O44 Gd0 2.545 . S
O44 C59 1.258 . S
O45 Gd0 2.606 1_455 S
O45 Gd1 2.362 . S
O45 C56 1.284 . S
O46 Gd1 2.324 . S
O46 C66 1.254 . S
O47 Gd0 2.429 . S
O47 C66 1.268 1_655 S
O48 Gd0 2.545 1_455 S
O48 C56 1.250 . S
O49 Gd0 2.412 . S
O49 C59 1.252 . S
O50 Gd1 2.545 . S
O50 C68 1.258 . S
O51 Gd0 2.371 . S
O51 Gd1 2.575 1_655 S
O51 C67 1.284 . S
O52 Gd0 2.323 . S
O52 C75 1.249 1_655 S
O53 Gd1 2.429 . S
O53 C75 1.268 . S
O54 Gd1 2.545 . S
O54 C67 1.218 1_455 S
O55 Gd1 2.412 . S
O55 C68 1.252 . S
C56 O45 1.284 . S
C56 O48 1.250 . S
C57 H26 0.929 . S
C57 C42 1.437 . S
C57 C58 1.317 . S
C58 H29 0.930 . S
C58 C34 1.431 . S
C58 C57 1.317 . S
C59 Gd0 2.828 . S
C59 O44 1.258 . S
C59 O49 1.252 . S
C59 C60 1.497 . S
C60 C59 1.497 . S
C60 C61 1.395 . S
C60 C62 1.380 . S
C61 C60 1.395 . S
C61 C64 1.398 . S
C61 H76 0.930 . S
C62 C60 1.380 . S
C62 C63 1.391 . S
C62 H77 0.930 . S
C63 C62 1.391 . S
C63 C65 1.387 . S
C64 C61 1.398 . S
C64 C65 1.380 . S
C64 H78 0.930 . S
C65 C63 1.387 . S
C65 C64 1.380 . S
C65 H79 0.930 . S
C66 O46 1.254 . S
C66 O47 1.268 1_455 S
C67 O51 1.284 . S
C67 O54 1.218 1_655 S
C68 Gd1 2.828 . S
C68 O50 1.258 . S
C68 O55 1.252 . S
C68 C69 1.497 . S
C69 C68 1.497 . S
C69 C70 1.395 . S
C69 C71 1.380 . S
C70 C69 1.395 . S
C70 C73 1.398 . S
C70 H80 0.930 . S
C71 C69 1.380 . S
C71 C72 1.391 1_554 S
C71 H81 0.930 . S
C72 C71 1.391 1_556 S
C72 C74 1.387 . S
C73 C70 1.398 . S
C73 C74 1.380 1_554 S
C73 H82 0.930 . S
C74 C72 1.387 . S
C74 C73 1.380 1_556 S
C74 H83 0.930 . S
C75 O52 1.249 1_455 S
C75 O53 1.268 . S
H76 C61 0.930 . S
H77 C62 0.930 . S
H78 C64 0.930 . S
H79 C65 0.930 . S
H80 C70 0.930 . S
H81 C71 0.930 . S
H82 C73 0.930 . S
H83 C74 0.930 . S
Gd84 N115 2.661 . S
Gd84 N121 2.601 . S
Gd84 O128 2.545 . S
Gd84 O129 2.606 . S
Gd84 O131 2.429 . S
Gd84 O132 2.545 . S
Gd84 O133 2.412 . S
Gd84 O135 2.362 . S
Gd84 O136 2.324 . S
Gd84 C143 2.828 . S
Gd85 N94 2.661 . S
Gd85 N98 2.601 . S
Gd85 O129 2.362 . S
Gd85 O130 2.324 . S
Gd85 O134 2.545 . S
Gd85 O135 2.606 . S
Gd85 O137 2.429 . S
Gd85 O138 2.545 . S
Gd85 O139 2.412 . S
Gd85 C152 2.828 . S
C86 C89 1.417 . S
C86 C91 1.431 . S
C86 C92 1.412 . S
C87 C90 1.437 . S
C87 C91 1.317 . S
C87 H106 0.929 . S
C88 C89 1.426 . S
C88 C90 1.413 . S
C88 N98 1.359 . S
C89 C86 1.417 . S
C89 C88 1.426 . S
C89 N94 1.350 . S
C90 C87 1.437 . S
C90 C88 1.413 . S
C90 C100 1.391 . S
C91 C86 1.431 . S
C91 C87 1.317 . S
C91 H102 0.930 . S
C92 C86 1.412 . S
C92 C93 1.355 . S
C92 H104 0.930 . S
C93 C92 1.355 . S
C93 C95 1.402 . S
C93 H105 0.930 . S
N94 Gd85 2.661 . S
N94 C89 1.350 . S
N94 C95 1.307 . S
C95 C93 1.402 . S
C95 N94 1.307 . S
C95 H96 0.930 . S
H96 C95 0.930 . S
C97 N98 1.334 . S
C97 C99 1.394 . S
C97 H101 0.930 . S
N98 Gd85 2.601 . S
N98 C88 1.359 . S
N98 C97 1.334 . S
C99 C97 1.394 . S
C99 C100 1.359 . S
C99 H111 0.930 . S
C100 C90 1.391 . S
C100 C99 1.359 . S
C100 H112 0.929 . S
H101 C97 0.930 . S
H102 C91 0.930 . S
H103 C120 0.930 . S
H104 C92 0.930 . S
H105 C93 0.930 . S
H106 C87 0.929 . S
H107 C125 0.930 . S
H108 C116 0.930 . S
H109 C117 0.930 . S
H110 C141 0.929 . S
H111 C99 0.930 . S
H112 C100 0.929 . S
H113 C142 0.930 . S
H114 C123 0.930 . S
N115 Gd84 2.661 . S
N115 C119 1.350 . S
N115 C120 1.307 . S
C116 H108 0.930 . S
C116 C117 1.355 . S
C116 C118 1.412 . S
C117 H109 0.930 . S
C117 C116 1.355 . S
C117 C120 1.402 . S
C118 C116 1.412 . S
C118 C119 1.417 . S
C118 C142 1.431 . S
C119 N115 1.350 . S
C119 C118 1.417 . S
C119 C122 1.426 . S
C120 H103 0.930 . S
C120 N115 1.307 . S
C120 C117 1.402 . S
N121 Gd84 2.601 . S
N121 C122 1.359 . S
N121 C125 1.334 . S
C122 C119 1.426 . S
C122 N121 1.359 . S
C122 C126 1.413 . S
C123 H114 0.930 . S
C123 C124 1.359 . S
C123 C125 1.394 . S
C124 C123 1.359 . S
C124 C126 1.391 . S
C124 H127 0.929 . S
C125 H107 0.930 . S
C125 N121 1.334 . S
C125 C123 1.394 . S
C126 C122 1.413 . S
C126 C124 1.391 . S
C126 C141 1.437 . S
H127 C124 0.929 . S
O128 Gd84 2.545 . S
O128 C143 1.258 . S
O129 Gd84 2.606 . S
O129 Gd85 2.362 . S
O129 C140 1.284 . S
O130 Gd85 2.324 . S
O130 C150 1.254 . S
O131 Gd84 2.429 . S
O131 C150 1.268 . S
O132 Gd84 2.545 . S
O132 C140 1.250 . S
O133 Gd84 2.412 . S
O133 C143 1.252 . S
O134 Gd85 2.545 . S
O134 C152 1.258 . S
O135 Gd84 2.362 . S
O135 Gd85 2.606 . S
O135 C151 1.284 . S
O136 Gd84 2.324 . S
O136 C159 1.254 . S
O137 Gd85 2.429 . S
O137 C159 1.268 . S
O138 Gd85 2.545 . S
O138 C151 1.250 . S
O139 Gd85 2.412 . S
O139 C152 1.252 . S
C140 O129 1.284 . S
C140 O132 1.250 . S
C141 H110 0.929 . S
C141 C126 1.437 . S
C141 C142 1.317 . S
C142 H113 0.930 . S
C142 C118 1.431 . S
C142 C141 1.317 . S
C143 Gd84 2.828 . S
C143 O128 1.258 . S
C143 O133 1.252 . S
C143 C144 1.497 . S
C144 C143 1.497 . S
C144 C145 1.395 . S
C144 C146 1.380 . S
C145 C144 1.395 . S
C145 C148 1.398 . S
C145 H160 0.930 . S
C146 C144 1.380 . S
C146 C147 1.391 . S
C146 H161 0.930 . S
C147 C146 1.391 . S
C147 C149 1.387 . S
C148 C145 1.398 . S
C148 C149 1.380 . S
C148 H162 0.930 . S
C149 C147 1.387 . S
C149 C148 1.380 . S
C149 H163 0.930 . S
C150 O130 1.254 . S
C150 O131 1.268 . S
C151 O135 1.284 . S
C151 O138 1.250 . S
C152 Gd85 2.828 . S
C152 O134 1.258 . S
C152 O139 1.252 . S
C152 C153 1.497 . S
C153 C152 1.497 . S
C153 C154 1.395 . S
C153 C155 1.380 . S
C154 C153 1.395 . S
C154 C157 1.398 . S
C154 H164 0.930 . S
C155 C153 1.380 . S
C155 C156 1.391 . S
C155 H165 0.930 . S
C156 C155 1.391 . S
C156 C158 1.387 . S
C157 C154 1.398 . S
C157 C158 1.380 . S
C157 H166 0.930 . S
C158 C156 1.387 . S
C158 C157 1.380 . S
C158 H167 0.930 . S
C159 O136 1.254 . S
C159 O137 1.268 . S
H160 C145 0.930 . S
H161 C146 0.930 . S
H162 C148 0.930 . S
H163 C149 0.930 . S
H164 C154 0.930 . S
H165 C155 0.930 . S
H166 C157 0.930 . S
H167 C158 0.930 . S
Gd168 N199 2.661 . S
Gd168 N205 2.601 . S
Gd168 O212 2.545 . S
Gd168 O213 2.606 . S
Gd168 O215 2.429 . S
Gd168 O216 2.545 . S
Gd168 O217 2.412 . S
Gd168 O219 2.362 . S
Gd168 O220 2.324 . S
Gd168 C227 2.828 . S
Gd169 N178 2.661 . S
Gd169 N182 2.601 . S
Gd169 O213 2.362 . S
Gd169 O214 2.324 . S
Gd169 O218 2.545 . S
Gd169 O219 2.606 . S
Gd169 O221 2.429 . S
Gd169 O222 2.545 . S
Gd169 O223 2.412 . S
Gd169 C236 2.828 . S
C170 C173 1.417 . S
C170 C175 1.431 . S
C170 C176 1.412 . S
C171 C174 1.437 . S
C171 C175 1.317 . S
C171 H190 0.929 . S
C172 C173 1.426 . S
C172 C174 1.413 . S
C172 N182 1.359 . S
C173 C170 1.417 . S
C173 C172 1.426 . S
C173 N178 1.350 . S
C174 C171 1.437 . S
C174 C172 1.413 . S
C174 C184 1.391 . S
C175 C170 1.431 . S
C175 C171 1.317 . S
C175 H186 0.930 . S
C176 C170 1.412 . S
C176 C177 1.355 . S
C176 H188 0.930 . S
C177 C176 1.355 . S
C177 C179 1.402 . S
C177 H189 0.930 . S
N178 Gd169 2.661 . S
N178 C173 1.350 . S
N178 C179 1.307 . S
C179 C177 1.402 . S
C179 N178 1.307 . S
C179 H180 0.930 . S
H180 C179 0.930 . S
C181 N182 1.334 . S
C181 C183 1.394 . S
C181 H185 0.930 . S
N182 Gd169 2.601 . S
N182 C172 1.359 . S
N182 C181 1.334 . S
C183 C181 1.394 . S
C183 C184 1.359 . S
C183 H195 0.930 . S
C184 C174 1.391 . S
C184 C183 1.359 . S
C184 H196 0.929 . S
H185 C181 0.930 . S
H186 C175 0.930 . S
H187 C204 0.930 . S
H188 C176 0.930 . S
H189 C177 0.930 . S
H190 C171 0.929 . S
H191 C209 0.930 . S
H192 C200 0.930 . S
H193 C201 0.930 . S
H194 C225 0.929 . S
H195 C183 0.930 . S
H196 C184 0.929 . S
H197 C226 0.930 . S
H198 C207 0.925 . S
N199 Gd168 2.661 . S
N199 C203 1.350 . S
N199 C204 1.307 . S
C200 H192 0.930 . S
C200 C201 1.355 . S
C200 C202 1.412 . S
C201 H193 0.930 . S
C201 C200 1.355 . S
C201 C204 1.402 . S
C202 C200 1.412 . S
C202 C203 1.417 . S
C202 C226 1.431 . S
C203 N199 1.350 . S
C203 C202 1.417 . S
C203 C206 1.426 . S
C204 H187 0.930 . S
C204 N199 1.307 . S
C204 C201 1.402 . S
N205 Gd168 2.601 . S
N205 C206 1.359 . S
N205 C209 1.334 . S
C206 C203 1.426 . S
C206 N205 1.359 . S
C206 C210 1.413 . S
C207 H198 0.925 . S
C207 C208 1.361 1_545 S
C207 C209 1.397 1_545 S
C208 C207 1.361 1_565 S
C208 C210 1.391 . S
C208 H211 0.929 1_565 S
C209 H191 0.930 . S
C209 N205 1.334 . S
C209 C207 1.397 1_565 S
C210 C206 1.413 . S
C210 C208 1.391 . S
C210 C225 1.437 . S
H211 C208 0.929 1_545 S
O212 Gd168 2.545 . S
O212 C227 1.258 . S
O213 Gd168 2.606 . S
O213 Gd169 2.362 . S
O213 C224 1.284 . S
O214 Gd169 2.324 . S
O214 C234 1.254 . S
O215 Gd168 2.429 . S
O215 C234 1.268 . S
O216 Gd168 2.545 . S
O216 C224 1.250 . S
O217 Gd168 2.412 . S
O217 C227 1.252 . S
O218 Gd169 2.545 . S
O218 C236 1.258 . S
O219 Gd168 2.362 . S
O219 Gd169 2.606 . S
O219 C235 1.284 . S
O220 Gd168 2.324 . S
O220 C243 1.254 . S
O221 Gd169 2.429 . S
O221 C243 1.268 . S
O222 Gd169 2.545 . S
O222 C235 1.250 . S
O223 Gd169 2.412 . S
O223 C236 1.252 . S
C224 O213 1.284 . S
C224 O216 1.250 . S
C225 H194 0.929 . S
C225 C210 1.437 . S
C225 C226 1.317 . S
C226 H197 0.930 . S
C226 C202 1.431 . S
C226 C225 1.317 . S
C227 Gd168 2.828 . S
C227 O212 1.258 . S
C227 O217 1.252 . S
C227 C228 1.497 . S
C228 C227 1.497 . S
C228 C229 1.395 . S
C228 C230 1.380 . S
C229 C228 1.395 . S
C229 C232 1.398 . S
C229 H244 0.930 . S
C230 C228 1.380 . S
C230 C231 1.391 . S
C230 H245 0.930 . S
C231 C230 1.391 . S
C231 C233 1.387 . S
C232 C229 1.398 . S
C232 C233 1.380 . S
C232 H246 0.930 . S
C233 C231 1.387 . S
C233 C232 1.380 . S
C233 H247 0.930 . S
C234 O214 1.254 . S
C234 O215 1.268 . S
C235 O219 1.284 . S
C235 O222 1.250 . S
C236 Gd169 2.828 . S
C236 O218 1.258 . S
C236 O223 1.252 . S
C236 C237 1.497 . S
C237 C236 1.497 . S
C237 C238 1.395 . S
C237 C239 1.380 . S
C238 C237 1.395 . S
C238 C241 1.398 . S
C238 H248 0.930 . S
C239 C237 1.380 . S
C239 C240 1.391 . S
C239 H249 0.930 . S
C240 C239 1.391 . S
C240 C242 1.387 . S
C241 C238 1.398 . S
C241 C242 1.380 . S
C241 H250 0.930 . S
C242 C240 1.387 . S
C242 C241 1.380 . S
C242 H251 0.930 . S
C243 O220 1.254 . S
C243 O221 1.268 . S
H244 C229 0.930 . S
H245 C230 0.930 . S
H246 C232 0.930 . S
H247 C233 0.930 . S
H248 C238 0.930 . S
H249 C239 0.930 . S
H250 C241 0.930 . S
H251 C242 0.930 . S
Gd252 N283 2.661 . S
Gd252 N289 2.601 . S
Gd252 O296 2.545 . S
Gd252 O297 2.606 . S
Gd252 O299 2.429 . S
Gd252 O300 2.545 . S
Gd252 O301 2.412 . S
Gd252 O303 2.362 . S
Gd252 O304 2.324 . S
Gd252 C311 2.828 . S
Gd253 N262 2.661 . S
Gd253 N266 2.601 . S
Gd253 O297 2.362 . S
Gd253 O298 2.324 . S
Gd253 O302 2.545 . S
Gd253 O303 2.606 . S
Gd253 O305 2.429 . S
Gd253 O306 2.545 . S
Gd253 O307 2.412 . S
Gd253 C320 2.828 . S
C254 C257 1.417 . S
C254 C259 1.431 . S
C254 C260 1.412 . S
C255 C258 1.437 . S
C255 C259 1.317 . S
C255 H274 0.929 . S
C256 C257 1.426 . S
C256 C258 1.413 . S
C256 N266 1.359 . S
C257 C254 1.417 . S
C257 C256 1.426 . S
C257 N262 1.350 . S
C258 C255 1.437 . S
C258 C256 1.413 . S
C258 C268 1.391 . S
C259 C254 1.431 . S
C259 C255 1.317 . S
C259 H270 0.930 . S
C260 C254 1.412 . S
C260 C261 1.355 . S
C260 H272 0.930 . S
C261 C260 1.355 . S
C261 C263 1.402 . S
C261 H273 0.930 . S
N262 Gd253 2.661 . S
N262 C257 1.350 . S
N262 C263 1.307 . S
C263 C261 1.402 . S
C263 N262 1.307 . S
C263 H264 0.930 . S
H264 C263 0.930 . S
C265 N266 1.334 . S
C265 C267 1.394 . S
C265 H269 0.930 . S
N266 Gd253 2.601 . S
N266 C256 1.359 . S
N266 C265 1.334 . S
C267 C265 1.394 . S
C267 C268 1.359 . S
C267 H279 0.930 . S
C268 C258 1.391 . S
C268 C267 1.359 . S
C268 H280 0.929 . S
H269 C265 0.930 . S
H270 C259 0.930 . S
H271 C288 0.930 . S
H272 C260 0.930 . S
H273 C261 0.930 . S
H274 C255 0.929 . S
H275 C293 0.930 . S
H276 C284 0.930 . S
H277 C285 0.930 . S
H278 C309 0.929 . S
H279 C267 0.930 . S
H280 C268 0.929 . S
H281 C310 0.930 . S
H282 C291 0.930 . S
N283 Gd252 2.661 . S
N283 C287 1.350 . S
N283 C288 1.307 . S
C284 H276 0.930 . S
C284 C285 1.355 . S
C284 C286 1.412 . S
C285 H277 0.930 . S
C285 C284 1.355 . S
C285 C288 1.402 . S
C286 C284 1.412 . S
C286 C287 1.417 . S
C286 C310 1.431 . S
C287 N283 1.350 . S
C287 C286 1.417 . S
C287 C290 1.426 . S
C288 H271 0.930 . S
C288 N283 1.307 . S
C288 C285 1.402 . S
N289 Gd252 2.601 . S
N289 C290 1.359 . S
N289 C293 1.334 . S
C290 C287 1.426 . S
C290 N289 1.359 . S
C290 C294 1.413 . S
C291 H282 0.930 . S
C291 C292 1.359 . S
C291 C293 1.394 . S
C292 C291 1.359 . S
C292 C294 1.391 . S
C292 H295 0.929 . S
C293 H275 0.930 . S
C293 N289 1.334 . S
C293 C291 1.394 . S
C294 C290 1.413 . S
C294 C292 1.391 . S
C294 C309 1.437 . S
H295 C292 0.929 . S
O296 Gd252 2.545 . S
O296 C311 1.258 . S
O297 Gd252 2.606 . S
O297 Gd253 2.362 . S
O297 C308 1.284 . S
O298 Gd253 2.324 . S
O298 C318 1.254 . S
O299 Gd252 2.429 . S
O299 C318 1.268 . S
O300 Gd252 2.545 . S
O300 C308 1.250 . S
O301 Gd252 2.412 . S
O301 C311 1.252 . S
O302 Gd253 2.545 . S
O302 C320 1.258 . S
O303 Gd252 2.362 . S
O303 Gd253 2.606 . S
O303 C319 1.284 . S
O304 Gd252 2.324 . S
O304 C327 1.254 . S
O305 Gd253 2.429 . S
O305 C327 1.268 . S
O306 Gd253 2.545 . S
O306 C319 1.250 . S
O307 Gd253 2.412 . S
O307 C320 1.252 . S
C308 O297 1.284 . S
C308 O300 1.250 . S
C309 H278 0.929 . S
C309 C294 1.437 . S
C309 C310 1.317 . S
C310 H281 0.930 . S
C310 C286 1.431 . S
C310 C309 1.317 . S
C311 Gd252 2.828 . S
C311 O296 1.258 . S
C311 O301 1.252 . S
C311 C312 1.497 . S
C312 C311 1.497 . S
C312 C313 1.395 . S
C312 C314 1.380 . S
C313 C312 1.395 . S
C313 C316 1.398 . S
C313 H328 0.930 . S
C314 C312 1.380 . S
C314 C315 1.391 . S
C314 H329 0.930 . S
C315 C314 1.391 . S
C315 C317 1.387 . S
C316 C313 1.398 . S
C316 C317 1.380 . S
C316 H330 0.930 . S
C317 C315 1.387 . S
C317 C316 1.380 . S
C317 H331 0.930 . S
C318 O298 1.254 . S
C318 O299 1.268 . S
C319 O303 1.284 . S
C319 O306 1.250 . S
C320 Gd253 2.828 . S
C320 O302 1.258 . S
C320 O307 1.252 . S
C320 C321 1.497 . S
C321 C320 1.497 . S
C321 C322 1.395 . S
C321 C323 1.380 . S
C322 C321 1.395 . S
C322 C325 1.398 1_556 S
C322 H332 0.930 . S
C323 C321 1.380 . S
C323 C324 1.391 1_556 S
C323 H333 0.930 . S
C324 C323 1.391 1_554 S
C324 C326 1.387 . S
C325 C322 1.398 1_554 S
C325 C326 1.380 . S
C325 H334 0.930 . S
C326 C324 1.387 . S
C326 C325 1.380 . S
C326 H335 0.930 . S
C327 O304 1.254 . S
C327 O305 1.268 . S
H328 C313 0.930 . S
H329 C314 0.930 . S
H330 C316 0.930 . S
H331 C317 0.930 . S
H332 C322 0.930 . S
H333 C323 0.930 . S
H334 C325 0.930 . S
H335 C326 0.930 . S
Gd336 N367 2.661 . S
Gd336 N373 2.601 1_455 S
Gd336 O380 2.545 . S
Gd336 O381 2.606 . S
Gd336 O383 2.429 . S
Gd336 O384 2.545 . S
Gd336 O385 2.412 . S
Gd336 O387 2.362 . S
Gd336 O388 2.324 . S
Gd336 C395 2.828 . S
Gd337 N346 2.661 . S
Gd337 N350 2.601 . S
Gd337 O381 2.362 . S
Gd337 O382 2.324 . S
Gd337 O386 2.545 . S
Gd337 O387 2.606 . S
Gd337 O389 2.429 . S
Gd337 O390 2.545 . S
Gd337 O391 2.412 . S
Gd337 C404 2.828 . S
C338 C341 1.417 . S
C338 C343 1.431 . S
C338 C344 1.412 . S
C339 C342 1.437 . S
C339 C343 1.317 . S
C339 H358 0.929 . S
C340 C341 1.426 . S
C340 C342 1.413 . S
C340 N350 1.359 . S
C341 C338 1.417 . S
C341 C340 1.426 . S
C341 N346 1.350 . S
C342 C339 1.437 . S
C342 C340 1.413 . S
C342 C352 1.391 . S
C343 C338 1.431 . S
C343 C339 1.317 . S
C343 H354 0.930 . S
C344 C338 1.412 . S
C344 C345 1.355 . S
C344 H356 0.930 . S
C345 C344 1.355 . S
C345 C347 1.402 . S
C345 H357 0.930 . S
N346 Gd337 2.661 . S
N346 C341 1.350 . S
N346 C347 1.307 . S
C347 C345 1.402 . S
C347 N346 1.307 . S
C347 H348 0.930 . S
H348 C347 0.930 . S
C349 N350 1.334 . S
C349 C351 1.394 . S
C349 H353 0.930 . S
N350 Gd337 2.601 . S
N350 C340 1.359 . S
N350 C349 1.334 . S
C351 C349 1.394 . S
C351 C352 1.359 . S
C351 H363 0.930 . S
C352 C342 1.391 . S
C352 C351 1.359 . S
C352 H364 0.929 . S
H353 C349 0.930 . S
H354 C343 0.930 . S
H355 C372 0.930 . S
H356 C344 0.930 . S
H357 C345 0.930 . S
H358 C339 0.929 . S
H359 C377 0.930 1_455 S
H360 C368 0.930 . S
H361 C369 0.930 . S
H362 C393 0.929 . S
H363 C351 0.930 . S
H364 C352 0.929 . S
H365 C394 0.930 . S
H366 C375 0.930 . S
N367 Gd336 2.661 . S
N367 C371 1.350 1_455 S
N367 C372 1.307 . S
C368 H360 0.930 . S
C368 C369 1.355 . S
C368 C370 1.412 . S
C369 H361 0.930 . S
C369 C368 1.355 . S
C369 C372 1.402 1_655 S
C370 C368 1.412 . S
C370 C371 1.417 . S
C370 C394 1.431 . S
C371 N367 1.350 1_655 S
C371 C370 1.417 . S
C371 C374 1.426 . S
C372 H355 0.930 . S
C372 N367 1.307 . S
C372 C369 1.402 1_455 S
N373 Gd336 2.601 1_655 S
N373 C374 1.359 . S
N373 C377 1.334 . S
C374 C371 1.426 . S
C374 N373 1.359 . S
C374 C378 1.413 . S
C375 H366 0.930 . S
C375 C376 1.359 . S
C375 C377 1.394 . S
C376 C375 1.359 . S
C376 C378 1.391 . S
C376 H379 0.929 . S
C377 H359 0.930 1_655 S
C377 N373 1.334 . S
C377 C375 1.394 . S
C378 C374 1.413 . S
C378 C376 1.391 . S
C378 C393 1.437 . S
H379 C376 0.929 . S
O380 Gd336 2.545 . S
O380 C395 1.258 . S
O381 Gd336 2.606 . S
O381 Gd337 2.362 . S
O381 C392 1.284 . S
O382 Gd337 2.324 . S
O382 C402 1.254 . S
O383 Gd336 2.429 . S
O383 C402 1.268 . S
O384 Gd336 2.545 . S
O384 C392 1.250 . S
O385 Gd336 2.412 . S
O385 C395 1.252 . S
O386 Gd337 2.545 . S
O386 C404 1.258 . S
O387 Gd336 2.362 . S
O387 Gd337 2.606 . S
O387 C403 1.284 . S
O388 Gd336 2.324 . S
O388 C411 1.254 . S
O389 Gd337 2.429 . S
O389 C411 1.268 . S
O390 Gd337 2.545 . S
O390 C403 1.250 . S
O391 Gd337 2.412 . S
O391 C404 1.252 . S
C392 O381 1.284 . S
C392 O384 1.250 . S
C393 H362 0.929 . S
C393 C378 1.437 . S
C393 C394 1.317 . S
C394 H365 0.930 . S
C394 C370 1.431 . S
C394 C393 1.317 . S
C395 Gd336 2.828 . S
C395 O380 1.258 . S
C395 O385 1.252 . S
C395 C396 1.497 1_455 S
C396 C395 1.497 1_655 S
C396 C397 1.395 . S
C396 C398 1.380 1_655 S
C397 C396 1.395 . S
C397 C400 1.398 . S
C397 H412 0.930 . S
C398 C396 1.380 1_455 S
C398 C399 1.391 1_456 S
C398 H413 0.930 . S
C399 C398 1.391 1_654 S
C399 C401 1.387 . S
C400 C397 1.398 . S
C400 C401 1.380 1_556 S
C400 H414 0.930 . S
C401 C399 1.387 . S
C401 C400 1.380 1_554 S
C401 H415 0.930 . S
C402 O382 1.254 . S
C402 O383 1.268 . S
C403 O387 1.284 . S
C403 O390 1.250 . S
C404 Gd337 2.828 . S
C404 O386 1.258 . S
C404 O391 1.252 . S
C404 C405 1.497 . S
C405 C404 1.497 . S
C405 C406 1.395 . S
C405 C407 1.380 . S
C406 C405 1.395 . S
C406 C409 1.398 . S
C406 H416 0.930 . S
C407 C405 1.380 . S
C407 C408 1.391 . S
C407 H417 0.930 . S
C408 C407 1.391 . S
C408 C410 1.387 . S
C409 C406 1.398 . S
C409 C410 1.380 . S
C409 H418 0.930 . S
C410 C408 1.387 . S
C410 C409 1.380 . S
C410 H419 0.930 . S
C411 O388 1.254 . S
C411 O389 1.268 . S
H412 C397 0.930 . S
H413 C398 0.930 . S
H414 C400 0.930 . S
H415 C401 0.930 . S
H416 C406 0.930 . S
H417 C407 0.930 . S
H418 C409 0.930 . S
H419 C410 0.930 . S
Gd420 N451 2.661 . S
Gd420 N457 2.601 . S
Gd420 O464 2.545 . S
Gd420 O465 2.606 . S
Gd420 O467 2.429 . S
Gd420 O468 2.545 . S
Gd420 O469 2.412 . S
Gd420 O471 2.362 . S
Gd420 O472 2.324 . S
Gd420 C479 2.828 . S
Gd421 N430 2.661 . S
Gd421 N434 2.601 . S
Gd421 O465 2.362 . S
Gd421 O466 2.324 . S
Gd421 O470 2.545 . S
Gd421 O471 2.606 . S
Gd421 O473 2.429 . S
Gd421 O474 2.545 . S
Gd421 O475 2.412 . S
Gd421 C488 2.828 . S
C422 C425 1.417 . S
C422 C427 1.431 . S
C422 C428 1.412 . S
C423 C426 1.437 . S
C423 C427 1.317 . S
C423 H442 0.929 . S
C424 C425 1.426 . S
C424 C426 1.413 . S
C424 N434 1.359 . S
C425 C422 1.417 . S
C425 C424 1.426 . S
C425 N430 1.350 . S
C426 C423 1.437 . S
C426 C424 1.413 . S
C426 C436 1.391 . S
C427 C422 1.431 . S
C427 C423 1.317 . S
C427 H438 0.930 . S
C428 C422 1.412 . S
C428 C429 1.355 . S
C428 H440 0.930 . S
C429 C428 1.355 . S
C429 C431 1.402 . S
C429 H441 0.930 . S
N430 Gd421 2.661 . S
N430 C425 1.350 . S
N430 C431 1.307 . S
C431 C429 1.402 . S
C431 N430 1.307 . S
C431 H432 0.930 . S
H432 C431 0.930 . S
C433 N434 1.334 . S
C433 C435 1.394 . S
C433 H437 0.930 . S
N434 Gd421 2.601 . S
N434 C424 1.359 . S
N434 C433 1.334 . S
C435 C433 1.394 . S
C435 C436 1.359 . S
C435 H447 0.930 . S
C436 C426 1.391 . S
C436 C435 1.359 . S
C436 H448 0.929 . S
H437 C433 0.930 . S
H438 C427 0.930 . S
H439 C456 0.930 . S
H440 C428 0.930 . S
H441 C429 0.930 . S
H442 C423 0.929 . S
H443 C461 0.930 . S
H444 C452 0.930 . S
H445 C453 0.930 . S
H446 C477 0.929 . S
H447 C435 0.930 . S
H448 C436 0.929 . S
H449 C478 0.930 . S
H450 C459 0.930 . S
N451 Gd420 2.661 . S
N451 C455 1.350 . S
N451 C456 1.307 . S
C452 H444 0.930 . S
C452 C453 1.355 . S
C452 C454 1.412 . S
C453 H445 0.930 . S
C453 C452 1.355 . S
C453 C456 1.402 . S
C454 C452 1.412 . S
C454 C455 1.417 . S
C454 C478 1.431 . S
C455 N451 1.350 . S
C455 C454 1.417 . S
C455 C458 1.426 . S
C456 H439 0.930 . S
C456 N451 1.307 . S
C456 C453 1.402 . S
N457 Gd420 2.601 . S
N457 C458 1.359 . S
N457 C461 1.334 . S
C458 C455 1.426 . S
C458 N457 1.359 . S
C458 C462 1.413 . S
C459 H450 0.930 . S
C459 C460 1.359 . S
C459 C461 1.394 . S
C460 C459 1.359 . S
C460 C462 1.391 . S
C460 H463 0.929 . S
C461 H443 0.930 . S
C461 N457 1.334 . S
C461 C459 1.394 . S
C462 C458 1.413 . S
C462 C460 1.391 . S
C462 C477 1.437 . S
H463 C460 0.929 . S
O464 Gd420 2.545 . S
O464 C479 1.258 . S
O465 Gd420 2.606 . S
O465 Gd421 2.362 . S
O465 C476 1.284 . S
O466 Gd421 2.324 . S
O466 C486 1.254 . S
O467 Gd420 2.429 . S
O467 C486 1.268 . S
O468 Gd420 2.545 . S
O468 C476 1.250 . S
O469 Gd420 2.412 . S
O469 C479 1.252 . S
O470 Gd421 2.545 . S
O470 C488 1.258 . S
O471 Gd420 2.362 . S
O471 Gd421 2.606 . S
O471 C487 1.284 . S
O472 Gd420 2.324 . S
O472 C495 1.254 . S
O473 Gd421 2.429 . S
O473 C495 1.268 . S
O474 Gd421 2.545 . S
O474 C487 1.250 . S
O475 Gd421 2.412 . S
O475 C488 1.252 . S
C476 O465 1.284 . S
C476 O468 1.250 . S
C477 H446 0.929 . S
C477 C462 1.437 . S
C477 C478 1.317 . S
C478 H449 0.930 . S
C478 C454 1.431 . S
C478 C477 1.317 . S
C479 Gd420 2.828 . S
C479 O464 1.258 . S
C479 O469 1.252 . S
C479 C480 1.497 . S
C480 C479 1.497 . S
C480 C481 1.395 . S
C480 C482 1.380 . S
C481 C480 1.395 . S
C481 C484 1.398 . S
C481 H496 0.930 . S
C482 C480 1.380 . S
C482 C483 1.391 . S
C482 H497 0.930 . S
C483 C482 1.391 . S
C483 C485 1.387 . S
C484 C481 1.398 . S
C484 C485 1.380 . S
C484 H498 0.930 . S
C485 C483 1.387 . S
C485 C484 1.380 . S
C485 H499 0.930 . S
C486 O466 1.254 . S
C486 O467 1.268 . S
C487 O471 1.284 . S
C487 O474 1.250 . S
C488 Gd421 2.828 . S
C488 O470 1.258 . S
C488 O475 1.252 . S
C488 C489 1.497 . S
C489 C488 1.497 . S
C489 C490 1.395 . S
C489 C491 1.380 . S
C490 C489 1.395 . S
C490 C493 1.398 1_554 S
C490 H500 0.930 . S
C491 C489 1.380 . S
C491 C492 1.391 1_554 S
C491 H501 0.930 . S
C492 C491 1.391 1_556 S
C492 C494 1.387 . S
C493 C490 1.398 1_556 S
C493 C494 1.380 . S
C493 H502 0.930 . S
C494 C492 1.387 . S
C494 C493 1.380 . S
C494 H503 0.930 . S
C495 O472 1.254 . S
C495 O473 1.268 . S
H496 C481 0.930 . S
H497 C482 0.930 . S
H498 C484 0.930 . S
H499 C485 0.930 . S
H500 C490 0.930 . S
H501 C491 0.930 . S
H502 C493 0.930 . S
H503 C494 0.930 . S
Gd504 N535 2.661 . S
Gd504 N541 2.601 . S
Gd504 O548 2.545 . S
Gd504 O549 2.606 . S
Gd504 O551 2.429 . S
Gd504 O552 2.545 . S
Gd504 O553 2.412 . S
Gd504 O555 2.362 . S
Gd504 O556 2.324 . S
Gd504 C563 2.828 . S
Gd505 N514 2.661 . S
Gd505 N518 2.601 . S
Gd505 O549 2.362 . S
Gd505 O550 2.324 . S
Gd505 O554 2.545 . S
Gd505 O555 2.606 . S
Gd505 O557 2.429 . S
Gd505 O558 2.545 . S
Gd505 O559 2.412 . S
Gd505 C572 2.828 . S
C506 C509 1.417 . S
C506 C511 1.431 . S
C506 C512 1.412 . S
C507 C510 1.437 . S
C507 C511 1.317 . S
C507 H526 0.929 . S
C508 C509 1.426 . S
C508 C510 1.413 . S
C508 N518 1.359 . S
C509 C506 1.417 . S
C509 C508 1.426 . S
C509 N514 1.350 . S
C510 C507 1.437 . S
C510 C508 1.413 . S
C510 C520 1.391 . S
C511 C506 1.431 . S
C511 C507 1.317 . S
C511 H522 0.930 . S
C512 C506 1.412 . S
C512 C513 1.355 . S
C512 H524 0.930 . S
C513 C512 1.355 . S
C513 C515 1.402 . S
C513 H525 0.930 . S
N514 Gd505 2.661 . S
N514 C509 1.350 . S
N514 C515 1.307 . S
C515 C513 1.402 . S
C515 N514 1.307 . S
C515 H516 0.930 . S
H516 C515 0.930 . S
C517 N518 1.334 . S
C517 C519 1.392 . S
C517 H521 0.930 . S
N518 Gd505 2.601 . S
N518 C508 1.359 . S
N518 C517 1.334 . S
C519 C517 1.392 . S
C519 C520 1.357 . S
C519 H531 0.935 1_545 S
C520 C510 1.391 . S
C520 C519 1.357 . S
C520 H532 0.929 1_545 S
H521 C517 0.930 . S
H522 C511 0.930 . S
H523 C540 0.930 . S
H524 C512 0.930 . S
H525 C513 0.930 . S
H526 C507 0.929 . S
H527 C545 0.930 . S
H528 C536 0.930 . S
H529 C537 0.930 . S
H530 C561 0.929 . S
H531 C519 0.935 1_565 S
H532 C520 0.929 1_565 S
H533 C562 0.930 . S
H534 C543 0.930 . S
N535 Gd504 2.661 . S
N535 C539 1.350 . S
N535 C540 1.307 . S
C536 H528 0.930 . S
C536 C537 1.355 . S
C536 C538 1.412 . S
C537 H529 0.930 . S
C537 C536 1.355 . S
C537 C540 1.402 . S
C538 C536 1.412 . S
C538 C539 1.417 . S
C538 C562 1.431 . S
C539 N535 1.350 . S
C539 C538 1.417 . S
C539 C542 1.426 . S
C540 H523 0.930 . S
C540 N535 1.307 . S
C540 C537 1.402 . S
N541 Gd504 2.601 . S
N541 C542 1.359 . S
N541 C545 1.334 . S
C542 C539 1.426 . S
C542 N541 1.359 . S
C542 C546 1.413 . S
C543 H534 0.930 . S
C543 C544 1.359 . S
C543 C545 1.394 . S
C544 C543 1.359 . S
C544 C546 1.391 . S
C544 H547 0.929 . S
C545 H527 0.930 . S
C545 N541 1.334 . S
C545 C543 1.394 . S
C546 C542 1.413 . S
C546 C544 1.391 . S
C546 C561 1.437 . S
H547 C544 0.929 . S
O548 Gd504 2.545 . S
O548 C563 1.258 . S
O549 Gd504 2.606 . S
O549 Gd505 2.362 . S
O549 C560 1.284 . S
O550 Gd505 2.324 . S
O550 C570 1.254 . S
O551 Gd504 2.429 . S
O551 C570 1.268 . S
O552 Gd504 2.545 . S
O552 C560 1.250 . S
O553 Gd504 2.412 . S
O553 C563 1.252 . S
O554 Gd505 2.545 . S
O554 C572 1.258 . S
O555 Gd504 2.362 . S
O555 Gd505 2.606 . S
O555 C571 1.284 . S
O556 Gd504 2.324 . S
O556 C579 1.254 . S
O557 Gd505 2.429 . S
O557 C579 1.268 . S
O558 Gd505 2.545 . S
O558 C571 1.250 . S
O559 Gd505 2.412 . S
O559 C572 1.252 . S
C560 O549 1.284 . S
C560 O552 1.250 . S
C561 H530 0.929 . S
C561 C546 1.437 . S
C561 C562 1.317 . S
C562 H533 0.930 . S
C562 C538 1.431 . S
C562 C561 1.317 . S
C563 Gd504 2.828 . S
C563 O548 1.258 . S
C563 O553 1.252 . S
C563 C564 1.497 . S
C564 C563 1.497 . S
C564 C565 1.395 . S
C564 C566 1.380 . S
C565 C564 1.395 . S
C565 C568 1.398 . S
C565 H580 0.930 . S
C566 C564 1.380 . S
C566 C567 1.391 . S
C566 H581 0.930 . S
C567 C566 1.391 . S
C567 C569 1.387 . S
C568 C565 1.398 . S
C568 C569 1.380 . S
C568 H582 0.930 . S
C569 C567 1.387 . S
C569 C568 1.380 . S
C569 H583 0.930 . S
C570 O550 1.254 . S
C570 O551 1.268 . S
C571 O555 1.284 . S
C571 O558 1.250 . S
C572 Gd505 2.828 . S
C572 O554 1.258 . S
C572 O559 1.252 . S
C572 C573 1.497 . S
C573 C572 1.497 . S
C573 C574 1.395 . S
C573 C575 1.380 . S
C574 C573 1.395 . S
C574 C577 1.398 . S
C574 H584 0.930 . S
C575 C573 1.380 . S
C575 C576 1.391 . S
C575 H585 0.930 . S
C576 C575 1.391 . S
C576 C578 1.387 . S
C577 C574 1.398 . S
C577 C578 1.380 . S
C577 H586 0.930 . S
C578 C576 1.387 . S
C578 C577 1.380 . S
C578 H587 0.930 . S
C579 O556 1.254 . S
C579 O557 1.268 . S
H580 C565 0.930 . S
H581 C566 0.930 . S
H582 C568 0.930 . S
H583 C569 0.930 . S
H584 C574 0.930 . S
H585 C575 0.930 . S
H586 C577 0.930 . S
H587 C578 0.930 . S
Gd588 N619 2.661 . S
Gd588 N625 2.601 . S
Gd588 O632 2.545 . S
Gd588 O633 2.606 . S
Gd588 O635 2.429 . S
Gd588 O636 2.545 . S
Gd588 O637 2.412 . S
Gd588 O639 2.362 . S
Gd588 O640 2.324 . S
Gd588 C647 2.828 . S
Gd589 N598 2.661 . S
Gd589 N602 2.601 . S
Gd589 O633 2.362 . S
Gd589 O634 2.324 . S
Gd589 O638 2.545 . S
Gd589 O639 2.606 . S
Gd589 O641 2.429 . S
Gd589 O642 2.545 . S
Gd589 O643 2.412 . S
Gd589 C656 2.828 . S
C590 C593 1.417 . S
C590 C595 1.431 . S
C590 C596 1.412 . S
C591 C594 1.437 . S
C591 C595 1.317 . S
C591 H610 0.929 . S
C592 C593 1.426 . S
C592 C594 1.413 . S
C592 N602 1.359 . S
C593 C590 1.417 . S
C593 C592 1.426 . S
C593 N598 1.350 . S
C594 C591 1.437 . S
C594 C592 1.413 . S
C594 C604 1.391 . S
C595 C590 1.431 . S
C595 C591 1.317 . S
C595 H606 0.930 . S
C596 C590 1.412 . S
C596 C597 1.355 . S
C596 H608 0.930 . S
C597 C596 1.355 . S
C597 C599 1.402 . S
C597 H609 0.930 . S
N598 Gd589 2.661 . S
N598 C593 1.350 . S
N598 C599 1.307 . S
C599 C597 1.402 . S
C599 N598 1.307 . S
C599 H600 0.930 . S
H600 C599 0.930 . S
C601 N602 1.334 . S
C601 C603 1.394 . S
C601 H605 0.930 . S
N602 Gd589 2.601 . S
N602 C592 1.359 . S
N602 C601 1.334 . S
C603 C601 1.394 . S
C603 C604 1.359 . S
C603 H615 0.930 . S
C604 C594 1.391 . S
C604 C603 1.359 . S
C604 H616 0.929 . S
H605 C601 0.930 . S
H606 C595 0.930 . S
H607 C624 0.930 . S
H608 C596 0.930 . S
H609 C597 0.930 . S
H610 C591 0.929 . S
H611 C629 0.930 . S
H612 C620 0.930 . S
H613 C621 0.930 . S
H614 C645 0.929 . S
H615 C603 0.930 . S
H616 C604 0.929 . S
H617 C646 0.930 . S
H618 C627 0.930 . S
N619 Gd588 2.661 . S
N619 C623 1.350 . S
N619 C624 1.307 . S
C620 H612 0.930 . S
C620 C621 1.355 . S
C620 C622 1.412 . S
C621 H613 0.930 . S
C621 C620 1.355 . S
C621 C624 1.402 . S
C622 C620 1.412 . S
C622 C623 1.417 . S
C622 C646 1.431 . S
C623 N619 1.350 . S
C623 C622 1.417 . S
C623 C626 1.426 . S
C624 H607 0.930 . S
C624 N619 1.307 . S
C624 C621 1.402 . S
N625 Gd588 2.601 . S
N625 C626 1.359 . S
N625 C629 1.334 . S
C626 C623 1.426 . S
C626 N625 1.359 . S
C626 C630 1.413 . S
C627 H618 0.930 . S
C627 C628 1.359 . S
C627 C629 1.394 . S
C628 C627 1.359 . S
C628 C630 1.391 . S
C628 H631 0.929 . S
C629 H611 0.930 . S
C629 N625 1.334 . S
C629 C627 1.394 . S
C630 C626 1.413 . S
C630 C628 1.391 . S
C630 C645 1.437 . S
H631 C628 0.929 . S
O632 Gd588 2.545 . S
O632 C647 1.258 . S
O633 Gd588 2.606 . S
O633 Gd589 2.362 . S
O633 C644 1.284 . S
O634 Gd589 2.324 . S
O634 C654 1.254 . S
O635 Gd588 2.429 . S
O635 C654 1.268 . S
O636 Gd588 2.545 . S
O636 C644 1.250 . S
O637 Gd588 2.412 . S
O637 C647 1.252 . S
O638 Gd589 2.545 . S
O638 C656 1.258 . S
O639 Gd588 2.362 . S
O639 Gd589 2.606 . S
O639 C655 1.284 . S
O640 Gd588 2.324 . S
O640 C663 1.254 . S
O641 Gd589 2.429 . S
O641 C663 1.268 . S
O642 Gd589 2.545 . S
O642 C655 1.250 . S
O643 Gd589 2.412 . S
O643 C656 1.252 . S
C644 O633 1.284 . S
C644 O636 1.250 . S
C645 H614 0.929 . S
C645 C630 1.437 . S
C645 C646 1.317 . S
C646 H617 0.930 . S
C646 C622 1.431 . S
C646 C645 1.317 . S
C647 Gd588 2.828 . S
C647 O632 1.258 . S
C647 O637 1.252 . S
C647 C648 1.497 . S
C648 C647 1.497 . S
C648 C649 1.395 . S
C648 C650 1.380 . S
C649 C648 1.395 . S
C649 C652 1.398 . S
C649 H664 0.930 . S
C650 C648 1.380 . S
C650 C651 1.391 . S
C650 H665 0.930 . S
C651 C650 1.391 . S
C651 C653 1.387 . S
C652 C649 1.398 . S
C652 C653 1.380 . S
C652 H666 0.930 . S
C653 C651 1.387 . S
C653 C652 1.380 . S
C653 H667 0.930 . S
C654 O634 1.254 . S
C654 O635 1.268 . S
C655 O639 1.284 . S
C655 O642 1.250 . S
C656 Gd589 2.828 . S
C656 O638 1.258 . S
C656 O643 1.252 . S
C656 C657 1.497 . S
C657 C656 1.497 . S
C657 C658 1.395 . S
C657 C659 1.380 . S
C658 C657 1.395 . S
C658 C661 1.398 . S
C658 H668 0.930 . S
C659 C657 1.380 . S
C659 C660 1.391 . S
C659 H669 0.930 . S
C660 C659 1.391 . S
C660 C662 1.387 . S
C661 C658 1.398 . S
C661 C662 1.380 . S
C661 H670 0.930 . S
C662 C660 1.387 . S
C662 C661 1.380 . S
C662 H671 0.930 . S
C663 O640 1.254 . S
C663 O641 1.268 . S
H664 C649 0.930 . S
H665 C650 0.930 . S
H666 C652 0.930 . S
H667 C653 0.930 . S
H668 C658 0.930 . S
H669 C659 0.930 . S
H670 C661 0.930 . S
H671 C662 0.930 . S
Gd672 N703 2.661 . S
Gd672 N709 2.601 . S
Gd672 O716 2.545 . S
Gd672 O717 2.606 . S
Gd672 O719 2.429 . S
Gd672 O720 2.545 . S
Gd672 O721 2.412 . S
Gd672 O723 2.362 . S
Gd672 O724 2.324 . S
Gd672 C731 2.828 . S
Gd673 N682 2.661 . S
Gd673 N686 2.601 . S
Gd673 O717 2.362 . S
Gd673 O718 2.324 . S
Gd673 O722 2.545 . S
Gd673 O723 2.606 . S
Gd673 O725 2.429 . S
Gd673 O726 2.545 . S
Gd673 O727 2.412 . S
Gd673 C740 2.828 . S
C674 C677 1.417 . S
C674 C679 1.431 . S
C674 C680 1.412 . S
C675 C678 1.437 . S
C675 C679 1.317 . S
C675 H694 0.929 . S
C676 C677 1.426 . S
C676 C678 1.413 . S
C676 N686 1.359 . S
C677 C674 1.417 . S
C677 C676 1.426 . S
C677 N682 1.350 . S
C678 C675 1.437 . S
C678 C676 1.413 . S
C678 C688 1.391 . S
C679 C674 1.431 . S
C679 C675 1.317 . S
C679 H690 0.930 . S
C680 C674 1.412 . S
C680 C681 1.355 . S
C680 H692 0.924 1_655 S
C681 C680 1.355 . S
C681 C683 1.402 . S
C681 H693 0.930 1_655 S
N682 Gd673 2.661 . S
N682 C677 1.350 . S
N682 C683 1.307 . S
C683 C681 1.402 . S
C683 N682 1.307 . S
C683 H684 0.930 . S
H684 C683 0.930 . S
C685 N686 1.334 . S
C685 C687 1.394 . S
C685 H689 0.930 . S
N686 Gd673 2.601 . S
N686 C676 1.359 . S
N686 C685 1.334 . S
C687 C685 1.394 . S
C687 C688 1.359 . S
C687 H699 0.930 . S
C688 C678 1.391 . S
C688 C687 1.359 . S
C688 H700 0.929 . S
H689 C685 0.930 . S
H690 C679 0.930 . S
H691 C708 0.930 . S
H692 C680 0.924 1_455 S
H693 C681 0.930 1_455 S
H694 C675 0.929 . S
H695 C713 0.930 . S
H696 C704 0.930 . S
H697 C705 0.930 . S
H698 C729 0.929 . S
H699 C687 0.930 . S
H700 C688 0.929 . S
H701 C730 0.930 . S
H702 C711 0.930 . S
N703 Gd672 2.661 . S
N703 C707 1.350 . S
N703 C708 1.307 . S
C704 H696 0.930 . S
C704 C705 1.355 . S
C704 C706 1.412 . S
C705 H697 0.930 . S
C705 C704 1.355 . S
C705 C708 1.402 . S
C706 C704 1.412 . S
C706 C707 1.417 . S
C706 C730 1.431 . S
C707 N703 1.350 . S
C707 C706 1.417 . S
C707 C710 1.426 . S
C708 H691 0.930 . S
C708 N703 1.307 . S
C708 C705 1.402 . S
N709 Gd672 2.601 . S
N709 C710 1.359 . S
N709 C713 1.334 . S
C710 C707 1.426 . S
C710 N709 1.359 . S
C710 C714 1.413 . S
C711 H702 0.930 . S
C711 C712 1.359 . S
C711 C713 1.394 . S
C712 C711 1.359 . S
C712 C714 1.391 . S
C712 H715 0.929 . S
C713 H695 0.930 . S
C713 N709 1.334 . S
C713 C711 1.394 . S
C714 C710 1.413 . S
C714 C712 1.391 . S
C714 C729 1.437 . S
H715 C712 0.929 . S
O716 Gd672 2.545 . S
O716 C731 1.258 . S
O717 Gd672 2.606 . S
O717 Gd673 2.362 . S
O717 C728 1.284 . S
O718 Gd673 2.324 . S
O718 C738 1.254 . S
O719 Gd672 2.429 . S
O719 C738 1.268 . S
O720 Gd672 2.545 . S
O720 C728 1.250 . S
O721 Gd672 2.412 . S
O721 C731 1.252 . S
O722 Gd673 2.545 . S
O722 C740 1.258 . S
O723 Gd672 2.362 . S
O723 Gd673 2.606 . S
O723 C739 1.284 . S
O724 Gd672 2.324 . S
O724 C747 1.254 . S
O725 Gd673 2.429 . S
O725 C747 1.268 . S
O726 Gd673 2.545 . S
O726 C739 1.250 . S
O727 Gd673 2.412 . S
O727 C740 1.252 . S
C728 O717 1.284 . S
C728 O720 1.250 . S
C729 H698 0.929 . S
C729 C714 1.437 . S
C729 C730 1.317 . S
C730 H701 0.930 . S
C730 C706 1.431 . S
C730 C729 1.317 . S
C731 Gd672 2.828 . S
C731 O716 1.258 . S
C731 O721 1.252 . S
C731 C732 1.497 . S
C732 C731 1.497 . S
C732 C733 1.395 . S
C732 C734 1.380 . S
C733 C732 1.395 . S
C733 C736 1.398 . S
C733 H748 0.930 . S
C734 C732 1.380 . S
C734 C735 1.391 . S
C734 H749 0.930 . S
C735 C734 1.391 . S
C735 C737 1.387 . S
C736 C733 1.398 . S
C736 C737 1.380 . S
C736 H750 0.930 . S
C737 C735 1.387 . S
C737 C736 1.380 . S
C737 H751 0.930 . S
C738 O718 1.254 . S
C738 O719 1.268 . S
C739 O723 1.284 . S
C739 O726 1.250 . S
C740 Gd673 2.828 . S
C740 O722 1.258 . S
C740 O727 1.252 . S
C740 C741 1.497 . S
C741 C740 1.497 . S
C741 C742 1.395 . S
C741 C743 1.380 . S
C742 C741 1.395 . S
C742 C745 1.398 . S
C742 H752 0.930 . S
C743 C741 1.380 . S
C743 C744 1.391 . S
C743 H753 0.930 . S
C744 C743 1.391 . S
C744 C746 1.387 . S
C745 C742 1.398 . S
C745 C746 1.380 . S
C745 H754 0.930 . S
C746 C744 1.387 . S
C746 C745 1.380 . S
C746 H755 0.930 . S
C747 O724 1.254 . S
C747 O725 1.268 . S
H748 C733 0.930 . S
H749 C734 0.930 . S
H750 C736 0.930 . S
H751 C737 0.930 . S
H752 C742 0.930 . S
H753 C743 0.930 . S
H754 C745 0.930 . S
H755 C746 0.930 . S
Gd756 N787 2.661 . S
Gd756 N793 2.601 . S
Gd756 O800 2.545 . S
Gd756 O801 2.606 . S
Gd756 O803 2.429 . S
Gd756 O804 2.545 . S
Gd756 O805 2.412 . S
Gd756 O807 2.362 . S
Gd756 O808 2.324 . S
Gd756 C815 2.828 . S
Gd757 N766 2.661 . S
Gd757 N770 2.601 . S
Gd757 O801 2.362 . S
Gd757 O802 2.324 . S
Gd757 O806 2.545 . S
Gd757 O807 2.606 . S
Gd757 O809 2.429 . S
Gd757 O810 2.545 . S
Gd757 O811 2.412 . S
Gd757 C824 2.828 . S
C758 C761 1.417 . S
C758 C763 1.431 . S
C758 C764 1.412 . S
C759 C762 1.437 . S
C759 C763 1.317 . S
C759 H778 0.929 . S
C760 C761 1.426 . S
C760 C762 1.413 . S
C760 N770 1.359 . S
C761 C758 1.417 . S
C761 C760 1.426 . S
C761 N766 1.350 . S
C762 C759 1.437 . S
C762 C760 1.413 . S
C762 C772 1.391 . S
C763 C758 1.431 . S
C763 C759 1.317 . S
C763 H774 0.930 . S
C764 C758 1.412 . S
C764 C765 1.355 . S
C764 H776 0.930 . S
C765 C764 1.355 . S
C765 C767 1.402 . S
C765 H777 0.930 . S
N766 Gd757 2.661 . S
N766 C761 1.350 . S
N766 C767 1.307 . S
C767 C765 1.402 . S
C767 N766 1.307 . S
C767 H768 0.930 . S
H768 C767 0.930 . S
C769 N770 1.334 . S
C769 C771 1.394 . S
C769 H773 0.930 . S
N770 Gd757 2.601 . S
N770 C760 1.359 . S
N770 C769 1.334 . S
C771 C769 1.394 . S
C771 C772 1.359 . S
C771 H783 0.930 . S
C772 C762 1.391 . S
C772 C771 1.359 . S
C772 H784 0.929 . S
H773 C769 0.930 . S
H774 C763 0.930 . S
H775 C792 0.930 . S
H776 C764 0.930 . S
H777 C765 0.930 . S
H778 C759 0.929 . S
H779 C797 0.930 . S
H780 C788 0.930 . S
H781 C789 0.930 . S
H782 C813 0.929 . S
H783 C771 0.930 . S
H784 C772 0.929 . S
H785 C814 0.930 . S
H786 C795 0.930 . S
N787 Gd756 2.661 . S
N787 C791 1.350 . S
N787 C792 1.307 . S
C788 H780 0.930 . S
C788 C789 1.355 . S
C788 C790 1.412 . S
C789 H781 0.930 . S
C789 C788 1.355 . S
C789 C792 1.402 . S
C790 C788 1.412 . S
C790 C791 1.417 . S
C790 C814 1.431 . S
C791 N787 1.350 . S
C791 C790 1.417 . S
C791 C794 1.426 . S
C792 H775 0.930 . S
C792 N787 1.307 . S
C792 C789 1.402 . S
N793 Gd756 2.601 . S
N793 C794 1.359 . S
N793 C797 1.334 . S
C794 C791 1.426 . S
C794 N793 1.359 . S
C794 C798 1.413 . S
C795 H786 0.930 . S
C795 C796 1.359 . S
C795 C797 1.394 . S
C796 C795 1.359 . S
C796 C798 1.391 . S
C796 H799 0.929 . S
C797 H779 0.930 . S
C797 N793 1.334 . S
C797 C795 1.394 . S
C798 C794 1.413 . S
C798 C796 1.391 . S
C798 C813 1.437 . S
H799 C796 0.929 . S
O800 Gd756 2.545 . S
O800 C815 1.258 . S
O801 Gd756 2.606 . S
O801 Gd757 2.362 . S
O801 C812 1.284 . S
O802 Gd757 2.324 . S
O802 C822 1.254 . S
O803 Gd756 2.429 . S
O803 C822 1.268 . S
O804 Gd756 2.545 . S
O804 C812 1.250 . S
O805 Gd756 2.412 . S
O805 C815 1.252 . S
O806 Gd757 2.545 . S
O806 C824 1.258 . S
O807 Gd756 2.362 . S
O807 Gd757 2.606 . S
O807 C823 1.284 . S
O808 Gd756 2.324 . S
O808 C831 1.254 . S
O809 Gd757 2.429 . S
O809 C831 1.268 . S
O810 Gd757 2.545 . S
O810 C823 1.250 . S
O811 Gd757 2.412 . S
O811 C824 1.252 . S
C812 O801 1.284 . S
C812 O804 1.250 . S
C813 H782 0.929 . S
C813 C798 1.437 . S
C813 C814 1.317 . S
C814 H785 0.930 . S
C814 C790 1.431 . S
C814 C813 1.317 . S
C815 Gd756 2.828 . S
C815 O800 1.258 . S
C815 O805 1.252 . S
C815 C816 1.497 . S
C816 C815 1.497 . S
C816 C817 1.395 . S
C816 C818 1.380 . S
C817 C816 1.395 . S
C817 C820 1.398 1_554 S
C817 H832 0.930 . S
C818 C816 1.380 . S
C818 C819 1.391 1_554 S
C818 H833 0.930 . S
C819 C818 1.391 1_556 S
C819 C821 1.387 . S
C820 C817 1.398 1_556 S
C820 C821 1.380 . S
C820 H834 0.930 . S
C821 C819 1.387 . S
C821 C820 1.380 . S
C821 H835 0.930 . S
C822 O802 1.254 . S
C822 O803 1.268 . S
C823 O807 1.284 . S
C823 O810 1.250 . S
C824 Gd757 2.828 . S
C824 O806 1.258 . S
C824 O811 1.252 . S
C824 C825 1.497 . S
C825 C824 1.497 . S
C825 C826 1.395 . S
C825 C827 1.380 . S
C826 C825 1.395 . S
C826 C829 1.398 . S
C826 H836 0.930 . S
C827 C825 1.380 . S
C827 C828 1.391 . S
C827 H837 0.930 . S
C828 C827 1.391 . S
C828 C830 1.387 . S
C829 C826 1.398 . S
C829 C830 1.380 . S
C829 H838 0.930 . S
C830 C828 1.387 . S
C830 C829 1.380 . S
C830 H839 0.930 . S
C831 O808 1.254 . S
C831 O809 1.268 . S
H832 C817 0.930 . S
H833 C818 0.930 . S
H834 C820 0.930 . S
H835 C821 0.930 . S
H836 C826 0.930 . S
H837 C827 0.930 . S
H838 C829 0.930 . S
H839 C830 0.930 . S
Gd840 N871 2.661 . S
Gd840 N877 2.601 . S
Gd840 O884 2.545 . S
Gd840 O885 2.606 . S
Gd840 O887 2.429 . S
Gd840 O888 2.545 . S
Gd840 O889 2.412 . S
Gd840 O891 2.362 . S
Gd840 O892 2.324 . S
Gd840 C899 2.828 . S
Gd841 N850 2.661 . S
Gd841 N854 2.601 . S
Gd841 O885 2.362 . S
Gd841 O886 2.324 . S
Gd841 O890 2.545 . S
Gd841 O891 2.606 . S
Gd841 O893 2.429 . S
Gd841 O894 2.545 . S
Gd841 O895 2.412 . S
Gd841 C908 2.828 . S
C842 C845 1.417 . S
C842 C847 1.431 . S
C842 C848 1.412 . S
C843 C846 1.437 . S
C843 C847 1.317 . S
C843 H862 0.929 . S
C844 C845 1.426 . S
C844 C846 1.413 . S
C844 N854 1.359 . S
C845 C842 1.417 . S
C845 C844 1.426 . S
C845 N850 1.350 . S
C846 C843 1.437 . S
C846 C844 1.413 . S
C846 C856 1.391 . S
C847 C842 1.431 . S
C847 C843 1.317 . S
C847 H858 0.930 . S
C848 C842 1.412 . S
C848 C849 1.355 . S
C848 H860 0.930 . S
C849 C848 1.355 . S
C849 C851 1.402 . S
C849 H861 0.930 . S
N850 Gd841 2.661 . S
N850 C845 1.350 . S
N850 C851 1.307 . S
C851 C849 1.402 . S
C851 N850 1.307 . S
C851 H852 0.930 . S
H852 C851 0.930 . S
C853 N854 1.334 . S
C853 C855 1.394 . S
C853 H857 0.930 . S
N854 Gd841 2.601 . S
N854 C844 1.359 . S
N854 C853 1.334 . S
C855 C853 1.394 . S
C855 C856 1.359 . S
C855 H867 0.930 . S
C856 C846 1.391 . S
C856 C855 1.359 . S
C856 H868 0.929 . S
H857 C853 0.930 . S
H858 C847 0.930 . S
H859 C876 0.930 . S
H860 C848 0.930 . S
H861 C849 0.930 . S
H862 C843 0.929 . S
H863 C881 0.930 . S
H864 C872 0.930 . S
H865 C873 0.930 . S
H866 C897 0.929 . S
H867 C855 0.930 . S
H868 C856 0.929 . S
H869 C898 0.930 . S
H870 C879 0.930 . S
N871 Gd840 2.661 . S
N871 C875 1.350 . S
N871 C876 1.307 . S
C872 H864 0.930 . S
C872 C873 1.355 . S
C872 C874 1.412 . S
C873 H865 0.930 . S
C873 C872 1.355 . S
C873 C876 1.402 . S
C874 C872 1.412 . S
C874 C875 1.417 . S
C874 C898 1.431 . S
C875 N871 1.350 . S
C875 C874 1.417 . S
C875 C878 1.426 . S
C876 H859 0.930 . S
C876 N871 1.307 . S
C876 C873 1.402 . S
N877 Gd840 2.601 . S
N877 C878 1.359 . S
N877 C881 1.334 . S
C878 C875 1.426 . S
C878 N877 1.359 . S
C878 C882 1.413 . S
C879 H870 0.930 . S
C879 C880 1.359 . S
C879 C881 1.394 . S
C880 C879 1.359 . S
C880 C882 1.391 . S
C880 H883 0.929 . S
C881 H863 0.930 . S
C881 N877 1.334 . S
C881 C879 1.394 . S
C882 C878 1.413 . S
C882 C880 1.391 . S
C882 C897 1.437 . S
H883 C880 0.929 . S
O884 Gd840 2.545 . S
O884 C899 1.258 . S
O885 Gd840 2.606 . S
O885 Gd841 2.362 . S
O885 C896 1.284 . S
O886 Gd841 2.324 . S
O886 C906 1.254 . S
O887 Gd840 2.429 . S
O887 C906 1.268 . S
O888 Gd840 2.545 . S
O888 C896 1.250 . S
O889 Gd840 2.412 . S
O889 C899 1.252 . S
O890 Gd841 2.545 . S
O890 C908 1.258 . S
O891 Gd840 2.362 . S
O891 Gd841 2.606 . S
O891 C907 1.284 . S
O892 Gd840 2.324 . S
O892 C915 1.254 . S
O893 Gd841 2.429 . S
O893 C915 1.268 . S
O894 Gd841 2.545 . S
O894 C907 1.250 . S
O895 Gd841 2.412 . S
O895 C908 1.252 . S
C896 O885 1.284 . S
C896 O888 1.250 . S
C897 H866 0.929 . S
C897 C882 1.437 . S
C897 C898 1.317 . S
C898 H869 0.930 . S
C898 C874 1.431 . S
C898 C897 1.317 . S
C899 Gd840 2.828 . S
C899 O884 1.258 . S
C899 O889 1.252 . S
C899 C900 1.497 . S
C900 C899 1.497 . S
C900 C901 1.395 . S
C900 C902 1.380 . S
C901 C900 1.395 . S
C901 C904 1.398 1_556 S
C901 H916 0.930 . S
C902 C900 1.380 . S
C902 C903 1.391 1_556 S
C902 H917 0.930 . S
C903 C902 1.391 1_554 S
C903 C905 1.387 . S
C904 C901 1.398 1_554 S
C904 C905 1.380 . S
C904 H918 0.930 . S
C905 C903 1.387 . S
C905 C904 1.380 . S
C905 H919 0.930 . S
C906 O886 1.254 . S
C906 O887 1.268 . S
C907 O891 1.284 . S
C907 O894 1.250 . S
C908 Gd841 2.828 . S
C908 O890 1.258 . S
C908 O895 1.252 . S
C908 C909 1.497 . S
C909 C908 1.497 . S
C909 C910 1.395 . S
C909 C911 1.380 . S
C910 C909 1.395 . S
C910 C913 1.398 . S
C910 H920 0.930 . S
C911 C909 1.380 . S
C911 C912 1.391 . S
C911 H921 0.930 . S
C912 C911 1.391 . S
C912 C914 1.387 . S
C913 C910 1.398 . S
C913 C914 1.380 . S
C913 H922 0.930 . S
C914 C912 1.387 . S
C914 C913 1.380 . S
C914 H923 0.930 . S
C915 O892 1.254 . S
C915 O893 1.268 . S
H916 C901 0.930 . S
H917 C902 0.930 . S
H918 C904 0.930 . S
H919 C905 0.930 . S
H920 C910 0.930 . S
H921 C911 0.930 . S
H922 C913 0.930 . S
H923 C914 0.930 . S
Gd924 N955 2.661 . S
Gd924 N961 2.601 . S
Gd924 O968 2.545 . S
Gd924 O969 2.606 . S
Gd924 O971 2.429 . S
Gd924 O972 2.545 . S
Gd924 O973 2.412 . S
Gd924 O975 2.362 . S
Gd924 O976 2.324 . S
Gd924 C983 2.828 . S
Gd925 N934 2.661 . S
Gd925 N938 2.601 . S
Gd925 O969 2.362 . S
Gd925 O970 2.324 . S
Gd925 O974 2.545 . S
Gd925 O975 2.606 . S
Gd925 O977 2.429 . S
Gd925 O978 2.545 . S
Gd925 O979 2.412 . S
Gd925 C992 2.828 . S
C926 C929 1.417 . S
C926 C931 1.431 . S
C926 C932 1.412 . S
C927 C930 1.437 . S
C927 C931 1.317 . S
C927 H946 0.929 . S
C928 C929 1.426 . S
C928 C930 1.413 . S
C928 N938 1.359 . S
C929 C926 1.417 . S
C929 C928 1.426 . S
C929 N934 1.350 . S
C930 C927 1.437 . S
C930 C928 1.413 . S
C930 C940 1.391 . S
C931 C926 1.431 . S
C931 C927 1.317 . S
C931 H942 0.930 . S
C932 C926 1.412 . S
C932 C933 1.355 . S
C932 H944 0.930 . S
C933 C932 1.355 . S
C933 C935 1.402 . S
C933 H945 0.930 . S
N934 Gd925 2.661 . S
N934 C929 1.350 . S
N934 C935 1.307 . S
C935 C933 1.402 . S
C935 N934 1.307 . S
C935 H936 0.930 . S
H936 C935 0.930 . S
C937 N938 1.334 . S
C937 C939 1.394 . S
C937 H941 0.930 . S
N938 Gd925 2.601 . S
N938 C928 1.359 . S
N938 C937 1.334 . S
C939 C937 1.394 . S
C939 C940 1.359 . S
C939 H951 0.930 . S
C940 C930 1.391 . S
C940 C939 1.359 . S
C940 H952 0.929 . S
H941 C937 0.930 . S
H942 C931 0.930 . S
H943 C960 0.930 . S
H944 C932 0.930 . S
H945 C933 0.930 . S
H946 C927 0.929 . S
H947 C965 0.930 . S
H948 C956 0.930 . S
H949 C957 0.930 . S
H950 C981 0.929 . S
H951 C939 0.930 . S
H952 C940 0.929 . S
H953 C982 0.930 . S
H954 C963 0.930 . S
N955 Gd924 2.661 . S
N955 C959 1.350 . S
N955 C960 1.307 . S
C956 H948 0.930 . S
C956 C957 1.355 . S
C956 C958 1.412 . S
C957 H949 0.930 . S
C957 C956 1.355 . S
C957 C960 1.402 . S
C958 C956 1.412 . S
C958 C959 1.417 . S
C958 C982 1.431 . S
C959 N955 1.350 . S
C959 C958 1.417 . S
C959 C962 1.426 . S
C960 H943 0.930 . S
C960 N955 1.307 . S
C960 C957 1.402 . S
N961 Gd924 2.601 . S
N961 C962 1.359 . S
N961 C965 1.334 . S
C962 C959 1.426 . S
C962 N961 1.359 . S
C962 C966 1.413 . S
C963 H954 0.930 . S
C963 C964 1.359 . S
C963 C965 1.394 1_455 S
C964 C963 1.359 . S
C964 C966 1.391 1_455 S
C964 H967 0.929 . S
C965 H947 0.930 . S
C965 N961 1.334 . S
C965 C963 1.394 1_655 S
C966 C962 1.413 . S
C966 C964 1.391 1_655 S
C966 C981 1.437 . S
H967 C964 0.929 . S
O968 Gd924 2.545 . S
O968 C983 1.258 . S
O969 Gd924 2.606 . S
O969 Gd925 2.362 . S
O969 C980 1.284 . S
O970 Gd925 2.324 . S
O970 C990 1.254 . S
O971 Gd924 2.429 . S
O971 C990 1.268 . S
O972 Gd924 2.545 . S
O972 C980 1.250 . S
O973 Gd924 2.412 . S
O973 C983 1.252 . S
O974 Gd925 2.545 . S
O974 C992 1.258 . S
O975 Gd924 2.362 . S
O975 Gd925 2.606 . S
O975 C991 1.284 . S
O976 Gd924 2.324 . S
O976 C999 1.254 . S
O977 Gd925 2.429 . S
O977 C999 1.268 . S
O978 Gd925 2.545 . S
O978 C991 1.250 . S
O979 Gd925 2.412 . S
O979 C992 1.252 . S
C980 O969 1.284 . S
C980 O972 1.250 . S
C981 H950 0.929 . S
C981 C966 1.437 . S
C981 C982 1.317 . S
C982 H953 0.930 . S
C982 C958 1.431 . S
C982 C981 1.317 . S
C983 Gd924 2.828 . S
C983 O968 1.258 . S
C983 O973 1.252 . S
C983 C984 1.497 . S
C984 C983 1.497 . S
C984 C985 1.395 . S
C984 C986 1.380 . S
C985 C984 1.395 . S
C985 C988 1.398 . S
C985 H1000 0.930 . S
C986 C984 1.380 . S
C986 C987 1.391 . S
C986 H1001 0.930 . S
C987 C986 1.391 . S
C987 C989 1.387 . S
C988 C985 1.398 . S
C988 C989 1.380 . S
C988 H1002 0.930 . S
C989 C987 1.387 . S
C989 C988 1.380 . S
C989 H1003 0.930 . S
C990 O970 1.254 . S
C990 O971 1.268 . S
C991 O975 1.284 . S
C991 O978 1.250 . S
C992 Gd925 2.828 . S
C992 O974 1.258 . S
C992 O979 1.252 . S
C992 C993 1.497 . S
C993 C992 1.497 . S
C993 C994 1.395 . S
C993 C995 1.380 . S
C994 C993 1.395 . S
C994 C997 1.398 . S
C994 H1004 0.930 . S
C995 C993 1.380 . S
C995 C996 1.391 . S
C995 H1005 0.930 . S
C996 C995 1.391 . S
C996 C998 1.387 . S
C997 C994 1.398 . S
C997 C998 1.380 . S
C997 H1006 0.930 . S
C998 C996 1.387 . S
C998 C997 1.380 . S
C998 H1007 0.930 . S
C999 O976 1.254 . S
C999 O977 1.268 . S
H1000 C985 0.930 . S
H1001 C986 0.930 . S
H1002 C988 0.930 . S
H1003 C989 0.930 . S
H1004 C994 0.930 . S
H1005 C995 0.930 . S
H1006 C997 0.930 . S
H1007 C998 0.930 . S
Gd1008 N1039 2.661 . S
Gd1008 N1045 2.601 . S
Gd1008 O1052 2.545 . S
Gd1008 O1053 2.606 . S
Gd1008 O1055 2.429 . S
Gd1008 O1056 2.545 . S
Gd1008 O1057 2.412 . S
Gd1008 O1059 2.362 . S
Gd1008 O1060 2.324 . S
Gd1008 C1067 2.828 . S
Gd1009 N1018 2.661 . S
Gd1009 N1022 2.601 . S
Gd1009 O1053 2.362 . S
Gd1009 O1054 2.324 . S
Gd1009 O1058 2.545 . S
Gd1009 O1059 2.606 . S
Gd1009 O1061 2.429 . S
Gd1009 O1062 2.545 . S
Gd1009 O1063 2.412 . S
Gd1009 C1076 2.828 . S
C1010 C1013 1.417 . S
C1010 C1015 1.431 . S
C1010 C1016 1.412 . S
C1011 C1014 1.437 . S
C1011 C1015 1.317 . S
C1011 H1030 0.929 . S
C1012 C1013 1.426 . S
C1012 C1014 1.413 . S
C1012 N1022 1.359 . S
C1013 C1010 1.417 . S
C1013 C1012 1.426 . S
C1013 N1018 1.350 . S
C1014 C1011 1.437 . S
C1014 C1012 1.413 . S
C1014 C1024 1.391 . S
C1015 C1010 1.431 . S
C1015 C1011 1.317 . S
C1015 H1026 0.930 . S
C1016 C1010 1.412 . S
C1016 C1017 1.355 . S
C1016 H1028 0.930 . S
C1017 C1016 1.355 . S
C1017 C1019 1.402 . S
C1017 H1029 0.930 . S
N1018 Gd1009 2.661 . S
N1018 C1013 1.350 . S
N1018 C1019 1.307 . S
C1019 C1017 1.402 . S
C1019 N1018 1.307 . S
C1019 H1020 0.930 . S
H1020 C1019 0.930 . S
C1021 N1022 1.334 . S
C1021 C1023 1.394 . S
C1021 H1025 0.930 . S
N1022 Gd1009 2.601 . S
N1022 C1012 1.359 . S
N1022 C1021 1.334 . S
C1023 C1021 1.394 . S
C1023 C1024 1.359 . S
C1023 H1035 0.930 . S
C1024 C1014 1.391 . S
C1024 C1023 1.359 . S
C1024 H1036 0.929 . S
H1025 C1021 0.930 . S
H1026 C1015 0.930 . S
H1027 C1044 0.930 . S
H1028 C1016 0.930 . S
H1029 C1017 0.930 . S
H1030 C1011 0.929 . S
H1031 C1049 0.930 . S
H1032 C1040 0.930 . S
H1033 C1041 0.930 . S
H1034 C1065 0.929 . S
H1035 C1023 0.930 . S
H1036 C1024 0.929 . S
H1037 C1066 0.930 . S
H1038 C1047 0.930 . S
N1039 Gd1008 2.661 . S
N1039 C1043 1.350 . S
N1039 C1044 1.307 . S
C1040 H1032 0.930 . S
C1040 C1041 1.355 . S
C1040 C1042 1.412 . S
C1041 H1033 0.930 . S
C1041 C1040 1.355 . S
C1041 C1044 1.402 . S
C1042 C1040 1.412 . S
C1042 C1043 1.417 . S
C1042 C1066 1.431 . S
C1043 N1039 1.350 . S
C1043 C1042 1.417 . S
C1043 C1046 1.426 . S
C1044 H1027 0.930 . S
C1044 N1039 1.307 . S
C1044 C1041 1.402 . S
N1045 Gd1008 2.601 . S
N1045 C1046 1.359 . S
N1045 C1049 1.334 . S
C1046 C1043 1.426 . S
C1046 N1045 1.359 . S
C1046 C1050 1.413 . S
C1047 H1038 0.930 . S
C1047 C1048 1.359 . S
C1047 C1049 1.394 . S
C1048 C1047 1.359 . S
C1048 C1050 1.391 . S
C1048 H1051 0.929 . S
C1049 H1031 0.930 . S
C1049 N1045 1.334 . S
C1049 C1047 1.394 . S
C1050 C1046 1.413 . S
C1050 C1048 1.391 . S
C1050 C1065 1.437 . S
H1051 C1048 0.929 . S
O1052 Gd1008 2.545 . S
O1052 C1067 1.258 . S
O1053 Gd1008 2.606 . S
O1053 Gd1009 2.362 . S
O1053 C1064 1.284 . S
O1054 Gd1009 2.324 . S
O1054 C1074 1.254 . S
O1055 Gd1008 2.429 . S
O1055 C1074 1.268 . S
O1056 Gd1008 2.545 . S
O1056 C1064 1.250 . S
O1057 Gd1008 2.412 . S
O1057 C1067 1.252 . S
O1058 Gd1009 2.545 . S
O1058 C1076 1.258 . S
O1059 Gd1008 2.362 . S
O1059 Gd1009 2.606 . S
O1059 C1075 1.284 . S
O1060 Gd1008 2.324 . S
O1060 C1083 1.254 . S
O1061 Gd1009 2.429 . S
O1061 C1083 1.268 . S
O1062 Gd1009 2.545 . S
O1062 C1075 1.250 . S
O1063 Gd1009 2.412 . S
O1063 C1076 1.252 . S
C1064 O1053 1.284 . S
C1064 O1056 1.250 . S
C1065 H1034 0.929 . S
C1065 C1050 1.437 . S
C1065 C1066 1.317 . S
C1066 H1037 0.930 . S
C1066 C1042 1.431 . S
C1066 C1065 1.317 . S
C1067 Gd1008 2.828 . S
C1067 O1052 1.258 . S
C1067 O1057 1.252 . S
C1067 C1068 1.497 . S
C1068 C1067 1.497 . S
C1068 C1069 1.395 . S
C1068 C1070 1.380 . S
C1069 C1068 1.395 . S
C1069 C1072 1.398 . S
C1069 H1084 0.930 . S
C1070 C1068 1.380 . S
C1070 C1071 1.391 . S
C1070 H1085 0.930 . S
C1071 C1070 1.391 . S
C1071 C1073 1.387 . S
C1072 C1069 1.398 . S
C1072 C1073 1.380 . S
C1072 H1086 0.930 . S
C1073 C1071 1.387 . S
C1073 C1072 1.380 . S
C1073 H1087 0.930 . S
C1074 O1054 1.254 . S
C1074 O1055 1.268 . S
C1075 O1059 1.284 . S
C1075 O1062 1.250 . S
C1076 Gd1009 2.828 . S
C1076 O1058 1.258 . S
C1076 O1063 1.252 . S
C1076 C1077 1.497 . S
C1077 C1076 1.497 . S
C1077 C1078 1.395 . S
C1077 C1079 1.380 . S
C1078 C1077 1.395 . S
C1078 C1081 1.398 . S
C1078 H1088 0.930 . S
C1079 C1077 1.380 . S
C1079 C1080 1.391 . S
C1079 H1089 0.930 . S
C1080 C1079 1.391 . S
C1080 C1082 1.387 . S
C1081 C1078 1.398 . S
C1081 C1082 1.380 . S
C1081 H1090 0.930 . S
C1082 C1080 1.387 . S
C1082 C1081 1.380 . S
C1082 H1091 0.930 . S
C1083 O1060 1.254 . S
C1083 O1061 1.268 . S
H1084 C1069 0.930 . S
H1085 C1070 0.930 . S
H1086 C1072 0.930 . S
H1087 C1073 0.930 . S
H1088 C1078 0.930 . S
H1089 C1079 0.930 . S
H1090 C1081 0.930 . S
H1091 C1082 0.930 . S
Gd1092 N1123 2.661 . S
Gd1092 N1129 2.601 . S
Gd1092 O1136 2.545 . S
Gd1092 O1137 2.606 . S
Gd1092 O1139 2.429 . S
Gd1092 O1140 2.545 . S
Gd1092 O1141 2.412 . S
Gd1092 O1143 2.362 . S
Gd1092 O1144 2.324 . S
Gd1092 C1151 2.828 . S
Gd1093 N1102 2.661 . S
Gd1093 N1106 2.601 . S
Gd1093 O1137 2.362 . S
Gd1093 O1138 2.324 . S
Gd1093 O1142 2.545 . S
Gd1093 O1143 2.606 . S
Gd1093 O1145 2.429 . S
Gd1093 O1146 2.545 . S
Gd1093 O1147 2.412 . S
Gd1093 C1160 2.828 . S
C1094 C1097 1.417 . S
C1094 C1099 1.431 . S
C1094 C1100 1.412 . S
C1095 C1098 1.437 . S
C1095 C1099 1.317 . S
C1095 H1114 0.929 . S
C1096 C1097 1.426 . S
C1096 C1098 1.413 . S
C1096 N1106 1.359 1_655 S
C1097 C1094 1.417 . S
C1097 C1096 1.426 . S
C1097 N1102 1.350 1_655 S
C1098 C1095 1.437 . S
C1098 C1096 1.413 . S
C1098 C1108 1.391 . S
C1099 C1094 1.431 . S
C1099 C1095 1.317 . S
C1099 H1110 0.930 . S
C1100 C1094 1.412 . S
C1100 C1101 1.355 1_655 S
C1100 H1112 0.930 . S
C1101 C1100 1.355 1_455 S
C1101 C1103 1.402 . S
C1101 H1113 0.930 . S
N1102 Gd1093 2.661 . S
N1102 C1097 1.350 1_455 S
N1102 C1103 1.307 . S
C1103 C1101 1.402 . S
C1103 N1102 1.307 . S
C1103 H1104 0.930 . S
H1104 C1103 0.930 . S
C1105 N1106 1.334 . S
C1105 C1107 1.394 1_455 S
C1105 H1109 0.930 . S
N1106 Gd1093 2.601 . S
N1106 C1096 1.359 1_455 S
N1106 C1105 1.334 . S
C1107 C1105 1.394 1_655 S
C1107 C1108 1.359 . S
C1107 H1119 0.930 . S
C1108 C1098 1.391 . S
C1108 C1107 1.359 . S
C1108 H1120 0.929 . S
H1109 C1105 0.930 . S
H1110 C1099 0.930 . S
H1111 C1128 0.930 . S
H1112 C1100 0.930 . S
H1113 C1101 0.930 . S
H1114 C1095 0.929 . S
H1115 C1133 0.930 . S
H1116 C1124 0.930 . S
H1117 C1125 0.930 . S
H1118 C1149 0.929 . S
H1119 C1107 0.930 . S
H1120 C1108 0.929 . S
H1121 C1150 0.930 . S
H1122 C1131 0.930 . S
N1123 Gd1092 2.661 . S
N1123 C1127 1.350 . S
N1123 C1128 1.307 . S
C1124 H1116 0.930 . S
C1124 C1125 1.355 . S
C1124 C1126 1.412 . S
C1125 H1117 0.930 . S
C1125 C1124 1.355 . S
C1125 C1128 1.402 . S
C1126 C1124 1.412 . S
C1126 C1127 1.417 . S
C1126 C1150 1.431 . S
C1127 N1123 1.350 . S
C1127 C1126 1.417 . S
C1127 C1130 1.426 . S
C1128 H1111 0.930 . S
C1128 N1123 1.307 . S
C1128 C1125 1.402 . S
N1129 Gd1092 2.601 . S
N1129 C1130 1.359 . S
N1129 C1133 1.334 . S
C1130 C1127 1.426 . S
C1130 N1129 1.359 . S
C1130 C1134 1.413 . S
C1131 H1122 0.930 . S
C1131 C1132 1.359 . S
C1131 C1133 1.394 . S
C1132 C1131 1.359 . S
C1132 C1134 1.391 . S
C1132 H1135 0.929 . S
C1133 H1115 0.930 . S
C1133 N1129 1.334 . S
C1133 C1131 1.394 . S
C1134 C1130 1.413 . S
C1134 C1132 1.391 . S
C1134 C1149 1.437 . S
H1135 C1132 0.929 . S
O1136 Gd1092 2.545 . S
O1136 C1151 1.258 . S
O1137 Gd1092 2.606 . S
O1137 Gd1093 2.362 . S
O1137 C1148 1.284 . S
O1138 Gd1093 2.324 . S
O1138 C1158 1.254 . S
O1139 Gd1092 2.429 . S
O1139 C1158 1.268 . S
O1140 Gd1092 2.545 . S
O1140 C1148 1.250 . S
O1141 Gd1092 2.412 . S
O1141 C1151 1.252 . S
O1142 Gd1093 2.545 . S
O1142 C1160 1.258 . S
O1143 Gd1092 2.362 . S
O1143 Gd1093 2.606 . S
O1143 C1159 1.284 . S
O1144 Gd1092 2.324 . S
O1144 C1167 1.254 . S
O1145 Gd1093 2.429 . S
O1145 C1167 1.268 . S
O1146 Gd1093 2.545 . S
O1146 C1159 1.250 . S
O1147 Gd1093 2.412 . S
O1147 C1160 1.252 . S
C1148 O1137 1.284 . S
C1148 O1140 1.250 . S
C1149 H1118 0.929 . S
C1149 C1134 1.437 . S
C1149 C1150 1.317 . S
C1150 H1121 0.930 . S
C1150 C1126 1.431 . S
C1150 C1149 1.317 . S
C1151 Gd1092 2.828 . S
C1151 O1136 1.258 . S
C1151 O1141 1.252 . S
C1151 C1152 1.497 . S
C1152 C1151 1.497 . S
C1152 C1153 1.395 . S
C1152 C1154 1.380 . S
C1153 C1152 1.395 . S
C1153 C1156 1.398 . S
C1153 H1168 0.930 . S
C1154 C1152 1.380 . S
C1154 C1155 1.391 . S
C1154 H1169 0.930 . S
C1155 C1154 1.391 . S
C1155 C1157 1.387 . S
C1156 C1153 1.398 . S
C1156 C1157 1.380 . S
C1156 H1170 0.930 . S
C1157 C1155 1.387 . S
C1157 C1156 1.380 . S
C1157 H1171 0.930 . S
C1158 O1138 1.254 . S
C1158 O1139 1.268 . S
C1159 O1143 1.284 . S
C1159 O1146 1.250 . S
C1160 Gd1093 2.828 . S
C1160 O1142 1.258 . S
C1160 O1147 1.252 . S
C1160 C1161 1.497 1_554 S
C1161 C1160 1.497 1_556 S
C1161 C1162 1.395 1_455 S
C1161 C1163 1.380 . S
C1162 C1161 1.395 1_655 S
C1162 C1165 1.398 . S
C1162 H1172 0.930 . S
C1163 C1161 1.380 . S
C1163 C1164 1.391 . S
C1163 H1173 0.930 . S
C1164 C1163 1.391 . S
C1164 C1166 1.387 1_455 S
C1165 C1162 1.398 . S
C1165 C1166 1.380 . S
C1165 H1174 0.930 . S
C1166 C1164 1.387 1_655 S
C1166 C1165 1.380 . S
C1166 H1175 0.930 . S
C1167 O1144 1.254 . S
C1167 O1145 1.268 . S
H1168 C1153 0.930 . S
H1169 C1154 0.930 . S
H1170 C1156 0.930 . S
H1171 C1157 0.930 . S
H1172 C1162 0.930 . S
H1173 C1163 0.930 . S
H1174 C1165 0.930 . S
H1175 C1166 0.930 . S
Gd1176 N1207 2.661 . S
Gd1176 N1213 2.601 . S
Gd1176 O1220 2.545 . S
Gd1176 O1221 2.606 . S
Gd1176 O1223 2.429 . S
Gd1176 O1224 2.545 . S
Gd1176 O1225 2.412 . S
Gd1176 O1227 2.362 . S
Gd1176 O1228 2.324 . S
Gd1176 C1235 2.828 . S
Gd1177 N1186 2.661 . S
Gd1177 N1190 2.601 . S
Gd1177 O1221 2.362 . S
Gd1177 O1222 2.324 . S
Gd1177 O1226 2.545 . S
Gd1177 O1227 2.606 . S
Gd1177 O1229 2.429 . S
Gd1177 O1230 2.545 . S
Gd1177 O1231 2.412 . S
Gd1177 C1244 2.828 . S
C1178 C1181 1.417 . S
C1178 C1183 1.431 . S
C1178 C1184 1.412 . S
C1179 C1182 1.437 . S
C1179 C1183 1.317 . S
C1179 H1198 0.929 . S
C1180 C1181 1.426 . S
C1180 C1182 1.413 . S
C1180 N1190 1.359 . S
C1181 C1178 1.417 . S
C1181 C1180 1.426 . S
C1181 N1186 1.350 . S
C1182 C1179 1.437 . S
C1182 C1180 1.413 . S
C1182 C1192 1.391 . S
C1183 C1178 1.431 . S
C1183 C1179 1.317 . S
C1183 H1194 0.930 . S
C1184 C1178 1.412 . S
C1184 C1185 1.355 . S
C1184 H1196 0.930 . S
C1185 C1184 1.355 . S
C1185 C1187 1.402 . S
C1185 H1197 0.930 . S
N1186 Gd1177 2.661 . S
N1186 C1181 1.350 . S
N1186 C1187 1.307 . S
C1187 C1185 1.402 . S
C1187 N1186 1.307 . S
C1187 H1188 0.930 . S
H1188 C1187 0.930 . S
C1189 N1190 1.334 . S
C1189 C1191 1.394 . S
C1189 H1193 0.930 . S
N1190 Gd1177 2.601 . S
N1190 C1180 1.359 . S
N1190 C1189 1.334 . S
C1191 C1189 1.394 . S
C1191 C1192 1.359 . S
C1191 H1203 0.930 . S
C1192 C1182 1.391 . S
C1192 C1191 1.359 . S
C1192 H1204 0.929 . S
H1193 C1189 0.930 . S
H1194 C1183 0.930 . S
H1195 C1212 0.930 . S
H1196 C1184 0.930 . S
H1197 C1185 0.930 . S
H1198 C1179 0.929 . S
H1199 C1217 0.930 . S
H1200 C1208 0.930 . S
H1201 C1209 0.930 . S
H1202 C1233 0.929 . S
H1203 C1191 0.930 . S
H1204 C1192 0.929 . S
H1205 C1234 0.930 . S
H1206 C1215 0.930 . S
N1207 Gd1176 2.661 . S
N1207 C1211 1.350 . S
N1207 C1212 1.307 . S
C1208 H1200 0.930 . S
C1208 C1209 1.355 . S
C1208 C1210 1.412 . S
C1209 H1201 0.930 . S
C1209 C1208 1.355 . S
C1209 C1212 1.402 . S
C1210 C1208 1.412 . S
C1210 C1211 1.417 . S
C1210 C1234 1.431 . S
C1211 N1207 1.350 . S
C1211 C1210 1.417 . S
C1211 C1214 1.426 . S
C1212 H1195 0.930 . S
C1212 N1207 1.307 . S
C1212 C1209 1.402 . S
N1213 Gd1176 2.601 . S
N1213 C1214 1.359 . S
N1213 C1217 1.334 . S
C1214 C1211 1.426 . S
C1214 N1213 1.359 . S
C1214 C1218 1.413 . S
C1215 H1206 0.930 . S
C1215 C1216 1.359 . S
C1215 C1217 1.394 . S
C1216 C1215 1.359 . S
C1216 C1218 1.391 . S
C1216 H1219 0.929 . S
C1217 H1199 0.930 . S
C1217 N1213 1.334 . S
C1217 C1215 1.394 . S
C1218 C1214 1.413 . S
C1218 C1216 1.391 . S
C1218 C1233 1.437 . S
H1219 C1216 0.929 . S
O1220 Gd1176 2.545 . S
O1220 C1235 1.258 . S
O1221 Gd1176 2.606 . S
O1221 Gd1177 2.362 . S
O1221 C1232 1.284 . S
O1222 Gd1177 2.324 . S
O1222 C1242 1.254 . S
O1223 Gd1176 2.429 . S
O1223 C1242 1.268 . S
O1224 Gd1176 2.545 . S
O1224 C1232 1.250 . S
O1225 Gd1176 2.412 . S
O1225 C1235 1.252 . S
O1226 Gd1177 2.545 . S
O1226 C1244 1.258 . S
O1227 Gd1176 2.362 . S
O1227 Gd1177 2.606 . S
O1227 C1243 1.284 . S
O1228 Gd1176 2.324 . S
O1228 C1251 1.254 . S
O1229 Gd1177 2.429 . S
O1229 C1251 1.268 . S
O1230 Gd1177 2.545 . S
O1230 C1243 1.250 . S
O1231 Gd1177 2.412 . S
O1231 C1244 1.252 . S
C1232 O1221 1.284 . S
C1232 O1224 1.250 . S
C1233 H1202 0.929 . S
C1233 C1218 1.437 . S
C1233 C1234 1.317 . S
C1234 H1205 0.930 . S
C1234 C1210 1.431 . S
C1234 C1233 1.317 . S
C1235 Gd1176 2.828 . S
C1235 O1220 1.258 . S
C1235 O1225 1.252 . S
C1235 C1236 1.497 . S
C1236 C1235 1.497 . S
C1236 C1237 1.395 . S
C1236 C1238 1.380 . S
C1237 C1236 1.395 . S
C1237 C1240 1.398 . S
C1237 H1252 0.930 . S
C1238 C1236 1.380 . S
C1238 C1239 1.391 . S
C1238 H1253 0.930 . S
C1239 C1238 1.391 . S
C1239 C1241 1.387 . S
C1240 C1237 1.398 . S
C1240 C1241 1.380 . S
C1240 H1254 0.930 . S
C1241 C1239 1.387 . S
C1241 C1240 1.380 . S
C1241 H1255 0.930 . S
C1242 O1222 1.254 . S
C1242 O1223 1.268 . S
C1243 O1227 1.284 . S
C1243 O1230 1.250 . S
C1244 Gd1177 2.828 . S
C1244 O1226 1.258 . S
C1244 O1231 1.252 . S
C1244 C1245 1.497 . S
C1245 C1244 1.497 . S
C1245 C1246 1.395 . S
C1245 C1247 1.380 . S
C1246 C1245 1.395 . S
C1246 C1249 1.398 . S
C1246 H1256 0.930 . S
C1247 C1245 1.380 . S
C1247 C1248 1.391 . S
C1247 H1257 0.930 . S
C1248 C1247 1.391 . S
C1248 C1250 1.387 . S
C1249 C1246 1.398 . S
C1249 C1250 1.380 . S
C1249 H1258 0.930 . S
C1250 C1248 1.387 . S
C1250 C1249 1.380 . S
C1250 H1259 0.930 . S
C1251 O1228 1.254 . S
C1251 O1229 1.268 . S
H1252 C1237 0.930 . S
H1253 C1238 0.930 . S
H1254 C1240 0.930 . S
H1255 C1241 0.930 . S
H1256 C1246 0.930 . S
H1257 C1247 0.930 . S
H1258 C1249 0.930 . S
H1259 C1250 0.930 . S
Gd1260 N1291 2.661 . S
Gd1260 N1297 2.601 . S
Gd1260 O1304 2.545 . S
Gd1260 O1305 2.606 1_455 S
Gd1260 O1307 2.429 . S
Gd1260 O1308 2.545 . S
Gd1260 O1309 2.412 . S
Gd1260 O1311 2.362 . S
Gd1260 O1312 2.324 . S
Gd1260 C1319 2.828 . S
Gd1261 N1270 2.661 . S
Gd1261 N1274 2.601 . S
Gd1261 O1305 2.362 . S
Gd1261 O1306 2.324 . S
Gd1261 O1310 2.545 . S
Gd1261 O1311 2.606 1_655 S
Gd1261 O1313 2.429 . S
Gd1261 O1314 2.545 . S
Gd1261 O1315 2.412 . S
Gd1261 C1328 2.828 . S
C1262 C1265 1.417 . S
C1262 C1267 1.431 . S
C1262 C1268 1.412 . S
C1263 C1266 1.437 . S
C1263 C1267 1.317 . S
C1263 H1282 0.929 . S
C1264 C1265 1.426 . S
C1264 C1266 1.413 . S
C1264 N1274 1.359 . S
C1265 C1262 1.417 . S
C1265 C1264 1.426 . S
C1265 N1270 1.350 . S
C1266 C1263 1.437 . S
C1266 C1264 1.413 . S
C1266 C1276 1.391 . S
C1267 C1262 1.431 . S
C1267 C1263 1.317 . S
C1267 H1278 0.930 . S
C1268 C1262 1.412 . S
C1268 C1269 1.355 . S
C1268 H1280 0.930 . S
C1269 C1268 1.355 . S
C1269 C1271 1.402 . S
C1269 H1281 0.930 . S
N1270 Gd1261 2.661 . S
N1270 C1265 1.350 . S
N1270 C1271 1.307 . S
C1271 C1269 1.402 . S
C1271 N1270 1.307 . S
C1271 H1272 0.930 . S
H1272 C1271 0.930 . S
C1273 N1274 1.334 . S
C1273 C1275 1.394 . S
C1273 H1277 0.930 . S
N1274 Gd1261 2.601 . S
N1274 C1264 1.359 . S
N1274 C1273 1.334 . S
C1275 C1273 1.394 . S
C1275 C1276 1.359 . S
C1275 H1287 0.930 . S
C1276 C1266 1.391 . S
C1276 C1275 1.359 . S
C1276 H1288 0.929 . S
H1277 C1273 0.930 . S
H1278 C1267 0.930 . S
H1279 C1296 0.930 . S
H1280 C1268 0.930 . S
H1281 C1269 0.930 . S
H1282 C1263 0.929 . S
H1283 C1301 0.930 . S
H1284 C1292 0.930 . S
H1285 C1293 0.930 . S
H1286 C1317 0.929 . S
H1287 C1275 0.930 . S
H1288 C1276 0.929 . S
H1289 C1318 0.930 . S
H1290 C1299 0.930 . S
N1291 Gd1260 2.661 . S
N1291 C1295 1.350 . S
N1291 C1296 1.307 . S
C1292 H1284 0.930 . S
C1292 C1293 1.355 . S
C1292 C1294 1.412 . S
C1293 H1285 0.930 . S
C1293 C1292 1.355 . S
C1293 C1296 1.402 . S
C1294 C1292 1.412 . S
C1294 C1295 1.417 . S
C1294 C1318 1.431 . S
C1295 N1291 1.350 . S
C1295 C1294 1.417 . S
C1295 C1298 1.426 . S
C1296 H1279 0.930 . S
C1296 N1291 1.307 . S
C1296 C1293 1.402 . S
N1297 Gd1260 2.601 . S
N1297 C1298 1.359 . S
N1297 C1301 1.334 . S
C1298 C1295 1.426 . S
C1298 N1297 1.359 . S
C1298 C1302 1.413 . S
C1299 H1290 0.930 . S
C1299 C1300 1.359 . S
C1299 C1301 1.394 . S
C1300 C1299 1.359 . S
C1300 C1302 1.391 . S
C1300 H1303 0.929 . S
C1301 H1283 0.930 . S
C1301 N1297 1.334 . S
C1301 C1299 1.394 . S
C1302 C1298 1.413 . S
C1302 C1300 1.391 . S
C1302 C1317 1.437 . S
H1303 C1300 0.929 . S
O1304 Gd1260 2.545 . S
O1304 C1319 1.258 . S
O1305 Gd1260 2.606 1_655 S
O1305 Gd1261 2.362 . S
O1305 C1316 1.284 . S
O1306 Gd1261 2.324 . S
O1306 C1326 1.254 1_655 S
O1307 Gd1260 2.429 . S
O1307 C1326 1.268 . S
O1308 Gd1260 2.545 . S
O1308 C1316 1.250 1_455 S
O1309 Gd1260 2.412 . S
O1309 C1319 1.252 . S
O1310 Gd1261 2.545 . S
O1310 C1328 1.258 . S
O1311 Gd1260 2.362 . S
O1311 Gd1261 2.606 1_455 S
O1311 C1327 1.284 . S
O1312 Gd1260 2.324 . S
O1312 C1335 1.254 1_455 S
O1313 Gd1261 2.429 . S
O1313 C1335 1.268 . S
O1314 Gd1261 2.545 . S
O1314 C1327 1.250 1_655 S
O1315 Gd1261 2.412 . S
O1315 C1328 1.252 . S
C1316 O1305 1.284 . S
C1316 O1308 1.250 1_655 S
C1317 H1286 0.929 . S
C1317 C1302 1.437 . S
C1317 C1318 1.317 . S
C1318 H1289 0.930 . S
C1318 C1294 1.431 . S
C1318 C1317 1.317 . S
C1319 Gd1260 2.828 . S
C1319 O1304 1.258 . S
C1319 O1309 1.252 . S
C1319 C1320 1.497 1_556 S
C1320 C1319 1.497 1_554 S
C1320 C1321 1.395 . S
C1320 C1322 1.380 . S
C1321 C1320 1.395 . S
C1321 C1324 1.398 . S
C1321 H1336 0.930 . S
C1322 C1320 1.380 . S
C1322 C1323 1.391 . S
C1322 H1337 0.930 . S
C1323 C1322 1.391 . S
C1323 C1325 1.387 . S
C1324 C1321 1.398 . S
C1324 C1325 1.380 . S
C1324 H1338 0.930 . S
C1325 C1323 1.387 . S
C1325 C1324 1.380 . S
C1325 H1339 0.930 . S
C1326 O1306 1.254 1_455 S
C1326 O1307 1.268 . S
C1327 O1311 1.284 . S
C1327 O1314 1.250 1_455 S
C1328 Gd1261 2.828 . S
C1328 O1310 1.258 . S
C1328 O1315 1.252 . S
C1328 C1329 1.497 . S
C1329 C1328 1.497 . S
C1329 C1330 1.395 . S
C1329 C1331 1.380 . S
C1330 C1329 1.395 . S
C1330 C1333 1.398 . S
C1330 H1340 0.930 . S
C1331 C1329 1.380 . S
C1331 C1332 1.391 . S
C1331 H1341 0.930 . S
C1332 C1331 1.391 . S
C1332 C1334 1.387 . S
C1333 C1330 1.398 . S
C1333 C1334 1.380 . S
C1333 H1342 0.930 . S
C1334 C1332 1.387 . S
C1334 C1333 1.380 . S
C1334 H1343 0.930 . S
C1335 O1312 1.254 1_655 S
C1335 O1313 1.268 . S
H1336 C1321 0.930 . S
H1337 C1322 0.930 . S
H1338 C1324 0.930 . S
H1339 C1325 0.930 . S
H1340 C1330 0.930 . S
H1341 C1331 0.930 . S
H1342 C1333 0.930 . S
H1343 C1334 0.930 . S
C1344 C1345 1.349 . S
C1344 C1346 1.327 . S
C1344 H1369 0.950 1_556 S
C1345 C1344 1.349 . S
C1345 C1361 1.349 . S
C1346 C1344 1.327 . S
C1346 C1365 1.429 . S
C1346 H1370 0.950 . S
C1347 C1364 1.574 . S
C1347 C1366 1.368 . S
C1347 H1371 0.949 . S
H1348 C1352 0.949 . S
C1349 C1350 1.349 . S
C1349 C1351 1.327 . S
C1349 H1372 0.950 . S
C1350 C1349 1.349 . S
C1350 C1362 1.349 . S
C1351 C1349 1.327 . S
C1351 C1367 1.429 . S
C1351 H1373 0.950 . S
C1352 H1348 0.949 . S
C1352 C1360 1.574 . S
C1352 C1368 1.368 . S
H1353 C1361 0.950 . S
H1354 C1359 0.950 . S
H1355 C1360 0.949 . S
H1356 C1362 0.950 . S
H1357 C1363 0.950 . S
H1358 C1364 0.949 . S
C1359 H1354 0.950 . S
C1359 C1361 1.327 . S
C1359 C1365 1.429 . S
C1360 C1352 1.574 . S
C1360 H1355 0.949 . S
C1360 C1366 1.368 . S
C1361 C1345 1.349 . S
C1361 H1353 0.950 . S
C1361 C1359 1.327 . S
C1362 C1350 1.349 . S
C1362 H1356 0.950 . S
C1362 C1363 1.327 . S
C1363 H1357 0.950 . S
C1363 C1362 1.327 . S
C1363 C1367 1.429 . S
C1364 C1347 1.574 . S
C1364 H1358 0.949 . S
C1364 C1368 1.368 . S
C1365 C1346 1.429 . S
C1365 C1359 1.429 . S
C1365 C1366 1.523 . S
C1366 C1347 1.368 . S
C1366 C1360 1.368 . S
C1366 C1365 1.523 . S
C1367 C1351 1.429 . S
C1367 C1363 1.429 . S
C1367 C1368 1.523 . S
C1368 C1352 1.368 . S
C1368 C1364 1.368 . S
C1368 C1367 1.523 . S
H1369 C1344 0.950 1_554 S
H1370 C1346 0.950 . S
H1371 C1347 0.949 . S
H1372 C1349 0.950 . S
H1373 C1351 0.950 . S
C1374 C1375 1.349 . S
C1374 C1376 1.327 . S
C1374 H1399 0.950 . S
C1375 C1374 1.349 . S
C1375 C1391 1.349 . S
C1376 C1374 1.327 . S
C1376 C1395 1.429 . S
C1376 H1400 0.950 . S
C1377 C1394 1.574 . S
C1377 C1396 1.368 . S
C1377 H1401 0.949 . S
H1378 C1382 0.949 . S
C1379 C1380 1.349 . S
C1379 C1381 1.327 1_556 S
C1379 H1402 0.950 . S
C1380 C1379 1.349 . S
C1380 C1392 1.349 . S
C1381 C1379 1.327 1_554 S
C1381 C1397 1.429 . S
C1381 H1403 0.950 . S
C1382 H1378 0.949 . S
C1382 C1390 1.574 . S
C1382 C1398 1.368 . S
H1383 C1391 0.950 . S
H1384 C1389 0.950 . S
H1385 C1390 0.949 . S
H1386 C1392 0.950 . S
H1387 C1393 0.950 . S
H1388 C1394 0.949 . S
C1389 H1384 0.950 . S
C1389 C1391 1.327 . S
C1389 C1395 1.429 . S
C1390 C1382 1.574 . S
C1390 H1385 0.949 . S
C1390 C1396 1.368 . S
C1391 C1375 1.349 . S
C1391 H1383 0.950 . S
C1391 C1389 1.327 . S
C1392 C1380 1.349 . S
C1392 H1386 0.950 . S
C1392 C1393 1.327 . S
C1393 H1387 0.950 . S
C1393 C1392 1.327 . S
C1393 C1397 1.429 1_556 S
C1394 C1377 1.574 . S
C1394 H1388 0.949 . S
C1394 C1398 1.368 . S
C1395 C1376 1.429 . S
C1395 C1389 1.429 . S
C1395 C1396 1.523 . S
C1396 C1377 1.368 . S
C1396 C1390 1.368 . S
C1396 C1395 1.523 . S
C1397 C1381 1.429 . S
C1397 C1393 1.429 1_554 S
C1397 C1398 1.523 . S
C1398 C1382 1.368 . S
C1398 C1394 1.368 . S
C1398 C1397 1.523 . S
H1399 C1374 0.950 . S
H1400 C1376 0.950 . S
H1401 C1377 0.949 . S
H1402 C1379 0.950 . S
H1403 C1381 0.950 . S
C1404 C1405 1.349 . S
C1404 C1406 1.327 . S
C1404 H1429 0.950 . S
C1405 C1404 1.349 . S
C1405 C1421 1.349 . S
C1406 C1404 1.327 . S
C1406 C1425 1.429 . S
C1406 H1430 0.950 . S
C1407 C1424 1.574 . S
C1407 C1426 1.368 . S
C1407 H1431 0.949 . S
H1408 C1412 0.949 . S
C1409 C1410 1.349 . S
C1409 C1411 1.327 . S
C1409 H1432 0.950 . S
C1410 C1409 1.349 . S
C1410 C1422 1.349 . S
C1411 C1409 1.327 . S
C1411 C1427 1.429 . S
C1411 H1433 0.950 . S
C1412 H1408 0.949 . S
C1412 C1420 1.574 . S
C1412 C1428 1.368 . S
H1413 C1421 0.950 . S
H1414 C1419 0.950 . S
H1415 C1420 0.949 . S
H1416 C1422 0.950 . S
H1417 C1423 0.950 . S
H1418 C1424 0.949 . S
C1419 H1414 0.950 . S
C1419 C1421 1.327 . S
C1419 C1425 1.429 . S
C1420 C1412 1.574 . S
C1420 H1415 0.949 . S
C1420 C1426 1.368 . S
C1421 C1405 1.349 . S
C1421 H1413 0.950 . S
C1421 C1419 1.327 . S
C1422 C1410 1.349 . S
C1422 H1416 0.950 . S
C1422 C1423 1.327 . S
C1423 H1417 0.950 . S
C1423 C1422 1.327 . S
C1423 C1427 1.429 . S
C1424 C1407 1.574 . S
C1424 H1418 0.949 . S
C1424 C1428 1.368 . S
C1425 C1406 1.429 . S
C1425 C1419 1.429 . S
C1425 C1426 1.523 . S
C1426 C1407 1.368 . S
C1426 C1420 1.368 . S
C1426 C1425 1.523 . S
C1427 C1411 1.429 . S
C1427 C1423 1.429 . S
C1427 C1428 1.523 . S
C1428 C1412 1.368 . S
C1428 C1424 1.368 . S
C1428 C1427 1.523 . S
H1429 C1404 0.950 . S
H1430 C1406 0.950 . S
H1431 C1407 0.949 . S
H1432 C1409 0.950 . S
H1433 C1411 0.950 . S
C1434 C1435 1.349 . S
C1434 C1436 1.327 . S
C1434 H1459 0.950 . S
C1435 C1434 1.349 . S
C1435 C1451 1.349 . S
C1436 C1434 1.327 . S
C1436 C1455 1.429 . S
C1436 H1460 0.950 . S
C1437 C1454 1.574 . S
C1437 C1456 1.368 . S
C1437 H1461 0.949 . S
H1438 C1442 0.949 . S
C1439 C1440 1.349 . S
C1439 C1441 1.327 . S
C1439 H1462 0.950 . S
C1440 C1439 1.349 . S
C1440 C1452 1.349 . S
C1441 C1439 1.327 . S
C1441 C1457 1.429 . S
C1441 H1463 0.950 . S
C1442 H1438 0.949 . S
C1442 C1450 1.574 . S
C1442 C1458 1.368 . S
H1443 C1451 0.950 . S
H1444 C1449 0.950 . S
H1445 C1450 0.949 . S
H1446 C1452 0.950 . S
H1447 C1453 0.950 . S
H1448 C1454 0.949 . S
C1449 H1444 0.950 . S
C1449 C1451 1.327 . S
C1449 C1455 1.429 . S
C1450 C1442 1.574 . S
C1450 H1445 0.949 . S
C1450 C1456 1.368 . S
C1451 C1435 1.349 . S
C1451 H1443 0.950 . S
C1451 C1449 1.327 . S
C1452 C1440 1.349 . S
C1452 H1446 0.950 . S
C1452 C1453 1.327 . S
C1453 H1447 0.950 . S
C1453 C1452 1.327 . S
C1453 C1457 1.429 . S
C1454 C1437 1.574 . S
C1454 H1448 0.949 . S
C1454 C1458 1.368 . S
C1455 C1436 1.429 . S
C1455 C1449 1.429 . S
C1455 C1456 1.523 . S
C1456 C1437 1.368 . S
C1456 C1450 1.368 . S
C1456 C1455 1.523 . S
C1457 C1441 1.429 . S
C1457 C1453 1.429 . S
C1457 C1458 1.523 . S
C1458 C1442 1.368 . S
C1458 C1454 1.368 . S
C1458 C1457 1.523 . S
H1459 C1434 0.950 . S
H1460 C1436 0.950 . S
H1461 C1437 0.949 . S
H1462 C1439 0.950 . S
H1463 C1441 0.950 . S
C1464 C1465 1.349 . S
C1464 C1466 1.327 . S
C1464 H1489 0.950 . S
C1465 C1464 1.349 . S
C1465 C1481 1.349 . S
C1466 C1464 1.327 . S
C1466 C1485 1.429 . S
C1466 H1490 0.950 . S
C1467 C1484 1.574 . S
C1467 C1486 1.368 . S
C1467 H1491 0.949 . S
H1468 C1472 0.983 . S
C1469 C1470 1.380 . S
C1469 C1471 1.327 . S
C1469 H1492 0.950 1_554 S
C1470 C1469 1.380 . S
C1470 C1482 1.327 1_655 S
C1471 C1469 1.327 . S
C1471 C1487 1.429 . S
C1471 H1493 0.950 . S
C1472 H1468 0.983 . S
C1472 C1480 1.574 . S
C1472 C1488 1.368 . S
H1473 C1481 0.950 . S
H1474 C1479 0.950 . S
H1475 C1480 0.949 . S
H1476 C1482 0.950 . S
H1477 C1483 0.950 . S
H1478 C1484 0.949 . S
C1479 H1474 0.950 . S
C1479 C1481 1.327 . S
C1479 C1485 1.429 . S
C1480 C1472 1.574 . S
C1480 H1475 0.949 . S
C1480 C1486 1.368 . S
C1481 C1465 1.349 . S
C1481 H1473 0.950 . S
C1481 C1479 1.327 . S
C1482 C1470 1.327 1_455 S
C1482 H1476 0.950 . S
C1482 C1483 1.327 . S
C1483 H1477 0.950 . S
C1483 C1482 1.327 . S
C1483 C1487 1.429 1_455 S
C1484 C1467 1.574 . S
C1484 H1478 0.949 . S
C1484 C1488 1.368 . S
C1485 C1466 1.429 . S
C1485 C1479 1.429 . S
C1485 C1486 1.523 . S
C1486 C1467 1.368 . S
C1486 C1480 1.368 . S
C1486 C1485 1.523 . S
C1487 C1471 1.429 . S
C1487 C1483 1.429 1_655 S
C1487 C1488 1.523 . S
C1488 C1472 1.368 . S
C1488 C1484 1.368 . S
C1488 C1487 1.523 . S
H1489 C1464 0.950 . S
H1490 C1466 0.950 . S
H1491 C1467 0.949 . S
H1492 C1469 0.950 1_556 S
H1493 C1471 0.950 . S
C1494 C1495 1.349 . S
C1494 C1496 1.327 . S
C1494 H1519 0.950 . S
C1495 C1494 1.349 . S
C1495 C1511 1.349 . S
C1496 C1494 1.327 . S
C1496 C1515 1.429 . S
C1496 H1520 0.950 . S
C1497 C1514 1.574 . S
C1497 C1516 1.368 . S
C1497 H1521 0.949 . S
H1498 C1502 0.949 . S
C1499 C1500 1.349 . S
C1499 C1501 1.327 1_554 S
C1499 H1522 0.950 . S
C1500 C1499 1.349 . S
C1500 C1512 1.349 . S
C1501 C1499 1.327 1_556 S
C1501 C1517 1.429 . S
C1501 H1523 0.950 . S
C1502 H1498 0.949 . S
C1502 C1510 1.574 . S
C1502 C1518 1.368 . S
H1503 C1511 0.950 . S
H1504 C1509 0.950 . S
H1505 C1510 0.949 . S
H1506 C1512 0.950 . S
H1507 C1513 0.950 . S
H1508 C1514 0.949 . S
C1509 H1504 0.950 . S
C1509 C1511 1.327 . S
C1509 C1515 1.429 . S
C1510 C1502 1.574 . S
C1510 H1505 0.949 . S
C1510 C1516 1.368 . S
C1511 C1495 1.349 . S
C1511 H1503 0.950 . S
C1511 C1509 1.327 . S
C1512 C1500 1.349 . S
C1512 H1506 0.950 . S
C1512 C1513 1.327 . S
C1513 H1507 0.950 . S
C1513 C1512 1.327 . S
C1513 C1517 1.429 1_554 S
C1514 C1497 1.574 . S
C1514 H1508 0.949 . S
C1514 C1518 1.368 . S
C1515 C1496 1.429 . S
C1515 C1509 1.429 . S
C1515 C1516 1.523 . S
C1516 C1497 1.368 . S
C1516 C1510 1.368 . S
C1516 C1515 1.523 . S
C1517 C1501 1.429 . S
C1517 C1513 1.429 1_556 S
C1517 C1518 1.523 . S
C1518 C1502 1.368 . S
C1518 C1514 1.368 . S
C1518 C1517 1.523 . S
H1519 C1494 0.950 . S
H1520 C1496 0.950 . S
H1521 C1497 0.949 . S
H1522 C1499 0.950 . S
H1523 C1501 0.950 . S
C1524 C1525 1.349 . S
C1524 C1526 1.327 . S
C1524 H1549 0.950 . S
C1525 C1524 1.349 . S
C1525 C1541 1.349 . S
C1526 C1524 1.327 . S
C1526 C1545 1.429 . S
C1526 H1550 0.950 . S
C1527 C1544 1.574 . S
C1527 C1546 1.368 . S
C1527 H1551 0.949 . S
H1528 C1532 0.949 . S
C1529 C1530 1.349 . S
C1529 C1531 1.327 . S
C1529 H1552 0.950 . S
C1530 C1529 1.349 . S
C1530 C1542 1.349 . S
C1531 C1529 1.327 . S
C1531 C1547 1.429 . S
C1531 H1553 0.950 . S
C1532 H1528 0.949 . S
C1532 C1540 1.574 . S
C1532 C1548 1.368 . S
H1533 C1541 0.950 . S
H1534 C1539 0.950 . S
H1535 C1540 0.949 . S
H1536 C1542 0.950 . S
H1537 C1543 0.950 . S
H1538 C1544 0.949 . S
C1539 H1534 0.950 . S
C1539 C1541 1.327 . S
C1539 C1545 1.429 . S
C1540 C1532 1.574 . S
C1540 H1535 0.949 . S
C1540 C1546 1.368 . S
C1541 C1525 1.349 . S
C1541 H1533 0.950 . S
C1541 C1539 1.327 . S
C1542 C1530 1.349 . S
C1542 H1536 0.950 . S
C1542 C1543 1.327 . S
C1543 H1537 0.950 . S
C1543 C1542 1.327 . S
C1543 C1547 1.429 . S
C1544 C1527 1.574 . S
C1544 H1538 0.949 . S
C1544 C1548 1.368 . S
C1545 C1526 1.429 . S
C1545 C1539 1.429 . S
C1545 C1546 1.523 . S
C1546 C1527 1.368 . S
C1546 C1540 1.368 . S
C1546 C1545 1.523 . S
C1547 C1531 1.429 . S
C1547 C1543 1.429 . S
C1547 C1548 1.523 . S
C1548 C1532 1.368 . S
C1548 C1544 1.368 . S
C1548 C1547 1.523 . S
H1549 C1524 0.950 . S
H1550 C1526 0.950 . S
H1551 C1527 0.949 . S
H1552 C1529 0.950 . S
H1553 C1531 0.950 . S
C1554 C1555 1.349 . S
C1554 C1556 1.327 . S
C1554 H1579 0.950 . S
C1555 C1554 1.349 . S
C1555 C1571 1.349 . S
C1556 C1554 1.327 . S
C1556 C1575 1.429 . S
C1556 H1580 0.950 . S
C1557 C1574 1.574 . S
C1557 C1576 1.368 . S
C1557 H1581 0.949 . S
H1558 C1562 0.949 . S
C1559 C1560 1.349 . S
C1559 C1561 1.327 . S
C1559 H1582 0.950 . S
C1560 C1559 1.349 . S
C1560 C1572 1.349 . S
C1561 C1559 1.327 . S
C1561 C1577 1.429 . S
C1561 H1583 0.950 . S
C1562 H1558 0.949 . S
C1562 C1570 1.574 . S
C1562 C1578 1.368 . S
H1563 C1571 0.950 . S
H1564 C1569 0.950 . S
H1565 C1570 0.949 . S
H1566 C1572 0.950 . S
H1567 C1573 0.950 . S
H1568 C1574 0.949 . S
C1569 H1564 0.950 . S
C1569 C1571 1.327 . S
C1569 C1575 1.429 . S
C1570 C1562 1.574 . S
C1570 H1565 0.949 . S
C1570 C1576 1.368 . S
C1571 C1555 1.349 . S
C1571 H1563 0.950 . S
C1571 C1569 1.327 . S
C1572 C1560 1.349 . S
C1572 H1566 0.950 . S
C1572 C1573 1.327 . S
C1573 H1567 0.950 . S
C1573 C1572 1.327 . S
C1573 C1577 1.429 . S
C1574 C1557 1.574 . S
C1574 H1568 0.949 . S
C1574 C1578 1.368 . S
C1575 C1556 1.429 . S
C1575 C1569 1.429 . S
C1575 C1576 1.523 . S
C1576 C1557 1.368 . S
C1576 C1570 1.368 . S
C1576 C1575 1.523 . S
C1577 C1561 1.429 . S
C1577 C1573 1.429 . S
C1577 C1578 1.523 . S
C1578 C1562 1.368 . S
C1578 C1574 1.368 . S
C1578 C1577 1.523 . S
H1579 C1554 0.950 . S
H1580 C1556 0.950 . S
H1581 C1557 0.949 . S
H1582 C1559 0.950 . S
H1583 C1561 0.950 . S
C1584 C1585 1.349 . S
C1584 C1586 1.327 . S
C1584 H1609 0.950 . S
C1585 C1584 1.349 . S
C1585 C1601 1.349 . S
C1586 C1584 1.327 . S
C1586 C1605 1.429 . S
C1586 H1610 0.950 . S
C1587 C1604 1.574 . S
C1587 C1606 1.368 . S
C1587 H1611 0.949 . S
H1588 C1592 0.949 . S
C1589 C1590 1.349 . S
C1589 C1591 1.327 . S
C1589 H1612 0.950 . S
C1590 C1589 1.349 . S
C1590 C1602 1.349 . S
C1591 C1589 1.327 . S
C1591 C1607 1.429 . S
C1591 H1613 0.950 . S
C1592 H1588 0.949 . S
C1592 C1600 1.574 . S
C1592 C1608 1.368 . S
H1593 C1601 0.950 . S
H1594 C1599 0.950 . S
H1595 C1600 0.949 . S
H1596 C1602 0.950 . S
H1597 C1603 0.950 . S
H1598 C1604 0.949 . S
C1599 H1594 0.950 . S
C1599 C1601 1.327 . S
C1599 C1605 1.429 . S
C1600 C1592 1.574 . S
C1600 H1595 0.949 . S
C1600 C1606 1.368 . S
C1601 C1585 1.349 . S
C1601 H1593 0.950 . S
C1601 C1599 1.327 . S
C1602 C1590 1.349 . S
C1602 H1596 0.950 . S
C1602 C1603 1.327 . S
C1603 H1597 0.950 . S
C1603 C1602 1.327 . S
C1603 C1607 1.429 . S
C1604 C1587 1.574 . S
C1604 H1598 0.949 . S
C1604 C1608 1.368 . S
C1605 C1586 1.429 . S
C1605 C1599 1.429 . S
C1605 C1606 1.523 . S
C1606 C1587 1.368 . S
C1606 C1600 1.368 . S
C1606 C1605 1.523 . S
C1607 C1591 1.429 . S
C1607 C1603 1.429 . S
C1607 C1608 1.523 . S
C1608 C1592 1.368 . S
C1608 C1604 1.368 . S
C1608 C1607 1.523 . S
H1609 C1584 0.950 . S
H1610 C1586 0.950 . S
H1611 C1587 0.949 . S
H1612 C1589 0.950 . S
H1613 C1591 0.950 . S
C1614 C1615 1.349 . S
C1614 C1616 1.327 . S
C1614 H1639 0.950 . S
C1615 C1614 1.349 . S
C1615 C1631 1.349 . S
C1616 C1614 1.327 . S
C1616 C1635 1.429 . S
C1616 H1640 0.950 . S
C1617 C1634 1.574 . S
C1617 C1636 1.368 . S
C1617 H1641 0.949 . S
H1618 C1622 0.949 . S
C1619 C1620 1.349 . S
C1619 C1621 1.327 . S
C1619 H1642 0.950 . S
C1620 C1619 1.349 . S
C1620 C1632 1.349 . S
C1621 C1619 1.327 . S
C1621 C1637 1.429 . S
C1621 H1643 0.950 . S
C1622 H1618 0.949 . S
C1622 C1630 1.574 . S
C1622 C1638 1.368 . S
H1623 C1631 0.950 . S
H1624 C1629 0.950 . S
H1625 C1630 0.949 . S
H1626 C1632 0.950 . S
H1627 C1633 0.950 . S
H1628 C1634 0.949 . S
C1629 H1624 0.950 . S
C1629 C1631 1.327 . S
C1629 C1635 1.429 . S
C1630 C1622 1.574 . S
C1630 H1625 0.949 . S
C1630 C1636 1.368 . S
C1631 C1615 1.349 . S
C1631 H1623 0.950 . S
C1631 C1629 1.327 . S
C1632 C1620 1.349 . S
C1632 H1626 0.950 . S
C1632 C1633 1.327 . S
C1633 H1627 0.950 . S
C1633 C1632 1.327 . S
C1633 C1637 1.429 . S
C1634 C1617 1.574 . S
C1634 H1628 0.949 . S
C1634 C1638 1.368 . S
C1635 C1616 1.429 . S
C1635 C1629 1.429 . S
C1635 C1636 1.523 . S
C1636 C1617 1.368 . S
C1636 C1630 1.368 . S
C1636 C1635 1.523 . S
C1637 C1621 1.429 . S
C1637 C1633 1.429 . S
C1637 C1638 1.523 . S
C1638 C1622 1.368 . S
C1638 C1634 1.368 . S
C1638 C1637 1.523 . S
H1639 C1614 0.950 . S
H1640 C1616 0.950 . S
H1641 C1617 0.949 . S
H1642 C1619 0.950 . S
H1643 C1621 0.950 . S
C1644 C1645 1.349 1_655 S
C1644 C1646 1.327 . S
C1644 H1669 0.950 . S
C1645 C1644 1.349 1_455 S
C1645 C1661 1.349 . S
C1646 C1644 1.327 . S
C1646 C1665 1.429 . S
C1646 H1670 0.950 . S
C1647 C1664 1.574 . S
C1647 C1666 1.368 . S
C1647 H1671 0.949 . S
H1648 C1652 0.949 . S
C1649 C1650 1.349 . S
C1649 C1651 1.327 . S
C1649 H1672 0.950 . S
C1650 C1649 1.349 . S
C1650 C1662 1.349 . S
C1651 C1649 1.327 . S
C1651 C1667 1.429 . S
C1651 H1673 0.950 . S
C1652 H1648 0.949 . S
C1652 C1660 1.574 . S
C1652 C1668 1.368 . S
H1653 C1661 0.950 . S
H1654 C1659 0.950 . S
H1655 C1660 0.949 . S
H1656 C1662 0.950 . S
H1657 C1663 0.950 . S
H1658 C1664 0.949 . S
C1659 H1654 0.950 . S
C1659 C1661 1.327 . S
C1659 C1665 1.429 1_455 S
C1660 C1652 1.574 . S
C1660 H1655 0.949 . S
C1660 C1666 1.368 . S
C1661 C1645 1.349 . S
C1661 H1653 0.950 . S
C1661 C1659 1.327 . S
C1662 C1650 1.349 . S
C1662 H1656 0.950 . S
C1662 C1663 1.327 . S
C1663 H1657 0.950 . S
C1663 C1662 1.327 . S
C1663 C1667 1.429 . S
C1664 C1647 1.574 . S
C1664 H1658 0.949 . S
C1664 C1668 1.368 . S
C1665 C1646 1.429 . S
C1665 C1659 1.429 1_655 S
C1665 C1666 1.523 . S
C1666 C1647 1.368 . S
C1666 C1660 1.368 . S
C1666 C1665 1.523 . S
C1667 C1651 1.429 . S
C1667 C1663 1.429 . S
C1667 C1668 1.523 . S
C1668 C1652 1.368 . S
C1668 C1664 1.368 . S
C1668 C1667 1.523 . S
H1669 C1644 0.950 . S
H1670 C1646 0.950 . S
H1671 C1647 0.949 . S
H1672 C1649 0.950 . S
H1673 C1651 0.950 . S
C1674 C1675 1.349 . S
C1674 C1676 1.327 . S
C1674 H1699 0.950 . S
C1675 C1674 1.349 . S
C1675 C1691 1.349 . S
C1676 C1674 1.327 . S
C1676 C1695 1.429 . S
C1676 H1700 0.950 . S
C1677 C1694 1.574 . S
C1677 C1696 1.368 . S
C1677 H1701 0.949 . S
H1678 C1682 0.949 . S
C1679 C1680 1.349 . S
C1679 C1681 1.327 . S
C1679 H1702 0.950 . S
C1680 C1679 1.349 . S
C1680 C1692 1.349 . S
C1681 C1679 1.327 . S
C1681 C1697 1.429 . S
C1681 H1703 0.950 . S
C1682 H1678 0.949 . S
C1682 C1690 1.574 . S
C1682 C1698 1.368 . S
H1683 C1691 0.950 . S
H1684 C1689 0.950 . S
H1685 C1690 0.949 . S
H1686 C1692 0.950 . S
H1687 C1693 0.950 . S
H1688 C1694 0.949 . S
C1689 H1684 0.950 . S
C1689 C1691 1.327 . S
C1689 C1695 1.429 . S
C1690 C1682 1.574 . S
C1690 H1685 0.949 . S
C1690 C1696 1.368 . S
C1691 C1675 1.349 . S
C1691 H1683 0.950 . S
C1691 C1689 1.327 . S
C1692 C1680 1.349 . S
C1692 H1686 0.950 . S
C1692 C1693 1.327 . S
C1693 H1687 0.950 . S
C1693 C1692 1.327 . S
C1693 C1697 1.429 . S
C1694 C1677 1.574 . S
C1694 H1688 0.949 . S
C1694 C1698 1.368 . S
C1695 C1676 1.429 . S
C1695 C1689 1.429 . S
C1695 C1696 1.523 . S
C1696 C1677 1.368 . S
C1696 C1690 1.368 . S
C1696 C1695 1.523 . S
C1697 C1681 1.429 . S
C1697 C1693 1.429 . S
C1697 C1698 1.523 . S
C1698 C1682 1.368 . S
C1698 C1694 1.368 . S
C1698 C1697 1.523 . S
H1699 C1674 0.950 . S
H1700 C1676 0.950 . S
H1701 C1677 0.949 . S
H1702 C1679 0.950 . S
H1703 C1681 0.950 . S
C1704 C1705 1.349 . S
C1704 C1706 1.327 . S
C1704 H1729 0.950 . S
C1705 C1704 1.349 . S
C1705 C1721 1.349 . S
C1706 C1704 1.327 . S
C1706 C1725 1.429 . S
C1706 H1730 0.950 . S
C1707 C1724 1.574 . S
C1707 C1726 1.368 . S
C1707 H1731 0.949 . S
H1708 C1712 0.949 . S
C1709 C1710 1.349 . S
C1709 C1711 1.327 . S
C1709 H1732 0.950 . S
C1710 C1709 1.349 . S
C1710 C1722 1.349 . S
C1711 C1709 1.327 . S
C1711 C1727 1.429 . S
C1711 H1733 0.950 . S
C1712 H1708 0.949 . S
C1712 C1720 1.574 . S
C1712 C1728 1.368 . S
H1713 C1721 0.950 . S
H1714 C1719 0.950 . S
H1715 C1720 0.949 . S
H1716 C1722 0.950 . S
H1717 C1723 0.950 . S
H1718 C1724 0.949 . S
C1719 H1714 0.950 . S
C1719 C1721 1.327 . S
C1719 C1725 1.429 . S
C1720 C1712 1.574 . S
C1720 H1715 0.949 . S
C1720 C1726 1.368 . S
C1721 C1705 1.349 . S
C1721 H1713 0.950 . S
C1721 C1719 1.327 . S
C1722 C1710 1.349 . S
C1722 H1716 0.950 . S
C1722 C1723 1.327 . S
C1723 H1717 0.950 . S
C1723 C1722 1.327 . S
C1723 C1727 1.429 . S
C1724 C1707 1.574 . S
C1724 H1718 0.949 . S
C1724 C1728 1.368 . S
C1725 C1706 1.429 . S
C1725 C1719 1.429 . S
C1725 C1726 1.523 . S
C1726 C1707 1.368 . S
C1726 C1720 1.368 . S
C1726 C1725 1.523 . S
C1727 C1711 1.429 . S
C1727 C1723 1.429 . S
C1727 C1728 1.523 . S
C1728 C1712 1.368 . S
C1728 C1724 1.368 . S
C1728 C1727 1.523 . S
H1729 C1704 0.950 . S
H1730 C1706 0.950 . S
H1731 C1707 0.949 . S
H1732 C1709 0.950 . S
H1733 C1711 0.950 . S
C1734 C1735 1.349 . S
C1734 C1736 1.327 . S
C1734 H1759 0.950 . S
C1735 C1734 1.349 . S
C1735 C1751 1.349 . S
C1736 C1734 1.327 . S
C1736 C1755 1.429 . S
C1736 H1760 0.950 . S
C1737 C1754 1.574 . S
C1737 C1756 1.368 . S
C1737 H1761 0.949 . S
H1738 C1742 0.949 . S
C1739 C1740 1.349 . S
C1739 C1741 1.327 . S
C1739 H1762 0.950 . S
C1740 C1739 1.349 . S
C1740 C1752 1.349 . S
C1741 C1739 1.327 . S
C1741 C1757 1.429 . S
C1741 H1763 0.950 . S
C1742 H1738 0.949 . S
C1742 C1750 1.574 . S
C1742 C1758 1.368 . S
H1743 C1751 0.950 . S
H1744 C1749 0.950 . S
H1745 C1750 0.949 . S
H1746 C1752 0.950 . S
H1747 C1753 0.950 . S
H1748 C1754 0.949 . S
C1749 H1744 0.950 . S
C1749 C1751 1.327 . S
C1749 C1755 1.429 . S
C1750 C1742 1.574 . S
C1750 H1745 0.949 . S
C1750 C1756 1.368 . S
C1751 C1735 1.349 . S
C1751 H1743 0.950 . S
C1751 C1749 1.327 . S
C1752 C1740 1.349 . S
C1752 H1746 0.950 . S
C1752 C1753 1.327 . S
C1753 H1747 0.950 . S
C1753 C1752 1.327 . S
C1753 C1757 1.429 . S
C1754 C1737 1.574 . S
C1754 H1748 0.949 . S
C1754 C1758 1.368 . S
C1755 C1736 1.429 . S
C1755 C1749 1.429 . S
C1755 C1756 1.523 . S
C1756 C1737 1.368 . S
C1756 C1750 1.368 . S
C1756 C1755 1.523 . S
C1757 C1741 1.429 . S
C1757 C1753 1.429 . S
C1757 C1758 1.523 . S
C1758 C1742 1.368 . S
C1758 C1754 1.368 . S
C1758 C1757 1.523 . S
H1759 C1734 0.950 . S
H1760 C1736 0.950 . S
H1761 C1737 0.949 . S
H1762 C1739 0.950 . S
H1763 C1741 0.950 . S
C1764 C1765 1.349 . S
C1764 C1766 1.327 . S
C1764 H1789 0.950 . S
C1765 C1764 1.349 . S
C1765 C1781 1.349 . S
C1766 C1764 1.327 . S
C1766 C1785 1.429 . S
C1766 H1790 0.950 . S
C1767 C1784 1.574 . S
C1767 C1786 1.368 . S
C1767 H1791 0.949 . S
H1768 C1772 0.949 . S
C1769 C1770 1.349 . S
C1769 C1771 1.327 . S
C1769 H1792 0.950 . S
C1770 C1769 1.349 . S
C1770 C1782 1.349 . S
C1771 C1769 1.327 . S
C1771 C1787 1.429 . S
C1771 H1793 0.950 . S
C1772 H1768 0.949 . S
C1772 C1780 1.574 . S
C1772 C1788 1.368 . S
H1773 C1781 0.950 . S
H1774 C1779 0.950 . S
H1775 C1780 0.949 . S
H1776 C1782 0.950 . S
H1777 C1783 0.950 . S
H1778 C1784 0.949 . S
C1779 H1774 0.950 . S
C1779 C1781 1.327 . S
C1779 C1785 1.429 . S
C1780 C1772 1.574 . S
C1780 H1775 0.949 . S
C1780 C1786 1.368 . S
C1781 C1765 1.349 . S
C1781 H1773 0.950 . S
C1781 C1779 1.327 . S
C1782 C1770 1.349 . S
C1782 H1776 0.950 . S
C1782 C1783 1.327 . S
C1783 H1777 0.950 . S
C1783 C1782 1.327 . S
C1783 C1787 1.429 . S
C1784 C1767 1.574 . S
C1784 H1778 0.949 . S
C1784 C1788 1.368 . S
C1785 C1766 1.429 . S
C1785 C1779 1.429 . S
C1785 C1786 1.523 . S
C1786 C1767 1.368 . S
C1786 C1780 1.368 . S
C1786 C1785 1.523 . S
C1787 C1771 1.429 . S
C1787 C1783 1.429 . S
C1787 C1788 1.523 . S
C1788 C1772 1.368 . S
C1788 C1784 1.368 . S
C1788 C1787 1.523 . S
H1789 C1764 0.950 . S
H1790 C1766 0.950 . S
H1791 C1767 0.949 . S
H1792 C1769 0.950 . S
H1793 C1771 0.950 . S
C1794 C1795 1.349 . S
C1794 C1796 1.327 . S
C1794 H1819 0.950 . S
C1795 C1794 1.349 . S
C1795 C1811 1.349 . S
C1796 C1794 1.327 . S
C1796 C1815 1.429 . S
C1796 H1820 0.950 . S
C1797 C1814 1.574 . S
C1797 C1816 1.368 . S
C1797 H1821 0.949 . S
H1798 C1802 0.949 . S
C1799 C1800 1.349 . S
C1799 C1801 1.327 . S
C1799 H1822 0.931 1_556 S
C1800 C1799 1.349 . S
C1800 C1812 1.349 . S
C1801 C1799 1.327 . S
C1801 C1817 1.429 . S
C1801 H1823 0.950 . S
C1802 H1798 0.949 . S
C1802 C1810 1.574 . S
C1802 C1818 1.368 . S
H1803 C1811 0.950 . S
H1804 C1809 0.950 . S
H1805 C1810 0.949 . S
H1806 C1812 0.950 . S
H1807 C1813 0.950 . S
H1808 C1814 0.949 . S
C1809 H1804 0.950 . S
C1809 C1811 1.327 . S
C1809 C1815 1.429 . S
C1810 C1802 1.574 . S
C1810 H1805 0.949 . S
C1810 C1816 1.368 . S
C1811 C1795 1.349 . S
C1811 H1803 0.950 . S
C1811 C1809 1.327 . S
C1812 C1800 1.349 . S
C1812 H1806 0.950 . S
C1812 C1813 1.327 . S
C1813 H1807 0.950 . S
C1813 C1812 1.327 . S
C1813 C1817 1.429 . S
C1814 C1797 1.574 . S
C1814 H1808 0.949 . S
C1814 C1818 1.368 . S
C1815 C1796 1.429 . S
C1815 C1809 1.429 . S
C1815 C1816 1.523 . S
C1816 C1797 1.368 . S
C1816 C1810 1.368 . S
C1816 C1815 1.523 . S
C1817 C1801 1.429 . S
C1817 C1813 1.429 . S
C1817 C1818 1.523 . S
C1818 C1802 1.368 . S
C1818 C1814 1.368 . S
C1818 C1817 1.523 . S
H1819 C1794 0.950 . S
H1820 C1796 0.950 . S
H1821 C1797 0.949 . S
H1822 C1799 0.931 1_554 S
H1823 C1801 0.950 . S
C1824 C1825 1.349 . S
C1824 C1826 1.327 . S
C1824 H1849 0.950 . S
C1825 C1824 1.349 . S
C1825 C1841 1.349 . S
C1826 C1824 1.327 . S
C1826 C1845 1.429 . S
C1826 H1850 0.950 . S
C1827 C1844 1.574 . S
C1827 C1846 1.368 . S
C1827 H1851 0.949 . S
H1828 C1832 0.949 . S
C1829 C1830 1.349 . S
C1829 C1831 1.327 . S
C1829 H1852 0.950 . S
C1830 C1829 1.349 . S
C1830 C1842 1.349 . S
C1831 C1829 1.327 . S
C1831 C1847 1.429 . S
C1831 H1853 0.950 . S
C1832 H1828 0.949 . S
C1832 C1840 1.574 . S
C1832 C1848 1.368 . S
H1833 C1841 0.950 . S
H1834 C1839 0.950 . S
H1835 C1840 0.949 . S
H1836 C1842 0.950 1_655 S
H1837 C1843 0.950 . S
H1838 C1844 0.949 . S
C1839 H1834 0.950 . S
C1839 C1841 1.327 . S
C1839 C1845 1.429 . S
C1840 C1832 1.574 . S
C1840 H1835 0.949 . S
C1840 C1846 1.368 . S
C1841 C1825 1.349 . S
C1841 H1833 0.950 . S
C1841 C1839 1.327 . S
C1842 C1830 1.349 . S
C1842 H1836 0.950 1_455 S
C1842 C1843 1.327 . S
C1843 H1837 0.950 . S
C1843 C1842 1.327 . S
C1843 C1847 1.429 . S
C1844 C1827 1.574 . S
C1844 H1838 0.949 . S
C1844 C1848 1.368 . S
C1845 C1826 1.429 . S
C1845 C1839 1.429 . S
C1845 C1846 1.523 . S
C1846 C1827 1.368 . S
C1846 C1840 1.368 . S
C1846 C1845 1.523 . S
C1847 C1831 1.429 . S
C1847 C1843 1.429 . S
C1847 C1848 1.523 . S
C1848 C1832 1.368 . S
C1848 C1844 1.368 . S
C1848 C1847 1.523 . S
H1849 C1824 0.950 . S
H1850 C1826 0.950 . S
H1851 C1827 0.949 . S
H1852 C1829 0.950 . S
H1853 C1831 0.950 . S
C1854 C1855 1.349 . S
C1854 C1856 1.327 . S
C1854 H1879 0.950 . S
C1855 C1854 1.349 . S
C1855 C1871 1.349 . S
C1856 C1854 1.327 . S
C1856 C1875 1.429 . S
C1856 H1880 0.950 . S
C1857 C1874 1.574 . S
C1857 C1876 1.368 . S
C1857 H1881 0.949 . S
H1858 C1862 0.949 . S
C1859 C1860 1.349 . S
C1859 C1861 1.327 . S
C1859 H1882 0.950 . S
C1860 C1859 1.349 . S
C1860 C1872 1.349 . S
C1861 C1859 1.327 . S
C1861 C1877 1.429 . S
C1861 H1883 0.950 . S
C1862 H1858 0.949 . S
C1862 C1870 1.574 . S
C1862 C1878 1.368 . S
H1863 C1871 0.950 . S
H1864 C1869 0.950 . S
H1865 C1870 0.959 . S
H1866 C1872 0.950 . S
H1867 C1873 0.950 . S
H1868 C1874 0.949 . S
C1869 H1864 0.950 . S
C1869 C1871 1.327 . S
C1869 C1875 1.429 . S
C1870 C1862 1.574 . S
C1870 H1865 0.959 . S
C1870 C1876 1.368 . S
C1871 C1855 1.349 . S
C1871 H1863 0.950 . S
C1871 C1869 1.327 . S
C1872 C1860 1.349 . S
C1872 H1866 0.950 . S
C1872 C1873 1.327 . S
C1873 H1867 0.950 . S
C1873 C1872 1.327 . S
C1873 C1877 1.429 . S
C1874 C1857 1.574 . S
C1874 H1868 0.949 . S
C1874 C1878 1.368 . S
C1875 C1856 1.429 . S
C1875 C1869 1.429 . S
C1875 C1876 1.523 1_655 S
C1876 C1857 1.368 . S
C1876 C1870 1.368 . S
C1876 C1875 1.523 1_455 S
C1877 C1861 1.429 . S
C1877 C1873 1.429 . S
C1877 C1878 1.523 . S
C1878 C1862 1.368 . S
C1878 C1874 1.368 . S
C1878 C1877 1.523 . S
H1879 C1854 0.950 . S
H1880 C1856 0.950 . S
H1881 C1857 0.949 . S
H1882 C1859 0.950 . S
H1883 C1861 0.950 . S
C1884 C1885 1.349 . S
C1884 C1886 1.327 . S
C1884 H1909 0.950 . S
C1885 C1884 1.349 . S
C1885 C1901 1.349 . S
C1886 C1884 1.327 . S
C1886 C1905 1.429 . S
C1886 H1910 0.950 . S
C1887 C1904 1.574 . S
C1887 C1906 1.368 . S
C1887 H1911 0.949 . S
H1888 C1892 0.949 . S
C1889 C1890 1.349 . S
C1889 C1891 1.327 . S
C1889 H1912 0.950 . S
C1890 C1889 1.349 . S
C1890 C1902 1.349 . S
C1891 C1889 1.327 . S
C1891 C1907 1.429 . S
C1891 H1913 0.950 . S
C1892 H1888 0.949 . S
C1892 C1900 1.574 . S
C1892 C1908 1.368 . S
H1893 C1901 0.950 . S
H1894 C1899 0.950 . S
H1895 C1900 0.949 . S
H1896 C1902 0.950 . S
H1897 C1903 0.950 . S
H1898 C1904 0.949 . S
C1899 H1894 0.950 . S
C1899 C1901 1.327 . S
C1899 C1905 1.429 . S
C1900 C1892 1.574 . S
C1900 H1895 0.949 . S
C1900 C1906 1.368 . S
C1901 C1885 1.349 . S
C1901 H1893 0.950 . S
C1901 C1899 1.327 . S
C1902 C1890 1.349 . S
C1902 H1896 0.950 . S
C1902 C1903 1.327 . S
C1903 H1897 0.950 . S
C1903 C1902 1.327 . S
C1903 C1907 1.429 . S
C1904 C1887 1.574 . S
C1904 H1898 0.949 . S
C1904 C1908 1.368 . S
C1905 C1886 1.429 . S
C1905 C1899 1.429 . S
C1905 C1906 1.523 . S
C1906 C1887 1.368 . S
C1906 C1900 1.368 . S
C1906 C1905 1.523 . S
C1907 C1891 1.429 . S
C1907 C1903 1.429 . S
C1907 C1908 1.523 . S
C1908 C1892 1.368 . S
C1908 C1904 1.368 . S
C1908 C1907 1.523 . S
H1909 C1884 0.950 . S
H1910 C1886 0.950 . S
H1911 C1887 0.949 . S
H1912 C1889 0.950 . S
H1913 C1891 0.950 . S
C1914 C1915 1.349 . S
C1914 C1916 1.327 . S
C1914 H1939 0.950 . S
C1915 C1914 1.349 . S
C1915 C1931 1.349 . S
C1916 C1914 1.327 . S
C1916 C1935 1.429 . S
C1916 H1940 0.950 . S
C1917 C1934 1.574 . S
C1917 C1936 1.368 . S
C1917 H1941 0.949 . S
H1918 C1922 0.949 . S
C1919 C1920 1.349 . S
C1919 C1921 1.327 . S
C1919 H1942 0.950 . S
C1920 C1919 1.349 . S
C1920 C1932 1.349 . S
C1921 C1919 1.327 . S
C1921 C1937 1.429 . S
C1921 H1943 0.950 . S
C1922 H1918 0.949 . S
C1922 C1930 1.574 . S
C1922 C1938 1.368 . S
H1923 C1931 0.950 . S
H1924 C1929 0.950 . S
H1925 C1930 0.949 . S
H1926 C1932 0.950 . S
H1927 C1933 0.950 . S
H1928 C1934 0.949 . S
C1929 H1924 0.950 . S
C1929 C1931 1.327 . S
C1929 C1935 1.429 . S
C1930 C1922 1.574 . S
C1930 H1925 0.949 . S
C1930 C1936 1.368 . S
C1931 C1915 1.349 . S
C1931 H1923 0.950 . S
C1931 C1929 1.327 . S
C1932 C1920 1.349 . S
C1932 H1926 0.950 . S
C1932 C1933 1.327 . S
C1933 H1927 0.950 . S
C1933 C1932 1.327 . S
C1933 C1937 1.429 . S
C1934 C1917 1.574 . S
C1934 H1928 0.949 . S
C1934 C1938 1.368 . S
C1935 C1916 1.429 . S
C1935 C1929 1.429 . S
C1935 C1936 1.523 . S
C1936 C1917 1.368 . S
C1936 C1930 1.368 . S
C1936 C1935 1.523 . S
C1937 C1921 1.429 . S
C1937 C1933 1.429 . S
C1937 C1938 1.523 . S
C1938 C1922 1.368 . S
C1938 C1934 1.368 . S
C1938 C1937 1.523 . S
H1939 C1914 0.950 . S
H1940 C1916 0.950 . S
H1941 C1917 0.949 . S
H1942 C1919 0.950 . S
H1943 C1921 0.950 . S
C1944 C1945 1.349 . S
C1944 C1946 1.327 . S
C1944 H1969 0.950 . S
C1945 C1944 1.349 . S
C1945 C1961 1.349 . S
C1946 C1944 1.327 . S
C1946 C1965 1.429 . S
C1946 H1970 0.950 . S
C1947 C1964 1.574 . S
C1947 C1966 1.368 . S
C1947 H1971 0.949 . S
H1948 C1952 0.949 . S
C1949 C1950 1.335 1_455 S
C1949 C1951 1.327 . S
C1949 H1972 0.950 . S
C1950 C1949 1.335 1_655 S
C1950 C1962 1.364 . S
C1951 C1949 1.327 . S
C1951 C1967 1.429 . S
C1951 H1973 0.950 . S
C1952 H1948 0.949 . S
C1952 C1960 1.574 . S
C1952 C1968 1.368 . S
H1953 C1961 0.950 . S
H1954 C1959 0.950 . S
H1955 C1960 0.949 . S
H1956 C1962 0.950 . S
H1957 C1963 0.950 . S
H1958 C1964 0.949 . S
C1959 H1954 0.950 . S
C1959 C1961 1.327 . S
C1959 C1965 1.429 . S
C1960 C1952 1.574 . S
C1960 H1955 0.949 . S
C1960 C1966 1.368 . S
C1961 C1945 1.349 . S
C1961 H1953 0.950 . S
C1961 C1959 1.327 . S
C1962 C1950 1.364 . S
C1962 H1956 0.950 . S
C1962 C1963 1.327 1_655 S
C1963 H1957 0.950 . S
C1963 C1962 1.327 1_455 S
C1963 C1967 1.429 . S
C1964 C1947 1.574 . S
C1964 H1958 0.949 . S
C1964 C1968 1.368 . S
C1965 C1946 1.429 . S
C1965 C1959 1.429 . S
C1965 C1966 1.523 . S
C1966 C1947 1.368 . S
C1966 C1960 1.368 . S
C1966 C1965 1.523 . S
C1967 C1951 1.429 . S
C1967 C1963 1.429 . S
C1967 C1968 1.523 . S
C1968 C1952 1.368 . S
C1968 C1964 1.368 . S
C1968 C1967 1.523 . S
H1969 C1944 0.950 . S
H1970 C1946 0.950 . S
H1971 C1947 0.949 . S
H1972 C1949 0.950 . S
H1973 C1951 0.950 . S
C1974 C1975 1.349 . S
C1974 C1976 1.327 . S
C1974 H1999 0.950 . S
C1975 C1974 1.349 . S
C1975 C1991 1.349 . S
C1976 C1974 1.327 . S
C1976 C1995 1.429 . S
C1976 H2000 0.950 . S
C1977 C1994 1.574 . S
C1977 C1996 1.368 . S
C1977 H2001 0.949 . S
H1978 C1982 0.949 . S
C1979 C1980 1.349 . S
C1979 C1981 1.327 . S
C1979 H2002 0.950 . S
C1980 C1979 1.349 . S
C1980 C1992 1.349 . S
C1981 C1979 1.327 . S
C1981 C1997 1.429 . S
C1981 H2003 0.950 . S
C1982 H1978 0.949 . S
C1982 C1990 1.574 . S
C1982 C1998 1.368 . S
H1983 C1991 0.950 . S
H1984 C1989 0.950 . S
H1985 C1990 0.949 . S
H1986 C1992 0.950 . S
H1987 C1993 0.950 . S
H1988 C1994 0.949 . S
C1989 H1984 0.950 . S
C1989 C1991 1.327 . S
C1989 C1995 1.429 . S
C1990 C1982 1.574 . S
C1990 H1985 0.949 . S
C1990 C1996 1.368 . S
C1991 C1975 1.349 . S
C1991 H1983 0.950 . S
C1991 C1989 1.327 . S
C1992 C1980 1.349 . S
C1992 H1986 0.950 . S
C1992 C1993 1.327 . S
C1993 H1987 0.950 . S
C1993 C1992 1.327 . S
C1993 C1997 1.429 . S
C1994 C1977 1.574 . S
C1994 H1988 0.949 . S
C1994 C1998 1.368 . S
C1995 C1976 1.429 . S
C1995 C1989 1.429 . S
C1995 C1996 1.523 . S
C1996 C1977 1.368 . S
C1996 C1990 1.368 . S
C1996 C1995 1.523 . S
C1997 C1981 1.429 . S
C1997 C1993 1.429 . S
C1997 C1998 1.523 . S
C1998 C1982 1.368 . S
C1998 C1994 1.368 . S
C1998 C1997 1.523 . S
H1999 C1974 0.950 . S
H2000 C1976 0.950 . S
H2001 C1977 0.949 . S
H2002 C1979 0.950 . S
H2003 C1981 0.950 . S
C2004 C2005 1.349 . S
C2004 C2006 1.327 . S
C2004 H2029 0.950 . S
C2005 C2004 1.349 . S
C2005 C2021 1.349 . S
C2006 C2004 1.327 . S
C2006 C2025 1.429 . S
C2006 H2030 0.950 . S
C2007 C2024 1.574 . S
C2007 C2026 1.368 . S
C2007 H2031 0.949 . S
H2008 C2012 0.949 . S
C2009 C2010 1.349 . S
C2009 C2011 1.327 . S
C2009 H2032 0.950 . S
C2010 C2009 1.349 . S
C2010 C2022 1.349 . S
C2011 C2009 1.327 . S
C2011 C2027 1.429 . S
C2011 H2033 0.950 . S
C2012 H2008 0.949 . S
C2012 C2020 1.574 . S
C2012 C2028 1.368 . S
H2013 C2021 0.950 . S
H2014 C2019 0.950 . S
H2015 C2020 0.949 . S
H2016 C2022 0.950 . S
H2017 C2023 0.950 . S
H2018 C2024 0.949 . S
C2019 H2014 0.950 . S
C2019 C2021 1.327 . S
C2019 C2025 1.429 . S
C2020 C2012 1.574 . S
C2020 H2015 0.949 . S
C2020 C2026 1.368 . S
C2021 C2005 1.349 . S
C2021 H2013 0.950 . S
C2021 C2019 1.327 . S
C2022 C2010 1.349 . S
C2022 H2016 0.950 . S
C2022 C2023 1.327 . S
C2023 H2017 0.950 . S
C2023 C2022 1.327 . S
C2023 C2027 1.429 . S
C2024 C2007 1.574 . S
C2024 H2018 0.949 . S
C2024 C2028 1.368 . S
C2025 C2006 1.429 . S
C2025 C2019 1.429 . S
C2025 C2026 1.523 . S
C2026 C2007 1.368 . S
C2026 C2020 1.368 . S
C2026 C2025 1.523 . S
C2027 C2011 1.429 . S
C2027 C2023 1.429 . S
C2027 C2028 1.523 . S
C2028 C2012 1.368 . S
C2028 C2024 1.368 . S
C2028 C2027 1.523 . S
H2029 C2004 0.950 . S
H2030 C2006 0.950 . S
H2031 C2007 0.949 . S
H2032 C2009 0.950 . S
H2033 C2011 0.950 . S
C2034 C2035 1.349 . S
C2034 C2036 1.327 . S
C2034 H2059 0.950 . S
C2035 C2034 1.349 . S
C2035 C2051 1.349 . S
C2036 C2034 1.327 . S
C2036 C2055 1.429 . S
C2036 H2060 0.950 . S
C2037 C2054 1.574 . S
C2037 C2056 1.368 . S
C2037 H2061 0.949 . S
H2038 C2042 0.949 . S
C2039 C2040 1.349 . S
C2039 C2041 1.327 . S
C2039 H2062 0.950 . S
C2040 C2039 1.349 . S
C2040 C2052 1.349 . S
C2041 C2039 1.327 . S
C2041 C2057 1.429 1_655 S
C2041 H2063 0.950 . S
C2042 H2038 0.949 . S
C2042 C2050 1.574 . S
C2042 C2058 1.368 . S
H2043 C2051 0.950 . S
H2044 C2049 0.950 . S
H2045 C2050 0.949 . S
H2046 C2052 0.950 . S
H2047 C2053 0.950 1_455 S
H2048 C2054 0.949 . S
C2049 H2044 0.950 . S
C2049 C2051 1.327 . S
C2049 C2055 1.429 . S
C2050 C2042 1.574 . S
C2050 H2045 0.949 . S
C2050 C2056 1.368 . S
C2051 C2035 1.349 . S
C2051 H2043 0.950 . S
C2051 C2049 1.327 . S
C2052 C2040 1.349 . S
C2052 H2046 0.950 . S
C2052 C2053 1.327 . S
C2053 H2047 0.950 1_655 S
C2053 C2052 1.327 . S
C2053 C2057 1.429 1_655 S
C2054 C2037 1.574 . S
C2054 H2048 0.949 . S
C2054 C2058 1.368 . S
C2055 C2036 1.429 . S
C2055 C2049 1.429 . S
C2055 C2056 1.523 . S
C2056 C2037 1.368 . S
C2056 C2050 1.368 . S
C2056 C2055 1.523 . S
C2057 C2041 1.429 1_455 S
C2057 C2053 1.429 1_455 S
C2057 C2058 1.523 . S
C2058 C2042 1.368 . S
C2058 C2054 1.368 . S
C2058 C2057 1.523 . S
H2059 C2034 0.950 . S
H2060 C2036 0.950 . S
H2061 C2037 0.949 . S
H2062 C2039 0.950 . S
H2063 C2041 0.950 . S
C2064 C2065 1.349 . S
C2064 C2066 1.327 . S
C2064 H2089 0.950 . S
C2065 C2064 1.349 . S
C2065 C2081 1.349 . S
C2066 C2064 1.327 . S
C2066 C2085 1.429 . S
C2066 H2090 0.950 . S
C2067 C2084 1.574 . S
C2067 C2086 1.368 1_565 S
C2067 H2091 0.949 . S
H2068 C2072 0.949 . S
C2069 C2070 1.349 . S
C2069 C2071 1.327 . S
C2069 H2092 0.950 . S
C2070 C2069 1.349 . S
C2070 C2082 1.349 . S
C2071 C2069 1.327 . S
C2071 C2087 1.429 . S
C2071 H2093 0.950 . S
C2072 H2068 0.949 . S
C2072 C2080 1.574 . S
C2072 C2088 1.368 1_545 S
H2073 C2081 0.950 . S
H2074 C2079 0.950 . S
H2075 C2080 0.949 . S
H2076 C2082 0.950 . S
H2077 C2083 0.950 . S
H2078 C2084 0.949 . S
C2079 H2074 0.950 . S
C2079 C2081 1.327 . S
C2079 C2085 1.429 . S
C2080 C2072 1.574 . S
C2080 H2075 0.949 . S
C2080 C2086 1.368 1_556 S
C2081 C2065 1.349 . S
C2081 H2073 0.950 . S
C2081 C2079 1.327 . S
C2082 C2070 1.349 . S
C2082 H2076 0.950 . S
C2082 C2083 1.327 . S
C2083 H2077 0.950 . S
C2083 C2082 1.327 . S
C2083 C2087 1.429 . S
C2084 C2067 1.574 . S
C2084 H2078 0.949 . S
C2084 C2088 1.368 1_554 S
C2085 C2066 1.429 . S
C2085 C2079 1.429 . S
C2085 C2086 1.523 . S
C2086 C2067 1.368 1_545 S
C2086 C2080 1.368 1_554 S
C2086 C2085 1.523 . S
C2087 C2071 1.429 . S
C2087 C2083 1.429 . S
C2087 C2088 1.523 . S
C2088 C2072 1.368 1_565 S
C2088 C2084 1.368 1_556 S
C2088 C2087 1.523 . S
H2089 C2064 0.950 . S
H2090 C2066 0.950 . S
H2091 C2067 0.949 . S
H2092 C2069 0.950 . S
H2093 C2071 0.950 . S
C2094 C2095 1.349 . S
C2094 C2096 1.327 . S
C2094 H2119 0.950 . S
C2095 C2094 1.349 . S
C2095 C2111 1.349 . S
C2096 C2094 1.327 . S
C2096 C2115 1.429 . S
C2096 H2120 0.950 . S
C2097 C2114 1.574 . S
C2097 C2116 1.368 . S
C2097 H2121 0.949 . S
H2098 C2102 0.949 . S
C2099 C2100 1.349 . S
C2099 C2101 1.327 . S
C2099 H2122 0.950 . S
C2100 C2099 1.349 . S
C2100 C2112 1.349 . S
C2101 C2099 1.327 . S
C2101 C2117 1.429 . S
C2101 H2123 0.950 . S
C2102 H2098 0.949 . S
C2102 C2110 1.574 . S
C2102 C2118 1.368 . S
H2103 C2111 0.950 . S
H2104 C2109 0.950 . S
H2105 C2110 0.949 . S
H2106 C2112 0.950 . S
H2107 C2113 0.950 . S
H2108 C2114 0.949 . S
C2109 H2104 0.950 . S
C2109 C2111 1.327 . S
C2109 C2115 1.429 . S
C2110 C2102 1.574 . S
C2110 H2105 0.949 . S
C2110 C2116 1.368 . S
C2111 C2095 1.349 . S
C2111 H2103 0.950 . S
C2111 C2109 1.327 . S
C2112 C2100 1.349 . S
C2112 H2106 0.950 . S
C2112 C2113 1.327 . S
C2113 H2107 0.950 . S
C2113 C2112 1.327 . S
C2113 C2117 1.429 . S
C2114 C2097 1.574 . S
C2114 H2108 0.949 . S
C2114 C2118 1.368 . S
C2115 C2096 1.429 . S
C2115 C2109 1.429 . S
C2115 C2116 1.523 . S
C2116 C2097 1.368 . S
C2116 C2110 1.368 . S
C2116 C2115 1.523 . S
C2117 C2101 1.429 . S
C2117 C2113 1.429 . S
C2117 C2118 1.523 . S
C2118 C2102 1.368 . S
C2118 C2114 1.368 . S
C2118 C2117 1.523 . S
H2119 C2094 0.950 . S
H2120 C2096 0.950 . S
H2121 C2097 0.949 . S
H2122 C2099 0.950 . S
H2123 C2101 0.950 . S
C2124 C2125 1.349 . S
C2124 C2126 1.327 . S
C2124 H2149 0.950 . S
C2125 C2124 1.349 . S
C2125 C2141 1.349 . S
C2126 C2124 1.327 . S
C2126 C2145 1.429 . S
C2126 H2150 0.950 . S
C2127 C2144 1.574 . S
C2127 C2146 1.368 . S
C2127 H2151 0.949 . S
H2128 C2132 0.949 . S
C2129 C2130 1.349 . S
C2129 C2131 1.327 . S
C2129 H2152 0.950 . S
C2130 C2129 1.349 . S
C2130 C2142 1.349 . S
C2131 C2129 1.327 . S
C2131 C2147 1.429 . S
C2131 H2153 0.950 . S
C2132 H2128 0.949 . S
C2132 C2140 1.574 . S
C2132 C2148 1.368 . S
H2133 C2141 0.950 . S
H2134 C2139 0.950 . S
H2135 C2140 0.949 . S
H2136 C2142 0.950 . S
H2137 C2143 0.950 . S
H2138 C2144 0.949 . S
C2139 H2134 0.950 . S
C2139 C2141 1.327 . S
C2139 C2145 1.429 . S
C2140 C2132 1.574 . S
C2140 H2135 0.949 . S
C2140 C2146 1.368 1_565 S
C2141 C2125 1.349 . S
C2141 H2133 0.950 . S
C2141 C2139 1.327 . S
C2142 C2130 1.349 . S
C2142 H2136 0.950 . S
C2142 C2143 1.327 . S
C2143 H2137 0.950 . S
C2143 C2142 1.327 . S
C2143 C2147 1.429 . S
C2144 C2127 1.574 . S
C2144 H2138 0.949 . S
C2144 C2148 1.368 1_545 S
C2145 C2126 1.429 . S
C2145 C2139 1.429 . S
C2145 C2146 1.523 . S
C2146 C2127 1.368 . S
C2146 C2140 1.368 1_545 S
C2146 C2145 1.523 . S
C2147 C2131 1.429 . S
C2147 C2143 1.429 . S
C2147 C2148 1.523 . S
C2148 C2132 1.368 . S
C2148 C2144 1.368 1_565 S
C2148 C2147 1.523 . S
H2149 C2124 0.950 . S
H2150 C2126 0.950 . S
H2151 C2127 0.949 . S
H2152 C2129 0.950 . S
H2153 C2131 0.950 . S
C2154 C2155 1.349 . S
C2154 C2156 1.327 . S
C2154 H2179 0.950 . S
C2155 C2154 1.349 . S
C2155 C2171 1.349 . S
C2156 C2154 1.327 . S
C2156 C2175 1.429 . S
C2156 H2180 0.950 . S
C2157 C2174 1.574 . S
C2157 C2176 1.368 . S
C2157 H2181 0.949 . S
H2158 C2162 0.949 . S
C2159 C2160 1.349 . S
C2159 C2161 1.327 . S
C2159 H2182 0.950 . S
C2160 C2159 1.349 . S
C2160 C2172 1.349 . S
C2161 C2159 1.327 . S
C2161 C2177 1.429 . S
C2161 H2183 0.950 . S
C2162 H2158 0.949 . S
C2162 C2170 1.574 . S
C2162 C2178 1.368 . S
H2163 C2171 0.950 . S
H2164 C2169 0.950 . S
H2165 C2170 0.949 . S
H2166 C2172 0.950 . S
H2167 C2173 0.950 . S
H2168 C2174 0.949 . S
C2169 H2164 0.950 . S
C2169 C2171 1.327 . S
C2169 C2175 1.429 . S
C2170 C2162 1.574 . S
C2170 H2165 0.949 . S
C2170 C2176 1.368 . S
C2171 C2155 1.349 . S
C2171 H2163 0.950 . S
C2171 C2169 1.327 . S
C2172 C2160 1.349 . S
C2172 H2166 0.950 . S
C2172 C2173 1.327 . S
C2173 H2167 0.950 . S
C2173 C2172 1.327 . S
C2173 C2177 1.429 . S
C2174 C2157 1.574 . S
C2174 H2168 0.949 . S
C2174 C2178 1.368 . S
C2175 C2156 1.429 . S
C2175 C2169 1.429 . S
C2175 C2176 1.523 . S
C2176 C2157 1.368 . S
C2176 C2170 1.368 . S
C2176 C2175 1.523 . S
C2177 C2161 1.429 . S
C2177 C2173 1.429 . S
C2177 C2178 1.523 . S
C2178 C2162 1.368 . S
C2178 C2174 1.368 . S
C2178 C2177 1.523 . S
H2179 C2154 0.950 . S
H2180 C2156 0.950 . S
H2181 C2157 0.949 . S
H2182 C2159 0.950 . S
H2183 C2161 0.950 . S
C2184 C2185 1.349 . S
C2184 C2186 1.327 . S
C2184 H2209 0.950 . S
C2185 C2184 1.349 . S
C2185 C2201 1.349 . S
C2186 C2184 1.327 . S
C2186 C2205 1.429 . S
C2186 H2210 0.950 . S
C2187 C2204 1.574 . S
C2187 C2206 1.368 . S
C2187 H2211 0.949 . S
H2188 C2192 0.949 . S
C2189 C2190 1.349 . S
C2189 C2191 1.327 . S
C2189 H2212 0.950 . S
C2190 C2189 1.349 . S
C2190 C2202 1.349 . S
C2191 C2189 1.327 . S
C2191 C2207 1.429 . S
C2191 H2213 0.950 . S
C2192 H2188 0.949 . S
C2192 C2200 1.574 . S
C2192 C2208 1.368 . S
H2193 C2201 0.950 . S
H2194 C2199 0.950 . S
H2195 C2200 0.949 . S
H2196 C2202 0.950 . S
H2197 C2203 0.950 . S
H2198 C2204 0.949 . S
C2199 H2194 0.950 . S
C2199 C2201 1.327 . S
C2199 C2205 1.429 . S
C2200 C2192 1.574 . S
C2200 H2195 0.949 . S
C2200 C2206 1.368 . S
C2201 C2185 1.349 . S
C2201 H2193 0.950 . S
C2201 C2199 1.327 . S
C2202 C2190 1.349 . S
C2202 H2196 0.950 . S
C2202 C2203 1.327 . S
C2203 H2197 0.950 . S
C2203 C2202 1.327 . S
C2203 C2207 1.429 . S
C2204 C2187 1.574 . S
C2204 H2198 0.949 . S
C2204 C2208 1.368 . S
C2205 C2186 1.429 . S
C2205 C2199 1.429 . S
C2205 C2206 1.523 . S
C2206 C2187 1.368 . S
C2206 C2200 1.368 . S
C2206 C2205 1.523 . S
C2207 C2191 1.429 . S
C2207 C2203 1.429 . S
C2207 C2208 1.523 . S
C2208 C2192 1.368 . S
C2208 C2204 1.368 . S
C2208 C2207 1.523 . S
H2209 C2184 0.950 . S
H2210 C2186 0.950 . S
H2211 C2187 0.949 . S
H2212 C2189 0.950 . S
H2213 C2191 0.950 . S
C2214 C2215 1.349 . S
C2214 C2216 1.327 . S
C2214 H2239 0.950 . S
C2215 C2214 1.349 . S
C2215 C2231 1.349 . S
C2216 C2214 1.327 . S
C2216 C2235 1.429 . S
C2216 H2240 0.950 . S
C2217 C2234 1.574 . S
C2217 C2236 1.368 . S
C2217 H2241 0.949 . S
H2218 C2222 0.949 . S
C2219 C2220 1.349 . S
C2219 C2221 1.327 . S
C2219 H2242 0.950 . S
C2220 C2219 1.349 . S
C2220 C2232 1.349 . S
C2221 C2219 1.327 . S
C2221 C2237 1.429 . S
C2221 H2243 0.950 . S
C2222 H2218 0.949 . S
C2222 C2230 1.574 . S
C2222 C2238 1.368 . S
H2223 C2231 0.950 . S
H2224 C2229 0.950 . S
H2225 C2230 0.949 . S
H2226 C2232 0.950 . S
H2227 C2233 0.950 . S
H2228 C2234 0.949 . S
C2229 H2224 0.950 . S
C2229 C2231 1.327 . S
C2229 C2235 1.429 . S
C2230 C2222 1.574 . S
C2230 H2225 0.949 . S
C2230 C2236 1.368 . S
C2231 C2215 1.349 . S
C2231 H2223 0.950 . S
C2231 C2229 1.327 . S
C2232 C2220 1.349 . S
C2232 H2226 0.950 . S
C2232 C2233 1.327 . S
C2233 H2227 0.950 . S
C2233 C2232 1.327 . S
C2233 C2237 1.429 . S
C2234 C2217 1.574 . S
C2234 H2228 0.949 . S
C2234 C2238 1.368 . S
C2235 C2216 1.429 . S
C2235 C2229 1.429 . S
C2235 C2236 1.523 . S
C2236 C2217 1.368 . S
C2236 C2230 1.368 . S
C2236 C2235 1.523 . S
C2237 C2221 1.429 . S
C2237 C2233 1.429 . S
C2237 C2238 1.523 . S
C2238 C2222 1.368 . S
C2238 C2234 1.368 . S
C2238 C2237 1.523 . S
H2239 C2214 0.950 . S
H2240 C2216 0.950 . S
H2241 C2217 0.949 . S
H2242 C2219 0.950 . S
H2243 C2221 0.950 . S
C2244 C2245 1.349 . S
C2244 C2246 1.327 . S
C2244 H2269 0.950 . S
C2245 C2244 1.349 . S
C2245 C2261 1.349 . S
C2246 C2244 1.327 . S
C2246 C2265 1.429 . S
C2246 H2270 0.950 . S
C2247 C2264 1.574 . S
C2247 C2266 1.368 . S
C2247 H2271 0.949 . S
H2248 C2252 0.949 . S
C2249 C2250 1.349 . S
C2249 C2251 1.327 . S
C2249 H2272 0.950 . S
C2250 C2249 1.349 . S
C2250 C2262 1.349 . S
C2251 C2249 1.327 . S
C2251 C2267 1.429 . S
C2251 H2273 0.950 . S
C2252 H2248 0.949 . S
C2252 C2260 1.574 . S
C2252 C2268 1.368 . S
H2253 C2261 0.950 . S
H2254 C2259 0.950 . S
H2255 C2260 0.949 . S
H2256 C2262 0.950 . S
H2257 C2263 0.950 . S
H2258 C2264 0.949 . S
C2259 H2254 0.950 . S
C2259 C2261 1.327 . S
C2259 C2265 1.429 . S
C2260 C2252 1.574 . S
C2260 H2255 0.949 . S
C2260 C2266 1.368 . S
C2261 C2245 1.349 . S
C2261 H2253 0.950 . S
C2261 C2259 1.327 . S
C2262 C2250 1.349 . S
C2262 H2256 0.950 . S
C2262 C2263 1.327 . S
C2263 H2257 0.950 . S
C2263 C2262 1.327 . S
C2263 C2267 1.429 . S
C2264 C2247 1.574 . S
C2264 H2258 0.949 . S
C2264 C2268 1.368 . S
C2265 C2246 1.429 . S
C2265 C2259 1.429 . S
C2265 C2266 1.523 . S
C2266 C2247 1.368 . S
C2266 C2260 1.368 . S
C2266 C2265 1.523 . S
C2267 C2251 1.429 . S
C2267 C2263 1.429 . S
C2267 C2268 1.523 . S
C2268 C2252 1.368 . S
C2268 C2264 1.368 . S
C2268 C2267 1.523 . S
H2269 C2244 0.950 . S
H2270 C2246 0.950 . S
H2271 C2247 0.949 . S
H2272 C2249 0.950 . S
H2273 C2251 0.950 . S
C2274 C2275 1.324 1_455 S
C2274 C2276 1.327 . S
C2274 H2299 0.950 . S
C2275 C2274 1.324 1_655 S
C2275 C2291 1.356 . S
C2276 C2274 1.327 . S
C2276 C2295 1.429 . S
C2276 H2300 0.950 . S
C2277 C2294 1.574 . S
C2277 C2296 1.368 1_554 S
C2277 H2301 0.949 . S
H2278 C2282 0.949 . S
C2279 C2280 1.349 . S
C2279 C2281 1.327 . S
C2279 H2302 0.950 . S
C2280 C2279 1.349 . S
C2280 C2292 1.349 . S
C2281 C2279 1.327 . S
C2281 C2297 1.429 . S
C2281 H2303 0.950 . S
C2282 H2278 0.949 . S
C2282 C2290 1.574 . S
C2282 C2298 1.368 1_556 S
H2283 C2291 0.950 . S
H2284 C2289 0.950 1_655 S
H2285 C2290 0.949 . S
H2286 C2292 0.950 . S
H2287 C2293 0.950 . S
H2288 C2294 0.949 . S
C2289 H2284 0.950 1_455 S
C2289 C2291 1.327 1_455 S
C2289 C2295 1.429 . S
C2290 C2282 1.574 . S
C2290 H2285 0.949 . S
C2290 C2296 1.368 . S
C2291 C2275 1.356 . S
C2291 H2283 0.950 . S
C2291 C2289 1.327 1_655 S
C2292 C2280 1.349 . S
C2292 H2286 0.950 . S
C2292 C2293 1.327 . S
C2293 H2287 0.950 . S
C2293 C2292 1.327 . S
C2293 C2297 1.429 . S
C2294 C2277 1.574 . S
C2294 H2288 0.949 . S
C2294 C2298 1.368 . S
C2295 C2276 1.429 . S
C2295 C2289 1.429 . S
C2295 C2296 1.523 . S
C2296 C2277 1.368 1_556 S
C2296 C2290 1.368 . S
C2296 C2295 1.523 . S
C2297 C2281 1.429 . S
C2297 C2293 1.429 . S
C2297 C2298 1.523 . S
C2298 C2282 1.368 1_554 S
C2298 C2294 1.368 . S
C2298 C2297 1.523 . S
H2299 C2274 0.950 . S
H2300 C2276 0.950 . S
H2301 C2277 0.949 . S
H2302 C2279 0.950 . S
H2303 C2281 0.950 . S
C2304 C2305 1.349 . S
C2304 C2306 1.327 . S
C2304 H2329 0.950 . S
C2305 C2304 1.349 . S
C2305 C2321 1.349 . S
C2306 C2304 1.327 . S
C2306 C2325 1.429 . S
C2306 H2330 0.950 . S
C2307 C2324 1.574 . S
C2307 C2326 1.368 . S
C2307 H2331 0.949 . S
H2308 C2312 0.949 . S
C2309 C2310 1.349 . S
C2309 C2311 1.327 . S
C2309 H2332 0.950 . S
C2310 C2309 1.349 . S
C2310 C2322 1.349 . S
C2311 C2309 1.327 . S
C2311 C2327 1.429 . S
C2311 H2333 0.950 . S
C2312 H2308 0.949 . S
C2312 C2320 1.574 . S
C2312 C2328 1.368 . S
H2313 C2321 0.950 . S
H2314 C2319 0.950 . S
H2315 C2320 0.949 . S
H2316 C2322 0.950 . S
H2317 C2323 0.950 . S
H2318 C2324 0.949 . S
C2319 H2314 0.950 . S
C2319 C2321 1.327 . S
C2319 C2325 1.429 . S
C2320 C2312 1.574 . S
C2320 H2315 0.949 . S
C2320 C2326 1.368 . S
C2321 C2305 1.349 . S
C2321 H2313 0.950 . S
C2321 C2319 1.327 . S
C2322 C2310 1.349 . S
C2322 H2316 0.950 . S
C2322 C2323 1.327 . S
C2323 H2317 0.950 . S
C2323 C2322 1.327 . S
C2323 C2327 1.429 . S
C2324 C2307 1.574 . S
C2324 H2318 0.949 . S
C2324 C2328 1.368 . S
C2325 C2306 1.429 . S
C2325 C2319 1.429 . S
C2325 C2326 1.523 . S
C2326 C2307 1.368 . S
C2326 C2320 1.368 . S
C2326 C2325 1.523 . S
C2327 C2311 1.429 . S
C2327 C2323 1.429 . S
C2327 C2328 1.523 . S
C2328 C2312 1.368 . S
C2328 C2324 1.368 . S
C2328 C2327 1.523 . S
H2329 C2304 0.950 . S
H2330 C2306 0.950 . S
H2331 C2307 0.949 . S
H2332 C2309 0.950 . S
H2333 C2311 0.950 . S
C2334 C2335 1.349 . S
C2334 C2336 1.327 . S
C2334 H2359 0.950 . S
C2335 C2334 1.349 . S
C2335 C2351 1.349 . S
C2336 C2334 1.327 . S
C2336 C2355 1.429 . S
C2336 H2360 0.950 . S
C2337 C2354 1.574 . S
C2337 C2356 1.368 . S
C2337 H2361 0.949 . S
H2338 C2342 0.949 . S
C2339 C2340 1.349 . S
C2339 C2341 1.327 . S
C2339 H2362 0.950 . S
C2340 C2339 1.349 . S
C2340 C2352 1.349 . S
C2341 C2339 1.327 . S
C2341 C2357 1.429 . S
C2341 H2363 0.950 . S
C2342 H2338 0.949 . S
C2342 C2350 1.574 . S
C2342 C2358 1.368 . S
H2343 C2351 0.950 . S
H2344 C2349 0.950 . S
H2345 C2350 0.949 . S
H2346 C2352 0.950 . S
H2347 C2353 0.950 . S
H2348 C2354 0.949 . S
C2349 H2344 0.950 . S
C2349 C2351 1.327 . S
C2349 C2355 1.429 . S
C2350 C2342 1.574 . S
C2350 H2345 0.949 . S
C2350 C2356 1.368 . S
C2351 C2335 1.349 . S
C2351 H2343 0.950 . S
C2351 C2349 1.327 . S
C2352 C2340 1.349 . S
C2352 H2346 0.950 . S
C2352 C2353 1.327 . S
C2353 H2347 0.950 . S
C2353 C2352 1.327 . S
C2353 C2357 1.429 . S
C2354 C2337 1.574 . S
C2354 H2348 0.949 . S
C2354 C2358 1.368 . S
C2355 C2336 1.429 . S
C2355 C2349 1.429 . S
C2355 C2356 1.523 . S
C2356 C2337 1.368 . S
C2356 C2350 1.368 . S
C2356 C2355 1.523 . S
C2357 C2341 1.429 . S
C2357 C2353 1.429 . S
C2357 C2358 1.523 . S
C2358 C2342 1.368 . S
C2358 C2354 1.368 . S
C2358 C2357 1.523 . S
H2359 C2334 0.950 . S
H2360 C2336 0.950 . S
H2361 C2337 0.949 . S
H2362 C2339 0.950 . S
H2363 C2341 0.950 . S
C2364 C2365 1.349 . S
C2364 C2366 1.327 . S
C2364 H2389 0.950 . S
C2365 C2364 1.349 . S
C2365 C2381 1.349 . S
C2366 C2364 1.327 . S
C2366 C2385 1.429 . S
C2366 H2390 0.950 . S
C2367 C2384 1.574 . S
C2367 C2386 1.368 . S
C2367 H2391 0.949 . S
H2368 C2372 0.949 . S
C2369 C2370 1.349 . S
C2369 C2371 1.327 . S
C2369 H2392 0.950 . S
C2370 C2369 1.349 . S
C2370 C2382 1.349 . S
C2371 C2369 1.327 . S
C2371 C2387 1.429 . S
C2371 H2393 0.950 . S
C2372 H2368 0.949 . S
C2372 C2380 1.574 . S
C2372 C2388 1.368 . S
H2373 C2381 0.950 . S
H2374 C2379 0.950 . S
H2375 C2380 0.949 . S
H2376 C2382 0.950 . S
H2377 C2383 0.950 . S
H2378 C2384 0.949 . S
C2379 H2374 0.950 . S
C2379 C2381 1.327 . S
C2379 C2385 1.429 . S
C2380 C2372 1.574 . S
C2380 H2375 0.949 . S
C2380 C2386 1.368 . S
C2381 C2365 1.349 . S
C2381 H2373 0.950 . S
C2381 C2379 1.327 . S
C2382 C2370 1.349 . S
C2382 H2376 0.950 . S
C2382 C2383 1.327 . S
C2383 H2377 0.950 . S
C2383 C2382 1.327 . S
C2383 C2387 1.429 . S
C2384 C2367 1.574 . S
C2384 H2378 0.949 . S
C2384 C2388 1.368 . S
C2385 C2366 1.429 . S
C2385 C2379 1.429 . S
C2385 C2386 1.523 . S
C2386 C2367 1.368 . S
C2386 C2380 1.368 . S
C2386 C2385 1.523 . S
C2387 C2371 1.429 . S
C2387 C2383 1.429 . S
C2387 C2388 1.523 . S
C2388 C2372 1.368 . S
C2388 C2384 1.368 . S
C2388 C2387 1.523 . S
H2389 C2364 0.950 . S
H2390 C2366 0.950 . S
H2391 C2367 0.949 . S
H2392 C2369 0.950 . S
H2393 C2371 0.950 . S
C2394 C2395 1.349 . S
C2394 C2396 1.327 . S
C2394 H2419 0.950 . S
C2395 C2394 1.349 . S
C2395 C2411 1.349 . S
C2396 C2394 1.327 . S
C2396 C2415 1.429 . S
C2396 H2420 0.950 . S
C2397 C2414 1.574 . S
C2397 C2416 1.368 . S
C2397 H2421 0.949 . S
H2398 C2402 0.949 . S
C2399 C2400 1.349 . S
C2399 C2401 1.327 . S
C2399 H2422 0.950 . S
C2400 C2399 1.349 . S
C2400 C2412 1.349 . S
C2401 C2399 1.327 . S
C2401 C2417 1.429 . S
C2401 H2423 0.950 . S
C2402 H2398 0.949 . S
C2402 C2410 1.574 . S
C2402 C2418 1.368 . S
H2403 C2411 0.950 . S
H2404 C2409 0.950 . S
H2405 C2410 0.949 . S
H2406 C2412 0.950 . S
H2407 C2413 0.950 . S
H2408 C2414 0.949 . S
C2409 H2404 0.950 . S
C2409 C2411 1.327 . S
C2409 C2415 1.429 . S
C2410 C2402 1.574 . S
C2410 H2405 0.949 . S
C2410 C2416 1.368 . S
C2411 C2395 1.349 . S
C2411 H2403 0.950 . S
C2411 C2409 1.327 . S
C2412 C2400 1.349 . S
C2412 H2406 0.950 . S
C2412 C2413 1.327 . S
C2413 H2407 0.950 . S
C2413 C2412 1.327 . S
C2413 C2417 1.429 . S
C2414 C2397 1.574 . S
C2414 H2408 0.949 . S
C2414 C2418 1.368 . S
C2415 C2396 1.429 . S
C2415 C2409 1.429 . S
C2415 C2416 1.523 . S
C2416 C2397 1.368 . S
C2416 C2410 1.368 . S
C2416 C2415 1.523 . S
C2417 C2401 1.429 . S
C2417 C2413 1.429 . S
C2417 C2418 1.523 . S
C2418 C2402 1.368 . S
C2418 C2414 1.368 . S
C2418 C2417 1.523 . S
H2419 C2394 0.950 . S
H2420 C2396 0.950 . S
H2421 C2397 0.949 . S
H2422 C2399 0.950 . S
H2423 C2401 0.950 . S
C2424 C2425 1.349 . S
C2424 C2426 1.327 . S
C2424 H2449 0.950 . S
C2425 C2424 1.349 . S
C2425 C2441 1.349 . S
C2426 C2424 1.327 . S
C2426 C2445 1.429 . S
C2426 H2450 0.950 . S
C2427 C2444 1.574 . S
C2427 C2446 1.368 . S
C2427 H2451 0.949 . S
H2428 C2432 0.949 . S
C2429 C2430 1.349 . S
C2429 C2431 1.308 1_455 S
C2429 H2452 0.950 . S
C2430 C2429 1.349 . S
C2430 C2442 1.349 . S
C2431 C2429 1.308 1_655 S
C2431 C2447 1.426 . S
C2431 H2453 0.990 . S
C2432 H2428 0.949 . S
C2432 C2440 1.574 . S
C2432 C2448 1.368 . S
H2433 C2441 0.950 . S
H2434 C2439 0.950 . S
H2435 C2440 0.949 . S
H2436 C2442 0.950 . S
H2437 C2443 0.950 . S
H2438 C2444 0.949 . S
C2439 H2434 0.950 . S
C2439 C2441 1.327 . S
C2439 C2445 1.429 . S
C2440 C2432 1.574 . S
C2440 H2435 0.949 . S
C2440 C2446 1.368 . S
C2441 C2425 1.349 . S
C2441 H2433 0.950 . S
C2441 C2439 1.327 . S
C2442 C2430 1.349 . S
C2442 H2436 0.950 . S
C2442 C2443 1.327 . S
C2443 H2437 0.950 . S
C2443 C2442 1.327 . S
C2443 C2447 1.394 1_455 S
C2444 C2427 1.574 . S
C2444 H2438 0.949 . S
C2444 C2448 1.368 . S
C2445 C2426 1.429 . S
C2445 C2439 1.429 . S
C2445 C2446 1.523 . S
C2446 C2427 1.368 . S
C2446 C2440 1.368 . S
C2446 C2445 1.523 . S
C2447 C2431 1.426 . S
C2447 C2443 1.394 1_655 S
C2447 C2448 1.540 . S
C2448 C2432 1.368 . S
C2448 C2444 1.368 . S
C2448 C2447 1.540 . S
H2449 C2424 0.950 . S
H2450 C2426 0.950 . S
H2451 C2427 0.949 . S
H2452 C2429 0.950 . S
H2453 C2431 0.990 . S
C2454 C2455 1.349 . S
C2454 C2456 1.327 . S
C2454 H2479 0.950 . S
C2455 C2454 1.349 . S
C2455 C2471 1.349 . S
C2456 C2454 1.327 . S
C2456 C2475 1.429 . S
C2456 H2480 0.950 . S
C2457 C2474 1.574 . S
C2457 C2476 1.368 . S
C2457 H2481 0.949 . S
H2458 C2462 0.949 . S
C2459 C2460 1.349 . S
C2459 C2461 1.327 . S
C2459 H2482 0.950 . S
C2460 C2459 1.349 . S
C2460 C2472 1.349 . S
C2461 C2459 1.327 . S
C2461 C2477 1.429 . S
C2461 H2483 0.950 . S
C2462 H2458 0.949 . S
C2462 C2470 1.574 . S
C2462 C2478 1.368 . S
H2463 C2471 0.950 . S
H2464 C2469 0.950 . S
H2465 C2470 0.949 . S
H2466 C2472 0.950 . S
H2467 C2473 0.950 . S
H2468 C2474 0.949 . S
C2469 H2464 0.950 . S
C2469 C2471 1.327 . S
C2469 C2475 1.429 . S
C2470 C2462 1.574 . S
C2470 H2465 0.949 . S
C2470 C2476 1.368 . S
C2471 C2455 1.349 . S
C2471 H2463 0.950 . S
C2471 C2469 1.327 . S
C2472 C2460 1.349 . S
C2472 H2466 0.950 . S
C2472 C2473 1.327 . S
C2473 H2467 0.950 . S
C2473 C2472 1.327 . S
C2473 C2477 1.429 . S
C2474 C2457 1.574 . S
C2474 H2468 0.949 . S
C2474 C2478 1.368 . S
C2475 C2456 1.429 . S
C2475 C2469 1.429 . S
C2475 C2476 1.523 . S
C2476 C2457 1.368 . S
C2476 C2470 1.368 . S
C2476 C2475 1.523 . S
C2477 C2461 1.429 . S
C2477 C2473 1.429 . S
C2477 C2478 1.523 . S
C2478 C2462 1.368 . S
C2478 C2474 1.368 . S
C2478 C2477 1.523 . S
H2479 C2454 0.950 . S
H2480 C2456 0.950 . S
H2481 C2457 0.949 . S
H2482 C2459 0.950 . S
H2483 C2461 0.950 . S
C2484 C2485 1.349 . S
C2484 C2486 1.327 . S
C2484 H2509 0.950 . S
C2485 C2484 1.349 . S
C2485 C2501 1.349 . S
C2486 C2484 1.327 . S
C2486 C2505 1.429 . S
C2486 H2510 0.950 . S
C2487 C2504 1.574 . S
C2487 C2506 1.368 . S
C2487 H2511 0.949 . S
H2488 C2492 0.949 . S
C2489 C2490 1.349 . S
C2489 C2491 1.327 . S
C2489 H2512 0.950 . S
C2490 C2489 1.349 . S
C2490 C2502 1.349 . S
C2491 C2489 1.327 . S
C2491 C2507 1.429 . S
C2491 H2513 0.950 . S
C2492 H2488 0.949 . S
C2492 C2500 1.574 . S
C2492 C2508 1.368 . S
H2493 C2501 0.950 . S
H2494 C2499 0.950 . S
H2495 C2500 0.949 . S
H2496 C2502 0.950 . S
H2497 C2503 0.950 . S
H2498 C2504 0.949 . S
C2499 H2494 0.950 . S
C2499 C2501 1.327 . S
C2499 C2505 1.429 . S
C2500 C2492 1.574 . S
C2500 H2495 0.949 . S
C2500 C2506 1.368 . S
C2501 C2485 1.349 . S
C2501 H2493 0.950 . S
C2501 C2499 1.327 . S
C2502 C2490 1.349 . S
C2502 H2496 0.950 . S
C2502 C2503 1.327 . S
C2503 H2497 0.950 . S
C2503 C2502 1.327 . S
C2503 C2507 1.429 . S
C2504 C2487 1.574 . S
C2504 H2498 0.949 . S
C2504 C2508 1.368 . S
C2505 C2486 1.429 . S
C2505 C2499 1.429 . S
C2505 C2506 1.523 . S
C2506 C2487 1.368 . S
C2506 C2500 1.368 . S
C2506 C2505 1.523 . S
C2507 C2491 1.429 . S
C2507 C2503 1.429 . S
C2507 C2508 1.523 . S
C2508 C2492 1.368 . S
C2508 C2504 1.368 . S
C2508 C2507 1.523 . S
H2509 C2484 0.950 . S
H2510 C2486 0.950 . S
H2511 C2487 0.949 . S
H2512 C2489 0.950 . S
H2513 C2491 0.950 . S
C2514 C2515 1.349 . S
C2514 C2516 1.327 . S
C2514 H2539 0.950 . S
C2515 C2514 1.349 . S
C2515 C2531 1.349 . S
C2516 C2514 1.327 . S
C2516 C2535 1.429 . S
C2516 H2540 0.950 . S
C2517 C2534 1.574 . S
C2517 C2536 1.368 . S
C2517 H2541 0.949 . S
H2518 C2522 0.949 . S
C2519 C2520 1.349 . S
C2519 C2521 1.327 . S
C2519 H2542 0.950 . S
C2520 C2519 1.349 . S
C2520 C2532 1.349 . S
C2521 C2519 1.327 . S
C2521 C2537 1.429 . S
C2521 H2543 0.950 . S
C2522 H2518 0.949 . S
C2522 C2530 1.574 . S
C2522 C2538 1.368 . S
H2523 C2531 0.950 . S
H2524 C2529 0.950 . S
H2525 C2530 0.949 . S
H2526 C2532 0.950 . S
H2527 C2533 0.950 . S
H2528 C2534 0.949 . S
C2529 H2524 0.950 . S
C2529 C2531 1.327 . S
C2529 C2535 1.429 . S
C2530 C2522 1.574 . S
C2530 H2525 0.949 . S
C2530 C2536 1.368 . S
C2531 C2515 1.349 . S
C2531 H2523 0.950 . S
C2531 C2529 1.327 . S
C2532 C2520 1.349 . S
C2532 H2526 0.950 . S
C2532 C2533 1.327 . S
C2533 H2527 0.950 . S
C2533 C2532 1.327 . S
C2533 C2537 1.429 . S
C2534 C2517 1.574 . S
C2534 H2528 0.949 . S
C2534 C2538 1.368 . S
C2535 C2516 1.429 . S
C2535 C2529 1.429 . S
C2535 C2536 1.523 . S
C2536 C2517 1.368 . S
C2536 C2530 1.368 . S
C2536 C2535 1.523 . S
C2537 C2521 1.429 . S
C2537 C2533 1.429 . S
C2537 C2538 1.523 . S
C2538 C2522 1.368 . S
C2538 C2534 1.368 . S
C2538 C2537 1.523 . S
H2539 C2514 0.950 . S
H2540 C2516 0.950 . S
H2541 C2517 0.949 . S
H2542 C2519 0.950 . S
H2543 C2521 0.950 . S
C2544 C2545 1.349 . S
C2544 C2546 1.327 . S
C2544 H2569 0.950 . S
C2545 C2544 1.349 . S
C2545 C2561 1.349 . S
C2546 C2544 1.327 . S
C2546 C2565 1.429 . S
C2546 H2570 0.950 . S
C2547 C2564 1.574 . S
C2547 C2566 1.368 . S
C2547 H2571 0.949 . S
H2548 C2552 0.949 . S
C2549 C2550 1.349 1_556 S
C2549 C2551 1.327 . S
C2549 H2572 0.950 1_556 S
C2550 C2549 1.349 1_554 S
C2550 C2562 1.349 1_554 S
C2551 C2549 1.327 . S
C2551 C2567 1.429 . S
C2551 H2573 0.950 . S
C2552 H2548 0.949 . S
C2552 C2560 1.574 . S
C2552 C2568 1.368 . S
H2553 C2561 0.950 . S
H2554 C2559 0.950 . S
H2555 C2560 0.949 . S
H2556 C2562 0.951 1_554 S
H2557 C2563 0.950 . S
H2558 C2564 0.949 . S
C2559 H2554 0.950 . S
C2559 C2561 1.327 . S
C2559 C2565 1.429 . S
C2560 C2552 1.574 . S
C2560 H2555 0.949 . S
C2560 C2566 1.368 . S
C2561 C2545 1.349 . S
C2561 H2553 0.950 . S
C2561 C2559 1.327 . S
C2562 C2550 1.349 1_556 S
C2562 H2556 0.951 1_556 S
C2562 C2563 1.327 . S
C2563 H2557 0.950 . S
C2563 C2562 1.327 . S
C2563 C2567 1.429 . S
C2564 C2547 1.574 . S
C2564 H2558 0.949 . S
C2564 C2568 1.368 . S
C2565 C2546 1.429 . S
C2565 C2559 1.429 . S
C2565 C2566 1.523 . S
C2566 C2547 1.368 . S
C2566 C2560 1.368 . S
C2566 C2565 1.523 . S
C2567 C2551 1.429 . S
C2567 C2563 1.429 . S
C2567 C2568 1.523 . S
C2568 C2552 1.368 . S
C2568 C2564 1.368 . S
C2568 C2567 1.523 . S
H2569 C2544 0.950 . S
H2570 C2546 0.950 . S
H2571 C2547 0.949 . S
H2572 C2549 0.950 1_554 S
H2573 C2551 0.950 . S
C2574 C2575 1.349 . S
C2574 C2576 1.327 . S
C2574 H2599 0.950 . S
C2575 C2574 1.349 . S
C2575 C2591 1.349 . S
C2576 C2574 1.327 . S
C2576 C2595 1.429 . S
C2576 H2600 0.950 . S
C2577 C2594 1.574 . S
C2577 C2596 1.368 . S
C2577 H2601 0.949 . S
H2578 C2582 0.949 . S
C2579 C2580 1.349 . S
C2579 C2581 1.327 . S
C2579 H2602 0.950 . S
C2580 C2579 1.349 . S
C2580 C2592 1.349 . S
C2581 C2579 1.327 . S
C2581 C2597 1.429 1_556 S
C2581 H2603 0.950 1_556 S
C2582 H2578 0.949 . S
C2582 C2590 1.574 . S
C2582 C2598 1.368 . S
H2583 C2591 0.950 . S
H2584 C2589 0.950 . S
H2585 C2590 0.949 . S
H2586 C2592 0.950 . S
H2587 C2593 0.950 . S
H2588 C2594 0.949 . S
C2589 H2584 0.950 . S
C2589 C2591 1.327 . S
C2589 C2595 1.429 . S
C2590 C2582 1.574 . S
C2590 H2585 0.949 . S
C2590 C2596 1.368 . S
C2591 C2575 1.349 . S
C2591 H2583 0.950 . S
C2591 C2589 1.327 . S
C2592 C2580 1.349 . S
C2592 H2586 0.950 . S
C2592 C2593 1.327 . S
C2593 H2587 0.950 . S
C2593 C2592 1.327 . S
C2593 C2597 1.429 1_556 S
C2594 C2577 1.574 . S
C2594 H2588 0.949 . S
C2594 C2598 1.368 . S
C2595 C2576 1.429 . S
C2595 C2589 1.429 . S
C2595 C2596 1.523 . S
C2596 C2577 1.368 . S
C2596 C2590 1.368 . S
C2596 C2595 1.523 . S
C2597 C2581 1.429 1_554 S
C2597 C2593 1.429 1_554 S
C2597 C2598 1.523 . S
C2598 C2582 1.368 . S
C2598 C2594 1.368 . S
C2598 C2597 1.523 . S
H2599 C2574 0.950 . S
H2600 C2576 0.950 . S
H2601 C2577 0.949 . S
H2602 C2579 0.950 . S
H2603 C2581 0.950 1_554 S
C2604 C2605 1.349 . S
C2604 C2606 1.327 . S
C2604 H2629 0.950 . S
C2605 C2604 1.349 . S
C2605 C2621 1.349 . S
C2606 C2604 1.327 . S
C2606 C2625 1.429 . S
C2606 H2630 0.950 . S
C2607 C2624 1.574 . S
C2607 C2626 1.368 . S
C2607 H2631 0.949 . S
H2608 C2612 0.949 . S
C2609 C2610 1.349 . S
C2609 C2611 1.327 . S
C2609 H2632 0.950 . S
C2610 C2609 1.349 . S
C2610 C2622 1.349 . S
C2611 C2609 1.327 . S
C2611 C2627 1.429 . S
C2611 H2633 0.950 1_655 S
C2612 H2608 0.949 . S
C2612 C2620 1.570 1_655 S
C2612 C2628 1.376 . S
H2613 C2621 0.950 . S
H2614 C2619 0.950 . S
H2615 C2620 0.941 1_655 S
H2616 C2622 0.950 . S
H2617 C2623 0.950 . S
H2618 C2624 0.949 . S
C2619 H2614 0.950 . S
C2619 C2621 1.327 . S
C2619 C2625 1.429 . S
C2620 C2612 1.570 1_455 S
C2620 H2615 0.941 1_455 S
C2620 C2626 1.381 . S
C2621 C2605 1.349 . S
C2621 H2613 0.950 . S
C2621 C2619 1.327 . S
C2622 C2610 1.349 . S
C2622 H2616 0.950 . S
C2622 C2623 1.327 . S
C2623 H2617 0.950 . S
C2623 C2622 1.327 . S
C2623 C2627 1.429 . S
C2624 C2607 1.574 . S
C2624 H2618 0.949 . S
C2624 C2628 1.358 1_455 S
C2625 C2606 1.429 . S
C2625 C2619 1.429 . S
C2625 C2626 1.523 . S
C2626 C2607 1.368 . S
C2626 C2620 1.381 . S
C2626 C2625 1.523 . S
C2627 C2611 1.429 . S
C2627 C2623 1.429 . S
C2627 C2628 1.526 . S
C2628 C2612 1.376 . S
C2628 C2624 1.358 1_655 S
C2628 C2627 1.526 . S
H2629 C2604 0.950 . S
H2630 C2606 0.950 . S
H2631 C2607 0.949 . S
H2632 C2609 0.950 . S
H2633 C2611 0.950 1_455 S
C2634 C2635 1.349 . S
C2634 C2636 1.327 . S
C2634 H2659 0.950 . S
C2635 C2634 1.349 . S
C2635 C2651 1.349 . S
C2636 C2634 1.327 . S
C2636 C2655 1.429 . S
C2636 H2660 0.950 . S
C2637 C2654 1.574 . S
C2637 C2656 1.368 . S
C2637 H2661 0.949 . S
H2638 C2642 0.949 . S
C2639 C2640 1.349 . S
C2639 C2641 1.327 . S
C2639 H2662 0.950 . S
C2640 C2639 1.349 . S
C2640 C2652 1.349 . S
C2641 C2639 1.327 . S
C2641 C2657 1.429 . S
C2641 H2663 0.950 . S
C2642 H2638 0.949 . S
C2642 C2650 1.574 . S
C2642 C2658 1.368 . S
H2643 C2651 0.950 . S
H2644 C2649 0.950 . S
H2645 C2650 0.949 . S
H2646 C2652 0.950 . S
H2647 C2653 0.950 . S
H2648 C2654 0.949 . S
C2649 H2644 0.950 . S
C2649 C2651 1.327 . S
C2649 C2655 1.429 . S
C2650 C2642 1.574 . S
C2650 H2645 0.949 . S
C2650 C2656 1.368 . S
C2651 C2635 1.349 . S
C2651 H2643 0.950 . S
C2651 C2649 1.327 . S
C2652 C2640 1.349 . S
C2652 H2646 0.950 . S
C2652 C2653 1.327 . S
C2653 H2647 0.950 . S
C2653 C2652 1.327 . S
C2653 C2657 1.429 . S
C2654 C2637 1.574 . S
C2654 H2648 0.949 . S
C2654 C2658 1.368 . S
C2655 C2636 1.429 . S
C2655 C2649 1.429 . S
C2655 C2656 1.523 . S
C2656 C2637 1.368 . S
C2656 C2650 1.368 . S
C2656 C2655 1.523 . S
C2657 C2641 1.429 . S
C2657 C2653 1.429 . S
C2657 C2658 1.523 . S
C2658 C2642 1.368 . S
C2658 C2654 1.368 . S
C2658 C2657 1.523 . S
H2659 C2634 0.950 . S
H2660 C2636 0.950 . S
H2661 C2637 0.949 . S
H2662 C2639 0.950 . S
H2663 C2641 0.950 . S
C2664 C2665 1.349 . S
C2664 C2666 1.327 . S
C2664 H2689 0.950 . S
C2665 C2664 1.349 . S
C2665 C2681 1.349 . S
C2666 C2664 1.327 . S
C2666 C2685 1.429 . S
C2666 H2690 0.950 . S
C2667 C2684 1.574 . S
C2667 C2686 1.368 . S
C2667 H2691 0.949 . S
H2668 C2672 0.949 . S
C2669 C2670 1.349 . S
C2669 C2671 1.327 1_556 S
C2669 H2692 0.950 . S
C2670 C2669 1.349 . S
C2670 C2682 1.349 1_556 S
C2671 C2669 1.327 1_554 S
C2671 C2687 1.429 . S
C2671 H2693 0.950 . S
C2672 H2668 0.949 . S
C2672 C2680 1.574 . S
C2672 C2688 1.368 . S
H2673 C2681 0.950 . S
H2674 C2679 0.950 . S
H2675 C2680 0.949 . S
H2676 C2682 0.950 . S
H2677 C2683 0.950 . S
H2678 C2684 0.949 . S
C2679 H2674 0.950 . S
C2679 C2681 1.327 . S
C2679 C2685 1.429 . S
C2680 C2672 1.574 . S
C2680 H2675 0.949 . S
C2680 C2686 1.368 . S
C2681 C2665 1.349 . S
C2681 H2673 0.950 . S
C2681 C2679 1.327 . S
C2682 C2670 1.349 1_554 S
C2682 H2676 0.950 . S
C2682 C2683 1.327 . S
C2683 H2677 0.950 . S
C2683 C2682 1.327 . S
C2683 C2687 1.429 . S
C2684 C2667 1.574 . S
C2684 H2678 0.949 . S
C2684 C2688 1.368 . S
C2685 C2666 1.429 . S
C2685 C2679 1.429 . S
C2685 C2686 1.523 . S
C2686 C2667 1.368 . S
C2686 C2680 1.368 . S
C2686 C2685 1.523 . S
C2687 C2671 1.429 . S
C2687 C2683 1.429 . S
C2687 C2688 1.523 . S
C2688 C2672 1.368 . S
C2688 C2684 1.368 . S
C2688 C2687 1.523 . S
H2689 C2664 0.950 . S
H2690 C2666 0.950 . S
H2691 C2667 0.949 . S
H2692 C2669 0.950 . S
H2693 C2671 0.950 . S
C2694 C2695 1.349 . S
C2694 C2696 1.327 . S
C2694 H2719 0.950 . S
C2695 C2694 1.349 . S
C2695 C2711 1.349 . S
C2696 C2694 1.327 . S
C2696 C2715 1.429 1_554 S
C2696 H2720 0.950 . S
C2697 C2714 1.574 . S
C2697 C2716 1.368 . S
C2697 H2721 0.949 . S
H2698 C2702 0.949 . S
C2699 C2700 1.349 . S
C2699 C2701 1.327 . S
C2699 H2722 0.950 . S
C2700 C2699 1.349 . S
C2700 C2712 1.349 . S
C2701 C2699 1.327 . S
C2701 C2717 1.429 . S
C2701 H2723 0.950 . S
C2702 H2698 0.949 . S
C2702 C2710 1.574 . S
C2702 C2718 1.368 . S
H2703 C2711 0.950 . S
H2704 C2709 0.950 1_556 S
H2705 C2710 0.949 . S
H2706 C2712 0.950 . S
H2707 C2713 0.950 . S
H2708 C2714 0.949 . S
C2709 H2704 0.950 1_554 S
C2709 C2711 1.327 . S
C2709 C2715 1.429 1_554 S
C2710 C2702 1.574 . S
C2710 H2705 0.949 . S
C2710 C2716 1.368 . S
C2711 C2695 1.349 . S
C2711 H2703 0.950 . S
C2711 C2709 1.327 . S
C2712 C2700 1.349 . S
C2712 H2706 0.950 . S
C2712 C2713 1.327 . S
C2713 H2707 0.950 . S
C2713 C2712 1.327 . S
C2713 C2717 1.429 . S
C2714 C2697 1.574 . S
C2714 H2708 0.949 . S
C2714 C2718 1.368 . S
C2715 C2696 1.429 1_556 S
C2715 C2709 1.429 1_556 S
C2715 C2716 1.523 . S
C2716 C2697 1.368 . S
C2716 C2710 1.368 . S
C2716 C2715 1.523 . S
C2717 C2701 1.429 . S
C2717 C2713 1.429 . S
C2717 C2718 1.523 . S
C2718 C2702 1.368 . S
C2718 C2714 1.368 . S
C2718 C2717 1.523 . S
H2719 C2694 0.950 . S
H2720 C2696 0.950 . S
H2721 C2697 0.949 . S
H2722 C2699 0.950 . S
H2723 C2701 0.950 . S
C2724 C2725 1.349 . S
C2724 C2726 1.327 . S
C2724 H2749 0.950 . S
C2725 C2724 1.349 . S
C2725 C2741 1.349 . S
C2726 C2724 1.327 . S
C2726 C2745 1.429 . S
C2726 H2750 0.950 . S
C2727 C2744 1.574 . S
C2727 C2746 1.368 . S
C2727 H2751 0.949 . S
H2728 C2732 0.949 . S
C2729 C2730 1.349 . S
C2729 C2731 1.327 . S
C2729 H2752 0.950 . S
C2730 C2729 1.349 . S
C2730 C2742 1.349 . S
C2731 C2729 1.327 . S
C2731 C2747 1.429 . S
C2731 H2753 0.950 . S
C2732 H2728 0.949 . S
C2732 C2740 1.574 . S
C2732 C2748 1.368 . S
H2733 C2741 0.950 . S
H2734 C2739 0.950 . S
H2735 C2740 0.949 . S
H2736 C2742 0.950 . S
H2737 C2743 0.950 . S
H2738 C2744 0.949 . S
C2739 H2734 0.950 . S
C2739 C2741 1.327 . S
C2739 C2745 1.429 . S
C2740 C2732 1.574 . S
C2740 H2735 0.949 . S
C2740 C2746 1.368 . S
C2741 C2725 1.349 . S
C2741 H2733 0.950 . S
C2741 C2739 1.327 . S
C2742 C2730 1.349 . S
C2742 H2736 0.950 . S
C2742 C2743 1.327 . S
C2743 H2737 0.950 . S
C2743 C2742 1.327 . S
C2743 C2747 1.429 . S
C2744 C2727 1.574 . S
C2744 H2738 0.949 . S
C2744 C2748 1.368 . S
C2745 C2726 1.429 . S
C2745 C2739 1.429 . S
C2745 C2746 1.523 . S
C2746 C2727 1.368 . S
C2746 C2740 1.368 . S
C2746 C2745 1.523 . S
C2747 C2731 1.429 . S
C2747 C2743 1.429 . S
C2747 C2748 1.523 . S
C2748 C2732 1.368 . S
C2748 C2744 1.368 . S
C2748 C2747 1.523 . S
H2749 C2724 0.950 . S
H2750 C2726 0.950 . S
H2751 C2727 0.949 . S
H2752 C2729 0.950 . S
H2753 C2731 0.950 . S
C2754 C2755 1.349 . S
C2754 C2756 1.327 . S
C2754 H2779 0.950 . S
C2755 C2754 1.349 . S
C2755 C2771 1.349 . S
C2756 C2754 1.327 . S
C2756 C2775 1.429 . S
C2756 H2780 0.950 . S
C2757 C2774 1.574 . S
C2757 C2776 1.368 . S
C2757 H2781 0.949 . S
H2758 C2762 0.949 . S
C2759 C2760 1.349 . S
C2759 C2761 1.327 . S
C2759 H2782 0.950 . S
C2760 C2759 1.349 . S
C2760 C2772 1.349 . S
C2761 C2759 1.327 . S
C2761 C2777 1.429 . S
C2761 H2783 0.950 . S
C2762 H2758 0.949 . S
C2762 C2770 1.574 . S
C2762 C2778 1.368 . S
H2763 C2771 0.950 . S
H2764 C2769 0.950 . S
H2765 C2770 0.949 . S
H2766 C2772 0.950 . S
H2767 C2773 0.950 . S
H2768 C2774 0.949 . S
C2769 H2764 0.950 . S
C2769 C2771 1.327 . S
C2769 C2775 1.429 . S
C2770 C2762 1.574 . S
C2770 H2765 0.949 . S
C2770 C2776 1.368 . S
C2771 C2755 1.349 . S
C2771 H2763 0.950 . S
C2771 C2769 1.327 . S
C2772 C2760 1.349 . S
C2772 H2766 0.950 . S
C2772 C2773 1.327 . S
C2773 H2767 0.950 . S
C2773 C2772 1.327 . S
C2773 C2777 1.429 . S
C2774 C2757 1.574 . S
C2774 H2768 0.949 . S
C2774 C2778 1.368 . S
C2775 C2756 1.429 . S
C2775 C2769 1.429 . S
C2775 C2776 1.523 . S
C2776 C2757 1.368 . S
C2776 C2770 1.368 . S
C2776 C2775 1.523 . S
C2777 C2761 1.429 . S
C2777 C2773 1.429 . S
C2777 C2778 1.523 . S
C2778 C2762 1.368 . S
C2778 C2774 1.368 . S
C2778 C2777 1.523 . S
H2779 C2754 0.950 . S
H2780 C2756 0.950 . S
H2781 C2757 0.949 . S
H2782 C2759 0.950 . S
H2783 C2761 0.950 . S
C1345 C72 0.860 . S
C1350 C660 0.832 . S
C1375 C156 2.409 . S
C1380 C392 2.730 . S
C1405 C476 0.600 . S
C1410 C240 0.727 . S
C1435 C308 3.099 . S
C1440 C560 3.113 . S
C1465 C987 0.832 . S
C1470 C399 0.866 . S
C1495 C735 2.409 . S
C1500 C67 2.759 . S
C1525 C907 0.600 . S
C1530 C567 0.727 . S
C1555 C235 3.113 . S
C1560 C823 3.099 . S
C1585 C828 0.832 . S
C1590 C1080 0.860 . S
C1615 C912 2.409 . S
C1620 C1232 2.730 . S
C1645 C1164 0.727 . S
C1650 C728 0.600 . S
C1675 C980 3.099 . S
C1680 C1316 3.116 1_554 S
C1705 C1239 0.860 . S
C1710 C315 0.832 . S
C1735 C1075 2.729 . S
C1740 C483 2.409 . S
C1765 C151 0.600 . S
C1770 C1323 0.727 . S
C1795 C655 3.099 . S
C1800 C1159 3.112 1_556 S
C1825 C1167 0.301 . S
C1830 C75 0.751 . S
C1855 C990 0.782 . S
C1860 C159 0.776 . S
C1885 C1083 0.751 . S
C1890 C243 0.301 . S
C1915 C915 0.776 . S
C1920 C318 0.782 . S
C1945 C402 0.751 . S
C1950 C1326 0.296 1_655 S
C1975 C831 0.782 . S
C1980 C486 0.776 . S
C2005 C570 0.301 . S
C2010 C1242 0.751 . S
C2035 C663 0.782 . S
C2040 C738 0.776 . S
C2065 C66 1.828 . S
C2070 C411 1.828 . S
C2095 C150 1.274 . S
C2100 C495 1.274 . S
C2125 C579 1.077 . S
C2130 C234 1.077 . S
C2155 C327 1.080 . S
C2160 C654 1.080 . S
C2185 C906 1.274 . S
C2190 C747 1.274 . S
C2215 C999 1.080 . S
C2220 C822 1.080 . S
C2245 C1074 1.828 . S
C2250 C1251 1.828 . S
C2275 C1335 1.084 . S
C2280 C1158 1.073 . S
C2305 C56 2.815 . S
C2310 C644 2.785 . S
C2335 C140 0.713 . S
C2340 C408 0.711 . S
C2365 C492 2.055 . S
C2370 C224 2.055 . S
C2395 C576 0.372 . S
C2400 C324 0.485 . S
C2425 C991 2.785 . S
C2430 C403 2.815 . S
C2455 C739 0.713 . S
C2460 C63 0.711 . S
C2485 C903 2.055 . S
C2490 C571 2.055 . S
C2515 C231 0.372 . S
C2520 C819 0.485 . S
C2545 C1064 2.815 . S
C2550 C812 2.785 . S
C2575 C1248 0.711 . S
C2580 C896 0.712 . S
C2605 C1148 2.055 . S
C2610 C744 2.055 . S
C2635 C1332 0.373 . S
C2640 C996 0.489 . S
C2665 C1243 2.815 . S
C2670 C319 2.785 . S
C2695 C487 0.712 . S
C2700 C1071 0.711 . S
C2725 C147 2.055 . S
C2730 C1327 2.052 . S
C2755 C1155 0.372 . S
C2760 C651 0.485 . S
