# Generated by pormake.
# Topology oof, (8)-cn, num edge types: 1
# Building blocks:
#     Node 0, Type 0, BuildingBlock: TAGTUT_clean_sbu_3, # of connection points: 8
#     Node 1, Type 0, BuildingBlock: TAGTUT_clean_sbu_3, # of connection points: 8
#     Node 2, Type 0, BuildingBlock: TAGTUT_clean_sbu_3, # of connection points: 8
#     Node 3, Type 0, BuildingBlock: TAGTUT_clean_sbu_3, # of connection points: 8
#     Edge 4, Type (0, 0), BuildingBlock: FUNLAD_clean_linker_0, # of connection points: 2
#     Edge 5, Type (0, 0), BuildingBlock: FUNLAD_clean_linker_0, # of connection points: 2
#     Edge 6, Type (0, 0), BuildingBlock: FUNLAD_clean_linker_0, # of connection points: 2
#     Edge 7, Type (0, 0), BuildingBlock: FUNLAD_clean_linker_0, # of connection points: 2
#     Edge 8, Type (0, 0), BuildingBlock: FUNLAD_clean_linker_0, # of connection points: 2
#     Edge 9, Type (0, 0), BuildingBlock: FUNLAD_clean_linker_0, # of connection points: 2
#     Edge 10, Type (0, 0), BuildingBlock: FUNLAD_clean_linker_0, # of connection points: 2
#     Edge 11, Type (0, 0), BuildingBlock: FUNLAD_clean_linker_0, # of connection points: 2
#     Edge 12, Type (0, 0), BuildingBlock: FUNLAD_clean_linker_0, # of connection points: 2
#     Edge 13, Type (0, 0), BuildingBlock: FUNLAD_clean_linker_0, # of connection points: 2
#     Edge 14, Type (0, 0), BuildingBlock: FUNLAD_clean_linker_0, # of connection points: 2
#     Edge 15, Type (0, 0), BuildingBlock: FUNLAD_clean_linker_0, # of connection points: 2
#     Edge 16, Type (0, 0), BuildingBlock: FUNLAD_clean_linker_0, # of connection points: 2
#     Edge 17, Type (0, 0), BuildingBlock: FUNLAD_clean_linker_0, # of connection points: 2
#     Edge 18, Type (0, 0), BuildingBlock: FUNLAD_clean_linker_0, # of connection points: 2
#     Edge 19, Type (0, 0), BuildingBlock: FUNLAD_clean_linker_0, # of connection points: 2
# Relax obj value: 0.062
# Max RMSD: 0.154
# Mean RMSD: 0.154
data_MOF--net-oof--node1-TAGTUT_clean_sbu_3--edge1-FUNLAD_clean_linker_0
_symmetry_space_group_name_H-M    P1
_symmetry_Int_Tables_number       1
_symmetry_cell_setting            triclinic
loop_
_symmetry_equiv_pos_as_xyz
'x, y, z'
_cell_length_a     18.132042
_cell_length_b     71.362625
_cell_length_c     17.731409
_cell_angle_alpha  89.883105
_cell_angle_beta   86.676095
_cell_angle_gamma 90.080214
loop_
_atom_site_label
_atom_site_type_symbol
_atom_site_fract_x
_atom_site_fract_y
_atom_site_fract_z
_atom_type_partial_charge
C0 C 0.15133 0.16375 0.23475 0.0
C1 C -0.00315 0.22423 0.27239 0.0
C2 C 0.84018 0.1959 0.13318 0.0
Mg3 Mg 0.10574 0.12023 0.20908 0.0
Mg4 Mg 0.94466 0.10448 0.27265 0.0
O5 O -0.00507 0.12236 0.21392 0.0
Mg6 Mg 0.98185 0.14978 0.23743 0.0
O7 O 0.97684 0.17753 0.25487 0.0
Mg8 Mg 0.02153 0.18679 0.15599 0.0
Mg9 Mg 0.89129 0.18976 0.29358 0.0
C10 C 0.81353 0.13201 0.24095 0.0
O11 O 0.95108 0.14668 0.36374 0.0
O12 O 0.09285 0.08932 0.16536 0.0
O13 O 0.87359 0.17094 0.39072 0.0
O14 O 0.1095 0.10718 0.33028 0.0
O15 O 0.97907 0.08032 0.20849 0.0
O16 O -0.00578 0.10282 0.3781 0.0
O17 O 0.01121 0.15578 0.11427 0.0
O18 O 0.09534 0.13325 0.09058 0.0
C19 C 0.0563 0.14704 0.06848 0.0
C20 C 0.04065 0.07705 0.17179 0.0
O21 O 0.85721 0.14577 0.223 0.0
O22 O 0.02864 0.21626 0.21402 0.0
O23 O 0.83623 0.1162 0.26519 0.0
O24 O 0.9084 0.1944 0.11156 0.0
O25 O 0.94361 0.21641 0.31155 0.0
O26 O 0.81811 0.19338 0.20222 0.0
O27 O 0.1047 0.15085 0.25325 0.0
O28 O 0.13174 0.17864 0.20108 0.0
C29 C 0.06379 0.10217 0.38453 0.0
C30 C 0.90709 0.15587 0.40967 0.0
C31 C 0.05454 0.88069 0.57289 0.0
C32 C 0.05496 0.9516 0.67059 0.0
C33 C 0.07231 0.92671 0.88364 0.0
Mg34 Mg 0.01255 0.84194 0.66566 0.0
Mg35 Mg 0.88367 0.84191 0.8048 0.0
O36 O 0.97222 0.85241 0.76424 0.0
Mg37 Mg 0.98151 0.87986 0.74249 0.0
O38 O -0.00148 0.90697 0.71491 0.0
Mg39 Mg 0.10981 0.90762 0.70986 0.0
Mg40 Mg 0.95176 0.92568 0.77256 0.0
C41 C 0.90683 0.87617 0.91583 0.0
O42 O 0.85727 0.88494 0.72915 0.0
O43 O 0.01426 0.81283 0.72823 0.0
O44 O 0.84031 0.91486 0.76802 0.0
O45 O 0.89626 0.83542 0.62458 0.0
O46 O 0.92876 0.8146 0.82515 0.0
O47 O 0.80804 0.83926 0.71598 0.0
O48 O 0.10464 0.87741 0.7565 0.0
O49 O 0.1264 0.84924 0.70596 0.0
C50 C 0.14927 0.86417 0.73696 0.0
C51 C 0.98018 0.80575 0.7875 0.0
O52 O 0.95305 0.88437 0.86872 0.0
O53 O 0.10265 0.93827 0.66378 0.0
O54 O 0.87002 0.86147 0.89905 0.0
O55 O 0.11663 0.92106 0.82949 0.0
O56 O -0.00725 0.94958 0.70803 0.0
O57 O 0.00257 0.92678 0.87771 0.0
O58 O 0.00783 0.87277 0.61981 0.0
O59 O 0.09634 0.89413 0.59324 0.0
C60 C 0.82804 0.83545 0.64748 0.0
C61 C 0.81526 0.89903 0.74622 0.0
C62 C 0.57006 0.6495 0.06095 0.0
C63 C 0.56728 0.57936 0.16202 0.0
C64 C 0.58038 0.60402 0.37505 0.0
Mg65 Mg 0.52944 0.68863 0.14849 0.0
Mg66 Mg 0.40048 0.69068 0.28771 0.0
O67 O 0.48718 0.6791 0.24812 0.0
Mg68 Mg 0.49524 0.65142 0.22987 0.0
O69 O 0.51167 0.62415 0.2051 0.0
Mg70 Mg 0.62279 0.62317 0.20126 0.0
Mg71 Mg 0.46296 0.60543 0.26102 0.0
C72 C 0.42043 0.65673 0.40273 0.0
O73 O 0.37088 0.64642 0.21518 0.0
O74 O 0.53308 0.71816 0.20568 0.0
O75 O 0.35261 0.61644 0.25353 0.0
O76 O 0.41432 0.69504 0.10573 0.0
O77 O 0.44912 0.71793 0.30415 0.0
O78 O 0.32543 0.69307 0.19762 0.0
O79 O 0.61829 0.65361 0.24568 0.0
O80 O 0.64182 0.68138 0.19158 0.0
C81 C 0.66357 0.66669 0.22524 0.0
C82 C 0.50087 0.72607 0.26392 0.0
O83 O 0.46504 0.64786 0.35632 0.0
O84 O 0.61552 0.5926 0.15629 0.0
O85 O 0.38584 0.67169 0.38454 0.0
O86 O 0.62645 0.60966 0.3221 0.0
O87 O 0.5043 0.58148 0.19777 0.0
O88 O 0.51094 0.60426 0.36732 0.0
O89 O 0.52332 0.65764 0.10684 0.0
O90 O 0.61166 0.63622 0.08297 0.0
C91 C 0.34611 0.69574 0.12829 0.0
C92 C 0.32833 0.63232 0.2314 0.0
C93 C 0.53033 0.38228 0.57888 0.0
C94 C 0.52217 0.45336 0.67075 0.0
C95 C 0.55611 0.43005 0.88438 0.0
Mg96 Mg 0.49634 0.34342 0.67226 0.0
Mg97 Mg 0.3717 0.34228 0.81426 0.0
O98 O 0.45866 0.35347 0.77248 0.0
Mg99 Mg 0.46417 0.38109 0.75068 0.0
O100 O 0.47685 0.40834 0.7226 0.0
Mg101 Mg 0.58766 0.41022 0.71122 0.0
Mg102 Mg 0.42966 0.42697 0.77982 0.0
C103 C 0.39364 0.37681 0.92455 0.0
O104 O 0.33958 0.38509 0.74299 0.0
O105 O 0.50295 0.31419 0.73314 0.0
O106 O 0.32061 0.41472 0.78489 0.0
O107 O 0.37989 0.33626 0.63475 0.0
O108 O 0.41997 0.31519 0.83246 0.0
O109 O 0.29314 0.33925 0.72789 0.0
O110 O 0.58796 0.37984 0.75874 0.0
O111 O 0.61009 0.35161 0.7082 0.0
C112 C 0.63285 0.36685 0.73698 0.0
C113 C 0.47118 0.30675 0.7929 0.0
O114 O 0.43828 0.38534 0.87683 0.0
O115 O 0.57361 0.44091 0.66477 0.0
O116 O 0.35847 0.36178 0.90855 0.0
O117 O 0.59898 0.42399 0.82979 0.0
O118 O 0.46118 0.45049 0.70933 0.0
O119 O 0.48617 0.4302 0.88052 0.0
O120 O 0.48717 0.37415 0.62842 0.0
O121 O 0.57039 0.39638 0.59585 0.0
C122 C 0.31216 0.33579 0.65888 0.0
C123 C 0.29676 0.39867 0.7644 0.0
C124 C -0.00568 0.16113 0.95969 0.0
C125 C 0.05205 0.15031 0.98657 0.0
C126 C 0.98096 0.16121 0.88302 0.0
C127 C 0.0253 0.15051 0.83176 0.0
C128 C 0.08645 0.14094 0.85761 0.0
C129 C 0.09948 0.14071 0.93442 0.0
C130 C 0.00891 0.1489 0.7513 0.0
C131 C 0.93968 0.14946 0.72757 0.0
C132 C 0.92424 0.1483 0.6467 0.0
C133 C 0.86498 0.15852 0.62022 0.0
C134 C 0.85557 0.1599 0.54277 0.0
C135 C 0.90489 0.15086 0.49067 0.0
H136 H 0.0137 0.12922 0.61404 0.0
C137 C 0.95994 0.13923 0.51792 0.0
C138 C 0.96944 0.13791 0.59517 0.0
H139 H -0.00107 0.13207 0.47958 0.0
H140 H 0.95713 0.16885 -0.00185 0.0
H141 H 0.93524 0.16942 0.8644 0.0
H142 H 0.12228 0.13291 0.8188 0.0
H143 H 0.1449 0.13239 0.95319 0.0
H144 H 0.05541 0.14663 0.71096 0.0
H145 H 0.89315 0.1518 0.7678 0.0
H146 H 0.82849 0.16634 0.65913 0.0
H147 H 0.8121 0.16883 0.52369 0.0
C148 C -0.014 0.86851 0.46504 0.0
C149 C 0.04895 0.87732 0.49137 0.0
C150 C 0.97263 0.86895 0.38837 0.0
C151 C 0.02227 0.87811 0.33671 0.0
C152 C 0.0881 0.88547 0.36208 0.0
C153 C 0.10115 0.88522 0.43883 0.0
C154 C 0.0067 0.88044 0.25636 0.0
C155 C 0.93783 0.88249 0.23295 0.0
C156 C 0.92329 0.88421 0.15207 0.0
C157 C 0.86012 0.87569 0.12556 0.0
C158 C 0.8513 0.87436 0.04806 0.0
C159 C 0.9052 0.88176 -0.00399 0.0
H160 H 0.02108 0.9006 0.11947 0.0
C161 C 0.96446 0.89196 0.0231 0.0
C162 C 0.97341 0.89321 0.10046 0.0
H163 H 0.00691 0.89786 0.98471 0.0
H164 H 0.94499 0.86215 0.50394 0.0
H165 H 0.92284 0.86242 0.37003 0.0
H166 H 0.12788 0.89223 0.32294 0.0
H167 H 0.15059 0.89193 0.45729 0.0
H168 H 0.05386 0.88106 0.21573 0.0
H169 H 0.8905 0.88179 0.27333 0.0
H170 H 0.81998 0.86901 0.16453 0.0
H171 H 0.8045 0.86661 0.02896 0.0
C172 C 0.50493 0.66259 0.95227 0.0
C173 C 0.56493 0.6526 0.97906 0.0
C174 C 0.4912 0.66233 0.87569 0.0
C175 C 0.53742 0.65212 0.82443 0.0
C176 C 0.60057 0.64342 0.85015 0.0
C177 C 0.61402 0.64354 0.92686 0.0
C178 C 0.52113 0.65016 0.74406 0.0
C179 C 0.45185 0.64992 0.72043 0.0
C180 C 0.4367 0.64867 0.63953 0.0
C181 C 0.37654 0.65853 0.61307 0.0
C182 C 0.36754 0.66002 0.5356 0.0
C183 C 0.4182 0.65145 0.48345 0.0
H184 H 0.5283 0.63025 0.60681 0.0
C185 C 0.47411 0.64008 0.51059 0.0
C186 C 0.48324 0.63866 0.58791 0.0
H187 H 0.51397 0.63324 0.47219 0.0
H188 H 0.46638 0.66989 0.99077 0.0
H189 H 0.44379 0.6699 0.85716 0.0
H190 H 0.63783 0.6358 0.81133 0.0
H191 H 0.66115 0.63587 0.94555 0.0
H192 H 0.56791 0.64838 0.7036 0.0
H193 H 0.40497 0.65177 0.76067 0.0
H194 H 0.33905 0.66603 0.65205 0.0
H195 H 0.32331 0.66871 0.51658 0.0
C196 C 0.34871 0.37283 0.05958 0.0
C197 C 0.39088 0.3829 0.00407 0.0
C198 C 0.35956 0.37567 0.1359 0.0
C199 C 0.4121 0.38877 0.15757 0.0
C200 C 0.44866 0.40009 0.10289 0.0
C201 C 0.43876 0.39704 0.02665 0.0
C202 C 0.43516 0.38971 0.23554 0.0
C203 C 0.44642 0.37408 0.27565 0.0
C204 C 0.47752 0.37467 0.35052 0.0
C205 C 0.45423 0.36138 0.40501 0.0
C206 C 0.47608 0.36298 0.47878 0.0
C207 C 0.52204 0.37784 0.4988 0.0
H208 H 0.55089 0.39833 0.32669 0.0
C209 C 0.55107 0.39002 0.44229 0.0
C210 C 0.529 0.38845 0.36869 0.0
H211 H 0.58761 0.40142 0.45555 0.0
H212 H 0.31061 0.36197 0.04421 0.0
H213 H 0.32915 0.36713 0.17763 0.0
H214 H 0.48913 0.41032 0.11884 0.0
H215 H 0.47253 0.40486 0.98555 0.0
H216 H 0.44993 0.40335 0.25719 0.0
H217 H 0.43162 0.36046 0.2536 0.0
H218 H 0.41605 0.35034 0.39155 0.0
H219 H 0.45394 0.35316 0.52077 0.0
C220 C 0.70233 0.15208 0.22677 0.0
C221 C 0.7334 0.13427 0.23518 0.0
C222 C 0.62595 0.15417 0.22641 0.0
C223 C 0.57943 0.13841 0.23468 0.0
C224 C 0.61056 0.12056 0.23975 0.0
C225 C 0.6868 0.11849 0.24052 0.0
C226 C 0.49834 0.14005 0.23738 0.0
C227 C 0.46267 0.15518 0.26555 0.0
C228 C 0.38197 0.1571 0.26419 0.0
C229 C 0.35267 0.17486 0.25146 0.0
C230 C 0.27736 0.177 0.24316 0.0
C231 C 0.22986 0.16141 0.24876 0.0
H232 H 0.35523 0.1278 0.28574 0.0
C233 C 0.25862 0.14376 0.26581 0.0
C234 C 0.33427 0.14159 0.27327 0.0
H235 H 0.22319 0.13157 0.27162 0.0
H236 H 0.73677 0.16443 0.22188 0.0
H237 H 0.60377 0.16809 0.21932 0.0
H238 H 0.57574 0.10821 0.24493 0.0
H239 H 0.70904 0.10451 0.246 0.0
H240 H 0.46734 0.12827 0.21667 0.0
H241 H 0.4934 0.167 0.28621 0.0
H242 H 0.38845 0.18702 0.24529 0.0
H243 H 0.25657 0.19086 0.2314 0.0
C244 C 0.70411 0.881 0.70994 0.0
C245 C 0.73446 0.89694 0.74264 0.0
C246 C 0.62766 0.87877 0.70948 0.0
C247 C 0.58008 0.89251 0.74177 0.0
C248 C 0.61033 0.90872 0.77198 0.0
C249 C 0.6867 0.9109 0.77286 0.0
C250 C 0.49878 0.89057 0.74357 0.0
C251 C 0.46458 0.87384 0.7479 0.0
C252 C 0.38333 0.87167 0.74856 0.0
C253 C 0.35462 0.85477 0.72278 0.0
C254 C 0.27861 0.85228 0.71998 0.0
C255 C 0.2295 0.86663 0.74361 0.0
H256 H 0.35412 0.8988 0.79762 0.0
C257 C 0.25807 0.88333 0.77194 0.0
C258 C 0.33426 0.88584 0.77457 0.0
H259 H 0.22173 0.89453 0.79169 0.0
H260 H 0.73929 0.87029 0.68419 0.0
H261 H 0.60626 0.86643 0.68286 0.0
H262 H 0.57477 0.9196 0.79629 0.0
H263 H 0.70811 0.92344 0.7981 0.0
H264 H 0.46671 0.90339 0.74292 0.0
H265 H 0.49718 0.86109 0.74888 0.0
H266 H 0.39119 0.84356 0.70331 0.0
H267 H 0.25853 0.83915 0.69848 0.0
C268 C 0.77195 0.64732 0.25941 0.0
C269 C 0.74345 0.66432 0.23379 0.0
C270 C 0.84811 0.6449 0.26254 0.0
C271 C 0.89703 0.65947 0.24 0.0
C272 C 0.86834 0.67668 0.21762 0.0
C273 C 0.79242 0.67907 0.21411 0.0
C274 C 0.97815 0.65732 0.23908 0.0
C275 C 0.01221 0.64076 0.22824 0.0
C276 C 0.09342 0.63881 0.22586 0.0
C277 C 0.12353 0.62199 0.25055 0.0
C278 C 0.19982 0.61982 0.2515 0.0
C279 C 0.24768 0.63441 0.22678 0.0
H280 H 0.11968 0.6661 0.17629 0.0
C281 C 0.21746 0.65099 0.19914 0.0
C282 C 0.14105 0.65321 0.19868 0.0
H283 H 0.2527 0.66226 0.1778 0.0
H284 H 0.73567 0.6358 0.27613 0.0
H285 H 0.86817 0.63166 0.28296 0.0
H286 H 0.90486 0.68819 0.201 0.0
H287 H 0.7723 0.69245 0.19503 0.0
H288 H 0.0107 0.66998 0.24486 0.0
H289 H 0.98002 0.62805 0.22263 0.0
H290 H 0.0879 0.61061 0.27076 0.0
H291 H 0.22107 0.60677 0.27259 0.0
C292 C 0.7414 0.38589 0.7718 0.0
C293 C 0.71289 0.37009 0.73656 0.0
C294 C 0.8174 0.38904 0.76909 0.0
C295 C 0.86587 0.37637 0.73113 0.0
C296 C 0.8373 0.36074 0.69529 0.0
C297 C 0.7616 0.35752 0.69841 0.0
C298 C 0.94639 0.37914 0.7263 0.0
C299 C 0.98225 0.38747 0.78121 0.0
C300 C 0.06311 0.38987 0.77648 0.0
C301 C 0.09339 0.40507 0.81377 0.0
C302 C 0.1694 0.40801 0.8093 0.0
C303 C 0.21649 0.39564 0.76803 0.0
H304 H 0.08908 0.365 0.70905 0.0
C305 C 0.18626 0.38023 0.73175 0.0
C306 C 0.11027 0.37727 0.73632 0.0
H307 H 0.22113 0.37053 0.69938 0.0
H308 H 0.70514 0.39587 0.80114 0.0
H309 H 0.8377 0.40155 0.79541 0.0
H310 H 0.87373 0.35089 0.6653 0.0
H311 H 0.74139 0.34527 0.6701 0.0
H312 H 0.97684 0.3736 0.67675 0.0
H313 H 0.95169 0.39308 0.83059 0.0
H314 H 0.0581 0.41482 0.84567 0.0
H315 H 0.19118 0.41992 0.83865 0.0
C316 C 0.27684 0.32647 0.52963 0.0
C317 C 0.25654 0.32915 0.60667 0.0
C318 C 0.22946 0.3173 0.48232 0.0
C319 C 0.16068 0.3104 0.51109 0.0
C320 C 0.13811 0.31437 0.5866 0.0
C321 C 0.18549 0.32362 0.63398 0.0
C322 C 0.11262 0.29835 0.46563 0.0
C323 C 0.1389 0.28776 0.40683 0.0
C324 C 0.09547 0.27322 0.36794 0.0
C325 C 0.12693 0.26502 0.30155 0.0
C326 C 0.0932 0.24972 0.26806 0.0
C327 C 0.02708 0.24215 0.30042 0.0
H328 H 0.00114 0.27172 0.44969 0.0
C329 C -0.00624 0.25089 0.36483 0.0
C330 C 0.02745 0.26617 0.3983 0.0
H331 H 0.94277 0.24549 0.39142 0.0
H332 H 0.33053 0.33092 0.50613 0.0
H333 H 0.2478 0.3154 0.42372 0.0
H334 H 0.08493 0.30954 0.61009 0.0
H335 H 0.16769 0.32562 0.69278 0.0
H336 H 0.05511 0.29722 0.4854 0.0
H337 H 0.19678 0.28889 0.38821 0.0
H338 H 0.17923 0.27008 0.27667 0.0
H339 H 0.12059 0.24339 0.21856 0.0
C340 C 0.56288 0.28016 0.78958 0.0
C341 C 0.49829 0.28855 0.82156 0.0
C342 C 0.59318 0.26436 0.82326 0.0
C343 C 0.55961 0.25662 0.89011 0.0
C344 C 0.49283 0.2644 0.9192 0.0
C345 C 0.46267 0.28014 0.88566 0.0
C346 C 0.59312 0.24117 0.93377 0.0
C347 C 0.66445 0.23583 0.92457 0.0
C348 C 0.70143 0.22281 0.97645 0.0
C349 C 0.76961 0.21501 0.95169 0.0
C350 C 0.8123 0.20517 0.00151 0.0
C351 C 0.7882 0.20296 0.07788 0.0
H352 H 0.62355 0.22559 0.07404 0.0
C353 C 0.7179 0.20972 0.10182 0.0
C354 C 0.67506 0.21962 0.05182 0.0
H355 H 0.69764 0.20831 0.16023 0.0
H356 H 0.59146 0.28614 0.73981 0.0
H357 H 0.64326 0.25855 0.79696 0.0
H358 H 0.46502 0.25869 0.96994 0.0
H359 H 0.41242 0.28604 0.91162 0.0
H360 H 0.55828 0.2348 0.97862 0.0
H361 H 0.69944 0.24186 0.87915 0.0
H362 H 0.79141 0.21716 0.89411 0.0
H363 H 0.86586 0.20002 0.9807 0.0
C364 C 0.49433 0.75345 0.35306 0.0
C365 C 0.52897 0.7444 0.29008 0.0
C366 C 0.52604 0.76934 0.38425 0.0
C367 C 0.59373 0.77651 0.35353 0.0
C368 C 0.62588 0.76813 0.28789 0.0
C369 C 0.59409 0.75226 0.2566 0.0
C370 C 0.63456 0.792 0.38954 0.0
C371 C 0.6241 0.79682 0.46309 0.0
C372 C 0.67369 0.80962 0.50364 0.0
C373 C 0.65025 0.81596 0.57617 0.0
C374 C 0.69883 0.82547 0.62138 0.0
C375 C 0.77244 0.82873 0.5953 0.0
H376 H 0.76751 0.8092 0.42107 0.0
C377 C 0.79461 0.82344 0.52102 0.0
C378 C 0.7461 0.81394 0.47586 0.0
H379 H 0.85076 0.82579 0.49877 0.0
H380 H 0.44347 0.74799 0.37973 0.0
H381 H 0.4975 0.77571 0.43285 0.0
H382 H 0.6775 0.77343 0.26227 0.0
H383 H 0.62221 0.74577 0.20785 0.0
H384 H 0.67847 0.79863 0.35495 0.0
H385 H 0.5799 0.79026 0.49752 0.0
H386 H 0.59488 0.81291 0.59923 0.0
H387 H 0.67959 0.82943 0.67809 0.0
C388 C 0.21874 0.70632 0.09759 0.0
C389 C 0.29171 0.70172 0.07351 0.0
C390 C 0.17177 0.71497 0.04799 0.0
C391 C 0.197 0.71926 0.97315 0.0
C392 C 0.26788 0.7133 0.94782 0.0
C393 C 0.3147 0.70469 -0.00275 0.0
C394 C 0.15388 0.73081 0.92085 0.0
C395 C 0.09875 0.74247 0.94431 0.0
C396 C 0.06463 0.75663 0.8951 0.0
C397 C -0.00354 0.76441 0.91985 0.0
C398 C 0.96711 0.77964 0.88214 0.0
C399 C 0.00553 0.78766 0.81877 0.0
H400 H 0.15488 0.75876 0.809 0.0
C401 C 0.07206 0.77932 0.79151 0.0
C402 C 0.10147 0.76401 0.82933 0.0
H403 H 0.10338 0.78517 0.74317 0.0
H404 H 0.19872 0.70394 0.15558 0.0
H405 H 0.11654 0.71854 0.06931 0.0
H406 H 0.28859 0.71608 0.89032 0.0
H407 H 0.37011 0.70107 0.97617 0.0
H408 H 0.17244 0.73073 0.86155 0.0
H409 H 0.07943 0.74251 0.00333 0.0
H410 H 0.96679 0.75908 0.97025 0.0
H411 H 0.91552 0.78557 0.90472 0.0
C412 C 0.12234 0.05044 0.1241 0.0
C413 C 0.0515 0.05803 0.13949 0.0
C414 C 0.13074 0.03167 0.10135 0.0
C415 C 0.06817 0.02024 0.09318 0.0
C416 C -0.0022 0.02814 0.10636 0.0
C417 C -0.01049 0.04669 0.12934 0.0
C418 C 0.07165 1.00018 0.07011 0.0
C419 C 0.13313 0.98958 0.06118 0.0
C420 C 0.12872 0.97016 0.03136 0.0
C421 C 0.18134 0.96403 0.97573 0.0
C422 C 0.16774 0.94803 0.93295 0.0
C423 C 0.1012 0.938 0.94543 0.0
H424 H 0.02792 0.96245 0.09609 0.0
C425 C 0.05401 0.94266 0.00824 0.0
C426 C 0.0678 0.95855 0.05103 0.0
H427 H 0.00299 0.93502 0.02026 0.0
H428 H 0.1712 0.05882 0.1317 0.0
H429 H 0.18604 0.02629 0.09076 0.0
H430 H 0.94848 0.01984 0.09989 0.0
H431 H 0.93407 0.05208 0.1401 0.0
H432 H 0.01915 0.99379 0.058 0.0
H433 H 0.18726 0.99554 0.06855 0.0
H434 H 0.22956 0.97252 0.96063 0.0
H435 H 0.20557 0.94477 0.88528 0.0
C436 C 0.15237 0.07938 0.43605 0.0
C437 C 0.09 0.09094 0.44789 0.0
C438 C 0.16245 0.06392 0.48309 0.0
C439 C 0.11071 0.05993 0.54325 0.0
C440 C 0.05403 0.07286 0.56056 0.0
C441 C 0.04327 0.08812 0.51298 0.0
C442 C 0.1089 0.0417 0.58419 0.0
C443 C 0.13075 0.02543 0.55126 0.0
C444 C 0.1122 1.00671 0.58452 0.0
C445 C 0.15683 0.99121 0.56461 0.0
C446 C 0.13833 0.97326 0.59188 0.0
C447 C 0.0739 0.97038 0.6386 0.0
H448 H 0.00995 1.01519 0.64498 0.0
C449 C 0.02864 0.98588 0.65732 0.0
C450 C 0.04745 1.00379 0.63069 0.0
H451 H 0.97851 0.98426 0.693 0.0
H452 H 0.18958 0.0812 0.38653 0.0
H453 H 0.20856 0.05464 0.46988 0.0
H454 H 0.01415 0.07033 0.60739 0.0
H455 H -0.0051 0.0968 0.52386 0.0
H456 H 0.08045 0.0414 0.63979 0.0
H457 H 0.15964 0.02559 0.4959 0.0
H458 H 0.20631 0.993 0.52804 0.0
H459 H 0.17444 0.96165 0.57619 0.0
C460 C 0.5419 0.54503 0.15099 0.0
C461 C 0.58653 0.56059 0.13092 0.0
C462 C 0.56101 0.52714 0.12514 0.0
C463 C 0.62537 0.5243 0.0784 0.0
C464 C 0.66936 0.53985 0.05709 0.0
C465 C 0.65062 0.5578 0.0837 0.0
C466 C 0.64341 0.50557 0.04572 0.0
C467 C 0.62309 0.48944 0.08089 0.0
C468 C 0.61921 0.47134 0.0403 0.0
C469 C 0.55941 0.45943 0.05934 0.0
C470 C 0.54268 0.44463 0.01203 0.0
C471 C 0.58682 0.44105 0.94587 0.0
H472 H 0.71562 0.47532 0.96352 0.0
C473 C 0.65194 0.45155 0.93183 0.0
C474 C 0.66771 0.46671 0.97834 0.0
H475 H 0.68707 0.44918 0.88124 0.0
H476 H 0.49209 0.54661 0.18715 0.0
H477 H 0.52395 0.51567 0.14038 0.0
H478 H 0.71844 0.53811 0.01996 0.0
H479 H 0.68618 0.56948 0.06698 0.0
H480 H 0.66898 0.50525 0.98881 0.0
H481 H 0.59802 0.48995 0.13801 0.0
H482 H 0.52162 0.46257 0.10724 0.0
H483 H 0.49179 0.437 0.02416 0.0
C484 C 0.60564 0.47893 0.61563 0.0
C485 C 0.53433 0.47226 0.63692 0.0
C486 C 0.61644 0.49756 0.59148 0.0
C487 C 0.55585 0.50984 0.58786 0.0
C488 C 0.48473 0.50289 0.60703 0.0
C489 C 0.47408 0.48445 0.63138 0.0
C490 C 0.5623 0.52981 0.56322 0.0
C491 C 0.62566 0.53966 0.55187 0.0
C492 C 0.62496 0.55914 0.52149 0.0
C493 C 0.67948 0.56477 0.46662 0.0
C494 C 0.67023 0.58116 0.42448 0.0
C495 C 0.60624 0.59215 0.43687 0.0
H496 H 0.52546 0.56804 0.58545 0.0
C497 C 0.55725 0.58783 0.49887 0.0
C498 C 0.56659 0.57152 0.5409 0.0
H499 H 0.50804 0.59616 0.51072 0.0
H500 H 0.65331 0.46992 0.61948 0.0
H501 H 0.67209 0.50215 0.57597 0.0
H502 H 0.43681 0.51187 0.60419 0.0
H503 H 0.41829 0.47984 0.64687 0.0
H504 H 0.51063 0.53677 0.55253 0.0
H505 H 0.67872 0.53306 0.55846 0.0
H506 H 0.72588 0.55569 0.45174 0.0
H507 H 0.70921 0.58409 0.37729 0.0
loop_
_geom_bond_atom_site_label_1
_geom_bond_atom_site_label_2
_geom_bond_distance
_geom_bond_site_symmetry_2
_ccdc_geom_bond_type
C0 O27 1.312 . S
C0 O28 1.208 . S
C1 O22 1.331 . S
C1 O25 1.244 . S
C2 O24 1.264 . S
C2 O26 1.273 . S
Mg3 O5 1.936 1_455 S
Mg3 O12 2.081 . S
Mg3 O14 2.023 . S
Mg3 O18 2.031 . S
Mg3 O27 2.291 . S
Mg4 O5 1.963 . S
Mg4 O15 1.942 . S
Mg4 O16 1.955 . S
Mg4 O23 1.986 . S
O5 Mg3 1.936 1_655 S
O5 Mg4 1.963 . S
O5 Mg6 1.915 . S
Mg6 O5 1.915 . S
Mg6 O7 1.915 1_655 S
Mg6 O11 2.013 . S
Mg6 O17 2.114 1_655 S
Mg6 O21 2.013 . S
Mg6 O27 2.114 1_655 S
O7 Mg6 1.915 1_455 S
O7 Mg8 1.936 . S
O7 Mg9 1.963 1_455 S
Mg8 O7 1.936 . S
Mg8 O17 2.291 . S
Mg8 O22 2.081 . S
Mg8 O24 2.023 1_455 S
Mg8 O28 2.031 . S
Mg9 O7 1.963 1_655 S
Mg9 O13 1.986 . S
Mg9 O25 1.942 1_655 S
Mg9 O26 1.955 . S
C10 O21 1.191 . S
C10 O23 1.307 . S
O11 Mg6 2.013 . S
O11 C30 1.191 . S
O12 Mg3 2.081 . S
O12 C20 1.331 1_455 S
O13 Mg9 1.986 . S
O13 C30 1.307 . S
O14 Mg3 2.023 . S
O14 C29 1.264 . S
O15 Mg4 1.942 . S
O15 C20 1.244 . S
O16 Mg4 1.955 . S
O16 C29 1.273 1_655 S
O17 Mg6 2.114 1_455 S
O17 Mg8 2.291 . S
O17 C19 1.312 . S
O18 Mg3 2.031 . S
O18 C19 1.208 . S
C19 O17 1.312 . S
C19 O18 1.208 . S
C20 O12 1.331 1_655 S
C20 O15 1.244 . S
O21 Mg6 2.013 . S
O21 C10 1.191 . S
O22 C1 1.331 . S
O22 Mg8 2.081 . S
O23 Mg4 1.986 . S
O23 C10 1.307 . S
O24 C2 1.264 . S
O24 Mg8 2.023 1_655 S
O25 C1 1.244 . S
O25 Mg9 1.942 1_455 S
O26 C2 1.273 . S
O26 Mg9 1.955 . S
O27 C0 1.312 . S
O27 Mg3 2.291 . S
O27 Mg6 2.114 1_455 S
O28 C0 1.208 . S
O28 Mg8 2.031 . S
C29 O14 1.264 . S
C29 O16 1.273 1_455 S
C30 O11 1.191 . S
C30 O13 1.307 . S
C31 O58 1.312 . S
C31 O59 1.208 . S
C32 O53 1.331 1_655 S
C32 O56 1.244 . S
C33 O55 1.264 . S
C33 O57 1.273 1_455 S
Mg34 O36 1.936 . S
Mg34 O43 2.081 . S
Mg34 O45 2.023 1_455 S
Mg34 O49 2.031 . S
Mg34 O58 2.291 . S
Mg35 O36 1.963 1_655 S
Mg35 O46 1.942 1_655 S
Mg35 O47 1.955 . S
Mg35 O54 1.986 . S
O36 Mg34 1.936 . S
O36 Mg35 1.963 1_455 S
O36 Mg37 1.915 1_455 S
Mg37 O36 1.915 1_655 S
Mg37 O38 1.915 . S
Mg37 O42 2.013 . S
Mg37 O48 2.114 1_655 S
Mg37 O52 2.013 . S
Mg37 O58 2.114 1_655 S
O38 Mg37 1.915 . S
O38 Mg39 1.936 1_655 S
O38 Mg40 1.963 . S
Mg39 O38 1.936 1_455 S
Mg39 O48 2.291 . S
Mg39 O53 2.081 . S
Mg39 O55 2.023 . S
Mg39 O59 2.031 . S
Mg40 O38 1.963 . S
Mg40 O44 1.986 . S
Mg40 O56 1.942 . S
Mg40 O57 1.955 . S
C41 O52 1.191 . S
C41 O54 1.307 . S
O42 Mg37 2.013 . S
O42 C61 1.191 . S
O43 Mg34 2.081 . S
O43 C51 1.331 . S
O44 Mg40 1.986 . S
O44 C61 1.307 . S
O45 Mg34 2.023 1_655 S
O45 C60 1.264 . S
O46 Mg35 1.942 1_455 S
O46 C51 1.244 . S
O47 Mg35 1.955 . S
O47 C60 1.273 . S
O48 Mg37 2.114 1_455 S
O48 Mg39 2.291 . S
O48 C50 1.312 . S
O49 Mg34 2.031 . S
O49 C50 1.208 . S
C50 O48 1.312 . S
C50 O49 1.208 . S
C51 O43 1.331 . S
C51 O46 1.244 . S
O52 Mg37 2.013 . S
O52 C41 1.191 . S
O53 C32 1.331 1_455 S
O53 Mg39 2.081 . S
O54 Mg35 1.986 . S
O54 C41 1.307 . S
O55 C33 1.264 . S
O55 Mg39 2.023 . S
O56 C32 1.244 . S
O56 Mg40 1.942 . S
O57 C33 1.273 1_655 S
O57 Mg40 1.955 . S
O58 C31 1.312 . S
O58 Mg34 2.291 . S
O58 Mg37 2.114 1_455 S
O59 C31 1.208 . S
O59 Mg39 2.031 . S
C60 O45 1.264 . S
C60 O47 1.273 . S
C61 O42 1.191 . S
C61 O44 1.307 . S
C62 O89 1.312 . S
C62 O90 1.208 . S
C63 O84 1.331 . S
C63 O87 1.244 . S
C64 O86 1.264 . S
C64 O88 1.273 . S
Mg65 O67 1.936 . S
Mg65 O74 2.081 . S
Mg65 O76 2.023 . S
Mg65 O80 2.031 . S
Mg65 O89 2.291 . S
Mg66 O67 1.963 . S
Mg66 O77 1.942 . S
Mg66 O78 1.955 . S
Mg66 O85 1.986 . S
O67 Mg65 1.936 . S
O67 Mg66 1.963 . S
O67 Mg68 1.915 . S
Mg68 O67 1.915 . S
Mg68 O69 1.915 . S
Mg68 O73 2.013 . S
Mg68 O79 2.114 . S
Mg68 O83 2.013 . S
Mg68 O89 2.114 . S
O69 Mg68 1.915 . S
O69 Mg70 1.936 . S
O69 Mg71 1.963 . S
Mg70 O69 1.936 . S
Mg70 O79 2.291 . S
Mg70 O84 2.081 . S
Mg70 O86 2.023 . S
Mg70 O90 2.031 . S
Mg71 O69 1.963 . S
Mg71 O75 1.986 . S
Mg71 O87 1.942 . S
Mg71 O88 1.955 . S
C72 O83 1.191 . S
C72 O85 1.307 . S
O73 Mg68 2.013 . S
O73 C92 1.191 . S
O74 Mg65 2.081 . S
O74 C82 1.331 . S
O75 Mg71 1.986 . S
O75 C92 1.307 . S
O76 Mg65 2.023 . S
O76 C91 1.264 . S
O77 Mg66 1.942 . S
O77 C82 1.244 . S
O78 Mg66 1.955 . S
O78 C91 1.273 . S
O79 Mg68 2.114 . S
O79 Mg70 2.291 . S
O79 C81 1.312 . S
O80 Mg65 2.031 . S
O80 C81 1.208 . S
C81 O79 1.312 . S
C81 O80 1.208 . S
C82 O74 1.331 . S
C82 O77 1.244 . S
O83 Mg68 2.013 . S
O83 C72 1.191 . S
O84 C63 1.331 . S
O84 Mg70 2.081 . S
O85 Mg66 1.986 . S
O85 C72 1.307 . S
O86 C64 1.264 . S
O86 Mg70 2.023 . S
O87 C63 1.244 . S
O87 Mg71 1.942 . S
O88 C64 1.273 . S
O88 Mg71 1.955 . S
O89 C62 1.312 . S
O89 Mg65 2.291 . S
O89 Mg68 2.114 . S
O90 C62 1.208 . S
O90 Mg70 2.031 . S
C91 O76 1.264 . S
C91 O78 1.273 . S
C92 O73 1.191 . S
C92 O75 1.307 . S
C93 O120 1.312 . S
C93 O121 1.208 . S
C94 O115 1.331 . S
C94 O118 1.244 . S
C95 O117 1.264 . S
C95 O119 1.273 . S
Mg96 O98 1.936 . S
Mg96 O105 2.081 . S
Mg96 O107 2.023 . S
Mg96 O111 2.031 . S
Mg96 O120 2.291 . S
Mg97 O98 1.963 . S
Mg97 O108 1.942 . S
Mg97 O109 1.955 . S
Mg97 O116 1.986 . S
O98 Mg96 1.936 . S
O98 Mg97 1.963 . S
O98 Mg99 1.915 . S
Mg99 O98 1.915 . S
Mg99 O100 1.915 . S
Mg99 O104 2.013 . S
Mg99 O110 2.114 . S
Mg99 O114 2.013 . S
Mg99 O120 2.114 . S
O100 Mg99 1.915 . S
O100 Mg101 1.936 . S
O100 Mg102 1.963 . S
Mg101 O100 1.936 . S
Mg101 O110 2.291 . S
Mg101 O115 2.081 . S
Mg101 O117 2.023 . S
Mg101 O121 2.031 . S
Mg102 O100 1.963 . S
Mg102 O106 1.986 . S
Mg102 O118 1.942 . S
Mg102 O119 1.955 . S
C103 O114 1.191 . S
C103 O116 1.307 . S
O104 Mg99 2.013 . S
O104 C123 1.191 . S
O105 Mg96 2.081 . S
O105 C113 1.331 . S
O106 Mg102 1.986 . S
O106 C123 1.307 . S
O107 Mg96 2.023 . S
O107 C122 1.264 . S
O108 Mg97 1.942 . S
O108 C113 1.244 . S
O109 Mg97 1.955 . S
O109 C122 1.273 . S
O110 Mg99 2.114 . S
O110 Mg101 2.291 . S
O110 C112 1.312 . S
O111 Mg96 2.031 . S
O111 C112 1.208 . S
C112 O110 1.312 . S
C112 O111 1.208 . S
C113 O105 1.331 . S
C113 O108 1.244 . S
O114 Mg99 2.013 . S
O114 C103 1.191 . S
O115 C94 1.331 . S
O115 Mg101 2.081 . S
O116 Mg97 1.986 . S
O116 C103 1.307 . S
O117 C95 1.264 . S
O117 Mg101 2.023 . S
O118 C94 1.244 . S
O118 Mg102 1.942 . S
O119 C95 1.273 . S
O119 Mg102 1.955 . S
O120 C93 1.312 . S
O120 Mg96 2.291 . S
O120 Mg99 2.114 . S
O121 C93 1.208 . S
O121 Mg101 2.031 . S
C122 O107 1.264 . S
C122 O109 1.273 . S
C123 O104 1.191 . S
C123 O106 1.307 . S
C124 C125 1.386 1_656 S
C124 C126 1.383 . S
C124 H140 0.951 1_556 S
C125 C124 1.386 1_454 S
C125 C129 1.383 1_554 S
C126 C124 1.383 . S
C126 C127 1.402 1_655 S
C126 H141 0.951 . S
C127 C126 1.402 1_455 S
C127 C128 1.375 . S
C127 C130 1.481 . S
C128 C127 1.375 . S
C128 C129 1.367 . S
C128 H142 0.951 . S
C129 C125 1.383 1_556 S
C129 C128 1.367 . S
C129 H143 0.950 1_556 S
C130 C127 1.481 . S
C130 C131 1.297 1_455 S
C130 H144 0.950 . S
C131 C130 1.297 1_655 S
C131 C132 1.479 . S
C131 H145 0.950 . S
C132 C131 1.479 . S
C132 C133 1.375 . S
C132 C138 1.404 1_655 S
C133 C132 1.375 . S
C133 C134 1.369 . S
C133 H146 0.950 . S
C134 C133 1.369 . S
C134 C135 1.392 . S
C134 H147 0.951 . S
C135 C134 1.392 . S
C135 C137 1.384 1_655 S
H136 C138 0.949 . S
C137 C135 1.384 1_455 S
C137 C138 1.385 . S
C137 H139 0.950 . S
C138 C132 1.404 1_455 S
C138 H136 0.949 . S
C138 C137 1.385 . S
H139 C137 0.950 . S
H140 C124 0.951 1_554 S
H141 C126 0.951 . S
H142 C128 0.951 . S
H143 C129 0.950 1_554 S
H144 C130 0.950 . S
H145 C131 0.950 . S
H146 C133 0.950 . S
H147 C134 0.951 . S
C148 C149 1.386 1_655 S
C148 C150 1.383 . S
C148 H164 0.951 . S
C149 C148 1.386 1_455 S
C149 C153 1.383 . S
C150 C148 1.383 . S
C150 C151 1.402 1_655 S
C150 H165 0.951 . S
C151 C150 1.402 1_455 S
C151 C152 1.375 . S
C151 C154 1.481 . S
C152 C151 1.375 . S
C152 C153 1.367 . S
C152 H166 0.951 . S
C153 C149 1.383 . S
C153 C152 1.367 . S
C153 H167 0.950 . S
C154 C151 1.481 . S
C154 C155 1.297 1_455 S
C154 H168 0.950 . S
C155 C154 1.297 1_655 S
C155 C156 1.479 . S
C155 H169 0.950 . S
C156 C155 1.479 . S
C156 C157 1.375 . S
C156 C162 1.404 1_655 S
C157 C156 1.375 . S
C157 C158 1.369 . S
C157 H170 0.950 . S
C158 C157 1.369 . S
C158 C159 1.392 1_554 S
C158 H171 0.951 . S
C159 C158 1.392 1_556 S
C159 C161 1.384 1_656 S
H160 C162 0.949 . S
C161 C159 1.384 1_454 S
C161 C162 1.385 . S
C161 H163 0.950 1_554 S
C162 C156 1.404 1_455 S
C162 H160 0.949 . S
C162 C161 1.385 . S
H163 C161 0.950 1_556 S
H164 C148 0.951 . S
H165 C150 0.951 . S
H166 C152 0.951 . S
H167 C153 0.950 . S
H168 C154 0.950 . S
H169 C155 0.950 . S
H170 C157 0.950 . S
H171 C158 0.951 . S
C172 C173 1.386 1_556 S
C172 C174 1.383 . S
C172 H188 0.951 . S
C173 C172 1.386 1_554 S
C173 C177 1.383 1_554 S
C174 C172 1.383 . S
C174 C175 1.402 . S
C174 H189 0.951 . S
C175 C174 1.402 . S
C175 C176 1.375 . S
C175 C178 1.481 . S
C176 C175 1.375 . S
C176 C177 1.367 . S
C176 H190 0.951 . S
C177 C173 1.383 1_556 S
C177 C176 1.367 . S
C177 H191 0.950 1_556 S
C178 C175 1.481 . S
C178 C179 1.297 . S
C178 H192 0.950 . S
C179 C178 1.297 . S
C179 C180 1.479 . S
C179 H193 0.950 . S
C180 C179 1.479 . S
C180 C181 1.375 . S
C180 C186 1.404 . S
C181 C180 1.375 . S
C181 C182 1.369 . S
C181 H194 0.950 . S
C182 C181 1.369 . S
C182 C183 1.392 . S
C182 H195 0.951 . S
C183 C182 1.392 . S
C183 C185 1.384 . S
H184 C186 0.949 . S
C185 C183 1.384 . S
C185 C186 1.385 . S
C185 H187 0.950 . S
C186 C180 1.404 . S
C186 H184 0.949 . S
C186 C185 1.385 . S
H187 C185 0.950 . S
H188 C172 0.951 . S
H189 C174 0.951 . S
H190 C176 0.951 . S
H191 C177 0.950 1_554 S
H192 C178 0.950 . S
H193 C179 0.950 . S
H194 C181 0.950 . S
H195 C182 0.951 . S
C196 C197 1.386 1_554 S
C196 C198 1.383 . S
C196 H212 0.951 . S
C197 C196 1.386 1_556 S
C197 C201 1.383 1_556 S
C198 C196 1.383 . S
C198 C199 1.402 . S
C198 H213 0.951 . S
C199 C198 1.402 . S
C199 C200 1.375 . S
C199 C202 1.481 . S
C200 C199 1.375 . S
C200 C201 1.367 . S
C200 H214 0.951 . S
C201 C197 1.383 1_554 S
C201 C200 1.367 . S
C201 H215 0.950 1_554 S
C202 C199 1.481 . S
C202 C203 1.297 . S
C202 H216 0.950 . S
C203 C202 1.297 . S
C203 C204 1.479 . S
C203 H217 0.950 . S
C204 C203 1.479 . S
C204 C205 1.375 . S
C204 C210 1.404 . S
C205 C204 1.375 . S
C205 C206 1.369 . S
C205 H218 0.950 . S
C206 C205 1.369 . S
C206 C207 1.392 . S
C206 H219 0.951 . S
C207 C206 1.392 . S
C207 C209 1.384 . S
H208 C210 0.949 . S
C209 C207 1.384 . S
C209 C210 1.385 . S
C209 H211 0.950 . S
C210 C204 1.404 . S
C210 H208 0.949 . S
C210 C209 1.385 . S
H211 C209 0.950 . S
H212 C196 0.951 . S
H213 C198 0.951 . S
H214 C200 0.951 . S
H215 C201 0.950 1_556 S
H216 C202 0.950 . S
H217 C203 0.950 . S
H218 C205 0.950 . S
H219 C206 0.951 . S
C220 C221 1.386 . S
C220 C222 1.383 . S
C220 H236 0.951 . S
C221 C220 1.386 . S
C221 C225 1.383 . S
C222 C220 1.383 . S
C222 C223 1.402 . S
C222 H237 0.951 . S
C223 C222 1.402 . S
C223 C224 1.375 . S
C223 C226 1.481 . S
C224 C223 1.375 . S
C224 C225 1.367 . S
C224 H238 0.951 . S
C225 C221 1.383 . S
C225 C224 1.367 . S
C225 H239 0.950 . S
C226 C223 1.481 . S
C226 C227 1.297 . S
C226 H240 0.950 . S
C227 C226 1.297 . S
C227 C228 1.479 . S
C227 H241 0.950 . S
C228 C227 1.479 . S
C228 C229 1.375 . S
C228 C234 1.404 . S
C229 C228 1.375 . S
C229 C230 1.369 . S
C229 H242 0.950 . S
C230 C229 1.369 . S
C230 C231 1.392 . S
C230 H243 0.951 . S
C231 C230 1.392 . S
C231 C233 1.384 . S
H232 C234 0.949 . S
C233 C231 1.384 . S
C233 C234 1.385 . S
C233 H235 0.950 . S
C234 C228 1.404 . S
C234 H232 0.949 . S
C234 C233 1.385 . S
H235 C233 0.950 . S
H236 C220 0.951 . S
H237 C222 0.951 . S
H238 C224 0.951 . S
H239 C225 0.950 . S
H240 C226 0.950 . S
H241 C227 0.950 . S
H242 C229 0.950 . S
H243 C230 0.951 . S
C244 C245 1.386 . S
C244 C246 1.383 . S
C244 H260 0.951 . S
C245 C244 1.386 . S
C245 C249 1.383 . S
C246 C244 1.383 . S
C246 C247 1.402 . S
C246 H261 0.951 . S
C247 C246 1.402 . S
C247 C248 1.375 . S
C247 C250 1.481 . S
C248 C247 1.375 . S
C248 C249 1.367 . S
C248 H262 0.951 . S
C249 C245 1.383 . S
C249 C248 1.367 . S
C249 H263 0.950 . S
C250 C247 1.481 . S
C250 C251 1.297 . S
C250 H264 0.950 . S
C251 C250 1.297 . S
C251 C252 1.479 . S
C251 H265 0.950 . S
C252 C251 1.479 . S
C252 C253 1.375 . S
C252 C258 1.404 . S
C253 C252 1.375 . S
C253 C254 1.369 . S
C253 H266 0.950 . S
C254 C253 1.369 . S
C254 C255 1.392 . S
C254 H267 0.951 . S
C255 C254 1.392 . S
C255 C257 1.384 . S
H256 C258 0.949 . S
C257 C255 1.384 . S
C257 C258 1.385 . S
C257 H259 0.950 . S
C258 C252 1.404 . S
C258 H256 0.949 . S
C258 C257 1.385 . S
H259 C257 0.950 . S
H260 C244 0.951 . S
H261 C246 0.951 . S
H262 C248 0.951 . S
H263 C249 0.950 . S
H264 C250 0.950 . S
H265 C251 0.950 . S
H266 C253 0.950 . S
H267 C254 0.951 . S
C268 C269 1.386 . S
C268 C270 1.383 . S
C268 H284 0.951 . S
C269 C268 1.386 . S
C269 C273 1.383 . S
C270 C268 1.383 . S
C270 C271 1.402 . S
C270 H285 0.951 . S
C271 C270 1.402 . S
C271 C272 1.375 . S
C271 C274 1.481 . S
C272 C271 1.375 . S
C272 C273 1.367 . S
C272 H286 0.951 . S
C273 C269 1.383 . S
C273 C272 1.367 . S
C273 H287 0.950 . S
C274 C271 1.481 . S
C274 C275 1.297 1_655 S
C274 H288 0.950 . S
C275 C274 1.297 1_455 S
C275 C276 1.479 . S
C275 H289 0.950 . S
C276 C275 1.479 . S
C276 C277 1.375 . S
C276 C282 1.404 . S
C277 C276 1.375 . S
C277 C278 1.369 . S
C277 H290 0.950 . S
C278 C277 1.369 . S
C278 C279 1.392 . S
C278 H291 0.951 . S
C279 C278 1.392 . S
C279 C281 1.384 . S
H280 C282 0.949 . S
C281 C279 1.384 . S
C281 C282 1.385 . S
C281 H283 0.950 . S
C282 C276 1.404 . S
C282 H280 0.949 . S
C282 C281 1.385 . S
H283 C281 0.950 . S
H284 C268 0.951 . S
H285 C270 0.951 . S
H286 C272 0.951 . S
H287 C273 0.950 . S
H288 C274 0.950 . S
H289 C275 0.950 . S
H290 C277 0.950 . S
H291 C278 0.951 . S
C292 C293 1.386 . S
C292 C294 1.383 . S
C292 H308 0.951 . S
C293 C292 1.386 . S
C293 C297 1.383 . S
C294 C292 1.383 . S
C294 C295 1.402 . S
C294 H309 0.951 . S
C295 C294 1.402 . S
C295 C296 1.375 . S
C295 C298 1.481 . S
C296 C295 1.375 . S
C296 C297 1.367 . S
C296 H310 0.951 . S
C297 C293 1.383 . S
C297 C296 1.367 . S
C297 H311 0.950 . S
C298 C295 1.481 . S
C298 C299 1.297 1_655 S
C298 H312 0.950 . S
C299 C298 1.297 1_455 S
C299 C300 1.479 . S
C299 H313 0.950 . S
C300 C299 1.479 . S
C300 C301 1.375 . S
C300 C306 1.404 . S
C301 C300 1.375 . S
C301 C302 1.369 . S
C301 H314 0.950 . S
C302 C301 1.369 . S
C302 C303 1.392 . S
C302 H315 0.951 . S
C303 C302 1.392 . S
C303 C305 1.384 . S
H304 C306 0.949 . S
C305 C303 1.384 . S
C305 C306 1.385 . S
C305 H307 0.950 . S
C306 C300 1.404 . S
C306 H304 0.949 . S
C306 C305 1.385 . S
H307 C305 0.950 . S
H308 C292 0.951 . S
H309 C294 0.951 . S
H310 C296 0.951 . S
H311 C297 0.950 . S
H312 C298 0.950 . S
H313 C299 0.950 . S
H314 C301 0.950 . S
H315 C302 0.951 . S
C316 C317 1.386 . S
C316 C318 1.383 . S
C316 H332 0.951 . S
C317 C316 1.386 . S
C317 C321 1.383 . S
C318 C316 1.383 . S
C318 C319 1.402 . S
C318 H333 0.951 . S
C319 C318 1.402 . S
C319 C320 1.375 . S
C319 C322 1.481 . S
C320 C319 1.375 . S
C320 C321 1.367 . S
C320 H334 0.951 . S
C321 C317 1.383 . S
C321 C320 1.367 . S
C321 H335 0.950 . S
C322 C319 1.481 . S
C322 C323 1.297 . S
C322 H336 0.950 . S
C323 C322 1.297 . S
C323 C324 1.479 . S
C323 H337 0.950 . S
C324 C323 1.479 . S
C324 C325 1.375 . S
C324 C330 1.404 . S
C325 C324 1.375 . S
C325 C326 1.369 . S
C325 H338 0.950 . S
C326 C325 1.369 . S
C326 C327 1.392 . S
C326 H339 0.951 . S
C327 C326 1.392 . S
C327 C329 1.384 . S
H328 C330 0.949 . S
C329 C327 1.384 . S
C329 C330 1.385 . S
C329 H331 0.950 . S
C330 C324 1.404 . S
C330 H328 0.949 . S
C330 C329 1.385 . S
H331 C329 0.950 . S
H332 C316 0.951 . S
H333 C318 0.951 . S
H334 C320 0.951 . S
H335 C321 0.950 . S
H336 C322 0.950 . S
H337 C323 0.950 . S
H338 C325 0.950 . S
H339 C326 0.951 . S
C340 C341 1.386 . S
C340 C342 1.383 . S
C340 H356 0.951 . S
C341 C340 1.386 . S
C341 C345 1.383 . S
C342 C340 1.383 . S
C342 C343 1.402 . S
C342 H357 0.951 . S
C343 C342 1.402 . S
C343 C344 1.377 . S
C343 C346 1.481 1_556 S
C344 C343 1.377 . S
C344 C345 1.372 . S
C344 H358 0.944 1_556 S
C345 C341 1.383 . S
C345 C344 1.372 . S
C345 H359 0.950 . S
C346 C343 1.481 1_554 S
C346 C347 1.297 . S
C346 H360 0.950 . S
C347 C346 1.297 . S
C347 C348 1.479 . S
C347 H361 0.950 1_554 S
C348 C347 1.479 . S
C348 C349 1.375 . S
C348 C354 1.404 . S
C349 C348 1.375 . S
C349 C350 1.369 . S
C349 H362 0.950 1_554 S
C350 C349 1.369 . S
C350 C351 1.392 . S
C350 H363 0.951 . S
C351 C350 1.392 . S
C351 C353 1.384 . S
H352 C354 0.949 . S
C353 C351 1.384 . S
C353 C354 1.385 . S
C353 H355 0.950 . S
C354 C348 1.404 . S
C354 H352 0.949 . S
C354 C353 1.385 . S
H355 C353 0.950 . S
H356 C340 0.951 . S
H357 C342 0.951 . S
H358 C344 0.944 1_554 S
H359 C345 0.950 . S
H360 C346 0.950 . S
H361 C347 0.950 1_556 S
H362 C349 0.950 1_556 S
H363 C350 0.951 . S
C364 C365 1.386 . S
C364 C366 1.383 . S
C364 H380 0.951 . S
C365 C364 1.386 . S
C365 C369 1.383 . S
C366 C364 1.383 . S
C366 C367 1.402 . S
C366 H381 0.951 . S
C367 C366 1.402 . S
C367 C368 1.375 . S
C367 C370 1.481 . S
C368 C367 1.375 . S
C368 C369 1.367 . S
C368 H382 0.951 . S
C369 C365 1.383 . S
C369 C368 1.367 . S
C369 H383 0.950 . S
C370 C367 1.481 . S
C370 C371 1.297 . S
C370 H384 0.950 . S
C371 C370 1.297 . S
C371 C372 1.479 . S
C371 H385 0.950 . S
C372 C371 1.479 . S
C372 C373 1.375 . S
C372 C378 1.404 . S
C373 C372 1.375 . S
C373 C374 1.369 . S
C373 H386 0.950 . S
C374 C373 1.369 . S
C374 C375 1.392 . S
C374 H387 0.951 . S
C375 C374 1.392 . S
C375 C377 1.384 . S
H376 C378 0.949 . S
C377 C375 1.384 . S
C377 C378 1.385 . S
C377 H379 0.950 . S
C378 C372 1.404 . S
C378 H376 0.949 . S
C378 C377 1.385 . S
H379 C377 0.950 . S
H380 C364 0.951 . S
H381 C366 0.951 . S
H382 C368 0.951 . S
H383 C369 0.950 . S
H384 C370 0.950 . S
H385 C371 0.950 . S
H386 C373 0.950 . S
H387 C374 0.951 . S
C388 C389 1.386 . S
C388 C390 1.383 . S
C388 H404 0.951 . S
C389 C388 1.386 . S
C389 C393 1.383 . S
C390 C388 1.383 . S
C390 C391 1.402 . S
C390 H405 0.951 . S
C391 C390 1.402 . S
C391 C392 1.375 . S
C391 C394 1.481 1_554 S
C392 C391 1.375 . S
C392 C393 1.367 . S
C392 H406 0.951 1_554 S
C393 C389 1.383 . S
C393 C392 1.367 . S
C393 H407 0.950 . S
C394 C391 1.481 1_556 S
C394 C395 1.297 1_556 S
C394 H408 0.950 . S
C395 C394 1.297 1_554 S
C395 C396 1.479 1_554 S
C395 H409 0.950 . S
C396 C395 1.479 1_556 S
C396 C397 1.375 1_556 S
C396 C402 1.404 . S
C397 C396 1.375 1_554 S
C397 C398 1.369 1_554 S
C397 H410 0.950 . S
C398 C397 1.369 1_556 S
C398 C399 1.392 . S
C398 H411 0.951 . S
C399 C398 1.392 . S
C399 C401 1.384 . S
H400 C402 0.949 . S
C401 C399 1.384 . S
C401 C402 1.385 . S
C401 H403 0.950 . S
C402 C396 1.404 . S
C402 H400 0.949 . S
C402 C401 1.385 . S
H403 C401 0.950 . S
H404 C388 0.951 . S
H405 C390 0.951 . S
H406 C392 0.951 1_556 S
H407 C393 0.950 . S
H408 C394 0.950 . S
H409 C395 0.950 . S
H410 C397 0.950 . S
H411 C398 0.951 . S
C412 C413 1.386 . S
C412 C414 1.383 1_655 S
C412 H428 0.951 1_655 S
C413 C412 1.386 . S
C413 C417 1.383 . S
C414 C412 1.383 1_455 S
C414 C415 1.402 1_455 S
C414 H429 0.951 . S
C415 C414 1.402 1_655 S
C415 C416 1.375 . S
C415 C418 1.481 1_545 S
C416 C415 1.375 . S
C416 C417 1.367 . S
C416 H430 0.951 . S
C417 C413 1.383 . S
C417 C416 1.367 . S
C417 H431 0.950 . S
C418 C415 1.481 1_565 S
C418 C419 1.297 1_655 S
C418 H432 0.950 . S
C419 C418 1.297 1_455 S
C419 C420 1.479 1_554 S
C419 H433 0.950 . S
C420 C419 1.479 1_556 S
C420 C421 1.375 . S
C420 C426 1.404 1_455 S
C421 C420 1.375 . S
C421 C422 1.369 . S
C421 H434 0.950 . S
C422 C421 1.369 . S
C422 C423 1.392 . S
C422 H435 0.951 . S
C423 C422 1.392 . S
C423 C425 1.384 1_455 S
H424 C426 0.949 . S
C425 C423 1.384 1_655 S
C425 C426 1.385 . S
C425 H427 0.950 . S
C426 C420 1.404 1_655 S
C426 H424 0.949 . S
C426 C425 1.385 . S
H427 C425 0.950 . S
H428 C412 0.951 1_455 S
H429 C414 0.951 . S
H430 C416 0.951 . S
H431 C417 0.950 . S
H432 C418 0.950 . S
H433 C419 0.950 . S
H434 C421 0.950 . S
H435 C422 0.951 . S
C436 C437 1.386 . S
C436 C438 1.383 . S
C436 H452 0.951 . S
C437 C436 1.386 . S
C437 C441 1.383 1_455 S
C438 C436 1.383 . S
C438 C439 1.402 . S
C438 H453 0.951 . S
C439 C438 1.402 . S
C439 C440 1.375 1_455 S
C439 C442 1.481 1_455 S
C440 C439 1.375 1_655 S
C440 C441 1.367 . S
C440 H454 0.951 . S
C441 C437 1.383 1_655 S
C441 C440 1.367 . S
C441 H455 0.950 . S
C442 C439 1.481 1_655 S
C442 C443 1.269 1_645 S
C442 H456 0.950 . S
C443 C442 1.269 1_465 S
C443 C444 1.511 1_455 S
C443 H457 0.947 1_565 S
C444 C443 1.511 1_655 S
C444 C445 1.375 1_655 S
C444 C450 1.404 . S
C445 C444 1.375 1_455 S
C445 C446 1.369 . S
C445 H458 0.950 . S
C446 C445 1.369 . S
C446 C447 1.392 1_455 S
C446 H459 0.951 . S
C447 C446 1.392 1_655 S
C447 C449 1.384 . S
H448 C450 0.949 . S
C449 C447 1.384 . S
C449 C450 1.385 . S
C449 H451 0.950 . S
C450 C444 1.404 . S
C450 H448 0.949 . S
C450 C449 1.385 . S
H451 C449 0.950 . S
H452 C436 0.951 . S
H453 C438 0.951 . S
H454 C440 0.951 . S
H455 C441 0.950 . S
H456 C442 0.950 . S
H457 C443 0.947 1_545 S
H458 C445 0.950 . S
H459 C446 0.951 . S
C460 C461 1.386 . S
C460 C462 1.383 . S
C460 H476 0.951 . S
C461 C460 1.386 . S
C461 C465 1.383 . S
C462 C460 1.383 . S
C462 C463 1.402 . S
C462 H477 0.951 . S
C463 C462 1.402 . S
C463 C464 1.375 1_554 S
C463 C466 1.481 1_554 S
C464 C463 1.375 1_556 S
C464 C465 1.367 1_556 S
C464 H478 0.951 . S
C465 C461 1.383 . S
C465 C464 1.367 1_554 S
C465 H479 0.950 . S
C466 C463 1.481 1_556 S
C466 C467 1.297 1_556 S
C466 H480 0.950 . S
C467 C466 1.297 1_554 S
C467 C468 1.479 1_554 S
C467 H481 0.950 . S
C468 C467 1.479 1_556 S
C468 C469 1.375 1_556 S
C468 C474 1.404 . S
C469 C468 1.375 1_554 S
C469 C470 1.369 1_554 S
C469 H482 0.950 . S
C470 C469 1.369 1_556 S
C470 C471 1.392 . S
C470 H483 0.951 . S
C471 C470 1.392 . S
C471 C473 1.384 . S
H472 C474 0.949 . S
C473 C471 1.384 . S
C473 C474 1.385 . S
C473 H475 0.950 . S
C474 C468 1.404 . S
C474 H472 0.949 . S
C474 C473 1.385 . S
H475 C473 0.950 . S
H476 C460 0.951 . S
H477 C462 0.951 . S
H478 C464 0.951 . S
H479 C465 0.950 . S
H480 C466 0.950 . S
H481 C467 0.950 . S
H482 C469 0.950 . S
H483 C470 0.951 . S
C484 C485 1.386 . S
C484 C486 1.383 . S
C484 H500 0.951 . S
C485 C484 1.386 . S
C485 C489 1.383 . S
C486 C484 1.383 . S
C486 C487 1.402 . S
C486 H501 0.951 . S
C487 C486 1.402 . S
C487 C488 1.375 . S
C487 C490 1.481 . S
C488 C487 1.375 . S
C488 C489 1.367 . S
C488 H502 0.951 . S
C489 C485 1.383 . S
C489 C488 1.367 . S
C489 H503 0.950 . S
C490 C487 1.481 . S
C490 C491 1.297 . S
C490 H504 0.950 . S
C491 C490 1.297 . S
C491 C492 1.479 . S
C491 H505 0.950 . S
C492 C491 1.479 . S
C492 C493 1.375 . S
C492 C498 1.404 . S
C493 C492 1.375 . S
C493 C494 1.369 . S
C493 H506 0.950 . S
C494 C493 1.369 . S
C494 C495 1.392 . S
C494 H507 0.951 . S
C495 C494 1.392 . S
C495 C497 1.384 . S
H496 C498 0.949 . S
C497 C495 1.384 . S
C497 C498 1.385 . S
C497 H499 0.950 . S
C498 C492 1.404 . S
C498 H496 0.949 . S
C498 C497 1.385 . S
H499 C497 0.950 . S
H500 C484 0.951 . S
H501 C486 0.951 . S
H502 C488 0.951 . S
H503 C489 0.950 . S
H504 C490 0.950 . S
H505 C491 0.950 . S
H506 C493 0.950 . S
H507 C494 0.951 . S
C125 C19 1.222 . S
C135 C30 1.176 . S
C149 C31 1.189 . S
C159 C41 1.250 . S
C173 C62 1.187 . S
C183 C72 1.228 . S
C197 C103 1.202 . S
C207 C93 1.250 . S
C221 C10 1.227 . S
C231 C0 1.132 . S
C245 C61 1.188 . S
C255 C50 1.245 . S
C269 C81 1.166 . S
C279 C92 1.242 . S
C293 C112 1.170 . S
C303 C123 1.257 . S
C317 C122 1.879 . S
C327 C1 1.901 . S
C341 C113 1.892 . S
C351 C2 1.854 . S
C365 C82 1.901 . S
C375 C60 1.866 . S
C389 C91 1.883 . S
C399 C51 1.902 . S
C413 C20 1.439 . S
C423 C33 1.466 . S
C437 C29 1.411 . S
C447 C32 1.365 . S
C461 C63 1.476 . S
C471 C95 1.376 . S
C485 C94 1.424 . S
C495 C64 1.350 . S
