# Generated by pormake.
# Topology ull, (4)-cn, num edge types: 1
# Building blocks:
#     Node 0, Type 0, BuildingBlock: TATPOV_clean_sbu_0, # of connection points: 4
#     Node 1, Type 0, BuildingBlock: TATPOV_clean_sbu_0, # of connection points: 4
#     Node 2, Type 0, BuildingBlock: TATPOV_clean_sbu_0, # of connection points: 4
#     Node 3, Type 0, BuildingBlock: TATPOV_clean_sbu_0, # of connection points: 4
#     Node 4, Type 0, BuildingBlock: TATPOV_clean_sbu_0, # of connection points: 4
#     Node 5, Type 0, BuildingBlock: TATPOV_clean_sbu_0, # of connection points: 4
#     Node 6, Type 0, BuildingBlock: TATPOV_clean_sbu_0, # of connection points: 4
#     Node 7, Type 0, BuildingBlock: TATPOV_clean_sbu_0, # of connection points: 4
#     Node 8, Type 0, BuildingBlock: TATPOV_clean_sbu_0, # of connection points: 4
#     Node 9, Type 0, BuildingBlock: TATPOV_clean_sbu_0, # of connection points: 4
#     Node 10, Type 0, BuildingBlock: TATPOV_clean_sbu_0, # of connection points: 4
#     Node 11, Type 0, BuildingBlock: TATPOV_clean_sbu_0, # of connection points: 4
#     Node 12, Type 0, BuildingBlock: TATPOV_clean_sbu_0, # of connection points: 4
#     Node 13, Type 0, BuildingBlock: TATPOV_clean_sbu_0, # of connection points: 4
#     Node 14, Type 0, BuildingBlock: TATPOV_clean_sbu_0, # of connection points: 4
#     Node 15, Type 0, BuildingBlock: TATPOV_clean_sbu_0, # of connection points: 4
#     Node 16, Type 0, BuildingBlock: TATPOV_clean_sbu_0, # of connection points: 4
#     Node 17, Type 0, BuildingBlock: TATPOV_clean_sbu_0, # of connection points: 4
#     Node 18, Type 0, BuildingBlock: TATPOV_clean_sbu_0, # of connection points: 4
#     Node 19, Type 0, BuildingBlock: TATPOV_clean_sbu_0, # of connection points: 4
#     Node 20, Type 0, BuildingBlock: TATPOV_clean_sbu_0, # of connection points: 4
#     Node 21, Type 0, BuildingBlock: TATPOV_clean_sbu_0, # of connection points: 4
#     Node 22, Type 0, BuildingBlock: TATPOV_clean_sbu_0, # of connection points: 4
#     Node 23, Type 0, BuildingBlock: TATPOV_clean_sbu_0, # of connection points: 4
#     Node 24, Type 0, BuildingBlock: TATPOV_clean_sbu_0, # of connection points: 4
#     Node 25, Type 0, BuildingBlock: TATPOV_clean_sbu_0, # of connection points: 4
#     Node 26, Type 0, BuildingBlock: TATPOV_clean_sbu_0, # of connection points: 4
#     Node 27, Type 0, BuildingBlock: TATPOV_clean_sbu_0, # of connection points: 4
#     Node 28, Type 0, BuildingBlock: TATPOV_clean_sbu_0, # of connection points: 4
#     Node 29, Type 0, BuildingBlock: TATPOV_clean_sbu_0, # of connection points: 4
#     Node 30, Type 0, BuildingBlock: TATPOV_clean_sbu_0, # of connection points: 4
#     Node 31, Type 0, BuildingBlock: TATPOV_clean_sbu_0, # of connection points: 4
#     Node 32, Type 0, BuildingBlock: TATPOV_clean_sbu_0, # of connection points: 4
#     Node 33, Type 0, BuildingBlock: TATPOV_clean_sbu_0, # of connection points: 4
#     Node 34, Type 0, BuildingBlock: TATPOV_clean_sbu_0, # of connection points: 4
#     Node 35, Type 0, BuildingBlock: TATPOV_clean_sbu_0, # of connection points: 4
#     Node 36, Type 0, BuildingBlock: TATPOV_clean_sbu_0, # of connection points: 4
#     Node 37, Type 0, BuildingBlock: TATPOV_clean_sbu_0, # of connection points: 4
#     Node 38, Type 0, BuildingBlock: TATPOV_clean_sbu_0, # of connection points: 4
#     Node 39, Type 0, BuildingBlock: TATPOV_clean_sbu_0, # of connection points: 4
#     Node 40, Type 0, BuildingBlock: TATPOV_clean_sbu_0, # of connection points: 4
#     Node 41, Type 0, BuildingBlock: TATPOV_clean_sbu_0, # of connection points: 4
#     Node 42, Type 0, BuildingBlock: TATPOV_clean_sbu_0, # of connection points: 4
#     Node 43, Type 0, BuildingBlock: TATPOV_clean_sbu_0, # of connection points: 4
#     Node 44, Type 0, BuildingBlock: TATPOV_clean_sbu_0, # of connection points: 4
#     Node 45, Type 0, BuildingBlock: TATPOV_clean_sbu_0, # of connection points: 4
#     Node 46, Type 0, BuildingBlock: TATPOV_clean_sbu_0, # of connection points: 4
#     Node 47, Type 0, BuildingBlock: TATPOV_clean_sbu_0, # of connection points: 4
#     Edge 48, Type (0, 0), BuildingBlock: CIFDUS_clean_linker_0, # of connection points: 2
#     Edge 49, Type (0, 0), BuildingBlock: CIFDUS_clean_linker_0, # of connection points: 2
#     Edge 50, Type (0, 0), BuildingBlock: CIFDUS_clean_linker_0, # of connection points: 2
#     Edge 51, Type (0, 0), BuildingBlock: CIFDUS_clean_linker_0, # of connection points: 2
#     Edge 52, Type (0, 0), BuildingBlock: CIFDUS_clean_linker_0, # of connection points: 2
#     Edge 53, Type (0, 0), BuildingBlock: CIFDUS_clean_linker_0, # of connection points: 2
#     Edge 54, Type (0, 0), BuildingBlock: CIFDUS_clean_linker_0, # of connection points: 2
#     Edge 55, Type (0, 0), BuildingBlock: CIFDUS_clean_linker_0, # of connection points: 2
#     Edge 56, Type (0, 0), BuildingBlock: CIFDUS_clean_linker_0, # of connection points: 2
#     Edge 57, Type (0, 0), BuildingBlock: CIFDUS_clean_linker_0, # of connection points: 2
#     Edge 58, Type (0, 0), BuildingBlock: CIFDUS_clean_linker_0, # of connection points: 2
#     Edge 59, Type (0, 0), BuildingBlock: CIFDUS_clean_linker_0, # of connection points: 2
#     Edge 60, Type (0, 0), BuildingBlock: CIFDUS_clean_linker_0, # of connection points: 2
#     Edge 61, Type (0, 0), BuildingBlock: CIFDUS_clean_linker_0, # of connection points: 2
#     Edge 62, Type (0, 0), BuildingBlock: CIFDUS_clean_linker_0, # of connection points: 2
#     Edge 63, Type (0, 0), BuildingBlock: CIFDUS_clean_linker_0, # of connection points: 2
#     Edge 64, Type (0, 0), BuildingBlock: CIFDUS_clean_linker_0, # of connection points: 2
#     Edge 65, Type (0, 0), BuildingBlock: CIFDUS_clean_linker_0, # of connection points: 2
#     Edge 66, Type (0, 0), BuildingBlock: CIFDUS_clean_linker_0, # of connection points: 2
#     Edge 67, Type (0, 0), BuildingBlock: CIFDUS_clean_linker_0, # of connection points: 2
#     Edge 68, Type (0, 0), BuildingBlock: CIFDUS_clean_linker_0, # of connection points: 2
#     Edge 69, Type (0, 0), BuildingBlock: CIFDUS_clean_linker_0, # of connection points: 2
#     Edge 70, Type (0, 0), BuildingBlock: CIFDUS_clean_linker_0, # of connection points: 2
#     Edge 71, Type (0, 0), BuildingBlock: CIFDUS_clean_linker_0, # of connection points: 2
#     Edge 72, Type (0, 0), BuildingBlock: CIFDUS_clean_linker_0, # of connection points: 2
#     Edge 73, Type (0, 0), BuildingBlock: CIFDUS_clean_linker_0, # of connection points: 2
#     Edge 74, Type (0, 0), BuildingBlock: CIFDUS_clean_linker_0, # of connection points: 2
#     Edge 75, Type (0, 0), BuildingBlock: CIFDUS_clean_linker_0, # of connection points: 2
#     Edge 76, Type (0, 0), BuildingBlock: CIFDUS_clean_linker_0, # of connection points: 2
#     Edge 77, Type (0, 0), BuildingBlock: CIFDUS_clean_linker_0, # of connection points: 2
#     Edge 78, Type (0, 0), BuildingBlock: CIFDUS_clean_linker_0, # of connection points: 2
#     Edge 79, Type (0, 0), BuildingBlock: CIFDUS_clean_linker_0, # of connection points: 2
#     Edge 80, Type (0, 0), BuildingBlock: CIFDUS_clean_linker_0, # of connection points: 2
#     Edge 81, Type (0, 0), BuildingBlock: CIFDUS_clean_linker_0, # of connection points: 2
#     Edge 82, Type (0, 0), BuildingBlock: CIFDUS_clean_linker_0, # of connection points: 2
#     Edge 83, Type (0, 0), BuildingBlock: CIFDUS_clean_linker_0, # of connection points: 2
#     Edge 84, Type (0, 0), BuildingBlock: CIFDUS_clean_linker_0, # of connection points: 2
#     Edge 85, Type (0, 0), BuildingBlock: CIFDUS_clean_linker_0, # of connection points: 2
#     Edge 86, Type (0, 0), BuildingBlock: CIFDUS_clean_linker_0, # of connection points: 2
#     Edge 87, Type (0, 0), BuildingBlock: CIFDUS_clean_linker_0, # of connection points: 2
#     Edge 88, Type (0, 0), BuildingBlock: CIFDUS_clean_linker_0, # of connection points: 2
#     Edge 89, Type (0, 0), BuildingBlock: CIFDUS_clean_linker_0, # of connection points: 2
#     Edge 90, Type (0, 0), BuildingBlock: CIFDUS_clean_linker_0, # of connection points: 2
#     Edge 91, Type (0, 0), BuildingBlock: CIFDUS_clean_linker_0, # of connection points: 2
#     Edge 92, Type (0, 0), BuildingBlock: CIFDUS_clean_linker_0, # of connection points: 2
#     Edge 93, Type (0, 0), BuildingBlock: CIFDUS_clean_linker_0, # of connection points: 2
#     Edge 94, Type (0, 0), BuildingBlock: CIFDUS_clean_linker_0, # of connection points: 2
#     Edge 95, Type (0, 0), BuildingBlock: CIFDUS_clean_linker_0, # of connection points: 2
#     Edge 96, Type (0, 0), BuildingBlock: CIFDUS_clean_linker_0, # of connection points: 2
#     Edge 97, Type (0, 0), BuildingBlock: CIFDUS_clean_linker_0, # of connection points: 2
#     Edge 98, Type (0, 0), BuildingBlock: CIFDUS_clean_linker_0, # of connection points: 2
#     Edge 99, Type (0, 0), BuildingBlock: CIFDUS_clean_linker_0, # of connection points: 2
#     Edge 100, Type (0, 0), BuildingBlock: CIFDUS_clean_linker_0, # of connection points: 2
#     Edge 101, Type (0, 0), BuildingBlock: CIFDUS_clean_linker_0, # of connection points: 2
#     Edge 102, Type (0, 0), BuildingBlock: CIFDUS_clean_linker_0, # of connection points: 2
#     Edge 103, Type (0, 0), BuildingBlock: CIFDUS_clean_linker_0, # of connection points: 2
#     Edge 104, Type (0, 0), BuildingBlock: CIFDUS_clean_linker_0, # of connection points: 2
#     Edge 105, Type (0, 0), BuildingBlock: CIFDUS_clean_linker_0, # of connection points: 2
#     Edge 106, Type (0, 0), BuildingBlock: CIFDUS_clean_linker_0, # of connection points: 2
#     Edge 107, Type (0, 0), BuildingBlock: CIFDUS_clean_linker_0, # of connection points: 2
#     Edge 108, Type (0, 0), BuildingBlock: CIFDUS_clean_linker_0, # of connection points: 2
#     Edge 109, Type (0, 0), BuildingBlock: CIFDUS_clean_linker_0, # of connection points: 2
#     Edge 110, Type (0, 0), BuildingBlock: CIFDUS_clean_linker_0, # of connection points: 2
#     Edge 111, Type (0, 0), BuildingBlock: CIFDUS_clean_linker_0, # of connection points: 2
#     Edge 112, Type (0, 0), BuildingBlock: CIFDUS_clean_linker_0, # of connection points: 2
#     Edge 113, Type (0, 0), BuildingBlock: CIFDUS_clean_linker_0, # of connection points: 2
#     Edge 114, Type (0, 0), BuildingBlock: CIFDUS_clean_linker_0, # of connection points: 2
#     Edge 115, Type (0, 0), BuildingBlock: CIFDUS_clean_linker_0, # of connection points: 2
#     Edge 116, Type (0, 0), BuildingBlock: CIFDUS_clean_linker_0, # of connection points: 2
#     Edge 117, Type (0, 0), BuildingBlock: CIFDUS_clean_linker_0, # of connection points: 2
#     Edge 118, Type (0, 0), BuildingBlock: CIFDUS_clean_linker_0, # of connection points: 2
#     Edge 119, Type (0, 0), BuildingBlock: CIFDUS_clean_linker_0, # of connection points: 2
#     Edge 120, Type (0, 0), BuildingBlock: CIFDUS_clean_linker_0, # of connection points: 2
#     Edge 121, Type (0, 0), BuildingBlock: CIFDUS_clean_linker_0, # of connection points: 2
#     Edge 122, Type (0, 0), BuildingBlock: CIFDUS_clean_linker_0, # of connection points: 2
#     Edge 123, Type (0, 0), BuildingBlock: CIFDUS_clean_linker_0, # of connection points: 2
#     Edge 124, Type (0, 0), BuildingBlock: CIFDUS_clean_linker_0, # of connection points: 2
#     Edge 125, Type (0, 0), BuildingBlock: CIFDUS_clean_linker_0, # of connection points: 2
#     Edge 126, Type (0, 0), BuildingBlock: CIFDUS_clean_linker_0, # of connection points: 2
#     Edge 127, Type (0, 0), BuildingBlock: CIFDUS_clean_linker_0, # of connection points: 2
#     Edge 128, Type (0, 0), BuildingBlock: CIFDUS_clean_linker_0, # of connection points: 2
#     Edge 129, Type (0, 0), BuildingBlock: CIFDUS_clean_linker_0, # of connection points: 2
#     Edge 130, Type (0, 0), BuildingBlock: CIFDUS_clean_linker_0, # of connection points: 2
#     Edge 131, Type (0, 0), BuildingBlock: CIFDUS_clean_linker_0, # of connection points: 2
#     Edge 132, Type (0, 0), BuildingBlock: CIFDUS_clean_linker_0, # of connection points: 2
#     Edge 133, Type (0, 0), BuildingBlock: CIFDUS_clean_linker_0, # of connection points: 2
#     Edge 134, Type (0, 0), BuildingBlock: CIFDUS_clean_linker_0, # of connection points: 2
#     Edge 135, Type (0, 0), BuildingBlock: CIFDUS_clean_linker_0, # of connection points: 2
#     Edge 136, Type (0, 0), BuildingBlock: CIFDUS_clean_linker_0, # of connection points: 2
#     Edge 137, Type (0, 0), BuildingBlock: CIFDUS_clean_linker_0, # of connection points: 2
#     Edge 138, Type (0, 0), BuildingBlock: CIFDUS_clean_linker_0, # of connection points: 2
#     Edge 139, Type (0, 0), BuildingBlock: CIFDUS_clean_linker_0, # of connection points: 2
#     Edge 140, Type (0, 0), BuildingBlock: CIFDUS_clean_linker_0, # of connection points: 2
#     Edge 141, Type (0, 0), BuildingBlock: CIFDUS_clean_linker_0, # of connection points: 2
#     Edge 142, Type (0, 0), BuildingBlock: CIFDUS_clean_linker_0, # of connection points: 2
#     Edge 143, Type (0, 0), BuildingBlock: CIFDUS_clean_linker_0, # of connection points: 2
# Relax obj value: 0.153
# Max RMSD: 0.208
# Mean RMSD: 0.208
data_MOF--net-ull--node1-TATPOV_clean_sbu_0--edge1-CIFDUS_clean_linker_0
_symmetry_space_group_name_H-M    P1
_symmetry_Int_Tables_number       1
_symmetry_cell_setting            triclinic
loop_
_symmetry_equiv_pos_as_xyz
'x, y, z'
_cell_length_a     52.688604
_cell_length_b     52.798386
_cell_length_c     52.746917
_cell_angle_alpha  89.9104
_cell_angle_beta   89.929773
_cell_angle_gamma 90.085527
loop_
_atom_site_label
_atom_site_type_symbol
_atom_site_fract_x
_atom_site_fract_y
_atom_site_fract_z
_atom_type_partial_charge
Zn0 Zn 0.01806 0.31715 0.15075 0.0
Zn1 Zn 0.01303 0.35375 0.17938 0.0
O2 O 0.04952 0.35677 0.16371 0.0
O3 O 0.05582 0.31832 0.14939 0.0
O4 O 0.01287 0.38219 0.20488 0.0
O5 O 0.00073 0.29257 0.1734 0.0
O6 O 0.00459 0.32226 0.20223 0.0
C7 C 0.06424 0.34023 0.15403 0.0
C8 C 0.98355 0.35327 0.1307 0.0
O9 O 0.98481 0.36211 0.15316 0.0
O10 O -0.0021 0.33524 0.12413 0.0
C11 C 0.02307 0.40354 0.20024 0.0
O12 O 0.03224 0.40794 0.17748 0.0
C13 C -0.0014 0.29963 0.19616 0.0
Zn14 Zn 0.65769 0.97519 0.14977 0.0
Zn15 Zn 0.61714 0.97767 0.17582 0.0
O16 O 0.61373 0.00846 0.15088 0.0
O17 O 0.64521 0.00071 0.12462 0.0
O18 O 0.58665 0.98144 0.19871 0.0
O19 O 0.68013 0.98586 0.17831 0.0
O20 O 0.64651 0.98051 0.20237 0.0
C21 C 0.62603 0.01374 0.13067 0.0
C22 C 0.63047 0.92877 0.14819 0.0
O23 O 0.61333 0.942 0.159 0.0
O24 O 0.65207 0.93827 0.14375 0.0
C25 C 0.56422 0.98676 0.1916 0.0
O26 O 0.55934 0.98865 0.16725 0.0
C27 C 0.67023 0.98495 0.20014 0.0
Zn28 Zn 0.00284 0.68416 0.15005 0.0
Zn29 Zn 0.00048 0.64299 0.17408 0.0
O30 O 0.96551 0.64601 0.15574 0.0
O31 O 0.96556 0.68581 0.14358 0.0
O32 O 0.99466 0.61145 0.19501 0.0
O33 O 0.01742 0.70353 0.17884 0.0
O34 O 0.0076 0.67025 0.20193 0.0
C35 C 0.95403 0.66497 0.14615 0.0
C36 C 0.03689 0.64765 0.12967 0.0
O37 O 0.03097 0.63544 0.14975 0.0
O38 O 0.02585 0.66829 0.12455 0.0
C39 C 0.98444 0.59201 0.18512 0.0
O40 O 0.98039 0.59179 0.16054 0.0
C41 C 0.01542 0.69309 0.20033 0.0
Zn42 Zn 0.33522 0.00714 0.15347 0.0
Zn43 Zn 0.37398 0.0083 0.1811 0.0
O44 O 0.38122 0.97782 0.15691 0.0
O45 O 0.35162 0.98404 0.12825 0.0
O46 O 0.40398 0.00737 0.2049 0.0
O47 O 0.3126 0.99317 0.1804 0.0
O48 O 0.34362 0.003 0.20636 0.0
C49 C 0.37115 0.9723 0.13565 0.0
C50 C 0.35765 0.05551 0.15214 0.0
O51 O 0.37559 0.04359 0.16316 0.0
O52 O 0.33673 0.04451 0.14803 0.0
C53 C 0.42612 0.0006 0.19808 0.0
O54 O 0.43055 -0.00386 0.17398 0.0
C55 C 0.32084 -0.00448 0.20276 0.0
Zn56 Zn 0.02034 0.68684 0.83379 0.0
Zn57 Zn 0.01578 0.64249 0.81468 0.0
O58 O 0.05064 0.64319 0.83348 0.0
O59 O 0.05687 0.68301 0.84361 0.0
O60 O 0.01846 0.6092 0.79606 0.0
O61 O 0.01039 0.705 0.80234 0.0
O62 O 0.00978 0.66747 0.78432 0.0
C63 C 0.06472 0.66041 0.84294 0.0
C64 C 0.97993 0.65683 0.85682 0.0
O65 O 0.98529 0.64044 0.83985 0.0
O66 O 0.99288 0.67702 0.85829 0.0
C67 C 0.02954 0.59016 0.80583 0.0
O68 O 0.03601 0.59098 0.82986 0.0
C69 C 0.00728 0.69147 0.78284 0.0
Zn70 Zn 0.32159 0.98149 0.84224 0.0
Zn71 Zn 0.36077 0.99099 0.81592 0.0
O72 O 0.36074 0.02115 0.84133 0.0
O73 O 0.33112 0.00805 0.86767 0.0
O74 O 0.39031 -0.00057 0.7932 0.0
O75 O 0.29734 0.98969 0.81447 0.0
O76 O 0.33092 0.99079 0.78979 0.0
C77 C 0.3483 0.02382 0.8619 0.0
C78 C 0.35561 0.94039 0.84403 0.0
O79 O 0.37004 0.95652 0.8331 0.0
O80 O 0.33255 0.9457 0.84798 0.0
C81 C 0.41226 0.00512 0.8014 0.0
O82 O 0.41666 0.00402 0.82589 0.0
C83 C 0.30687 0.99158 0.79254 0.0
Zn84 Zn -0.0027 0.31627 0.84366 0.0
Zn85 Zn 0.98268 0.35771 0.82054 0.0
O86 O 0.95076 0.34895 0.84176 0.0
O87 O 0.96193 0.3121 0.8578 0.0
O88 O 0.9715 0.38811 0.80027 0.0
O89 O 0.00704 0.29883 0.81177 0.0
O90 O 0.99131 0.33179 0.79177 0.0
C91 C 0.94554 0.3294 0.85499 0.0
C92 C 0.0263 0.35928 0.85896 0.0
O93 O 0.01221 0.37089 0.84311 0.0
O94 O 0.02354 0.3358 0.86282 0.0
C95 C 0.984 0.39533 0.78092 0.0
O96 O 0.00525 0.38367 0.77516 0.0
C97 C 0.00136 0.30981 0.79125 0.0
Zn98 Zn 0.68031 0.00771 0.84611 0.0
Zn99 Zn 0.64049 0.0011 0.82036 0.0
O100 O 0.63593 0.97394 0.84849 0.0
O101 O 0.66676 0.98566 0.87398 0.0
O102 O 0.61012 0.99481 0.79822 0.0
O103 O 0.70356 0.99341 0.82006 0.0
O104 O 0.67038 0.9949 0.79495 0.0
C105 C 0.64758 0.97193 0.86955 0.0
C106 C 0.65215 0.05275 0.84401 0.0
O107 O 0.63581 0.03762 0.83451 0.0
O108 O 0.67449 0.04506 0.84815 0.0
C109 C 0.60846 0.00408 0.77603 0.0
O110 O 0.62617 0.01975 0.76806 0.0
C111 C 0.69403 0.99095 0.79822 0.0
Zn112 Zn 0.14836 0.97117 0.30353 0.0
Zn113 Zn 0.17382 0.99096 0.341 0.0
O114 O 0.14849 0.01989 0.33369 0.0
O115 O 0.12779 0.00342 0.30144 0.0
O116 O 0.19659 0.00542 0.36789 0.0
O117 O 0.17852 0.96655 0.28138 0.0
O118 O 0.20047 0.98366 0.31231 0.0
C119 C 0.13124 0.02149 0.31685 0.0
C120 C 0.14175 0.94307 0.34926 0.0
O121 O 0.1554 0.96078 0.35845 0.0
O122 O 0.13676 0.9426 0.32582 0.0
C123 C 0.18944 0.01295 0.38962 0.0
O124 O 0.1654 0.01098 0.39597 0.0
C125 C 0.19954 0.97404 0.29012 0.0
Zn126 Zn 0.97654 0.14191 0.30923 0.0
Zn127 Zn 0.98534 0.1639 0.35271 0.0
O128 O 0.95112 0.14453 0.35855 0.0
O129 O 0.94351 0.12774 0.32111 0.0
O130 O 0.98836 0.18501 0.38446 0.0
O131 O 0.97638 0.17406 0.28968 0.0
O132 O 0.98542 0.19293 0.32565 0.0
C133 C 0.93701 0.13153 0.34385 0.0
C134 C 0.02332 0.12527 0.33314 0.0
O135 O 0.01694 0.1404 0.35091 0.0
O136 O 0.00922 0.12286 0.31385 0.0
C137 C 0.97979 0.17862 0.40609 0.0
O138 O 0.97106 0.15552 0.40935 0.0
C139 C 0.98127 0.19407 0.30185 0.0
Zn140 Zn 0.83639 0.98729 0.31341 0.0
Zn141 Zn 0.80557 0.9793 0.35103 0.0
O142 O 0.82767 0.94658 0.35024 0.0
O143 O 0.85043 0.95219 0.31566 0.0
O144 O 0.78001 0.97063 0.37819 0.0
O145 O 0.80874 0.99473 0.28902 0.0
O146 O 0.78187 0.98553 0.31958 0.0
C147 C 0.844 0.93855 0.33432 0.0
C148 C 0.84376 0.02275 0.35382 0.0
O149 O 0.8252 0.01104 0.36412 0.0
O150 O 0.85224 0.01589 0.33248 0.0
C151 C 0.78652 0.96181 0.39966 0.0
O152 O 0.81078 0.96002 0.4051 0.0
C153 C 0.78614 0.99198 0.2966 0.0
Zn154 Zn -0.00144 0.83403 0.33324 0.0
Zn155 Zn 0.99497 0.80583 0.37223 0.0
O156 O 0.02856 0.82618 0.37755 0.0
O157 O 0.0258 0.85571 0.34823 0.0
O158 O 0.99511 0.78175 0.40194 0.0
O159 O 0.00817 0.805 0.31085 0.0
O160 O -0.00309 0.78021 0.34241 0.0
C161 C 0.037 0.84634 0.36721 0.0
C162 C 0.95054 0.83955 0.35702 0.0
O163 O 0.96112 0.82648 0.37445 0.0
O164 O 0.96221 0.84384 0.33649 0.0
C165 C 0.00362 0.78766 0.42369 0.0
O166 O 0.00992 0.81133 0.42813 0.0
C167 C 0.00406 0.78302 0.31947 0.0
Zn168 Zn 0.13997 0.98302 0.68249 0.0
Zn169 Zn 0.16912 0.98436 0.64428 0.0
O170 O 0.15075 0.94926 0.64205 0.0
O171 O 0.13305 0.94598 0.67964 0.0
O172 O 0.19368 0.98183 0.61507 0.0
O173 O 0.1665 0.99507 0.70645 0.0
O174 O 0.19349 0.98986 0.67515 0.0
C175 C 0.13847 0.93633 0.65842 0.0
C176 C 0.12425 0.02012 0.64626 0.0
O177 O 0.1456 0.01498 0.63606 0.0
O178 O 0.11678 0.00778 0.66546 0.0
C179 C 0.18659 0.97281 0.5939 0.0
O180 O 0.16249 0.9673 0.5906 0.0
C181 C 0.1891 0.99497 0.6984 0.0
Zn182 Zn 0.98788 0.15048 0.68432 0.0
Zn183 Zn 0.99101 0.17327 0.64305 0.0
O184 O 0.01683 0.14372 0.6377 0.0
O185 O 0.00621 0.12042 0.67065 0.0
O186 O 0.99519 0.19441 0.61143 0.0
O187 O 0.00633 0.17632 0.70461 0.0
O188 O -0.0001 0.20003 0.671 0.0
C189 C 0.01855 0.12312 0.65026 0.0
C190 C 0.93991 0.1533 0.66153 0.0
O191 O 0.95356 0.16044 0.64281 0.0
O192 O 0.94995 0.15058 0.68313 0.0
C193 C 0.9843 0.21583 0.60986 0.0
O194 O 0.96862 0.22268 0.62798 0.0
C195 C 0.00701 0.19777 0.69401 0.0
Zn196 Zn 0.83583 -0.00055 0.66587 0.0
Zn197 Zn 0.80755 0.00317 0.62567 0.0
O198 O 0.82721 0.03722 0.62663 0.0
O199 O 0.84532 0.03634 0.66415 0.0
O200 O 0.78338 0.00953 0.59685 0.0
O201 O 0.80718 0.98854 0.68802 0.0
O202 O 0.78236 -0.00334 0.65559 0.0
C203 C 0.84031 0.04799 0.6438 0.0
C204 C 0.85044 0.96493 0.62608 0.0
O205 O 0.83068 0.97319 0.61483 0.0
O206 O 0.85698 0.9738 0.64736 0.0
C207 C 0.79085 0.01995 0.57643 0.0
O208 O 0.81525 0.02394 0.57311 0.0
C209 C 0.78512 0.99039 0.6788 0.0
Zn210 Zn 0.98485 0.84118 0.65792 0.0
Zn211 Zn 0.98432 0.81092 0.62156 0.0
O212 O 0.95265 0.83415 0.61543 0.0
O213 O 0.96017 0.86513 0.6422 0.0
O214 O 0.98126 0.78567 0.59291 0.0
O215 O 0.97334 0.81546 0.68311 0.0
O216 O 0.98257 0.78758 0.65369 0.0
C217 C 0.9472 0.85593 0.62432 0.0
C218 C 0.03208 0.84132 0.63284 0.0
O219 O 0.01948 0.82883 0.61639 0.0
O220 O 0.02192 0.84716 0.65374 0.0
C221 C 0.97525 0.79257 0.5706 0.0
O222 O 0.97281 0.81685 0.56571 0.0
C223 C 0.97648 0.79266 0.67656 0.0
Zn224 Zn 0.29978 0.14951 0.00484 0.0
Zn225 Zn 0.34011 0.17502 -0.00197 0.0
O226 O 0.34279 0.16207 0.03529 0.0
O227 O 0.30403 0.14852 0.04254 0.0
O228 O 0.36959 0.19933 -0.00387 0.0
O229 O 0.27654 0.17476 0.98925 0.0
O230 O 0.31004 0.19954 0.98987 0.0
C231 C 0.32613 0.15335 0.05053 0.0
C232 C 0.33467 0.12521 0.97061 0.0
O233 O 0.3467 0.14619 0.97186 0.0
O234 O 0.31494 0.12178 0.9839 0.0
C235 C 0.39103 0.19477 0.00615 0.0
O236 O 0.39535 0.17211 0.01552 0.0
C237 C 0.28633 0.19638 0.986 0.0
Zn238 Zn 0.33759 0.84537 -0.00103 0.0
Zn239 Zn 0.37769 0.82156 0.00069 0.0
O240 O 0.37578 0.83517 0.96339 0.0
O241 O 0.33537 0.84492 0.96119 0.0
O242 O 0.4095 0.80011 -0.00062 0.0
O243 O 0.31746 0.82065 0.01905 0.0
O244 O 0.34936 0.7952 0.01097 0.0
C245 C 0.35658 0.84203 0.95038 0.0
C246 C 0.37363 0.87161 0.02837 0.0
O247 O 0.38513 0.85038 0.02694 0.0
O248 O 0.35341 0.87512 0.01599 0.0
C249 C 0.43037 0.80944 0.99155 0.0
O250 O 0.43143 0.83375 0.98628 0.0
C251 C 0.32684 0.79866 0.01929 0.0
Zn252 Zn 0.14954 0.33501 -0.00341 0.0
Zn253 Zn 0.17952 0.37306 0.99273 0.0
O254 O 0.1548 0.37713 0.96235 0.0
O255 O 0.12485 0.3495 0.97142 0.0
O256 O 0.20363 0.40203 0.98681 0.0
O257 O 0.17659 0.31074 0.9854 0.0
O258 O 0.20363 0.34208 0.99016 0.0
C259 C 0.13321 0.36731 0.95772 0.0
C260 C 0.15197 0.36321 0.04248 0.0
O261 O 0.16384 0.37907 0.02854 0.0
O262 O 0.14538 0.34196 0.03362 0.0
C263 C 0.19594 0.42415 0.98123 0.0
O264 O 0.17146 0.42885 0.98151 0.0
C265 C 0.19924 0.31871 0.98588 0.0
Zn266 Zn 0.67639 0.14938 0.00099 0.0
Zn267 Zn 0.63337 0.17087 -0.00038 0.0
O268 O 0.63781 0.15732 0.96291 0.0
O269 O 0.67825 0.1473 0.96302 0.0
O270 O 0.60155 0.19179 -0.00382 0.0
O271 O 0.69429 0.17745 0.01873 0.0
O272 O 0.65965 0.19882 0.01011 0.0
C273 C 0.65761 0.15004 0.95111 0.0
C274 C 0.63909 0.12211 0.0297 0.0
O275 O 0.62549 0.14166 0.02545 0.0
O276 O 0.6611 0.12047 0.02025 0.0
C277 C 0.58196 0.18415 0.98439 0.0
O278 O 0.58108 0.16056 0.97652 0.0
C279 C 0.68252 0.19827 0.01808 0.0
Zn280 Zn 0.84139 0.69007 0.00261 0.0
Zn281 Zn 0.82714 0.64561 0.99169 0.0
O282 O 0.85552 0.65099 0.96434 0.0
O283 O 0.86958 0.68787 0.97745 0.0
O284 O 0.81146 0.61174 0.98368 0.0
O285 O 0.80942 0.70729 0.99298 0.0
O286 O 0.79467 0.66858 0.98879 0.0
C287 C 0.8714 0.66919 0.96256 0.0
C288 C 0.84928 0.65729 0.04411 0.0
O289 O 0.8427 0.6409 0.02761 0.0
O290 O 0.84826 0.68062 0.0387 0.0
C291 C 0.82089 0.59449 0.96981 0.0
O292 O 0.84373 0.59755 0.96025 0.0
C293 C 0.79108 0.69249 0.98868 0.0
Zn294 Zn 0.65793 0.83427 0.00122 0.0
Zn295 Zn 0.62234 0.80689 0.98957 0.0
O296 O 0.61385 0.82192 0.02553 0.0
O297 O 0.65115 0.83517 0.03831 0.0
O298 O 0.59372 0.78181 0.98468 0.0
O299 O 0.68502 0.81233 0.98767 0.0
O300 O 0.65481 0.78375 0.98536 0.0
C301 C 0.62801 0.83096 0.04295 0.0
C302 C 0.6284 0.85628 0.96192 0.0
O303 O 0.61868 0.83413 0.96122 0.0
O304 O 0.64426 0.86175 0.97906 0.0
C305 C 0.57074 0.78702 0.98993 0.0
O306 O 0.5649 0.81028 -0.00348 0.0
C307 C 0.67823 0.7898 0.98344 0.0
Zn308 Zn 0.17244 0.69029 0.99466 0.0
Zn309 Zn 0.1906 0.64582 0.9952 0.0
O310 O 0.1612 0.64287 0.02178 0.0
O311 O 0.1425 0.67953 0.01532 0.0
O312 O 0.20964 0.61268 -0.00187 0.0
O313 O 0.20226 0.70721 0.01071 0.0
O314 O 0.2206 0.67076 0.00284 0.0
C315 C 0.14278 0.65799 0.02582 0.0
C316 C 0.16988 0.66737 0.94589 0.0
O317 O 0.17637 0.6477 0.95841 0.0
O318 O 0.16935 0.68874 0.95673 0.0
C319 C 0.20183 0.59315 0.00996 0.0
O320 O 0.17856 0.59277 0.01889 0.0
C321 C 0.2221 0.69382 0.00989 0.0
Zn322 Zn 0.84446 0.30949 0.01144 0.0
Zn323 Zn 0.81683 0.34879 0.01206 0.0
O324 O 0.84293 0.35613 0.04074 0.0
O325 O 0.87041 0.32556 0.03394 0.0
O326 O 0.79437 0.37958 0.01419 0.0
O327 O 0.81732 0.28742 0.026 0.0
O328 O 0.79131 0.31919 0.01922 0.0
C329 C 0.86412 0.34556 0.04546 0.0
C330 C 0.84448 0.33279 0.9634 0.0
O331 O 0.83301 0.35005 0.97588 0.0
O332 O 0.84941 0.31185 0.97396 0.0
C333 C 0.80382 0.40169 0.01583 0.0
O334 O 0.82855 0.40447 0.01415 0.0
C335 C 0.79502 0.29621 0.02581 0.0
Zn336 Zn 0.50581 0.82154 0.65627 0.0
Zn337 Zn 0.50696 0.86208 0.68151 0.0
O338 O 0.54098 0.86139 0.66119 0.0
O339 O 0.54306 0.82184 0.64861 0.0
O340 O 0.51179 0.89259 0.70372 0.0
O341 O 0.49215 0.80075 0.68476 0.0
O342 O 0.50061 0.83373 0.70864 0.0
C343 C 0.55317 0.84347 0.65053 0.0
C344 C 0.47079 0.85884 0.63765 0.0
O345 O 0.47634 0.8703 0.65818 0.0
O346 O 0.48204 0.83849 0.63183 0.0
C347 C 0.52104 0.91326 0.69547 0.0
O348 O 0.52576 0.91561 0.67111 0.0
C349 C 0.49354 0.81071 0.70649 0.0
Zn350 Zn 0.18441 0.47639 0.65714 0.0
Zn351 Zn 0.14812 0.49265 0.68267 0.0
O352 O 0.1489 0.51877 0.65287 0.0
O353 O 0.17564 0.49891 0.62793 0.0
O354 O 0.11966 0.50519 0.70507 0.0
O355 O 0.21109 0.48737 0.68105 0.0
O356 O 0.17951 0.49464 0.70731 0.0
C357 C 0.16032 0.51697 0.6316 0.0
C358 C 0.14869 0.43808 0.66221 0.0
O359 O 0.13597 0.45687 0.67059 0.0
O360 O 0.17207 0.44074 0.65754 0.0
C361 C 0.09926 0.51453 0.69626 0.0
O362 O 0.09597 0.51539 0.67159 0.0
C363 C 0.20332 0.49344 0.70285 0.0
Zn364 Zn 0.47472 0.18401 0.65653 0.0
Zn365 Zn 0.47311 0.13607 0.6677 0.0
O366 O 0.43971 0.14266 0.64753 0.0
O367 O 0.43987 0.18391 0.64179 0.0
O368 O 0.46747 0.10029 0.67988 0.0
O369 O 0.48018 0.19547 0.69187 0.0
O370 O 0.47843 0.15507 0.70216 0.0
C371 C 0.42903 0.16269 0.63924 0.0
C372 C 0.51479 0.15448 0.63272 0.0
O373 O 0.50496 0.13571 0.64447 0.0
O374 O 0.50501 0.17628 0.6348 0.0
C375 C 0.47925 0.09121 0.69885 0.0
O376 O 0.49784 0.10437 0.70896 0.0
C377 C 0.48093 0.17825 0.70846 0.0
Zn378 Zn 0.8033 0.48413 0.64348 0.0
Zn379 Zn 0.84243 0.48539 0.67282 0.0
O380 O 0.85108 0.45596 0.64811 0.0
O381 O 0.82038 0.45954 0.62007 0.0
O382 O 0.8704 0.48282 0.69866 0.0
O383 O 0.7793 0.47268 0.67062 0.0
O384 O 0.81101 0.48078 0.69634 0.0
C385 C 0.84081 0.44929 0.6273 0.0
C386 C 0.82817 0.53259 0.64345 0.0
O387 O 0.84526 0.521 0.65606 0.0
O388 O 0.8078 0.52136 0.63748 0.0
C389 C 0.89311 0.47667 0.69339 0.0
O390 O 0.89982 0.4743 0.66951 0.0
C391 C 0.78776 0.47495 0.69293 0.0
Zn392 Zn 0.5019 0.16314 0.32928 0.0
Zn393 Zn 0.49718 0.11927 0.3086 0.0
O394 O 0.52953 0.11571 0.33149 0.0
O395 O 0.53261 0.15358 0.34867 0.0
O396 O 0.49667 0.08544 0.29077 0.0
O397 O 0.50685 0.18124 0.29697 0.0
O398 O 0.49974 0.14488 0.27793 0.0
C399 C 0.54095 0.13134 0.34598 0.0
C400 C 0.45451 0.13945 0.34191 0.0
O401 O 0.46348 0.12099 0.32915 0.0
O402 O 0.46718 0.15971 0.34417 0.0
C403 C 0.48279 0.08055 0.27167 0.0
O404 O 0.46642 0.09762 0.2639 0.0
C405 C 0.50438 0.16862 0.27682 0.0
Zn406 Zn 0.81841 0.47486 0.32011 0.0
Zn407 Zn 0.85978 0.49022 0.29879 0.0
O408 O 0.85314 0.51893 0.32498 0.0
O409 O 0.81701 0.50613 0.34158 0.0
O410 O 0.89048 0.50296 0.27959 0.0
O411 O 0.79861 0.47292 0.28845 0.0
O412 O 0.83281 0.48737 0.26935 0.0
C413 C 0.83477 0.52226 0.34035 0.0
C414 C 0.85866 0.44012 0.32848 0.0
O415 O 0.87156 0.4565 0.31611 0.0
O416 O 0.83526 0.4436 0.33245 0.0
C417 C 0.90862 0.51487 0.29012 0.0
O418 O 0.9083 0.51797 0.31483 0.0
C419 C 0.80973 0.4799 0.2684 0.0
Zn420 Zn 0.46427 0.8177 0.33604 0.0
Zn421 Zn 0.4798 0.85294 0.30816 0.0
O422 O 0.4466 0.86668 0.32561 0.0
O423 O 0.43034 0.83244 0.3429 0.0
O424 O 0.48823 0.88135 0.28386 0.0
O425 O 0.46714 0.79089 0.3103 0.0
O426 O 0.47704 0.82129 0.28366 0.0
C427 C 0.4286 0.85568 0.33758 0.0
C428 C 0.51085 0.83913 0.35439 0.0
O429 O 0.50993 0.85148 0.33358 0.0
O430 O 0.49295 0.82416 0.36015 0.0
C431 C 0.48751 0.90447 0.2906 0.0
O432 O 0.48304 0.9099 0.3145 0.0
C433 C 0.47237 0.7979 0.288 0.0
Zn434 Zn 0.17165 0.50708 0.36142 0.0
Zn435 Zn 0.13611 0.5045 0.32848 0.0
O436 O 0.12767 0.47448 0.35277 0.0
O437 O 0.15423 0.48186 0.38404 0.0
O438 O 0.11045 0.50015 0.30039 0.0
O439 O 0.19894 0.49675 0.33729 0.0
O440 O 0.16987 0.50127 0.30787 0.0
C441 C 0.1359 0.46939 0.3749 0.0
C442 C 0.14417 0.55322 0.35837 0.0
O443 O 0.12927 0.54003 0.34459 0.0
O444 O 0.16477 0.54387 0.36628 0.0
C445 C 0.08883 0.48987 0.30354 0.0
O446 O 0.08144 0.48385 0.32657 0.0
C447 C 0.19293 0.49731 0.3141 0.0
Zn448 Zn 0.65128 0.49488 0.83495 0.0
Zn449 Zn 0.68438 0.49876 0.87152 0.0
O450 O 0.66302 0.53181 0.87436 0.0
O451 O 0.63996 0.53077 0.83962 0.0
O452 O 0.71142 0.50487 0.89763 0.0
O453 O 0.678 0.48687 0.80916 0.0
O454 O 0.70617 0.49436 0.83893 0.0
C455 C 0.64713 0.5422 0.85942 0.0
C456 C 0.64502 0.45693 0.87379 0.0
O457 O 0.66552 0.46617 0.88266 0.0
O458 O 0.63465 0.46656 0.85443 0.0
C459 C 0.70615 0.51225 0.91993 0.0
O460 O 0.68223 0.51379 0.92684 0.0
C461 C 0.70092 0.48892 0.81596 0.0
Zn462 Zn 0.50292 0.66394 0.82955 0.0
Zn463 Zn 0.50909 0.68652 0.87239 0.0
O464 O 0.47832 0.6621 0.87858 0.0
O465 O 0.47376 0.64336 0.8416 0.0
O466 O 0.50943 0.70708 0.90481 0.0
O467 O 0.49571 0.69487 0.80997 0.0
O468 O 0.50456 0.7155 0.84505 0.0
C469 C 0.46676 0.6464 0.8643 0.0
C470 C 0.55198 0.65427 0.8517 0.0
O471 O 0.54342 0.6671 0.87034 0.0
O472 O 0.53855 0.65111 0.83207 0.0
C473 C 0.50329 0.69798 0.92632 0.0
O474 O 0.49942 0.67348 0.92842 0.0
C475 C 0.49859 0.71557 0.82156 0.0
Zn476 Zn 0.3633 0.49847 0.81556 0.0
Zn477 Zn 0.34049 0.48967 0.85877 0.0
O478 O 0.36617 0.45996 0.85535 0.0
O479 O 0.38434 0.46694 0.81847 0.0
O480 O 0.32243 0.48016 0.89102 0.0
O481 O 0.33066 0.4981 0.79661 0.0
O482 O 0.31075 0.49051 0.8325 0.0
C483 C 0.38194 0.45347 0.83819 0.0
C484 C 0.37009 0.53885 0.8514 0.0
O485 O 0.35689 0.52479 0.86604 0.0
O486 O 0.37541 0.53173 0.82913 0.0
C487 C 0.30199 0.49064 0.89829 0.0
O488 O 0.29275 0.50961 0.88508 0.0
C489 C 0.31019 0.49442 0.80861 0.0
Zn490 Zn 0.5355 0.324 0.81277 0.0
Zn491 Zn 0.51927 0.30639 0.85637 0.0
O492 O 0.55258 0.32618 0.86447 0.0
O493 O 0.5674 0.33809 0.82729 0.0
O494 O 0.5136 0.28849 0.88979 0.0
O495 O 0.53703 0.29045 0.79599 0.0
O496 O 0.52031 0.27565 0.83127 0.0
C497 C 0.56965 0.33696 0.85109 0.0
C498 C 0.48659 0.34488 0.83017 0.0
O499 O 0.48952 0.33092 0.84972 0.0
O500 O 0.50306 0.34466 0.8126 0.0
C501 C 0.50145 0.26771 0.89153 0.0
O502 O 0.48845 0.25971 0.87186 0.0
C503 C 0.52828 0.27214 0.80871 0.0
Zn504 Zn 0.64695 0.50895 0.16616 0.0
Zn505 Zn 0.66556 0.49597 0.1236 0.0
O506 O 0.63429 0.47202 0.12702 0.0
O507 O 0.61545 0.48843 0.16031 0.0
O508 O 0.6816 0.48299 0.09152 0.0
O509 O 0.67524 0.49412 0.18626 0.0
O510 O 0.69489 0.48977 0.14972 0.0
C511 C 0.61549 0.47269 0.14225 0.0
C512 C 0.65025 0.55093 0.13268 0.0
O513 O 0.6555 0.53361 0.11665 0.0
O514 O 0.64792 0.54545 0.15592 0.0
C515 C 0.70382 0.48948 0.08469 0.0
O516 O 0.71574 0.50715 0.09756 0.0
C517 C 0.69496 0.48849 0.17387 0.0
Zn518 Zn 0.51102 0.6539 0.16093 0.0
Zn519 Zn 0.49476 0.67377 0.12135 0.0
O520 O 0.53048 0.65842 0.11262 0.0
O521 O 0.54711 0.65104 0.14999 0.0
O522 O 0.48734 0.69448 0.08988 0.0
O523 O 0.50084 0.68104 0.18449 0.0
O524 O 0.49197 0.702 0.14964 0.0
C525 C 0.54936 0.65166 0.12616 0.0
C526 C 0.46955 0.62576 0.13876 0.0
O527 O 0.46761 0.64502 0.12418 0.0
O528 O 0.48734 0.6248 0.15486 0.0
C529 C 0.49463 0.68804 0.0678 0.0
O530 O 0.50423 0.66533 0.06451 0.0
C531 C 0.4939 0.70127 0.17378 0.0
Zn532 Zn 0.33989 0.48404 0.18109 0.0
Zn533 Zn 0.31115 0.49105 0.1422 0.0
O534 O 0.33693 0.52084 0.13852 0.0
O535 O 0.36334 0.51176 0.16947 0.0
O536 O 0.28595 0.4977 0.1142 0.0
O537 O 0.31271 0.49037 0.20655 0.0
O538 O 0.28709 0.49227 0.17381 0.0
C539 C 0.35734 0.52541 0.15066 0.0
C540 C 0.33998 0.44114 0.14843 0.0
O541 O 0.32721 0.45578 0.134 0.0
O542 O 0.34644 0.44843 0.17033 0.0
C543 C 0.29168 0.50633 0.09242 0.0
O544 O 0.31569 0.50989 0.08664 0.0
C545 C 0.29049 0.49231 0.19778 0.0
Zn546 Zn 0.48554 0.33229 0.17573 0.0
Zn547 Zn 0.48654 0.31047 0.13331 0.0
O548 O 0.45021 0.32622 0.13529 0.0
O549 O 0.44777 0.336 0.17568 0.0
O550 O 0.48465 0.28894 0.10182 0.0
O551 O 0.50185 0.3042 0.19479 0.0
O552 O 0.49557 0.28237 0.15994 0.0
C553 C 0.43735 0.33413 0.15418 0.0
C554 C 0.51864 0.35751 0.14078 0.0
O555 O 0.51458 0.33787 0.12724 0.0
O556 O 0.50709 0.36016 0.16166 0.0
C557 C 0.47156 0.29439 0.08235 0.0
O558 O 0.4606 0.31668 0.08098 0.0
C559 C 0.50244 0.28336 0.1831 0.0
Zn560 Zn 0.81501 0.64137 0.4926 0.0
Zn561 Zn 0.85826 0.66358 0.49015 0.0
O562 O 0.85872 0.64358 0.52437 0.0
O563 O 0.81962 0.62955 0.52827 0.0
O564 O 0.89074 0.68391 0.49283 0.0
O565 O 0.79512 0.67215 0.48531 0.0
O566 O 0.8314 0.69278 0.48651 0.0
C567 C 0.84172 0.63208 0.53722 0.0
C568 C 0.84516 0.62359 0.45077 0.0
O569 O 0.86108 0.64029 0.45819 0.0
O570 O 0.82488 0.61994 0.46315 0.0
C571 C 0.91028 0.67541 0.50413 0.0
O572 O 0.91062 0.65156 0.51126 0.0
C573 C 0.8073 0.69272 0.48397 0.0
Zn574 Zn 0.82983 0.33716 0.47504 0.0
Zn575 Zn 0.87023 0.3135 0.48044 0.0
O576 O 0.87291 0.32992 0.44441 0.0
O577 O 0.83307 0.33983 0.43742 0.0
O578 O 0.90175 0.29178 0.48056 0.0
O579 O 0.80782 0.31048 0.49002 0.0
O580 O 0.84141 0.2864 0.4855 0.0
C581 C 0.85558 0.33769 0.42947 0.0
C582 C 0.86167 0.36074 0.51142 0.0
O583 O 0.8739 0.33995 0.50967 0.0
O584 O 0.84312 0.36503 0.49686 0.0
C585 C 0.9037 0.27149 0.49344 0.0
O586 O 0.88586 0.26584 0.50994 0.0
C587 C 0.81787 0.28879 0.49066 0.0
Zn588 Zn 0.6441 0.79344 0.49657 0.0
Zn589 Zn 0.66475 0.83563 0.48837 0.0
O590 O 0.63377 0.83638 0.46359 0.0
O591 O 0.61309 0.80278 0.47712 0.0
O592 O 0.68358 0.86778 0.47964 0.0
O593 O 0.67111 0.77318 0.47992 0.0
O594 O 0.69287 0.80868 0.48082 0.0
C595 C 0.61416 0.82216 0.46304 0.0
C596 C 0.64801 0.82149 0.54197 0.0
O597 O 0.65418 0.83901 0.52642 0.0
O598 O 0.64492 0.7991 0.53404 0.0
C599 C 0.70519 0.87208 0.48945 0.0
O600 O 0.71376 0.8565 0.50689 0.0
C601 C 0.69175 0.78493 0.47664 0.0
Zn602 Zn 0.18866 0.65996 0.50246 0.0
Zn603 Zn 0.14597 0.68195 0.5066 0.0
O604 O 0.14448 0.66605 0.4704 0.0
O605 O 0.18429 0.65487 0.46511 0.0
O606 O 0.11397 0.7028 0.50773 0.0
O607 O 0.20906 0.68917 0.51481 0.0
O608 O 0.17335 0.71029 0.51167 0.0
C609 C 0.16213 0.65741 0.4563 0.0
C610 C 0.15682 0.63578 0.53926 0.0
O611 O 0.14267 0.65502 0.53546 0.0
O612 O 0.17697 0.63302 0.52649 0.0
C613 C 0.09296 0.69553 0.49838 0.0
O614 O 0.09107 0.67238 0.48948 0.0
C615 C 0.19724 0.70996 0.51563 0.0
Zn616 Zn 0.32411 0.18884 0.48306 0.0
Zn617 Zn 0.30453 0.14392 0.47753 0.0
O618 O 0.32932 0.14688 0.44683 0.0
O619 O 0.3461 0.18462 0.4526 0.0
O620 O 0.28691 0.11089 0.47026 0.0
O621 O 0.2913 0.20656 0.47868 0.0
O622 O 0.27363 0.1688 0.47775 0.0
C623 C 0.3444 0.16446 0.43979 0.0
C624 C 0.33396 0.15599 0.52563 0.0
O625 O 0.32291 0.13933 0.51203 0.0
O626 O 0.336 0.17856 0.51773 0.0
C627 C 0.26597 0.10503 0.48077 0.0
O628 O 0.25692 0.11969 0.49874 0.0
C629 C 0.27167 0.19287 0.47739 0.0
Zn630 Zn 0.15877 0.34458 0.51154 0.0
Zn631 Zn 0.11909 0.32017 0.50927 0.0
O632 O 0.12151 0.33282 0.54678 0.0
O633 O 0.16196 0.34233 0.5492 0.0
O634 O 0.08852 0.29727 0.51129 0.0
O635 O 0.1786 0.32124 0.48971 0.0
O636 O 0.1471 0.29494 0.49692 0.0
C637 C 0.14079 0.33906 0.55997 0.0
C638 C 0.12181 0.37069 0.4829 0.0
O639 O 0.11086 0.34911 0.48355 0.0
O640 O 0.14166 0.37447 0.49581 0.0
C641 C 0.06828 0.3039 0.5226 0.0
O642 O 0.06611 0.32739 0.53049 0.0
C643 C 0.16927 0.29925 0.48815 0.0
Zn644 Zn 0.64664 0.19245 0.48525 0.0
Zn645 Zn 0.66782 0.15019 0.49743 0.0
O646 O 0.64009 0.15348 0.5255 0.0
O647 O 0.62101 0.18834 0.51284 0.0
O648 O 0.68705 0.11856 0.5068 0.0
O649 O 0.67695 0.21321 0.49285 0.0
O650 O 0.69696 0.17734 0.49985 0.0
C651 C 0.62281 0.17014 0.52836 0.0
C652 C 0.64352 0.15709 0.44502 0.0
O653 O 0.65307 0.14233 0.46162 0.0
O654 O 0.64005 0.18023 0.45006 0.0
C655 C 0.67762 0.09958 0.5183 0.0
O656 O 0.65333 0.09951 0.52398 0.0
C657 C 0.69704 0.20149 0.49847 0.0
Zn658 Zn 0.35057 0.83092 0.48898 0.0
Zn659 Zn 0.32327 0.86797 0.50088 0.0
O660 O 0.35449 0.87187 0.52498 0.0
O661 O 0.38066 0.84476 0.50729 0.0
O662 O 0.29955 0.89599 0.51173 0.0
O663 O 0.32848 0.8053 0.50584 0.0
O664 O 0.30062 0.83611 0.50806 0.0
C665 C 0.3765 0.86196 0.52342 0.0
C666 C 0.33909 0.8599 0.4458 0.0
O667 O 0.3313 0.87537 0.46266 0.0
O668 O 0.34632 0.83797 0.4521 0.0
C669 C 0.30652 0.91602 0.52315 0.0
O670 O 0.33081 0.92002 0.52707 0.0
C671 C 0.30626 0.81277 0.51085 0.0
H672 H 0.0485 0.4576 0.3032 0.0
H673 H 0.0974 0.50081 0.25359 0.0
H674 H 0.07889 0.47992 0.21674 0.0
H675 H 0.05269 0.4458 0.19908 0.0
H676 H 0.00537 0.40112 0.24892 0.0
H677 H 0.01919 0.42637 0.28509 0.0
C678 C 0.05481 0.46281 0.28432 0.0
C679 C 0.07454 0.48054 0.28122 0.0
C680 C 0.04454 0.45025 0.26321 0.0
C681 C 0.08241 0.48706 0.25657 0.0
C682 C 0.07188 0.47507 0.23546 0.0
C683 C 0.04505 0.44183 0.21778 0.0
C684 C 0.02826 0.42137 0.22129 0.0
C685 C 0.05353 0.45605 0.23861 0.0
C686 C 0.01851 0.41659 0.24568 0.0
C687 C 0.02644 0.431 0.26641 0.0
H688 H 0.51921 0.01098 0.18323 0.0
H689 H 0.56738 0.98274 0.24307 0.0
H690 H 0.54279 0.00617 0.27434 0.0
H691 H 0.51323 0.04073 0.28341 0.0
H692 H 0.46614 0.07051 0.22353 0.0
H693 H 0.48429 0.0401 0.19378 0.0
C694 C 0.524 0.00949 0.20316 0.0
C695 C 0.5456 -0.00427 0.21067 0.0
C696 C 0.5102 0.02363 0.22105 0.0
C697 C 0.55121 0.99366 0.23666 0.0
C698 C 0.53719 0.00711 0.25459 0.0
C699 C 0.50657 0.04028 0.26397 0.0
C700 C 0.48894 0.0584 0.25555 0.0
C701 C 0.51753 0.02318 0.24682 0.0
C702 C 0.48005 0.0571 0.23045 0.0
C703 C 0.49053 0.03979 0.21335 0.0
H704 H 0.98615 0.58859 0.23671 0.0
H705 H 0.95688 0.55075 0.17035 0.0
H706 H 0.93248 0.52199 0.1972 0.0
H707 H 0.91603 0.51048 0.23921 0.0
H708 H 0.94481 0.54862 0.30558 0.0
H709 H 0.97294 0.57414 0.27903 0.0
C710 C 0.97473 0.57382 0.2281 0.0
C711 C 0.97312 0.5721 0.2015 0.0
C712 C 0.96045 0.55751 0.24365 0.0
C713 C 0.95837 0.55269 0.19073 0.0
C714 C 0.94431 0.53625 0.20608 0.0
C715 C 0.92865 0.52417 0.24792 0.0
C716 C 0.92801 0.52784 0.27434 0.0
C717 C 0.94464 0.53896 0.23252 0.0
C718 C 0.94474 0.54547 0.2853 0.0
C719 C 0.96082 0.56015 0.27011 0.0
H720 H 0.47038 0.95272 0.29614 0.0
H721 H 0.50147 0.90122 0.24081 0.0
H722 H 0.49 0.93037 0.20675 0.0
H723 H 0.4635 0.96575 0.19249 0.0
H724 H 0.42871 0.01491 0.24771 0.0
H725 H 0.44984 0.99194 0.28193 0.0
C726 C 0.47522 0.94814 0.2767 0.0
C727 C 0.48622 0.92455 0.27098 0.0
C728 C 0.4676 0.9645 0.25711 0.0
C729 C 0.49257 0.91904 0.24569 0.0
C730 C 0.48596 0.93569 0.22618 0.0
C731 C 0.46108 0.97187 0.21196 0.0
C732 C 0.44408 0.99158 0.21764 0.0
C733 C 0.47227 0.95779 0.23159 0.0
C734 C 0.44131 -0.00056 0.24293 0.0
C735 C 0.45331 0.98624 0.26251 0.0
H736 H 0.09731 0.51141 0.74775 0.0
H737 H 0.05961 0.54528 0.68351 0.0
H738 H 0.03246 0.56962 0.71198 0.0
H739 H 0.02252 0.58453 0.75493 0.0
H740 H 0.06049 0.55087 0.81915 0.0
H741 H 0.08404 0.52293 0.79087 0.0
C742 C 0.08298 0.52392 0.73996 0.0
C743 C 0.08078 0.52679 0.71352 0.0
C744 C 0.06748 0.53797 0.75644 0.0
C745 C 0.06185 0.54281 0.70377 0.0
C746 C 0.04633 0.5568 0.72005 0.0
C747 C 0.03563 0.5708 0.76281 0.0
C748 C 0.03995 0.5701 0.78914 0.0
C749 C 0.04942 0.555 0.7464 0.0
C750 C 0.05686 0.55199 0.79898 0.0
C751 C 0.07047 0.53606 0.78279 0.0
H752 H 0.40845 0.01072 0.7503 0.0
H753 H 0.45841 0.02575 0.81335 0.0
H754 H 0.4859 0.05101 0.78585 0.0
H755 H 0.49248 0.07338 0.74549 0.0
H756 H 0.4414 0.05957 0.68304 0.0
H757 H 0.41791 0.029 0.70865 0.0
C758 C 0.42555 0.0192 0.75799 0.0
C759 C 0.43109 0.0167 0.78397 0.0
C760 C 0.44101 0.0341 0.74221 0.0
C761 C 0.45351 0.02755 0.79349 0.0
C762 C 0.46923 0.04209 0.77779 0.0
C763 C 0.47652 0.06333 0.73728 0.0
C764 C 0.46849 0.0691 0.71249 0.0
C765 C 0.46268 0.04619 0.75233 0.0
C766 C 0.44785 0.05574 0.70216 0.0
C767 C 0.43432 0.03829 0.71683 0.0
H768 H 0.94099 0.45766 0.68881 0.0
H769 H 0.88314 0.47492 0.7442 0.0
H770 H 0.9075 0.45321 0.77688 0.0
H771 H 0.9427 0.42523 0.78861 0.0
H772 H 0.0004 0.40753 0.73327 0.0
H773 H 0.97876 0.43371 0.70187 0.0
C774 C 0.93389 0.45705 0.70811 0.0
C775 C 0.91006 0.46758 0.71389 0.0
C776 C 0.94785 0.44422 0.72682 0.0
C777 C 0.9013 0.46679 0.73909 0.0
C778 C 0.91518 0.45428 0.75783 0.0
C779 C 0.95073 0.42734 0.76978 0.0
C780 C 0.97293 0.41411 0.76322 0.0
C781 C 0.93808 0.44225 0.75173 0.0
C782 C 0.98324 0.41734 0.73882 0.0
C783 C 0.97083 0.43226 0.72079 0.0
H784 H 0.56944 0.97204 0.78662 0.0
H785 H 0.60471 0.0131 0.72509 0.0
H786 H 0.57809 0.99067 0.69461 0.0
H787 H 0.54891 0.95558 0.68518 0.0
H788 H 0.51476 0.91373 0.74685 0.0
H789 H 0.5366 0.94053 0.77745 0.0
C790 C 0.57107 0.97638 0.76657 0.0
C791 C 0.58937 0.99391 0.75814 0.0
C792 C 0.55604 0.9631 0.74912 0.0
C793 C 0.59095 -0.00046 0.73212 0.0
C794 C 0.57579 0.98664 0.71464 0.0
C795 C 0.54588 0.95259 0.70531 0.0
C796 C 0.53055 0.93238 0.71367 0.0
C797 C 0.55889 0.96778 0.72287 0.0
C798 C 0.52669 0.92894 0.73984 0.0
C799 C 0.53923 0.94422 0.7574 0.0
H800 H 0.18019 0.03558 0.43522 0.0
H801 H 0.24021 0.01935 0.38184 0.0
H802 H 0.26987 0.04423 0.40696 0.0
H803 H 0.27789 0.07366 0.44177 0.0
H804 H 0.2179 0.09101 0.49476 0.0
H805 H 0.18932 0.06231 0.47234 0.0
C806 C 0.19982 0.03725 0.42922 0.0
C807 C 0.20783 0.02586 0.40648 0.0
C808 C 0.21682 0.05186 0.44365 0.0
C809 C 0.23341 0.0281 0.39911 0.0
C810 C 0.25043 0.04235 0.41347 0.0
C811 C 0.25867 0.07094 0.44866 0.0
C812 C 0.25 0.08472 0.46975 0.0
C813 C 0.24221 0.05478 0.43543 0.0
C814 C 0.22507 0.08077 0.47849 0.0
C815 C 0.20865 0.06443 0.4656 0.0
H816 H 0.94325 0.27706 0.46066 0.0
H817 H 0.90566 0.22178 0.50802 0.0
H818 H 0.92932 0.18783 0.48746 0.0
H819 H 0.95515 0.1735 0.45137 0.0
H820 H 0.99177 0.22893 0.40336 0.0
H821 H 0.97436 0.26302 0.42909 0.0
C822 C 0.94059 0.25764 0.46686 0.0
C823 C 0.92226 0.25196 0.48545 0.0
C824 C 0.95388 0.23813 0.45461 0.0
C825 C 0.91941 0.22672 0.49355 0.0
C826 C 0.93285 0.20723 0.4817 0.0
C827 C 0.95979 0.193 0.44683 0.0
C828 C 0.97427 0.19859 0.42508 0.0
C829 C 0.94929 0.21263 0.46145 0.0
C830 C 0.98036 0.22401 0.41974 0.0
C831 C 0.97033 0.24359 0.43442 0.0
H832 H 0.69474 0.90491 0.45093 0.0
H833 H 0.75384 0.88341 0.50332 0.0
H834 H 0.78372 0.9113 0.48152 0.0
H835 H 0.79418 0.93838 0.44507 0.0
H836 H 0.73525 0.95915 0.39219 0.0
H837 H 0.70424 0.93519 0.41687 0.0
C838 C 0.71406 0.90656 0.45782 0.0
C839 C 0.72207 0.8918 0.47856 0.0
C840 C 0.73128 0.92239 0.44498 0.0
C841 C 0.74715 0.89438 0.4873 0.0
C842 C 0.76431 0.91029 0.47479 0.0
C843 C 0.7745 0.93796 0.4391 0.0
C844 C 0.76718 0.9503 0.4166 0.0
C845 C 0.75677 0.92385 0.45321 0.0
C846 C 0.74151 0.94968 0.4093 0.0
C847 C 0.72373 0.93591 0.42338 0.0
H848 H 0.03276 0.79233 0.46601 0.0
H849 H 0.99342 0.73698 0.42042 0.0
H850 H 0.01503 0.70282 0.44284 0.0
H851 H 0.05017 0.68919 0.47014 0.0
H852 H 0.09102 0.74479 0.51409 0.0
H853 H 0.06352 0.77817 0.49784 0.0
C854 C 0.02846 0.7728 0.46134 0.0
C855 C 0.0119 0.76728 0.44117 0.0
C856 C 0.04153 0.75323 0.47379 0.0
C857 C 0.00638 0.74181 0.4356 0.0
C858 C 0.01881 0.72223 0.44835 0.0
C859 C 0.05274 0.70852 0.47659 0.0
C860 C 0.07299 0.71452 0.49289 0.0
C861 C 0.03726 0.72777 0.46667 0.0
C862 C 0.07584 0.73966 0.50125 0.0
C863 C 0.06014 0.75881 0.49192 0.0
H864 H 0.23743 0.98232 0.59415 0.0
H865 H 0.17878 0.94463 0.55125 0.0
H866 H 0.21082 0.92549 0.52396 0.0
H867 H 0.25552 0.91587 0.51517 0.0
H868 H 0.31424 0.9534 0.55809 0.0
H869 H 0.28213 0.97635 0.58223 0.0
C870 C 0.23162 0.97019 0.57862 0.0
C871 C 0.20574 0.96464 0.57502 0.0
C872 C 0.25017 0.95904 0.56309 0.0
C873 C 0.19856 0.94912 0.5546 0.0
C874 C 0.21688 0.93806 0.53901 0.0
C875 C 0.26132 0.9293 0.5296 0.0
C876 C 0.28725 0.93261 0.53505 0.0
C877 C 0.24276 0.94232 0.54354 0.0
C878 C 0.29442 0.95035 0.55357 0.0
C879 C 0.27606 0.96343 0.56748 0.0
H880 H 0.01611 0.20801 0.56987 0.0
H881 H 0.9716 0.26589 0.60668 0.0
H882 H 0.99142 0.29824 0.58016 0.0
H883 H 0.02548 0.31064 0.55082 0.0
H884 H 0.07054 0.25278 0.51462 0.0
H885 H 0.04612 0.21998 0.53626 0.0
C886 C 0.01043 0.22764 0.57182 0.0
C887 C 0.99275 0.23452 0.5906 0.0
C888 C 0.02216 0.24625 0.55674 0.0
C889 C 0.98535 0.26003 0.59258 0.0
C890 C -0.00325 0.27861 0.57747 0.0
C891 C 0.02968 0.29086 0.54729 0.0
C892 C 0.05017 0.28426 0.53149 0.0
C893 C 0.01583 0.27203 0.56014 0.0
C894 C 0.05509 0.25848 0.5269 0.0
C895 C 0.04118 0.23966 0.53936 0.0
H896 H 0.73926 0.01817 0.57979 0.0
H897 H 0.80034 0.04892 0.53451 0.0
H898 H 0.77011 0.07464 0.51082 0.0
H899 H 0.72719 0.09192 0.50624 0.0
H900 H 0.66616 0.06178 0.55194 0.0
H901 H 0.69553 0.03217 0.572 0.0
C902 C 0.74595 0.03019 0.56448 0.0
C903 C 0.77211 0.03187 0.55922 0.0
C904 C 0.72851 0.04526 0.55116 0.0
C905 C 0.78036 0.04738 0.53913 0.0
C906 C 0.76309 0.0622 0.52562 0.0
C907 C 0.72022 0.07869 0.52039 0.0
C908 C 0.69458 0.07935 0.52785 0.0
C909 C 0.73725 0.06188 0.53201 0.0
C910 C 0.68583 0.06182 0.54595 0.0
C911 C 0.70263 0.04491 0.55749 0.0
H912 H 0.91621 0.72535 0.4922 0.0
H913 H 0.94739 0.6659 0.53898 0.0
H914 H 0.97273 0.69691 0.56202 0.0
H915 H 0.98142 0.74137 0.57274 0.0
H916 H 0.95019 0.80084 0.52605 0.0
H917 H 0.92985 0.76936 0.49901 0.0
C918 C 0.92889 0.7191 0.50713 0.0
C919 C 0.92948 0.69337 0.51414 0.0
C920 C 0.94324 0.73709 0.52055 0.0
C921 C 0.94634 0.68559 0.53328 0.0
C922 C 0.96078 0.70335 0.5466 0.0
C923 C 0.97048 0.74745 0.55643 0.0
C924 C 0.96692 0.77345 0.55177 0.0
C925 C 0.95864 0.72924 0.54103 0.0
C926 C 0.95306 0.78097 0.53028 0.0
C927 C 0.94132 0.76296 0.51482 0.0
H928 H 0.43861 0.2972 0.04264 0.0
H929 H 0.48816 0.24535 0.08203 0.0
H930 H 0.46987 0.20987 0.05883 0.0
H931 H 0.43555 0.19302 0.03231 0.0
H932 H 0.38517 0.24477 0.99387 0.0
H933 H 0.40831 0.2807 0.01141 0.0
C934 C 0.44578 0.27821 0.04581 0.0
C935 C 0.46437 0.27395 0.06445 0.0
C936 C 0.43482 0.25776 0.03275 0.0
C937 C 0.47363 0.24921 0.06805 0.0
C938 C 0.46311 0.22884 0.05484 0.0
C939 C 0.42992 0.21214 0.02734 0.0
C940 C 0.40832 0.21612 0.0122 0.0
C941 C 0.44301 0.23279 0.0379 0.0
C942 C 0.40152 0.24108 0.00573 0.0
C943 C 0.4147 0.26169 0.01584 0.0
H944 H 0.43591 0.75908 0.00198 0.0
H945 H 0.47223 0.82158 0.96344 0.0
H946 H 0.50143 0.79238 0.94275 0.0
H947 H 0.51149 0.74881 0.92997 0.0
H948 H 0.47518 0.68624 0.96837 0.0
H949 H 0.4517 0.71575 0.99508 0.0
C950 C 0.45048 0.76637 0.98938 0.0
C951 C 0.45135 0.79242 0.98371 0.0
C952 C 0.46706 0.74942 0.97723 0.0
C953 C 0.47079 0.80159 0.96785 0.0
C954 C 0.48747 0.78488 0.95589 0.0
C955 C 0.49879 0.7416 0.9445 0.0
C956 C 0.49451 0.71537 0.94658 0.0
C957 C 0.48498 0.75869 0.95953 0.0
C958 C 0.47853 0.70635 0.96599 0.0
C959 C 0.46492 0.72323 0.98119 0.0
H960 H 0.25454 0.50363 0.91436 0.0
H961 H 0.31581 0.45138 0.92898 0.0
H962 H 0.28908 0.42796 0.9586 0.0
H963 H 0.24704 0.41935 0.97634 0.0
H964 H 0.18521 0.47063 0.96086 0.0
H965 H 0.21358 0.49758 0.93599 0.0
C966 C 0.26219 0.48736 0.92431 0.0
C967 C 0.28703 0.47906 0.91911 0.0
C968 C 0.24656 0.47367 0.94106 0.0
C969 C 0.29667 0.45804 0.93236 0.0
C970 C 0.28138 0.44458 0.9493 0.0
C971 C 0.23981 0.43662 0.96785 0.0
C972 C 0.21392 0.44271 0.97013 0.0
C973 C 0.25608 0.45176 0.95317 0.0
C974 C 0.20499 0.46533 0.95925 0.0
C975 C 0.22119 0.48073 0.94492 0.0
H976 H 0.5404 0.17547 0.95483 0.0
H977 H 0.58166 0.23528 0.99245 0.0
H978 H 0.55701 0.26696 0.96963 0.0
H979 H 0.52883 0.27747 0.93419 0.0
H980 H 0.48832 0.21772 0.89571 0.0
H981 H 0.50715 0.18641 0.92403 0.0
C982 C 0.54367 0.19542 0.95844 0.0
C983 C 0.56328 0.20292 0.97492 0.0
C984 C 0.5297 0.21363 0.9449 0.0
C985 C 0.56695 0.2289 0.97962 0.0
C986 C 0.5529 0.24709 0.9665 0.0
C987 C 0.52367 0.25767 0.93232 0.0
C988 C 0.50761 0.24995 0.91246 0.0
C989 C 0.535 0.23965 0.94832 0.0
C990 C 0.50084 0.22423 0.91062 0.0
C991 C 0.51174 0.20624 0.92673 0.0
H992 H 0.75688 0.51394 0.91015 0.0
H993 H 0.70079 0.53603 0.96562 0.0
H994 H 0.73257 0.56122 0.98786 0.0
H995 H 0.77457 0.58126 0.98832 0.0
H996 H 0.83038 0.56008 0.93225 0.0
H997 H 0.80046 0.53001 0.91372 0.0
C998 C 0.75166 0.52394 0.92733 0.0
C999 C 0.72635 0.52346 0.93592 0.0
C1000 C 0.76992 0.53876 0.9398 0.0
C1001 C 0.72005 0.53625 0.95841 0.0
C1002 C 0.7382 0.55076 0.97111 0.0
C1003 C 0.78034 0.56982 0.97225 0.0
C1004 C 0.80454 0.57327 0.96141 0.0
C1005 C 0.76293 0.55285 0.96146 0.0
C1006 C 0.81182 0.55799 0.94085 0.0
C1007 C 0.79468 0.54085 0.93017 0.0
H1008 H 0.52281 0.68489 0.02462 0.0
H1009 H 0.47584 0.73634 0.06741 0.0
H1010 H 0.49199 0.77195 0.04258 0.0
H1011 H 0.52574 0.78903 0.01533 0.0
H1012 H 0.57486 0.73768 0.97488 0.0
H1013 H 0.55121 0.70159 0.99171 0.0
C1014 C 0.51561 0.70379 0.02814 0.0
C1015 C 0.49869 0.708 0.04836 0.0
C1016 C 0.52574 0.72433 0.01448 0.0
C1017 C 0.48927 0.7326 0.05232 0.0
C1018 C 0.49861 0.75303 0.03821 0.0
C1019 C 0.53095 0.76998 0.00972 0.0
C1020 C 0.55253 0.76604 0.99447 0.0
C1021 C 0.5179 0.74925 0.02027 0.0
C1022 C 0.55868 0.74123 0.98704 0.0
C1023 C 0.54522 0.72055 -0.00326 0.0
H1024 H 0.19445 0.55471 0.04363 0.0
H1025 H 0.25122 0.58805 0.99477 0.0
H1026 H 0.28382 0.56152 0.01404 0.0
H1027 H 0.29706 0.53315 0.04852 0.0
H1028 H 0.24043 0.50124 0.09851 0.0
H1029 H 0.20702 0.52269 0.07487 0.0
C1030 C 0.21385 0.55586 0.03683 0.0
C1031 C 0.22039 0.57366 0.01804 0.0
C1032 C 0.23266 0.54099 0.04843 0.0
C1033 C 0.24565 0.57473 0.0094 0.0
C1034 C 0.26436 0.55961 0.02048 0.0
C1035 C 0.27739 0.53054 0.05401 0.0
C1036 C 0.27135 0.51592 0.07553 0.0
C1037 C 0.25823 0.54335 0.04063 0.0
C1038 C 0.2457 0.51262 0.08222 0.0
C1039 C 0.22653 0.52492 0.06873 0.0
H1040 H 0.75267 0.49526 0.0686 0.0
H1041 H 0.68617 0.44847 0.05852 0.0
H1042 H 0.71088 0.41839 0.03371 0.0
H1043 H 0.75231 0.40276 0.01949 0.0
H1044 H 0.81902 0.4491 0.0301 0.0
H1045 H 0.79321 0.48203 0.04974 0.0
C1046 C 0.74347 0.47871 0.06063 0.0
C1047 C 0.71769 0.47396 0.06583 0.0
C1048 C 0.75788 0.46123 0.04665 0.0
C1049 C 0.70603 0.45252 0.05508 0.0
C1050 C 0.72018 0.43522 0.04093 0.0
C1051 C 0.76117 0.42021 0.02577 0.0
C1052 C 0.78763 0.42323 0.02371 0.0
C1053 C 0.74628 0.43896 0.03734 0.0
C1054 C 0.79873 0.44613 0.03163 0.0
C1055 C 0.78399 0.46497 0.04296 0.0
H1056 H 0.96187 0.20383 0.25576 0.0
H1057 H 0.00462 0.23862 0.31608 0.0
H1058 H 0.01176 0.2762 0.28949 0.0
H1059 H 0.00931 0.29711 0.24713 0.0
H1060 H 0.96743 0.26017 0.18733 0.0
H1061 H 0.95637 0.22563 0.21574 0.0
C1062 C 0.97262 0.21968 0.26324 0.0
C1063 C 0.98303 0.21827 0.2877 0.0
C1064 C 0.97691 0.24084 0.24783 0.0
C1065 C -0.00351 0.2392 0.29724 0.0
C1066 C 0.00066 0.26063 0.28199 0.0
C1067 C -0.00257 0.28168 0.24055 0.0
C1068 C 0.98947 0.28104 0.21507 0.0
C1069 C 0.99148 0.2614 0.25698 0.0
C1070 C 0.97411 0.26094 0.20674 0.0
C1071 C 0.96774 0.24115 0.22297 0.0
H1072 H 0.73584 0.97778 0.3004 0.0
H1073 H 0.7897 0.01485 0.25081 0.0
H1074 H 0.75797 0.01762 0.21771 0.0
H1075 H 0.7164 0.00677 0.20132 0.0
H1076 H 0.66154 0.96952 0.24934 0.0
H1077 H 0.69197 0.96992 0.28458 0.0
C1078 C 0.74048 0.98672 0.28246 0.0
C1079 C 0.7653 -0.00426 0.27807 0.0
C1080 C 0.72201 0.98813 0.26313 0.0
C1081 C 0.77094 0.00738 0.2547 0.0
C1082 C 0.75277 0.00904 0.23567 0.0
C1083 C 0.71095 -0.00112 0.21954 0.0
C1084 C 0.68687 0.98785 0.2226 0.0
C1085 C 0.72849 -0.00101 0.23946 0.0
C1086 C 0.68001 0.97809 0.24647 0.0
C1087 C 0.69746 0.97821 0.26658 0.0
H1088 H 0.99545 0.68757 0.24804 0.0
H1089 H 0.04623 0.7339 0.20336 0.0
H1090 H 0.0489 0.76465 0.23752 0.0
H1091 H 0.03318 0.78083 0.27766 0.0
H1092 H 0.98185 0.73596 0.32296 0.0
H1093 H 0.98319 0.70208 0.29117 0.0
C1094 C 0.00751 0.70413 0.24608 0.0
C1095 C 0.02037 0.70861 0.22309 0.0
C1096 C 0.00858 0.72216 0.26573 0.0
C1097 C 0.03589 0.73017 0.22075 0.0
C1098 C 0.0374 0.74782 0.24024 0.0
C1099 C 0.02242 0.76355 0.28071 0.0
C1100 C 0.00709 0.76106 0.30236 0.0
C1101 C 0.02317 0.74442 0.2624 0.0
C1102 C 0.99369 0.73836 0.30633 0.0
C1103 C 0.99439 0.71905 0.28812 0.0
H1104 H 0.24642 -0.00373 0.29694 0.0
H1105 H 0.20396 0.94825 0.24598 0.0
H1106 H 0.23868 0.94905 0.21577 0.0
H1107 H 0.27921 0.96603 0.20191 0.0
H1108 H 0.32273 0.01421 0.25148 0.0
H1109 H 0.28974 0.01036 0.28423 0.0
C1110 C 0.24494 0.98573 0.27938 0.0
C1111 C 0.22237 0.97252 0.27367 0.0
C1112 C 0.26511 0.98637 0.26174 0.0
C1113 C 0.22087 0.95887 0.25082 0.0
C1114 C 0.24076 0.95927 0.23345 0.0
C1115 C 0.28164 0.97555 0.21996 0.0
C1116 C 0.3032 0.99065 0.22413 0.0
C1117 C 0.26265 0.97342 0.23843 0.0
C1118 C 0.30626 0.00249 0.24779 0.0
C1119 C 0.28733 0.0004 0.26644 0.0
H1120 H 0.97686 0.73169 0.77829 0.0
H1121 H 0.0213 0.67953 0.73398 0.0
H1122 H 0.01335 0.70497 0.69568 0.0
H1123 H -0.00257 0.74493 0.67617 0.0
H1124 H 0.95288 0.79609 0.72195 0.0
H1125 H 0.95688 0.76795 0.75817 0.0
C1126 C 0.98462 0.72574 0.76018 0.0
C1127 C -1e-05 0.7041 0.75894 0.0
C1128 C 0.97997 0.74035 0.73853 0.0
C1129 C 0.00949 0.69625 0.73534 0.0
C1130 C 0.00502 0.71084 0.71352 0.0
C1131 C 0.98818 0.7496 0.69392 0.0
C1132 C 0.97522 0.77282 0.69642 0.0
C1133 C 0.99081 0.73334 0.71502 0.0
C1134 C 0.96328 0.77856 0.71957 0.0
C1135 C 0.96557 0.7625 0.74036 0.0
H1136 H 0.24019 0.98526 0.69302 0.0
H1137 H 0.18463 0.01509 0.74534 0.0
H1138 H 0.21666 0.01823 0.77816 0.0
H1139 H 0.25916 0.00944 0.79336 0.0
H1140 H 0.31578 0.97967 0.74247 0.0
H1141 H 0.28477 0.97987 0.70772 0.0
C1142 C 0.23524 0.99276 0.71149 0.0
C1143 C 0.2099 -0.00042 0.71674 0.0
C1144 C 0.25387 0.99437 0.73062 0.0
C1145 C 0.20383 0.00935 0.74079 0.0
C1146 C 0.22215 0.01119 0.75966 0.0
C1147 C 0.26483 0.00311 0.77463 0.0
C1148 C 0.2896 0.9942 0.77057 0.0
C1149 C 0.24701 0.00319 0.75498 0.0
C1150 C 0.29676 0.98654 0.74608 0.0
C1151 C 0.27901 0.98656 0.72626 0.0
H1152 H 0.98772 0.24577 0.69175 0.0
H1153 H 0.04184 0.19901 0.73138 0.0
H1154 H 0.04774 0.23191 0.76316 0.0
H1155 H 0.03292 0.27066 0.783 0.0
H1156 H 0.97695 0.31708 0.74571 0.0
H1157 H 0.97666 0.28796 0.7095 0.0
C1158 C 0.00127 0.24316 0.707 0.0
C1159 C 0.01417 0.21995 0.70942 0.0
C1160 C 0.00395 0.26193 0.72579 0.0
C1161 C 0.03155 0.21664 0.72931 0.0
C1162 C 0.03487 0.2354 0.74752 0.0
C1163 C 0.02091 0.27465 0.76679 0.0
C1164 C 0.00463 0.2957 0.76723 0.0
C1165 C 0.02041 0.25761 0.7465 0.0
C1166 C 0.98956 0.30089 0.74588 0.0
C1167 C 0.98928 0.28415 0.72526 0.0
H1168 H 0.78502 0.9689 0.72517 0.0
H1169 H 0.73565 0.00535 0.67115 0.0
H1170 H 0.70151 0.00628 0.7028 0.0
H1171 H 0.68761 0.00108 0.74758 0.0
H1172 H 0.73881 0.96626 0.80112 0.0
H1173 H 0.77019 0.96027 0.76787 0.0
C1174 C 0.76671 0.97682 0.72014 0.0
C1175 C 0.76302 0.98736 0.69596 0.0
C1176 C 0.74752 0.97779 0.73848 0.0
C1177 C 0.73903 -0.00283 0.68968 0.0
C1178 C 0.71956 -0.00215 0.70783 0.0
C1179 C 0.70547 0.99181 0.75179 0.0
C1180 C 0.711 0.98443 0.77686 0.0
C1181 C 0.72384 0.98887 0.73256 0.0
C1182 C 0.73422 0.97245 0.78207 0.0
C1183 C 0.75221 0.96898 0.76307 0.0
H1184 H 0.19595 0.2711 0.9676 0.0
H1185 H 0.24969 0.32488 -0.00227 0.0
H1186 H 0.2827 0.29221 -0.00215 0.0
H1187 H 0.29482 0.24704 0.99346 0.0
H1188 H 0.23979 0.19383 0.9644 0.0
H1189 H 0.20889 0.22766 0.95959 0.0
C1190 C 0.21494 0.2758 0.974 0.0
C1191 C 0.22024 0.30029 0.98298 0.0
C1192 C 0.23359 0.25695 0.97432 0.0
C1193 C 0.24507 0.30613 0.99082 0.0
C1194 C 0.26392 0.28742 0.99098 0.0
C1195 C 0.27622 0.24299 0.98565 0.0
C1196 C 0.26953 0.21788 0.97958 0.0
C1197 C 0.25822 0.26257 0.98335 0.0
C1198 C 0.24534 0.21291 0.96951 0.0
C1199 C 0.22761 0.23225 0.96676 0.0
H1200 H 0.23126 0.73287 0.04138 0.0
H1201 H 0.26837 0.68248 0.98898 0.0
H1202 H 0.30676 0.70878 0.99034 0.0
H1203 H 0.32691 0.74995 0.00131 0.0
H1204 H 0.2884 0.80009 0.05313 0.0
H1205 H 0.25376 0.76987 0.05754 0.0
C1206 C 0.24794 0.72737 0.03064 0.0
C1207 C 0.24689 0.70606 0.0148 0.0
C1208 C 0.26969 0.74268 0.0313 0.0
C1209 C 0.26872 0.69888 0.00128 0.0
C1210 C 0.29061 0.71402 0.00193 0.0
C1211 C 0.3113 0.75384 0.01414 0.0
C1212 C 0.31003 0.77738 0.02659 0.0
C1213 C 0.29097 0.73652 0.01614 0.0
C1214 C 0.28965 0.78224 0.04309 0.0
C1215 C 0.26976 0.76501 0.04556 0.0
H1216 H 0.74514 0.29948 0.01101 0.0
H1217 H 0.79731 0.25379 0.05446 0.0
H1218 H 0.76526 0.22095 0.05917 0.0
H1219 H 0.72495 0.20268 0.04619 0.0
H1220 H 0.67261 0.2466 0.00138 0.0
H1221 H 0.70183 0.28278 0.00246 0.0
C1222 C 0.74925 0.28256 0.02193 0.0
C1223 C 0.77373 0.27892 0.032 0.0
C1224 C 0.73076 0.26332 0.02417 0.0
C1225 C 0.77877 0.2569 0.04615 0.0
C1226 C 0.76045 0.23808 0.04889 0.0
C1227 C 0.71969 0.22032 0.03703 0.0
C1228 C 0.69684 0.22183 0.02343 0.0
C1229 C 0.73676 0.24068 0.03721 0.0
C1230 C 0.69013 0.24493 0.01197 0.0
C1231 C 0.70695 0.26556 0.0124 0.0
H1232 H 0.78136 0.7355 0.96375 0.0
H1233 H 0.74431 0.67468 0.00384 0.0
H1234 H 0.70408 0.69825 0.00302 0.0
H1235 H 0.68127 0.73913 -0.00423 0.0
H1236 H 0.72026 0.79938 0.95625 0.0
H1237 H 0.75769 0.77299 0.95161 0.0
C1238 C 0.76436 0.72722 0.97196 0.0
C1239 C 0.76579 0.70365 0.98416 0.0
C1240 C 0.74165 0.74091 0.97164 0.0
C1241 C 0.74361 0.69288 0.99437 0.0
C1242 C 0.72069 0.70644 0.99404 0.0
C1243 C 0.69777 0.74614 0.98564 0.0
C1244 C 0.69815 0.7713 0.97669 0.0
C1245 C 0.71968 0.7309 0.98344 0.0
C1246 C 0.71965 0.78022 0.96363 0.0
C1247 C 0.7411 0.76516 0.96098 0.0
H1248 H 0.46828 0.72257 0.78152 0.0
H1249 H 0.52303 0.76138 0.82807 0.0
H1250 H 0.5241 0.79668 0.7976 0.0
H1251 H 0.5135 0.81341 0.75457 0.0
H1252 H 0.4601 0.77214 0.70829 0.0
H1253 H 0.45432 0.74103 0.74184 0.0
C1254 C 0.4802 0.73894 0.78523 0.0
C1255 C 0.49583 0.73924 0.80676 0.0
C1256 C 0.48111 0.75862 0.76748 0.0
C1257 C 0.51083 0.76072 0.81157 0.0
C1258 C 0.51158 0.78078 0.79404 0.0
C1259 C 0.50025 0.79787 0.75214 0.0
C1260 C 0.48749 0.79488 0.72885 0.0
C1261 C 0.49743 0.77952 0.77145 0.0
C1262 C 0.4704 0.77465 0.72588 0.0
C1263 C 0.46707 0.75684 0.74505 0.0
H1264 H 0.30271 0.51581 0.76306 0.0
H1265 H 0.2633 0.47493 0.82202 0.0
H1266 H 0.22499 0.47332 0.79547 0.0
H1267 H 0.20419 0.4804 0.75341 0.0
H1268 H 0.24583 0.52017 0.69513 0.0
H1269 H 0.28164 0.52563 0.72362 0.0
C1270 C 0.28574 0.50658 0.77025 0.0
C1271 C 0.286 0.49511 0.79429 0.0
C1272 C 0.26414 0.50558 0.75493 0.0
C1273 C 0.26364 0.48375 0.80347 0.0
C1274 C 0.24177 0.48279 0.78827 0.0
C1275 C 0.22095 0.49068 0.74727 0.0
C1276 C 0.22249 0.49977 0.72219 0.0
C1277 C 0.24196 0.49322 0.76369 0.0
C1278 C 0.24433 0.51286 0.71428 0.0
C1279 C 0.26484 0.51595 0.73052 0.0
H1280 H 0.48692 0.24134 0.80726 0.0
H1281 H 0.56398 0.24871 0.78072 0.0
H1282 H 0.55716 0.21476 0.75013 0.0
H1283 H 0.52703 0.18984 0.7253 0.0
H1284 H 0.44883 0.18527 0.74836 0.0
H1285 H 0.45814 0.21078 0.78613 0.0
C1286 C 0.50238 0.23479 0.79537 0.0
C1287 C 0.52587 0.24744 0.79604 0.0
C1288 C 0.49792 0.21602 0.77695 0.0
C1289 C 0.54574 0.2392 0.78036 0.0
C1290 C 0.5418 0.21991 0.7628 0.0
C1291 C 0.51233 0.19364 0.73921 0.0
C1292 C 0.48743 0.18566 0.73443 0.0
C1293 C 0.51765 0.20915 0.76007 0.0
C1294 C 0.46823 0.19099 0.75205 0.0
C1295 C 0.47352 0.2058 0.77343 0.0
H1296 H 0.79599 0.48781 0.74255 0.0
H1297 H 0.7393 0.45721 0.69197 0.0
H1298 H 0.70808 0.45774 0.72596 0.0
H1299 H 0.69593 0.46937 0.7689 0.0
H1300 H 0.75168 0.50039 0.82009 0.0
H1301 H 0.78421 0.49705 0.78703 0.0
C1302 C 0.7769 0.48096 0.73907 0.0
C1303 C 0.77 0.47268 0.71464 0.0
C1304 C 0.75879 0.48158 0.75872 0.0
C1305 C 0.74514 0.46388 0.71049 0.0
C1306 C 0.72721 0.46419 0.72991 0.0
C1307 C 0.71521 0.47535 0.77294 0.0
C1308 C 0.72127 0.48539 0.79686 0.0
C1309 C 0.73368 0.47347 0.75391 0.0
C1310 C 0.74646 0.49269 0.8018 0.0
C1311 C 0.76506 0.49082 0.78289 0.0
H1312 H 0.5356 0.20719 0.26683 0.0
H1313 H 0.47687 0.16168 0.23294 0.0
H1314 H 0.47356 0.19206 0.19767 0.0
H1315 H 0.48288 0.23525 0.18064 0.0
H1316 H 0.53995 0.28084 0.21746 0.0
H1317 H 0.54868 0.24669 0.24723 0.0
C1318 C 0.52242 0.20364 0.25143 0.0
C1319 C 0.50625 0.18253 0.25257 0.0
C1320 C 0.52019 0.22142 0.23189 0.0
C1321 C 0.48952 0.17787 0.2324 0.0
C1322 C 0.48748 0.19537 0.21241 0.0
C1323 C 0.49764 0.23733 0.1948 0.0
C1324 C 0.5106 0.26057 0.1971 0.0
C1325 C 0.50202 0.21776 0.21251 0.0
C1326 C 0.52958 0.26321 0.21556 0.0
C1327 C 0.53455 0.24372 0.2326 0.0
H1328 H 0.76892 0.45139 0.25791 0.0
H1329 H 0.8168 0.50939 0.22568 0.0
H1330 H 0.78671 0.51478 0.19051 0.0
H1331 H 0.74356 0.50688 0.17252 0.0
H1332 H 0.69556 0.45073 0.20775 0.0
H1333 H 0.72896 0.44048 0.23799 0.0
C1334 C 0.773 0.46502 0.24302 0.0
C1335 C 0.79482 0.48027 0.2446 0.0
C1336 C 0.75543 0.46839 0.22344 0.0
C1337 C 0.80007 0.49748 0.22493 0.0
C1338 C 0.78277 0.50066 0.20492 0.0
C1339 C 0.74084 0.49198 0.18643 0.0
C1340 C 0.71725 0.47951 0.18804 0.0
C1341 C 0.75993 0.4868 0.20445 0.0
C1342 C 0.71361 0.46051 0.20629 0.0
C1343 C 0.73264 0.45473 0.22361 0.0
H1344 H 0.47649 0.69955 0.22129 0.0
H1345 H 0.49798 0.75242 0.16276 0.0
H1346 H 0.49248 0.7878 0.19266 0.0
H1347 H 0.48405 0.80307 0.23687 0.0
H1348 H 0.4623 0.74803 0.29378 0.0
H1349 H 0.4655 0.71435 0.2631 0.0
C1350 C 0.47989 0.71884 0.21496 0.0
C1351 C 0.48793 0.72336 0.19 0.0
C1352 C 0.47681 0.73876 0.23209 0.0
C1353 C 0.49177 0.74847 0.18195 0.0
C1354 C 0.48878 0.76865 0.19909 0.0
C1355 C 0.4799 0.78373 0.24245 0.0
C1356 C 0.47324 0.77826 0.26782 0.0
C1357 C 0.48171 0.76397 0.22445 0.0
C1358 C 0.46772 0.75303 0.27459 0.0
C1359 C 0.46949 0.73358 0.25701 0.0
H1360 H 0.29209 0.48597 0.24854 0.0
H1361 H 0.24005 0.50165 0.18741 0.0
H1362 H 0.20486 0.50392 0.21783 0.0
H1363 H 0.18917 0.50209 0.26226 0.0
H1364 H 0.24245 0.48593 0.32237 0.0
H1365 H 0.27673 0.48311 0.29177 0.0
C1366 C 0.27309 0.48995 0.24174 0.0
C1367 C 0.2688 0.4938 0.21571 0.0
C1368 C 0.25308 0.49108 0.2592 0.0
C1369 C 0.24393 0.49868 0.20735 0.0
C1370 C 0.2238 0.49997 0.22475 0.0
C1371 C 0.20825 0.49781 0.26861 0.0
C1372 C 0.21312 0.49433 0.29468 0.0
C1373 C 0.22817 0.49626 0.25079 0.0
C1374 C 0.23803 0.48881 0.30253 0.0
C1375 C 0.25775 0.4872 0.28502 0.0
H1376 H 0.76703 0.6974 0.45377 0.0
H1377 H 0.81467 0.74013 0.50443 0.0
H1378 H 0.7842 0.77539 0.50345 0.0
H1379 H 0.7406 0.79068 0.49331 0.0
H1380 H 0.6931 0.74562 0.44432 0.0
H1381 H 0.72705 0.71484 0.4391 0.0
C1382 C 0.77097 0.71465 0.46424 0.0
C1383 C 0.79273 0.71613 0.47946 0.0
C1384 C 0.75325 0.73433 0.46397 0.0
C1385 C 0.79794 0.73864 0.49261 0.0
C1386 C 0.78043 0.75866 0.49219 0.0
C1387 C 0.73806 0.77447 0.48096 0.0
C1388 C 0.71436 0.7702 0.46941 0.0
C1389 C 0.75752 0.75629 0.47869 0.0
C1390 C 0.71112 0.74909 0.45358 0.0
C1391 C 0.73048 0.73146 0.45065 0.0
H1392 H 0.74668 0.19297 0.48467 0.0
H1393 H 0.69796 0.24437 0.52549 0.0
H1394 H 0.73268 0.27442 0.52993 0.0
H1395 H 0.77458 0.28865 0.51739 0.0
H1396 H 0.82386 0.23946 0.47475 0.0
H1397 H 0.79158 0.20583 0.4762 0.0
C1398 C 0.74397 0.21051 0.49498 0.0
C1399 C 0.71977 0.21665 0.50449 0.0
C1400 C 0.76401 0.2282 0.49689 0.0
C1401 C 0.71636 0.23944 0.51774 0.0
C1402 C 0.73618 0.25664 0.52029 0.0
C1403 C 0.77845 0.27043 0.50871 0.0
C1404 C 0.80133 0.26666 0.49562 0.0
C1405 C 0.75973 0.25163 0.50914 0.0
C1406 C 0.80629 0.24283 0.48488 0.0
C1407 C 0.78776 0.22368 0.48555 0.0
H1408 H 0.25456 0.81437 0.50471 0.0
H1409 H 0.31528 0.7682 0.53432 0.0
H1410 H 0.28585 0.7334 0.54145 0.0
H1411 H 0.24446 0.71432 0.53467 0.0
H1412 H 0.18335 0.75874 0.50349 0.0
H1413 H 0.21112 0.79605 0.50203 0.0
C1414 C 0.26116 0.79685 0.51317 0.0
C1415 C 0.28713 0.79376 0.51866 0.0
C1416 C 0.24413 0.77651 0.51674 0.0
C1417 C 0.29547 0.77094 0.52959 0.0
C1418 C 0.27866 0.751 0.53369 0.0
C1419 C 0.23706 0.73223 0.52783 0.0
C1420 C 0.21201 0.73365 0.51885 0.0
C1421 C 0.25319 0.75329 0.52657 0.0
C1422 C 0.20261 0.75712 0.51045 0.0
C1423 C 0.21854 0.77841 0.50946 0.0
H1424 H 0.16955 0.24892 0.50101 0.0
H1425 H 0.20555 0.30421 0.45244 0.0
H1426 H 0.23872 0.27407 0.44177 0.0
H1427 H 0.26104 0.235 0.45148 0.0
H1428 H 0.22701 0.17937 0.50076 0.0
H1429 H 0.18931 0.20634 0.50565 0.0
C1430 C 0.1843 0.25404 0.48759 0.0
C1431 C 0.18538 0.27886 0.47784 0.0
C1432 C 0.20383 0.2367 0.48197 0.0
C1433 C 0.20457 0.28533 0.46047 0.0
C1434 C 0.22357 0.26814 0.45439 0.0
C1435 C 0.24512 0.22858 0.4629 0.0
C1436 C 0.24682 0.20557 0.47608 0.0
C1437 C 0.22397 0.24425 0.46587 0.0
C1438 C 0.22604 0.19713 0.49049 0.0
C1439 C 0.20462 0.21263 0.49342 0.0
H1440 H 0.0776 0.38403 0.13025 0.0
H1441 H 0.10631 0.31103 0.15302 0.0
H1442 H 0.14132 0.31503 0.12302 0.0
H1443 H 0.15677 0.33408 0.08369 0.0
H1444 H 0.12673 0.40551 0.05831 0.0
H1445 H 0.09962 0.40777 0.0961 0.0
C1446 C 0.09217 0.36956 0.12938 0.0
C1447 C 0.08927 0.3471 0.14351 0.0
C1448 C 0.11168 0.37151 0.11118 0.0
C1449 C 0.1081 0.32836 0.14213 0.0
C1450 C 0.128 0.33056 0.12484 0.0
C1451 C 0.14499 0.35061 0.08702 0.0
C1452 C 0.14342 0.36946 0.0683 0.0
C1453 C 0.12897 0.35125 0.10821 0.0
C1454 C 0.12825 0.39084 0.07261 0.0
C1455 C 0.11253 0.39194 0.09406 0.0
H1456 H 0.62949 0.01597 0.08008 0.0
H1457 H 0.60826 0.06058 0.14498 0.0
H1458 H 0.6066 0.0988 0.11831 0.0
H1459 H 0.61772 0.1202 0.07738 0.0
H1460 H 0.64013 0.07418 0.01371 0.0
H1461 H 0.63437 0.03587 0.03879 0.0
C1462 C 0.624 0.03399 0.08829 0.0
C1463 C 0.61934 0.0356 0.11443 0.0
C1464 C 0.62346 0.05569 0.073 0.0
C1465 C 0.61193 0.05893 0.12484 0.0
C1466 C 0.61118 0.08079 0.10962 0.0
C1467 C 0.62055 0.10171 0.06893 0.0
C1468 C 0.62946 0.09992 0.04381 0.0
C1469 C 0.61781 0.07956 0.08379 0.0
C1470 C 0.63338 0.07593 0.03306 0.0
C1471 C 0.6302 0.05403 0.0474 0.0
H1472 H 0.93352 0.62522 0.12034 0.0
H1473 H 0.91712 0.70026 0.148 0.0
H1474 H 0.87879 0.70188 0.12222 0.0
H1475 H 0.85518 0.6857 0.08609 0.0
H1476 H 0.87328 0.61242 0.05501 0.0
H1477 H 0.90509 0.60597 0.0882 0.0
C1478 C 0.92106 0.64153 0.12126 0.0
C1479 C 0.92817 0.66273 0.13576 0.0
C1480 C 0.89954 0.64277 0.10549 0.0
C1481 C 0.91208 0.68386 0.13674 0.0
C1482 C 0.89022 0.68483 0.12195 0.0
C1483 C 0.86564 0.66802 0.08694 0.0
C1484 C 0.86228 0.64981 0.06783 0.0
C1485 C 0.88454 0.66496 0.10533 0.0
C1486 C 0.87561 0.62682 0.06943 0.0
C1487 C 0.89401 0.62325 0.08827 0.0
H1488 H 0.38833 0.86998 0.07818 0.0
H1489 H 0.37761 0.9203 0.01463 0.0
H1490 H 0.38 0.9569 0.04256 0.0
H1491 H 0.37719 0.97392 0.08536 0.0
H1492 H 0.38665 0.92477 0.14984 0.0
H1493 H 0.39304 0.88843 0.12146 0.0
C1494 C 0.38746 0.88901 0.07047 0.0
C1495 C 0.38263 0.89255 0.04447 0.0
C1496 C 0.38809 0.91011 0.08688 0.0
C1497 C 0.38121 0.91723 0.03463 0.0
C1498 C 0.38241 0.93814 0.0506 0.0
C1499 C 0.38128 0.95533 0.09315 0.0
C1500 C 0.38113 0.95182 0.1195 0.0
C1501 C 0.38459 0.93472 0.07681 0.0
C1502 C 0.3867 0.92782 0.12953 0.0
C1503 C 0.39014 0.90705 0.1133 0.0
H1504 H 0.10513 0.69096 0.85068 0.0
H1505 H 0.07743 0.61555 0.86568 0.0
H1506 H 0.11154 0.6089 0.89647 0.0
H1507 H 0.14417 0.62772 0.92458 0.0
H1508 H 0.17049 0.70373 0.90968 0.0
H1509 H 0.14251 0.70671 0.8731 0.0
C1510 C 0.10693 0.67285 0.86026 0.0
C1511 C 0.08854 0.65398 0.8563 0.0
C1512 C 0.12628 0.66934 0.87815 0.0
C1513 C 0.0913 0.63045 0.8685 0.0
C1514 C 0.11071 0.6267 0.88625 0.0
C1515 C 0.1444 0.64456 0.91278 0.0
C1516 C 0.15908 0.66563 0.92006 0.0
C1517 C 0.12763 0.64645 0.89206 0.0
C1518 C 0.15913 0.68738 0.90464 0.0
C1519 C 0.14302 0.68916 0.88378 0.0
H1520 H 0.34356 0.02298 0.91239 0.0
H1521 H 0.36378 0.07241 0.85052 0.0
H1522 H 0.36472 0.10874 0.87965 0.0
H1523 H 0.35432 0.1269 0.92219 0.0
H1524 H 0.33328 0.07596 0.98277 0.0
H1525 H 0.33854 0.03978 0.95485 0.0
C1526 C 0.34848 0.04167 0.90531 0.0
C1527 C 0.35315 0.04516 0.87936 0.0
C1528 C 0.34875 0.06223 0.922 0.0
C1529 C 0.36 0.06933 0.87048 0.0
C1530 C 0.3604 0.09009 0.88711 0.0
C1531 C 0.35152 0.10782 0.9293 0.0
C1532 C 0.34313 0.10407 0.95439 0.0
C1533 C 0.35405 0.08688 0.91284 0.0
C1534 C 0.33944 0.0793 0.96343 0.0
C1535 C 0.34239 0.05858 0.94748 0.0
H1536 H 0.85861 0.29799 0.92892 0.0
H1537 H 0.8564 0.37862 0.9415 0.0
H1538 H 0.88511 0.38526 0.90546 0.0
H1539 H 0.91656 0.36723 0.87535 0.0
H1540 H 0.92033 0.28616 0.86596 0.0
H1541 H 0.88525 0.2806 0.89558 0.0
C1542 C 0.86397 0.31709 0.92347 0.0
C1543 C 0.85574 0.33774 0.93811 0.0
C1544 C 0.88112 0.32063 0.90347 0.0
C1545 C 0.86251 0.36239 0.93057 0.0
C1546 C 0.87915 0.36616 0.91011 0.0
C1547 C 0.90921 0.34845 0.87934 0.0
C1548 C 0.92119 0.3271 0.86875 0.0
C1549 C 0.88946 0.34531 0.89714 0.0
C1550 C 0.91162 0.30283 0.87414 0.0
C1551 C 0.89157 0.29964 0.89109 0.0
H1552 H 0.63309 0.90647 0.96712 0.0
H1553 H 0.61304 0.84933 0.91239 0.0
H1554 H 0.61405 0.88131 0.87847 0.0
H1555 H 0.62662 0.9246 0.86397 0.0
H1556 H 0.64956 0.97972 0.91982 0.0
H1557 H 0.6414 0.94951 0.9537 0.0
C1558 C 0.62859 0.90101 0.94781 0.0
C1559 C 0.6234 0.87555 0.94217 0.0
C1560 C 0.63005 0.91916 0.92856 0.0
C1561 C 0.61714 0.86885 0.91718 0.0
C1562 C 0.61795 0.88709 0.89778 0.0
C1563 C 0.62936 0.93 0.88361 0.0
C1564 C 0.63898 0.9542 0.88943 0.0
C1565 C 0.62528 0.91216 0.90314 0.0
C1566 C 0.64253 0.96107 0.91489 0.0
C1567 C 0.63783 0.94384 0.93428 0.0
H1568 H 0.11695 0.05338 0.35532 0.0
H1569 H 0.10665 0.0389 0.27545 0.0
H1570 H 0.07391 0.07126 0.27336 0.0
H1571 H 0.04581 0.10074 0.29449 0.0
H1572 H 0.05371 0.11511 0.37458 0.0
H1573 H 0.08995 0.08593 0.37629 0.0
C1574 C 0.1078 0.05768 0.33742 0.0
C1575 C 0.1141 0.04363 0.31559 0.0
C1576 C 0.08841 0.07606 0.33644 0.0
C1577 C 0.10199 0.04926 0.29255 0.0
C1578 C 0.08324 0.06775 0.29133 0.0
C1579 C 0.05546 0.09766 0.31239 0.0
C1580 C 0.04681 0.10984 0.33445 0.0
C1581 C 0.07587 0.08075 0.31324 0.0
C1582 C 0.0599 0.10589 0.35733 0.0
C1583 C 0.08057 0.08914 0.35831 0.0
H1584 H 0.93065 0.09577 0.38039 0.0
H1585 H 0.89046 0.1406 0.32525 0.0
H1586 H 0.85353 0.11286 0.32888 0.0
H1587 H 0.83728 0.07085 0.33987 0.0
H1588 H 0.8787 0.02348 0.39168 0.0
H1589 H 0.9102 0.05715 0.39788 0.0
C1590 C 0.91336 0.09996 0.37006 0.0
C1591 C 0.91308 0.12009 0.35261 0.0
C1592 C 0.89258 0.08316 0.3714 0.0
C1593 C 0.8909 0.12519 0.33885 0.0
C1594 C 0.86989 0.10923 0.34078 0.0
C1595 C 0.85256 0.06847 0.35345 0.0
C1596 C 0.85568 0.045 0.3655 0.0
C1597 C 0.87109 0.08741 0.35588 0.0
C1598 C 0.87579 0.04166 0.38259 0.0
C1599 C 0.89398 0.06078 0.3858 0.0
H1600 H 0.86396 0.91785 0.37748 0.0
H1601 H 0.85281 0.90444 0.29763 0.0
H1602 H 0.8817 0.86849 0.29919 0.0
H1603 H 0.91544 0.84613 0.32111 0.0
H1604 H 0.93003 0.8607 0.40008 0.0
H1605 H 0.89421 0.89045 0.40134 0.0
C1606 C 0.86736 0.90651 0.36069 0.0
C1607 C 0.85651 0.91379 0.3374 0.0
C1608 C 0.88486 0.88633 0.36153 0.0
C1609 C 0.86115 0.89922 0.31567 0.0
C1610 C 0.87771 0.87874 0.31653 0.0
C1611 C 0.91038 0.85537 0.33877 0.0
C1612 C 0.92547 0.85158 0.36036 0.0
C1613 C 0.89051 0.87291 0.33904 0.0
C1614 C 0.91862 0.86335 0.38322 0.0
C1615 C 0.89832 0.88055 0.38383 0.0
H1616 H 0.14229 0.892 0.34798 0.0
H1617 H 0.10791 0.95564 0.38558 0.0
H1618 H 0.07256 0.92889 0.39949 0.0
H1619 H 0.04724 0.89014 0.39174 0.0
H1620 H 0.08222 0.82632 0.35502 0.0
H1621 H 0.12186 0.85004 0.35044 0.0
C1622 C 0.12764 0.89962 0.36026 0.0
C1623 C 0.12748 0.92564 0.3657 0.0
C1624 C 0.10732 0.88417 0.36794 0.0
C1625 C 0.10844 0.93555 0.38141 0.0
C1626 C 0.08806 0.92034 0.38906 0.0
C1627 C 0.06397 0.88113 0.38387 0.0
C1628 C 0.06202 0.85666 0.37369 0.0
C1629 C 0.08662 0.895 0.38115 0.0
C1630 C 0.08354 0.8451 0.36319 0.0
C1631 C 0.10608 0.85876 0.36031 0.0
H1632 H 0.07158 0.84045 0.66447 0.0
H1633 H 0.04883 0.86647 0.59055 0.0
H1634 H 0.0848 0.89608 0.58959 0.0
H1635 H 0.11644 0.92077 0.61432 0.0
H1636 H 0.13592 0.89606 0.68977 0.0
H1637 H 0.10806 0.85944 0.68551 0.0
C1638 C 0.07511 0.85196 0.64776 0.0
C1639 C 0.05761 0.85157 0.62774 0.0
C1640 C 0.09507 0.8695 0.64788 0.0
C1641 C 0.06222 0.86642 0.60612 0.0
C1642 C 0.08258 0.88359 0.60576 0.0
C1643 C 0.11523 0.90681 0.62938 0.0
C1644 C 0.12792 0.91115 0.65244 0.0
C1645 C 0.09825 0.88626 0.62717 0.0
C1646 C 0.12611 0.89314 0.67196 0.0
C1647 C 0.1101 0.87228 0.66958 0.0
H1648 H 0.0737 0.01952 0.64334 0.0
H1649 H 0.13846 0.0675 0.62969 0.0
H1650 H 0.11037 0.10443 0.62545 0.0
H1651 H 0.06774 0.12368 0.63304 0.0
H1652 H 0.00426 0.07447 0.64901 0.0
H1653 H 0.03129 0.0374 0.64451 0.0
C1654 C 0.08161 0.038 0.63884 0.0
C1655 C 0.108 0.04096 0.63714 0.0
C1656 C 0.0655 0.05896 0.6371 0.0
C1657 C 0.11811 0.06484 0.63103 0.0
C1658 C 0.10207 0.08595 0.62887 0.0
C1659 C 0.05983 0.10478 0.63477 0.0
C1660 C 0.03416 0.10169 0.64156 0.0
C1661 C 0.07578 0.08339 0.63292 0.0
C1662 C 0.02404 0.0772 0.64399 0.0
C1663 C 0.03947 0.05602 0.6415 0.0
H1664 H 0.91932 0.13212 0.61903 0.0
H1665 H 0.90251 0.1514 0.69671 0.0
H1666 H 0.86633 0.12266 0.69657 0.0
H1667 H 0.84575 0.08569 0.6776 0.0
H1668 H 0.86225 0.06543 0.60026 0.0
H1669 H 0.89199 0.10104 0.59684 0.0
C1670 C 0.90713 0.13075 0.63556 0.0
C1671 C 0.91389 0.14343 0.65803 0.0
C1672 C 0.88666 0.11356 0.63559 0.0
C1673 C 0.89791 0.14152 0.67931 0.0
C1674 C 0.87731 0.12495 0.67932 0.0
C1675 C 0.85534 0.08957 0.65979 0.0
C1676 C 0.85228 0.07285 0.63938 0.0
C1677 C 0.87249 0.10982 0.6581 0.0
C1678 C 0.86444 0.0781 0.61625 0.0
C1679 C 0.88158 0.09833 0.61437 0.0
H1680 H 0.94785 0.90346 0.60665 0.0
H1681 H 0.89757 0.84126 0.62316 0.0
H1682 H 0.86083 0.86969 0.62039 0.0
H1683 H 0.84452 0.91389 0.62156 0.0
H1684 H 0.89578 0.97559 0.60589 0.0
H1685 H 0.93057 0.94584 0.59931 0.0
C1686 C 0.92873 0.89605 0.60874 0.0
C1687 C 0.92525 0.87051 0.6152 0.0
C1688 C 0.90793 0.91253 0.60745 0.0
C1689 C 0.90055 0.86091 0.61799 0.0
C1690 C 0.87961 0.87722 0.61665 0.0
C1691 C 0.86307 0.92059 0.61563 0.0
C1692 C 0.86772 0.94676 0.61403 0.0
C1693 C 0.8832 0.9033 0.61254 0.0
C1694 C 0.89187 0.95545 0.60692 0.0
C1695 C 0.91179 0.93848 0.60342 0.0
H1696 H 0.32408 0.09354 0.15108 0.0
H1697 H 0.39897 0.07284 0.12586 0.0
H1698 H 0.39797 0.10668 0.09398 0.0
H1699 H 0.37147 0.13492 0.06732 0.0
H1700 H 0.29533 0.15268 0.09158 0.0
H1701 H 0.30125 0.12777 0.13003 0.0
C1702 C 0.34055 0.09711 0.13921 0.0
C1703 C 0.36139 0.08064 0.14048 0.0
C1704 C 0.33936 0.11583 0.12041 0.0
C1705 C 0.38273 0.08539 0.12522 0.0
C1706 C 0.38199 0.10451 0.10676 0.0
C1707 C 0.35656 0.13406 0.0815 0.0
C1708 C 0.33283 0.1452 0.07647 0.0
C1709 C 0.35978 0.11883 0.10322 0.0
C1710 C 0.31362 0.14393 0.09492 0.0
C1711 C 0.31696 0.12962 0.11686 0.0
H1712 H 0.33145 0.8959 0.84976 0.0
H1713 H 0.40191 0.93372 0.86661 0.0
H1714 H 0.41158 0.90175 0.89892 0.0
H1715 H 0.39489 0.86919 0.9286 0.0
H1716 H 0.32264 0.83414 0.91294 0.0
H1717 H 0.31898 0.85833 0.87372 0.0
C1718 C 0.34934 0.89662 0.85993 0.0
C1719 C 0.36574 0.91728 0.85618 0.0
C1720 C 0.35422 0.8788 0.87901 0.0
C1721 C 0.38897 0.91796 0.8692 0.0
C1722 C 0.39434 0.89984 0.8879 0.0
C1723 C 0.37889 0.86619 0.91604 0.0
C1724 C 0.3589 0.85017 0.9237 0.0
C1725 C 0.3764 0.88104 0.89395 0.0
C1726 C 0.33812 0.84654 0.90746 0.0
C1727 C 0.33595 0.86048 0.88512 0.0
H1728 H 0.07727 0.3622 0.85432 0.0
H1729 H 0.0145 0.38443 0.9016 0.0
H1730 H 0.0435 0.39274 0.93681 0.0
H1731 H 0.0854 0.38523 0.9561 0.0
H1732 H 0.14852 0.36398 0.90882 0.0
H1733 H 0.12095 0.36409 0.87142 0.0
C1734 C 0.07021 0.36998 0.872 0.0
C1735 C 0.04397 0.37291 0.87551 0.0
C1736 C 0.087 0.37437 0.89222 0.0
C1737 C 0.03475 0.38248 0.89852 0.0
C1738 C 0.05128 0.38689 0.91872 0.0
C1739 C 0.09319 0.3815 0.93743 0.0
C1740 C 0.11873 0.37443 0.93503 0.0
C1741 C 0.07725 0.38167 0.91613 0.0
C1742 C 0.12885 0.36958 0.91092 0.0
C1743 C 0.11306 0.36945 0.88962 0.0
H1744 H 0.61771 0.12831 0.92638 0.0
H1745 H 0.69538 0.15232 0.91639 0.0
H1746 H 0.69823 0.12831 0.87708 0.0
H1747 H 0.682 0.09348 0.85149 0.0
H1748 H 0.60571 0.06626 0.86306 0.0
H1749 H 0.59859 0.099 0.89509 0.0
C1750 C 0.63493 0.12893 0.91511 0.0
C1751 C 0.65647 0.14164 0.92445 0.0
C1752 C 0.63676 0.1142 0.89294 0.0
C1753 C 0.6787 0.14232 0.90973 0.0
C1754 C 0.68036 0.12854 0.88729 0.0
C1755 C 0.66353 0.09526 0.86043 0.0
C1756 C 0.64461 0.0772 0.85535 0.0
C1757 C 0.66002 0.1133 0.87955 0.0
C1758 C 0.62063 0.0799 0.86672 0.0
C1759 C 0.61667 0.09842 0.88531 0.0
H1760 H 0.96781 0.68786 0.8952 0.0
H1761 H 0.9436 0.61861 0.85922 0.0
H1762 H 0.90757 0.61579 0.88887 0.0
H1763 H 0.88255 0.63408 0.92498 0.0
H1764 H 0.90867 0.70411 0.95862 0.0
H1765 H 0.94418 0.70542 0.92976 0.0
C1766 C 0.95476 0.67203 0.89364 0.0
C1767 C 0.95845 0.65353 0.87487 0.0
C1768 C 0.93424 0.67072 0.91037 0.0
C1769 C 0.94127 0.63315 0.87348 0.0
C1770 C 0.92062 0.63159 0.89041 0.0
C1771 C 0.89601 0.6496 0.92591 0.0
C1772 C 0.89268 0.669 0.94402 0.0
C1773 C 0.91681 0.65042 0.90891 0.0
C1774 C 0.91044 0.68893 0.94494 0.0
C1775 C 0.93092 0.68975 0.92843 0.0
H1776 H 0.59153 0.91239 0.11837 0.0
H1777 H 0.65994 0.888 0.15581 0.0
H1778 H 0.66171 0.8504 0.12913 0.0
H1779 H 0.64986 0.83075 0.08898 0.0
H1780 H 0.5831 0.85595 0.04932 0.0
H1781 H 0.57414 0.8864 0.08317 0.0
C1782 C 0.60611 0.89821 0.12135 0.0
C1783 C 0.6257 0.90293 0.13882 0.0
C1784 C 0.60758 0.87704 0.10514 0.0
C1785 C 0.64474 0.8847 0.14237 0.0
C1786 C 0.64588 0.86331 0.12699 0.0
C1787 C 0.63281 0.84224 0.08828 0.0
C1788 C 0.61739 0.84146 0.06661 0.0
C1789 C 0.62832 0.86017 0.10733 0.0
C1790 C 0.59525 0.85624 0.06588 0.0
C1791 C 0.59032 0.87389 0.08509 0.0
H1792 H 0.03747 0.65284 0.07939 0.0
H1793 H 0.08255 0.62506 0.1415 0.0
H1794 H 0.11979 0.6223 0.11343 0.0
H1795 H 0.14071 0.63445 0.07248 0.0
H1796 H 0.09443 0.6649 0.01232 0.0
H1797 H 0.05651 0.65976 0.03814 0.0
C1798 C 0.05534 0.64565 0.08666 0.0
C1799 C 0.05742 0.63944 0.11244 0.0
C1800 C 0.07656 0.64494 0.07074 0.0
C1801 C 0.08052 0.62988 0.12164 0.0
C1802 C 0.10185 0.62859 0.10564 0.0
C1803 C 0.12221 0.63939 0.06499 0.0
C1804 C 0.12031 0.65034 0.04069 0.0
C1805 C 0.10033 0.63705 0.08036 0.0
C1806 C 0.09632 0.65677 0.0311 0.0
C1807 C 0.07463 0.65383 0.04583 0.0
H1808 H 0.93367 0.36457 0.13945 0.0
H1809 H 0.99039 0.35979 0.08062 0.0
H1810 H 0.95754 0.36119 0.04822 0.0
H1811 H 0.91302 0.35547 0.0371 0.0
H1812 H 0.85541 0.35881 0.09491 0.0
H1813 H 0.88806 0.36655 0.12728 0.0
C1814 C 0.93876 0.36477 0.11952 0.0
C1815 C 0.96432 0.3618 0.11234 0.0
C1816 C 0.9196 0.36477 0.10088 0.0
C1817 C 0.97078 0.36185 0.0865 0.0
C1818 C 0.95202 0.3625 0.06798 0.0
C1819 C 0.90763 0.35857 0.05673 0.0
C1820 C 0.8821 0.35631 0.06384 0.0
C1821 C 0.92641 0.36263 0.07501 0.0
C1822 C 0.87508 0.36051 0.08915 0.0
C1823 C 0.89375 0.36474 0.10761 0.0
H1824 H 0.62681 0.86473 0.56107 0.0
H1825 H 0.65177 0.78981 0.58208 0.0
H1826 H 0.62769 0.79224 0.62141 0.0
H1827 H 0.59257 0.81156 0.64469 0.0
H1828 H 0.56619 0.8859 0.62383 0.0
H1829 H 0.59804 0.88811 0.59001 0.0
C1830 C 0.62772 0.84939 0.57473 0.0
C1831 C 0.64062 0.82692 0.56847 0.0
C1832 C 0.61315 0.85062 0.59713 0.0
C1833 C 0.64164 0.80715 0.58632 0.0
C1834 C 0.62777 0.80845 0.60877 0.0
C1835 C 0.59439 0.82858 0.63325 0.0
C1836 C 0.57689 0.84833 0.63639 0.0
C1837 C 0.61233 0.82945 0.61362 0.0
C1838 C 0.5795 0.87042 0.62171 0.0
C1839 C 0.59754 0.87157 0.60219 0.0
H1840 H 0.13873 0.56457 0.63413 0.0
H1841 H 0.17411 0.51173 0.58256 0.0
H1842 H 0.17375 0.54326 0.54917 0.0
H1843 H 0.16723 0.58649 0.53541 0.0
H1844 H 0.13227 0.64075 0.58531 0.0
H1845 H 0.12821 0.60799 0.61837 0.0
C1846 C 0.14604 0.55993 0.61549 0.0
C1847 C 0.15684 0.53589 0.61108 0.0
C1848 C 0.14598 0.57841 0.59609 0.0
C1849 C 0.16608 0.53014 0.58673 0.0
C1850 C 0.16587 0.54816 0.56751 0.0
C1851 C 0.1585 0.59114 0.55346 0.0
C1852 C 0.1504 0.61601 0.55811 0.0
C1853 C 0.1565 0.57246 0.57216 0.0
C1854 C 0.13868 0.62168 0.58135 0.0
C1855 C 0.13653 0.603 0.60026 0.0
H1856 H 0.33955 0.18638 0.56592 0.0
H1857 H 0.35662 0.11117 0.53936 0.0
H1858 H 0.38544 0.1048 0.57536 0.0
H1859 H 0.41078 0.12363 0.61035 0.0
H1860 H 0.39403 0.19978 0.63482 0.0
H1861 H 0.35987 0.20264 0.60397 0.0
C1862 C 0.3492 0.16839 0.5683 0.0
C1863 C 0.34634 0.14943 0.54988 0.0
C1864 C 0.36601 0.16516 0.58857 0.0
C1865 C 0.35859 0.12607 0.55333 0.0
C1866 C 0.37521 0.12252 0.57378 0.0
C1867 C 0.39918 0.14055 0.60933 0.0
C1868 C 0.40516 0.16162 0.62457 0.0
C1869 C 0.37984 0.14235 0.59096 0.0
C1870 C 0.39003 0.18345 0.62305 0.0
C1871 C 0.37051 0.18514 0.60538 0.0
H1872 H 0.8695 0.35414 0.56231 0.0
H1873 H 0.86537 0.41073 0.50343 0.0
H1874 H 0.86196 0.44409 0.53507 0.0
H1875 H 0.85248 0.45624 0.57863 0.0
H1876 H 0.85556 0.40075 0.63839 0.0
H1877 H 0.8672 0.36785 0.60751 0.0
C1878 C 0.86881 0.37386 0.55658 0.0
C1879 C 0.86754 0.38007 0.53065 0.0
C1880 C 0.86606 0.39302 0.575 0.0
C1881 C 0.8663 0.40561 0.52332 0.0
C1882 C 0.86415 0.42466 0.54138 0.0
C1883 C 0.85629 0.43702 0.5849 0.0
C1884 C 0.85293 0.43067 0.61048 0.0
C1885 C 0.86277 0.41845 0.56714 0.0
C1886 C 0.85807 0.40591 0.61866 0.0
C1887 C 0.86457 0.38714 0.60099 0.0
H1888 H 0.58556 0.15502 0.34369 0.0
H1889 H 0.54685 0.09354 0.38095 0.0
H1890 H 0.57984 0.09235 0.41381 0.0
H1891 H 0.61431 0.11539 0.43625 0.0
H1892 H 0.65043 0.17885 0.39938 0.0
H1893 H 0.62449 0.17235 0.36172 0.0
C1894 C 0.58495 0.14074 0.35851 0.0
C1895 C 0.56396 0.12447 0.36013 0.0
C1896 C 0.60343 0.14081 0.37756 0.0
C1897 C 0.56305 0.10609 0.37934 0.0
C1898 C 0.58175 0.10565 0.39825 0.0
C1899 C 0.61712 0.12706 0.41954 0.0
C1900 C 0.63405 0.14767 0.42052 0.0
C1901 C 0.6013 0.12383 0.39825 0.0
C1902 C 0.6374 0.16296 0.39897 0.0
C1903 C 0.62246 0.15935 0.37752 0.0
H1904 H 0.87427 0.54972 0.36075 0.0
H1905 H 0.79249 0.54454 0.35822 0.0
H1906 H 0.78897 0.57716 0.39042 0.0
H1907 H 0.80852 0.60404 0.42181 0.0
H1908 H 0.88997 0.60962 0.42703 0.0
H1909 H 0.8943 0.58024 0.39104 0.0
C1910 C 0.85575 0.5561 0.36702 0.0
C1911 C 0.83365 0.54453 0.3573 0.0
C1912 C 0.8538 0.57471 0.38614 0.0
C1913 C 0.80976 0.55289 0.36561 0.0
C1914 C 0.8077 0.57156 0.38403 0.0
C1915 C 0.8273 0.59896 0.41507 0.0
C1916 C 0.8489 0.60861 0.42734 0.0
C1917 C 0.82953 0.58204 0.39487 0.0
C1918 C 0.87305 0.60232 0.41796 0.0
C1919 C 0.87548 0.58545 0.39748 0.0
H1920 H 0.36982 0.89711 0.4281 0.0
H1921 H 0.31917 0.83758 0.40454 0.0
H1922 H 0.33982 0.83589 0.36318 0.0
H1923 H 0.37935 0.84257 0.33972 0.0
H1924 H 0.43224 0.89971 0.3642 0.0
H1925 H 0.40357 0.91171 0.39871 0.0
C1926 C 0.3625 0.88481 0.41335 0.0
C1927 C 0.34314 0.8674 0.41923 0.0
C1928 C 0.3754 0.88306 0.39 0.0
C1929 C 0.33401 0.85116 0.40027 0.0
C1930 C 0.34605 0.84998 0.37675 0.0
C1931 C 0.38398 0.85846 0.35192 0.0
C1932 C 0.40792 0.86999 0.34979 0.0
C1933 C 0.36786 0.86451 0.37219 0.0
C1934 C 0.41385 0.89059 0.36552 0.0
C1935 C 0.39759 0.89719 0.38549 0.0
H1936 H 0.12457 0.4718 0.42427 0.0
H1937 H 0.12235 0.42146 0.36017 0.0
H1938 H 0.11235 0.3857 0.38838 0.0
H1939 H 0.11185 0.36811 0.43223 0.0
H1940 H 0.11534 0.41944 0.4956 0.0
H1941 H 0.11636 0.45559 0.46683 0.0
C1942 C 0.12133 0.45307 0.41646 0.0
C1943 C 0.12459 0.44903 0.39039 0.0
C1944 C 0.11579 0.43281 0.43273 0.0
C1945 C 0.12001 0.42487 0.38029 0.0
C1946 C 0.11443 0.40445 0.39643 0.0
C1947 C 0.11176 0.38727 0.43961 0.0
C1948 C 0.11358 0.39124 0.46592 0.0
C1949 C 0.11327 0.40804 0.42283 0.0
C1950 C 0.11391 0.41606 0.47539 0.0
C1951 C 0.11475 0.4367 0.45896 0.0
H1952 H 0.63941 0.58012 0.82662 0.0
H1953 H 0.62883 0.55933 0.90487 0.0
H1954 H 0.60092 0.59605 0.91114 0.0
H1955 H 0.57385 0.62957 0.89183 0.0
H1956 H 0.58482 0.64882 0.81306 0.0
H1957 H 0.61872 0.61776 0.80964 0.0
C1958 C 0.63147 0.58404 0.8452 0.0
C1959 C 0.63575 0.56702 0.86515 0.0
C1960 C 0.61539 0.60487 0.84849 0.0
C1961 C 0.62569 0.57228 0.88924 0.0
C1962 C 0.60961 0.59314 0.89275 0.0
C1963 C 0.58432 0.62751 0.87424 0.0
C1964 C 0.57669 0.64118 0.85262 0.0
C1965 C 0.60349 0.60899 0.87219 0.0
C1966 C 0.59023 0.63829 0.82985 0.0
C1967 C 0.60953 0.62044 0.82783 0.0
H1968 H 0.4203 0.64405 0.84446 0.0
H1969 H 0.46689 0.61268 0.90358 0.0
H1970 H 0.43701 0.57728 0.90875 0.0
H1971 H 0.40258 0.55119 0.88968 0.0
H1972 H 0.35804 0.58262 0.82886 0.0
H1973 H 0.38154 0.62234 0.83147 0.0
C1974 C 0.42331 0.62993 0.85913 0.0
C1975 C 0.44561 0.63072 0.87355 0.0
C1976 C 0.4065 0.60949 0.86142 0.0
C1977 C 0.44963 0.61242 0.89244 0.0
C1978 C 0.43271 0.59206 0.89515 0.0
C1979 C 0.39746 0.56717 0.8778 0.0
C1980 C 0.37874 0.56417 0.85907 0.0
C1981 C 0.41175 0.58974 0.87882 0.0
C1982 C 0.37241 0.58469 0.8434 0.0
C1983 C 0.38595 0.6073 0.84476 0.0
H1984 H 0.408 0.42942 0.80137 0.0
H1985 H 0.39196 0.42606 0.88151 0.0
H1986 H 0.42158 0.39054 0.8861 0.0
H1987 H 0.45455 0.36242 0.86749 0.0
H1988 H 0.46977 0.36715 0.78712 0.0
H1989 H 0.43786 0.39994 0.78256 0.0
C1990 C 0.41085 0.4209 0.81988 0.0
C1991 C 0.39802 0.43061 0.84111 0.0
C1992 C 0.42786 0.40068 0.82236 0.0
C1993 C 0.40168 0.41902 0.86485 0.0
C1994 C 0.41867 0.39874 0.86749 0.0
C1995 C 0.45059 0.3704 0.84896 0.0
C1996 C 0.4648 0.36248 0.82775 0.0
C1997 C 0.43222 0.38967 0.84641 0.0
C1998 C 0.45941 0.37305 0.80385 0.0
C1999 C 0.44113 0.39185 0.80117 0.0
H2000 H 0.5661 0.37222 0.88795 0.0
H2001 H 0.61942 0.33457 0.8389 0.0
H2002 H 0.65142 0.36686 0.84793 0.0
H2003 H 0.66016 0.41039 0.86138 0.0
H2004 H 0.60459 0.45099 0.9051 0.0
H2005 H 0.57777 0.41309 0.90727 0.0
C2006 C 0.5851 0.37062 0.88015 0.0
C2007 C 0.59055 0.35119 0.86284 0.0
C2008 C 0.60284 0.39012 0.88424 0.0
C2009 C 0.61496 0.34944 0.85232 0.0
C2010 C 0.63316 0.36799 0.85733 0.0
C2011 C 0.64273 0.41044 0.87237 0.0
C2012 C 0.63438 0.4331 0.88338 0.0
C2013 C 0.6268 0.38912 0.87207 0.0
C2014 C 0.61146 0.43348 0.89691 0.0
C2015 C 0.59601 0.41192 0.89783 0.0
H2016 H 0.51765 0.40619 0.15486 0.0
H2017 H 0.56125 0.35333 0.11045 0.0
H2018 H 0.59474 0.38539 0.10484 0.0
H2019 H 0.6133 0.42726 0.11668 0.0
H2020 H 0.5687 0.47843 0.16243 0.0
H2021 H 0.53397 0.44821 0.16333 0.0
C2022 C 0.53438 0.40168 0.14373 0.0
C2023 C 0.53716 0.37733 0.13339 0.0
C2024 C 0.5535 0.41988 0.14104 0.0
C2025 C 0.5587 0.37196 0.11863 0.0
C2026 C 0.5779 0.39023 0.11559 0.0
C2027 C 0.59583 0.43186 0.12652 0.0
C2028 C 0.59379 0.45497 0.13978 0.0
C2029 C 0.5758 0.41408 0.12732 0.0
C2030 C 0.57099 0.46068 0.1524 0.0
C2031 C 0.55104 0.44342 0.15291 0.0
H2032 H 0.61912 0.56416 0.09375 0.0
H2033 H 0.66303 0.59489 0.15537 0.0
H2034 H 0.63804 0.63368 0.15437 0.0
H2035 H 0.59733 0.65316 0.14376 0.0
H2036 H 0.55142 0.62171 0.08405 0.0
H2037 H 0.58367 0.58938 0.07598 0.0
C2038 C 0.62393 0.57987 0.10608 0.0
C2039 C 0.64263 0.57664 0.12483 0.0
C2040 C 0.60865 0.60177 0.10614 0.0
C2041 C 0.64859 0.59697 0.14091 0.0
C2042 C 0.63414 0.61906 0.1405 0.0
C2043 C 0.59489 0.63982 0.12832 0.0
C2044 C 0.5719 0.63944 0.11487 0.0
C2045 C 0.6131 0.62087 0.1244 0.0
C2046 C 0.56897 0.62231 0.09473 0.0
C2047 C 0.58729 0.60361 0.09032 0.0
H2048 H 0.41963 0.62447 0.12233 0.0
H2049 H 0.47956 0.57797 0.15317 0.0
H2050 H 0.4504 0.5428 0.15806 0.0
H2051 H 0.40768 0.52606 0.15717 0.0
H2052 H 0.34652 0.57052 0.12635 0.0
H2053 H 0.37626 0.6055 0.11767 0.0
C2054 C 0.42629 0.60651 0.12973 0.0
C2055 C 0.45169 0.60406 0.13776 0.0
C2056 C 0.40917 0.58605 0.13277 0.0
C2057 C 0.46006 0.5806 0.14725 0.0
C2058 C 0.4434 0.56038 0.15007 0.0
C2059 C 0.4008 0.54337 0.14846 0.0
C2060 C 0.37491 0.54591 0.14283 0.0
C2061 C 0.41786 0.5631 0.14355 0.0
C2062 C 0.3664 0.56821 0.131 0.0
C2063 C 0.38339 0.5882 0.12612 0.0
H2064 H 0.41864 0.36125 0.1143 0.0
H2065 H 0.39885 0.33148 0.18792 0.0
H2066 H 0.36191 0.35915 0.1897 0.0
H2067 H 0.34157 0.39792 0.17494 0.0
H2068 H 0.36251 0.43032 0.10294 0.0
H2069 H 0.39217 0.39531 0.09549 0.0
C2070 C 0.40566 0.36019 0.13024 0.0
C2071 C 0.41158 0.34464 0.15113 0.0
C2072 C 0.38491 0.37698 0.13159 0.0
C2073 C 0.39476 0.34352 0.17177 0.0
C2074 C 0.37372 0.35942 0.17286 0.0
C2075 C 0.35198 0.39676 0.1572 0.0
C2076 C 0.35017 0.41668 0.13964 0.0
C2077 C 0.36952 0.37719 0.15358 0.0
C2078 C 0.36357 0.41509 0.11667 0.0
C2079 C 0.38076 0.39524 0.1126 0.0
H2080 H 0.86975 0.55122 0.61882 0.0
H2081 H 0.79438 0.57069 0.64394 0.0
H2082 H 0.79391 0.60713 0.61554 0.0
H2083 H 0.81106 0.62757 0.5777 0.0
H2084 H 0.88559 0.60779 0.55061 0.0
H2085 H 0.89054 0.57768 0.58574 0.0
C2086 C 0.85372 0.5641 0.61876 0.0
C2087 C 0.83204 0.55829 0.63324 0.0
C2088 C 0.85321 0.58457 0.60158 0.0
C2089 C 0.81121 0.57483 0.63284 0.0
C2090 C 0.81085 0.59553 0.61646 0.0
C2091 C 0.82866 0.61713 0.5799 0.0
C2092 C 0.84773 0.61945 0.56146 0.0
C2093 C 0.83112 0.59969 0.59978 0.0
C2094 C 0.8706 0.60619 0.56461 0.0
C2095 C 0.87334 0.58884 0.58457 0.0
H2096 H 0.84079 0.39278 0.32776 0.0
H2097 H 0.90152 0.43838 0.35766 0.0
H2098 H 0.91017 0.40606 0.39 0.0
H2099 H 0.89323 0.37013 0.41539 0.0
H2100 H 0.82968 0.32745 0.38671 0.0
H2101 H 0.82964 0.35276 0.348 0.0
C2102 C 0.85658 0.39511 0.34076 0.0
C2103 C 0.87036 0.41788 0.34062 0.0
C2104 C 0.86059 0.37706 0.35981 0.0
C2105 C 0.89078 0.42087 0.3574 0.0
C2106 C 0.89545 0.40255 0.37611 0.0
C2107 C 0.88012 0.3658 0.40016 0.0
C2108 C 0.86135 0.34715 0.40382 0.0
C2109 C 0.87946 0.3813 0.37839 0.0
C2110 C 0.84419 0.34182 0.38422 0.0
C2111 C 0.84406 0.35639 0.36219 0.0
H2112 H 0.5118 0.82395 0.40299 0.0
H2113 H 0.55838 0.85991 0.34604 0.0
H2114 H 0.5945 0.86001 0.37552 0.0
H2115 H 0.61348 0.84667 0.41685 0.0
H2116 H 0.5655 0.80956 0.47205 0.0
H2117 H 0.5293 0.8133 0.44389 0.0
C2118 C 0.52981 0.83191 0.39691 0.0
C2119 C 0.53247 0.84158 0.37221 0.0
C2120 C 0.5503 0.83165 0.4137 0.0
C2121 C 0.55586 0.85222 0.36492 0.0
C2122 C 0.57651 0.85221 0.38176 0.0
C2123 C 0.59499 0.83977 0.42275 0.0
C2124 C 0.59224 0.82763 0.44642 0.0
C2125 C 0.57408 0.84155 0.40612 0.0
C2126 C 0.56822 0.81869 0.45382 0.0
C2127 C 0.54746 0.82081 0.43775 0.0
H2128 H 0.11945 0.63331 0.43933 0.0
H2129 H 0.19384 0.65855 0.41609 0.0
H2130 H 0.19161 0.63198 0.37846 0.0
H2131 H 0.17316 0.59478 0.3582 0.0
H2132 H 0.10031 0.56675 0.38241 0.0
H2133 H 0.0968 0.60149 0.41306 0.0
C2134 C 0.13471 0.63364 0.42551 0.0
C2135 C 0.15698 0.64748 0.43064 0.0
C2136 C 0.13369 0.61751 0.40425 0.0
C2137 C 0.17669 0.64773 0.41268 0.0
C2138 C 0.17546 0.63249 0.3912 0.0
C2139 C 0.15604 0.59698 0.36946 0.0
C2140 C 0.13711 0.5783 0.36828 0.0
C2141 C 0.15474 0.61626 0.38762 0.0
C2142 C 0.11502 0.5811 0.38291 0.0
C2143 C 0.11323 0.60074 0.40071 0.0
H2144 H 0.42329 0.17794 0.35237 0.0
H2145 H 0.43098 0.09726 0.362 0.0
H2146 H 0.39479 0.09711 0.39149 0.0
H2147 H 0.36472 0.12136 0.4188 0.0
H2148 H 0.3598 0.20245 0.40937 0.0
H2149 H 0.39099 0.20098 0.37544 0.0
C2150 C 0.41684 0.16022 0.36064 0.0
C2151 C 0.42996 0.13772 0.35539 0.0
C2152 C 0.39664 0.16044 0.37783 0.0
C2153 C 0.42115 0.11484 0.36583 0.0
C2154 C 0.40061 0.11482 0.38283 0.0
C2155 C 0.37019 0.13856 0.40894 0.0
C2156 C 0.36028 0.16204 0.41682 0.0
C2157 C 0.38874 0.13768 0.38964 0.0
C2158 C 0.36747 0.18422 0.40392 0.0
C2159 C 0.38529 0.18342 0.38449 0.0
H2160 H 0.16864 0.39127 0.65989 0.0
H2161 H 0.10129 0.43362 0.64148 0.0
H2162 H 0.08902 0.4013 0.61061 0.0
H2163 H 0.10372 0.36756 0.58151 0.0
H2164 H 0.17359 0.32846 0.5978 0.0
H2165 H 0.17838 0.35237 0.63703 0.0
C2166 C 0.15077 0.3929 0.6498 0.0
C2167 C 0.13618 0.41499 0.65249 0.0
C2168 C 0.14458 0.37495 0.63127 0.0
C2169 C 0.11291 0.41681 0.63965 0.0
C2170 C 0.10608 0.39848 0.62171 0.0
C2171 C 0.11936 0.36358 0.59425 0.0
C2172 C 0.13846 0.34656 0.58676 0.0
C2173 C 0.12266 0.37839 0.61619 0.0
C2174 C 0.1588 0.34165 0.60319 0.0
C2175 C 0.16162 0.35544 0.62552 0.0
H2176 H 0.60188 0.1292 0.55339 0.0
H2177 H 0.60506 0.21093 0.55278 0.0
H2178 H 0.57367 0.21282 0.58641 0.0
H2179 H 0.54331 0.19208 0.61357 0.0
H2180 H 0.53693 0.11062 0.61428 0.0
H2181 H 0.57174 0.10775 0.5833 0.0
C2182 C 0.59583 0.14731 0.56092 0.0
C2183 C 0.60556 0.16991 0.55045 0.0
C2184 C 0.57712 0.14835 0.5801 0.0
C2185 C 0.59759 0.1933 0.56027 0.0
C2186 C 0.57966 0.19443 0.57954 0.0
C2187 C 0.54947 0.17359 0.6071 0.0
C2188 C 0.53728 0.15162 0.61601 0.0
C2189 C 0.56893 0.17217 0.58916 0.0
C2190 C 0.54593 0.12787 0.60765 0.0
C2191 C 0.56576 0.12624 0.58987 0.0
H2192 H 0.47559 0.86185 0.58749 0.0
H2193 H 0.42297 0.87687 0.64811 0.0
H2194 H 0.38869 0.88318 0.6171 0.0
H2195 H 0.37284 0.87755 0.57292 0.0
H2196 H 0.42662 0.861 0.51343 0.0
H2197 H 0.46137 0.86264 0.54367 0.0
C2198 C 0.4567 0.86707 0.59385 0.0
C2199 C 0.45159 0.86862 0.61988 0.0
C2200 C 0.43729 0.87016 0.57607 0.0
C2201 C 0.42724 0.87563 0.62805 0.0
C2202 C 0.40765 0.87901 0.61034 0.0
C2203 C 0.39225 0.87499 0.56657 0.0
C2204 C 0.39715 0.86875 0.54107 0.0
C2205 C 0.41227 0.87534 0.58431 0.0
C2206 C 0.42236 0.86544 0.53303 0.0
C2207 C 0.44225 0.86633 0.5503 0.0
loop_
_geom_bond_atom_site_label_1
_geom_bond_atom_site_label_2
_geom_bond_distance
_geom_bond_site_symmetry_2
_ccdc_geom_bond_type
Zn0 O3 2.031 . S
Zn0 O5 2.049 . S
Zn0 O10 2.067 1_455 S
Zn1 O2 1.962 . S
Zn1 O4 1.986 . S
Zn1 O6 1.996 . S
Zn1 O9 1.943 . S
O2 Zn1 1.962 . S
O2 C7 1.254 . S
O3 Zn0 2.031 . S
O3 C7 1.269 . S
O4 Zn1 1.986 . S
O4 C11 1.262 . S
O5 Zn0 2.049 . S
O5 C13 1.260 . S
O6 Zn1 1.996 . S
O6 C13 1.257 . S
C7 O2 1.254 . S
C7 O3 1.269 . S
C8 O9 1.249 1_655 S
C8 O10 1.270 . S
O9 Zn1 1.943 . S
O9 C8 1.249 1_455 S
O10 Zn0 2.067 1_655 S
O10 C8 1.270 . S
C11 O4 1.262 . S
C11 O12 1.232 . S
O12 C11 1.232 . S
C13 O5 1.260 . S
C13 O6 1.257 . S
Zn14 O17 2.031 . S
Zn14 O19 2.049 . S
Zn14 O24 2.067 1_545 S
Zn15 O16 1.962 . S
Zn15 O18 1.986 . S
Zn15 O20 1.996 . S
Zn15 O23 1.943 . S
O16 Zn15 1.962 . S
O16 C21 1.254 . S
O17 Zn14 2.031 . S
O17 C21 1.269 . S
O18 Zn15 1.986 . S
O18 C25 1.262 . S
O19 Zn14 2.049 . S
O19 C27 1.260 . S
O20 Zn15 1.996 . S
O20 C27 1.257 . S
C21 O16 1.254 . S
C21 O17 1.269 . S
C22 O23 1.249 1_565 S
C22 O24 1.270 . S
O23 Zn15 1.943 . S
O23 C22 1.249 1_545 S
O24 Zn14 2.067 1_565 S
O24 C22 1.270 . S
C25 O18 1.262 . S
C25 O26 1.232 . S
O26 C25 1.232 . S
C27 O19 1.260 . S
C27 O20 1.257 . S
Zn28 O31 2.031 . S
Zn28 O33 2.049 . S
Zn28 O38 2.067 1_655 S
Zn29 O30 1.962 . S
Zn29 O32 1.986 . S
Zn29 O34 1.996 . S
Zn29 O37 1.943 . S
O30 Zn29 1.962 . S
O30 C35 1.254 . S
O31 Zn28 2.031 . S
O31 C35 1.269 . S
O32 Zn29 1.986 . S
O32 C39 1.262 . S
O33 Zn28 2.049 . S
O33 C41 1.260 . S
O34 Zn29 1.996 . S
O34 C41 1.257 . S
C35 O30 1.254 . S
C35 O31 1.269 . S
C36 O37 1.249 1_455 S
C36 O38 1.270 . S
O37 Zn29 1.943 . S
O37 C36 1.249 1_655 S
O38 Zn28 2.067 1_455 S
O38 C36 1.270 . S
C39 O32 1.262 . S
C39 O40 1.232 . S
O40 C39 1.232 . S
C41 O33 1.260 . S
C41 O34 1.257 . S
Zn42 O45 2.031 . S
Zn42 O47 2.049 . S
Zn42 O52 2.067 1_565 S
Zn43 O44 1.962 . S
Zn43 O46 1.986 . S
Zn43 O48 1.996 . S
Zn43 O51 1.943 . S
O44 Zn43 1.962 . S
O44 C49 1.254 . S
O45 Zn42 2.031 . S
O45 C49 1.269 . S
O46 Zn43 1.986 . S
O46 C53 1.262 . S
O47 Zn42 2.049 . S
O47 C55 1.260 . S
O48 Zn43 1.996 . S
O48 C55 1.257 . S
C49 O44 1.254 . S
C49 O45 1.269 . S
C50 O51 1.249 1_545 S
C50 O52 1.270 . S
O51 Zn43 1.943 . S
O51 C50 1.249 1_565 S
O52 Zn42 2.067 1_545 S
O52 C50 1.270 . S
C53 O46 1.262 . S
C53 O54 1.232 . S
O54 C53 1.232 . S
C55 O47 1.260 . S
C55 O48 1.257 . S
Zn56 O59 2.031 . S
Zn56 O61 2.049 . S
Zn56 O66 2.067 1_455 S
Zn57 O58 1.962 . S
Zn57 O60 1.986 . S
Zn57 O62 1.996 . S
Zn57 O65 1.943 . S
O58 Zn57 1.962 . S
O58 C63 1.254 . S
O59 Zn56 2.031 . S
O59 C63 1.269 . S
O60 Zn57 1.986 . S
O60 C67 1.262 . S
O61 Zn56 2.049 . S
O61 C69 1.260 . S
O62 Zn57 1.996 . S
O62 C69 1.257 . S
C63 O58 1.254 . S
C63 O59 1.269 . S
C64 O65 1.249 1_655 S
C64 O66 1.270 . S
O65 Zn57 1.943 . S
O65 C64 1.249 1_455 S
O66 Zn56 2.067 1_655 S
O66 C64 1.270 . S
C67 O60 1.262 . S
C67 O68 1.232 . S
O68 C67 1.232 . S
C69 O61 1.260 . S
C69 O62 1.257 . S
Zn70 O73 2.031 . S
Zn70 O75 2.049 . S
Zn70 O80 2.067 1_545 S
Zn71 O72 1.962 . S
Zn71 O74 1.986 . S
Zn71 O76 1.996 . S
Zn71 O79 1.943 . S
O72 Zn71 1.962 . S
O72 C77 1.254 . S
O73 Zn70 2.031 . S
O73 C77 1.269 . S
O74 Zn71 1.986 . S
O74 C81 1.262 . S
O75 Zn70 2.049 . S
O75 C83 1.260 . S
O76 Zn71 1.996 . S
O76 C83 1.257 . S
C77 O72 1.254 . S
C77 O73 1.269 . S
C78 O79 1.249 1_565 S
C78 O80 1.270 . S
O79 Zn71 1.943 . S
O79 C78 1.249 1_545 S
O80 Zn70 2.067 1_565 S
O80 C78 1.270 . S
C81 O74 1.262 . S
C81 O82 1.232 . S
O82 C81 1.232 . S
C83 O75 1.260 . S
C83 O76 1.257 . S
Zn84 O87 2.031 . S
Zn84 O89 2.049 . S
Zn84 O94 2.067 1_655 S
Zn85 O86 1.962 . S
Zn85 O88 1.986 . S
Zn85 O90 1.996 . S
Zn85 O93 1.943 . S
O86 Zn85 1.962 . S
O86 C91 1.254 . S
O87 Zn84 2.031 . S
O87 C91 1.269 . S
O88 Zn85 1.986 . S
O88 C95 1.262 . S
O89 Zn84 2.049 . S
O89 C97 1.260 . S
O90 Zn85 1.996 . S
O90 C97 1.257 . S
C91 O86 1.254 . S
C91 O87 1.269 . S
C92 O93 1.249 1_455 S
C92 O94 1.270 . S
O93 Zn85 1.943 . S
O93 C92 1.249 1_655 S
O94 Zn84 2.067 1_455 S
O94 C92 1.270 . S
C95 O88 1.262 . S
C95 O96 1.232 . S
O96 C95 1.232 . S
C97 O89 1.260 . S
C97 O90 1.257 . S
Zn98 O101 2.031 . S
Zn98 O103 2.049 . S
Zn98 O108 2.067 1_565 S
Zn99 O100 1.962 . S
Zn99 O102 1.986 . S
Zn99 O104 1.996 . S
Zn99 O107 1.943 . S
O100 Zn99 1.962 . S
O100 C105 1.254 . S
O101 Zn98 2.031 . S
O101 C105 1.269 . S
O102 Zn99 1.986 . S
O102 C109 1.262 . S
O103 Zn98 2.049 . S
O103 C111 1.260 . S
O104 Zn99 1.996 . S
O104 C111 1.257 . S
C105 O100 1.254 . S
C105 O101 1.269 . S
C106 O107 1.249 1_545 S
C106 O108 1.270 . S
O107 Zn99 1.943 . S
O107 C106 1.249 1_565 S
O108 Zn98 2.067 1_545 S
O108 C106 1.270 . S
C109 O102 1.262 . S
C109 O110 1.232 . S
O110 C109 1.232 . S
C111 O103 1.260 . S
C111 O104 1.257 . S
Zn112 O115 2.031 . S
Zn112 O117 2.049 . S
Zn112 O122 2.067 1_545 S
Zn113 O114 1.962 . S
Zn113 O116 1.986 . S
Zn113 O118 1.996 . S
Zn113 O121 1.943 . S
O114 Zn113 1.962 . S
O114 C119 1.254 . S
O115 Zn112 2.031 . S
O115 C119 1.269 . S
O116 Zn113 1.986 . S
O116 C123 1.262 . S
O117 Zn112 2.049 . S
O117 C125 1.260 . S
O118 Zn113 1.996 . S
O118 C125 1.257 . S
C119 O114 1.254 . S
C119 O115 1.269 . S
C120 O121 1.249 1_565 S
C120 O122 1.270 . S
O121 Zn113 1.943 . S
O121 C120 1.249 1_545 S
O122 Zn112 2.067 1_565 S
O122 C120 1.270 . S
C123 O116 1.262 . S
C123 O124 1.232 . S
O124 C123 1.232 . S
C125 O117 1.260 . S
C125 O118 1.257 . S
Zn126 O129 2.031 . S
Zn126 O131 2.049 . S
Zn126 O136 2.067 1_655 S
Zn127 O128 1.962 . S
Zn127 O130 1.986 . S
Zn127 O132 1.996 . S
Zn127 O135 1.943 . S
O128 Zn127 1.962 . S
O128 C133 1.254 . S
O129 Zn126 2.031 . S
O129 C133 1.269 . S
O130 Zn127 1.986 . S
O130 C137 1.262 . S
O131 Zn126 2.049 . S
O131 C139 1.260 . S
O132 Zn127 1.996 . S
O132 C139 1.257 . S
C133 O128 1.254 . S
C133 O129 1.269 . S
C134 O135 1.249 1_455 S
C134 O136 1.270 . S
O135 Zn127 1.943 . S
O135 C134 1.249 1_655 S
O136 Zn126 2.067 1_455 S
O136 C134 1.270 . S
C137 O130 1.262 . S
C137 O138 1.232 . S
O138 C137 1.232 . S
C139 O131 1.260 . S
C139 O132 1.257 . S
Zn140 O143 2.031 . S
Zn140 O145 2.049 . S
Zn140 O150 2.067 1_565 S
Zn141 O142 1.962 . S
Zn141 O144 1.986 . S
Zn141 O146 1.996 . S
Zn141 O149 1.943 . S
O142 Zn141 1.962 . S
O142 C147 1.254 . S
O143 Zn140 2.031 . S
O143 C147 1.269 . S
O144 Zn141 1.986 . S
O144 C151 1.262 . S
O145 Zn140 2.049 . S
O145 C153 1.260 . S
O146 Zn141 1.996 . S
O146 C153 1.257 . S
C147 O142 1.254 . S
C147 O143 1.269 . S
C148 O149 1.249 1_545 S
C148 O150 1.270 . S
O149 Zn141 1.943 . S
O149 C148 1.249 1_565 S
O150 Zn140 2.067 1_545 S
O150 C148 1.270 . S
C151 O144 1.262 . S
C151 O152 1.232 . S
O152 C151 1.232 . S
C153 O145 1.260 . S
C153 O146 1.257 . S
Zn154 O157 2.031 . S
Zn154 O159 2.049 . S
Zn154 O164 2.067 1_455 S
Zn155 O156 1.962 . S
Zn155 O158 1.986 . S
Zn155 O160 1.996 . S
Zn155 O163 1.943 . S
O156 Zn155 1.962 . S
O156 C161 1.254 . S
O157 Zn154 2.031 . S
O157 C161 1.269 . S
O158 Zn155 1.986 . S
O158 C165 1.262 . S
O159 Zn154 2.049 . S
O159 C167 1.260 . S
O160 Zn155 1.996 . S
O160 C167 1.257 . S
C161 O156 1.254 . S
C161 O157 1.269 . S
C162 O163 1.249 1_655 S
C162 O164 1.270 . S
O163 Zn155 1.943 . S
O163 C162 1.249 1_455 S
O164 Zn154 2.067 1_655 S
O164 C162 1.270 . S
C165 O158 1.262 . S
C165 O166 1.232 . S
O166 C165 1.232 . S
C167 O159 1.260 . S
C167 O160 1.257 . S
Zn168 O171 2.031 . S
Zn168 O173 2.049 . S
Zn168 O178 2.067 1_565 S
Zn169 O170 1.962 . S
Zn169 O172 1.986 . S
Zn169 O174 1.996 . S
Zn169 O177 1.943 . S
O170 Zn169 1.962 . S
O170 C175 1.254 . S
O171 Zn168 2.031 . S
O171 C175 1.269 . S
O172 Zn169 1.986 . S
O172 C179 1.262 . S
O173 Zn168 2.049 . S
O173 C181 1.260 . S
O174 Zn169 1.996 . S
O174 C181 1.257 . S
C175 O170 1.254 . S
C175 O171 1.269 . S
C176 O177 1.249 1_545 S
C176 O178 1.270 . S
O177 Zn169 1.943 . S
O177 C176 1.249 1_565 S
O178 Zn168 2.067 1_545 S
O178 C176 1.270 . S
C179 O172 1.262 . S
C179 O180 1.232 . S
O180 C179 1.232 . S
C181 O173 1.260 . S
C181 O174 1.257 . S
Zn182 O185 2.031 . S
Zn182 O187 2.049 . S
Zn182 O192 2.067 1_455 S
Zn183 O184 1.962 . S
Zn183 O186 1.986 . S
Zn183 O188 1.996 . S
Zn183 O191 1.943 . S
O184 Zn183 1.962 . S
O184 C189 1.254 . S
O185 Zn182 2.031 . S
O185 C189 1.269 . S
O186 Zn183 1.986 . S
O186 C193 1.262 . S
O187 Zn182 2.049 . S
O187 C195 1.260 . S
O188 Zn183 1.996 . S
O188 C195 1.257 . S
C189 O184 1.254 . S
C189 O185 1.269 . S
C190 O191 1.249 1_655 S
C190 O192 1.270 . S
O191 Zn183 1.943 . S
O191 C190 1.249 1_455 S
O192 Zn182 2.067 1_655 S
O192 C190 1.270 . S
C193 O186 1.262 . S
C193 O194 1.232 . S
O194 C193 1.232 . S
C195 O187 1.260 . S
C195 O188 1.257 . S
Zn196 O199 2.031 . S
Zn196 O201 2.049 . S
Zn196 O206 2.067 1_545 S
Zn197 O198 1.962 . S
Zn197 O200 1.986 . S
Zn197 O202 1.996 . S
Zn197 O205 1.943 . S
O198 Zn197 1.962 . S
O198 C203 1.254 . S
O199 Zn196 2.031 . S
O199 C203 1.269 . S
O200 Zn197 1.986 . S
O200 C207 1.262 . S
O201 Zn196 2.049 . S
O201 C209 1.260 . S
O202 Zn197 1.996 . S
O202 C209 1.257 . S
C203 O198 1.254 . S
C203 O199 1.269 . S
C204 O205 1.249 1_565 S
C204 O206 1.270 . S
O205 Zn197 1.943 . S
O205 C204 1.249 1_545 S
O206 Zn196 2.067 1_565 S
O206 C204 1.270 . S
C207 O200 1.262 . S
C207 O208 1.232 . S
O208 C207 1.232 . S
C209 O201 1.260 . S
C209 O202 1.257 . S
Zn210 O213 2.031 . S
Zn210 O215 2.049 . S
Zn210 O220 2.067 1_655 S
Zn211 O212 1.962 . S
Zn211 O214 1.986 . S
Zn211 O216 1.996 . S
Zn211 O219 1.943 . S
O212 Zn211 1.962 . S
O212 C217 1.254 . S
O213 Zn210 2.031 . S
O213 C217 1.269 . S
O214 Zn211 1.986 . S
O214 C221 1.262 . S
O215 Zn210 2.049 . S
O215 C223 1.260 . S
O216 Zn211 1.996 . S
O216 C223 1.257 . S
C217 O212 1.254 . S
C217 O213 1.269 . S
C218 O219 1.249 1_455 S
C218 O220 1.270 . S
O219 Zn211 1.943 . S
O219 C218 1.249 1_655 S
O220 Zn210 2.067 1_455 S
O220 C218 1.270 . S
C221 O214 1.262 . S
C221 O222 1.232 . S
O222 C221 1.232 . S
C223 O215 1.260 . S
C223 O216 1.257 . S
Zn224 O227 2.031 . S
Zn224 O229 2.049 . S
Zn224 O234 2.067 1_554 S
Zn225 O226 1.962 . S
Zn225 O228 1.986 . S
Zn225 O230 1.996 . S
Zn225 O233 1.943 . S
O226 Zn225 1.962 . S
O226 C231 1.254 . S
O227 Zn224 2.031 . S
O227 C231 1.269 . S
O228 Zn225 1.986 . S
O228 C235 1.262 . S
O229 Zn224 2.049 . S
O229 C237 1.260 . S
O230 Zn225 1.996 . S
O230 C237 1.257 . S
C231 O226 1.254 . S
C231 O227 1.269 . S
C232 O233 1.249 1_556 S
C232 O234 1.270 . S
O233 Zn225 1.943 . S
O233 C232 1.249 1_554 S
O234 Zn224 2.067 1_556 S
O234 C232 1.270 . S
C235 O228 1.262 . S
C235 O236 1.232 . S
O236 C235 1.232 . S
C237 O229 1.260 . S
C237 O230 1.257 . S
Zn238 O241 2.031 . S
Zn238 O243 2.049 . S
Zn238 O248 2.067 1_556 S
Zn239 O240 1.962 . S
Zn239 O242 1.986 . S
Zn239 O244 1.996 . S
Zn239 O247 1.943 . S
O240 Zn239 1.962 . S
O240 C245 1.254 . S
O241 Zn238 2.031 . S
O241 C245 1.269 . S
O242 Zn239 1.986 . S
O242 C249 1.262 . S
O243 Zn238 2.049 . S
O243 C251 1.260 . S
O244 Zn239 1.996 . S
O244 C251 1.257 . S
C245 O240 1.254 . S
C245 O241 1.269 . S
C246 O247 1.249 1_554 S
C246 O248 1.270 . S
O247 Zn239 1.943 . S
O247 C246 1.249 1_556 S
O248 Zn238 2.067 1_554 S
O248 C246 1.270 . S
C249 O242 1.262 . S
C249 O250 1.232 . S
O250 C249 1.232 . S
C251 O243 1.260 . S
C251 O244 1.257 . S
Zn252 O255 2.031 . S
Zn252 O257 2.049 . S
Zn252 O262 2.067 1_556 S
Zn253 O254 1.962 . S
Zn253 O256 1.986 . S
Zn253 O258 1.996 . S
Zn253 O261 1.943 . S
O254 Zn253 1.962 . S
O254 C259 1.254 . S
O255 Zn252 2.031 . S
O255 C259 1.269 . S
O256 Zn253 1.986 . S
O256 C263 1.262 . S
O257 Zn252 2.049 . S
O257 C265 1.260 . S
O258 Zn253 1.996 . S
O258 C265 1.257 . S
C259 O254 1.254 . S
C259 O255 1.269 . S
C260 O261 1.249 1_554 S
C260 O262 1.270 . S
O261 Zn253 1.943 . S
O261 C260 1.249 1_556 S
O262 Zn252 2.067 1_554 S
O262 C260 1.270 . S
C263 O256 1.262 . S
C263 O264 1.232 . S
O264 C263 1.232 . S
C265 O257 1.260 . S
C265 O258 1.257 . S
Zn266 O269 2.031 . S
Zn266 O271 2.049 . S
Zn266 O276 2.067 1_556 S
Zn267 O268 1.962 . S
Zn267 O270 1.986 . S
Zn267 O272 1.996 . S
Zn267 O275 1.943 . S
O268 Zn267 1.962 . S
O268 C273 1.254 . S
O269 Zn266 2.031 . S
O269 C273 1.269 . S
O270 Zn267 1.986 . S
O270 C277 1.262 . S
O271 Zn266 2.049 . S
O271 C279 1.260 . S
O272 Zn267 1.996 . S
O272 C279 1.257 . S
C273 O268 1.254 . S
C273 O269 1.269 . S
C274 O275 1.249 1_554 S
C274 O276 1.270 . S
O275 Zn267 1.943 . S
O275 C274 1.249 1_556 S
O276 Zn266 2.067 1_554 S
O276 C274 1.270 . S
C277 O270 1.262 . S
C277 O278 1.232 . S
O278 C277 1.232 . S
C279 O271 1.260 . S
C279 O272 1.257 . S
Zn280 O283 2.031 . S
Zn280 O285 2.049 . S
Zn280 O290 2.067 1_556 S
Zn281 O282 1.962 . S
Zn281 O284 1.986 . S
Zn281 O286 1.996 . S
Zn281 O289 1.943 . S
O282 Zn281 1.962 . S
O282 C287 1.254 . S
O283 Zn280 2.031 . S
O283 C287 1.269 . S
O284 Zn281 1.986 . S
O284 C291 1.262 . S
O285 Zn280 2.049 . S
O285 C293 1.260 . S
O286 Zn281 1.996 . S
O286 C293 1.257 . S
C287 O282 1.254 . S
C287 O283 1.269 . S
C288 O289 1.249 1_554 S
C288 O290 1.270 . S
O289 Zn281 1.943 . S
O289 C288 1.249 1_556 S
O290 Zn280 2.067 1_554 S
O290 C288 1.270 . S
C291 O284 1.262 . S
C291 O292 1.232 . S
O292 C291 1.232 . S
C293 O285 1.260 . S
C293 O286 1.257 . S
Zn294 O297 2.031 . S
Zn294 O299 2.049 . S
Zn294 O304 2.067 1_554 S
Zn295 O296 1.962 . S
Zn295 O298 1.986 . S
Zn295 O300 1.996 . S
Zn295 O303 1.943 . S
O296 Zn295 1.962 . S
O296 C301 1.254 . S
O297 Zn294 2.031 . S
O297 C301 1.269 . S
O298 Zn295 1.986 . S
O298 C305 1.262 . S
O299 Zn294 2.049 . S
O299 C307 1.260 . S
O300 Zn295 1.996 . S
O300 C307 1.257 . S
C301 O296 1.254 . S
C301 O297 1.269 . S
C302 O303 1.249 1_556 S
C302 O304 1.270 . S
O303 Zn295 1.943 . S
O303 C302 1.249 1_554 S
O304 Zn294 2.067 1_556 S
O304 C302 1.270 . S
C305 O298 1.262 . S
C305 O306 1.232 . S
O306 C305 1.232 . S
C307 O299 1.260 . S
C307 O300 1.257 . S
Zn308 O311 2.031 . S
Zn308 O313 2.049 . S
Zn308 O318 2.067 1_554 S
Zn309 O310 1.962 . S
Zn309 O312 1.986 . S
Zn309 O314 1.996 . S
Zn309 O317 1.943 . S
O310 Zn309 1.962 . S
O310 C315 1.254 . S
O311 Zn308 2.031 . S
O311 C315 1.269 . S
O312 Zn309 1.986 . S
O312 C319 1.262 . S
O313 Zn308 2.049 . S
O313 C321 1.260 . S
O314 Zn309 1.996 . S
O314 C321 1.257 . S
C315 O310 1.254 . S
C315 O311 1.269 . S
C316 O317 1.249 1_556 S
C316 O318 1.270 . S
O317 Zn309 1.943 . S
O317 C316 1.249 1_554 S
O318 Zn308 2.067 1_556 S
O318 C316 1.270 . S
C319 O312 1.262 . S
C319 O320 1.232 . S
O320 C319 1.232 . S
C321 O313 1.260 . S
C321 O314 1.257 . S
Zn322 O325 2.031 . S
Zn322 O327 2.049 . S
Zn322 O332 2.067 1_554 S
Zn323 O324 1.962 . S
Zn323 O326 1.986 . S
Zn323 O328 1.996 . S
Zn323 O331 1.943 . S
O324 Zn323 1.962 . S
O324 C329 1.254 . S
O325 Zn322 2.031 . S
O325 C329 1.269 . S
O326 Zn323 1.986 . S
O326 C333 1.262 . S
O327 Zn322 2.049 . S
O327 C335 1.260 . S
O328 Zn323 1.996 . S
O328 C335 1.257 . S
C329 O324 1.254 . S
C329 O325 1.269 . S
C330 O331 1.249 1_556 S
C330 O332 1.270 . S
O331 Zn323 1.943 . S
O331 C330 1.249 1_554 S
O332 Zn322 2.067 1_556 S
O332 C330 1.270 . S
C333 O326 1.262 . S
C333 O334 1.232 . S
O334 C333 1.232 . S
C335 O327 1.260 . S
C335 O328 1.257 . S
Zn336 O339 2.031 . S
Zn336 O341 2.049 . S
Zn336 O346 2.067 . S
Zn337 O338 1.962 . S
Zn337 O340 1.986 . S
Zn337 O342 1.996 . S
Zn337 O345 1.943 . S
O338 Zn337 1.962 . S
O338 C343 1.254 . S
O339 Zn336 2.031 . S
O339 C343 1.269 . S
O340 Zn337 1.986 . S
O340 C347 1.262 . S
O341 Zn336 2.049 . S
O341 C349 1.260 . S
O342 Zn337 1.996 . S
O342 C349 1.257 . S
C343 O338 1.254 . S
C343 O339 1.269 . S
C344 O345 1.249 . S
C344 O346 1.270 . S
O345 Zn337 1.943 . S
O345 C344 1.249 . S
O346 Zn336 2.067 . S
O346 C344 1.270 . S
C347 O340 1.262 . S
C347 O348 1.232 . S
O348 C347 1.232 . S
C349 O341 1.260 . S
C349 O342 1.257 . S
Zn350 O353 2.031 . S
Zn350 O355 2.049 . S
Zn350 O360 2.067 . S
Zn351 O352 1.962 . S
Zn351 O354 1.986 . S
Zn351 O356 1.996 . S
Zn351 O359 1.943 . S
O352 Zn351 1.962 . S
O352 C357 1.254 . S
O353 Zn350 2.031 . S
O353 C357 1.269 . S
O354 Zn351 1.986 . S
O354 C361 1.262 . S
O355 Zn350 2.049 . S
O355 C363 1.260 . S
O356 Zn351 1.996 . S
O356 C363 1.257 . S
C357 O352 1.254 . S
C357 O353 1.269 . S
C358 O359 1.249 . S
C358 O360 1.270 . S
O359 Zn351 1.943 . S
O359 C358 1.249 . S
O360 Zn350 2.067 . S
O360 C358 1.270 . S
C361 O354 1.262 . S
C361 O362 1.232 . S
O362 C361 1.232 . S
C363 O355 1.260 . S
C363 O356 1.257 . S
Zn364 O367 2.031 . S
Zn364 O369 2.049 . S
Zn364 O374 2.067 . S
Zn365 O366 1.962 . S
Zn365 O368 1.986 . S
Zn365 O370 1.996 . S
Zn365 O373 1.943 . S
O366 Zn365 1.962 . S
O366 C371 1.254 . S
O367 Zn364 2.031 . S
O367 C371 1.269 . S
O368 Zn365 1.986 . S
O368 C375 1.262 . S
O369 Zn364 2.049 . S
O369 C377 1.260 . S
O370 Zn365 1.996 . S
O370 C377 1.257 . S
C371 O366 1.254 . S
C371 O367 1.269 . S
C372 O373 1.249 . S
C372 O374 1.270 . S
O373 Zn365 1.943 . S
O373 C372 1.249 . S
O374 Zn364 2.067 . S
O374 C372 1.270 . S
C375 O368 1.262 . S
C375 O376 1.232 . S
O376 C375 1.232 . S
C377 O369 1.260 . S
C377 O370 1.257 . S
Zn378 O381 2.031 . S
Zn378 O383 2.049 . S
Zn378 O388 2.067 . S
Zn379 O380 1.962 . S
Zn379 O382 1.986 . S
Zn379 O384 1.996 . S
Zn379 O387 1.943 . S
O380 Zn379 1.962 . S
O380 C385 1.254 . S
O381 Zn378 2.031 . S
O381 C385 1.269 . S
O382 Zn379 1.986 . S
O382 C389 1.262 . S
O383 Zn378 2.049 . S
O383 C391 1.260 . S
O384 Zn379 1.996 . S
O384 C391 1.257 . S
C385 O380 1.254 . S
C385 O381 1.269 . S
C386 O387 1.249 . S
C386 O388 1.270 . S
O387 Zn379 1.943 . S
O387 C386 1.249 . S
O388 Zn378 2.067 . S
O388 C386 1.270 . S
C389 O382 1.262 . S
C389 O390 1.232 . S
O390 C389 1.232 . S
C391 O383 1.260 . S
C391 O384 1.257 . S
Zn392 O395 2.031 . S
Zn392 O397 2.049 . S
Zn392 O402 2.067 . S
Zn393 O394 1.962 . S
Zn393 O396 1.986 . S
Zn393 O398 1.996 . S
Zn393 O401 1.943 . S
O394 Zn393 1.962 . S
O394 C399 1.254 . S
O395 Zn392 2.031 . S
O395 C399 1.269 . S
O396 Zn393 1.986 . S
O396 C403 1.262 . S
O397 Zn392 2.049 . S
O397 C405 1.260 . S
O398 Zn393 1.996 . S
O398 C405 1.257 . S
C399 O394 1.254 . S
C399 O395 1.269 . S
C400 O401 1.249 . S
C400 O402 1.270 . S
O401 Zn393 1.943 . S
O401 C400 1.249 . S
O402 Zn392 2.067 . S
O402 C400 1.270 . S
C403 O396 1.262 . S
C403 O404 1.232 . S
O404 C403 1.232 . S
C405 O397 1.260 . S
C405 O398 1.257 . S
Zn406 O409 2.031 . S
Zn406 O411 2.049 . S
Zn406 O416 2.067 . S
Zn407 O408 1.962 . S
Zn407 O410 1.986 . S
Zn407 O412 1.996 . S
Zn407 O415 1.943 . S
O408 Zn407 1.962 . S
O408 C413 1.254 . S
O409 Zn406 2.031 . S
O409 C413 1.269 . S
O410 Zn407 1.986 . S
O410 C417 1.262 . S
O411 Zn406 2.049 . S
O411 C419 1.260 . S
O412 Zn407 1.996 . S
O412 C419 1.257 . S
C413 O408 1.254 . S
C413 O409 1.269 . S
C414 O415 1.249 . S
C414 O416 1.270 . S
O415 Zn407 1.943 . S
O415 C414 1.249 . S
O416 Zn406 2.067 . S
O416 C414 1.270 . S
C417 O410 1.262 . S
C417 O418 1.232 . S
O418 C417 1.232 . S
C419 O411 1.260 . S
C419 O412 1.257 . S
Zn420 O423 2.031 . S
Zn420 O425 2.049 . S
Zn420 O430 2.067 . S
Zn421 O422 1.962 . S
Zn421 O424 1.986 . S
Zn421 O426 1.996 . S
Zn421 O429 1.943 . S
O422 Zn421 1.962 . S
O422 C427 1.254 . S
O423 Zn420 2.031 . S
O423 C427 1.269 . S
O424 Zn421 1.986 . S
O424 C431 1.262 . S
O425 Zn420 2.049 . S
O425 C433 1.260 . S
O426 Zn421 1.996 . S
O426 C433 1.257 . S
C427 O422 1.254 . S
C427 O423 1.269 . S
C428 O429 1.249 . S
C428 O430 1.270 . S
O429 Zn421 1.943 . S
O429 C428 1.249 . S
O430 Zn420 2.067 . S
O430 C428 1.270 . S
C431 O424 1.262 . S
C431 O432 1.232 . S
O432 C431 1.232 . S
C433 O425 1.260 . S
C433 O426 1.257 . S
Zn434 O437 2.031 . S
Zn434 O439 2.049 . S
Zn434 O444 2.067 . S
Zn435 O436 1.962 . S
Zn435 O438 1.986 . S
Zn435 O440 1.996 . S
Zn435 O443 1.943 . S
O436 Zn435 1.962 . S
O436 C441 1.254 . S
O437 Zn434 2.031 . S
O437 C441 1.269 . S
O438 Zn435 1.986 . S
O438 C445 1.262 . S
O439 Zn434 2.049 . S
O439 C447 1.260 . S
O440 Zn435 1.996 . S
O440 C447 1.257 . S
C441 O436 1.254 . S
C441 O437 1.269 . S
C442 O443 1.249 . S
C442 O444 1.270 . S
O443 Zn435 1.943 . S
O443 C442 1.249 . S
O444 Zn434 2.067 . S
O444 C442 1.270 . S
C445 O438 1.262 . S
C445 O446 1.232 . S
O446 C445 1.232 . S
C447 O439 1.260 . S
C447 O440 1.257 . S
Zn448 O451 2.031 . S
Zn448 O453 2.049 . S
Zn448 O458 2.067 . S
Zn449 O450 1.962 . S
Zn449 O452 1.986 . S
Zn449 O454 1.996 . S
Zn449 O457 1.943 . S
O450 Zn449 1.962 . S
O450 C455 1.254 . S
O451 Zn448 2.031 . S
O451 C455 1.269 . S
O452 Zn449 1.986 . S
O452 C459 1.262 . S
O453 Zn448 2.049 . S
O453 C461 1.260 . S
O454 Zn449 1.996 . S
O454 C461 1.257 . S
C455 O450 1.254 . S
C455 O451 1.269 . S
C456 O457 1.249 . S
C456 O458 1.270 . S
O457 Zn449 1.943 . S
O457 C456 1.249 . S
O458 Zn448 2.067 . S
O458 C456 1.270 . S
C459 O452 1.262 . S
C459 O460 1.232 . S
O460 C459 1.232 . S
C461 O453 1.260 . S
C461 O454 1.257 . S
Zn462 O465 2.031 . S
Zn462 O467 2.049 . S
Zn462 O472 2.067 . S
Zn463 O464 1.962 . S
Zn463 O466 1.986 . S
Zn463 O468 1.996 . S
Zn463 O471 1.943 . S
O464 Zn463 1.962 . S
O464 C469 1.254 . S
O465 Zn462 2.031 . S
O465 C469 1.269 . S
O466 Zn463 1.986 . S
O466 C473 1.262 . S
O467 Zn462 2.049 . S
O467 C475 1.260 . S
O468 Zn463 1.996 . S
O468 C475 1.257 . S
C469 O464 1.254 . S
C469 O465 1.269 . S
C470 O471 1.249 . S
C470 O472 1.270 . S
O471 Zn463 1.943 . S
O471 C470 1.249 . S
O472 Zn462 2.067 . S
O472 C470 1.270 . S
C473 O466 1.262 . S
C473 O474 1.232 . S
O474 C473 1.232 . S
C475 O467 1.260 . S
C475 O468 1.257 . S
Zn476 O479 2.031 . S
Zn476 O481 2.049 . S
Zn476 O486 2.067 . S
Zn477 O478 1.962 . S
Zn477 O480 1.986 . S
Zn477 O482 1.996 . S
Zn477 O485 1.943 . S
O478 Zn477 1.962 . S
O478 C483 1.254 . S
O479 Zn476 2.031 . S
O479 C483 1.269 . S
O480 Zn477 1.986 . S
O480 C487 1.262 . S
O481 Zn476 2.049 . S
O481 C489 1.260 . S
O482 Zn477 1.996 . S
O482 C489 1.257 . S
C483 O478 1.254 . S
C483 O479 1.269 . S
C484 O485 1.249 . S
C484 O486 1.270 . S
O485 Zn477 1.943 . S
O485 C484 1.249 . S
O486 Zn476 2.067 . S
O486 C484 1.270 . S
C487 O480 1.262 . S
C487 O488 1.232 . S
O488 C487 1.232 . S
C489 O481 1.260 . S
C489 O482 1.257 . S
Zn490 O493 2.031 . S
Zn490 O495 2.049 . S
Zn490 O500 2.067 . S
Zn491 O492 1.962 . S
Zn491 O494 1.986 . S
Zn491 O496 1.996 . S
Zn491 O499 1.943 . S
O492 Zn491 1.962 . S
O492 C497 1.254 . S
O493 Zn490 2.031 . S
O493 C497 1.269 . S
O494 Zn491 1.986 . S
O494 C501 1.262 . S
O495 Zn490 2.049 . S
O495 C503 1.260 . S
O496 Zn491 1.996 . S
O496 C503 1.257 . S
C497 O492 1.254 . S
C497 O493 1.269 . S
C498 O499 1.249 . S
C498 O500 1.270 . S
O499 Zn491 1.943 . S
O499 C498 1.249 . S
O500 Zn490 2.067 . S
O500 C498 1.270 . S
C501 O494 1.262 . S
C501 O502 1.232 . S
O502 C501 1.232 . S
C503 O495 1.260 . S
C503 O496 1.257 . S
Zn504 O507 2.031 . S
Zn504 O509 2.049 . S
Zn504 O514 2.067 . S
Zn505 O506 1.962 . S
Zn505 O508 1.986 . S
Zn505 O510 1.996 . S
Zn505 O513 1.943 . S
O506 Zn505 1.962 . S
O506 C511 1.254 . S
O507 Zn504 2.031 . S
O507 C511 1.269 . S
O508 Zn505 1.986 . S
O508 C515 1.262 . S
O509 Zn504 2.049 . S
O509 C517 1.260 . S
O510 Zn505 1.996 . S
O510 C517 1.257 . S
C511 O506 1.254 . S
C511 O507 1.269 . S
C512 O513 1.249 . S
C512 O514 1.270 . S
O513 Zn505 1.943 . S
O513 C512 1.249 . S
O514 Zn504 2.067 . S
O514 C512 1.270 . S
C515 O508 1.262 . S
C515 O516 1.232 . S
O516 C515 1.232 . S
C517 O509 1.260 . S
C517 O510 1.257 . S
Zn518 O521 2.031 . S
Zn518 O523 2.049 . S
Zn518 O528 2.067 . S
Zn519 O520 1.962 . S
Zn519 O522 1.986 . S
Zn519 O524 1.996 . S
Zn519 O527 1.943 . S
O520 Zn519 1.962 . S
O520 C525 1.254 . S
O521 Zn518 2.031 . S
O521 C525 1.269 . S
O522 Zn519 1.986 . S
O522 C529 1.262 . S
O523 Zn518 2.049 . S
O523 C531 1.260 . S
O524 Zn519 1.996 . S
O524 C531 1.257 . S
C525 O520 1.254 . S
C525 O521 1.269 . S
C526 O527 1.249 . S
C526 O528 1.270 . S
O527 Zn519 1.943 . S
O527 C526 1.249 . S
O528 Zn518 2.067 . S
O528 C526 1.270 . S
C529 O522 1.262 . S
C529 O530 1.232 . S
O530 C529 1.232 . S
C531 O523 1.260 . S
C531 O524 1.257 . S
Zn532 O535 2.031 . S
Zn532 O537 2.049 . S
Zn532 O542 2.067 . S
Zn533 O534 1.962 . S
Zn533 O536 1.986 . S
Zn533 O538 1.996 . S
Zn533 O541 1.943 . S
O534 Zn533 1.962 . S
O534 C539 1.254 . S
O535 Zn532 2.031 . S
O535 C539 1.269 . S
O536 Zn533 1.986 . S
O536 C543 1.262 . S
O537 Zn532 2.049 . S
O537 C545 1.260 . S
O538 Zn533 1.996 . S
O538 C545 1.257 . S
C539 O534 1.254 . S
C539 O535 1.269 . S
C540 O541 1.249 . S
C540 O542 1.270 . S
O541 Zn533 1.943 . S
O541 C540 1.249 . S
O542 Zn532 2.067 . S
O542 C540 1.270 . S
C543 O536 1.262 . S
C543 O544 1.232 . S
O544 C543 1.232 . S
C545 O537 1.260 . S
C545 O538 1.257 . S
Zn546 O549 2.031 . S
Zn546 O551 2.049 . S
Zn546 O556 2.067 . S
Zn547 O548 1.962 . S
Zn547 O550 1.986 . S
Zn547 O552 1.996 . S
Zn547 O555 1.943 . S
O548 Zn547 1.962 . S
O548 C553 1.254 . S
O549 Zn546 2.031 . S
O549 C553 1.269 . S
O550 Zn547 1.986 . S
O550 C557 1.262 . S
O551 Zn546 2.049 . S
O551 C559 1.260 . S
O552 Zn547 1.996 . S
O552 C559 1.257 . S
C553 O548 1.254 . S
C553 O549 1.269 . S
C554 O555 1.249 . S
C554 O556 1.270 . S
O555 Zn547 1.943 . S
O555 C554 1.249 . S
O556 Zn546 2.067 . S
O556 C554 1.270 . S
C557 O550 1.262 . S
C557 O558 1.232 . S
O558 C557 1.232 . S
C559 O551 1.260 . S
C559 O552 1.257 . S
Zn560 O563 2.031 . S
Zn560 O565 2.049 . S
Zn560 O570 2.067 . S
Zn561 O562 1.962 . S
Zn561 O564 1.986 . S
Zn561 O566 1.996 . S
Zn561 O569 1.943 . S
O562 Zn561 1.962 . S
O562 C567 1.254 . S
O563 Zn560 2.031 . S
O563 C567 1.269 . S
O564 Zn561 1.986 . S
O564 C571 1.262 . S
O565 Zn560 2.049 . S
O565 C573 1.260 . S
O566 Zn561 1.996 . S
O566 C573 1.257 . S
C567 O562 1.254 . S
C567 O563 1.269 . S
C568 O569 1.249 . S
C568 O570 1.270 . S
O569 Zn561 1.943 . S
O569 C568 1.249 . S
O570 Zn560 2.067 . S
O570 C568 1.270 . S
C571 O564 1.262 . S
C571 O572 1.232 . S
O572 C571 1.232 . S
C573 O565 1.260 . S
C573 O566 1.257 . S
Zn574 O577 2.031 . S
Zn574 O579 2.049 . S
Zn574 O584 2.067 . S
Zn575 O576 1.962 . S
Zn575 O578 1.986 . S
Zn575 O580 1.996 . S
Zn575 O583 1.943 . S
O576 Zn575 1.962 . S
O576 C581 1.254 . S
O577 Zn574 2.031 . S
O577 C581 1.269 . S
O578 Zn575 1.986 . S
O578 C585 1.262 . S
O579 Zn574 2.049 . S
O579 C587 1.260 . S
O580 Zn575 1.996 . S
O580 C587 1.257 . S
C581 O576 1.254 . S
C581 O577 1.269 . S
C582 O583 1.249 . S
C582 O584 1.270 . S
O583 Zn575 1.943 . S
O583 C582 1.249 . S
O584 Zn574 2.067 . S
O584 C582 1.270 . S
C585 O578 1.262 . S
C585 O586 1.232 . S
O586 C585 1.232 . S
C587 O579 1.260 . S
C587 O580 1.257 . S
Zn588 O591 2.031 . S
Zn588 O593 2.049 . S
Zn588 O598 2.067 . S
Zn589 O590 1.962 . S
Zn589 O592 1.986 . S
Zn589 O594 1.996 . S
Zn589 O597 1.943 . S
O590 Zn589 1.962 . S
O590 C595 1.254 . S
O591 Zn588 2.031 . S
O591 C595 1.269 . S
O592 Zn589 1.986 . S
O592 C599 1.262 . S
O593 Zn588 2.049 . S
O593 C601 1.260 . S
O594 Zn589 1.996 . S
O594 C601 1.257 . S
C595 O590 1.254 . S
C595 O591 1.269 . S
C596 O597 1.249 . S
C596 O598 1.270 . S
O597 Zn589 1.943 . S
O597 C596 1.249 . S
O598 Zn588 2.067 . S
O598 C596 1.270 . S
C599 O592 1.262 . S
C599 O600 1.232 . S
O600 C599 1.232 . S
C601 O593 1.260 . S
C601 O594 1.257 . S
Zn602 O605 2.031 . S
Zn602 O607 2.049 . S
Zn602 O612 2.067 . S
Zn603 O604 1.962 . S
Zn603 O606 1.986 . S
Zn603 O608 1.996 . S
Zn603 O611 1.943 . S
O604 Zn603 1.962 . S
O604 C609 1.254 . S
O605 Zn602 2.031 . S
O605 C609 1.269 . S
O606 Zn603 1.986 . S
O606 C613 1.262 . S
O607 Zn602 2.049 . S
O607 C615 1.260 . S
O608 Zn603 1.996 . S
O608 C615 1.257 . S
C609 O604 1.254 . S
C609 O605 1.269 . S
C610 O611 1.249 . S
C610 O612 1.270 . S
O611 Zn603 1.943 . S
O611 C610 1.249 . S
O612 Zn602 2.067 . S
O612 C610 1.270 . S
C613 O606 1.262 . S
C613 O614 1.232 . S
O614 C613 1.232 . S
C615 O607 1.260 . S
C615 O608 1.257 . S
Zn616 O619 2.031 . S
Zn616 O621 2.049 . S
Zn616 O626 2.067 . S
Zn617 O618 1.962 . S
Zn617 O620 1.986 . S
Zn617 O622 1.996 . S
Zn617 O625 1.943 . S
O618 Zn617 1.962 . S
O618 C623 1.254 . S
O619 Zn616 2.031 . S
O619 C623 1.269 . S
O620 Zn617 1.986 . S
O620 C627 1.262 . S
O621 Zn616 2.049 . S
O621 C629 1.260 . S
O622 Zn617 1.996 . S
O622 C629 1.257 . S
C623 O618 1.254 . S
C623 O619 1.269 . S
C624 O625 1.249 . S
C624 O626 1.270 . S
O625 Zn617 1.943 . S
O625 C624 1.249 . S
O626 Zn616 2.067 . S
O626 C624 1.270 . S
C627 O620 1.262 . S
C627 O628 1.232 . S
O628 C627 1.232 . S
C629 O621 1.260 . S
C629 O622 1.257 . S
Zn630 O633 2.031 . S
Zn630 O635 2.049 . S
Zn630 O640 2.067 . S
Zn631 O632 1.962 . S
Zn631 O634 1.986 . S
Zn631 O636 1.996 . S
Zn631 O639 1.943 . S
O632 Zn631 1.962 . S
O632 C637 1.254 . S
O633 Zn630 2.031 . S
O633 C637 1.269 . S
O634 Zn631 1.986 . S
O634 C641 1.262 . S
O635 Zn630 2.049 . S
O635 C643 1.260 . S
O636 Zn631 1.996 . S
O636 C643 1.257 . S
C637 O632 1.254 . S
C637 O633 1.269 . S
C638 O639 1.249 . S
C638 O640 1.270 . S
O639 Zn631 1.943 . S
O639 C638 1.249 . S
O640 Zn630 2.067 . S
O640 C638 1.270 . S
C641 O634 1.262 . S
C641 O642 1.232 . S
O642 C641 1.232 . S
C643 O635 1.260 . S
C643 O636 1.257 . S
Zn644 O647 2.031 . S
Zn644 O649 2.049 . S
Zn644 O654 2.067 . S
Zn645 O646 1.962 . S
Zn645 O648 1.986 . S
Zn645 O650 1.996 . S
Zn645 O653 1.943 . S
O646 Zn645 1.962 . S
O646 C651 1.254 . S
O647 Zn644 2.031 . S
O647 C651 1.269 . S
O648 Zn645 1.986 . S
O648 C655 1.262 . S
O649 Zn644 2.049 . S
O649 C657 1.260 . S
O650 Zn645 1.996 . S
O650 C657 1.257 . S
C651 O646 1.254 . S
C651 O647 1.269 . S
C652 O653 1.249 . S
C652 O654 1.270 . S
O653 Zn645 1.943 . S
O653 C652 1.249 . S
O654 Zn644 2.067 . S
O654 C652 1.270 . S
C655 O648 1.262 . S
C655 O656 1.232 . S
O656 C655 1.232 . S
C657 O649 1.260 . S
C657 O650 1.257 . S
Zn658 O661 2.031 . S
Zn658 O663 2.049 . S
Zn658 O668 2.067 . S
Zn659 O660 1.962 . S
Zn659 O662 1.986 . S
Zn659 O664 1.996 . S
Zn659 O667 1.943 . S
O660 Zn659 1.962 . S
O660 C665 1.254 . S
O661 Zn658 2.031 . S
O661 C665 1.269 . S
O662 Zn659 1.986 . S
O662 C669 1.262 . S
O663 Zn658 2.049 . S
O663 C671 1.260 . S
O664 Zn659 1.996 . S
O664 C671 1.257 . S
C665 O660 1.254 . S
C665 O661 1.269 . S
C666 O667 1.249 . S
C666 O668 1.270 . S
O667 Zn659 1.943 . S
O667 C666 1.249 . S
O668 Zn658 2.067 . S
O668 C666 1.270 . S
C669 O662 1.262 . S
C669 O670 1.232 . S
O670 C669 1.232 . S
C671 O663 1.260 . S
C671 O664 1.257 . S
H672 C678 0.930 . S
H673 C681 0.930 . S
H674 C682 0.930 . S
H675 C683 0.930 . S
H676 C686 0.930 . S
H677 C687 0.930 . S
C678 H672 0.930 . S
C678 C679 1.355 . S
C678 C680 1.415 . S
C679 C678 1.355 . S
C679 C681 1.419 . S
C680 C678 1.415 . S
C680 C685 1.425 . S
C680 C687 1.409 . S
C681 H673 0.930 . S
C681 C679 1.419 . S
C681 C682 1.362 . S
C682 H674 0.930 . S
C682 C681 1.362 . S
C682 C685 1.409 . S
C683 H675 0.930 . S
C683 C684 1.355 . S
C683 C685 1.415 . S
C684 C683 1.355 . S
C684 C686 1.419 . S
C685 C680 1.425 . S
C685 C682 1.409 . S
C685 C683 1.415 . S
C686 H676 0.930 . S
C686 C684 1.419 . S
C686 C687 1.362 . S
C687 H677 0.930 . S
C687 C680 1.409 . S
C687 C686 1.362 . S
H688 C694 0.930 . S
H689 C697 0.930 . S
H690 C698 0.930 . S
H691 C699 0.930 . S
H692 C702 0.930 . S
H693 C703 0.930 . S
C694 H688 0.930 . S
C694 C695 1.355 . S
C694 C696 1.415 . S
C695 C694 1.355 . S
C695 C697 1.419 . S
C696 C694 1.415 . S
C696 C701 1.425 . S
C696 C703 1.409 . S
C697 H689 0.930 . S
C697 C695 1.419 . S
C697 C698 1.362 . S
C698 H690 0.930 . S
C698 C697 1.362 . S
C698 C701 1.409 . S
C699 H691 0.930 . S
C699 C700 1.355 . S
C699 C701 1.415 . S
C700 C699 1.355 . S
C700 C702 1.419 . S
C701 C696 1.425 . S
C701 C698 1.409 . S
C701 C699 1.415 . S
C702 H692 0.930 . S
C702 C700 1.419 . S
C702 C703 1.362 . S
C703 H693 0.930 . S
C703 C696 1.409 . S
C703 C702 1.362 . S
H704 C710 0.930 . S
H705 C713 0.930 . S
H706 C714 0.930 . S
H707 C715 0.930 . S
H708 C718 0.930 . S
H709 C719 0.930 . S
C710 H704 0.930 . S
C710 C711 1.355 . S
C710 C712 1.415 . S
C711 C710 1.355 . S
C711 C713 1.419 . S
C712 C710 1.415 . S
C712 C717 1.425 . S
C712 C719 1.409 . S
C713 H705 0.930 . S
C713 C711 1.419 . S
C713 C714 1.362 . S
C714 H706 0.930 . S
C714 C713 1.362 . S
C714 C717 1.409 . S
C715 H707 0.930 . S
C715 C716 1.355 . S
C715 C717 1.415 . S
C716 C715 1.355 . S
C716 C718 1.419 . S
C717 C712 1.425 . S
C717 C714 1.409 . S
C717 C715 1.415 . S
C718 H708 0.930 . S
C718 C716 1.419 . S
C718 C719 1.362 . S
C719 H709 0.930 . S
C719 C712 1.409 . S
C719 C718 1.362 . S
H720 C726 0.930 . S
H721 C729 0.930 . S
H722 C730 0.930 . S
H723 C731 0.930 . S
H724 C734 0.930 . S
H725 C735 0.930 . S
C726 H720 0.930 . S
C726 C727 1.355 . S
C726 C728 1.415 . S
C727 C726 1.355 . S
C727 C729 1.419 . S
C728 C726 1.415 . S
C728 C733 1.425 . S
C728 C735 1.409 . S
C729 H721 0.930 . S
C729 C727 1.419 . S
C729 C730 1.362 . S
C730 H722 0.930 . S
C730 C729 1.362 . S
C730 C733 1.409 . S
C731 H723 0.930 . S
C731 C732 1.355 . S
C731 C733 1.415 . S
C732 C731 1.355 . S
C732 C734 1.419 . S
C733 C728 1.425 . S
C733 C730 1.409 . S
C733 C731 1.415 . S
C734 H724 0.930 . S
C734 C732 1.419 . S
C734 C735 1.362 . S
C735 H725 0.930 . S
C735 C728 1.409 . S
C735 C734 1.362 . S
H736 C742 0.930 . S
H737 C745 0.930 . S
H738 C746 0.930 . S
H739 C747 0.930 . S
H740 C750 0.930 . S
H741 C751 0.930 . S
C742 H736 0.930 . S
C742 C743 1.355 . S
C742 C744 1.415 . S
C743 C742 1.355 . S
C743 C745 1.419 . S
C744 C742 1.415 . S
C744 C749 1.425 . S
C744 C751 1.409 . S
C745 H737 0.930 . S
C745 C743 1.419 . S
C745 C746 1.362 . S
C746 H738 0.930 . S
C746 C745 1.362 . S
C746 C749 1.409 . S
C747 H739 0.930 . S
C747 C748 1.355 . S
C747 C749 1.415 . S
C748 C747 1.355 . S
C748 C750 1.419 . S
C749 C744 1.425 . S
C749 C746 1.409 . S
C749 C747 1.415 . S
C750 H740 0.930 . S
C750 C748 1.419 . S
C750 C751 1.362 . S
C751 H741 0.930 . S
C751 C744 1.409 . S
C751 C750 1.362 . S
H752 C758 0.930 . S
H753 C761 0.930 . S
H754 C762 0.930 . S
H755 C763 0.930 . S
H756 C766 0.930 . S
H757 C767 0.930 . S
C758 H752 0.930 . S
C758 C759 1.355 . S
C758 C760 1.415 . S
C759 C758 1.355 . S
C759 C761 1.419 . S
C760 C758 1.415 . S
C760 C765 1.425 . S
C760 C767 1.409 . S
C761 H753 0.930 . S
C761 C759 1.419 . S
C761 C762 1.362 . S
C762 H754 0.930 . S
C762 C761 1.362 . S
C762 C765 1.409 . S
C763 H755 0.930 . S
C763 C764 1.355 . S
C763 C765 1.415 . S
C764 C763 1.355 . S
C764 C766 1.419 . S
C765 C760 1.425 . S
C765 C762 1.409 . S
C765 C763 1.415 . S
C766 H756 0.930 . S
C766 C764 1.419 . S
C766 C767 1.362 . S
C767 H757 0.930 . S
C767 C760 1.409 . S
C767 C766 1.362 . S
H768 C774 0.930 . S
H769 C777 0.930 . S
H770 C778 0.930 . S
H771 C779 0.930 . S
H772 C782 0.930 . S
H773 C783 0.930 . S
C774 H768 0.930 . S
C774 C775 1.355 . S
C774 C776 1.415 . S
C775 C774 1.355 . S
C775 C777 1.419 . S
C776 C774 1.415 . S
C776 C781 1.425 . S
C776 C783 1.409 . S
C777 H769 0.930 . S
C777 C775 1.419 . S
C777 C778 1.362 . S
C778 H770 0.930 . S
C778 C777 1.362 . S
C778 C781 1.409 . S
C779 H771 0.930 . S
C779 C780 1.355 . S
C779 C781 1.415 . S
C780 C779 1.355 . S
C780 C782 1.419 . S
C781 C776 1.425 . S
C781 C778 1.409 . S
C781 C779 1.415 . S
C782 H772 0.930 . S
C782 C780 1.419 . S
C782 C783 1.362 . S
C783 H773 0.930 . S
C783 C776 1.409 . S
C783 C782 1.362 . S
H784 C790 0.930 . S
H785 C793 0.930 . S
H786 C794 0.930 . S
H787 C795 0.930 . S
H788 C798 0.930 . S
H789 C799 0.930 . S
C790 H784 0.930 . S
C790 C791 1.355 . S
C790 C792 1.415 . S
C791 C790 1.355 . S
C791 C793 1.419 . S
C792 C790 1.415 . S
C792 C797 1.425 . S
C792 C799 1.409 . S
C793 H785 0.930 . S
C793 C791 1.419 . S
C793 C794 1.362 . S
C794 H786 0.930 . S
C794 C793 1.362 . S
C794 C797 1.409 . S
C795 H787 0.930 . S
C795 C796 1.355 . S
C795 C797 1.415 . S
C796 C795 1.355 . S
C796 C798 1.419 . S
C797 C792 1.425 . S
C797 C794 1.409 . S
C797 C795 1.415 . S
C798 H788 0.930 . S
C798 C796 1.419 . S
C798 C799 1.362 . S
C799 H789 0.930 . S
C799 C792 1.409 . S
C799 C798 1.362 . S
H800 C806 0.930 . S
H801 C809 0.930 . S
H802 C810 0.930 . S
H803 C811 0.930 . S
H804 C814 0.930 . S
H805 C815 0.930 . S
C806 H800 0.930 . S
C806 C807 1.355 . S
C806 C808 1.415 . S
C807 C806 1.355 . S
C807 C809 1.419 . S
C808 C806 1.415 . S
C808 C813 1.425 . S
C808 C815 1.409 . S
C809 H801 0.930 . S
C809 C807 1.419 . S
C809 C810 1.362 . S
C810 H802 0.930 . S
C810 C809 1.362 . S
C810 C813 1.409 . S
C811 H803 0.930 . S
C811 C812 1.355 . S
C811 C813 1.415 . S
C812 C811 1.355 . S
C812 C814 1.419 . S
C813 C808 1.425 . S
C813 C810 1.409 . S
C813 C811 1.415 . S
C814 H804 0.930 . S
C814 C812 1.419 . S
C814 C815 1.362 . S
C815 H805 0.930 . S
C815 C808 1.409 . S
C815 C814 1.362 . S
H816 C822 0.930 . S
H817 C825 0.930 . S
H818 C826 0.930 . S
H819 C827 0.930 . S
H820 C830 0.930 . S
H821 C831 0.930 . S
C822 H816 0.930 . S
C822 C823 1.355 . S
C822 C824 1.415 . S
C823 C822 1.355 . S
C823 C825 1.419 . S
C824 C822 1.415 . S
C824 C829 1.425 . S
C824 C831 1.409 . S
C825 H817 0.930 . S
C825 C823 1.419 . S
C825 C826 1.362 . S
C826 H818 0.930 . S
C826 C825 1.362 . S
C826 C829 1.409 . S
C827 H819 0.930 . S
C827 C828 1.355 . S
C827 C829 1.415 . S
C828 C827 1.355 . S
C828 C830 1.419 . S
C829 C824 1.425 . S
C829 C826 1.409 . S
C829 C827 1.415 . S
C830 H820 0.930 . S
C830 C828 1.419 . S
C830 C831 1.362 . S
C831 H821 0.930 . S
C831 C824 1.409 . S
C831 C830 1.362 . S
H832 C838 0.930 . S
H833 C841 0.930 . S
H834 C842 0.930 . S
H835 C843 0.930 . S
H836 C846 0.930 . S
H837 C847 0.930 . S
C838 H832 0.930 . S
C838 C839 1.355 . S
C838 C840 1.415 . S
C839 C838 1.355 . S
C839 C841 1.419 . S
C840 C838 1.415 . S
C840 C845 1.425 . S
C840 C847 1.409 . S
C841 H833 0.930 . S
C841 C839 1.419 . S
C841 C842 1.362 . S
C842 H834 0.930 . S
C842 C841 1.362 . S
C842 C845 1.409 . S
C843 H835 0.930 . S
C843 C844 1.355 . S
C843 C845 1.415 . S
C844 C843 1.355 . S
C844 C846 1.419 . S
C845 C840 1.425 . S
C845 C842 1.409 . S
C845 C843 1.415 . S
C846 H836 0.930 . S
C846 C844 1.419 . S
C846 C847 1.362 . S
C847 H837 0.930 . S
C847 C840 1.409 . S
C847 C846 1.362 . S
H848 C854 0.930 . S
H849 C857 0.930 . S
H850 C858 0.930 . S
H851 C859 0.930 . S
H852 C862 0.930 . S
H853 C863 0.930 . S
C854 H848 0.930 . S
C854 C855 1.355 . S
C854 C856 1.415 . S
C855 C854 1.355 . S
C855 C857 1.419 . S
C856 C854 1.415 . S
C856 C861 1.425 . S
C856 C863 1.409 . S
C857 H849 0.930 . S
C857 C855 1.419 . S
C857 C858 1.362 . S
C858 H850 0.930 . S
C858 C857 1.362 . S
C858 C861 1.409 . S
C859 H851 0.930 . S
C859 C860 1.355 . S
C859 C861 1.415 . S
C860 C859 1.355 . S
C860 C862 1.419 . S
C861 C856 1.425 . S
C861 C858 1.409 . S
C861 C859 1.415 . S
C862 H852 0.930 . S
C862 C860 1.419 . S
C862 C863 1.362 . S
C863 H853 0.930 . S
C863 C856 1.409 . S
C863 C862 1.362 . S
H864 C870 0.930 . S
H865 C873 0.930 . S
H866 C874 0.930 . S
H867 C875 0.930 . S
H868 C878 0.930 . S
H869 C879 0.930 . S
C870 H864 0.930 . S
C870 C871 1.355 . S
C870 C872 1.415 . S
C871 C870 1.355 . S
C871 C873 1.419 . S
C872 C870 1.415 . S
C872 C877 1.425 . S
C872 C879 1.409 . S
C873 H865 0.930 . S
C873 C871 1.419 . S
C873 C874 1.362 . S
C874 H866 0.930 . S
C874 C873 1.362 . S
C874 C877 1.409 . S
C875 H867 0.930 . S
C875 C876 1.355 . S
C875 C877 1.415 . S
C876 C875 1.355 . S
C876 C878 1.419 . S
C877 C872 1.425 . S
C877 C874 1.409 . S
C877 C875 1.415 . S
C878 H868 0.930 . S
C878 C876 1.419 . S
C878 C879 1.362 . S
C879 H869 0.930 . S
C879 C872 1.409 . S
C879 C878 1.362 . S
H880 C886 0.930 . S
H881 C889 0.930 . S
H882 C890 0.930 . S
H883 C891 0.930 . S
H884 C894 0.930 . S
H885 C895 0.930 . S
C886 H880 0.930 . S
C886 C887 1.355 . S
C886 C888 1.415 . S
C887 C886 1.355 . S
C887 C889 1.419 . S
C888 C886 1.415 . S
C888 C893 1.425 . S
C888 C895 1.409 . S
C889 H881 0.930 . S
C889 C887 1.419 . S
C889 C890 1.362 . S
C890 H882 0.930 . S
C890 C889 1.362 . S
C890 C893 1.409 . S
C891 H883 0.930 . S
C891 C892 1.355 . S
C891 C893 1.415 . S
C892 C891 1.355 . S
C892 C894 1.419 . S
C893 C888 1.425 . S
C893 C890 1.409 . S
C893 C891 1.415 . S
C894 H884 0.930 . S
C894 C892 1.419 . S
C894 C895 1.362 . S
C895 H885 0.930 . S
C895 C888 1.409 . S
C895 C894 1.362 . S
H896 C902 0.930 . S
H897 C905 0.930 . S
H898 C906 0.930 . S
H899 C907 0.930 . S
H900 C910 0.930 . S
H901 C911 0.930 . S
C902 H896 0.930 . S
C902 C903 1.355 . S
C902 C904 1.415 . S
C903 C902 1.355 . S
C903 C905 1.419 . S
C904 C902 1.415 . S
C904 C909 1.425 . S
C904 C911 1.409 . S
C905 H897 0.930 . S
C905 C903 1.419 . S
C905 C906 1.362 . S
C906 H898 0.930 . S
C906 C905 1.362 . S
C906 C909 1.409 . S
C907 H899 0.930 . S
C907 C908 1.355 . S
C907 C909 1.415 . S
C908 C907 1.355 . S
C908 C910 1.419 . S
C909 C904 1.425 . S
C909 C906 1.409 . S
C909 C907 1.415 . S
C910 H900 0.930 . S
C910 C908 1.419 . S
C910 C911 1.362 . S
C911 H901 0.930 . S
C911 C904 1.409 . S
C911 C910 1.362 . S
H912 C918 0.930 . S
H913 C921 0.930 . S
H914 C922 0.930 . S
H915 C923 0.930 . S
H916 C926 0.930 . S
H917 C927 0.930 . S
C918 H912 0.930 . S
C918 C919 1.355 . S
C918 C920 1.415 . S
C919 C918 1.355 . S
C919 C921 1.419 . S
C920 C918 1.415 . S
C920 C925 1.425 . S
C920 C927 1.409 . S
C921 H913 0.930 . S
C921 C919 1.419 . S
C921 C922 1.362 . S
C922 H914 0.930 . S
C922 C921 1.362 . S
C922 C925 1.409 . S
C923 H915 0.930 . S
C923 C924 1.355 . S
C923 C925 1.415 . S
C924 C923 1.355 . S
C924 C926 1.419 . S
C925 C920 1.425 . S
C925 C922 1.409 . S
C925 C923 1.415 . S
C926 H916 0.930 . S
C926 C924 1.419 . S
C926 C927 1.362 . S
C927 H917 0.930 . S
C927 C920 1.409 . S
C927 C926 1.362 . S
H928 C934 0.930 . S
H929 C937 0.930 . S
H930 C938 0.930 . S
H931 C939 0.930 . S
H932 C942 0.930 . S
H933 C943 0.930 . S
C934 H928 0.930 . S
C934 C935 1.355 . S
C934 C936 1.415 . S
C935 C934 1.355 . S
C935 C937 1.419 . S
C936 C934 1.415 . S
C936 C941 1.425 . S
C936 C943 1.409 . S
C937 H929 0.930 . S
C937 C935 1.419 . S
C937 C938 1.362 . S
C938 H930 0.930 . S
C938 C937 1.362 . S
C938 C941 1.409 . S
C939 H931 0.930 . S
C939 C940 1.355 . S
C939 C941 1.415 . S
C940 C939 1.355 . S
C940 C942 1.419 . S
C941 C936 1.425 . S
C941 C938 1.409 . S
C941 C939 1.415 . S
C942 H932 0.930 . S
C942 C940 1.419 . S
C942 C943 1.362 . S
C943 H933 0.930 . S
C943 C936 1.409 . S
C943 C942 1.362 . S
H944 C950 0.930 . S
H945 C953 0.930 . S
H946 C954 0.930 . S
H947 C955 0.930 . S
H948 C958 0.930 . S
H949 C959 0.930 . S
C950 H944 0.930 . S
C950 C951 1.355 . S
C950 C952 1.415 . S
C951 C950 1.355 . S
C951 C953 1.419 . S
C952 C950 1.415 . S
C952 C957 1.425 . S
C952 C959 1.409 . S
C953 H945 0.930 . S
C953 C951 1.419 . S
C953 C954 1.362 . S
C954 H946 0.930 . S
C954 C953 1.362 . S
C954 C957 1.409 . S
C955 H947 0.930 . S
C955 C956 1.355 . S
C955 C957 1.415 . S
C956 C955 1.355 . S
C956 C958 1.419 . S
C957 C952 1.425 . S
C957 C954 1.409 . S
C957 C955 1.415 . S
C958 H948 0.930 . S
C958 C956 1.419 . S
C958 C959 1.362 . S
C959 H949 0.930 . S
C959 C952 1.409 . S
C959 C958 1.362 . S
H960 C966 0.930 . S
H961 C969 0.930 . S
H962 C970 0.930 . S
H963 C971 0.930 . S
H964 C974 0.930 . S
H965 C975 0.930 . S
C966 H960 0.930 . S
C966 C967 1.355 . S
C966 C968 1.415 . S
C967 C966 1.355 . S
C967 C969 1.419 . S
C968 C966 1.415 . S
C968 C973 1.425 . S
C968 C975 1.409 . S
C969 H961 0.930 . S
C969 C967 1.419 . S
C969 C970 1.362 . S
C970 H962 0.930 . S
C970 C969 1.362 . S
C970 C973 1.409 . S
C971 H963 0.930 . S
C971 C972 1.355 . S
C971 C973 1.415 . S
C972 C971 1.355 . S
C972 C974 1.419 . S
C973 C968 1.425 . S
C973 C970 1.409 . S
C973 C971 1.415 . S
C974 H964 0.930 . S
C974 C972 1.419 . S
C974 C975 1.362 . S
C975 H965 0.930 . S
C975 C968 1.409 . S
C975 C974 1.362 . S
H976 C982 0.930 . S
H977 C985 0.930 . S
H978 C986 0.930 . S
H979 C987 0.930 . S
H980 C990 0.930 . S
H981 C991 0.930 . S
C982 H976 0.930 . S
C982 C983 1.355 . S
C982 C984 1.415 . S
C983 C982 1.355 . S
C983 C985 1.419 . S
C984 C982 1.415 . S
C984 C989 1.425 . S
C984 C991 1.409 . S
C985 H977 0.930 . S
C985 C983 1.419 . S
C985 C986 1.362 . S
C986 H978 0.930 . S
C986 C985 1.362 . S
C986 C989 1.409 . S
C987 H979 0.930 . S
C987 C988 1.355 . S
C987 C989 1.415 . S
C988 C987 1.355 . S
C988 C990 1.419 . S
C989 C984 1.425 . S
C989 C986 1.409 . S
C989 C987 1.415 . S
C990 H980 0.930 . S
C990 C988 1.419 . S
C990 C991 1.362 . S
C991 H981 0.930 . S
C991 C984 1.409 . S
C991 C990 1.362 . S
H992 C998 0.930 . S
H993 C1001 0.930 . S
H994 C1002 0.930 . S
H995 C1003 0.930 . S
H996 C1006 0.930 . S
H997 C1007 0.930 . S
C998 H992 0.930 . S
C998 C999 1.355 . S
C998 C1000 1.415 . S
C999 C998 1.355 . S
C999 C1001 1.419 . S
C1000 C998 1.415 . S
C1000 C1005 1.425 . S
C1000 C1007 1.409 . S
C1001 H993 0.930 . S
C1001 C999 1.419 . S
C1001 C1002 1.362 . S
C1002 H994 0.930 . S
C1002 C1001 1.362 . S
C1002 C1005 1.409 . S
C1003 H995 0.930 . S
C1003 C1004 1.355 . S
C1003 C1005 1.415 . S
C1004 C1003 1.355 . S
C1004 C1006 1.419 . S
C1005 C1000 1.425 . S
C1005 C1002 1.409 . S
C1005 C1003 1.415 . S
C1006 H996 0.930 . S
C1006 C1004 1.419 . S
C1006 C1007 1.362 . S
C1007 H997 0.930 . S
C1007 C1000 1.409 . S
C1007 C1006 1.362 . S
H1008 C1014 0.930 . S
H1009 C1017 0.930 . S
H1010 C1018 0.930 . S
H1011 C1019 0.930 . S
H1012 C1022 0.930 . S
H1013 C1023 0.930 . S
C1014 H1008 0.930 . S
C1014 C1015 1.355 . S
C1014 C1016 1.415 . S
C1015 C1014 1.355 . S
C1015 C1017 1.419 . S
C1016 C1014 1.415 . S
C1016 C1021 1.425 . S
C1016 C1023 1.409 . S
C1017 H1009 0.930 . S
C1017 C1015 1.419 . S
C1017 C1018 1.362 . S
C1018 H1010 0.930 . S
C1018 C1017 1.362 . S
C1018 C1021 1.409 . S
C1019 H1011 0.930 . S
C1019 C1020 1.355 . S
C1019 C1021 1.415 . S
C1020 C1019 1.355 . S
C1020 C1022 1.419 . S
C1021 C1016 1.425 . S
C1021 C1018 1.409 . S
C1021 C1019 1.415 . S
C1022 H1012 0.930 . S
C1022 C1020 1.419 . S
C1022 C1023 1.362 . S
C1023 H1013 0.930 . S
C1023 C1016 1.409 . S
C1023 C1022 1.362 . S
H1024 C1030 0.930 . S
H1025 C1033 0.930 . S
H1026 C1034 0.930 . S
H1027 C1035 0.930 . S
H1028 C1038 0.930 . S
H1029 C1039 0.930 . S
C1030 H1024 0.930 . S
C1030 C1031 1.355 . S
C1030 C1032 1.415 . S
C1031 C1030 1.355 . S
C1031 C1033 1.419 . S
C1032 C1030 1.415 . S
C1032 C1037 1.425 . S
C1032 C1039 1.409 . S
C1033 H1025 0.930 . S
C1033 C1031 1.419 . S
C1033 C1034 1.362 . S
C1034 H1026 0.930 . S
C1034 C1033 1.362 . S
C1034 C1037 1.409 . S
C1035 H1027 0.930 . S
C1035 C1036 1.355 . S
C1035 C1037 1.415 . S
C1036 C1035 1.355 . S
C1036 C1038 1.419 . S
C1037 C1032 1.425 . S
C1037 C1034 1.409 . S
C1037 C1035 1.415 . S
C1038 H1028 0.930 . S
C1038 C1036 1.419 . S
C1038 C1039 1.362 . S
C1039 H1029 0.930 . S
C1039 C1032 1.409 . S
C1039 C1038 1.362 . S
H1040 C1046 0.930 . S
H1041 C1049 0.930 . S
H1042 C1050 0.930 . S
H1043 C1051 0.930 . S
H1044 C1054 0.930 . S
H1045 C1055 0.930 . S
C1046 H1040 0.930 . S
C1046 C1047 1.355 . S
C1046 C1048 1.415 . S
C1047 C1046 1.355 . S
C1047 C1049 1.419 . S
C1048 C1046 1.415 . S
C1048 C1053 1.425 . S
C1048 C1055 1.409 . S
C1049 H1041 0.930 . S
C1049 C1047 1.419 . S
C1049 C1050 1.362 . S
C1050 H1042 0.930 . S
C1050 C1049 1.362 . S
C1050 C1053 1.409 . S
C1051 H1043 0.930 . S
C1051 C1052 1.355 . S
C1051 C1053 1.415 . S
C1052 C1051 1.355 . S
C1052 C1054 1.419 . S
C1053 C1048 1.425 . S
C1053 C1050 1.409 . S
C1053 C1051 1.415 . S
C1054 H1044 0.930 . S
C1054 C1052 1.419 . S
C1054 C1055 1.362 . S
C1055 H1045 0.930 . S
C1055 C1048 1.409 . S
C1055 C1054 1.362 . S
H1056 C1062 0.930 . S
H1057 C1065 0.930 . S
H1058 C1066 0.930 . S
H1059 C1067 0.930 . S
H1060 C1070 0.930 . S
H1061 C1071 0.930 . S
C1062 H1056 0.930 . S
C1062 C1063 1.355 . S
C1062 C1064 1.415 . S
C1063 C1062 1.355 . S
C1063 C1065 1.419 1_655 S
C1064 C1062 1.415 . S
C1064 C1069 1.425 1_655 S
C1064 C1071 1.409 . S
C1065 H1057 0.930 . S
C1065 C1063 1.419 1_455 S
C1065 C1066 1.362 . S
C1066 H1058 0.930 . S
C1066 C1065 1.362 . S
C1066 C1069 1.409 . S
C1067 H1059 0.930 . S
C1067 C1068 1.355 . S
C1067 C1069 1.415 . S
C1068 C1067 1.355 . S
C1068 C1070 1.419 1_455 S
C1069 C1064 1.425 1_455 S
C1069 C1066 1.409 . S
C1069 C1067 1.415 . S
C1070 H1060 0.930 . S
C1070 C1068 1.419 1_655 S
C1070 C1071 1.362 . S
C1071 H1061 0.930 . S
C1071 C1064 1.409 . S
C1071 C1070 1.362 . S
H1072 C1078 0.930 . S
H1073 C1081 0.931 . S
H1074 C1082 0.930 . S
H1075 C1083 0.930 . S
H1076 C1086 0.931 . S
H1077 C1087 0.930 . S
C1078 H1072 0.930 . S
C1078 C1079 1.355 . S
C1078 C1080 1.415 . S
C1079 C1078 1.355 . S
C1079 C1081 1.419 . S
C1080 C1078 1.415 . S
C1080 C1085 1.425 1_565 S
C1080 C1087 1.409 . S
C1081 H1073 0.931 . S
C1081 C1079 1.419 . S
C1081 C1082 1.362 1_565 S
C1082 H1074 0.930 . S
C1082 C1081 1.362 1_545 S
C1082 C1085 1.409 . S
C1083 H1075 0.930 . S
C1083 C1084 1.355 . S
C1083 C1085 1.415 . S
C1084 C1083 1.355 . S
C1084 C1086 1.419 . S
C1085 C1080 1.425 1_545 S
C1085 C1082 1.409 . S
C1085 C1083 1.415 . S
C1086 H1076 0.931 . S
C1086 C1084 1.419 . S
C1086 C1087 1.362 1_545 S
C1087 H1077 0.930 . S
C1087 C1080 1.409 . S
C1087 C1086 1.362 1_565 S
H1088 C1094 0.930 . S
H1089 C1097 0.930 . S
H1090 C1098 0.930 . S
H1091 C1099 0.930 . S
H1092 C1102 0.930 . S
H1093 C1103 0.930 . S
C1094 H1088 0.930 . S
C1094 C1095 1.355 . S
C1094 C1096 1.415 . S
C1095 C1094 1.355 . S
C1095 C1097 1.419 1_655 S
C1096 C1094 1.415 . S
C1096 C1101 1.425 1_655 S
C1096 C1103 1.409 . S
C1097 H1089 0.930 . S
C1097 C1095 1.419 1_455 S
C1097 C1098 1.362 . S
C1098 H1090 0.930 . S
C1098 C1097 1.362 . S
C1098 C1101 1.409 . S
C1099 H1091 0.930 . S
C1099 C1100 1.355 . S
C1099 C1101 1.415 . S
C1100 C1099 1.355 . S
C1100 C1102 1.419 1_455 S
C1101 C1096 1.425 1_455 S
C1101 C1098 1.409 . S
C1101 C1099 1.415 . S
C1102 H1092 0.930 . S
C1102 C1100 1.419 1_655 S
C1102 C1103 1.362 . S
C1103 H1093 0.930 . S
C1103 C1096 1.409 . S
C1103 C1102 1.362 . S
H1104 C1110 0.930 . S
H1105 C1113 0.930 . S
H1106 C1114 0.930 . S
H1107 C1115 0.930 . S
H1108 C1118 0.930 . S
H1109 C1119 0.930 . S
C1110 H1104 0.930 . S
C1110 C1111 1.355 . S
C1110 C1112 1.415 . S
C1111 C1110 1.355 . S
C1111 C1113 1.419 . S
C1112 C1110 1.415 . S
C1112 C1117 1.425 1_545 S
C1112 C1119 1.409 1_545 S
C1113 H1105 0.930 . S
C1113 C1111 1.419 . S
C1113 C1114 1.362 . S
C1114 H1106 0.930 . S
C1114 C1113 1.362 . S
C1114 C1117 1.409 1_545 S
C1115 H1107 0.930 . S
C1115 C1116 1.355 . S
C1115 C1117 1.415 . S
C1116 C1115 1.355 . S
C1116 C1118 1.419 . S
C1117 C1112 1.425 1_565 S
C1117 C1114 1.409 1_565 S
C1117 C1115 1.415 . S
C1118 H1108 0.930 . S
C1118 C1116 1.419 . S
C1118 C1119 1.362 . S
C1119 H1109 0.930 . S
C1119 C1112 1.409 1_565 S
C1119 C1118 1.362 . S
H1120 C1126 0.930 . S
H1121 C1129 0.930 . S
H1122 C1130 0.930 . S
H1123 C1131 0.930 . S
H1124 C1134 0.930 . S
H1125 C1135 0.930 . S
C1126 H1120 0.930 . S
C1126 C1127 1.355 1_655 S
C1126 C1128 1.415 . S
C1127 C1126 1.355 1_455 S
C1127 C1129 1.419 . S
C1128 C1126 1.415 . S
C1128 C1133 1.425 1_655 S
C1128 C1135 1.409 . S
C1129 H1121 0.930 . S
C1129 C1127 1.419 . S
C1129 C1130 1.362 . S
C1130 H1122 0.930 . S
C1130 C1129 1.362 . S
C1130 C1133 1.409 . S
C1131 H1123 0.930 . S
C1131 C1132 1.355 1_455 S
C1131 C1133 1.415 . S
C1132 C1131 1.355 1_655 S
C1132 C1134 1.419 . S
C1133 C1128 1.425 1_455 S
C1133 C1130 1.409 . S
C1133 C1131 1.415 . S
C1134 H1124 0.930 . S
C1134 C1132 1.419 . S
C1134 C1135 1.362 . S
C1135 H1125 0.930 . S
C1135 C1128 1.409 . S
C1135 C1134 1.362 . S
H1136 C1142 0.930 . S
H1137 C1145 0.930 . S
H1138 C1146 0.930 . S
H1139 C1147 0.930 . S
H1140 C1150 0.930 . S
H1141 C1151 0.930 . S
C1142 H1136 0.930 . S
C1142 C1143 1.355 . S
C1142 C1144 1.415 . S
C1143 C1142 1.355 . S
C1143 C1145 1.419 . S
C1144 C1142 1.415 . S
C1144 C1149 1.425 1_565 S
C1144 C1151 1.409 . S
C1145 H1137 0.930 . S
C1145 C1143 1.419 . S
C1145 C1146 1.362 1_565 S
C1146 H1138 0.930 . S
C1146 C1145 1.362 1_545 S
C1146 C1149 1.409 . S
C1147 H1139 0.930 . S
C1147 C1148 1.355 . S
C1147 C1149 1.415 . S
C1148 C1147 1.355 . S
C1148 C1150 1.419 . S
C1149 C1144 1.425 1_545 S
C1149 C1146 1.409 . S
C1149 C1147 1.415 . S
C1150 H1140 0.930 . S
C1150 C1148 1.419 . S
C1150 C1151 1.362 1_545 S
C1151 H1141 0.930 . S
C1151 C1144 1.409 . S
C1151 C1150 1.362 1_565 S
H1152 C1158 0.930 . S
H1153 C1161 0.930 . S
H1154 C1162 0.930 . S
H1155 C1163 0.930 . S
H1156 C1166 0.930 . S
H1157 C1167 0.930 . S
C1158 H1152 0.930 . S
C1158 C1159 1.355 . S
C1158 C1160 1.415 . S
C1159 C1158 1.355 . S
C1159 C1161 1.419 1_455 S
C1160 C1158 1.415 . S
C1160 C1165 1.425 1_455 S
C1160 C1167 1.409 . S
C1161 H1153 0.930 . S
C1161 C1159 1.419 1_655 S
C1161 C1162 1.362 . S
C1162 H1154 0.930 . S
C1162 C1161 1.362 . S
C1162 C1165 1.409 . S
C1163 H1155 0.930 . S
C1163 C1164 1.355 . S
C1163 C1165 1.415 . S
C1164 C1163 1.355 . S
C1164 C1166 1.419 1_655 S
C1165 C1160 1.425 1_655 S
C1165 C1162 1.409 . S
C1165 C1163 1.415 . S
C1166 H1156 0.930 . S
C1166 C1164 1.419 1_455 S
C1166 C1167 1.362 . S
C1167 H1157 0.930 . S
C1167 C1160 1.409 . S
C1167 C1166 1.362 . S
H1168 C1174 0.930 1_565 S
H1169 C1177 0.930 . S
H1170 C1178 0.930 . S
H1171 C1179 0.930 1_545 S
H1172 C1182 0.930 . S
H1173 C1183 0.930 . S
C1174 H1168 0.930 1_545 S
C1174 C1175 1.355 . S
C1174 C1176 1.415 1_545 S
C1175 C1174 1.355 . S
C1175 C1177 1.419 . S
C1176 C1174 1.415 1_565 S
C1176 C1181 1.425 1_565 S
C1176 C1183 1.409 . S
C1177 H1169 0.930 . S
C1177 C1175 1.419 . S
C1177 C1178 1.362 . S
C1178 H1170 0.930 . S
C1178 C1177 1.362 . S
C1178 C1181 1.409 . S
C1179 H1171 0.930 1_565 S
C1179 C1180 1.355 . S
C1179 C1181 1.415 1_565 S
C1180 C1179 1.355 . S
C1180 C1182 1.419 . S
C1181 C1176 1.425 1_545 S
C1181 C1178 1.409 . S
C1181 C1179 1.415 1_545 S
C1182 H1172 0.930 . S
C1182 C1180 1.419 . S
C1182 C1183 1.362 . S
C1183 H1173 0.930 . S
C1183 C1176 1.409 . S
C1183 C1182 1.362 . S
H1184 C1190 0.930 . S
H1185 C1193 0.930 . S
H1186 C1194 0.930 . S
H1187 C1195 0.930 . S
H1188 C1198 0.930 . S
H1189 C1199 0.930 . S
C1190 H1184 0.930 . S
C1190 C1191 1.355 . S
C1190 C1192 1.415 . S
C1191 C1190 1.355 . S
C1191 C1193 1.419 1_556 S
C1192 C1190 1.415 . S
C1192 C1197 1.425 1_556 S
C1192 C1199 1.409 . S
C1193 H1185 0.930 . S
C1193 C1191 1.419 1_554 S
C1193 C1194 1.362 . S
C1194 H1186 0.930 . S
C1194 C1193 1.362 . S
C1194 C1197 1.409 . S
C1195 H1187 0.930 . S
C1195 C1196 1.355 . S
C1195 C1197 1.415 . S
C1196 C1195 1.355 . S
C1196 C1198 1.419 1_554 S
C1197 C1192 1.425 1_554 S
C1197 C1194 1.409 . S
C1197 C1195 1.415 . S
C1198 H1188 0.930 . S
C1198 C1196 1.419 1_556 S
C1198 C1199 1.362 . S
C1199 H1189 0.930 . S
C1199 C1192 1.409 . S
C1199 C1198 1.362 . S
H1200 C1206 0.930 . S
H1201 C1209 0.930 . S
H1202 C1210 0.930 . S
H1203 C1211 0.930 . S
H1204 C1214 0.930 . S
H1205 C1215 0.930 . S
C1206 H1200 0.930 . S
C1206 C1207 1.355 . S
C1206 C1208 1.415 . S
C1207 C1206 1.355 . S
C1207 C1209 1.419 . S
C1208 C1206 1.415 . S
C1208 C1213 1.425 1_554 S
C1208 C1215 1.409 . S
C1209 H1201 0.930 . S
C1209 C1207 1.419 . S
C1209 C1210 1.362 1_554 S
C1210 H1202 0.930 . S
C1210 C1209 1.362 1_556 S
C1210 C1213 1.409 . S
C1211 H1203 0.930 . S
C1211 C1212 1.355 . S
C1211 C1213 1.415 . S
C1212 C1211 1.355 . S
C1212 C1214 1.419 . S
C1213 C1208 1.425 1_556 S
C1213 C1210 1.409 . S
C1213 C1211 1.415 . S
C1214 H1204 0.930 . S
C1214 C1212 1.419 . S
C1214 C1215 1.362 1_556 S
C1215 H1205 0.930 . S
C1215 C1208 1.409 . S
C1215 C1214 1.362 1_554 S
H1216 C1222 0.930 . S
H1217 C1225 0.930 . S
H1218 C1226 0.930 . S
H1219 C1227 0.930 . S
H1220 C1230 0.930 . S
H1221 C1231 0.930 . S
C1222 H1216 0.930 . S
C1222 C1223 1.355 . S
C1222 C1224 1.415 . S
C1223 C1222 1.355 . S
C1223 C1225 1.419 . S
C1224 C1222 1.415 . S
C1224 C1229 1.425 1_554 S
C1224 C1231 1.409 . S
C1225 H1217 0.930 . S
C1225 C1223 1.419 . S
C1225 C1226 1.362 1_554 S
C1226 H1218 0.930 . S
C1226 C1225 1.362 1_556 S
C1226 C1229 1.409 . S
C1227 H1219 0.930 . S
C1227 C1228 1.355 . S
C1227 C1229 1.415 . S
C1228 C1227 1.355 . S
C1228 C1230 1.419 . S
C1229 C1224 1.425 1_556 S
C1229 C1226 1.409 . S
C1229 C1227 1.415 . S
C1230 H1220 0.930 . S
C1230 C1228 1.419 . S
C1230 C1231 1.362 1_556 S
C1231 H1221 0.930 . S
C1231 C1224 1.409 . S
C1231 C1230 1.362 1_554 S
H1232 C1238 0.930 . S
H1233 C1241 0.930 . S
H1234 C1242 0.930 . S
H1235 C1243 0.930 . S
H1236 C1246 0.930 . S
H1237 C1247 0.930 . S
C1238 H1232 0.930 . S
C1238 C1239 1.355 . S
C1238 C1240 1.415 . S
C1239 C1238 1.355 . S
C1239 C1241 1.419 1_556 S
C1240 C1238 1.415 . S
C1240 C1245 1.425 1_556 S
C1240 C1247 1.409 . S
C1241 H1233 0.930 . S
C1241 C1239 1.419 1_554 S
C1241 C1242 1.362 . S
C1242 H1234 0.930 . S
C1242 C1241 1.362 . S
C1242 C1245 1.409 . S
C1243 H1235 0.930 . S
C1243 C1244 1.355 . S
C1243 C1245 1.415 . S
C1244 C1243 1.355 . S
C1244 C1246 1.419 1_554 S
C1245 C1240 1.425 1_554 S
C1245 C1242 1.409 . S
C1245 C1243 1.415 . S
C1246 H1236 0.930 . S
C1246 C1244 1.419 1_556 S
C1246 C1247 1.362 . S
C1247 H1237 0.930 . S
C1247 C1240 1.409 . S
C1247 C1246 1.362 . S
H1248 C1254 0.930 . S
H1249 C1257 0.930 . S
H1250 C1258 0.930 . S
H1251 C1259 0.930 . S
H1252 C1262 0.930 . S
H1253 C1263 0.930 . S
C1254 H1248 0.930 . S
C1254 C1255 1.355 . S
C1254 C1256 1.415 . S
C1255 C1254 1.355 . S
C1255 C1257 1.419 . S
C1256 C1254 1.415 . S
C1256 C1261 1.425 . S
C1256 C1263 1.409 . S
C1257 H1249 0.930 . S
C1257 C1255 1.419 . S
C1257 C1258 1.362 . S
C1258 H1250 0.930 . S
C1258 C1257 1.362 . S
C1258 C1261 1.409 . S
C1259 H1251 0.930 . S
C1259 C1260 1.355 . S
C1259 C1261 1.415 . S
C1260 C1259 1.355 . S
C1260 C1262 1.419 . S
C1261 C1256 1.425 . S
C1261 C1258 1.409 . S
C1261 C1259 1.415 . S
C1262 H1252 0.930 . S
C1262 C1260 1.419 . S
C1262 C1263 1.362 . S
C1263 H1253 0.930 . S
C1263 C1256 1.409 . S
C1263 C1262 1.362 . S
H1264 C1270 0.930 . S
H1265 C1273 0.930 . S
H1266 C1274 0.930 . S
H1267 C1275 0.930 . S
H1268 C1278 0.930 . S
H1269 C1279 0.930 . S
C1270 H1264 0.930 . S
C1270 C1271 1.355 . S
C1270 C1272 1.415 . S
C1271 C1270 1.355 . S
C1271 C1273 1.419 . S
C1272 C1270 1.415 . S
C1272 C1277 1.425 . S
C1272 C1279 1.409 . S
C1273 H1265 0.930 . S
C1273 C1271 1.419 . S
C1273 C1274 1.362 . S
C1274 H1266 0.930 . S
C1274 C1273 1.362 . S
C1274 C1277 1.409 . S
C1275 H1267 0.930 . S
C1275 C1276 1.355 . S
C1275 C1277 1.415 . S
C1276 C1275 1.355 . S
C1276 C1278 1.419 . S
C1277 C1272 1.425 . S
C1277 C1274 1.409 . S
C1277 C1275 1.415 . S
C1278 H1268 0.930 . S
C1278 C1276 1.419 . S
C1278 C1279 1.362 . S
C1279 H1269 0.930 . S
C1279 C1272 1.409 . S
C1279 C1278 1.362 . S
H1280 C1286 0.930 . S
H1281 C1289 0.930 . S
H1282 C1290 0.930 . S
H1283 C1291 0.930 . S
H1284 C1294 0.930 . S
H1285 C1295 0.930 . S
C1286 H1280 0.930 . S
C1286 C1287 1.355 . S
C1286 C1288 1.415 . S
C1287 C1286 1.355 . S
C1287 C1289 1.419 . S
C1288 C1286 1.415 . S
C1288 C1293 1.425 . S
C1288 C1295 1.409 . S
C1289 H1281 0.930 . S
C1289 C1287 1.419 . S
C1289 C1290 1.362 . S
C1290 H1282 0.930 . S
C1290 C1289 1.362 . S
C1290 C1293 1.409 . S
C1291 H1283 0.930 . S
C1291 C1292 1.355 . S
C1291 C1293 1.415 . S
C1292 C1291 1.355 . S
C1292 C1294 1.419 . S
C1293 C1288 1.425 . S
C1293 C1290 1.409 . S
C1293 C1291 1.415 . S
C1294 H1284 0.930 . S
C1294 C1292 1.419 . S
C1294 C1295 1.362 . S
C1295 H1285 0.930 . S
C1295 C1288 1.409 . S
C1295 C1294 1.362 . S
H1296 C1302 0.930 . S
H1297 C1305 0.930 . S
H1298 C1306 0.930 . S
H1299 C1307 0.930 . S
H1300 C1310 0.930 . S
H1301 C1311 0.930 . S
C1302 H1296 0.930 . S
C1302 C1303 1.355 . S
C1302 C1304 1.415 . S
C1303 C1302 1.355 . S
C1303 C1305 1.419 . S
C1304 C1302 1.415 . S
C1304 C1309 1.425 . S
C1304 C1311 1.409 . S
C1305 H1297 0.930 . S
C1305 C1303 1.419 . S
C1305 C1306 1.362 . S
C1306 H1298 0.930 . S
C1306 C1305 1.362 . S
C1306 C1309 1.409 . S
C1307 H1299 0.930 . S
C1307 C1308 1.355 . S
C1307 C1309 1.415 . S
C1308 C1307 1.355 . S
C1308 C1310 1.419 . S
C1309 C1304 1.425 . S
C1309 C1306 1.409 . S
C1309 C1307 1.415 . S
C1310 H1300 0.930 . S
C1310 C1308 1.419 . S
C1310 C1311 1.362 . S
C1311 H1301 0.930 . S
C1311 C1304 1.409 . S
C1311 C1310 1.362 . S
H1312 C1318 0.930 . S
H1313 C1321 0.930 . S
H1314 C1322 0.930 . S
H1315 C1323 0.930 . S
H1316 C1326 0.930 . S
H1317 C1327 0.930 . S
C1318 H1312 0.930 . S
C1318 C1319 1.355 . S
C1318 C1320 1.415 . S
C1319 C1318 1.355 . S
C1319 C1321 1.419 . S
C1320 C1318 1.415 . S
C1320 C1325 1.425 . S
C1320 C1327 1.409 . S
C1321 H1313 0.930 . S
C1321 C1319 1.419 . S
C1321 C1322 1.362 . S
C1322 H1314 0.930 . S
C1322 C1321 1.362 . S
C1322 C1325 1.409 . S
C1323 H1315 0.930 . S
C1323 C1324 1.355 . S
C1323 C1325 1.415 . S
C1324 C1323 1.355 . S
C1324 C1326 1.419 . S
C1325 C1320 1.425 . S
C1325 C1322 1.409 . S
C1325 C1323 1.415 . S
C1326 H1316 0.930 . S
C1326 C1324 1.419 . S
C1326 C1327 1.362 . S
C1327 H1317 0.930 . S
C1327 C1320 1.409 . S
C1327 C1326 1.362 . S
H1328 C1334 0.930 . S
H1329 C1337 0.930 . S
H1330 C1338 0.930 . S
H1331 C1339 0.930 . S
H1332 C1342 0.930 . S
H1333 C1343 0.930 . S
C1334 H1328 0.930 . S
C1334 C1335 1.355 . S
C1334 C1336 1.415 . S
C1335 C1334 1.355 . S
C1335 C1337 1.419 . S
C1336 C1334 1.415 . S
C1336 C1341 1.425 . S
C1336 C1343 1.409 . S
C1337 H1329 0.930 . S
C1337 C1335 1.419 . S
C1337 C1338 1.362 . S
C1338 H1330 0.930 . S
C1338 C1337 1.362 . S
C1338 C1341 1.409 . S
C1339 H1331 0.930 . S
C1339 C1340 1.355 . S
C1339 C1341 1.415 . S
C1340 C1339 1.355 . S
C1340 C1342 1.419 . S
C1341 C1336 1.425 . S
C1341 C1338 1.409 . S
C1341 C1339 1.415 . S
C1342 H1332 0.930 . S
C1342 C1340 1.419 . S
C1342 C1343 1.362 . S
C1343 H1333 0.930 . S
C1343 C1336 1.409 . S
C1343 C1342 1.362 . S
H1344 C1350 0.930 . S
H1345 C1353 0.930 . S
H1346 C1354 0.930 . S
H1347 C1355 0.930 . S
H1348 C1358 0.930 . S
H1349 C1359 0.930 . S
C1350 H1344 0.930 . S
C1350 C1351 1.355 . S
C1350 C1352 1.415 . S
C1351 C1350 1.355 . S
C1351 C1353 1.419 . S
C1352 C1350 1.415 . S
C1352 C1357 1.425 . S
C1352 C1359 1.409 . S
C1353 H1345 0.930 . S
C1353 C1351 1.419 . S
C1353 C1354 1.362 . S
C1354 H1346 0.930 . S
C1354 C1353 1.362 . S
C1354 C1357 1.409 . S
C1355 H1347 0.930 . S
C1355 C1356 1.355 . S
C1355 C1357 1.415 . S
C1356 C1355 1.355 . S
C1356 C1358 1.419 . S
C1357 C1352 1.425 . S
C1357 C1354 1.409 . S
C1357 C1355 1.415 . S
C1358 H1348 0.930 . S
C1358 C1356 1.419 . S
C1358 C1359 1.362 . S
C1359 H1349 0.930 . S
C1359 C1352 1.409 . S
C1359 C1358 1.362 . S
H1360 C1366 0.930 . S
H1361 C1369 0.930 . S
H1362 C1370 0.930 . S
H1363 C1371 0.930 . S
H1364 C1374 0.930 . S
H1365 C1375 0.930 . S
C1366 H1360 0.930 . S
C1366 C1367 1.355 . S
C1366 C1368 1.415 . S
C1367 C1366 1.355 . S
C1367 C1369 1.419 . S
C1368 C1366 1.415 . S
C1368 C1373 1.425 . S
C1368 C1375 1.409 . S
C1369 H1361 0.930 . S
C1369 C1367 1.419 . S
C1369 C1370 1.362 . S
C1370 H1362 0.930 . S
C1370 C1369 1.362 . S
C1370 C1373 1.409 . S
C1371 H1363 0.930 . S
C1371 C1372 1.355 . S
C1371 C1373 1.415 . S
C1372 C1371 1.355 . S
C1372 C1374 1.419 . S
C1373 C1368 1.425 . S
C1373 C1370 1.409 . S
C1373 C1371 1.415 . S
C1374 H1364 0.930 . S
C1374 C1372 1.419 . S
C1374 C1375 1.362 . S
C1375 H1365 0.930 . S
C1375 C1368 1.409 . S
C1375 C1374 1.362 . S
H1376 C1382 0.930 . S
H1377 C1385 0.930 . S
H1378 C1386 0.930 . S
H1379 C1387 0.930 . S
H1380 C1390 0.930 . S
H1381 C1391 0.930 . S
C1382 H1376 0.930 . S
C1382 C1383 1.355 . S
C1382 C1384 1.415 . S
C1383 C1382 1.355 . S
C1383 C1385 1.419 . S
C1384 C1382 1.415 . S
C1384 C1389 1.425 . S
C1384 C1391 1.409 . S
C1385 H1377 0.930 . S
C1385 C1383 1.419 . S
C1385 C1386 1.362 . S
C1386 H1378 0.930 . S
C1386 C1385 1.362 . S
C1386 C1389 1.409 . S
C1387 H1379 0.930 . S
C1387 C1388 1.355 . S
C1387 C1389 1.415 . S
C1388 C1387 1.355 . S
C1388 C1390 1.419 . S
C1389 C1384 1.425 . S
C1389 C1386 1.409 . S
C1389 C1387 1.415 . S
C1390 H1380 0.930 . S
C1390 C1388 1.419 . S
C1390 C1391 1.362 . S
C1391 H1381 0.930 . S
C1391 C1384 1.409 . S
C1391 C1390 1.362 . S
H1392 C1398 0.930 . S
H1393 C1401 0.930 . S
H1394 C1402 0.930 . S
H1395 C1403 0.930 . S
H1396 C1406 0.930 . S
H1397 C1407 0.930 . S
C1398 H1392 0.930 . S
C1398 C1399 1.355 . S
C1398 C1400 1.415 . S
C1399 C1398 1.355 . S
C1399 C1401 1.419 . S
C1400 C1398 1.415 . S
C1400 C1405 1.425 . S
C1400 C1407 1.409 . S
C1401 H1393 0.930 . S
C1401 C1399 1.419 . S
C1401 C1402 1.362 . S
C1402 H1394 0.930 . S
C1402 C1401 1.362 . S
C1402 C1405 1.409 . S
C1403 H1395 0.930 . S
C1403 C1404 1.355 . S
C1403 C1405 1.415 . S
C1404 C1403 1.355 . S
C1404 C1406 1.419 . S
C1405 C1400 1.425 . S
C1405 C1402 1.409 . S
C1405 C1403 1.415 . S
C1406 H1396 0.930 . S
C1406 C1404 1.419 . S
C1406 C1407 1.362 . S
C1407 H1397 0.930 . S
C1407 C1400 1.409 . S
C1407 C1406 1.362 . S
H1408 C1414 0.930 . S
H1409 C1417 0.930 . S
H1410 C1418 0.930 . S
H1411 C1419 0.930 . S
H1412 C1422 0.930 . S
H1413 C1423 0.930 . S
C1414 H1408 0.930 . S
C1414 C1415 1.355 . S
C1414 C1416 1.415 . S
C1415 C1414 1.355 . S
C1415 C1417 1.419 . S
C1416 C1414 1.415 . S
C1416 C1421 1.425 . S
C1416 C1423 1.409 . S
C1417 H1409 0.930 . S
C1417 C1415 1.419 . S
C1417 C1418 1.362 . S
C1418 H1410 0.930 . S
C1418 C1417 1.362 . S
C1418 C1421 1.409 . S
C1419 H1411 0.930 . S
C1419 C1420 1.355 . S
C1419 C1421 1.415 . S
C1420 C1419 1.355 . S
C1420 C1422 1.419 . S
C1421 C1416 1.425 . S
C1421 C1418 1.409 . S
C1421 C1419 1.415 . S
C1422 H1412 0.930 . S
C1422 C1420 1.419 . S
C1422 C1423 1.362 . S
C1423 H1413 0.930 . S
C1423 C1416 1.409 . S
C1423 C1422 1.362 . S
H1424 C1430 0.930 . S
H1425 C1433 0.930 . S
H1426 C1434 0.930 . S
H1427 C1435 0.930 . S
H1428 C1438 0.930 . S
H1429 C1439 0.930 . S
C1430 H1424 0.930 . S
C1430 C1431 1.355 . S
C1430 C1432 1.415 . S
C1431 C1430 1.355 . S
C1431 C1433 1.419 . S
C1432 C1430 1.415 . S
C1432 C1437 1.425 . S
C1432 C1439 1.409 . S
C1433 H1425 0.930 . S
C1433 C1431 1.419 . S
C1433 C1434 1.362 . S
C1434 H1426 0.930 . S
C1434 C1433 1.362 . S
C1434 C1437 1.409 . S
C1435 H1427 0.930 . S
C1435 C1436 1.355 . S
C1435 C1437 1.415 . S
C1436 C1435 1.355 . S
C1436 C1438 1.419 . S
C1437 C1432 1.425 . S
C1437 C1434 1.409 . S
C1437 C1435 1.415 . S
C1438 H1428 0.930 . S
C1438 C1436 1.419 . S
C1438 C1439 1.362 . S
C1439 H1429 0.930 . S
C1439 C1432 1.409 . S
C1439 C1438 1.362 . S
H1440 C1446 0.930 . S
H1441 C1449 0.930 . S
H1442 C1450 0.930 . S
H1443 C1451 0.930 . S
H1444 C1454 0.956 . S
H1445 C1455 0.930 . S
C1446 H1440 0.930 . S
C1446 C1447 1.355 . S
C1446 C1448 1.415 . S
C1447 C1446 1.355 . S
C1447 C1449 1.419 . S
C1448 C1446 1.415 . S
C1448 C1453 1.425 . S
C1448 C1455 1.409 . S
C1449 H1441 0.930 . S
C1449 C1447 1.419 . S
C1449 C1450 1.362 . S
C1450 H1442 0.930 . S
C1450 C1449 1.362 . S
C1450 C1453 1.409 . S
C1451 H1443 0.930 . S
C1451 C1452 1.355 . S
C1451 C1453 1.415 . S
C1452 C1451 1.355 . S
C1452 C1454 1.419 . S
C1453 C1448 1.425 . S
C1453 C1450 1.409 . S
C1453 C1451 1.415 . S
C1454 H1444 0.956 . S
C1454 C1452 1.419 . S
C1454 C1455 1.362 . S
C1455 H1445 0.930 . S
C1455 C1448 1.409 . S
C1455 C1454 1.362 . S
H1456 C1462 0.930 . S
H1457 C1465 0.930 . S
H1458 C1466 0.930 . S
H1459 C1467 0.930 . S
H1460 C1470 0.930 . S
H1461 C1471 0.930 . S
C1462 H1456 0.930 . S
C1462 C1463 1.355 . S
C1462 C1464 1.415 . S
C1463 C1462 1.355 . S
C1463 C1465 1.419 . S
C1464 C1462 1.415 . S
C1464 C1469 1.425 . S
C1464 C1471 1.409 . S
C1465 H1457 0.930 . S
C1465 C1463 1.419 . S
C1465 C1466 1.362 . S
C1466 H1458 0.930 . S
C1466 C1465 1.362 . S
C1466 C1469 1.409 . S
C1467 H1459 0.930 . S
C1467 C1468 1.355 . S
C1467 C1469 1.415 . S
C1468 C1467 1.355 . S
C1468 C1470 1.419 . S
C1469 C1464 1.425 . S
C1469 C1466 1.409 . S
C1469 C1467 1.415 . S
C1470 H1460 0.930 . S
C1470 C1468 1.419 . S
C1470 C1471 1.362 . S
C1471 H1461 0.930 . S
C1471 C1464 1.409 . S
C1471 C1470 1.362 . S
H1472 C1478 0.930 . S
H1473 C1481 0.930 . S
H1474 C1482 0.930 . S
H1475 C1483 0.930 . S
H1476 C1486 0.930 . S
H1477 C1487 0.930 . S
C1478 H1472 0.930 . S
C1478 C1479 1.355 . S
C1478 C1480 1.415 . S
C1479 C1478 1.355 . S
C1479 C1481 1.419 . S
C1480 C1478 1.415 . S
C1480 C1485 1.425 . S
C1480 C1487 1.409 . S
C1481 H1473 0.930 . S
C1481 C1479 1.419 . S
C1481 C1482 1.362 . S
C1482 H1474 0.930 . S
C1482 C1481 1.362 . S
C1482 C1485 1.409 . S
C1483 H1475 0.930 . S
C1483 C1484 1.355 . S
C1483 C1485 1.415 . S
C1484 C1483 1.355 . S
C1484 C1486 1.419 . S
C1485 C1480 1.425 . S
C1485 C1482 1.409 . S
C1485 C1483 1.415 . S
C1486 H1476 0.930 . S
C1486 C1484 1.419 . S
C1486 C1487 1.362 . S
C1487 H1477 0.930 . S
C1487 C1480 1.409 . S
C1487 C1486 1.362 . S
H1488 C1494 0.930 . S
H1489 C1497 0.930 . S
H1490 C1498 0.930 . S
H1491 C1499 0.930 . S
H1492 C1502 0.930 . S
H1493 C1503 0.930 . S
C1494 H1488 0.930 . S
C1494 C1495 1.355 . S
C1494 C1496 1.415 . S
C1495 C1494 1.355 . S
C1495 C1497 1.419 . S
C1496 C1494 1.415 . S
C1496 C1501 1.425 . S
C1496 C1503 1.409 . S
C1497 H1489 0.930 . S
C1497 C1495 1.419 . S
C1497 C1498 1.362 . S
C1498 H1490 0.930 . S
C1498 C1497 1.362 . S
C1498 C1501 1.409 . S
C1499 H1491 0.930 . S
C1499 C1500 1.355 . S
C1499 C1501 1.415 . S
C1500 C1499 1.355 . S
C1500 C1502 1.419 . S
C1501 C1496 1.425 . S
C1501 C1498 1.409 . S
C1501 C1499 1.415 . S
C1502 H1492 0.930 . S
C1502 C1500 1.419 . S
C1502 C1503 1.362 . S
C1503 H1493 0.930 . S
C1503 C1496 1.409 . S
C1503 C1502 1.362 . S
H1504 C1510 0.930 . S
H1505 C1513 0.930 . S
H1506 C1514 0.930 . S
H1507 C1515 0.930 . S
H1508 C1518 0.930 . S
H1509 C1519 0.930 . S
C1510 H1504 0.930 . S
C1510 C1511 1.355 . S
C1510 C1512 1.415 . S
C1511 C1510 1.355 . S
C1511 C1513 1.419 . S
C1512 C1510 1.415 . S
C1512 C1517 1.425 . S
C1512 C1519 1.409 . S
C1513 H1505 0.930 . S
C1513 C1511 1.419 . S
C1513 C1514 1.362 . S
C1514 H1506 0.930 . S
C1514 C1513 1.362 . S
C1514 C1517 1.409 . S
C1515 H1507 0.930 . S
C1515 C1516 1.355 . S
C1515 C1517 1.415 . S
C1516 C1515 1.355 . S
C1516 C1518 1.419 . S
C1517 C1512 1.425 . S
C1517 C1514 1.409 . S
C1517 C1515 1.415 . S
C1518 H1508 0.930 . S
C1518 C1516 1.419 . S
C1518 C1519 1.362 . S
C1519 H1509 0.930 . S
C1519 C1512 1.409 . S
C1519 C1518 1.362 . S
H1520 C1526 0.930 . S
H1521 C1529 0.930 . S
H1522 C1530 0.930 . S
H1523 C1531 0.930 . S
H1524 C1534 0.930 . S
H1525 C1535 0.930 . S
C1526 H1520 0.930 . S
C1526 C1527 1.355 . S
C1526 C1528 1.415 . S
C1527 C1526 1.355 . S
C1527 C1529 1.419 . S
C1528 C1526 1.415 . S
C1528 C1533 1.425 . S
C1528 C1535 1.409 . S
C1529 H1521 0.930 . S
C1529 C1527 1.419 . S
C1529 C1530 1.362 . S
C1530 H1522 0.930 . S
C1530 C1529 1.362 . S
C1530 C1533 1.409 . S
C1531 H1523 0.930 . S
C1531 C1532 1.355 . S
C1531 C1533 1.415 . S
C1532 C1531 1.355 . S
C1532 C1534 1.419 . S
C1533 C1528 1.425 . S
C1533 C1530 1.409 . S
C1533 C1531 1.415 . S
C1534 H1524 0.930 . S
C1534 C1532 1.419 . S
C1534 C1535 1.362 . S
C1535 H1525 0.930 . S
C1535 C1528 1.409 . S
C1535 C1534 1.362 . S
H1536 C1542 0.930 . S
H1537 C1545 0.930 . S
H1538 C1546 0.930 . S
H1539 C1547 0.930 . S
H1540 C1550 0.930 . S
H1541 C1551 0.930 . S
C1542 H1536 0.930 . S
C1542 C1543 1.355 . S
C1542 C1544 1.415 . S
C1543 C1542 1.355 . S
C1543 C1545 1.419 . S
C1544 C1542 1.415 . S
C1544 C1549 1.425 . S
C1544 C1551 1.409 . S
C1545 H1537 0.930 . S
C1545 C1543 1.419 . S
C1545 C1546 1.362 . S
C1546 H1538 0.930 . S
C1546 C1545 1.362 . S
C1546 C1549 1.409 . S
C1547 H1539 0.930 . S
C1547 C1548 1.355 . S
C1547 C1549 1.415 . S
C1548 C1547 1.355 . S
C1548 C1550 1.419 . S
C1549 C1544 1.425 . S
C1549 C1546 1.409 . S
C1549 C1547 1.415 . S
C1550 H1540 0.930 . S
C1550 C1548 1.419 . S
C1550 C1551 1.362 . S
C1551 H1541 0.930 . S
C1551 C1544 1.409 . S
C1551 C1550 1.362 . S
H1552 C1558 0.930 . S
H1553 C1561 0.930 . S
H1554 C1562 0.930 . S
H1555 C1563 0.930 . S
H1556 C1566 0.930 . S
H1557 C1567 0.930 . S
C1558 H1552 0.930 . S
C1558 C1559 1.355 . S
C1558 C1560 1.415 . S
C1559 C1558 1.355 . S
C1559 C1561 1.419 . S
C1560 C1558 1.415 . S
C1560 C1565 1.425 . S
C1560 C1567 1.409 . S
C1561 H1553 0.930 . S
C1561 C1559 1.419 . S
C1561 C1562 1.362 . S
C1562 H1554 0.930 . S
C1562 C1561 1.362 . S
C1562 C1565 1.409 . S
C1563 H1555 0.930 . S
C1563 C1564 1.355 . S
C1563 C1565 1.415 . S
C1564 C1563 1.355 . S
C1564 C1566 1.419 . S
C1565 C1560 1.425 . S
C1565 C1562 1.409 . S
C1565 C1563 1.415 . S
C1566 H1556 0.930 . S
C1566 C1564 1.419 . S
C1566 C1567 1.362 . S
C1567 H1557 0.930 . S
C1567 C1560 1.409 . S
C1567 C1566 1.362 . S
H1568 C1574 0.930 . S
H1569 C1577 0.930 . S
H1570 C1578 0.930 . S
H1571 C1579 0.930 . S
H1572 C1582 0.930 . S
H1573 C1583 0.930 . S
C1574 H1568 0.930 . S
C1574 C1575 1.355 . S
C1574 C1576 1.415 . S
C1575 C1574 1.355 . S
C1575 C1577 1.419 . S
C1576 C1574 1.415 . S
C1576 C1581 1.425 . S
C1576 C1583 1.409 . S
C1577 H1569 0.930 . S
C1577 C1575 1.419 . S
C1577 C1578 1.362 . S
C1578 H1570 0.930 . S
C1578 C1577 1.362 . S
C1578 C1581 1.409 . S
C1579 H1571 0.930 . S
C1579 C1580 1.355 . S
C1579 C1581 1.415 . S
C1580 C1579 1.355 . S
C1580 C1582 1.419 . S
C1581 C1576 1.425 . S
C1581 C1578 1.409 . S
C1581 C1579 1.415 . S
C1582 H1572 0.930 . S
C1582 C1580 1.419 . S
C1582 C1583 1.362 . S
C1583 H1573 0.930 . S
C1583 C1576 1.409 . S
C1583 C1582 1.362 . S
H1584 C1590 0.930 . S
H1585 C1593 0.930 . S
H1586 C1594 0.930 . S
H1587 C1595 0.930 . S
H1588 C1598 0.930 . S
H1589 C1599 0.930 . S
C1590 H1584 0.930 . S
C1590 C1591 1.355 . S
C1590 C1592 1.415 . S
C1591 C1590 1.355 . S
C1591 C1593 1.419 . S
C1592 C1590 1.415 . S
C1592 C1597 1.425 . S
C1592 C1599 1.409 . S
C1593 H1585 0.930 . S
C1593 C1591 1.419 . S
C1593 C1594 1.362 . S
C1594 H1586 0.930 . S
C1594 C1593 1.362 . S
C1594 C1597 1.409 . S
C1595 H1587 0.930 . S
C1595 C1596 1.355 . S
C1595 C1597 1.415 . S
C1596 C1595 1.355 . S
C1596 C1598 1.419 . S
C1597 C1592 1.425 . S
C1597 C1594 1.409 . S
C1597 C1595 1.415 . S
C1598 H1588 0.930 . S
C1598 C1596 1.419 . S
C1598 C1599 1.362 . S
C1599 H1589 0.930 . S
C1599 C1592 1.409 . S
C1599 C1598 1.362 . S
H1600 C1606 0.930 . S
H1601 C1609 0.930 . S
H1602 C1610 0.930 . S
H1603 C1611 0.930 . S
H1604 C1614 0.959 . S
H1605 C1615 0.930 . S
C1606 H1600 0.930 . S
C1606 C1607 1.355 . S
C1606 C1608 1.415 . S
C1607 C1606 1.355 . S
C1607 C1609 1.419 . S
C1608 C1606 1.415 . S
C1608 C1613 1.425 . S
C1608 C1615 1.409 . S
C1609 H1601 0.930 . S
C1609 C1607 1.419 . S
C1609 C1610 1.362 . S
C1610 H1602 0.930 . S
C1610 C1609 1.362 . S
C1610 C1613 1.409 . S
C1611 H1603 0.930 . S
C1611 C1612 1.355 . S
C1611 C1613 1.415 . S
C1612 C1611 1.355 . S
C1612 C1614 1.419 . S
C1613 C1608 1.425 . S
C1613 C1610 1.409 . S
C1613 C1611 1.415 . S
C1614 H1604 0.959 . S
C1614 C1612 1.419 . S
C1614 C1615 1.362 . S
C1615 H1605 0.930 . S
C1615 C1608 1.409 . S
C1615 C1614 1.362 . S
H1616 C1622 0.930 . S
H1617 C1625 0.930 . S
H1618 C1626 0.930 . S
H1619 C1627 0.930 . S
H1620 C1630 0.930 . S
H1621 C1631 0.930 . S
C1622 H1616 0.930 . S
C1622 C1623 1.355 . S
C1622 C1624 1.415 . S
C1623 C1622 1.355 . S
C1623 C1625 1.419 . S
C1624 C1622 1.415 . S
C1624 C1629 1.425 . S
C1624 C1631 1.409 . S
C1625 H1617 0.930 . S
C1625 C1623 1.419 . S
C1625 C1626 1.362 . S
C1626 H1618 0.930 . S
C1626 C1625 1.362 . S
C1626 C1629 1.409 . S
C1627 H1619 0.930 . S
C1627 C1628 1.355 . S
C1627 C1629 1.415 . S
C1628 C1627 1.355 . S
C1628 C1630 1.419 . S
C1629 C1624 1.425 . S
C1629 C1626 1.409 . S
C1629 C1627 1.415 . S
C1630 H1620 0.930 . S
C1630 C1628 1.419 . S
C1630 C1631 1.362 . S
C1631 H1621 0.930 . S
C1631 C1624 1.409 . S
C1631 C1630 1.362 . S
H1632 C1638 0.930 . S
H1633 C1641 0.930 . S
H1634 C1642 0.930 . S
H1635 C1643 0.930 . S
H1636 C1646 0.930 . S
H1637 C1647 0.930 . S
C1638 H1632 0.930 . S
C1638 C1639 1.355 . S
C1638 C1640 1.415 . S
C1639 C1638 1.355 . S
C1639 C1641 1.419 . S
C1640 C1638 1.415 . S
C1640 C1645 1.425 . S
C1640 C1647 1.409 . S
C1641 H1633 0.930 . S
C1641 C1639 1.419 . S
C1641 C1642 1.362 . S
C1642 H1634 0.930 . S
C1642 C1641 1.362 . S
C1642 C1645 1.409 . S
C1643 H1635 0.930 . S
C1643 C1644 1.355 . S
C1643 C1645 1.415 . S
C1644 C1643 1.355 . S
C1644 C1646 1.419 . S
C1645 C1640 1.425 . S
C1645 C1642 1.409 . S
C1645 C1643 1.415 . S
C1646 H1636 0.930 . S
C1646 C1644 1.419 . S
C1646 C1647 1.362 . S
C1647 H1637 0.930 . S
C1647 C1640 1.409 . S
C1647 C1646 1.362 . S
H1648 C1654 0.930 . S
H1649 C1657 0.930 . S
H1650 C1658 0.930 . S
H1651 C1659 0.930 . S
H1652 C1662 0.930 . S
H1653 C1663 0.930 . S
C1654 H1648 0.930 . S
C1654 C1655 1.355 . S
C1654 C1656 1.415 . S
C1655 C1654 1.355 . S
C1655 C1657 1.419 . S
C1656 C1654 1.415 . S
C1656 C1661 1.425 . S
C1656 C1663 1.409 . S
C1657 H1649 0.930 . S
C1657 C1655 1.419 . S
C1657 C1658 1.362 . S
C1658 H1650 0.930 . S
C1658 C1657 1.362 . S
C1658 C1661 1.409 . S
C1659 H1651 0.930 . S
C1659 C1660 1.355 . S
C1659 C1661 1.415 . S
C1660 C1659 1.355 . S
C1660 C1662 1.419 . S
C1661 C1656 1.425 . S
C1661 C1658 1.409 . S
C1661 C1659 1.415 . S
C1662 H1652 0.930 . S
C1662 C1660 1.419 . S
C1662 C1663 1.362 . S
C1663 H1653 0.930 . S
C1663 C1656 1.409 . S
C1663 C1662 1.362 . S
H1664 C1670 0.930 . S
H1665 C1673 0.930 . S
H1666 C1674 0.930 . S
H1667 C1675 0.930 . S
H1668 C1678 0.930 . S
H1669 C1679 0.930 . S
C1670 H1664 0.930 . S
C1670 C1671 1.355 . S
C1670 C1672 1.415 . S
C1671 C1670 1.355 . S
C1671 C1673 1.419 . S
C1672 C1670 1.415 . S
C1672 C1677 1.425 . S
C1672 C1679 1.409 . S
C1673 H1665 0.930 . S
C1673 C1671 1.419 . S
C1673 C1674 1.362 . S
C1674 H1666 0.930 . S
C1674 C1673 1.362 . S
C1674 C1677 1.409 . S
C1675 H1667 0.930 . S
C1675 C1676 1.355 . S
C1675 C1677 1.415 . S
C1676 C1675 1.355 . S
C1676 C1678 1.419 . S
C1677 C1672 1.425 . S
C1677 C1674 1.409 . S
C1677 C1675 1.415 . S
C1678 H1668 0.930 . S
C1678 C1676 1.419 . S
C1678 C1679 1.362 . S
C1679 H1669 0.930 . S
C1679 C1672 1.409 . S
C1679 C1678 1.362 . S
H1680 C1686 0.930 . S
H1681 C1689 0.930 . S
H1682 C1690 0.930 . S
H1683 C1691 0.930 . S
H1684 C1694 0.930 . S
H1685 C1695 0.930 . S
C1686 H1680 0.930 . S
C1686 C1687 1.355 . S
C1686 C1688 1.415 . S
C1687 C1686 1.355 . S
C1687 C1689 1.419 . S
C1688 C1686 1.415 . S
C1688 C1693 1.425 . S
C1688 C1695 1.409 . S
C1689 H1681 0.930 . S
C1689 C1687 1.419 . S
C1689 C1690 1.362 . S
C1690 H1682 0.930 . S
C1690 C1689 1.362 . S
C1690 C1693 1.409 . S
C1691 H1683 0.930 . S
C1691 C1692 1.355 . S
C1691 C1693 1.415 . S
C1692 C1691 1.355 . S
C1692 C1694 1.419 . S
C1693 C1688 1.425 . S
C1693 C1690 1.409 . S
C1693 C1691 1.415 . S
C1694 H1684 0.930 . S
C1694 C1692 1.419 . S
C1694 C1695 1.362 . S
C1695 H1685 0.930 . S
C1695 C1688 1.409 . S
C1695 C1694 1.362 . S
H1696 C1702 0.930 . S
H1697 C1705 0.930 . S
H1698 C1706 0.930 . S
H1699 C1707 0.930 . S
H1700 C1710 0.930 . S
H1701 C1711 0.930 . S
C1702 H1696 0.930 . S
C1702 C1703 1.355 . S
C1702 C1704 1.415 . S
C1703 C1702 1.355 . S
C1703 C1705 1.419 . S
C1704 C1702 1.415 . S
C1704 C1709 1.425 . S
C1704 C1711 1.409 . S
C1705 H1697 0.930 . S
C1705 C1703 1.419 . S
C1705 C1706 1.362 . S
C1706 H1698 0.930 . S
C1706 C1705 1.362 . S
C1706 C1709 1.409 . S
C1707 H1699 0.930 . S
C1707 C1708 1.355 . S
C1707 C1709 1.415 . S
C1708 C1707 1.355 . S
C1708 C1710 1.419 . S
C1709 C1704 1.425 . S
C1709 C1706 1.409 . S
C1709 C1707 1.415 . S
C1710 H1700 0.930 . S
C1710 C1708 1.419 . S
C1710 C1711 1.362 . S
C1711 H1701 0.930 . S
C1711 C1704 1.409 . S
C1711 C1710 1.362 . S
H1712 C1718 0.930 . S
H1713 C1721 0.930 . S
H1714 C1722 0.930 . S
H1715 C1723 0.930 . S
H1716 C1726 0.930 . S
H1717 C1727 0.930 . S
C1718 H1712 0.930 . S
C1718 C1719 1.355 . S
C1718 C1720 1.415 . S
C1719 C1718 1.355 . S
C1719 C1721 1.419 . S
C1720 C1718 1.415 . S
C1720 C1725 1.425 . S
C1720 C1727 1.409 . S
C1721 H1713 0.930 . S
C1721 C1719 1.419 . S
C1721 C1722 1.362 . S
C1722 H1714 0.930 . S
C1722 C1721 1.362 . S
C1722 C1725 1.409 . S
C1723 H1715 0.930 . S
C1723 C1724 1.355 . S
C1723 C1725 1.415 . S
C1724 C1723 1.355 . S
C1724 C1726 1.419 . S
C1725 C1720 1.425 . S
C1725 C1722 1.409 . S
C1725 C1723 1.415 . S
C1726 H1716 0.930 . S
C1726 C1724 1.419 . S
C1726 C1727 1.362 . S
C1727 H1717 0.930 . S
C1727 C1720 1.409 . S
C1727 C1726 1.362 . S
H1728 C1734 0.930 . S
H1729 C1737 0.930 . S
H1730 C1738 0.930 . S
H1731 C1739 0.930 . S
H1732 C1742 0.930 . S
H1733 C1743 0.930 . S
C1734 H1728 0.930 . S
C1734 C1735 1.355 . S
C1734 C1736 1.415 . S
C1735 C1734 1.355 . S
C1735 C1737 1.419 . S
C1736 C1734 1.415 . S
C1736 C1741 1.425 . S
C1736 C1743 1.409 . S
C1737 H1729 0.930 . S
C1737 C1735 1.419 . S
C1737 C1738 1.362 . S
C1738 H1730 0.930 . S
C1738 C1737 1.362 . S
C1738 C1741 1.409 . S
C1739 H1731 0.930 . S
C1739 C1740 1.355 . S
C1739 C1741 1.415 . S
C1740 C1739 1.355 . S
C1740 C1742 1.419 . S
C1741 C1736 1.425 . S
C1741 C1738 1.409 . S
C1741 C1739 1.415 . S
C1742 H1732 0.930 . S
C1742 C1740 1.419 . S
C1742 C1743 1.362 . S
C1743 H1733 0.930 . S
C1743 C1736 1.409 . S
C1743 C1742 1.362 . S
H1744 C1750 0.930 . S
H1745 C1753 0.930 . S
H1746 C1754 0.930 . S
H1747 C1755 0.930 . S
H1748 C1758 0.959 . S
H1749 C1759 0.930 . S
C1750 H1744 0.930 . S
C1750 C1751 1.355 . S
C1750 C1752 1.415 . S
C1751 C1750 1.355 . S
C1751 C1753 1.419 . S
C1752 C1750 1.415 . S
C1752 C1757 1.425 . S
C1752 C1759 1.409 . S
C1753 H1745 0.930 . S
C1753 C1751 1.419 . S
C1753 C1754 1.362 . S
C1754 H1746 0.930 . S
C1754 C1753 1.362 . S
C1754 C1757 1.409 . S
C1755 H1747 0.930 . S
C1755 C1756 1.355 . S
C1755 C1757 1.415 . S
C1756 C1755 1.355 . S
C1756 C1758 1.419 . S
C1757 C1752 1.425 . S
C1757 C1754 1.409 . S
C1757 C1755 1.415 . S
C1758 H1748 0.959 . S
C1758 C1756 1.419 . S
C1758 C1759 1.362 . S
C1759 H1749 0.930 . S
C1759 C1752 1.409 . S
C1759 C1758 1.362 . S
H1760 C1766 0.930 . S
H1761 C1769 0.930 . S
H1762 C1770 0.930 . S
H1763 C1771 0.930 . S
H1764 C1774 0.930 . S
H1765 C1775 0.930 . S
C1766 H1760 0.930 . S
C1766 C1767 1.355 . S
C1766 C1768 1.415 . S
C1767 C1766 1.355 . S
C1767 C1769 1.419 . S
C1768 C1766 1.415 . S
C1768 C1773 1.425 . S
C1768 C1775 1.409 . S
C1769 H1761 0.930 . S
C1769 C1767 1.419 . S
C1769 C1770 1.362 . S
C1770 H1762 0.930 . S
C1770 C1769 1.362 . S
C1770 C1773 1.409 . S
C1771 H1763 0.930 . S
C1771 C1772 1.355 . S
C1771 C1773 1.415 . S
C1772 C1771 1.355 . S
C1772 C1774 1.419 . S
C1773 C1768 1.425 . S
C1773 C1770 1.409 . S
C1773 C1771 1.415 . S
C1774 H1764 0.930 . S
C1774 C1772 1.419 . S
C1774 C1775 1.362 . S
C1775 H1765 0.930 . S
C1775 C1768 1.409 . S
C1775 C1774 1.362 . S
H1776 C1782 0.930 . S
H1777 C1785 0.930 . S
H1778 C1786 0.930 . S
H1779 C1787 0.930 . S
H1780 C1790 0.930 . S
H1781 C1791 0.930 . S
C1782 H1776 0.930 . S
C1782 C1783 1.355 . S
C1782 C1784 1.415 . S
C1783 C1782 1.355 . S
C1783 C1785 1.419 . S
C1784 C1782 1.415 . S
C1784 C1789 1.425 . S
C1784 C1791 1.409 . S
C1785 H1777 0.930 . S
C1785 C1783 1.419 . S
C1785 C1786 1.362 . S
C1786 H1778 0.930 . S
C1786 C1785 1.362 . S
C1786 C1789 1.409 . S
C1787 H1779 0.930 . S
C1787 C1788 1.355 . S
C1787 C1789 1.415 . S
C1788 C1787 1.355 . S
C1788 C1790 1.419 . S
C1789 C1784 1.425 . S
C1789 C1786 1.409 . S
C1789 C1787 1.415 . S
C1790 H1780 0.930 . S
C1790 C1788 1.419 . S
C1790 C1791 1.362 . S
C1791 H1781 0.930 . S
C1791 C1784 1.409 . S
C1791 C1790 1.362 . S
H1792 C1798 0.930 . S
H1793 C1801 0.930 . S
H1794 C1802 0.930 . S
H1795 C1803 0.930 . S
H1796 C1806 0.930 . S
H1797 C1807 0.930 . S
C1798 H1792 0.930 . S
C1798 C1799 1.355 . S
C1798 C1800 1.415 . S
C1799 C1798 1.355 . S
C1799 C1801 1.419 . S
C1800 C1798 1.415 . S
C1800 C1805 1.425 . S
C1800 C1807 1.409 . S
C1801 H1793 0.930 . S
C1801 C1799 1.419 . S
C1801 C1802 1.362 . S
C1802 H1794 0.930 . S
C1802 C1801 1.362 . S
C1802 C1805 1.409 . S
C1803 H1795 0.930 . S
C1803 C1804 1.355 . S
C1803 C1805 1.415 . S
C1804 C1803 1.355 . S
C1804 C1806 1.419 . S
C1805 C1800 1.425 . S
C1805 C1802 1.409 . S
C1805 C1803 1.415 . S
C1806 H1796 0.930 . S
C1806 C1804 1.419 . S
C1806 C1807 1.362 . S
C1807 H1797 0.930 . S
C1807 C1800 1.409 . S
C1807 C1806 1.362 . S
H1808 C1814 0.930 . S
H1809 C1817 0.971 . S
H1810 C1818 0.930 . S
H1811 C1819 0.930 . S
H1812 C1822 0.930 . S
H1813 C1823 0.930 . S
C1814 H1808 0.930 . S
C1814 C1815 1.355 . S
C1814 C1816 1.415 . S
C1815 C1814 1.355 . S
C1815 C1817 1.419 . S
C1816 C1814 1.415 . S
C1816 C1821 1.425 . S
C1816 C1823 1.409 . S
C1817 H1809 0.971 . S
C1817 C1815 1.419 . S
C1817 C1818 1.362 . S
C1818 H1810 0.930 . S
C1818 C1817 1.362 . S
C1818 C1821 1.409 . S
C1819 H1811 0.930 . S
C1819 C1820 1.355 . S
C1819 C1821 1.415 . S
C1820 C1819 1.355 . S
C1820 C1822 1.419 . S
C1821 C1816 1.425 . S
C1821 C1818 1.409 . S
C1821 C1819 1.415 . S
C1822 H1812 0.930 . S
C1822 C1820 1.419 . S
C1822 C1823 1.362 . S
C1823 H1813 0.930 . S
C1823 C1816 1.409 . S
C1823 C1822 1.362 . S
H1824 C1830 0.930 . S
H1825 C1833 0.930 . S
H1826 C1834 0.930 . S
H1827 C1835 0.930 . S
H1828 C1838 0.930 . S
H1829 C1839 0.930 . S
C1830 H1824 0.930 . S
C1830 C1831 1.355 . S
C1830 C1832 1.415 . S
C1831 C1830 1.355 . S
C1831 C1833 1.419 . S
C1832 C1830 1.415 . S
C1832 C1837 1.425 . S
C1832 C1839 1.409 . S
C1833 H1825 0.930 . S
C1833 C1831 1.419 . S
C1833 C1834 1.362 . S
C1834 H1826 0.930 . S
C1834 C1833 1.362 . S
C1834 C1837 1.409 . S
C1835 H1827 0.930 . S
C1835 C1836 1.355 . S
C1835 C1837 1.415 . S
C1836 C1835 1.355 . S
C1836 C1838 1.419 . S
C1837 C1832 1.425 . S
C1837 C1834 1.409 . S
C1837 C1835 1.415 . S
C1838 H1828 0.930 . S
C1838 C1836 1.419 . S
C1838 C1839 1.362 . S
C1839 H1829 0.930 . S
C1839 C1832 1.409 . S
C1839 C1838 1.362 . S
H1840 C1846 0.930 . S
H1841 C1849 0.930 . S
H1842 C1850 0.930 . S
H1843 C1851 0.930 . S
H1844 C1854 0.930 . S
H1845 C1855 0.930 . S
C1846 H1840 0.930 . S
C1846 C1847 1.355 . S
C1846 C1848 1.415 . S
C1847 C1846 1.355 . S
C1847 C1849 1.419 . S
C1848 C1846 1.415 . S
C1848 C1853 1.425 . S
C1848 C1855 1.409 . S
C1849 H1841 0.930 . S
C1849 C1847 1.419 . S
C1849 C1850 1.362 . S
C1850 H1842 0.930 . S
C1850 C1849 1.362 . S
C1850 C1853 1.409 . S
C1851 H1843 0.930 . S
C1851 C1852 1.355 . S
C1851 C1853 1.415 . S
C1852 C1851 1.355 . S
C1852 C1854 1.419 . S
C1853 C1848 1.425 . S
C1853 C1850 1.409 . S
C1853 C1851 1.415 . S
C1854 H1844 0.930 . S
C1854 C1852 1.419 . S
C1854 C1855 1.362 . S
C1855 H1845 0.930 . S
C1855 C1848 1.409 . S
C1855 C1854 1.362 . S
H1856 C1862 0.930 . S
H1857 C1865 0.930 . S
H1858 C1866 0.930 . S
H1859 C1867 0.930 . S
H1860 C1870 0.930 . S
H1861 C1871 0.930 . S
C1862 H1856 0.930 . S
C1862 C1863 1.355 . S
C1862 C1864 1.415 . S
C1863 C1862 1.355 . S
C1863 C1865 1.419 . S
C1864 C1862 1.415 . S
C1864 C1869 1.425 . S
C1864 C1871 1.409 . S
C1865 H1857 0.930 . S
C1865 C1863 1.419 . S
C1865 C1866 1.362 . S
C1866 H1858 0.930 . S
C1866 C1865 1.362 . S
C1866 C1869 1.409 . S
C1867 H1859 0.930 . S
C1867 C1868 1.355 . S
C1867 C1869 1.415 . S
C1868 C1867 1.355 . S
C1868 C1870 1.419 . S
C1869 C1864 1.425 . S
C1869 C1866 1.409 . S
C1869 C1867 1.415 . S
C1870 H1860 0.930 . S
C1870 C1868 1.419 . S
C1870 C1871 1.362 . S
C1871 H1861 0.930 . S
C1871 C1864 1.409 . S
C1871 C1870 1.362 . S
H1872 C1878 0.930 . S
H1873 C1881 0.930 . S
H1874 C1882 0.930 . S
H1875 C1883 0.930 . S
H1876 C1886 0.930 . S
H1877 C1887 0.930 . S
C1878 H1872 0.930 . S
C1878 C1879 1.355 . S
C1878 C1880 1.415 . S
C1879 C1878 1.355 . S
C1879 C1881 1.419 . S
C1880 C1878 1.415 . S
C1880 C1885 1.425 . S
C1880 C1887 1.409 . S
C1881 H1873 0.930 . S
C1881 C1879 1.419 . S
C1881 C1882 1.362 . S
C1882 H1874 0.930 . S
C1882 C1881 1.362 . S
C1882 C1885 1.409 . S
C1883 H1875 0.930 . S
C1883 C1884 1.355 . S
C1883 C1885 1.415 . S
C1884 C1883 1.355 . S
C1884 C1886 1.419 . S
C1885 C1880 1.425 . S
C1885 C1882 1.409 . S
C1885 C1883 1.415 . S
C1886 H1876 0.930 . S
C1886 C1884 1.419 . S
C1886 C1887 1.362 . S
C1887 H1877 0.930 . S
C1887 C1880 1.409 . S
C1887 C1886 1.362 . S
H1888 C1894 0.930 . S
H1889 C1897 0.930 . S
H1890 C1898 0.930 . S
H1891 C1899 0.930 . S
H1892 C1902 0.930 . S
H1893 C1903 0.930 . S
C1894 H1888 0.930 . S
C1894 C1895 1.355 . S
C1894 C1896 1.415 . S
C1895 C1894 1.355 . S
C1895 C1897 1.419 . S
C1896 C1894 1.415 . S
C1896 C1901 1.425 . S
C1896 C1903 1.409 . S
C1897 H1889 0.930 . S
C1897 C1895 1.419 . S
C1897 C1898 1.362 . S
C1898 H1890 0.930 . S
C1898 C1897 1.362 . S
C1898 C1901 1.409 . S
C1899 H1891 0.930 . S
C1899 C1900 1.355 . S
C1899 C1901 1.415 . S
C1900 C1899 1.355 . S
C1900 C1902 1.419 . S
C1901 C1896 1.425 . S
C1901 C1898 1.409 . S
C1901 C1899 1.415 . S
C1902 H1892 0.930 . S
C1902 C1900 1.419 . S
C1902 C1903 1.362 . S
C1903 H1893 0.930 . S
C1903 C1896 1.409 . S
C1903 C1902 1.362 . S
H1904 C1910 0.930 . S
H1905 C1913 0.930 . S
H1906 C1914 0.930 . S
H1907 C1915 0.930 . S
H1908 C1918 0.930 . S
H1909 C1919 0.930 . S
C1910 H1904 0.930 . S
C1910 C1911 1.355 . S
C1910 C1912 1.415 . S
C1911 C1910 1.355 . S
C1911 C1913 1.419 . S
C1912 C1910 1.415 . S
C1912 C1917 1.425 . S
C1912 C1919 1.409 . S
C1913 H1905 0.930 . S
C1913 C1911 1.419 . S
C1913 C1914 1.362 . S
C1914 H1906 0.930 . S
C1914 C1913 1.362 . S
C1914 C1917 1.409 . S
C1915 H1907 0.930 . S
C1915 C1916 1.355 . S
C1915 C1917 1.415 . S
C1916 C1915 1.355 . S
C1916 C1918 1.419 . S
C1917 C1912 1.425 . S
C1917 C1914 1.409 . S
C1917 C1915 1.415 . S
C1918 H1908 0.930 . S
C1918 C1916 1.419 . S
C1918 C1919 1.362 . S
C1919 H1909 0.930 . S
C1919 C1912 1.409 . S
C1919 C1918 1.362 . S
H1920 C1926 0.930 . S
H1921 C1929 0.930 . S
H1922 C1930 0.930 . S
H1923 C1931 0.930 . S
H1924 C1934 0.930 . S
H1925 C1935 0.930 . S
C1926 H1920 0.930 . S
C1926 C1927 1.355 . S
C1926 C1928 1.415 . S
C1927 C1926 1.355 . S
C1927 C1929 1.419 . S
C1928 C1926 1.415 . S
C1928 C1933 1.425 . S
C1928 C1935 1.409 . S
C1929 H1921 0.930 . S
C1929 C1927 1.419 . S
C1929 C1930 1.362 . S
C1930 H1922 0.930 . S
C1930 C1929 1.362 . S
C1930 C1933 1.409 . S
C1931 H1923 0.930 . S
C1931 C1932 1.355 . S
C1931 C1933 1.415 . S
C1932 C1931 1.355 . S
C1932 C1934 1.419 . S
C1933 C1928 1.425 . S
C1933 C1930 1.409 . S
C1933 C1931 1.415 . S
C1934 H1924 0.930 . S
C1934 C1932 1.419 . S
C1934 C1935 1.362 . S
C1935 H1925 0.930 . S
C1935 C1928 1.409 . S
C1935 C1934 1.362 . S
H1936 C1942 0.930 . S
H1937 C1945 0.930 . S
H1938 C1946 0.930 . S
H1939 C1947 0.930 . S
H1940 C1950 0.930 . S
H1941 C1951 0.930 . S
C1942 H1936 0.930 . S
C1942 C1943 1.355 . S
C1942 C1944 1.415 . S
C1943 C1942 1.355 . S
C1943 C1945 1.419 . S
C1944 C1942 1.415 . S
C1944 C1949 1.425 . S
C1944 C1951 1.409 . S
C1945 H1937 0.930 . S
C1945 C1943 1.419 . S
C1945 C1946 1.362 . S
C1946 H1938 0.930 . S
C1946 C1945 1.362 . S
C1946 C1949 1.409 . S
C1947 H1939 0.930 . S
C1947 C1948 1.355 . S
C1947 C1949 1.415 . S
C1948 C1947 1.355 . S
C1948 C1950 1.419 . S
C1949 C1944 1.425 . S
C1949 C1946 1.409 . S
C1949 C1947 1.415 . S
C1950 H1940 0.930 . S
C1950 C1948 1.419 . S
C1950 C1951 1.362 . S
C1951 H1941 0.930 . S
C1951 C1944 1.409 . S
C1951 C1950 1.362 . S
H1952 C1958 0.930 . S
H1953 C1961 0.930 . S
H1954 C1962 0.930 . S
H1955 C1963 0.930 . S
H1956 C1966 0.930 . S
H1957 C1967 0.930 . S
C1958 H1952 0.930 . S
C1958 C1959 1.355 . S
C1958 C1960 1.415 . S
C1959 C1958 1.355 . S
C1959 C1961 1.419 . S
C1960 C1958 1.415 . S
C1960 C1965 1.425 . S
C1960 C1967 1.409 . S
C1961 H1953 0.930 . S
C1961 C1959 1.419 . S
C1961 C1962 1.362 . S
C1962 H1954 0.930 . S
C1962 C1961 1.362 . S
C1962 C1965 1.409 . S
C1963 H1955 0.930 . S
C1963 C1964 1.355 . S
C1963 C1965 1.415 . S
C1964 C1963 1.355 . S
C1964 C1966 1.419 . S
C1965 C1960 1.425 . S
C1965 C1962 1.409 . S
C1965 C1963 1.415 . S
C1966 H1956 0.930 . S
C1966 C1964 1.419 . S
C1966 C1967 1.362 . S
C1967 H1957 0.930 . S
C1967 C1960 1.409 . S
C1967 C1966 1.362 . S
H1968 C1974 0.930 . S
H1969 C1977 0.930 . S
H1970 C1978 0.930 . S
H1971 C1979 0.930 . S
H1972 C1982 0.930 . S
H1973 C1983 0.930 . S
C1974 H1968 0.930 . S
C1974 C1975 1.355 . S
C1974 C1976 1.415 . S
C1975 C1974 1.355 . S
C1975 C1977 1.419 . S
C1976 C1974 1.415 . S
C1976 C1981 1.425 . S
C1976 C1983 1.409 . S
C1977 H1969 0.930 . S
C1977 C1975 1.419 . S
C1977 C1978 1.362 . S
C1978 H1970 0.930 . S
C1978 C1977 1.362 . S
C1978 C1981 1.409 . S
C1979 H1971 0.930 . S
C1979 C1980 1.355 . S
C1979 C1981 1.415 . S
C1980 C1979 1.355 . S
C1980 C1982 1.419 . S
C1981 C1976 1.425 . S
C1981 C1978 1.409 . S
C1981 C1979 1.415 . S
C1982 H1972 0.930 . S
C1982 C1980 1.419 . S
C1982 C1983 1.362 . S
C1983 H1973 0.930 . S
C1983 C1976 1.409 . S
C1983 C1982 1.362 . S
H1984 C1990 0.930 . S
H1985 C1993 0.930 . S
H1986 C1994 0.930 . S
H1987 C1995 0.930 . S
H1988 C1998 0.930 . S
H1989 C1999 0.930 . S
C1990 H1984 0.930 . S
C1990 C1991 1.355 . S
C1990 C1992 1.415 . S
C1991 C1990 1.355 . S
C1991 C1993 1.419 . S
C1992 C1990 1.415 . S
C1992 C1997 1.425 . S
C1992 C1999 1.409 . S
C1993 H1985 0.930 . S
C1993 C1991 1.419 . S
C1993 C1994 1.362 . S
C1994 H1986 0.930 . S
C1994 C1993 1.362 . S
C1994 C1997 1.409 . S
C1995 H1987 0.930 . S
C1995 C1996 1.355 . S
C1995 C1997 1.415 . S
C1996 C1995 1.355 . S
C1996 C1998 1.419 . S
C1997 C1992 1.425 . S
C1997 C1994 1.409 . S
C1997 C1995 1.415 . S
C1998 H1988 0.930 . S
C1998 C1996 1.419 . S
C1998 C1999 1.362 . S
C1999 H1989 0.930 . S
C1999 C1992 1.409 . S
C1999 C1998 1.362 . S
H2000 C2006 0.930 . S
H2001 C2009 0.930 . S
H2002 C2010 0.930 . S
H2003 C2011 0.930 . S
H2004 C2014 0.930 . S
H2005 C2015 0.930 . S
C2006 H2000 0.930 . S
C2006 C2007 1.355 . S
C2006 C2008 1.415 . S
C2007 C2006 1.355 . S
C2007 C2009 1.419 . S
C2008 C2006 1.415 . S
C2008 C2013 1.425 . S
C2008 C2015 1.409 . S
C2009 H2001 0.930 . S
C2009 C2007 1.419 . S
C2009 C2010 1.362 . S
C2010 H2002 0.930 . S
C2010 C2009 1.362 . S
C2010 C2013 1.409 . S
C2011 H2003 0.930 . S
C2011 C2012 1.355 . S
C2011 C2013 1.415 . S
C2012 C2011 1.355 . S
C2012 C2014 1.419 . S
C2013 C2008 1.425 . S
C2013 C2010 1.409 . S
C2013 C2011 1.415 . S
C2014 H2004 0.930 . S
C2014 C2012 1.419 . S
C2014 C2015 1.362 . S
C2015 H2005 0.930 . S
C2015 C2008 1.409 . S
C2015 C2014 1.362 . S
H2016 C2022 0.930 . S
H2017 C2025 0.930 . S
H2018 C2026 0.930 . S
H2019 C2027 0.930 . S
H2020 C2030 0.930 . S
H2021 C2031 0.930 . S
C2022 H2016 0.930 . S
C2022 C2023 1.355 . S
C2022 C2024 1.415 . S
C2023 C2022 1.355 . S
C2023 C2025 1.419 . S
C2024 C2022 1.415 . S
C2024 C2029 1.425 . S
C2024 C2031 1.409 . S
C2025 H2017 0.930 . S
C2025 C2023 1.419 . S
C2025 C2026 1.362 . S
C2026 H2018 0.930 . S
C2026 C2025 1.362 . S
C2026 C2029 1.409 . S
C2027 H2019 0.930 . S
C2027 C2028 1.355 . S
C2027 C2029 1.415 . S
C2028 C2027 1.355 . S
C2028 C2030 1.419 . S
C2029 C2024 1.425 . S
C2029 C2026 1.409 . S
C2029 C2027 1.415 . S
C2030 H2020 0.930 . S
C2030 C2028 1.419 . S
C2030 C2031 1.362 . S
C2031 H2021 0.930 . S
C2031 C2024 1.409 . S
C2031 C2030 1.362 . S
H2032 C2038 0.930 . S
H2033 C2041 0.930 . S
H2034 C2042 0.930 . S
H2035 C2043 0.930 . S
H2036 C2046 0.930 . S
H2037 C2047 0.930 . S
C2038 H2032 0.930 . S
C2038 C2039 1.355 . S
C2038 C2040 1.415 . S
C2039 C2038 1.355 . S
C2039 C2041 1.419 . S
C2040 C2038 1.415 . S
C2040 C2045 1.425 . S
C2040 C2047 1.409 . S
C2041 H2033 0.930 . S
C2041 C2039 1.419 . S
C2041 C2042 1.362 . S
C2042 H2034 0.930 . S
C2042 C2041 1.362 . S
C2042 C2045 1.409 . S
C2043 H2035 0.930 . S
C2043 C2044 1.355 . S
C2043 C2045 1.415 . S
C2044 C2043 1.355 . S
C2044 C2046 1.419 . S
C2045 C2040 1.425 . S
C2045 C2042 1.409 . S
C2045 C2043 1.415 . S
C2046 H2036 0.930 . S
C2046 C2044 1.419 . S
C2046 C2047 1.362 . S
C2047 H2037 0.930 . S
C2047 C2040 1.409 . S
C2047 C2046 1.362 . S
H2048 C2054 0.930 . S
H2049 C2057 0.930 . S
H2050 C2058 0.930 . S
H2051 C2059 0.930 . S
H2052 C2062 0.930 . S
H2053 C2063 0.930 . S
C2054 H2048 0.930 . S
C2054 C2055 1.355 . S
C2054 C2056 1.415 . S
C2055 C2054 1.355 . S
C2055 C2057 1.419 . S
C2056 C2054 1.415 . S
C2056 C2061 1.425 . S
C2056 C2063 1.409 . S
C2057 H2049 0.930 . S
C2057 C2055 1.419 . S
C2057 C2058 1.362 . S
C2058 H2050 0.930 . S
C2058 C2057 1.362 . S
C2058 C2061 1.409 . S
C2059 H2051 0.930 . S
C2059 C2060 1.355 . S
C2059 C2061 1.415 . S
C2060 C2059 1.355 . S
C2060 C2062 1.419 . S
C2061 C2056 1.425 . S
C2061 C2058 1.409 . S
C2061 C2059 1.415 . S
C2062 H2052 0.930 . S
C2062 C2060 1.419 . S
C2062 C2063 1.362 . S
C2063 H2053 0.930 . S
C2063 C2056 1.409 . S
C2063 C2062 1.362 . S
H2064 C2070 0.930 . S
H2065 C2073 0.930 . S
H2066 C2074 0.930 . S
H2067 C2075 0.930 . S
H2068 C2078 0.930 . S
H2069 C2079 0.930 . S
C2070 H2064 0.930 . S
C2070 C2071 1.355 . S
C2070 C2072 1.415 . S
C2071 C2070 1.355 . S
C2071 C2073 1.419 . S
C2072 C2070 1.415 . S
C2072 C2077 1.425 . S
C2072 C2079 1.409 . S
C2073 H2065 0.930 . S
C2073 C2071 1.419 . S
C2073 C2074 1.362 . S
C2074 H2066 0.930 . S
C2074 C2073 1.362 . S
C2074 C2077 1.409 . S
C2075 H2067 0.930 . S
C2075 C2076 1.355 . S
C2075 C2077 1.415 . S
C2076 C2075 1.355 . S
C2076 C2078 1.419 . S
C2077 C2072 1.425 . S
C2077 C2074 1.409 . S
C2077 C2075 1.415 . S
C2078 H2068 0.930 . S
C2078 C2076 1.419 . S
C2078 C2079 1.362 . S
C2079 H2069 0.930 . S
C2079 C2072 1.409 . S
C2079 C2078 1.362 . S
H2080 C2086 0.930 . S
H2081 C2089 0.930 . S
H2082 C2090 0.930 . S
H2083 C2091 0.930 . S
H2084 C2094 0.930 . S
H2085 C2095 0.930 . S
C2086 H2080 0.930 . S
C2086 C2087 1.355 . S
C2086 C2088 1.415 . S
C2087 C2086 1.355 . S
C2087 C2089 1.419 . S
C2088 C2086 1.415 . S
C2088 C2093 1.425 . S
C2088 C2095 1.409 . S
C2089 H2081 0.930 . S
C2089 C2087 1.419 . S
C2089 C2090 1.362 . S
C2090 H2082 0.930 . S
C2090 C2089 1.362 . S
C2090 C2093 1.409 . S
C2091 H2083 0.930 . S
C2091 C2092 1.355 . S
C2091 C2093 1.415 . S
C2092 C2091 1.355 . S
C2092 C2094 1.419 . S
C2093 C2088 1.425 . S
C2093 C2090 1.409 . S
C2093 C2091 1.415 . S
C2094 H2084 0.930 . S
C2094 C2092 1.419 . S
C2094 C2095 1.362 . S
C2095 H2085 0.930 . S
C2095 C2088 1.409 . S
C2095 C2094 1.362 . S
H2096 C2102 0.930 . S
H2097 C2105 0.930 . S
H2098 C2106 0.930 . S
H2099 C2107 0.930 . S
H2100 C2110 0.930 . S
H2101 C2111 0.930 . S
C2102 H2096 0.930 . S
C2102 C2103 1.355 . S
C2102 C2104 1.415 . S
C2103 C2102 1.355 . S
C2103 C2105 1.419 . S
C2104 C2102 1.415 . S
C2104 C2109 1.425 . S
C2104 C2111 1.409 . S
C2105 H2097 0.930 . S
C2105 C2103 1.419 . S
C2105 C2106 1.362 . S
C2106 H2098 0.930 . S
C2106 C2105 1.362 . S
C2106 C2109 1.409 . S
C2107 H2099 0.930 . S
C2107 C2108 1.355 . S
C2107 C2109 1.415 . S
C2108 C2107 1.355 . S
C2108 C2110 1.419 . S
C2109 C2104 1.425 . S
C2109 C2106 1.409 . S
C2109 C2107 1.415 . S
C2110 H2100 0.930 . S
C2110 C2108 1.419 . S
C2110 C2111 1.362 . S
C2111 H2101 0.930 . S
C2111 C2104 1.409 . S
C2111 C2110 1.362 . S
H2112 C2118 0.930 . S
H2113 C2121 0.930 . S
H2114 C2122 0.930 . S
H2115 C2123 0.930 . S
H2116 C2126 0.930 . S
H2117 C2127 0.930 . S
C2118 H2112 0.930 . S
C2118 C2119 1.355 . S
C2118 C2120 1.415 . S
C2119 C2118 1.355 . S
C2119 C2121 1.419 . S
C2120 C2118 1.415 . S
C2120 C2125 1.425 . S
C2120 C2127 1.409 . S
C2121 H2113 0.930 . S
C2121 C2119 1.419 . S
C2121 C2122 1.362 . S
C2122 H2114 0.930 . S
C2122 C2121 1.362 . S
C2122 C2125 1.409 . S
C2123 H2115 0.930 . S
C2123 C2124 1.355 . S
C2123 C2125 1.415 . S
C2124 C2123 1.355 . S
C2124 C2126 1.419 . S
C2125 C2120 1.425 . S
C2125 C2122 1.409 . S
C2125 C2123 1.415 . S
C2126 H2116 0.930 . S
C2126 C2124 1.419 . S
C2126 C2127 1.362 . S
C2127 H2117 0.930 . S
C2127 C2120 1.409 . S
C2127 C2126 1.362 . S
H2128 C2134 0.930 . S
H2129 C2137 0.930 . S
H2130 C2138 0.930 . S
H2131 C2139 0.930 . S
H2132 C2142 0.930 . S
H2133 C2143 0.930 . S
C2134 H2128 0.930 . S
C2134 C2135 1.355 . S
C2134 C2136 1.415 . S
C2135 C2134 1.355 . S
C2135 C2137 1.419 . S
C2136 C2134 1.415 . S
C2136 C2141 1.425 . S
C2136 C2143 1.409 . S
C2137 H2129 0.930 . S
C2137 C2135 1.419 . S
C2137 C2138 1.362 . S
C2138 H2130 0.930 . S
C2138 C2137 1.362 . S
C2138 C2141 1.409 . S
C2139 H2131 0.930 . S
C2139 C2140 1.355 . S
C2139 C2141 1.415 . S
C2140 C2139 1.355 . S
C2140 C2142 1.419 . S
C2141 C2136 1.425 . S
C2141 C2138 1.409 . S
C2141 C2139 1.415 . S
C2142 H2132 0.930 . S
C2142 C2140 1.419 . S
C2142 C2143 1.362 . S
C2143 H2133 0.930 . S
C2143 C2136 1.409 . S
C2143 C2142 1.362 . S
H2144 C2150 0.930 . S
H2145 C2153 0.930 . S
H2146 C2154 0.930 . S
H2147 C2155 0.930 . S
H2148 C2158 0.930 . S
H2149 C2159 0.930 . S
C2150 H2144 0.930 . S
C2150 C2151 1.355 . S
C2150 C2152 1.415 . S
C2151 C2150 1.355 . S
C2151 C2153 1.419 . S
C2152 C2150 1.415 . S
C2152 C2157 1.425 . S
C2152 C2159 1.409 . S
C2153 H2145 0.930 . S
C2153 C2151 1.419 . S
C2153 C2154 1.362 . S
C2154 H2146 0.930 . S
C2154 C2153 1.362 . S
C2154 C2157 1.409 . S
C2155 H2147 0.930 . S
C2155 C2156 1.355 . S
C2155 C2157 1.415 . S
C2156 C2155 1.355 . S
C2156 C2158 1.419 . S
C2157 C2152 1.425 . S
C2157 C2154 1.409 . S
C2157 C2155 1.415 . S
C2158 H2148 0.930 . S
C2158 C2156 1.419 . S
C2158 C2159 1.362 . S
C2159 H2149 0.930 . S
C2159 C2152 1.409 . S
C2159 C2158 1.362 . S
H2160 C2166 0.930 . S
H2161 C2169 0.930 . S
H2162 C2170 0.930 . S
H2163 C2171 0.930 . S
H2164 C2174 0.930 . S
H2165 C2175 0.930 . S
C2166 H2160 0.930 . S
C2166 C2167 1.355 . S
C2166 C2168 1.415 . S
C2167 C2166 1.355 . S
C2167 C2169 1.419 . S
C2168 C2166 1.415 . S
C2168 C2173 1.425 . S
C2168 C2175 1.409 . S
C2169 H2161 0.930 . S
C2169 C2167 1.419 . S
C2169 C2170 1.362 . S
C2170 H2162 0.930 . S
C2170 C2169 1.362 . S
C2170 C2173 1.409 . S
C2171 H2163 0.930 . S
C2171 C2172 1.355 . S
C2171 C2173 1.415 . S
C2172 C2171 1.355 . S
C2172 C2174 1.419 . S
C2173 C2168 1.425 . S
C2173 C2170 1.409 . S
C2173 C2171 1.415 . S
C2174 H2164 0.930 . S
C2174 C2172 1.419 . S
C2174 C2175 1.362 . S
C2175 H2165 0.930 . S
C2175 C2168 1.409 . S
C2175 C2174 1.362 . S
H2176 C2182 0.930 . S
H2177 C2185 0.930 . S
H2178 C2186 0.930 . S
H2179 C2187 0.930 . S
H2180 C2190 0.930 . S
H2181 C2191 0.930 . S
C2182 H2176 0.930 . S
C2182 C2183 1.355 . S
C2182 C2184 1.415 . S
C2183 C2182 1.355 . S
C2183 C2185 1.419 . S
C2184 C2182 1.415 . S
C2184 C2189 1.425 . S
C2184 C2191 1.409 . S
C2185 H2177 0.930 . S
C2185 C2183 1.419 . S
C2185 C2186 1.362 . S
C2186 H2178 0.930 . S
C2186 C2185 1.362 . S
C2186 C2189 1.409 . S
C2187 H2179 0.930 . S
C2187 C2188 1.355 . S
C2187 C2189 1.415 . S
C2188 C2187 1.355 . S
C2188 C2190 1.419 . S
C2189 C2184 1.425 . S
C2189 C2186 1.409 . S
C2189 C2187 1.415 . S
C2190 H2180 0.930 . S
C2190 C2188 1.419 . S
C2190 C2191 1.362 . S
C2191 H2181 0.930 . S
C2191 C2184 1.409 . S
C2191 C2190 1.362 . S
H2192 C2198 0.930 . S
H2193 C2201 0.930 . S
H2194 C2202 0.930 . S
H2195 C2203 0.930 . S
H2196 C2206 0.930 . S
H2197 C2207 0.930 . S
C2198 H2192 0.930 . S
C2198 C2199 1.355 . S
C2198 C2200 1.415 . S
C2199 C2198 1.355 . S
C2199 C2201 1.419 . S
C2200 C2198 1.415 . S
C2200 C2205 1.425 . S
C2200 C2207 1.409 . S
C2201 H2193 0.930 . S
C2201 C2199 1.419 . S
C2201 C2202 1.362 . S
C2202 H2194 0.930 . S
C2202 C2201 1.362 . S
C2202 C2205 1.409 . S
C2203 H2195 0.930 . S
C2203 C2204 1.355 . S
C2203 C2205 1.415 . S
C2204 C2203 1.355 . S
C2204 C2206 1.419 . S
C2205 C2200 1.425 . S
C2205 C2202 1.409 . S
C2205 C2203 1.415 . S
C2206 H2196 0.930 . S
C2206 C2204 1.419 . S
C2206 C2207 1.362 . S
C2207 H2197 0.930 . S
C2207 C2200 1.409 . S
C2207 C2206 1.362 . S
C679 C445 1.316 . S
C684 C11 1.339 . S
C695 C25 1.303 . S
C700 C403 1.349 . S
C711 C39 1.318 . S
C716 C417 1.327 . S
C727 C431 1.330 . S
C732 C53 1.326 . S
C743 C361 1.344 . S
C748 C67 1.303 . S
C759 C81 1.348 . S
C764 C375 1.304 . S
C775 C389 1.301 . S
C780 C95 1.349 . S
C791 C109 1.346 . S
C796 C347 1.308 . S
C807 C123 1.301 . S
C812 C627 1.349 . S
C823 C585 1.344 . S
C828 C137 1.310 . S
C839 C599 1.344 . S
C844 C151 1.311 . S
C855 C165 1.311 . S
C860 C613 1.343 . S
C871 C179 1.322 . S
C876 C669 1.323 . S
C887 C193 1.340 . S
C892 C641 1.315 . S
C903 C207 1.339 . S
C908 C655 1.308 . S
C919 C571 1.311 . S
C924 C221 1.335 . S
C935 C557 1.320 . S
C940 C235 1.336 . S
C951 C249 1.316 . S
C956 C473 1.330 . S
C967 C487 1.302 . S
C972 C263 1.346 . S
C983 C277 1.302 . S
C988 C501 1.349 . S
C999 C459 1.344 . S
C1004 C291 1.304 . S
C1015 C529 1.328 . S
C1020 C305 1.328 . S
C1031 C319 1.323 . S
C1036 C543 1.333 . S
C1047 C515 1.303 . S
C1052 C333 1.345 . S
C1063 C139 1.169 . S
C1068 C13 1.163 . S
C1079 C153 1.137 . S
C1084 C27 1.226 . S
C1095 C41 1.135 . S
C1100 C167 1.215 . S
C1111 C125 1.147 . S
C1116 C55 1.231 . S
C1127 C69 1.222 . S
C1132 C223 1.176 . S
C1143 C181 1.142 . S
C1148 C83 1.230 . S
C1159 C195 1.135 . S
C1164 C97 1.216 . S
C1175 C209 1.230 . S
C1180 C111 1.142 . S
C1191 C265 1.155 . S
C1196 C237 1.178 . S
C1207 C321 1.211 . S
C1212 C251 1.136 . S
C1223 C335 1.140 . S
C1228 C279 1.229 . S
C1239 C293 1.163 . S
C1244 C307 1.169 . S
C1255 C475 1.153 . S
C1260 C349 1.180 . S
C1271 C489 1.230 . S
C1276 C363 1.159 . S
C1287 C503 1.201 . S
C1292 C377 1.203 . S
C1303 C391 1.136 . S
C1308 C461 1.211 . S
C1319 C405 1.212 . S
C1324 C559 1.136 . S
C1335 C419 1.225 . S
C1340 C517 1.137 . S
C1351 C531 1.229 . S
C1356 C433 1.140 . S
C1367 C545 1.226 . S
C1372 C447 1.137 . S
C1383 C573 1.203 . S
C1388 C601 1.139 . S
C1399 C657 1.135 . S
C1404 C587 1.215 . S
C1415 C671 1.137 . S
C1420 C615 1.208 . S
C1431 C643 1.141 . S
C1436 C629 1.229 . S
C1447 C7 1.364 . S
C1452 C260 1.251 . S
C1463 C21 1.351 . S
C1468 C274 1.193 . S
C1479 C35 1.358 . S
C1484 C288 1.221 . S
C1495 C246 1.208 . S
C1500 C49 1.355 . S
C1511 C63 1.348 . S
C1516 C316 1.188 . S
C1527 C77 1.354 . S
C1532 C232 1.203 . S
C1543 C330 1.265 . S
C1548 C91 1.366 . S
C1559 C302 1.247 . S
C1564 C105 1.354 . S
C1575 C119 1.358 . S
C1580 C134 1.219 . S
C1591 C133 1.363 . S
C1596 C148 1.243 . S
C1607 C147 1.366 . S
C1612 C162 1.261 . S
C1623 C120 1.188 . S
C1628 C161 1.348 . S
C1639 C218 1.297 . S
C1644 C175 1.370 . S
C1655 C176 1.276 . S
C1660 C189 1.359 . S
C1671 C190 1.252 . S
C1676 C203 1.355 . S
C1687 C217 1.369 . S
C1692 C204 1.308 . S
C1703 C50 1.308 . S
C1708 C231 1.370 . S
C1719 C78 1.243 . S
C1724 C245 1.363 . S
C1735 C92 1.272 . S
C1740 C259 1.367 . S
C1751 C273 1.366 . S
C1756 C106 1.261 . S
C1767 C64 1.246 . S
C1772 C287 1.354 . S
C1783 C22 1.200 . S
C1788 C301 1.348 . S
C1799 C36 1.206 . S
C1804 C315 1.348 . S
C1815 C8 1.210 . S
C1820 C329 1.356 . S
C1831 C596 1.236 . S
C1836 C343 1.352 . S
C1847 C357 1.347 . S
C1852 C610 1.194 . S
C1863 C624 1.304 . S
C1868 C371 1.370 . S
C1879 C582 1.242 . S
C1884 C385 1.362 . S
C1895 C399 1.350 . S
C1900 C652 1.219 . S
C1911 C413 1.359 . S
C1916 C568 1.273 . S
C1927 C666 1.220 . S
C1932 C427 1.350 . S
C1943 C441 1.355 . S
C1948 C638 1.207 . S
C1959 C455 1.348 . S
C1964 C470 1.208 . S
C1975 C469 1.347 . S
C1980 C484 1.191 . S
C1991 C483 1.354 . S
C1996 C498 1.204 . S
C2007 C497 1.370 . S
C2012 C456 1.293 . S
C2023 C554 1.258 . S
C2028 C511 1.356 . S
C2039 C512 1.235 . S
C2044 C525 1.352 . S
C2055 C526 1.198 . S
C2060 C539 1.353 . S
C2071 C553 1.368 . S
C2076 C540 1.306 . S
C2087 C386 1.193 . S
C2092 C567 1.347 . S
C2103 C414 1.229 . S
C2108 C581 1.360 . S
C2119 C428 1.308 . S
C2124 C595 1.369 . S
C2135 C609 1.369 . S
C2140 C442 1.308 . S
C2151 C400 1.205 . S
C2156 C623 1.355 . S
C2167 C358 1.235 . S
C2172 C637 1.361 . S
C2183 C651 1.364 . S
C2188 C372 1.250 . S
C2199 C344 1.221 . S
C2204 C665 1.350 . S
