# Generated by pormake.
# Topology rob, (6)-cn, num edge types: 1
# Building blocks:
#     Node 0, Type 0, BuildingBlock: PAMTUU_clean_sbu_0, # of connection points: 6
#     Node 1, Type 0, BuildingBlock: PAMTUU_clean_sbu_0, # of connection points: 6
#     Node 2, Type 0, BuildingBlock: PAMTUU_clean_sbu_0, # of connection points: 6
#     Node 3, Type 0, BuildingBlock: PAMTUU_clean_sbu_0, # of connection points: 6
#     Edge 4, Type (0, 0), BuildingBlock: UVAHIK_clean_linker_0, # of connection points: 2
#     Edge 5, Type (0, 0), BuildingBlock: UVAHIK_clean_linker_0, # of connection points: 2
#     Edge 6, Type (0, 0), BuildingBlock: UVAHIK_clean_linker_0, # of connection points: 2
#     Edge 7, Type (0, 0), BuildingBlock: UVAHIK_clean_linker_0, # of connection points: 2
#     Edge 8, Type (0, 0), BuildingBlock: UVAHIK_clean_linker_0, # of connection points: 2
#     Edge 9, Type (0, 0), BuildingBlock: UVAHIK_clean_linker_0, # of connection points: 2
#     Edge 10, Type (0, 0), BuildingBlock: UVAHIK_clean_linker_0, # of connection points: 2
#     Edge 11, Type (0, 0), BuildingBlock: UVAHIK_clean_linker_0, # of connection points: 2
#     Edge 12, Type (0, 0), BuildingBlock: UVAHIK_clean_linker_0, # of connection points: 2
#     Edge 13, Type (0, 0), BuildingBlock: UVAHIK_clean_linker_0, # of connection points: 2
#     Edge 14, Type (0, 0), BuildingBlock: UVAHIK_clean_linker_0, # of connection points: 2
#     Edge 15, Type (0, 0), BuildingBlock: UVAHIK_clean_linker_0, # of connection points: 2
# Relax obj value: 0.105
# Max RMSD: 0.191
# Mean RMSD: 0.191
data_MOF--net-rob--node1-PAMTUU_clean_sbu_0--edge1-UVAHIK_clean_linker_0
_symmetry_space_group_name_H-M    P1
_symmetry_Int_Tables_number       1
_symmetry_cell_setting            triclinic
loop_
_symmetry_equiv_pos_as_xyz
'x, y, z'
_cell_length_a     21.549883
_cell_length_b     32.600359
_cell_length_c     44.504451
_cell_angle_alpha  90.20582
_cell_angle_beta   59.728331
_cell_angle_gamma 89.990144
loop_
_atom_site_label
_atom_site_type_symbol
_atom_site_fract_x
_atom_site_fract_y
_atom_site_fract_z
_atom_type_partial_charge
Tb0 Tb 0.20138 0.27677 0.98001 0.0
Tb1 Tb 0.3069 0.21841 -0.00288 0.0
C2 C 0.33834 0.31126 0.97806 0.0
C3 C 0.10608 0.31355 0.93572 0.0
C4 C 0.07741 0.30597 0.8805 0.0
C5 C 0.07805 0.34474 0.89445 0.0
C6 C 0.09212 0.34844 0.92179 0.0
C7 C 0.1058 0.27478 0.92193 0.0
C8 C 0.09131 0.271 0.89471 0.0
C9 C 0.12447 0.31819 0.9633 0.0
O10 O 0.29019 0.25602 0.93082 0.0
O11 O 0.32835 0.19777 0.94629 0.0
O12 O 0.20504 0.18741 0.01495 0.0
O13 O 0.17538 0.21361 0.97629 0.0
O14 O 0.40832 0.2019 0.98951 0.0
O15 O 0.31266 0.17024 0.02681 0.0
O16 O 0.25221 0.26095 0.04015 0.0
O17 O 0.15126 0.27304 0.03634 0.0
O18 O 0.27061 0.31808 0.98797 0.0
O19 O 0.36533 0.27408 0.9727 0.0
C20 C 0.32348 0.22048 0.92322 0.0
O21 O 0.09908 0.29046 0.98771 0.0
O22 O 0.19171 0.32626 0.9525 0.0
C23 C 0.17082 0.1847 -0.00237 0.0
C24 C 0.40243 0.17849 0.04132 0.0
C25 C 0.43275 0.18249 0.09603 0.0
C26 C 0.42632 0.14441 0.0829 0.0
C27 C 0.41146 0.14247 0.05578 0.0
C28 C 0.40945 0.21668 0.05404 0.0
C29 C 0.42502 0.21865 0.08102 0.0
C30 C 0.38103 0.17535 0.01476 0.0
C31 C 0.18485 0.27245 0.05415 0.0
H32 H 0.06904 0.37244 0.88382 0.0
H33 H 0.09305 0.37866 0.93176 0.0
H34 H 0.11713 0.24741 0.93208 0.0
H35 H 0.09052 0.24062 0.88502 0.0
H36 H 0.43274 0.11604 0.09366 0.0
H37 H 0.40583 0.11274 0.04645 0.0
H38 H 0.40171 0.2449 0.04354 0.0
H39 H 0.42903 0.24842 0.0908 0.0
Tb40 Tb 0.70871 0.7627 0.99301 0.0
Tb41 Tb 0.82514 0.70923 0.00606 0.0
C42 C 0.8293 0.80568 0.00021 0.0
C43 C 0.60766 0.79861 0.95049 0.0
C44 C 0.57896 0.79637 0.89507 0.0
C45 C 0.57705 0.83368 0.91152 0.0
C46 C 0.59111 0.83474 0.93898 0.0
C47 C 0.60977 0.76123 0.93415 0.0
C48 C 0.59513 0.7601 0.90684 0.0
C49 C 0.62466 0.80078 0.97873 0.0
O50 O 0.80809 0.75503 0.94359 0.0
O51 O 0.85268 0.69556 0.95323 0.0
O52 O 0.73724 0.66843 0.01536 0.0
O53 O 0.69988 0.69966 0.9811 0.0
O54 O 0.93072 0.69619 -0.00562 0.0
O55 O 0.84018 0.66358 0.03485 0.0
O56 O 0.75907 0.74365 0.05288 0.0
O57 O 0.65737 0.75279 0.04909 0.0
O58 O 0.76142 0.8067 0.00891 0.0
O59 O 0.86688 0.7714 0.99106 0.0
C60 C 0.84897 0.72212 0.93215 0.0
O61 O 0.60539 0.76958 -0.00013 0.0
O62 O 0.68922 0.81326 0.96967 0.0
C63 C 0.70301 0.66763 -0.00209 0.0
C64 C 0.93545 0.67694 0.04447 0.0
C65 C 0.97453 0.68574 0.096 0.0
C66 C 0.9862 0.64847 0.07777 0.0
C67 C 0.96687 0.64418 0.05228 0.0
C68 C 0.92457 0.71443 0.06208 0.0
C69 C 0.94416 0.71884 0.08753 0.0
C70 C 0.90888 0.67047 0.02016 0.0
C71 C 0.6905 0.7521 0.06716 0.0
H72 H 0.56406 0.86209 0.90336 0.0
H73 H 0.58941 0.86389 0.95115 0.0
H74 H 0.62325 0.73296 0.94231 0.0
H75 H 0.59783 0.73094 0.89449 0.0
H76 H 0.00819 0.62208 0.08392 0.0
H77 H 0.97479 0.61486 0.03926 0.0
H78 H 0.89976 0.74001 0.05658 0.0
H79 H 0.93513 0.74812 0.10067 0.0
Tb80 Tb 0.30847 0.7676 0.51023 0.0
Tb81 Tb 0.20571 0.70901 0.49168 0.0
C82 C 0.1765 0.80335 0.50848 0.0
C83 C 0.40138 0.80537 0.55638 0.0
C84 C 0.43182 0.80103 0.61123 0.0
C85 C 0.43086 0.83901 0.59645 0.0
C86 C 0.41595 0.84109 0.56931 0.0
C87 C 0.40163 0.76738 0.57111 0.0
C88 C 0.41696 0.76521 0.59816 0.0
C89 C 0.3841 0.80852 0.5283 0.0
O90 O 0.21057 0.75283 0.55798 0.0
O91 O 0.1798 0.69123 0.54369 0.0
O92 O 0.30702 0.67811 0.47547 0.0
O93 O 0.32978 0.70433 0.51645 0.0
O94 O 0.10547 0.69147 0.49838 0.0
O95 O 0.20286 0.66086 0.46095 0.0
O96 O 0.26121 0.75075 0.44881 0.0
O97 O 0.36052 0.76459 0.45363 0.0
O98 O 0.24379 0.80942 0.49978 0.0
O99 O 0.14866 0.7664 0.51319 0.0
C100 C 0.17623 0.71769 0.56682 0.0
O101 O 0.40961 0.77981 0.50454 0.0
O102 O 0.31745 0.81714 0.5382 0.0
C103 C 0.33792 0.67542 0.49429 0.0
C104 C 0.11569 0.67033 0.44495 0.0
C105 C 0.09243 0.67773 0.38814 0.0
C106 C 0.09936 0.63889 0.39982 0.0
C107 C 0.11073 0.63526 0.42798 0.0
C108 C 0.10816 0.70924 0.43363 0.0
C109 C 0.09607 0.71288 0.40563 0.0
C110 C 0.13467 0.66578 0.4723 0.0
C111 C 0.32772 0.7633 0.43541 0.0
H112 H 0.44056 0.86733 0.60618 0.0
H113 H 0.41525 0.87075 0.55856 0.0
H114 H 0.38999 0.73939 0.56171 0.0
H115 H 0.41792 0.73539 0.60854 0.0
H116 H 0.09613 0.61124 0.3871 0.0
H117 H 0.11702 0.60501 0.43612 0.0
H118 H 0.11302 0.73678 0.44598 0.0
H119 H 0.09167 0.74322 0.39701 0.0
Tb120 Tb 0.80784 0.25574 0.49741 0.0
Tb121 Tb 0.69101 0.20441 0.4833 0.0
C122 C 0.68653 0.29897 0.49029 0.0
C123 C 0.91297 0.29114 0.53844 0.0
C124 C 0.94369 0.28856 0.59306 0.0
C125 C 0.95006 0.3254 0.57538 0.0
C126 C 0.93495 0.32662 0.54833 0.0
C127 C 0.90741 0.25407 0.55561 0.0
C128 C 0.92316 0.25273 0.58257 0.0
C129 C 0.89132 0.29434 0.51198 0.0
O130 O 0.73959 0.22197 0.54448 0.0
O131 O 0.63922 0.21508 0.53916 0.0
O132 O 0.74275 0.15919 0.49882 0.0
O133 O 0.84833 0.19368 0.48179 0.0
O134 O 0.58752 0.19926 0.49015 0.0
O135 O 0.66979 0.15451 0.45984 0.0
O136 O 0.78893 0.21207 0.43379 0.0
O137 O 0.83813 0.26942 0.44401 0.0
O138 O 0.71787 0.29579 0.50891 0.0
O139 O 0.68465 0.2681 0.47189 0.0
C140 C 0.67073 0.21464 0.55794 0.0
O141 O 0.91234 0.26528 0.48864 0.0
O142 O 0.82432 0.30402 0.52391 0.0
C143 C 0.81031 0.15975 0.49076 0.0
C144 C 0.59025 0.17181 0.44028 0.0
C145 C 0.56402 0.17711 0.38422 0.0
C146 C 0.5509 0.14043 0.40313 0.0
C147 C 0.56376 0.13788 0.4309 0.0
C148 C 0.604 0.20842 0.42144 0.0
C149 C 0.59071 0.21111 0.3938 0.0
C150 C 0.60586 0.16812 0.4688 0.0
C151 C 0.83082 0.24441 0.42279 0.0
H152 H 0.96654 0.35339 0.58256 0.0
H153 H 0.93917 0.35554 0.5355 0.0
H154 H 0.88963 0.22641 0.54864 0.0
H155 H 0.91721 0.22398 0.59588 0.0
H156 H 0.53178 0.11336 0.39616 0.0
H157 H 0.55367 0.10922 0.44486 0.0
H158 H 0.62514 0.23491 0.42807 0.0
H159 H 0.60075 0.23998 0.38017 0.0
C160 C 0.61836 0.63062 0.98486 0.0
C161 C 0.66937 0.62932 -0.00437 0.0
C162 C 0.58841 0.59458 0.981 0.0
C163 C 0.55935 0.48547 0.00618 0.0
H164 H 0.51732 0.47856 0.93116 0.0
C165 C 0.44724 0.33951 0.97682 0.0
C166 C 0.38445 0.3461 0.97526 0.0
C167 C 0.48829 0.37266 0.97669 0.0
C168 C 0.52879 0.48017 0.9522 0.0
H169 H 0.72905 0.58935 0.0109 0.0
H170 H 0.67778 0.52601 0.00337 0.0
H171 H 0.5785 0.53886 0.93615 0.0
H172 H 0.31656 0.39229 0.97125 0.0
H173 H 0.38917 0.45026 0.97047 0.0
H174 H 0.50997 0.42641 0.02191 0.0
C175 C 0.65996 0.55501 -0.00146 0.0
C176 C 0.56343 0.51471 0.95522 0.0
C177 C 0.68943 0.59125 0.0028 0.0
C178 C 0.36459 0.38634 0.97257 0.0
C179 C 0.40625 0.41944 0.97194 0.0
C180 C 0.52547 0.45068 0.00288 0.0
C181 C 0.60942 0.55631 0.98738 0.0
C182 C 0.57783 0.51813 0.98266 0.0
C183 C 0.46784 0.41287 0.97447 0.0
C184 C 0.50885 0.44811 0.97622 0.0
H185 H 0.60125 0.65956 0.97948 0.0
H186 H 0.54829 0.59682 0.97325 0.0
H187 H 0.56888 0.48729 0.02783 0.0
H188 H 0.4637 0.30882 0.97909 0.0
H189 H 0.53583 0.3669 0.97849 0.0
C190 C 0.38809 0.60687 0.46808 0.0
C191 C 0.38046 0.63857 0.49119 0.0
C192 C 0.42518 0.57108 0.46634 0.0
C193 C 0.55592 0.5274 0.4875 0.0
H194 H 0.46618 0.4243 0.4874 0.0
C195 C 0.65175 0.3715 0.51026 0.0
C196 C 0.6536 0.33833 0.48956 0.0
C197 C 0.62081 0.40876 0.5094 0.0
C198 C 0.4924 0.45282 0.48696 0.0
H199 H 0.40726 0.65805 0.52999 0.0
H200 H 0.47166 0.59527 0.52705 0.0
H201 H 0.40916 0.48867 0.48717 0.0
H202 H 0.62526 0.31836 0.4514 0.0
H203 H 0.57203 0.3835 0.4497 0.0
H204 H 0.63913 0.49143 0.48739 0.0
C205 C 0.44935 0.59832 0.51014 0.0
C206 C 0.45976 0.48967 0.48683 0.0
C207 C 0.41214 0.63415 0.51193 0.0
C208 C 0.62426 0.34324 0.46787 0.0
C209 C 0.59349 0.38049 0.46697 0.0
C210 C 0.5887 0.49048 0.48756 0.0
C211 C 0.45544 0.56625 0.48762 0.0
C212 C 0.49113 0.52731 0.48714 0.0
C213 C 0.59124 0.41359 0.4878 0.0
C214 C 0.55717 0.45283 0.48735 0.0
H215 H 0.36472 0.6094 0.4516 0.0
H216 H 0.43 0.54709 0.44837 0.0
H217 H 0.58165 0.55599 0.48736 0.0
H218 H 0.67381 0.36869 0.52728 0.0
H219 H 0.61904 0.43357 0.52607 0.0
C220 C 0.10411 0.13993 0.97788 0.0
C221 C 0.12937 0.14732 0.00097 0.0
C222 C 0.06902 0.10334 0.97953 0.0
C223 C 0.04957 -0.00299 0.01092 0.0
H224 H 0.88974 -0.00456 -0.0059 0.0
C225 C 0.82066 0.87903 0.01794 0.0
C226 C 0.86332 0.84426 0.00178 0.0
C227 C 0.85207 0.91581 0.01929 0.0
C228 C 0.93385 -0.00464 -0.0008 0.0
H229 H 0.13567 0.12278 0.04463 0.0
H230 H 0.07298 0.0593 0.04799 0.0
H231 H 0.94309 0.06064 -0.00455 0.0
H232 H 0.97235 0.82063 0.97464 0.0
H233 H 0.02755 0.88532 0.97628 0.0
H234 H 0.03907 0.93176 0.01555 0.0
C235 C 0.08177 0.08137 0.0281 0.0
C236 C 0.96499 0.03271 -0.00045 0.0
C237 C 0.11728 0.11785 0.0263 0.0
C238 C 0.93808 0.8469 0.9873 0.0
C239 C 0.96962 0.88388 0.98842 0.0
C240 C 0.01814 0.95964 0.01077 0.0
C241 C 0.05802 0.0735 0.00446 0.0
C242 C 0.02342 0.03394 0.00523 0.0
C243 C 0.92691 0.91879 0.00428 0.0
C244 C 0.96009 0.95841 0.00479 0.0
H245 H 0.11294 0.16195 0.95793 0.0
H246 H 0.05222 0.098 0.96066 0.0
H247 H 0.09511 -0.00314 0.01496 0.0
H248 H 0.76277 0.87791 0.02977 0.0
H249 H 0.81752 0.94187 0.03232 0.0
C250 C 0.91203 0.12264 0.49036 0.0
C251 C 0.84333 0.12171 0.49407 0.0
C252 C 0.94191 0.08717 0.49523 0.0
C253 C 0.93338 0.97528 0.49376 0.0
H254 H 0.03381 0.98198 0.5455 0.0
C255 C 0.0609 0.83352 0.51841 0.0
C256 C 0.13139 0.83903 0.5118 0.0
C257 C 0.01945 0.86724 0.52002 0.0
C258 C 1.0062 0.97972 0.53086 0.0
H259 H 0.75235 0.08276 0.50545 0.0
H260 H 0.80495 0.02071 0.51387 0.0
H261 H 0.97332 0.04259 0.54045 0.0
H262 H 0.21311 0.88427 0.50246 0.0
H263 H 0.14106 0.94293 0.5049 0.0
H264 H 0.96748 0.91264 0.48356 0.0
C265 C 0.83557 0.04892 0.50708 0.0
C266 C 0.97169 0.01435 0.52796 0.0
C267 C 0.80548 0.08446 0.50234 0.0
C268 C 0.15903 0.87894 0.50756 0.0
C269 C 0.11757 0.91261 0.50922 0.0
C270 C 0.96802 0.94063 0.49661 0.0
C271 C 0.90384 0.05005 0.50381 0.0
C272 C 0.93597 0.01261 0.50891 0.0
C273 C 0.04764 0.90707 0.51515 0.0
C274 C 1.00572 0.94272 0.51473 0.0
H275 H 0.94259 0.15083 0.48407 0.0
H276 H 0.99514 0.08875 0.49202 0.0
H277 H 0.90674 0.97321 0.47867 0.0
H278 H 0.03791 0.80316 0.5219 0.0
H279 H 0.96541 0.86215 0.52499 0.0
C280 C 0.5961 0.20225 0.32449 0.0
C281 C 0.55024 0.17968 0.35458 0.0
C282 C 0.58365 0.204 0.29653 0.0
C283 C 0.49664 0.14734 0.25627 0.0
H284 H 0.50629 0.25027 0.21074 0.0
C285 C 0.40673 0.15866 0.15475 0.0
C286 C 0.44574 0.18417 0.12581 0.0
C287 C 0.41958 0.15932 0.18254 0.0
C288 C 0.50437 0.22115 0.22279 0.0
H289 H 0.45398 0.1422 0.37891 0.0
H290 H 0.43343 0.14457 0.32991 0.0
H291 H 0.52943 0.24911 0.2591 0.0
H292 H 0.52874 0.23052 0.10337 0.0
H293 H 0.55253 0.23112 0.15156 0.0
H294 H 0.47299 0.11908 0.21981 0.0
C295 C 0.47938 0.16061 0.32791 0.0
C296 C 0.51744 0.22054 0.25059 0.0
C297 C 0.49139 0.15916 0.35597 0.0
C298 C 0.49745 0.21073 0.12545 0.0
C299 C 0.51087 0.21112 0.15316 0.0
C300 C 0.48425 0.14785 0.22832 0.0
C301 C 0.52547 0.18292 0.29782 0.0
C302 C 0.51318 0.18366 0.2678 0.0
C303 C 0.47236 0.18523 0.18202 0.0
C304 C 0.48733 0.1848 0.21134 0.0
H305 H 0.6426 0.21793 0.32217 0.0
H306 H 0.62054 0.2211 0.27355 0.0
H307 H 0.49415 0.11832 0.26861 0.0
H308 H 0.3656 0.13839 0.15608 0.0
H309 H 0.38756 0.13967 0.20461 0.0
C310 C 0.57662 0.76473 0.12406 0.0
C311 C 0.65196 0.76301 0.10444 0.0
C312 C 0.5419 0.77258 0.15989 0.0
C313 C 0.57396 0.76158 0.23283 0.0
H314 H 0.4054 0.83053 0.28324 0.0
C315 C 0.44072 0.78161 0.38037 0.0
C316 C 0.36619 0.77513 0.39843 0.0
C317 C 0.47733 0.78812 0.34446 0.0
C318 C 0.45246 0.81117 0.26944 0.0
H319 H 0.75002 0.77065 0.10655 0.0
H320 H 0.68975 0.78454 0.16833 0.0
H321 H 0.46443 0.82552 0.2198 0.0
H322 H 0.27089 0.77309 0.39344 0.0
H323 H 0.33475 0.78374 0.33112 0.0
H324 H 0.56141 0.74628 0.28216 0.0
C325 C 0.65735 0.7789 0.15643 0.0
C326 C 0.48595 0.80821 0.23324 0.0
C327 C 0.69181 0.77096 0.12094 0.0
C328 C 0.32852 0.77757 0.38028 0.0
C329 C 0.365 0.7841 0.34453 0.0
C330 C 0.54056 0.76448 0.26888 0.0
C331 C 0.58217 0.77891 0.17643 0.0
C332 C 0.54679 0.78318 0.21465 0.0
C333 C 0.43996 0.78838 0.3261 0.0
C334 C 0.47914 0.78901 0.28762 0.0
H335 H 0.54461 0.75889 0.112 0.0
H336 H 0.48374 0.77227 0.1748 0.0
H337 H 0.62006 0.74147 0.21924 0.0
H338 H 0.47111 0.7802 0.39368 0.0
H339 H 0.53513 0.7919 0.33091 0.0
C340 C 0.59462 0.82537 0.83936 0.0
C341 C 0.5647 0.79549 0.86559 0.0
C342 C 0.5807 0.82499 0.81186 0.0
C343 C 0.51342 0.75821 0.76617 0.0
H344 H 0.49077 0.86202 0.73049 0.0
C345 C 0.41205 0.77099 0.6677 0.0
C346 C 0.44797 0.79899 0.64018 0.0
C347 C 0.4265 0.76968 0.69506 0.0
C348 C 0.49759 0.83276 0.73993 0.0
H349 H 0.49623 0.74185 0.88349 0.0
H350 H 0.47081 0.74153 0.83589 0.0
H351 H 0.51466 0.86144 0.77844 0.0
H352 H 0.52895 0.8468 0.61976 0.0
H353 H 0.55303 0.84492 0.66765 0.0
H354 H 0.49512 0.72966 0.72782 0.0
C355 C 0.50634 0.76484 0.83612 0.0
C356 C 0.51152 0.83239 0.76743 0.0
C357 C 0.52076 0.76505 0.86351 0.0
C358 C 0.49905 0.82541 0.64075 0.0
C359 C 0.51307 0.82429 0.66821 0.0
C360 C 0.49892 0.7586 0.73881 0.0
C361 C 0.53596 0.79489 0.80993 0.0
C362 C 0.52005 0.79512 0.78085 0.0
C363 C 0.47685 0.79651 0.69577 0.0
C364 C 0.4912 0.7959 0.72523 0.0
H365 H 0.62968 0.84884 0.83985 0.0
H366 H 0.60581 0.84812 0.79188 0.0
H367 H 0.52068 0.7289 0.77537 0.0
H368 H 0.37159 0.75058 0.66853 0.0
H369 H 0.39706 0.74822 0.71607 0.0
C370 C 0.55292 0.20345 0.61261 0.0
C371 C 0.62832 0.2045 0.59526 0.0
C372 C 0.51334 0.19568 0.6483 0.0
C373 C 0.52523 0.15498 0.72255 0.0
H374 H 0.38031 0.2371 0.77558 0.0
C375 C 0.42036 0.18923 0.86796 0.0
C376 C 0.35061 0.20497 0.88782 0.0
C377 C 0.44825 0.18056 0.83261 0.0
C378 C 0.41927 0.21322 0.76134 0.0
H379 H 0.72146 0.19645 0.60139 0.0
H380 H 0.6523 0.18309 0.66353 0.0
H381 H 0.43901 0.23705 0.71266 0.0
H382 H 0.25267 0.22041 0.88801 0.0
H383 H 0.29963 0.20347 0.82707 0.0
H384 H 0.50603 0.13146 0.77138 0.0
C385 C 0.62385 0.1881 0.64956 0.0
C386 C 0.45304 0.21332 0.72519 0.0
C387 C 0.66337 0.19621 0.61402 0.0
C388 C 0.30726 0.20901 0.87283 0.0
C389 C 0.33434 0.19952 0.83792 0.0
C390 C 0.49083 0.15459 0.75887 0.0
C391 C 0.54851 0.18842 0.66713 0.0
C392 C 0.50721 0.18472 0.70543 0.0
C393 C 0.40609 0.18684 0.81699 0.0
C394 C 0.43826 0.18417 0.77866 0.0
H395 H 0.5244 0.20953 0.59884 0.0
H396 H 0.4552 0.19588 0.66128 0.0
H397 H 0.56657 0.13238 0.70782 0.0
H398 H 0.45447 0.18592 0.87921 0.0
H399 H 0.50387 0.17106 0.81723 0.0
C400 C 0.05208 0.66947 0.12195 0.0
C401 C 0.99154 0.68932 0.12455 0.0
C402 C 0.06537 0.67044 0.14964 0.0
C403 C 0.02372 0.7264 0.22997 0.0
H404 H 0.07164 0.62316 0.25639 0.0
C405 C 0.03156 0.70805 0.35766 0.0
C406 C 0.08317 0.68137 0.35731 0.0
C407 C 0.02186 0.71047 0.32887 0.0
C408 C 0.05947 0.65244 0.24912 0.0
H409 H 0.89813 0.72638 0.1585 0.0
H410 H 0.92221 0.72865 0.20648 0.0
H411 H 0.05386 0.62551 0.20661 0.0
H412 H 0.16694 0.63753 0.32596 0.0
H413 H 0.15138 0.64235 0.27557 0.0
H414 H 0.03012 0.75349 0.27222 0.0
C415 C 0.95948 0.71243 0.18288 0.0
C416 C 0.04908 0.65372 0.22056 0.0
C417 C 0.94583 0.71121 0.15527 0.0
C418 C 0.12582 0.65782 0.32728 0.0
C419 C 0.11667 0.66053 0.2984 0.0
C420 C 0.03475 0.72522 0.2584 0.0
C421 C 0.01883 0.69157 0.18056 0.0
C422 C 0.03099 0.69067 0.21066 0.0
C423 C 0.06406 0.68657 0.29887 0.0
C424 C 0.05271 0.68818 0.26842 0.0
H425 H 0.08933 0.65303 0.0985 0.0
H426 H 0.11224 0.65463 0.14682 0.0
H427 H 0.01048 0.75543 0.22278 0.0
H428 H 0.99752 0.72636 0.38053 0.0
H429 H 0.98015 0.73046 0.33047 0.0
C430 C 0.93166 0.2745 0.36816 0.0
C431 C 0.86547 0.2541 0.38554 0.0
C432 C 0.96424 0.28213 0.33243 0.0
C433 C 0.95742 0.24628 0.25481 0.0
H434 H 0.07482 0.34218 0.21115 0.0
C435 C 0.06961 0.27985 0.11054 0.0
C436 C 0.14494 0.28206 0.09165 0.0
C437 C 0.0326 0.28295 0.14677 0.0
C438 C 0.04191 0.31538 0.22317 0.0
H439 H 0.77901 0.22805 0.3801 0.0
H440 H 0.83368 0.24288 0.31864 0.0
H441 H 0.01522 0.33446 0.2744 0.0
H442 H 0.24027 0.29226 0.0955 0.0
H443 H 0.17514 0.29825 0.15885 0.0
H444 H 0.98323 0.22759 0.2037 0.0
C445 C 0.86259 0.25132 0.33179 0.0
C446 C 0.00829 0.31073 0.25927 0.0
C447 C 0.83102 0.24294 0.36711 0.0
C448 C 0.18219 0.29011 0.10943 0.0
C449 C 0.14503 0.29381 0.14561 0.0
C450 C 0.98987 0.25131 0.21897 0.0
C451 C 0.93031 0.27022 0.31376 0.0
C452 C 0.96576 0.27601 0.2755 0.0
C453 C 0.07021 0.28899 0.16459 0.0
C454 C 0.03255 0.28576 0.20283 0.0
H455 H 0.95902 0.2835 0.38194 0.0
H456 H 0.01669 0.29642 0.31936 0.0
H457 H 0.92687 0.21858 0.26613 0.0
H458 H 0.03948 0.27369 0.09756 0.0
H459 H 0.97473 0.27936 0.16097 0.0
C460 C 0.92781 0.31928 0.64826 0.0
C461 C 0.95653 0.28811 0.62293 0.0
C462 C 0.9408 0.31974 0.67601 0.0
C463 C 1.00285 0.25456 0.72445 0.0
H464 H 0.02972 0.35999 0.75687 0.0
C465 C 0.0995 0.27292 0.8245 0.0
C466 C 0.06292 0.30218 0.85112 0.0
C467 C 0.08666 0.26996 0.79669 0.0
C468 C 0.02176 0.33032 0.74831 0.0
H469 H 0.02117 0.23278 0.60701 0.0
H470 H 0.04529 0.23394 0.65512 0.0
H471 H 0.00829 0.35705 0.7082 0.0
H472 H 0.98253 0.3505 0.86949 0.0
H473 H 0.96147 0.34586 0.82071 0.0
H474 H 0.01775 0.22797 0.76441 0.0
C475 C 0.01151 0.2577 0.65392 0.0
C476 C 0.0092 0.32858 0.72043 0.0
C477 C 0.99791 0.25705 0.62626 0.0
C478 C 0.01287 0.32818 0.84921 0.0
C479 C 1.00057 0.32546 0.82127 0.0
C480 C 0.0161 0.2563 0.75219 0.0
C481 C 0.98347 0.28923 0.67909 0.0
C482 C 0.99889 0.29072 0.70827 0.0
C483 C 0.03745 0.29642 0.79462 0.0
C484 C 0.0251 0.29424 0.76462 0.0
H485 H 0.89457 0.34322 0.6468 0.0
H486 H 0.91672 0.34395 0.69526 0.0
H487 H 0.99429 0.22487 0.71618 0.0
H488 H 0.13925 0.25279 0.8247 0.0
H489 H 0.11648 0.24756 0.77637 0.0
C490 C 0.10489 0.74134 0.62761 0.0
C491 C 0.13447 0.70854 0.60409 0.0
C492 C 0.07671 0.73503 0.66294 0.0
C493 C 1.00644 0.66236 0.73381 0.0
H494 H 0.077 0.74373 0.77322 0.0
C495 C 0.91686 0.67521 0.8811 0.0
C496 C 0.89057 0.71463 0.8944 0.0
C497 C 0.95333 0.66805 0.84522 0.0
C498 C 0.05731 0.72065 0.76252 0.0
H499 H 0.1537 0.64296 0.59889 0.0
H500 H 0.10381 0.63178 0.66164 0.0
H501 H 0.12525 0.74162 0.7106 0.0
H502 H 0.88257 0.77747 0.88077 0.0
H503 H 0.94701 0.76507 0.81834 0.0
H504 H 0.93669 0.64237 0.78629 0.0
C505 C 0.10281 0.66231 0.65239 0.0
C506 C 0.08466 0.71948 0.72681 0.0
C507 C 0.13095 0.66866 0.6167 0.0
C508 C 0.90221 0.7468 0.8713 0.0
C509 C 0.93937 0.73977 0.83559 0.0
C510 C 0.97906 0.66345 0.76978 0.0
C511 C 0.07805 0.69584 0.67549 0.0
C512 C 0.0574 0.69148 0.71233 0.0
C513 C 0.96501 0.70037 0.82227 0.0
C514 C 1.00251 0.69367 0.78438 0.0
H515 H 0.10591 0.77228 0.61855 0.0
H516 H 0.05601 0.76117 0.6804 0.0
H517 H 0.9849 0.64044 0.72311 0.0
H518 H 0.90811 0.64977 0.89839 0.0
H519 H 0.97271 0.63744 0.8354 0.0
loop_
_geom_bond_atom_site_label_1
_geom_bond_atom_site_label_2
_geom_bond_distance
_geom_bond_site_symmetry_2
_ccdc_geom_bond_type
Tb0 C9 2.764 . S
Tb0 O10 2.325 . S
Tb0 O13 2.303 1_556 S
Tb0 O17 2.322 1_556 S
Tb0 O18 2.349 . S
Tb0 O21 2.415 . S
Tb0 O22 2.399 . S
Tb1 O11 2.322 1_554 S
Tb1 O12 2.349 . S
Tb1 O14 2.415 . S
Tb1 O15 2.399 . S
Tb1 O16 2.325 . S
Tb1 O19 2.307 . S
Tb1 C30 2.764 . S
C2 O18 1.261 . S
C2 O19 1.254 1_556 S
C3 C6 1.358 . S
C3 C7 1.332 . S
C3 C9 1.504 . S
C4 C5 1.373 . S
C4 C8 1.308 . S
C5 C4 1.373 . S
C5 C6 1.429 . S
C5 H32 0.932 . S
C6 C3 1.358 . S
C6 C5 1.429 . S
C6 H33 0.930 . S
C7 C3 1.332 . S
C7 C8 1.394 . S
C7 H34 0.932 . S
C8 C4 1.308 . S
C8 C7 1.394 . S
C8 H35 0.929 . S
C9 Tb0 2.764 . S
C9 C3 1.504 . S
C9 O21 1.239 . S
C9 O22 1.263 . S
O10 Tb0 2.325 . S
O10 C20 1.236 . S
O11 Tb1 2.322 1_556 S
O11 C20 1.257 . S
O12 Tb1 2.349 . S
O12 C23 1.261 . S
O13 Tb0 2.303 1_554 S
O13 C23 1.257 . S
O14 Tb1 2.415 . S
O14 C30 1.239 . S
O15 Tb1 2.399 . S
O15 C30 1.263 . S
O16 Tb1 2.325 . S
O16 C31 1.236 . S
O17 Tb0 2.322 1_554 S
O17 C31 1.257 . S
O18 Tb0 2.349 . S
O18 C2 1.261 . S
O19 Tb1 2.307 . S
O19 C2 1.254 1_554 S
C20 O10 1.236 . S
C20 O11 1.257 . S
O21 Tb0 2.415 . S
O21 C9 1.239 . S
O22 Tb0 2.399 . S
O22 C9 1.263 . S
C23 O12 1.261 . S
C23 O13 1.257 . S
C24 C27 1.358 . S
C24 C28 1.332 . S
C24 C30 1.504 . S
C25 C26 1.373 . S
C25 C29 1.308 . S
C26 C25 1.373 . S
C26 C27 1.429 . S
C26 H36 0.932 . S
C27 C24 1.358 . S
C27 C26 1.429 . S
C27 H37 0.930 . S
C28 C24 1.332 . S
C28 C29 1.394 . S
C28 H38 0.932 . S
C29 C25 1.308 . S
C29 C28 1.394 . S
C29 H39 0.929 . S
C30 Tb1 2.764 . S
C30 O14 1.239 . S
C30 O15 1.263 . S
C30 C24 1.504 . S
C31 O16 1.236 . S
C31 O17 1.257 . S
H32 C5 0.932 . S
H33 C6 0.930 . S
H34 C7 0.932 . S
H35 C8 0.929 . S
H36 C26 0.932 . S
H37 C27 0.930 . S
H38 C28 0.932 . S
H39 C29 0.929 . S
Tb40 C49 2.764 . S
Tb40 O50 2.325 . S
Tb40 O53 2.303 1_556 S
Tb40 O57 2.322 1_556 S
Tb40 O58 2.349 . S
Tb40 O61 2.415 . S
Tb40 O62 2.399 . S
Tb41 O51 2.322 1_554 S
Tb41 O52 2.349 . S
Tb41 O54 2.415 . S
Tb41 O55 2.399 . S
Tb41 O56 2.325 . S
Tb41 O59 2.307 . S
Tb41 C70 2.764 . S
C42 O58 1.261 . S
C42 O59 1.254 1_556 S
C43 C46 1.358 . S
C43 C47 1.332 . S
C43 C49 1.504 . S
C44 C45 1.373 . S
C44 C48 1.308 . S
C45 C44 1.373 . S
C45 C46 1.429 . S
C45 H72 0.932 . S
C46 C43 1.358 . S
C46 C45 1.429 . S
C46 H73 0.930 . S
C47 C43 1.332 . S
C47 C48 1.394 . S
C47 H74 0.932 . S
C48 C44 1.308 . S
C48 C47 1.394 . S
C48 H75 0.929 . S
C49 Tb40 2.764 . S
C49 C43 1.504 . S
C49 O61 1.239 . S
C49 O62 1.263 . S
O50 Tb40 2.325 . S
O50 C60 1.236 . S
O51 Tb41 2.322 1_556 S
O51 C60 1.257 . S
O52 Tb41 2.349 . S
O52 C63 1.261 . S
O53 Tb40 2.303 1_554 S
O53 C63 1.257 . S
O54 Tb41 2.415 . S
O54 C70 1.239 . S
O55 Tb41 2.399 . S
O55 C70 1.263 . S
O56 Tb41 2.325 . S
O56 C71 1.236 . S
O57 Tb40 2.322 1_554 S
O57 C71 1.257 . S
O58 Tb40 2.349 . S
O58 C42 1.261 . S
O59 Tb41 2.307 . S
O59 C42 1.254 1_554 S
C60 O50 1.236 . S
C60 O51 1.257 . S
O61 Tb40 2.415 . S
O61 C49 1.239 . S
O62 Tb40 2.399 . S
O62 C49 1.263 . S
C63 O52 1.261 . S
C63 O53 1.257 . S
C64 C67 1.358 . S
C64 C68 1.332 . S
C64 C70 1.504 . S
C65 C66 1.373 . S
C65 C69 1.308 . S
C66 C65 1.373 . S
C66 C67 1.429 . S
C66 H76 0.932 . S
C67 C64 1.358 . S
C67 C66 1.429 . S
C67 H77 0.930 . S
C68 C64 1.332 . S
C68 C69 1.394 . S
C68 H78 0.932 . S
C69 C65 1.308 . S
C69 C68 1.394 . S
C69 H79 0.929 . S
C70 Tb41 2.764 . S
C70 O54 1.239 . S
C70 O55 1.263 . S
C70 C64 1.504 . S
C71 O56 1.236 . S
C71 O57 1.257 . S
H72 C45 0.932 . S
H73 C46 0.930 . S
H74 C47 0.932 . S
H75 C48 0.929 . S
H76 C66 0.932 . S
H77 C67 0.930 . S
H78 C68 0.932 . S
H79 C69 0.929 . S
Tb80 C89 2.764 . S
Tb80 O90 2.325 . S
Tb80 O93 2.303 . S
Tb80 O97 2.322 . S
Tb80 O98 2.349 . S
Tb80 O101 2.415 . S
Tb80 O102 2.399 . S
Tb81 O91 2.322 . S
Tb81 O92 2.349 . S
Tb81 O94 2.415 . S
Tb81 O95 2.399 . S
Tb81 O96 2.325 . S
Tb81 O99 2.303 . S
Tb81 C110 2.764 . S
C82 O98 1.261 . S
C82 O99 1.257 . S
C83 C86 1.358 . S
C83 C87 1.332 . S
C83 C89 1.504 . S
C84 C85 1.373 . S
C84 C88 1.308 . S
C85 C84 1.373 . S
C85 C86 1.429 . S
C85 H112 0.932 . S
C86 C83 1.358 . S
C86 C85 1.429 . S
C86 H113 0.930 . S
C87 C83 1.332 . S
C87 C88 1.394 . S
C87 H114 0.932 . S
C88 C84 1.308 . S
C88 C87 1.394 . S
C88 H115 0.929 . S
C89 Tb80 2.764 . S
C89 C83 1.504 . S
C89 O101 1.239 . S
C89 O102 1.263 . S
O90 Tb80 2.325 . S
O90 C100 1.236 . S
O91 Tb81 2.322 . S
O91 C100 1.257 . S
O92 Tb81 2.349 . S
O92 C103 1.261 . S
O93 Tb80 2.303 . S
O93 C103 1.257 . S
O94 Tb81 2.415 . S
O94 C110 1.239 . S
O95 Tb81 2.399 . S
O95 C110 1.263 . S
O96 Tb81 2.325 . S
O96 C111 1.236 . S
O97 Tb80 2.322 . S
O97 C111 1.257 . S
O98 Tb80 2.349 . S
O98 C82 1.261 . S
O99 Tb81 2.303 . S
O99 C82 1.257 . S
C100 O90 1.236 . S
C100 O91 1.257 . S
O101 Tb80 2.415 . S
O101 C89 1.239 . S
O102 Tb80 2.399 . S
O102 C89 1.263 . S
C103 O92 1.261 . S
C103 O93 1.257 . S
C104 C107 1.358 . S
C104 C108 1.332 . S
C104 C110 1.504 . S
C105 C106 1.373 . S
C105 C109 1.308 . S
C106 C105 1.373 . S
C106 C107 1.429 . S
C106 H116 0.932 . S
C107 C104 1.358 . S
C107 C106 1.429 . S
C107 H117 0.930 . S
C108 C104 1.332 . S
C108 C109 1.394 . S
C108 H118 0.932 . S
C109 C105 1.308 . S
C109 C108 1.394 . S
C109 H119 0.929 . S
C110 Tb81 2.764 . S
C110 O94 1.239 . S
C110 O95 1.263 . S
C110 C104 1.504 . S
C111 O96 1.236 . S
C111 O97 1.257 . S
H112 C85 0.932 . S
H113 C86 0.930 . S
H114 C87 0.932 . S
H115 C88 0.929 . S
H116 C106 0.932 . S
H117 C107 0.930 . S
H118 C108 0.932 . S
H119 C109 0.929 . S
Tb120 C129 2.764 . S
Tb120 O130 2.325 . S
Tb120 O133 2.303 . S
Tb120 O137 2.322 . S
Tb120 O138 2.349 . S
Tb120 O141 2.415 . S
Tb120 O142 2.399 . S
Tb121 O131 2.322 . S
Tb121 O132 2.349 . S
Tb121 O134 2.415 . S
Tb121 O135 2.399 . S
Tb121 O136 2.325 . S
Tb121 O139 2.303 . S
Tb121 C150 2.764 . S
C122 O138 1.261 . S
C122 O139 1.257 . S
C123 C126 1.358 . S
C123 C127 1.332 . S
C123 C129 1.504 . S
C124 C125 1.373 . S
C124 C128 1.308 . S
C125 C124 1.373 . S
C125 C126 1.429 . S
C125 H152 0.932 . S
C126 C123 1.358 . S
C126 C125 1.429 . S
C126 H153 0.930 . S
C127 C123 1.332 . S
C127 C128 1.394 . S
C127 H154 0.932 . S
C128 C124 1.308 . S
C128 C127 1.394 . S
C128 H155 0.929 . S
C129 Tb120 2.764 . S
C129 C123 1.504 . S
C129 O141 1.239 . S
C129 O142 1.263 . S
O130 Tb120 2.325 . S
O130 C140 1.236 . S
O131 Tb121 2.322 . S
O131 C140 1.257 . S
O132 Tb121 2.349 . S
O132 C143 1.261 . S
O133 Tb120 2.303 . S
O133 C143 1.257 . S
O134 Tb121 2.415 . S
O134 C150 1.239 . S
O135 Tb121 2.399 . S
O135 C150 1.263 . S
O136 Tb121 2.325 . S
O136 C151 1.236 . S
O137 Tb120 2.322 . S
O137 C151 1.257 . S
O138 Tb120 2.349 . S
O138 C122 1.261 . S
O139 Tb121 2.303 . S
O139 C122 1.257 . S
C140 O130 1.236 . S
C140 O131 1.257 . S
O141 Tb120 2.415 . S
O141 C129 1.239 . S
O142 Tb120 2.399 . S
O142 C129 1.263 . S
C143 O132 1.261 . S
C143 O133 1.257 . S
C144 C147 1.358 . S
C144 C148 1.332 . S
C144 C150 1.504 . S
C145 C146 1.373 . S
C145 C149 1.308 . S
C146 C145 1.373 . S
C146 C147 1.429 . S
C146 H156 0.932 . S
C147 C144 1.358 . S
C147 C146 1.429 . S
C147 H157 0.930 . S
C148 C144 1.332 . S
C148 C149 1.394 . S
C148 H158 0.932 . S
C149 C145 1.308 . S
C149 C148 1.394 . S
C149 H159 0.929 . S
C150 Tb121 2.764 . S
C150 O134 1.239 . S
C150 O135 1.263 . S
C150 C144 1.504 . S
C151 O136 1.236 . S
C151 O137 1.257 . S
H152 C125 0.932 . S
H153 C126 0.930 . S
H154 C127 0.932 . S
H155 C128 0.929 . S
H156 C146 0.932 . S
H157 C147 0.930 . S
H158 C148 0.932 . S
H159 C149 0.929 . S
C160 C161 1.326 1_556 S
C160 C162 1.327 . S
C160 H185 0.950 . S
C161 C160 1.326 1_554 S
C161 C177 1.364 . S
C162 C160 1.327 . S
C162 C181 1.409 1_556 S
C162 H186 0.950 . S
C163 C180 1.574 . S
C163 C182 1.368 . S
C163 H187 0.949 . S
H164 C168 0.949 . S
C165 C166 1.349 . S
C165 C167 1.327 . S
C165 H188 0.950 . S
C166 C165 1.349 . S
C166 C178 1.349 1_554 S
C167 C165 1.327 . S
C167 C183 1.429 . S
C167 H189 0.950 . S
C168 H164 0.949 . S
C168 C176 1.574 . S
C168 C184 1.368 1_556 S
H169 C177 0.950 . S
H170 C175 0.950 . S
H171 C176 0.949 . S
H172 C178 0.950 . S
H173 C179 0.950 . S
H174 C180 0.949 . S
C175 H170 0.950 . S
C175 C177 1.327 . S
C175 C181 1.462 . S
C176 C168 1.574 . S
C176 H171 0.949 . S
C176 C182 1.368 1_556 S
C177 C161 1.364 . S
C177 H169 0.950 . S
C177 C175 1.327 . S
C178 C166 1.349 1_556 S
C178 H172 0.950 . S
C178 C179 1.327 . S
C179 H173 0.950 . S
C179 C178 1.327 . S
C179 C183 1.429 1_556 S
C180 C163 1.574 . S
C180 H174 0.949 . S
C180 C184 1.368 . S
C181 C162 1.409 1_554 S
C181 C175 1.462 . S
C181 C182 1.511 . S
C182 C163 1.368 . S
C182 C176 1.368 1_554 S
C182 C181 1.511 . S
C183 C167 1.429 . S
C183 C179 1.429 1_554 S
C183 C184 1.523 . S
C184 C168 1.368 1_554 S
C184 C180 1.368 . S
C184 C183 1.523 . S
H185 C160 0.950 . S
H186 C162 0.950 . S
H187 C163 0.949 . S
H188 C165 0.950 . S
H189 C167 0.950 . S
C190 C191 1.349 . S
C190 C192 1.327 . S
C190 H215 0.950 . S
C191 C190 1.349 . S
C191 C207 1.349 . S
C192 C190 1.327 . S
C192 C211 1.429 . S
C192 H216 0.950 . S
C193 C210 1.574 . S
C193 C212 1.368 . S
C193 H217 0.949 . S
H194 C198 0.949 . S
C195 C196 1.349 . S
C195 C197 1.327 . S
C195 H218 0.950 . S
C196 C195 1.349 . S
C196 C208 1.349 . S
C197 C195 1.327 . S
C197 C213 1.429 . S
C197 H219 0.950 . S
C198 H194 0.949 . S
C198 C206 1.574 . S
C198 C214 1.368 . S
H199 C207 0.950 . S
H200 C205 0.950 . S
H201 C206 0.949 . S
H202 C208 0.950 . S
H203 C209 0.950 . S
H204 C210 0.949 . S
C205 H200 0.950 . S
C205 C207 1.327 . S
C205 C211 1.429 . S
C206 C198 1.574 . S
C206 H201 0.949 . S
C206 C212 1.368 . S
C207 C191 1.349 . S
C207 H199 0.950 . S
C207 C205 1.327 . S
C208 C196 1.349 . S
C208 H202 0.950 . S
C208 C209 1.327 . S
C209 H203 0.950 . S
C209 C208 1.327 . S
C209 C213 1.429 . S
C210 C193 1.574 . S
C210 H204 0.949 . S
C210 C214 1.368 . S
C211 C192 1.429 . S
C211 C205 1.429 . S
C211 C212 1.523 . S
C212 C193 1.368 . S
C212 C206 1.368 . S
C212 C211 1.523 . S
C213 C197 1.429 . S
C213 C209 1.429 . S
C213 C214 1.523 . S
C214 C198 1.368 . S
C214 C210 1.368 . S
C214 C213 1.523 . S
H215 C190 0.950 . S
H216 C192 0.950 . S
H217 C193 0.949 . S
H218 C195 0.950 . S
H219 C197 0.950 . S
C220 C221 1.330 1_556 S
C220 C222 1.327 . S
C220 H245 0.950 . S
C221 C220 1.330 1_554 S
C221 C237 1.360 . S
C222 C220 1.327 . S
C222 C241 1.415 1_556 S
C222 H246 0.950 . S
C223 C240 1.574 1_545 S
C223 C242 1.368 1_655 S
C223 H247 0.949 . S
H224 C228 0.949 . S
C225 C226 1.349 . S
C225 C227 1.327 . S
C225 H248 0.950 . S
C226 C225 1.349 . S
C226 C238 1.349 1_554 S
C227 C225 1.327 . S
C227 C243 1.429 . S
C227 H249 0.950 . S
C228 H224 0.949 . S
C228 C236 1.574 1_565 S
C228 C244 1.368 1_456 S
H229 C237 0.950 . S
H230 C235 0.950 . S
H231 C236 0.949 . S
H232 C238 0.950 . S
H233 C239 0.950 . S
H234 C240 0.949 . S
C235 H230 0.950 . S
C235 C237 1.327 . S
C235 C241 1.456 . S
C236 C228 1.574 1_545 S
C236 H231 0.949 . S
C236 C242 1.368 1_556 S
C237 C221 1.360 . S
C237 H229 0.950 . S
C237 C235 1.327 . S
C238 C226 1.349 1_556 S
C238 H232 0.950 . S
C238 C239 1.327 . S
C239 H233 0.950 . S
C239 C238 1.327 . S
C239 C243 1.429 1_556 S
C240 C223 1.574 1_565 S
C240 H234 0.949 . S
C240 C244 1.368 . S
C241 C222 1.415 1_554 S
C241 C235 1.456 . S
C241 C242 1.511 . S
C242 C223 1.368 1_455 S
C242 C236 1.368 1_554 S
C242 C241 1.511 . S
C243 C227 1.429 . S
C243 C239 1.429 1_554 S
C243 C244 1.523 . S
C244 C228 1.368 1_654 S
C244 C240 1.368 . S
C244 C243 1.523 . S
H245 C220 0.950 . S
H246 C222 0.950 . S
H247 C223 0.949 . S
H248 C225 0.950 . S
H249 C227 0.950 . S
C250 C251 1.349 . S
C250 C252 1.327 . S
C250 H275 0.950 . S
C251 C250 1.349 . S
C251 C267 1.349 . S
C252 C250 1.327 . S
C252 C271 1.429 . S
C252 H276 0.950 . S
C253 C270 1.574 . S
C253 C272 1.368 1_565 S
C253 H277 0.949 . S
H254 C258 0.949 . S
C255 C256 1.349 . S
C255 C257 1.327 . S
C255 H278 0.950 . S
C256 C255 1.349 . S
C256 C268 1.349 . S
C257 C255 1.327 . S
C257 C273 1.429 . S
C257 H279 0.950 . S
C258 H254 0.949 . S
C258 C266 1.574 . S
C258 C274 1.368 1_545 S
H259 C267 0.950 . S
H260 C265 0.950 . S
H261 C266 0.949 . S
H262 C268 0.950 . S
H263 C269 0.950 . S
H264 C270 0.949 . S
C265 H260 0.950 . S
C265 C267 1.327 . S
C265 C271 1.429 . S
C266 C258 1.574 . S
C266 H261 0.949 . S
C266 C272 1.368 1_455 S
C267 C251 1.349 . S
C267 H259 0.950 . S
C267 C265 1.327 . S
C268 C256 1.349 . S
C268 H262 0.950 . S
C268 C269 1.327 . S
C269 H263 0.950 . S
C269 C268 1.327 . S
C269 C273 1.429 . S
C270 C253 1.574 . S
C270 H264 0.949 . S
C270 C274 1.368 1_655 S
C271 C252 1.429 . S
C271 C265 1.429 . S
C271 C272 1.523 . S
C272 C253 1.368 1_545 S
C272 C266 1.368 1_655 S
C272 C271 1.523 . S
C273 C257 1.429 . S
C273 C269 1.429 . S
C273 C274 1.523 . S
C274 C258 1.368 1_565 S
C274 C270 1.368 1_455 S
C274 C273 1.523 . S
H275 C250 0.950 . S
H276 C252 0.950 . S
H277 C253 0.949 . S
H278 C255 0.950 . S
H279 C257 0.950 . S
C280 C281 1.349 . S
C280 C282 1.327 . S
C280 H305 0.950 . S
C281 C280 1.349 . S
C281 C297 1.349 . S
C282 C280 1.327 . S
C282 C301 1.429 . S
C282 H306 0.950 . S
C283 C300 1.574 . S
C283 C302 1.368 . S
C283 H307 0.949 . S
H284 C288 0.949 . S
C285 C286 1.349 . S
C285 C287 1.327 . S
C285 H308 0.950 . S
C286 C285 1.349 . S
C286 C298 1.349 . S
C287 C285 1.327 . S
C287 C303 1.429 . S
C287 H309 0.950 . S
C288 H284 0.949 . S
C288 C296 1.574 . S
C288 C304 1.368 . S
H289 C297 0.950 . S
H290 C295 0.950 . S
H291 C296 0.949 . S
H292 C298 0.950 . S
H293 C299 0.950 . S
H294 C300 0.949 . S
C295 H290 0.950 . S
C295 C297 1.327 . S
C295 C301 1.429 . S
C296 C288 1.574 . S
C296 H291 0.949 . S
C296 C302 1.368 . S
C297 C281 1.349 . S
C297 H289 0.950 . S
C297 C295 1.327 . S
C298 C286 1.349 . S
C298 H292 0.950 . S
C298 C299 1.327 . S
C299 H293 0.950 . S
C299 C298 1.327 . S
C299 C303 1.429 . S
C300 C283 1.574 . S
C300 H294 0.949 . S
C300 C304 1.368 . S
C301 C282 1.429 . S
C301 C295 1.429 . S
C301 C302 1.523 . S
C302 C283 1.368 . S
C302 C296 1.368 . S
C302 C301 1.523 . S
C303 C287 1.429 . S
C303 C299 1.429 . S
C303 C304 1.523 . S
C304 C288 1.368 . S
C304 C300 1.368 . S
C304 C303 1.523 . S
H305 C280 0.950 . S
H306 C282 0.950 . S
H307 C283 0.949 . S
H308 C285 0.950 . S
H309 C287 0.950 . S
C310 C311 1.349 . S
C310 C312 1.327 . S
C310 H335 0.950 . S
C311 C310 1.349 . S
C311 C327 1.349 . S
C312 C310 1.327 . S
C312 C331 1.429 . S
C312 H336 0.950 . S
C313 C330 1.574 . S
C313 C332 1.368 . S
C313 H337 0.949 . S
H314 C318 0.949 . S
C315 C316 1.349 . S
C315 C317 1.327 . S
C315 H338 0.950 . S
C316 C315 1.349 . S
C316 C328 1.349 . S
C317 C315 1.327 . S
C317 C333 1.429 . S
C317 H339 0.950 . S
C318 H314 0.949 . S
C318 C326 1.574 . S
C318 C334 1.368 . S
H319 C327 0.950 . S
H320 C325 0.950 . S
H321 C326 0.949 . S
H322 C328 0.950 . S
H323 C329 0.950 . S
H324 C330 0.949 . S
C325 H320 0.950 . S
C325 C327 1.327 . S
C325 C331 1.429 . S
C326 C318 1.574 . S
C326 H321 0.949 . S
C326 C332 1.368 . S
C327 C311 1.349 . S
C327 H319 0.950 . S
C327 C325 1.327 . S
C328 C316 1.349 . S
C328 H322 0.950 . S
C328 C329 1.327 . S
C329 H323 0.950 . S
C329 C328 1.327 . S
C329 C333 1.429 . S
C330 C313 1.574 . S
C330 H324 0.949 . S
C330 C334 1.368 . S
C331 C312 1.429 . S
C331 C325 1.429 . S
C331 C332 1.523 . S
C332 C313 1.368 . S
C332 C326 1.368 . S
C332 C331 1.523 . S
C333 C317 1.429 . S
C333 C329 1.429 . S
C333 C334 1.523 . S
C334 C318 1.368 . S
C334 C330 1.368 . S
C334 C333 1.523 . S
H335 C310 0.950 . S
H336 C312 0.950 . S
H337 C313 0.949 . S
H338 C315 0.950 . S
H339 C317 0.950 . S
C340 C341 1.349 . S
C340 C342 1.327 . S
C340 H365 0.950 . S
C341 C340 1.349 . S
C341 C357 1.349 . S
C342 C340 1.327 . S
C342 C361 1.429 . S
C342 H366 0.950 . S
C343 C360 1.574 . S
C343 C362 1.368 . S
C343 H367 0.949 . S
H344 C348 0.949 . S
C345 C346 1.349 . S
C345 C347 1.327 . S
C345 H368 0.950 . S
C346 C345 1.349 . S
C346 C358 1.349 . S
C347 C345 1.327 . S
C347 C363 1.429 . S
C347 H369 0.950 . S
C348 H344 0.949 . S
C348 C356 1.574 . S
C348 C364 1.368 . S
H349 C357 0.950 . S
H350 C355 0.950 . S
H351 C356 0.949 . S
H352 C358 0.950 . S
H353 C359 0.950 . S
H354 C360 0.949 . S
C355 H350 0.950 . S
C355 C357 1.327 . S
C355 C361 1.429 . S
C356 C348 1.574 . S
C356 H351 0.949 . S
C356 C362 1.368 . S
C357 C341 1.349 . S
C357 H349 0.950 . S
C357 C355 1.327 . S
C358 C346 1.349 . S
C358 H352 0.950 . S
C358 C359 1.327 . S
C359 H353 0.950 . S
C359 C358 1.327 . S
C359 C363 1.429 . S
C360 C343 1.574 . S
C360 H354 0.949 . S
C360 C364 1.368 . S
C361 C342 1.429 . S
C361 C355 1.429 . S
C361 C362 1.523 . S
C362 C343 1.368 . S
C362 C356 1.368 . S
C362 C361 1.523 . S
C363 C347 1.429 . S
C363 C359 1.429 . S
C363 C364 1.523 . S
C364 C348 1.368 . S
C364 C360 1.368 . S
C364 C363 1.523 . S
H365 C340 0.950 . S
H366 C342 0.950 . S
H367 C343 0.949 . S
H368 C345 0.950 . S
H369 C347 0.950 . S
C370 C371 1.349 . S
C370 C372 1.327 . S
C370 H395 0.950 . S
C371 C370 1.349 . S
C371 C387 1.349 . S
C372 C370 1.327 . S
C372 C391 1.429 . S
C372 H396 0.950 . S
C373 C390 1.574 . S
C373 C392 1.368 . S
C373 H397 0.949 . S
H374 C378 0.949 . S
C375 C376 1.349 . S
C375 C377 1.327 . S
C375 H398 0.950 . S
C376 C375 1.349 . S
C376 C388 1.349 . S
C377 C375 1.327 . S
C377 C393 1.429 . S
C377 H399 0.950 . S
C378 H374 0.949 . S
C378 C386 1.574 . S
C378 C394 1.368 . S
H379 C387 0.950 . S
H380 C385 0.950 . S
H381 C386 0.949 . S
H382 C388 0.950 . S
H383 C389 0.950 . S
H384 C390 0.949 . S
C385 H380 0.950 . S
C385 C387 1.327 . S
C385 C391 1.429 . S
C386 C378 1.574 . S
C386 H381 0.949 . S
C386 C392 1.368 . S
C387 C371 1.349 . S
C387 H379 0.950 . S
C387 C385 1.327 . S
C388 C376 1.349 . S
C388 H382 0.950 . S
C388 C389 1.327 . S
C389 H383 0.950 . S
C389 C388 1.327 . S
C389 C393 1.429 . S
C390 C373 1.574 . S
C390 H384 0.949 . S
C390 C394 1.368 . S
C391 C372 1.429 . S
C391 C385 1.429 . S
C391 C392 1.523 . S
C392 C373 1.368 . S
C392 C386 1.368 . S
C392 C391 1.523 . S
C393 C377 1.429 . S
C393 C389 1.429 . S
C393 C394 1.523 . S
C394 C378 1.368 . S
C394 C390 1.368 . S
C394 C393 1.523 . S
H395 C370 0.950 . S
H396 C372 0.950 . S
H397 C373 0.949 . S
H398 C375 0.950 . S
H399 C377 0.950 . S
C400 C401 1.349 . S
C400 C402 1.327 1_655 S
C400 H425 0.950 1_655 S
C401 C400 1.349 . S
C401 C417 1.349 . S
C402 C400 1.327 1_455 S
C402 C421 1.429 1_455 S
C402 H426 0.950 . S
C403 C420 1.574 . S
C403 C422 1.368 . S
C403 H427 0.949 . S
H404 C408 0.949 . S
C405 C406 1.349 . S
C405 C407 1.327 1_455 S
C405 H428 0.950 1_455 S
C406 C405 1.349 . S
C406 C418 1.349 . S
C407 C405 1.327 1_655 S
C407 C423 1.429 1_655 S
C407 H429 0.950 . S
C408 H404 0.949 . S
C408 C416 1.574 . S
C408 C424 1.368 . S
H409 C417 0.950 . S
H410 C415 0.950 . S
H411 C416 0.949 . S
H412 C418 0.950 . S
H413 C419 0.950 . S
H414 C420 0.949 . S
C415 H410 0.950 . S
C415 C417 1.327 . S
C415 C421 1.429 . S
C416 C408 1.574 . S
C416 H411 0.949 . S
C416 C422 1.368 1_455 S
C417 C401 1.349 . S
C417 H409 0.950 . S
C417 C415 1.327 . S
C418 C406 1.349 . S
C418 H412 0.950 . S
C418 C419 1.327 . S
C419 H413 0.950 . S
C419 C418 1.327 . S
C419 C423 1.429 . S
C420 C403 1.574 . S
C420 H414 0.949 . S
C420 C424 1.368 1_655 S
C421 C402 1.429 1_655 S
C421 C415 1.429 . S
C421 C422 1.523 . S
C422 C403 1.368 . S
C422 C416 1.368 1_655 S
C422 C421 1.523 . S
C423 C407 1.429 1_455 S
C423 C419 1.429 . S
C423 C424 1.523 . S
C424 C408 1.368 . S
C424 C420 1.368 1_455 S
C424 C423 1.523 . S
H425 C400 0.950 1_455 S
H426 C402 0.950 . S
H427 C403 0.949 . S
H428 C405 0.950 1_655 S
H429 C407 0.950 . S
C430 C431 1.349 . S
C430 C432 1.327 . S
C430 H455 0.950 . S
C431 C430 1.349 . S
C431 C447 1.349 . S
C432 C430 1.327 . S
C432 C451 1.429 . S
C432 H456 0.950 . S
C433 C450 1.574 . S
C433 C452 1.368 . S
C433 H457 0.949 . S
H434 C438 0.949 . S
C435 C436 1.349 . S
C435 C437 1.327 . S
C435 H458 0.950 . S
C436 C435 1.349 . S
C436 C448 1.349 . S
C437 C435 1.327 . S
C437 C453 1.429 . S
C437 H459 0.950 . S
C438 H434 0.949 . S
C438 C446 1.574 . S
C438 C454 1.368 . S
H439 C447 0.950 . S
H440 C445 0.950 . S
H441 C446 0.949 . S
H442 C448 0.950 . S
H443 C449 0.950 . S
H444 C450 0.949 . S
C445 H440 0.950 . S
C445 C447 1.327 . S
C445 C451 1.429 . S
C446 C438 1.574 . S
C446 H441 0.949 . S
C446 C452 1.368 1_455 S
C447 C431 1.349 . S
C447 H439 0.950 . S
C447 C445 1.327 . S
C448 C436 1.349 . S
C448 H442 0.950 . S
C448 C449 1.327 . S
C449 H443 0.950 . S
C449 C448 1.327 . S
C449 C453 1.429 . S
C450 C433 1.574 . S
C450 H444 0.949 . S
C450 C454 1.368 1_655 S
C451 C432 1.429 . S
C451 C445 1.429 . S
C451 C452 1.523 . S
C452 C433 1.368 . S
C452 C446 1.368 1_655 S
C452 C451 1.523 . S
C453 C437 1.429 . S
C453 C449 1.429 . S
C453 C454 1.523 . S
C454 C438 1.368 . S
C454 C450 1.368 1_455 S
C454 C453 1.523 . S
H455 C430 0.950 . S
H456 C432 0.950 . S
H457 C433 0.949 . S
H458 C435 0.950 . S
H459 C437 0.950 . S
C460 C461 1.349 . S
C460 C462 1.327 . S
C460 H485 0.950 . S
C461 C460 1.349 . S
C461 C477 1.349 . S
C462 C460 1.327 . S
C462 C481 1.429 . S
C462 H486 0.950 . S
C463 C480 1.574 . S
C463 C482 1.368 1_455 S
C463 H487 0.949 . S
H464 C468 0.949 . S
C465 C466 1.349 . S
C465 C467 1.327 . S
C465 H488 0.950 . S
C466 C465 1.349 . S
C466 C478 1.349 . S
C467 C465 1.327 . S
C467 C483 1.429 . S
C467 H489 0.950 . S
C468 H464 0.949 . S
C468 C476 1.574 . S
C468 C484 1.368 1_655 S
H469 C477 0.950 1_455 S
H470 C475 0.950 . S
H471 C476 0.949 . S
H472 C478 0.950 1_655 S
H473 C479 0.950 . S
H474 C480 0.949 . S
C475 H470 0.950 . S
C475 C477 1.327 1_455 S
C475 C481 1.429 1_455 S
C476 C468 1.574 . S
C476 H471 0.949 . S
C476 C482 1.368 . S
C477 C461 1.349 . S
C477 H469 0.950 1_655 S
C477 C475 1.327 1_655 S
C478 C466 1.349 . S
C478 H472 0.950 1_455 S
C478 C479 1.327 1_455 S
C479 H473 0.950 . S
C479 C478 1.327 1_655 S
C479 C483 1.429 1_655 S
C480 C463 1.574 . S
C480 H474 0.949 . S
C480 C484 1.368 . S
C481 C462 1.429 . S
C481 C475 1.429 1_655 S
C481 C482 1.523 . S
C482 C463 1.368 1_655 S
C482 C476 1.368 . S
C482 C481 1.523 . S
C483 C467 1.429 . S
C483 C479 1.429 1_455 S
C483 C484 1.523 . S
C484 C468 1.368 1_455 S
C484 C480 1.368 . S
C484 C483 1.523 . S
H485 C460 0.950 . S
H486 C462 0.950 . S
H487 C463 0.949 . S
H488 C465 0.950 . S
H489 C467 0.950 . S
C490 C491 1.349 . S
C490 C492 1.327 . S
C490 H515 0.950 . S
C491 C490 1.349 . S
C491 C507 1.349 . S
C492 C490 1.327 . S
C492 C511 1.429 . S
C492 H516 0.950 . S
C493 C510 1.574 . S
C493 C512 1.368 . S
C493 H517 0.949 . S
H494 C498 0.949 . S
C495 C496 1.349 . S
C495 C497 1.327 . S
C495 H518 0.950 . S
C496 C495 1.349 . S
C496 C508 1.349 . S
C497 C495 1.327 . S
C497 C513 1.429 . S
C497 H519 0.950 . S
C498 H494 0.949 . S
C498 C506 1.574 . S
C498 C514 1.368 . S
H499 C507 0.950 . S
H500 C505 0.950 . S
H501 C506 0.949 . S
H502 C508 0.950 . S
H503 C509 0.950 . S
H504 C510 0.949 . S
C505 H500 0.950 . S
C505 C507 1.327 . S
C505 C511 1.429 . S
C506 C498 1.574 . S
C506 H501 0.949 . S
C506 C512 1.368 1_655 S
C507 C491 1.349 . S
C507 H499 0.950 . S
C507 C505 1.327 . S
C508 C496 1.349 . S
C508 H502 0.950 . S
C508 C509 1.327 . S
C509 H503 0.950 . S
C509 C508 1.327 . S
C509 C513 1.429 . S
C510 C493 1.574 . S
C510 H504 0.949 . S
C510 C514 1.368 1_455 S
C511 C492 1.429 . S
C511 C505 1.429 . S
C511 C512 1.523 . S
C512 C493 1.368 . S
C512 C506 1.368 1_455 S
C512 C511 1.523 . S
C513 C497 1.429 . S
C513 C509 1.429 . S
C513 C514 1.523 . S
C514 C498 1.368 . S
C514 C510 1.368 1_655 S
C514 C513 1.523 . S
H515 C490 0.950 . S
H516 C492 0.950 . S
H517 C493 0.949 . S
H518 C495 0.950 . S
H519 C497 0.950 . S
C161 C63 1.559 . S
C166 C2 1.548 1_554 S
C191 C103 1.548 . S
C196 C122 1.548 . S
C221 C23 1.559 . S
C226 C42 1.548 1_554 S
C251 C143 1.548 . S
C256 C82 1.548 . S
C281 C145 0.996 . S
C286 C25 0.996 . S
C311 C71 1.281 . S
C316 C111 1.281 . S
C341 C44 0.996 . S
C346 C84 0.996 . S
C371 C140 1.282 . S
C376 C20 1.282 . S
C401 C65 0.996 . S
C406 C105 0.996 . S
C431 C151 1.281 . S
C436 C31 1.281 . S
C461 C124 0.996 . S
C466 C4 0.996 . S
C491 C100 1.282 . S
C496 C60 1.282 . S
