# Generated by pormake.
# Topology wka, (5)-cn, num edge types: 1
# Building blocks:
#     Node 0, Type 0, BuildingBlock: XOMCOT_clean_sbu_1, # of connection points: 5
#     Node 1, Type 0, BuildingBlock: XOMCOT_clean_sbu_1, # of connection points: 5
#     Node 2, Type 0, BuildingBlock: XOMCOT_clean_sbu_1, # of connection points: 5
#     Node 3, Type 0, BuildingBlock: XOMCOT_clean_sbu_1, # of connection points: 5
#     Node 4, Type 0, BuildingBlock: XOMCOT_clean_sbu_1, # of connection points: 5
#     Node 5, Type 0, BuildingBlock: XOMCOT_clean_sbu_1, # of connection points: 5
#     Node 6, Type 0, BuildingBlock: XOMCOT_clean_sbu_1, # of connection points: 5
#     Node 7, Type 0, BuildingBlock: XOMCOT_clean_sbu_1, # of connection points: 5
#     Node 8, Type 0, BuildingBlock: XOMCOT_clean_sbu_1, # of connection points: 5
#     Node 9, Type 0, BuildingBlock: XOMCOT_clean_sbu_1, # of connection points: 5
#     Node 10, Type 0, BuildingBlock: XOMCOT_clean_sbu_1, # of connection points: 5
#     Node 11, Type 0, BuildingBlock: XOMCOT_clean_sbu_1, # of connection points: 5
#     Edge 12, Type (0, 0), BuildingBlock: EZIPEK_clean_linker_0, # of connection points: 2
#     Edge 13, Type (0, 0), BuildingBlock: EZIPEK_clean_linker_0, # of connection points: 2
#     Edge 14, Type (0, 0), BuildingBlock: EZIPEK_clean_linker_0, # of connection points: 2
#     Edge 15, Type (0, 0), BuildingBlock: EZIPEK_clean_linker_0, # of connection points: 2
#     Edge 16, Type (0, 0), BuildingBlock: EZIPEK_clean_linker_0, # of connection points: 2
#     Edge 17, Type (0, 0), BuildingBlock: EZIPEK_clean_linker_0, # of connection points: 2
#     Edge 18, Type (0, 0), BuildingBlock: EZIPEK_clean_linker_0, # of connection points: 2
#     Edge 19, Type (0, 0), BuildingBlock: EZIPEK_clean_linker_0, # of connection points: 2
#     Edge 20, Type (0, 0), BuildingBlock: EZIPEK_clean_linker_0, # of connection points: 2
#     Edge 21, Type (0, 0), BuildingBlock: EZIPEK_clean_linker_0, # of connection points: 2
#     Edge 22, Type (0, 0), BuildingBlock: EZIPEK_clean_linker_0, # of connection points: 2
#     Edge 23, Type (0, 0), BuildingBlock: EZIPEK_clean_linker_0, # of connection points: 2
#     Edge 24, Type (0, 0), BuildingBlock: EZIPEK_clean_linker_0, # of connection points: 2
#     Edge 25, Type (0, 0), BuildingBlock: EZIPEK_clean_linker_0, # of connection points: 2
#     Edge 26, Type (0, 0), BuildingBlock: EZIPEK_clean_linker_0, # of connection points: 2
#     Edge 27, Type (0, 0), BuildingBlock: EZIPEK_clean_linker_0, # of connection points: 2
#     Edge 28, Type (0, 0), BuildingBlock: EZIPEK_clean_linker_0, # of connection points: 2
#     Edge 29, Type (0, 0), BuildingBlock: EZIPEK_clean_linker_0, # of connection points: 2
#     Edge 30, Type (0, 0), BuildingBlock: EZIPEK_clean_linker_0, # of connection points: 2
#     Edge 31, Type (0, 0), BuildingBlock: EZIPEK_clean_linker_0, # of connection points: 2
#     Edge 32, Type (0, 0), BuildingBlock: EZIPEK_clean_linker_0, # of connection points: 2
#     Edge 33, Type (0, 0), BuildingBlock: EZIPEK_clean_linker_0, # of connection points: 2
#     Edge 34, Type (0, 0), BuildingBlock: EZIPEK_clean_linker_0, # of connection points: 2
#     Edge 35, Type (0, 0), BuildingBlock: EZIPEK_clean_linker_0, # of connection points: 2
#     Edge 36, Type (0, 0), BuildingBlock: EZIPEK_clean_linker_0, # of connection points: 2
#     Edge 37, Type (0, 0), BuildingBlock: EZIPEK_clean_linker_0, # of connection points: 2
#     Edge 38, Type (0, 0), BuildingBlock: EZIPEK_clean_linker_0, # of connection points: 2
#     Edge 39, Type (0, 0), BuildingBlock: EZIPEK_clean_linker_0, # of connection points: 2
#     Edge 40, Type (0, 0), BuildingBlock: EZIPEK_clean_linker_0, # of connection points: 2
#     Edge 41, Type (0, 0), BuildingBlock: EZIPEK_clean_linker_0, # of connection points: 2
# Relax obj value: 0.242
# Max RMSD: 0.188
# Mean RMSD: 0.188
data_MOF--net-wka--node1-XOMCOT_clean_sbu_1--edge1-EZIPEK_clean_linker_0
_symmetry_space_group_name_H-M    P1
_symmetry_Int_Tables_number       1
_symmetry_cell_setting            triclinic
loop_
_symmetry_equiv_pos_as_xyz
'x, y, z'
_cell_length_a     49.859377
_cell_length_b     49.924116
_cell_length_c     13.078557
_cell_angle_alpha  89.853716
_cell_angle_beta   89.981858
_cell_angle_gamma 119.96657
loop_
_atom_site_label
_atom_site_type_symbol
_atom_site_fract_x
_atom_site_fract_y
_atom_site_fract_z
_atom_type_partial_charge
C0 C 0.15249 0.44422 0.94687 0.0
C1 C 0.15548 0.44654 0.84164 0.0
N2 N 0.13589 0.41859 0.80196 0.0
N3 N 0.131 0.41498 0.97223 0.0
C4 C 0.12208 0.39986 0.8822 0.0
H5 H 0.16343 0.46306 1.00072 0.0
Co6 Co 0.11183 0.40003 0.09898 0.0
C7 C 0.05172 0.34275 1.00585 0.0
O8 O 0.04653 0.31919 0.06427 0.0
N9 N 0.09302 0.38493 0.22603 0.0
C10 C 0.06133 0.36758 0.3605 0.0
C11 C 0.06297 0.36937 0.25503 0.0
C12 C 0.10905 0.39205 0.31443 0.0
N13 N 0.09045 0.38215 0.39686 0.0
O14 O 0.13029 0.37361 0.10737 0.0
H15 H 0.04348 0.36141 0.20395 0.0
H16 H 0.13395 0.4063 0.31902 0.0
O17 O 0.07456 0.36963 0.02495 0.0
C18 C 0.15771 0.39053 0.14286 0.0
O19 O 0.16759 0.42005 0.15722 0.0
N20 N 0.09712 0.42848 0.09682 0.0
C21 C 0.08541 0.47775 0.09608 0.0
C22 C 0.07803 0.45832 0.01079 0.0
C23 C 0.08387 0.4336 0.01306 0.0
C24 C 0.10445 0.44735 0.17991 0.0
C25 C 0.09787 0.47137 0.18242 0.0
H26 H 0.07922 0.41957 0.94554 0.0
H27 H 0.11674 0.44482 0.24356 0.0
H28 H 0.10427 0.37594 0.87389 0.0
H29 H 0.16908 0.46747 0.79763 0.0
H30 H 0.04056 0.35799 0.40685 0.0
H31 H 0.06885 0.46285 0.94197 0.0
H32 H 0.10436 0.48618 0.24902 0.0
C33 C 0.70766 0.15088 0.09706 0.0
C34 C 0.70816 0.15335 0.9916 0.0
N35 N 0.7193 0.1358 0.95331 0.0
N36 N 0.71817 0.13164 0.12405 0.0
C37 C 0.726 0.12377 0.03469 0.0
H38 H 0.6979 0.16038 0.14987 0.0
Co39 Co 0.7156 0.11281 0.25112 0.0
C40 C 0.71647 0.05475 0.1646 0.0
O41 O 0.73415 0.05189 0.23311 0.0
N42 N 0.71354 0.09394 0.37808 0.0
C43 C 0.69854 0.06185 0.5117 0.0
C44 C 0.69804 0.06386 0.40635 0.0
C45 C 0.72329 0.10958 0.4671 0.0
N46 N 0.71411 0.0908 0.54904 0.0
O47 O 0.76095 0.13371 0.25647 0.0
H48 H 0.68507 0.04475 0.35495 0.0
H49 H 0.73431 0.13439 0.47353 0.0
O50 O 0.70977 0.07621 0.1741 0.0
C51 C 0.76681 0.15953 0.29687 0.0
O52 O 0.74292 0.16336 0.31423 0.0
N53 N 0.67221 0.097 0.25446 0.0
C54 C 0.61288 0.08984 0.26306 0.0
C55 C 0.62303 0.08145 0.17479 0.0
C56 C 0.65273 0.08469 0.1728 0.0
C57 C 0.66218 0.10468 0.34078 0.0
C58 C 0.63235 0.10001 0.34824 0.0
H59 H 0.66095 0.07966 0.10312 0.0
H60 H 0.67786 0.11649 0.40276 0.0
H61 H 0.73454 0.10777 0.02781 0.0
H62 H 0.69887 0.16504 0.94654 0.0
H63 H 0.68631 0.04106 0.55747 0.0
H64 H 0.60877 0.07384 0.10681 0.0
H65 H 0.62554 0.10701 0.41735 0.0
C66 C 0.58129 0.71902 0.343 0.0
C67 C 0.57955 0.72076 0.2378 0.0
N68 N 0.60584 0.72391 0.19749 0.0
N69 N 0.6085 0.72096 0.36777 0.0
C70 C 0.62328 0.72512 0.27743 0.0
H71 H 0.56301 0.71426 0.3971 0.0
Co72 Co 0.62086 0.713 0.49443 0.0
C73 C 0.65356 0.68077 0.39962 0.0
O74 O 0.63597 0.65494 0.44955 0.0
N75 N 0.63405 0.70655 0.62235 0.0
C76 C 0.65494 0.69632 0.75723 0.0
C77 C 0.65325 0.69611 0.65177 0.0
C78 C 0.62518 0.71368 0.71094 0.0
N79 N 0.63727 0.7075 0.79333 0.0
O80 O 0.64999 0.75754 0.50963 0.0
H81 H 0.66558 0.68899 0.60125 0.0
H82 H 0.60921 0.72236 0.71543 0.0
O83 O 0.65167 0.70507 0.41909 0.0
C84 C 0.63558 0.77053 0.54783 0.0
O85 O 0.60568 0.75342 0.56405 0.0
N86 N 0.58882 0.67 0.48637 0.0
C87 C 0.53585 0.61086 0.4776 0.0
C88 C 0.55306 0.62505 0.38926 0.0
C89 C 0.57937 0.65455 0.39543 0.0
C90 C 0.5716 0.65638 0.57233 0.0
C91 C 0.54582 0.62667 0.57025 0.0
H92 H 0.59151 0.66535 0.32599 0.0
H93 H 0.57636 0.66874 0.643 0.0
H94 H 0.64558 0.72677 0.26819 0.0
H95 H 0.5597 0.71751 0.19419 0.0
H96 H 0.668 0.68887 0.80364 0.0
H97 H 0.54575 0.61381 0.31565 0.0
H98 H 0.53268 0.6168 0.6398 0.0
C99 C 0.87521 0.57351 0.48566 0.0
C100 C 0.872 0.57109 0.38067 0.0
N101 N 0.89324 0.59828 0.33963 0.0
N102 N 0.89835 0.60209 0.50969 0.0
C103 C 0.90831 0.61677 0.41887 0.0
H104 H 0.86317 0.55499 0.54042 0.0
Co105 Co 0.9179 0.61477 0.63637 0.0
C106 C 0.9796 0.67289 0.56226 0.0
O107 O 0.98461 0.69125 0.64047 0.0
N108 N 0.93722 0.62714 0.76247 0.0
C109 C 0.96845 0.63986 0.8971 0.0
C110 C 0.96688 0.63822 0.79166 0.0
C111 C 0.92134 0.62214 0.85036 0.0
N112 N 0.93958 0.62939 0.93301 0.0
O113 O 0.90188 0.64367 0.65708 0.0
H114 H 0.98574 0.64307 0.74026 0.0
H115 H 0.89656 0.61153 0.85452 0.0
O116 O 0.95602 0.64554 0.56295 0.0
C117 C 0.87383 0.63754 0.64284 0.0
O118 O 0.85751 0.61857 0.56926 0.0
N119 N 0.93021 0.5845 0.62658 0.0
C120 C 0.94011 0.53406 0.61972 0.0
C121 C 0.9488 0.55481 0.53727 0.0
C122 C 0.94353 0.5799 0.5422 0.0
C123 C 0.9213 0.56416 0.70655 0.0
C124 C 0.92663 0.53926 0.70564 0.0
H125 H 0.94889 0.59482 0.47652 0.0
H126 H 0.90905 0.56659 0.7707 0.0
H127 H 0.92783 0.63983 0.40932 0.0
H128 H 0.8571 0.55039 0.33772 0.0
H129 H 0.98866 0.64635 0.94387 0.0
H130 H 0.9586 0.55107 0.46855 0.0
H131 H 0.91901 0.52334 0.76976 0.0
C132 C 0.30132 0.84992 0.57636 0.0
C133 C 0.30158 0.84623 0.47162 0.0
N134 N 0.30117 0.87034 0.42715 0.0
N135 N 0.3009 0.87625 0.59622 0.0
C136 C 0.30081 0.88798 0.50344 0.0
H137 H 0.30269 0.83513 0.63418 0.0
Co138 Co 0.30486 0.8948 0.72239 0.0
C139 C 0.32353 0.96004 0.66497 0.0
O140 O 0.34462 0.96829 0.73686 0.0
N141 N 0.30823 0.91288 0.85194 0.0
C142 C 0.2943 0.93029 0.9874 0.0
C143 C 0.29448 0.92907 0.8821 0.0
C144 C 0.31581 0.90431 0.94057 0.0
N145 N 0.30756 0.91444 0.02305 0.0
O146 O 0.25949 0.87197 0.74017 0.0
H147 H 0.28253 0.9368 0.83167 0.0
H148 H 0.3236 0.88777 0.94673 0.0
O149 O 0.30519 0.93101 0.65221 0.0
C150 C 0.25472 0.8491 0.79757 0.0
O151 O 0.27919 0.84734 0.82456 0.0
N152 N 0.34863 0.91225 0.71141 0.0
C153 C 0.41016 0.92471 0.70611 0.0
C154 C 0.39991 0.93941 0.63738 0.0
C155 C 0.36885 0.93262 0.64059 0.0
C156 C 0.35802 0.89633 0.77247 0.0
C157 C 0.38867 0.9031 0.77456 0.0
H158 H 0.36095 0.94266 0.58316 0.0
H159 H 0.34121 0.87672 0.81563 0.0
H160 H 0.30235 0.90994 0.49002 0.0
H161 H 0.30296 0.82803 0.43148 0.0
H162 H 0.28275 0.93941 0.03389 0.0
H163 H 0.41545 0.95516 0.57984 0.0
H164 H 0.39513 0.89006 0.82524 0.0
C165 C 0.45948 0.30015 0.75419 0.0
C166 C 0.46455 0.30071 0.65022 0.0
N167 N 0.4461 0.30947 0.60383 0.0
N168 N 0.43835 0.309 0.77235 0.0
C169 C 0.43053 0.31418 0.6786 0.0
H170 H 0.47081 0.29408 0.81284 0.0
Co171 Co 0.42433 0.31419 0.89948 0.0
C172 C 0.37233 0.32879 0.82681 0.0
O173 O 0.36599 0.33805 0.91267 0.0
N174 N 0.41108 0.31871 0.02677 0.0
C175 C 0.38383 0.30664 0.17063 0.0
C176 C 0.38215 0.30551 0.06546 0.0
C177 C 0.42986 0.32754 0.10899 0.0
N178 N 0.41388 0.32035 0.19728 0.0
O179 O 0.39704 0.2693 0.91113 0.0
H180 H 0.36123 0.29257 0.02123 0.0
H181 H 0.45442 0.33563 0.10438 0.0
O182 O 0.39254 0.32004 0.82509 0.0
C183 C 0.41087 0.25844 0.96539 0.0
O184 O 0.43921 0.27766 0.99592 0.0
N185 N 0.45348 0.35717 0.89574 0.0
C186 C 0.50191 0.41824 0.91454 0.0
C187 C 0.47099 0.41137 0.91791 0.0
C188 C 0.44703 0.38051 0.90964 0.0
C189 C 0.48353 0.36367 0.8951 0.0
C190 C 0.50802 0.39398 0.90299 0.0
H191 H 0.4235 0.37547 0.91796 0.0
H192 H 0.48868 0.34511 0.89267 0.0
H193 H 0.41378 0.32128 0.66343 0.0
H194 H 0.48022 0.29495 0.61169 0.0
H195 H 0.36454 0.2954 0.22325 0.0
H196 H 0.46548 0.42955 0.92955 0.0
H197 H 0.53161 0.39838 0.9029 0.0
C198 C 0.57471 0.87256 0.8728 0.0
C199 C 0.5725 0.86962 0.97812 0.0
N200 N 0.59931 0.89185 0.01818 0.0
N201 N 0.60276 0.89652 0.84763 0.0
C202 C 0.61738 0.90708 0.938 0.0
H203 H 0.5563 0.85968 0.81869 0.0
Co204 Co 0.61585 0.9163 0.72087 0.0
C205 C 0.67272 0.97641 0.79698 0.0
O206 O 0.69139 0.97888 0.72209 0.0
N207 N 0.6289 0.93592 0.59396 0.0
C208 C 0.64022 0.96759 0.46041 0.0
C209 C 0.63915 0.96557 0.56589 0.0
C210 C 0.62378 0.92049 0.50504 0.0
N211 N 0.6304 0.93908 0.42321 0.0
O212 O 0.64599 0.902 0.71001 0.0
H213 H 0.64346 0.98406 0.61801 0.0
H214 H 0.61298 0.89563 0.49981 0.0
O215 O 0.64455 0.95449 0.79555 0.0
C216 C 0.63273 0.87447 0.67349 0.0
O217 O 0.6028 0.86048 0.65646 0.0
N218 N 0.58405 0.92669 0.72466 0.0
C219 C 0.53085 0.93235 0.71933 0.0
C220 C 0.55091 0.94298 0.80399 0.0
C221 C 0.57765 0.94016 0.80477 0.0
C222 C 0.56441 0.91589 0.64311 0.0
C223 C 0.53848 0.91945 0.63729 0.0
H224 H 0.59231 0.94739 0.87161 0.0
H225 H 0.56818 0.9034 0.58289 0.0
H226 H 0.64025 0.92693 0.94679 0.0
H227 H 0.55211 0.85407 0.02182 0.0
H228 H 0.64588 0.98786 0.41474 0.0
H229 H 0.5455 0.95253 0.86984 0.0
H230 H 0.52341 0.91051 0.57137 0.0
C231 C 0.7114 0.56682 0.11413 0.0
C232 C 0.71185 0.5655 0.21943 0.0
N233 N 0.72619 0.59464 0.25489 0.0
N234 N 0.72472 0.59669 0.08428 0.0
C235 C 0.73459 0.61299 0.17189 0.0
H236 H 0.69952 0.5472 0.06378 0.0
Co237 Co 0.72079 0.61207 0.95822 0.0
C238 C 0.72611 0.66999 0.06624 0.0
O239 O 0.75423 0.69038 0.03651 0.0
N240 N 0.71708 0.62718 0.83181 0.0
C241 C 0.71842 0.65571 0.69856 0.0
C242 C 0.71782 0.65363 0.80398 0.0
C243 C 0.71719 0.61367 0.74276 0.0
N244 N 0.71802 0.63045 0.66104 0.0
O245 O 0.76575 0.63897 0.94945 0.0
H246 H 0.71921 0.67102 0.85595 0.0
H247 H 0.71818 0.59258 0.73737 0.0
O248 O 0.71358 0.64212 0.03411 0.0
C249 C 0.77592 0.62328 0.90248 0.0
O250 O 0.7559 0.59419 0.88242 0.0
N251 N 0.67769 0.58333 0.95867 0.0
C252 C 0.61666 0.53428 0.95042 0.0
C253 C 0.62425 0.56053 0.00965 0.0
C254 C 0.65506 0.58484 0.01332 0.0
C255 C 0.67043 0.55794 0.90068 0.0
C256 C 0.64012 0.53327 0.89507 0.0
H257 H 0.66052 0.60424 0.06217 0.0
H258 H 0.68857 0.55631 0.86106 0.0
H259 H 0.74517 0.63778 0.17629 0.0
H260 H 0.70026 0.54489 0.26636 0.0
H261 H 0.71996 0.67459 0.65312 0.0
H262 H 0.60665 0.56188 0.05423 0.0
H263 H 0.63514 0.51321 0.84957 0.0
C264 C 0.15453 0.72235 0.23908 0.0
C265 C 0.15635 0.72254 0.34441 0.0
N266 N 0.12802 0.70257 0.38023 0.0
N267 N 0.12507 0.7026 0.20958 0.0
C268 C 0.10984 0.6907 0.29836 0.0
H269 H 0.17328 0.73708 0.1888 0.0
Co270 Co 0.10608 0.69569 0.07983 0.0
C271 C 0.06314 0.71101 0.20744 0.0
O272 O 0.06557 0.69141 0.14894 0.0
N273 N 0.08657 0.68822 0.95143 0.0
C274 C 0.05335 0.66299 0.82538 0.0
C275 C 0.05721 0.66597 0.92987 0.0
C276 C 0.09974 0.69878 0.85903 0.0
N277 N 0.0802 0.68383 0.78213 0.0
O278 O 0.12697 0.74095 0.05501 0.0
H279 H 0.04048 0.65109 0.98624 0.0
H280 H 0.12383 0.7153 0.84609 0.0
O281 O 0.0669 0.69232 0.14859 0.0
C282 C 0.15186 0.74558 0.00959 0.0
O283 O 0.15459 0.72092 0.99732 0.0
N284 N 0.09134 0.65268 0.09262 0.0
C285 C 0.08242 0.59277 0.09174 0.0
C286 C 0.06501 0.6005 0.15725 0.0
C287 C 0.06946 0.6306 0.15523 0.0
C288 C 0.1077 0.64505 0.027 0.0
C289 C 0.10323 0.61524 0.02392 0.0
H290 H 0.05595 0.63604 0.20585 0.0
H291 H 0.12475 0.66242 0.97687 0.0
H292 H 0.08529 0.67518 0.30514 0.0
H293 H 0.1763 0.73725 0.39092 0.0
H294 H 0.03339 0.64557 0.78458 0.0
H295 H 0.04866 0.58365 0.21075 0.0
H296 H 0.11701 0.61013 0.97197 0.0
C297 C 0.41454 0.15952 0.43106 0.0
C298 C 0.41693 0.16387 0.53498 0.0
N299 N 0.43018 0.14836 0.57329 0.0
N300 N 0.42685 0.14179 0.40234 0.0
C301 C 0.43762 0.13692 0.49157 0.0
H302 H 0.40143 0.16638 0.38325 0.0
Co303 Co 0.42059 0.12004 0.27502 0.0
C304 C 0.37312 0.05224 0.34313 0.0
O305 O 0.38025 0.03989 0.26699 0.0
N306 N 0.41453 0.09898 0.14701 0.0
C307 C 0.42454 0.07842 0.0101 0.0
C308 C 0.42435 0.0794 0.11546 0.0
C309 C 0.40777 0.10829 0.05821 0.0
N310 N 0.41487 0.09743 0.97493 0.0
O311 O 0.39387 0.13612 0.2252 0.0
H312 H 0.43354 0.06847 0.16427 0.0
H313 H 0.39947 0.12432 0.05195 0.0
O314 O 0.38586 0.08201 0.34746 0.0
C315 C 0.41136 0.16399 0.19174 0.0
O316 O 0.44086 0.178 0.21609 0.0
N317 N 0.45109 0.10964 0.30967 0.0
C318 C 0.50266 0.10151 0.30137 0.0
C319 C 0.47616 0.08088 0.35706 0.0
C320 C 0.45022 0.08488 0.35821 0.0
C321 C 0.47734 0.13073 0.26038 0.0
C322 C 0.50299 0.12673 0.25301 0.0
H323 H 0.42954 0.06737 0.39434 0.0
H324 H 0.47757 0.14988 0.22071 0.0
H325 H 0.44818 0.12271 0.49903 0.0
H326 H 0.40596 0.17393 0.57998 0.0
H327 H 0.43387 0.06712 0.96338 0.0
H328 H 0.47511 0.06116 0.39574 0.0
H329 H 0.52292 0.14317 0.2091 0.0
C330 C 0.28501 0.42752 0.55891 0.0
C331 C 0.28275 0.42714 0.66434 0.0
N332 N 0.30186 0.41788 0.70204 0.0
N333 N 0.30536 0.41838 0.53105 0.0
C334 C 0.31516 0.41287 0.62097 0.0
H335 H 0.2724 0.43406 0.5072 0.0
Co336 Co 0.31886 0.41267 0.4023 0.0
C337 C 0.31518 0.35177 0.4734 0.0
O338 O 0.29206 0.33192 0.41665 0.0
N339 N 0.33301 0.4063 0.27472 0.0
C340 C 0.3638 0.41298 0.14142 0.0
C341 C 0.36231 0.41462 0.24624 0.0
C342 C 0.31697 0.39747 0.18624 0.0
N343 N 0.3352 0.40268 0.10437 0.0
O344 O 0.27565 0.38477 0.3605 0.0
H345 H 0.38205 0.42366 0.29667 0.0
H346 H 0.29253 0.38871 0.17947 0.0
O347 O 0.32501 0.38064 0.4648 0.0
C348 C 0.26501 0.40132 0.32103 0.0
O349 O 0.28272 0.43153 0.3248 0.0
N350 N 0.35951 0.4434 0.43523 0.0
C351 C 0.41809 0.49558 0.45641 0.0
C352 C 0.41068 0.4679 0.50737 0.0
C353 C 0.38119 0.44181 0.49496 0.0
C354 C 0.36628 0.47029 0.38707 0.0
C355 C 0.39549 0.49648 0.39543 0.0
H356 H 0.37611 0.42055 0.53264 0.0
H357 H 0.34887 0.47112 0.33999 0.0
H358 H 0.33183 0.4052 0.62851 0.0
H359 H 0.26844 0.43325 0.70963 0.0
H360 H 0.38456 0.42128 0.09561 0.0
H361 H 0.42758 0.46646 0.55553 0.0
H362 H 0.40034 0.51744 0.35524 0.0
C363 C 0.87663 0.32002 0.71 0.0
C364 C 0.87323 0.31904 0.81513 0.0
N365 N 0.89199 0.30963 0.85549 0.0
N366 N 0.89762 0.31153 0.68534 0.0
C367 C 0.90583 0.30457 0.77577 0.0
H368 H 0.86639 0.32871 0.65584 0.0
Co369 Co 0.91696 0.31595 0.55861 0.0
C370 C 0.98204 0.3368 0.63675 0.0
O371 O 0.99461 0.35865 0.56703 0.0
N372 N 0.93572 0.31921 0.42969 0.0
C373 C 0.95932 0.3114 0.297 0.0
C374 C 0.95812 0.31278 0.40231 0.0
C375 C 0.92321 0.32064 0.3395 0.0
N376 N 0.93717 0.31634 0.25883 0.0
O377 O 0.89432 0.27072 0.54196 0.0
H378 H 0.97117 0.30695 0.45462 0.0
H379 H 0.90252 0.32226 0.33164 0.0
O380 O 0.95284 0.31734 0.63338 0.0
C381 C 0.8704 0.26631 0.49134 0.0
O382 O 0.86864 0.29121 0.47182 0.0
N383 N 0.93457 0.35985 0.56849 0.0
C384 C 0.94468 0.42011 0.59153 0.0
C385 C 0.95356 0.4065 0.6684 0.0
C386 C 0.94807 0.37621 0.6555 0.0
C387 C 0.92579 0.37312 0.49401 0.0
C388 C 0.93136 0.40328 0.50262 0.0
H389 H 0.95262 0.36515 0.71858 0.0
H390 H 0.91184 0.35976 0.43121 0.0
H391 H 0.92334 0.29802 0.78499 0.0
H392 H 0.86 0.32689 0.85868 0.0
H393 H 0.97397 0.30556 0.25246 0.0
H394 H 0.963 0.41845 0.73984 0.0
H395 H 0.9231 0.41258 0.44336 0.0
C396 C 0.10922 0.56246 0.12418 0.0
C397 C 0.08156 0.56248 0.09892 0.0
C398 C 0.05493 0.50593 0.08066 0.0
C399 C 0.08369 0.50678 0.09246 0.0
N400 N 0.13954 0.53762 0.09795 0.0
N401 N 0.02906 0.5346 0.03624 0.0
C402 C 0.11124 0.53558 0.10626 0.0
C403 C 0.05458 0.53428 0.07259 0.0
N404 N 0.13338 0.5879 0.16803 0.0
N405 N 0.02793 0.47822 0.08045 0.0
H406 H 0.02805 0.55486 0.02824 0.0
H407 H 1.00997 0.51515 1.00587 0.0
H408 H 0.02723 0.45707 0.08762 0.0
H409 H 1.00617 0.47636 0.08232 0.0
H410 H 0.15295 0.58795 0.19636 0.0
H411 H 0.13239 0.60771 0.18646 0.0
H412 H 0.16027 0.55864 0.09804 0.0
H413 H 0.14222 0.51879 0.07925 0.0
C414 C 0.5278 0.06984 0.25085 0.0
C415 C 0.5303 0.09731 0.29276 0.0
C416 C 0.58668 0.12109 0.29003 0.0
C417 C 0.58413 0.09225 0.26474 0.0
N418 N 0.55108 0.03739 0.23832 0.0
N419 N 0.56257 0.14615 0.37697 0.0
C420 C 0.55433 0.06604 0.24987 0.0
C421 C 0.5599 0.12208 0.31974 0.0
N422 N 0.50068 0.04801 0.20775 0.0
N423 N 0.61456 0.14781 0.28258 0.0
H424 H 0.54345 0.14697 0.40552 0.0
H425 H 0.58369 0.1634 0.40565 0.0
H426 H 0.63448 0.14837 0.25501 0.0
H427 H 0.61693 0.16962 0.2922 0.0
H428 H 0.49865 0.02905 0.16784 0.0
H429 H 0.48117 0.05048 0.20235 0.0
H430 H 0.52959 0.01719 0.23741 0.0
H431 H 0.56981 0.03356 0.23917 0.0
C432 C 0.47632 0.52561 0.42982 0.0
C433 C 0.44894 0.52418 0.46818 0.0
C434 C 0.47797 0.57996 0.50047 0.0
C435 C 0.50596 0.58088 0.47263 0.0
N436 N 0.53248 0.55309 0.42984 0.0
N437 N 0.42566 0.54865 0.56367 0.0
C438 C 0.50537 0.55324 0.44282 0.0
C439 C 0.4504 0.55097 0.51083 0.0
N440 N 0.47453 0.50118 0.37709 0.0
N441 N 0.47729 0.60681 0.51251 0.0
H442 H 0.40535 0.52763 0.57569 0.0
H443 H 0.42658 0.56697 0.60464 0.0
H444 H 0.49662 0.62863 0.50112 0.0
H445 H 0.45684 0.60735 0.52286 0.0
H446 H 0.49327 0.50222 0.33821 0.0
H447 H 0.45374 0.48076 0.36435 0.0
H448 H 0.53342 0.53293 0.4184 0.0
H449 H 0.55415 0.57271 0.43994 0.0
C450 C 0.97243 0.47865 0.60329 0.0
C451 C 0.9446 0.44967 0.6082 0.0
C452 C 0.91433 0.47613 0.60974 0.0
C453 C 0.94209 0.50519 0.61323 0.0
N454 N 0.99763 0.53411 0.63091 0.0
N455 N 0.88968 0.42108 0.64154 0.0
C456 C 0.97123 0.50648 0.61501 0.0
C457 C 0.91574 0.44854 0.61933 0.0
N458 N 0.99985 0.47962 0.58419 0.0
N459 N 0.88662 0.4748 0.59283 0.0
H460 H 0.88986 0.40042 0.65127 0.0
H461 H 0.8686 0.4194 0.6607 0.0
H462 H 0.88459 0.49442 0.5822 0.0
H463 H 0.86612 0.45422 0.57892 0.0
H464 H 0.0204 0.49998 0.56839 0.0
H465 H 1.00161 0.45974 0.57706 0.0
H466 H 0.01918 0.53613 0.64364 0.0
H467 H 0.9976 0.55486 0.63966 0.0
C468 C 0.44465 0.9019 0.68248 0.0
C469 C 0.44193 0.92845 0.70079 0.0
C470 C 0.49853 0.95903 0.72234 0.0
C471 C 0.5003 0.93147 0.71864 0.0
N472 N 0.47292 0.8756 0.72188 0.0
N473 N 0.46616 0.98176 0.75418 0.0
C474 C 0.47271 0.90258 0.70642 0.0
C475 C 0.46887 0.95697 0.72496 0.0
N476 N 0.42062 0.87614 0.63971 0.0
N477 N 0.52502 0.98717 0.7198 0.0
H478 H 0.44496 0.98112 0.75768 0.0
H479 H 0.4846 1.00204 0.78303 0.0
H480 H 0.54703 0.98963 0.71624 0.0
H481 H 0.52502 1.00794 0.71189 0.0
H482 H 0.42248 0.85717 0.61651 0.0
H483 H 0.40011 0.87518 0.61686 0.0
H484 H 0.45279 0.85404 0.72291 0.0
H485 H 0.49259 0.87496 0.74533 0.0
C486 C 0.56633 0.50104 0.8588 0.0
C487 C 0.5846 0.50707 0.94821 0.0
C488 C 0.54413 0.45846 0.02409 0.0
C489 C 0.52824 0.45036 0.9292 0.0
N490 N 0.52464 0.46291 0.75356 0.0
N491 N 0.59234 0.49056 0.11371 0.0
C492 C 0.53926 0.47154 0.84604 0.0
C493 C 0.57373 0.48568 0.03089 0.0
N494 N 0.57477 0.52374 0.78671 0.0
N495 N 0.5307 0.44018 0.108 0.0
H496 H 0.614 0.51029 0.12228 0.0
H497 H 0.58734 0.47409 0.17063 0.0
H498 H 0.50907 0.4201 0.10547 0.0
H499 H 0.53955 0.4463 0.1817 0.0
H500 H 0.561 0.52204 0.72445 0.0
H501 H 0.59443 0.54554 0.79408 0.0
H502 H 0.53351 0.47572 0.68671 0.0
H503 H 0.50443 0.44181 0.74202 0.0
C504 C 0.02111 0.35992 0.89842 0.0
C505 C 0.03162 0.33863 0.91444 0.0
C506 C 1.00653 0.31348 0.75163 0.0
C507 C 1.00057 0.33793 0.72935 0.0
N508 N 1.01227 0.38994 0.77328 0.0
N509 N 0.03873 0.29786 0.8442 0.0
C510 C 1.01091 0.36284 0.79993 0.0
C511 C 0.02535 0.31591 0.83805 0.0
N512 N 0.01964 0.37666 0.9783 0.0
N513 N 0.99481 0.28819 0.6895 0.0
H514 H 0.05348 0.29959 0.90341 0.0
H515 H 0.03757 0.28324 0.78553 0.0
H516 H 0.98255 0.2864 0.62284 0.0
H517 H 0.99556 0.26826 0.70789 0.0
H518 H 1.00986 0.3908 0.97176 0.0
H519 H 0.0253 0.37395 0.05288 0.0
H520 H 0.02204 0.40931 0.82061 0.0
H521 H 1.00753 0.39458 0.70014 0.0
C522 C 0.66636 1.00827 0.93676 0.0
C523 C 0.68474 0.99739 0.88913 0.0
C524 C 0.72577 0.02745 0.01498 0.0
C525 C 0.70541 0.03412 0.07155 0.0
N526 N 0.65251 0.02177 0.09778 0.0
N527 N 0.72936 0.99049 0.90521 0.0
C528 C 0.67457 0.02193 0.03571 0.0
C529 C 0.71377 1.00524 0.93438 0.0
N530 N 0.64181 1.00698 0.88623 0.0
N531 N 0.75682 0.04308 0.03438 0.0
H532 H 0.72059 0.9724 0.85288 0.0
H533 H 0.74919 0.99367 0.94268 0.0
H534 H 0.76705 0.06083 0.08778 0.0
H535 H 0.77274 0.04084 0.98874 0.0
H536 H 0.62925 0.01686 0.91516 0.0
H537 H 0.63651 0.99948 0.81075 0.0
H538 H 0.62917 0.01089 0.07762 0.0
H539 H 0.65696 0.02921 0.17351 0.0
C540 C 0.70587 0.69489 0.32185 0.0
C541 C 0.67319 0.68041 0.31253 0.0
C542 C 0.67777 0.66773 0.13382 0.0
C543 C 0.70952 0.67753 0.14769 0.0
N544 N 0.75277 0.69614 0.26498 0.0
N545 N 0.62789 0.64503 0.21508 0.0
C546 C 0.72348 0.6903 0.24415 0.0
C547 C 0.65906 0.66464 0.22001 0.0
N548 N 0.72014 0.71251 0.40576 0.0
N549 N 0.66533 0.66154 0.03788 0.0
H550 H 0.61367 0.63894 0.27886 0.0
H551 H 0.61698 0.63135 0.15146 0.0
H552 H 0.67847 0.66416 0.97267 0.0
H553 H 0.64295 0.65711 0.02264 0.0
H554 H 0.7441 0.72622 0.41194 0.0
H555 H 0.70795 0.71529 0.46572 0.0
H556 H 0.76249 0.70176 0.33775 0.0
H557 H 0.76646 0.69273 0.21255 0.0
C558 C 1.01291 0.71375 0.42699 0.0
C559 C 1.00114 0.68373 0.47085 0.0
C560 C 0.01993 0.66919 0.31992 0.0
C561 C 0.03768 0.70048 0.28712 0.0
N562 N 0.05235 0.75369 0.31905 0.0
N563 N 1.00576 0.63789 0.47175 0.0
C564 C 0.03461 0.72314 0.34389 0.0
C565 C 1.00827 0.66289 0.42115 0.0
N566 N 1.00251 0.73284 0.46027 0.0
N567 N 1.01182 0.64522 0.25433 0.0
H568 H 1.00057 0.63436 0.54966 0.0
H569 H 1.01248 0.62315 0.43852 0.0
H570 H 1.0147 0.64834 0.17547 0.0
H571 H 0.99782 0.62226 0.2773 0.0
H572 H 1.0084 0.75375 0.4245 0.0
H573 H 0.9854 0.72639 0.51587 0.0
H574 H 0.05361 0.77133 0.3649 0.0
H575 H 0.06727 0.76141 0.25621 0.0
C576 C 0.36441 0.03735 0.53505 0.0
C577 C 0.35417 0.03097 0.4313 0.0
C578 C 0.31354 0.97872 0.4892 0.0
C579 C 0.32649 0.9847 0.58934 0.0
N580 N 0.35079 0.02509 0.7132 0.0
N581 N 0.31441 0.99571 0.31539 0.0
C582 C 0.34753 0.01579 0.61377 0.0
C583 C 0.32732 1.00175 0.41058 0.0
N584 N 0.39177 0.06264 0.55928 0.0
N585 N 0.28662 0.95243 0.46772 0.0
H586 H 0.32212 0.01232 0.25743 0.0
H587 H 0.29541 0.97436 0.29605 0.0
H588 H 0.27295 0.93612 0.52275 0.0
H589 H 0.27295 0.93612 0.52275 0.0
H590 H 0.40252 0.06557 0.63004 0.0
H591 H 0.4048 0.07921 0.50615 0.0
H592 H 0.36517 0.04784 0.73544 0.0
H593 H 0.33615 0.01076 0.77096 0.0
C594 C 0.3249 0.3145 0.71888 0.0
C595 C 0.35765 0.3313 0.72936 0.0
C596 C 0.36156 0.35417 0.55876 0.0
C597 C 0.32897 0.34126 0.5555 0.0
N598 N 0.27937 0.31102 0.63857 0.0
N599 N 0.40704 0.37105 0.66374 0.0
C600 C 0.31048 0.32161 0.63669 0.0
C601 C 0.37598 0.352 0.65007 0.0
N602 N 0.30756 0.29137 0.78685 0.0
N603 N 0.3788 0.368 0.4733 0.0
H604 H 0.41869 0.37032 0.72854 0.0
H605 H 0.42082 0.38919 0.61428 0.0
H606 H 0.36896 0.36938 0.40449 0.0
H607 H 0.40228 0.37525 0.46774 0.0
H608 H 0.28397 0.27609 0.77797 0.0
H609 H 0.31734 0.28557 0.84741 0.0
H610 H 0.26511 0.299 0.70005 0.0
H611 H 0.26794 0.31628 0.5823 0.0
C612 C 0.17824 0.3641 0.25768 0.0
C613 C 0.18014 0.37964 0.16499 0.0
C614 C 0.23627 0.40084 0.1598 0.0
C615 C 0.23541 0.38853 0.25993 0.0
N616 N 0.20505 0.35701 0.40203 0.0
N617 N 0.20762 0.40151 0.00983 0.0
C618 C 0.20608 0.36882 0.30679 0.0
C619 C 0.20816 0.39404 0.11013 0.0
N620 N 0.14965 0.34477 0.29772 0.0
N621 N 0.26389 0.42109 0.11465 0.0
H622 H 0.18702 0.39662 0.97342 0.0
H623 H 0.22647 0.40922 0.96053 0.0
H624 H 0.2854 0.42749 0.14571 0.0
H625 H 0.26576 0.43366 0.04876 0.0
H626 H 0.14565 0.33026 0.35999 0.0
H627 H 0.12948 0.34133 0.26185 0.0
H628 H 0.18505 0.34533 0.4459 0.0
H629 H 0.22468 0.35981 0.43976 0.0
C630 C 0.80066 0.21516 0.33236 0.0
C631 C 0.79811 0.18569 0.32946 0.0
C632 C 0.84732 0.20882 0.42745 0.0
C633 C 0.84501 0.23585 0.44763 0.0
N634 N 0.80784 0.25383 0.45349 0.0
N635 N 0.81866 0.15366 0.38963 0.0
C636 C 0.81822 0.23582 0.41028 0.0
C637 C 0.82142 0.18214 0.38103 0.0
N638 N 0.78538 0.2232 0.26332 0.0
N639 N 0.87375 0.20828 0.4496 0.0
H640 H 0.80075 0.13397 0.35604 0.0
H641 H 0.83315 0.14943 0.43604 0.0
H642 H 0.89308 0.22664 0.48293 0.0
H643 H 0.87725 0.19026 0.42688 0.0
H644 H 0.78776 0.2452 0.2624 0.0
H645 H 0.7735 0.20912 0.20122 0.0
H646 H 0.78751 0.25306 0.42928 0.0
H647 H 0.81666 0.26554 0.52223 0.0
C648 C 0.65503 0.85429 0.54324 0.0
C649 C 0.64909 0.85705 0.64764 0.0
C650 C 0.65263 0.81066 0.68476 0.0
C651 C 0.65058 0.80385 0.57881 0.0
N652 N 0.65196 0.82022 0.40521 0.0
N653 N 0.64456 0.83917 0.82065 0.0
C654 C 0.65315 0.82636 0.50727 0.0
C655 C 0.64927 0.83593 0.71966 0.0
N656 N 0.6624 0.8785 0.479 0.0
N657 N 0.65767 0.79268 0.75151 0.0
H658 H 0.64345 0.85824 0.84789 0.0
H659 H 0.64068 0.82263 0.8762 0.0
H660 H 0.66183 0.77538 0.72542 0.0
H661 H 0.66123 0.7972 0.82944 0.0
H662 H 0.66905 0.87906 0.40324 0.0
H663 H 0.66528 0.89939 0.50633 0.0
H664 H 0.64998 0.83388 0.34877 0.0
H665 H 0.65178 0.80051 0.37765 0.0
C666 C 0.82452 0.66157 0.80118 0.0
C667 C 0.80875 0.63533 0.86663 0.0
C668 C 0.84005 0.6141 0.79811 0.0
C669 C 0.85554 0.6397 0.73052 0.0
N670 N 0.8675 0.69099 0.683 0.0
N671 N 0.81143 0.5947 0.95622 0.0
C672 C 0.84957 0.66467 0.73791 0.0
C673 C 0.82017 0.61453 0.87494 0.0
N674 N 0.81463 0.68255 0.79519 0.0
N675 N 0.84238 0.58819 0.78473 0.0
H676 H 0.79728 0.59506 0.01449 0.0
H677 H 0.82098 0.58067 0.97103 0.0
H678 H 0.85669 0.58655 0.72987 0.0
H679 H 0.8286 0.56762 0.82429 0.0
H680 H 0.82242 0.70001 0.74037 0.0
H681 H 0.79756 0.68178 0.843 0.0
H682 H 0.86627 0.71111 0.69021 0.0
H683 H 0.88548 0.69338 0.63587 0.0
C684 C 0.19966 0.82718 0.87769 0.0
C685 C 0.22372 0.82322 0.83407 0.0
C686 C 0.20461 0.77564 0.93118 0.0
C687 C 0.17718 0.77558 0.96194 0.0
N688 N 0.14745 0.80195 0.94828 0.0
N689 N 0.23849 0.78558 0.78829 0.0
C690 C 0.17415 0.80152 0.93038 0.0
C691 C 0.22223 0.79454 0.84947 0.0
N692 N 0.20147 0.85531 0.87298 0.0
N693 N 0.21537 0.75921 0.98333 0.0
H694 H 0.25046 0.79823 0.72363 0.0
H695 H 0.23683 0.76397 0.79596 0.0
H696 H 0.20618 0.74859 0.05335 0.0
H697 H 0.23619 0.76021 0.96422 0.0
H698 H 0.18648 0.86036 0.91311 0.0
H699 H 0.21923 0.87414 0.83467 0.0
H700 H 0.14323 0.81875 0.91732 0.0
H701 H 0.12873 0.78465 0.98798 0.0
C702 C 0.37857 0.18773 0.13526 0.0
C703 C 0.40157 0.17957 0.11295 0.0
C704 C 0.41468 0.21116 0.95563 0.0
C705 C 0.39789 0.22498 0.99162 0.0
N706 N 0.35877 0.22302 0.10236 0.0
N707 N 0.44188 0.18403 0.99724 0.0
C708 C 0.37767 0.21165 0.0763 0.0
C709 C 0.41924 0.1909 0.02054 0.0
N710 N 0.35854 0.17352 0.21454 0.0
N711 N 0.42685 0.2182 0.85924 0.0
H712 H 0.44631 0.16908 0.03992 0.0
H713 H 0.45783 0.19474 0.93835 0.0
H714 H 0.42342 0.23306 0.81163 0.0
H715 H 0.43701 0.20688 0.82317 0.0
H716 H 0.34023 0.17706 0.2325 0.0
H717 H 0.35903 0.15645 0.25912 0.0
H718 H 0.34551 0.21714 0.16872 0.0
H719 H 0.35696 0.23914 0.05639 0.0
C720 C 0.09703 0.41391 0.54983 0.0
C721 C 0.10043 0.39048 0.50094 0.0
C722 C 0.13057 0.38884 0.64569 0.0
C723 C 0.12576 0.41094 0.69767 0.0
N724 N 0.09831 0.4392 0.70893 0.0
N725 N 0.11832 0.35384 0.50465 0.0
C726 C 0.10733 0.42211 0.65235 0.0
C727 C 0.11649 0.37743 0.54991 0.0
N728 N 0.08524 0.42927 0.49668 0.0
N729 N 0.14841 0.37799 0.68664 0.0
H730 H 0.10683 0.34381 0.43653 0.0
H731 H 0.13018 0.34371 0.53776 0.0
H732 H 0.16015 0.38564 0.756 0.0
H733 H 0.16015 0.38564 0.756 0.0
H734 H 0.08522 0.44878 0.52453 0.0
H735 H 0.07791 0.42415 0.421 0.0
H736 H 0.08193 0.44489 0.68396 0.0
H737 H 0.10507 0.44541 0.78449 0.0
C738 C 0.74553 0.13309 0.79694 0.0
C739 C 0.71778 0.12544 0.84955 0.0
C740 C 0.68747 0.09567 0.70172 0.0
C741 C 0.71506 0.10088 0.65283 0.0
N742 N 0.77003 0.12133 0.65688 0.0
N743 N 0.66224 0.09393 0.86143 0.0
C744 C 0.74407 0.11875 0.70151 0.0
C745 C 0.68868 0.10515 0.80463 0.0
N746 N 0.77318 0.1546 0.83787 0.0
N747 N 0.66037 0.08319 0.64821 0.0
H748 H 0.66212 0.10019 0.93721 0.0
H749 H 0.64082 0.07632 0.8362 0.0
H750 H 0.65875 0.07714 0.57136 0.0
H751 H 0.64022 0.08179 0.67704 0.0
H752 H 0.79427 0.16344 0.79983 0.0
H753 H 0.77462 0.16546 0.9074 0.0
H754 H 0.79166 0.13182 0.69178 0.0
H755 H 0.76933 0.1107 0.58754 0.0
C756 C 0.6496 0.73807 0.95138 0.0
C757 C 0.63036 0.71045 0.89798 0.0
C758 C 0.59518 0.69066 0.04475 0.0
C759 C 0.61237 0.71991 0.09304 0.0
N760 N 0.65371 0.77267 0.08806 0.0
N761 N 0.58394 0.66102 0.88807 0.0
C762 C 0.63904 0.74397 0.04496 0.0
C763 C 0.60281 0.68692 0.94307 0.0
N764 N 0.67823 0.75826 0.9133 0.0
N765 N 0.57282 0.66602 0.0979 0.0
H766 H 0.59001 0.65686 0.81594 0.0
H767 H 0.56171 0.6446 0.91143 0.0
H768 H 0.56674 0.66759 0.1728 0.0
H769 H 0.56204 0.64341 0.07086 0.0
H770 H 0.69469 0.77752 0.95314 0.0
H771 H 0.68631 0.75431 0.84458 0.0
H772 H 0.67163 0.79203 0.05243 0.0
H773 H 0.64599 0.7776 0.15582 0.0
C774 C 0.93007 0.59778 0.08876 0.0
C775 C 0.92871 0.62199 0.03678 0.0
C776 C 0.89949 0.62678 0.17938 0.0
C777 C 0.9035 0.60471 0.23504 0.0
N778 N 0.9275 0.57328 0.251 0.0
N779 N 0.91547 0.66209 0.03469 0.0
C780 C 0.92017 0.59131 0.19206 0.0
C781 C 0.91425 0.63719 0.08276 0.0
N782 N 0.9393 0.57991 0.03774 0.0
N783 N 0.88103 0.63722 0.21881 0.0
H784 H 0.92661 0.67036 0.96457 0.0
H785 H 0.9077 0.67598 0.06743 0.0
H786 H 0.87001 0.62974 0.28953 0.0
H787 H 0.87469 0.65122 0.17865 0.0
H788 H 0.93778 0.55995 0.06873 0.0
H789 H 0.94561 0.58322 0.9608 0.0
H790 H 0.94274 0.56593 0.22739 0.0
H791 H 0.9204 0.56773 0.32671 0.0
C792 C 0.3318 0.90462 0.28588 0.0
C793 C 0.304 0.87873 0.32106 0.0
C794 C 0.27893 0.87592 0.15831 0.0
C795 C 0.30595 0.90305 0.12506 0.0
N796 N 0.3574 0.94465 0.1562 0.0
N797 N 0.251 0.83948 0.29249 0.0
C798 C 0.33231 0.91776 0.18869 0.0
C799 C 0.27769 0.86426 0.25752 0.0
N800 N 0.35768 0.91598 0.34548 0.0
N801 N 0.25374 0.86071 0.09686 0.0
H802 H 0.24898 0.83033 0.36572 0.0
H803 H 0.231 0.82833 0.24801 0.0
H804 H 0.25255 0.8676 0.02244 0.0
H805 H 0.25255 0.8676 0.02244 0.0
H806 H 0.37943 0.93365 0.32326 0.0
H807 H 0.35778 0.906 0.41558 0.0
H808 H 0.37669 0.95826 0.20113 0.0
H809 H 0.35808 0.95435 0.08477 0.0
C810 C 0.45044 0.34255 0.45758 0.0
C811 C 0.44243 0.31292 0.49655 0.0
C812 C 0.42174 0.28989 0.33017 0.0
C813 C 0.42554 0.31851 0.29595 0.0
N814 N 0.44341 0.37229 0.323 0.0
N815 N 0.41716 0.2577 0.4752 0.0
C816 C 0.44014 0.34505 0.35841 0.0
C817 C 0.42749 0.28639 0.43395 0.0
N818 N 0.4681 0.36808 0.51589 0.0
N819 N 0.41333 0.26635 0.26232 0.0
H820 H 0.42044 0.25422 0.55169 0.0
H821 H 0.40315 0.23726 0.43584 0.0
H822 H 0.40986 0.26885 0.18527 0.0
H823 H 0.41296 0.24581 0.27991 0.0
H824 H 0.47654 0.39068 0.49075 0.0
H825 H 0.47633 0.36659 0.58783 0.0
H826 H 0.45171 0.39224 0.36677 0.0
H827 H 0.43628 0.37445 0.24991 0.0
C828 C 0.63201 0.90414 0.17168 0.0
C829 C 0.60597 0.90254 0.12236 0.0
C830 C 0.59575 0.92502 0.2735 0.0
C831 C 0.62318 0.92883 0.31903 0.0
N832 N 0.67081 0.9283 0.30434 0.0
N833 N 0.56797 0.919 0.11584 0.0
C834 C 0.64233 0.92019 0.26584 0.0
C835 C 0.58907 0.915 0.17036 0.0
N836 N 0.64635 0.88962 0.12924 0.0
N837 N 0.57575 0.93026 0.32964 0.0
H838 H 0.5635 0.91339 0.03871 0.0
H839 H 0.55727 0.93081 0.14423 0.0
H840 H 0.58011 0.93777 0.40531 0.0
H841 H 0.55383 0.92477 0.30383 0.0
H842 H 0.66378 0.88757 0.1659 0.0
H843 H 0.63878 0.87721 0.06112 0.0
H844 H 0.68722 0.92527 0.26474 0.0
H845 H 0.67888 0.94055 0.3726 0.0
C846 C 0.69824 0.6068 0.38599 0.0
C847 C 0.72428 0.60421 0.35687 0.0
C848 C 0.74818 0.62401 0.52341 0.0
C849 C 0.72086 0.62364 0.55606 0.0
N850 N 0.66865 0.61189 0.52436 0.0
N851 N 0.77311 0.60828 0.39609 0.0
C852 C 0.69561 0.61454 0.48857 0.0
C853 C 0.74905 0.61229 0.42528 0.0
N854 N 0.6763 0.60222 0.31488 0.0
N855 N 0.77349 0.63651 0.58572 0.0
H856 H 0.77436 0.60035 0.32344 0.0
H857 H 0.79075 0.61094 0.44495 0.0
H858 H 0.77342 0.64594 0.65659 0.0
H859 H 0.79508 0.63988 0.56455 0.0
H860 H 0.65864 0.60721 0.32758 0.0
H861 H 0.6769 0.59528 0.24025 0.0
H862 H 0.6482 0.60233 0.48244 0.0
H863 H 0.66607 0.61727 0.5994 0.0
C864 C 0.10182 0.71457 0.51648 0.0
C865 C 0.11692 0.69847 0.48325 0.0
C866 C 0.10504 0.67033 0.64517 0.0
C867 C 0.08928 0.68589 0.67729 0.0
N868 N 0.06846 0.71904 0.64275 0.0
N869 N 0.12964 0.65844 0.50593 0.0
C870 C 0.08631 0.70684 0.61222 0.0
C871 C 0.11763 0.67559 0.54498 0.0
N872 N 0.1031 0.73769 0.45689 0.0
N873 N 0.10842 0.65113 0.7119 0.0
H874 H 0.13962 0.66252 0.43328 0.0
H875 H 0.12825 0.63924 0.54243 0.0
H876 H 0.098 0.64569 0.78391 0.0
H877 H 0.12246 0.64159 0.69813 0.0
H878 H 0.09491 0.75226 0.47962 0.0
H879 H 0.11435 0.74371 0.38627 0.0
H880 H 0.06303 0.73262 0.59635 0.0
H881 H 0.05718 0.71368 0.71338 0.0
C882 C 0.4528 0.14471 0.73702 0.0
C883 C 0.42637 0.13651 0.6763 0.0
C884 C 0.39257 0.10517 0.81722 0.0
C885 C 0.41893 0.11057 0.87384 0.0
N886 N 0.47433 0.13755 0.89471 0.0
N887 N 0.37114 0.10503 0.65135 0.0
C888 C 0.44919 0.13087 0.83544 0.0
C889 C 0.39619 0.11605 0.71493 0.0
N890 N 0.48115 0.16658 0.70099 0.0
N891 N 0.36392 0.08919 0.86126 0.0
H892 H 0.37289 0.11023 0.57368 0.0
H893 H 0.34897 0.08785 0.6721 0.0
H894 H 0.36015 0.07851 0.93258 0.0
H895 H 0.34414 0.08787 0.82957 0.0
H896 H 0.5016 0.17568 0.74257 0.0
H897 H 0.48399 0.17709 0.62965 0.0
H898 H 0.4971 0.14948 0.86894 0.0
H899 H 0.47248 0.13083 0.97104 0.0
C900 C 0.32747 0.44058 0.8658 0.0
C901 C 0.30809 0.41422 0.80679 0.0
C902 C 0.30934 0.38047 0.94079 0.0
C903 C 0.32714 0.4067 1.00225 0.0
N904 N 0.34759 0.46107 0.03362 0.0
N905 N 0.27609 0.35918 0.79254 0.0
C906 C 0.33465 0.43664 0.96773 0.0
C907 C 0.29771 0.38412 0.84575 0.0
N908 N 0.34 0.46931 0.82277 0.0
N909 N 0.30425 0.35226 0.97283 0.0
H910 H 0.26721 0.36145 0.72283 0.0
H911 H 0.26506 0.33674 0.82152 0.0
H912 H 0.31253 0.34925 0.04271 0.0
H913 H 0.29401 0.33253 0.92742 0.0
H914 H 0.35702 0.48928 0.85807 0.0
H915 H 0.33508 0.47287 0.74811 0.0
H916 H 0.35056 0.48274 0.01604 0.0
H917 H 0.35286 0.45902 0.1093 0.0
C918 C 0.90216 0.28581 0.11912 0.0
C919 C 0.92715 0.31409 0.15468 0.0
C920 C 0.92624 0.34029 0.99714 0.0
C921 C 0.90179 0.31176 0.96016 0.0
N922 N 0.86772 0.25719 0.97877 0.0
N923 N 0.96198 0.36846 0.13557 0.0
C924 C 0.89002 0.28446 0.01957 0.0
C925 C 0.93908 0.34139 0.09529 0.0
N926 N 0.88952 0.26066 0.18268 0.0
N927 N 0.9374 0.36604 0.93675 0.0
H928 H 0.97219 0.36941 0.20611 0.0
H929 H 0.97061 0.39007 0.10163 0.0
H930 H 0.92709 0.36622 0.8678 0.0
H931 H 0.95679 0.38721 0.95329 0.0
H932 H 0.86927 0.24008 0.16709 0.0
H933 H 0.89875 0.26089 0.25447 0.0
H934 H 0.85985 0.23567 0.01278 0.0
H935 H 0.85779 0.25604 0.90749 0.0
loop_
_geom_bond_atom_site_label_1
_geom_bond_atom_site_label_2
_geom_bond_distance
_geom_bond_site_symmetry_2
_ccdc_geom_bond_type
C0 C1 1.351 . S
C0 N3 1.368 . S
C0 H5 0.931 . S
C1 C0 1.351 . S
C1 N2 1.373 . S
C1 H29 0.930 . S
N2 C1 1.373 . S
N2 C4 1.340 . S
N3 C0 1.368 . S
N3 C4 1.321 . S
N3 Co6 2.135 1_556 S
C4 N2 1.340 . S
C4 N3 1.321 . S
C4 H28 0.930 . S
H5 C0 0.931 . S
Co6 N3 2.135 1_554 S
Co6 N9 2.121 . S
Co6 O14 2.055 . S
Co6 O17 2.039 . S
Co6 N20 2.140 . S
C7 O8 1.227 . S
C7 O17 1.265 1_556 S
O8 C7 1.227 . S
N9 Co6 2.121 . S
N9 C11 1.375 . S
N9 C12 1.313 . S
C10 C11 1.338 . S
C10 N13 1.377 . S
C10 H30 0.930 . S
C11 N9 1.375 . S
C11 C10 1.338 . S
C11 H15 0.931 . S
C12 N9 1.313 . S
C12 N13 1.344 . S
C12 H16 0.930 . S
N13 C10 1.377 . S
N13 C12 1.344 . S
O14 Co6 2.055 . S
O14 C18 1.253 . S
H15 C11 0.931 . S
H16 C12 0.930 . S
O17 Co6 2.039 . S
O17 C7 1.265 1_554 S
C18 O14 1.253 . S
C18 O19 1.227 . S
O19 C18 1.227 . S
N20 Co6 2.140 . S
N20 C23 1.346 1_554 S
N20 C24 1.345 . S
C21 C22 1.387 1_554 S
C21 C25 1.391 . S
C22 C21 1.387 1_556 S
C22 C23 1.369 . S
C22 H31 0.929 . S
C23 N20 1.346 1_556 S
C23 C22 1.369 . S
C23 H26 0.928 . S
C24 N20 1.345 . S
C24 C25 1.371 . S
C24 H27 0.931 . S
C25 C21 1.391 . S
C25 C24 1.371 . S
C25 H32 0.930 . S
H26 C23 0.928 . S
H27 C24 0.931 . S
H28 C4 0.930 . S
H29 C1 0.930 . S
H30 C10 0.930 . S
H31 C22 0.929 . S
H32 C25 0.930 . S
C33 C34 1.351 1_554 S
C33 N36 1.368 . S
C33 H38 0.931 . S
C34 C33 1.351 1_556 S
C34 N35 1.373 . S
C34 H62 0.930 . S
N35 C34 1.373 . S
N35 C37 1.340 . S
N36 C33 1.368 . S
N36 C37 1.321 1_554 S
N36 Co39 2.135 . S
C37 N35 1.340 . S
C37 N36 1.321 1_556 S
C37 H61 0.930 . S
H38 C33 0.931 . S
Co39 N36 2.135 . S
Co39 N42 2.121 . S
Co39 O47 2.055 . S
Co39 O50 2.039 . S
Co39 N53 2.140 . S
C40 O41 1.227 . S
C40 O50 1.265 . S
O41 C40 1.227 . S
N42 Co39 2.121 . S
N42 C44 1.375 . S
N42 C45 1.313 . S
C43 C44 1.338 . S
C43 N46 1.377 . S
C43 H63 0.930 . S
C44 N42 1.375 . S
C44 C43 1.338 . S
C44 H48 0.931 . S
C45 N42 1.313 . S
C45 N46 1.344 . S
C45 H49 0.930 . S
N46 C43 1.377 . S
N46 C45 1.344 . S
O47 Co39 2.055 . S
O47 C51 1.253 . S
H48 C44 0.931 . S
H49 C45 0.930 . S
O50 Co39 2.039 . S
O50 C40 1.265 . S
C51 O47 1.253 . S
C51 O52 1.227 . S
O52 C51 1.227 . S
N53 Co39 2.140 . S
N53 C56 1.346 . S
N53 C57 1.345 . S
C54 C55 1.387 . S
C54 C58 1.391 . S
C55 C54 1.387 . S
C55 C56 1.369 . S
C55 H64 0.929 . S
C56 N53 1.346 . S
C56 C55 1.369 . S
C56 H59 0.928 . S
C57 N53 1.345 . S
C57 C58 1.371 . S
C57 H60 0.931 . S
C58 C54 1.391 . S
C58 C57 1.371 . S
C58 H65 0.930 . S
H59 C56 0.928 . S
H60 C57 0.931 . S
H61 C37 0.930 . S
H62 C34 0.930 . S
H63 C43 0.930 . S
H64 C55 0.929 . S
H65 C58 0.930 . S
C66 C67 1.351 . S
C66 N69 1.368 . S
C66 H71 0.931 . S
C67 C66 1.351 . S
C67 N68 1.373 . S
C67 H95 0.930 . S
N68 C67 1.373 . S
N68 C70 1.340 . S
N69 C66 1.368 . S
N69 C70 1.321 . S
N69 Co72 2.135 . S
C70 N68 1.340 . S
C70 N69 1.321 . S
C70 H94 0.930 . S
H71 C66 0.931 . S
Co72 N69 2.135 . S
Co72 N75 2.121 . S
Co72 O80 2.055 . S
Co72 O83 2.039 . S
Co72 N86 2.140 . S
C73 O74 1.227 . S
C73 O83 1.265 . S
O74 C73 1.227 . S
N75 Co72 2.121 . S
N75 C77 1.375 . S
N75 C78 1.313 . S
C76 C77 1.338 . S
C76 N79 1.377 . S
C76 H96 0.930 . S
C77 N75 1.375 . S
C77 C76 1.338 . S
C77 H81 0.931 . S
C78 N75 1.313 . S
C78 N79 1.344 . S
C78 H82 0.930 . S
N79 C76 1.377 . S
N79 C78 1.344 . S
O80 Co72 2.055 . S
O80 C84 1.253 . S
H81 C77 0.931 . S
H82 C78 0.930 . S
O83 Co72 2.039 . S
O83 C73 1.265 . S
C84 O80 1.253 . S
C84 O85 1.227 . S
O85 C84 1.227 . S
N86 Co72 2.140 . S
N86 C89 1.346 . S
N86 C90 1.345 . S
C87 C88 1.387 . S
C87 C91 1.391 . S
C88 C87 1.387 . S
C88 C89 1.369 . S
C88 H97 0.929 . S
C89 N86 1.346 . S
C89 C88 1.369 . S
C89 H92 0.928 . S
C90 N86 1.345 . S
C90 C91 1.371 . S
C90 H93 0.931 . S
C91 C87 1.391 . S
C91 C90 1.371 . S
C91 H98 0.930 . S
H92 C89 0.928 . S
H93 C90 0.931 . S
H94 C70 0.930 . S
H95 C67 0.930 . S
H96 C76 0.930 . S
H97 C88 0.929 . S
H98 C91 0.930 . S
C99 C100 1.351 . S
C99 N102 1.368 . S
C99 H104 0.931 . S
C100 C99 1.351 . S
C100 N101 1.373 . S
C100 H128 0.930 . S
N101 C100 1.373 . S
N101 C103 1.340 . S
N102 C99 1.368 . S
N102 C103 1.321 . S
N102 Co105 2.135 . S
C103 N101 1.340 . S
C103 N102 1.321 . S
C103 H127 0.930 . S
H104 C99 0.931 . S
Co105 N102 2.135 . S
Co105 N108 2.121 . S
Co105 O113 2.055 . S
Co105 O116 2.039 . S
Co105 N119 2.140 . S
C106 O107 1.227 . S
C106 O116 1.265 . S
O107 C106 1.227 . S
N108 Co105 2.121 . S
N108 C110 1.375 . S
N108 C111 1.313 . S
C109 C110 1.338 . S
C109 N112 1.377 . S
C109 H129 0.930 . S
C110 N108 1.375 . S
C110 C109 1.338 . S
C110 H114 0.931 . S
C111 N108 1.313 . S
C111 N112 1.344 . S
C111 H115 0.930 . S
N112 C109 1.377 . S
N112 C111 1.344 . S
O113 Co105 2.055 . S
O113 C117 1.253 . S
H114 C110 0.931 . S
H115 C111 0.930 . S
O116 Co105 2.039 . S
O116 C106 1.265 . S
C117 O113 1.253 . S
C117 O118 1.227 . S
O118 C117 1.227 . S
N119 Co105 2.140 . S
N119 C122 1.346 . S
N119 C123 1.345 . S
C120 C121 1.387 . S
C120 C124 1.391 . S
C121 C120 1.387 . S
C121 C122 1.369 . S
C121 H130 0.929 . S
C122 N119 1.346 . S
C122 C121 1.369 . S
C122 H125 0.928 . S
C123 N119 1.345 . S
C123 C124 1.371 . S
C123 H126 0.931 . S
C124 C120 1.391 . S
C124 C123 1.371 . S
C124 H131 0.930 . S
H125 C122 0.928 . S
H126 C123 0.931 . S
H127 C103 0.930 . S
H128 C100 0.930 . S
H129 C109 0.930 . S
H130 C121 0.929 . S
H131 C124 0.930 . S
C132 C133 1.351 . S
C132 N135 1.368 . S
C132 H137 0.931 . S
C133 C132 1.351 . S
C133 N134 1.373 . S
C133 H161 0.930 . S
N134 C133 1.373 . S
N134 C136 1.340 . S
N135 C132 1.368 . S
N135 C136 1.321 . S
N135 Co138 2.135 . S
C136 N134 1.340 . S
C136 N135 1.321 . S
C136 H160 0.930 . S
H137 C132 0.931 . S
Co138 N135 2.135 . S
Co138 N141 2.121 . S
Co138 O146 2.055 . S
Co138 O149 2.039 . S
Co138 N152 2.140 . S
C139 O140 1.227 . S
C139 O149 1.265 . S
O140 C139 1.227 . S
N141 Co138 2.121 . S
N141 C143 1.375 . S
N141 C144 1.313 . S
C142 C143 1.338 . S
C142 N145 1.377 1_556 S
C142 H162 0.930 1_556 S
C143 N141 1.375 . S
C143 C142 1.338 . S
C143 H147 0.931 . S
C144 N141 1.313 . S
C144 N145 1.344 1_556 S
C144 H148 0.930 . S
N145 C142 1.377 1_554 S
N145 C144 1.344 1_554 S
O146 Co138 2.055 . S
O146 C150 1.253 . S
H147 C143 0.931 . S
H148 C144 0.930 . S
O149 Co138 2.039 . S
O149 C139 1.265 . S
C150 O146 1.253 . S
C150 O151 1.227 . S
O151 C150 1.227 . S
N152 Co138 2.140 . S
N152 C155 1.346 . S
N152 C156 1.345 . S
C153 C154 1.387 . S
C153 C157 1.391 . S
C154 C153 1.387 . S
C154 C155 1.369 . S
C154 H163 0.929 . S
C155 N152 1.346 . S
C155 C154 1.369 . S
C155 H158 0.928 . S
C156 N152 1.345 . S
C156 C157 1.371 . S
C156 H159 0.931 . S
C157 C153 1.391 . S
C157 C156 1.371 . S
C157 H164 0.930 . S
H158 C155 0.928 . S
H159 C156 0.931 . S
H160 C136 0.930 . S
H161 C133 0.930 . S
H162 C142 0.930 1_554 S
H163 C154 0.929 . S
H164 C157 0.930 . S
C165 C166 1.351 . S
C165 N168 1.368 . S
C165 H170 0.931 . S
C166 C165 1.351 . S
C166 N167 1.373 . S
C166 H194 0.930 . S
N167 C166 1.373 . S
N167 C169 1.340 . S
N168 C165 1.368 . S
N168 C169 1.321 . S
N168 Co171 2.135 . S
C169 N167 1.340 . S
C169 N168 1.321 . S
C169 H193 0.930 . S
H170 C165 0.931 . S
Co171 N168 2.135 . S
Co171 N174 2.121 1_556 S
Co171 O179 2.055 . S
Co171 O182 2.039 . S
Co171 N185 2.140 . S
C172 O173 1.227 . S
C172 O182 1.265 . S
O173 C172 1.227 . S
N174 Co171 2.121 1_554 S
N174 C176 1.375 . S
N174 C177 1.313 . S
C175 C176 1.338 . S
C175 N178 1.377 . S
C175 H195 0.930 . S
C176 N174 1.375 . S
C176 C175 1.338 . S
C176 H180 0.931 . S
C177 N174 1.313 . S
C177 N178 1.344 . S
C177 H181 0.930 . S
N178 C175 1.377 . S
N178 C177 1.344 . S
O179 Co171 2.055 . S
O179 C183 1.253 . S
H180 C176 0.931 . S
H181 C177 0.930 . S
O182 Co171 2.039 . S
O182 C172 1.265 . S
C183 O179 1.253 . S
C183 O184 1.227 . S
O184 C183 1.227 . S
N185 Co171 2.140 . S
N185 C188 1.346 . S
N185 C189 1.345 . S
C186 C187 1.387 . S
C186 C190 1.391 . S
C187 C186 1.387 . S
C187 C188 1.369 . S
C187 H196 0.929 . S
C188 N185 1.346 . S
C188 C187 1.369 . S
C188 H191 0.928 . S
C189 N185 1.345 . S
C189 C190 1.371 . S
C189 H192 0.931 1_556 S
C190 C186 1.391 . S
C190 C189 1.371 . S
C190 H197 0.930 1_556 S
H191 C188 0.928 . S
H192 C189 0.931 1_554 S
H193 C169 0.930 . S
H194 C166 0.930 . S
H195 C175 0.930 . S
H196 C187 0.929 . S
H197 C190 0.930 1_554 S
C198 C199 1.351 1_556 S
C198 N201 1.368 . S
C198 H203 0.931 . S
C199 C198 1.351 1_554 S
C199 N200 1.373 . S
C199 H227 0.930 . S
N200 C199 1.373 . S
N200 C202 1.340 . S
N201 C198 1.368 . S
N201 C202 1.321 1_556 S
N201 Co204 2.135 . S
C202 N200 1.340 . S
C202 N201 1.321 1_554 S
C202 H226 0.930 . S
H203 C198 0.931 . S
Co204 N201 2.135 . S
Co204 N207 2.121 . S
Co204 O212 2.055 . S
Co204 O215 2.039 . S
Co204 N218 2.140 . S
C205 O206 1.227 . S
C205 O215 1.265 . S
O206 C205 1.227 . S
N207 Co204 2.121 . S
N207 C209 1.375 . S
N207 C210 1.313 . S
C208 C209 1.338 . S
C208 N211 1.377 . S
C208 H228 0.930 . S
C209 N207 1.375 . S
C209 C208 1.338 . S
C209 H213 0.931 . S
C210 N207 1.313 . S
C210 N211 1.344 . S
C210 H214 0.930 . S
N211 C208 1.377 . S
N211 C210 1.344 . S
O212 Co204 2.055 . S
O212 C216 1.253 . S
H213 C209 0.931 . S
H214 C210 0.930 . S
O215 Co204 2.039 . S
O215 C205 1.265 . S
C216 O212 1.253 . S
C216 O217 1.227 . S
O217 C216 1.227 . S
N218 Co204 2.140 . S
N218 C221 1.346 . S
N218 C222 1.345 . S
C219 C220 1.387 . S
C219 C223 1.391 . S
C220 C219 1.387 . S
C220 C221 1.369 . S
C220 H229 0.929 . S
C221 N218 1.346 . S
C221 C220 1.369 . S
C221 H224 0.928 . S
C222 N218 1.345 . S
C222 C223 1.371 . S
C222 H225 0.931 . S
C223 C219 1.391 . S
C223 C222 1.371 . S
C223 H230 0.930 . S
H224 C221 0.928 . S
H225 C222 0.931 . S
H226 C202 0.930 . S
H227 C199 0.930 . S
H228 C208 0.930 . S
H229 C220 0.929 . S
H230 C223 0.930 . S
C231 C232 1.351 . S
C231 N234 1.368 . S
C231 H236 0.931 . S
C232 C231 1.351 . S
C232 N233 1.373 . S
C232 H260 0.930 . S
N233 C232 1.373 . S
N233 C235 1.340 . S
N234 C231 1.368 . S
N234 C235 1.321 . S
N234 Co237 2.135 1_554 S
C235 N233 1.340 . S
C235 N234 1.321 . S
C235 H259 0.930 . S
H236 C231 0.931 . S
Co237 N234 2.135 1_556 S
Co237 N240 2.121 . S
Co237 O245 2.055 . S
Co237 O248 2.039 . S
Co237 N251 2.140 . S
C238 O239 1.227 . S
C238 O248 1.265 1_554 S
O239 C238 1.227 . S
N240 Co237 2.121 . S
N240 C242 1.375 . S
N240 C243 1.313 . S
C241 C242 1.338 . S
C241 N244 1.377 . S
C241 H261 0.930 . S
C242 N240 1.375 . S
C242 C241 1.338 . S
C242 H246 0.931 . S
C243 N240 1.313 . S
C243 N244 1.344 . S
C243 H247 0.930 . S
N244 C241 1.377 . S
N244 C243 1.344 . S
O245 Co237 2.055 . S
O245 C249 1.253 . S
H246 C242 0.931 . S
H247 C243 0.930 . S
O248 Co237 2.039 . S
O248 C238 1.265 1_556 S
C249 O245 1.253 . S
C249 O250 1.227 . S
O250 C249 1.227 . S
N251 Co237 2.140 . S
N251 C254 1.346 1_556 S
N251 C255 1.345 . S
C252 C253 1.387 1_556 S
C252 C256 1.391 . S
C253 C252 1.387 1_554 S
C253 C254 1.369 . S
C253 H262 0.929 . S
C254 N251 1.346 1_554 S
C254 C253 1.369 . S
C254 H257 0.928 . S
C255 N251 1.345 . S
C255 C256 1.371 . S
C255 H258 0.931 . S
C256 C252 1.391 . S
C256 C255 1.371 . S
C256 H263 0.930 . S
H257 C254 0.928 . S
H258 C255 0.931 . S
H259 C235 0.930 . S
H260 C232 0.930 . S
H261 C241 0.930 . S
H262 C253 0.929 . S
H263 C256 0.930 . S
C264 C265 1.351 . S
C264 N267 1.368 . S
C264 H269 0.931 . S
C265 C264 1.351 . S
C265 N266 1.373 . S
C265 H293 0.930 . S
N266 C265 1.373 . S
N266 C268 1.340 . S
N267 C264 1.368 . S
N267 C268 1.321 . S
N267 Co270 2.135 . S
C268 N266 1.340 . S
C268 N267 1.321 . S
C268 H292 0.930 . S
H269 C264 0.931 . S
Co270 N267 2.135 . S
Co270 N273 2.121 1_554 S
Co270 O278 2.055 . S
Co270 O281 2.039 . S
Co270 N284 2.140 . S
C271 O272 1.227 . S
C271 O281 1.265 . S
O272 C271 1.227 . S
N273 Co270 2.121 1_556 S
N273 C275 1.375 . S
N273 C276 1.313 . S
C274 C275 1.338 . S
C274 N277 1.377 . S
C274 H294 0.930 . S
C275 N273 1.375 . S
C275 C274 1.338 . S
C275 H279 0.931 . S
C276 N273 1.313 . S
C276 N277 1.344 . S
C276 H280 0.930 . S
N277 C274 1.377 . S
N277 C276 1.344 . S
O278 Co270 2.055 . S
O278 C282 1.253 . S
H279 C275 0.931 . S
H280 C276 0.930 . S
O281 Co270 2.039 . S
O281 C271 1.265 . S
C282 O278 1.253 . S
C282 O283 1.227 . S
O283 C282 1.227 . S
N284 Co270 2.140 . S
N284 C287 1.346 . S
N284 C288 1.345 . S
C285 C286 1.387 . S
C285 C289 1.391 . S
C286 C285 1.387 . S
C286 C287 1.369 . S
C286 H295 0.929 . S
C287 N284 1.346 . S
C287 C286 1.369 . S
C287 H290 0.928 . S
C288 N284 1.345 . S
C288 C289 1.371 . S
C288 H291 0.931 1_554 S
C289 C285 1.391 . S
C289 C288 1.371 . S
C289 H296 0.930 1_554 S
H290 C287 0.928 . S
H291 C288 0.931 1_556 S
H292 C268 0.930 . S
H293 C265 0.930 . S
H294 C274 0.930 . S
H295 C286 0.929 . S
H296 C289 0.930 1_556 S
C297 C298 1.351 . S
C297 N300 1.368 . S
C297 H302 0.931 . S
C298 C297 1.351 . S
C298 N299 1.373 . S
C298 H326 0.930 . S
N299 C298 1.373 . S
N299 C301 1.340 . S
N300 C297 1.368 . S
N300 C301 1.321 . S
N300 Co303 2.135 . S
C301 N299 1.340 . S
C301 N300 1.321 . S
C301 H325 0.930 . S
H302 C297 0.931 . S
Co303 N300 2.135 . S
Co303 N306 2.121 . S
Co303 O311 2.055 . S
Co303 O314 2.039 . S
Co303 N317 2.140 . S
C304 O305 1.227 . S
C304 O314 1.265 . S
O305 C304 1.227 . S
N306 Co303 2.121 . S
N306 C308 1.375 . S
N306 C309 1.313 . S
C307 C308 1.338 . S
C307 N310 1.377 1_554 S
C307 H327 0.930 1_554 S
C308 N306 1.375 . S
C308 C307 1.338 . S
C308 H312 0.931 . S
C309 N306 1.313 . S
C309 N310 1.344 1_554 S
C309 H313 0.930 . S
N310 C307 1.377 1_556 S
N310 C309 1.344 1_556 S
O311 Co303 2.055 . S
O311 C315 1.253 . S
H312 C308 0.931 . S
H313 C309 0.930 . S
O314 Co303 2.039 . S
O314 C304 1.265 . S
C315 O311 1.253 . S
C315 O316 1.227 . S
O316 C315 1.227 . S
N317 Co303 2.140 . S
N317 C320 1.346 . S
N317 C321 1.345 . S
C318 C319 1.387 . S
C318 C322 1.391 . S
C319 C318 1.387 . S
C319 C320 1.369 . S
C319 H328 0.929 . S
C320 N317 1.346 . S
C320 C319 1.369 . S
C320 H323 0.928 . S
C321 N317 1.345 . S
C321 C322 1.371 . S
C321 H324 0.931 . S
C322 C318 1.391 . S
C322 C321 1.371 . S
C322 H329 0.930 . S
H323 C320 0.928 . S
H324 C321 0.931 . S
H325 C301 0.930 . S
H326 C298 0.930 . S
H327 C307 0.930 1_556 S
H328 C319 0.929 . S
H329 C322 0.930 . S
C330 C331 1.351 . S
C330 N333 1.368 . S
C330 H335 0.931 . S
C331 C330 1.351 . S
C331 N332 1.373 . S
C331 H359 0.930 . S
N332 C331 1.373 . S
N332 C334 1.340 . S
N333 C330 1.368 . S
N333 C334 1.321 . S
N333 Co336 2.135 . S
C334 N332 1.340 . S
C334 N333 1.321 . S
C334 H358 0.930 . S
H335 C330 0.931 . S
Co336 N333 2.135 . S
Co336 N339 2.121 . S
Co336 O344 2.055 . S
Co336 O347 2.039 . S
Co336 N350 2.140 . S
C337 O338 1.227 . S
C337 O347 1.265 . S
O338 C337 1.227 . S
N339 Co336 2.121 . S
N339 C341 1.375 . S
N339 C342 1.313 . S
C340 C341 1.338 . S
C340 N343 1.377 . S
C340 H360 0.930 . S
C341 N339 1.375 . S
C341 C340 1.338 . S
C341 H345 0.931 . S
C342 N339 1.313 . S
C342 N343 1.344 . S
C342 H346 0.930 . S
N343 C340 1.377 . S
N343 C342 1.344 . S
O344 Co336 2.055 . S
O344 C348 1.253 . S
H345 C341 0.931 . S
H346 C342 0.930 . S
O347 Co336 2.039 . S
O347 C337 1.265 . S
C348 O344 1.253 . S
C348 O349 1.227 . S
O349 C348 1.227 . S
N350 Co336 2.140 . S
N350 C353 1.346 . S
N350 C354 1.345 . S
C351 C352 1.387 . S
C351 C355 1.391 . S
C352 C351 1.387 . S
C352 C353 1.369 . S
C352 H361 0.929 . S
C353 N350 1.346 . S
C353 C352 1.369 . S
C353 H356 0.928 . S
C354 N350 1.345 . S
C354 C355 1.371 . S
C354 H357 0.931 . S
C355 C351 1.391 . S
C355 C354 1.371 . S
C355 H362 0.930 . S
H356 C353 0.928 . S
H357 C354 0.931 . S
H358 C334 0.930 . S
H359 C331 0.930 . S
H360 C340 0.930 . S
H361 C352 0.929 . S
H362 C355 0.930 . S
C363 C364 1.351 . S
C363 N366 1.368 . S
C363 H368 0.931 . S
C364 C363 1.351 . S
C364 N365 1.373 . S
C364 H392 0.930 . S
N365 C364 1.373 . S
N365 C367 1.340 . S
N366 C363 1.368 . S
N366 C367 1.321 . S
N366 Co369 2.135 . S
C367 N365 1.340 . S
C367 N366 1.321 . S
C367 H391 0.930 . S
H368 C363 0.931 . S
Co369 N366 2.135 . S
Co369 N372 2.121 . S
Co369 O377 2.055 . S
Co369 O380 2.039 . S
Co369 N383 2.140 . S
C370 O371 1.227 . S
C370 O380 1.265 . S
O371 C370 1.227 . S
N372 Co369 2.121 . S
N372 C374 1.375 . S
N372 C375 1.313 . S
C373 C374 1.338 . S
C373 N376 1.377 . S
C373 H393 0.930 . S
C374 N372 1.375 . S
C374 C373 1.338 . S
C374 H378 0.931 . S
C375 N372 1.313 . S
C375 N376 1.344 . S
C375 H379 0.930 . S
N376 C373 1.377 . S
N376 C375 1.344 . S
O377 Co369 2.055 . S
O377 C381 1.253 . S
H378 C374 0.931 . S
H379 C375 0.930 . S
O380 Co369 2.039 . S
O380 C370 1.265 . S
C381 O377 1.253 . S
C381 O382 1.227 . S
O382 C381 1.227 . S
N383 Co369 2.140 . S
N383 C386 1.346 . S
N383 C387 1.345 . S
C384 C385 1.387 . S
C384 C388 1.391 . S
C385 C384 1.387 . S
C385 C386 1.369 . S
C385 H394 0.929 . S
C386 N383 1.346 . S
C386 C385 1.369 . S
C386 H389 0.928 . S
C387 N383 1.345 . S
C387 C388 1.371 . S
C387 H390 0.931 . S
C388 C384 1.391 . S
C388 C387 1.371 . S
C388 H395 0.930 . S
H389 C386 0.928 . S
H390 C387 0.931 . S
H391 C367 0.930 . S
H392 C364 0.930 . S
H393 C373 0.930 . S
H394 C385 0.929 . S
H395 C388 0.930 . S
C396 C397 1.363 . S
C396 C402 1.379 . S
C396 N404 1.356 . S
C397 C396 1.363 . S
C397 C403 1.363 . S
C398 C399 1.363 . S
C398 C403 1.379 . S
C398 N405 1.356 1_554 S
C399 C398 1.363 . S
C399 C402 1.363 . S
N400 C402 1.356 . S
N400 H412 0.984 . S
N400 H413 0.985 . S
N401 C403 1.356 1_556 S
N401 H406 0.984 . S
N401 H407 0.985 . S
C402 C396 1.379 . S
C402 C399 1.363 . S
C402 N400 1.356 . S
C403 C397 1.363 . S
C403 C398 1.379 . S
C403 N401 1.356 1_554 S
N404 C396 1.356 . S
N404 H410 0.984 . S
N404 H411 0.984 . S
N405 C398 1.356 1_556 S
N405 H408 0.984 . S
N405 H409 0.985 . S
H406 N401 0.984 . S
H407 N401 0.985 . S
H408 N405 0.984 . S
H409 N405 0.985 . S
H410 N404 0.984 . S
H411 N404 0.984 . S
H412 N400 0.984 . S
H413 N400 0.985 . S
C414 C415 1.363 . S
C414 C420 1.379 . S
C414 N422 1.356 . S
C415 C414 1.363 . S
C415 C421 1.363 . S
C416 C417 1.363 . S
C416 C421 1.379 . S
C416 N423 1.356 . S
C417 C416 1.363 . S
C417 C420 1.363 . S
N418 C420 1.356 . S
N418 H430 0.984 . S
N418 H431 0.985 . S
N419 C421 1.356 . S
N419 H424 0.984 . S
N419 H425 0.985 . S
C420 C414 1.379 . S
C420 C417 1.363 . S
C420 N418 1.356 . S
C421 C415 1.363 . S
C421 C416 1.379 . S
C421 N419 1.356 . S
N422 C414 1.356 . S
N422 H428 0.984 . S
N422 H429 0.984 . S
N423 C416 1.356 . S
N423 H426 0.984 . S
N423 H427 0.985 . S
H424 N419 0.984 . S
H425 N419 0.985 . S
H426 N423 0.984 . S
H427 N423 0.985 . S
H428 N422 0.984 . S
H429 N422 0.984 . S
H430 N418 0.984 . S
H431 N418 0.985 . S
C432 C433 1.363 . S
C432 C438 1.379 . S
C432 N440 1.356 . S
C433 C432 1.363 . S
C433 C439 1.363 . S
C434 C435 1.363 . S
C434 C439 1.379 . S
C434 N441 1.356 . S
C435 C434 1.363 . S
C435 C438 1.363 . S
N436 C438 1.356 . S
N436 H448 0.984 . S
N436 H449 0.985 . S
N437 C439 1.356 . S
N437 H442 0.984 . S
N437 H443 0.985 . S
C438 C432 1.379 . S
C438 C435 1.363 . S
C438 N436 1.356 . S
C439 C433 1.363 . S
C439 C434 1.379 . S
C439 N437 1.356 . S
N440 C432 1.356 . S
N440 H446 0.984 . S
N440 H447 0.984 . S
N441 C434 1.356 . S
N441 H444 0.984 . S
N441 H445 0.985 . S
H442 N437 0.984 . S
H443 N437 0.985 . S
H444 N441 0.984 . S
H445 N441 0.985 . S
H446 N440 0.984 . S
H447 N440 0.984 . S
H448 N436 0.984 . S
H449 N436 0.985 . S
C450 C451 1.363 . S
C450 C456 1.379 . S
C450 N458 1.356 . S
C451 C450 1.363 . S
C451 C457 1.363 . S
C452 C453 1.363 . S
C452 C457 1.379 . S
C452 N459 1.356 . S
C453 C452 1.363 . S
C453 C456 1.363 . S
N454 C456 1.356 . S
N454 H466 0.984 . S
N454 H467 0.985 . S
N455 C457 1.356 . S
N455 H460 0.984 . S
N455 H461 0.985 . S
C456 C450 1.379 . S
C456 C453 1.363 . S
C456 N454 1.356 . S
C457 C451 1.363 . S
C457 C452 1.379 . S
C457 N455 1.356 . S
N458 C450 1.356 . S
N458 H464 0.984 . S
N458 H465 0.984 . S
N459 C452 1.356 . S
N459 H462 0.984 . S
N459 H463 0.985 . S
H460 N455 0.984 . S
H461 N455 0.985 . S
H462 N459 0.984 . S
H463 N459 0.985 . S
H464 N458 0.984 . S
H465 N458 0.984 . S
H466 N454 0.984 . S
H467 N454 0.985 . S
C468 C469 1.363 . S
C468 C474 1.379 . S
C468 N476 1.356 . S
C469 C468 1.363 . S
C469 C475 1.363 . S
C470 C471 1.363 . S
C470 C475 1.379 . S
C470 N477 1.356 . S
C471 C470 1.363 . S
C471 C474 1.363 . S
N472 C474 1.356 . S
N472 H484 0.984 . S
N472 H485 0.985 . S
N473 C475 1.356 . S
N473 H478 0.984 . S
N473 H479 0.985 . S
C474 C468 1.379 . S
C474 C471 1.363 . S
C474 N472 1.356 . S
C475 C469 1.363 . S
C475 C470 1.379 . S
C475 N473 1.356 . S
N476 C468 1.356 . S
N476 H482 0.984 . S
N476 H483 0.984 . S
N477 C470 1.356 . S
N477 H480 0.984 . S
N477 H481 0.985 . S
H478 N473 0.984 . S
H479 N473 0.985 . S
H480 N477 0.984 . S
H481 N477 0.985 . S
H482 N476 0.984 . S
H483 N476 0.984 . S
H484 N472 0.984 . S
H485 N472 0.985 . S
C486 C487 1.363 . S
C486 C492 1.379 . S
C486 N494 1.356 . S
C487 C486 1.363 . S
C487 C493 1.363 1_556 S
C488 C489 1.363 . S
C488 C493 1.379 1_556 S
C488 N495 1.356 1_556 S
C489 C488 1.363 . S
C489 C492 1.363 . S
N490 C492 1.356 . S
N490 H502 0.984 . S
N490 H503 0.985 . S
N491 C493 1.356 . S
N491 H496 0.984 . S
N491 H497 0.985 . S
C492 C486 1.379 . S
C492 C489 1.363 . S
C492 N490 1.356 . S
C493 C487 1.363 1_554 S
C493 C488 1.379 1_554 S
C493 N491 1.356 . S
N494 C486 1.356 . S
N494 H500 0.984 . S
N494 H501 0.984 . S
N495 C488 1.356 1_554 S
N495 H498 0.984 . S
N495 H499 0.985 . S
H496 N491 0.984 . S
H497 N491 0.985 . S
H498 N495 0.984 . S
H499 N495 0.985 . S
H500 N494 0.984 . S
H501 N494 0.984 . S
H502 N490 0.984 . S
H503 N490 0.985 . S
C504 C505 1.363 . S
C504 C510 1.379 . S
C504 N512 1.356 . S
C505 C504 1.363 . S
C505 C511 1.363 1_455 S
C506 C507 1.363 . S
C506 C511 1.379 . S
C506 N513 1.356 . S
C507 C506 1.363 . S
C507 C510 1.363 1_655 S
N508 C510 1.356 . S
N508 H520 0.984 . S
N508 H521 0.985 1_455 S
N509 C511 1.356 . S
N509 H514 0.984 1_656 S
N509 H515 0.985 1_556 S
C510 C504 1.379 . S
C510 C507 1.363 1_455 S
C510 N508 1.356 . S
C511 C505 1.363 1_655 S
C511 C506 1.379 . S
C511 N509 1.356 . S
N512 C504 1.356 . S
N512 H518 0.984 . S
N512 H519 0.984 . S
N513 C506 1.356 . S
N513 H516 0.984 . S
N513 H517 0.985 . S
H514 N509 0.984 1_454 S
H515 N509 0.985 1_554 S
H516 N513 0.984 . S
H517 N513 0.985 . S
H518 N512 0.984 . S
H519 N512 0.984 . S
H520 N508 0.984 . S
H521 N508 0.985 1_655 S
C522 C523 1.363 . S
C522 C528 1.379 1_556 S
C522 N530 1.356 . S
C523 C522 1.363 . S
C523 C529 1.363 1_565 S
C524 C525 1.363 . S
C524 C529 1.379 1_554 S
C524 N531 1.356 . S
C525 C524 1.363 . S
C525 C528 1.363 1_545 S
N526 C528 1.356 . S
N526 H538 0.984 . S
N526 H539 0.985 1_565 S
N527 C529 1.356 . S
N527 H532 0.984 1_545 S
N527 H533 0.985 . S
C528 C522 1.379 1_554 S
C528 C525 1.363 1_565 S
C528 N526 1.356 . S
C529 C523 1.363 1_545 S
C529 C524 1.379 1_556 S
C529 N527 1.356 . S
N530 C522 1.356 . S
N530 H536 0.984 1_556 S
N530 H537 0.984 . S
N531 C524 1.356 . S
N531 H534 0.984 . S
N531 H535 0.985 1_554 S
H532 N527 0.984 1_565 S
H533 N527 0.985 . S
H534 N531 0.984 . S
H535 N531 0.985 1_556 S
H536 N530 0.984 1_554 S
H537 N530 0.984 . S
H538 N526 0.984 . S
H539 N526 0.985 1_545 S
C540 C541 1.363 . S
C540 C546 1.379 . S
C540 N548 1.356 . S
C541 C540 1.363 . S
C541 C547 1.363 . S
C542 C543 1.363 . S
C542 C547 1.379 . S
C542 N549 1.356 . S
C543 C542 1.363 . S
C543 C546 1.363 . S
N544 C546 1.356 1_556 S
N544 H556 0.984 . S
N544 H557 0.985 . S
N545 C547 1.356 . S
N545 H550 0.984 . S
N545 H551 0.985 . S
C546 C540 1.379 . S
C546 C543 1.363 . S
C546 N544 1.356 1_554 S
C547 C541 1.363 . S
C547 C542 1.379 . S
C547 N545 1.356 . S
N548 C540 1.356 . S
N548 H554 0.984 . S
N548 H555 0.984 . S
N549 C542 1.356 . S
N549 H552 0.984 . S
N549 H553 0.985 . S
H550 N545 0.984 . S
H551 N545 0.985 . S
H552 N549 0.984 . S
H553 N549 0.985 . S
H554 N548 0.984 . S
H555 N548 0.984 . S
H556 N544 0.984 . S
H557 N544 0.985 . S
C558 C559 1.363 . S
C558 C564 1.364 1_655 S
C558 N566 1.356 . S
C559 C558 1.363 . S
C559 C565 1.388 . S
C560 C561 1.363 . S
C560 C565 1.365 1_455 S
C560 N567 1.356 . S
C561 C560 1.363 . S
C561 C564 1.389 . S
N562 C564 1.353 . S
N562 H574 0.984 1_455 S
N562 H575 0.985 . S
N563 C565 1.353 . S
N563 H568 0.984 . S
N563 H569 0.985 1_655 S
C564 C558 1.364 1_455 S
C564 C561 1.389 . S
C564 N562 1.353 . S
C565 C559 1.388 . S
C565 C560 1.365 1_655 S
C565 N563 1.353 . S
N566 C558 1.356 . S
N566 H572 0.984 . S
N566 H573 0.984 . S
N567 C560 1.356 . S
N567 H570 0.984 . S
N567 H571 0.985 . S
H568 N563 0.984 . S
H569 N563 0.985 1_455 S
H570 N567 0.984 . S
H571 N567 0.985 . S
H572 N566 0.984 . S
H573 N566 0.984 . S
H574 N562 0.984 1_655 S
H575 N562 0.985 . S
C576 C577 1.363 . S
C576 C582 1.379 . S
C576 N584 1.356 . S
C577 C576 1.363 . S
C577 C583 1.363 1_545 S
C578 C579 1.363 . S
C578 C583 1.379 . S
C578 N585 1.356 . S
C579 C578 1.363 . S
C579 C582 1.363 1_565 S
N580 C582 1.356 . S
N580 H592 0.984 . S
N580 H593 0.985 1_545 S
N581 C583 1.356 . S
N581 H586 0.984 1_565 S
N581 H587 0.985 . S
C582 C576 1.379 . S
C582 C579 1.363 1_545 S
C582 N580 1.356 . S
C583 C577 1.363 1_565 S
C583 C578 1.379 . S
C583 N581 1.356 . S
N584 C576 1.356 . S
N584 H590 0.984 . S
N584 H591 0.984 . S
N585 C578 1.356 . S
N585 H588 0.984 . S
N585 H589 0.985 . S
H586 N581 0.984 1_545 S
H587 N581 0.985 . S
H588 N585 0.984 . S
H589 N585 0.985 . S
H590 N584 0.984 . S
H591 N584 0.984 . S
H592 N580 0.984 . S
H593 N580 0.985 1_565 S
C594 C595 1.363 . S
C594 C600 1.379 . S
C594 N602 1.356 . S
C595 C594 1.363 . S
C595 C601 1.363 . S
C596 C597 1.363 . S
C596 C601 1.379 . S
C596 N603 1.356 . S
C597 C596 1.363 . S
C597 C600 1.363 . S
N598 C600 1.356 . S
N598 H610 0.984 . S
N598 H611 0.985 . S
N599 C601 1.356 . S
N599 H604 0.984 . S
N599 H605 0.985 . S
C600 C594 1.379 . S
C600 C597 1.363 . S
C600 N598 1.356 . S
C601 C595 1.363 . S
C601 C596 1.379 . S
C601 N599 1.356 . S
N602 C594 1.356 . S
N602 H608 0.984 . S
N602 H609 0.984 . S
N603 C596 1.356 . S
N603 H606 0.984 . S
N603 H607 0.985 . S
H604 N599 0.984 . S
H605 N599 0.985 . S
H606 N603 0.984 . S
H607 N603 0.985 . S
H608 N602 0.984 . S
H609 N602 0.984 . S
H610 N598 0.984 . S
H611 N598 0.985 . S
C612 C613 1.363 . S
C612 C618 1.379 . S
C612 N620 1.356 . S
C613 C612 1.363 . S
C613 C619 1.363 . S
C614 C615 1.363 . S
C614 C619 1.379 . S
C614 N621 1.356 . S
C615 C614 1.363 . S
C615 C618 1.363 . S
N616 C618 1.356 . S
N616 H628 0.984 . S
N616 H629 0.985 . S
N617 C619 1.356 . S
N617 H622 0.984 . S
N617 H623 0.985 . S
C618 C612 1.379 . S
C618 C615 1.363 . S
C618 N616 1.356 . S
C619 C613 1.363 . S
C619 C614 1.379 . S
C619 N617 1.356 . S
N620 C612 1.356 . S
N620 H626 0.984 . S
N620 H627 0.984 . S
N621 C614 1.356 . S
N621 H624 0.984 . S
N621 H625 0.985 . S
H622 N617 0.984 . S
H623 N617 0.985 . S
H624 N621 0.984 . S
H625 N621 0.985 . S
H626 N620 0.984 . S
H627 N620 0.984 . S
H628 N616 0.984 . S
H629 N616 0.985 . S
C630 C631 1.363 . S
C630 C636 1.379 . S
C630 N638 1.356 . S
C631 C630 1.363 . S
C631 C637 1.363 . S
C632 C633 1.363 . S
C632 C637 1.379 . S
C632 N639 1.356 . S
C633 C632 1.363 . S
C633 C636 1.363 . S
N634 C636 1.356 . S
N634 H646 0.984 . S
N634 H647 0.985 . S
N635 C637 1.356 . S
N635 H640 0.984 . S
N635 H641 0.985 . S
C636 C630 1.379 . S
C636 C633 1.363 . S
C636 N634 1.356 . S
C637 C631 1.363 . S
C637 C632 1.379 . S
C637 N635 1.356 . S
N638 C630 1.356 . S
N638 H644 0.984 . S
N638 H645 0.984 . S
N639 C632 1.356 . S
N639 H642 0.984 . S
N639 H643 0.985 . S
H640 N635 0.984 . S
H641 N635 0.985 . S
H642 N639 0.984 . S
H643 N639 0.985 . S
H644 N638 0.984 . S
H645 N638 0.984 . S
H646 N634 0.984 . S
H647 N634 0.985 . S
C648 C649 1.363 . S
C648 C654 1.379 . S
C648 N656 1.356 . S
C649 C648 1.363 . S
C649 C655 1.363 . S
C650 C651 1.363 . S
C650 C655 1.379 . S
C650 N657 1.356 . S
C651 C650 1.363 . S
C651 C654 1.363 . S
N652 C654 1.356 . S
N652 H664 0.984 . S
N652 H665 0.985 . S
N653 C655 1.356 . S
N653 H658 0.984 . S
N653 H659 0.985 . S
C654 C648 1.379 . S
C654 C651 1.363 . S
C654 N652 1.356 . S
C655 C649 1.363 . S
C655 C650 1.379 . S
C655 N653 1.356 . S
N656 C648 1.356 . S
N656 H662 0.984 . S
N656 H663 0.984 . S
N657 C650 1.356 . S
N657 H660 0.984 . S
N657 H661 0.985 . S
H658 N653 0.984 . S
H659 N653 0.985 . S
H660 N657 0.984 . S
H661 N657 0.985 . S
H662 N656 0.984 . S
H663 N656 0.984 . S
H664 N652 0.984 . S
H665 N652 0.985 . S
C666 C667 1.363 . S
C666 C672 1.379 . S
C666 N674 1.356 . S
C667 C666 1.363 . S
C667 C673 1.363 . S
C668 C669 1.363 . S
C668 C673 1.379 . S
C668 N675 1.356 . S
C669 C668 1.363 . S
C669 C672 1.363 . S
N670 C672 1.356 . S
N670 H682 0.984 . S
N670 H683 0.985 . S
N671 C673 1.356 . S
N671 H676 0.984 . S
N671 H677 0.985 . S
C672 C666 1.379 . S
C672 C669 1.363 . S
C672 N670 1.356 . S
C673 C667 1.363 . S
C673 C668 1.379 . S
C673 N671 1.356 . S
N674 C666 1.356 . S
N674 H680 0.984 . S
N674 H681 0.984 . S
N675 C668 1.356 . S
N675 H678 0.984 . S
N675 H679 0.985 . S
H676 N671 0.984 . S
H677 N671 0.985 . S
H678 N675 0.984 . S
H679 N675 0.985 . S
H680 N674 0.984 . S
H681 N674 0.984 . S
H682 N670 0.984 . S
H683 N670 0.985 . S
C684 C685 1.363 . S
C684 C690 1.379 . S
C684 N692 1.356 . S
C685 C684 1.363 . S
C685 C691 1.363 . S
C686 C687 1.363 . S
C686 C691 1.379 . S
C686 N693 1.356 1_556 S
C687 C686 1.363 . S
C687 C690 1.363 . S
N688 C690 1.356 . S
N688 H700 0.984 . S
N688 H701 0.985 1_556 S
N689 C691 1.356 . S
N689 H694 0.984 . S
N689 H695 0.985 . S
C690 C684 1.379 . S
C690 C687 1.363 . S
C690 N688 1.356 . S
C691 C685 1.363 . S
C691 C686 1.379 . S
C691 N689 1.356 . S
N692 C684 1.356 . S
N692 H698 0.984 . S
N692 H699 0.984 . S
N693 C686 1.356 1_554 S
N693 H696 0.984 . S
N693 H697 0.985 . S
H694 N689 0.984 . S
H695 N689 0.985 . S
H696 N693 0.984 . S
H697 N693 0.985 . S
H698 N692 0.984 . S
H699 N692 0.984 . S
H700 N688 0.984 . S
H701 N688 0.985 1_554 S
C702 C703 1.363 . S
C702 C708 1.379 . S
C702 N710 1.356 . S
C703 C702 1.363 . S
C703 C709 1.363 . S
C704 C705 1.363 1_556 S
C704 C709 1.379 1_556 S
C704 N711 1.356 . S
C705 C704 1.363 1_554 S
C705 C708 1.363 . S
N706 C708 1.356 . S
N706 H718 0.984 . S
N706 H719 0.985 . S
N707 C709 1.356 . S
N707 H712 0.984 . S
N707 H713 0.985 . S
C708 C702 1.379 . S
C708 C705 1.363 . S
C708 N706 1.356 . S
C709 C703 1.363 . S
C709 C704 1.379 1_554 S
C709 N707 1.356 . S
N710 C702 1.356 . S
N710 H716 0.984 . S
N710 H717 0.984 . S
N711 C704 1.356 . S
N711 H714 0.984 . S
N711 H715 0.985 . S
H712 N707 0.984 . S
H713 N707 0.985 . S
H714 N711 0.984 . S
H715 N711 0.985 . S
H716 N710 0.984 . S
H717 N710 0.984 . S
H718 N706 0.984 . S
H719 N706 0.985 . S
C720 C721 1.363 . S
C720 C726 1.379 . S
C720 N728 1.356 . S
C721 C720 1.363 . S
C721 C727 1.363 . S
C722 C723 1.363 . S
C722 C727 1.379 . S
C722 N729 1.356 . S
C723 C722 1.363 . S
C723 C726 1.363 . S
N724 C726 1.356 . S
N724 H736 0.984 . S
N724 H737 0.985 . S
N725 C727 1.356 . S
N725 H730 0.984 . S
N725 H731 0.985 . S
C726 C720 1.379 . S
C726 C723 1.363 . S
C726 N724 1.356 . S
C727 C721 1.363 . S
C727 C722 1.379 . S
C727 N725 1.356 . S
N728 C720 1.356 . S
N728 H734 0.984 . S
N728 H735 0.984 . S
N729 C722 1.356 . S
N729 H732 0.984 . S
N729 H733 0.985 . S
H730 N725 0.984 . S
H731 N725 0.985 . S
H732 N729 0.984 . S
H733 N729 0.985 . S
H734 N728 0.984 . S
H735 N728 0.984 . S
H736 N724 0.984 . S
H737 N724 0.985 . S
C738 C739 1.363 . S
C738 C744 1.379 . S
C738 N746 1.356 . S
C739 C738 1.363 . S
C739 C745 1.363 . S
C740 C741 1.363 . S
C740 C745 1.379 . S
C740 N747 1.356 . S
C741 C740 1.363 . S
C741 C744 1.363 . S
N742 C744 1.356 . S
N742 H754 0.984 . S
N742 H755 0.985 . S
N743 C745 1.356 . S
N743 H748 0.984 . S
N743 H749 0.985 . S
C744 C738 1.379 . S
C744 C741 1.363 . S
C744 N742 1.356 . S
C745 C739 1.363 . S
C745 C740 1.379 . S
C745 N743 1.356 . S
N746 C738 1.356 . S
N746 H752 0.984 . S
N746 H753 0.984 . S
N747 C740 1.356 . S
N747 H750 0.984 . S
N747 H751 0.985 . S
H748 N743 0.984 . S
H749 N743 0.985 . S
H750 N747 0.984 . S
H751 N747 0.985 . S
H752 N746 0.984 . S
H753 N746 0.984 . S
H754 N742 0.984 . S
H755 N742 0.985 . S
C756 C757 1.363 . S
C756 C762 1.379 . S
C756 N764 1.356 . S
C757 C756 1.363 . S
C757 C763 1.363 . S
C758 C759 1.363 . S
C758 C763 1.379 . S
C758 N765 1.357 . S
C759 C758 1.363 . S
C759 C762 1.363 . S
N760 C762 1.356 1_554 S
N760 H772 0.984 1_554 S
N760 H773 0.985 . S
N761 C763 1.356 . S
N761 H766 0.984 . S
N761 H767 0.985 . S
C762 C756 1.379 . S
C762 C759 1.363 . S
C762 N760 1.356 1_556 S
C763 C757 1.363 . S
C763 C758 1.379 . S
C763 N761 1.356 . S
N764 C756 1.356 . S
N764 H770 0.984 . S
N764 H771 0.984 . S
N765 C758 1.357 . S
N765 H768 0.984 1_556 S
N765 H769 0.985 . S
H766 N761 0.984 . S
H767 N761 0.985 . S
H768 N765 0.984 1_554 S
H769 N765 0.985 . S
H770 N764 0.984 . S
H771 N764 0.984 . S
H772 N760 0.984 1_556 S
H773 N760 0.985 . S
C774 C775 1.363 . S
C774 C780 1.379 1_556 S
C774 N782 1.356 . S
C775 C774 1.363 . S
C775 C781 1.363 1_556 S
C776 C777 1.363 . S
C776 C781 1.379 . S
C776 N783 1.356 . S
C777 C776 1.363 . S
C777 C780 1.363 . S
N778 C780 1.356 . S
N778 H790 0.984 . S
N778 H791 0.985 . S
N779 C781 1.352 1_556 S
N779 H784 0.995 . S
N779 H785 0.978 1_556 S
C780 C774 1.379 1_554 S
C780 C777 1.363 . S
C780 N778 1.356 . S
C781 C775 1.363 1_554 S
C781 C776 1.379 . S
C781 N779 1.352 1_554 S
N782 C774 1.356 . S
N782 H788 0.984 . S
N782 H789 0.984 . S
N783 C776 1.356 . S
N783 H786 0.984 . S
N783 H787 0.985 . S
H784 N779 0.995 . S
H785 N779 0.978 1_554 S
H786 N783 0.984 . S
H787 N783 0.985 . S
H788 N782 0.984 . S
H789 N782 0.984 . S
H790 N778 0.984 . S
H791 N778 0.985 . S
C792 C793 1.363 . S
C792 C798 1.379 . S
C792 N800 1.356 . S
C793 C792 1.363 . S
C793 C799 1.363 . S
C794 C795 1.363 . S
C794 C799 1.379 . S
C794 N801 1.356 . S
C795 C794 1.363 . S
C795 C798 1.363 . S
N796 C798 1.356 . S
N796 H808 0.984 . S
N796 H809 0.985 1_554 S
N797 C799 1.356 . S
N797 H802 0.984 . S
N797 H803 0.985 . S
C798 C792 1.379 . S
C798 C795 1.363 . S
C798 N796 1.356 . S
C799 C793 1.363 . S
C799 C794 1.379 . S
C799 N797 1.356 . S
N800 C792 1.356 . S
N800 H806 0.984 . S
N800 H807 0.984 . S
N801 C794 1.356 . S
N801 H804 0.984 . S
N801 H805 0.985 . S
H802 N797 0.984 . S
H803 N797 0.985 . S
H804 N801 0.984 . S
H805 N801 0.985 . S
H806 N800 0.984 . S
H807 N800 0.984 . S
H808 N796 0.984 . S
H809 N796 0.985 1_556 S
C810 C811 1.363 . S
C810 C816 1.379 . S
C810 N818 1.356 . S
C811 C810 1.363 . S
C811 C817 1.363 . S
C812 C813 1.363 . S
C812 C817 1.379 . S
C812 N819 1.356 . S
C813 C812 1.363 . S
C813 C816 1.363 . S
N814 C816 1.356 . S
N814 H826 0.984 . S
N814 H827 0.985 . S
N815 C817 1.356 . S
N815 H820 0.984 . S
N815 H821 0.985 . S
C816 C810 1.379 . S
C816 C813 1.363 . S
C816 N814 1.356 . S
C817 C811 1.363 . S
C817 C812 1.379 . S
C817 N815 1.356 . S
N818 C810 1.356 . S
N818 H824 0.984 . S
N818 H825 0.984 . S
N819 C812 1.356 . S
N819 H822 0.984 . S
N819 H823 0.985 . S
H820 N815 0.984 . S
H821 N815 0.985 . S
H822 N819 0.984 . S
H823 N819 0.985 . S
H824 N818 0.984 . S
H825 N818 0.984 . S
H826 N814 0.984 . S
H827 N814 0.985 . S
C828 C829 1.363 . S
C828 C834 1.379 . S
C828 N836 1.356 . S
C829 C828 1.363 . S
C829 C835 1.363 . S
C830 C831 1.363 . S
C830 C835 1.379 . S
C830 N837 1.356 . S
C831 C830 1.363 . S
C831 C834 1.363 . S
N832 C834 1.356 . S
N832 H844 0.984 . S
N832 H845 0.985 . S
N833 C835 1.356 . S
N833 H838 0.984 . S
N833 H839 0.985 . S
C834 C828 1.379 . S
C834 C831 1.363 . S
C834 N832 1.356 . S
C835 C829 1.363 . S
C835 C830 1.379 . S
C835 N833 1.356 . S
N836 C828 1.356 . S
N836 H842 0.984 . S
N836 H843 0.984 . S
N837 C830 1.356 . S
N837 H840 0.984 . S
N837 H841 0.985 . S
H838 N833 0.984 . S
H839 N833 0.985 . S
H840 N837 0.984 . S
H841 N837 0.985 . S
H842 N836 0.984 . S
H843 N836 0.984 . S
H844 N832 0.984 . S
H845 N832 0.985 . S
C846 C847 1.363 . S
C846 C852 1.379 . S
C846 N854 1.356 . S
C847 C846 1.363 . S
C847 C853 1.363 . S
C848 C849 1.363 . S
C848 C853 1.379 . S
C848 N855 1.356 . S
C849 C848 1.363 . S
C849 C852 1.363 . S
N850 C852 1.356 . S
N850 H862 0.984 . S
N850 H863 0.985 . S
N851 C853 1.356 . S
N851 H856 0.984 . S
N851 H857 0.985 . S
C852 C846 1.379 . S
C852 C849 1.363 . S
C852 N850 1.356 . S
C853 C847 1.363 . S
C853 C848 1.379 . S
C853 N851 1.356 . S
N854 C846 1.356 . S
N854 H860 0.984 . S
N854 H861 0.984 . S
N855 C848 1.356 . S
N855 H858 0.984 . S
N855 H859 0.985 . S
H856 N851 0.984 . S
H857 N851 0.985 . S
H858 N855 0.984 . S
H859 N855 0.985 . S
H860 N854 0.984 . S
H861 N854 0.984 . S
H862 N850 0.984 . S
H863 N850 0.985 . S
C864 C865 1.363 . S
C864 C870 1.379 . S
C864 N872 1.356 . S
C865 C864 1.363 . S
C865 C871 1.363 . S
C866 C867 1.363 . S
C866 C871 1.379 . S
C866 N873 1.356 . S
C867 C866 1.363 . S
C867 C870 1.363 . S
N868 C870 1.356 . S
N868 H880 0.984 . S
N868 H881 0.985 . S
N869 C871 1.356 . S
N869 H874 0.984 . S
N869 H875 0.985 . S
C870 C864 1.379 . S
C870 C867 1.363 . S
C870 N868 1.356 . S
C871 C865 1.363 . S
C871 C866 1.379 . S
C871 N869 1.356 . S
N872 C864 1.356 . S
N872 H878 0.984 . S
N872 H879 0.984 . S
N873 C866 1.356 . S
N873 H876 0.984 . S
N873 H877 0.985 . S
H874 N869 0.984 . S
H875 N869 0.985 . S
H876 N873 0.984 . S
H877 N873 0.985 . S
H878 N872 0.984 . S
H879 N872 0.984 . S
H880 N868 0.984 . S
H881 N868 0.985 . S
C882 C883 1.363 . S
C882 C888 1.379 . S
C882 N890 1.356 . S
C883 C882 1.363 . S
C883 C889 1.363 . S
C884 C885 1.363 . S
C884 C889 1.379 . S
C884 N891 1.356 . S
C885 C884 1.363 . S
C885 C888 1.363 . S
N886 C888 1.356 . S
N886 H898 0.984 . S
N886 H899 0.985 1_556 S
N887 C889 1.356 . S
N887 H892 0.984 . S
N887 H893 0.985 . S
C888 C882 1.379 . S
C888 C885 1.363 . S
C888 N886 1.356 . S
C889 C883 1.363 . S
C889 C884 1.379 . S
C889 N887 1.356 . S
N890 C882 1.356 . S
N890 H896 0.984 . S
N890 H897 0.984 . S
N891 C884 1.356 . S
N891 H894 0.984 . S
N891 H895 0.985 . S
H892 N887 0.984 . S
H893 N887 0.985 . S
H894 N891 0.984 . S
H895 N891 0.985 . S
H896 N890 0.984 . S
H897 N890 0.984 . S
H898 N886 0.984 . S
H899 N886 0.985 1_554 S
C900 C901 1.363 . S
C900 C906 1.379 1_556 S
C900 N908 1.356 . S
C901 C900 1.363 . S
C901 C907 1.363 . S
C902 C903 1.363 1_556 S
C902 C907 1.379 . S
C902 N909 1.356 1_556 S
C903 C902 1.363 1_554 S
C903 C906 1.363 . S
N904 C906 1.356 . S
N904 H916 0.984 . S
N904 H917 0.985 . S
N905 C907 1.356 . S
N905 H910 0.984 . S
N905 H911 0.985 . S
C906 C900 1.379 1_554 S
C906 C903 1.363 . S
C906 N904 1.356 . S
C907 C901 1.363 . S
C907 C902 1.379 . S
C907 N905 1.356 . S
N908 C900 1.356 . S
N908 H914 0.984 . S
N908 H915 0.984 . S
N909 C902 1.356 1_554 S
N909 H912 0.984 . S
N909 H913 0.985 . S
H910 N905 0.984 . S
H911 N905 0.985 . S
H912 N909 0.984 . S
H913 N909 0.985 . S
H914 N908 0.984 . S
H915 N908 0.984 . S
H916 N904 0.984 . S
H917 N904 0.985 . S
C918 C919 1.363 . S
C918 C924 1.379 . S
C918 N926 1.356 . S
C919 C918 1.363 . S
C919 C925 1.363 . S
C920 C921 1.363 . S
C920 C925 1.379 . S
C920 N927 1.356 . S
C921 C920 1.363 . S
C921 C924 1.363 . S
N922 C924 1.356 1_556 S
N922 H934 0.984 . S
N922 H935 0.985 . S
N923 C925 1.356 . S
N923 H928 0.984 . S
N923 H929 0.985 . S
C924 C918 1.379 . S
C924 C921 1.363 . S
C924 N922 1.356 1_554 S
C925 C919 1.363 . S
C925 C920 1.379 . S
C925 N923 1.356 . S
N926 C918 1.356 . S
N926 H932 0.984 . S
N926 H933 0.984 . S
N927 C920 1.356 . S
N927 H930 0.984 1_554 S
N927 H931 0.985 . S
H928 N923 0.984 . S
H929 N923 0.985 . S
H930 N927 0.984 1_556 S
H931 N927 0.985 . S
H932 N926 0.984 . S
H933 N926 0.984 . S
H934 N922 0.984 . S
H935 N922 0.985 . S
C397 C285 1.594 . S
C399 C21 1.594 . S
C415 C318 1.594 . S
C417 C54 1.594 . S
C433 C351 1.594 . S
C435 C87 1.594 . S
C451 C384 1.594 . S
C453 C120 1.594 . S
C469 C153 1.594 . S
C471 C219 1.594 . S
C487 C252 1.594 . S
C489 C186 1.594 . S
C505 C7 1.418 . S
C507 C370 1.418 . S
C523 C205 1.418 . S
C525 C40 1.418 . S
C541 C73 1.418 . S
C543 C238 1.418 . S
C559 C106 1.418 . S
C561 C271 1.418 . S
C577 C304 1.418 . S
C579 C139 1.418 . S
C595 C172 1.418 . S
C597 C337 1.418 . S
C613 C18 1.485 . S
C615 C348 1.485 . S
C631 C51 1.485 . S
C633 C381 1.485 . S
C649 C216 1.485 . S
C651 C84 1.485 . S
C667 C249 1.485 . S
C669 C117 1.485 . S
C685 C150 1.486 . S
C687 C282 1.486 1_556 S
C703 C315 1.485 . S
C705 C183 1.485 1_554 S
C721 N13 1.264 . S
C723 N2 1.265 . S
C739 N35 1.265 . S
C741 N46 1.264 . S
C757 N79 1.264 . S
C759 N68 1.265 1_556 S
C775 N112 1.264 . S
C777 N101 1.265 . S
C793 N134 1.265 . S
C795 N145 1.264 . S
C811 N167 1.265 . S
C813 N178 1.264 . S
C829 N200 1.265 . S
C831 N211 1.264 . S
C847 N233 1.265 . S
C849 N244 1.264 . S
C865 N266 1.265 . S
C867 N277 1.264 . S
C883 N299 1.265 . S
C885 N310 1.264 . S
C901 N332 1.265 . S
C903 N343 1.264 . S
C919 N376 1.264 . S
C921 N365 1.265 1_554 S
