# Generated by pormake.
# Topology wkf, (6)-cn, num edge types: 1
# Building blocks:
#     Node 0, Type 0, BuildingBlock: KUMJIN_clean_sbu_0, # of connection points: 6
#     Node 1, Type 0, BuildingBlock: KUMJIN_clean_sbu_0, # of connection points: 6
#     Node 2, Type 0, BuildingBlock: KUMJIN_clean_sbu_0, # of connection points: 6
#     Node 3, Type 0, BuildingBlock: KUMJIN_clean_sbu_0, # of connection points: 6
#     Node 4, Type 0, BuildingBlock: KUMJIN_clean_sbu_0, # of connection points: 6
#     Node 5, Type 0, BuildingBlock: KUMJIN_clean_sbu_0, # of connection points: 6
#     Node 6, Type 0, BuildingBlock: KUMJIN_clean_sbu_0, # of connection points: 6
#     Node 7, Type 0, BuildingBlock: KUMJIN_clean_sbu_0, # of connection points: 6
#     Node 8, Type 0, BuildingBlock: KUMJIN_clean_sbu_0, # of connection points: 6
#     Node 9, Type 0, BuildingBlock: KUMJIN_clean_sbu_0, # of connection points: 6
#     Node 10, Type 0, BuildingBlock: KUMJIN_clean_sbu_0, # of connection points: 6
#     Node 11, Type 0, BuildingBlock: KUMJIN_clean_sbu_0, # of connection points: 6
#     Edge 12, Type (0, 0), BuildingBlock: UVAHIK_clean_linker_0, # of connection points: 2
#     Edge 13, Type (0, 0), BuildingBlock: UVAHIK_clean_linker_0, # of connection points: 2
#     Edge 14, Type (0, 0), BuildingBlock: UVAHIK_clean_linker_0, # of connection points: 2
#     Edge 15, Type (0, 0), BuildingBlock: UVAHIK_clean_linker_0, # of connection points: 2
#     Edge 16, Type (0, 0), BuildingBlock: UVAHIK_clean_linker_0, # of connection points: 2
#     Edge 17, Type (0, 0), BuildingBlock: UVAHIK_clean_linker_0, # of connection points: 2
#     Edge 18, Type (0, 0), BuildingBlock: UVAHIK_clean_linker_0, # of connection points: 2
#     Edge 19, Type (0, 0), BuildingBlock: UVAHIK_clean_linker_0, # of connection points: 2
#     Edge 20, Type (0, 0), BuildingBlock: UVAHIK_clean_linker_0, # of connection points: 2
#     Edge 21, Type (0, 0), BuildingBlock: UVAHIK_clean_linker_0, # of connection points: 2
#     Edge 22, Type (0, 0), BuildingBlock: UVAHIK_clean_linker_0, # of connection points: 2
#     Edge 23, Type (0, 0), BuildingBlock: UVAHIK_clean_linker_0, # of connection points: 2
#     Edge 24, Type (0, 0), BuildingBlock: UVAHIK_clean_linker_0, # of connection points: 2
#     Edge 25, Type (0, 0), BuildingBlock: UVAHIK_clean_linker_0, # of connection points: 2
#     Edge 26, Type (0, 0), BuildingBlock: UVAHIK_clean_linker_0, # of connection points: 2
#     Edge 27, Type (0, 0), BuildingBlock: UVAHIK_clean_linker_0, # of connection points: 2
#     Edge 28, Type (0, 0), BuildingBlock: UVAHIK_clean_linker_0, # of connection points: 2
#     Edge 29, Type (0, 0), BuildingBlock: UVAHIK_clean_linker_0, # of connection points: 2
#     Edge 30, Type (0, 0), BuildingBlock: UVAHIK_clean_linker_0, # of connection points: 2
#     Edge 31, Type (0, 0), BuildingBlock: UVAHIK_clean_linker_0, # of connection points: 2
#     Edge 32, Type (0, 0), BuildingBlock: UVAHIK_clean_linker_0, # of connection points: 2
#     Edge 33, Type (0, 0), BuildingBlock: UVAHIK_clean_linker_0, # of connection points: 2
#     Edge 34, Type (0, 0), BuildingBlock: UVAHIK_clean_linker_0, # of connection points: 2
#     Edge 35, Type (0, 0), BuildingBlock: UVAHIK_clean_linker_0, # of connection points: 2
#     Edge 36, Type (0, 0), BuildingBlock: UVAHIK_clean_linker_0, # of connection points: 2
#     Edge 37, Type (0, 0), BuildingBlock: UVAHIK_clean_linker_0, # of connection points: 2
#     Edge 38, Type (0, 0), BuildingBlock: UVAHIK_clean_linker_0, # of connection points: 2
#     Edge 39, Type (0, 0), BuildingBlock: UVAHIK_clean_linker_0, # of connection points: 2
#     Edge 40, Type (0, 0), BuildingBlock: UVAHIK_clean_linker_0, # of connection points: 2
#     Edge 41, Type (0, 0), BuildingBlock: UVAHIK_clean_linker_0, # of connection points: 2
#     Edge 42, Type (0, 0), BuildingBlock: UVAHIK_clean_linker_0, # of connection points: 2
#     Edge 43, Type (0, 0), BuildingBlock: UVAHIK_clean_linker_0, # of connection points: 2
#     Edge 44, Type (0, 0), BuildingBlock: UVAHIK_clean_linker_0, # of connection points: 2
#     Edge 45, Type (0, 0), BuildingBlock: UVAHIK_clean_linker_0, # of connection points: 2
#     Edge 46, Type (0, 0), BuildingBlock: UVAHIK_clean_linker_0, # of connection points: 2
#     Edge 47, Type (0, 0), BuildingBlock: UVAHIK_clean_linker_0, # of connection points: 2
# Relax obj value: 0.130
# Max RMSD: 0.266
# Mean RMSD: 0.261
data_MOF--net-wkf--node1-KUMJIN_clean_sbu_0--edge1-UVAHIK_clean_linker_0
_symmetry_space_group_name_H-M    P1
_symmetry_Int_Tables_number       1
_symmetry_cell_setting            triclinic
loop_
_symmetry_equiv_pos_as_xyz
'x, y, z'
_cell_length_a     38.597961
_cell_length_b     38.614718
_cell_length_c     99.465935
_cell_angle_alpha  89.94632
_cell_angle_beta   89.987916
_cell_angle_gamma 119.72452
loop_
_atom_site_label
_atom_site_type_symbol
_atom_site_fract_x
_atom_site_fract_y
_atom_site_fract_z
_atom_type_partial_charge
Eu0 Eu 0.51206 0.99867 0.36148 0.0
C1 C 0.42523 1.02399 0.31516 0.0
C2 C 0.3792 0.04517 0.32331 0.0
C3 C 0.40661 0.06302 0.30073 0.0
C4 C 0.40049 1.02466 0.32528 0.0
C5 C 0.42912 0.044 0.30291 0.0
C6 C 0.38176 0.06363 0.3109 0.0
C7 C 0.47997 0.02814 0.29634 0.0
N8 N 0.44804 1.00678 0.3178 0.0
C9 C 0.47543 1.00892 0.30867 0.0
C10 C 0.4565 0.04542 0.29339 0.0
Eu11 Eu 0.43271 0.97067 0.33825 0.0
N12 N 0.39963 1.00776 0.33738 0.0
C13 C 0.3778 1.00957 0.34783 0.0
C14 C 0.35691 0.04751 0.33404 0.0
C15 C 0.35639 0.02982 0.34637 0.0
H16 H 0.49403 0.99605 0.31077 0.0
H17 H 0.3389 0.03111 0.35466 0.0
H18 H 0.36539 0.07929 0.30917 0.0
H19 H 0.50165 0.02968 0.28911 0.0
H20 H 0.37541 0.99377 0.35704 0.0
H21 H 0.58739 0.04791 0.31247 0.0
H22 H 0.34021 0.06309 0.33294 0.0
H23 H 0.51053 0.92937 0.38233 0.0
H24 H 0.53944 0.03938 0.32989 0.0
H25 H 0.54424 0.88995 0.38508 0.0
H26 H 0.40901 0.07828 0.29133 0.0
H27 H 0.62922 1.01639 0.31495 0.0
H28 H 0.64619 0.97159 0.32809 0.0
H29 H 0.46038 0.06054 0.28386 0.0
H30 H 0.63362 0.92775 0.34757 0.0
N31 N 0.55562 1.00648 0.34318 0.0
C32 C 0.55849 1.0271 0.33167 0.0
C33 C 0.6088 1.01345 0.32293 0.0
C34 C 0.6044 0.99056 0.33435 0.0
C35 C 0.58533 0.03135 0.32151 0.0
C36 C 0.57723 0.98754 0.34444 0.0
H37 H 0.59525 0.8966 0.36865 0.0
N38 N 0.54154 0.95795 0.36433 0.0
C39 C 0.55172 0.91017 0.37665 0.0
C40 C 0.56991 0.96252 0.35533 0.0
C41 C 0.53247 0.93244 0.37498 0.0
C42 C 0.58061 0.91416 0.3674 0.0
C43 C 0.58995 0.94041 0.35655 0.0
O44 O 0.5332 1.00354 0.3821 0.0
O45 O 0.46106 1.00841 0.35672 0.0
O46 O 0.47069 0.04093 0.33749 0.0
O47 O 0.52546 0.05949 0.35135 0.0
O48 O 0.46763 0.99709 0.37646 0.0
O49 O 0.56217 0.05446 0.36888 0.0
O50 O 0.39725 0.92867 0.32224 0.0
O51 O 0.47476 0.95147 0.34675 0.0
O52 O 0.46082 0.93879 0.36921 0.0
O53 O 0.40567 0.93226 0.35724 0.0
O54 O 0.46604 0.94337 0.32674 0.0
O55 O 0.36875 0.9293 0.34085 0.0
C56 C 0.44743 1.00676 0.36854 0.0
C57 C 0.55387 0.06699 0.39159 0.0
C58 C 0.58145 0.1318 0.40257 0.0
C59 C 0.58442 0.10656 0.39301 0.0
C60 C 0.54682 0.11727 0.41047 0.0
C61 C 0.51987 0.05266 0.39986 0.0
C62 C 0.51623 0.07789 0.40908 0.0
C63 C 0.50483 0.06941 0.34282 0.0
C64 C 0.55774 0.04166 0.38124 0.0
C65 C 0.61795 0.94445 0.34679 0.0
C66 C 0.62516 0.96947 0.33571 0.0
C67 C 0.48343 0.93697 0.33672 0.0
C68 C 0.3285 0.91091 0.32085 0.0
C69 C 0.31123 0.8832 0.31009 0.0
C70 C 0.27713 0.87914 0.30318 0.0
C71 C 0.26224 0.90455 0.30678 0.0
C72 C 0.31112 0.93405 0.32443 0.0
C73 C 0.27896 0.93149 0.31731 0.0
C74 C 0.42153 0.92095 0.36704 0.0
C75 C 0.36344 0.91483 0.32864 0.0
H76 H 0.61058 0.11771 0.38663 0.0
H77 H 0.54384 0.13598 0.41796 0.0
H78 H 0.49605 1.02205 0.39928 0.0
H79 H 0.4898 0.06673 0.4153 0.0
H80 H 0.32344 0.86421 0.30742 0.0
H81 H 0.23711 0.90334 0.30151 0.0
H82 H 0.32193 0.95398 0.33287 0.0
H83 H 0.2665 0.95016 0.32011 0.0
Eu84 Eu 0.53898 0.49455 0.52787 0.0
C85 C 0.42698 0.40739 0.48162 0.0
C86 C 0.36009 0.36289 0.49008 0.0
C87 C 0.36935 0.38892 0.46729 0.0
C88 C 0.40176 0.38365 0.49192 0.0
C89 C 0.41079 0.41089 0.46933 0.0
C90 C 0.34409 0.36504 0.47763 0.0
C91 C 0.4772 0.46081 0.46249 0.0
N92 N 0.4669 0.42991 0.48415 0.0
C93 C 0.49196 0.45674 0.47488 0.0
C94 C 0.43656 0.43755 0.45965 0.0
Eu95 Eu 0.48785 0.41526 0.5047 0.0
N96 N 0.41794 0.38301 0.50401 0.0
C97 C 0.39452 0.36162 0.51454 0.0
C98 C 0.3357 0.34127 0.50092 0.0
C99 C 0.35299 0.34075 0.51321 0.0
H100 H 0.52333 0.47528 0.47692 0.0
H101 H 0.3344 0.32366 0.52157 0.0
H102 H 0.31214 0.34904 0.476 0.0
H103 H 0.49719 0.48202 0.45515 0.0
H104 H 0.408 0.35913 0.52372 0.0
H105 H 0.56632 0.57057 0.47897 0.0
H106 H 0.30352 0.32495 0.4999 0.0
H107 H 0.60576 0.49152 0.54886 0.0
H108 H 0.52646 0.5227 0.49634 0.0
H109 H 0.67856 0.52438 0.55174 0.0
H110 H 0.35642 0.39104 0.45787 0.0
H111 H 0.63937 0.61153 0.48159 0.0
H112 H 0.70053 0.62757 0.49486 0.0
H113 H 0.42525 0.44112 0.45009 0.0
H114 H 0.7311 0.61421 0.5144 0.0
N115 N 0.5751 0.538 0.50966 0.0
C116 C 0.55769 0.54133 0.49814 0.0
C117 C 0.62172 0.59113 0.48953 0.0
C118 C 0.63981 0.5863 0.50099 0.0
C119 C 0.58052 0.56814 0.48803 0.0
C120 C 0.61546 0.55918 0.51102 0.0
H121 H 0.72324 0.57539 0.53544 0.0
N122 N 0.60877 0.52308 0.5309 0.0
C123 C 0.66611 0.53223 0.54331 0.0
C124 C 0.63276 0.55143 0.52196 0.0
C125 C 0.62479 0.51347 0.54156 0.0
C126 C 0.69121 0.56114 0.53412 0.0
C127 C 0.67471 0.57097 0.52326 0.0
O128 O 0.55581 0.51735 0.54825 0.0
O129 O 0.47848 0.44381 0.52323 0.0
O130 O 0.45673 0.45454 0.50337 0.0
O131 O 0.4914 0.50777 0.51788 0.0
O132 O 0.49647 0.45078 0.54301 0.0
O133 O 0.53207 0.54447 0.53481 0.0
O134 O 0.49442 0.37923 0.48884 0.0
O135 O 0.54884 0.45711 0.5131 0.0
O136 O 0.54687 0.44313 0.53596 0.0
O137 O 0.49976 0.38818 0.52363 0.0
O138 O 0.54818 0.44791 0.49312 0.0
O139 O 0.46493 0.35125 0.50746 0.0
C140 C 0.46667 0.43053 0.53511 0.0
C141 C 0.51077 0.5358 0.5575 0.0
C142 C 0.46809 0.5594 0.56739 0.0
C143 C 0.49412 0.56081 0.55717 0.0
C144 C 0.45669 0.52993 0.57745 0.0
C145 C 0.49878 0.50667 0.56763 0.0
C146 C 0.4714 0.50343 0.57739 0.0
C147 C 0.46173 0.48808 0.50905 0.0
C148 C 0.54054 0.54061 0.54723 0.0
C149 C 0.69888 0.59894 0.51355 0.0
C150 C 0.68147 0.60659 0.50244 0.0
C151 C 0.57189 0.46549 0.50306 0.0
C152 C 0.44326 0.31082 0.48753 0.0
C153 C 0.45372 0.29325 0.47685 0.0
C154 C 0.42384 0.2592 0.46999 0.0
C155 C 0.38369 0.24456 0.47358 0.0
C156 C 0.40286 0.29389 0.49108 0.0
C157 C 0.37342 0.26168 0.48402 0.0
C158 C 0.52619 0.404 0.53359 0.0
C159 C 0.47419 0.34559 0.4953 0.0
H160 H 0.50225 0.58175 0.54893 0.0
H161 H 0.43749 0.52788 0.58569 0.0
H162 H 0.5106 0.48645 0.5681 0.0
H163 H 0.46243 0.48101 0.58518 0.0
H164 H 0.48481 0.30516 0.4742 0.0
H165 H 0.35995 0.21936 0.46836 0.0
H166 H 0.39374 0.30508 0.49945 0.0
H167 H 0.34241 0.24949 0.4868 0.0
Eu168 Eu 0.06516 0.52099 0.69449 0.0
C169 C 1.03961 0.41317 0.64692 0.0
C170 C 1.01675 0.34528 0.65453 0.0
C171 C 0.99993 0.35718 0.63208 0.0
C172 C 1.03805 0.38673 0.65681 0.0
C173 C 1.0197 0.3984 0.63459 0.0
C174 C 0.99842 0.33071 0.64202 0.0
C175 C 1.03651 0.46568 0.62867 0.0
N176 N 0.05731 0.45285 0.64991 0.0
C177 C 0.05555 0.47902 0.64108 0.0
C178 C 1.01888 0.42533 0.62535 0.0
Eu179 Eu 0.09308 0.47126 0.67044 0.0
N180 N 0.05497 0.40152 0.669 0.0
C181 C 0.05267 0.37688 0.67918 0.0
C182 C 1.01372 0.31965 0.66501 0.0
C183 C 1.03163 0.33552 0.6774 0.0
H184 H 0.06849 0.51019 0.64349 0.0
H185 H 1.02992 0.31596 0.68549 0.0
H186 H 0.98218 0.29895 0.64005 0.0
H187 H 1.03531 0.48656 0.62167 0.0
H188 H 0.06869 0.38922 0.68842 0.0
H189 H 1.01387 0.54889 0.6462 0.0
H190 H 0.99756 0.2876 0.66365 0.0
H191 H 0.13416 0.58736 0.71556 0.0
H192 H 1.02279 0.50883 0.66334 0.0
H193 H 0.17311 0.6601 0.71865 0.0
H194 H 0.98472 0.34536 0.62262 0.0
H195 H 0.04563 0.62191 0.64892 0.0
H196 H 0.09064 0.68288 0.66218 0.0
H197 H 1.00384 0.41513 0.61577 0.0
H198 H 0.13466 0.71316 0.68165 0.0
N199 N 0.05657 0.55733 0.67659 0.0
C200 C 1.03537 0.54005 0.66516 0.0
C201 C 0.04884 0.60417 0.65674 0.0
C202 C 0.07203 0.62211 0.66813 0.0
C203 C 1.03082 0.56299 0.65519 0.0
C204 C 0.0754 0.59764 0.67802 0.0
H205 H 0.16603 0.705 0.70256 0.0
N206 N 0.10531 0.59068 0.69773 0.0
C207 C 0.15286 0.64779 0.71023 0.0
C208 C 0.1005 0.61478 0.68891 0.0
C209 C 0.13082 0.60652 0.70837 0.0
C210 C 0.14864 0.67301 0.70116 0.0
C211 C 0.12238 0.65668 0.69032 0.0
O212 O 0.05957 0.53603 0.7152 0.0
O213 O 0.05621 0.46064 0.68936 0.0
O214 O 1.02267 0.44 0.66963 0.0
O215 O 1.00416 0.47297 0.68501 0.0
O216 O 0.06963 0.4791 0.70907 0.0
O217 O 1.00871 0.51415 0.70194 0.0
O218 O 0.13526 0.4779 0.6544 0.0
O219 O 0.11149 0.53168 0.67923 0.0
O220 O 0.12552 0.52985 0.70184 0.0
O221 O 0.13365 0.48354 0.68896 0.0
O222 O 0.12098 0.53237 0.6593 0.0
O223 O 0.13351 0.44705 0.67272 0.0
C224 C 0.05957 0.44928 0.70113 0.0
C225 C 0.99612 0.49266 0.7246 0.0
C226 C 0.93227 0.45762 0.73643 0.0
C227 C 0.95677 0.48442 0.7264 0.0
C228 C 0.9473 0.43744 0.74416 0.0
C229 C 1.0107 0.47268 0.73263 0.0
C230 C 0.98614 0.44478 0.74217 0.0
C231 C 0.99415 0.4441 0.67585 0.0
C232 C 1.02132 0.52213 0.71432 0.0
C233 C 0.1181 0.68097 0.68073 0.0
C234 C 0.09299 0.66373 0.66966 0.0
C235 C 0.12647 0.5555 0.66938 0.0
C236 C 0.1527 0.42662 0.65253 0.0
C237 C 0.18197 0.43775 0.64222 0.0
C238 C 0.18637 0.4082 0.6351 0.0
C239 C 0.15991 0.36782 0.63804 0.0
C240 C 0.12826 0.38594 0.65542 0.0
C241 C 0.13132 0.35692 0.64809 0.0
C242 C 0.14456 0.50979 0.69901 0.0
C243 C 0.14857 0.45707 0.66061 0.0
H244 H 0.94551 0.4994 0.72002 0.0
H245 H 0.92969 0.41699 0.75208 0.0
H246 H 0.04108 0.47869 0.7317 0.0
H247 H 0.99757 0.42945 0.74828 0.0
H248 H 0.20188 0.46902 0.64007 0.0
H249 H 0.16159 0.34439 0.63261 0.0
H250 H 0.10696 0.37622 0.66348 0.0
H251 H 0.11175 0.3257 0.65038 0.0
Eu252 Eu 0.57006 0.05361 0.86102 0.0
C253 C 0.66069 1.02472 0.81725 0.0
C254 C 0.70609 1.00546 0.82722 0.0
C255 C 0.68107 0.98407 0.80453 0.0
C256 C 0.68397 1.02544 0.82803 0.0
C257 C 0.65864 1.0036 0.80546 0.0
C258 C 0.70467 0.98494 0.81539 0.0
C259 C 0.61035 1.02043 0.79673 0.0
N260 N 0.63779 0.0423 0.81875 0.0
C261 C 0.61319 0.04089 0.80865 0.0
C262 C 0.63322 1.0018 0.79511 0.0
Eu263 Eu 0.65026 0.08135 0.83838 0.0
N264 N 0.68458 0.04534 0.83939 0.0
C265 C 0.7081 0.04818 0.85001 0.0
C266 C 0.72911 1.00686 0.83831 0.0
C267 C 0.73021 0.02843 0.84974 0.0
H268 H 0.5958 0.0556 0.80969 0.0
H269 H 0.74854 0.03036 0.85825 0.0
H270 H 0.72157 0.96949 0.81455 0.0
H271 H 0.59065 1.01919 0.78878 0.0
H272 H 0.71034 0.06639 0.85857 0.0
H273 H 0.49877 1.00546 0.81104 0.0
H274 H 0.7465 0.99184 0.83809 0.0
H275 H 0.57229 0.12651 0.87979 0.0
H276 H 0.54921 1.01947 0.82805 0.0
H277 H 0.53471 0.16197 0.88264 0.0
H278 H 0.67992 0.96772 0.79554 0.0
H279 H 0.44972 0.02809 0.81432 0.0
H280 H 0.42762 0.06827 0.8278 0.0
H281 H 0.63075 0.98581 0.78589 0.0
H282 H 0.43875 0.1127 0.84697 0.0
N283 N 0.52602 0.04369 0.84237 0.0
C284 C 0.52644 1.02654 0.83037 0.0
C285 C 0.47096 0.03274 0.82221 0.0
C286 C 0.47331 0.05426 0.83377 0.0
C287 C 0.49842 1.01977 0.82035 0.0
C288 C 0.50173 0.05965 0.84372 0.0
H289 H 0.47939 0.14876 0.86717 0.0
N290 N 0.53856 0.09277 0.86288 0.0
C291 C 0.52686 0.14036 0.87464 0.0
C292 C 0.50835 0.08513 0.85432 0.0
C293 C 0.5481 0.12003 0.87297 0.0
C294 C 0.49559 0.13272 0.86593 0.0
C295 C 0.4862 0.10513 0.85553 0.0
O296 O 0.5731 0.0639 0.88253 0.0
O297 O 0.62914 0.05628 0.85918 0.0
O298 O 0.60826 1.01118 0.83671 0.0
O299 O 0.5521 0.99262 0.85017 0.0
O300 O 0.58249 1.00523 0.8676 0.0
O301 O 0.51812 1.01792 0.87387 0.0
O302 O 0.68195 0.12391 0.82194 0.0
O303 O 0.60917 0.10197 0.847 0.0
O304 O 0.62369 0.11095 0.86953 0.0
O305 O 0.67871 0.11757 0.8576 0.0
O306 O 0.61535 0.10707 0.82684 0.0
O307 O 0.7142 0.12422 0.83957 0.0
C308 C 0.61984 1.02269 0.86453 0.0
C309 C 0.53587 1.00657 0.89582 0.0
C310 C 0.49888 0.94318 0.90787 0.0
C311 C 0.50253 0.9683 0.89701 0.0
C312 C 0.5301 0.95676 0.91732 0.0
C313 C 0.56666 1.01927 0.90538 0.0
C314 C 0.56384 0.99433 0.91596 0.0
C315 C 0.57339 0.98284 0.84181 0.0
C316 C 0.53797 0.0337 0.88493 0.0
C317 C 0.45624 0.09786 0.84614 0.0
C318 C 0.4498 0.07245 0.83527 0.0
C319 C 0.59963 0.11537 0.83689 0.0
C320 C 0.75037 0.14197 0.81885 0.0
C321 C 0.76746 0.1711 0.80849 0.0
C322 C 0.80066 0.17521 0.80101 0.0
C323 C 0.81519 0.14897 0.80367 0.0
C324 C 0.7668 0.11726 0.82138 0.0
C325 C 0.79835 0.12029 0.81372 0.0
C326 C 0.66301 0.12841 0.86757 0.0
C327 C 0.71698 0.13837 0.82747 0.0
H328 H 0.47941 0.95827 0.88944 0.0
H329 H 0.52827 0.93893 0.92597 0.0
H330 H 0.59284 0.04862 0.90477 0.0
H331 H 0.58759 1.00447 0.92331 0.0
H332 H 0.75595 0.19115 0.80658 0.0
H333 H 0.84017 0.15103 0.79802 0.0
H334 H 0.75591 0.09592 0.82946 0.0
H335 H 0.81034 0.10074 0.81578 0.0
Eu336 Eu 0.54605 0.56144 0.02915 0.0
C337 C 0.65345 0.64427 0.9815 0.0
C338 C 0.72136 0.68988 0.9888 0.0
C339 C 0.70919 0.66125 0.96637 0.0
C340 C 0.67997 0.6693 0.99128 0.0
C341 C 0.66808 0.63937 0.96907 0.0
C342 C 0.73574 0.68639 0.9762 0.0
C343 C 0.60095 0.58844 0.96344 0.0
N344 N 0.61391 0.62202 0.98465 0.0
C345 C 0.58776 0.59396 0.97593 0.0
C346 C 0.64115 0.6115 0.95993 0.0
Eu347 Eu 0.5957 0.63911 0.0053 0.0
N348 N 0.66541 0.67104 0.00357 0.0
C349 C 0.69017 0.69313 0.01372 0.0
C350 C 0.74714 0.71253 0.9992 0.0
C351 C 0.73148 0.71398 0.01173 0.0
H352 H 0.55673 0.5755 0.97848 0.0
H353 H 0.75114 0.73173 0.01977 0.0
H354 H 0.76745 0.70225 0.97407 0.0
H355 H 0.5801 0.56627 0.95652 0.0
H356 H 0.67791 0.69616 0.0231 0.0
H357 H 0.51852 0.48151 0.98104 0.0
H358 H 0.77915 0.72877 0.99769 0.0
H359 H 0.47928 0.56685 0.04954 0.0
H360 H 0.55844 0.53079 0.99797 0.0
H361 H 0.40654 0.53507 0.05222 0.0
H362 H 0.7209 0.65807 0.95683 0.0
H363 H 0.44545 0.44097 0.98376 0.0
H364 H 0.38434 0.42645 0.99679 0.0
H365 H 0.65124 0.60684 0.95029 0.0
H366 H 0.35384 0.44197 0.01584 0.0
N367 N 0.50987 0.51688 0.0112 0.0
C368 C 0.52721 0.51247 0.99984 0.0
C369 C 0.46315 0.46203 0.99152 0.0
C370 C 0.44509 0.46797 0.00278 0.0
C371 C 0.50434 0.48479 0.98997 0.0
C372 C 0.4695 0.49594 0.01259 0.0
H373 H 0.36178 0.48289 0.0363 0.0
N374 N 0.47627 0.53386 0.03198 0.0
C375 C 0.41895 0.52634 0.04401 0.0
C376 C 0.45222 0.50481 0.02327 0.0
C377 C 0.46027 0.54457 0.04235 0.0
C378 C 0.39381 0.49676 0.03505 0.0
C379 C 0.41027 0.48571 0.0245 0.0
O380 O 0.52898 0.53994 0.04968 0.0
O381 O 0.6063 0.612 0.02397 0.0
O382 O 0.62788 0.60058 0.00442 0.0
O383 O 0.59389 0.54804 0.01931 0.0
O384 O 0.58929 0.60644 0.0438 0.0
O385 O 0.5522 0.51147 0.03668 0.0
O386 O 0.5899 0.67551 0.98935 0.0
O387 O 0.53514 0.5977 0.01416 0.0
O388 O 0.53874 0.61344 0.03699 0.0
O389 O 0.58471 0.66751 0.02404 0.0
O390 O 0.53452 0.60625 0.9942 0.0
O391 O 0.61859 0.703 0.0081 0.0
C392 C 0.61868 0.62625 0.0357 0.0
C393 C 0.57147 0.51914 0.05954 0.0
C394 C 0.60557 0.48961 0.07167 0.0
C395 C 0.57973 0.488 0.06137 0.0
C396 C 0.62475 0.52413 0.07967 0.0
C397 C 0.59048 0.55304 0.06782 0.0
C398 C 0.61744 0.55569 0.07765 0.0
C399 C 0.62332 0.56738 0.01033 0.0
C400 C 0.54301 0.51556 0.04896 0.0
C401 C 0.38606 0.45692 0.01503 0.0
C402 C 0.40343 0.44804 0.00421 0.0
C403 C 0.51138 0.5888 0.0043 0.0
C404 C 0.64038 0.74451 0.98839 0.0
C405 C 0.62978 0.76114 0.97745 0.0
C406 C 0.65895 0.79669 0.9711 0.0
C407 C 0.69867 0.81432 0.9755 0.0
C408 C 0.68039 0.76377 0.99261 0.0
C409 C 0.70924 0.79789 0.9861 0.0
C410 C 0.55898 0.65238 0.03424 0.0
C411 C 0.60967 0.70894 0.99594 0.0
H412 H 0.56556 0.46233 0.05479 0.0
H413 H 0.64442 0.52639 0.08779 0.0
H414 H 0.58445 0.57743 0.06683 0.0
H415 H 0.63206 0.58195 0.08394 0.0
H416 H 0.59896 0.74736 0.97422 0.0
H417 H 0.72165 0.84128 0.97077 0.0
H418 H 0.68952 0.75309 0.00114 0.0
H419 H 0.73991 0.81215 0.98948 0.0
Eu420 Eu 1.01794 0.53414 0.19369 0.0
C421 C 1.03915 0.64306 0.14711 0.0
C422 C 0.06145 0.71096 0.15455 0.0
C423 C 0.07668 0.69884 0.1319 0.0
C424 C 0.04094 0.66956 0.15699 0.0
C425 C 0.05788 0.65773 0.13458 0.0
C426 C 0.07848 0.72537 0.14185 0.0
C427 C 0.04146 0.59058 0.1287 0.0
N428 N 1.02211 0.60347 0.1502 0.0
C429 C 1.02348 0.57733 0.14128 0.0
C430 C 0.05835 0.63081 0.12528 0.0
Eu431 Eu 0.98788 0.58532 0.17107 0.0
N432 N 1.02559 0.65497 0.16937 0.0
C433 C 1.02939 0.67973 0.1797 0.0
C434 C 0.06547 0.73672 0.1651 0.0
C435 C 0.04966 0.72104 0.17775 0.0
H436 H 1.01093 0.54621 0.14371 0.0
H437 H 0.05243 0.7407 0.18594 0.0
H438 H 0.09409 0.75708 0.13975 0.0
H439 H 0.04233 0.5697 0.12164 0.0
H440 H 1.01516 0.66745 0.18921 0.0
H441 H 0.06593 0.50968 0.14421 0.0
H442 H 0.08112 0.76873 0.16363 0.0
H443 H 0.94959 0.46625 0.21467 0.0
H444 H 0.05841 0.54861 0.16208 0.0
H445 H 0.91028 0.39333 0.21716 0.0
H446 H 0.09092 0.71056 0.12229 0.0
H447 H 1.03375 0.43643 0.14624 0.0
H448 H 0.98914 0.37453 0.15919 0.0
H449 H 0.07248 0.64093 0.11555 0.0
H450 H 0.94611 0.34289 0.1788 0.0
N451 N 1.02496 0.49908 0.17505 0.0
C452 C 0.04562 0.51718 0.1636 0.0
C453 C 1.03115 0.45363 0.15438 0.0
C454 C 1.00851 0.43488 0.16582 0.0
C455 C 0.04939 0.49493 0.15322 0.0
C456 C 1.00594 0.45865 0.17613 0.0
H457 H 0.91609 0.34957 0.20026 0.0
N458 N 0.9774 0.46423 0.19639 0.0
C459 C 0.93012 0.40623 0.20865 0.0
C460 C 0.98144 0.44074 0.18712 0.0
C461 C 0.95235 0.44763 0.20713 0.0
C462 C 0.93362 0.38165 0.19913 0.0
C463 C 0.95933 0.39875 0.18818 0.0
O464 O 1.02463 0.51616 0.21385 0.0
O465 O 1.02632 0.59439 0.18935 0.0
O466 O 0.05846 0.61899 0.17043 0.0
O467 O 0.07813 0.58191 0.18343 0.0
O468 O 1.01703 0.57642 0.20909 0.0
O469 O 0.0751 0.54123 0.20032 0.0
O470 O 0.94454 0.57975 0.15567 0.0
O471 O 0.96963 0.52423 0.17938 0.0
O472 O 0.95912 0.52613 0.20234 0.0
O473 O 0.94971 0.5729 0.1902 0.0
O474 O 0.95895 0.52476 0.15959 0.0
O475 O 0.94758 0.60918 0.17444 0.0
C476 C 1.02547 0.6062 0.20127 0.0
C477 C 0.08776 0.5608 0.22314 0.0
C478 C 0.1535 0.60184 0.23332 0.0
C479 C 0.12914 0.57644 0.22299 0.0
C480 C 0.13558 0.61364 0.24332 0.0
C481 C 0.07068 0.5731 0.23322 0.0
C482 C 0.09464 0.59987 0.2431 0.0
C483 C 0.08749 0.61317 0.17534 0.0
C484 C 0.06305 0.53175 0.21272 0.0
C485 C 0.96283 0.37513 0.17815 0.0
C486 C 0.98737 0.39315 0.167 0.0
C487 C 0.95388 0.50099 0.16945 0.0
C488 C 0.92746 0.63135 0.15484 0.0
C489 C 0.89969 0.62124 0.14411 0.0
C490 C 0.89515 0.65127 0.13737 0.0
C491 C 0.92016 0.69128 0.14114 0.0
C492 C 0.95018 0.67155 0.15861 0.0
C493 C 0.94715 0.70119 0.15166 0.0
C494 C 0.94005 0.54651 0.20016 0.0
C495 C 0.93182 0.60022 0.16241 0.0
H496 H 0.14198 0.56802 0.21482 0.0
H497 H 0.15263 0.63241 0.25163 0.0
H498 H 1.03884 0.56198 0.23356 0.0
H499 H 0.08126 0.6091 0.25085 0.0
H500 H 0.88103 0.59026 0.14131 0.0
H501 H 0.91862 0.71522 0.13599 0.0
H502 H 0.97013 0.68036 0.16706 0.0
H503 H 0.9655 0.73208 0.15459 0.0
Eu504 Eu 0.07087 0.55809 0.47247 0.0
C505 C 0.04274 0.64008 0.51981 0.0
C506 C 1.01964 0.68484 0.51192 0.0
C507 C 1.00229 0.65646 0.53439 0.0
C508 C 0.04122 0.6647 0.50981 0.0
C509 C 1.02244 0.63511 0.53207 0.0
C510 C 1.00084 0.68119 0.52434 0.0
C511 C 1.03972 0.58504 0.53829 0.0
N512 N 0.06082 0.6182 0.517 0.0
C513 C 0.05914 0.59057 0.52595 0.0
C514 C 1.02166 0.60765 0.54143 0.0
Eu515 Eu 0.09717 0.63517 0.49657 0.0
N516 N 0.05868 0.66679 0.49771 0.0
C517 C 0.05676 0.6892 0.48747 0.0
C518 C 1.01688 0.70739 0.50135 0.0
C519 C 1.03542 0.70947 0.48907 0.0
H520 H 0.07244 0.57245 0.52367 0.0
H521 H 1.034 0.72734 0.48093 0.0
H522 H 0.98437 0.69669 0.52618 0.0
H523 H 1.03858 0.5632 0.54537 0.0
H524 H 0.07334 0.693 0.47834 0.0
H525 H 1.01917 0.47887 0.52074 0.0
H526 H 1.00052 0.72327 0.50258 0.0
H527 H 0.1403 0.56043 0.45155 0.0
H528 H 1.02844 0.52804 0.50368 0.0
H529 H 0.17972 0.5268 0.44853 0.0
H530 H 0.98676 0.6532 0.54379 0.0
H531 H 0.0509 0.43732 0.518 0.0
H532 H 0.09626 0.4213 0.50479 0.0
H533 H 1.00633 0.60295 0.55095 0.0
H534 H 0.14078 0.43513 0.48541 0.0
N535 N 0.06203 0.51294 0.49035 0.0
C536 C 1.04083 0.50916 0.5018 0.0
C537 C 0.05417 0.4583 0.51018 0.0
C538 C 0.07756 0.46353 0.49882 0.0
C539 C 1.03616 0.48161 0.51175 0.0
C540 C 0.081 0.49142 0.48895 0.0
H541 H 0.17258 0.47479 0.46461 0.0
N542 N 0.11128 0.5284 0.46934 0.0
C543 C 0.15929 0.51885 0.45692 0.0
C544 C 0.1064 0.49944 0.47812 0.0
C545 C 0.13702 0.53804 0.45873 0.0
C546 C 0.15503 0.48939 0.46597 0.0
C547 C 0.12848 0.47942 0.47675 0.0
O548 O 0.06667 0.53927 0.45159 0.0
O549 O 0.06072 0.6088 0.47765 0.0
O550 O 1.02695 0.59557 0.49739 0.0
O551 O 1.00942 0.54457 0.48193 0.0
O552 O 0.07498 0.60454 0.45798 0.0
O553 O 1.0154 0.50864 0.46457 0.0
O554 O 0.1388 0.67037 0.51271 0.0
O555 O 0.11649 0.59363 0.48785 0.0
O556 O 0.13179 0.60947 0.46564 0.0
O557 O 0.1374 0.66362 0.47798 0.0
O558 O 0.12506 0.60196 0.50783 0.0
O559 O 0.13746 0.69945 0.49432 0.0
C560 C 0.0641 0.62369 0.46593 0.0
C561 C 1.00343 0.5198 0.44209 0.0
C562 C 0.93913 0.49381 0.43086 0.0
C563 C 0.96409 0.48918 0.44012 0.0
C564 C 0.9535 0.52998 0.42387 0.0
C565 C 1.01779 0.55524 0.43457 0.0
C566 C 0.99272 0.56042 0.4257 0.0
C567 C 0.99889 0.56305 0.49112 0.0
C568 C 1.02852 0.51458 0.45222 0.0
C569 C 0.12409 0.45078 0.48631 0.0
C570 C 0.09868 0.44285 0.49732 0.0
C571 C 0.13112 0.58462 0.49777 0.0
C572 C 0.15558 0.73876 0.51451 0.0
C573 C 0.18414 0.75652 0.525 0.0
C574 C 0.18805 0.79034 0.53204 0.0
C575 C 0.16185 0.80457 0.52881 0.0
C576 C 0.13134 0.75526 0.51135 0.0
C577 C 0.13392 0.78724 0.51858 0.0
C578 C 0.14963 0.64854 0.46819 0.0
C579 C 0.15208 0.7044 0.50649 0.0
H580 H 0.95295 0.46164 0.44576 0.0
H581 H 0.93491 0.53417 0.41664 0.0
H582 H 0.04833 0.579 0.43543 0.0
H583 H 1.00393 0.58791 0.42006 0.0
H584 H 0.2039 0.74497 0.52737 0.0
H585 H 0.16322 0.82964 0.53417 0.0
H586 H 0.11059 0.74396 0.50314 0.0
H587 H 0.11453 0.79911 0.51608 0.0
Eu588 Eu 0.53492 0.05102 0.64043 0.0
C589 C 0.42458 0.02863 0.68701 0.0
C590 C 0.35723 1.0069 0.67907 0.0
C591 C 0.36778 0.99059 0.70177 0.0
C592 C 0.39878 1.02725 0.67692 0.0
C593 C 0.40908 1.00942 0.69941 0.0
C594 C 0.34195 0.98931 0.69163 0.0
C595 C 0.47579 1.02521 0.70575 0.0
N596 N 0.46434 0.04551 0.6842 0.0
C597 C 0.48987 0.04361 0.69327 0.0
C598 C 0.43535 1.00842 0.70889 0.0
Eu599 Eu 0.48404 0.08026 0.66348 0.0
N600 N 0.41421 0.04332 0.66468 0.0
C601 C 0.39018 0.04088 0.65428 0.0
C602 C 0.3322 1.00397 0.6684 0.0
C603 C 0.34875 1.02086 0.65594 0.0
H604 H 0.5211 0.05599 0.691 0.0
H605 H 0.32967 1.0191 0.64769 0.0
H606 H 0.31011 0.9738 0.69351 0.0
H607 H 0.49616 1.02389 0.71293 0.0
H608 H 0.40311 0.05597 0.64494 0.0
H609 H 0.56089 1.00209 0.68952 0.0
H610 H 0.3001 0.98854 0.66966 0.0
H611 H 0.60227 0.11954 0.61937 0.0
H612 H 0.5215 1.01028 0.67195 0.0
H613 H 0.67515 0.15862 0.61661 0.0
H614 H 0.3554 0.97595 0.71128 0.0
H615 H 0.63404 0.0337 0.68713 0.0
H616 H 0.69557 0.07818 0.67398 0.0
H617 H 0.42458 0.9939 0.71853 0.0
H618 H 0.72666 0.12152 0.65439 0.0
N619 N 0.57055 0.04338 0.65878 0.0
C620 C 0.55281 1.02274 0.67027 0.0
C621 C 0.61661 0.03655 0.67911 0.0
C622 C 0.63502 0.05926 0.66766 0.0
C623 C 0.57536 1.01863 0.68048 0.0
C624 C 0.61094 0.06218 0.65752 0.0
H625 H 0.71939 0.15217 0.63316 0.0
N626 N 0.6048 0.0913 0.63748 0.0
C627 C 0.66247 0.13862 0.62509 0.0
C628 C 0.62854 0.08688 0.64655 0.0
C629 C 0.62111 0.11653 0.62676 0.0
C630 C 0.68732 0.13475 0.63442 0.0
C631 C 0.67052 0.10882 0.64533 0.0
O632 O 0.55183 0.04453 0.62009 0.0
O633 O 0.47451 0.04229 0.645 0.0
O634 O 0.45189 1.00989 0.66467 0.0
O635 O 0.48691 0.99074 0.65041 0.0
O636 O 0.49286 0.0532 0.62525 0.0
O637 O 0.52768 0.994 0.6336 0.0
O638 O 0.48954 0.12297 0.67912 0.0
O639 O 0.54498 0.09842 0.65512 0.0
O640 O 0.54348 0.11042 0.63224 0.0
O641 O 0.49662 0.11925 0.64452 0.0
O642 O 0.54454 0.10831 0.67499 0.0
O643 O 0.46119 0.12135 0.66021 0.0
C644 C 0.46301 0.04416 0.6331 0.0
C645 C 0.50665 0.98142 0.61091 0.0
C646 C 0.46514 0.91578 0.60073 0.0
C647 C 0.49127 0.94009 0.61093 0.0
C648 C 0.45237 0.93368 0.59103 0.0
C649 C 0.49341 0.99848 0.60111 0.0
C650 C 0.46592 0.97454 0.59139 0.0
C651 C 0.45694 0.98114 0.65912 0.0
C652 C 0.53637 1.00611 0.62117 0.0
C653 C 0.69442 0.10494 0.65517 0.0
C654 C 0.67671 0.08021 0.66631 0.0
C655 C 0.56821 0.11357 0.66509 0.0
C656 C 0.43893 0.1417 0.67968 0.0
C657 C 0.44927 0.16896 0.69056 0.0
C658 C 0.41993 0.17558 0.69677 0.0
C659 C 0.38029 0.15368 0.6923 0.0
C660 C 0.39901 0.12113 0.67539 0.0
C661 C 0.36998 0.12664 0.68176 0.0
C662 C 0.52315 0.12943 0.63458 0.0
C663 C 0.46983 0.1365 0.67233 0.0
H664 H 0.50045 0.92725 0.61889 0.0
H665 H 0.43299 0.91668 0.58283 0.0
H666 H 0.50433 0.03026 0.60086 0.0
H667 H 0.45595 0.98791 0.58387 0.0
H668 H 0.48002 0.18582 0.69385 0.0
H669 H 0.35716 0.1578 0.69692 0.0
H670 H 0.39006 0.10124 0.66691 0.0
H671 H 0.33936 0.11035 0.67834 0.0
Eu672 Eu 0.51162 0.52474 0.80606 0.0
C673 C 0.41934 0.40518 0.84951 0.0
C674 C 0.37434 0.34077 0.83957 0.0
C675 C 0.39876 0.34446 0.86237 0.0
C676 C 0.39634 0.38269 0.83871 0.0
C677 C 0.42114 0.38621 0.86139 0.0
C678 C 0.37548 0.32181 0.85149 0.0
C679 C 0.4691 0.45102 0.8701 0.0
N680 N 0.4422 0.44546 0.84798 0.0
C681 C 0.46652 0.46854 0.8581 0.0
C682 C 0.44626 0.40973 0.87177 0.0
Eu683 Eu 0.43008 0.47186 0.82818 0.0
N684 N 0.39611 0.40184 0.82725 0.0
C685 C 0.37313 0.38121 0.81656 0.0
C686 C 0.35183 0.31921 0.82842 0.0
C687 C 0.35115 0.33954 0.81688 0.0
H688 H 0.48389 0.50049 0.85703 0.0
H689 H 0.33322 0.32318 0.80832 0.0
H690 H 0.35866 0.28961 0.85236 0.0
H691 H 0.48858 0.4694 0.87808 0.0
H692 H 0.37114 0.39708 0.8079 0.0
H693 H 0.58026 0.54578 0.85648 0.0
H694 H 0.33455 0.28694 0.82868 0.0
H695 H 0.50965 0.59552 0.78727 0.0
H696 H 0.53119 0.50996 0.8391 0.0
H697 H 0.54645 0.66841 0.78478 0.0
H698 H 0.3997 0.32935 0.87143 0.0
H699 H 0.62838 0.6175 0.85367 0.0
H700 H 0.65023 0.68007 0.84047 0.0
H701 H 0.44853 0.39629 0.88105 0.0
H702 H 0.63964 0.71387 0.82127 0.0
N703 N 0.55428 0.55795 0.82505 0.0
C704 C 0.55358 0.53991 0.83698 0.0
C705 C 0.60775 0.60123 0.84562 0.0
C706 C 0.60568 0.62076 0.8341 0.0
C707 C 0.58082 0.56078 0.84721 0.0
C708 C 0.57806 0.59814 0.82393 0.0
H709 H 0.60024 0.70991 0.80075 0.0
N710 N 0.54222 0.59508 0.80451 0.0
C711 C 0.55395 0.65447 0.79285 0.0
C712 C 0.5717 0.6173 0.81332 0.0
C713 C 0.53313 0.61301 0.79432 0.0
C714 C 0.58437 0.67776 0.80184 0.0
C715 C 0.59338 0.65932 0.8123 0.0
O716 O 0.50986 0.53224 0.78446 0.0
O717 O 0.45276 0.46859 0.80759 0.0
O718 O 0.47212 0.44343 0.83002 0.0
O719 O 0.52911 0.48124 0.81695 0.0
O720 O 0.49976 0.46445 0.79912 0.0
O721 O 0.56502 0.54315 0.79376 0.0
O722 O 0.39692 0.48213 0.84429 0.0
O723 O 0.47142 0.53359 0.8198 0.0
O724 O 0.4583 0.52867 0.79715 0.0
O725 O 0.40278 0.47991 0.80867 0.0
O726 O 0.46372 0.53195 0.8399 0.0
O727 O 0.36613 0.45074 0.82643 0.0
C728 C 0.46236 0.44459 0.80214 0.0
C729 C 0.55112 0.51705 0.77137 0.0
C730 C 0.58132 0.47985 0.76179 0.0
C731 C 0.57395 0.49811 0.77287 0.0
C732 C 0.56317 0.4789 0.74938 0.0
C733 C 0.5334 0.51554 0.75891 0.0
C734 C 0.53898 0.49609 0.74806 0.0
C735 C 0.50732 0.44997 0.82513 0.0
C736 C 0.5461 0.53944 0.78249 0.0
C737 C 0.62254 0.68163 0.82194 0.0
C738 C 0.62867 0.66238 0.83283 0.0
C739 C 0.4801 0.55616 0.82996 0.0
C740 C 0.32841 0.43183 0.84686 0.0
C741 C 0.31169 0.44376 0.85739 0.0
C742 C 0.27825 0.41487 0.86473 0.0
C743 C 0.26252 0.37438 0.86166 0.0
C744 C 0.31118 0.39093 0.84399 0.0
C745 C 0.27896 0.36257 0.85141 0.0
C746 C 0.41891 0.50666 0.79881 0.0
C747 C 0.36234 0.46166 0.83849 0.0
H748 H 0.58637 0.49819 0.78263 0.0
H749 H 0.56861 0.46621 0.74049 0.0
H750 H 0.51547 0.52974 0.75755 0.0
H751 H 0.52543 0.49533 0.73845 0.0
H752 H 0.32395 0.47513 0.85963 0.0
H753 H 0.23706 0.35176 0.86716 0.0
H754 H 0.32203 0.38061 0.83583 0.0
H755 H 0.26624 0.33123 0.84906 0.0
Eu756 Eu 1.01515 0.49903 0.97371 0.0
C757 C 0.04242 0.40348 0.01594 0.0
C758 C 0.05918 0.35708 0.0053 0.0
C759 C 0.08308 0.38154 0.02787 0.0
C760 C 1.04006 0.38008 0.00496 0.0
C761 C 0.06442 0.40485 0.02742 0.0
C762 C 0.08047 0.35773 0.01685 0.0
C763 C 0.04936 0.45359 0.03689 0.0
N764 N 1.02554 0.42715 0.01491 0.0
C765 C 1.02806 0.45148 0.02525 0.0
C766 C 0.06761 0.4302 0.03798 0.0
Eu767 Eu 0.98588 0.41679 0.99558 0.0
N768 N 1.01992 0.38067 0.99383 0.0
C769 C 1.01605 0.35762 0.98295 0.0
C770 C 0.05647 0.33428 0.99399 0.0
C771 C 1.03472 0.33448 0.98278 0.0
H772 H 1.01363 0.46923 0.02459 0.0
H773 H 1.03195 0.31648 0.97408 0.0
H774 H 0.09531 0.34019 0.01731 0.0
H775 H 0.05157 0.47314 0.04504 0.0
H776 H 0.99798 0.35666 0.97451 0.0
H777 H 0.06215 0.56703 0.02421 0.0
H778 H 0.0708 0.31624 0.99385 0.0
H779 H 0.94249 0.49784 0.95501 0.0
H780 H 0.04871 0.51778 0.00682 0.0
H781 H 0.90698 0.53549 0.95252 0.0
H782 H 0.10002 0.38209 0.03663 0.0
H783 H 1.03933 0.61607 0.02134 0.0
H784 H 0.9993 0.63886 0.00811 0.0
H785 H 0.08425 0.43209 0.04699 0.0
H786 H 0.95526 0.62892 0.98891 0.0
N787 N 1.02454 0.5417 0.99272 0.0
C788 C 0.04151 0.54058 0.00469 0.0
C789 C 1.03491 0.59537 0.0133 0.0
C790 C 1.01361 0.59371 0.00175 0.0
C791 C 0.04798 0.5679 0.01492 0.0
C792 C 1.00851 0.56599 0.99158 0.0
H793 H 0.91973 0.58967 0.96843 0.0
N794 N 0.97578 0.53038 0.97217 0.0
C795 C 0.92841 0.54281 0.96055 0.0
C796 C 0.98322 0.56001 0.98096 0.0
C797 C 0.94875 0.52152 0.96203 0.0
C798 C 0.9358 0.57344 0.96951 0.0
C799 C 0.96317 0.58217 0.97995 0.0
O800 O 1.00601 0.49869 0.95218 0.0
O801 O 1.01175 0.4396 0.97501 0.0
O802 O 0.05601 0.45774 0.99731 0.0
O803 O 0.07555 0.51584 0.98485 0.0
O804 O 0.0632 0.48637 0.96686 0.0
O805 O 0.0519 0.55233 0.96156 0.0
O806 O 0.94386 0.38468 0.01211 0.0
O807 O 0.96614 0.45906 0.98741 0.0
O808 O 0.95831 0.44614 0.96449 0.0
O809 O 0.94981 0.39011 0.97626 0.0
O810 O 0.96093 0.45163 0.00757 0.0
O811 O 0.94153 0.35344 0.99396 0.0
C812 C 0.04531 0.44882 0.96965 0.0
C813 C 0.06384 0.53738 0.93927 0.0
C814 C 0.12799 0.5752 0.92772 0.0
C815 C 0.10268 0.5701 0.93867 0.0
C816 C 0.11398 0.54598 0.91755 0.0
C817 C 0.05074 0.50859 0.92901 0.0
C818 C 0.07585 0.51277 0.91831 0.0
C819 C 0.08473 0.49325 0.9928 0.0
C820 C 1.03644 0.534 0.95025 0.0
C821 C 0.97016 0.61145 0.98957 0.0
C822 C 0.99535 0.61722 1.00047 0.0
C823 C 0.95287 0.4681 0.99767 0.0
C824 C 0.92377 0.31544 0.01432 0.0
C825 C 0.89575 0.29899 0.02501 0.0
C826 C 0.89045 0.26456 0.03196 0.0
C827 C 0.9141 0.24776 0.02838 0.0
C828 C 0.94627 0.29712 0.01094 0.0
C829 C 0.94184 0.26403 0.01801 0.0
C830 C 0.94001 0.4067 0.96629 0.0
C831 C 0.92821 0.35007 0.00622 0.0
H832 H 0.11297 0.59164 0.94676 0.0
H833 H 0.13192 0.54905 0.90879 0.0
H834 H 1.02094 0.48297 0.92915 0.0
H835 H 0.0654 0.49057 0.91042 0.0
H836 H 0.87749 0.31209 0.02763 0.0
H837 H 0.91078 0.22159 0.03357 0.0
H838 H 0.9669 0.30775 0.00265 0.0
H839 H 0.95957 0.25047 0.01527 0.0
Eu840 Eu 0.54536 1.00484 0.14095 0.0
C841 C 0.66289 0.03392 0.18525 0.0
C842 C 0.72838 0.05456 0.17582 0.0
C843 C 0.72246 0.07508 0.19843 0.0
C844 C 0.68649 0.0339 0.17468 0.0
C845 C 0.68072 0.05503 0.19715 0.0
C846 C 0.74621 0.07489 0.18779 0.0
C847 C 0.61491 0.03751 0.20522 0.0
N848 N 0.62264 1.01591 0.18339 0.0
C849 C 0.59853 1.01712 0.1932 0.0
C850 C 0.65612 0.0564 0.20723 0.0
Eu851 Eu 0.59836 0.97707 0.16361 0.0
N852 N 0.6684 1.01431 0.16315 0.0
C853 C 0.69013 1.01242 0.15268 0.0
C854 C 0.75105 0.05409 0.16489 0.0
C855 C 0.73182 0.03282 0.15329 0.0
H856 H 0.56665 1.00239 0.19186 0.0
H857 H 0.74906 0.03161 0.14491 0.0
H858 H 0.77837 0.09083 0.18888 0.0
H859 H 0.5957 0.03854 0.21295 0.0
H860 H 0.67514 0.99434 0.14401 0.0
H861 H 0.52252 0.05623 0.19048 0.0
H862 H 0.78334 0.06965 0.16537 0.0
H863 H 0.47575 0.92896 0.12307 0.0
H864 H 0.55929 0.04198 0.17365 0.0
H865 H 0.40281 0.89104 0.12081 0.0
H866 H 0.7367 0.09139 0.20752 0.0
H867 H 0.45054 0.03151 0.18744 0.0
H868 H 0.38827 0.98869 0.17446 0.0
H869 H 0.66867 0.07237 0.21652 0.0
H870 H 0.35527 0.94183 0.15586 0.0
N871 N 0.51144 1.01517 0.1596 0.0
C872 C 0.52917 0.03377 0.1714 0.0
C873 C 0.46719 1.02666 0.17961 0.0
C874 C 0.44804 1.0038 0.1683 0.0
C875 C 0.50779 0.04078 0.18133 0.0
C876 C 0.47115 0.9982 0.15841 0.0
H877 H 0.36032 0.90428 0.13615 0.0
N878 N 0.4752 0.96361 0.13966 0.0
C879 C 0.41633 0.91358 0.12853 0.0
C880 C 0.45245 0.97142 0.14811 0.0
C881 C 0.45781 0.93515 0.12991 0.0
C882 C 0.39248 0.92127 0.13716 0.0
C883 C 0.4104 0.95022 0.14717 0.0
O884 O 0.53729 0.99469 0.1194 0.0
O885 O 0.60175 1.00221 0.14284 0.0
O886 O 0.62637 0.04738 0.16492 0.0
O887 O 0.58858 0.06607 0.15152 0.0
O888 O 0.60555 0.05255 0.13384 0.0
O889 O 0.52622 0.03908 0.12852 0.0
O890 O 0.58827 0.93414 0.17988 0.0
O891 O 0.53692 0.95675 0.15498 0.0
O892 O 0.54305 0.94822 0.13227 0.0
O893 O 0.5911 0.94113 0.14429 0.0
O894 O 0.53762 0.95046 0.17507 0.0
O895 O 0.62086 0.93504 0.16228 0.0
C896 C 0.62564 0.03532 0.13718 0.0
C897 C 0.55229 0.05073 0.10614 0.0
C898 C 0.58805 0.11763 0.09631 0.0
C899 C 0.56996 0.09228 0.10744 0.0
C900 C 0.5903 0.10048 0.08405 0.0
C901 C 0.55503 0.03453 0.09382 0.0
C902 C 0.57442 0.05936 0.08293 0.0
C903 C 0.6198 0.0758 0.15977 0.0
C904 C 0.52995 1.02363 0.11731 0.0
C905 C 0.38754 0.95762 0.15648 0.0
C906 C 0.40634 0.98441 0.16703 0.0
C907 C 0.51386 0.94306 0.16502 0.0
C908 C 0.63941 0.91688 0.18296 0.0
C909 C 0.62798 0.88673 0.19298 0.0
C910 C 0.65744 0.88332 0.20056 0.0
C911 C 0.69783 0.91153 0.19838 0.0
C912 C 0.68026 0.9431 0.18084 0.0
C913 C 0.70902 0.94095 0.18862 0.0
C914 C 0.56491 0.93066 0.13424 0.0
C915 C 0.60946 0.9203 0.17432 0.0
H916 H 0.569 0.10467 0.11709 0.0
H917 H 0.60299 0.11842 0.07513 0.0
H918 H 0.54182 1.00257 0.0926 0.0
H919 H 0.57615 0.04658 0.07344 0.0
H920 H 0.59669 0.86545 0.19454 0.0
H921 H 0.7211 0.91057 0.20419 0.0
H922 H 0.69036 0.96508 0.17298 0.0
H923 H 0.74031 0.96186 0.18692 0.0
Eu924 Eu 0.57419 0.52918 0.30658 0.0
C925 C 0.6596 0.64027 0.35318 0.0
C926 C 0.70478 0.70722 0.34493 0.0
C927 C 0.67776 0.69765 0.36758 0.0
C928 C 0.68388 0.6656 0.343 0.0
C929 C 0.65567 0.65628 0.36544 0.0
C930 C 0.70219 0.72303 0.35735 0.0
C931 C 0.6052 0.58986 0.37205 0.0
N932 N 0.63702 0.60044 0.35056 0.0
C933 C 0.60972 0.57528 0.35969 0.0
C934 C 0.62851 0.63041 0.37499 0.0
Eu935 Eu 0.65239 0.57975 0.3301 0.0
N936 N 0.68493 0.64961 0.33092 0.0
C937 C 0.70681 0.67315 0.32048 0.0
C938 C 0.72696 0.73174 0.33419 0.0
C939 C 0.72785 0.71463 0.3219 0.0
H940 H 0.59116 0.54398 0.35756 0.0
H941 H 0.74534 0.73333 0.31362 0.0
H942 H 0.71828 0.75494 0.35905 0.0
H943 H 0.58361 0.56979 0.37929 0.0
H944 H 0.70945 0.65979 0.3113 0.0
H945 H 0.49458 0.50131 0.35483 0.0
H946 H 0.74341 0.76388 0.33527 0.0
H947 H 0.58001 0.46255 0.28626 0.0
H948 H 0.54403 0.54128 0.33791 0.0
H949 H 0.54831 0.38985 0.28361 0.0
H950 H 0.67531 0.71044 0.37698 0.0
H951 H 0.45372 0.42835 0.35204 0.0
H952 H 0.4391 0.36734 0.33897 0.0
H953 H 0.62459 0.64157 0.38453 0.0
H954 H 0.45475 0.33697 0.31993 0.0
N955 N 0.52969 0.4929 0.32457 0.0
C956 C 0.52547 0.51013 0.33599 0.0
C957 C 0.4748 0.44608 0.34427 0.0
C958 C 0.48068 0.42811 0.33298 0.0
C959 C 0.49775 0.48722 0.34587 0.0
C960 C 0.50869 0.45256 0.32317 0.0
H961 H 0.49592 0.34502 0.2995 0.0
N962 N 0.54676 0.45945 0.30379 0.0
C963 C 0.53947 0.40222 0.2918 0.0
C964 C 0.51763 0.43535 0.3125 0.0
C965 C 0.55764 0.44351 0.29345 0.0
C966 C 0.50976 0.37703 0.30074 0.0
C967 C 0.49857 0.39343 0.31127 0.0
O968 O 0.55237 0.5117 0.28612 0.0
O969 O 0.62446 0.58961 0.31149 0.0
O970 O 0.61311 0.61094 0.33125 0.0
O971 O 0.56041 0.57655 0.3165 0.0
O972 O 0.61828 0.57248 0.29166 0.0
O973 O 0.52423 0.53531 0.29915 0.0
O974 O 0.68751 0.57271 0.34621 0.0
O975 O 0.6112 0.51901 0.32141 0.0
O976 O 0.62634 0.52226 0.29867 0.0
O977 O 0.6807 0.56913 0.31126 0.0
O978 O 0.61885 0.51904 0.34147 0.0
O979 O 0.71643 0.60225 0.3277 0.0
C980 C 0.63812 0.60204 0.29968 0.0
C981 C 0.53368 0.55601 0.27639 0.0
C982 C 0.51003 0.59813 0.26608 0.0
C983 C 0.50848 0.57245 0.27646 0.0
C984 C 0.53979 0.60943 0.25614 0.0
C985 C 0.56312 0.56786 0.26637 0.0
C986 C 0.56646 0.5949 0.25646 0.0
C987 C 0.57976 0.60607 0.32542 0.0
C988 C 0.52875 0.52664 0.28683 0.0
C989 C 0.46969 0.36917 0.32073 0.0
C990 C 0.46073 0.38647 0.33156 0.0
C991 C 0.602 0.49566 0.33139 0.0
C992 C 0.75612 0.62334 0.34779 0.0
C993 C 0.77318 0.61244 0.35852 0.0
C994 C 0.80746 0.64191 0.36537 0.0
C995 C 0.82305 0.68211 0.36172 0.0
C996 C 0.77368 0.6638 0.34425 0.0
C997 C 0.80628 0.69286 0.35129 0.0
C998 C 0.66538 0.54306 0.30118 0.0
C999 C 0.72145 0.59276 0.3399 0.0
H1000 H 0.48727 0.56444 0.2846 0.0
H1001 H 0.54195 0.62839 0.2478 0.0
H1002 H 0.58349 0.55621 0.26612 0.0
H1003 H 0.5891 0.60376 0.24875 0.0
H1004 H 0.76076 0.58131 0.3612 0.0
H1005 H 0.84876 0.70542 0.36688 0.0
H1006 H 0.76277 0.67324 0.33588 0.0
H1007 H 0.8191 0.72391 0.34847 0.0
C1008 C 0.04175 0.6626 0.21687 0.0
C1009 C 0.05484 0.6455 0.20707 0.0
C1010 C 0.06866 0.69085 0.22603 0.0
C1011 C 0.16965 0.72451 0.24124 0.0
H1012 H 0.15012 0.80369 0.25803 0.0
C1013 C 0.27502 0.84219 0.28163 0.0
C1014 C 0.25525 0.8484 0.29248 0.0
C1015 C 0.25317 0.81773 0.2707 0.0
C1016 C 0.15596 0.78158 0.2535 0.0
H1017 H 0.10701 0.64414 0.19983 0.0
H1018 H 0.15407 0.69516 0.21479 0.0
H1019 H 0.10833 0.76435 0.2394 0.0
H1020 H 0.19677 0.83088 0.30071 0.0
H1021 H 0.15933 0.78923 0.28184 0.0
H1022 H 0.21778 0.74249 0.25538 0.0
C1023 C 0.12292 0.68688 0.21552 0.0
C1024 C 0.13176 0.75876 0.24279 0.0
C1025 C 0.09591 0.65842 0.20647 0.0
C1026 C 0.2132 0.82772 0.29242 0.0
C1027 C 0.19159 0.80381 0.28154 0.0
C1028 C 0.19418 0.74773 0.2519 0.0
C1029 C 0.10966 0.70273 0.22576 0.0
C1030 C 0.13766 0.7293 0.23658 0.0
C1031 C 0.21114 0.79919 0.27035 0.0
C1032 C 0.18723 0.77614 0.25834 0.0
H1033 H 1.01014 0.65199 0.21806 0.0
H1034 H 0.05669 0.70142 0.23384 0.0
H1035 H 0.17518 0.70198 0.23695 0.0
H1036 H 0.3073 0.85762 0.2813 0.0
H1037 H 0.26924 0.81469 0.26228 0.0
C1038 C 0.45789 0.25662 0.44833 0.0
C1039 C 0.43281 0.23713 0.45937 0.0
C1040 C 0.46045 0.23448 0.43746 0.0
C1041 C 0.40052 0.13573 0.42108 0.0
H1042 H 0.49847 0.15774 0.4032 0.0
C1043 C 0.40795 1.0219 0.38483 0.0
C1044 C 0.43644 0.0354 0.37447 0.0
C1045 C 0.40612 0.04875 0.39393 0.0
C1046 C 0.47063 0.15141 0.40789 0.0
H1047 H 0.39339 0.17898 0.468 0.0
H1048 H 0.39774 0.14095 0.44928 0.0
H1049 H 0.50051 0.20057 0.42161 0.0
H1050 H 0.48605 0.08836 0.366 0.0
H1051 H 0.48131 0.13517 0.38102 0.0
H1052 H 0.37044 0.08692 0.40743 0.0
C1053 C 0.41467 0.1732 0.44877 0.0
C1054 C 0.47191 0.17607 0.41852 0.0
C1055 C 0.41232 0.19512 0.45957 0.0
C1056 C 0.46213 0.07675 0.37319 0.0
C1057 C 0.46024 0.10371 0.38222 0.0
C1058 C 0.39918 0.11134 0.41043 0.0
C1059 C 0.43786 0.19242 0.43737 0.0
C1060 C 0.43691 0.16815 0.42543 0.0
C1061 C 0.43302 0.09011 0.39303 0.0
C1062 C 0.43425 0.11827 0.40376 0.0
H1063 H 0.474 0.28888 0.44781 0.0
H1064 H 0.47877 0.25033 0.42888 0.0
H1065 H 0.37279 0.12914 0.42594 0.0
H1066 H 0.38883 0.99019 0.38648 0.0
H1067 H 0.38513 0.03664 0.40218 0.0
C1068 C 0.2255 0.44346 0.61396 0.0
C1069 C 0.21853 0.41757 0.62488 0.0
C1070 C 0.25104 0.44615 0.60333 0.0
C1071 C 0.29011 0.38546 0.58723 0.0
H1072 H 0.36742 0.48343 0.56987 0.0
C1073 C 0.41205 0.39167 0.55144 0.0
C1074 C 0.42726 0.42013 0.54107 0.0
C1075 C 0.38345 0.39027 0.56051 0.0
C1076 C 0.34556 0.45561 0.57442 0.0
H1077 H 0.2356 0.37673 0.6336 0.0
H1078 H 0.27948 0.38136 0.61531 0.0
H1079 H 0.32583 0.48564 0.58803 0.0
H1080 H 0.42454 0.4702 0.53259 0.0
H1081 H 0.37334 0.4665 0.54761 0.0
H1082 H 0.30927 0.35524 0.57369 0.0
C1083 C 0.26464 0.39887 0.61469 0.0
C1084 C 0.32172 0.45698 0.58491 0.0
C1085 C 0.23954 0.39639 0.62525 0.0
C1086 C 0.41204 0.44636 0.5398 0.0
C1087 C 0.38338 0.44502 0.54883 0.0
C1088 C 0.31364 0.38405 0.57672 0.0
C1089 C 0.26999 0.42287 0.60337 0.0
C1090 C 0.29406 0.42194 0.59162 0.0
C1091 C 0.36938 0.41768 0.55959 0.0
C1092 C 0.34223 0.41911 0.57024 0.0
H1093 H 0.20976 0.4601 0.61331 0.0
H1094 H 0.25454 0.4651 0.59481 0.0
H1095 H 0.26858 0.35771 0.59193 0.0
H1096 H 0.42433 0.37214 0.5531 0.0
H1097 H 0.37426 0.36916 0.56873 0.0
C1098 C 0.99279 0.38633 0.70397 0.0
C1099 C 1.03327 0.40965 0.70744 0.0
C1100 C 0.96518 0.35796 0.713 0.0
C1101 C 0.95718 0.30166 0.74461 0.0
H1102 H 0.85862 0.30339 0.75028 0.0
C1103 C 0.86407 0.23201 0.79215 0.0
C1104 C 0.82258 0.20732 0.79081 0.0
C1105 C 0.88718 0.25647 0.78156 0.0
C1106 C 0.88578 0.30219 0.74874 0.0
H1107 H 0.07671 0.41933 0.72284 0.0
H1108 H 1.02945 0.36944 0.7383 0.0
H1109 H 0.90375 0.34283 0.73202 0.0
H1110 H 0.77258 0.19051 0.77742 0.0
H1111 H 0.81309 0.23382 0.7588 0.0
H1112 H 0.93981 0.2617 0.76136 0.0
C1113 C 1.01858 0.37292 0.72865 0.0
C1114 C 0.91166 0.32472 0.73822 0.0
C1115 C 0.0459 0.40141 0.7197 0.0
C1116 C 0.80441 0.20951 0.77882 0.0
C1117 C 0.82771 0.23419 0.76814 0.0
C1118 C 0.9315 0.27936 0.75509 0.0
C1119 C 0.97752 0.35176 0.72568 0.0
C1120 C 0.94804 0.32516 0.7361 0.0
C1121 C 0.86965 0.25701 0.76922 0.0
C1122 C 0.89568 0.27969 0.75749 0.0
H1123 H 0.98182 0.39161 0.69472 0.0
H1124 H 0.93398 0.34175 0.71021 0.0
H1125 H 0.98443 0.30054 0.74319 0.0
H1126 H 0.87897 0.23113 0.80127 0.0
H1127 H 0.91914 0.27431 0.78296 0.0
C1128 C 0.6401 0.97316 0.87015 0.0
C1129 C 0.6447 1.01108 0.87255 0.0
C1130 C 0.6458 0.95168 0.88046 0.0
C1131 C 0.63935 0.94403 0.91777 0.0
H1132 H 0.67326 0.8658 0.9126 0.0
C1133 C 0.65919 0.85747 0.96214 0.0
C1134 C 0.64943 0.81753 0.96026 0.0
C1135 C 0.65757 0.88029 0.95144 0.0
C1136 C 0.66317 0.88712 0.9142 0.0
H1137 H 0.66044 0.05683 0.88759 0.0
H1138 H 0.67201 1.02026 0.90552 0.0
H1139 H 0.67848 0.90965 0.89406 0.0
H1140 H 0.62961 0.77005 0.94565 0.0
H1141 H 0.62644 0.80984 0.92685 0.0
H1142 H 0.62414 0.92158 0.9379 0.0
C1143 C 0.66361 1.00675 0.89566 0.0
C1144 C 0.66633 0.91251 0.90354 0.0
C1145 C 0.65809 0.02832 0.88527 0.0
C1146 C 0.63676 0.80054 0.94745 0.0
C1147 C 0.63551 0.82359 0.93665 0.0
C1148 C 0.63634 0.91878 0.92842 0.0
C1149 C 0.6558 0.96734 0.89357 0.0
C1150 C 0.65452 0.94147 0.90514 0.0
C1151 C 0.64656 0.86406 0.93844 0.0
C1152 C 0.64823 0.8899 0.92683 0.0
H1153 H 0.62846 0.95853 0.86059 0.0
H1154 H 0.63915 0.9215 0.87837 0.0
H1155 H 0.62889 0.96503 0.91939 0.0
H1156 H 0.66951 0.87154 0.97185 0.0
H1157 H 0.66668 0.91129 0.95327 0.0
C1158 C 0.85802 0.61655 0.11587 0.0
C1159 C 0.86432 0.64257 0.12668 0.0
C1160 C 0.83315 0.61373 0.10501 0.0
C1161 C 0.7953 0.6739 0.08792 0.0
H1162 H 0.71644 0.57504 0.07151 0.0
C1163 C 0.67407 0.66665 0.05153 0.0
C1164 C 0.65835 0.63717 0.04151 0.0
C1165 C 0.70263 0.66852 0.06072 0.0
C1166 C 0.73881 0.60309 0.07576 0.0
H1167 H 0.84651 0.6834 0.13493 0.0
H1168 H 0.80416 0.67883 0.11618 0.0
H1169 H 0.75775 0.57355 0.08989 0.0
H1170 H 0.66025 0.58592 0.03377 0.0
H1171 H 0.71146 0.59049 0.04893 0.0
H1172 H 0.77696 0.70365 0.07385 0.0
C1173 C 0.81901 0.66129 0.11585 0.0
C1174 C 0.76245 0.60213 0.08638 0.0
C1175 C 0.84335 0.66383 0.12666 0.0
C1176 C 0.67316 0.61051 0.04067 0.0
C1177 C 0.7018 0.61236 0.04979 0.0
C1178 C 0.77203 0.67492 0.07725 0.0
C1179 C 0.81424 0.63702 0.1047 0.0
C1180 C 0.79062 0.63752 0.09276 0.0
C1181 C 0.71614 0.64061 0.06026 0.0
C1182 C 0.74297 0.63954 0.07108 0.0
H1183 H 0.87364 0.59976 0.11551 0.0
H1184 H 0.83003 0.59456 0.09661 0.0
H1185 H 0.81717 0.70185 0.0924 0.0
H1186 H 0.66212 0.68657 0.05287 0.0
H1187 H 0.71216 0.69039 0.06869 0.0
C1188 C 0.4073 0.97464 0.62856 0.0
C1189 C 0.42356 1.01605 0.62708 0.0
C1190 C 0.37893 0.94774 0.61945 0.0
C1191 C 0.31198 0.94042 0.59079 0.0
H1192 H 0.32359 0.84997 0.58026 0.0
C1193 C 0.24084 0.85468 0.54204 0.0
C1194 C 0.21953 0.8127 0.54244 0.0
C1195 C 0.26527 0.87699 0.55273 0.0
C1196 C 0.31963 0.87482 0.58316 0.0
H1197 H 0.42256 0.06145 0.61465 0.0
H1198 H 0.37298 1.01509 0.59886 0.0
H1199 H 0.36401 0.89319 0.59862 0.0
H1200 H 0.20943 0.76135 0.55422 0.0
H1201 H 0.25297 0.80056 0.57296 0.0
H1202 H 0.2682 0.92253 0.57518 0.0
C1203 C 0.38119 1.00293 0.60729 0.0
C1204 C 0.3428 0.89969 0.59376 0.0
C1205 C 0.4095 0.02972 0.61645 0.0
C1206 C 0.22546 0.79359 0.55355 0.0
C1207 C 0.25029 0.81611 0.56431 0.0
C1208 C 0.28909 0.91578 0.58018 0.0
C1209 C 0.36626 0.96147 0.6084 0.0
C1210 C 0.33969 0.93323 0.59766 0.0
C1211 C 0.26956 0.85819 0.56421 0.0
C1212 C 0.29287 0.88289 0.57607 0.0
H1213 H 0.4188 0.96289 0.63601 0.0
H1214 H 0.36812 0.9162 0.62082 0.0
H1215 H 0.30782 0.96519 0.5936 0.0
H1216 H 0.23764 0.87049 0.53356 0.0
H1217 H 0.28041 0.90922 0.55206 0.0
C1218 C 0.41834 0.23545 0.70569 0.0
C1219 C 0.42925 0.206 0.70753 0.0
C1220 C 0.42021 0.26013 0.71632 0.0
C1221 C 0.41809 0.26358 0.7536 0.0
H1222 H 0.44938 0.37454 0.74772 0.0
C1223 C 0.44344 0.37503 0.79697 0.0
C1224 C 0.43757 0.4076 0.79448 0.0
C1225 C 0.43719 0.34727 0.78684 0.0
C1226 C 0.43975 0.34341 0.74954 0.0
H1227 H 0.45146 0.17993 0.72201 0.0
H1228 H 0.45506 0.22331 0.7407 0.0
H1229 H 0.4534 0.33519 0.7293 0.0
H1230 H 0.41884 0.43556 0.77954 0.0
H1231 H 0.4063 0.38635 0.76196 0.0
H1232 H 0.40441 0.27184 0.77385 0.0
C1233 C 0.44484 0.22719 0.73097 0.0
C1234 C 0.44234 0.3208 0.73894 0.0
C1235 C 0.44334 0.20266 0.72023 0.0
C1236 C 0.42232 0.41006 0.78192 0.0
C1237 C 0.41621 0.38235 0.77173 0.0
C1238 C 0.41536 0.28619 0.76421 0.0
C1239 C 0.4327 0.25592 0.72922 0.0
C1240 C 0.43152 0.28049 0.74077 0.0
C1241 C 0.42532 0.35157 0.77384 0.0
C1242 C 0.42608 0.3265 0.76236 0.0
H1243 H 0.40703 0.23853 0.69606 0.0
H1244 H 0.41023 0.28145 0.71453 0.0
H1245 H 0.40887 0.23253 0.75539 0.0
H1246 H 0.45637 0.37303 0.8064 0.0
H1247 H 0.44483 0.32436 0.78894 0.0
C1248 C 0.04161 0.41466 0.94817 0.0
C1249 C 0.05634 0.42403 0.96137 0.0
C1250 C 0.06407 0.40969 0.93798 0.0
C1251 C 0.17054 0.44328 0.9302 0.0
H1252 H 0.12727 0.37567 0.8989 0.0
C1253 C 0.27156 0.43188 0.88867 0.0
C1254 C 0.25766 0.42523 0.87535 0.0
C1255 C 0.24742 0.43225 0.89921 0.0
C1256 C 0.13995 0.39523 0.90747 0.0
H1257 H 0.10505 0.43327 0.97435 0.0
H1258 H 0.14309 0.4224 0.95691 0.0
H1259 H 0.08291 0.37047 0.91721 0.0
H1260 H 0.20795 0.41444 0.8626 0.0
H1261 H 0.16643 0.41653 0.88079 0.0
H1262 H 0.22748 0.4683 0.92044 0.0
C1263 C 0.11469 0.41979 0.95425 0.0
C1264 C 0.11436 0.39208 0.91805 0.0
C1265 C 0.09239 0.42505 0.96436 0.0
C1266 C 0.21969 0.42031 0.87275 0.0
C1267 C 0.19563 0.42082 0.88324 0.0
C1268 C 0.1961 0.44647 0.91962 0.0
C1269 C 0.10188 0.41403 0.94076 0.0
C1270 C 0.12921 0.41603 0.92961 0.0
C1271 C 0.20861 0.42575 0.89671 0.0
C1272 C 0.18127 0.42258 0.90805 0.0
H1273 H 1.0148 0.41537 0.94542 0.0
H1274 H 0.05315 0.4056 0.92775 0.0
H1275 H 0.1832 0.463 0.93874 0.0
H1276 H 0.30025 0.43467 0.89101 0.0
H1277 H 0.25851 0.43575 0.9094 0.0
C1278 C 0.65942 0.02991 0.11676 0.0
C1279 C 0.66254 0.04689 0.1295 0.0
C1280 C 0.68664 0.05178 0.10649 0.0
C1281 C 0.78269 0.14595 0.09884 0.0
H1282 H 0.73085 0.13966 0.06484 0.0
C1283 C 0.86482 0.25994 0.05563 0.0
C1284 C 0.85971 0.24395 0.04262 0.0
C1285 C 0.84061 0.23647 0.06633 0.0
C1286 C 0.74603 0.14165 0.0742 0.0
H1287 H 0.69794 0.09916 0.14164 0.0
H1288 H 0.74602 0.13668 0.12405 0.0
H1289 H 0.69263 0.09524 0.08319 0.0
H1290 H 0.82478 0.19126 0.03058 0.0
H1291 H 0.78229 0.1507 0.04902 0.0
H1292 H 0.83603 0.19266 0.08985 0.0
C1293 C 0.72282 0.10651 0.12187 0.0
C1294 C 0.72407 0.11587 0.08476 0.0
C1295 C 0.69546 0.08475 0.13207 0.0
C1296 C 0.82893 0.20461 0.04045 0.0
C1297 C 0.80461 0.18132 0.05107 0.0
C1298 C 0.80467 0.17178 0.08827 0.0
C1299 C 0.71768 0.09119 0.10872 0.0
C1300 C 0.74202 0.11748 0.09725 0.0
C1301 C 0.81059 0.19649 0.06426 0.0
C1302 C 0.78672 0.17003 0.07576 0.0
H1303 H 0.63361 1.00143 0.11432 0.0
H1304 H 0.68201 0.03859 0.09659 0.0
H1305 H 0.79775 0.14806 0.10824 0.0
H1306 H 0.88878 0.2899 0.05764 0.0
H1307 H 0.84589 0.24946 0.07628 0.0
C1308 C 0.67744 0.65854 0.28398 0.0
C1309 C 0.64763 0.6414 0.29389 0.0
C1310 C 0.67851 0.68705 0.27493 0.0
C1311 C 0.6109 0.72121 0.26012 0.0
H1312 H 0.70895 0.80226 0.2438 0.0
C1313 C 0.62101 0.84157 0.22113 0.0
C1314 C 0.64817 0.85045 0.21047 0.0
C1315 C 0.61855 0.81576 0.23163 0.0
C1316 C 0.68117 0.77958 0.24817 0.0
H1317 H 0.59463 0.64031 0.3014 0.0
H1318 H 0.59785 0.69153 0.28658 0.0
H1319 H 0.71177 0.76157 0.26199 0.0
H1320 H 0.69169 0.83658 0.20207 0.0
H1321 H 0.68744 0.79219 0.22013 0.0
H1322 H 0.58047 0.73981 0.24626 0.0
C1323 C 0.62067 0.68314 0.2857 0.0
C1324 C 0.68279 0.75604 0.25864 0.0
C1325 C 0.6196 0.65452 0.29467 0.0
C1326 C 0.67092 0.83106 0.21021 0.0
C1327 C 0.66868 0.8057 0.22065 0.0
C1328 C 0.60932 0.74505 0.24968 0.0
C1329 C 0.64942 0.69907 0.27539 0.0
C1330 C 0.6477 0.72603 0.26471 0.0
C1331 C 0.64335 0.79847 0.23173 0.0
C1332 C 0.64444 0.77422 0.2434 0.0
H1333 H 0.69841 0.64785 0.28266 0.0
H1334 H 0.70081 0.69777 0.26706 0.0
H1335 H 0.58307 0.69822 0.26432 0.0
H1336 H 0.60318 0.85608 0.2217 0.0
H1337 H 0.59855 0.81078 0.23997 0.0
C1338 C 0.05029 0.65857 0.44757 0.0
C1339 C 1.03748 0.63688 0.45965 0.0
C1340 C 1.02305 0.66041 0.4387 0.0
C1341 C 0.91627 0.60251 0.42889 0.0
H1342 H 0.94476 0.6943 0.40615 0.0
C1343 C 0.81044 0.61201 0.38785 0.0
C1344 C 0.82919 0.63247 0.37595 0.0
C1345 C 0.83325 0.61048 0.3987 0.0
C1346 C 0.93635 0.66817 0.41231 0.0
H1347 H 0.98573 0.60241 0.47214 0.0
H1348 H 0.93805 0.60557 0.4568 0.0
H1349 H 0.98888 0.69914 0.42438 0.0
H1350 H 0.88617 0.66479 0.3658 0.0
H1351 H 0.92545 0.66167 0.3844 0.0
H1352 H 0.86365 0.57157 0.41664 0.0
C1353 C 0.96934 0.6208 0.45408 0.0
C1354 C 0.96176 0.671 0.42283 0.0
C1355 C 0.99686 0.61938 0.46304 0.0
C1356 C 0.8708 0.64918 0.37487 0.0
C1357 C 0.89341 0.64769 0.38561 0.0
C1358 C 0.89067 0.5997 0.41833 0.0
C1359 C 0.98189 0.64031 0.44157 0.0
C1360 C 0.95255 0.63809 0.43117 0.0
C1361 C 0.87526 0.62948 0.39786 0.0
C1362 C 0.90074 0.63234 0.40972 0.0
H1363 H 0.08122 0.67175 0.4445 0.0
H1364 H 1.03411 0.67546 0.42917 0.0
H1365 H 0.90826 0.57631 0.43496 0.0
H1366 H 0.77849 0.59909 0.38904 0.0
H1367 H 0.81817 0.59608 0.40795 0.0
C1368 C 0.58647 0.66912 0.3371 0.0
C1369 C 0.56708 0.63791 0.32763 0.0
C1370 C 0.5773 0.70047 0.33844 0.0
C1371 C 0.52743 0.75213 0.32027 0.0
H1372 H 0.53766 0.80345 0.35462 0.0
C1373 C 0.51223 0.89766 0.32483 0.0
C1374 C 0.49557 0.90448 0.33652 0.0
C1375 C 0.52116 0.86608 0.32398 0.0
C1376 C 0.53431 0.78965 0.34489 0.0
H1377 H 0.52189 0.61703 0.31209 0.0
H1378 H 0.50608 0.67089 0.31433 0.0
H1379 H 0.55124 0.74811 0.35283 0.0
H1380 H 0.47382 0.8804 0.35633 0.0
H1381 H 0.49018 0.82661 0.35509 0.0
H1382 H 0.51041 0.79356 0.31233 0.0
C1383 C 0.5288 0.67139 0.32083 0.0
C1384 C 0.54264 0.75762 0.3438 0.0
C1385 C 0.53767 0.63975 0.31962 0.0
C1386 C 0.48791 0.87767 0.3473 0.0
C1387 C 0.49719 0.84622 0.34651 0.0
C1388 C 0.51956 0.78444 0.32132 0.0
C1389 C 0.54845 0.70285 0.33026 0.0
C1390 C 0.53934 0.73774 0.33146 0.0
C1391 C 0.51379 0.83923 0.33477 0.0
C1392 C 0.52266 0.80419 0.33367 0.0
H1393 H 0.60939 0.66979 0.3435 0.0
H1394 H 0.59387 0.72356 0.34576 0.0
H1395 H 0.52465 0.73878 0.31048 0.0
H1396 H 0.51841 0.91697 0.3162 0.0
H1397 H 0.53424 0.86298 0.31476 0.0
C1398 C 0.63569 0.46973 0.51347 0.0
C1399 C 0.61648 0.47781 0.5028 0.0
C1400 C 0.67638 0.47909 0.5126 0.0
C1401 C 0.76097 0.50412 0.4872 0.0
H1402 H 0.82757 0.53096 0.51887 0.0
C1403 C 0.92395 0.52319 0.48458 0.0
C1404 C 0.95443 0.55029 0.49328 0.0
C1405 C 0.88348 0.51423 0.48587 0.0
C1406 C 0.8099 0.52379 0.50979 0.0
H1407 H 0.62666 0.50162 0.48262 0.0
H1408 H 0.69642 0.51788 0.48107 0.0
H1409 H 0.75882 0.51734 0.52083 0.0
H1410 H 0.96364 0.58862 0.51035 0.0
H1411 H 0.89451 0.57318 0.51266 0.0
H1412 H 0.81204 0.51092 0.47615 0.0
C1413 C 0.68036 0.50423 0.49025 0.0
C1414 C 0.76959 0.51539 0.51097 0.0
C1415 C 0.63985 0.49507 0.49116 0.0
C1416 C 0.94196 0.56748 0.50342 0.0
C1417 C 0.90151 0.5583 0.50479 0.0
C1418 C 0.80114 0.51219 0.48605 0.0
C1419 C 0.69992 0.49635 0.50091 0.0
C1420 C 0.74384 0.50539 0.4997 0.0
C1421 C 0.87096 0.5316 0.49599 0.0
C1422 C 0.82698 0.52238 0.4973 0.0
H1423 H 0.61897 0.45525 0.52246 0.0
H1424 H 0.689 0.47166 0.52109 0.0
H1425 H 0.74311 0.49626 0.47816 0.0
H1426 H 0.93147 0.5093 0.47651 0.0
H1427 H 0.86188 0.49322 0.47886 0.0
C1428 C 0.42317 0.90572 0.65331 0.0
C1429 C 0.42487 0.93688 0.66132 0.0
C1430 C 0.3915 0.86545 0.65447 0.0
C1431 C 0.30486 0.7931 0.67727 0.0
H1432 H 0.26966 0.72601 0.64564 0.0
C1433 C 0.18537 0.61867 0.68024 0.0
C1434 C 0.15865 0.60006 0.66942 0.0
C1435 C 0.21668 0.65928 0.6796 0.0
C1436 C 0.27857 0.74396 0.65467 0.0
H1437 H 0.39262 0.94741 0.67712 0.0
H1438 H 0.33878 0.87839 0.67931 0.0
H1439 H 0.32428 0.79471 0.64395 0.0
H1440 H 0.14631 0.61128 0.64918 0.0
H1441 H 0.20005 0.6808 0.64799 0.0
H1442 H 0.25902 0.74221 0.68797 0.0
C1443 C 0.36203 0.88486 0.67203 0.0
C1444 C 0.31079 0.78397 0.65371 0.0
C1445 C 0.39341 0.9252 0.67073 0.0
C1446 C 0.16549 0.62397 0.65785 0.0
C1447 C 0.19694 0.66433 0.65714 0.0
C1448 C 0.27294 0.75287 0.67826 0.0
C1449 C 0.35982 0.85372 0.66384 0.0
C1450 C 0.32493 0.80992 0.66496 0.0
C1451 C 0.22369 0.68329 0.66797 0.0
C1452 C 0.25866 0.72706 0.66698 0.0
H1453 H 0.44603 0.91255 0.64581 0.0
H1454 H 0.39217 0.84334 0.64797 0.0
H1455 H 0.31415 0.81093 0.68632 0.0
H1456 H 0.18272 0.60153 0.68917 0.0
H1457 H 0.2362 0.67148 0.6882 0.0
C1458 C 0.54783 0.4148 0.81899 0.0
C1459 C 0.51971 0.41783 0.82736 0.0
C1460 C 0.55625 0.38279 0.82019 0.0
C1461 C 0.54338 0.2973 0.84357 0.0
H1462 H 0.57255 0.25903 0.81199 0.0
C1463 C 0.59605 0.17547 0.84718 0.0
C1464 C 0.58788 0.14824 0.83651 0.0
C1465 C 0.58712 0.20718 0.84632 0.0
C1466 C 0.56426 0.26878 0.82102 0.0
H1467 H 0.47907 0.38742 0.84377 0.0
H1468 H 0.49365 0.33301 0.84599 0.0
H1469 H 0.55905 0.31432 0.81008 0.0
H1470 H 0.56438 0.13534 0.81629 0.0
H1471 H 0.54924 0.18982 0.81471 0.0
H1472 H 0.5485 0.25164 0.85449 0.0
C1473 C 0.50968 0.3555 0.83841 0.0
C1474 C 0.55681 0.30142 0.81993 0.0
C1475 C 0.50098 0.38722 0.8371 0.0
C1476 C 0.571 0.15495 0.82485 0.0
C1477 C 0.56245 0.18684 0.82392 0.0
C1478 C 0.55129 0.26495 0.84469 0.0
C1479 C 0.53735 0.352 0.82993 0.0
C1480 C 0.546 0.3167 0.83115 0.0
C1481 C 0.57035 0.21413 0.83461 0.0
C1482 C 0.56185 0.24952 0.83344 0.0
H1483 H 0.56292 0.43686 0.81119 0.0
H1484 H 0.57803 0.38247 0.81341 0.0
H1485 H 0.53564 0.30742 0.85263 0.0
H1486 H 0.61038 0.17291 0.85618 0.0
H1487 H 0.59457 0.22706 0.85483 0.0
C1488 C 0.13954 0.47646 0.99953 0.0
C1489 C 0.12892 0.505 0.99523 0.0
C1490 C 0.17993 0.48548 0.00079 0.0
C1491 C 0.28767 0.57029 0.00405 0.0
H1492 H 0.31517 0.48998 0.99403 0.0
C1493 C 0.44974 0.59018 0.01429 0.0
C1494 C 0.46683 0.57689 0.00438 0.0
C1495 C 0.40928 0.58171 0.01349 0.0
C1496 C 0.30851 0.51309 0.9969 0.0
H1497 H 0.15554 0.56669 0.98899 0.0
H1498 H 0.22543 0.58279 0.99161 0.0
H1499 H 0.24614 0.47591 0.99202 0.0
H1500 H 0.4528 0.54402 0.98572 0.0
H1501 H 0.38291 0.52809 0.98458 0.0
H1502 H 0.35008 0.60724 0.0091 0.0
C1503 C 0.20206 0.55284 0.99398 0.0
C1504 C 0.26822 0.5048 0.99583 0.0
C1505 C 0.16143 0.54352 0.99245 0.0
C1506 C 0.44128 0.55458 0.9937 0.0
C1507 C 0.40066 0.5453 0.99306 0.0
C1508 C 0.32787 0.57828 0.00539 0.0
C1509 C 0.21253 0.52391 0.99805 0.0
C1510 C 0.25653 0.53319 0.99929 0.0
C1511 C 0.38349 0.55898 0.00283 0.0
C1512 C 0.33958 0.55002 0.00177 0.0
H1513 H 0.11646 0.4463 0.00162 0.0
H1514 H 0.18551 0.46194 0.00405 0.0
H1515 H 0.28092 0.5933 0.00697 0.0
H1516 H 0.46799 0.60804 0.02258 0.0
H1517 H 0.39811 0.5929 0.02136 0.0
C1518 C 0.91341 0.43294 0.15773 0.0
C1519 C 0.92115 0.45655 0.16942 0.0
C1520 C 0.88157 0.39271 0.15702 0.0
C1521 C 0.8051 0.30412 0.1783 0.0
H1522 H 0.75394 0.26236 0.144 0.0
C1523 C 0.6828 0.1323 0.17142 0.0
C1524 C 0.65188 0.12021 0.16179 0.0
C1525 C 0.71443 0.17254 0.17256 0.0
C1526 C 0.76733 0.27306 0.15377 0.0
H1527 H 0.89826 0.45463 0.18941 0.0
H1528 H 0.84402 0.38506 0.1884 0.0
H1529 H 0.80903 0.33081 0.14562 0.0
H1530 H 0.63223 0.14392 0.14562 0.0
H1531 H 0.68641 0.21315 0.14755 0.0
H1532 H 0.76325 0.24639 0.18646 0.0
C1533 C 0.86314 0.39731 0.1797 0.0
C1534 C 0.79988 0.31296 0.15469 0.0
C1535 C 0.89489 0.43775 0.18035 0.0
C1536 C 0.65453 0.15103 0.15334 0.0
C1537 C 0.68643 0.19132 0.15437 0.0
C1538 C 0.7728 0.26405 0.17735 0.0
C1539 C 0.85522 0.37356 0.16795 0.0
C1540 C 0.81982 0.32988 0.16699 0.0
C1541 C 0.71753 0.2034 0.16401 0.0
C1542 C 0.75275 0.24719 0.16506 0.0
H1543 H 0.93221 0.44575 0.14897 0.0
H1544 H 0.87789 0.37652 0.14777 0.0
H1545 H 0.81895 0.31468 0.18802 0.0
H1546 H 0.68294 0.11048 0.17815 0.0
H1547 H 0.73716 0.17911 0.18006 0.0
C1548 C 0.16988 0.55496 0.50946 0.0
C1549 C 0.16335 0.57214 0.49785 0.0
C1550 C 0.20143 0.54598 0.51028 0.0
C1551 C 0.27834 0.53369 0.48941 0.0
H1552 H 0.32865 0.54252 0.52389 0.0
C1553 C 0.39878 0.48142 0.49727 0.0
C1554 C 0.42989 0.50072 0.50679 0.0
C1555 C 0.36743 0.49057 0.4959 0.0
C1556 C 0.31546 0.53998 0.51409 0.0
H1557 H 0.18793 0.59479 0.47816 0.0
H1558 H 0.24165 0.57829 0.47934 0.0
H1559 H 0.27384 0.55672 0.52202 0.0
H1560 H 0.45056 0.54567 0.52239 0.0
H1561 H 0.3967 0.56147 0.5201 0.0
H1562 H 0.32008 0.51702 0.48148 0.0
C1563 C 0.22181 0.57092 0.48787 0.0
C1564 C 0.28313 0.54782 0.51302 0.0
C1565 C 0.19039 0.58025 0.48711 0.0
C1566 C 0.42794 0.53001 0.51482 0.0
C1567 C 0.39629 0.53885 0.51358 0.0
C1568 C 0.31039 0.52538 0.49051 0.0
C1569 C 0.22854 0.55384 0.49954 0.0
C1570 C 0.2636 0.54502 0.50065 0.0
C1571 C 0.36494 0.5193 0.5041 0.0
C1572 C 0.33005 0.52838 0.50288 0.0
H1573 H 0.1504 0.54845 0.51806 0.0
H1574 H 0.20432 0.53253 0.51945 0.0
H1575 H 0.2647 0.5306 0.47966 0.0
H1576 H 0.39822 0.4586 0.49085 0.0
H1577 H 0.34441 0.47409 0.48854 0.0
C1578 C 0.63635 0.1525 0.67683 0.0
C1579 C 0.61279 0.14575 0.66518 0.0
C1580 C 0.67675 0.18388 0.67761 0.0
C1581 C 0.76555 0.2611 0.65658 0.0
H1582 H 0.80791 0.30923 0.6912 0.0
C1583 C 0.93767 0.38232 0.66371 0.0
C1584 C 0.94981 0.41211 0.67376 0.0
C1585 C 0.89737 0.35089 0.66244 0.0
C1586 C 0.79705 0.29672 0.68135 0.0
H1587 H 0.61493 0.16975 0.64536 0.0
H1588 H 0.68476 0.22333 0.64652 0.0
H1589 H 0.73926 0.25485 0.68939 0.0
H1590 H 0.92637 0.43012 0.69046 0.0
H1591 H 0.85713 0.37639 0.68828 0.0
H1592 H 0.82331 0.30327 0.64853 0.0
C1593 C 0.67237 0.20378 0.65511 0.0
C1594 C 0.75702 0.26455 0.68031 0.0
C1595 C 0.63178 0.17244 0.65437 0.0
C1596 C 0.91914 0.40864 0.68245 0.0
C1597 C 0.87886 0.37699 0.68127 0.0
C1598 C 0.80574 0.29308 0.65764 0.0
C1599 C 0.69608 0.21073 0.66682 0.0
C1600 C 0.73989 0.2457 0.66789 0.0
C1601 C 0.86664 0.34696 0.67124 0.0
C1602 C 0.8228 0.31204 0.67006 0.0
H1603 H 0.62338 0.13329 0.68548 0.0
H1604 H 0.69292 0.18679 0.68681 0.0
H1605 H 0.75482 0.24807 0.64677 0.0
H1606 H 0.9595 0.38291 0.65678 0.0
H1607 H 0.89064 0.32896 0.65464 0.0
C1608 C 0.57931 0.92618 0.8298 0.0
C1609 C 0.56093 0.93836 0.83961 0.0
C1610 C 0.5705 0.8858 0.82849 0.0
C1611 C 0.52338 0.78487 0.84704 0.0
H1612 H 0.5314 0.74338 0.81246 0.0
C1613 C 0.50847 0.62396 0.84208 0.0
C1614 C 0.49176 0.60068 0.83038 0.0
C1615 C 0.51709 0.66436 0.84303 0.0
C1616 C 0.52868 0.7539 0.82227 0.0
H1617 H 0.51817 0.91466 0.85591 0.0
H1618 H 0.50285 0.84525 0.85369 0.0
H1619 H 0.54448 0.81197 0.81433 0.0
H1620 H 0.46959 0.60338 0.81068 0.0
H1621 H 0.48546 0.67321 0.81207 0.0
H1622 H 0.50748 0.72678 0.85497 0.0
C1623 C 0.52448 0.8671 0.84686 0.0
C1624 C 0.53673 0.79414 0.82339 0.0
C1625 C 0.53302 0.9075 0.84806 0.0
C1626 C 0.48376 0.62 0.81971 0.0
C1627 C 0.49276 0.66058 0.82059 0.0
C1628 C 0.51579 0.74479 0.84594 0.0
C1629 C 0.54303 0.85491 0.83705 0.0
C1630 C 0.53423 0.81096 0.83581 0.0
C1631 C 0.50942 0.68402 0.83233 0.0
C1632 C 0.51808 0.72791 0.83351 0.0
H1633 H 0.60101 0.94802 0.82306 0.0
H1634 H 0.58628 0.87913 0.82084 0.0
H1635 H 0.52123 0.79552 0.85689 0.0
H1636 H 0.51495 0.61078 0.85064 0.0
H1637 H 0.53021 0.6803 0.85226 0.0
C1638 C 0.68617 0.57372 0.99843 0.0
C1639 C 0.6553 0.55479 0.00809 0.0
C1640 C 0.71745 0.56439 0.99702 0.0
C1641 C 0.76962 0.5147 0.01515 0.0
H1642 H 0.81953 0.52344 0.98059 0.0
C1643 C 0.91425 0.49735 0.00997 0.0
C1644 C 0.92044 0.48042 0.99824 0.0
C1645 C 0.88291 0.50669 0.01099 0.0
C1646 C 0.80615 0.52051 0.99039 0.0
H1647 H 0.63507 0.51031 0.02387 0.0
H1648 H 0.68876 0.49427 0.0215 0.0
H1649 H 0.76464 0.53768 0.98257 0.0
H1650 H 0.89543 0.45861 0.97856 0.0
H1651 H 0.84221 0.47574 0.98007 0.0
H1652 H 0.81105 0.49748 0.02297 0.0
C1653 C 0.68906 0.51673 0.01492 0.0
C1654 C 0.77435 0.52922 0.99158 0.0
C1655 C 0.6575 0.52574 0.01621 0.0
C1656 C 0.89323 0.47292 0.98761 0.0
C1657 C 0.86209 0.48265 0.98855 0.0
C1658 C 0.80172 0.50647 0.014 0.0
C1659 C 0.72016 0.53585 0.0053 0.0
C1660 C 0.75493 0.52646 0.00399 0.0
C1661 C 0.85571 0.49956 1.00033 0.0
C1662 C 0.82097 0.50898 0.00158 0.0
H1663 H 0.68658 0.59635 0.99193 0.0
H1664 H 0.74023 0.58057 0.98954 0.0
H1665 H 0.75666 0.51231 0.02499 0.0
H1666 H 0.93388 0.50347 0.0185 0.0
H1667 H 0.88029 0.51993 0.02025 0.0
C1668 C 0.45292 0.8792 0.15559 0.0
C1669 C 0.46946 0.91036 0.16518 0.0
C1670 C 0.4125 0.84754 0.15639 0.0
C1671 C 0.31067 0.81704 0.17209 0.0
H1672 H 0.2843 0.7092 0.16297 0.0
C1673 C 0.14198 0.68481 0.16888 0.0
C1674 C 0.13163 0.64592 0.1733 0.0
C1675 C 0.18234 0.71621 0.16785 0.0
C1676 C 0.29067 0.73897 0.16562 0.0
H1677 H 0.45442 0.93103 0.18326 0.0
H1678 H 0.3845 0.87747 0.1844 0.0
H1679 H 0.35341 0.76389 0.1611 0.0
H1680 H 0.15851 0.61139 0.18012 0.0
H1681 H 0.22823 0.66515 0.17793 0.0
H1682 H 0.24792 0.7923 0.17643 0.0
C1683 C 0.40273 0.87716 0.17618 0.0
C1684 C 0.33088 0.77089 0.16443 0.0
C1685 C 0.44338 0.90824 0.17556 0.0
C1686 C 0.16425 0.64024 0.17652 0.0
C1687 C 0.2048 0.67153 0.17524 0.0
C1688 C 0.27035 0.78528 0.17301 0.0
C1689 C 0.38612 0.84554 0.16671 0.0
C1690 C 0.34219 0.81089 0.16771 0.0
C1691 C 0.21509 0.71063 0.17097 0.0
C1692 C 0.25907 0.74519 0.16988 0.0
H1693 H 0.47156 0.87883 0.14752 0.0
H1694 H 0.40181 0.82462 0.14874 0.0
H1695 H 0.317 0.84684 0.17467 0.0
H1696 H 0.11868 0.69153 0.16646 0.0
H1697 H 0.18779 0.74511 0.16443 0.0
C1698 C 0.60343 0.43405 0.32161 0.0
C1699 C 0.59015 0.45123 0.33148 0.0
C1700 C 0.59476 0.39359 0.32247 0.0
C1701 C 0.5252 0.29303 0.33878 0.0
H1702 H 0.60607 0.26543 0.32961 0.0
C1703 C 0.48871 0.12433 0.33581 0.0
C1704 C 0.5167 0.11362 0.34061 0.0
C1705 C 0.49784 0.16474 0.33462 0.0
C1706 C 0.58288 0.27221 0.33227 0.0
H1707 H 0.55704 0.43747 0.3501 0.0
H1708 H 0.5407 0.36745 0.35132 0.0
H1709 H 0.62041 0.33469 0.32744 0.0
H1710 H 0.57735 0.13979 0.3479 0.0
H1711 H 0.59373 0.20977 0.3454 0.0
H1712 H 0.48744 0.23056 0.34339 0.0
C1713 C 0.55811 0.38519 0.34286 0.0
C1714 C 0.59111 0.31242 0.33091 0.0
C1715 C 0.56764 0.42584 0.34218 0.0
C1716 C 0.55471 0.14589 0.34402 0.0
C1717 C 0.56418 0.18652 0.34256 0.0
C1718 C 0.51668 0.25271 0.33985 0.0
C1719 C 0.5718 0.36795 0.33312 0.0
C1720 C 0.5626 0.32408 0.33421 0.0
C1721 C 0.53584 0.19712 0.33795 0.0
C1722 C 0.54532 0.24108 0.33671 0.0
H1723 H 0.6214 0.45221 0.31331 0.0
H1724 H 0.60594 0.38229 0.31463 0.0
H1725 H 0.50195 0.29975 0.3414 0.0
H1726 H 0.45894 0.1013 0.33322 0.0
H1727 H 0.47481 0.17054 0.33094 0.0
C1728 C 0.1901 0.66179 0.44691 0.0
C1729 C 0.18064 0.67648 0.45847 0.0
C1730 C 0.21672 0.6878 0.43721 0.0
C1731 C 0.29727 0.79276 0.4315 0.0
H1732 H 0.27208 0.76564 0.39389 0.0
C1733 C 0.40937 0.88267 0.38881 0.0
C1734 C 0.39419 0.89064 0.37705 0.0
C1735 C 0.38371 0.85634 0.39866 0.0
C1736 C 0.27956 0.77389 0.40433 0.0
H1737 H 0.19288 0.73074 0.46886 0.0
H1738 H 0.23935 0.77602 0.45199 0.0
H1739 H 0.22729 0.72131 0.41123 0.0
H1740 H 0.3395 0.87623 0.3665 0.0
H1741 H 0.29492 0.83037 0.38359 0.0
H1742 H 0.3493 0.84561 0.42459 0.0
C1743 C 0.22623 0.74421 0.45046 0.0
C1744 C 0.254 0.74815 0.41432 0.0
C1745 C 0.19939 0.71814 0.46015 0.0
C1746 C 0.35248 0.87087 0.37535 0.0
C1747 C 0.3268 0.84435 0.38518 0.0
C1748 C 0.32297 0.8184 0.42151 0.0
C1749 C 0.23496 0.72944 0.43874 0.0
C1750 C 0.26242 0.75713 0.42808 0.0
C1751 C 0.34199 0.83692 0.39705 0.0
C1752 C 0.31454 0.8094 0.40775 0.0
H1753 H 0.17644 0.63005 0.44516 0.0
H1754 H 0.22306 0.67514 0.42847 0.0
H1755 H 0.30505 0.80068 0.44195 0.0
H1756 H 0.44119 0.89726 0.39057 0.0
H1757 H 0.39668 0.85107 0.40753 0.0
C1758 C 0.51987 0.33789 0.54021 0.0
C1759 C 0.52882 0.37672 0.54368 0.0
C1760 C 0.52091 0.31192 0.54992 0.0
C1761 C 0.55326 0.30963 0.58586 0.0
H1762 H 0.48678 0.19551 0.58112 0.0
C1763 C 0.51755 0.18972 0.62797 0.0
C1764 C 0.52628 0.15953 0.6245 0.0
C1765 C 0.51913 0.21696 0.61825 0.0
C1766 C 0.50559 0.22734 0.58257 0.0
H1767 H 0.54496 0.41828 0.56024 0.0
H1768 H 0.54466 0.37296 0.57719 0.0
H1769 H 0.48625 0.24073 0.56414 0.0
H1770 H 0.54285 0.13408 0.60797 0.0
H1771 H 0.5442 0.18068 0.591 0.0
H1772 H 0.57082 0.29556 0.6047 0.0
C1773 C 0.5386 0.36259 0.56691 0.0
C1774 C 0.50567 0.25353 0.57273 0.0
C1775 C 0.53855 0.3888 0.55713 0.0
C1776 C 0.53635 0.15716 0.61105 0.0
C1777 C 0.53687 0.18368 0.60129 0.0
C1778 C 0.55234 0.2834 0.59585 0.0
C1779 C 0.52988 0.32357 0.56353 0.0
C1780 C 0.5297 0.29529 0.57412 0.0
C1781 C 0.52835 0.21395 0.60476 0.0
C1782 C 0.52869 0.24194 0.59428 0.0
H1783 H 0.51237 0.32763 0.52992 0.0
H1784 H 0.51489 0.28276 0.54664 0.0
H1785 H 0.57304 0.34121 0.58736 0.0
H1786 H 0.50961 0.19235 0.63822 0.0
H1787 H 0.51229 0.23989 0.62122 0.0
C1788 C 0.40478 0.51998 0.77519 0.0
C1789 C 0.39207 0.5093 0.78856 0.0
C1790 C 0.37885 0.52047 0.76537 0.0
C1791 C 0.26968 0.48758 0.7594 0.0
H1792 H 0.31209 0.555 0.72791 0.0
C1793 C 0.17357 0.52203 0.72233 0.0
C1794 C 0.17524 0.51252 0.70876 0.0
C1795 C 0.2004 0.52187 0.73181 0.0
C1796 C 0.29983 0.53589 0.73663 0.0
H1797 H 0.34231 0.4918 0.80213 0.0
H1798 H 0.29806 0.4951 0.78541 0.0
H1799 H 0.35762 0.55566 0.74502 0.0
H1800 H 0.20721 0.49617 0.69455 0.0
H1801 H 0.25532 0.49765 0.71107 0.0
H1802 H 0.21173 0.46962 0.75115 0.0
C1803 C 0.32738 0.5014 0.78218 0.0
C1804 C 0.32599 0.53593 0.74648 0.0
C1805 C 0.353 0.49989 0.79191 0.0
C1806 C 0.20512 0.50372 0.70489 0.0
C1807 C 0.2327 0.50462 0.71434 0.0
C1808 C 0.24359 0.48838 0.74972 0.0
C1809 C 0.33955 0.51126 0.76865 0.0
C1810 C 0.31149 0.51163 0.75807 0.0
C1811 C 0.23031 0.51318 0.72795 0.0
C1812 C 0.25832 0.51239 0.73819 0.0
H1813 H 0.43453 0.52689 0.77221 0.0
H1814 H 0.38966 0.52734 0.75514 0.0
H1815 H 0.25672 0.46753 0.76785 0.0
H1816 H 0.15075 0.52855 0.72572 0.0
H1817 H 0.19786 0.52869 0.7422 0.0
C1818 C 0.72921 0.18799 0.8738 0.0
C1819 C 0.69039 0.15858 0.87751 0.0
C1820 C 0.75526 0.21583 0.88324 0.0
C1821 C 0.78009 0.22915 0.91889 0.0
H1822 H 0.83 0.34281 0.91239 0.0
C1823 C 0.87947 0.34173 0.95995 0.0
C1824 C 0.91 0.37988 0.95621 0.0
C1825 C 0.852 0.31571 0.95044 0.0
C1826 C 0.81718 0.31127 0.91438 0.0
H1827 H 0.64891 0.1352 0.8942 0.0
H1828 H 0.69492 0.18283 0.91076 0.0
H1829 H 0.78501 0.29608 0.89566 0.0
H1830 H 0.93588 0.42031 0.93939 0.0
H1831 H 0.88983 0.3746 0.92269 0.0
H1832 H 0.81335 0.24345 0.93716 0.0
C1833 C 0.70487 0.18475 0.90047 0.0
C1834 C 0.79096 0.2844 0.90474 0.0
C1835 C 0.67844 0.15759 0.89095 0.0
C1836 C 0.91241 0.39131 0.94267 0.0
C1837 C 0.88558 0.36489 0.93306 0.0
C1838 C 0.80707 0.25589 0.92837 0.0
C1839 C 0.74359 0.21431 0.89673 0.0
C1840 C 0.77185 0.24301 0.90691 0.0
C1841 C 0.85475 0.32642 0.93673 0.0
C1842 C 0.82602 0.29762 0.92639 0.0
H1843 H 0.73941 0.18964 0.86355 0.0
H1844 H 0.78492 0.23809 0.88005 0.0
H1845 H 0.76624 0.19741 0.9208 0.0
H1846 H 0.87653 0.33203 0.97032 0.0
H1847 H 0.82844 0.2872 0.95398 0.0
C1848 C 0.5523 0.9034 0.11064 0.0
C1849 C 0.56283 0.90131 0.12405 0.0
C1850 C 0.5517 0.87682 0.10089 0.0
C1851 C 0.53617 0.77687 0.09585 0.0
H1852 H 0.6 0.81773 0.06356 0.0
C1853 C 0.54794 0.66918 0.05772 0.0
C1854 C 0.55688 0.68033 0.04415 0.0
C1855 C 0.54839 0.69602 0.06732 0.0
C1856 C 0.5812 0.80542 0.07233 0.0
H1857 H 0.58042 0.86905 0.13771 0.0
H1858 H 0.57766 0.82149 0.12076 0.0
H1859 H 0.60038 0.86392 0.08031 0.0
H1860 H 0.57247 0.72849 0.03002 0.0
H1861 H 0.5708 0.77443 0.04645 0.0
H1862 H 0.51516 0.71858 0.0878 0.0
C1863 C 0.57052 0.84422 0.11779 0.0
C1864 C 0.5818 0.83218 0.08203 0.0
C1865 C 0.57218 0.87152 0.12748 0.0
C1866 C 0.56556 0.71892 0.0404 0.0
C1867 C 0.56502 0.74551 0.04994 0.0
C1868 C 0.53471 0.75007 0.08602 0.0
C1869 C 0.56059 0.84676 0.10435 0.0
C1870 C 0.55956 0.81824 0.09396 0.0
C1871 C 0.55683 0.73479 0.06366 0.0
C1872 C 0.55749 0.76372 0.07408 0.0
H1873 H 0.54523 0.92614 0.1076 0.0
H1874 H 0.54383 0.87948 0.09064 0.0
H1875 H 0.51832 0.76519 0.10487 0.0
H1876 H 0.54177 0.63994 0.06105 0.0
H1877 H 0.54294 0.68633 0.07769 0.0
C1878 C 0.73184 0.54982 0.29472 0.0
C1879 C 0.69303 0.54085 0.29116 0.0
C1880 C 0.75797 0.5488 0.28506 0.0
C1881 C 0.76047 0.51622 0.24917 0.0
H1882 H 0.87465 0.58255 0.25393 0.0
C1883 C 0.87983 0.55191 0.20697 0.0
C1884 C 0.91019 0.54333 0.21035 0.0
C1885 C 0.85276 0.55029 0.21676 0.0
C1886 C 0.84281 0.56377 0.25249 0.0
H1887 H 0.65174 0.52482 0.27451 0.0
H1888 H 0.69732 0.52521 0.25767 0.0
H1889 H 0.82942 0.58315 0.2709 0.0
H1890 H 0.93614 0.52696 0.22679 0.0
H1891 H 0.88981 0.52555 0.2439 0.0
H1892 H 0.7745 0.49862 0.23035 0.0
C1893 C 0.70754 0.53121 0.26797 0.0
C1894 C 0.81661 0.56375 0.26231 0.0
C1895 C 0.68118 0.53123 0.27768 0.0
C1896 C 0.91293 0.53337 0.22378 0.0
C1897 C 0.88656 0.53281 0.23362 0.0
C1898 C 0.78669 0.51709 0.2392 0.0
C1899 C 0.74649 0.53983 0.27143 0.0
C1900 C 0.77483 0.53984 0.2609 0.0
C1901 C 0.8561 0.54118 0.23024 0.0
C1902 C 0.82817 0.5407 0.24077 0.0
H1903 H 0.74192 0.55724 0.30502 0.0
H1904 H 0.7871 0.5548 0.28839 0.0
H1905 H 0.72887 0.49649 0.24766 0.0
H1906 H 0.8769 0.55976 0.19674 0.0
H1907 H 0.82968 0.55702 0.21386 0.0
C1908 C 0.86576 0.46508 0.42664 0.0
C1909 C 0.89921 0.45988 0.42778 0.0
C1910 C 0.82859 0.43293 0.42311 0.0
C1911 C 0.75106 0.35052 0.42363 0.0
H1912 H 0.75013 0.28398 0.39427 0.0
C1913 C 0.6091 0.20519 0.40656 0.0
C1914 C 0.61532 0.17259 0.40463 0.0
C1915 C 0.64156 0.24353 0.40844 0.0
C1916 C 0.74992 0.30225 0.40249 0.0
H1917 H 0.92024 0.41738 0.42607 0.0
H1918 H 0.85558 0.36147 0.41997 0.0
H1919 H 0.81126 0.34559 0.39948 0.0
H1920 H 0.66013 0.15434 0.40367 0.0
H1921 H 0.71642 0.22086 0.40687 0.0
H1922 H 0.68991 0.30623 0.42692 0.0
C1923 C 0.858 0.39026 0.42177 0.0
C1924 C 0.78483 0.33747 0.40546 0.0
C1925 C 0.89487 0.42211 0.42541 0.0
C1926 C 0.65442 0.17897 0.40479 0.0
C1927 C 0.68668 0.2171 0.40662 0.0
C1928 C 0.71599 0.31503 0.42069 0.0
C1929 C 0.82462 0.39541 0.42046 0.0
C1930 C 0.78606 0.3613 0.41629 0.0
C1931 C 0.68067 0.24981 0.40837 0.0
C1932 C 0.71553 0.29001 0.41034 0.0
H1933 H 0.86839 0.49394 0.42848 0.0
H1934 H 0.80322 0.43755 0.42216 0.0
H1935 H 0.75135 0.36844 0.43205 0.0
H1936 H 0.57925 0.20114 0.40643 0.0
H1937 H 0.63614 0.26829 0.40976 0.0
C1938 C 0.48108 0.8607 0.60429 0.0
C1939 C 0.45464 0.87308 0.59948 0.0
C1940 C 0.47451 0.82259 0.60167 0.0
C1941 C 0.47708 0.76024 0.58537 0.0
H1942 H 0.37671 0.66291 0.57971 0.0
C1943 C 0.48109 0.62896 0.5627 0.0
C1944 C 0.45634 0.59092 0.56828 0.0
C1945 C 0.4737 0.66017 0.56502 0.0
C1946 C 0.40498 0.68979 0.58136 0.0
H1947 H 0.39814 0.85253 0.58907 0.0
H1948 H 0.38912 0.78741 0.58332 0.0
H1949 H 0.3767 0.72194 0.58867 0.0
H1950 H 0.40156 0.5559 0.57969 0.0
H1951 H 0.39152 0.61164 0.58496 0.0
H1952 H 0.50577 0.72843 0.57901 0.0
C1953 C 0.41443 0.80716 0.58947 0.0
C1954 C 0.40495 0.72373 0.58636 0.0
C1955 C 0.42016 0.84502 0.59255 0.0
C1956 C 0.42248 0.58486 0.57563 0.0
C1957 C 0.41608 0.61678 0.57844 0.0
C1958 C 0.47714 0.72647 0.5807 0.0
C1959 C 0.44246 0.79614 0.59358 0.0
C1960 C 0.44114 0.75934 0.58847 0.0
C1961 C 0.44266 0.6552 0.57359 0.0
C1962 C 0.44121 0.69085 0.57847 0.0
H1963 H 0.5083 0.88078 0.6095 0.0
H1964 H 0.49591 0.81464 0.6055 0.0
H1965 H 0.50558 0.78726 0.58646 0.0
H1966 H 0.50775 0.63594 0.55711 0.0
H1967 H 0.49385 0.68891 0.56061 0.0
C1968 C 0.60879 0.43584 0.75403 0.0
C1969 C 0.61071 0.46542 0.76278 0.0
C1970 C 0.64038 0.42796 0.75324 0.0
C1971 C 0.74865 0.47999 0.76096 0.0
H1972 H 0.74175 0.38449 0.7457 0.0
C1973 C 0.88634 0.48588 0.73814 0.0
C1974 C 0.8924 0.45302 0.73944 0.0
C1975 C 0.85007 0.48284 0.74168 0.0
C1976 C 0.74425 0.4112 0.75016 0.0
H1977 H 0.64647 0.50676 0.7786 0.0
H1978 H 0.69853 0.48992 0.77821 0.0
H1979 H 0.68098 0.38429 0.75244 0.0
H1980 H 0.86397 0.39053 0.74517 0.0
H1981 H 0.80142 0.38604 0.75221 0.0
H1982 H 0.81166 0.50634 0.75937 0.0
C1983 C 0.67395 0.47471 0.77126 0.0
C1984 C 0.70929 0.41129 0.75386 0.0
C1985 C 0.64322 0.48372 0.7717 0.0
C1986 C 0.86076 0.41674 0.74425 0.0
C1987 C 0.82459 0.41396 0.74811 0.0
C1988 C 0.78339 0.47957 0.75759 0.0
C1989 C 0.67414 0.44846 0.76151 0.0
C1990 C 0.71098 0.44603 0.75904 0.0
C1991 C 0.81905 0.44722 0.74705 0.0
C1992 C 0.78171 0.44566 0.75176 0.0
H1993 H 0.58363 0.41973 0.74737 0.0
H1994 H 0.63904 0.40733 0.74563 0.0
H1995 H 0.75163 0.50769 0.76465 0.0
H1996 H 0.90995 0.51457 0.73472 0.0
H1997 H 0.84665 0.5088 0.74032 0.0
C1998 C 0.46315 0.87169 0.91591 0.0
C1999 C 0.46198 0.90373 0.90959 0.0
C2000 C 0.42812 0.83553 0.91811 0.0
C2001 C 0.35284 0.75524 0.91704 0.0
H2002 H 0.25449 0.75812 0.92091 0.0
C2003 C 0.19969 0.61081 0.91988 0.0
C2004 C 0.16806 0.61168 0.92662 0.0
C2005 C 0.2363 0.64567 0.91812 0.0
C2006 C 0.28162 0.75651 0.92017 0.0
H2007 H 0.42219 0.92189 0.90049 0.0
H2008 H 0.36267 0.85837 0.90297 0.0
H2009 H 0.31612 0.81941 0.91796 0.0
H2010 H 0.15125 0.65068 0.93706 0.0
H2011 H 0.21553 0.70962 0.93531 0.0
H2012 H 0.31852 0.69251 0.92044 0.0
C2013 C 0.39021 0.86152 0.90691 0.0
C2014 C 0.31722 0.79195 0.91809 0.0
C2015 C 0.4249 0.89802 0.90515 0.0
C2016 C 0.17473 0.64815 0.93201 0.0
C2017 C 0.21169 0.68259 0.93069 0.0
C2018 C 0.31732 0.71983 0.9196 0.0
C2019 C 0.39106 0.82994 0.91368 0.0
C2020 C 0.35333 0.79189 0.9163 0.0
C2021 C 0.24277 0.68218 0.92343 0.0
C2022 C 0.28109 0.7199 0.92109 0.0
H2023 H 0.49107 0.87439 0.91924 0.0
H2024 H 0.43025 0.8123 0.9235 0.0
H2025 H 0.37976 0.75361 0.91554 0.0
H2026 H 0.19629 0.5833 0.91583 0.0
H2027 H 0.25911 0.6439 0.91234 0.0
C2028 C 0.58136 0.17451 0.10577 0.0
C2029 C 0.60102 0.16103 0.0971 0.0
C2030 C 0.58939 0.21384 0.10526 0.0
C2031 C 0.5834 0.28279 0.09488 0.0
H2032 H 0.67967 0.37258 0.08077 0.0
C2033 C 0.57775 0.41566 0.07285 0.0
C2034 C 0.61023 0.45432 0.0746 0.0
C2035 C 0.58089 0.38236 0.0762 0.0
C2036 C 0.65272 0.34802 0.08491 0.0
H2037 H 0.64769 0.18041 0.08196 0.0
H2038 H 0.65851 0.24756 0.0801 0.0
H2039 H 0.6802 0.31197 0.08722 0.0
H2040 H 0.67214 0.48789 0.08097 0.0
H2041 H 0.67672 0.42961 0.08769 0.0
H2042 H 0.55641 0.31907 0.09328 0.0
C2043 C 0.63761 0.228 0.08759 0.0
C2044 C 0.65284 0.31297 0.08844 0.0
C2045 C 0.63068 0.18893 0.08846 0.0
C2046 C 0.64622 0.45865 0.0797 0.0
C2047 C 0.64906 0.42515 0.08337 0.0
C2048 C 0.58357 0.31792 0.09168 0.0
C2049 C 0.61599 0.24057 0.09567 0.0
C2050 C 0.61789 0.27957 0.09323 0.0
C2051 C 0.61619 0.38658 0.08183 0.0
C2052 C 0.61781 0.35064 0.08629 0.0
H2053 H 0.55811 0.15447 0.11254 0.0
H2054 H 0.57326 0.22268 0.11205 0.0
H2055 H 0.55555 0.25778 0.09825 0.0
H2056 H 0.54927 0.41082 0.0692 0.0
H2057 H 0.55526 0.35319 0.07448 0.0
C2058 C 0.44017 0.5847 0.27034 0.0
C2059 C 0.47842 0.60967 0.26495 0.0
C2060 C 0.409 0.59209 0.26791 0.0
C2061 C 0.37988 0.66151 0.25196 0.0
H2062 H 0.28257 0.56124 0.24618 0.0
C2063 C 0.22435 0.64652 0.2415 0.0
C2064 C 0.19632 0.61253 0.23437 0.0
C2065 C 0.26235 0.65225 0.24437 0.0
C2066 C 0.30955 0.58967 0.24745 0.0
H2067 H 0.51377 0.66455 0.25364 0.0
H2068 H 0.45816 0.67479 0.24824 0.0
H2069 H 0.34139 0.56066 0.25348 0.0
H2070 H 0.18883 0.55984 0.22372 0.0
H2071 H 0.25519 0.57235 0.22737 0.0
H2072 H 0.34769 0.6902 0.24503 0.0
C2073 C 0.45284 0.65007 0.25471 0.0
C2074 C 0.34329 0.58934 0.25203 0.0
C2075 C 0.48468 0.64359 0.25761 0.0
C2076 C 0.20887 0.58669 0.22912 0.0
C2077 C 0.24711 0.5933 0.23152 0.0
C2078 C 0.34596 0.66183 0.24706 0.0
C2079 C 0.41428 0.62341 0.25943 0.0
C2080 C 0.37881 0.62514 0.25453 0.0
C2081 C 0.27353 0.62474 0.23982 0.0
C2082 C 0.3104 0.62578 0.24472 0.0
H2083 H 0.43304 0.55792 0.27589 0.0
H2084 H 0.38008 0.5718 0.27219 0.0
H2085 H 0.40672 0.68965 0.25381 0.0
H2086 H 0.2167 0.6681 0.24532 0.0
H2087 H 0.28208 0.67709 0.25069 0.0
loop_
_geom_bond_atom_site_label_1
_geom_bond_atom_site_label_2
_geom_bond_distance
_geom_bond_site_symmetry_2
_ccdc_geom_bond_type
Eu0 N31 2.657 . S
Eu0 N38 2.609 1_545 S
Eu0 O44 2.558 . S
Eu0 O45 2.612 . S
Eu0 O47 2.339 . S
Eu0 O48 2.563 . S
Eu0 O49 2.419 . S
Eu0 O51 2.380 1_545 S
Eu0 O52 2.432 1_545 S
Eu0 C64 2.848 . S
C1 C4 1.429 . S
C1 C5 1.411 . S
C1 N8 1.377 . S
C2 C4 1.420 . S
C2 C6 1.423 . S
C2 C14 1.406 . S
C3 C5 1.420 . S
C3 C6 1.351 . S
C3 H26 0.931 . S
C4 C1 1.429 . S
C4 C2 1.420 . S
C4 N12 1.362 1_545 S
C5 C1 1.411 . S
C5 C3 1.420 . S
C5 C10 1.395 . S
C6 C2 1.423 . S
C6 C3 1.351 . S
C6 H18 0.930 . S
C7 C9 1.400 . S
C7 C10 1.386 . S
C7 H19 0.930 . S
N8 C1 1.377 . S
N8 C9 1.321 . S
N8 Eu11 2.609 1_545 S
C9 C7 1.400 . S
C9 N8 1.321 . S
C9 H16 0.930 . S
C10 C5 1.395 . S
C10 C7 1.386 . S
C10 H29 0.930 . S
Eu11 N8 2.609 1_565 S
Eu11 N12 2.657 . S
Eu11 O45 2.380 1_565 S
Eu11 O46 2.432 1_565 S
Eu11 O50 2.558 . S
Eu11 O51 2.612 . S
Eu11 O53 2.339 . S
Eu11 O54 2.563 . S
Eu11 O55 2.419 . S
Eu11 C75 2.848 . S
N12 C4 1.362 1_565 S
N12 Eu11 2.657 . S
N12 C13 1.334 . S
C13 N12 1.334 . S
C13 C15 1.413 . S
C13 H20 0.929 . S
C14 C2 1.406 . S
C14 C15 1.336 1_545 S
C14 H22 0.949 . S
C15 C13 1.413 . S
C15 C14 1.336 1_565 S
C15 H17 0.930 . S
H16 C9 0.930 . S
H17 C15 0.930 . S
H18 C6 0.930 . S
H19 C7 0.930 . S
H20 C13 0.929 . S
H21 C35 0.930 . S
H22 C14 0.949 . S
H23 C41 0.930 . S
H24 C32 0.929 . S
H25 C39 0.930 . S
H26 C3 0.931 . S
H27 C33 0.944 . S
H28 C66 0.930 . S
H29 C10 0.930 . S
H30 C65 0.931 . S
N31 Eu0 2.657 . S
N31 C32 1.334 . S
N31 C36 1.362 1_545 S
C32 H24 0.929 . S
C32 N31 1.334 . S
C32 C35 1.413 . S
C33 H27 0.944 . S
C33 C34 1.403 . S
C33 C35 1.343 1_565 S
C34 C33 1.403 . S
C34 C36 1.420 . S
C34 C66 1.423 . S
C35 H21 0.930 . S
C35 C32 1.413 . S
C35 C33 1.343 1_545 S
C36 N31 1.362 1_565 S
C36 C34 1.420 . S
C36 C40 1.429 . S
H37 C42 0.930 . S
N38 Eu0 2.609 1_565 S
N38 C40 1.377 . S
N38 C41 1.321 . S
C39 H25 0.930 . S
C39 C41 1.400 . S
C39 C42 1.386 . S
C40 C36 1.429 . S
C40 N38 1.377 . S
C40 C43 1.411 . S
C41 H23 0.930 . S
C41 N38 1.321 . S
C41 C39 1.400 . S
C42 H37 0.930 . S
C42 C39 1.386 . S
C42 C43 1.395 . S
C43 C40 1.411 . S
C43 C42 1.395 . S
C43 C65 1.420 . S
O44 Eu0 2.558 . S
O44 C64 1.257 . S
O45 Eu0 2.612 . S
O45 Eu11 2.380 1_545 S
O45 C56 1.276 . S
O46 Eu11 2.432 1_545 S
O46 C63 1.264 . S
O47 Eu0 2.339 . S
O47 C63 1.254 . S
O48 Eu0 2.563 . S
O48 C56 1.235 . S
O49 Eu0 2.419 . S
O49 C64 1.249 . S
O50 Eu11 2.558 . S
O50 C75 1.257 . S
O51 Eu0 2.380 1_565 S
O51 Eu11 2.612 . S
O51 C67 1.276 . S
O52 Eu0 2.432 1_565 S
O52 C74 1.264 . S
O53 Eu11 2.339 . S
O53 C74 1.254 . S
O54 Eu11 2.563 . S
O54 C67 1.235 . S
O55 Eu11 2.419 . S
O55 C75 1.249 . S
C56 O45 1.276 . S
C56 O48 1.235 . S
C57 C59 1.393 . S
C57 C61 1.395 . S
C57 C64 1.492 . S
C58 C59 1.392 . S
C58 C60 1.386 . S
C59 C57 1.393 . S
C59 C58 1.392 . S
C59 H76 0.930 . S
C60 C58 1.386 . S
C60 C62 1.395 . S
C60 H77 0.930 . S
C61 C57 1.395 . S
C61 C62 1.379 . S
C61 H78 0.930 . S
C62 C60 1.395 . S
C62 C61 1.379 . S
C62 H79 0.930 . S
C63 O46 1.264 . S
C63 O47 1.254 . S
C64 Eu0 2.848 . S
C64 O44 1.257 . S
C64 O49 1.249 . S
C64 C57 1.492 . S
C65 H30 0.931 . S
C65 C43 1.420 . S
C65 C66 1.351 . S
C66 H28 0.930 . S
C66 C34 1.423 . S
C66 C65 1.351 . S
C67 O51 1.276 . S
C67 O54 1.235 . S
C68 C69 1.393 . S
C68 C72 1.395 . S
C68 C75 1.492 . S
C69 C68 1.393 . S
C69 C70 1.392 . S
C69 H80 0.930 . S
C70 C69 1.392 . S
C70 C71 1.386 . S
C71 C70 1.386 . S
C71 C73 1.395 . S
C71 H81 0.930 . S
C72 C68 1.395 . S
C72 C73 1.379 . S
C72 H82 0.930 . S
C73 C71 1.395 . S
C73 C72 1.379 . S
C73 H83 0.930 . S
C74 O52 1.264 . S
C74 O53 1.254 . S
C75 Eu11 2.848 . S
C75 O50 1.257 . S
C75 O55 1.249 . S
C75 C68 1.492 . S
H76 C59 0.930 . S
H77 C60 0.930 . S
H78 C61 0.930 . S
H79 C62 0.930 . S
H80 C69 0.930 . S
H81 C71 0.930 . S
H82 C72 0.930 . S
H83 C73 0.930 . S
Eu84 N115 2.657 . S
Eu84 N122 2.609 . S
Eu84 O128 2.558 . S
Eu84 O129 2.612 . S
Eu84 O131 2.339 . S
Eu84 O132 2.563 . S
Eu84 O133 2.419 . S
Eu84 O135 2.380 . S
Eu84 O136 2.432 . S
Eu84 C148 2.848 . S
C85 C88 1.429 . S
C85 C89 1.411 . S
C85 N92 1.377 . S
C86 C88 1.420 . S
C86 C90 1.423 . S
C86 C98 1.392 . S
C87 C89 1.420 . S
C87 C90 1.351 . S
C87 H110 0.931 . S
C88 C85 1.429 . S
C88 C86 1.420 . S
C88 N96 1.362 . S
C89 C85 1.411 . S
C89 C87 1.420 . S
C89 C94 1.395 . S
C90 C86 1.423 . S
C90 C87 1.351 . S
C90 H102 0.930 . S
C91 C93 1.400 . S
C91 C94 1.386 . S
C91 H103 0.930 . S
N92 C85 1.377 . S
N92 C93 1.321 . S
N92 Eu95 2.609 . S
C93 C91 1.400 . S
C93 N92 1.321 . S
C93 H100 0.930 . S
C94 C89 1.395 . S
C94 C91 1.386 . S
C94 H113 0.930 . S
Eu95 N92 2.609 . S
Eu95 N96 2.657 . S
Eu95 O129 2.380 . S
Eu95 O130 2.432 . S
Eu95 O134 2.558 . S
Eu95 O135 2.612 . S
Eu95 O137 2.339 . S
Eu95 O138 2.563 . S
Eu95 O139 2.419 . S
Eu95 C159 2.848 . S
N96 C88 1.362 . S
N96 Eu95 2.657 . S
N96 C97 1.334 . S
C97 N96 1.334 . S
C97 C99 1.413 . S
C97 H104 0.929 . S
C98 C86 1.392 . S
C98 C99 1.367 . S
C98 H106 0.930 . S
C99 C97 1.413 . S
C99 C98 1.367 . S
C99 H101 0.930 . S
H100 C93 0.930 . S
H101 C99 0.930 . S
H102 C90 0.930 . S
H103 C91 0.930 . S
H104 C97 0.929 . S
H105 C119 0.930 . S
H106 C98 0.930 . S
H107 C125 0.930 . S
H108 C116 0.929 . S
H109 C123 0.930 . S
H110 C87 0.931 . S
H111 C117 0.930 . S
H112 C150 0.930 . S
H113 C94 0.930 . S
H114 C149 0.931 . S
N115 Eu84 2.657 . S
N115 C116 1.334 . S
N115 C120 1.362 . S
C116 H108 0.929 . S
C116 N115 1.334 . S
C116 C119 1.413 . S
C117 H111 0.930 . S
C117 C118 1.392 . S
C117 C119 1.367 . S
C118 C117 1.392 . S
C118 C120 1.420 . S
C118 C150 1.423 . S
C119 H105 0.930 . S
C119 C116 1.413 . S
C119 C117 1.367 . S
C120 N115 1.362 . S
C120 C118 1.420 . S
C120 C124 1.429 . S
H121 C126 0.930 . S
N122 Eu84 2.609 . S
N122 C124 1.377 . S
N122 C125 1.321 . S
C123 H109 0.930 . S
C123 C125 1.400 . S
C123 C126 1.386 . S
C124 C120 1.429 . S
C124 N122 1.377 . S
C124 C127 1.411 . S
C125 H107 0.930 . S
C125 N122 1.321 . S
C125 C123 1.400 . S
C126 H121 0.930 . S
C126 C123 1.386 . S
C126 C127 1.395 . S
C127 C124 1.411 . S
C127 C126 1.395 . S
C127 C149 1.420 . S
O128 Eu84 2.558 . S
O128 C148 1.257 . S
O129 Eu84 2.612 . S
O129 Eu95 2.380 . S
O129 C140 1.276 . S
O130 Eu95 2.432 . S
O130 C147 1.264 . S
O131 Eu84 2.339 . S
O131 C147 1.254 . S
O132 Eu84 2.563 . S
O132 C140 1.235 . S
O133 Eu84 2.419 . S
O133 C148 1.249 . S
O134 Eu95 2.558 . S
O134 C159 1.257 . S
O135 Eu84 2.380 . S
O135 Eu95 2.612 . S
O135 C151 1.276 . S
O136 Eu84 2.432 . S
O136 C158 1.264 . S
O137 Eu95 2.339 . S
O137 C158 1.254 . S
O138 Eu95 2.563 . S
O138 C151 1.235 . S
O139 Eu95 2.419 . S
O139 C159 1.249 . S
C140 O129 1.276 . S
C140 O132 1.235 . S
C141 C143 1.393 . S
C141 C145 1.395 . S
C141 C148 1.492 . S
C142 C143 1.392 . S
C142 C144 1.386 . S
C143 C141 1.393 . S
C143 C142 1.392 . S
C143 H160 0.930 . S
C144 C142 1.386 . S
C144 C146 1.395 . S
C144 H161 0.930 . S
C145 C141 1.395 . S
C145 C146 1.379 . S
C145 H162 0.930 . S
C146 C144 1.395 . S
C146 C145 1.379 . S
C146 H163 0.930 . S
C147 O130 1.264 . S
C147 O131 1.254 . S
C148 Eu84 2.848 . S
C148 O128 1.257 . S
C148 O133 1.249 . S
C148 C141 1.492 . S
C149 H114 0.931 . S
C149 C127 1.420 . S
C149 C150 1.351 . S
C150 H112 0.930 . S
C150 C118 1.423 . S
C150 C149 1.351 . S
C151 O135 1.276 . S
C151 O138 1.235 . S
C152 C153 1.393 . S
C152 C156 1.395 . S
C152 C159 1.492 . S
C153 C152 1.393 . S
C153 C154 1.392 . S
C153 H164 0.930 . S
C154 C153 1.392 . S
C154 C155 1.386 . S
C155 C154 1.386 . S
C155 C157 1.395 . S
C155 H165 0.930 . S
C156 C152 1.395 . S
C156 C157 1.379 . S
C156 H166 0.930 . S
C157 C155 1.395 . S
C157 C156 1.379 . S
C157 H167 0.930 . S
C158 O136 1.264 . S
C158 O137 1.254 . S
C159 Eu95 2.848 . S
C159 O134 1.257 . S
C159 O139 1.249 . S
C159 C152 1.492 . S
H160 C143 0.930 . S
H161 C144 0.930 . S
H162 C145 0.930 . S
H163 C146 0.930 . S
H164 C153 0.930 . S
H165 C155 0.930 . S
H166 C156 0.930 . S
H167 C157 0.930 . S
Eu168 N199 2.657 . S
Eu168 N206 2.609 1_655 S
Eu168 O212 2.558 . S
Eu168 O213 2.612 . S
Eu168 O215 2.339 . S
Eu168 O216 2.563 . S
Eu168 O217 2.419 . S
Eu168 O219 2.380 1_655 S
Eu168 O220 2.432 1_655 S
Eu168 C232 2.848 . S
C169 C172 1.429 . S
C169 C173 1.411 . S
C169 N176 1.377 . S
C170 C172 1.420 . S
C170 C174 1.423 . S
C170 C182 1.392 1_655 S
C171 C173 1.420 . S
C171 C174 1.351 . S
C171 H194 0.931 . S
C172 C169 1.429 . S
C172 C170 1.420 . S
C172 N180 1.362 1_655 S
C173 C169 1.411 . S
C173 C171 1.420 . S
C173 C178 1.395 . S
C174 C170 1.423 . S
C174 C171 1.351 . S
C174 H186 0.930 . S
C175 C177 1.400 . S
C175 C178 1.386 . S
C175 H187 0.930 . S
N176 C169 1.377 . S
N176 C177 1.321 . S
N176 Eu179 2.609 1_655 S
C177 C175 1.400 . S
C177 N176 1.321 . S
C177 H184 0.930 . S
C178 C173 1.395 . S
C178 C175 1.386 . S
C178 H197 0.930 . S
Eu179 N176 2.609 1_455 S
Eu179 N180 2.657 . S
Eu179 O213 2.380 1_455 S
Eu179 O214 2.432 1_455 S
Eu179 O218 2.558 . S
Eu179 O219 2.612 . S
Eu179 O221 2.339 . S
Eu179 O222 2.563 . S
Eu179 O223 2.419 . S
Eu179 C243 2.848 . S
N180 C172 1.362 1_455 S
N180 Eu179 2.657 . S
N180 C181 1.334 . S
C181 N180 1.334 . S
C181 C183 1.413 . S
C181 H188 0.929 . S
C182 C170 1.392 1_455 S
C182 C183 1.367 . S
C182 H190 0.938 1_455 S
C183 C181 1.413 . S
C183 C182 1.367 . S
C183 H185 0.930 . S
H184 C177 0.930 . S
H185 C183 0.930 . S
H186 C174 0.930 . S
H187 C175 0.930 . S
H188 C181 0.929 . S
H189 C203 0.930 . S
H190 C182 0.938 1_655 S
H191 C209 0.930 . S
H192 C200 0.929 . S
H193 C207 0.930 . S
H194 C171 0.931 . S
H195 C201 0.935 1_455 S
H196 C234 0.930 . S
H197 C178 0.930 . S
H198 C233 0.931 . S
N199 Eu168 2.657 . S
N199 C200 1.334 . S
N199 C204 1.362 1_655 S
C200 H192 0.929 . S
C200 N199 1.334 . S
C200 C203 1.413 . S
C201 H195 0.935 1_655 S
C201 C202 1.392 1_655 S
C201 C203 1.367 . S
C202 C201 1.392 1_455 S
C202 C204 1.420 . S
C202 C234 1.423 . S
C203 H189 0.930 . S
C203 C200 1.413 . S
C203 C201 1.367 . S
C204 N199 1.362 1_455 S
C204 C202 1.420 . S
C204 C208 1.429 . S
H205 C210 0.930 . S
N206 Eu168 2.609 1_455 S
N206 C208 1.377 . S
N206 C209 1.321 . S
C207 H193 0.930 . S
C207 C209 1.400 . S
C207 C210 1.386 . S
C208 C204 1.429 . S
C208 N206 1.377 . S
C208 C211 1.411 . S
C209 H191 0.930 . S
C209 N206 1.321 . S
C209 C207 1.400 . S
C210 H205 0.930 . S
C210 C207 1.386 . S
C210 C211 1.395 . S
C211 C208 1.411 . S
C211 C210 1.395 . S
C211 C233 1.420 . S
O212 Eu168 2.558 . S
O212 C232 1.257 . S
O213 Eu168 2.612 . S
O213 Eu179 2.380 1_655 S
O213 C224 1.276 . S
O214 Eu179 2.432 1_655 S
O214 C231 1.264 . S
O215 Eu168 2.339 . S
O215 C231 1.254 . S
O216 Eu168 2.563 . S
O216 C224 1.235 . S
O217 Eu168 2.419 . S
O217 C232 1.249 . S
O218 Eu179 2.558 . S
O218 C243 1.257 . S
O219 Eu168 2.380 1_455 S
O219 Eu179 2.612 . S
O219 C235 1.276 . S
O220 Eu168 2.432 1_455 S
O220 C242 1.264 . S
O221 Eu179 2.339 . S
O221 C242 1.254 . S
O222 Eu179 2.563 . S
O222 C235 1.235 . S
O223 Eu179 2.419 . S
O223 C243 1.249 . S
C224 O213 1.276 . S
C224 O216 1.235 . S
C225 C227 1.393 . S
C225 C229 1.395 . S
C225 C232 1.492 . S
C226 C227 1.392 . S
C226 C228 1.386 . S
C227 C225 1.393 . S
C227 C226 1.392 . S
C227 H244 0.930 . S
C228 C226 1.386 . S
C228 C230 1.395 . S
C228 H245 0.930 . S
C229 C225 1.395 . S
C229 C230 1.379 . S
C229 H246 0.930 . S
C230 C228 1.395 . S
C230 C229 1.379 . S
C230 H247 0.930 . S
C231 O214 1.264 . S
C231 O215 1.254 . S
C232 Eu168 2.848 . S
C232 O212 1.257 . S
C232 O217 1.249 . S
C232 C225 1.492 . S
C233 H198 0.931 . S
C233 C211 1.420 . S
C233 C234 1.351 . S
C234 H196 0.930 . S
C234 C202 1.423 . S
C234 C233 1.351 . S
C235 O219 1.276 . S
C235 O222 1.235 . S
C236 C237 1.393 . S
C236 C240 1.395 . S
C236 C243 1.492 . S
C237 C236 1.393 . S
C237 C238 1.392 . S
C237 H248 0.930 . S
C238 C237 1.392 . S
C238 C239 1.386 . S
C239 C238 1.386 . S
C239 C241 1.395 . S
C239 H249 0.930 . S
C240 C236 1.395 . S
C240 C241 1.379 . S
C240 H250 0.930 . S
C241 C239 1.395 . S
C241 C240 1.379 . S
C241 H251 0.930 . S
C242 O220 1.264 . S
C242 O221 1.254 . S
C243 Eu179 2.848 . S
C243 O218 1.257 . S
C243 O223 1.249 . S
C243 C236 1.492 . S
H244 C227 0.930 . S
H245 C228 0.930 . S
H246 C229 0.930 . S
H247 C230 0.930 . S
H248 C237 0.930 . S
H249 C239 0.930 . S
H250 C240 0.930 . S
H251 C241 0.930 . S
Eu252 N283 2.657 . S
Eu252 N290 2.609 1_565 S
Eu252 O296 2.558 . S
Eu252 O297 2.612 . S
Eu252 O299 2.339 . S
Eu252 O300 2.563 . S
Eu252 O301 2.419 . S
Eu252 O303 2.380 1_565 S
Eu252 O304 2.432 1_565 S
Eu252 C316 2.848 . S
C253 C256 1.429 . S
C253 C257 1.411 . S
C253 N260 1.377 . S
C254 C256 1.420 . S
C254 C258 1.423 . S
C254 C266 1.406 . S
C255 C257 1.420 . S
C255 C258 1.351 . S
C255 H278 0.931 . S
C256 C253 1.429 . S
C256 C254 1.420 . S
C256 N264 1.362 1_565 S
C257 C253 1.411 . S
C257 C255 1.420 . S
C257 C262 1.395 . S
C258 C254 1.423 . S
C258 C255 1.351 . S
C258 H270 0.930 . S
C259 C261 1.400 . S
C259 C262 1.386 . S
C259 H271 0.930 . S
N260 C253 1.377 . S
N260 C261 1.321 . S
N260 Eu263 2.609 1_565 S
C261 C259 1.400 . S
C261 N260 1.321 . S
C261 H268 0.930 . S
C262 C257 1.395 . S
C262 C259 1.386 . S
C262 H281 0.930 . S
Eu263 N260 2.609 1_545 S
Eu263 N264 2.657 . S
Eu263 O297 2.380 1_545 S
Eu263 O298 2.432 1_545 S
Eu263 O302 2.558 . S
Eu263 O303 2.612 . S
Eu263 O305 2.339 . S
Eu263 O306 2.563 . S
Eu263 O307 2.419 . S
Eu263 C327 2.848 . S
N264 C256 1.362 1_545 S
N264 Eu263 2.657 . S
N264 C265 1.334 . S
C265 N264 1.334 . S
C265 C267 1.413 . S
C265 H272 0.929 . S
C266 C254 1.406 . S
C266 C267 1.336 1_565 S
C266 H274 0.948 . S
C267 C265 1.413 . S
C267 C266 1.336 1_545 S
C267 H269 0.930 . S
H268 C261 0.930 . S
H269 C267 0.930 . S
H270 C258 0.930 . S
H271 C259 0.930 . S
H272 C265 0.929 . S
H273 C287 0.930 . S
H274 C266 0.948 . S
H275 C293 0.930 . S
H276 C284 0.929 . S
H277 C291 0.930 . S
H278 C255 0.931 . S
H279 C285 0.944 . S
H280 C318 0.930 . S
H281 C262 0.930 . S
H282 C317 0.931 . S
N283 Eu252 2.657 . S
N283 C284 1.334 . S
N283 C288 1.362 1_565 S
C284 H276 0.929 . S
C284 N283 1.334 . S
C284 C287 1.413 . S
C285 H279 0.944 . S
C285 C286 1.403 . S
C285 C287 1.343 1_545 S
C286 C285 1.403 . S
C286 C288 1.420 . S
C286 C318 1.423 . S
C287 H273 0.930 . S
C287 C284 1.413 . S
C287 C285 1.343 1_565 S
C288 N283 1.362 1_545 S
C288 C286 1.420 . S
C288 C292 1.429 . S
H289 C294 0.930 . S
N290 Eu252 2.609 1_545 S
N290 C292 1.377 . S
N290 C293 1.321 . S
C291 H277 0.930 . S
C291 C293 1.400 . S
C291 C294 1.386 . S
C292 C288 1.429 . S
C292 N290 1.377 . S
C292 C295 1.411 . S
C293 H275 0.930 . S
C293 N290 1.321 . S
C293 C291 1.400 . S
C294 H289 0.930 . S
C294 C291 1.386 . S
C294 C295 1.395 . S
C295 C292 1.411 . S
C295 C294 1.395 . S
C295 C317 1.420 . S
O296 Eu252 2.558 . S
O296 C316 1.257 . S
O297 Eu252 2.612 . S
O297 Eu263 2.380 1_565 S
O297 C308 1.276 . S
O298 Eu263 2.432 1_565 S
O298 C315 1.264 . S
O299 Eu252 2.339 . S
O299 C315 1.254 . S
O300 Eu252 2.563 . S
O300 C308 1.235 . S
O301 Eu252 2.419 . S
O301 C316 1.249 . S
O302 Eu263 2.558 . S
O302 C327 1.257 . S
O303 Eu252 2.380 1_545 S
O303 Eu263 2.612 . S
O303 C319 1.276 . S
O304 Eu252 2.432 1_545 S
O304 C326 1.264 . S
O305 Eu263 2.339 . S
O305 C326 1.254 . S
O306 Eu263 2.563 . S
O306 C319 1.235 . S
O307 Eu263 2.419 . S
O307 C327 1.249 . S
C308 O297 1.276 . S
C308 O300 1.235 . S
C309 C311 1.393 . S
C309 C313 1.395 . S
C309 C316 1.492 . S
C310 C311 1.392 . S
C310 C312 1.386 . S
C311 C309 1.393 . S
C311 C310 1.392 . S
C311 H328 0.930 . S
C312 C310 1.386 . S
C312 C314 1.395 . S
C312 H329 0.930 . S
C313 C309 1.395 . S
C313 C314 1.379 . S
C313 H330 0.930 . S
C314 C312 1.395 . S
C314 C313 1.379 . S
C314 H331 0.930 . S
C315 O298 1.264 . S
C315 O299 1.254 . S
C316 Eu252 2.848 . S
C316 O296 1.257 . S
C316 O301 1.249 . S
C316 C309 1.492 . S
C317 H282 0.931 . S
C317 C295 1.420 . S
C317 C318 1.351 . S
C318 H280 0.930 . S
C318 C286 1.423 . S
C318 C317 1.351 . S
C319 O303 1.276 . S
C319 O306 1.235 . S
C320 C321 1.393 . S
C320 C324 1.395 . S
C320 C327 1.492 . S
C321 C320 1.393 . S
C321 C322 1.392 . S
C321 H332 0.930 . S
C322 C321 1.392 . S
C322 C323 1.386 . S
C323 C322 1.386 . S
C323 C325 1.395 . S
C323 H333 0.930 . S
C324 C320 1.395 . S
C324 C325 1.379 . S
C324 H334 0.930 . S
C325 C323 1.395 . S
C325 C324 1.379 . S
C325 H335 0.930 . S
C326 O304 1.264 . S
C326 O305 1.254 . S
C327 Eu263 2.848 . S
C327 O302 1.257 . S
C327 O307 1.249 . S
C327 C320 1.492 . S
H328 C311 0.930 . S
H329 C312 0.930 . S
H330 C313 0.930 . S
H331 C314 0.930 . S
H332 C321 0.930 . S
H333 C323 0.930 . S
H334 C324 0.930 . S
H335 C325 0.930 . S
Eu336 N367 2.657 . S
Eu336 N374 2.609 . S
Eu336 O380 2.558 . S
Eu336 O381 2.612 . S
Eu336 O383 2.339 . S
Eu336 O384 2.563 . S
Eu336 O385 2.419 . S
Eu336 O387 2.380 . S
Eu336 O388 2.432 . S
Eu336 C400 2.848 . S
C337 C340 1.429 . S
C337 C341 1.411 . S
C337 N344 1.377 . S
C338 C340 1.420 . S
C338 C342 1.423 . S
C338 C350 1.392 . S
C339 C341 1.420 . S
C339 C342 1.351 . S
C339 H362 0.931 . S
C340 C337 1.429 . S
C340 C338 1.420 . S
C340 N348 1.362 . S
C341 C337 1.411 . S
C341 C339 1.420 . S
C341 C346 1.395 . S
C342 C338 1.423 . S
C342 C339 1.351 . S
C342 H354 0.930 . S
C343 C345 1.400 1_556 S
C343 C346 1.386 1_556 S
C343 H355 0.930 . S
N344 C337 1.377 . S
N344 C345 1.321 . S
N344 Eu347 2.609 . S
C345 C343 1.400 1_554 S
C345 N344 1.321 . S
C345 H352 0.930 1_554 S
C346 C341 1.395 . S
C346 C343 1.386 1_554 S
C346 H365 0.930 1_554 S
Eu347 N344 2.609 . S
Eu347 N348 2.657 . S
Eu347 O381 2.380 . S
Eu347 O382 2.432 . S
Eu347 O386 2.558 1_554 S
Eu347 O387 2.612 . S
Eu347 O389 2.339 . S
Eu347 O390 2.563 . S
Eu347 O391 2.419 . S
Eu347 C411 2.848 . S
N348 C340 1.362 . S
N348 Eu347 2.657 . S
N348 C349 1.334 . S
C349 N348 1.334 . S
C349 C351 1.413 . S
C349 H356 0.929 . S
C350 C338 1.392 . S
C350 C351 1.367 . S
C350 H358 0.930 . S
C351 C349 1.413 . S
C351 C350 1.367 . S
C351 H353 0.930 . S
H352 C345 0.930 1_556 S
H353 C351 0.930 . S
H354 C342 0.930 . S
H355 C343 0.930 . S
H356 C349 0.929 . S
H357 C371 0.930 . S
H358 C350 0.930 . S
H359 C377 0.930 . S
H360 C368 0.929 . S
H361 C375 0.930 . S
H362 C339 0.931 . S
H363 C369 0.930 . S
H364 C402 0.930 . S
H365 C346 0.930 1_556 S
H366 C401 0.931 . S
N367 Eu336 2.657 . S
N367 C368 1.334 . S
N367 C372 1.362 . S
C368 H360 0.929 . S
C368 N367 1.334 . S
C368 C371 1.413 . S
C369 H363 0.930 . S
C369 C370 1.392 . S
C369 C371 1.367 . S
C370 C369 1.392 . S
C370 C372 1.420 . S
C370 C402 1.423 . S
C371 H357 0.930 . S
C371 C368 1.413 . S
C371 C369 1.367 . S
C372 N367 1.362 . S
C372 C370 1.420 . S
C372 C376 1.429 . S
H373 C378 0.930 . S
N374 Eu336 2.609 . S
N374 C376 1.377 . S
N374 C377 1.321 . S
C375 H361 0.930 . S
C375 C377 1.400 . S
C375 C378 1.386 . S
C376 C372 1.429 . S
C376 N374 1.377 . S
C376 C379 1.411 . S
C377 H359 0.930 . S
C377 N374 1.321 . S
C377 C375 1.400 . S
C378 H373 0.930 . S
C378 C375 1.386 . S
C378 C379 1.395 . S
C379 C376 1.411 . S
C379 C378 1.395 . S
C379 C401 1.420 . S
O380 Eu336 2.558 . S
O380 C400 1.257 . S
O381 Eu336 2.612 . S
O381 Eu347 2.380 . S
O381 C392 1.276 . S
O382 Eu347 2.432 . S
O382 C399 1.264 . S
O383 Eu336 2.339 . S
O383 C399 1.254 . S
O384 Eu336 2.563 . S
O384 C392 1.235 . S
O385 Eu336 2.419 . S
O385 C400 1.249 . S
O386 Eu347 2.558 1_556 S
O386 C411 1.257 1_556 S
O387 Eu336 2.380 . S
O387 Eu347 2.612 . S
O387 C403 1.276 . S
O388 Eu336 2.432 . S
O388 C410 1.264 . S
O389 Eu347 2.339 . S
O389 C410 1.254 . S
O390 Eu347 2.563 . S
O390 C403 1.235 . S
O391 Eu347 2.419 . S
O391 C411 1.249 . S
C392 O381 1.276 . S
C392 O384 1.235 . S
C393 C395 1.393 . S
C393 C397 1.395 . S
C393 C400 1.492 . S
C394 C395 1.392 . S
C394 C396 1.386 . S
C395 C393 1.393 . S
C395 C394 1.392 . S
C395 H412 0.930 . S
C396 C394 1.386 . S
C396 C398 1.395 . S
C396 H413 0.930 . S
C397 C393 1.395 . S
C397 C398 1.379 . S
C397 H414 0.930 . S
C398 C396 1.395 . S
C398 C397 1.379 . S
C398 H415 0.930 . S
C399 O382 1.264 . S
C399 O383 1.254 . S
C400 Eu336 2.848 . S
C400 O380 1.257 . S
C400 O385 1.249 . S
C400 C393 1.492 . S
C401 H366 0.931 . S
C401 C379 1.420 . S
C401 C402 1.351 . S
C402 H364 0.930 . S
C402 C370 1.423 . S
C402 C401 1.351 . S
C403 O387 1.276 . S
C403 O390 1.235 . S
C404 C405 1.393 . S
C404 C408 1.395 . S
C404 C411 1.492 1_556 S
C405 C404 1.393 . S
C405 C406 1.392 . S
C405 H416 0.930 1_556 S
C406 C405 1.392 . S
C406 C407 1.386 . S
C407 C406 1.386 . S
C407 C409 1.395 . S
C407 H417 0.930 . S
C408 C404 1.395 . S
C408 C409 1.379 . S
C408 H418 0.930 . S
C409 C407 1.395 . S
C409 C408 1.379 . S
C409 H419 0.930 . S
C410 O388 1.264 . S
C410 O389 1.254 . S
C411 Eu347 2.848 . S
C411 O386 1.257 1_554 S
C411 O391 1.249 . S
C411 C404 1.492 1_554 S
H412 C395 0.930 . S
H413 C396 0.930 . S
H414 C397 0.930 . S
H415 C398 0.930 . S
H416 C405 0.930 1_554 S
H417 C407 0.930 . S
H418 C408 0.930 . S
H419 C409 0.930 . S
Eu420 N451 2.657 . S
Eu420 N458 2.609 1_455 S
Eu420 O464 2.558 . S
Eu420 O465 2.612 . S
Eu420 O467 2.339 . S
Eu420 O468 2.563 . S
Eu420 O469 2.419 . S
Eu420 O471 2.380 1_455 S
Eu420 O472 2.432 1_455 S
Eu420 C484 2.848 . S
C421 C424 1.429 . S
C421 C425 1.411 . S
C421 N428 1.377 . S
C422 C424 1.420 . S
C422 C426 1.423 . S
C422 C434 1.392 1_455 S
C423 C425 1.420 . S
C423 C426 1.351 . S
C423 H446 0.931 . S
C424 C421 1.429 . S
C424 C422 1.420 . S
C424 N432 1.362 1_455 S
C425 C421 1.411 . S
C425 C423 1.420 . S
C425 C430 1.395 . S
C426 C422 1.423 . S
C426 C423 1.351 . S
C426 H438 0.930 . S
C427 C429 1.400 . S
C427 C430 1.386 . S
C427 H439 0.930 . S
N428 C421 1.377 . S
N428 C429 1.321 . S
N428 Eu431 2.609 1_455 S
C429 C427 1.400 . S
C429 N428 1.321 . S
C429 H436 0.930 . S
C430 C425 1.395 . S
C430 C427 1.386 . S
C430 H449 0.930 . S
Eu431 N428 2.609 1_655 S
Eu431 N432 2.657 . S
Eu431 O465 2.380 1_655 S
Eu431 O466 2.432 1_655 S
Eu431 O470 2.558 . S
Eu431 O471 2.612 . S
Eu431 O473 2.339 . S
Eu431 O474 2.563 . S
Eu431 O475 2.419 . S
Eu431 C495 2.848 . S
N432 C424 1.362 1_655 S
N432 Eu431 2.657 . S
N432 C433 1.334 . S
C433 N432 1.334 . S
C433 C435 1.413 . S
C433 H440 0.929 . S
C434 C422 1.392 1_655 S
C434 C435 1.367 . S
C434 H442 0.938 1_655 S
C435 C433 1.413 . S
C435 C434 1.367 . S
C435 H437 0.930 . S
H436 C429 0.930 . S
H437 C435 0.930 . S
H438 C426 0.930 . S
H439 C427 0.930 . S
H440 C433 0.929 . S
H441 C455 0.930 . S
H442 C434 0.938 1_455 S
H443 C461 0.930 . S
H444 C452 0.929 . S
H445 C459 0.930 . S
H446 C423 0.931 . S
H447 C453 0.935 1_655 S
H448 C486 0.930 . S
H449 C430 0.930 . S
H450 C485 0.931 . S
N451 Eu420 2.657 . S
N451 C452 1.334 . S
N451 C456 1.362 1_455 S
C452 H444 0.929 . S
C452 N451 1.334 . S
C452 C455 1.413 . S
C453 H447 0.935 1_455 S
C453 C454 1.392 1_455 S
C453 C455 1.367 . S
C454 C453 1.392 1_655 S
C454 C456 1.420 . S
C454 C486 1.423 . S
C455 H441 0.930 . S
C455 C452 1.413 . S
C455 C453 1.367 . S
C456 N451 1.362 1_655 S
C456 C454 1.420 . S
C456 C460 1.429 . S
H457 C462 0.930 . S
N458 Eu420 2.609 1_655 S
N458 C460 1.377 . S
N458 C461 1.321 . S
C459 H445 0.930 . S
C459 C461 1.400 . S
C459 C462 1.386 . S
C460 C456 1.429 . S
C460 N458 1.377 . S
C460 C463 1.411 . S
C461 H443 0.930 . S
C461 N458 1.321 . S
C461 C459 1.400 . S
C462 H457 0.930 . S
C462 C459 1.386 . S
C462 C463 1.395 . S
C463 C460 1.411 . S
C463 C462 1.395 . S
C463 C485 1.420 . S
O464 Eu420 2.558 . S
O464 C484 1.257 . S
O465 Eu420 2.612 . S
O465 Eu431 2.380 1_455 S
O465 C476 1.276 . S
O466 Eu431 2.432 1_455 S
O466 C483 1.264 . S
O467 Eu420 2.339 . S
O467 C483 1.254 . S
O468 Eu420 2.563 . S
O468 C476 1.235 . S
O469 Eu420 2.419 . S
O469 C484 1.249 . S
O470 Eu431 2.558 . S
O470 C495 1.257 . S
O471 Eu420 2.380 1_655 S
O471 Eu431 2.612 . S
O471 C487 1.276 . S
O472 Eu420 2.432 1_655 S
O472 C494 1.264 . S
O473 Eu431 2.339 . S
O473 C494 1.254 . S
O474 Eu431 2.563 . S
O474 C487 1.235 . S
O475 Eu431 2.419 . S
O475 C495 1.249 . S
C476 O465 1.276 . S
C476 O468 1.235 . S
C477 C479 1.393 . S
C477 C481 1.395 . S
C477 C484 1.492 . S
C478 C479 1.392 . S
C478 C480 1.386 . S
C479 C477 1.393 . S
C479 C478 1.392 . S
C479 H496 0.930 . S
C480 C478 1.386 . S
C480 C482 1.395 . S
C480 H497 0.930 . S
C481 C477 1.395 . S
C481 C482 1.379 . S
C481 H498 0.930 . S
C482 C480 1.395 . S
C482 C481 1.379 . S
C482 H499 0.930 . S
C483 O466 1.264 . S
C483 O467 1.254 . S
C484 Eu420 2.848 . S
C484 O464 1.257 . S
C484 O469 1.249 . S
C484 C477 1.492 . S
C485 H450 0.931 . S
C485 C463 1.420 . S
C485 C486 1.351 . S
C486 H448 0.930 . S
C486 C454 1.423 . S
C486 C485 1.351 . S
C487 O471 1.276 . S
C487 O474 1.235 . S
C488 C489 1.393 . S
C488 C492 1.395 . S
C488 C495 1.492 . S
C489 C488 1.393 . S
C489 C490 1.392 . S
C489 H500 0.930 . S
C490 C489 1.392 . S
C490 C491 1.386 . S
C491 C490 1.386 . S
C491 C493 1.395 . S
C491 H501 0.930 . S
C492 C488 1.395 . S
C492 C493 1.379 . S
C492 H502 0.930 . S
C493 C491 1.395 . S
C493 C492 1.379 . S
C493 H503 0.930 . S
C494 O472 1.264 . S
C494 O473 1.254 . S
C495 Eu431 2.848 . S
C495 O470 1.257 . S
C495 O475 1.249 . S
C495 C488 1.492 . S
H496 C479 0.930 . S
H497 C480 0.930 . S
H498 C481 0.930 . S
H499 C482 0.930 . S
H500 C489 0.930 . S
H501 C491 0.930 . S
H502 C492 0.930 . S
H503 C493 0.930 . S
Eu504 N535 2.657 . S
Eu504 N542 2.609 1_655 S
Eu504 O548 2.558 . S
Eu504 O549 2.612 . S
Eu504 O551 2.339 . S
Eu504 O552 2.563 . S
Eu504 O553 2.419 . S
Eu504 O555 2.380 1_655 S
Eu504 O556 2.432 1_655 S
Eu504 C568 2.848 . S
C505 C508 1.429 . S
C505 C509 1.411 . S
C505 N512 1.377 . S
C506 C508 1.420 . S
C506 C510 1.423 . S
C506 C518 1.406 . S
C507 C509 1.420 . S
C507 C510 1.351 . S
C507 H530 0.931 . S
C508 C505 1.429 . S
C508 C506 1.420 . S
C508 N516 1.362 1_655 S
C509 C505 1.411 . S
C509 C507 1.420 . S
C509 C514 1.395 . S
C510 C506 1.423 . S
C510 C507 1.351 . S
C510 H522 0.930 . S
C511 C513 1.400 . S
C511 C514 1.386 . S
C511 H523 0.930 . S
N512 C505 1.377 . S
N512 C513 1.321 . S
N512 Eu515 2.609 1_655 S
C513 C511 1.400 . S
C513 N512 1.321 . S
C513 H520 0.930 . S
C514 C509 1.395 . S
C514 C511 1.386 . S
C514 H533 0.930 . S
Eu515 N512 2.609 1_455 S
Eu515 N516 2.657 . S
Eu515 O549 2.380 1_455 S
Eu515 O550 2.432 1_455 S
Eu515 O554 2.558 . S
Eu515 O555 2.612 . S
Eu515 O557 2.339 . S
Eu515 O558 2.563 . S
Eu515 O559 2.419 . S
Eu515 C579 2.848 . S
N516 C508 1.362 1_455 S
N516 Eu515 2.657 . S
N516 C517 1.334 . S
C517 N516 1.334 . S
C517 C519 1.413 . S
C517 H524 0.929 . S
C518 C506 1.406 . S
C518 C519 1.336 1_655 S
C518 H526 0.948 . S
C519 C517 1.413 . S
C519 C518 1.336 1_455 S
C519 H521 0.930 . S
H520 C513 0.930 . S
H521 C519 0.930 . S
H522 C510 0.930 . S
H523 C511 0.930 . S
H524 C517 0.929 . S
H525 C539 0.930 . S
H526 C518 0.948 . S
H527 C545 0.930 . S
H528 C536 0.929 . S
H529 C543 0.930 . S
H530 C507 0.931 . S
H531 C537 0.944 . S
H532 C570 0.930 . S
H533 C514 0.930 . S
H534 C569 0.931 . S
N535 Eu504 2.657 . S
N535 C536 1.334 . S
N535 C540 1.362 1_655 S
C536 H528 0.929 . S
C536 N535 1.334 . S
C536 C539 1.413 . S
C537 H531 0.944 . S
C537 C538 1.403 . S
C537 C539 1.343 1_455 S
C538 C537 1.403 . S
C538 C540 1.420 . S
C538 C570 1.423 . S
C539 H525 0.930 . S
C539 C536 1.413 . S
C539 C537 1.343 1_655 S
C540 N535 1.362 1_455 S
C540 C538 1.420 . S
C540 C544 1.429 . S
H541 C546 0.930 . S
N542 Eu504 2.609 1_455 S
N542 C544 1.377 . S
N542 C545 1.321 . S
C543 H529 0.930 . S
C543 C545 1.400 . S
C543 C546 1.386 . S
C544 C540 1.429 . S
C544 N542 1.377 . S
C544 C547 1.411 . S
C545 H527 0.930 . S
C545 N542 1.321 . S
C545 C543 1.400 . S
C546 H541 0.930 . S
C546 C543 1.386 . S
C546 C547 1.395 . S
C547 C544 1.411 . S
C547 C546 1.395 . S
C547 C569 1.420 . S
O548 Eu504 2.558 . S
O548 C568 1.257 . S
O549 Eu504 2.612 . S
O549 Eu515 2.380 1_655 S
O549 C560 1.276 . S
O550 Eu515 2.432 1_655 S
O550 C567 1.264 . S
O551 Eu504 2.339 . S
O551 C567 1.254 . S
O552 Eu504 2.563 . S
O552 C560 1.235 . S
O553 Eu504 2.419 . S
O553 C568 1.249 . S
O554 Eu515 2.558 . S
O554 C579 1.257 . S
O555 Eu504 2.380 1_455 S
O555 Eu515 2.612 . S
O555 C571 1.276 . S
O556 Eu504 2.432 1_455 S
O556 C578 1.264 . S
O557 Eu515 2.339 . S
O557 C578 1.254 . S
O558 Eu515 2.563 . S
O558 C571 1.235 . S
O559 Eu515 2.419 . S
O559 C579 1.249 . S
C560 O549 1.276 . S
C560 O552 1.235 . S
C561 C563 1.393 . S
C561 C565 1.395 . S
C561 C568 1.492 . S
C562 C563 1.392 . S
C562 C564 1.386 . S
C563 C561 1.393 . S
C563 C562 1.392 . S
C563 H580 0.930 . S
C564 C562 1.386 . S
C564 C566 1.395 . S
C564 H581 0.930 . S
C565 C561 1.395 . S
C565 C566 1.379 . S
C565 H582 0.930 . S
C566 C564 1.395 . S
C566 C565 1.379 . S
C566 H583 0.930 . S
C567 O550 1.264 . S
C567 O551 1.254 . S
C568 Eu504 2.848 . S
C568 O548 1.257 . S
C568 O553 1.249 . S
C568 C561 1.492 . S
C569 H534 0.931 . S
C569 C547 1.420 . S
C569 C570 1.351 . S
C570 H532 0.930 . S
C570 C538 1.423 . S
C570 C569 1.351 . S
C571 O555 1.276 . S
C571 O558 1.235 . S
C572 C573 1.393 . S
C572 C576 1.395 . S
C572 C579 1.492 . S
C573 C572 1.393 . S
C573 C574 1.392 . S
C573 H584 0.930 . S
C574 C573 1.392 . S
C574 C575 1.386 . S
C575 C574 1.386 . S
C575 C577 1.395 . S
C575 H585 0.930 . S
C576 C572 1.395 . S
C576 C577 1.379 . S
C576 H586 0.930 . S
C577 C575 1.395 . S
C577 C576 1.379 . S
C577 H587 0.930 . S
C578 O556 1.264 . S
C578 O557 1.254 . S
C579 Eu515 2.848 . S
C579 O554 1.257 . S
C579 O559 1.249 . S
C579 C572 1.492 . S
H580 C563 0.930 . S
H581 C564 0.930 . S
H582 C565 0.930 . S
H583 C566 0.930 . S
H584 C573 0.930 . S
H585 C575 0.930 . S
H586 C576 0.930 . S
H587 C577 0.930 . S
Eu588 N619 2.657 . S
Eu588 N626 2.609 1_565 S
Eu588 O632 2.558 . S
Eu588 O633 2.612 . S
Eu588 O635 2.339 . S
Eu588 O636 2.563 . S
Eu588 O637 2.419 . S
Eu588 O639 2.380 1_565 S
Eu588 O640 2.432 1_565 S
Eu588 C652 2.848 . S
C589 C592 1.429 . S
C589 C593 1.411 . S
C589 N596 1.377 . S
C590 C592 1.420 . S
C590 C594 1.423 . S
C590 C602 1.392 1_565 S
C591 C593 1.420 . S
C591 C594 1.351 . S
C591 H614 0.931 . S
C592 C589 1.429 . S
C592 C590 1.420 . S
C592 N600 1.362 1_565 S
C593 C589 1.411 . S
C593 C591 1.420 . S
C593 C598 1.395 . S
C594 C590 1.423 . S
C594 C591 1.351 . S
C594 H606 0.930 . S
C595 C597 1.400 . S
C595 C598 1.386 . S
C595 H607 0.930 . S
N596 C589 1.377 . S
N596 C597 1.321 . S
N596 Eu599 2.609 1_565 S
C597 C595 1.400 . S
C597 N596 1.321 . S
C597 H604 0.930 . S
C598 C593 1.395 . S
C598 C595 1.386 . S
C598 H617 0.930 . S
Eu599 N596 2.609 1_545 S
Eu599 N600 2.657 . S
Eu599 O633 2.380 1_545 S
Eu599 O634 2.432 1_545 S
Eu599 O638 2.558 . S
Eu599 O639 2.612 . S
Eu599 O641 2.339 . S
Eu599 O642 2.563 . S
Eu599 O643 2.419 . S
Eu599 C663 2.848 . S
N600 C592 1.362 1_545 S
N600 Eu599 2.657 . S
N600 C601 1.334 . S
C601 N600 1.334 . S
C601 C603 1.413 . S
C601 H608 0.929 . S
C602 C590 1.392 1_545 S
C602 C603 1.367 . S
C602 H610 0.938 1_545 S
C603 C601 1.413 . S
C603 C602 1.367 . S
C603 H605 0.930 . S
H604 C597 0.930 . S
H605 C603 0.930 . S
H606 C594 0.930 . S
H607 C595 0.930 . S
H608 C601 0.929 . S
H609 C623 0.930 . S
H610 C602 0.938 1_565 S
H611 C629 0.930 . S
H612 C620 0.929 . S
H613 C627 0.930 . S
H614 C591 0.931 . S
H615 C621 0.935 1_545 S
H616 C654 0.930 . S
H617 C598 0.930 . S
H618 C653 0.931 . S
N619 Eu588 2.657 . S
N619 C620 1.334 . S
N619 C624 1.362 1_565 S
C620 H612 0.929 . S
C620 N619 1.334 . S
C620 C623 1.413 . S
C621 H615 0.935 1_565 S
C621 C622 1.392 1_565 S
C621 C623 1.367 . S
C622 C621 1.392 1_545 S
C622 C624 1.420 . S
C622 C654 1.423 . S
C623 H609 0.930 . S
C623 C620 1.413 . S
C623 C621 1.367 . S
C624 N619 1.362 1_545 S
C624 C622 1.420 . S
C624 C628 1.429 . S
H625 C630 0.930 . S
N626 Eu588 2.609 1_545 S
N626 C628 1.377 . S
N626 C629 1.321 . S
C627 H613 0.930 . S
C627 C629 1.400 . S
C627 C630 1.386 . S
C628 C624 1.429 . S
C628 N626 1.377 . S
C628 C631 1.411 . S
C629 H611 0.930 . S
C629 N626 1.321 . S
C629 C627 1.400 . S
C630 H625 0.930 . S
C630 C627 1.386 . S
C630 C631 1.395 . S
C631 C628 1.411 . S
C631 C630 1.395 . S
C631 C653 1.420 . S
O632 Eu588 2.558 . S
O632 C652 1.257 . S
O633 Eu588 2.612 . S
O633 Eu599 2.380 1_565 S
O633 C644 1.276 . S
O634 Eu599 2.432 1_565 S
O634 C651 1.264 . S
O635 Eu588 2.339 . S
O635 C651 1.254 . S
O636 Eu588 2.563 . S
O636 C644 1.235 . S
O637 Eu588 2.419 . S
O637 C652 1.249 . S
O638 Eu599 2.558 . S
O638 C663 1.257 . S
O639 Eu588 2.380 1_545 S
O639 Eu599 2.612 . S
O639 C655 1.276 . S
O640 Eu588 2.432 1_545 S
O640 C662 1.264 . S
O641 Eu599 2.339 . S
O641 C662 1.254 . S
O642 Eu599 2.563 . S
O642 C655 1.235 . S
O643 Eu599 2.419 . S
O643 C663 1.249 . S
C644 O633 1.276 . S
C644 O636 1.235 . S
C645 C647 1.393 . S
C645 C649 1.395 . S
C645 C652 1.492 . S
C646 C647 1.392 . S
C646 C648 1.386 . S
C647 C645 1.393 . S
C647 C646 1.392 . S
C647 H664 0.930 . S
C648 C646 1.386 . S
C648 C650 1.395 . S
C648 H665 0.930 . S
C649 C645 1.395 . S
C649 C650 1.379 . S
C649 H666 0.930 . S
C650 C648 1.395 . S
C650 C649 1.379 . S
C650 H667 0.930 . S
C651 O634 1.264 . S
C651 O635 1.254 . S
C652 Eu588 2.848 . S
C652 O632 1.257 . S
C652 O637 1.249 . S
C652 C645 1.492 . S
C653 H618 0.931 . S
C653 C631 1.420 . S
C653 C654 1.351 . S
C654 H616 0.930 . S
C654 C622 1.423 . S
C654 C653 1.351 . S
C655 O639 1.276 . S
C655 O642 1.235 . S
C656 C657 1.393 . S
C656 C660 1.395 . S
C656 C663 1.492 . S
C657 C656 1.393 . S
C657 C658 1.392 . S
C657 H668 0.930 . S
C658 C657 1.392 . S
C658 C659 1.386 . S
C659 C658 1.386 . S
C659 C661 1.395 . S
C659 H669 0.930 . S
C660 C656 1.395 . S
C660 C661 1.379 . S
C660 H670 0.930 . S
C661 C659 1.395 . S
C661 C660 1.379 . S
C661 H671 0.930 . S
C662 O640 1.264 . S
C662 O641 1.254 . S
C663 Eu599 2.848 . S
C663 O638 1.257 . S
C663 O643 1.249 . S
C663 C656 1.492 . S
H664 C647 0.930 . S
H665 C648 0.930 . S
H666 C649 0.930 . S
H667 C650 0.930 . S
H668 C657 0.930 . S
H669 C659 0.930 . S
H670 C660 0.930 . S
H671 C661 0.930 . S
Eu672 N703 2.657 . S
Eu672 N710 2.609 . S
Eu672 O716 2.558 . S
Eu672 O717 2.612 . S
Eu672 O719 2.339 . S
Eu672 O720 2.563 . S
Eu672 O721 2.419 . S
Eu672 O723 2.380 . S
Eu672 O724 2.432 . S
Eu672 C736 2.848 . S
C673 C676 1.429 . S
C673 C677 1.411 . S
C673 N680 1.377 . S
C674 C676 1.420 . S
C674 C678 1.423 . S
C674 C686 1.392 . S
C675 C677 1.420 . S
C675 C678 1.351 . S
C675 H698 0.931 . S
C676 C673 1.429 . S
C676 C674 1.420 . S
C676 N684 1.362 . S
C677 C673 1.411 . S
C677 C675 1.420 . S
C677 C682 1.395 . S
C678 C674 1.423 . S
C678 C675 1.351 . S
C678 H690 0.930 . S
C679 C681 1.400 . S
C679 C682 1.386 . S
C679 H691 0.930 . S
N680 C673 1.377 . S
N680 C681 1.321 . S
N680 Eu683 2.609 . S
C681 C679 1.400 . S
C681 N680 1.321 . S
C681 H688 0.930 . S
C682 C677 1.395 . S
C682 C679 1.386 . S
C682 H701 0.930 . S
Eu683 N680 2.609 . S
Eu683 N684 2.657 . S
Eu683 O717 2.380 . S
Eu683 O718 2.432 . S
Eu683 O722 2.558 . S
Eu683 O723 2.612 . S
Eu683 O725 2.339 . S
Eu683 O726 2.563 . S
Eu683 O727 2.419 . S
Eu683 C747 2.848 . S
N684 C676 1.362 . S
N684 Eu683 2.657 . S
N684 C685 1.334 . S
C685 N684 1.334 . S
C685 C687 1.413 . S
C685 H692 0.929 . S
C686 C674 1.392 . S
C686 C687 1.367 . S
C686 H694 0.930 . S
C687 C685 1.413 . S
C687 C686 1.367 . S
C687 H689 0.930 . S
H688 C681 0.930 . S
H689 C687 0.930 . S
H690 C678 0.930 . S
H691 C679 0.930 . S
H692 C685 0.929 . S
H693 C707 0.930 . S
H694 C686 0.930 . S
H695 C713 0.930 . S
H696 C704 0.929 . S
H697 C711 0.930 . S
H698 C675 0.931 . S
H699 C705 0.930 . S
H700 C738 0.930 . S
H701 C682 0.930 . S
H702 C737 0.931 . S
N703 Eu672 2.657 . S
N703 C704 1.334 . S
N703 C708 1.362 . S
C704 H696 0.929 . S
C704 N703 1.334 . S
C704 C707 1.413 . S
C705 H699 0.930 . S
C705 C706 1.392 . S
C705 C707 1.367 . S
C706 C705 1.392 . S
C706 C708 1.420 . S
C706 C738 1.423 . S
C707 H693 0.930 . S
C707 C704 1.413 . S
C707 C705 1.367 . S
C708 N703 1.362 . S
C708 C706 1.420 . S
C708 C712 1.429 . S
H709 C714 0.930 . S
N710 Eu672 2.609 . S
N710 C712 1.377 . S
N710 C713 1.321 . S
C711 H697 0.930 . S
C711 C713 1.400 . S
C711 C714 1.386 . S
C712 C708 1.429 . S
C712 N710 1.377 . S
C712 C715 1.411 . S
C713 H695 0.930 . S
C713 N710 1.321 . S
C713 C711 1.400 . S
C714 H709 0.930 . S
C714 C711 1.386 . S
C714 C715 1.395 . S
C715 C712 1.411 . S
C715 C714 1.395 . S
C715 C737 1.420 . S
O716 Eu672 2.558 . S
O716 C736 1.257 . S
O717 Eu672 2.612 . S
O717 Eu683 2.380 . S
O717 C728 1.276 . S
O718 Eu683 2.432 . S
O718 C735 1.264 . S
O719 Eu672 2.339 . S
O719 C735 1.254 . S
O720 Eu672 2.563 . S
O720 C728 1.235 . S
O721 Eu672 2.419 . S
O721 C736 1.249 . S
O722 Eu683 2.558 . S
O722 C747 1.257 . S
O723 Eu672 2.380 . S
O723 Eu683 2.612 . S
O723 C739 1.276 . S
O724 Eu672 2.432 . S
O724 C746 1.264 . S
O725 Eu683 2.339 . S
O725 C746 1.254 . S
O726 Eu683 2.563 . S
O726 C739 1.235 . S
O727 Eu683 2.419 . S
O727 C747 1.249 . S
C728 O717 1.276 . S
C728 O720 1.235 . S
C729 C731 1.393 . S
C729 C733 1.395 . S
C729 C736 1.492 . S
C730 C731 1.392 . S
C730 C732 1.386 . S
C731 C729 1.393 . S
C731 C730 1.392 . S
C731 H748 0.930 . S
C732 C730 1.386 . S
C732 C734 1.395 . S
C732 H749 0.930 . S
C733 C729 1.395 . S
C733 C734 1.379 . S
C733 H750 0.930 . S
C734 C732 1.395 . S
C734 C733 1.379 . S
C734 H751 0.930 . S
C735 O718 1.264 . S
C735 O719 1.254 . S
C736 Eu672 2.848 . S
C736 O716 1.257 . S
C736 O721 1.249 . S
C736 C729 1.492 . S
C737 H702 0.931 . S
C737 C715 1.420 . S
C737 C738 1.351 . S
C738 H700 0.930 . S
C738 C706 1.423 . S
C738 C737 1.351 . S
C739 O723 1.276 . S
C739 O726 1.235 . S
C740 C741 1.393 . S
C740 C744 1.395 . S
C740 C747 1.492 . S
C741 C740 1.393 . S
C741 C742 1.392 . S
C741 H752 0.930 . S
C742 C741 1.392 . S
C742 C743 1.386 . S
C743 C742 1.386 . S
C743 C745 1.395 . S
C743 H753 0.930 . S
C744 C740 1.395 . S
C744 C745 1.379 . S
C744 H754 0.930 . S
C745 C743 1.395 . S
C745 C744 1.379 . S
C745 H755 0.930 . S
C746 O724 1.264 . S
C746 O725 1.254 . S
C747 Eu683 2.848 . S
C747 O722 1.257 . S
C747 O727 1.249 . S
C747 C740 1.492 . S
H748 C731 0.930 . S
H749 C732 0.930 . S
H750 C733 0.930 . S
H751 C734 0.930 . S
H752 C741 0.930 . S
H753 C743 0.930 . S
H754 C744 0.930 . S
H755 C745 0.930 . S
Eu756 N787 2.657 . S
Eu756 N794 2.609 1_455 S
Eu756 O800 2.558 . S
Eu756 O801 2.612 . S
Eu756 O803 2.339 . S
Eu756 O804 2.563 . S
Eu756 O805 2.419 . S
Eu756 O807 2.380 1_455 S
Eu756 O808 2.432 1_455 S
Eu756 C820 2.848 . S
C757 C760 1.429 . S
C757 C761 1.411 . S
C757 N764 1.377 . S
C758 C760 1.420 . S
C758 C762 1.423 . S
C758 C770 1.392 . S
C759 C761 1.420 . S
C759 C762 1.351 . S
C759 H782 0.931 . S
C760 C757 1.429 . S
C760 C758 1.420 . S
C760 N768 1.362 1_455 S
C761 C757 1.411 . S
C761 C759 1.420 . S
C761 C766 1.395 1_556 S
C762 C758 1.423 . S
C762 C759 1.351 . S
C762 H774 0.930 . S
C763 C765 1.400 . S
C763 C766 1.386 . S
C763 H775 0.930 . S
N764 C757 1.377 . S
N764 C765 1.321 1_556 S
N764 Eu767 2.609 1_455 S
C765 C763 1.400 . S
C765 N764 1.321 1_554 S
C765 H772 0.930 . S
C766 C761 1.395 1_554 S
C766 C763 1.386 . S
C766 H785 0.930 . S
Eu767 N764 2.609 1_655 S
Eu767 N768 2.657 . S
Eu767 O801 2.380 1_655 S
Eu767 O802 2.432 1_655 S
Eu767 O806 2.558 1_556 S
Eu767 O807 2.612 . S
Eu767 O809 2.339 . S
Eu767 O810 2.563 . S
Eu767 O811 2.419 . S
Eu767 C831 2.848 1_556 S
N768 C760 1.362 1_655 S
N768 Eu767 2.657 . S
N768 C769 1.334 . S
C769 N768 1.334 . S
C769 C771 1.413 . S
C769 H776 0.929 . S
C770 C758 1.392 . S
C770 C771 1.367 1_455 S
C770 H778 0.930 . S
C771 C769 1.413 . S
C771 C770 1.367 1_655 S
C771 H773 0.930 . S
H772 C765 0.930 . S
H773 C771 0.930 . S
H774 C762 0.930 . S
H775 C763 0.930 . S
H776 C769 0.929 . S
H777 C791 0.930 1_554 S
H778 C770 0.930 . S
H779 C797 0.930 . S
H780 C788 0.929 . S
H781 C795 0.930 . S
H782 C759 0.931 . S
H783 C789 0.944 . S
H784 C822 0.930 . S
H785 C766 0.930 . S
H786 C821 0.931 . S
N787 Eu756 2.657 . S
N787 C788 1.334 . S
N787 C792 1.362 1_455 S
C788 H780 0.929 . S
C788 N787 1.334 . S
C788 C791 1.413 . S
C789 H783 0.944 . S
C789 C790 1.403 . S
C789 C791 1.343 1_655 S
C790 C789 1.403 . S
C790 C792 1.420 . S
C790 C822 1.423 . S
C791 H777 0.930 1_556 S
C791 C788 1.413 . S
C791 C789 1.343 1_455 S
C792 N787 1.362 1_655 S
C792 C790 1.420 . S
C792 C796 1.429 . S
H793 C798 0.930 . S
N794 Eu756 2.609 1_655 S
N794 C796 1.377 . S
N794 C797 1.321 . S
C795 H781 0.930 . S
C795 C797 1.400 . S
C795 C798 1.386 . S
C796 C792 1.429 . S
C796 N794 1.377 . S
C796 C799 1.411 . S
C797 H779 0.930 . S
C797 N794 1.321 . S
C797 C795 1.400 . S
C798 H793 0.930 . S
C798 C795 1.386 . S
C798 C799 1.395 . S
C799 C796 1.411 . S
C799 C798 1.395 . S
C799 C821 1.420 . S
O800 Eu756 2.558 . S
O800 C820 1.257 . S
O801 Eu756 2.612 . S
O801 Eu767 2.380 1_455 S
O801 C812 1.276 . S
O802 Eu767 2.432 1_455 S
O802 C819 1.264 . S
O803 Eu756 2.339 . S
O803 C819 1.254 . S
O804 Eu756 2.563 . S
O804 C812 1.235 . S
O805 Eu756 2.419 . S
O805 C820 1.249 . S
O806 Eu767 2.558 1_554 S
O806 C831 1.257 . S
O807 Eu756 2.380 1_655 S
O807 Eu767 2.612 . S
O807 C823 1.276 . S
O808 Eu756 2.432 1_655 S
O808 C830 1.264 . S
O809 Eu767 2.339 . S
O809 C830 1.254 . S
O810 Eu767 2.563 . S
O810 C823 1.235 . S
O811 Eu767 2.419 . S
O811 C831 1.249 1_556 S
C812 O801 1.276 . S
C812 O804 1.235 . S
C813 C815 1.393 . S
C813 C817 1.395 . S
C813 C820 1.492 . S
C814 C815 1.392 . S
C814 C816 1.386 . S
C815 C813 1.393 . S
C815 C814 1.392 . S
C815 H832 0.930 . S
C816 C814 1.386 . S
C816 C818 1.395 . S
C816 H833 0.930 . S
C817 C813 1.395 . S
C817 C818 1.379 . S
C817 H834 0.930 . S
C818 C816 1.395 . S
C818 C817 1.379 . S
C818 H835 0.930 . S
C819 O802 1.264 . S
C819 O803 1.254 . S
C820 Eu756 2.848 . S
C820 O800 1.257 . S
C820 O805 1.249 . S
C820 C813 1.492 . S
C821 H786 0.931 . S
C821 C799 1.420 . S
C821 C822 1.351 . S
C822 H784 0.930 . S
C822 C790 1.423 . S
C822 C821 1.351 . S
C823 O807 1.276 . S
C823 O810 1.235 . S
C824 C825 1.393 . S
C824 C828 1.395 . S
C824 C831 1.492 . S
C825 C824 1.393 . S
C825 C826 1.392 . S
C825 H836 0.930 . S
C826 C825 1.392 . S
C826 C827 1.386 . S
C827 C826 1.386 . S
C827 C829 1.395 . S
C827 H837 0.930 . S
C828 C824 1.395 . S
C828 C829 1.379 . S
C828 H838 0.930 . S
C829 C827 1.395 . S
C829 C828 1.379 . S
C829 H839 0.930 . S
C830 O808 1.264 . S
C830 O809 1.254 . S
C831 Eu767 2.848 1_554 S
C831 O806 1.257 . S
C831 O811 1.249 1_554 S
C831 C824 1.492 . S
H832 C815 0.930 . S
H833 C816 0.930 . S
H834 C817 0.930 . S
H835 C818 0.930 . S
H836 C825 0.930 . S
H837 C827 0.930 . S
H838 C828 0.930 . S
H839 C829 0.930 . S
Eu840 N871 2.657 . S
Eu840 N878 2.609 1_545 S
Eu840 O884 2.558 . S
Eu840 O885 2.612 . S
Eu840 O887 2.339 . S
Eu840 O888 2.563 . S
Eu840 O889 2.419 . S
Eu840 O891 2.380 1_545 S
Eu840 O892 2.432 1_545 S
Eu840 C904 2.848 . S
C841 C844 1.429 . S
C841 C845 1.411 . S
C841 N848 1.377 . S
C842 C844 1.420 . S
C842 C846 1.423 . S
C842 C854 1.392 1_545 S
C843 C845 1.420 . S
C843 C846 1.351 . S
C843 H866 0.931 . S
C844 C841 1.429 . S
C844 C842 1.420 . S
C844 N852 1.362 1_545 S
C845 C841 1.411 . S
C845 C843 1.420 . S
C845 C850 1.395 . S
C846 C842 1.423 . S
C846 C843 1.351 . S
C846 H858 0.930 . S
C847 C849 1.400 . S
C847 C850 1.386 . S
C847 H859 0.930 . S
N848 C841 1.377 . S
N848 C849 1.321 . S
N848 Eu851 2.609 1_545 S
C849 C847 1.400 . S
C849 N848 1.321 . S
C849 H856 0.930 . S
C850 C845 1.395 . S
C850 C847 1.386 . S
C850 H869 0.930 . S
Eu851 N848 2.609 1_565 S
Eu851 N852 2.657 . S
Eu851 O885 2.380 1_565 S
Eu851 O886 2.432 1_565 S
Eu851 O890 2.558 . S
Eu851 O891 2.612 . S
Eu851 O893 2.339 . S
Eu851 O894 2.563 . S
Eu851 O895 2.419 . S
Eu851 C915 2.848 . S
N852 C844 1.362 1_565 S
N852 Eu851 2.657 . S
N852 C853 1.334 . S
C853 N852 1.334 . S
C853 C855 1.413 . S
C853 H860 0.929 . S
C854 C842 1.392 1_565 S
C854 C855 1.367 . S
C854 H862 0.938 1_565 S
C855 C853 1.413 . S
C855 C854 1.367 . S
C855 H857 0.930 . S
H856 C849 0.930 . S
H857 C855 0.930 . S
H858 C846 0.930 . S
H859 C847 0.930 . S
H860 C853 0.929 . S
H861 C875 0.930 . S
H862 C854 0.938 1_545 S
H863 C881 0.930 . S
H864 C872 0.929 . S
H865 C879 0.930 . S
H866 C843 0.931 . S
H867 C873 0.935 1_565 S
H868 C906 0.930 . S
H869 C850 0.930 . S
H870 C905 0.931 . S
N871 Eu840 2.657 . S
N871 C872 1.334 . S
N871 C876 1.362 1_545 S
C872 H864 0.929 . S
C872 N871 1.334 . S
C872 C875 1.413 . S
C873 H867 0.935 1_545 S
C873 C874 1.392 1_545 S
C873 C875 1.367 . S
C874 C873 1.392 1_565 S
C874 C876 1.420 . S
C874 C906 1.423 . S
C875 H861 0.930 . S
C875 C872 1.413 . S
C875 C873 1.367 . S
C876 N871 1.362 1_565 S
C876 C874 1.420 . S
C876 C880 1.429 . S
H877 C882 0.930 . S
N878 Eu840 2.609 1_565 S
N878 C880 1.377 . S
N878 C881 1.321 . S
C879 H865 0.930 . S
C879 C881 1.400 . S
C879 C882 1.386 . S
C880 C876 1.429 . S
C880 N878 1.377 . S
C880 C883 1.411 . S
C881 H863 0.930 . S
C881 N878 1.321 . S
C881 C879 1.400 . S
C882 H877 0.930 . S
C882 C879 1.386 . S
C882 C883 1.395 . S
C883 C880 1.411 . S
C883 C882 1.395 . S
C883 C905 1.420 . S
O884 Eu840 2.558 . S
O884 C904 1.257 . S
O885 Eu840 2.612 . S
O885 Eu851 2.380 1_545 S
O885 C896 1.276 . S
O886 Eu851 2.432 1_545 S
O886 C903 1.264 . S
O887 Eu840 2.339 . S
O887 C903 1.254 . S
O888 Eu840 2.563 . S
O888 C896 1.235 . S
O889 Eu840 2.419 . S
O889 C904 1.249 . S
O890 Eu851 2.558 . S
O890 C915 1.257 . S
O891 Eu840 2.380 1_565 S
O891 Eu851 2.612 . S
O891 C907 1.276 . S
O892 Eu840 2.432 1_565 S
O892 C914 1.264 . S
O893 Eu851 2.339 . S
O893 C914 1.254 . S
O894 Eu851 2.563 . S
O894 C907 1.235 . S
O895 Eu851 2.419 . S
O895 C915 1.249 . S
C896 O885 1.276 . S
C896 O888 1.235 . S
C897 C899 1.393 . S
C897 C901 1.395 . S
C897 C904 1.492 . S
C898 C899 1.392 . S
C898 C900 1.386 . S
C899 C897 1.393 . S
C899 C898 1.392 . S
C899 H916 0.930 . S
C900 C898 1.386 . S
C900 C902 1.395 . S
C900 H917 0.930 . S
C901 C897 1.395 . S
C901 C902 1.379 . S
C901 H918 0.930 . S
C902 C900 1.395 . S
C902 C901 1.379 . S
C902 H919 0.930 . S
C903 O886 1.264 . S
C903 O887 1.254 . S
C904 Eu840 2.848 . S
C904 O884 1.257 . S
C904 O889 1.249 . S
C904 C897 1.492 . S
C905 H870 0.931 . S
C905 C883 1.420 . S
C905 C906 1.351 . S
C906 H868 0.930 . S
C906 C874 1.423 . S
C906 C905 1.351 . S
C907 O891 1.276 . S
C907 O894 1.235 . S
C908 C909 1.393 . S
C908 C912 1.395 . S
C908 C915 1.492 . S
C909 C908 1.393 . S
C909 C910 1.392 . S
C909 H920 0.930 . S
C910 C909 1.392 . S
C910 C911 1.386 . S
C911 C910 1.386 . S
C911 C913 1.395 . S
C911 H921 0.930 . S
C912 C908 1.395 . S
C912 C913 1.379 . S
C912 H922 0.930 . S
C913 C911 1.395 . S
C913 C912 1.379 . S
C913 H923 0.930 . S
C914 O892 1.264 . S
C914 O893 1.254 . S
C915 Eu851 2.848 . S
C915 O890 1.257 . S
C915 O895 1.249 . S
C915 C908 1.492 . S
H916 C899 0.930 . S
H917 C900 0.930 . S
H918 C901 0.930 . S
H919 C902 0.930 . S
H920 C909 0.930 . S
H921 C911 0.930 . S
H922 C912 0.930 . S
H923 C913 0.930 . S
Eu924 N955 2.657 . S
Eu924 N962 2.609 . S
Eu924 O968 2.558 . S
Eu924 O969 2.612 . S
Eu924 O971 2.339 . S
Eu924 O972 2.563 . S
Eu924 O973 2.419 . S
Eu924 O975 2.380 . S
Eu924 O976 2.432 . S
Eu924 C988 2.848 . S
C925 C928 1.429 . S
C925 C929 1.411 . S
C925 N932 1.377 . S
C926 C928 1.420 . S
C926 C930 1.423 . S
C926 C938 1.392 . S
C927 C929 1.420 . S
C927 C930 1.351 . S
C927 H950 0.931 . S
C928 C925 1.429 . S
C928 C926 1.420 . S
C928 N936 1.362 . S
C929 C925 1.411 . S
C929 C927 1.420 . S
C929 C934 1.395 . S
C930 C926 1.423 . S
C930 C927 1.351 . S
C930 H942 0.930 . S
C931 C933 1.400 . S
C931 C934 1.386 . S
C931 H943 0.930 . S
N932 C925 1.377 . S
N932 C933 1.321 . S
N932 Eu935 2.609 . S
C933 C931 1.400 . S
C933 N932 1.321 . S
C933 H940 0.930 . S
C934 C929 1.395 . S
C934 C931 1.386 . S
C934 H953 0.930 . S
Eu935 N932 2.609 . S
Eu935 N936 2.657 . S
Eu935 O969 2.380 . S
Eu935 O970 2.432 . S
Eu935 O974 2.558 . S
Eu935 O975 2.612 . S
Eu935 O977 2.339 . S
Eu935 O978 2.563 . S
Eu935 O979 2.419 . S
Eu935 C999 2.848 . S
N936 C928 1.362 . S
N936 Eu935 2.657 . S
N936 C937 1.334 . S
C937 N936 1.334 . S
C937 C939 1.413 . S
C937 H944 0.929 . S
C938 C926 1.392 . S
C938 C939 1.367 . S
C938 H946 0.930 . S
C939 C937 1.413 . S
C939 C938 1.367 . S
C939 H941 0.930 . S
H940 C933 0.930 . S
H941 C939 0.930 . S
H942 C930 0.930 . S
H943 C931 0.930 . S
H944 C937 0.929 . S
H945 C959 0.930 . S
H946 C938 0.930 . S
H947 C965 0.930 . S
H948 C956 0.929 . S
H949 C963 0.930 . S
H950 C927 0.931 . S
H951 C957 0.930 . S
H952 C990 0.930 . S
H953 C934 0.930 . S
H954 C989 0.931 . S
N955 Eu924 2.657 . S
N955 C956 1.334 . S
N955 C960 1.362 . S
C956 H948 0.929 . S
C956 N955 1.334 . S
C956 C959 1.413 . S
C957 H951 0.930 . S
C957 C958 1.392 . S
C957 C959 1.367 . S
C958 C957 1.392 . S
C958 C960 1.420 . S
C958 C990 1.423 . S
C959 H945 0.930 . S
C959 C956 1.413 . S
C959 C957 1.367 . S
C960 N955 1.362 . S
C960 C958 1.420 . S
C960 C964 1.429 . S
H961 C966 0.930 . S
N962 Eu924 2.609 . S
N962 C964 1.377 . S
N962 C965 1.321 . S
C963 H949 0.930 . S
C963 C965 1.400 . S
C963 C966 1.386 . S
C964 C960 1.429 . S
C964 N962 1.377 . S
C964 C967 1.411 . S
C965 H947 0.930 . S
C965 N962 1.321 . S
C965 C963 1.400 . S
C966 H961 0.930 . S
C966 C963 1.386 . S
C966 C967 1.395 . S
C967 C964 1.411 . S
C967 C966 1.395 . S
C967 C989 1.420 . S
O968 Eu924 2.558 . S
O968 C988 1.257 . S
O969 Eu924 2.612 . S
O969 Eu935 2.380 . S
O969 C980 1.276 . S
O970 Eu935 2.432 . S
O970 C987 1.264 . S
O971 Eu924 2.339 . S
O971 C987 1.254 . S
O972 Eu924 2.563 . S
O972 C980 1.235 . S
O973 Eu924 2.419 . S
O973 C988 1.249 . S
O974 Eu935 2.558 . S
O974 C999 1.257 . S
O975 Eu924 2.380 . S
O975 Eu935 2.612 . S
O975 C991 1.276 . S
O976 Eu924 2.432 . S
O976 C998 1.264 . S
O977 Eu935 2.339 . S
O977 C998 1.254 . S
O978 Eu935 2.563 . S
O978 C991 1.235 . S
O979 Eu935 2.419 . S
O979 C999 1.249 . S
C980 O969 1.276 . S
C980 O972 1.235 . S
C981 C983 1.393 . S
C981 C985 1.395 . S
C981 C988 1.492 . S
C982 C983 1.392 . S
C982 C984 1.386 . S
C983 C981 1.393 . S
C983 C982 1.392 . S
C983 H1000 0.930 . S
C984 C982 1.386 . S
C984 C986 1.395 . S
C984 H1001 0.930 . S
C985 C981 1.395 . S
C985 C986 1.379 . S
C985 H1002 0.930 . S
C986 C984 1.395 . S
C986 C985 1.379 . S
C986 H1003 0.930 . S
C987 O970 1.264 . S
C987 O971 1.254 . S
C988 Eu924 2.848 . S
C988 O968 1.257 . S
C988 O973 1.249 . S
C988 C981 1.492 . S
C989 H954 0.931 . S
C989 C967 1.420 . S
C989 C990 1.351 . S
C990 H952 0.930 . S
C990 C958 1.423 . S
C990 C989 1.351 . S
C991 O975 1.276 . S
C991 O978 1.235 . S
C992 C993 1.393 . S
C992 C996 1.395 . S
C992 C999 1.492 . S
C993 C992 1.393 . S
C993 C994 1.392 . S
C993 H1004 0.930 . S
C994 C993 1.392 . S
C994 C995 1.386 . S
C995 C994 1.386 . S
C995 C997 1.395 . S
C995 H1005 0.930 . S
C996 C992 1.395 . S
C996 C997 1.379 . S
C996 H1006 0.930 . S
C997 C995 1.395 . S
C997 C996 1.379 . S
C997 H1007 0.930 . S
C998 O976 1.264 . S
C998 O977 1.254 . S
C999 Eu935 2.848 . S
C999 O974 1.257 . S
C999 O979 1.249 . S
C999 C992 1.492 . S
H1000 C983 0.930 . S
H1001 C984 0.930 . S
H1002 C985 0.930 . S
H1003 C986 0.930 . S
H1004 C993 0.930 . S
H1005 C995 0.930 . S
H1006 C996 0.930 . S
H1007 C997 0.930 . S
C1008 C1009 1.349 . S
C1008 C1010 1.327 . S
C1008 H1033 0.950 . S
C1009 C1008 1.349 . S
C1009 C1025 1.349 . S
C1010 C1008 1.327 . S
C1010 C1029 1.429 . S
C1010 H1034 0.950 . S
C1011 C1028 1.574 . S
C1011 C1030 1.368 . S
C1011 H1035 0.949 . S
H1012 C1016 0.949 . S
C1013 C1014 1.349 . S
C1013 C1015 1.327 . S
C1013 H1036 0.950 . S
C1014 C1013 1.349 . S
C1014 C1026 1.349 . S
C1015 C1013 1.327 . S
C1015 C1031 1.429 . S
C1015 H1037 0.950 . S
C1016 H1012 0.949 . S
C1016 C1024 1.574 . S
C1016 C1032 1.368 . S
H1017 C1025 0.950 . S
H1018 C1023 0.950 . S
H1019 C1024 0.949 . S
H1020 C1026 0.950 . S
H1021 C1027 0.950 . S
H1022 C1028 0.949 . S
C1023 H1018 0.950 . S
C1023 C1025 1.327 . S
C1023 C1029 1.429 . S
C1024 C1016 1.574 . S
C1024 H1019 0.949 . S
C1024 C1030 1.368 . S
C1025 C1009 1.349 . S
C1025 H1017 0.950 . S
C1025 C1023 1.327 . S
C1026 C1014 1.349 . S
C1026 H1020 0.950 . S
C1026 C1027 1.327 . S
C1027 H1021 0.950 . S
C1027 C1026 1.327 . S
C1027 C1031 1.429 . S
C1028 C1011 1.574 . S
C1028 H1022 0.949 . S
C1028 C1032 1.368 . S
C1029 C1010 1.429 . S
C1029 C1023 1.429 . S
C1029 C1030 1.523 . S
C1030 C1011 1.368 . S
C1030 C1024 1.368 . S
C1030 C1029 1.523 . S
C1031 C1015 1.429 . S
C1031 C1027 1.429 . S
C1031 C1032 1.523 . S
C1032 C1016 1.368 . S
C1032 C1028 1.368 . S
C1032 C1031 1.523 . S
H1033 C1008 0.950 . S
H1034 C1010 0.950 . S
H1035 C1011 0.949 . S
H1036 C1013 0.950 . S
H1037 C1015 0.950 . S
C1038 C1039 1.349 . S
C1038 C1040 1.327 . S
C1038 H1063 0.950 . S
C1039 C1038 1.349 . S
C1039 C1055 1.349 . S
C1040 C1038 1.327 . S
C1040 C1059 1.429 . S
C1040 H1064 0.950 . S
C1041 C1058 1.574 . S
C1041 C1060 1.368 . S
C1041 H1065 0.949 . S
H1042 C1046 0.949 . S
C1043 C1044 1.349 . S
C1043 C1045 1.327 . S
C1043 H1066 0.950 . S
C1044 C1043 1.349 . S
C1044 C1056 1.349 . S
C1045 C1043 1.327 . S
C1045 C1061 1.429 . S
C1045 H1067 0.950 . S
C1046 H1042 0.949 . S
C1046 C1054 1.574 . S
C1046 C1062 1.368 . S
H1047 C1055 0.950 . S
H1048 C1053 0.950 . S
H1049 C1054 0.949 . S
H1050 C1056 0.950 . S
H1051 C1057 0.950 . S
H1052 C1058 0.949 . S
C1053 H1048 0.950 . S
C1053 C1055 1.327 . S
C1053 C1059 1.429 . S
C1054 C1046 1.574 . S
C1054 H1049 0.949 . S
C1054 C1060 1.368 . S
C1055 C1039 1.349 . S
C1055 H1047 0.950 . S
C1055 C1053 1.327 . S
C1056 C1044 1.349 . S
C1056 H1050 0.950 . S
C1056 C1057 1.327 . S
C1057 H1051 0.950 . S
C1057 C1056 1.327 . S
C1057 C1061 1.429 . S
C1058 C1041 1.574 . S
C1058 H1052 0.949 . S
C1058 C1062 1.368 . S
C1059 C1040 1.429 . S
C1059 C1053 1.429 . S
C1059 C1060 1.523 . S
C1060 C1041 1.368 . S
C1060 C1054 1.368 . S
C1060 C1059 1.523 . S
C1061 C1045 1.429 . S
C1061 C1057 1.429 . S
C1061 C1062 1.523 . S
C1062 C1046 1.368 . S
C1062 C1058 1.368 . S
C1062 C1061 1.523 . S
H1063 C1038 0.950 . S
H1064 C1040 0.950 . S
H1065 C1041 0.949 . S
H1066 C1043 0.950 . S
H1067 C1045 0.950 . S
C1068 C1069 1.349 . S
C1068 C1070 1.327 . S
C1068 H1093 0.950 . S
C1069 C1068 1.349 . S
C1069 C1085 1.349 . S
C1070 C1068 1.327 . S
C1070 C1089 1.429 . S
C1070 H1094 0.950 . S
C1071 C1088 1.574 . S
C1071 C1090 1.368 . S
C1071 H1095 0.949 . S
H1072 C1076 0.949 . S
C1073 C1074 1.349 . S
C1073 C1075 1.327 . S
C1073 H1096 0.950 . S
C1074 C1073 1.349 . S
C1074 C1086 1.349 . S
C1075 C1073 1.327 . S
C1075 C1091 1.429 . S
C1075 H1097 0.950 . S
C1076 H1072 0.949 . S
C1076 C1084 1.574 . S
C1076 C1092 1.368 . S
H1077 C1085 0.950 . S
H1078 C1083 0.950 . S
H1079 C1084 0.949 . S
H1080 C1086 0.950 . S
H1081 C1087 0.950 . S
H1082 C1088 0.949 . S
C1083 H1078 0.950 . S
C1083 C1085 1.327 . S
C1083 C1089 1.429 . S
C1084 C1076 1.574 . S
C1084 H1079 0.949 . S
C1084 C1090 1.368 . S
C1085 C1069 1.349 . S
C1085 H1077 0.950 . S
C1085 C1083 1.327 . S
C1086 C1074 1.349 . S
C1086 H1080 0.950 . S
C1086 C1087 1.327 . S
C1087 H1081 0.950 . S
C1087 C1086 1.327 . S
C1087 C1091 1.429 . S
C1088 C1071 1.574 . S
C1088 H1082 0.949 . S
C1088 C1092 1.368 . S
C1089 C1070 1.429 . S
C1089 C1083 1.429 . S
C1089 C1090 1.523 . S
C1090 C1071 1.368 . S
C1090 C1084 1.368 . S
C1090 C1089 1.523 . S
C1091 C1075 1.429 . S
C1091 C1087 1.429 . S
C1091 C1092 1.523 . S
C1092 C1076 1.368 . S
C1092 C1088 1.368 . S
C1092 C1091 1.523 . S
H1093 C1068 0.950 . S
H1094 C1070 0.950 . S
H1095 C1071 0.949 . S
H1096 C1073 0.950 . S
H1097 C1075 0.950 . S
C1098 C1099 1.349 . S
C1098 C1100 1.327 . S
C1098 H1123 0.950 . S
C1099 C1098 1.349 . S
C1099 C1115 1.349 . S
C1100 C1098 1.327 . S
C1100 C1119 1.429 . S
C1100 H1124 0.950 . S
C1101 C1118 1.574 . S
C1101 C1120 1.368 . S
C1101 H1125 0.949 . S
H1102 C1106 0.949 . S
C1103 C1104 1.349 . S
C1103 C1105 1.327 . S
C1103 H1126 0.950 . S
C1104 C1103 1.349 . S
C1104 C1116 1.349 . S
C1105 C1103 1.327 . S
C1105 C1121 1.429 . S
C1105 H1127 0.950 . S
C1106 H1102 0.949 . S
C1106 C1114 1.574 . S
C1106 C1122 1.368 . S
H1107 C1115 0.950 . S
H1108 C1113 0.950 . S
H1109 C1114 0.949 . S
H1110 C1116 0.950 . S
H1111 C1117 0.950 . S
H1112 C1118 0.949 . S
C1113 H1108 0.950 . S
C1113 C1115 1.327 . S
C1113 C1119 1.429 . S
C1114 C1106 1.574 . S
C1114 H1109 0.949 . S
C1114 C1120 1.368 . S
C1115 C1099 1.349 . S
C1115 H1107 0.950 . S
C1115 C1113 1.327 . S
C1116 C1104 1.349 . S
C1116 H1110 0.950 . S
C1116 C1117 1.327 . S
C1117 H1111 0.950 . S
C1117 C1116 1.327 . S
C1117 C1121 1.429 . S
C1118 C1101 1.574 . S
C1118 H1112 0.949 . S
C1118 C1122 1.368 . S
C1119 C1100 1.429 . S
C1119 C1113 1.429 . S
C1119 C1120 1.523 . S
C1120 C1101 1.368 . S
C1120 C1114 1.368 . S
C1120 C1119 1.523 . S
C1121 C1105 1.429 . S
C1121 C1117 1.429 . S
C1121 C1122 1.523 . S
C1122 C1106 1.368 . S
C1122 C1118 1.368 . S
C1122 C1121 1.523 . S
H1123 C1098 0.950 . S
H1124 C1100 0.950 . S
H1125 C1101 0.949 . S
H1126 C1103 0.950 . S
H1127 C1105 0.950 . S
C1128 C1129 1.349 . S
C1128 C1130 1.327 . S
C1128 H1153 0.950 . S
C1129 C1128 1.349 . S
C1129 C1145 1.349 . S
C1130 C1128 1.327 . S
C1130 C1149 1.429 . S
C1130 H1154 0.950 . S
C1131 C1148 1.574 . S
C1131 C1150 1.368 . S
C1131 H1155 0.949 . S
H1132 C1136 0.949 . S
C1133 C1134 1.349 . S
C1133 C1135 1.327 . S
C1133 H1156 0.950 . S
C1134 C1133 1.349 . S
C1134 C1146 1.349 . S
C1135 C1133 1.327 . S
C1135 C1151 1.429 . S
C1135 H1157 0.950 . S
C1136 H1132 0.949 . S
C1136 C1144 1.574 . S
C1136 C1152 1.368 . S
H1137 C1145 0.950 . S
H1138 C1143 0.950 . S
H1139 C1144 0.949 . S
H1140 C1146 0.950 . S
H1141 C1147 0.950 . S
H1142 C1148 0.949 . S
C1143 H1138 0.950 . S
C1143 C1145 1.327 . S
C1143 C1149 1.429 . S
C1144 C1136 1.574 . S
C1144 H1139 0.949 . S
C1144 C1150 1.368 . S
C1145 C1129 1.349 . S
C1145 H1137 0.950 . S
C1145 C1143 1.327 . S
C1146 C1134 1.349 . S
C1146 H1140 0.950 . S
C1146 C1147 1.327 . S
C1147 H1141 0.950 . S
C1147 C1146 1.327 . S
C1147 C1151 1.429 . S
C1148 C1131 1.574 . S
C1148 H1142 0.949 . S
C1148 C1152 1.368 . S
C1149 C1130 1.429 . S
C1149 C1143 1.429 . S
C1149 C1150 1.523 . S
C1150 C1131 1.368 . S
C1150 C1144 1.368 . S
C1150 C1149 1.523 . S
C1151 C1135 1.429 . S
C1151 C1147 1.429 . S
C1151 C1152 1.523 . S
C1152 C1136 1.368 . S
C1152 C1148 1.368 . S
C1152 C1151 1.523 . S
H1153 C1128 0.950 . S
H1154 C1130 0.950 . S
H1155 C1131 0.949 . S
H1156 C1133 0.950 . S
H1157 C1135 0.950 . S
C1158 C1159 1.349 . S
C1158 C1160 1.327 . S
C1158 H1183 0.950 . S
C1159 C1158 1.349 . S
C1159 C1175 1.349 . S
C1160 C1158 1.327 . S
C1160 C1179 1.429 . S
C1160 H1184 0.950 . S
C1161 C1178 1.574 . S
C1161 C1180 1.368 . S
C1161 H1185 0.949 . S
H1162 C1166 0.949 . S
C1163 C1164 1.349 . S
C1163 C1165 1.327 . S
C1163 H1186 0.950 . S
C1164 C1163 1.349 . S
C1164 C1176 1.349 . S
C1165 C1163 1.327 . S
C1165 C1181 1.429 . S
C1165 H1187 0.950 . S
C1166 H1162 0.949 . S
C1166 C1174 1.574 . S
C1166 C1182 1.368 . S
H1167 C1175 0.950 . S
H1168 C1173 0.950 . S
H1169 C1174 0.949 . S
H1170 C1176 0.950 . S
H1171 C1177 0.950 . S
H1172 C1178 0.949 . S
C1173 H1168 0.950 . S
C1173 C1175 1.327 . S
C1173 C1179 1.429 . S
C1174 C1166 1.574 . S
C1174 H1169 0.949 . S
C1174 C1180 1.368 . S
C1175 C1159 1.349 . S
C1175 H1167 0.950 . S
C1175 C1173 1.327 . S
C1176 C1164 1.349 . S
C1176 H1170 0.950 . S
C1176 C1177 1.327 . S
C1177 H1171 0.950 . S
C1177 C1176 1.327 . S
C1177 C1181 1.429 . S
C1178 C1161 1.574 . S
C1178 H1172 0.949 . S
C1178 C1182 1.368 . S
C1179 C1160 1.429 . S
C1179 C1173 1.429 . S
C1179 C1180 1.523 . S
C1180 C1161 1.368 . S
C1180 C1174 1.368 . S
C1180 C1179 1.523 . S
C1181 C1165 1.429 . S
C1181 C1177 1.429 . S
C1181 C1182 1.523 . S
C1182 C1166 1.368 . S
C1182 C1178 1.368 . S
C1182 C1181 1.523 . S
H1183 C1158 0.950 . S
H1184 C1160 0.950 . S
H1185 C1161 0.949 . S
H1186 C1163 0.950 . S
H1187 C1165 0.950 . S
C1188 C1189 1.349 . S
C1188 C1190 1.327 . S
C1188 H1213 0.950 . S
C1189 C1188 1.349 . S
C1189 C1205 1.349 . S
C1190 C1188 1.327 . S
C1190 C1209 1.429 . S
C1190 H1214 0.950 . S
C1191 C1208 1.574 . S
C1191 C1210 1.368 . S
C1191 H1215 0.949 . S
H1192 C1196 0.949 . S
C1193 C1194 1.349 . S
C1193 C1195 1.327 . S
C1193 H1216 0.950 . S
C1194 C1193 1.349 . S
C1194 C1206 1.349 . S
C1195 C1193 1.327 . S
C1195 C1211 1.429 . S
C1195 H1217 0.950 . S
C1196 H1192 0.949 . S
C1196 C1204 1.574 . S
C1196 C1212 1.368 . S
H1197 C1205 0.950 . S
H1198 C1203 0.950 . S
H1199 C1204 0.949 . S
H1200 C1206 0.950 . S
H1201 C1207 0.950 . S
H1202 C1208 0.949 . S
C1203 H1198 0.950 . S
C1203 C1205 1.327 . S
C1203 C1209 1.429 . S
C1204 C1196 1.574 . S
C1204 H1199 0.949 . S
C1204 C1210 1.368 . S
C1205 C1189 1.349 . S
C1205 H1197 0.950 . S
C1205 C1203 1.327 . S
C1206 C1194 1.349 . S
C1206 H1200 0.950 . S
C1206 C1207 1.327 . S
C1207 H1201 0.950 . S
C1207 C1206 1.327 . S
C1207 C1211 1.429 . S
C1208 C1191 1.574 . S
C1208 H1202 0.949 . S
C1208 C1212 1.368 . S
C1209 C1190 1.429 . S
C1209 C1203 1.429 . S
C1209 C1210 1.523 . S
C1210 C1191 1.368 . S
C1210 C1204 1.368 . S
C1210 C1209 1.523 . S
C1211 C1195 1.429 . S
C1211 C1207 1.429 . S
C1211 C1212 1.523 . S
C1212 C1196 1.368 . S
C1212 C1208 1.368 . S
C1212 C1211 1.523 . S
H1213 C1188 0.950 . S
H1214 C1190 0.950 . S
H1215 C1191 0.949 . S
H1216 C1193 0.950 . S
H1217 C1195 0.950 . S
C1218 C1219 1.349 . S
C1218 C1220 1.327 . S
C1218 H1243 0.950 . S
C1219 C1218 1.349 . S
C1219 C1235 1.349 . S
C1220 C1218 1.327 . S
C1220 C1239 1.429 . S
C1220 H1244 0.950 . S
C1221 C1238 1.574 . S
C1221 C1240 1.368 . S
C1221 H1245 0.949 . S
H1222 C1226 0.949 . S
C1223 C1224 1.349 . S
C1223 C1225 1.327 . S
C1223 H1246 0.950 . S
C1224 C1223 1.349 . S
C1224 C1236 1.349 . S
C1225 C1223 1.327 . S
C1225 C1241 1.429 . S
C1225 H1247 0.950 . S
C1226 H1222 0.949 . S
C1226 C1234 1.574 . S
C1226 C1242 1.368 . S
H1227 C1235 0.950 . S
H1228 C1233 0.950 . S
H1229 C1234 0.949 . S
H1230 C1236 0.950 . S
H1231 C1237 0.950 . S
H1232 C1238 0.949 . S
C1233 H1228 0.950 . S
C1233 C1235 1.327 . S
C1233 C1239 1.429 . S
C1234 C1226 1.574 . S
C1234 H1229 0.949 . S
C1234 C1240 1.368 . S
C1235 C1219 1.349 . S
C1235 H1227 0.950 . S
C1235 C1233 1.327 . S
C1236 C1224 1.349 . S
C1236 H1230 0.950 . S
C1236 C1237 1.327 . S
C1237 H1231 0.950 . S
C1237 C1236 1.327 . S
C1237 C1241 1.429 . S
C1238 C1221 1.574 . S
C1238 H1232 0.949 . S
C1238 C1242 1.368 . S
C1239 C1220 1.429 . S
C1239 C1233 1.429 . S
C1239 C1240 1.523 . S
C1240 C1221 1.368 . S
C1240 C1234 1.368 . S
C1240 C1239 1.523 . S
C1241 C1225 1.429 . S
C1241 C1237 1.429 . S
C1241 C1242 1.523 . S
C1242 C1226 1.368 . S
C1242 C1238 1.368 . S
C1242 C1241 1.523 . S
H1243 C1218 0.950 . S
H1244 C1220 0.950 . S
H1245 C1221 0.949 . S
H1246 C1223 0.950 . S
H1247 C1225 0.950 . S
C1248 C1249 1.349 . S
C1248 C1250 1.327 . S
C1248 H1273 0.950 . S
C1249 C1248 1.349 . S
C1249 C1265 1.349 . S
C1250 C1248 1.327 . S
C1250 C1269 1.429 . S
C1250 H1274 0.950 . S
C1251 C1268 1.574 . S
C1251 C1270 1.368 . S
C1251 H1275 0.949 . S
H1252 C1256 0.949 . S
C1253 C1254 1.349 . S
C1253 C1255 1.327 . S
C1253 H1276 0.950 . S
C1254 C1253 1.349 . S
C1254 C1266 1.349 . S
C1255 C1253 1.327 . S
C1255 C1271 1.429 . S
C1255 H1277 0.950 . S
C1256 H1252 0.949 . S
C1256 C1264 1.574 . S
C1256 C1272 1.368 . S
H1257 C1265 0.950 . S
H1258 C1263 0.950 . S
H1259 C1264 0.949 . S
H1260 C1266 0.950 . S
H1261 C1267 0.950 . S
H1262 C1268 0.949 . S
C1263 H1258 0.950 . S
C1263 C1265 1.327 . S
C1263 C1269 1.429 . S
C1264 C1256 1.574 . S
C1264 H1259 0.949 . S
C1264 C1270 1.368 . S
C1265 C1249 1.349 . S
C1265 H1257 0.950 . S
C1265 C1263 1.327 . S
C1266 C1254 1.349 . S
C1266 H1260 0.950 . S
C1266 C1267 1.327 . S
C1267 H1261 0.950 . S
C1267 C1266 1.327 . S
C1267 C1271 1.429 . S
C1268 C1251 1.574 . S
C1268 H1262 0.949 . S
C1268 C1272 1.368 . S
C1269 C1250 1.429 . S
C1269 C1263 1.429 . S
C1269 C1270 1.523 . S
C1270 C1251 1.368 . S
C1270 C1264 1.368 . S
C1270 C1269 1.523 . S
C1271 C1255 1.429 . S
C1271 C1267 1.429 . S
C1271 C1272 1.523 . S
C1272 C1256 1.368 . S
C1272 C1268 1.368 . S
C1272 C1271 1.523 . S
H1273 C1248 0.950 . S
H1274 C1250 0.950 . S
H1275 C1251 0.949 . S
H1276 C1253 0.950 . S
H1277 C1255 0.950 . S
C1278 C1279 1.349 . S
C1278 C1280 1.327 . S
C1278 H1303 0.950 . S
C1279 C1278 1.349 . S
C1279 C1295 1.349 . S
C1280 C1278 1.327 . S
C1280 C1299 1.429 . S
C1280 H1304 0.950 . S
C1281 C1298 1.574 . S
C1281 C1300 1.368 . S
C1281 H1305 0.949 . S
H1282 C1286 0.949 . S
C1283 C1284 1.349 . S
C1283 C1285 1.327 . S
C1283 H1306 0.950 . S
C1284 C1283 1.349 . S
C1284 C1296 1.349 . S
C1285 C1283 1.327 . S
C1285 C1301 1.429 . S
C1285 H1307 0.950 . S
C1286 H1282 0.949 . S
C1286 C1294 1.574 . S
C1286 C1302 1.368 . S
H1287 C1295 0.950 . S
H1288 C1293 0.950 . S
H1289 C1294 0.949 . S
H1290 C1296 0.950 . S
H1291 C1297 0.950 . S
H1292 C1298 0.949 . S
C1293 H1288 0.950 . S
C1293 C1295 1.327 . S
C1293 C1299 1.429 . S
C1294 C1286 1.574 . S
C1294 H1289 0.949 . S
C1294 C1300 1.368 . S
C1295 C1279 1.349 . S
C1295 H1287 0.950 . S
C1295 C1293 1.327 . S
C1296 C1284 1.349 . S
C1296 H1290 0.950 . S
C1296 C1297 1.327 . S
C1297 H1291 0.950 . S
C1297 C1296 1.327 . S
C1297 C1301 1.429 . S
C1298 C1281 1.574 . S
C1298 H1292 0.949 . S
C1298 C1302 1.368 . S
C1299 C1280 1.429 . S
C1299 C1293 1.429 . S
C1299 C1300 1.523 . S
C1300 C1281 1.368 . S
C1300 C1294 1.368 . S
C1300 C1299 1.523 . S
C1301 C1285 1.429 . S
C1301 C1297 1.429 . S
C1301 C1302 1.523 . S
C1302 C1286 1.368 . S
C1302 C1298 1.368 . S
C1302 C1301 1.523 . S
H1303 C1278 0.950 . S
H1304 C1280 0.950 . S
H1305 C1281 0.949 . S
H1306 C1283 0.950 . S
H1307 C1285 0.950 . S
C1308 C1309 1.349 . S
C1308 C1310 1.327 . S
C1308 H1333 0.950 . S
C1309 C1308 1.349 . S
C1309 C1325 1.349 . S
C1310 C1308 1.327 . S
C1310 C1329 1.429 . S
C1310 H1334 0.950 . S
C1311 C1328 1.574 . S
C1311 C1330 1.368 . S
C1311 H1335 0.949 . S
H1312 C1316 0.949 . S
C1313 C1314 1.349 . S
C1313 C1315 1.327 . S
C1313 H1336 0.950 . S
C1314 C1313 1.349 . S
C1314 C1326 1.349 . S
C1315 C1313 1.327 . S
C1315 C1331 1.429 . S
C1315 H1337 0.950 . S
C1316 H1312 0.949 . S
C1316 C1324 1.574 . S
C1316 C1332 1.368 . S
H1317 C1325 0.950 . S
H1318 C1323 0.950 . S
H1319 C1324 0.949 . S
H1320 C1326 0.950 . S
H1321 C1327 0.950 . S
H1322 C1328 0.949 . S
C1323 H1318 0.950 . S
C1323 C1325 1.327 . S
C1323 C1329 1.429 . S
C1324 C1316 1.574 . S
C1324 H1319 0.949 . S
C1324 C1330 1.368 . S
C1325 C1309 1.349 . S
C1325 H1317 0.950 . S
C1325 C1323 1.327 . S
C1326 C1314 1.349 . S
C1326 H1320 0.950 . S
C1326 C1327 1.327 . S
C1327 H1321 0.950 . S
C1327 C1326 1.327 . S
C1327 C1331 1.429 . S
C1328 C1311 1.574 . S
C1328 H1322 0.949 . S
C1328 C1332 1.368 . S
C1329 C1310 1.429 . S
C1329 C1323 1.429 . S
C1329 C1330 1.523 . S
C1330 C1311 1.368 . S
C1330 C1324 1.368 . S
C1330 C1329 1.523 . S
C1331 C1315 1.429 . S
C1331 C1327 1.429 . S
C1331 C1332 1.523 . S
C1332 C1316 1.368 . S
C1332 C1328 1.368 . S
C1332 C1331 1.523 . S
H1333 C1308 0.950 . S
H1334 C1310 0.950 . S
H1335 C1311 0.949 . S
H1336 C1313 0.950 . S
H1337 C1315 0.950 . S
C1338 C1339 1.349 . S
C1338 C1340 1.327 . S
C1338 H1363 0.950 . S
C1339 C1338 1.349 . S
C1339 C1355 1.349 . S
C1340 C1338 1.327 . S
C1340 C1359 1.429 . S
C1340 H1364 0.950 . S
C1341 C1358 1.574 . S
C1341 C1360 1.368 . S
C1341 H1365 0.949 . S
H1342 C1346 0.949 . S
C1343 C1344 1.349 . S
C1343 C1345 1.327 . S
C1343 H1366 0.950 . S
C1344 C1343 1.349 . S
C1344 C1356 1.349 . S
C1345 C1343 1.327 . S
C1345 C1361 1.429 . S
C1345 H1367 0.950 . S
C1346 H1342 0.949 . S
C1346 C1354 1.574 . S
C1346 C1362 1.368 . S
H1347 C1355 0.950 . S
H1348 C1353 0.950 . S
H1349 C1354 0.949 . S
H1350 C1356 0.950 . S
H1351 C1357 0.950 . S
H1352 C1358 0.949 . S
C1353 H1348 0.950 . S
C1353 C1355 1.327 . S
C1353 C1359 1.429 . S
C1354 C1346 1.574 . S
C1354 H1349 0.949 . S
C1354 C1360 1.368 . S
C1355 C1339 1.349 . S
C1355 H1347 0.950 . S
C1355 C1353 1.327 . S
C1356 C1344 1.349 . S
C1356 H1350 0.950 . S
C1356 C1357 1.327 . S
C1357 H1351 0.950 . S
C1357 C1356 1.327 . S
C1357 C1361 1.429 . S
C1358 C1341 1.574 . S
C1358 H1352 0.949 . S
C1358 C1362 1.368 . S
C1359 C1340 1.429 . S
C1359 C1353 1.429 . S
C1359 C1360 1.523 . S
C1360 C1341 1.368 . S
C1360 C1354 1.368 . S
C1360 C1359 1.523 . S
C1361 C1345 1.429 . S
C1361 C1357 1.429 . S
C1361 C1362 1.523 . S
C1362 C1346 1.368 . S
C1362 C1358 1.368 . S
C1362 C1361 1.523 . S
H1363 C1338 0.950 . S
H1364 C1340 0.950 . S
H1365 C1341 0.949 . S
H1366 C1343 0.950 . S
H1367 C1345 0.950 . S
C1368 C1369 1.349 . S
C1368 C1370 1.327 . S
C1368 H1393 0.950 . S
C1369 C1368 1.349 . S
C1369 C1385 1.349 . S
C1370 C1368 1.327 . S
C1370 C1389 1.429 . S
C1370 H1394 0.950 . S
C1371 C1388 1.574 . S
C1371 C1390 1.368 . S
C1371 H1395 0.949 . S
H1372 C1376 0.949 . S
C1373 C1374 1.349 . S
C1373 C1375 1.327 . S
C1373 H1396 0.950 . S
C1374 C1373 1.349 . S
C1374 C1386 1.349 . S
C1375 C1373 1.327 . S
C1375 C1391 1.429 . S
C1375 H1397 0.950 . S
C1376 H1372 0.949 . S
C1376 C1384 1.574 . S
C1376 C1392 1.368 . S
H1377 C1385 0.950 . S
H1378 C1383 0.950 . S
H1379 C1384 0.949 . S
H1380 C1386 0.950 . S
H1381 C1387 0.950 . S
H1382 C1388 0.949 . S
C1383 H1378 0.950 . S
C1383 C1385 1.327 . S
C1383 C1389 1.429 . S
C1384 C1376 1.574 . S
C1384 H1379 0.949 . S
C1384 C1390 1.368 . S
C1385 C1369 1.349 . S
C1385 H1377 0.950 . S
C1385 C1383 1.327 . S
C1386 C1374 1.349 . S
C1386 H1380 0.950 . S
C1386 C1387 1.327 . S
C1387 H1381 0.950 . S
C1387 C1386 1.327 . S
C1387 C1391 1.429 . S
C1388 C1371 1.574 . S
C1388 H1382 0.949 . S
C1388 C1392 1.368 . S
C1389 C1370 1.429 . S
C1389 C1383 1.429 . S
C1389 C1390 1.523 . S
C1390 C1371 1.368 . S
C1390 C1384 1.368 . S
C1390 C1389 1.523 . S
C1391 C1375 1.429 . S
C1391 C1387 1.429 . S
C1391 C1392 1.523 . S
C1392 C1376 1.368 . S
C1392 C1388 1.368 . S
C1392 C1391 1.523 . S
H1393 C1368 0.950 . S
H1394 C1370 0.950 . S
H1395 C1371 0.949 . S
H1396 C1373 0.950 . S
H1397 C1375 0.950 . S
C1398 C1399 1.349 . S
C1398 C1400 1.327 . S
C1398 H1423 0.950 . S
C1399 C1398 1.349 . S
C1399 C1415 1.349 . S
C1400 C1398 1.327 . S
C1400 C1419 1.429 . S
C1400 H1424 0.950 . S
C1401 C1418 1.574 . S
C1401 C1420 1.368 . S
C1401 H1425 0.949 . S
H1402 C1406 0.949 . S
C1403 C1404 1.349 . S
C1403 C1405 1.327 . S
C1403 H1426 0.950 . S
C1404 C1403 1.349 . S
C1404 C1416 1.349 . S
C1405 C1403 1.327 . S
C1405 C1421 1.429 . S
C1405 H1427 0.950 . S
C1406 H1402 0.949 . S
C1406 C1414 1.574 . S
C1406 C1422 1.368 . S
H1407 C1415 0.950 . S
H1408 C1413 0.950 . S
H1409 C1414 0.949 . S
H1410 C1416 0.950 . S
H1411 C1417 0.950 . S
H1412 C1418 0.949 . S
C1413 H1408 0.950 . S
C1413 C1415 1.327 . S
C1413 C1419 1.429 . S
C1414 C1406 1.574 . S
C1414 H1409 0.949 . S
C1414 C1420 1.368 . S
C1415 C1399 1.349 . S
C1415 H1407 0.950 . S
C1415 C1413 1.327 . S
C1416 C1404 1.349 . S
C1416 H1410 0.950 . S
C1416 C1417 1.327 . S
C1417 H1411 0.950 . S
C1417 C1416 1.327 . S
C1417 C1421 1.429 . S
C1418 C1401 1.574 . S
C1418 H1412 0.949 . S
C1418 C1422 1.368 . S
C1419 C1400 1.429 . S
C1419 C1413 1.429 . S
C1419 C1420 1.523 . S
C1420 C1401 1.368 . S
C1420 C1414 1.368 . S
C1420 C1419 1.523 . S
C1421 C1405 1.429 . S
C1421 C1417 1.429 . S
C1421 C1422 1.523 . S
C1422 C1406 1.368 . S
C1422 C1418 1.368 . S
C1422 C1421 1.523 . S
H1423 C1398 0.950 . S
H1424 C1400 0.950 . S
H1425 C1401 0.949 . S
H1426 C1403 0.950 . S
H1427 C1405 0.950 . S
C1428 C1429 1.349 . S
C1428 C1430 1.327 . S
C1428 H1453 0.950 . S
C1429 C1428 1.349 . S
C1429 C1445 1.349 . S
C1430 C1428 1.327 . S
C1430 C1449 1.429 . S
C1430 H1454 0.950 . S
C1431 C1448 1.574 . S
C1431 C1450 1.368 . S
C1431 H1455 0.949 . S
H1432 C1436 0.949 . S
C1433 C1434 1.349 . S
C1433 C1435 1.327 . S
C1433 H1456 0.950 . S
C1434 C1433 1.349 . S
C1434 C1446 1.349 . S
C1435 C1433 1.327 . S
C1435 C1451 1.429 . S
C1435 H1457 0.950 . S
C1436 H1432 0.949 . S
C1436 C1444 1.574 . S
C1436 C1452 1.368 . S
H1437 C1445 0.950 . S
H1438 C1443 0.950 . S
H1439 C1444 0.949 . S
H1440 C1446 0.950 . S
H1441 C1447 0.950 . S
H1442 C1448 0.949 . S
C1443 H1438 0.950 . S
C1443 C1445 1.327 . S
C1443 C1449 1.429 . S
C1444 C1436 1.574 . S
C1444 H1439 0.949 . S
C1444 C1450 1.368 . S
C1445 C1429 1.349 . S
C1445 H1437 0.950 . S
C1445 C1443 1.327 . S
C1446 C1434 1.349 . S
C1446 H1440 0.950 . S
C1446 C1447 1.327 . S
C1447 H1441 0.950 . S
C1447 C1446 1.327 . S
C1447 C1451 1.429 . S
C1448 C1431 1.574 . S
C1448 H1442 0.949 . S
C1448 C1452 1.368 . S
C1449 C1430 1.429 . S
C1449 C1443 1.429 . S
C1449 C1450 1.523 . S
C1450 C1431 1.368 . S
C1450 C1444 1.368 . S
C1450 C1449 1.523 . S
C1451 C1435 1.429 . S
C1451 C1447 1.429 . S
C1451 C1452 1.523 . S
C1452 C1436 1.368 . S
C1452 C1448 1.368 . S
C1452 C1451 1.523 . S
H1453 C1428 0.950 . S
H1454 C1430 0.950 . S
H1455 C1431 0.949 . S
H1456 C1433 0.950 . S
H1457 C1435 0.950 . S
C1458 C1459 1.349 . S
C1458 C1460 1.327 . S
C1458 H1483 0.950 . S
C1459 C1458 1.349 . S
C1459 C1475 1.349 . S
C1460 C1458 1.327 . S
C1460 C1479 1.429 . S
C1460 H1484 0.950 . S
C1461 C1478 1.574 . S
C1461 C1480 1.368 . S
C1461 H1485 0.949 . S
H1462 C1466 0.949 . S
C1463 C1464 1.349 . S
C1463 C1465 1.327 . S
C1463 H1486 0.950 . S
C1464 C1463 1.349 . S
C1464 C1476 1.349 . S
C1465 C1463 1.327 . S
C1465 C1481 1.429 . S
C1465 H1487 0.950 . S
C1466 H1462 0.949 . S
C1466 C1474 1.574 . S
C1466 C1482 1.368 . S
H1467 C1475 0.950 . S
H1468 C1473 0.950 . S
H1469 C1474 0.949 . S
H1470 C1476 0.950 . S
H1471 C1477 0.950 . S
H1472 C1478 0.949 . S
C1473 H1468 0.950 . S
C1473 C1475 1.327 . S
C1473 C1479 1.429 . S
C1474 C1466 1.574 . S
C1474 H1469 0.949 . S
C1474 C1480 1.368 . S
C1475 C1459 1.349 . S
C1475 H1467 0.950 . S
C1475 C1473 1.327 . S
C1476 C1464 1.349 . S
C1476 H1470 0.950 . S
C1476 C1477 1.327 . S
C1477 H1471 0.950 . S
C1477 C1476 1.327 . S
C1477 C1481 1.429 . S
C1478 C1461 1.574 . S
C1478 H1472 0.949 . S
C1478 C1482 1.368 . S
C1479 C1460 1.429 . S
C1479 C1473 1.429 . S
C1479 C1480 1.523 . S
C1480 C1461 1.368 . S
C1480 C1474 1.368 . S
C1480 C1479 1.523 . S
C1481 C1465 1.429 . S
C1481 C1477 1.429 . S
C1481 C1482 1.523 . S
C1482 C1466 1.368 . S
C1482 C1478 1.368 . S
C1482 C1481 1.523 . S
H1483 C1458 0.950 . S
H1484 C1460 0.950 . S
H1485 C1461 0.949 . S
H1486 C1463 0.950 . S
H1487 C1465 0.950 . S
C1488 C1489 1.349 . S
C1488 C1490 1.327 . S
C1488 H1513 0.950 . S
C1489 C1488 1.349 . S
C1489 C1505 1.349 . S
C1490 C1488 1.327 . S
C1490 C1509 1.429 . S
C1490 H1514 0.950 1_556 S
C1491 C1508 1.586 . S
C1491 C1510 1.387 . S
C1491 H1515 0.949 . S
H1492 C1496 0.949 . S
C1493 C1494 1.349 . S
C1493 C1495 1.327 . S
C1493 H1516 0.950 . S
C1494 C1493 1.349 . S
C1494 C1506 1.349 . S
C1495 C1493 1.327 . S
C1495 C1511 1.429 . S
C1495 H1517 0.950 . S
C1496 H1492 0.949 . S
C1496 C1504 1.574 . S
C1496 C1512 1.368 . S
H1497 C1505 0.950 . S
H1498 C1503 0.950 . S
H1499 C1504 0.949 . S
H1500 C1506 0.950 . S
H1501 C1507 0.950 . S
H1502 C1508 0.960 . S
C1503 H1498 0.950 . S
C1503 C1505 1.327 . S
C1503 C1509 1.429 . S
C1504 C1496 1.574 . S
C1504 H1499 0.949 . S
C1504 C1510 1.342 1_554 S
C1505 C1489 1.349 . S
C1505 H1497 0.950 . S
C1505 C1503 1.327 . S
C1506 C1494 1.349 . S
C1506 H1500 0.950 . S
C1506 C1507 1.327 . S
C1507 H1501 0.950 . S
C1507 C1506 1.327 . S
C1507 C1511 1.429 . S
C1508 C1491 1.586 . S
C1508 H1502 0.960 . S
C1508 C1512 1.348 1_556 S
C1509 C1490 1.429 . S
C1509 C1503 1.429 . S
C1509 C1510 1.540 . S
C1510 C1491 1.387 . S
C1510 C1504 1.342 1_556 S
C1510 C1509 1.540 . S
C1511 C1495 1.429 . S
C1511 C1507 1.429 . S
C1511 C1512 1.523 . S
C1512 C1496 1.368 . S
C1512 C1508 1.348 1_554 S
C1512 C1511 1.523 . S
H1513 C1488 0.950 . S
H1514 C1490 0.950 1_554 S
H1515 C1491 0.949 . S
H1516 C1493 0.950 . S
H1517 C1495 0.950 . S
C1518 C1519 1.349 . S
C1518 C1520 1.327 . S
C1518 H1543 0.950 . S
C1519 C1518 1.349 . S
C1519 C1535 1.349 . S
C1520 C1518 1.327 . S
C1520 C1539 1.429 . S
C1520 H1544 0.950 . S
C1521 C1538 1.574 . S
C1521 C1540 1.368 . S
C1521 H1545 0.949 . S
H1522 C1526 0.949 . S
C1523 C1524 1.349 . S
C1523 C1525 1.327 . S
C1523 H1546 0.950 . S
C1524 C1523 1.349 . S
C1524 C1536 1.349 . S
C1525 C1523 1.327 . S
C1525 C1541 1.429 . S
C1525 H1547 0.950 . S
C1526 H1522 0.949 . S
C1526 C1534 1.574 . S
C1526 C1542 1.368 . S
H1527 C1535 0.950 . S
H1528 C1533 0.950 . S
H1529 C1534 0.949 . S
H1530 C1536 0.950 . S
H1531 C1537 0.950 . S
H1532 C1538 0.949 . S
C1533 H1528 0.950 . S
C1533 C1535 1.327 . S
C1533 C1539 1.429 . S
C1534 C1526 1.574 . S
C1534 H1529 0.949 . S
C1534 C1540 1.368 . S
C1535 C1519 1.349 . S
C1535 H1527 0.950 . S
C1535 C1533 1.327 . S
C1536 C1524 1.349 . S
C1536 H1530 0.950 . S
C1536 C1537 1.327 . S
C1537 H1531 0.950 . S
C1537 C1536 1.327 . S
C1537 C1541 1.429 . S
C1538 C1521 1.574 . S
C1538 H1532 0.949 . S
C1538 C1542 1.368 . S
C1539 C1520 1.429 . S
C1539 C1533 1.429 . S
C1539 C1540 1.523 . S
C1540 C1521 1.368 . S
C1540 C1534 1.368 . S
C1540 C1539 1.523 . S
C1541 C1525 1.429 . S
C1541 C1537 1.429 . S
C1541 C1542 1.523 . S
C1542 C1526 1.368 . S
C1542 C1538 1.368 . S
C1542 C1541 1.523 . S
H1543 C1518 0.950 . S
H1544 C1520 0.950 . S
H1545 C1521 0.949 . S
H1546 C1523 0.950 . S
H1547 C1525 0.950 . S
C1548 C1549 1.349 . S
C1548 C1550 1.327 . S
C1548 H1573 0.950 . S
C1549 C1548 1.349 . S
C1549 C1565 1.349 . S
C1550 C1548 1.327 . S
C1550 C1569 1.429 . S
C1550 H1574 0.950 . S
C1551 C1568 1.574 . S
C1551 C1570 1.368 . S
C1551 H1575 0.949 . S
H1552 C1556 0.949 . S
C1553 C1554 1.349 . S
C1553 C1555 1.327 . S
C1553 H1576 0.950 . S
C1554 C1553 1.349 . S
C1554 C1566 1.349 . S
C1555 C1553 1.327 . S
C1555 C1571 1.429 . S
C1555 H1577 0.950 . S
C1556 H1552 0.949 . S
C1556 C1564 1.574 . S
C1556 C1572 1.368 . S
H1557 C1565 0.950 . S
H1558 C1563 0.950 . S
H1559 C1564 0.949 . S
H1560 C1566 0.950 . S
H1561 C1567 0.950 . S
H1562 C1568 0.949 . S
C1563 H1558 0.950 . S
C1563 C1565 1.327 . S
C1563 C1569 1.429 . S
C1564 C1556 1.574 . S
C1564 H1559 0.949 . S
C1564 C1570 1.368 . S
C1565 C1549 1.349 . S
C1565 H1557 0.950 . S
C1565 C1563 1.327 . S
C1566 C1554 1.349 . S
C1566 H1560 0.950 . S
C1566 C1567 1.327 . S
C1567 H1561 0.950 . S
C1567 C1566 1.327 . S
C1567 C1571 1.429 . S
C1568 C1551 1.574 . S
C1568 H1562 0.949 . S
C1568 C1572 1.368 . S
C1569 C1550 1.429 . S
C1569 C1563 1.429 . S
C1569 C1570 1.523 . S
C1570 C1551 1.368 . S
C1570 C1564 1.368 . S
C1570 C1569 1.523 . S
C1571 C1555 1.429 . S
C1571 C1567 1.429 . S
C1571 C1572 1.523 . S
C1572 C1556 1.368 . S
C1572 C1568 1.368 . S
C1572 C1571 1.523 . S
H1573 C1548 0.950 . S
H1574 C1550 0.950 . S
H1575 C1551 0.949 . S
H1576 C1553 0.950 . S
H1577 C1555 0.950 . S
C1578 C1579 1.349 . S
C1578 C1580 1.327 . S
C1578 H1603 0.950 . S
C1579 C1578 1.349 . S
C1579 C1595 1.349 . S
C1580 C1578 1.327 . S
C1580 C1599 1.429 . S
C1580 H1604 0.950 . S
C1581 C1598 1.574 . S
C1581 C1600 1.368 . S
C1581 H1605 0.949 . S
H1582 C1586 0.949 . S
C1583 C1584 1.349 . S
C1583 C1585 1.327 . S
C1583 H1606 0.950 . S
C1584 C1583 1.349 . S
C1584 C1596 1.349 . S
C1585 C1583 1.327 . S
C1585 C1601 1.429 . S
C1585 H1607 0.950 . S
C1586 H1582 0.949 . S
C1586 C1594 1.574 . S
C1586 C1602 1.368 . S
H1587 C1595 0.950 . S
H1588 C1593 0.950 . S
H1589 C1594 0.949 . S
H1590 C1596 0.950 . S
H1591 C1597 0.950 . S
H1592 C1598 0.949 . S
C1593 H1588 0.950 . S
C1593 C1595 1.327 . S
C1593 C1599 1.429 . S
C1594 C1586 1.574 . S
C1594 H1589 0.949 . S
C1594 C1600 1.368 . S
C1595 C1579 1.349 . S
C1595 H1587 0.950 . S
C1595 C1593 1.327 . S
C1596 C1584 1.349 . S
C1596 H1590 0.950 . S
C1596 C1597 1.327 . S
C1597 H1591 0.950 . S
C1597 C1596 1.327 . S
C1597 C1601 1.429 . S
C1598 C1581 1.574 . S
C1598 H1592 0.949 . S
C1598 C1602 1.368 . S
C1599 C1580 1.429 . S
C1599 C1593 1.429 . S
C1599 C1600 1.523 . S
C1600 C1581 1.368 . S
C1600 C1594 1.368 . S
C1600 C1599 1.523 . S
C1601 C1585 1.429 . S
C1601 C1597 1.429 . S
C1601 C1602 1.523 . S
C1602 C1586 1.368 . S
C1602 C1598 1.368 . S
C1602 C1601 1.523 . S
H1603 C1578 0.950 . S
H1604 C1580 0.950 . S
H1605 C1581 0.949 . S
H1606 C1583 0.950 . S
H1607 C1585 0.950 . S
C1608 C1609 1.349 . S
C1608 C1610 1.327 . S
C1608 H1633 0.950 . S
C1609 C1608 1.349 . S
C1609 C1625 1.349 . S
C1610 C1608 1.327 . S
C1610 C1629 1.429 . S
C1610 H1634 0.950 . S
C1611 C1628 1.574 . S
C1611 C1630 1.368 . S
C1611 H1635 0.949 . S
H1612 C1616 0.949 . S
C1613 C1614 1.349 . S
C1613 C1615 1.327 . S
C1613 H1636 0.950 . S
C1614 C1613 1.349 . S
C1614 C1626 1.349 . S
C1615 C1613 1.327 . S
C1615 C1631 1.429 . S
C1615 H1637 0.950 . S
C1616 H1612 0.949 . S
C1616 C1624 1.574 . S
C1616 C1632 1.368 . S
H1617 C1625 0.950 . S
H1618 C1623 0.950 . S
H1619 C1624 0.949 . S
H1620 C1626 0.950 . S
H1621 C1627 0.950 . S
H1622 C1628 0.949 . S
C1623 H1618 0.950 . S
C1623 C1625 1.327 . S
C1623 C1629 1.429 . S
C1624 C1616 1.574 . S
C1624 H1619 0.949 . S
C1624 C1630 1.368 . S
C1625 C1609 1.349 . S
C1625 H1617 0.950 . S
C1625 C1623 1.327 . S
C1626 C1614 1.349 . S
C1626 H1620 0.950 . S
C1626 C1627 1.327 . S
C1627 H1621 0.950 . S
C1627 C1626 1.327 . S
C1627 C1631 1.429 . S
C1628 C1611 1.574 . S
C1628 H1622 0.949 . S
C1628 C1632 1.368 . S
C1629 C1610 1.429 . S
C1629 C1623 1.429 . S
C1629 C1630 1.523 . S
C1630 C1611 1.368 . S
C1630 C1624 1.368 . S
C1630 C1629 1.523 . S
C1631 C1615 1.429 . S
C1631 C1627 1.429 . S
C1631 C1632 1.523 . S
C1632 C1616 1.368 . S
C1632 C1628 1.368 . S
C1632 C1631 1.523 . S
H1633 C1608 0.950 . S
H1634 C1610 0.950 . S
H1635 C1611 0.949 . S
H1636 C1613 0.950 . S
H1637 C1615 0.950 . S
C1638 C1639 1.349 . S
C1638 C1640 1.327 . S
C1638 H1663 0.905 1_554 S
C1639 C1638 1.349 . S
C1639 C1655 1.349 . S
C1640 C1638 1.327 . S
C1640 C1659 1.429 . S
C1640 H1664 0.950 1_554 S
C1641 C1658 1.574 . S
C1641 C1660 1.368 . S
C1641 H1665 0.949 . S
H1642 C1646 0.949 . S
C1643 C1644 1.349 1_554 S
C1643 C1645 1.327 . S
C1643 H1666 0.950 . S
C1644 C1643 1.349 1_556 S
C1644 C1656 1.349 . S
C1645 C1643 1.327 . S
C1645 C1661 1.429 1_554 S
C1645 H1667 0.950 . S
C1646 H1642 0.949 . S
C1646 C1654 1.574 . S
C1646 C1662 1.368 1_556 S
H1647 C1655 0.950 . S
H1648 C1653 0.950 . S
H1649 C1654 0.949 . S
H1650 C1656 0.950 . S
H1651 C1657 0.950 . S
H1652 C1658 0.949 . S
C1653 H1648 0.950 . S
C1653 C1655 1.327 . S
C1653 C1659 1.429 . S
C1654 C1646 1.574 . S
C1654 H1649 0.949 . S
C1654 C1660 1.368 1_556 S
C1655 C1639 1.349 . S
C1655 H1647 0.950 . S
C1655 C1653 1.327 . S
C1656 C1644 1.349 . S
C1656 H1650 0.950 . S
C1656 C1657 1.327 . S
C1657 H1651 0.950 . S
C1657 C1656 1.327 . S
C1657 C1661 1.429 . S
C1658 C1641 1.574 . S
C1658 H1652 0.949 . S
C1658 C1662 1.368 . S
C1659 C1640 1.429 . S
C1659 C1653 1.429 . S
C1659 C1660 1.523 . S
C1660 C1641 1.368 . S
C1660 C1654 1.368 1_554 S
C1660 C1659 1.523 . S
C1661 C1645 1.429 1_556 S
C1661 C1657 1.429 . S
C1661 C1662 1.523 1_556 S
C1662 C1646 1.368 1_554 S
C1662 C1658 1.368 . S
C1662 C1661 1.523 1_554 S
H1663 C1638 0.905 1_556 S
H1664 C1640 0.950 1_556 S
H1665 C1641 0.949 . S
H1666 C1643 0.950 . S
H1667 C1645 0.950 . S
C1668 C1669 1.349 . S
C1668 C1670 1.327 . S
C1668 H1693 0.950 . S
C1669 C1668 1.349 . S
C1669 C1685 1.349 . S
C1670 C1668 1.327 . S
C1670 C1689 1.429 . S
C1670 H1694 0.950 . S
C1671 C1688 1.574 . S
C1671 C1690 1.368 . S
C1671 H1695 0.949 . S
H1672 C1676 0.949 . S
C1673 C1674 1.349 . S
C1673 C1675 1.327 . S
C1673 H1696 0.950 . S
C1674 C1673 1.349 . S
C1674 C1686 1.349 . S
C1675 C1673 1.327 . S
C1675 C1691 1.429 . S
C1675 H1697 0.950 . S
C1676 H1672 0.949 . S
C1676 C1684 1.574 . S
C1676 C1692 1.368 . S
H1677 C1685 0.950 . S
H1678 C1683 0.950 . S
H1679 C1684 0.949 . S
H1680 C1686 0.950 . S
H1681 C1687 0.950 . S
H1682 C1688 0.949 . S
C1683 H1678 0.950 . S
C1683 C1685 1.327 . S
C1683 C1689 1.429 . S
C1684 C1676 1.574 . S
C1684 H1679 0.949 . S
C1684 C1690 1.368 . S
C1685 C1669 1.349 . S
C1685 H1677 0.950 . S
C1685 C1683 1.327 . S
C1686 C1674 1.349 . S
C1686 H1680 0.950 . S
C1686 C1687 1.327 . S
C1687 H1681 0.950 . S
C1687 C1686 1.327 . S
C1687 C1691 1.429 . S
C1688 C1671 1.574 . S
C1688 H1682 0.949 . S
C1688 C1692 1.368 . S
C1689 C1670 1.429 . S
C1689 C1683 1.429 . S
C1689 C1690 1.523 . S
C1690 C1671 1.368 . S
C1690 C1684 1.368 . S
C1690 C1689 1.523 . S
C1691 C1675 1.429 . S
C1691 C1687 1.429 . S
C1691 C1692 1.523 . S
C1692 C1676 1.368 . S
C1692 C1688 1.368 . S
C1692 C1691 1.523 . S
H1693 C1668 0.950 . S
H1694 C1670 0.950 . S
H1695 C1671 0.949 . S
H1696 C1673 0.950 . S
H1697 C1675 0.950 . S
C1698 C1699 1.349 . S
C1698 C1700 1.327 . S
C1698 H1723 0.950 . S
C1699 C1698 1.349 . S
C1699 C1715 1.349 . S
C1700 C1698 1.327 . S
C1700 C1719 1.429 . S
C1700 H1724 0.950 . S
C1701 C1718 1.574 . S
C1701 C1720 1.368 . S
C1701 H1725 0.949 . S
H1702 C1706 0.949 . S
C1703 C1704 1.349 . S
C1703 C1705 1.327 . S
C1703 H1726 0.950 . S
C1704 C1703 1.349 . S
C1704 C1716 1.349 . S
C1705 C1703 1.327 . S
C1705 C1721 1.429 . S
C1705 H1727 0.950 . S
C1706 H1702 0.949 . S
C1706 C1714 1.574 . S
C1706 C1722 1.368 . S
H1707 C1715 0.950 . S
H1708 C1713 0.950 . S
H1709 C1714 0.949 . S
H1710 C1716 0.950 . S
H1711 C1717 0.950 . S
H1712 C1718 0.949 . S
C1713 H1708 0.950 . S
C1713 C1715 1.327 . S
C1713 C1719 1.429 . S
C1714 C1706 1.574 . S
C1714 H1709 0.949 . S
C1714 C1720 1.368 . S
C1715 C1699 1.349 . S
C1715 H1707 0.950 . S
C1715 C1713 1.327 . S
C1716 C1704 1.349 . S
C1716 H1710 0.950 . S
C1716 C1717 1.327 . S
C1717 H1711 0.950 . S
C1717 C1716 1.327 . S
C1717 C1721 1.429 . S
C1718 C1701 1.574 . S
C1718 H1712 0.949 . S
C1718 C1722 1.368 . S
C1719 C1700 1.429 . S
C1719 C1713 1.429 . S
C1719 C1720 1.523 . S
C1720 C1701 1.368 . S
C1720 C1714 1.368 . S
C1720 C1719 1.523 . S
C1721 C1705 1.429 . S
C1721 C1717 1.429 . S
C1721 C1722 1.523 . S
C1722 C1706 1.368 . S
C1722 C1718 1.368 . S
C1722 C1721 1.523 . S
H1723 C1698 0.950 . S
H1724 C1700 0.950 . S
H1725 C1701 0.949 . S
H1726 C1703 0.950 . S
H1727 C1705 0.950 . S
C1728 C1729 1.349 . S
C1728 C1730 1.327 . S
C1728 H1753 0.950 . S
C1729 C1728 1.349 . S
C1729 C1745 1.349 . S
C1730 C1728 1.327 . S
C1730 C1749 1.429 . S
C1730 H1754 0.950 . S
C1731 C1748 1.574 . S
C1731 C1750 1.368 . S
C1731 H1755 0.949 . S
H1732 C1736 0.949 . S
C1733 C1734 1.349 . S
C1733 C1735 1.327 . S
C1733 H1756 0.950 . S
C1734 C1733 1.349 . S
C1734 C1746 1.349 . S
C1735 C1733 1.327 . S
C1735 C1751 1.429 . S
C1735 H1757 0.950 . S
C1736 H1732 0.949 . S
C1736 C1744 1.574 . S
C1736 C1752 1.368 . S
H1737 C1745 0.950 . S
H1738 C1743 0.950 . S
H1739 C1744 0.949 . S
H1740 C1746 0.950 . S
H1741 C1747 0.950 . S
H1742 C1748 0.949 . S
C1743 H1738 0.950 . S
C1743 C1745 1.327 . S
C1743 C1749 1.429 . S
C1744 C1736 1.574 . S
C1744 H1739 0.949 . S
C1744 C1750 1.368 . S
C1745 C1729 1.349 . S
C1745 H1737 0.950 . S
C1745 C1743 1.327 . S
C1746 C1734 1.349 . S
C1746 H1740 0.950 . S
C1746 C1747 1.327 . S
C1747 H1741 0.950 . S
C1747 C1746 1.327 . S
C1747 C1751 1.429 . S
C1748 C1731 1.574 . S
C1748 H1742 0.949 . S
C1748 C1752 1.368 . S
C1749 C1730 1.429 . S
C1749 C1743 1.429 . S
C1749 C1750 1.523 . S
C1750 C1731 1.368 . S
C1750 C1744 1.368 . S
C1750 C1749 1.523 . S
C1751 C1735 1.429 . S
C1751 C1747 1.429 . S
C1751 C1752 1.523 . S
C1752 C1736 1.368 . S
C1752 C1748 1.368 . S
C1752 C1751 1.523 . S
H1753 C1728 0.950 . S
H1754 C1730 0.950 . S
H1755 C1731 0.949 . S
H1756 C1733 0.950 . S
H1757 C1735 0.950 . S
C1758 C1759 1.349 . S
C1758 C1760 1.327 . S
C1758 H1783 0.950 . S
C1759 C1758 1.349 . S
C1759 C1775 1.349 . S
C1760 C1758 1.327 . S
C1760 C1779 1.429 . S
C1760 H1784 0.950 . S
C1761 C1778 1.574 . S
C1761 C1780 1.368 . S
C1761 H1785 0.949 . S
H1762 C1766 0.949 . S
C1763 C1764 1.349 . S
C1763 C1765 1.327 . S
C1763 H1786 0.950 . S
C1764 C1763 1.349 . S
C1764 C1776 1.349 . S
C1765 C1763 1.327 . S
C1765 C1781 1.429 . S
C1765 H1787 0.950 . S
C1766 H1762 0.949 . S
C1766 C1774 1.574 . S
C1766 C1782 1.368 . S
H1767 C1775 0.950 . S
H1768 C1773 0.950 . S
H1769 C1774 0.949 . S
H1770 C1776 0.950 . S
H1771 C1777 0.950 . S
H1772 C1778 0.949 . S
C1773 H1768 0.950 . S
C1773 C1775 1.327 . S
C1773 C1779 1.429 . S
C1774 C1766 1.574 . S
C1774 H1769 0.949 . S
C1774 C1780 1.368 . S
C1775 C1759 1.349 . S
C1775 H1767 0.950 . S
C1775 C1773 1.327 . S
C1776 C1764 1.349 . S
C1776 H1770 0.950 . S
C1776 C1777 1.327 . S
C1777 H1771 0.950 . S
C1777 C1776 1.327 . S
C1777 C1781 1.429 . S
C1778 C1761 1.574 . S
C1778 H1772 0.949 . S
C1778 C1782 1.368 . S
C1779 C1760 1.429 . S
C1779 C1773 1.429 . S
C1779 C1780 1.523 . S
C1780 C1761 1.368 . S
C1780 C1774 1.368 . S
C1780 C1779 1.523 . S
C1781 C1765 1.429 . S
C1781 C1777 1.429 . S
C1781 C1782 1.523 . S
C1782 C1766 1.368 . S
C1782 C1778 1.368 . S
C1782 C1781 1.523 . S
H1783 C1758 0.950 . S
H1784 C1760 0.950 . S
H1785 C1761 0.949 . S
H1786 C1763 0.950 . S
H1787 C1765 0.950 . S
C1788 C1789 1.349 . S
C1788 C1790 1.327 . S
C1788 H1813 0.950 . S
C1789 C1788 1.349 . S
C1789 C1805 1.349 . S
C1790 C1788 1.327 . S
C1790 C1809 1.429 . S
C1790 H1814 0.950 . S
C1791 C1808 1.574 . S
C1791 C1810 1.368 . S
C1791 H1815 0.949 . S
H1792 C1796 0.949 . S
C1793 C1794 1.349 . S
C1793 C1795 1.327 . S
C1793 H1816 0.950 . S
C1794 C1793 1.349 . S
C1794 C1806 1.349 . S
C1795 C1793 1.327 . S
C1795 C1811 1.429 . S
C1795 H1817 0.950 . S
C1796 H1792 0.949 . S
C1796 C1804 1.574 . S
C1796 C1812 1.368 . S
H1797 C1805 0.950 . S
H1798 C1803 0.950 . S
H1799 C1804 0.949 . S
H1800 C1806 0.950 . S
H1801 C1807 0.950 . S
H1802 C1808 0.949 . S
C1803 H1798 0.950 . S
C1803 C1805 1.327 . S
C1803 C1809 1.429 . S
C1804 C1796 1.574 . S
C1804 H1799 0.949 . S
C1804 C1810 1.368 . S
C1805 C1789 1.349 . S
C1805 H1797 0.950 . S
C1805 C1803 1.327 . S
C1806 C1794 1.349 . S
C1806 H1800 0.950 . S
C1806 C1807 1.327 . S
C1807 H1801 0.950 . S
C1807 C1806 1.327 . S
C1807 C1811 1.429 . S
C1808 C1791 1.574 . S
C1808 H1802 0.949 . S
C1808 C1812 1.368 . S
C1809 C1790 1.429 . S
C1809 C1803 1.429 . S
C1809 C1810 1.523 . S
C1810 C1791 1.368 . S
C1810 C1804 1.368 . S
C1810 C1809 1.523 . S
C1811 C1795 1.429 . S
C1811 C1807 1.429 . S
C1811 C1812 1.523 . S
C1812 C1796 1.368 . S
C1812 C1808 1.368 . S
C1812 C1811 1.523 . S
H1813 C1788 0.950 . S
H1814 C1790 0.950 . S
H1815 C1791 0.949 . S
H1816 C1793 0.950 . S
H1817 C1795 0.950 . S
C1818 C1819 1.349 . S
C1818 C1820 1.327 . S
C1818 H1843 0.950 . S
C1819 C1818 1.349 . S
C1819 C1835 1.349 . S
C1820 C1818 1.327 . S
C1820 C1839 1.429 . S
C1820 H1844 0.950 . S
C1821 C1838 1.574 . S
C1821 C1840 1.368 . S
C1821 H1845 0.949 . S
H1822 C1826 0.949 . S
C1823 C1824 1.349 . S
C1823 C1825 1.327 . S
C1823 H1846 0.950 . S
C1824 C1823 1.349 . S
C1824 C1836 1.349 . S
C1825 C1823 1.327 . S
C1825 C1841 1.429 . S
C1825 H1847 0.950 . S
C1826 H1822 0.949 . S
C1826 C1834 1.574 . S
C1826 C1842 1.368 . S
H1827 C1835 0.950 . S
H1828 C1833 0.950 . S
H1829 C1834 0.949 . S
H1830 C1836 0.950 . S
H1831 C1837 0.950 . S
H1832 C1838 0.949 . S
C1833 H1828 0.950 . S
C1833 C1835 1.327 . S
C1833 C1839 1.429 . S
C1834 C1826 1.574 . S
C1834 H1829 0.949 . S
C1834 C1840 1.368 . S
C1835 C1819 1.349 . S
C1835 H1827 0.950 . S
C1835 C1833 1.327 . S
C1836 C1824 1.349 . S
C1836 H1830 0.950 . S
C1836 C1837 1.327 . S
C1837 H1831 0.950 . S
C1837 C1836 1.327 . S
C1837 C1841 1.429 . S
C1838 C1821 1.574 . S
C1838 H1832 0.949 . S
C1838 C1842 1.368 . S
C1839 C1820 1.429 . S
C1839 C1833 1.429 . S
C1839 C1840 1.523 . S
C1840 C1821 1.368 . S
C1840 C1834 1.368 . S
C1840 C1839 1.523 . S
C1841 C1825 1.429 . S
C1841 C1837 1.429 . S
C1841 C1842 1.523 . S
C1842 C1826 1.368 . S
C1842 C1838 1.368 . S
C1842 C1841 1.523 . S
H1843 C1818 0.950 . S
H1844 C1820 0.950 . S
H1845 C1821 0.949 . S
H1846 C1823 0.950 . S
H1847 C1825 0.950 . S
C1848 C1849 1.349 . S
C1848 C1850 1.327 . S
C1848 H1873 0.950 . S
C1849 C1848 1.349 . S
C1849 C1865 1.349 . S
C1850 C1848 1.327 . S
C1850 C1869 1.429 . S
C1850 H1874 0.950 . S
C1851 C1868 1.574 . S
C1851 C1870 1.368 . S
C1851 H1875 0.949 . S
H1852 C1856 0.949 . S
C1853 C1854 1.349 . S
C1853 C1855 1.327 . S
C1853 H1876 0.950 . S
C1854 C1853 1.349 . S
C1854 C1866 1.349 . S
C1855 C1853 1.327 . S
C1855 C1871 1.429 . S
C1855 H1877 0.950 . S
C1856 H1852 0.949 . S
C1856 C1864 1.574 . S
C1856 C1872 1.368 . S
H1857 C1865 0.950 . S
H1858 C1863 0.950 . S
H1859 C1864 0.949 . S
H1860 C1866 0.950 . S
H1861 C1867 0.950 . S
H1862 C1868 0.949 . S
C1863 H1858 0.950 . S
C1863 C1865 1.327 . S
C1863 C1869 1.429 . S
C1864 C1856 1.574 . S
C1864 H1859 0.949 . S
C1864 C1870 1.368 . S
C1865 C1849 1.349 . S
C1865 H1857 0.950 . S
C1865 C1863 1.327 . S
C1866 C1854 1.349 . S
C1866 H1860 0.950 . S
C1866 C1867 1.327 . S
C1867 H1861 0.950 . S
C1867 C1866 1.327 . S
C1867 C1871 1.429 . S
C1868 C1851 1.574 . S
C1868 H1862 0.949 . S
C1868 C1872 1.368 . S
C1869 C1850 1.429 . S
C1869 C1863 1.429 . S
C1869 C1870 1.523 . S
C1870 C1851 1.368 . S
C1870 C1864 1.368 . S
C1870 C1869 1.523 . S
C1871 C1855 1.429 . S
C1871 C1867 1.429 . S
C1871 C1872 1.523 . S
C1872 C1856 1.368 . S
C1872 C1868 1.368 . S
C1872 C1871 1.523 . S
H1873 C1848 0.950 . S
H1874 C1850 0.950 . S
H1875 C1851 0.949 . S
H1876 C1853 0.950 . S
H1877 C1855 0.950 . S
C1878 C1879 1.349 . S
C1878 C1880 1.327 . S
C1878 H1903 0.950 . S
C1879 C1878 1.349 . S
C1879 C1895 1.349 . S
C1880 C1878 1.327 . S
C1880 C1899 1.429 . S
C1880 H1904 0.950 . S
C1881 C1898 1.574 . S
C1881 C1900 1.368 . S
C1881 H1905 0.949 . S
H1882 C1886 0.949 . S
C1883 C1884 1.349 . S
C1883 C1885 1.327 . S
C1883 H1906 0.950 . S
C1884 C1883 1.349 . S
C1884 C1896 1.349 . S
C1885 C1883 1.327 . S
C1885 C1901 1.429 . S
C1885 H1907 0.950 . S
C1886 H1882 0.949 . S
C1886 C1894 1.574 . S
C1886 C1902 1.368 . S
H1887 C1895 0.950 . S
H1888 C1893 0.950 . S
H1889 C1894 0.949 . S
H1890 C1896 0.950 . S
H1891 C1897 0.950 . S
H1892 C1898 0.949 . S
C1893 H1888 0.950 . S
C1893 C1895 1.327 . S
C1893 C1899 1.429 . S
C1894 C1886 1.574 . S
C1894 H1889 0.949 . S
C1894 C1900 1.368 . S
C1895 C1879 1.349 . S
C1895 H1887 0.950 . S
C1895 C1893 1.327 . S
C1896 C1884 1.349 . S
C1896 H1890 0.950 . S
C1896 C1897 1.327 . S
C1897 H1891 0.950 . S
C1897 C1896 1.327 . S
C1897 C1901 1.429 . S
C1898 C1881 1.574 . S
C1898 H1892 0.949 . S
C1898 C1902 1.368 . S
C1899 C1880 1.429 . S
C1899 C1893 1.429 . S
C1899 C1900 1.523 . S
C1900 C1881 1.368 . S
C1900 C1894 1.368 . S
C1900 C1899 1.523 . S
C1901 C1885 1.429 . S
C1901 C1897 1.429 . S
C1901 C1902 1.523 . S
C1902 C1886 1.368 . S
C1902 C1898 1.368 . S
C1902 C1901 1.523 . S
H1903 C1878 0.950 . S
H1904 C1880 0.950 . S
H1905 C1881 0.949 . S
H1906 C1883 0.950 . S
H1907 C1885 0.950 . S
C1908 C1909 1.349 . S
C1908 C1910 1.327 . S
C1908 H1933 0.950 . S
C1909 C1908 1.349 . S
C1909 C1925 1.349 . S
C1910 C1908 1.327 . S
C1910 C1929 1.429 . S
C1910 H1934 0.950 . S
C1911 C1928 1.574 . S
C1911 C1930 1.368 . S
C1911 H1935 0.949 . S
H1912 C1916 0.949 . S
C1913 C1914 1.349 . S
C1913 C1915 1.327 . S
C1913 H1936 0.950 . S
C1914 C1913 1.349 . S
C1914 C1926 1.349 . S
C1915 C1913 1.327 . S
C1915 C1931 1.429 . S
C1915 H1937 0.950 . S
C1916 H1912 0.949 . S
C1916 C1924 1.574 . S
C1916 C1932 1.368 . S
H1917 C1925 0.950 . S
H1918 C1923 0.950 . S
H1919 C1924 0.949 . S
H1920 C1926 0.950 . S
H1921 C1927 0.950 . S
H1922 C1928 0.949 . S
C1923 H1918 0.950 . S
C1923 C1925 1.327 . S
C1923 C1929 1.429 . S
C1924 C1916 1.574 . S
C1924 H1919 0.949 . S
C1924 C1930 1.368 . S
C1925 C1909 1.349 . S
C1925 H1917 0.950 . S
C1925 C1923 1.327 . S
C1926 C1914 1.349 . S
C1926 H1920 0.950 . S
C1926 C1927 1.327 . S
C1927 H1921 0.950 . S
C1927 C1926 1.327 . S
C1927 C1931 1.429 . S
C1928 C1911 1.574 . S
C1928 H1922 0.949 . S
C1928 C1932 1.368 . S
C1929 C1910 1.429 . S
C1929 C1923 1.429 . S
C1929 C1930 1.523 . S
C1930 C1911 1.368 . S
C1930 C1924 1.368 . S
C1930 C1929 1.523 . S
C1931 C1915 1.429 . S
C1931 C1927 1.429 . S
C1931 C1932 1.523 . S
C1932 C1916 1.368 . S
C1932 C1928 1.368 . S
C1932 C1931 1.523 . S
H1933 C1908 0.950 . S
H1934 C1910 0.950 . S
H1935 C1911 0.949 . S
H1936 C1913 0.950 . S
H1937 C1915 0.950 . S
C1938 C1939 1.349 . S
C1938 C1940 1.327 . S
C1938 H1963 0.950 . S
C1939 C1938 1.349 . S
C1939 C1955 1.349 . S
C1940 C1938 1.327 . S
C1940 C1959 1.429 . S
C1940 H1964 0.950 . S
C1941 C1958 1.574 . S
C1941 C1960 1.368 . S
C1941 H1965 0.949 . S
H1942 C1946 0.949 . S
C1943 C1944 1.349 . S
C1943 C1945 1.327 . S
C1943 H1966 0.950 . S
C1944 C1943 1.349 . S
C1944 C1956 1.349 . S
C1945 C1943 1.327 . S
C1945 C1961 1.429 . S
C1945 H1967 0.950 . S
C1946 H1942 0.949 . S
C1946 C1954 1.574 . S
C1946 C1962 1.368 . S
H1947 C1955 0.950 . S
H1948 C1953 0.950 . S
H1949 C1954 0.949 . S
H1950 C1956 0.950 . S
H1951 C1957 0.950 . S
H1952 C1958 0.949 . S
C1953 H1948 0.950 . S
C1953 C1955 1.327 . S
C1953 C1959 1.429 . S
C1954 C1946 1.574 . S
C1954 H1949 0.949 . S
C1954 C1960 1.368 . S
C1955 C1939 1.349 . S
C1955 H1947 0.950 . S
C1955 C1953 1.327 . S
C1956 C1944 1.349 . S
C1956 H1950 0.950 . S
C1956 C1957 1.327 . S
C1957 H1951 0.950 . S
C1957 C1956 1.327 . S
C1957 C1961 1.429 . S
C1958 C1941 1.574 . S
C1958 H1952 0.949 . S
C1958 C1962 1.368 . S
C1959 C1940 1.429 . S
C1959 C1953 1.429 . S
C1959 C1960 1.523 . S
C1960 C1941 1.368 . S
C1960 C1954 1.368 . S
C1960 C1959 1.523 . S
C1961 C1945 1.429 . S
C1961 C1957 1.429 . S
C1961 C1962 1.523 . S
C1962 C1946 1.368 . S
C1962 C1958 1.368 . S
C1962 C1961 1.523 . S
H1963 C1938 0.950 . S
H1964 C1940 0.950 . S
H1965 C1941 0.949 . S
H1966 C1943 0.950 . S
H1967 C1945 0.950 . S
C1968 C1969 1.349 . S
C1968 C1970 1.327 . S
C1968 H1993 0.950 . S
C1969 C1968 1.349 . S
C1969 C1985 1.349 . S
C1970 C1968 1.327 . S
C1970 C1989 1.429 . S
C1970 H1994 0.950 . S
C1971 C1988 1.574 . S
C1971 C1990 1.368 . S
C1971 H1995 0.949 . S
H1972 C1976 0.949 . S
C1973 C1974 1.349 . S
C1973 C1975 1.327 . S
C1973 H1996 0.950 . S
C1974 C1973 1.349 . S
C1974 C1986 1.349 . S
C1975 C1973 1.327 . S
C1975 C1991 1.429 . S
C1975 H1997 0.950 . S
C1976 H1972 0.949 . S
C1976 C1984 1.574 . S
C1976 C1992 1.368 . S
H1977 C1985 0.950 . S
H1978 C1983 0.950 . S
H1979 C1984 0.949 . S
H1980 C1986 0.950 . S
H1981 C1987 0.950 . S
H1982 C1988 0.949 . S
C1983 H1978 0.950 . S
C1983 C1985 1.327 . S
C1983 C1989 1.429 . S
C1984 C1976 1.574 . S
C1984 H1979 0.949 . S
C1984 C1990 1.368 . S
C1985 C1969 1.349 . S
C1985 H1977 0.950 . S
C1985 C1983 1.327 . S
C1986 C1974 1.349 . S
C1986 H1980 0.950 . S
C1986 C1987 1.327 . S
C1987 H1981 0.950 . S
C1987 C1986 1.327 . S
C1987 C1991 1.429 . S
C1988 C1971 1.574 . S
C1988 H1982 0.949 . S
C1988 C1992 1.368 . S
C1989 C1970 1.429 . S
C1989 C1983 1.429 . S
C1989 C1990 1.523 . S
C1990 C1971 1.368 . S
C1990 C1984 1.368 . S
C1990 C1989 1.523 . S
C1991 C1975 1.429 . S
C1991 C1987 1.429 . S
C1991 C1992 1.523 . S
C1992 C1976 1.368 . S
C1992 C1988 1.368 . S
C1992 C1991 1.523 . S
H1993 C1968 0.950 . S
H1994 C1970 0.950 . S
H1995 C1971 0.949 . S
H1996 C1973 0.950 . S
H1997 C1975 0.950 . S
C1998 C1999 1.349 . S
C1998 C2000 1.327 . S
C1998 H2023 0.950 . S
C1999 C1998 1.349 . S
C1999 C2015 1.349 . S
C2000 C1998 1.327 . S
C2000 C2019 1.429 . S
C2000 H2024 0.950 . S
C2001 C2018 1.574 . S
C2001 C2020 1.368 . S
C2001 H2025 0.949 . S
H2002 C2006 0.949 . S
C2003 C2004 1.349 . S
C2003 C2005 1.327 . S
C2003 H2026 0.950 . S
C2004 C2003 1.349 . S
C2004 C2016 1.349 . S
C2005 C2003 1.327 . S
C2005 C2021 1.429 . S
C2005 H2027 0.950 . S
C2006 H2002 0.949 . S
C2006 C2014 1.574 . S
C2006 C2022 1.368 . S
H2007 C2015 0.950 . S
H2008 C2013 0.950 . S
H2009 C2014 0.949 . S
H2010 C2016 0.950 . S
H2011 C2017 0.950 . S
H2012 C2018 0.949 . S
C2013 H2008 0.950 . S
C2013 C2015 1.327 . S
C2013 C2019 1.429 . S
C2014 C2006 1.574 . S
C2014 H2009 0.949 . S
C2014 C2020 1.368 . S
C2015 C1999 1.349 . S
C2015 H2007 0.950 . S
C2015 C2013 1.327 . S
C2016 C2004 1.349 . S
C2016 H2010 0.950 . S
C2016 C2017 1.327 . S
C2017 H2011 0.950 . S
C2017 C2016 1.327 . S
C2017 C2021 1.429 . S
C2018 C2001 1.574 . S
C2018 H2012 0.949 . S
C2018 C2022 1.368 . S
C2019 C2000 1.429 . S
C2019 C2013 1.429 . S
C2019 C2020 1.523 . S
C2020 C2001 1.368 . S
C2020 C2014 1.368 . S
C2020 C2019 1.523 . S
C2021 C2005 1.429 . S
C2021 C2017 1.429 . S
C2021 C2022 1.523 . S
C2022 C2006 1.368 . S
C2022 C2018 1.368 . S
C2022 C2021 1.523 . S
H2023 C1998 0.950 . S
H2024 C2000 0.950 . S
H2025 C2001 0.949 . S
H2026 C2003 0.950 . S
H2027 C2005 0.950 . S
C2028 C2029 1.349 . S
C2028 C2030 1.327 . S
C2028 H2053 0.950 . S
C2029 C2028 1.349 . S
C2029 C2045 1.349 . S
C2030 C2028 1.327 . S
C2030 C2049 1.429 . S
C2030 H2054 0.950 . S
C2031 C2048 1.574 . S
C2031 C2050 1.368 . S
C2031 H2055 0.949 . S
H2032 C2036 0.949 . S
C2033 C2034 1.349 . S
C2033 C2035 1.327 . S
C2033 H2056 0.950 . S
C2034 C2033 1.349 . S
C2034 C2046 1.349 . S
C2035 C2033 1.327 . S
C2035 C2051 1.429 . S
C2035 H2057 0.950 . S
C2036 H2032 0.949 . S
C2036 C2044 1.574 . S
C2036 C2052 1.368 . S
H2037 C2045 0.950 . S
H2038 C2043 0.950 . S
H2039 C2044 0.949 . S
H2040 C2046 0.950 . S
H2041 C2047 0.950 . S
H2042 C2048 0.949 . S
C2043 H2038 0.950 . S
C2043 C2045 1.327 . S
C2043 C2049 1.429 . S
C2044 C2036 1.574 . S
C2044 H2039 0.949 . S
C2044 C2050 1.368 . S
C2045 C2029 1.349 . S
C2045 H2037 0.950 . S
C2045 C2043 1.327 . S
C2046 C2034 1.349 . S
C2046 H2040 0.950 . S
C2046 C2047 1.327 . S
C2047 H2041 0.950 . S
C2047 C2046 1.327 . S
C2047 C2051 1.429 . S
C2048 C2031 1.574 . S
C2048 H2042 0.949 . S
C2048 C2052 1.368 . S
C2049 C2030 1.429 . S
C2049 C2043 1.429 . S
C2049 C2050 1.523 . S
C2050 C2031 1.368 . S
C2050 C2044 1.368 . S
C2050 C2049 1.523 . S
C2051 C2035 1.429 . S
C2051 C2047 1.429 . S
C2051 C2052 1.523 . S
C2052 C2036 1.368 . S
C2052 C2048 1.368 . S
C2052 C2051 1.523 . S
H2053 C2028 0.950 . S
H2054 C2030 0.950 . S
H2055 C2031 0.949 . S
H2056 C2033 0.950 . S
H2057 C2035 0.950 . S
C2058 C2059 1.349 . S
C2058 C2060 1.327 . S
C2058 H2083 0.950 . S
C2059 C2058 1.349 . S
C2059 C2075 1.349 . S
C2060 C2058 1.327 . S
C2060 C2079 1.429 . S
C2060 H2084 0.950 . S
C2061 C2078 1.574 . S
C2061 C2080 1.368 . S
C2061 H2085 0.949 . S
H2062 C2066 0.949 . S
C2063 C2064 1.349 . S
C2063 C2065 1.327 . S
C2063 H2086 0.950 . S
C2064 C2063 1.349 . S
C2064 C2076 1.349 . S
C2065 C2063 1.327 . S
C2065 C2081 1.429 . S
C2065 H2087 0.950 . S
C2066 H2062 0.949 . S
C2066 C2074 1.574 . S
C2066 C2082 1.368 . S
H2067 C2075 0.950 . S
H2068 C2073 0.950 . S
H2069 C2074 0.949 . S
H2070 C2076 0.950 . S
H2071 C2077 0.950 . S
H2072 C2078 0.949 . S
C2073 H2068 0.950 . S
C2073 C2075 1.327 . S
C2073 C2079 1.429 . S
C2074 C2066 1.574 . S
C2074 H2069 0.949 . S
C2074 C2080 1.368 . S
C2075 C2059 1.349 . S
C2075 H2067 0.950 . S
C2075 C2073 1.327 . S
C2076 C2064 1.349 . S
C2076 H2070 0.950 . S
C2076 C2077 1.327 . S
C2077 H2071 0.950 . S
C2077 C2076 1.327 . S
C2077 C2081 1.429 . S
C2078 C2061 1.574 . S
C2078 H2072 0.949 . S
C2078 C2082 1.368 . S
C2079 C2060 1.429 . S
C2079 C2073 1.429 . S
C2079 C2080 1.523 . S
C2080 C2061 1.368 . S
C2080 C2074 1.368 . S
C2080 C2079 1.523 . S
C2081 C2065 1.429 . S
C2081 C2077 1.429 . S
C2081 C2082 1.523 . S
C2082 C2066 1.368 . S
C2082 C2078 1.368 . S
C2082 C2081 1.523 . S
H2083 C2058 0.950 . S
H2084 C2060 0.950 . S
H2085 C2061 0.949 . S
H2086 C2063 0.950 . S
H2087 C2065 0.950 . S
C1009 C476 1.350 . S
C1014 C70 1.251 . S
C1039 C154 1.196 . S
C1044 C56 1.299 . S
C1069 C238 1.309 . S
C1074 C140 1.421 . S
C1099 C224 1.350 . S
C1104 C322 1.251 . S
C1129 C308 1.302 . S
C1134 C406 1.193 . S
C1159 C490 1.309 . S
C1164 C392 1.422 . S
C1189 C644 1.350 . S
C1194 C574 1.251 . S
C1219 C658 1.309 . S
C1224 C728 1.422 . S
C1249 C812 1.302 . S
C1254 C742 1.192 . S
C1279 C896 1.350 . S
C1284 C826 1.251 . S
C1309 C980 1.418 . S
C1314 C910 1.313 . S
C1339 C560 1.302 . S
C1344 C994 1.193 . S
C1369 C987 3.294 . S
C1374 C67 3.284 . S
C1399 C151 2.784 . S
C1404 C567 2.793 . S
C1429 C651 3.044 . S
C1434 C235 3.027 . S
C1459 C735 3.295 . S
C1464 C319 3.285 . S
C1489 C819 2.797 . S
C1494 C403 2.781 . S
C1519 C487 3.029 . S
C1524 C903 3.042 . S
C1549 C571 3.281 . S
C1554 C147 3.298 . S
C1579 C655 3.029 . S
C1584 C231 3.042 . S
C1609 C315 2.797 . S
C1614 C739 2.780 . S
C1639 C399 3.294 . S
C1644 C823 3.284 . S
C1669 C907 3.029 . S
C1674 C483 3.042 . S
C1699 C991 2.784 . S
C1704 C63 2.793 . S
C1729 C578 2.269 . S
C1734 C74 2.273 . S
C1759 C158 1.537 . S
C1764 C662 1.553 . S
C1789 C746 1.537 . S
C1794 C242 1.553 . S
C1819 C326 2.269 . S
C1824 C830 2.273 . S
C1849 C914 1.549 . S
C1854 C410 1.541 . S
C1879 C998 1.537 . S
C1884 C494 1.553 . S
C1909 C562 0.744 . S
C1914 C58 0.747 . S
C1939 C646 0.508 . S
C1944 C142 0.490 . S
C1969 C730 0.489 . S
C1974 C226 0.508 . S
C1999 C310 0.744 . S
C2004 C814 0.747 . S
C2029 C898 0.508 . S
C2034 C394 0.490 . S
C2059 C982 0.489 . S
C2064 C478 0.508 . S
