# Generated by pormake.
# Topology uns, (4)-cn, num edge types: 1
# Building blocks:
#     Node 0, Type 0, BuildingBlock: QUQFOY_clean_sbu_1, # of connection points: 4
#     Node 1, Type 0, BuildingBlock: QUQFOY_clean_sbu_1, # of connection points: 4
#     Node 2, Type 0, BuildingBlock: QUQFOY_clean_sbu_1, # of connection points: 4
#     Node 3, Type 0, BuildingBlock: QUQFOY_clean_sbu_1, # of connection points: 4
#     Node 4, Type 0, BuildingBlock: QUQFOY_clean_sbu_1, # of connection points: 4
#     Node 5, Type 0, BuildingBlock: QUQFOY_clean_sbu_1, # of connection points: 4
#     Node 6, Type 0, BuildingBlock: QUQFOY_clean_sbu_1, # of connection points: 4
#     Node 7, Type 0, BuildingBlock: QUQFOY_clean_sbu_1, # of connection points: 4
#     Node 8, Type 0, BuildingBlock: QUQFOY_clean_sbu_1, # of connection points: 4
#     Node 9, Type 0, BuildingBlock: QUQFOY_clean_sbu_1, # of connection points: 4
#     Node 10, Type 0, BuildingBlock: QUQFOY_clean_sbu_1, # of connection points: 4
#     Node 11, Type 0, BuildingBlock: QUQFOY_clean_sbu_1, # of connection points: 4
#     Node 12, Type 0, BuildingBlock: QUQFOY_clean_sbu_1, # of connection points: 4
#     Node 13, Type 0, BuildingBlock: QUQFOY_clean_sbu_1, # of connection points: 4
#     Node 14, Type 0, BuildingBlock: QUQFOY_clean_sbu_1, # of connection points: 4
#     Node 15, Type 0, BuildingBlock: QUQFOY_clean_sbu_1, # of connection points: 4
#     Node 16, Type 0, BuildingBlock: QUQFOY_clean_sbu_1, # of connection points: 4
#     Node 17, Type 0, BuildingBlock: QUQFOY_clean_sbu_1, # of connection points: 4
#     Node 18, Type 0, BuildingBlock: QUQFOY_clean_sbu_1, # of connection points: 4
#     Node 19, Type 0, BuildingBlock: QUQFOY_clean_sbu_1, # of connection points: 4
#     Node 20, Type 0, BuildingBlock: QUQFOY_clean_sbu_1, # of connection points: 4
#     Node 21, Type 0, BuildingBlock: QUQFOY_clean_sbu_1, # of connection points: 4
#     Node 22, Type 0, BuildingBlock: QUQFOY_clean_sbu_1, # of connection points: 4
#     Node 23, Type 0, BuildingBlock: QUQFOY_clean_sbu_1, # of connection points: 4
#     Node 24, Type 0, BuildingBlock: QUQFOY_clean_sbu_1, # of connection points: 4
#     Node 25, Type 0, BuildingBlock: QUQFOY_clean_sbu_1, # of connection points: 4
#     Node 26, Type 0, BuildingBlock: QUQFOY_clean_sbu_1, # of connection points: 4
#     Node 27, Type 0, BuildingBlock: QUQFOY_clean_sbu_1, # of connection points: 4
#     Node 28, Type 0, BuildingBlock: QUQFOY_clean_sbu_1, # of connection points: 4
#     Node 29, Type 0, BuildingBlock: QUQFOY_clean_sbu_1, # of connection points: 4
#     Node 30, Type 0, BuildingBlock: QUQFOY_clean_sbu_1, # of connection points: 4
#     Node 31, Type 0, BuildingBlock: QUQFOY_clean_sbu_1, # of connection points: 4
#     Node 32, Type 0, BuildingBlock: QUQFOY_clean_sbu_1, # of connection points: 4
#     Node 33, Type 0, BuildingBlock: QUQFOY_clean_sbu_1, # of connection points: 4
#     Node 34, Type 0, BuildingBlock: QUQFOY_clean_sbu_1, # of connection points: 4
#     Node 35, Type 0, BuildingBlock: QUQFOY_clean_sbu_1, # of connection points: 4
#     Edge 36, Type (0, 0), BuildingBlock: TEMPAE_clean_linker_10, # of connection points: 2
#     Edge 37, Type (0, 0), BuildingBlock: TEMPAE_clean_linker_10, # of connection points: 2
#     Edge 38, Type (0, 0), BuildingBlock: TEMPAE_clean_linker_10, # of connection points: 2
#     Edge 39, Type (0, 0), BuildingBlock: TEMPAE_clean_linker_10, # of connection points: 2
#     Edge 40, Type (0, 0), BuildingBlock: TEMPAE_clean_linker_10, # of connection points: 2
#     Edge 41, Type (0, 0), BuildingBlock: TEMPAE_clean_linker_10, # of connection points: 2
#     Edge 42, Type (0, 0), BuildingBlock: TEMPAE_clean_linker_10, # of connection points: 2
#     Edge 43, Type (0, 0), BuildingBlock: TEMPAE_clean_linker_10, # of connection points: 2
#     Edge 44, Type (0, 0), BuildingBlock: TEMPAE_clean_linker_10, # of connection points: 2
#     Edge 45, Type (0, 0), BuildingBlock: TEMPAE_clean_linker_10, # of connection points: 2
#     Edge 46, Type (0, 0), BuildingBlock: TEMPAE_clean_linker_10, # of connection points: 2
#     Edge 47, Type (0, 0), BuildingBlock: TEMPAE_clean_linker_10, # of connection points: 2
#     Edge 48, Type (0, 0), BuildingBlock: TEMPAE_clean_linker_10, # of connection points: 2
#     Edge 49, Type (0, 0), BuildingBlock: TEMPAE_clean_linker_10, # of connection points: 2
#     Edge 50, Type (0, 0), BuildingBlock: TEMPAE_clean_linker_10, # of connection points: 2
#     Edge 51, Type (0, 0), BuildingBlock: TEMPAE_clean_linker_10, # of connection points: 2
#     Edge 52, Type (0, 0), BuildingBlock: TEMPAE_clean_linker_10, # of connection points: 2
#     Edge 53, Type (0, 0), BuildingBlock: TEMPAE_clean_linker_10, # of connection points: 2
#     Edge 54, Type (0, 0), BuildingBlock: TEMPAE_clean_linker_10, # of connection points: 2
#     Edge 55, Type (0, 0), BuildingBlock: TEMPAE_clean_linker_10, # of connection points: 2
#     Edge 56, Type (0, 0), BuildingBlock: TEMPAE_clean_linker_10, # of connection points: 2
#     Edge 57, Type (0, 0), BuildingBlock: TEMPAE_clean_linker_10, # of connection points: 2
#     Edge 58, Type (0, 0), BuildingBlock: TEMPAE_clean_linker_10, # of connection points: 2
#     Edge 59, Type (0, 0), BuildingBlock: TEMPAE_clean_linker_10, # of connection points: 2
#     Edge 60, Type (0, 0), BuildingBlock: TEMPAE_clean_linker_10, # of connection points: 2
#     Edge 61, Type (0, 0), BuildingBlock: TEMPAE_clean_linker_10, # of connection points: 2
#     Edge 62, Type (0, 0), BuildingBlock: TEMPAE_clean_linker_10, # of connection points: 2
#     Edge 63, Type (0, 0), BuildingBlock: TEMPAE_clean_linker_10, # of connection points: 2
#     Edge 64, Type (0, 0), BuildingBlock: TEMPAE_clean_linker_10, # of connection points: 2
#     Edge 65, Type (0, 0), BuildingBlock: TEMPAE_clean_linker_10, # of connection points: 2
#     Edge 66, Type (0, 0), BuildingBlock: TEMPAE_clean_linker_10, # of connection points: 2
#     Edge 67, Type (0, 0), BuildingBlock: TEMPAE_clean_linker_10, # of connection points: 2
#     Edge 68, Type (0, 0), BuildingBlock: TEMPAE_clean_linker_10, # of connection points: 2
#     Edge 69, Type (0, 0), BuildingBlock: TEMPAE_clean_linker_10, # of connection points: 2
#     Edge 70, Type (0, 0), BuildingBlock: TEMPAE_clean_linker_10, # of connection points: 2
#     Edge 71, Type (0, 0), BuildingBlock: TEMPAE_clean_linker_10, # of connection points: 2
#     Edge 72, Type (0, 0), BuildingBlock: TEMPAE_clean_linker_10, # of connection points: 2
#     Edge 73, Type (0, 0), BuildingBlock: TEMPAE_clean_linker_10, # of connection points: 2
#     Edge 74, Type (0, 0), BuildingBlock: TEMPAE_clean_linker_10, # of connection points: 2
#     Edge 75, Type (0, 0), BuildingBlock: TEMPAE_clean_linker_10, # of connection points: 2
#     Edge 76, Type (0, 0), BuildingBlock: TEMPAE_clean_linker_10, # of connection points: 2
#     Edge 77, Type (0, 0), BuildingBlock: TEMPAE_clean_linker_10, # of connection points: 2
#     Edge 78, Type (0, 0), BuildingBlock: TEMPAE_clean_linker_10, # of connection points: 2
#     Edge 79, Type (0, 0), BuildingBlock: TEMPAE_clean_linker_10, # of connection points: 2
#     Edge 80, Type (0, 0), BuildingBlock: TEMPAE_clean_linker_10, # of connection points: 2
#     Edge 81, Type (0, 0), BuildingBlock: TEMPAE_clean_linker_10, # of connection points: 2
#     Edge 82, Type (0, 0), BuildingBlock: TEMPAE_clean_linker_10, # of connection points: 2
#     Edge 83, Type (0, 0), BuildingBlock: TEMPAE_clean_linker_10, # of connection points: 2
#     Edge 84, Type (0, 0), BuildingBlock: TEMPAE_clean_linker_10, # of connection points: 2
#     Edge 85, Type (0, 0), BuildingBlock: TEMPAE_clean_linker_10, # of connection points: 2
#     Edge 86, Type (0, 0), BuildingBlock: TEMPAE_clean_linker_10, # of connection points: 2
#     Edge 87, Type (0, 0), BuildingBlock: TEMPAE_clean_linker_10, # of connection points: 2
#     Edge 88, Type (0, 0), BuildingBlock: TEMPAE_clean_linker_10, # of connection points: 2
#     Edge 89, Type (0, 0), BuildingBlock: TEMPAE_clean_linker_10, # of connection points: 2
#     Edge 90, Type (0, 0), BuildingBlock: TEMPAE_clean_linker_10, # of connection points: 2
#     Edge 91, Type (0, 0), BuildingBlock: TEMPAE_clean_linker_10, # of connection points: 2
#     Edge 92, Type (0, 0), BuildingBlock: TEMPAE_clean_linker_10, # of connection points: 2
#     Edge 93, Type (0, 0), BuildingBlock: TEMPAE_clean_linker_10, # of connection points: 2
#     Edge 94, Type (0, 0), BuildingBlock: TEMPAE_clean_linker_10, # of connection points: 2
#     Edge 95, Type (0, 0), BuildingBlock: TEMPAE_clean_linker_10, # of connection points: 2
#     Edge 96, Type (0, 0), BuildingBlock: TEMPAE_clean_linker_10, # of connection points: 2
#     Edge 97, Type (0, 0), BuildingBlock: TEMPAE_clean_linker_10, # of connection points: 2
#     Edge 98, Type (0, 0), BuildingBlock: TEMPAE_clean_linker_10, # of connection points: 2
#     Edge 99, Type (0, 0), BuildingBlock: TEMPAE_clean_linker_10, # of connection points: 2
#     Edge 100, Type (0, 0), BuildingBlock: TEMPAE_clean_linker_10, # of connection points: 2
#     Edge 101, Type (0, 0), BuildingBlock: TEMPAE_clean_linker_10, # of connection points: 2
#     Edge 102, Type (0, 0), BuildingBlock: TEMPAE_clean_linker_10, # of connection points: 2
#     Edge 103, Type (0, 0), BuildingBlock: TEMPAE_clean_linker_10, # of connection points: 2
#     Edge 104, Type (0, 0), BuildingBlock: TEMPAE_clean_linker_10, # of connection points: 2
#     Edge 105, Type (0, 0), BuildingBlock: TEMPAE_clean_linker_10, # of connection points: 2
#     Edge 106, Type (0, 0), BuildingBlock: TEMPAE_clean_linker_10, # of connection points: 2
#     Edge 107, Type (0, 0), BuildingBlock: TEMPAE_clean_linker_10, # of connection points: 2
# Relax obj value: 0.035
# Max RMSD: 0.166
# Mean RMSD: 0.166
data_MOF--net-uns--node1-QUQFOY_clean_sbu_1--edge1-TEMPAE_clean_linker_10
_symmetry_space_group_name_H-M    P1
_symmetry_Int_Tables_number       1
_symmetry_cell_setting            triclinic
loop_
_symmetry_equiv_pos_as_xyz
'x, y, z'
_cell_length_a     53.258421
_cell_length_b     53.276874
_cell_length_c     67.576888
_cell_angle_alpha  90.013174
_cell_angle_beta   89.99095
_cell_angle_gamma 120.01801
loop_
_atom_site_label
_atom_site_type_symbol
_atom_site_fract_x
_atom_site_fract_y
_atom_site_fract_z
_atom_type_partial_charge
O0 O 0.28881 0.21313 0.04869 0.0
Cd1 Cd 0.31306 0.19387 0.05492 0.0
Cd2 Cd 0.29714 0.19759 0.09115 0.0
O3 O 0.26418 0.20105 0.07668 0.0
O4 O 0.31121 0.16967 0.03162 0.0
O5 O 0.28981 0.15119 0.06033 0.0
C6 C 0.29443 0.14714 0.04213 0.0
C7 C 0.29628 0.17081 0.11859 0.0
C8 C 0.26823 0.21148 0.0592 0.0
C9 C 0.35883 0.23793 0.07955 0.0
O10 O 0.33745 0.23365 0.09025 0.0
O11 O 0.35513 0.22194 0.06458 0.0
O12 O 0.28965 0.19095 0.12027 0.0
O13 O 0.29945 0.1633 0.10099 0.0
O14 O 0.79446 0.07031 0.05161 0.0
Cd15 Cd 0.81222 0.11215 0.0623 0.0
Cd16 Cd 0.80724 0.08459 0.09393 0.0
O17 O 0.81233 0.056 0.07563 0.0
O18 O 0.83536 0.14022 0.04063 0.0
O19 O 0.85519 0.1311 0.0664 0.0
C20 C 0.85843 0.14393 0.0496 0.0
C21 C 0.83225 0.11379 0.1207 0.0
C22 C 0.80028 0.05165 0.05869 0.0
C23 C 0.7641 0.10136 0.08793 0.0
O24 O 0.76689 0.07989 0.0928 0.0
O25 O 0.78393 0.12193 0.0778 0.0
O26 O 0.8171 0.08591 0.12271 0.0
O27 O 0.83604 0.1244 0.10305 0.0
O28 O 0.93112 0.72781 0.04373 0.0
Cd29 Cd 0.88811 0.69561 0.04371 0.0
Cd30 Cd 0.89993 0.70072 0.08542 0.0
O31 O 0.94032 0.73395 0.0759 0.0
O32 O 0.87361 0.6996 1.01724 0.0
O33 O 0.85659 0.70602 0.0455 0.0
C34 C 0.85668 0.70654 0.02637 0.0
C35 C 0.87793 0.69989 0.11575 0.0
C36 C 0.94849 0.74049 0.05799 0.0
C37 C 0.88366 0.64391 0.06383 0.0
O38 O 0.8916 0.6598 0.07916 0.0
O39 O 0.88029 0.65346 0.04736 0.0
O40 O 0.90266 0.7011 0.11506 0.0
O41 O 0.86677 0.70184 0.09925 0.0
O42 O 0.21149 0.2748 0.48704 0.0
Cd43 Cd 0.20093 0.30714 0.48834 0.0
Cd44 Cd 0.21212 0.30617 0.44578 0.0
O45 O 0.22043 0.27362 0.45508 0.0
O46 O 0.17989 0.30022 0.51411 0.0
O47 O 0.15937 0.29749 0.48512 0.0
C48 C 0.15707 0.2948 0.50415 0.0
C49 C 0.1987 0.31004 0.41319 0.0
C50 C 0.21913 0.26458 0.47274 0.0
C51 C 0.24831 0.3613 0.47111 0.0
O52 O 0.24103 0.34711 0.45505 0.0
O53 O 0.23553 0.34958 0.48726 0.0
O54 O 0.22343 0.31248 0.41718 0.0
O55 O 0.18011 0.30237 0.42743 0.0
O56 O 0.73936 0.94038 0.48245 0.0
Cd57 Cd 0.70828 0.89709 0.4842 0.0
Cd58 Cd 0.70643 0.91107 0.44117 0.0
O59 O 0.73848 0.95187 0.45099 0.0
O60 O 0.71678 0.88589 0.51054 0.0
O61 O 0.71954 0.86613 0.48243 0.0
C62 C 0.72283 0.86834 0.50142 0.0
C63 C 0.7019 0.89662 0.40776 0.0
C64 C 0.7484 0.95892 0.46853 0.0
C65 C 0.65221 0.8877 0.46844 0.0
O66 O 0.66558 0.89598 0.45209 0.0
O67 O 0.66517 0.88702 0.48407 0.0
O68 O 0.69808 0.91756 0.41331 0.0
O69 O 0.71106 0.88545 0.42087 0.0
O70 O 0.07952 0.79965 0.49372 0.0
Cd71 Cd 0.12105 0.81594 0.4825 0.0
Cd72 Cd 0.09296 0.81245 0.45126 0.0
O73 O 0.06497 0.81777 0.47003 0.0
O74 O 0.14997 0.83689 0.50425 0.0
O75 O 0.14241 0.8592 0.47931 0.0
C76 C 0.15519 0.86086 0.49591 0.0
C77 C 0.12144 0.83689 0.42403 0.0
C78 C 0.06088 0.80574 0.48696 0.0
C79 C 0.10781 0.76777 0.4561 0.0
O80 O 0.08679 0.77155 0.45172 0.0
O81 O 0.12894 0.7869 0.46622 0.0
O82 O 0.09346 0.8224 0.42257 0.0
O83 O 0.13274 0.84055 0.44147 0.0
O84 O 0.73324 0.79849 0.97442 0.0
Cd85 Cd 0.70447 0.81374 0.97337 0.0
Cd86 Cd 0.70322 0.79449 0.93149 0.0
O87 O 0.73406 0.78537 0.94332 0.0
O88 O 0.71074 0.83579 0.9986 0.0
O89 O 0.721 0.85671 0.96918 0.0
C90 C 0.72096 0.85915 0.9882 0.0
C91 C 0.69955 0.80222 0.89756 0.0
C92 C 0.74255 0.78809 0.96126 0.0
C93 C 0.64788 0.76765 0.95753 0.0
O94 O 0.66184 0.77022 0.94176 0.0
O95 O 0.66051 0.78293 0.97268 0.0
O96 O 0.69544 0.77779 0.90413 0.0
O97 O 0.7089 0.8235 0.90994 0.0
O98 O 0.20354 0.92857 0.9897 0.0
Cd99 Cd 0.19022 0.88627 0.98197 0.0
Cd100 Cd 0.18913 0.90857 0.94825 0.0
O101 O 0.18645 0.94077 0.96407 0.0
O102 O 0.17184 0.86316 1.00655 0.0
O103 O 0.14742 0.85865 0.97899 0.0
C104 C 0.14729 0.85196 0.99738 0.0
C105 C 0.16391 0.87937 0.92141 0.0
C106 C 0.19833 0.94672 0.98112 0.0
C107 C 0.23868 0.89885 0.95652 0.0
O108 O 0.22998 0.9145 0.94823 0.0
O109 O 0.22304 0.88055 0.96971 0.0
O110 O 0.17954 0.90717 0.91944 0.0
O111 O 0.15965 0.86874 0.9391 0.0
O112 O 0.07467 0.27793 0.99219 0.0
Cd113 Cd 0.1171 0.30361 0.98282 0.0
Cd114 Cd 0.09163 0.28215 0.94998 0.0
O115 O 0.06052 0.24801 0.9668 0.0
O116 O 0.14369 0.30867 1.00548 0.0
O117 O 0.13872 0.28213 0.97899 0.0
C118 C 0.14984 0.29112 0.99632 0.0
C119 C 0.1208 0.28601 0.92318 0.0
C120 C 0.05566 0.25453 0.984 0.0
C121 C 0.1073 0.34208 0.95786 0.0
O122 O 0.08744 0.31803 0.95116 0.0
O123 O 0.12681 0.34273 0.96911 0.0
O124 O 0.09303 0.27434 0.92107 0.0
O125 O 0.13127 0.29198 0.94092 0.0
O126 O 0.8067 0.74063 0.56274 0.0
Cd127 Cd 0.8213 0.71196 0.5698 0.0
Cd128 Cd 0.80257 0.72024 0.60527 0.0
O129 O 0.80306 0.75558 0.59261 0.0
O130 O 0.84411 0.71241 0.54607 0.0
O131 O 0.86427 0.73027 0.5751 0.0
C132 C 0.86729 0.72595 0.55664 0.0
C133 C 0.81627 0.71492 0.63709 0.0
C134 C 0.80219 0.75731 0.57386 0.0
C135 C 0.76832 0.66269 0.58616 0.0
O136 O 0.76798 0.68214 0.59669 0.0
O137 O 0.79039 0.66844 0.57566 0.0
O138 O 0.79433 0.71849 0.63418 0.0
O139 O 0.83259 0.71779 0.6221 0.0
O140 O 0.29514 0.07868 0.54373 0.0
Cd141 Cd 0.32316 0.1227 0.54551 0.0
Cd142 Cd 0.31492 0.10498 0.58702 0.0
O143 O 0.28227 0.06581 0.57492 0.0
O144 O 0.31734 0.13831 0.52002 0.0
O145 O 0.30806 0.15038 0.54933 0.0
C146 C 0.30777 0.15221 0.53026 0.0
C147 C 0.31637 0.11957 0.62014 0.0
C148 C 0.28013 0.05945 0.55654 0.0
C149 C 0.37447 0.12877 0.56544 0.0
O150 O 0.35688 0.11708 0.5797 0.0
O151 O 0.3663 0.13457 0.54926 0.0
O152 O 0.31788 0.0969 0.61563 0.0
O153 O 0.31061 0.13225 0.60602 0.0
O154 O 0.93915 0.20988 0.54801 0.0
Cd155 Cd 0.89641 0.19996 0.54665 0.0
Cd156 Cd 0.9104 0.21221 0.59004 0.0
O157 O 0.95032 0.21892 0.57987 0.0
O158 O 0.88291 0.18034 0.52035 0.0
O159 O 0.86426 0.15828 0.54877 0.0
C160 C 0.86518 0.15699 0.5297 0.0
C161 C 0.89587 0.20204 0.6234 0.0
C162 C 0.95734 0.21715 0.56209 0.0
C163 C 0.89047 0.24763 0.5644 0.0
O164 O 0.89804 0.24064 0.58029 0.0
O165 O 0.88876 0.23463 0.54823 0.0
O166 O 0.91796 0.22618 0.6181 0.0
O167 O 0.88355 0.18221 0.61005 0.0
O168 O 0.94574 0.54654 0.3842 0.0
Cd169 Cd 0.97824 0.53616 0.38334 0.0
Cd170 Cd 0.97647 0.54851 0.42618 0.0
O171 O 0.94383 0.55609 0.41597 0.0
O172 O 0.97193 0.51571 0.35738 0.0
O173 O 0.96835 0.49448 0.3862 0.0
C174 C 0.96611 0.49262 0.36714 0.0
C175 C 0.97981 0.5366 0.45928 0.0
C176 C 0.93506 0.55424 0.39818 0.0
C177 C 0.03217 0.58358 0.40098 0.0
O178 O 0.01761 0.57682 0.41688 0.0
O179 O 0.02077 0.57057 0.38484 0.0
O180 O 0.98232 0.56113 0.45453 0.0
O181 O 0.97241 0.5174 0.44548 0.0
O182 O 0.46323 0.402 0.37824 0.0
Cd183 Cd 0.47977 0.44341 0.38978 0.0
Cd184 Cd 0.47568 0.41474 0.42088 0.0
O185 O 0.4805 0.3867 0.40202 0.0
O186 O 0.50069 0.47245 0.36813 0.0
O187 O 0.52304 0.46463 0.39294 0.0
C188 C 0.52467 0.47759 0.37643 0.0
C189 C 0.50089 0.44209 0.44824 0.0
C190 C 0.46887 0.38304 0.38498 0.0
C191 C 0.43188 0.43093 0.4164 0.0
O192 O 0.43513 0.40957 0.42075 0.0
O193 O 0.45117 0.45176 0.40617 0.0
O194 O 0.48564 0.41413 0.44939 0.0
O195 O 0.50469 0.45394 0.43098 0.0
O196 O 0.60028 0.0568 0.38806 0.0
Cd197 Cd 0.55814 0.03075 0.39765 0.0
Cd198 Cd 0.58328 0.05426 0.42977 0.0
O199 O 0.6117 0.08874 0.412 0.0
O200 O 0.5311 0.02388 0.37491 0.0
O201 O 0.53652 0.05236 0.40036 0.0
C202 C 0.52526 0.04223 0.38322 0.0
C203 C 0.55195 0.04794 0.45556 0.0
C204 C 0.61762 0.08159 0.39537 0.0
C205 C 0.57044 0.99537 0.42386 0.0
O206 O 0.59053 0.02018 0.42924 0.0
O207 O 0.54979 0.99323 0.41312 0.0
O208 O 0.57972 0.06222 0.45834 0.0
O209 O 0.54244 0.04077 0.43767 0.0
O210 O 0.87804 0.60909 0.82753 0.0
Cd211 Cd 0.86154 0.63524 0.81894 0.0
Cd212 Cd 0.86534 0.61487 0.78578 0.0
O213 O 0.861 0.57973 0.80192 0.0
O214 O 0.8399 0.63925 0.84192 0.0
O215 O 0.8185 0.61396 0.81494 0.0
C216 C 0.81625 0.62206 0.83256 0.0
C217 C 0.84072 0.62014 0.75921 0.0
C218 C 0.87274 0.58563 0.819 0.0
C219 C 0.90996 0.67427 0.79445 0.0
O220 O 0.90575 0.65035 0.78749 0.0
O221 O 0.891 0.67471 0.80571 0.0
O222 O 0.85636 0.60803 0.75682 0.0
O223 O 0.83625 0.62577 0.77705 0.0
O224 O 0.39879 0.27035 0.8184 0.0
Cd225 Cd 0.37434 0.22862 0.80746 0.0
Cd226 Cd 0.3975 0.2569 0.77581 0.0
O227 O 0.43049 0.28681 0.79405 0.0
O228 O 0.3679 0.20105 0.82977 0.0
O229 O 0.39637 0.20734 0.80418 0.0
C230 C 0.38631 0.19554 0.82121 0.0
C231 C 0.39535 0.2296 0.7483 0.0
C232 C 0.42265 0.29015 0.81123 0.0
C233 C 0.33695 0.2399 0.78234 0.0
O234 O 0.36126 0.26058 0.77668 0.0
O235 O 0.33593 0.21955 0.79285 0.0
O236 O 0.407 0.25747 0.74702 0.0
O237 O 0.38843 0.21795 0.76569 0.0
O238 O 0.74281 0.12891 0.8208 0.0
Cd239 Cd 0.78449 0.14345 0.81084 0.0
Cd240 Cd 0.7607 0.14727 0.77855 0.0
O241 O 0.73057 0.14931 0.7972 0.0
O242 O 0.81277 0.16297 0.83317 0.0
O243 O 0.80783 0.18654 0.80787 0.0
C244 C 0.8196 0.18736 0.82474 0.0
C245 C 0.78865 0.17486 0.75196 0.0
C246 C 0.72501 0.13591 0.81371 0.0
C247 C 0.77172 0.09837 0.78167 0.0
O248 O 0.75446 0.10659 0.77556 0.0
O249 O 0.79052 0.1132 0.79482 0.0
O250 O 0.76071 0.15989 0.75057 0.0
O251 O 0.80014 0.17716 0.76918 0.0
O252 O 0.39483 0.12286 0.31715 0.0
Cd253 Cd 0.37046 0.14072 0.30657 0.0
Cd254 Cd 0.38685 0.12712 0.27473 0.0
O255 O 0.42152 0.13019 0.29052 0.0
O256 O 0.36862 0.16513 0.32836 0.0
O257 O 0.39264 0.1834 0.30042 0.0
C258 C 0.38551 0.18762 0.31789 0.0
C259 C 0.38378 0.1429 0.24319 0.0
C260 C 0.4163 0.12303 0.30869 0.0
C261 C 0.32646 0.08955 0.28758 0.0
O262 O 0.34894 0.09013 0.28087 0.0
O263 O 0.32872 0.11166 0.29639 0.0
O264 O 0.38954 0.12228 0.2457 0.0
O265 O 0.3834 0.15709 0.25861 0.0
O266 O 0.87528 0.27446 0.32026 0.0
Cd267 Cd 0.86085 0.23066 0.31871 0.0
Cd268 Cd 0.8758 0.24692 0.27761 0.0
O269 O 0.88475 0.2872 0.28868 0.0
O270 O 0.83719 0.21299 0.34303 0.0
O271 O 0.81846 0.20417 0.31287 0.0
C272 C 0.81465 0.2004 0.33177 0.0
C273 C 0.86323 0.23176 0.24467 0.0
C274 C 0.88377 0.29363 0.30675 0.0
C275 C 0.90682 0.22137 0.30188 0.0
O276 O 0.90283 0.23227 0.28638 0.0
O277 O 0.89221 0.2183 0.31746 0.0
O278 O 0.88802 0.25361 0.24924 0.0
O279 O 0.84406 0.22044 0.25855 0.0
O280 O 0.74135 0.61857 0.32523 0.0
Cd281 Cd 0.78521 0.64681 0.32206 0.0
Cd282 Cd 0.7653 0.63286 0.2808 0.0
O283 O 0.72715 0.60183 0.29483 0.0
O284 O 0.80279 0.6441 0.34759 0.0
O285 O 0.81286 0.63164 0.31866 0.0
C286 C 0.81614 0.63359 0.33767 0.0
C287 C 0.77652 0.63074 0.24741 0.0
C288 C 0.72166 0.60179 0.31323 0.0
C289 C 0.79066 0.69521 0.29875 0.0
O290 O 0.77847 0.67568 0.28568 0.0
O291 O 0.79684 0.68929 0.31564 0.0
O292 O 0.75449 0.63306 0.25247 0.0
O293 O 0.79031 0.62596 0.26125 0.0
O294 O 0.4628 0.059 0.88247 0.0
Cd295 Cd 0.48113 0.03464 0.89109 0.0
Cd296 Cd 0.47922 0.05597 0.92568 0.0
O297 O 0.47635 0.08744 0.90872 0.0
O298 O 0.50458 0.03255 0.86857 0.0
O299 O 0.52394 0.05758 0.896 0.0
C300 C 0.52749 0.0502 0.87846 0.0
C301 C 0.50701 0.05877 0.95308 0.0
C302 C 0.46543 0.08126 0.89135 0.0
C303 C 0.43741 0.99336 0.91836 0.0
O304 O 0.44233 0.01648 0.9271 0.0
O305 O 0.45295 0.99447 0.90369 0.0
O306 O 0.4878 0.06674 0.95433 0.0
O307 O 0.51323 0.0533 0.93569 0.0
O308 O 0.96051 0.40262 0.87892 0.0
Cd309 Cd 0.98448 0.44635 0.885 0.0
Cd310 Cd 0.97203 0.42531 0.92284 0.0
O311 O 0.94095 0.38762 0.90852 0.0
O312 O 0.97993 0.46818 0.86262 0.0
O313 O 0.96209 0.46599 0.89263 0.0
C314 C 0.96496 0.47465 0.87445 0.0
C315 C 0.96974 0.43975 0.95515 0.0
C316 C 0.94275 0.38249 0.89027 0.0
C317 C 0.03424 0.45325 0.90692 0.0
O318 O 0.01466 0.43703 0.91906 0.0
O319 O 0.0279 0.46241 0.89145 0.0
O320 O 0.97001 0.41613 0.95161 0.0
O321 O 0.96655 0.45314 0.94027 0.0
O322 O 0.60139 0.54415 0.89036 0.0
Cd323 Cd 0.55867 0.5267 0.8991 0.0
Cd324 Cd 0.58376 0.53225 0.932 0.0
O325 O 0.61468 0.52792 0.91591 0.0
O326 O 0.53353 0.50535 0.87582 0.0
O327 O 0.53744 0.48343 0.90249 0.0
C328 C 0.52743 0.48153 0.88479 0.0
C329 C 0.55351 0.50834 0.95852 0.0
C330 C 0.62007 0.53952 0.89878 0.0
C331 C 0.56802 0.57582 0.92267 0.0
O332 O 0.58832 0.5724 0.92947 0.0
O333 O 0.54824 0.55609 0.91203 0.0
O334 O 0.58126 0.52385 0.96105 0.0
O335 O 0.54361 0.50345 0.94061 0.0
O336 O 0.61633 0.87247 0.69941 0.0
Cd337 Cd 0.64347 0.85716 0.70778 0.0
Cd338 Cd 0.61905 0.85407 0.74208 0.0
O339 O 0.58665 0.85461 0.72492 0.0
O340 O 0.64877 0.83551 0.68527 0.0
O341 O 0.62293 0.81432 0.71212 0.0
C342 C 0.63179 0.81195 0.6948 0.0
C343 C 0.61771 0.8261 0.76899 0.0
C344 C 0.59284 0.86696 0.708 0.0
C345 C 0.68038 0.90085 0.73678 0.0
O346 O 0.65606 0.8931 0.74485 0.0
O347 O 0.68187 0.88695 0.72191 0.0
O348 O 0.60726 0.8433 0.77039 0.0
O349 O 0.62501 0.82179 0.75163 0.0
O350 O 0.11902 0.73764 0.71658 0.0
Cd351 Cd 0.13809 0.78137 0.72257 0.0
Cd352 Cd 0.12805 0.75851 0.76143 0.0
O353 O 0.12179 0.72148 0.74624 0.0
O354 O 0.16207 0.8028 0.69912 0.0
O355 O 0.18091 0.80267 0.72831 0.0
C356 C 0.18475 0.8106 0.70995 0.0
C357 C 0.14109 0.76953 0.79478 0.0
C358 C 0.11595 0.71709 0.72779 0.0
C359 C 0.09487 0.78768 0.74479 0.0
O360 O 0.09836 0.77163 0.757 0.0
O361 O 0.11018 0.79667 0.72922 0.0
O362 O 0.11735 0.74675 0.78964 0.0
O363 O 0.15954 0.78394 0.78098 0.0
O364 O 0.2786 0.40259 0.72255 0.0
Cd365 Cd 0.23462 0.37385 0.72476 0.0
Cd366 Cd 0.25246 0.37468 0.76557 0.0
O367 O 0.29267 0.40523 0.75378 0.0
O368 O 0.21641 0.37995 0.7007 0.0
O369 O 0.20868 0.39036 0.73099 0.0
C370 C 0.20435 0.39025 0.71216 0.0
C371 C 0.2382 0.37228 0.79878 0.0
C372 C 0.29843 0.41266 0.73565 0.0
C373 C 0.22541 0.31821 0.74116 0.0
O374 O 0.23696 0.33296 0.75662 0.0
O375 O 0.22186 0.32995 0.72585 0.0
O376 O 0.25966 0.3689 0.79383 0.0
O377 O 0.22686 0.38049 0.78516 0.0
O378 O 0.54671 0.9474 0.15758 0.0
Cd379 Cd 0.53329 0.97772 0.15697 0.0
Cd380 Cd 0.54688 0.97575 0.11442 0.0
O381 O 0.55583 0.94454 0.12578 0.0
O382 O 0.5112 0.97312 0.18206 0.0
O383 O 0.49071 0.96306 0.15247 0.0
C384 C 0.48808 0.96371 0.17145 0.0
C385 C 0.53644 0.9788 0.08091 0.0
C386 C 0.55493 0.93687 0.14378 0.0
C387 C 0.57959 0.03226 0.13895 0.0
O388 O 0.57405 0.01725 0.12334 0.0
O389 O 0.56596 0.02103 0.15493 0.0
O390 O 0.56093 0.98183 0.08638 0.0
O391 O 0.51639 0.97069 0.09417 0.0
O392 O 0.0639 0.60409 0.14691 0.0
Cd393 Cd 0.03869 0.56213 0.13674 0.0
Cd394 Cd 0.06206 0.58862 0.10491 0.0
O395 O 0.09599 0.61757 0.12288 0.0
O396 O 0.03182 0.53498 0.15936 0.0
O397 O 0.06055 0.54073 0.13401 0.0
C398 C 0.05027 0.52926 0.15107 0.0
C399 C 0.05712 0.55833 0.07872 0.0
C400 C 0.08844 0.62242 0.13973 0.0
C401 C 1.00243 0.57361 0.11073 0.0
O402 O 0.027 0.59431 0.10551 0.0
O403 O 1.00096 0.55312 0.12132 0.0
O404 O 0.07048 0.58616 0.07628 0.0
O405 O 0.05016 0.5483 0.09651 0.0
O406 O 0.39925 0.4631 0.15345 0.0
Cd407 Cd 0.44147 0.47943 0.14342 0.0
Cd408 Cd 0.41311 0.46924 0.11102 0.0
O409 O 0.3817 0.47276 0.12683 0.0
O410 O 0.46796 0.5035 0.16527 0.0
O411 O 0.46314 0.52205 0.13717 0.0
C412 C 0.47419 0.52611 0.15472 0.0
C413 C 0.43361 0.48631 0.07999 0.0
C414 C 0.37878 0.46467 0.14485 0.0
C415 C 0.43203 0.42802 0.1234 0.0
O416 O 0.41175 0.43088 0.11602 0.0
O417 O 0.45199 0.44875 0.13325 0.0
O418 O 0.40668 0.46664 0.08184 0.0
O419 O 0.44793 0.49903 0.09586 0.0
O420 O 0.06311 0.46447 0.65535 0.0
Cd421 Cd 0.03724 0.48045 0.64479 0.0
Cd422 Cd 0.0625 0.47913 0.6132 0.0
O423 O 0.0958 0.48412 0.63174 0.0
O424 O 0.02838 0.49977 0.66716 0.0
O425 O 0.05808 0.52381 0.64248 0.0
C426 C 0.04658 0.52432 0.6592 0.0
C427 C 0.05972 0.50516 0.58654 0.0
C428 C 0.088 0.47136 0.64844 0.0
C429 C 1.00291 0.43347 0.61741 0.0
O430 O 0.02787 0.43804 0.6126 0.0
O431 O 1.00054 0.45169 0.62832 0.0
O432 O 0.07299 0.4905 0.58484 0.0
O433 O 0.05138 0.50788 0.60399 0.0
O434 O 0.55344 0.59164 0.6534 0.0
Cd435 Cd 0.53806 0.54767 0.65249 0.0
Cd436 Cd 0.545 0.56346 0.61044 0.0
O437 O 0.55126 0.60263 0.62206 0.0
O438 O 0.51881 0.5333 0.67883 0.0
O439 O 0.49509 0.51923 0.65042 0.0
C440 C 0.49455 0.51854 0.66955 0.0
C441 C 0.53141 0.54912 0.57739 0.0
C442 C 0.55644 0.60999 0.64023 0.0
C443 C 0.58276 0.5416 0.63143 0.0
O444 O 0.57575 0.55229 0.61714 0.0
O445 O 0.56971 0.53648 0.64797 0.0
O446 O 0.55553 0.57191 0.58183 0.0
O447 O 0.51329 0.53601 0.5916 0.0
O448 O 0.40087 0.94132 0.65041 0.0
Cd449 Cd 0.44275 0.96544 0.63899 0.0
Cd450 Cd 0.41202 0.9479 0.60803 0.0
O451 O 0.38202 0.91307 0.62441 0.0
O452 O 0.47057 0.96793 0.65987 0.0
O453 O 0.46205 0.94232 0.63236 0.0
C454 C 0.47487 0.95017 0.64935 0.0
C455 C 0.43201 0.95118 0.57698 0.0
C456 C 0.38002 0.91888 0.64243 0.0
C457 C 0.43464 0.00822 0.61855 0.0
O458 O 0.41168 0.98535 0.61356 0.0
O459 O 0.45502 0.00619 0.62679 0.0
O460 O 0.40508 0.94394 0.57896 0.0
O461 O 0.44654 0.9528 0.59274 0.0
O462 O 0.12302 0.39324 0.21848 0.0
Cd463 Cd 0.14067 0.36917 0.22934 0.0
Cd464 Cd 0.13619 0.39251 0.26093 0.0
O465 O 0.13974 0.42542 0.24252 0.0
O466 O 0.16238 0.3631 0.20728 0.0
O467 O 0.1838 0.39236 0.23269 0.0
C468 C 0.186 0.38224 0.21581 0.0
C469 C 0.1622 0.39026 0.2878 0.0
C470 C 0.128 0.41748 0.22551 0.0
C471 C 0.09289 0.33208 0.25512 0.0
O472 O 0.09617 0.35639 0.2604 0.0
O473 O 0.11225 0.33111 0.24461 0.0
O474 O 0.14629 0.40219 0.28957 0.0
O475 O 0.16604 0.38305 0.27027 0.0
O476 O 0.6148 0.74212 0.21051 0.0
Cd477 Cd 0.6432 0.7841 0.2198 0.0
Cd478 Cd 0.61956 0.75891 0.25269 0.0
O479 O 0.58492 0.72866 0.23586 0.0
O480 O 0.64954 0.80898 0.1959 0.0
O481 O 0.62736 0.81115 0.22303 0.0
C482 C 0.63545 0.81941 0.20503 0.0
C483 C 0.62224 0.78702 0.27986 0.0
C484 C 0.59101 0.72375 0.21856 0.0
C485 C 0.67929 0.77137 0.24534 0.0
O486 O 0.65471 0.75317 0.2524 0.0
O487 O 0.68144 0.79075 0.23329 0.0
O488 O 0.61036 0.75919 0.2814 0.0
O489 O 0.6294 0.79832 0.26238 0.0
O490 O 0.26998 0.88318 0.21909 0.0
Cd491 Cd 0.2256 0.86317 0.22198 0.0
Cd492 Cd 0.24335 0.8737 0.26298 0.0
O493 O 0.28242 0.88105 0.25011 0.0
O494 O 0.20837 0.84053 0.19721 0.0
O495 O 0.20355 0.82003 0.22651 0.0
C496 C 0.19872 0.81724 0.20766 0.0
C497 C 0.23069 0.8617 0.29643 0.0
C498 C 0.28906 0.88682 0.23185 0.0
C499 C 0.21475 0.90517 0.24212 0.0
O500 O 0.22873 0.90174 0.25603 0.0
O501 O 0.20904 0.89049 0.22629 0.0
O502 O 0.25276 0.88599 0.29128 0.0
O503 O 0.21777 0.84251 0.28276 0.0
C504 C 0.3302 0.15784 0.1348 0.0
C505 C 0.30575 0.16117 0.13621 0.0
C506 C 0.34354 0.15463 0.15181 0.0
C507 C 0.33149 0.1536 0.17069 0.0
C508 C 0.30583 0.15535 0.1721 0.0
C509 C 0.29366 0.1598 0.15488 0.0
C510 C 0.37136 0.15384 0.14964 0.0
C511 C 0.29157 0.15313 0.19183 0.0
C512 C 0.35407 0.12172 0.2129 0.0
C513 C 0.37287 0.1465 0.22385 0.0
C514 C 0.34014 0.12367 0.19581 0.0
C515 C 0.34605 0.15121 0.18895 0.0
C516 C 0.36584 0.17644 0.1996 0.0
C517 C 0.37847 0.17371 0.2172 0.0
C518 C 0.31835 0.09616 0.18546 0.0
C519 C 0.37357 0.20629 0.19244 0.0
H520 H 0.34005 0.15957 0.12045 0.0
H521 H 0.2749 0.1626 0.15604 0.0
H522 H 0.3891 0.17251 0.15761 0.0
H523 H 0.36904 0.13384 0.15642 0.0
H524 H 0.37783 0.15472 0.13391 0.0
H525 H 0.27023 0.15191 0.1902 0.0
H526 H 0.28839 0.13365 0.19995 0.0
H527 H 0.30579 0.1723 0.20103 0.0
H528 H 0.34915 0.10056 0.21826 0.0
H529 H 0.39283 0.19285 0.22572 0.0
H530 H 0.32525 0.09608 0.17 0.0
H531 H 0.297 0.09507 0.18482 0.0
H532 H 0.31553 0.0764 0.19303 0.0
H533 H 0.38097 0.20919 0.17682 0.0
H534 H 0.39088 0.22372 0.20154 0.0
H535 H 0.35414 0.20881 0.1929 0.0
C536 C 0.84262 0.12318 0.15705 0.0
C537 C 0.84092 0.1332 0.1382 0.0
C538 C 0.84703 0.14029 0.174 0.0
C539 C 0.84888 0.16768 0.17212 0.0
C540 C 0.84751 0.178 0.15308 0.0
C541 C 0.84395 0.16084 0.13636 0.0
C542 C 0.84925 0.12884 0.19397 0.0
C543 C 0.84871 0.20673 0.1504 0.0
C544 C 0.83114 0.1971 0.21834 0.0
C545 C 0.85886 0.21766 0.22502 0.0
C546 C 0.8275 0.18129 0.20081 0.0
C547 C 0.85221 0.18552 0.19005 0.0
C548 C 0.88019 0.20654 0.19662 0.0
C549 C 0.88314 0.22258 0.21382 0.0
C550 C 0.79724 0.15968 0.19399 0.0
C551 C 0.90713 0.21135 0.18589 0.0
H552 H 0.84016 0.10181 0.15858 0.0
H553 H 0.84215 0.16855 0.12188 0.0
H554 H 0.86945 0.14491 0.20155 0.0
H555 H 0.83079 0.12546 0.20343 0.0
H556 H 0.84918 0.10801 0.19281 0.0
H557 H 0.84753 0.21175 0.13459 0.0
H558 H 0.83042 0.20647 0.15845 0.0
H559 H 0.86904 0.22448 0.15681 0.0
H560 H 0.81231 0.19313 0.22692 0.0
H561 H 0.9047 0.23813 0.219 0.0
H562 H 0.794 0.13745 0.19465 0.0
H563 H 0.7942 0.16397 0.17836 0.0
H564 H 0.78031 0.16039 0.20319 0.0
H565 H 0.90802 0.19097 0.18585 0.0
H566 H 0.92731 0.22871 0.1928 0.0
H567 H 0.90652 0.21723 0.17023 0.0
C568 C 0.80388 0.62659 0.21835 0.0
C569 C 0.78831 0.63851 0.22704 0.0
C570 C 0.81706 0.63616 0.19966 0.0
C571 C 0.81574 0.65908 0.1899 0.0
C572 C 0.80012 0.6712 0.19873 0.0
C573 C 0.78616 0.66039 0.21696 0.0
C574 C 0.83264 0.62195 0.19046 0.0
C575 C 0.79908 0.69639 0.18934 0.0
C576 C 0.87592 0.7026 0.15263 0.0
C577 C 0.86144 0.69244 0.13455 0.0
C578 C 0.86111 0.69263 0.17073 0.0
C579 C 0.83137 0.67098 0.17076 0.0
C580 C 0.81663 0.66078 0.15248 0.0
C581 C 0.83172 0.67203 0.13461 0.0
C582 C 0.8774 0.70501 0.18982 0.0
C583 C 0.78523 0.6371 0.15179 0.0
H584 H 0.80569 0.60979 0.22614 0.0
H585 H 0.77465 0.67013 0.2238 0.0
H586 H 0.82484 0.61502 0.17511 0.0
H587 H 0.85621 0.63772 0.18963 0.0
H588 H 0.82946 0.60277 0.19902 0.0
H589 H 0.78629 0.7036 0.19824 0.0
H590 H 0.82143 0.71497 0.1876 0.0
H591 H 0.78942 0.69039 0.17434 0.0
H592 H 0.89894 0.71826 0.15261 0.0
H593 H 0.82061 0.66366 0.12065 0.0
H594 H 0.87889 0.68791 0.1982 0.0
H595 H 0.86557 0.71272 0.19925 0.0
H596 H 0.89972 0.72332 0.18724 0.0
H597 H 0.78271 0.61736 0.15917 0.0
H598 H 0.77694 0.63143 0.1364 0.0
H599 H 0.77155 0.64386 0.15998 0.0
C600 C 0.2175 0.33894 0.38216 0.0
C601 C 0.19364 0.31955 0.39367 0.0
C602 C 0.21384 0.35123 0.36479 0.0
C603 C 0.18555 0.34337 0.35837 0.0
C604 C 0.16128 0.32301 0.36954 0.0
C605 C 0.16563 0.31169 0.38723 0.0
C606 C 0.24033 0.37333 0.35365 0.0
C607 C 0.13073 0.31342 0.36291 0.0
C608 C 0.1736 0.3934 0.3241 0.0
C609 C 0.17179 0.38085 0.30553 0.0
C610 C 0.17885 0.3819 0.34135 0.0
C611 C 0.18143 0.35671 0.34008 0.0
C612 C 0.17997 0.3442 0.32132 0.0
C613 C 0.17558 0.35665 0.30428 0.0
C614 C 0.18115 0.39644 0.36097 0.0
C615 C 0.18194 0.31701 0.31931 0.0
H616 H 0.23927 0.3455 0.38716 0.0
H617 H 0.14712 0.29678 0.39605 0.0
H618 H 0.23971 0.36608 0.33818 0.0
H619 H 0.2405 0.39423 0.353 0.0
H620 H 0.26084 0.37715 0.36062 0.0
H621 H 0.11422 0.29616 0.37255 0.0
H622 H 0.12706 0.33216 0.36302 0.0
H623 H 0.12745 0.30522 0.34748 0.0
H624 H 0.17056 0.41201 0.32518 0.0
H625 H 0.17371 0.3465 0.29003 0.0
H626 H 0.20164 0.40139 0.36851 0.0
H627 H 0.16302 0.38159 0.37074 0.0
H628 H 0.18055 0.41688 0.3593 0.0
H629 H 0.20262 0.32047 0.32567 0.0
H630 H 0.18057 0.31006 0.30366 0.0
H631 H 0.16409 0.29912 0.32777 0.0
C632 C 0.65533 0.83384 0.29689 0.0
C633 C 0.63144 0.8056 0.29781 0.0
C634 C 0.66773 0.85008 0.31418 0.0
C635 C 0.65554 0.83813 0.33285 0.0
C636 C 0.63056 0.81016 0.33379 0.0
C637 C 0.61907 0.79409 0.31629 0.0
C638 C 0.69465 0.87955 0.31251 0.0
C639 C 0.61636 0.79692 0.35332 0.0
C640 C 0.7009 0.86454 0.38004 0.0
C641 C 0.6926 0.88376 0.38771 0.0
C642 C 0.68971 0.85023 0.36189 0.0
C643 C 0.66912 0.85464 0.35144 0.0
C644 C 0.66097 0.87429 0.35903 0.0
C645 C 0.67305 0.88884 0.3769 0.0
C646 C 0.69953 0.83001 0.35406 0.0
C647 C 0.63868 0.8792 0.34864 0.0
H648 H 0.66532 0.84274 0.2827 0.0
H649 H 0.60067 0.77227 0.31712 0.0
H650 H 0.69118 0.8962 0.31983 0.0
H651 H 0.71292 0.87933 0.32024 0.0
H652 H 0.70102 0.88611 0.29688 0.0
H653 H 0.59594 0.77591 0.35142 0.0
H654 H 0.63143 0.79327 0.36258 0.0
H655 H 0.61144 0.81199 0.36155 0.0
H656 H 0.71596 0.86049 0.3883 0.0
H657 H 0.6662 0.90338 0.38282 0.0
H658 H 0.70742 0.83593 0.33863 0.0
H659 H 0.68097 0.80749 0.35379 0.0
H660 H 0.7171 0.83046 0.3632 0.0
H661 H 0.64556 0.88646 0.33321 0.0
H662 H 0.63508 0.89561 0.35628 0.0
H663 H 0.61772 0.85852 0.34789 0.0
C664 C 0.12935 0.8469 0.38753 0.0
C665 C 0.13999 0.84482 0.40607 0.0
C666 C 0.14533 0.85042 0.37011 0.0
C667 C 0.17221 0.85097 0.37117 0.0
C668 C 0.18319 0.84923 0.38989 0.0
C669 C 0.16716 0.84658 0.40709 0.0
C670 C 0.13321 0.85306 0.35053 0.0
C671 C 0.21136 0.84906 0.39171 0.0
C672 C 0.19717 0.83084 0.32373 0.0
C673 C 0.21813 0.85812 0.3166 0.0
C674 C 0.18275 0.8281 0.34179 0.0
C675 C 0.18877 0.85328 0.35269 0.0
C676 C 0.21021 0.8808 0.34568 0.0
C677 C 0.22485 0.88284 0.32792 0.0
C678 C 0.16064 0.79827 0.34902 0.0
C679 C 0.21691 0.90826 0.35652 0.0
H680 H 0.10832 0.8454 0.38661 0.0
H681 H 0.17533 0.84444 0.42131 0.0
H682 H 0.14947 0.87285 0.34264 0.0
H683 H 0.12845 0.83423 0.34102 0.0
H684 H 0.113 0.85407 0.35233 0.0
H685 H 0.21709 0.84786 0.40735 0.0
H686 H 0.20971 0.83019 0.38357 0.0
H687 H 0.2293 0.86886 0.38489 0.0
H688 H 0.19179 0.81167 0.31507 0.0
H689 H 0.2407 0.90408 0.32243 0.0
H690 H 0.13877 0.796 0.34901 0.0
H691 H 0.16554 0.79517 0.36449 0.0
H692 H 0.16001 0.78081 0.33968 0.0
H693 H 0.19716 0.91027 0.35717 0.0
H694 H 0.2345 0.92796 0.34929 0.0
H695 H 0.22342 0.90745 0.37198 0.0
C696 C 0.61454 0.81672 0.80555 0.0
C697 C 0.62625 0.8163 0.78705 0.0
C698 C 0.62627 0.81272 0.82314 0.0
C699 C 0.65084 0.80903 0.82226 0.0
C700 C 0.66218 0.80772 0.80358 0.0
C701 C 0.64953 0.81099 0.78622 0.0
C702 C 0.61292 0.81336 0.8427 0.0
C703 C 0.68864 0.80438 0.80194 0.0
C704 C 0.69821 0.83123 0.86859 0.0
C705 C 0.6899 0.8043 0.87729 0.0
C706 C 0.68637 0.83305 0.85036 0.0
C707 C 0.66511 0.80737 0.84089 0.0
C708 C 0.65699 0.78013 0.84949 0.0
C709 C 0.66972 0.77893 0.86741 0.0
C710 C 0.6962 0.8625 0.84143 0.0
C711 C 0.63399 0.75227 0.84017 0.0
H712 H 0.59664 0.82093 0.80632 0.0
H713 H 0.65904 0.81108 0.77202 0.0
H714 H 0.60831 0.79406 0.85166 0.0
H715 H 0.62842 0.8328 0.85123 0.0
H716 H 0.59247 0.81389 0.84081 0.0
H717 H 0.69407 0.80253 0.78633 0.0
H718 H 0.70752 0.82342 0.80876 0.0
H719 H 0.68524 0.7849 0.81015 0.0
H720 H 0.71372 0.85091 0.87614 0.0
H721 H 0.66285 0.758 0.87412 0.0
H722 H 0.67784 0.86677 0.84112 0.0
H723 H 0.70327 0.86309 0.82591 0.0
H724 H 0.71434 0.88018 0.84986 0.0
H725 H 0.61313 0.75219 0.83961 0.0
H726 H 0.6306 0.73281 0.84846 0.0
H727 H 0.64 0.7506 0.82471 0.0
C728 C 0.15363 0.83298 0.90525 0.0
C729 C 0.15554 0.86017 0.90379 0.0
C730 C 0.15115 0.81661 0.88827 0.0
C731 C 0.14967 0.82723 0.86935 0.0
C732 C 0.15014 0.85402 0.86788 0.0
C733 C 0.15356 0.87038 0.88507 0.0
C734 C 0.1514 0.78854 0.89053 0.0
C735 C 0.14765 0.86572 0.84808 0.0
C736 C 0.17127 0.80267 0.82241 0.0
C737 C 0.14424 0.78151 0.81508 0.0
C738 C 0.17347 0.81689 0.84047 0.0
C739 C 0.14796 0.81055 0.85109 0.0
C740 C 0.12069 0.78886 0.84387 0.0
C741 C 0.11922 0.77435 0.82617 0.0
C742 C 0.20305 0.83924 0.84794 0.0
C743 C 0.09288 0.78195 0.85433 0.0
H744 H 0.15568 0.82516 0.91963 0.0
H745 H 0.15516 0.89142 0.88382 0.0
H746 H 0.13188 0.77048 0.88353 0.0
H747 H 0.17059 0.79025 0.88281 0.0
H748 H 0.15211 0.78297 0.90628 0.0
H749 H 0.14615 0.8857 0.84957 0.0
H750 H 0.16682 0.87076 0.83884 0.0
H751 H 0.12819 0.84915 0.84006 0.0
H752 H 0.19065 0.80841 0.81389 0.0
H753 H 0.09815 0.7584 0.82047 0.0
H754 H 0.20578 0.83465 0.86356 0.0
H755 H 0.20519 0.86104 0.84753 0.0
H756 H 0.22081 0.83982 0.83896 0.0
H757 H 0.09352 0.77591 0.86995 0.0
H758 H 0.07347 0.76398 0.84709 0.0
H759 H 0.09047 0.80146 0.8545 0.0
C760 C 0.16833 0.32059 0.90759 0.0
C761 C 0.14034 0.29651 0.9057 0.0
C762 C 0.1856 0.33413 0.89088 0.0
C763 C 0.17501 0.32287 0.87178 0.0
C764 C 0.14725 0.29777 0.86985 0.0
C765 C 0.13008 0.28517 0.88679 0.0
C766 C 0.21473 0.36118 0.89362 0.0
C767 C 0.13546 0.28452 0.84983 0.0
C768 C 0.2045 0.37037 0.82567 0.0
C769 C 0.22449 0.36267 0.81859 0.0
C770 C 0.18896 0.35833 0.84332 0.0
C771 C 0.19283 0.33743 0.85381 0.0
C772 C 0.21329 0.32994 0.84684 0.0
C773 C 0.22911 0.34292 0.82952 0.0
C774 C 0.16797 0.36755 0.85053 0.0
C775 C 0.21768 0.30733 0.85725 0.0
H776 H 0.17626 0.32982 0.92212 0.0
H777 H 0.10844 0.26666 0.88521 0.0
H778 H 0.23209 0.35825 0.8869 0.0
H779 H 0.21486 0.37963 0.8859 0.0
H780 H 0.22003 0.36697 0.90946 0.0
H781 H 0.11441 0.26395 0.85095 0.0
H782 H 0.13234 0.29996 0.84061 0.0
H783 H 0.1512 0.28014 0.84201 0.0
H784 H 0.20075 0.38553 0.81729 0.0
H785 H 0.24419 0.33648 0.82404 0.0
H786 H 0.17255 0.37456 0.86622 0.0
H787 H 0.14551 0.34892 0.84985 0.0
H788 H 0.16907 0.38557 0.84159 0.0
H789 H 0.22371 0.31349 0.87293 0.0
H790 H 0.23478 0.30428 0.85014 0.0
H791 H 0.19707 0.28626 0.85719 0.0
C792 C 0.84673 0.70782 0.66244 0.0
C793 C 0.81972 0.70347 0.65627 0.0
C794 C 0.84926 0.69444 0.67972 0.0
C795 C 0.82402 0.67538 0.69062 0.0
C796 C 0.79672 0.67096 0.6844 0.0
C797 C 0.79499 0.68543 0.66753 0.0
C798 C 0.87889 0.70049 0.6862 0.0
C799 C 0.76917 0.65016 0.69515 0.0
C800 C 0.82953 0.61974 0.72309 0.0
C801 C 0.83249 0.63173 0.742 0.0
C802 C 0.82578 0.6332 0.70631 0.0
C803 C 0.8261 0.65985 0.70841 0.0
C804 C 0.82873 0.67182 0.72753 0.0
C805 C 0.83141 0.65739 0.74409 0.0
C806 C 0.82199 0.61916 0.6863 0.0
C807 C 0.82998 0.70054 0.73041 0.0
H808 H 0.86586 0.72163 0.65374 0.0
H809 H 0.77395 0.68152 0.66263 0.0
H810 H 0.88275 0.70776 0.70186 0.0
H811 H 0.8801 0.68033 0.68535 0.0
H812 H 0.89649 0.71733 0.67694 0.0
H813 H 0.74961 0.64887 0.68827 0.0
H814 H 0.7666 0.62816 0.69519 0.0
H815 H 0.77034 0.65689 0.71081 0.0
H816 H 0.83048 0.6 0.72139 0.0
H817 H 0.83426 0.66708 0.75862 0.0
H818 H 0.84088 0.63304 0.67676 0.0
H819 H 0.80241 0.61695 0.67885 0.0
H820 H 0.81991 0.59738 0.68736 0.0
H821 H 0.84885 0.71776 0.72227 0.0
H822 H 0.83192 0.70683 0.74626 0.0
H823 H 0.81025 0.69962 0.72424 0.0
C824 C 0.36133 0.18346 0.73091 0.0
C825 C 0.38592 0.21128 0.7302 0.0
C826 C 0.34891 0.16744 0.71354 0.0
C827 C 0.36183 0.17909 0.69497 0.0
C828 C 0.38741 0.20666 0.69424 0.0
C829 C 0.39884 0.22261 0.71182 0.0
C830 C 0.32129 0.13852 0.715 0.0
C831 C 0.40244 0.21952 0.67485 0.0
C832 C 0.34385 0.12706 0.65159 0.0
C833 C 0.32525 0.13275 0.64015 0.0
C834 C 0.35589 0.14196 0.66938 0.0
C835 C 0.34854 0.16254 0.6763 0.0
C836 C 0.32887 0.16759 0.6652 0.0
C837 C 0.31785 0.15301 0.64709 0.0
C838 C 0.37732 0.1364 0.68038 0.0
C839 C 0.31976 0.1887 0.67233 0.0
H840 H 0.35087 0.17474 0.74501 0.0
H841 H 0.41775 0.24413 0.71114 0.0
H842 H 0.30377 0.1393 0.70663 0.0
H843 H 0.32436 0.12128 0.70823 0.0
H844 H 0.31405 0.13237 0.73056 0.0
H845 H 0.42316 0.24019 0.67693 0.0
H846 H 0.40701 0.20397 0.66695 0.0
H847 H 0.38807 0.22369 0.66521 0.0
H848 H 0.3501 0.11179 0.64621 0.0
H849 H 0.30357 0.15759 0.63831 0.0
H850 H 0.36971 0.12925 0.69572 0.0
H851 H 0.39851 0.15678 0.6814 0.0
H852 H 0.38071 0.11965 0.67306 0.0
H853 H 0.31136 0.1833 0.68769 0.0
H854 H 0.30278 0.18868 0.66278 0.0
H855 H 0.33879 0.21095 0.67258 0.0
C856 C 0.86295 0.17173 0.65104 0.0
C857 C 0.88312 0.19896 0.64343 0.0
C858 C 0.8489 0.16922 0.66921 0.0
C859 C 0.85452 0.19457 0.67973 0.0
C860 C 0.87503 0.22208 0.67215 0.0
C861 C 0.88932 0.22392 0.65427 0.0
C862 C 0.82775 0.13943 0.67704 0.0
C863 C 0.88121 0.24967 0.68259 0.0
C864 C 0.7955 0.18618 0.71562 0.0
C865 C 0.80703 0.18451 0.73391 0.0
C866 C 0.81115 0.19048 0.69795 0.0
C867 C 0.83865 0.19233 0.6985 0.0
C868 C 0.8507 0.19143 0.71698 0.0
C869 C 0.83493 0.18792 0.73445 0.0
C870 C 0.7979 0.19222 0.67862 0.0
C871 C 0.87966 0.19278 0.71825 0.0
H872 H 0.85802 0.15238 0.64274 0.0
H873 H 0.90457 0.2451 0.64838 0.0
H874 H 0.83369 0.13703 0.69238 0.0
H875 H 0.80565 0.13657 0.67759 0.0
H876 H 0.8271 0.1219 0.66776 0.0
H877 H 0.89793 0.26937 0.67483 0.0
H878 H 0.86101 0.2508 0.68362 0.0
H879 H 0.8887 0.24981 0.69792 0.0
H880 H 0.77394 0.18348 0.71507 0.0
H881 H 0.84386 0.18623 0.74847 0.0
H882 H 0.79305 0.17319 0.66929 0.0
H883 H 0.81346 0.21189 0.67031 0.0
H884 H 0.77752 0.19279 0.68085 0.0
H885 H 0.87845 0.1739 0.71042 0.0
H886 H 0.88644 0.1927 0.73379 0.0
H887 H 0.89666 0.21259 0.71082 0.0
C888 C 0.00727 0.55672 0.49073 0.0
C889 C 0.9889 0.5324 0.47922 0.0
C890 C 0.01937 0.55393 0.50849 0.0
C891 C 0.0124 0.52605 0.51525 0.0
C892 C 0.99298 0.50128 0.50409 0.0
C893 C 0.98179 0.50477 0.48606 0.0
C894 C 0.04042 0.58094 0.51965 0.0
C895 C 0.98438 0.47111 0.51105 0.0
C896 C 0.06341 0.51691 0.55031 0.0
C897 C 0.05021 0.51445 0.56871 0.0
C898 C 0.05181 0.52152 0.53288 0.0
C899 C 0.02591 0.52287 0.53378 0.0
C900 C 0.0128 0.52091 0.55238 0.0
C901 C 0.02531 0.51711 0.56962 0.0
C902 C 0.06696 0.52434 0.51343 0.0
C903 C 0.9849 0.52164 0.55401 0.0
H904 H 0.01323 0.57821 0.48545 0.0
H905 H 0.96766 0.4859 0.47724 0.0
H906 H 0.0328 0.58003 0.53504 0.0
H907 H 0.06186 0.58227 0.52051 0.0
H908 H 0.0433 0.60102 0.51254 0.0
H909 H 0.96762 0.45408 0.50141 0.0
H910 H 1.00368 0.46834 0.51126 0.0
H911 H 0.97589 0.46779 0.5264 0.0
H912 H 0.08258 0.51476 0.54949 0.0
H913 H 0.01467 0.51475 0.58374 0.0
H914 H 0.07116 0.54448 0.50573 0.0
H915 H 0.05281 0.50587 0.50365 0.0
H916 H 0.08788 0.52477 0.51538 0.0
H917 H 0.98753 0.54181 0.54729 0.0
H918 H 0.97773 0.52039 0.5696 0.0
H919 H 0.96751 0.50317 0.54567 0.0
C920 C 0.51139 0.48733 0.46608 0.0
C921 C 0.50959 0.46013 0.46641 0.0
C922 C 0.51475 0.5029 0.48362 0.0
C923 C 0.51724 0.49142 0.50194 0.0
C924 C 0.51666 0.46452 0.50227 0.0
C925 C 0.51236 0.44897 0.48455 0.0
C926 C 0.51453 0.5311 0.48262 0.0
C927 C 0.52013 0.45192 0.52139 0.0
C928 C 0.55111 0.54326 0.54531 0.0
C929 C 0.52691 0.53638 0.55725 0.0
C930 C 0.54826 0.52885 0.52733 0.0
C931 C 0.52041 0.50752 0.52075 0.0
C932 C 0.49572 0.50128 0.53234 0.0
C933 C 0.49931 0.51544 0.55062 0.0
C934 C 0.57521 0.53571 0.51574 0.0
C935 C 0.46556 0.47931 0.52558 0.0
H936 H 0.5087 0.49586 0.45217 0.0
H937 H 0.51083 0.42791 0.48491 0.0
H938 H 0.49609 0.52929 0.49141 0.0
H939 H 0.53468 0.54888 0.4892 0.0
H940 H 0.51257 0.53717 0.4672 0.0
H941 H 0.52103 0.43176 0.51899 0.0
H942 H 0.54025 0.46797 0.52906 0.0
H943 H 0.5017 0.44693 0.5314 0.0
H944 H 0.57259 0.5591 0.55044 0.0
H945 H 0.48055 0.50998 0.55978 0.0
H946 H 0.5738 0.54275 0.50054 0.0
H947 H 0.57702 0.51592 0.51436 0.0
H948 H 0.59527 0.553 0.52282 0.0
H949 H 0.46172 0.48458 0.51039 0.0
H950 H 0.44854 0.47843 0.53554 0.0
H951 H 0.46331 0.45747 0.52501 0.0
C952 C 0.50672 0.00834 0.47056 0.0
C953 C 0.53176 0.03562 0.47254 0.0
C954 C 0.48961 0.9936 0.48705 0.0
C955 C 0.49711 0.00686 0.50593 0.0
C956 C 0.52162 0.03502 0.50787 0.0
C957 C 0.53901 0.04883 0.49121 0.0
C958 C 0.46421 0.96332 0.48438 0.0
C959 C 0.52978 0.05035 0.5276 0.0
C960 C 0.43826 0.97776 0.54544 0.0
C961 C 0.44694 0.96231 0.55779 0.0
C962 C 0.45451 0.99257 0.52867 0.0
C963 C 0.47952 0.99105 0.52367 0.0
C964 C 0.48776 0.97451 0.53567 0.0
C965 C 0.47171 0.96084 0.55283 0.0
C966 C 0.44549 0.01074 0.51674 0.0
C967 C 0.51372 0.97152 0.53049 0.0
H968 H 0.50132 0.99773 0.45624 0.0
H969 H 0.55842 0.06983 0.49282 0.0
H970 H 0.46754 0.94786 0.49345 0.0
H971 H 0.44396 0.96222 0.48963 0.0
H972 H 0.46121 0.9561 0.4687 0.0
H973 H 0.54798 0.07302 0.52632 0.0
H974 H 0.51083 0.05064 0.53418 0.0
H975 H 0.53624 0.03849 0.53799 0.0
H976 H 0.41949 0.97953 0.54945 0.0
H977 H 0.47859 0.9491 0.56243 0.0
H978 H 0.44137 1.00323 0.50116 0.0
H979 H 0.46331 0.03365 0.51663 0.0
H980 H 0.42567 0.00992 0.52273 0.0
H981 H 0.51186 0.96369 0.51505 0.0
H982 H 0.51605 0.9563 0.54053 0.0
H983 H 0.53377 0.99299 0.53138 0.0
C984 C 0.52355 0.02813 0.97029 0.0
C985 C 0.51712 0.05065 0.97117 0.0
C986 C 0.52734 0.01578 0.98762 0.0
C987 C 0.52552 0.02675 1.00634 0.0
C988 C 0.52062 0.05055 1.00727 0.0
C989 C 0.51599 0.06188 0.98971 0.0
C990 C 0.53183 0.99003 0.98591 0.0
C991 C 0.51951 0.06358 0.02686 0.0
C992 C 0.5059 0.97949 0.05268 0.0
C993 C 0.53326 0.98854 0.06093 0.0
C994 C 0.5031 0.99109 0.03461 0.0
C995 C 0.5282 0.01299 0.02492 0.0
C996 C 0.55586 0.02205 0.03319 0.0
C997 C 0.55806 0.00943 0.05088 0.0
C998 C 0.47326 0.98019 0.02601 0.0
C999 C 0.58311 0.04584 0.02373 0.0
H1000 H 0.52394 0.01894 0.95606 0.0
H1001 H 0.51088 0.07916 0.9905 0.0
H1002 H 0.55184 0.99434 0.99382 0.0
H1003 H 0.51344 0.97087 0.99302 0.0
H1004 H 0.53347 0.98456 0.97028 0.0
H1005 H 0.51802 0.08351 0.025 0.0
H1006 H 0.50041 0.04758 0.03545 0.0
H1007 H 0.5391 0.06897 0.03574 0.0
H1008 H 0.48668 0.96345 0.06039 0.0
H1009 H 0.57929 0.01692 0.05731 0.0
H1010 H 0.47263 0.97319 1.01045 0.0
H1011 H 0.46809 0.99793 0.02583 0.0
H1012 H 0.45618 0.96172 0.03456 0.0
H1013 H 0.58506 0.03989 1.00831 0.0
H1014 H 0.60298 0.05037 0.03199 0.0
H1015 H 0.58198 0.06607 0.02304 0.0
C1016 C 0.97336 0.47601 0.98055 0.0
C1017 C 0.97844 0.4536 0.97494 0.0
C1018 C 0.98537 0.49184 0.9981 0.0
C1019 C 1.00372 0.48579 1.00993 0.0
C1020 C 0.00853 0.4629 1.00445 0.0
C1021 C 0.99549 0.44684 0.98725 0.0
C1022 C 0.97893 0.51546 1.00375 0.0
C1023 C 0.02851 0.45617 1.01628 0.0
C1024 C 0.05848 0.54717 0.04274 0.0
C1025 C 0.04573 0.53848 0.06148 0.0
C1026 C 0.04543 0.52987 0.02592 0.0
C1027 C 0.01846 0.50378 0.02778 0.0
C1028 C 1.00564 0.49485 0.04671 0.0
C1029 C 0.01964 0.51206 0.06334 0.0
C1030 C 0.06031 0.53971 1.00612 0.0
C1031 C 0.9766 0.46765 0.04931 0.0
H1032 H 0.96034 0.48144 0.97107 0.0
H1033 H 0.99999 0.4299 0.98288 0.0
H1034 H 0.97112 0.51247 0.01927 0.0
H1035 H 0.99906 0.53686 1.00288 0.0
H1036 H 0.96237 0.51583 0.99396 0.0
H1037 H 0.02968 0.4374 1.0102 0.0
H1038 H 0.05069 0.47536 1.01638 0.0
H1039 H 0.02116 0.45142 0.03188 0.0
H1040 H 0.07853 0.56763 0.04121 0.0
H1041 H 0.00933 0.50547 0.07771 0.0
H1042 H 0.04677 0.54435 0.99597 0.0
H1043 H 0.06292 0.52222 0.99926 0.0
H1044 H 0.082 0.5595 1.00736 0.0
H1045 H 0.95993 0.46931 0.04048 0.0
H1046 H 0.96952 0.46372 0.06503 0.0
H1047 H 0.97755 0.44856 0.04374 0.0
C1048 C 0.54102 0.49578 0.99435 0.0
C1049 C 0.53352 0.50105 0.97556 0.0
C1050 C 0.52374 0.49258 1.01101 0.0
C1051 C 0.49914 0.49606 1.00896 0.0
C1052 C 0.49151 0.50134 0.98997 0.0
C1053 C 0.50846 0.50322 0.97348 0.0
C1054 C 0.53203 0.48583 0.03083 0.0
C1055 C 0.46612 0.50619 0.98716 0.0
C1056 C 0.44015 0.46615 0.04842 0.0
C1057 C 0.44873 0.49023 0.06083 0.0
C1058 C 0.45645 0.46769 0.03165 0.0
C1059 C 0.48142 0.49428 0.02666 0.0
C1060 C 0.48952 0.51903 0.03868 0.0
C1061 C 0.47345 0.51654 0.05588 0.0
C1062 C 0.44758 0.44053 0.01973 0.0
C1063 C 0.51534 0.54805 0.0335 0.0
H1064 H 0.56049 0.4943 0.99603 0.0
H1065 H 0.50294 0.50797 0.95905 0.0
H1066 H 0.53843 0.50432 0.04108 0.0
H1067 H 0.51315 0.46665 0.03753 0.0
H1068 H 0.55031 0.48148 0.02967 0.0
H1069 H 0.46324 0.51039 0.97146 0.0
H1070 H 0.44584 0.48703 0.99235 0.0
H1071 H 0.46935 0.52497 0.99621 0.0
H1072 H 0.42141 0.44557 0.0524 0.0
H1073 H 0.48025 0.53514 0.06549 0.0
H1074 H 0.46548 0.43556 0.01963 0.0
H1075 H 0.44343 0.44385 1.00414 0.0
H1076 H 0.4278 0.42147 0.02571 0.0
H1077 H 0.53551 0.5469 0.03459 0.0
H1078 H 0.51737 0.56562 0.0434 0.0
H1079 H 0.51356 0.55383 1.01798 0.0
C1080 C 0.22998 0.98427 1.00571 0.0
C1081 C 0.2095 0.97579 0.99036 0.0
C1082 C 0.24298 0.01218 1.01388 0.0
C1083 C 0.23498 0.03222 1.0069 0.0
C1084 C 0.21375 0.02368 0.99178 0.0
C1085 C 0.20149 0.99565 0.9835 0.0
C1086 C 0.26586 0.02042 0.02969 0.0
C1087 C 0.20418 0.04423 0.98426 0.0
C1088 C 0.25406 0.09547 0.0418 0.0
C1089 C 0.27948 0.11772 0.03321 0.0
C1090 C 0.23872 0.06791 0.03297 0.0
C1091 C 0.24939 0.06218 1.01535 0.0
C1092 C 0.27511 0.08455 1.00664 0.0
C1093 C 0.28963 0.11212 1.01554 0.0
C1094 C 0.21116 0.04486 0.04257 0.0
C1095 C 0.28765 0.0792 0.98815 0.0
H1096 H 0.23661 0.96929 1.01106 0.0
H1097 H 0.18572 0.98933 0.97168 0.0
H1098 H 0.28659 0.03925 0.02467 0.0
H1099 H 0.25926 0.02707 0.04338 0.0
H1100 H 0.26981 1.00237 0.03338 0.0
H1101 H 0.18639 0.03386 0.97323 0.0
H1102 H 0.19668 0.05231 0.99678 0.0
H1103 H 0.22276 0.06336 0.9773 0.0
H1104 H 0.24582 0.09974 0.05529 0.0
H1105 H 0.30921 0.12922 1.00879 0.0
H1106 H 0.21416 0.02681 0.04781 0.0
H1107 H 0.19324 0.0357 0.03161 0.0
H1108 H 0.20457 0.05337 0.05536 0.0
H1109 H 0.29332 0.06212 0.99103 0.0
H1110 H 0.30741 0.09903 0.98296 0.0
H1111 H 0.27134 0.07121 0.9761 0.0
C1112 C 0.01978 0.24836 1.01018 0.0
C1113 C 0.0271 0.23681 0.99393 0.0
C1114 C 0.99236 0.23324 0.01912 0.0
C1115 C 0.97167 0.20553 1.01193 0.0
C1116 C 0.97903 0.19341 0.99579 0.0
C1117 C 1.00656 0.20929 0.98687 0.0
C1118 C 0.98538 0.24718 0.03611 0.0
C1119 C 0.95775 0.1637 0.98791 0.0
C1120 C 0.91072 0.15766 0.04744 0.0
C1121 C 0.88755 0.16058 0.04031 0.0
C1122 C 0.93796 0.17163 0.0381 0.0
C1123 C 0.94241 0.18943 0.02139 0.0
C1124 C 0.9192 0.19273 1.01425 0.0
C1125 C 0.892 0.17808 0.02368 0.0
C1126 C 0.96197 0.16722 0.04607 0.0
C1127 C 0.92316 0.21193 0.99671 0.0
H1128 H 0.03532 0.26969 1.01571 0.0
H1129 H 0.01197 0.20016 0.97435 0.0
H1130 H 0.96626 0.24932 0.03232 0.0
H1131 H 0.97967 0.23329 0.04946 0.0
H1132 H 1.00377 0.269 0.03983 0.0
H1133 H 0.96705 0.15694 0.97571 0.0
H1134 H 0.95081 0.14745 0.99998 0.0
H1135 H 0.93804 0.1635 0.98238 0.0
H1136 H 0.90744 0.14394 0.06014 0.0
H1137 H 0.87422 0.18041 1.01804 0.0
H1138 H 0.98038 0.18825 0.05105 0.0
H1139 H 0.97024 0.15887 0.0342 0.0
H1140 H 0.95471 0.15182 0.0587 0.0
H1141 H 0.94054 0.23445 0.99989 0.0
H1142 H 0.90298 0.21218 0.99294 0.0
H1143 H 0.9301 0.20443 0.98359 0.0
C1144 C 0.81385 0.71389 0.02316 0.0
C1145 C 0.83934 0.71653 1.01518 0.0
C1146 C 0.79808 0.72453 1.01294 0.0
C1147 C 0.80859 0.73905 0.99461 0.0
C1148 C 0.83431 0.74168 0.98648 0.0
C1149 C 0.8491 0.72999 0.99671 0.0
C1150 C 0.77033 0.72053 0.02187 0.0
C1151 C 0.8468 0.75777 0.96734 0.0
C1152 C 0.75689 0.74996 0.96135 0.0
C1153 C 0.76193 0.77717 0.96763 0.0
C1154 C 0.77209 0.73732 0.96984 0.0
C1155 C 0.79343 0.75269 0.9845 0.0
C1156 C 0.7996 0.78085 0.99007 0.0
C1157 C 0.7834 0.79249 0.98185 0.0
C1158 C 0.7643 0.70697 0.96385 0.0
C1159 C 0.82284 0.79844 1.0051 0.0
H1160 H 0.80616 0.70339 0.03738 0.0
H1161 H 0.86898 0.73236 0.99056 0.0
H1162 H 0.77307 0.74193 0.02596 0.0
H1163 H 0.75249 0.71059 1.01088 0.0
H1164 H 0.76381 0.70666 0.0353 0.0
H1165 H 0.86659 0.75729 0.96275 0.0
H1166 H 0.83052 0.74829 0.95531 0.0
H1167 H 0.8524 0.78071 0.96905 0.0
H1168 H 0.73996 0.73789 0.95058 0.0
H1169 H 0.7873 0.81354 0.98672 0.0
H1170 H 0.75528 0.6923 0.9768 0.0
H1171 H 0.78392 0.70645 0.95901 0.0
H1172 H 0.74807 0.6984 0.9517 0.0
H1173 H 0.81634 0.78792 0.01982 0.0
H1174 H 0.82682 0.82094 1.00641 0.0
H1175 H 0.84347 0.79939 1.00099 0.0
C1176 C 0.01057 0.25204 0.56469 0.0
C1177 C 0.98774 0.22628 0.55696 0.0
C1178 C 0.03893 0.26376 0.55719 0.0
C1179 C 0.04469 0.24886 0.54208 0.0
C1180 C 0.02193 0.22196 0.53509 0.0
C1181 C 0.99366 0.2113 0.54234 0.0
C1182 C 0.06234 0.29284 0.56469 0.0
C1183 C 0.02725 0.20482 0.51952 0.0
C1184 C 0.10744 0.28912 0.506 0.0
C1185 C 0.12884 0.28437 0.51425 0.0
C1186 C 0.08033 0.27853 0.51528 0.0
C1187 C 0.07411 0.26192 0.53287 0.0
C1188 C 0.09566 0.257 0.54121 0.0
C1189 C 0.1229 0.26867 0.53198 0.0
C1190 C 0.05828 0.28498 0.50619 0.0
C1191 C 0.08967 0.23865 0.55954 0.0
H1192 H 1.00593 0.2639 0.57575 0.0
H1193 H 0.97599 0.19139 0.53633 0.0
H1194 H 0.08142 0.29146 0.56974 0.0
H1195 H 0.06974 0.30888 0.55246 0.0
H1196 H 0.0547 0.30101 0.57709 0.0
H1197 H 0.00801 0.183 0.51719 0.0
H1198 H 0.03277 0.21669 0.50525 0.0
H1199 H 0.04593 0.2022 0.52378 0.0
H1200 H 0.11199 0.30135 0.49236 0.0
H1201 H 0.13928 0.26468 0.5383 0.0
H1202 H 0.05052 0.29475 0.51742 0.0
H1203 H 0.03917 0.26455 0.50111 0.0
H1204 H 0.06721 0.29998 0.49338 0.0
H1205 H 0.08301 0.24773 0.57191 0.0
H1206 H 0.10883 0.23713 0.56429 0.0
H1207 H 0.07141 0.21643 0.55668 0.0
C1208 C 0.8063 0.79194 0.54743 0.0
C1209 C 0.79289 0.77653 0.56471 0.0
C1210 C 0.79585 0.80808 0.53752 0.0
C1211 C 0.77059 0.80769 0.54457 0.0
C1212 C 0.75701 0.79214 0.56208 0.0
C1213 C 0.76867 0.7772 0.57215 0.0
C1214 C 0.81167 0.8253 0.51939 0.0
C1215 C 0.72952 0.79033 0.56975 0.0
C1216 C 0.7532 0.8658 0.52853 0.0
C1217 C 0.7346 0.85249 0.51242 0.0
C1218 C 0.7655 0.85171 0.53887 0.0
C1219 C 0.75811 0.82314 0.53347 0.0
C1220 C 0.73884 0.80938 0.51744 0.0
C1221 C 0.72778 0.82447 0.50683 0.0
C1222 C 0.78677 0.86759 0.55535 0.0
C1223 C 0.72964 0.7786 0.51162 0.0
H1224 H 0.82501 0.79135 0.54167 0.0
H1225 H 0.75799 0.76484 0.58533 0.0
H1226 H 0.79773 0.81609 0.50614 0.0
H1227 H 0.81658 0.84806 0.52091 0.0
H1228 H 0.83229 0.82531 0.51682 0.0
H1229 H 0.72153 0.77718 0.58347 0.0
H1230 H 0.73317 0.81234 0.57284 0.0
H1231 H 0.71232 0.78052 0.5583 0.0
H1232 H 0.75877 0.88763 0.53272 0.0
H1233 H 0.71329 0.81413 0.49443 0.0
H1234 H 0.80761 0.86833 0.5523 0.0
H1235 H 0.77836 0.85588 0.56953 0.0
H1236 H 0.79108 0.89013 0.5572 0.0
H1237 H 0.74875 0.77718 0.50672 0.0
H1238 H 0.71336 0.77051 0.49951 0.0
H1239 H 0.72026 0.76407 0.52461 0.0
C1240 C 0.26987 0.02005 0.53245 0.0
C1241 C 0.26161 0.02915 0.54952 0.0
C1242 C 0.25285 0.99197 0.52483 0.0
C1243 C 0.22637 0.97246 0.53418 0.0
C1244 C 0.21796 0.98134 0.55157 0.0
C1245 C 0.23589 0.00949 0.55921 0.0
C1246 C 0.26309 0.98334 0.50657 0.0
C1247 C 0.18963 0.96139 0.56177 0.0
C1248 C 0.17136 0.91349 0.50022 0.0
C1249 C 0.17373 0.88934 0.50566 0.0
C1250 C 0.18755 0.94029 0.50988 0.0
C1251 C 0.20717 0.94334 0.52512 0.0
C1252 C 0.20974 0.91905 0.53065 0.0
C1253 C 0.19275 0.89228 0.52102 0.0
C1254 C 0.18376 0.96543 0.50369 0.0
C1255 C 0.23086 0.92151 0.54646 0.0
H1256 H 0.28994 0.03496 0.52502 0.0
H1257 H 0.22938 0.0164 0.57237 0.0
H1258 H 0.26344 0.96299 0.50935 0.0
H1259 H 0.24783 0.9791 0.49417 0.0
H1260 H 0.28511 1.00035 0.50185 0.0
H1261 H 0.18658 0.97114 0.57544 0.0
H1262 H 0.17134 0.95614 0.55154 0.0
H1263 H 0.18855 0.94065 0.56566 0.0
H1264 H 0.15643 0.91134 0.48856 0.0
H1265 H 0.19466 0.87371 0.52535 0.0
H1266 H 0.20425 0.98284 0.49721 0.0
H1267 H 0.17875 0.97473 0.51679 0.0
H1268 H 0.16617 0.95901 0.49262 0.0
H1269 H 0.25329 0.93749 0.54185 0.0
H1270 H 0.22973 0.90046 0.54945 0.0
H1271 H 0.2265 0.92958 0.56044 0.0
C1272 C 0.72433 0.88977 1.01724 0.0
C1273 C 0.73309 0.88779 0.99801 0.0
C1274 C 0.73612 0.91657 0.02705 0.0
C1275 C 0.7578 0.94196 1.01762 0.0
C1276 C 0.76704 0.94002 0.99829 0.0
C1277 C 0.75428 0.91302 0.98861 0.0
C1278 C 0.72504 0.91775 0.0474 0.0
C1279 C 0.79052 0.96645 0.98788 0.0
C1280 C 0.76755 0.01445 0.0343 0.0
C1281 C 0.79058 0.02409 0.04781 0.0
C1282 C 0.75677 0.98787 0.02441 0.0
C1283 C 0.76978 0.97068 0.02766 0.0
C1284 C 0.79353 0.98057 0.04092 0.0
C1285 C 0.80339 0.00698 0.05106 0.0
C1286 C 0.73096 0.97786 1.01083 0.0
C1287 C 0.80843 0.9632 0.04442 0.0
H1288 H 0.70791 0.87035 0.02457 0.0
H1289 H 0.76138 0.91154 0.97384 0.0
H1290 H 0.74314 0.92664 0.05821 0.0
H1291 H 0.71597 0.93251 0.04726 0.0
H1292 H 0.70797 0.89609 0.05264 0.0
H1293 H 0.79634 0.96106 0.97333 0.0
H1294 H 0.78329 0.98245 0.98549 0.0
H1295 H 0.81026 0.97706 0.99726 0.0
H1296 H 0.75731 0.02738 0.03184 0.0
H1297 H 0.82127 0.01437 0.0614 0.0
H1298 H 0.71284 0.95685 1.01613 0.0
H1299 H 0.73659 0.97426 0.9957 0.0
H1300 H 0.72325 0.99373 1.00997 0.0
H1301 H 0.79303 0.94205 0.05124 0.0
H1302 H 0.82762 0.97465 0.05425 0.0
H1303 H 0.81551 0.95855 0.03011 0.0
C1304 C 0.11683 0.84115 0.02775 0.0
C1305 C 0.11959 0.83434 1.0081 0.0
C1306 C 0.08988 0.82711 0.0375 0.0
C1307 C 0.06528 0.80496 0.02763 0.0
C1308 C 0.06828 0.79721 1.00804 0.0
C1309 C 0.09525 0.81242 0.99838 0.0
C1310 C 0.08749 0.83681 0.05806 0.0
C1311 C 0.04291 0.77306 0.9972 0.0
C1312 C 0.99955 0.75114 0.05767 0.0
C1313 C 0.97939 0.75988 0.05318 0.0
C1314 C 0.02775 0.76584 0.04971 0.0
C1315 C 0.03622 0.79042 0.03749 0.0
C1316 C 0.0163 0.80022 0.03386 0.0
C1317 C 0.98789 0.78441 0.04137 0.0
C1318 C 0.04784 0.75401 0.05343 0.0
C1319 C 0.02469 0.8269 0.02154 0.0
H1320 H 0.13552 0.85843 0.03521 0.0
H1321 H 0.09732 0.80713 0.98319 0.0
H1322 H 0.07216 0.8452 0.05793 0.0
H1323 H 0.07864 0.81821 0.06845 0.0
H1324 H 0.10872 0.85406 0.06382 0.0
H1325 H 0.0494 0.76799 0.98278 0.0
H1326 H 0.03274 0.75313 1.00639 0.0
H1327 H 0.02618 0.77922 0.99442 0.0
H1328 H 0.99268 0.73171 0.06643 0.0
H1329 H 0.97213 0.7909 0.03771 0.0
H1330 H 0.06888 0.7712 0.05937 0.0
H1331 H 0.05242 0.74659 0.03924 0.0
H1332 H 0.03847 0.73552 0.06396 0.0
H1333 H 0.04563 0.84522 0.02676 0.0
H1334 H 0.00799 0.83358 0.02207 0.0
H1335 H 0.02767 0.82262 1.0059 0.0
C1336 C 0.18403 0.29356 0.02288 0.0
C1337 C 0.16757 0.28012 1.0059 0.0
C1338 C 0.19997 0.28255 0.03244 0.0
C1339 C 0.19901 0.25716 0.02509 0.0
C1340 C 0.18215 0.24333 1.00809 0.0
C1341 C 0.16689 0.25512 0.99861 0.0
C1342 C 0.21815 0.2983 0.05026 0.0
C1343 C 0.18021 0.21605 0.9999 0.0
C1344 C 0.2612 0.24336 0.03548 0.0
C1345 C 0.25024 0.2232 0.05104 0.0
C1346 C 0.24501 0.25497 0.02727 0.0
C1347 C 0.2168 0.24587 0.03449 0.0
C1348 C 0.20554 0.22556 0.05024 0.0
C1349 C 0.22253 0.21469 0.05849 0.0
C1350 C 0.25813 0.27696 1.01079 0.0
C1351 C 0.17536 0.21495 0.05812 0.0
H1352 H 0.18463 0.31285 0.02862 0.0
H1353 H 0.15396 0.24438 0.98564 0.0
H1354 H 0.21147 0.28347 0.06317 0.0
H1355 H 0.24127 0.30552 0.04725 0.0
H1356 H 0.21631 0.31754 0.05429 0.0
H1357 H 0.16497 0.20708 0.98721 0.0
H1358 H 0.20194 0.22059 0.99492 0.0
H1359 H 0.17297 0.19927 1.01163 0.0
H1360 H 0.28274 0.25037 0.02977 0.0
H1361 H 0.2139 0.19912 0.07048 0.0
H1362 H 0.25783 0.29701 1.01479 0.0
H1363 H 0.24506 0.26826 0.99711 0.0
H1364 H 0.28084 0.28276 1.00748 0.0
H1365 H 0.17324 0.23354 0.06336 0.0
H1366 H 0.16986 0.19935 0.07051 0.0
H1367 H 0.15928 0.20423 0.04609 0.0
C1368 C 0.92098 0.76069 0.55616 0.0
C1369 C 0.89635 0.73758 0.54742 0.0
C1370 C 0.94818 0.77338 0.54671 0.0
C1371 C 0.95099 0.76231 0.52828 0.0
C1372 C 0.92628 0.73862 0.51959 0.0
C1373 C 0.89926 0.72678 0.52915 0.0
C1374 C 0.97384 0.7989 0.55632 0.0
C1375 C 0.92838 0.72567 0.50021 0.0
C1376 C 0.01494 0.80706 0.49373 0.0
C1377 C 0.03348 0.79623 0.49815 0.0
C1378 C 0.9884 0.79686 0.50381 0.0
C1379 C 0.97989 0.77483 0.51833 0.0
C1380 C 0.99862 0.76398 0.5229 0.0
C1381 C 0.02522 0.77499 0.51294 0.0
C1382 C 0.96932 0.80943 0.49878 0.0
C1383 C 0.99023 0.74011 0.53794 0.0
H1384 H 0.91885 0.76939 0.57016 0.0
H1385 H 0.88034 0.70892 0.5223 0.0
H1386 H 0.99103 0.79349 0.55947 0.0
H1387 H 0.98323 0.81768 0.54606 0.0
H1388 H 0.96793 0.80547 0.57038 0.0
H1389 H 0.90726 0.70698 0.49558 0.0
H1390 H 0.93612 0.74233 0.4884 0.0
H1391 H 0.94445 0.71828 0.50151 0.0
H1392 H 0.02116 0.82351 0.48239 0.0
H1393 H 0.03922 0.76625 0.51639 0.0
H1394 H 0.96387 0.81732 0.51242 0.0
H1395 H 0.94862 0.79236 0.49231 0.0
H1396 H 0.9798 0.82765 0.48809 0.0
H1397 H 0.98579 0.74683 0.55246 0.0
H1398 H 0.00736 0.73426 0.53998 0.0
H1399 H 0.96998 0.72047 0.53319 0.0
C1400 C 0.25685 0.24995 0.47055 0.0
C1401 C 0.22976 0.2444 0.47751 0.0
C1402 C 0.26997 0.23464 0.47809 0.0
C1403 C 0.25517 0.2126 0.49242 0.0
C1404 C 0.227 0.20578 0.49854 0.0
C1405 C 0.21492 0.22218 0.49134 0.0
C1406 C 0.30034 0.24322 0.47157 0.0
C1407 C 0.20995 0.18177 0.51319 0.0
C1408 C 0.28129 0.15884 0.50204 0.0
C1409 C 0.29543 0.16844 0.52032 0.0
C1410 C 0.26794 0.17284 0.49284 0.0
C1411 C 0.26964 0.19769 0.50178 0.0
C1412 C 0.28463 0.20794 0.51999 0.0
C1413 C 0.29685 0.19286 0.52922 0.0
C1414 C 0.25132 0.16054 0.47385 0.0
C1415 C 0.28773 0.23485 0.52975 0.0
H1416 H 0.2686 0.26752 0.46015 0.0
H1417 H 0.19401 0.21797 0.49678 0.0
H1418 H 0.31528 0.25205 0.48441 0.0
H1419 H 0.30121 0.22402 0.46617 0.0
H1420 H 0.30837 0.25985 0.45968 0.0
H1421 H 0.18721 0.17701 0.51467 0.0
H1422 H 0.20974 0.16165 0.50861 0.0
H1423 H 0.22043 0.18797 0.52794 0.0
H1424 H 0.27984 0.13974 0.49521 0.0
H1425 H 0.30786 0.20041 0.5433 0.0
H1426 H 0.26029 0.17707 0.46195 0.0
H1427 H 0.22834 0.15461 0.47598 0.0
H1428 H 0.25197 0.14102 0.46882 0.0
H1429 H 0.29709 0.25321 0.51914 0.0
H1430 H 0.30176 0.24114 0.5431 0.0
H1431 H 0.26609 0.23118 0.53416 0.0
C1432 C 0.79053 0.99612 0.48783 0.0
C1433 C 0.76878 0.98954 0.47374 0.0
C1434 C 0.80721 0.02431 0.49543 0.0
C1435 C 0.80132 0.04629 0.48933 0.0
C1436 C 0.77986 0.03993 0.4747 0.0
C1437 C 0.76412 0.01169 0.46686 0.0
C1438 C 0.83051 0.03029 0.51049 0.0
C1439 C 0.77241 0.0625 0.46812 0.0
C1440 C 0.82212 0.10684 0.527 0.0
C1441 C 0.84776 0.12931 0.51887 0.0
C1442 C 0.80622 0.08012 0.51714 0.0
C1443 C 0.81669 0.07541 0.49903 0.0
C1444 C 0.84254 0.0981 0.49074 0.0
C1445 C 0.85751 0.12488 0.50061 0.0
C1446 C 0.77838 0.05679 0.52626 0.0
C1447 C 0.85495 0.09377 0.4718 0.0
H1448 H 0.79413 0.97899 0.49319 0.0
H1449 H 0.74697 0.00653 0.45622 0.0
H1450 H 0.85118 0.04979 0.50618 0.0
H1451 H 0.82412 0.0348 0.5251 0.0
H1452 H 0.83436 0.01174 0.51214 0.0
H1453 H 0.75638 0.05464 0.45585 0.0
H1454 H 0.76326 0.06855 0.4808 0.0
H1455 H 0.79219 0.08246 0.46323 0.0
H1456 H 0.81442 0.1102 0.54106 0.0
H1457 H 0.87749 0.14207 0.49434 0.0
H1458 H 0.78092 0.03813 0.53069 0.0
H1459 H 0.76054 0.04871 0.51526 0.0
H1460 H 0.77198 0.06463 0.5395 0.0
H1461 H 0.8604 0.07638 0.47392 0.0
H1462 H 0.87481 0.11381 0.467 0.0
H1463 H 0.83866 0.08664 0.45976 0.0
C1464 C 0.95983 0.44278 0.36484 0.0
C1465 C 0.95555 0.46457 0.35676 0.0
C1466 C 0.94893 0.41579 0.35534 0.0
C1467 C 0.93247 0.4101 0.33772 0.0
C1468 C 0.92809 0.43208 0.32954 0.0
C1469 C 0.94008 0.45918 0.33898 0.0
C1470 C 0.95483 0.39327 0.36427 0.0
C1471 C 0.9099 0.42665 0.31118 0.0
C1472 C 0.92064 0.34646 0.30522 0.0
C1473 C 0.89444 0.32404 0.31272 0.0
C1474 C 0.93326 0.37467 0.3131 0.0
C1475 C 0.91881 0.38074 0.32839 0.0
C1476 C 0.89159 0.3584 0.33526 0.0
C1477 C 0.88004 0.33022 0.32763 0.0
C1478 C 0.96265 0.39761 0.30574 0.0
C1479 C 0.87492 0.36408 0.35101 0.0
H1480 H 0.9719 0.44692 0.37853 0.0
H1481 H 0.93644 0.47586 0.33278 0.0
H1482 H 0.93421 0.3744 0.36935 0.0
H1483 H 0.96424 0.38527 0.35295 0.0
H1484 H 0.96993 0.40187 0.37705 0.0
H1485 H 0.90893 0.44614 0.30651 0.0
H1486 H 0.91873 0.41978 0.29878 0.0
H1487 H 0.88749 0.40873 0.31397 0.0
H1488 H 0.93203 0.34159 0.29392 0.0
H1489 H 0.85976 0.31287 0.33344 0.0
H1490 H 0.97857 0.40465 0.31803 0.0
H1491 H 0.96184 0.41699 0.30067 0.0
H1492 H 0.97061 0.38971 0.29337 0.0
H1493 H 0.88694 0.36937 0.36521 0.0
H1494 H 0.85294 0.34511 0.35341 0.0
H1495 H 0.87269 0.38302 0.34686 0.0
C1496 C 0.55588 0.51512 0.35129 0.0
C1497 C 0.55312 0.49623 0.36668 0.0
C1498 C 0.58256 0.53206 0.34155 0.0
C1499 C 0.60694 0.5296 0.34703 0.0
C1500 C 0.60411 0.51023 0.36236 0.0
C1501 C 0.57739 0.49406 0.37213 0.0
C1502 C 0.58479 0.55293 0.32561 0.0
C1503 C 0.62938 0.50659 0.3685 0.0
C1504 C 0.67187 0.55719 0.31197 0.0
C1505 C 0.69183 0.58331 0.3211 0.0
C1506 C 0.64407 0.53945 0.32016 0.0
C1507 C 0.63583 0.54843 0.33757 0.0
C1508 C 0.65566 0.5752 0.34645 0.0
C1509 C 0.6834 0.59207 0.33826 0.0
C1510 C 0.62376 0.51081 0.31046 0.0
C1511 C 0.64767 0.58599 0.36474 0.0
H1512 H 0.53723 0.51689 0.34697 0.0
H1513 H 0.57538 0.47924 0.38383 0.0
H1514 H 0.6011 0.57539 0.32992 0.0
H1515 H 0.59232 0.5481 0.31157 0.0
H1516 H 0.56377 0.55199 0.32287 0.0
H1517 H 0.6232 0.4894 0.37985 0.0
H1518 H 0.63829 0.50107 0.35543 0.0
H1519 H 0.647 0.52728 0.37459 0.0
H1520 H 0.67824 0.55027 0.29875 0.0
H1521 H 0.69852 0.61242 0.34528 0.0
H1522 H 0.60303 0.50979 0.30659 0.0
H1523 H 0.61855 0.49286 0.32099 0.0
H1524 H 0.63317 0.50715 0.29684 0.0
H1525 H 0.62735 0.58649 0.36214 0.0
H1526 H 0.66495 0.60803 0.36917 0.0
H1527 H 0.6436 0.57096 0.37725 0.0
C1528 C 0.49108 0.03857 0.35628 0.0
C1529 C 0.50819 0.05323 0.37275 0.0
C1530 C 0.47626 0.04987 0.34562 0.0
C1531 C 0.47914 0.07682 0.35127 0.0
C1532 C 0.4965 0.09175 0.36784 0.0
C1533 C 0.51053 0.07964 0.37849 0.0
C1534 C 0.45742 0.03293 0.32833 0.0
C1535 C 0.50056 0.12074 0.37419 0.0
C1536 C 0.46061 0.11809 0.31324 0.0
C1537 C 0.43316 0.11221 0.31969 0.0
C1538 C 0.476 0.10699 0.32347 0.0
C1539 C 0.46334 0.08902 0.34026 0.0
C1540 C 0.43556 0.08287 0.34671 0.0
C1541 C 0.421 0.09476 0.33651 0.0
C1542 C 0.50585 0.11456 0.31638 0.0
C1543 C 0.421 0.0634 0.36428 0.0
H1544 H 0.4892 0.01818 0.35175 0.0
H1545 H 0.524 0.09131 0.39105 0.0
H1546 H 0.43487 0.02822 0.33079 0.0
H1547 H 0.46535 0.04599 0.3146 0.0
H1548 H 0.45708 0.01212 0.32601 0.0
H1549 H 0.51554 0.13004 0.38699 0.0
H1550 H 0.50929 0.13631 0.3617 0.0
H1551 H 0.47935 0.11844 0.37832 0.0
H1552 H 0.47016 0.13156 0.30028 0.0
H1553 H 0.39965 0.08979 0.34151 0.0
H1554 H 0.50612 0.09454 0.31226 0.0
H1555 H 0.52184 0.12511 0.32849 0.0
H1556 H 0.51294 0.12933 0.3034 0.0
H1557 H 0.4191 0.04192 0.36181 0.0
H1558 H 0.39901 0.06013 0.3671 0.0
H1559 H 0.43435 0.07281 0.37776 0.0
C1560 C 0.66749 0.54018 0.89472 0.0
C1561 C 0.64881 0.55039 0.88922 0.0
C1562 C 0.69492 0.5512 0.88573 0.0
C1563 C 0.70408 0.57341 0.87129 0.0
C1564 C 0.68539 0.58396 0.86589 0.0
C1565 C 0.65797 0.57215 0.87474 0.0
C1566 C 0.71403 0.53901 0.89161 0.0
C1567 C 0.69444 0.60798 0.85088 0.0
C1568 C 0.78465 0.62166 0.86029 0.0
C1569 C 0.78747 0.61036 0.8422 0.0
C1570 C 0.75772 0.60971 0.87001 0.0
C1571 C 0.73308 0.58561 0.8616 0.0
C1572 C 0.73585 0.57402 0.84341 0.0
C1573 C 0.76291 0.58665 0.83387 0.0
C1574 C 0.75559 0.62306 0.8892 0.0
C1575 C 0.7102 0.54819 0.83402 0.0
H1576 H 0.66057 0.52339 0.90587 0.0
H1577 H 0.64386 0.58048 0.87055 0.0
H1578 H 0.7194 0.53027 0.87837 0.0
H1579 H 0.73477 0.55646 0.89776 0.0
H1580 H 0.70357 0.52145 0.90278 0.0
H1581 H 0.67765 0.61427 0.84868 0.0
H1582 H 0.71483 0.6274 0.8557 0.0
H1583 H 0.69885 0.60109 0.83642 0.0
H1584 H 0.80351 0.63992 0.86687 0.0
H1585 H 0.76491 0.57757 0.82 0.0
H1586 H 0.74737 0.60655 0.90112 0.0
H1587 H 0.73986 0.63082 0.88757 0.0
H1588 H 0.7768 0.64158 0.89388 0.0
H1589 H 0.70051 0.52983 0.84462 0.0
H1590 H 0.71623 0.54096 0.8203 0.0
H1591 H 0.69322 0.55367 0.83031 0.0
C1592 C 0.42261 0.1789 0.82466 0.0
C1593 C 0.39717 0.17797 0.83127 0.0
C1594 C 0.43444 0.16418 0.83484 0.0
C1595 C 0.42027 0.14766 0.85189 0.0
C1596 C 0.39435 0.14631 0.85848 0.0
C1597 C 0.38327 0.16167 0.84821 0.0
C1598 C 0.46226 0.16648 0.8274 0.0
C1599 C 0.37823 0.12851 0.87634 0.0
C1600 C 0.43499 0.08689 0.86549 0.0
C1601 C 0.45427 0.09876 0.88151 0.0
C1602 C 0.42357 0.1024 0.85596 0.0
C1603 C 0.43192 0.13084 0.86231 0.0
C1604 C 0.45149 0.1431 0.8784 0.0
C1605 C 0.46222 0.12681 0.88794 0.0
C1606 C 0.40243 0.08825 0.83912 0.0
C1607 C 0.46127 0.17351 0.88542 0.0
H1608 H 0.4337 0.19168 0.81172 0.0
H1609 H 0.36364 0.16085 0.85345 0.0
H1610 H 0.47878 0.17477 0.83934 0.0
H1611 H 0.45843 0.14471 0.8232 0.0
H1612 H 0.4712 0.18105 0.81438 0.0
H1613 H 0.35839 0.12968 0.87958 0.0
H1614 H 0.37189 0.10548 0.87391 0.0
H1615 H 0.39253 0.13612 0.88953 0.0
H1616 H 0.42843 0.06513 0.86049 0.0
H1617 H 0.4771 0.13619 0.90025 0.0
H1618 H 0.41137 0.10102 0.82536 0.0
H1619 H 0.38183 0.08787 0.84242 0.0
H1620 H 0.39752 0.06569 0.83633 0.0
H1621 H 0.47183 0.18905 0.87308 0.0
H1622 H 0.47676 0.18004 0.89797 0.0
H1623 H 0.44227 0.17527 0.89014 0.0
C1624 C 0.93497 0.34463 0.86537 0.0
C1625 C 0.92496 0.35284 0.882 0.0
C1626 C 0.91855 0.31705 0.85684 0.0
C1627 C 0.89102 0.29728 0.86478 0.0
C1628 C 0.88083 0.30531 0.88168 0.0
C1629 C 0.8981 0.33289 0.89025 0.0
C1630 C 0.93058 0.30922 0.83913 0.0
C1631 C 0.85135 0.28509 0.89036 0.0
C1632 C 0.83798 0.24041 0.82885 0.0
C1633 C 0.83869 0.21549 0.83469 0.0
C1634 C 0.85436 0.2669 0.83881 0.0
C1635 C 0.87248 0.26881 0.85477 0.0
C1636 C 0.87359 0.24382 0.86059 0.0
C1637 C 0.85643 0.21738 0.85063 0.0
C1638 C 0.85214 0.29284 0.8323 0.0
C1639 C 0.89312 0.24509 0.87721 0.0
H1640 H 0.95589 0.35978 0.85905 0.0
H1641 H 0.89022 0.33913 0.90305 0.0
H1642 H 0.93028 0.28854 0.84188 0.0
H1643 H 0.91678 0.30592 0.82599 0.0
H1644 H 0.95314 0.32626 0.83559 0.0
H1645 H 0.84687 0.29423 0.90379 0.0
H1646 H 0.83432 0.28055 0.87919 0.0
H1647 H 0.84961 0.26406 0.89426 0.0
H1648 H 0.82407 0.23908 0.8167 0.0
H1649 H 0.85706 0.19822 0.85524 0.0
H1650 H 0.87355 0.31025 0.82701 0.0
H1651 H 0.84584 0.30168 0.84502 0.0
H1652 H 0.83605 0.28745 0.82025 0.0
H1653 H 0.91598 0.26126 0.87369 0.0
H1654 H 0.89158 0.22379 0.87991 0.0
H1655 H 0.88743 0.25226 0.89106 0.0
C1656 C 0.38553 0.2218 0.34335 0.0
C1657 C 0.39772 0.21723 0.32629 0.0
C1658 C 0.39793 0.24925 0.35232 0.0
C1659 C 0.4235 0.27267 0.34427 0.0
C1660 C 0.43586 0.26823 0.32699 0.0
C1661 C 0.42268 0.24064 0.31811 0.0
C1662 C 0.3837 0.25314 0.37049 0.0
C1663 C 0.46329 0.29251 0.31809 0.0
C1664 C 0.4401 0.34882 0.35771 0.0
C1665 C 0.45933 0.35573 0.3737 0.0
C1666 C 0.42867 0.32212 0.34784 0.0
C1667 C 0.43696 0.30185 0.35384 0.0
C1668 C 0.45712 0.30904 0.36952 0.0
C1669 C 0.46788 0.33578 0.37937 0.0
C1670 C 0.40695 0.31523 0.33141 0.0
C1671 C 0.4669 0.28823 0.37614 0.0
H1672 H 0.36623 0.20385 0.34976 0.0
H1673 H 0.43241 0.23722 0.30505 0.0
H1674 H 0.39892 0.26003 0.38319 0.0
H1675 H 0.37835 0.2705 0.36788 0.0
H1676 H 0.36352 0.23295 0.37462 0.0
H1677 H 0.47028 0.28551 0.30471 0.0
H1678 H 0.46002 0.31084 0.314 0.0
H1679 H 0.48104 0.30079 0.32916 0.0
H1680 H 0.4332 0.36397 0.35323 0.0
H1681 H 0.48278 0.34092 0.39164 0.0
H1682 H 0.38584 0.2962 0.3356 0.0
H1683 H 0.41433 0.3094 0.31771 0.0
H1684 H 0.40345 0.33368 0.32809 0.0
H1685 H 0.44821 0.26836 0.38229 0.0
H1686 H 0.48415 0.29781 0.38759 0.0
H1687 H 0.47519 0.28152 0.36331 0.0
C1688 C 0.66204 0.13021 0.38919 0.0
C1689 C 0.64566 0.10041 0.38527 0.0
C1690 C 0.68909 0.14758 0.37998 0.0
C1691 C 0.70031 0.13467 0.36698 0.0
C1692 C 0.6838 0.10462 0.36298 0.0
C1693 C 0.65661 0.08798 0.37196 0.0
C1694 C 0.70575 0.17968 0.38425 0.0
C1695 C 0.69519 0.08982 0.34962 0.0
C1696 C 0.76077 0.17929 0.33024 0.0
C1697 C 0.78532 0.18311 0.34049 0.0
C1698 C 0.73305 0.16431 0.3389 0.0
C1699 C 0.72974 0.15221 0.35805 0.0
C1700 C 0.75446 0.15572 0.36835 0.0
C1701 C 0.78197 0.17144 0.35955 0.0
C1702 C 0.70733 0.16155 0.3276 0.0
C1703 C 0.75182 0.14251 0.38855 0.0
H1704 H 0.65366 0.13996 0.39938 0.0
H1705 H 0.64425 0.06491 0.36897 0.0
H1706 H 0.72637 0.18538 0.39188 0.0
H1707 H 0.71146 0.1921 0.37019 0.0
H1708 H 0.69327 0.18669 0.39367 0.0
H1709 H 0.67961 0.06625 0.34799 0.0
H1710 H 0.69996 0.09989 0.33472 0.0
H1711 H 0.71582 0.09264 0.35566 0.0
H1712 H 0.7633 0.18859 0.3156 0.0
H1713 H 0.80088 0.17429 0.36753 0.0
H1714 H 0.69578 0.16998 0.33666 0.0
H1715 H 0.69175 0.13839 0.32451 0.0
H1716 H 0.71375 0.17348 0.31332 0.0
H1717 H 0.74185 0.15095 0.39909 0.0
H1718 H 0.77314 0.14715 0.39456 0.0
H1719 H 0.73736 0.11866 0.38775 0.0
C1720 C 0.91951 0.59133 0.39879 0.0
C1721 C 0.91429 0.56391 0.3929 0.0
C1722 C 0.90333 0.60321 0.39079 0.0
C1723 C 0.88076 0.58684 0.3771 0.0
C1724 C 0.87437 0.55842 0.37205 0.0
C1725 C 0.89163 0.54757 0.37967 0.0
C1726 C 0.91148 0.63389 0.39611 0.0
C1727 C 0.84984 0.53976 0.35814 0.0
C1728 C 0.82501 0.61019 0.3668 0.0
C1729 C 0.83342 0.62276 0.34797 0.0
C1730 C 0.84005 0.59824 0.37641 0.0
C1731 C 0.86477 0.59986 0.36729 0.0
C1732 C 0.87383 0.61331 0.3485 0.0
C1733 C 0.8577 0.62408 0.3389 0.0
C1734 C 0.82899 0.58317 0.39604 0.0
C1735 C 0.90056 0.61631 0.33852 0.0
H1736 H 0.93742 0.60419 0.40872 0.0
H1737 H 0.8877 0.52641 0.37505 0.0
H1738 H 0.91932 0.64772 0.38269 0.0
H1739 H 0.89227 0.63467 0.4016 0.0
H1740 H 0.92873 0.64328 0.40758 0.0
H1741 H 0.84563 0.51714 0.3575 0.0
H1742 H 0.82966 0.53934 0.36281 0.0
H1743 H 0.85513 0.54904 0.34301 0.0
H1744 H 0.80602 0.60882 0.37376 0.0
H1745 H 0.86432 0.6339 0.32438 0.0
H1746 H 0.84607 0.59348 0.40751 0.0
H1747 H 0.82357 0.56022 0.3948 0.0
H1748 H 0.80941 0.58367 0.40113 0.0
H1749 H 0.91941 0.62692 0.34868 0.0
H1750 H 0.9059 0.62919 0.32465 0.0
H1751 H 0.89727 0.59457 0.3349 0.0
C1752 C 0.58027 0.08783 0.87783 0.0
C1753 C 0.55683 0.06303 0.8695 0.0
C1754 C 0.60779 0.10134 0.86886 0.0
C1755 C 0.61219 0.08951 0.85131 0.0
C1756 C 0.58867 0.0643 0.84294 0.0
C1757 C 0.56125 0.05152 0.85203 0.0
C1758 C 0.63215 0.12837 0.87814 0.0
C1759 C 0.59255 0.05065 0.82447 0.0
C1760 C 0.67744 0.13497 0.81796 0.0
C1761 C 0.69683 0.12586 0.82399 0.0
C1762 C 0.65004 0.12383 0.827 0.0
C1763 C 0.64165 0.10273 0.84217 0.0
C1764 C 0.66126 0.09373 0.84843 0.0
C1765 C 0.68858 0.10553 0.83941 0.0
C1766 C 0.62994 0.13436 0.82015 0.0
C1767 C 0.65312 0.07105 0.86436 0.0
H1768 H 0.57699 0.09707 0.8912 0.0
H1769 H 0.54327 0.03239 0.84549 0.0
H1770 H 0.64992 0.12443 0.88263 0.0
H1771 H 0.6413 0.14628 0.86718 0.0
H1772 H 0.62493 0.13549 0.89134 0.0
H1773 H 0.57211 0.03113 0.81978 0.0
H1774 H 0.60038 0.06656 0.81216 0.0
H1775 H 0.60923 0.04435 0.82704 0.0
H1776 H 0.68359 0.15067 0.80611 0.0
H1777 H 0.70324 0.09814 0.84415 0.0
H1778 H 0.62309 0.14259 0.83294 0.0
H1779 H 0.61005 0.11609 0.81366 0.0
H1780 H 0.6402 0.15186 0.80892 0.0
H1781 H 0.64735 0.07819 0.87819 0.0
H1782 H 0.67093 0.06655 0.86765 0.0
H1783 H 0.63374 0.05052 0.85968 0.0
C1784 C 0.92636 0.48836 0.87689 0.0
C1785 C 0.95056 0.4905 0.86705 0.0
C1786 C 0.91157 0.50199 0.86936 0.0
C1787 C 0.92164 0.51874 0.85184 0.0
C1788 C 0.94626 0.52121 0.84198 0.0
C1789 C 0.96019 0.50679 0.84957 0.0
C1790 C 0.8851 0.49837 0.8801 0.0
C1791 C 0.95815 0.53942 0.82354 0.0
C1792 C 0.87391 0.539 0.82152 0.0
C1793 C 0.88323 0.56723 0.82823 0.0
C1794 C 0.88548 0.52252 0.82953 0.0
C1795 C 0.90734 0.53482 0.84426 0.0
C1796 C 0.91652 0.56316 0.85123 0.0
C1797 C 0.90417 0.57884 0.84331 0.0
C1798 C 0.87465 0.49212 0.82203 0.0
C1799 C 0.94015 0.57736 0.86661 0.0
H1800 H 0.9186 0.4755 0.89028 0.0
H1801 H 0.97889 0.50855 0.84191 0.0
H1802 H 0.88902 0.51972 0.88544 0.0
H1803 H 0.86636 0.48976 0.86982 0.0
H1804 H 0.87922 0.4835 0.89297 0.0
H1805 H 0.9775 0.53916 0.81766 0.0
H1806 H 0.94129 0.53143 0.81184 0.0
H1807 H 0.96422 0.56219 0.82677 0.0
H1808 H 0.85769 0.52984 0.80994 0.0
H1809 H 0.91172 0.60071 0.84853 0.0
H1810 H 0.86781 0.47673 0.83463 0.0
H1811 H 0.89242 0.49101 0.81426 0.0
H1812 H 0.8561 0.48492 0.81168 0.0
H1813 H 0.93412 0.56387 0.88017 0.0
H1814 H 0.94449 0.59937 0.87071 0.0
H1815 H 0.96052 0.57915 0.86089 0.0
C1816 C 0.49631 0.45033 0.85687 0.0
C1817 C 0.51139 0.4531 0.87451 0.0
C1818 C 0.48253 0.42395 0.8464 0.0
C1819 C 0.48431 0.39986 0.85351 0.0
C1820 C 0.49964 0.40259 0.87126 0.0
C1821 C 0.51273 0.42904 0.88162 0.0
C1822 C 0.46591 0.42183 0.82779 0.0
C1823 C 0.5024 0.3776 0.87923 0.0
C1824 C 0.42604 0.32412 0.83803 0.0
C1825 C 0.43939 0.31784 0.82236 0.0
C1826 C 0.44037 0.35065 0.84816 0.0
C1827 C 0.4691 0.37145 0.84284 0.0
C1828 C 0.483 0.36511 0.82731 0.0
C1829 C 0.46789 0.3385 0.81711 0.0
C1830 C 0.4245 0.35662 0.86437 0.0
C1831 C 0.51381 0.38648 0.82144 0.0
H1832 H 0.49522 0.46881 0.85125 0.0
H1833 H 0.52463 0.43106 0.8951 0.0
H1834 H 0.47501 0.41581 0.81508 0.0
H1835 H 0.44294 0.40449 0.82944 0.0
H1836 H 0.46651 0.44248 0.82424 0.0
H1837 H 0.51597 0.38354 0.8928 0.0
H1838 H 0.48062 0.35908 0.88275 0.0
H1839 H 0.51213 0.37006 0.86783 0.0
H1840 H 0.40395 0.30849 0.84213 0.0
H1841 H 0.4784 0.33386 0.80507 0.0
H1842 H 0.42333 0.37631 0.86072 0.0
H1843 H 0.4365 0.3609 0.87853 0.0
H1844 H 0.40211 0.33828 0.86661 0.0
H1845 H 0.51524 0.40686 0.81614 0.0
H1846 H 0.52192 0.37791 0.80959 0.0
H1847 H 0.5283 0.39206 0.83448 0.0
C1848 C 0.5608 0.65915 0.6365 0.0
C1849 C 0.56808 0.64057 0.64643 0.0
C1850 C 0.57114 0.68775 0.64323 0.0
C1851 C 0.58983 0.69815 0.65991 0.0
C1852 C 0.59798 0.6797 0.6695 0.0
C1853 C 0.58674 0.65114 0.66282 0.0
C1854 C 0.56145 0.70654 0.63287 0.0
C1855 C 0.61837 0.69001 0.687 0.0
C1856 C 0.63625 0.77929 0.66993 0.0
C1857 C 0.62132 0.783 0.68573 0.0
C1858 C 0.62609 0.7519 0.66116 0.0
C1859 C 0.59999 0.7278 0.66802 0.0
C1860 C 0.5845 0.73165 0.68366 0.0
C1861 C 0.59553 0.75906 0.69247 0.0
C1862 C 0.64364 0.7486 0.64489 0.0
C1863 C 0.55633 0.70672 0.6912 0.0
H1864 H 0.54637 0.65108 0.62386 0.0
H1865 H 0.59283 0.63703 0.6704 0.0
H1866 H 0.5491 0.71233 0.64335 0.0
H1867 H 0.58054 0.72708 0.62794 0.0
H1868 H 0.54754 0.69557 0.61983 0.0
H1869 H 0.62414 0.67365 0.69192 0.0
H1870 H 0.6386 0.71032 0.6832 0.0
H1871 H 0.60819 0.69495 0.6996 0.0
H1872 H 0.65617 0.79772 0.66464 0.0
H1873 H 0.58365 0.76183 0.70448 0.0
H1874 H 0.63007 0.73919 0.6315 0.0
H1875 H 0.65095 0.73337 0.64969 0.0
H1876 H 0.663 0.76958 0.64084 0.0
H1877 H 0.54103 0.69617 0.67874 0.0
H1878 H 0.54582 0.71375 0.70238 0.0
H1879 H 0.56035 0.69012 0.69803 0.0
C1880 C 0.23742 0.82526 0.70945 0.0
C1881 C 0.21417 0.827 0.7012 0.0
C1882 C 0.2649 0.83901 0.70039 0.0
C1883 C 0.26942 0.85553 0.68296 0.0
C1884 C 0.24614 0.85784 0.67483 0.0
C1885 C 0.21874 0.84325 0.68389 0.0
C1886 C 0.28895 0.83548 0.70928 0.0
C1887 C 0.25019 0.87582 0.65657 0.0
C1888 C 0.34606 0.91412 0.6696 0.0
C1889 C 0.35255 0.90158 0.65356 0.0
C1890 C 0.31925 0.89928 0.67939 0.0
C1891 C 0.29858 0.87086 0.67335 0.0
C1892 C 0.30538 0.85765 0.65761 0.0
C1893 C 0.33213 0.87331 0.64773 0.0
C1894 C 0.31268 0.91444 0.69577 0.0
C1895 C 0.28422 0.82713 0.65104 0.0
H1896 H 0.23391 0.81244 0.7227 0.0
H1897 H 0.20087 0.84473 0.67748 0.0
H1898 H 0.29712 0.82595 0.69817 0.0
H1899 H 0.30742 0.85696 0.71346 0.0
H1900 H 0.28175 0.82138 0.72261 0.0
H1901 H 0.23014 0.87611 0.65245 0.0
H1902 H 0.26782 0.89847 0.65905 0.0
H1903 H 0.25677 0.86717 0.6439 0.0
H1904 H 0.36159 0.93605 0.67411 0.0
H1905 H 0.33704 0.86345 0.63541 0.0
H1906 H 0.30691 0.9014 0.70954 0.0
H1907 H 0.2937 0.91661 0.69161 0.0
H1908 H 0.33128 0.93637 0.69894 0.0
H1909 H 0.2773 0.81218 0.66389 0.0
H1910 H 0.2936 0.8192 0.63962 0.0
H1911 H 0.2645 0.82623 0.64484 0.0
C1912 C 0.17474 0.39402 0.68482 0.0
C1913 C 0.18704 0.40248 0.70371 0.0
C1914 C 0.15911 0.40606 0.67623 0.0
C1915 C 0.15633 0.4277 0.68655 0.0
C1916 C 0.16897 0.43655 0.70557 0.0
C1917 C 0.18384 0.42355 0.71403 0.0
C1918 C 0.14535 0.39542 0.65617 0.0
C1919 C 0.16704 0.45996 0.71689 0.0
C1920 C 0.13602 0.47444 0.65512 0.0
C1921 C 0.10625 0.46181 0.65902 0.0
C1922 C 0.15283 0.46423 0.66448 0.0
C1923 C 0.13941 0.44033 0.67764 0.0
C1924 C 0.10942 0.42767 0.6817 0.0
C1925 C 0.09334 0.43876 0.67256 0.0
C1926 C 0.18488 0.47878 0.66012 0.0
C1927 C 0.09407 0.40176 0.69524 0.0
H1928 H 0.17708 0.37769 0.67679 0.0
H1929 H 0.19359 0.43043 0.72854 0.0
H1930 H 0.12163 0.38685 0.65715 0.0
H1931 H 0.15421 0.41365 0.64548 0.0
H1932 H 0.14908 0.3781 0.65025 0.0
H1933 H 0.17894 0.46516 0.73117 0.0
H1934 H 0.17606 0.48 0.70783 0.0
H1935 H 0.14402 0.45307 0.71994 0.0
H1936 H 0.14617 0.49231 0.64475 0.0
H1937 H 0.07031 0.42866 0.67555 0.0
H1938 H 0.18985 0.46339 0.65242 0.0
H1939 H 0.19742 0.48515 0.67413 0.0
H1940 H 0.19242 0.49836 0.65072 0.0
H1941 H 0.09592 0.38338 0.68921 0.0
H1942 H 0.07072 0.39465 0.69707 0.0
H1943 H 0.10444 0.40691 0.71005 0.0
C1944 C 0.33671 0.88766 0.23122 0.0
C1945 C 0.31944 0.89919 0.22506 0.0
C1946 C 0.36458 0.89786 0.22313 0.0
C1947 C 0.37573 0.92078 0.2091 0.0
C1948 C 0.3587 0.93322 0.20354 0.0
C1949 C 0.33064 0.92194 0.2113 0.0
C1950 C 0.38167 0.88345 0.22904 0.0
C1951 C 0.36998 0.95828 0.18919 0.0
C1952 C 0.45724 0.96372 0.19947 0.0
C1953 C 0.45936 0.95305 0.18094 0.0
C1954 C 0.43022 0.95347 0.20882 0.0
C1955 C 0.40476 0.9313 0.19972 0.0
C1956 C 0.4069 0.92005 0.18117 0.0
C1957 C 0.43408 0.93139 0.17187 0.0
C1958 C 0.42885 0.96676 0.22823 0.0
C1959 C 0.38047 0.89593 0.17118 0.0
H1960 H 0.32797 0.8699 0.24172 0.0
H1961 H 0.31737 0.93104 0.20664 0.0
H1962 H 0.38575 0.87365 0.21581 0.0
H1963 H 0.40311 0.89973 0.23505 0.0
H1964 H 0.3702 0.86624 0.24031 0.0
H1965 H 0.35496 0.96695 0.1876 0.0
H1966 H 0.39139 0.97608 0.1942 0.0
H1967 H 0.37315 0.95124 0.17442 0.0
H1968 H 0.47671 0.98051 0.20653 0.0
H1969 H 0.43565 0.9228 0.15767 0.0
H1970 H 0.41913 0.94981 0.23982 0.0
H1971 H 0.4147 0.97641 0.22667 0.0
H1972 H 0.45059 0.98387 0.23334 0.0
H1973 H 0.36902 0.87733 0.18145 0.0
H1974 H 0.38604 0.88824 0.15748 0.0
H1975 H 0.36511 0.90348 0.16728 0.0
C1976 C 0.09879 0.42226 0.19834 0.0
C1977 C 0.11794 0.43488 0.21434 0.0
C1978 C 0.08763 0.43742 0.18806 0.0
C1979 C 0.09612 0.46618 0.19363 0.0
C1980 C 0.11581 0.47929 0.20955 0.0
C1981 C 0.12631 0.4634 0.21983 0.0
C1982 C 0.06643 0.42246 0.17136 0.0
C1983 C 0.12573 0.51009 0.21573 0.0
C1984 C 0.08637 0.51255 0.15492 0.0
C1985 C 0.06105 0.51193 0.16146 0.0
C1986 C 0.09826 0.49818 0.16542 0.0
C1987 C 0.08427 0.48238 0.18273 0.0
C1988 C 0.05845 0.4813 0.18925 0.0
C1989 C 0.04729 0.49627 0.17863 0.0
C1990 C 0.12597 0.50014 0.15807 0.0
C1991 C 0.04257 0.46425 0.20742 0.0
H1992 H 0.09197 0.40016 0.19403 0.0
H1993 H 0.1411 0.47334 0.23213 0.0
H1994 H 0.04571 0.42189 0.17456 0.0
H1995 H 0.07511 0.43476 0.15741 0.0
H1996 H 0.0618 0.3999 0.16899 0.0
H1997 H 0.14167 0.51741 0.22804 0.0
H1998 H 0.13577 0.52491 0.20297 0.0
H1999 H 0.10683 0.51201 0.22049 0.0
H2000 H 0.09734 0.52484 0.14179 0.0
H2001 H 0.02775 0.49572 0.18381 0.0
H2002 H 0.12214 0.47818 0.15448 0.0
H2003 H 0.14272 0.50914 0.16985 0.0
H2004 H 0.13463 0.51398 0.14469 0.0
H2005 H 0.03634 0.44116 0.20552 0.0
H2006 H 0.02269 0.46543 0.21048 0.0
H2007 H 0.057 0.47254 0.22052 0.0
C2008 C 0.5834 0.68754 0.19227 0.0
C2009 C 0.57223 0.69567 0.20833 0.0
C2010 C 0.56729 0.66033 0.18318 0.0
C2011 C 0.53897 0.64075 0.19 0.0
C2012 C 0.52716 0.64906 0.20582 0.0
C2013 C 0.54404 0.6763 0.21494 0.0
C2014 C 0.58096 0.65225 0.16662 0.0
C2015 C 0.49683 0.62902 0.21327 0.0
C2016 C 0.49033 0.57916 0.15502 0.0
C2017 C 0.49183 0.55569 0.16313 0.0
C2018 C 0.50507 0.6068 0.16382 0.0
C2019 C 0.52222 0.61128 0.18091 0.0
C2020 C 0.5242 0.58776 0.18895 0.0
C2021 C 0.50877 0.56023 0.18009 0.0
C2022 C 0.50202 0.63114 0.15495 0.0
C2023 C 0.54275 0.59169 0.20687 0.0
H2024 H 0.60522 0.70218 0.18709 0.0
H2025 H 0.53519 0.68238 0.22729 0.0
H2026 H 0.58237 0.63288 0.1709 0.0
H2027 H 0.56731 0.64647 0.15314 0.0
H2028 H 0.60309 0.67007 0.16288 0.0
H2029 H 0.49017 0.63932 0.22485 0.0
H2030 H 0.48116 0.62219 0.20084 0.0
H2031 H 0.49547 0.60913 0.21954 0.0
H2032 H 0.47701 0.57576 0.14206 0.0
H2033 H 0.51004 0.54222 0.18645 0.0
H2034 H 0.52353 0.64895 0.15016 0.0
H2035 H 0.49366 0.64023 0.16626 0.0
H2036 H 0.48715 0.62394 0.14201 0.0
H2037 H 0.56556 0.60851 0.20384 0.0
H2038 H 0.54224 0.57132 0.21118 0.0
H2039 H 0.53524 0.59936 0.2196 0.0
C2040 C 0.11111 0.66752 0.7272 0.0
C2041 C 0.1046 0.68778 0.71901 0.0
C2042 C 0.10136 0.64034 0.71814 0.0
C2043 C 0.08409 0.633 0.70079 0.0
C2044 C 0.07675 0.65308 0.69287 0.0
C2045 C 0.08734 0.68026 0.70191 0.0
C2046 C 0.11015 0.61978 0.72683 0.0
C2047 C 0.05788 0.64598 0.67469 0.0
C2048 C 0.08154 0.57716 0.66436 0.0
C2049 C 0.05552 0.55218 0.66953 0.0
C2050 C 0.09138 0.60333 0.67472 0.0
C2051 C 0.07451 0.60484 0.69039 0.0
C2052 C 0.04802 0.57976 0.69554 0.0
C2053 C 0.03901 0.55367 0.6852 0.0
C2054 C 0.11996 0.62936 0.66893 0.0
C2055 C 0.02905 0.58059 0.71183 0.0
H2056 H 0.12449 0.67322 0.74036 0.0
H2057 H 0.0819 0.69564 0.69561 0.0
H2058 H 0.09063 0.59865 0.73025 0.0
H2059 H 0.1231 0.61557 0.71585 0.0
H2060 H 0.12317 0.62844 0.74056 0.0
H2061 H 0.05269 0.66324 0.6711 0.0
H2062 H 0.06902 0.64305 0.66178 0.0
H2063 H 0.03728 0.62528 0.67688 0.0
H2064 H 0.09462 0.57614 0.65244 0.0
H2065 H 0.0189 0.53446 0.68929 0.0
H2066 H 0.13448 0.63769 0.682 0.0
H2067 H 0.11637 0.64704 0.66368 0.0
H2068 H 0.13116 0.62427 0.65707 0.0
H2069 H 0.04128 0.58727 0.72595 0.0
H2070 H 0.0091 0.55927 0.71403 0.0
H2071 H 0.02265 0.59696 0.70828 0.0
C2072 C 0.35039 0.42523 0.73514 0.0
C2073 C 0.32878 0.43121 0.72902 0.0
C2074 C 0.37809 0.43934 0.72634 0.0
C2075 C 0.3846 0.46064 0.71156 0.0
C2076 C 0.36322 0.46778 0.70613 0.0
C2077 C 0.33542 0.45256 0.71462 0.0
C2078 C 0.39987 0.43042 0.73216 0.0
C2079 C 0.36947 0.49105 0.69101 0.0
C2080 C 0.46385 0.51324 0.69901 0.0
C2081 C 0.46684 0.50277 0.68062 0.0
C2082 C 0.43726 0.49984 0.70922 0.0
C2083 C 0.41329 0.4747 0.7012 0.0
C2084 C 0.41649 0.46352 0.68291 0.0
C2085 C 0.44305 0.478 0.67266 0.0
C2086 C 0.43459 0.51311 0.72828 0.0
C2087 C 0.39179 0.4363 0.6741 0.0
H2088 H 0.34512 0.40834 0.74601 0.0
H2089 H 0.31869 0.45714 0.70983 0.0
H2090 H 0.4049 0.42098 0.71914 0.0
H2091 H 0.42048 0.44958 0.73693 0.0
H2092 H 0.39183 0.4142 0.7443 0.0
H2093 H 0.35158 0.496 0.68989 0.0
H2094 H 0.38978 0.51126 0.69486 0.0
H2095 H 0.37271 0.48399 0.67625 0.0
H2096 H 0.48209 0.5326 0.70512 0.0
H2097 H 0.4453 0.46977 0.6585 0.0
H2098 H 0.42763 0.49707 0.74047 0.0
H2099 H 0.41768 0.51934 0.72666 0.0
H2100 H 0.45528 0.53263 0.73259 0.0
H2101 H 0.38334 0.41847 0.68512 0.0
H2102 H 0.39842 0.42918 0.6606 0.0
H2103 H 0.37371 0.44003 0.67017 0.0
C2104 C 0.58478 0.89667 0.68281 0.0
C2105 C 0.57407 0.87703 0.6987 0.0
C2106 C 0.56851 0.90812 0.67447 0.0
C2107 C 0.54051 0.89947 0.68192 0.0
C2108 C 0.5292 0.87913 0.69763 0.0
C2109 C 0.5462 0.86834 0.70595 0.0
C2110 C 0.58162 0.93005 0.65795 0.0
C2111 C 0.49925 0.869 0.70578 0.0
C2112 C 0.51036 0.9502 0.67375 0.0
C2113 C 0.49255 0.93788 0.65713 0.0
C2114 C 0.52604 0.93793 0.68195 0.0
C2115 C 0.52352 0.9124 0.67355 0.0
C2116 C 0.50552 0.89981 0.65679 0.0
C2117 C 0.49046 0.91283 0.64869 0.0
C2118 C 0.54541 0.95238 0.69956 0.0
C2119 C 0.50196 0.87243 0.64752 0.0
H2120 H 0.60634 0.90374 0.67713 0.0
H2121 H 0.53769 0.85316 0.71817 0.0
H2122 H 0.56742 0.92234 0.64471 0.0
H2123 H 0.5833 0.95082 0.66258 0.0
H2124 H 0.60355 0.93429 0.65368 0.0
H2125 H 0.49303 0.85205 0.71733 0.0
H2126 H 0.49828 0.8876 0.7123 0.0
H2127 H 0.48302 0.86018 0.69367 0.0
H2128 H 0.51211 0.96955 0.68037 0.0
H2129 H 0.47652 0.90299 0.63597 0.0
H2130 H 0.56806 0.95837 0.69594 0.0
H2131 H 0.53846 0.9371 0.71222 0.0
H2132 H 0.54515 0.97223 0.70428 0.0
H2133 H 0.52322 0.8761 0.64217 0.0
H2134 H 0.48653 0.86491 0.63489 0.0
H2135 H 0.49404 0.85491 0.65875 0.0
C2136 C 0.23804 0.42063 0.21187 0.0
C2137 C 0.21456 0.39394 0.20587 0.0
C2138 C 0.26464 0.43324 0.20173 0.0
C2139 C 0.26813 0.41856 0.18542 0.0
C2140 C 0.24464 0.3914 0.17947 0.0
C2141 C 0.21805 0.37956 0.18963 0.0
C2142 C 0.28895 0.46241 0.20838 0.0
C2143 C 0.24764 0.37474 0.16244 0.0
C2144 C 0.32952 0.46011 0.14843 0.0
C2145 C 0.35083 0.45424 0.15547 0.0
C2146 C 0.30263 0.44901 0.15817 0.0
C2147 C 0.29669 0.43112 0.17508 0.0
C2148 C 0.31813 0.42514 0.18219 0.0
C2149 C 0.34494 0.43697 0.17246 0.0
C2150 C 0.28054 0.45636 0.15036 0.0
C2151 C 0.3126 0.40581 0.19994 0.0
H2152 H 0.23543 0.43207 0.22424 0.0
H2153 H 0.20001 0.35897 0.18489 0.0
H2154 H 0.30785 0.46048 0.21312 0.0
H2155 H 0.29621 0.47797 0.19586 0.0
H2156 H 0.28242 0.47151 0.22084 0.0
H2157 H 0.22742 0.35384 0.15973 0.0
H2158 H 0.2534 0.38792 0.14873 0.0
H2159 H 0.26549 0.37025 0.16549 0.0
H2160 H 0.33388 0.47343 0.13535 0.0
H2161 H 0.36111 0.43202 0.17794 0.0
H2162 H 0.27427 0.46661 0.1622 0.0
H2163 H 0.2606 0.43627 0.14581 0.0
H2164 H 0.2888 0.4713 0.13748 0.0
H2165 H 0.30772 0.41507 0.21311 0.0
H2166 H 0.33139 0.40294 0.20345 0.0
H2167 H 0.29337 0.38416 0.1972 0.0
C2168 C 0.54916 0.89232 0.16016 0.0
C2169 C 0.56638 0.91771 0.1494 0.0
C2170 C 0.56091 0.87587 0.16785 0.0
C2171 C 0.59091 0.88582 0.16551 0.0
C2172 C 0.60831 0.9114 0.15446 0.0
C2173 C 0.59569 0.92678 0.14624 0.0
C2174 C 0.54132 0.84818 0.17887 0.0
C2175 C 0.64052 0.92336 0.15216 0.0
C2176 C 0.62347 0.8593 0.20493 0.0
C2177 C 0.62653 0.83817 0.19461 0.0
C2178 C 0.613 0.87575 0.19541 0.0
C2179 C 0.60421 0.87008 0.17531 0.0
C2180 C 0.60731 0.84873 0.16485 0.0
C2181 C 0.61894 0.83344 0.17453 0.0
C2182 C 0.61104 0.89898 0.20694 0.0
C2183 C 0.59728 0.84122 0.14367 0.0
H2184 H 0.52653 0.8855 0.16272 0.0
H2185 H 0.6091 0.94678 0.13826 0.0
H2186 H 0.54411 0.8302 0.17313 0.0
H2187 H 0.54725 0.85089 0.19477 0.0
H2188 H 0.5181 0.84188 0.17759 0.0
H2189 H 0.65084 0.943 0.14266 0.0
H2190 H 0.65102 0.92902 0.16694 0.0
H2191 H 0.64482 0.90676 0.14567 0.0
H2192 H 0.62935 0.86302 0.22045 0.0
H2193 H 0.62087 0.8168 0.16658 0.0
H2194 H 0.58799 0.89286 0.20884 0.0
H2195 H 0.62188 0.91977 0.19868 0.0
H2196 H 0.62115 0.90248 0.22181 0.0
H2197 H 0.57365 0.8332 0.14281 0.0
H2198 H 0.60153 0.82436 0.13753 0.0
H2199 H 0.60828 0.8608 0.13421 0.0
C2200 C 0.17077 0.78511 0.17934 0.0
C2201 C 0.18334 0.78832 0.19808 0.0
C2202 C 0.1565 0.75801 0.16985 0.0
C2203 C 0.15534 0.7336 0.17911 0.0
C2204 C 0.16847 0.73682 0.19788 0.0
C2205 C 0.182 0.76406 0.20726 0.0
C2206 C 0.14218 0.75542 0.15008 0.0
C2207 C 0.16819 0.71147 0.20808 0.0
C2208 C 0.0935 0.65928 0.16462 0.0
C2209 C 0.10646 0.65025 0.15033 0.0
C2210 C 0.10921 0.68619 0.17413 0.0
C2211 C 0.13891 0.70443 0.16962 0.0
C2212 C 0.15242 0.69516 0.15561 0.0
C2213 C 0.13594 0.66831 0.14593 0.0
C2214 C 0.09375 0.69542 0.18862 0.0
C2215 C 0.1842 0.71372 0.15072 0.0
H2216 H 0.17169 0.80376 0.17218 0.0
H2217 H 0.19198 0.76648 0.22164 0.0
H2218 H 0.15107 0.74683 0.13883 0.0
H2219 H 0.11857 0.73983 0.15123 0.0
H2220 H 0.14527 0.77653 0.14478 0.0
H2221 H 0.18092 0.71793 0.22204 0.0
H2222 H 0.14556 0.69465 0.21156 0.0
H2223 H 0.1772 0.70139 0.19809 0.0
H2224 H 0.07067 0.64563 0.16803 0.0
H2225 H 0.14613 0.66145 0.13498 0.0
H2226 H 0.09486 0.7157 0.1834 0.0
H2227 H 0.10457 0.70008 0.20326 0.0
H2228 H 0.07059 0.67864 0.19057 0.0
H2229 H 0.18822 0.73427 0.14377 0.0
H2230 H 0.19188 0.70267 0.14048 0.0
H2231 H 0.19731 0.71952 0.16448 0.0
C2232 C 0.39684 0.26827 0.10359 0.0
C2233 C 0.38694 0.26367 0.08399 0.0
C2234 C 0.41491 0.29641 0.11076 0.0
C2235 C 0.4222 0.32027 0.09814 0.0
C2236 C 0.41626 0.31538 0.0776 0.0
C2237 C 0.39859 0.2869 0.0707 0.0
C2238 C 0.42209 0.30061 0.13252 0.0
C2239 C 0.42447 0.34023 0.0635 0.0
C2240 C 0.40382 0.37529 0.11805 0.0
C2241 C 0.43108 0.40016 0.12015 0.0
C2242 C 0.40097 0.34916 0.1115 0.0
C2243 C 0.42616 0.34762 0.10698 0.0
C2244 C 0.45395 0.3722 0.1102 0.0
C2245 C 0.45611 0.39838 0.11675 0.0
C2246 C 0.37075 0.32354 0.10868 0.0
C2247 C 0.48133 0.37146 0.10586 0.0
H2248 H 0.388 0.25015 0.11383 0.0
H2249 H 0.39095 0.2833 0.05552 0.0
H2250 H 0.44366 0.32004 0.13509 0.0
H2251 H 0.40565 0.30387 0.14041 0.0
H2252 H 0.42188 0.28134 0.13901 0.0
H2253 H 0.4239 0.33348 0.04787 0.0
H2254 H 0.4089 0.3482 0.06514 0.0
H2255 H 0.44646 0.35848 0.06688 0.0
H2256 H 0.38443 0.37652 0.12095 0.0
H2257 H 0.47724 0.41766 0.11826 0.0
H2258 H 0.36794 0.30491 0.11769 0.0
H2259 H 0.36737 0.31667 0.09294 0.0
H2260 H 0.35357 0.32851 0.11298 0.0
H2261 H 0.47863 0.34976 0.10883 0.0
H2262 H 0.49981 0.38788 0.11477 0.0
H2263 H 0.48694 0.37655 0.09 0.0
C2264 C 0.61179 0.07734 0.12102 0.0
C2265 C 0.60611 0.06093 0.13838 0.0
C2266 C 0.64024 0.09432 0.11402 0.0
C2267 C 0.66325 0.09469 0.1247 0.0
C2268 C 0.65799 0.0829 0.14408 0.0
C2269 C 0.62925 0.066 0.15076 0.0
C2270 C 0.64489 0.10753 0.09366 0.0
C2271 C 0.68215 0.08403 0.15638 0.0
C2272 C 0.71175 0.07542 0.0954 0.0
C2273 C 0.73795 0.10171 0.0947 0.0
C2274 C 0.68726 0.07333 0.10457 0.0
C2275 C 0.68901 0.0982 0.11361 0.0
C2276 C 0.71514 0.12521 0.11228 0.0
C2277 C 0.73941 0.12668 0.10273 0.0
C2278 C 0.65975 0.0441 0.10511 0.0
C2279 C 0.71811 0.15218 0.12177 0.0
H2280 H 0.59384 0.07373 0.11154 0.0
H2281 H 0.62496 0.05352 0.16427 0.0
H2282 H 0.66595 0.12806 0.09274 0.0
H2283 H 0.64519 0.09221 0.08265 0.0
H2284 H 0.62718 0.11182 0.08958 0.0
H2285 H 0.67611 0.08005 0.17228 0.0
H2286 H 0.68686 0.06705 0.15117 0.0
H2287 H 0.70225 0.10534 0.15481 0.0
H2288 H 0.71063 0.05614 0.08912 0.0
H2289 H 0.75984 0.14696 0.10244 0.0
H2290 H 0.64145 0.04576 0.09871 0.0
H2291 H 0.65407 0.03669 0.12065 0.0
H2292 H 0.66184 0.02728 0.09676 0.0
H2293 H 0.69763 0.1528 0.12086 0.0
H2294 H 0.7358 0.17209 0.11481 0.0
H2295 H 0.72349 0.15242 0.13766 0.0
C2296 C 0.89939 0.60986 0.05186 0.0
C2297 C 0.88338 0.61618 0.06535 0.0
C2298 C 0.91144 0.59281 0.05772 0.0
C2299 C 0.90737 0.58232 0.07742 0.0
C2300 C 0.88678 0.58418 0.0896 0.0
C2301 C 0.87502 0.60123 0.08341 0.0
C2302 C 0.93213 0.58997 0.04392 0.0
C2303 C 0.88092 0.57245 0.11044 0.0
C2304 C 0.95147 0.54926 0.09759 0.0
C2305 C 0.97637 0.57425 0.10422 0.0
C2306 C 0.92844 0.55117 0.08884 0.0
C2307 C 0.9305 0.57865 0.08699 0.0
C2308 C 0.95527 0.60369 0.09443 0.0
C2309 C 0.97787 0.60115 0.10277 0.0
C2310 C 0.90276 0.52405 0.08083 0.0
C2311 C 0.95832 0.63346 0.09325 0.0
H2312 H 0.90562 0.62113 0.03779 0.0
H2313 H 0.86212 0.6057 0.09371 0.0
H2314 H 0.95468 0.60691 0.04756 0.0
H2315 H 0.93055 0.56852 0.04565 0.0
H2316 H 0.92784 0.59283 0.02823 0.0
H2317 H 0.86005 0.56953 0.11612 0.0
H2318 H 0.88043 0.55142 0.11125 0.0
H2319 H 0.89857 0.58799 0.12028 0.0
H2320 H 0.95054 0.52849 0.09844 0.0
H2321 H 0.99711 0.62044 0.10798 0.0
H2322 H 0.90575 0.52266 0.0647 0.0
H2323 H 0.88225 0.52432 0.08296 0.0
H2324 H 0.90067 0.50427 0.08792 0.0
H2325 H 0.95848 0.63961 0.07755 0.0
H2326 H 0.97855 0.65043 0.10036 0.0
H2327 H 0.93964 0.63335 0.1006 0.0
C2328 C 0.29885 0.39325 0.48223 0.0
C2329 C 0.27552 0.38939 0.4705 0.0
C2330 C 0.32745 0.41001 0.47525 0.0
C2331 C 0.33236 0.42282 0.45621 0.0
C2332 C 0.30932 0.42346 0.44629 0.0
C2333 C 0.28103 0.40666 0.45359 0.0
C2334 C 0.35169 0.41003 0.48677 0.0
C2335 C 0.31365 0.43769 0.42631 0.0
C2336 C 0.40782 0.45558 0.43301 0.0
C2337 C 0.40597 0.43098 0.42402 0.0
C2338 C 0.38394 0.45371 0.44336 0.0
C2339 C 0.35777 0.42672 0.44447 0.0
C2340 C 0.3556 0.40227 0.43449 0.0
C2341 C 0.37976 0.40471 0.42459 0.0
C2342 C 0.38737 0.48021 0.45389 0.0
C2343 C 0.328 0.37311 0.43477 0.0
H2344 H 0.29469 0.38011 0.4954 0.0
H2345 H 0.26295 0.40398 0.44463 0.0
H2346 H 0.35587 0.39309 0.48072 0.0
H2347 H 0.37199 0.43122 0.4854 0.0
H2348 H 0.34607 0.4053 0.50269 0.0
H2349 H 0.29601 0.44241 0.42292 0.0
H2350 H 0.33479 0.45815 0.42554 0.0
H2351 H 0.31354 0.42286 0.41473 0.0
H2352 H 0.4283 0.47581 0.43285 0.0
H2353 H 0.37838 0.38572 0.4176 0.0
H2354 H 0.39287 0.47938 0.46962 0.0
H2355 H 0.36702 0.48113 0.45356 0.0
H2356 H 0.40511 0.50045 0.4473 0.0
H2357 H 0.32282 0.36486 0.45017 0.0
H2358 H 0.32969 0.35671 0.4256 0.0
H2359 H 0.30957 0.37524 0.42917 0.0
C2360 C 0.54853 0.94553 0.4386 0.0
C2361 C 0.57224 0.96987 0.43015 0.0
C2362 C 0.5521 0.9236 0.44754 0.0
C2363 C 0.57994 0.92621 0.44776 0.0
C2364 C 0.60353 0.95022 0.43833 0.0
C2365 C 0.59938 0.97178 0.42984 0.0
C2366 C 0.52647 0.89866 0.45758 0.0
C2367 C 0.63354 0.95378 0.43767 0.0
C2368 C 0.61773 0.90151 0.48223 0.0
C2369 C 0.62311 0.88454 0.46899 0.0
C2370 C 0.5989 0.91173 0.47689 0.0
C2371 C 0.58563 0.90477 0.45797 0.0
C2372 C 0.5866 0.88305 0.44653 0.0
C2373 C 0.60546 0.87316 0.4522 0.0
C2374 C 0.59712 0.93367 0.49001 0.0
C2375 C 0.57187 0.87406 0.42664 0.0
H2376 H 0.52761 0.94435 0.4391 0.0
H2377 H 0.61766 0.99063 0.42325 0.0
H2378 H 0.52716 0.87826 0.45632 0.0
H2379 H 0.52687 0.9037 0.47354 0.0
H2380 H 0.50567 0.89514 0.45131 0.0
H2381 H 0.6491 0.97316 0.42908 0.0
H2382 H 0.64212 0.95592 0.45292 0.0
H2383 H 0.63267 0.9344 0.43086 0.0
H2384 H 0.63109 0.9101 0.49535 0.0
H2385 H 0.60925 0.85955 0.44211 0.0
H2386 H 0.57513 0.93109 0.48944 0.0
H2387 H 0.61284 0.95582 0.48474 0.0
H2388 H 0.60248 0.93168 0.50561 0.0
H2389 H 0.55058 0.87309 0.42685 0.0
H2390 H 0.56863 0.85261 0.42204 0.0
H2391 H 0.58567 0.8903 0.41537 0.0
C2392 C 0.08037 0.71555 0.44843 0.0
C2393 C 0.10703 0.74137 0.44867 0.0
C2394 C 0.07695 0.69104 0.43848 0.0
C2395 C 0.1008 0.69241 0.42816 0.0
C2396 C 0.12824 0.71812 0.42902 0.0
C2397 C 0.13107 0.74241 0.43938 0.0
C2398 C 0.04735 0.66397 0.43846 0.0
C2399 C 0.15417 0.72066 0.4182 0.0
C2400 C 0.07788 0.61508 0.41855 0.0
C2401 C 0.06066 0.61031 0.40171 0.0
C2402 C 0.0956 0.64317 0.42593 0.0
C2403 C 0.09578 0.66677 0.41622 0.0
C2404 C 0.08276 0.66245 0.39728 0.0
C2405 C 0.06519 0.63404 0.39019 0.0
C2406 C 0.11004 0.64685 0.44576 0.0
C2407 C 0.08353 0.68724 0.38602 0.0
H2408 H 0.06181 0.7148 0.45566 0.0
H2409 H 0.15162 0.76258 0.43929 0.0
H2410 H 0.03875 0.65887 0.42314 0.0
H2411 H 0.04894 0.64522 0.44401 0.0
H2412 H 0.03147 0.6663 0.4478 0.0
H2413 H 0.1748 0.73796 0.42467 0.0
H2414 H 0.15433 0.69992 0.41838 0.0
H2415 H 0.1533 0.72636 0.40252 0.0
H2416 H 0.07463 0.59667 0.42737 0.0
H2417 H 0.05201 0.63044 0.37711 0.0
H2418 H 0.09568 0.6472 0.45753 0.0
H2419 H 0.13092 0.6676 0.44647 0.0
H2420 H 0.11405 0.62868 0.4489 0.0
H2421 H 0.06726 0.69217 0.39241 0.0
H2422 H 0.07829 0.68181 0.37013 0.0
H2423 H 0.10515 0.70705 0.38726 0.0
C2424 C 0.54482 0.60448 0.93386 0.0
C2425 C 0.56904 0.60343 0.92684 0.0
C2426 C 0.54772 0.6307 0.94099 0.0
C2427 C 0.5754 0.65615 0.94088 0.0
C2428 C 0.5995 0.65519 0.9328 0.0
C2429 C 0.59599 0.62886 0.92605 0.0
C2430 C 0.52151 0.63059 0.94952 0.0
C2431 C 0.62941 0.68179 0.93184 0.0
C2432 C 0.60133 0.73489 0.94128 0.0
C2433 C 0.61831 0.74248 0.95848 0.0
C2434 C 0.58224 0.70573 0.93666 0.0
C2435 C 0.58049 0.68401 0.94955 0.0
C2436 C 0.59292 0.69195 0.96869 0.0
C2437 C 0.6119 0.72136 0.97299 0.0
C2438 C 0.56826 0.69829 0.91649 0.0
C2439 C 0.59027 0.66937 0.9833 0.0
H2440 H 0.52403 0.58464 0.93471 0.0
H2441 H 0.61466 0.62796 0.92053 0.0
H2442 H 0.52088 0.62699 0.96572 0.0
H2443 H 0.52226 0.65154 0.94703 0.0
H2444 H 0.50112 0.61285 0.94308 0.0
H2445 H 0.64547 0.67736 0.92451 0.0
H2446 H 0.62864 0.69936 0.92356 0.0
H2447 H 0.6373 0.68988 0.947 0.0
H2448 H 0.60589 0.75136 0.93019 0.0
H2449 H 0.62473 0.72719 0.98643 0.0
H2450 H 0.54694 0.67799 0.91695 0.0
H2451 H 0.58246 0.69495 0.90608 0.0
H2452 H 0.56523 0.71607 0.9106 0.0
H2453 H 0.56821 0.65006 0.98286 0.0
H2454 H 0.59503 0.67811 0.99862 0.0
H2455 H 0.60602 0.6623 0.97935 0.0
C2456 C 0.27698 0.88397 0.95518 0.0
C2457 C 0.26786 0.90399 0.95113 0.0
C2458 C 0.30499 0.88983 0.9497 0.0
C2459 C 0.32434 0.91664 0.94053 0.0
C2460 C 0.31494 0.93667 0.9363 0.0
C2461 C 0.28693 0.92998 0.94148 0.0
C2462 C 0.31379 0.86758 0.95417 0.0
C2463 C 0.33475 0.96579 0.92681 0.0
C2464 C 0.40427 0.9632 0.94501 0.0
C2465 C 0.41213 0.96599 0.92499 0.0
C2466 C 0.37606 0.94322 0.95108 0.0
C2467 C 0.35529 0.92587 0.93669 0.0
C2468 C 0.36449 0.92525 0.91709 0.0
C2469 C 0.39298 0.9456 0.91135 0.0
C2470 C 0.36756 0.94393 0.97228 0.0
C2471 C 0.34328 0.90579 0.90162 0.0
H2472 H 0.26228 0.86373 0.9625 0.0
H2473 H 0.28022 0.94571 0.93834 0.0
H2474 H 0.33042 0.86891 0.94366 0.0
H2475 H 0.32293 0.87126 0.96934 0.0
H2476 H 0.29473 0.8453 0.95368 0.0
H2477 H 0.32396 0.97882 0.92463 0.0
H2478 H 0.3542 0.97849 0.93619 0.0
H2479 H 0.34226 0.96271 0.91218 0.0
H2480 H 0.41943 0.97847 0.95568 0.0
H2481 H 0.39918 0.94737 0.89591 0.0
H2482 H 0.35281 0.92169 0.97779 0.0
H2483 H 0.35582 0.95623 0.97316 0.0
H2484 H 0.38678 0.95456 0.98216 0.0
H2485 H 0.32742 0.8845 0.90809 0.0
H2486 H 0.35459 0.90225 0.88904 0.0
H2487 H 0.33105 0.91601 0.8958 0.0
C2488 C 0.07953 0.36609 0.94913 0.0
C2489 C 0.1066 0.36848 0.95228 0.0
C2490 C 0.07716 0.38894 0.9411 0.0
C2491 C 0.10263 0.41506 0.9359 0.0
C2492 C 0.13021 0.41818 0.93986 0.0
C2493 C 0.13189 0.39473 0.94809 0.0
C2494 C 0.04715 0.38458 0.93765 0.0
C2495 C 0.15787 0.44556 0.93462 0.0
C2496 C 0.07462 0.44522 0.89792 0.0
C2497 C 0.06347 0.458 0.91062 0.0
C2498 C 0.09265 0.43519 0.9054 0.0
C2499 C 0.09921 0.43806 0.9259 0.0
C2500 C 0.09273 0.45608 0.93762 0.0
C2501 C 0.0746 0.46567 0.92984 0.0
C2502 C 0.10034 0.41725 0.89217 0.0
C2503 C 0.1004 0.46085 0.9593 0.0
H2504 H 0.05997 0.34589 0.95259 0.0
H2505 H 0.15286 0.39649 0.95037 0.0
H2506 H 0.04475 0.40157 0.94547 0.0
H2507 H 0.04376 0.38636 0.92163 0.0
H2508 H 0.02972 0.36309 0.94289 0.0
H2509 H 0.17632 0.44808 0.94377 0.0
H2510 H 0.16317 0.44446 0.91888 0.0
H2511 H 0.15568 0.46506 0.93649 0.0
H2512 H 0.06613 0.43943 0.88301 0.0
H2513 H 0.06616 0.47588 0.9396 0.0
H2514 H 0.08436 0.39393 0.89444 0.0
H2515 H 0.12215 0.42072 0.89584 0.0
H2516 H 0.09988 0.42248 0.87631 0.0
H2517 H 0.08382 0.44206 0.96787 0.0
H2518 H 0.10084 0.48069 0.96485 0.0
H2519 H 0.12178 0.46267 0.9621 0.0
C2520 C 0.71547 0.63194 0.58491 0.0
C2521 C 0.7424 0.63369 0.58707 0.0
C2522 C 0.69018 0.60828 0.59229 0.0
C2523 C 0.69183 0.58557 0.60203 0.0
C2524 C 0.71858 0.58581 0.60244 0.0
C2525 C 0.74378 0.61014 0.59505 0.0
C2526 C 0.66218 0.60903 0.59119 0.0
C2527 C 0.72125 0.56167 0.61196 0.0
C2528 C 0.63376 0.55956 0.6406 0.0
C2529 C 0.60986 0.54091 0.62901 0.0
C2530 C 0.66202 0.57153 0.63301 0.0
C2531 C 0.66614 0.56411 0.61358 0.0
C2532 C 0.64248 0.54121 0.60353 0.0
C2533 C 0.61442 0.53019 0.61123 0.0
C2534 C 0.68675 0.59538 0.64449 0.0
C2535 C 0.64615 0.53134 0.58338 0.0
H2536 H 0.71457 0.65032 0.57881 0.0
H2537 H 0.76472 0.61168 0.59696 0.0
H2538 H 0.64495 0.58897 0.58415 0.0
H2539 H 0.65476 0.61019 0.60634 0.0
H2540 H 0.66457 0.62789 0.58261 0.0
H2541 H 0.73894 0.55946 0.605 0.0
H2542 H 0.7267 0.56677 0.62784 0.0
H2543 H 0.70073 0.5406 0.61094 0.0
H2544 H 0.63025 0.56791 0.65434 0.0
H2545 H 0.59588 0.51555 0.60229 0.0
H2546 H 0.69227 0.61668 0.638 0.0
H2547 H 0.70634 0.59318 0.64358 0.0
H2548 H 0.6811 0.59536 0.66032 0.0
H2549 H 0.64561 0.54598 0.57192 0.0
H2550 H 0.6284 0.50897 0.58015 0.0
H2551 H 0.66729 0.53206 0.58221 0.0
C2552 C 0.4082 0.11192 0.55577 0.0
C2553 C 0.40268 0.13028 0.5675 0.0
C2554 C 0.42418 0.09966 0.56343 0.0
C2555 C 0.4348 0.10625 0.58311 0.0
C2556 C 0.43417 0.12917 0.59323 0.0
C2557 C 0.41774 0.14074 0.58537 0.0
C2558 C 0.42537 0.07612 0.55179 0.0
C2559 C 0.44658 0.13803 0.61377 0.0
C2560 C 0.4119 0.03807 0.61273 0.0
C2561 C 0.43721 0.03626 0.61317 0.0
C2562 C 0.41139 0.0614 0.60373 0.0
C2563 C 0.43699 0.08374 0.59484 0.0
C2564 C 0.46322 0.08309 0.59639 0.0
C2565 C 0.46301 0.0592 0.60556 0.0
C2566 C 0.3829 0.06121 0.60287 0.0
C2567 C 0.49108 0.10655 0.58746 0.0
H2568 H 0.39663 0.10387 0.5419 0.0
H2569 H 0.41368 0.15519 0.59438 0.0
H2570 H 0.44658 0.07726 0.55383 0.0
H2571 H 0.40821 0.05464 0.55722 0.0
H2572 H 0.42177 0.07763 0.53575 0.0
H2573 H 0.4513 0.16034 0.61731 0.0
H2574 H 0.4306 0.12297 0.62472 0.0
H2575 H 0.46675 0.13694 0.61539 0.0
H2576 H 0.39199 0.02042 0.61876 0.0
H2577 H 0.48258 0.05771 0.60571 0.0
H2578 H 0.37617 0.06044 0.58724 0.0
H2579 H 0.38533 0.08131 0.60957 0.0
H2580 H 0.36521 0.04238 0.61078 0.0
H2581 H 0.49234 0.10102 0.5718 0.0
H2582 H 0.51022 0.10835 0.59534 0.0
H2583 H 0.49227 0.12794 0.58776 0.0
C2584 C 0.95374 0.4077 0.60144 0.0
C2585 C 0.97744 0.40702 0.60987 0.0
C2586 C 0.9319 0.3833 0.5914 0.0
C2587 C 0.93386 0.35776 0.59009 0.0
C2588 C 0.9572 0.3568 0.59945 0.0
C2589 C 0.97875 0.38148 0.609 0.0
C2590 C 0.90773 0.38547 0.58144 0.0
C2591 C 0.95997 0.32989 0.59897 0.0
C2592 C 0.87819 0.28024 0.5824 0.0
C2593 C 0.88927 0.27466 0.56517 0.0
C2594 C 0.88949 0.30862 0.58947 0.0
C2595 C 0.91226 0.33171 0.57892 0.0
C2596 C 0.91938 0.32657 0.55969 0.0
C2597 C 0.90778 0.29787 0.55299 0.0
C2598 C 0.88052 0.31309 0.60974 0.0
C2599 C 0.94256 0.35084 0.54755 0.0
H2600 H 0.95302 0.42768 0.60183 0.0
H2601 H 0.9971 0.38101 0.61557 0.0
H2602 H 0.91298 0.39031 0.56551 0.0
H2603 H 0.88682 0.3648 0.58248 0.0
H2604 H 0.905 0.40313 0.58792 0.0
H2605 H 0.9788 0.33246 0.60769 0.0
H2606 H 0.94004 0.31108 0.60496 0.0
H2607 H 0.96261 0.32472 0.58347 0.0
H2608 H 0.86352 0.26223 0.59172 0.0
H2609 H 0.91626 0.29366 0.53958 0.0
H2610 H 0.88054 0.3339 0.61055 0.0
H2611 H 0.89622 0.31383 0.62086 0.0
H2612 H 0.85862 0.29511 0.61377 0.0
H2613 H 0.94114 0.37084 0.549 0.0
H2614 H 0.94088 0.34485 0.53166 0.0
H2615 H 0.9642 0.35572 0.553 0.0
C2616 C 0.96182 0.69858 0.78575 0.0
C2617 C 0.93709 0.70081 0.78907 0.0
C2618 C 0.98711 0.72172 0.77799 0.0
C2619 C 0.98774 0.74796 0.77321 0.0
C2620 C 0.96321 0.75087 0.7773 0.0
C2621 C 0.93803 0.72714 0.78528 0.0
C2622 C 0.01287 0.71759 0.77439 0.0
C2623 C 0.96289 0.77834 0.77247 0.0
C2624 C 0.06643 0.79926 0.76782 0.0
C2625 C 0.07025 0.79222 0.74849 0.0
C2626 C 0.03856 0.78915 0.7755 0.0
C2627 C 0.01427 0.77135 0.76353 0.0
C2628 C 0.0183 0.76919 0.74298 0.0
C2629 C 0.04651 0.77968 0.73563 0.0
C2630 C 0.03531 0.79311 0.79727 0.0
C2631 C 0.99288 0.75152 0.72951 0.0
H2632 H 0.96119 0.6783 0.78888 0.0
H2633 H 0.91877 0.72878 0.78768 0.0
H2634 H 0.01818 0.71982 0.75838 0.0
H2635 H 0.03217 0.73443 0.78238 0.0
H2636 H 0.00883 0.696 0.77934 0.0
H2637 H 0.9467 0.78045 0.78161 0.0
H2638 H 0.98451 0.79784 0.77469 0.0
H2639 H 0.95685 0.77777 0.75669 0.0
H2640 H 0.08495 0.80931 0.77771 0.0
H2641 H 0.04948 0.77438 0.72063 0.0
H2642 H 0.03322 0.77414 0.80551 0.0
H2643 H 0.01559 0.7946 0.80016 0.0
H2644 H 0.05455 0.81288 0.8031 0.0
H2645 H 0.98569 0.72818 0.73141 0.0
H2646 H 0.99878 0.75731 0.71373 0.0
H2647 H 0.97437 0.75467 0.73327 0.0
C2648 C 0.21175 0.27234 0.75825 0.0
C2649 C 0.22149 0.28883 0.74085 0.0
C2650 C 0.22206 0.25372 0.76368 0.0
C2651 C 0.24259 0.25189 0.75141 0.0
C2652 C 0.24764 0.26385 0.7321 0.0
C2653 C 0.237 0.28241 0.72699 0.0
C2654 C 0.21501 0.24034 0.78404 0.0
C2655 C 0.26824 0.26113 0.71815 0.0
C2656 C 0.31231 0.26796 0.77677 0.0
C2657 C 0.31071 0.24096 0.77684 0.0
C2658 C 0.28987 0.27134 0.76905 0.0
C2659 C 0.26512 0.24706 0.76084 0.0
C2660 C 0.26281 0.21937 0.7615 0.0
C2661 C 0.28573 0.2166 0.76962 0.0
C2662 C 0.29323 0.30129 0.76919 0.0
C2663 C 0.23705 0.19298 0.75283 0.0
H2664 H 0.19932 0.27698 0.76886 0.0
H2665 H 0.24435 0.29491 0.71343 0.0
H2666 H 0.21411 0.21908 0.78412 0.0
H2667 H 0.23225 0.2549 0.79451 0.0
H2668 H 0.194 0.23737 0.78948 0.0
H2669 H 0.26469 0.2654 0.7026 0.0
H2670 H 0.29087 0.27719 0.72232 0.0
H2671 H 0.26575 0.23921 0.71909 0.0
H2672 H 0.33161 0.28675 0.78247 0.0
H2673 H 0.28469 0.19575 0.76944 0.0
H2674 H 0.27455 0.30078 0.77684 0.0
H2675 H 0.29368 0.30873 0.7538 0.0
H2676 H 0.31343 0.31754 0.77673 0.0
H2677 H 0.21672 0.19364 0.75487 0.0
H2678 H 0.2343 0.17271 0.75951 0.0
H2679 H 0.24052 0.19224 0.7367 0.0
C2680 C 0.72902 0.94587 0.73229 0.0
C2681 C 0.70596 0.92717 0.74456 0.0
C2682 C 0.74883 0.97428 0.73857 0.0
C2683 C 0.74491 0.98398 0.75725 0.0
C2684 C 0.72412 0.96382 0.77056 0.0
C2685 C 0.705 0.93564 0.76407 0.0
C2686 C 0.77206 0.99469 0.7245 0.0
C2687 C 0.71948 0.97289 0.79079 0.0
C2688 C 0.78595 0.05964 0.77972 0.0
C2689 C 0.76821 0.0708 0.77375 0.0
C2690 C 0.78032 0.03217 0.77315 0.0
C2691 C 0.75603 0.01537 0.7608 0.0
C2692 C 0.73911 0.02732 0.75397 0.0
C2693 C 0.74561 0.05485 0.76033 0.0
C2694 C 0.79968 0.02088 0.78019 0.0
C2695 C 0.71278 0.01029 0.74094 0.0
H2696 H 0.73027 0.93922 0.71733 0.0
H2697 H 0.68778 0.92086 0.77386 0.0
H2698 H 0.76437 0.00777 0.7165 0.0
H2699 H 0.79209 0.00987 0.73266 0.0
H2700 H 0.77734 0.98268 0.71337 0.0
H2701 H 0.70479 0.95399 0.80011 0.0
H2702 H 0.74044 0.98553 0.79862 0.0
H2703 H 0.70979 0.98701 0.78916 0.0
H2704 H 0.80377 0.07199 0.78981 0.0
H2705 H 0.73199 0.06334 0.75532 0.0
H2706 H 0.7996 0.00466 0.76983 0.0
H2707 H 0.79206 0.01045 0.79486 0.0
H2708 H 0.82234 0.03891 0.78203 0.0
H2709 H 0.7189 1.00317 0.72726 0.0
H2710 H 0.70237 0.02307 0.73661 0.0
H2711 H 0.69646 0.99056 0.74885 0.0
C2712 C 0.22575 0.95379 0.23138 0.0
C2713 C 0.21011 0.93004 0.24389 0.0
C2714 C 0.23553 0.98206 0.2383 0.0
C2715 C 0.22911 0.98614 0.25801 0.0
C2716 C 0.20822 0.96201 0.26887 0.0
C2717 C 0.19932 0.93403 0.26182 0.0
C2718 C 0.25681 0.0073 0.22586 0.0
C2719 C 0.19919 0.96553 0.28935 0.0
C2720 C 0.29811 0.03649 0.28515 0.0
C2721 C 0.29847 0.06288 0.28438 0.0
C2722 C 0.27484 0.01116 0.27757 0.0
C2723 C 0.25101 0.01213 0.26903 0.0
C2724 C 0.25008 0.03827 0.26974 0.0
C2725 C 0.27405 0.06356 0.27738 0.0
C2726 C 0.27686 0.9838 0.27759 0.0
C2727 C 0.22485 0.04021 0.26144 0.0
H2728 H 0.23394 0.95068 0.21744 0.0
H2729 H 0.18684 0.91554 0.2714 0.0
H2730 H 0.25307 0.02589 0.22739 0.0
H2731 H 0.27919 0.01445 0.23102 0.0
H2732 H 0.25528 1.00134 0.20997 0.0
H2733 H 0.17767 0.94685 0.29331 0.0
H2734 H 0.21526 0.9666 0.30027 0.0
H2735 H 0.19832 0.98586 0.29053 0.0
H2736 H 0.31693 0.03599 0.29079 0.0
H2737 H 0.27439 0.08406 0.27671 0.0
H2738 H 0.27659 0.97648 0.26218 0.0
H2739 H 0.258 0.96617 0.28546 0.0
H2740 H 0.29692 0.98692 0.28489 0.0
H2741 H 0.22947 0.04742 0.24579 0.0
H2742 H 0.2217 0.05648 0.26968 0.0
H2743 H 0.20439 0.01903 0.26191 0.0
C2744 C 0.9551 0.23401 0.31483 0.0
C2745 C 0.9323 0.21749 0.30178 0.0
C2746 C 0.98395 0.24448 0.30886 0.0
C2747 C 0.98958 0.2382 0.28952 0.0
C2748 C 0.9665 0.21667 0.27822 0.0
C2749 C 0.93794 0.20659 0.28449 0.0
C2750 C 0.00812 0.26619 0.32182 0.0
C2751 C 0.97154 0.20826 0.25792 0.0
C2752 C 0.04041 0.30659 0.26173 0.0
C2753 C 0.06621 0.30574 0.26132 0.0
C2754 C 0.01529 0.28423 0.27028 0.0
C2755 C 0.016 0.26036 0.27898 0.0
C2756 C 0.04173 0.25871 0.27791 0.0
C2757 C 0.06667 0.28151 0.26897 0.0
C2758 C 0.98826 0.28682 0.27054 0.0
C2759 C 0.04357 0.23384 0.28701 0.0
H2760 H 0.95078 0.24222 0.32832 0.0
H2761 H 0.92018 0.19337 0.27452 0.0
H2762 H 0.02762 0.26386 0.32051 0.0
H2763 H 0.01417 0.28843 0.317 0.0
H2764 H 1.0014 0.2637 0.33759 0.0
H2765 H 0.95337 0.18673 0.25342 0.0
H2766 H 0.97312 0.22454 0.24699 0.0
H2767 H 0.9921 0.20775 0.25741 0.0
H2768 H 0.04008 0.32529 0.25568 0.0
H2769 H 0.08679 0.28106 0.26886 0.0
H2770 H 0.98203 0.28801 0.28603 0.0
H2771 H 0.96993 0.26748 0.26357 0.0
H2772 H 0.99127 0.30637 0.26256 0.0
H2773 H 0.0492 0.23856 0.3029 0.0
H2774 H 0.06072 0.23095 0.27981 0.0
H2775 H 0.02263 0.2132 0.28601 0.0
C2776 C 0.78014 0.73452 0.3068 0.0
C2777 C 0.79314 0.72343 0.29424 0.0
C2778 C 0.76941 0.75188 0.29913 0.0
C2779 C 0.77175 0.75789 0.27854 0.0
C2780 C 0.78938 0.75097 0.26673 0.0
C2781 C 0.79985 0.73372 0.27475 0.0
C2782 C 0.75177 0.7599 0.31241 0.0
C2783 C 0.7932 0.75756 0.24486 0.0
C2784 C 0.70049 0.7414 0.25539 0.0
C2785 C 0.70462 0.76901 0.25152 0.0
C2786 C 0.72245 0.73777 0.26375 0.0
C2787 C 0.74935 0.76248 0.26868 0.0
C2788 C 0.75409 0.79055 0.26425 0.0
C2789 C 0.73159 0.7935 0.25559 0.0
C2790 C 0.71644 0.7073 0.2677 0.0
C2791 C 0.78227 0.81742 0.26941 0.0
H2792 H 0.77504 0.72671 0.32191 0.0
H2793 H 0.81027 0.7254 0.26507 0.0
H2794 H 0.75514 0.78161 0.30853 0.0
H2795 H 0.7284 0.74389 0.31044 0.0
H2796 H 0.75738 0.75987 0.32824 0.0
H2797 H 0.8125 0.75721 0.23896 0.0
H2798 H 0.77378 0.74088 0.23685 0.0
H2799 H 0.79541 0.77901 0.2417 0.0
H2800 H 0.67968 0.72244 0.25212 0.0
H2801 H 0.73467 0.81491 0.25283 0.0
H2802 H 0.71777 0.70414 0.28382 0.0
H2803 H 0.73294 0.7037 0.26026 0.0
H2804 H 0.69467 0.69051 0.26242 0.0
H2805 H 0.78232 0.82202 0.28542 0.0
H2806 H 0.78513 0.8366 0.261 0.0
H2807 H 0.80109 0.81441 0.2665 0.0
loop_
_geom_bond_atom_site_label_1
_geom_bond_atom_site_label_2
_geom_bond_distance
_geom_bond_site_symmetry_2
_ccdc_geom_bond_type
O0 Cd1 2.223 . S
O0 C8 1.315 . S
Cd1 O0 2.223 . S
Cd1 O4 2.297 . S
Cd1 O5 2.439 . S
Cd1 O11 2.240 . S
Cd2 O3 2.240 . S
Cd2 O10 2.223 . S
Cd2 O12 2.297 . S
Cd2 O13 2.439 . S
O3 Cd2 2.240 . S
O3 C8 1.279 . S
O4 Cd1 2.297 . S
O4 C6 1.247 . S
O5 Cd1 2.439 . S
O5 C6 1.208 . S
C6 O4 1.247 . S
C6 O5 1.208 . S
C7 O12 1.247 . S
C7 O13 1.208 . S
C8 O0 1.315 . S
C8 O3 1.279 . S
C9 O10 1.315 . S
C9 O11 1.279 . S
O10 Cd2 2.223 . S
O10 C9 1.315 . S
O11 Cd1 2.240 . S
O11 C9 1.279 . S
O12 Cd2 2.297 . S
O12 C7 1.247 . S
O13 Cd2 2.439 . S
O13 C7 1.208 . S
O14 Cd15 2.223 . S
O14 C22 1.315 . S
Cd15 O14 2.223 . S
Cd15 O18 2.297 . S
Cd15 O19 2.439 . S
Cd15 O25 2.240 . S
Cd16 O17 2.240 . S
Cd16 O24 2.223 . S
Cd16 O26 2.297 . S
Cd16 O27 2.439 . S
O17 Cd16 2.240 . S
O17 C22 1.279 . S
O18 Cd15 2.297 . S
O18 C20 1.247 . S
O19 Cd15 2.439 . S
O19 C20 1.208 . S
C20 O18 1.247 . S
C20 O19 1.208 . S
C21 O26 1.247 . S
C21 O27 1.208 . S
C22 O14 1.315 . S
C22 O17 1.279 . S
C23 O24 1.315 . S
C23 O25 1.279 . S
O24 Cd16 2.223 . S
O24 C23 1.315 . S
O25 Cd15 2.240 . S
O25 C23 1.279 . S
O26 Cd16 2.297 . S
O26 C21 1.247 . S
O27 Cd16 2.439 . S
O27 C21 1.208 . S
O28 Cd29 2.223 . S
O28 C36 1.315 . S
Cd29 O28 2.223 . S
Cd29 O32 2.297 . S
Cd29 O33 2.439 . S
Cd29 O39 2.240 . S
Cd30 O31 2.240 . S
Cd30 O38 2.223 . S
Cd30 O40 2.297 . S
Cd30 O41 2.439 . S
O31 Cd30 2.240 . S
O31 C36 1.279 . S
O32 Cd29 2.297 . S
O32 C34 1.247 . S
O33 Cd29 2.439 . S
O33 C34 1.208 . S
C34 O32 1.247 . S
C34 O33 1.208 . S
C35 O40 1.247 . S
C35 O41 1.208 . S
C36 O28 1.315 . S
C36 O31 1.279 . S
C37 O38 1.315 . S
C37 O39 1.279 . S
O38 Cd30 2.223 . S
O38 C37 1.315 . S
O39 Cd29 2.240 . S
O39 C37 1.279 . S
O40 Cd30 2.297 . S
O40 C35 1.247 . S
O41 Cd30 2.439 . S
O41 C35 1.208 . S
O42 Cd43 2.223 . S
O42 C50 1.315 . S
Cd43 O42 2.223 . S
Cd43 O46 2.297 . S
Cd43 O47 2.439 . S
Cd43 O53 2.240 . S
Cd44 O45 2.240 . S
Cd44 O52 2.223 . S
Cd44 O54 2.297 . S
Cd44 O55 2.439 . S
O45 Cd44 2.240 . S
O45 C50 1.279 . S
O46 Cd43 2.297 . S
O46 C48 1.247 . S
O47 Cd43 2.439 . S
O47 C48 1.208 . S
C48 O46 1.247 . S
C48 O47 1.208 . S
C49 O54 1.247 . S
C49 O55 1.208 . S
C50 O42 1.315 . S
C50 O45 1.279 . S
C51 O52 1.315 . S
C51 O53 1.279 . S
O52 Cd44 2.223 . S
O52 C51 1.315 . S
O53 Cd43 2.240 . S
O53 C51 1.279 . S
O54 Cd44 2.297 . S
O54 C49 1.247 . S
O55 Cd44 2.439 . S
O55 C49 1.208 . S
O56 Cd57 2.223 . S
O56 C64 1.315 . S
Cd57 O56 2.223 . S
Cd57 O60 2.297 . S
Cd57 O61 2.439 . S
Cd57 O67 2.240 . S
Cd58 O59 2.240 . S
Cd58 O66 2.223 . S
Cd58 O68 2.297 . S
Cd58 O69 2.439 . S
O59 Cd58 2.240 . S
O59 C64 1.279 . S
O60 Cd57 2.297 . S
O60 C62 1.247 . S
O61 Cd57 2.439 . S
O61 C62 1.208 . S
C62 O60 1.247 . S
C62 O61 1.208 . S
C63 O68 1.247 . S
C63 O69 1.208 . S
C64 O56 1.315 . S
C64 O59 1.279 . S
C65 O66 1.315 . S
C65 O67 1.279 . S
O66 Cd58 2.223 . S
O66 C65 1.315 . S
O67 Cd57 2.240 . S
O67 C65 1.279 . S
O68 Cd58 2.297 . S
O68 C63 1.247 . S
O69 Cd58 2.439 . S
O69 C63 1.208 . S
O70 Cd71 2.223 . S
O70 C78 1.315 . S
Cd71 O70 2.223 . S
Cd71 O74 2.297 . S
Cd71 O75 2.439 . S
Cd71 O81 2.240 . S
Cd72 O73 2.240 . S
Cd72 O80 2.223 . S
Cd72 O82 2.297 . S
Cd72 O83 2.439 . S
O73 Cd72 2.240 . S
O73 C78 1.279 . S
O74 Cd71 2.297 . S
O74 C76 1.247 . S
O75 Cd71 2.439 . S
O75 C76 1.208 . S
C76 O74 1.247 . S
C76 O75 1.208 . S
C77 O82 1.247 . S
C77 O83 1.208 . S
C78 O70 1.315 . S
C78 O73 1.279 . S
C79 O80 1.315 . S
C79 O81 1.279 . S
O80 Cd72 2.223 . S
O80 C79 1.315 . S
O81 Cd71 2.240 . S
O81 C79 1.279 . S
O82 Cd72 2.297 . S
O82 C77 1.247 . S
O83 Cd72 2.439 . S
O83 C77 1.208 . S
O84 Cd85 2.223 . S
O84 C92 1.315 . S
Cd85 O84 2.223 . S
Cd85 O88 2.297 . S
Cd85 O89 2.439 . S
Cd85 O95 2.240 . S
Cd86 O87 2.240 . S
Cd86 O94 2.223 . S
Cd86 O96 2.297 . S
Cd86 O97 2.439 . S
O87 Cd86 2.240 . S
O87 C92 1.279 . S
O88 Cd85 2.297 . S
O88 C90 1.247 . S
O89 Cd85 2.439 . S
O89 C90 1.208 . S
C90 O88 1.247 . S
C90 O89 1.208 . S
C91 O96 1.247 . S
C91 O97 1.208 . S
C92 O84 1.315 . S
C92 O87 1.279 . S
C93 O94 1.315 . S
C93 O95 1.279 . S
O94 Cd86 2.223 . S
O94 C93 1.315 . S
O95 Cd85 2.240 . S
O95 C93 1.279 . S
O96 Cd86 2.297 . S
O96 C91 1.247 . S
O97 Cd86 2.439 . S
O97 C91 1.208 . S
O98 Cd99 2.223 . S
O98 C106 1.315 . S
Cd99 O98 2.223 . S
Cd99 O102 2.297 . S
Cd99 O103 2.439 . S
Cd99 O109 2.240 . S
Cd100 O101 2.240 . S
Cd100 O108 2.223 . S
Cd100 O110 2.297 . S
Cd100 O111 2.439 . S
O101 Cd100 2.240 . S
O101 C106 1.279 . S
O102 Cd99 2.297 . S
O102 C104 1.247 . S
O103 Cd99 2.439 . S
O103 C104 1.208 . S
C104 O102 1.247 . S
C104 O103 1.208 . S
C105 O110 1.247 . S
C105 O111 1.208 . S
C106 O98 1.315 . S
C106 O101 1.279 . S
C107 O108 1.315 . S
C107 O109 1.279 . S
O108 Cd100 2.223 . S
O108 C107 1.315 . S
O109 Cd99 2.240 . S
O109 C107 1.279 . S
O110 Cd100 2.297 . S
O110 C105 1.247 . S
O111 Cd100 2.439 . S
O111 C105 1.208 . S
O112 Cd113 2.223 . S
O112 C120 1.315 . S
Cd113 O112 2.223 . S
Cd113 O116 2.297 . S
Cd113 O117 2.439 . S
Cd113 O123 2.240 . S
Cd114 O115 2.240 . S
Cd114 O122 2.223 . S
Cd114 O124 2.297 . S
Cd114 O125 2.439 . S
O115 Cd114 2.240 . S
O115 C120 1.279 . S
O116 Cd113 2.297 . S
O116 C118 1.247 . S
O117 Cd113 2.439 . S
O117 C118 1.208 . S
C118 O116 1.247 . S
C118 O117 1.208 . S
C119 O124 1.247 . S
C119 O125 1.208 . S
C120 O112 1.315 . S
C120 O115 1.279 . S
C121 O122 1.315 . S
C121 O123 1.279 . S
O122 Cd114 2.223 . S
O122 C121 1.315 . S
O123 Cd113 2.240 . S
O123 C121 1.279 . S
O124 Cd114 2.297 . S
O124 C119 1.247 . S
O125 Cd114 2.439 . S
O125 C119 1.208 . S
O126 Cd127 2.223 . S
O126 C134 1.315 . S
Cd127 O126 2.223 . S
Cd127 O130 2.297 . S
Cd127 O131 2.439 . S
Cd127 O137 2.240 . S
Cd128 O129 2.240 . S
Cd128 O136 2.223 . S
Cd128 O138 2.297 . S
Cd128 O139 2.439 . S
O129 Cd128 2.240 . S
O129 C134 1.279 . S
O130 Cd127 2.297 . S
O130 C132 1.247 . S
O131 Cd127 2.439 . S
O131 C132 1.208 . S
C132 O130 1.247 . S
C132 O131 1.208 . S
C133 O138 1.247 . S
C133 O139 1.208 . S
C134 O126 1.315 . S
C134 O129 1.279 . S
C135 O136 1.315 . S
C135 O137 1.279 . S
O136 Cd128 2.223 . S
O136 C135 1.315 . S
O137 Cd127 2.240 . S
O137 C135 1.279 . S
O138 Cd128 2.297 . S
O138 C133 1.247 . S
O139 Cd128 2.439 . S
O139 C133 1.208 . S
O140 Cd141 2.223 . S
O140 C148 1.315 . S
Cd141 O140 2.223 . S
Cd141 O144 2.297 . S
Cd141 O145 2.439 . S
Cd141 O151 2.240 . S
Cd142 O143 2.240 . S
Cd142 O150 2.223 . S
Cd142 O152 2.297 . S
Cd142 O153 2.439 . S
O143 Cd142 2.240 . S
O143 C148 1.279 . S
O144 Cd141 2.297 . S
O144 C146 1.247 . S
O145 Cd141 2.439 . S
O145 C146 1.208 . S
C146 O144 1.247 . S
C146 O145 1.208 . S
C147 O152 1.247 . S
C147 O153 1.208 . S
C148 O140 1.315 . S
C148 O143 1.279 . S
C149 O150 1.315 . S
C149 O151 1.279 . S
O150 Cd142 2.223 . S
O150 C149 1.315 . S
O151 Cd141 2.240 . S
O151 C149 1.279 . S
O152 Cd142 2.297 . S
O152 C147 1.247 . S
O153 Cd142 2.439 . S
O153 C147 1.208 . S
O154 Cd155 2.223 . S
O154 C162 1.315 . S
Cd155 O154 2.223 . S
Cd155 O158 2.297 . S
Cd155 O159 2.439 . S
Cd155 O165 2.240 . S
Cd156 O157 2.240 . S
Cd156 O164 2.223 . S
Cd156 O166 2.297 . S
Cd156 O167 2.439 . S
O157 Cd156 2.240 . S
O157 C162 1.279 . S
O158 Cd155 2.297 . S
O158 C160 1.247 . S
O159 Cd155 2.439 . S
O159 C160 1.208 . S
C160 O158 1.247 . S
C160 O159 1.208 . S
C161 O166 1.247 . S
C161 O167 1.208 . S
C162 O154 1.315 . S
C162 O157 1.279 . S
C163 O164 1.315 . S
C163 O165 1.279 . S
O164 Cd156 2.223 . S
O164 C163 1.315 . S
O165 Cd155 2.240 . S
O165 C163 1.279 . S
O166 Cd156 2.297 . S
O166 C161 1.247 . S
O167 Cd156 2.439 . S
O167 C161 1.208 . S
O168 Cd169 2.223 . S
O168 C176 1.315 . S
Cd169 O168 2.223 . S
Cd169 O172 2.297 . S
Cd169 O173 2.439 . S
Cd169 O179 2.240 . S
Cd170 O171 2.240 . S
Cd170 O178 2.223 . S
Cd170 O180 2.297 . S
Cd170 O181 2.439 . S
O171 Cd170 2.240 . S
O171 C176 1.279 . S
O172 Cd169 2.297 . S
O172 C174 1.247 . S
O173 Cd169 2.439 . S
O173 C174 1.208 . S
C174 O172 1.247 . S
C174 O173 1.208 . S
C175 O180 1.247 . S
C175 O181 1.208 . S
C176 O168 1.315 . S
C176 O171 1.279 . S
C177 O178 1.315 . S
C177 O179 1.279 . S
O178 Cd170 2.223 . S
O178 C177 1.315 . S
O179 Cd169 2.240 . S
O179 C177 1.279 . S
O180 Cd170 2.297 . S
O180 C175 1.247 . S
O181 Cd170 2.439 . S
O181 C175 1.208 . S
O182 Cd183 2.223 . S
O182 C190 1.315 . S
Cd183 O182 2.223 . S
Cd183 O186 2.297 . S
Cd183 O187 2.439 . S
Cd183 O193 2.240 . S
Cd184 O185 2.240 . S
Cd184 O192 2.223 . S
Cd184 O194 2.297 . S
Cd184 O195 2.439 . S
O185 Cd184 2.240 . S
O185 C190 1.279 . S
O186 Cd183 2.297 . S
O186 C188 1.247 . S
O187 Cd183 2.439 . S
O187 C188 1.208 . S
C188 O186 1.247 . S
C188 O187 1.208 . S
C189 O194 1.247 . S
C189 O195 1.208 . S
C190 O182 1.315 . S
C190 O185 1.279 . S
C191 O192 1.315 . S
C191 O193 1.279 . S
O192 Cd184 2.223 . S
O192 C191 1.315 . S
O193 Cd183 2.240 . S
O193 C191 1.279 . S
O194 Cd184 2.297 . S
O194 C189 1.247 . S
O195 Cd184 2.439 . S
O195 C189 1.208 . S
O196 Cd197 2.223 . S
O196 C204 1.315 . S
Cd197 O196 2.223 . S
Cd197 O200 2.297 . S
Cd197 O201 2.439 . S
Cd197 O207 2.240 . S
Cd198 O199 2.240 . S
Cd198 O206 2.223 . S
Cd198 O208 2.297 . S
Cd198 O209 2.439 . S
O199 Cd198 2.240 . S
O199 C204 1.279 . S
O200 Cd197 2.297 . S
O200 C202 1.247 . S
O201 Cd197 2.439 . S
O201 C202 1.208 . S
C202 O200 1.247 . S
C202 O201 1.208 . S
C203 O208 1.247 . S
C203 O209 1.208 . S
C204 O196 1.315 . S
C204 O199 1.279 . S
C205 O206 1.315 . S
C205 O207 1.279 . S
O206 Cd198 2.223 . S
O206 C205 1.315 . S
O207 Cd197 2.240 . S
O207 C205 1.279 . S
O208 Cd198 2.297 . S
O208 C203 1.247 . S
O209 Cd198 2.439 . S
O209 C203 1.208 . S
O210 Cd211 2.223 . S
O210 C218 1.315 . S
Cd211 O210 2.223 . S
Cd211 O214 2.297 . S
Cd211 O215 2.439 . S
Cd211 O221 2.240 . S
Cd212 O213 2.240 . S
Cd212 O220 2.223 . S
Cd212 O222 2.297 . S
Cd212 O223 2.439 . S
O213 Cd212 2.240 . S
O213 C218 1.279 . S
O214 Cd211 2.297 . S
O214 C216 1.247 . S
O215 Cd211 2.439 . S
O215 C216 1.208 . S
C216 O214 1.247 . S
C216 O215 1.208 . S
C217 O222 1.247 . S
C217 O223 1.208 . S
C218 O210 1.315 . S
C218 O213 1.279 . S
C219 O220 1.315 . S
C219 O221 1.279 . S
O220 Cd212 2.223 . S
O220 C219 1.315 . S
O221 Cd211 2.240 . S
O221 C219 1.279 . S
O222 Cd212 2.297 . S
O222 C217 1.247 . S
O223 Cd212 2.439 . S
O223 C217 1.208 . S
O224 Cd225 2.223 . S
O224 C232 1.315 . S
Cd225 O224 2.223 . S
Cd225 O228 2.297 . S
Cd225 O229 2.439 . S
Cd225 O235 2.240 . S
Cd226 O227 2.240 . S
Cd226 O234 2.223 . S
Cd226 O236 2.297 . S
Cd226 O237 2.439 . S
O227 Cd226 2.240 . S
O227 C232 1.279 . S
O228 Cd225 2.297 . S
O228 C230 1.247 . S
O229 Cd225 2.439 . S
O229 C230 1.208 . S
C230 O228 1.247 . S
C230 O229 1.208 . S
C231 O236 1.247 . S
C231 O237 1.208 . S
C232 O224 1.315 . S
C232 O227 1.279 . S
C233 O234 1.315 . S
C233 O235 1.279 . S
O234 Cd226 2.223 . S
O234 C233 1.315 . S
O235 Cd225 2.240 . S
O235 C233 1.279 . S
O236 Cd226 2.297 . S
O236 C231 1.247 . S
O237 Cd226 2.439 . S
O237 C231 1.208 . S
O238 Cd239 2.223 . S
O238 C246 1.315 . S
Cd239 O238 2.223 . S
Cd239 O242 2.297 . S
Cd239 O243 2.439 . S
Cd239 O249 2.240 . S
Cd240 O241 2.240 . S
Cd240 O248 2.223 . S
Cd240 O250 2.297 . S
Cd240 O251 2.439 . S
O241 Cd240 2.240 . S
O241 C246 1.279 . S
O242 Cd239 2.297 . S
O242 C244 1.247 . S
O243 Cd239 2.439 . S
O243 C244 1.208 . S
C244 O242 1.247 . S
C244 O243 1.208 . S
C245 O250 1.247 . S
C245 O251 1.208 . S
C246 O238 1.315 . S
C246 O241 1.279 . S
C247 O248 1.315 . S
C247 O249 1.279 . S
O248 Cd240 2.223 . S
O248 C247 1.315 . S
O249 Cd239 2.240 . S
O249 C247 1.279 . S
O250 Cd240 2.297 . S
O250 C245 1.247 . S
O251 Cd240 2.439 . S
O251 C245 1.208 . S
O252 Cd253 2.223 . S
O252 C260 1.315 . S
Cd253 O252 2.223 . S
Cd253 O256 2.297 . S
Cd253 O257 2.439 . S
Cd253 O263 2.240 . S
Cd254 O255 2.240 . S
Cd254 O262 2.223 . S
Cd254 O264 2.297 . S
Cd254 O265 2.439 . S
O255 Cd254 2.240 . S
O255 C260 1.279 . S
O256 Cd253 2.297 . S
O256 C258 1.247 . S
O257 Cd253 2.439 . S
O257 C258 1.208 . S
C258 O256 1.247 . S
C258 O257 1.208 . S
C259 O264 1.247 . S
C259 O265 1.208 . S
C260 O252 1.315 . S
C260 O255 1.279 . S
C261 O262 1.315 . S
C261 O263 1.279 . S
O262 Cd254 2.223 . S
O262 C261 1.315 . S
O263 Cd253 2.240 . S
O263 C261 1.279 . S
O264 Cd254 2.297 . S
O264 C259 1.247 . S
O265 Cd254 2.439 . S
O265 C259 1.208 . S
O266 Cd267 2.223 . S
O266 C274 1.315 . S
Cd267 O266 2.223 . S
Cd267 O270 2.297 . S
Cd267 O271 2.439 . S
Cd267 O277 2.240 . S
Cd268 O269 2.240 . S
Cd268 O276 2.223 . S
Cd268 O278 2.297 . S
Cd268 O279 2.439 . S
O269 Cd268 2.240 . S
O269 C274 1.279 . S
O270 Cd267 2.297 . S
O270 C272 1.247 . S
O271 Cd267 2.439 . S
O271 C272 1.208 . S
C272 O270 1.247 . S
C272 O271 1.208 . S
C273 O278 1.247 . S
C273 O279 1.208 . S
C274 O266 1.315 . S
C274 O269 1.279 . S
C275 O276 1.315 . S
C275 O277 1.279 . S
O276 Cd268 2.223 . S
O276 C275 1.315 . S
O277 Cd267 2.240 . S
O277 C275 1.279 . S
O278 Cd268 2.297 . S
O278 C273 1.247 . S
O279 Cd268 2.439 . S
O279 C273 1.208 . S
O280 Cd281 2.223 . S
O280 C288 1.315 . S
Cd281 O280 2.223 . S
Cd281 O284 2.297 . S
Cd281 O285 2.439 . S
Cd281 O291 2.240 . S
Cd282 O283 2.240 . S
Cd282 O290 2.223 . S
Cd282 O292 2.297 . S
Cd282 O293 2.439 . S
O283 Cd282 2.240 . S
O283 C288 1.279 . S
O284 Cd281 2.297 . S
O284 C286 1.247 . S
O285 Cd281 2.439 . S
O285 C286 1.208 . S
C286 O284 1.247 . S
C286 O285 1.208 . S
C287 O292 1.247 . S
C287 O293 1.208 . S
C288 O280 1.315 . S
C288 O283 1.279 . S
C289 O290 1.315 . S
C289 O291 1.279 . S
O290 Cd282 2.223 . S
O290 C289 1.315 . S
O291 Cd281 2.240 . S
O291 C289 1.279 . S
O292 Cd282 2.297 . S
O292 C287 1.247 . S
O293 Cd282 2.439 . S
O293 C287 1.208 . S
O294 Cd295 2.223 . S
O294 C302 1.315 . S
Cd295 O294 2.223 . S
Cd295 O298 2.297 . S
Cd295 O299 2.439 . S
Cd295 O305 2.240 . S
Cd296 O297 2.240 . S
Cd296 O304 2.223 . S
Cd296 O306 2.297 . S
Cd296 O307 2.439 . S
O297 Cd296 2.240 . S
O297 C302 1.279 . S
O298 Cd295 2.297 . S
O298 C300 1.247 . S
O299 Cd295 2.439 . S
O299 C300 1.208 . S
C300 O298 1.247 . S
C300 O299 1.208 . S
C301 O306 1.247 . S
C301 O307 1.208 . S
C302 O294 1.315 . S
C302 O297 1.279 . S
C303 O304 1.315 . S
C303 O305 1.279 . S
O304 Cd296 2.223 . S
O304 C303 1.315 . S
O305 Cd295 2.240 . S
O305 C303 1.279 . S
O306 Cd296 2.297 . S
O306 C301 1.247 . S
O307 Cd296 2.439 . S
O307 C301 1.208 . S
O308 Cd309 2.223 . S
O308 C316 1.315 . S
Cd309 O308 2.223 . S
Cd309 O312 2.297 . S
Cd309 O313 2.439 . S
Cd309 O319 2.240 . S
Cd310 O311 2.240 . S
Cd310 O318 2.223 . S
Cd310 O320 2.297 . S
Cd310 O321 2.439 . S
O311 Cd310 2.240 . S
O311 C316 1.279 . S
O312 Cd309 2.297 . S
O312 C314 1.247 . S
O313 Cd309 2.439 . S
O313 C314 1.208 . S
C314 O312 1.247 . S
C314 O313 1.208 . S
C315 O320 1.247 . S
C315 O321 1.208 . S
C316 O308 1.315 . S
C316 O311 1.279 . S
C317 O318 1.315 . S
C317 O319 1.279 . S
O318 Cd310 2.223 . S
O318 C317 1.315 . S
O319 Cd309 2.240 . S
O319 C317 1.279 . S
O320 Cd310 2.297 . S
O320 C315 1.247 . S
O321 Cd310 2.439 . S
O321 C315 1.208 . S
O322 Cd323 2.223 . S
O322 C330 1.315 . S
Cd323 O322 2.223 . S
Cd323 O326 2.297 . S
Cd323 O327 2.439 . S
Cd323 O333 2.240 . S
Cd324 O325 2.240 . S
Cd324 O332 2.223 . S
Cd324 O334 2.297 . S
Cd324 O335 2.439 . S
O325 Cd324 2.240 . S
O325 C330 1.279 . S
O326 Cd323 2.297 . S
O326 C328 1.247 . S
O327 Cd323 2.439 . S
O327 C328 1.208 . S
C328 O326 1.247 . S
C328 O327 1.208 . S
C329 O334 1.247 . S
C329 O335 1.208 . S
C330 O322 1.315 . S
C330 O325 1.279 . S
C331 O332 1.315 . S
C331 O333 1.279 . S
O332 Cd324 2.223 . S
O332 C331 1.315 . S
O333 Cd323 2.240 . S
O333 C331 1.279 . S
O334 Cd324 2.297 . S
O334 C329 1.247 . S
O335 Cd324 2.439 . S
O335 C329 1.208 . S
O336 Cd337 2.223 . S
O336 C344 1.315 . S
Cd337 O336 2.223 . S
Cd337 O340 2.297 . S
Cd337 O341 2.439 . S
Cd337 O347 2.240 . S
Cd338 O339 2.240 . S
Cd338 O346 2.223 . S
Cd338 O348 2.297 . S
Cd338 O349 2.439 . S
O339 Cd338 2.240 . S
O339 C344 1.279 . S
O340 Cd337 2.297 . S
O340 C342 1.247 . S
O341 Cd337 2.439 . S
O341 C342 1.208 . S
C342 O340 1.247 . S
C342 O341 1.208 . S
C343 O348 1.247 . S
C343 O349 1.208 . S
C344 O336 1.315 . S
C344 O339 1.279 . S
C345 O346 1.315 . S
C345 O347 1.279 . S
O346 Cd338 2.223 . S
O346 C345 1.315 . S
O347 Cd337 2.240 . S
O347 C345 1.279 . S
O348 Cd338 2.297 . S
O348 C343 1.247 . S
O349 Cd338 2.439 . S
O349 C343 1.208 . S
O350 Cd351 2.223 . S
O350 C358 1.315 . S
Cd351 O350 2.223 . S
Cd351 O354 2.297 . S
Cd351 O355 2.439 . S
Cd351 O361 2.240 . S
Cd352 O353 2.240 . S
Cd352 O360 2.223 . S
Cd352 O362 2.297 . S
Cd352 O363 2.439 . S
O353 Cd352 2.240 . S
O353 C358 1.279 . S
O354 Cd351 2.297 . S
O354 C356 1.247 . S
O355 Cd351 2.439 . S
O355 C356 1.208 . S
C356 O354 1.247 . S
C356 O355 1.208 . S
C357 O362 1.247 . S
C357 O363 1.208 . S
C358 O350 1.315 . S
C358 O353 1.279 . S
C359 O360 1.315 . S
C359 O361 1.279 . S
O360 Cd352 2.223 . S
O360 C359 1.315 . S
O361 Cd351 2.240 . S
O361 C359 1.279 . S
O362 Cd352 2.297 . S
O362 C357 1.247 . S
O363 Cd352 2.439 . S
O363 C357 1.208 . S
O364 Cd365 2.223 . S
O364 C372 1.315 . S
Cd365 O364 2.223 . S
Cd365 O368 2.297 . S
Cd365 O369 2.439 . S
Cd365 O375 2.240 . S
Cd366 O367 2.240 . S
Cd366 O374 2.223 . S
Cd366 O376 2.297 . S
Cd366 O377 2.439 . S
O367 Cd366 2.240 . S
O367 C372 1.279 . S
O368 Cd365 2.297 . S
O368 C370 1.247 . S
O369 Cd365 2.439 . S
O369 C370 1.208 . S
C370 O368 1.247 . S
C370 O369 1.208 . S
C371 O376 1.247 . S
C371 O377 1.208 . S
C372 O364 1.315 . S
C372 O367 1.279 . S
C373 O374 1.315 . S
C373 O375 1.279 . S
O374 Cd366 2.223 . S
O374 C373 1.315 . S
O375 Cd365 2.240 . S
O375 C373 1.279 . S
O376 Cd366 2.297 . S
O376 C371 1.247 . S
O377 Cd366 2.439 . S
O377 C371 1.208 . S
O378 Cd379 2.223 . S
O378 C386 1.315 . S
Cd379 O378 2.223 . S
Cd379 O382 2.297 . S
Cd379 O383 2.439 . S
Cd379 O389 2.240 . S
Cd380 O381 2.240 . S
Cd380 O388 2.223 . S
Cd380 O390 2.297 . S
Cd380 O391 2.439 . S
O381 Cd380 2.240 . S
O381 C386 1.279 . S
O382 Cd379 2.297 . S
O382 C384 1.247 . S
O383 Cd379 2.439 . S
O383 C384 1.208 . S
C384 O382 1.247 . S
C384 O383 1.208 . S
C385 O390 1.247 . S
C385 O391 1.208 . S
C386 O378 1.315 . S
C386 O381 1.279 . S
C387 O388 1.315 . S
C387 O389 1.279 . S
O388 Cd380 2.223 . S
O388 C387 1.315 . S
O389 Cd379 2.240 . S
O389 C387 1.279 . S
O390 Cd380 2.297 . S
O390 C385 1.247 . S
O391 Cd380 2.439 . S
O391 C385 1.208 . S
O392 Cd393 2.223 . S
O392 C400 1.315 . S
Cd393 O392 2.223 . S
Cd393 O396 2.297 . S
Cd393 O397 2.439 . S
Cd393 O403 2.240 . S
Cd394 O395 2.240 . S
Cd394 O402 2.223 . S
Cd394 O404 2.297 . S
Cd394 O405 2.439 . S
O395 Cd394 2.240 . S
O395 C400 1.279 . S
O396 Cd393 2.297 . S
O396 C398 1.247 . S
O397 Cd393 2.439 . S
O397 C398 1.208 . S
C398 O396 1.247 . S
C398 O397 1.208 . S
C399 O404 1.247 . S
C399 O405 1.208 . S
C400 O392 1.315 . S
C400 O395 1.279 . S
C401 O402 1.315 . S
C401 O403 1.279 . S
O402 Cd394 2.223 . S
O402 C401 1.315 . S
O403 Cd393 2.240 . S
O403 C401 1.279 . S
O404 Cd394 2.297 . S
O404 C399 1.247 . S
O405 Cd394 2.439 . S
O405 C399 1.208 . S
O406 Cd407 2.223 . S
O406 C414 1.315 . S
Cd407 O406 2.223 . S
Cd407 O410 2.297 . S
Cd407 O411 2.439 . S
Cd407 O417 2.240 . S
Cd408 O409 2.240 . S
Cd408 O416 2.223 . S
Cd408 O418 2.297 . S
Cd408 O419 2.439 . S
O409 Cd408 2.240 . S
O409 C414 1.279 . S
O410 Cd407 2.297 . S
O410 C412 1.247 . S
O411 Cd407 2.439 . S
O411 C412 1.208 . S
C412 O410 1.247 . S
C412 O411 1.208 . S
C413 O418 1.247 . S
C413 O419 1.208 . S
C414 O406 1.315 . S
C414 O409 1.279 . S
C415 O416 1.315 . S
C415 O417 1.279 . S
O416 Cd408 2.223 . S
O416 C415 1.315 . S
O417 Cd407 2.240 . S
O417 C415 1.279 . S
O418 Cd408 2.297 . S
O418 C413 1.247 . S
O419 Cd408 2.439 . S
O419 C413 1.208 . S
O420 Cd421 2.223 . S
O420 C428 1.315 . S
Cd421 O420 2.223 . S
Cd421 O424 2.297 . S
Cd421 O425 2.439 . S
Cd421 O431 2.240 . S
Cd422 O423 2.240 . S
Cd422 O430 2.223 . S
Cd422 O432 2.297 . S
Cd422 O433 2.439 . S
O423 Cd422 2.240 . S
O423 C428 1.279 . S
O424 Cd421 2.297 . S
O424 C426 1.247 . S
O425 Cd421 2.439 . S
O425 C426 1.208 . S
C426 O424 1.247 . S
C426 O425 1.208 . S
C427 O432 1.247 . S
C427 O433 1.208 . S
C428 O420 1.315 . S
C428 O423 1.279 . S
C429 O430 1.315 . S
C429 O431 1.279 . S
O430 Cd422 2.223 . S
O430 C429 1.315 . S
O431 Cd421 2.240 . S
O431 C429 1.279 . S
O432 Cd422 2.297 . S
O432 C427 1.247 . S
O433 Cd422 2.439 . S
O433 C427 1.208 . S
O434 Cd435 2.223 . S
O434 C442 1.315 . S
Cd435 O434 2.223 . S
Cd435 O438 2.297 . S
Cd435 O439 2.439 . S
Cd435 O445 2.240 . S
Cd436 O437 2.240 . S
Cd436 O444 2.223 . S
Cd436 O446 2.297 . S
Cd436 O447 2.439 . S
O437 Cd436 2.240 . S
O437 C442 1.279 . S
O438 Cd435 2.297 . S
O438 C440 1.247 . S
O439 Cd435 2.439 . S
O439 C440 1.208 . S
C440 O438 1.247 . S
C440 O439 1.208 . S
C441 O446 1.247 . S
C441 O447 1.208 . S
C442 O434 1.315 . S
C442 O437 1.279 . S
C443 O444 1.315 . S
C443 O445 1.279 . S
O444 Cd436 2.223 . S
O444 C443 1.315 . S
O445 Cd435 2.240 . S
O445 C443 1.279 . S
O446 Cd436 2.297 . S
O446 C441 1.247 . S
O447 Cd436 2.439 . S
O447 C441 1.208 . S
O448 Cd449 2.223 . S
O448 C456 1.315 . S
Cd449 O448 2.223 . S
Cd449 O452 2.297 . S
Cd449 O453 2.439 . S
Cd449 O459 2.240 . S
Cd450 O451 2.240 . S
Cd450 O458 2.223 . S
Cd450 O460 2.297 . S
Cd450 O461 2.439 . S
O451 Cd450 2.240 . S
O451 C456 1.279 . S
O452 Cd449 2.297 . S
O452 C454 1.247 . S
O453 Cd449 2.439 . S
O453 C454 1.208 . S
C454 O452 1.247 . S
C454 O453 1.208 . S
C455 O460 1.247 . S
C455 O461 1.208 . S
C456 O448 1.315 . S
C456 O451 1.279 . S
C457 O458 1.315 . S
C457 O459 1.279 . S
O458 Cd450 2.223 . S
O458 C457 1.315 . S
O459 Cd449 2.240 . S
O459 C457 1.279 . S
O460 Cd450 2.297 . S
O460 C455 1.247 . S
O461 Cd450 2.439 . S
O461 C455 1.208 . S
O462 Cd463 2.223 . S
O462 C470 1.315 . S
Cd463 O462 2.223 . S
Cd463 O466 2.297 . S
Cd463 O467 2.439 . S
Cd463 O473 2.240 . S
Cd464 O465 2.240 . S
Cd464 O472 2.223 . S
Cd464 O474 2.297 . S
Cd464 O475 2.439 . S
O465 Cd464 2.240 . S
O465 C470 1.279 . S
O466 Cd463 2.297 . S
O466 C468 1.247 . S
O467 Cd463 2.439 . S
O467 C468 1.208 . S
C468 O466 1.247 . S
C468 O467 1.208 . S
C469 O474 1.247 . S
C469 O475 1.208 . S
C470 O462 1.315 . S
C470 O465 1.279 . S
C471 O472 1.315 . S
C471 O473 1.279 . S
O472 Cd464 2.223 . S
O472 C471 1.315 . S
O473 Cd463 2.240 . S
O473 C471 1.279 . S
O474 Cd464 2.297 . S
O474 C469 1.247 . S
O475 Cd464 2.439 . S
O475 C469 1.208 . S
O476 Cd477 2.223 . S
O476 C484 1.315 . S
Cd477 O476 2.223 . S
Cd477 O480 2.297 . S
Cd477 O481 2.439 . S
Cd477 O487 2.240 . S
Cd478 O479 2.240 . S
Cd478 O486 2.223 . S
Cd478 O488 2.297 . S
Cd478 O489 2.439 . S
O479 Cd478 2.240 . S
O479 C484 1.279 . S
O480 Cd477 2.297 . S
O480 C482 1.247 . S
O481 Cd477 2.439 . S
O481 C482 1.208 . S
C482 O480 1.247 . S
C482 O481 1.208 . S
C483 O488 1.247 . S
C483 O489 1.208 . S
C484 O476 1.315 . S
C484 O479 1.279 . S
C485 O486 1.315 . S
C485 O487 1.279 . S
O486 Cd478 2.223 . S
O486 C485 1.315 . S
O487 Cd477 2.240 . S
O487 C485 1.279 . S
O488 Cd478 2.297 . S
O488 C483 1.247 . S
O489 Cd478 2.439 . S
O489 C483 1.208 . S
O490 Cd491 2.223 . S
O490 C498 1.315 . S
Cd491 O490 2.223 . S
Cd491 O494 2.297 . S
Cd491 O495 2.439 . S
Cd491 O501 2.240 . S
Cd492 O493 2.240 . S
Cd492 O500 2.223 . S
Cd492 O502 2.297 . S
Cd492 O503 2.439 . S
O493 Cd492 2.240 . S
O493 C498 1.279 . S
O494 Cd491 2.297 . S
O494 C496 1.247 . S
O495 Cd491 2.439 . S
O495 C496 1.208 . S
C496 O494 1.247 . S
C496 O495 1.208 . S
C497 O502 1.247 . S
C497 O503 1.208 . S
C498 O490 1.315 . S
C498 O493 1.279 . S
C499 O500 1.315 . S
C499 O501 1.279 . S
O500 Cd492 2.223 . S
O500 C499 1.315 . S
O501 Cd491 2.240 . S
O501 C499 1.279 . S
O502 Cd492 2.297 . S
O502 C497 1.247 . S
O503 Cd492 2.439 . S
O503 C497 1.208 . S
C504 C505 1.391 . S
C504 C506 1.394 . S
C504 H520 0.931 . S
C505 C504 1.391 . S
C505 C509 1.376 . S
C506 C504 1.394 . S
C506 C507 1.369 . S
C506 C510 1.531 . S
C507 C506 1.369 . S
C507 C508 1.410 . S
C507 C515 1.503 . S
C508 C507 1.410 . S
C508 C509 1.392 . S
C508 C511 1.511 . S
C509 C505 1.376 . S
C509 C508 1.392 . S
C509 H521 0.929 . S
C510 C506 1.531 . S
C510 H522 0.960 . S
C510 H523 0.962 . S
C510 H524 0.960 . S
C511 C508 1.511 . S
C511 H525 0.961 . S
C511 H526 0.961 . S
C511 H527 0.961 . S
C512 C513 1.370 . S
C512 C514 1.363 . S
C512 H528 0.931 . S
C513 C512 1.370 . S
C513 C517 1.408 . S
C514 C512 1.363 . S
C514 C515 1.370 . S
C514 C518 1.524 . S
C515 C507 1.503 . S
C515 C514 1.370 . S
C515 C516 1.403 . S
C516 C515 1.403 . S
C516 C517 1.404 . S
C516 C519 1.539 . S
C517 C513 1.408 . S
C517 C516 1.404 . S
C517 H529 0.930 . S
C518 C514 1.524 . S
C518 H530 0.956 . S
C518 H531 0.961 . S
C518 H532 0.961 . S
C519 C516 1.539 . S
C519 H533 0.958 . S
C519 H534 0.961 . S
C519 H535 0.960 . S
H520 C504 0.931 . S
H521 C509 0.929 . S
H522 C510 0.960 . S
H523 C510 0.962 . S
H524 C510 0.960 . S
H525 C511 0.961 . S
H526 C511 0.961 . S
H527 C511 0.961 . S
H528 C512 0.931 . S
H529 C517 0.930 . S
H530 C518 0.956 . S
H531 C518 0.961 . S
H532 C518 0.961 . S
H533 C519 0.958 . S
H534 C519 0.961 . S
H535 C519 0.960 . S
C536 C537 1.391 . S
C536 C538 1.394 . S
C536 H552 0.931 . S
C537 C536 1.391 . S
C537 C541 1.376 . S
C538 C536 1.394 . S
C538 C539 1.369 . S
C538 C542 1.531 . S
C539 C538 1.369 . S
C539 C540 1.410 . S
C539 C547 1.503 . S
C540 C539 1.410 . S
C540 C541 1.392 . S
C540 C543 1.511 . S
C541 C537 1.376 . S
C541 C540 1.392 . S
C541 H553 0.929 . S
C542 C538 1.531 . S
C542 H554 0.960 . S
C542 H555 0.962 . S
C542 H556 0.960 . S
C543 C540 1.511 . S
C543 H557 0.961 . S
C543 H558 0.961 . S
C543 H559 0.961 . S
C544 C545 1.370 . S
C544 C546 1.363 . S
C544 H560 0.931 . S
C545 C544 1.370 . S
C545 C549 1.408 . S
C546 C544 1.363 . S
C546 C547 1.370 . S
C546 C550 1.524 . S
C547 C539 1.503 . S
C547 C546 1.370 . S
C547 C548 1.403 . S
C548 C547 1.403 . S
C548 C549 1.404 . S
C548 C551 1.539 . S
C549 C545 1.408 . S
C549 C548 1.404 . S
C549 H561 0.930 . S
C550 C546 1.524 . S
C550 H562 0.956 . S
C550 H563 0.961 . S
C550 H564 0.961 . S
C551 C548 1.539 . S
C551 H565 0.958 . S
C551 H566 0.961 . S
C551 H567 0.960 . S
H552 C536 0.931 . S
H553 C541 0.929 . S
H554 C542 0.960 . S
H555 C542 0.962 . S
H556 C542 0.960 . S
H557 C543 0.961 . S
H558 C543 0.961 . S
H559 C543 0.961 . S
H560 C544 0.931 . S
H561 C549 0.930 . S
H562 C550 0.956 . S
H563 C550 0.961 . S
H564 C550 0.961 . S
H565 C551 0.958 . S
H566 C551 0.961 . S
H567 C551 0.960 . S
C568 C569 1.391 . S
C568 C570 1.394 . S
C568 H584 0.931 . S
C569 C568 1.391 . S
C569 C573 1.376 . S
C570 C568 1.394 . S
C570 C571 1.369 . S
C570 C574 1.531 . S
C571 C570 1.369 . S
C571 C572 1.410 . S
C571 C579 1.503 . S
C572 C571 1.410 . S
C572 C573 1.392 . S
C572 C575 1.511 . S
C573 C569 1.376 . S
C573 C572 1.392 . S
C573 H585 0.929 . S
C574 C570 1.531 . S
C574 H586 0.960 . S
C574 H587 0.962 . S
C574 H588 0.960 . S
C575 C572 1.511 . S
C575 H589 0.961 . S
C575 H590 0.961 . S
C575 H591 0.961 . S
C576 C577 1.370 . S
C576 C578 1.363 . S
C576 H592 0.931 . S
C577 C576 1.370 . S
C577 C581 1.408 . S
C578 C576 1.363 . S
C578 C579 1.370 . S
C578 C582 1.524 . S
C579 C571 1.503 . S
C579 C578 1.370 . S
C579 C580 1.403 . S
C580 C579 1.403 . S
C580 C581 1.404 . S
C580 C583 1.539 . S
C581 C577 1.408 . S
C581 C580 1.404 . S
C581 H593 0.930 . S
C582 C578 1.524 . S
C582 H594 0.956 . S
C582 H595 0.961 . S
C582 H596 0.961 . S
C583 C580 1.539 . S
C583 H597 0.958 . S
C583 H598 0.961 . S
C583 H599 0.960 . S
H584 C568 0.931 . S
H585 C573 0.929 . S
H586 C574 0.960 . S
H587 C574 0.962 . S
H588 C574 0.960 . S
H589 C575 0.961 . S
H590 C575 0.961 . S
H591 C575 0.961 . S
H592 C576 0.931 . S
H593 C581 0.930 . S
H594 C582 0.956 . S
H595 C582 0.961 . S
H596 C582 0.961 . S
H597 C583 0.958 . S
H598 C583 0.961 . S
H599 C583 0.960 . S
C600 C601 1.391 . S
C600 C602 1.394 . S
C600 H616 0.931 . S
C601 C600 1.391 . S
C601 C605 1.376 . S
C602 C600 1.394 . S
C602 C603 1.369 . S
C602 C606 1.531 . S
C603 C602 1.369 . S
C603 C604 1.410 . S
C603 C611 1.503 . S
C604 C603 1.410 . S
C604 C605 1.392 . S
C604 C607 1.511 . S
C605 C601 1.376 . S
C605 C604 1.392 . S
C605 H617 0.929 . S
C606 C602 1.531 . S
C606 H618 0.960 . S
C606 H619 0.962 . S
C606 H620 0.960 . S
C607 C604 1.511 . S
C607 H621 0.961 . S
C607 H622 0.961 . S
C607 H623 0.961 . S
C608 C609 1.370 . S
C608 C610 1.363 . S
C608 H624 0.931 . S
C609 C608 1.370 . S
C609 C613 1.408 . S
C610 C608 1.363 . S
C610 C611 1.370 . S
C610 C614 1.524 . S
C611 C603 1.503 . S
C611 C610 1.370 . S
C611 C612 1.403 . S
C612 C611 1.403 . S
C612 C613 1.404 . S
C612 C615 1.539 . S
C613 C609 1.408 . S
C613 C612 1.404 . S
C613 H625 0.930 . S
C614 C610 1.524 . S
C614 H626 0.956 . S
C614 H627 0.961 . S
C614 H628 0.961 . S
C615 C612 1.539 . S
C615 H629 0.958 . S
C615 H630 0.961 . S
C615 H631 0.960 . S
H616 C600 0.931 . S
H617 C605 0.929 . S
H618 C606 0.960 . S
H619 C606 0.962 . S
H620 C606 0.960 . S
H621 C607 0.961 . S
H622 C607 0.961 . S
H623 C607 0.961 . S
H624 C608 0.931 . S
H625 C613 0.930 . S
H626 C614 0.956 . S
H627 C614 0.961 . S
H628 C614 0.961 . S
H629 C615 0.958 . S
H630 C615 0.961 . S
H631 C615 0.960 . S
C632 C633 1.391 . S
C632 C634 1.394 . S
C632 H648 0.931 . S
C633 C632 1.391 . S
C633 C637 1.376 . S
C634 C632 1.394 . S
C634 C635 1.369 . S
C634 C638 1.531 . S
C635 C634 1.369 . S
C635 C636 1.410 . S
C635 C643 1.503 . S
C636 C635 1.410 . S
C636 C637 1.392 . S
C636 C639 1.511 . S
C637 C633 1.376 . S
C637 C636 1.392 . S
C637 H649 0.929 . S
C638 C634 1.531 . S
C638 H650 0.960 . S
C638 H651 0.962 . S
C638 H652 0.960 . S
C639 C636 1.511 . S
C639 H653 0.961 . S
C639 H654 0.961 . S
C639 H655 0.961 . S
C640 C641 1.370 . S
C640 C642 1.363 . S
C640 H656 0.931 . S
C641 C640 1.370 . S
C641 C645 1.408 . S
C642 C640 1.363 . S
C642 C643 1.370 . S
C642 C646 1.524 . S
C643 C635 1.503 . S
C643 C642 1.370 . S
C643 C644 1.403 . S
C644 C643 1.403 . S
C644 C645 1.404 . S
C644 C647 1.539 . S
C645 C641 1.408 . S
C645 C644 1.404 . S
C645 H657 0.930 . S
C646 C642 1.524 . S
C646 H658 0.956 . S
C646 H659 0.961 . S
C646 H660 0.961 . S
C647 C644 1.539 . S
C647 H661 0.958 . S
C647 H662 0.961 . S
C647 H663 0.960 . S
H648 C632 0.931 . S
H649 C637 0.929 . S
H650 C638 0.960 . S
H651 C638 0.962 . S
H652 C638 0.960 . S
H653 C639 0.961 . S
H654 C639 0.961 . S
H655 C639 0.961 . S
H656 C640 0.931 . S
H657 C645 0.930 . S
H658 C646 0.956 . S
H659 C646 0.961 . S
H660 C646 0.961 . S
H661 C647 0.958 . S
H662 C647 0.961 . S
H663 C647 0.960 . S
C664 C665 1.391 . S
C664 C666 1.394 . S
C664 H680 0.931 . S
C665 C664 1.391 . S
C665 C669 1.376 . S
C666 C664 1.394 . S
C666 C667 1.369 . S
C666 C670 1.531 . S
C667 C666 1.369 . S
C667 C668 1.410 . S
C667 C675 1.503 . S
C668 C667 1.410 . S
C668 C669 1.392 . S
C668 C671 1.511 . S
C669 C665 1.376 . S
C669 C668 1.392 . S
C669 H681 0.929 . S
C670 C666 1.531 . S
C670 H682 0.960 . S
C670 H683 0.962 . S
C670 H684 0.960 . S
C671 C668 1.511 . S
C671 H685 0.961 . S
C671 H686 0.961 . S
C671 H687 0.961 . S
C672 C673 1.370 . S
C672 C674 1.363 . S
C672 H688 0.931 . S
C673 C672 1.370 . S
C673 C677 1.408 . S
C674 C672 1.363 . S
C674 C675 1.370 . S
C674 C678 1.524 . S
C675 C667 1.503 . S
C675 C674 1.370 . S
C675 C676 1.403 . S
C676 C675 1.403 . S
C676 C677 1.404 . S
C676 C679 1.539 . S
C677 C673 1.408 . S
C677 C676 1.404 . S
C677 H689 0.930 . S
C678 C674 1.524 . S
C678 H690 0.956 . S
C678 H691 0.961 . S
C678 H692 0.961 . S
C679 C676 1.539 . S
C679 H693 0.958 . S
C679 H694 0.961 . S
C679 H695 0.960 . S
H680 C664 0.931 . S
H681 C669 0.929 . S
H682 C670 0.960 . S
H683 C670 0.962 . S
H684 C670 0.960 . S
H685 C671 0.961 . S
H686 C671 0.961 . S
H687 C671 0.961 . S
H688 C672 0.931 . S
H689 C677 0.930 . S
H690 C678 0.956 . S
H691 C678 0.961 . S
H692 C678 0.961 . S
H693 C679 0.958 . S
H694 C679 0.961 . S
H695 C679 0.960 . S
C696 C697 1.391 . S
C696 C698 1.394 . S
C696 H712 0.931 . S
C697 C696 1.391 . S
C697 C701 1.376 . S
C698 C696 1.394 . S
C698 C699 1.369 . S
C698 C702 1.531 . S
C699 C698 1.369 . S
C699 C700 1.410 . S
C699 C707 1.503 . S
C700 C699 1.410 . S
C700 C701 1.392 . S
C700 C703 1.511 . S
C701 C697 1.376 . S
C701 C700 1.392 . S
C701 H713 0.929 . S
C702 C698 1.531 . S
C702 H714 0.960 . S
C702 H715 0.962 . S
C702 H716 0.960 . S
C703 C700 1.511 . S
C703 H717 0.961 . S
C703 H718 0.961 . S
C703 H719 0.961 . S
C704 C705 1.370 . S
C704 C706 1.363 . S
C704 H720 0.931 . S
C705 C704 1.370 . S
C705 C709 1.408 . S
C706 C704 1.363 . S
C706 C707 1.370 . S
C706 C710 1.524 . S
C707 C699 1.503 . S
C707 C706 1.370 . S
C707 C708 1.403 . S
C708 C707 1.403 . S
C708 C709 1.404 . S
C708 C711 1.539 . S
C709 C705 1.408 . S
C709 C708 1.404 . S
C709 H721 0.930 . S
C710 C706 1.524 . S
C710 H722 0.956 . S
C710 H723 0.961 . S
C710 H724 0.961 . S
C711 C708 1.539 . S
C711 H725 0.958 . S
C711 H726 0.961 . S
C711 H727 0.960 . S
H712 C696 0.931 . S
H713 C701 0.929 . S
H714 C702 0.960 . S
H715 C702 0.962 . S
H716 C702 0.960 . S
H717 C703 0.961 . S
H718 C703 0.961 . S
H719 C703 0.961 . S
H720 C704 0.931 . S
H721 C709 0.930 . S
H722 C710 0.956 . S
H723 C710 0.961 . S
H724 C710 0.961 . S
H725 C711 0.958 . S
H726 C711 0.961 . S
H727 C711 0.960 . S
C728 C729 1.391 . S
C728 C730 1.394 . S
C728 H744 0.931 . S
C729 C728 1.391 . S
C729 C733 1.376 . S
C730 C728 1.394 . S
C730 C731 1.369 . S
C730 C734 1.531 . S
C731 C730 1.369 . S
C731 C732 1.410 . S
C731 C739 1.503 . S
C732 C731 1.410 . S
C732 C733 1.392 . S
C732 C735 1.511 . S
C733 C729 1.376 . S
C733 C732 1.392 . S
C733 H745 0.929 . S
C734 C730 1.531 . S
C734 H746 0.960 . S
C734 H747 0.962 . S
C734 H748 0.960 . S
C735 C732 1.511 . S
C735 H749 0.961 . S
C735 H750 0.961 . S
C735 H751 0.961 . S
C736 C737 1.370 . S
C736 C738 1.363 . S
C736 H752 0.931 . S
C737 C736 1.370 . S
C737 C741 1.408 . S
C738 C736 1.363 . S
C738 C739 1.370 . S
C738 C742 1.524 . S
C739 C731 1.503 . S
C739 C738 1.370 . S
C739 C740 1.403 . S
C740 C739 1.403 . S
C740 C741 1.404 . S
C740 C743 1.539 . S
C741 C737 1.408 . S
C741 C740 1.404 . S
C741 H753 0.930 . S
C742 C738 1.524 . S
C742 H754 0.956 . S
C742 H755 0.961 . S
C742 H756 0.961 . S
C743 C740 1.539 . S
C743 H757 0.958 . S
C743 H758 0.961 . S
C743 H759 0.960 . S
H744 C728 0.931 . S
H745 C733 0.929 . S
H746 C734 0.960 . S
H747 C734 0.962 . S
H748 C734 0.960 . S
H749 C735 0.961 . S
H750 C735 0.961 . S
H751 C735 0.961 . S
H752 C736 0.931 . S
H753 C741 0.930 . S
H754 C742 0.956 . S
H755 C742 0.961 . S
H756 C742 0.961 . S
H757 C743 0.958 . S
H758 C743 0.961 . S
H759 C743 0.960 . S
C760 C761 1.391 . S
C760 C762 1.394 . S
C760 H776 0.931 . S
C761 C760 1.391 . S
C761 C765 1.376 . S
C762 C760 1.394 . S
C762 C763 1.369 . S
C762 C766 1.531 . S
C763 C762 1.369 . S
C763 C764 1.410 . S
C763 C771 1.503 . S
C764 C763 1.410 . S
C764 C765 1.392 . S
C764 C767 1.511 . S
C765 C761 1.376 . S
C765 C764 1.392 . S
C765 H777 0.929 . S
C766 C762 1.531 . S
C766 H778 0.960 . S
C766 H779 0.962 . S
C766 H780 0.960 . S
C767 C764 1.511 . S
C767 H781 0.961 . S
C767 H782 0.961 . S
C767 H783 0.961 . S
C768 C769 1.370 . S
C768 C770 1.363 . S
C768 H784 0.931 . S
C769 C768 1.370 . S
C769 C773 1.408 . S
C770 C768 1.363 . S
C770 C771 1.370 . S
C770 C774 1.524 . S
C771 C763 1.503 . S
C771 C770 1.370 . S
C771 C772 1.403 . S
C772 C771 1.403 . S
C772 C773 1.404 . S
C772 C775 1.539 . S
C773 C769 1.408 . S
C773 C772 1.404 . S
C773 H785 0.930 . S
C774 C770 1.524 . S
C774 H786 0.956 . S
C774 H787 0.961 . S
C774 H788 0.961 . S
C775 C772 1.539 . S
C775 H789 0.958 . S
C775 H790 0.961 . S
C775 H791 0.960 . S
H776 C760 0.931 . S
H777 C765 0.929 . S
H778 C766 0.960 . S
H779 C766 0.962 . S
H780 C766 0.960 . S
H781 C767 0.961 . S
H782 C767 0.961 . S
H783 C767 0.961 . S
H784 C768 0.931 . S
H785 C773 0.930 . S
H786 C774 0.956 . S
H787 C774 0.961 . S
H788 C774 0.961 . S
H789 C775 0.958 . S
H790 C775 0.961 . S
H791 C775 0.960 . S
C792 C793 1.391 . S
C792 C794 1.394 . S
C792 H808 0.931 . S
C793 C792 1.391 . S
C793 C797 1.376 . S
C794 C792 1.394 . S
C794 C795 1.369 . S
C794 C798 1.531 . S
C795 C794 1.369 . S
C795 C796 1.410 . S
C795 C803 1.503 . S
C796 C795 1.410 . S
C796 C797 1.392 . S
C796 C799 1.511 . S
C797 C793 1.376 . S
C797 C796 1.392 . S
C797 H809 0.929 . S
C798 C794 1.531 . S
C798 H810 0.960 . S
C798 H811 0.962 . S
C798 H812 0.960 . S
C799 C796 1.511 . S
C799 H813 0.961 . S
C799 H814 0.961 . S
C799 H815 0.961 . S
C800 C801 1.370 . S
C800 C802 1.363 . S
C800 H816 0.931 . S
C801 C800 1.370 . S
C801 C805 1.408 . S
C802 C800 1.363 . S
C802 C803 1.370 . S
C802 C806 1.524 . S
C803 C795 1.503 . S
C803 C802 1.370 . S
C803 C804 1.403 . S
C804 C803 1.403 . S
C804 C805 1.404 . S
C804 C807 1.539 . S
C805 C801 1.408 . S
C805 C804 1.404 . S
C805 H817 0.930 . S
C806 C802 1.524 . S
C806 H818 0.956 . S
C806 H819 0.961 . S
C806 H820 0.961 . S
C807 C804 1.539 . S
C807 H821 0.958 . S
C807 H822 0.961 . S
C807 H823 0.960 . S
H808 C792 0.931 . S
H809 C797 0.929 . S
H810 C798 0.960 . S
H811 C798 0.962 . S
H812 C798 0.960 . S
H813 C799 0.961 . S
H814 C799 0.961 . S
H815 C799 0.961 . S
H816 C800 0.931 . S
H817 C805 0.930 . S
H818 C806 0.956 . S
H819 C806 0.961 . S
H820 C806 0.961 . S
H821 C807 0.958 . S
H822 C807 0.961 . S
H823 C807 0.960 . S
C824 C825 1.391 . S
C824 C826 1.394 . S
C824 H840 0.931 . S
C825 C824 1.391 . S
C825 C829 1.376 . S
C826 C824 1.394 . S
C826 C827 1.369 . S
C826 C830 1.531 . S
C827 C826 1.369 . S
C827 C828 1.410 . S
C827 C835 1.503 . S
C828 C827 1.410 . S
C828 C829 1.392 . S
C828 C831 1.511 . S
C829 C825 1.376 . S
C829 C828 1.392 . S
C829 H841 0.929 . S
C830 C826 1.531 . S
C830 H842 0.960 . S
C830 H843 0.962 . S
C830 H844 0.960 . S
C831 C828 1.511 . S
C831 H845 0.961 . S
C831 H846 0.961 . S
C831 H847 0.961 . S
C832 C833 1.370 . S
C832 C834 1.363 . S
C832 H848 0.931 . S
C833 C832 1.370 . S
C833 C837 1.408 . S
C834 C832 1.363 . S
C834 C835 1.370 . S
C834 C838 1.524 . S
C835 C827 1.503 . S
C835 C834 1.370 . S
C835 C836 1.403 . S
C836 C835 1.403 . S
C836 C837 1.404 . S
C836 C839 1.539 . S
C837 C833 1.408 . S
C837 C836 1.404 . S
C837 H849 0.930 . S
C838 C834 1.524 . S
C838 H850 0.956 . S
C838 H851 0.961 . S
C838 H852 0.961 . S
C839 C836 1.539 . S
C839 H853 0.958 . S
C839 H854 0.961 . S
C839 H855 0.960 . S
H840 C824 0.931 . S
H841 C829 0.929 . S
H842 C830 0.960 . S
H843 C830 0.962 . S
H844 C830 0.960 . S
H845 C831 0.961 . S
H846 C831 0.961 . S
H847 C831 0.961 . S
H848 C832 0.931 . S
H849 C837 0.930 . S
H850 C838 0.956 . S
H851 C838 0.961 . S
H852 C838 0.961 . S
H853 C839 0.958 . S
H854 C839 0.961 . S
H855 C839 0.960 . S
C856 C857 1.391 . S
C856 C858 1.394 . S
C856 H872 0.931 . S
C857 C856 1.391 . S
C857 C861 1.376 . S
C858 C856 1.394 . S
C858 C859 1.369 . S
C858 C862 1.531 . S
C859 C858 1.369 . S
C859 C860 1.410 . S
C859 C867 1.503 . S
C860 C859 1.410 . S
C860 C861 1.392 . S
C860 C863 1.511 . S
C861 C857 1.376 . S
C861 C860 1.392 . S
C861 H873 0.929 . S
C862 C858 1.531 . S
C862 H874 0.960 . S
C862 H875 0.962 . S
C862 H876 0.960 . S
C863 C860 1.511 . S
C863 H877 0.961 . S
C863 H878 0.961 . S
C863 H879 0.961 . S
C864 C865 1.370 . S
C864 C866 1.363 . S
C864 H880 0.931 . S
C865 C864 1.370 . S
C865 C869 1.408 . S
C866 C864 1.363 . S
C866 C867 1.370 . S
C866 C870 1.524 . S
C867 C859 1.503 . S
C867 C866 1.370 . S
C867 C868 1.403 . S
C868 C867 1.403 . S
C868 C869 1.404 . S
C868 C871 1.539 . S
C869 C865 1.408 . S
C869 C868 1.404 . S
C869 H881 0.930 . S
C870 C866 1.524 . S
C870 H882 0.956 . S
C870 H883 0.961 . S
C870 H884 0.961 . S
C871 C868 1.539 . S
C871 H885 0.958 . S
C871 H886 0.961 . S
C871 H887 0.960 . S
H872 C856 0.931 . S
H873 C861 0.929 . S
H874 C862 0.960 . S
H875 C862 0.962 . S
H876 C862 0.960 . S
H877 C863 0.961 . S
H878 C863 0.961 . S
H879 C863 0.961 . S
H880 C864 0.931 . S
H881 C869 0.930 . S
H882 C870 0.956 . S
H883 C870 0.961 . S
H884 C870 0.961 . S
H885 C871 0.958 . S
H886 C871 0.961 . S
H887 C871 0.960 . S
C888 C889 1.391 . S
C888 C890 1.394 1_655 S
C888 H904 0.931 . S
C889 C888 1.391 . S
C889 C893 1.376 . S
C890 C888 1.394 1_455 S
C890 C891 1.369 1_455 S
C890 C894 1.531 . S
C891 C890 1.369 1_655 S
C891 C892 1.410 . S
C891 C899 1.503 1_655 S
C892 C891 1.410 . S
C892 C893 1.392 . S
C892 C895 1.511 . S
C893 C889 1.376 . S
C893 C892 1.392 . S
C893 H905 0.929 . S
C894 C890 1.531 . S
C894 H906 0.960 . S
C894 H907 0.962 . S
C894 H908 0.960 . S
C895 C892 1.511 . S
C895 H909 0.961 . S
C895 H910 0.961 . S
C895 H911 0.961 . S
C896 C897 1.370 . S
C896 C898 1.363 . S
C896 H912 0.931 . S
C897 C896 1.370 . S
C897 C901 1.408 . S
C898 C896 1.363 . S
C898 C899 1.370 . S
C898 C902 1.524 . S
C899 C891 1.503 1_455 S
C899 C898 1.370 . S
C899 C900 1.403 . S
C900 C899 1.403 . S
C900 C901 1.404 . S
C900 C903 1.539 1_455 S
C901 C897 1.408 . S
C901 C900 1.404 . S
C901 H913 0.930 . S
C902 C898 1.524 . S
C902 H914 0.956 . S
C902 H915 0.961 . S
C902 H916 0.961 . S
C903 C900 1.539 1_655 S
C903 H917 0.958 . S
C903 H918 0.961 . S
C903 H919 0.960 . S
H904 C888 0.931 . S
H905 C893 0.929 . S
H906 C894 0.960 . S
H907 C894 0.962 . S
H908 C894 0.960 . S
H909 C895 0.961 . S
H910 C895 0.961 . S
H911 C895 0.961 . S
H912 C896 0.931 . S
H913 C901 0.930 . S
H914 C902 0.956 . S
H915 C902 0.961 . S
H916 C902 0.961 . S
H917 C903 0.958 . S
H918 C903 0.961 . S
H919 C903 0.960 . S
C920 C921 1.391 . S
C920 C922 1.394 . S
C920 H936 0.931 . S
C921 C920 1.391 . S
C921 C925 1.376 . S
C922 C920 1.394 . S
C922 C923 1.369 . S
C922 C926 1.531 . S
C923 C922 1.369 . S
C923 C924 1.410 . S
C923 C931 1.503 . S
C924 C923 1.410 . S
C924 C925 1.392 . S
C924 C927 1.511 . S
C925 C921 1.376 . S
C925 C924 1.392 . S
C925 H937 0.929 . S
C926 C922 1.531 . S
C926 H938 0.960 . S
C926 H939 0.962 . S
C926 H940 0.960 . S
C927 C924 1.511 . S
C927 H941 0.961 . S
C927 H942 0.961 . S
C927 H943 0.961 . S
C928 C929 1.370 . S
C928 C930 1.363 . S
C928 H944 0.931 . S
C929 C928 1.370 . S
C929 C933 1.408 . S
C930 C928 1.363 . S
C930 C931 1.370 . S
C930 C934 1.524 . S
C931 C923 1.503 . S
C931 C930 1.370 . S
C931 C932 1.403 . S
C932 C931 1.403 . S
C932 C933 1.404 . S
C932 C935 1.539 . S
C933 C929 1.408 . S
C933 C932 1.404 . S
C933 H945 0.930 . S
C934 C930 1.524 . S
C934 H946 0.956 . S
C934 H947 0.961 . S
C934 H948 0.961 . S
C935 C932 1.539 . S
C935 H949 0.958 . S
C935 H950 0.961 . S
C935 H951 0.960 . S
H936 C920 0.931 . S
H937 C925 0.929 . S
H938 C926 0.960 . S
H939 C926 0.962 . S
H940 C926 0.960 . S
H941 C927 0.961 . S
H942 C927 0.961 . S
H943 C927 0.961 . S
H944 C928 0.931 . S
H945 C933 0.930 . S
H946 C934 0.956 . S
H947 C934 0.961 . S
H948 C934 0.961 . S
H949 C935 0.958 . S
H950 C935 0.961 . S
H951 C935 0.960 . S
C952 C953 1.391 . S
C952 C954 1.394 1_545 S
C952 H968 0.931 1_545 S
C953 C952 1.391 . S
C953 C957 1.376 . S
C954 C952 1.394 1_565 S
C954 C955 1.369 1_565 S
C954 C958 1.531 . S
C955 C954 1.369 1_545 S
C955 C956 1.410 . S
C955 C963 1.503 1_545 S
C956 C955 1.410 . S
C956 C957 1.392 . S
C956 C959 1.511 . S
C957 C953 1.376 . S
C957 C956 1.392 . S
C957 H969 0.929 . S
C958 C954 1.531 . S
C958 H970 0.960 . S
C958 H971 0.962 . S
C958 H972 0.960 . S
C959 C956 1.511 . S
C959 H973 0.961 . S
C959 H974 0.961 . S
C959 H975 0.961 . S
C960 C961 1.370 . S
C960 C962 1.363 . S
C960 H976 0.931 . S
C961 C960 1.370 . S
C961 C965 1.408 . S
C962 C960 1.363 . S
C962 C963 1.370 . S
C962 C966 1.524 . S
C963 C955 1.503 1_565 S
C963 C962 1.370 . S
C963 C964 1.403 . S
C964 C963 1.403 . S
C964 C965 1.404 . S
C964 C967 1.539 1_565 S
C965 C961 1.408 . S
C965 C964 1.404 . S
C965 H977 0.930 . S
C966 C962 1.524 . S
C966 H978 0.956 . S
C966 H979 0.961 1_565 S
C966 H980 0.961 . S
C967 C964 1.539 1_545 S
C967 H981 0.958 1_545 S
C967 H982 0.961 . S
C967 H983 0.960 . S
H968 C952 0.931 1_565 S
H969 C957 0.929 . S
H970 C958 0.960 . S
H971 C958 0.962 . S
H972 C958 0.960 . S
H973 C959 0.961 . S
H974 C959 0.961 . S
H975 C959 0.961 . S
H976 C960 0.931 . S
H977 C965 0.930 . S
H978 C966 0.956 . S
H979 C966 0.961 1_545 S
H980 C966 0.961 . S
H981 C967 0.958 1_565 S
H982 C967 0.961 . S
H983 C967 0.960 . S
C984 C985 1.391 . S
C984 C986 1.394 1_545 S
C984 H1000 0.931 1_545 S
C985 C984 1.391 . S
C985 C989 1.376 . S
C986 C984 1.394 1_565 S
C986 C987 1.369 1_565 S
C986 C990 1.531 . S
C987 C986 1.369 1_545 S
C987 C988 1.410 . S
C987 C995 1.503 1_546 S
C988 C987 1.410 . S
C988 C989 1.392 . S
C988 C991 1.529 . S
C989 C985 1.376 . S
C989 C988 1.392 . S
C989 H1001 0.929 . S
C990 C986 1.531 . S
C990 H1002 0.960 . S
C990 H1003 0.962 . S
C990 H1004 0.960 . S
C991 C988 1.529 . S
C991 H1005 0.961 . S
C991 H1006 0.936 1_556 S
C991 H1007 0.969 . S
C992 C993 1.370 . S
C992 C994 1.363 . S
C992 H1008 0.931 . S
C993 C992 1.370 . S
C993 C997 1.408 . S
C994 C992 1.363 . S
C994 C995 1.370 . S
C994 C998 1.524 1_565 S
C995 C987 1.503 1_564 S
C995 C994 1.370 . S
C995 C996 1.403 . S
C996 C995 1.403 . S
C996 C997 1.404 . S
C996 C999 1.539 1_554 S
C997 C993 1.408 . S
C997 C996 1.404 . S
C997 H1009 0.930 . S
C998 C994 1.524 1_545 S
C998 H1010 0.956 . S
C998 H1011 0.961 . S
C998 H1012 0.961 . S
C999 C996 1.539 1_556 S
C999 H1013 0.958 . S
C999 H1014 0.961 . S
C999 H1015 0.960 . S
H1000 C984 0.931 1_565 S
H1001 C989 0.929 . S
H1002 C990 0.960 . S
H1003 C990 0.962 . S
H1004 C990 0.960 . S
H1005 C991 0.961 . S
H1006 C991 0.936 1_554 S
H1007 C991 0.969 . S
H1008 C992 0.931 . S
H1009 C997 0.930 . S
H1010 C998 0.956 . S
H1011 C998 0.961 . S
H1012 C998 0.961 . S
H1013 C999 0.958 . S
H1014 C999 0.961 . S
H1015 C999 0.960 . S
C1016 C1017 1.391 . S
C1016 C1018 1.394 . S
C1016 H1032 0.931 . S
C1017 C1016 1.391 . S
C1017 C1021 1.376 . S
C1018 C1016 1.394 . S
C1018 C1019 1.369 . S
C1018 C1022 1.531 . S
C1019 C1018 1.369 . S
C1019 C1020 1.410 . S
C1019 C1027 1.503 1_656 S
C1020 C1019 1.410 . S
C1020 C1021 1.392 . S
C1020 C1023 1.511 1_655 S
C1021 C1017 1.376 . S
C1021 C1020 1.392 . S
C1021 H1033 0.929 . S
C1022 C1018 1.531 . S
C1022 H1034 0.960 1_556 S
C1022 H1035 0.962 . S
C1022 H1036 0.960 . S
C1023 C1020 1.511 1_455 S
C1023 H1037 0.961 . S
C1023 H1038 0.977 . S
C1023 H1039 0.961 1_556 S
C1024 C1025 1.370 . S
C1024 C1026 1.363 . S
C1024 H1040 0.931 . S
C1025 C1024 1.370 . S
C1025 C1029 1.408 . S
C1026 C1024 1.363 . S
C1026 C1027 1.370 . S
C1026 C1030 1.524 1_554 S
C1027 C1019 1.503 1_454 S
C1027 C1026 1.370 . S
C1027 C1028 1.403 1_455 S
C1028 C1027 1.403 1_655 S
C1028 C1029 1.404 1_655 S
C1028 C1031 1.539 . S
C1029 C1025 1.408 . S
C1029 C1028 1.404 1_455 S
C1029 H1041 0.930 . S
C1030 C1026 1.524 1_556 S
C1030 H1042 0.956 . S
C1030 H1043 0.961 . S
C1030 H1044 0.961 . S
C1031 C1028 1.539 . S
C1031 H1045 0.958 . S
C1031 H1046 0.961 . S
C1031 H1047 0.960 . S
H1032 C1016 0.931 . S
H1033 C1021 0.929 . S
H1034 C1022 0.960 1_554 S
H1035 C1022 0.962 . S
H1036 C1022 0.960 . S
H1037 C1023 0.961 . S
H1038 C1023 0.977 . S
H1039 C1023 0.961 1_554 S
H1040 C1024 0.931 . S
H1041 C1029 0.930 . S
H1042 C1030 0.956 . S
H1043 C1030 0.961 . S
H1044 C1030 0.961 . S
H1045 C1031 0.958 . S
H1046 C1031 0.961 . S
H1047 C1031 0.960 . S
C1048 C1049 1.391 . S
C1048 C1050 1.394 . S
C1048 H1064 0.931 . S
C1049 C1048 1.391 . S
C1049 C1053 1.376 . S
C1050 C1048 1.394 . S
C1050 C1051 1.369 . S
C1050 C1054 1.531 1_556 S
C1051 C1050 1.369 . S
C1051 C1052 1.410 . S
C1051 C1059 1.503 1_556 S
C1052 C1051 1.410 . S
C1052 C1053 1.392 . S
C1052 C1055 1.511 . S
C1053 C1049 1.376 . S
C1053 C1052 1.392 . S
C1053 H1065 0.929 . S
C1054 C1050 1.531 1_554 S
C1054 H1066 0.960 . S
C1054 H1067 0.962 . S
C1054 H1068 0.960 . S
C1055 C1052 1.511 . S
C1055 H1069 0.961 . S
C1055 H1070 0.961 . S
C1055 H1071 0.961 . S
C1056 C1057 1.370 . S
C1056 C1058 1.363 . S
C1056 H1072 0.931 . S
C1057 C1056 1.370 . S
C1057 C1061 1.408 . S
C1058 C1056 1.363 . S
C1058 C1059 1.370 . S
C1058 C1062 1.524 . S
C1059 C1051 1.503 1_554 S
C1059 C1058 1.370 . S
C1059 C1060 1.403 . S
C1060 C1059 1.403 . S
C1060 C1061 1.404 . S
C1060 C1063 1.539 . S
C1061 C1057 1.408 . S
C1061 C1060 1.404 . S
C1061 H1073 0.930 . S
C1062 C1058 1.524 . S
C1062 H1074 0.956 . S
C1062 H1075 0.961 1_554 S
C1062 H1076 0.961 . S
C1063 C1060 1.539 . S
C1063 H1077 0.958 . S
C1063 H1078 0.961 . S
C1063 H1079 0.960 1_554 S
H1064 C1048 0.931 . S
H1065 C1053 0.929 . S
H1066 C1054 0.960 . S
H1067 C1054 0.962 . S
H1068 C1054 0.960 . S
H1069 C1055 0.961 . S
H1070 C1055 0.961 . S
H1071 C1055 0.961 . S
H1072 C1056 0.931 . S
H1073 C1061 0.930 . S
H1074 C1062 0.956 . S
H1075 C1062 0.961 1_556 S
H1076 C1062 0.961 . S
H1077 C1063 0.958 . S
H1078 C1063 0.961 . S
H1079 C1063 0.960 1_556 S
C1080 C1081 1.391 1_545 S
C1080 C1082 1.394 . S
C1080 H1096 0.931 . S
C1081 C1080 1.391 1_565 S
C1081 C1085 1.376 . S
C1082 C1080 1.394 . S
C1082 C1083 1.369 . S
C1082 C1086 1.531 . S
C1083 C1082 1.369 . S
C1083 C1084 1.410 . S
C1083 C1091 1.503 . S
C1084 C1083 1.410 . S
C1084 C1085 1.392 1_545 S
C1084 C1087 1.511 . S
C1085 C1081 1.376 . S
C1085 C1084 1.392 1_565 S
C1085 H1097 0.929 . S
C1086 C1082 1.531 . S
C1086 H1098 0.960 . S
C1086 H1099 0.962 . S
C1086 H1100 0.960 . S
C1087 C1084 1.511 . S
C1087 H1101 0.961 1_546 S
C1087 H1102 0.961 1_556 S
C1087 H1103 0.961 . S
C1088 C1089 1.370 . S
C1088 C1090 1.363 . S
C1088 H1104 0.931 . S
C1089 C1088 1.370 . S
C1089 C1093 1.408 . S
C1090 C1088 1.363 . S
C1090 C1091 1.370 1_554 S
C1090 C1094 1.524 . S
C1091 C1083 1.503 . S
C1091 C1090 1.370 1_556 S
C1091 C1092 1.403 . S
C1092 C1091 1.403 . S
C1092 C1093 1.404 1_556 S
C1092 C1095 1.539 . S
C1093 C1089 1.408 . S
C1093 C1092 1.404 1_554 S
C1093 H1105 0.930 1_554 S
C1094 C1090 1.524 . S
C1094 H1106 0.956 . S
C1094 H1107 0.961 . S
C1094 H1108 0.961 . S
C1095 C1092 1.539 . S
C1095 H1109 0.958 . S
C1095 H1110 0.961 . S
C1095 H1111 0.960 . S
H1096 C1080 0.931 . S
H1097 C1085 0.929 . S
H1098 C1086 0.960 . S
H1099 C1086 0.962 . S
H1100 C1086 0.960 . S
H1101 C1087 0.961 1_564 S
H1102 C1087 0.961 1_554 S
H1103 C1087 0.961 . S
H1104 C1088 0.931 . S
H1105 C1093 0.930 1_556 S
H1106 C1094 0.956 . S
H1107 C1094 0.961 . S
H1108 C1094 0.961 . S
H1109 C1095 0.958 . S
H1110 C1095 0.961 . S
H1111 C1095 0.960 . S
C1112 C1113 1.391 . S
C1112 C1114 1.394 1_455 S
C1112 H1128 0.931 . S
C1113 C1112 1.391 . S
C1113 C1117 1.376 . S
C1114 C1112 1.394 1_655 S
C1114 C1115 1.369 . S
C1114 C1118 1.531 . S
C1115 C1114 1.369 . S
C1115 C1116 1.410 . S
C1115 C1123 1.503 . S
C1116 C1115 1.410 . S
C1116 C1117 1.392 1_655 S
C1116 C1119 1.511 . S
C1117 C1113 1.376 . S
C1117 C1116 1.392 1_455 S
C1117 H1129 0.929 . S
C1118 C1114 1.531 . S
C1118 H1130 0.960 . S
C1118 H1131 0.962 1_556 S
C1118 H1132 0.960 . S
C1119 C1116 1.511 . S
C1119 H1133 0.961 . S
C1119 H1134 0.961 . S
C1119 H1135 0.961 . S
C1120 C1121 1.370 . S
C1120 C1122 1.363 . S
C1120 H1136 0.931 . S
C1121 C1120 1.370 . S
C1121 C1125 1.399 1_554 S
C1122 C1120 1.363 . S
C1122 C1123 1.370 1_554 S
C1122 C1126 1.524 . S
C1123 C1115 1.503 . S
C1123 C1122 1.370 1_556 S
C1123 C1124 1.403 . S
C1124 C1123 1.403 . S
C1124 C1125 1.409 . S
C1124 C1127 1.539 . S
C1125 C1121 1.399 1_556 S
C1125 C1124 1.409 . S
C1125 H1137 0.933 . S
C1126 C1122 1.524 . S
C1126 H1138 0.956 . S
C1126 H1139 0.961 . S
C1126 H1140 0.961 . S
C1127 C1124 1.539 . S
C1127 H1141 0.958 . S
C1127 H1142 0.961 . S
C1127 H1143 0.960 . S
H1128 C1112 0.931 . S
H1129 C1117 0.929 . S
H1130 C1118 0.960 . S
H1131 C1118 0.962 1_554 S
H1132 C1118 0.960 . S
H1133 C1119 0.961 . S
H1134 C1119 0.961 . S
H1135 C1119 0.961 . S
H1136 C1120 0.931 . S
H1137 C1125 0.933 . S
H1138 C1126 0.956 . S
H1139 C1126 0.961 . S
H1140 C1126 0.961 . S
H1141 C1127 0.958 . S
H1142 C1127 0.961 . S
H1143 C1127 0.960 . S
C1144 C1145 1.391 . S
C1144 C1146 1.394 . S
C1144 H1160 0.931 . S
C1145 C1144 1.391 . S
C1145 C1149 1.376 . S
C1146 C1144 1.394 . S
C1146 C1147 1.369 . S
C1146 C1150 1.531 . S
C1147 C1146 1.369 . S
C1147 C1148 1.410 . S
C1147 C1155 1.503 1_554 S
C1148 C1147 1.410 . S
C1148 C1149 1.392 . S
C1148 C1151 1.511 1_554 S
C1149 C1145 1.376 . S
C1149 C1148 1.392 . S
C1149 H1161 0.929 . S
C1150 C1146 1.531 . S
C1150 H1162 0.960 . S
C1150 H1163 0.962 1_554 S
C1150 H1164 0.960 . S
C1151 C1148 1.511 1_556 S
C1151 H1165 0.961 . S
C1151 H1166 0.961 . S
C1151 H1167 0.961 1_556 S
C1152 C1153 1.370 . S
C1152 C1154 1.363 . S
C1152 H1168 0.931 . S
C1153 C1152 1.370 . S
C1153 C1157 1.408 . S
C1154 C1152 1.363 . S
C1154 C1155 1.370 . S
C1154 C1158 1.524 . S
C1155 C1147 1.503 1_556 S
C1155 C1154 1.370 . S
C1155 C1156 1.403 . S
C1156 C1155 1.403 . S
C1156 C1157 1.404 . S
C1156 C1159 1.539 1_556 S
C1157 C1153 1.408 . S
C1157 C1156 1.404 . S
C1157 H1169 0.930 . S
C1158 C1154 1.524 . S
C1158 H1170 0.956 . S
C1158 H1171 0.961 . S
C1158 H1172 0.961 . S
C1159 C1156 1.539 1_554 S
C1159 H1173 0.958 . S
C1159 H1174 0.961 . S
C1159 H1175 0.960 . S
H1160 C1144 0.931 . S
H1161 C1149 0.929 . S
H1162 C1150 0.960 . S
H1163 C1150 0.962 1_556 S
H1164 C1150 0.960 . S
H1165 C1151 0.961 . S
H1166 C1151 0.961 . S
H1167 C1151 0.961 1_554 S
H1168 C1152 0.931 . S
H1169 C1157 0.930 . S
H1170 C1158 0.956 . S
H1171 C1158 0.961 . S
H1172 C1158 0.961 . S
H1173 C1159 0.958 . S
H1174 C1159 0.961 . S
H1175 C1159 0.960 . S
C1176 C1177 1.391 1_455 S
C1176 C1178 1.394 . S
C1176 H1192 0.931 . S
C1177 C1176 1.391 1_655 S
C1177 C1181 1.376 . S
C1178 C1176 1.394 . S
C1178 C1179 1.369 . S
C1178 C1182 1.531 . S
C1179 C1178 1.369 . S
C1179 C1180 1.410 . S
C1179 C1187 1.503 . S
C1180 C1179 1.410 . S
C1180 C1181 1.392 1_455 S
C1180 C1183 1.511 . S
C1181 C1177 1.376 . S
C1181 C1180 1.392 1_655 S
C1181 H1193 0.929 . S
C1182 C1178 1.531 . S
C1182 H1194 0.960 . S
C1182 H1195 0.962 . S
C1182 H1196 0.960 . S
C1183 C1180 1.511 . S
C1183 H1197 0.961 1_455 S
C1183 H1198 0.961 . S
C1183 H1199 0.961 . S
C1184 C1185 1.370 . S
C1184 C1186 1.363 . S
C1184 H1200 0.931 . S
C1185 C1184 1.370 . S
C1185 C1189 1.408 . S
C1186 C1184 1.363 . S
C1186 C1187 1.370 . S
C1186 C1190 1.524 . S
C1187 C1179 1.503 . S
C1187 C1186 1.370 . S
C1187 C1188 1.403 . S
C1188 C1187 1.403 . S
C1188 C1189 1.404 . S
C1188 C1191 1.539 . S
C1189 C1185 1.408 . S
C1189 C1188 1.404 . S
C1189 H1201 0.930 . S
C1190 C1186 1.524 . S
C1190 H1202 0.956 . S
C1190 H1203 0.961 . S
C1190 H1204 0.961 . S
C1191 C1188 1.539 . S
C1191 H1205 0.958 . S
C1191 H1206 0.961 . S
C1191 H1207 0.960 . S
H1192 C1176 0.931 . S
H1193 C1181 0.929 . S
H1194 C1182 0.960 . S
H1195 C1182 0.962 . S
H1196 C1182 0.960 . S
H1197 C1183 0.961 1_655 S
H1198 C1183 0.961 . S
H1199 C1183 0.961 . S
H1200 C1184 0.931 . S
H1201 C1189 0.930 . S
H1202 C1190 0.956 . S
H1203 C1190 0.961 . S
H1204 C1190 0.961 . S
H1205 C1191 0.958 . S
H1206 C1191 0.961 . S
H1207 C1191 0.960 . S
C1208 C1209 1.391 . S
C1208 C1210 1.394 . S
C1208 H1224 0.931 . S
C1209 C1208 1.391 . S
C1209 C1213 1.376 . S
C1210 C1208 1.394 . S
C1210 C1211 1.369 . S
C1210 C1214 1.531 . S
C1211 C1210 1.369 . S
C1211 C1212 1.410 . S
C1211 C1219 1.503 . S
C1212 C1211 1.410 . S
C1212 C1213 1.392 . S
C1212 C1215 1.511 . S
C1213 C1209 1.376 . S
C1213 C1212 1.392 . S
C1213 H1225 0.929 . S
C1214 C1210 1.531 . S
C1214 H1226 0.960 . S
C1214 H1227 0.962 . S
C1214 H1228 0.960 . S
C1215 C1212 1.511 . S
C1215 H1229 0.961 . S
C1215 H1230 0.961 . S
C1215 H1231 0.961 . S
C1216 C1217 1.370 . S
C1216 C1218 1.363 . S
C1216 H1232 0.931 . S
C1217 C1216 1.370 . S
C1217 C1221 1.408 . S
C1218 C1216 1.363 . S
C1218 C1219 1.370 . S
C1218 C1222 1.524 . S
C1219 C1211 1.503 . S
C1219 C1218 1.370 . S
C1219 C1220 1.403 . S
C1220 C1219 1.403 . S
C1220 C1221 1.404 . S
C1220 C1223 1.539 . S
C1221 C1217 1.408 . S
C1221 C1220 1.404 . S
C1221 H1233 0.930 . S
C1222 C1218 1.524 . S
C1222 H1234 0.956 . S
C1222 H1235 0.961 . S
C1222 H1236 0.961 . S
C1223 C1220 1.539 . S
C1223 H1237 0.958 . S
C1223 H1238 0.961 . S
C1223 H1239 0.960 . S
H1224 C1208 0.931 . S
H1225 C1213 0.929 . S
H1226 C1214 0.960 . S
H1227 C1214 0.962 . S
H1228 C1214 0.960 . S
H1229 C1215 0.961 . S
H1230 C1215 0.961 . S
H1231 C1215 0.961 . S
H1232 C1216 0.931 . S
H1233 C1221 0.930 . S
H1234 C1222 0.956 . S
H1235 C1222 0.961 . S
H1236 C1222 0.961 . S
H1237 C1223 0.958 . S
H1238 C1223 0.961 . S
H1239 C1223 0.960 . S
C1240 C1241 1.391 . S
C1240 C1242 1.394 1_545 S
C1240 H1256 0.931 . S
C1241 C1240 1.391 . S
C1241 C1245 1.376 1_545 S
C1242 C1240 1.394 1_565 S
C1242 C1243 1.369 . S
C1242 C1246 1.531 . S
C1243 C1242 1.369 . S
C1243 C1244 1.410 . S
C1243 C1251 1.503 . S
C1244 C1243 1.410 . S
C1244 C1245 1.392 . S
C1244 C1247 1.511 . S
C1245 C1241 1.376 1_565 S
C1245 C1244 1.392 . S
C1245 H1257 0.929 . S
C1246 C1242 1.531 . S
C1246 H1258 0.960 . S
C1246 H1259 0.983 . S
C1246 H1260 0.960 1_565 S
C1247 C1244 1.511 . S
C1247 H1261 0.961 . S
C1247 H1262 0.961 . S
C1247 H1263 0.961 . S
C1248 C1249 1.370 . S
C1248 C1250 1.363 . S
C1248 H1264 0.931 . S
C1249 C1248 1.370 . S
C1249 C1253 1.408 . S
C1250 C1248 1.363 . S
C1250 C1251 1.370 . S
C1250 C1254 1.524 . S
C1251 C1243 1.503 . S
C1251 C1250 1.370 . S
C1251 C1252 1.403 . S
C1252 C1251 1.403 . S
C1252 C1253 1.404 . S
C1252 C1255 1.539 . S
C1253 C1249 1.408 . S
C1253 C1252 1.404 . S
C1253 H1265 0.930 . S
C1254 C1250 1.524 . S
C1254 H1266 0.956 . S
C1254 H1267 0.961 . S
C1254 H1268 0.961 . S
C1255 C1252 1.539 . S
C1255 H1269 0.958 . S
C1255 H1270 0.961 . S
C1255 H1271 0.960 . S
H1256 C1240 0.931 . S
H1257 C1245 0.929 . S
H1258 C1246 0.960 . S
H1259 C1246 0.983 . S
H1260 C1246 0.960 1_545 S
H1261 C1247 0.961 . S
H1262 C1247 0.961 . S
H1263 C1247 0.961 . S
H1264 C1248 0.931 . S
H1265 C1253 0.930 . S
H1266 C1254 0.956 . S
H1267 C1254 0.961 . S
H1268 C1254 0.961 . S
H1269 C1255 0.958 . S
H1270 C1255 0.961 . S
H1271 C1255 0.960 . S
C1272 C1273 1.391 . S
C1272 C1274 1.394 1_556 S
C1272 H1288 0.931 . S
C1273 C1272 1.391 . S
C1273 C1277 1.376 . S
C1274 C1272 1.394 1_554 S
C1274 C1275 1.369 . S
C1274 C1278 1.531 . S
C1275 C1274 1.369 . S
C1275 C1276 1.410 1_554 S
C1275 C1283 1.503 . S
C1276 C1275 1.410 1_556 S
C1276 C1277 1.392 . S
C1276 C1279 1.511 1_556 S
C1277 C1273 1.376 . S
C1277 C1276 1.392 . S
C1277 H1289 0.929 . S
C1278 C1274 1.531 . S
C1278 H1290 0.960 . S
C1278 H1291 0.962 . S
C1278 H1292 0.960 . S
C1279 C1276 1.511 1_554 S
C1279 H1293 0.961 1_554 S
C1279 H1294 0.961 . S
C1279 H1295 0.961 . S
C1280 C1281 1.370 . S
C1280 C1282 1.363 1_545 S
C1280 H1296 0.931 . S
C1281 C1280 1.370 . S
C1281 C1285 1.408 1_545 S
C1282 C1280 1.363 1_565 S
C1282 C1283 1.370 . S
C1282 C1286 1.524 1_554 S
C1283 C1275 1.503 . S
C1283 C1282 1.370 . S
C1283 C1284 1.403 . S
C1284 C1283 1.403 . S
C1284 C1285 1.404 . S
C1284 C1287 1.539 . S
C1285 C1281 1.408 1_565 S
C1285 C1284 1.404 . S
C1285 H1297 0.930 . S
C1286 C1282 1.524 1_556 S
C1286 H1298 0.956 . S
C1286 H1299 0.961 . S
C1286 H1300 0.961 1_565 S
C1287 C1284 1.539 . S
C1287 H1301 0.958 . S
C1287 H1302 0.961 . S
C1287 H1303 0.960 . S
H1288 C1272 0.931 . S
H1289 C1277 0.929 . S
H1290 C1278 0.960 . S
H1291 C1278 0.962 . S
H1292 C1278 0.960 . S
H1293 C1279 0.961 1_556 S
H1294 C1279 0.961 . S
H1295 C1279 0.961 . S
H1296 C1280 0.931 . S
H1297 C1285 0.930 . S
H1298 C1286 0.956 . S
H1299 C1286 0.961 . S
H1300 C1286 0.961 1_545 S
H1301 C1287 0.958 . S
H1302 C1287 0.961 . S
H1303 C1287 0.960 . S
C1304 C1305 1.391 . S
C1304 C1306 1.367 1_556 S
C1304 H1320 0.931 . S
C1305 C1304 1.391 . S
C1305 C1309 1.376 . S
C1306 C1304 1.367 1_554 S
C1306 C1307 1.365 1_554 S
C1306 C1310 1.563 . S
C1307 C1306 1.365 1_556 S
C1307 C1308 1.429 . S
C1307 C1315 1.485 1_556 S
C1308 C1307 1.429 . S
C1308 C1309 1.392 . S
C1308 C1311 1.511 . S
C1309 C1305 1.376 . S
C1309 C1308 1.392 . S
C1309 H1321 0.929 . S
C1310 C1306 1.563 . S
C1310 H1322 0.960 . S
C1310 H1323 0.962 . S
C1310 H1324 0.960 . S
C1311 C1308 1.511 . S
C1311 H1325 0.961 . S
C1311 H1326 0.961 . S
C1311 H1327 0.961 . S
C1312 C1313 1.370 1_455 S
C1312 C1314 1.363 . S
C1312 H1328 0.931 . S
C1313 C1312 1.370 1_655 S
C1313 C1317 1.408 . S
C1314 C1312 1.363 . S
C1314 C1315 1.370 . S
C1314 C1318 1.524 . S
C1315 C1307 1.485 1_554 S
C1315 C1314 1.370 . S
C1315 C1316 1.403 . S
C1316 C1315 1.403 . S
C1316 C1317 1.404 1_455 S
C1316 C1319 1.539 1_454 S
C1317 C1313 1.408 . S
C1317 C1316 1.404 1_655 S
C1317 H1329 0.930 . S
C1318 C1314 1.524 . S
C1318 H1330 0.956 . S
C1318 H1331 0.961 . S
C1318 H1332 0.961 . S
C1319 C1316 1.539 1_656 S
C1319 H1333 0.958 . S
C1319 H1334 0.961 . S
C1319 H1335 0.960 1_655 S
H1320 C1304 0.931 . S
H1321 C1309 0.929 . S
H1322 C1310 0.960 . S
H1323 C1310 0.962 . S
H1324 C1310 0.960 . S
H1325 C1311 0.961 . S
H1326 C1311 0.961 . S
H1327 C1311 0.961 . S
H1328 C1312 0.931 . S
H1329 C1317 0.930 . S
H1330 C1318 0.956 . S
H1331 C1318 0.961 . S
H1332 C1318 0.961 . S
H1333 C1319 0.958 . S
H1334 C1319 0.961 . S
H1335 C1319 0.960 1_455 S
C1336 C1337 1.391 . S
C1336 C1338 1.394 1_556 S
C1336 H1352 0.931 1_556 S
C1337 C1336 1.391 . S
C1337 C1341 1.376 . S
C1338 C1336 1.394 1_554 S
C1338 C1339 1.369 . S
C1338 C1342 1.531 . S
C1339 C1338 1.369 . S
C1339 C1340 1.410 1_554 S
C1339 C1347 1.503 . S
C1340 C1339 1.410 1_556 S
C1340 C1341 1.392 . S
C1340 C1343 1.511 . S
C1341 C1337 1.376 . S
C1341 C1340 1.392 . S
C1341 H1353 0.929 . S
C1342 C1338 1.531 . S
C1342 H1354 0.960 . S
C1342 H1355 0.962 . S
C1342 H1356 0.960 . S
C1343 C1340 1.511 . S
C1343 H1357 0.961 . S
C1343 H1358 0.961 . S
C1343 H1359 0.961 . S
C1344 C1345 1.370 . S
C1344 C1346 1.363 . S
C1344 H1360 0.931 . S
C1345 C1344 1.370 . S
C1345 C1349 1.408 . S
C1346 C1344 1.363 . S
C1346 C1347 1.370 . S
C1346 C1350 1.524 . S
C1347 C1339 1.503 . S
C1347 C1346 1.370 . S
C1347 C1348 1.403 . S
C1348 C1347 1.403 . S
C1348 C1349 1.404 . S
C1348 C1351 1.539 . S
C1349 C1345 1.408 . S
C1349 C1348 1.404 . S
C1349 H1361 0.930 . S
C1350 C1346 1.524 . S
C1350 H1362 0.956 . S
C1350 H1363 0.961 . S
C1350 H1364 0.961 . S
C1351 C1348 1.539 . S
C1351 H1365 0.958 . S
C1351 H1366 0.961 . S
C1351 H1367 0.960 1_554 S
H1352 C1336 0.931 1_554 S
H1353 C1341 0.929 . S
H1354 C1342 0.960 . S
H1355 C1342 0.962 . S
H1356 C1342 0.960 . S
H1357 C1343 0.961 . S
H1358 C1343 0.961 . S
H1359 C1343 0.961 . S
H1360 C1344 0.931 . S
H1361 C1349 0.930 . S
H1362 C1350 0.956 . S
H1363 C1350 0.961 . S
H1364 C1350 0.961 . S
H1365 C1351 0.958 . S
H1366 C1351 0.961 . S
H1367 C1351 0.960 1_556 S
C1368 C1369 1.391 . S
C1368 C1370 1.394 . S
C1368 H1384 0.931 . S
C1369 C1368 1.391 . S
C1369 C1373 1.376 . S
C1370 C1368 1.394 . S
C1370 C1371 1.369 . S
C1370 C1374 1.531 . S
C1371 C1370 1.369 . S
C1371 C1372 1.410 . S
C1371 C1379 1.503 . S
C1372 C1371 1.410 . S
C1372 C1373 1.392 . S
C1372 C1375 1.511 . S
C1373 C1369 1.376 . S
C1373 C1372 1.392 . S
C1373 H1385 0.929 . S
C1374 C1370 1.531 . S
C1374 H1386 0.960 . S
C1374 H1387 0.962 . S
C1374 H1388 0.960 . S
C1375 C1372 1.511 . S
C1375 H1389 0.961 . S
C1375 H1390 0.961 . S
C1375 H1391 0.961 . S
C1376 C1377 1.370 . S
C1376 C1378 1.363 1_455 S
C1376 H1392 0.931 . S
C1377 C1376 1.370 . S
C1377 C1381 1.408 . S
C1378 C1376 1.363 1_655 S
C1378 C1379 1.370 . S
C1378 C1382 1.524 . S
C1379 C1371 1.503 . S
C1379 C1378 1.370 . S
C1379 C1380 1.403 . S
C1380 C1379 1.403 . S
C1380 C1381 1.404 1_655 S
C1380 C1383 1.539 . S
C1381 C1377 1.408 . S
C1381 C1380 1.404 1_455 S
C1381 H1393 0.930 . S
C1382 C1378 1.524 . S
C1382 H1394 0.956 . S
C1382 H1395 0.961 . S
C1382 H1396 0.961 . S
C1383 C1380 1.539 . S
C1383 H1397 0.958 . S
C1383 H1398 0.961 . S
C1383 H1399 0.960 . S
H1384 C1368 0.931 . S
H1385 C1373 0.929 . S
H1386 C1374 0.960 . S
H1387 C1374 0.962 . S
H1388 C1374 0.960 . S
H1389 C1375 0.961 . S
H1390 C1375 0.961 . S
H1391 C1375 0.961 . S
H1392 C1376 0.931 . S
H1393 C1381 0.930 . S
H1394 C1382 0.956 . S
H1395 C1382 0.961 . S
H1396 C1382 0.961 . S
H1397 C1383 0.958 . S
H1398 C1383 0.961 . S
H1399 C1383 0.960 . S
C1400 C1401 1.391 . S
C1400 C1402 1.394 . S
C1400 H1416 0.931 . S
C1401 C1400 1.391 . S
C1401 C1405 1.376 . S
C1402 C1400 1.394 . S
C1402 C1403 1.369 . S
C1402 C1406 1.531 . S
C1403 C1402 1.369 . S
C1403 C1404 1.410 . S
C1403 C1411 1.503 . S
C1404 C1403 1.410 . S
C1404 C1405 1.392 . S
C1404 C1407 1.511 . S
C1405 C1401 1.376 . S
C1405 C1404 1.392 . S
C1405 H1417 0.929 . S
C1406 C1402 1.531 . S
C1406 H1418 0.960 . S
C1406 H1419 0.962 . S
C1406 H1420 0.960 . S
C1407 C1404 1.511 . S
C1407 H1421 0.961 . S
C1407 H1422 0.961 . S
C1407 H1423 0.961 . S
C1408 C1409 1.370 . S
C1408 C1410 1.363 . S
C1408 H1424 0.931 . S
C1409 C1408 1.370 . S
C1409 C1413 1.408 . S
C1410 C1408 1.363 . S
C1410 C1411 1.370 . S
C1410 C1414 1.524 . S
C1411 C1403 1.503 . S
C1411 C1410 1.370 . S
C1411 C1412 1.403 . S
C1412 C1411 1.403 . S
C1412 C1413 1.404 . S
C1412 C1415 1.539 . S
C1413 C1409 1.408 . S
C1413 C1412 1.404 . S
C1413 H1425 0.930 . S
C1414 C1410 1.524 . S
C1414 H1426 0.956 . S
C1414 H1427 0.961 . S
C1414 H1428 0.961 . S
C1415 C1412 1.539 . S
C1415 H1429 0.958 . S
C1415 H1430 0.961 . S
C1415 H1431 0.960 . S
H1416 C1400 0.931 . S
H1417 C1405 0.929 . S
H1418 C1406 0.960 . S
H1419 C1406 0.962 . S
H1420 C1406 0.960 . S
H1421 C1407 0.961 . S
H1422 C1407 0.961 . S
H1423 C1407 0.961 . S
H1424 C1408 0.931 . S
H1425 C1413 0.930 . S
H1426 C1414 0.956 . S
H1427 C1414 0.961 . S
H1428 C1414 0.961 . S
H1429 C1415 0.958 . S
H1430 C1415 0.961 . S
H1431 C1415 0.960 . S
C1432 C1433 1.391 . S
C1432 C1434 1.394 1_565 S
C1432 H1448 0.931 . S
C1433 C1432 1.391 . S
C1433 C1437 1.376 . S
C1434 C1432 1.394 1_545 S
C1434 C1435 1.369 . S
C1434 C1438 1.531 . S
C1435 C1434 1.369 . S
C1435 C1436 1.410 . S
C1435 C1443 1.503 . S
C1436 C1435 1.410 . S
C1436 C1437 1.392 1_545 S
C1436 C1439 1.511 . S
C1437 C1433 1.376 . S
C1437 C1436 1.392 1_565 S
C1437 H1449 0.929 . S
C1438 C1434 1.531 . S
C1438 H1450 0.960 . S
C1438 H1451 0.962 . S
C1438 H1452 0.960 . S
C1439 C1436 1.511 . S
C1439 H1453 0.961 . S
C1439 H1454 0.961 . S
C1439 H1455 0.961 . S
C1440 C1441 1.370 . S
C1440 C1442 1.363 . S
C1440 H1456 0.931 . S
C1441 C1440 1.370 . S
C1441 C1445 1.408 . S
C1442 C1440 1.363 . S
C1442 C1443 1.370 . S
C1442 C1446 1.524 . S
C1443 C1435 1.503 . S
C1443 C1442 1.370 . S
C1443 C1444 1.403 . S
C1444 C1443 1.403 . S
C1444 C1445 1.404 . S
C1444 C1447 1.539 . S
C1445 C1441 1.408 . S
C1445 C1444 1.404 . S
C1445 H1457 0.930 . S
C1446 C1442 1.524 . S
C1446 H1458 0.956 . S
C1446 H1459 0.961 . S
C1446 H1460 0.961 . S
C1447 C1444 1.539 . S
C1447 H1461 0.958 . S
C1447 H1462 0.961 . S
C1447 H1463 0.960 . S
H1448 C1432 0.931 . S
H1449 C1437 0.929 . S
H1450 C1438 0.960 . S
H1451 C1438 0.962 . S
H1452 C1438 0.960 . S
H1453 C1439 0.961 . S
H1454 C1439 0.961 . S
H1455 C1439 0.961 . S
H1456 C1440 0.931 . S
H1457 C1445 0.930 . S
H1458 C1446 0.956 . S
H1459 C1446 0.961 . S
H1460 C1446 0.961 . S
H1461 C1447 0.958 . S
H1462 C1447 0.961 . S
H1463 C1447 0.960 . S
C1464 C1465 1.391 . S
C1464 C1466 1.394 . S
C1464 H1480 0.931 . S
C1465 C1464 1.391 . S
C1465 C1469 1.376 . S
C1466 C1464 1.394 . S
C1466 C1467 1.369 . S
C1466 C1470 1.531 . S
C1467 C1466 1.369 . S
C1467 C1468 1.410 . S
C1467 C1475 1.503 . S
C1468 C1467 1.410 . S
C1468 C1469 1.392 . S
C1468 C1471 1.511 . S
C1469 C1465 1.376 . S
C1469 C1468 1.392 . S
C1469 H1481 0.929 . S
C1470 C1466 1.531 . S
C1470 H1482 0.960 . S
C1470 H1483 0.962 . S
C1470 H1484 0.960 . S
C1471 C1468 1.511 . S
C1471 H1485 0.961 . S
C1471 H1486 0.961 . S
C1471 H1487 0.961 . S
C1472 C1473 1.370 . S
C1472 C1474 1.363 . S
C1472 H1488 0.931 . S
C1473 C1472 1.370 . S
C1473 C1477 1.408 . S
C1474 C1472 1.363 . S
C1474 C1475 1.370 . S
C1474 C1478 1.524 . S
C1475 C1467 1.503 . S
C1475 C1474 1.370 . S
C1475 C1476 1.403 . S
C1476 C1475 1.403 . S
C1476 C1477 1.404 . S
C1476 C1479 1.539 . S
C1477 C1473 1.408 . S
C1477 C1476 1.404 . S
C1477 H1489 0.930 . S
C1478 C1474 1.524 . S
C1478 H1490 0.956 . S
C1478 H1491 0.961 . S
C1478 H1492 0.961 . S
C1479 C1476 1.539 . S
C1479 H1493 0.958 . S
C1479 H1494 0.961 . S
C1479 H1495 0.960 . S
H1480 C1464 0.931 . S
H1481 C1469 0.929 . S
H1482 C1470 0.960 . S
H1483 C1470 0.962 . S
H1484 C1470 0.960 . S
H1485 C1471 0.961 . S
H1486 C1471 0.961 . S
H1487 C1471 0.961 . S
H1488 C1472 0.931 . S
H1489 C1477 0.930 . S
H1490 C1478 0.956 . S
H1491 C1478 0.961 . S
H1492 C1478 0.961 . S
H1493 C1479 0.958 . S
H1494 C1479 0.961 . S
H1495 C1479 0.960 . S
C1496 C1497 1.391 . S
C1496 C1498 1.394 . S
C1496 H1512 0.931 . S
C1497 C1496 1.391 . S
C1497 C1501 1.376 . S
C1498 C1496 1.394 . S
C1498 C1499 1.369 . S
C1498 C1502 1.531 . S
C1499 C1498 1.369 . S
C1499 C1500 1.410 . S
C1499 C1507 1.503 . S
C1500 C1499 1.410 . S
C1500 C1501 1.392 . S
C1500 C1503 1.511 . S
C1501 C1497 1.376 . S
C1501 C1500 1.392 . S
C1501 H1513 0.929 . S
C1502 C1498 1.531 . S
C1502 H1514 0.960 . S
C1502 H1515 0.962 . S
C1502 H1516 0.960 . S
C1503 C1500 1.511 . S
C1503 H1517 0.961 . S
C1503 H1518 0.961 . S
C1503 H1519 0.961 . S
C1504 C1505 1.370 . S
C1504 C1506 1.363 . S
C1504 H1520 0.931 . S
C1505 C1504 1.370 . S
C1505 C1509 1.408 . S
C1506 C1504 1.363 . S
C1506 C1507 1.370 . S
C1506 C1510 1.524 . S
C1507 C1499 1.503 . S
C1507 C1506 1.370 . S
C1507 C1508 1.403 . S
C1508 C1507 1.403 . S
C1508 C1509 1.404 . S
C1508 C1511 1.539 . S
C1509 C1505 1.408 . S
C1509 C1508 1.404 . S
C1509 H1521 0.930 . S
C1510 C1506 1.524 . S
C1510 H1522 0.956 . S
C1510 H1523 0.961 . S
C1510 H1524 0.961 . S
C1511 C1508 1.539 . S
C1511 H1525 0.958 . S
C1511 H1526 0.961 . S
C1511 H1527 0.960 . S
H1512 C1496 0.931 . S
H1513 C1501 0.929 . S
H1514 C1502 0.960 . S
H1515 C1502 0.962 . S
H1516 C1502 0.960 . S
H1517 C1503 0.961 . S
H1518 C1503 0.961 . S
H1519 C1503 0.961 . S
H1520 C1504 0.931 . S
H1521 C1509 0.930 . S
H1522 C1510 0.956 . S
H1523 C1510 0.961 . S
H1524 C1510 0.961 . S
H1525 C1511 0.958 . S
H1526 C1511 0.961 . S
H1527 C1511 0.960 . S
C1528 C1529 1.391 . S
C1528 C1530 1.394 . S
C1528 H1544 0.931 . S
C1529 C1528 1.391 . S
C1529 C1533 1.376 . S
C1530 C1528 1.394 . S
C1530 C1531 1.369 . S
C1530 C1534 1.531 . S
C1531 C1530 1.369 . S
C1531 C1532 1.410 . S
C1531 C1539 1.503 . S
C1532 C1531 1.410 . S
C1532 C1533 1.392 . S
C1532 C1535 1.511 . S
C1533 C1529 1.376 . S
C1533 C1532 1.392 . S
C1533 H1545 0.929 . S
C1534 C1530 1.531 . S
C1534 H1546 0.960 . S
C1534 H1547 0.962 . S
C1534 H1548 0.960 . S
C1535 C1532 1.511 . S
C1535 H1549 0.961 . S
C1535 H1550 0.961 . S
C1535 H1551 0.961 . S
C1536 C1537 1.370 . S
C1536 C1538 1.363 . S
C1536 H1552 0.931 . S
C1537 C1536 1.370 . S
C1537 C1541 1.408 . S
C1538 C1536 1.363 . S
C1538 C1539 1.370 . S
C1538 C1542 1.524 . S
C1539 C1531 1.503 . S
C1539 C1538 1.370 . S
C1539 C1540 1.403 . S
C1540 C1539 1.403 . S
C1540 C1541 1.404 . S
C1540 C1543 1.539 . S
C1541 C1537 1.408 . S
C1541 C1540 1.404 . S
C1541 H1553 0.930 . S
C1542 C1538 1.524 . S
C1542 H1554 0.956 . S
C1542 H1555 0.961 . S
C1542 H1556 0.961 . S
C1543 C1540 1.539 . S
C1543 H1557 0.958 . S
C1543 H1558 0.961 . S
C1543 H1559 0.960 . S
H1544 C1528 0.931 . S
H1545 C1533 0.929 . S
H1546 C1534 0.960 . S
H1547 C1534 0.962 . S
H1548 C1534 0.960 . S
H1549 C1535 0.961 . S
H1550 C1535 0.961 . S
H1551 C1535 0.961 . S
H1552 C1536 0.931 . S
H1553 C1541 0.930 . S
H1554 C1542 0.956 . S
H1555 C1542 0.961 . S
H1556 C1542 0.961 . S
H1557 C1543 0.958 . S
H1558 C1543 0.961 . S
H1559 C1543 0.960 . S
C1560 C1561 1.391 . S
C1560 C1562 1.394 . S
C1560 H1576 0.931 . S
C1561 C1560 1.391 . S
C1561 C1565 1.376 . S
C1562 C1560 1.394 . S
C1562 C1563 1.369 . S
C1562 C1566 1.531 . S
C1563 C1562 1.369 . S
C1563 C1564 1.410 . S
C1563 C1571 1.503 . S
C1564 C1563 1.410 . S
C1564 C1565 1.392 . S
C1564 C1567 1.511 . S
C1565 C1561 1.376 . S
C1565 C1564 1.392 . S
C1565 H1577 0.929 . S
C1566 C1562 1.531 . S
C1566 H1578 0.960 . S
C1566 H1579 0.962 . S
C1566 H1580 0.960 . S
C1567 C1564 1.511 . S
C1567 H1581 0.961 . S
C1567 H1582 0.961 . S
C1567 H1583 0.961 . S
C1568 C1569 1.370 . S
C1568 C1570 1.363 . S
C1568 H1584 0.931 . S
C1569 C1568 1.370 . S
C1569 C1573 1.408 . S
C1570 C1568 1.363 . S
C1570 C1571 1.370 . S
C1570 C1574 1.524 . S
C1571 C1563 1.503 . S
C1571 C1570 1.370 . S
C1571 C1572 1.403 . S
C1572 C1571 1.403 . S
C1572 C1573 1.404 . S
C1572 C1575 1.539 . S
C1573 C1569 1.408 . S
C1573 C1572 1.404 . S
C1573 H1585 0.930 . S
C1574 C1570 1.524 . S
C1574 H1586 0.956 . S
C1574 H1587 0.961 . S
C1574 H1588 0.961 . S
C1575 C1572 1.539 . S
C1575 H1589 0.958 . S
C1575 H1590 0.961 . S
C1575 H1591 0.960 . S
H1576 C1560 0.931 . S
H1577 C1565 0.929 . S
H1578 C1566 0.960 . S
H1579 C1566 0.962 . S
H1580 C1566 0.960 . S
H1581 C1567 0.961 . S
H1582 C1567 0.961 . S
H1583 C1567 0.961 . S
H1584 C1568 0.931 . S
H1585 C1573 0.930 . S
H1586 C1574 0.956 . S
H1587 C1574 0.961 . S
H1588 C1574 0.961 . S
H1589 C1575 0.958 . S
H1590 C1575 0.961 . S
H1591 C1575 0.960 . S
C1592 C1593 1.391 . S
C1592 C1594 1.394 . S
C1592 H1608 0.931 . S
C1593 C1592 1.391 . S
C1593 C1597 1.376 . S
C1594 C1592 1.394 . S
C1594 C1595 1.369 . S
C1594 C1598 1.531 . S
C1595 C1594 1.369 . S
C1595 C1596 1.410 . S
C1595 C1603 1.503 . S
C1596 C1595 1.410 . S
C1596 C1597 1.392 . S
C1596 C1599 1.511 . S
C1597 C1593 1.376 . S
C1597 C1596 1.392 . S
C1597 H1609 0.929 . S
C1598 C1594 1.531 . S
C1598 H1610 0.960 . S
C1598 H1611 0.962 . S
C1598 H1612 0.960 . S
C1599 C1596 1.511 . S
C1599 H1613 0.961 . S
C1599 H1614 0.961 . S
C1599 H1615 0.961 . S
C1600 C1601 1.370 . S
C1600 C1602 1.363 . S
C1600 H1616 0.931 . S
C1601 C1600 1.370 . S
C1601 C1605 1.408 . S
C1602 C1600 1.363 . S
C1602 C1603 1.370 . S
C1602 C1606 1.524 . S
C1603 C1595 1.503 . S
C1603 C1602 1.370 . S
C1603 C1604 1.403 . S
C1604 C1603 1.403 . S
C1604 C1605 1.404 . S
C1604 C1607 1.539 . S
C1605 C1601 1.408 . S
C1605 C1604 1.404 . S
C1605 H1617 0.930 . S
C1606 C1602 1.524 . S
C1606 H1618 0.956 . S
C1606 H1619 0.961 . S
C1606 H1620 0.961 . S
C1607 C1604 1.539 . S
C1607 H1621 0.958 . S
C1607 H1622 0.961 . S
C1607 H1623 0.960 . S
H1608 C1592 0.931 . S
H1609 C1597 0.929 . S
H1610 C1598 0.960 . S
H1611 C1598 0.962 . S
H1612 C1598 0.960 . S
H1613 C1599 0.961 . S
H1614 C1599 0.961 . S
H1615 C1599 0.961 . S
H1616 C1600 0.931 . S
H1617 C1605 0.930 . S
H1618 C1606 0.956 . S
H1619 C1606 0.961 . S
H1620 C1606 0.961 . S
H1621 C1607 0.958 . S
H1622 C1607 0.961 . S
H1623 C1607 0.960 . S
C1624 C1625 1.391 . S
C1624 C1626 1.394 . S
C1624 H1640 0.931 . S
C1625 C1624 1.391 . S
C1625 C1629 1.376 . S
C1626 C1624 1.394 . S
C1626 C1627 1.369 . S
C1626 C1630 1.531 . S
C1627 C1626 1.369 . S
C1627 C1628 1.410 . S
C1627 C1635 1.503 . S
C1628 C1627 1.410 . S
C1628 C1629 1.392 . S
C1628 C1631 1.511 . S
C1629 C1625 1.376 . S
C1629 C1628 1.392 . S
C1629 H1641 0.929 . S
C1630 C1626 1.531 . S
C1630 H1642 0.960 . S
C1630 H1643 0.962 . S
C1630 H1644 0.960 . S
C1631 C1628 1.511 . S
C1631 H1645 0.961 . S
C1631 H1646 0.961 . S
C1631 H1647 0.961 . S
C1632 C1633 1.370 . S
C1632 C1634 1.363 . S
C1632 H1648 0.931 . S
C1633 C1632 1.370 . S
C1633 C1637 1.408 . S
C1634 C1632 1.363 . S
C1634 C1635 1.370 . S
C1634 C1638 1.524 . S
C1635 C1627 1.503 . S
C1635 C1634 1.370 . S
C1635 C1636 1.403 . S
C1636 C1635 1.403 . S
C1636 C1637 1.404 . S
C1636 C1639 1.539 . S
C1637 C1633 1.408 . S
C1637 C1636 1.404 . S
C1637 H1649 0.930 . S
C1638 C1634 1.524 . S
C1638 H1650 0.956 . S
C1638 H1651 0.961 . S
C1638 H1652 0.961 . S
C1639 C1636 1.539 . S
C1639 H1653 0.958 . S
C1639 H1654 0.961 . S
C1639 H1655 0.960 . S
H1640 C1624 0.931 . S
H1641 C1629 0.929 . S
H1642 C1630 0.960 . S
H1643 C1630 0.962 . S
H1644 C1630 0.960 . S
H1645 C1631 0.961 . S
H1646 C1631 0.961 . S
H1647 C1631 0.961 . S
H1648 C1632 0.931 . S
H1649 C1637 0.930 . S
H1650 C1638 0.956 . S
H1651 C1638 0.961 . S
H1652 C1638 0.961 . S
H1653 C1639 0.958 . S
H1654 C1639 0.961 . S
H1655 C1639 0.960 . S
C1656 C1657 1.391 . S
C1656 C1658 1.394 . S
C1656 H1672 0.931 . S
C1657 C1656 1.391 . S
C1657 C1661 1.376 . S
C1658 C1656 1.394 . S
C1658 C1659 1.369 . S
C1658 C1662 1.531 . S
C1659 C1658 1.369 . S
C1659 C1660 1.410 . S
C1659 C1667 1.503 . S
C1660 C1659 1.410 . S
C1660 C1661 1.392 . S
C1660 C1663 1.511 . S
C1661 C1657 1.376 . S
C1661 C1660 1.392 . S
C1661 H1673 0.929 . S
C1662 C1658 1.531 . S
C1662 H1674 0.960 . S
C1662 H1675 0.962 . S
C1662 H1676 0.960 . S
C1663 C1660 1.511 . S
C1663 H1677 0.961 . S
C1663 H1678 0.961 . S
C1663 H1679 0.961 . S
C1664 C1665 1.370 . S
C1664 C1666 1.363 . S
C1664 H1680 0.931 . S
C1665 C1664 1.370 . S
C1665 C1669 1.408 . S
C1666 C1664 1.363 . S
C1666 C1667 1.370 . S
C1666 C1670 1.524 . S
C1667 C1659 1.503 . S
C1667 C1666 1.370 . S
C1667 C1668 1.403 . S
C1668 C1667 1.403 . S
C1668 C1669 1.404 . S
C1668 C1671 1.539 . S
C1669 C1665 1.408 . S
C1669 C1668 1.404 . S
C1669 H1681 0.930 . S
C1670 C1666 1.524 . S
C1670 H1682 0.956 . S
C1670 H1683 0.961 . S
C1670 H1684 0.961 . S
C1671 C1668 1.539 . S
C1671 H1685 0.958 . S
C1671 H1686 0.961 . S
C1671 H1687 0.960 . S
H1672 C1656 0.931 . S
H1673 C1661 0.929 . S
H1674 C1662 0.960 . S
H1675 C1662 0.962 . S
H1676 C1662 0.960 . S
H1677 C1663 0.961 . S
H1678 C1663 0.961 . S
H1679 C1663 0.961 . S
H1680 C1664 0.931 . S
H1681 C1669 0.930 . S
H1682 C1670 0.956 . S
H1683 C1670 0.961 . S
H1684 C1670 0.961 . S
H1685 C1671 0.958 . S
H1686 C1671 0.961 . S
H1687 C1671 0.960 . S
C1688 C1689 1.391 . S
C1688 C1690 1.394 . S
C1688 H1704 0.931 . S
C1689 C1688 1.391 . S
C1689 C1693 1.376 . S
C1690 C1688 1.394 . S
C1690 C1691 1.369 . S
C1690 C1694 1.531 . S
C1691 C1690 1.369 . S
C1691 C1692 1.410 . S
C1691 C1699 1.503 . S
C1692 C1691 1.410 . S
C1692 C1693 1.392 . S
C1692 C1695 1.511 . S
C1693 C1689 1.376 . S
C1693 C1692 1.392 . S
C1693 H1705 0.929 . S
C1694 C1690 1.531 . S
C1694 H1706 0.960 . S
C1694 H1707 0.962 . S
C1694 H1708 0.960 . S
C1695 C1692 1.511 . S
C1695 H1709 0.961 . S
C1695 H1710 0.961 . S
C1695 H1711 0.961 . S
C1696 C1697 1.370 . S
C1696 C1698 1.363 . S
C1696 H1712 0.931 . S
C1697 C1696 1.370 . S
C1697 C1701 1.408 . S
C1698 C1696 1.363 . S
C1698 C1699 1.370 . S
C1698 C1702 1.524 . S
C1699 C1691 1.503 . S
C1699 C1698 1.370 . S
C1699 C1700 1.403 . S
C1700 C1699 1.403 . S
C1700 C1701 1.404 . S
C1700 C1703 1.539 . S
C1701 C1697 1.408 . S
C1701 C1700 1.404 . S
C1701 H1713 0.930 . S
C1702 C1698 1.524 . S
C1702 H1714 0.956 . S
C1702 H1715 0.961 . S
C1702 H1716 0.961 . S
C1703 C1700 1.539 . S
C1703 H1717 0.958 . S
C1703 H1718 0.961 . S
C1703 H1719 0.960 . S
H1704 C1688 0.931 . S
H1705 C1693 0.929 . S
H1706 C1694 0.960 . S
H1707 C1694 0.962 . S
H1708 C1694 0.960 . S
H1709 C1695 0.961 . S
H1710 C1695 0.961 . S
H1711 C1695 0.961 . S
H1712 C1696 0.931 . S
H1713 C1701 0.930 . S
H1714 C1702 0.956 . S
H1715 C1702 0.961 . S
H1716 C1702 0.961 . S
H1717 C1703 0.958 . S
H1718 C1703 0.961 . S
H1719 C1703 0.960 . S
C1720 C1721 1.391 . S
C1720 C1722 1.394 . S
C1720 H1736 0.931 . S
C1721 C1720 1.391 . S
C1721 C1725 1.376 . S
C1722 C1720 1.394 . S
C1722 C1723 1.369 . S
C1722 C1726 1.531 . S
C1723 C1722 1.369 . S
C1723 C1724 1.410 . S
C1723 C1731 1.503 . S
C1724 C1723 1.410 . S
C1724 C1725 1.392 . S
C1724 C1727 1.511 . S
C1725 C1721 1.376 . S
C1725 C1724 1.392 . S
C1725 H1737 0.929 . S
C1726 C1722 1.531 . S
C1726 H1738 0.960 . S
C1726 H1739 0.962 . S
C1726 H1740 0.960 . S
C1727 C1724 1.511 . S
C1727 H1741 0.961 . S
C1727 H1742 0.961 . S
C1727 H1743 0.961 . S
C1728 C1729 1.370 . S
C1728 C1730 1.363 . S
C1728 H1744 0.931 . S
C1729 C1728 1.370 . S
C1729 C1733 1.408 . S
C1730 C1728 1.363 . S
C1730 C1731 1.370 . S
C1730 C1734 1.524 . S
C1731 C1723 1.503 . S
C1731 C1730 1.370 . S
C1731 C1732 1.403 . S
C1732 C1731 1.403 . S
C1732 C1733 1.404 . S
C1732 C1735 1.539 . S
C1733 C1729 1.408 . S
C1733 C1732 1.404 . S
C1733 H1745 0.930 . S
C1734 C1730 1.524 . S
C1734 H1746 0.956 . S
C1734 H1747 0.961 . S
C1734 H1748 0.961 . S
C1735 C1732 1.539 . S
C1735 H1749 0.958 . S
C1735 H1750 0.961 . S
C1735 H1751 0.960 . S
H1736 C1720 0.931 . S
H1737 C1725 0.929 . S
H1738 C1726 0.960 . S
H1739 C1726 0.962 . S
H1740 C1726 0.960 . S
H1741 C1727 0.961 . S
H1742 C1727 0.961 . S
H1743 C1727 0.961 . S
H1744 C1728 0.931 . S
H1745 C1733 0.930 . S
H1746 C1734 0.956 . S
H1747 C1734 0.961 . S
H1748 C1734 0.961 . S
H1749 C1735 0.958 . S
H1750 C1735 0.961 . S
H1751 C1735 0.960 . S
C1752 C1753 1.391 . S
C1752 C1754 1.394 . S
C1752 H1768 0.931 . S
C1753 C1752 1.391 . S
C1753 C1757 1.376 . S
C1754 C1752 1.394 . S
C1754 C1755 1.369 . S
C1754 C1758 1.531 . S
C1755 C1754 1.369 . S
C1755 C1756 1.410 . S
C1755 C1763 1.503 . S
C1756 C1755 1.410 . S
C1756 C1757 1.392 . S
C1756 C1759 1.511 . S
C1757 C1753 1.376 . S
C1757 C1756 1.392 . S
C1757 H1769 0.929 . S
C1758 C1754 1.531 . S
C1758 H1770 0.960 . S
C1758 H1771 0.962 . S
C1758 H1772 0.960 . S
C1759 C1756 1.511 . S
C1759 H1773 0.961 . S
C1759 H1774 0.961 . S
C1759 H1775 0.961 . S
C1760 C1761 1.370 . S
C1760 C1762 1.363 . S
C1760 H1776 0.931 . S
C1761 C1760 1.370 . S
C1761 C1765 1.408 . S
C1762 C1760 1.363 . S
C1762 C1763 1.370 . S
C1762 C1766 1.524 . S
C1763 C1755 1.503 . S
C1763 C1762 1.370 . S
C1763 C1764 1.403 . S
C1764 C1763 1.403 . S
C1764 C1765 1.404 . S
C1764 C1767 1.539 . S
C1765 C1761 1.408 . S
C1765 C1764 1.404 . S
C1765 H1777 0.930 . S
C1766 C1762 1.524 . S
C1766 H1778 0.956 . S
C1766 H1779 0.961 . S
C1766 H1780 0.961 . S
C1767 C1764 1.539 . S
C1767 H1781 0.958 . S
C1767 H1782 0.961 . S
C1767 H1783 0.960 . S
H1768 C1752 0.931 . S
H1769 C1757 0.929 . S
H1770 C1758 0.960 . S
H1771 C1758 0.962 . S
H1772 C1758 0.960 . S
H1773 C1759 0.961 . S
H1774 C1759 0.961 . S
H1775 C1759 0.961 . S
H1776 C1760 0.931 . S
H1777 C1765 0.930 . S
H1778 C1766 0.956 . S
H1779 C1766 0.961 . S
H1780 C1766 0.961 . S
H1781 C1767 0.958 . S
H1782 C1767 0.961 . S
H1783 C1767 0.960 . S
C1784 C1785 1.391 . S
C1784 C1786 1.394 . S
C1784 H1800 0.931 . S
C1785 C1784 1.391 . S
C1785 C1789 1.376 . S
C1786 C1784 1.394 . S
C1786 C1787 1.369 . S
C1786 C1790 1.531 . S
C1787 C1786 1.369 . S
C1787 C1788 1.410 . S
C1787 C1795 1.503 . S
C1788 C1787 1.410 . S
C1788 C1789 1.392 . S
C1788 C1791 1.511 . S
C1789 C1785 1.376 . S
C1789 C1788 1.392 . S
C1789 H1801 0.929 . S
C1790 C1786 1.531 . S
C1790 H1802 0.960 . S
C1790 H1803 0.962 . S
C1790 H1804 0.960 . S
C1791 C1788 1.511 . S
C1791 H1805 0.961 . S
C1791 H1806 0.961 . S
C1791 H1807 0.961 . S
C1792 C1793 1.370 . S
C1792 C1794 1.363 . S
C1792 H1808 0.931 . S
C1793 C1792 1.370 . S
C1793 C1797 1.408 . S
C1794 C1792 1.363 . S
C1794 C1795 1.370 . S
C1794 C1798 1.524 . S
C1795 C1787 1.503 . S
C1795 C1794 1.370 . S
C1795 C1796 1.403 . S
C1796 C1795 1.403 . S
C1796 C1797 1.404 . S
C1796 C1799 1.539 . S
C1797 C1793 1.408 . S
C1797 C1796 1.404 . S
C1797 H1809 0.930 . S
C1798 C1794 1.524 . S
C1798 H1810 0.956 . S
C1798 H1811 0.961 . S
C1798 H1812 0.961 . S
C1799 C1796 1.539 . S
C1799 H1813 0.958 . S
C1799 H1814 0.961 . S
C1799 H1815 0.960 . S
H1800 C1784 0.931 . S
H1801 C1789 0.929 . S
H1802 C1790 0.960 . S
H1803 C1790 0.962 . S
H1804 C1790 0.960 . S
H1805 C1791 0.961 . S
H1806 C1791 0.961 . S
H1807 C1791 0.961 . S
H1808 C1792 0.931 . S
H1809 C1797 0.930 . S
H1810 C1798 0.956 . S
H1811 C1798 0.961 . S
H1812 C1798 0.961 . S
H1813 C1799 0.958 . S
H1814 C1799 0.961 . S
H1815 C1799 0.960 . S
C1816 C1817 1.391 . S
C1816 C1818 1.394 . S
C1816 H1832 0.931 . S
C1817 C1816 1.391 . S
C1817 C1821 1.376 . S
C1818 C1816 1.394 . S
C1818 C1819 1.369 . S
C1818 C1822 1.531 . S
C1819 C1818 1.369 . S
C1819 C1820 1.410 . S
C1819 C1827 1.503 . S
C1820 C1819 1.410 . S
C1820 C1821 1.392 . S
C1820 C1823 1.511 . S
C1821 C1817 1.376 . S
C1821 C1820 1.392 . S
C1821 H1833 0.929 . S
C1822 C1818 1.531 . S
C1822 H1834 0.960 . S
C1822 H1835 0.962 . S
C1822 H1836 0.960 . S
C1823 C1820 1.511 . S
C1823 H1837 0.961 . S
C1823 H1838 0.961 . S
C1823 H1839 0.961 . S
C1824 C1825 1.370 . S
C1824 C1826 1.363 . S
C1824 H1840 0.931 . S
C1825 C1824 1.370 . S
C1825 C1829 1.408 . S
C1826 C1824 1.363 . S
C1826 C1827 1.370 . S
C1826 C1830 1.524 . S
C1827 C1819 1.503 . S
C1827 C1826 1.370 . S
C1827 C1828 1.403 . S
C1828 C1827 1.403 . S
C1828 C1829 1.404 . S
C1828 C1831 1.539 . S
C1829 C1825 1.408 . S
C1829 C1828 1.404 . S
C1829 H1841 0.930 . S
C1830 C1826 1.524 . S
C1830 H1842 0.956 . S
C1830 H1843 0.961 . S
C1830 H1844 0.961 . S
C1831 C1828 1.539 . S
C1831 H1845 0.958 . S
C1831 H1846 0.961 . S
C1831 H1847 0.960 . S
H1832 C1816 0.931 . S
H1833 C1821 0.929 . S
H1834 C1822 0.960 . S
H1835 C1822 0.962 . S
H1836 C1822 0.960 . S
H1837 C1823 0.961 . S
H1838 C1823 0.961 . S
H1839 C1823 0.961 . S
H1840 C1824 0.931 . S
H1841 C1829 0.930 . S
H1842 C1830 0.956 . S
H1843 C1830 0.961 . S
H1844 C1830 0.961 . S
H1845 C1831 0.958 . S
H1846 C1831 0.961 . S
H1847 C1831 0.960 . S
C1848 C1849 1.391 . S
C1848 C1850 1.394 . S
C1848 H1864 0.931 . S
C1849 C1848 1.391 . S
C1849 C1853 1.376 . S
C1850 C1848 1.394 . S
C1850 C1851 1.369 . S
C1850 C1854 1.531 . S
C1851 C1850 1.369 . S
C1851 C1852 1.410 . S
C1851 C1859 1.503 . S
C1852 C1851 1.410 . S
C1852 C1853 1.392 . S
C1852 C1855 1.511 . S
C1853 C1849 1.376 . S
C1853 C1852 1.392 . S
C1853 H1865 0.929 . S
C1854 C1850 1.531 . S
C1854 H1866 0.960 . S
C1854 H1867 0.962 . S
C1854 H1868 0.960 . S
C1855 C1852 1.511 . S
C1855 H1869 0.961 . S
C1855 H1870 0.961 . S
C1855 H1871 0.961 . S
C1856 C1857 1.370 . S
C1856 C1858 1.363 . S
C1856 H1872 0.931 . S
C1857 C1856 1.370 . S
C1857 C1861 1.408 . S
C1858 C1856 1.363 . S
C1858 C1859 1.370 . S
C1858 C1862 1.524 . S
C1859 C1851 1.503 . S
C1859 C1858 1.370 . S
C1859 C1860 1.403 . S
C1860 C1859 1.403 . S
C1860 C1861 1.404 . S
C1860 C1863 1.539 . S
C1861 C1857 1.408 . S
C1861 C1860 1.404 . S
C1861 H1873 0.930 . S
C1862 C1858 1.524 . S
C1862 H1874 0.956 . S
C1862 H1875 0.961 . S
C1862 H1876 0.961 . S
C1863 C1860 1.539 . S
C1863 H1877 0.958 . S
C1863 H1878 0.961 . S
C1863 H1879 0.960 . S
H1864 C1848 0.931 . S
H1865 C1853 0.929 . S
H1866 C1854 0.960 . S
H1867 C1854 0.962 . S
H1868 C1854 0.960 . S
H1869 C1855 0.961 . S
H1870 C1855 0.961 . S
H1871 C1855 0.961 . S
H1872 C1856 0.931 . S
H1873 C1861 0.930 . S
H1874 C1862 0.956 . S
H1875 C1862 0.961 . S
H1876 C1862 0.961 . S
H1877 C1863 0.958 . S
H1878 C1863 0.961 . S
H1879 C1863 0.960 . S
C1880 C1881 1.391 . S
C1880 C1882 1.394 . S
C1880 H1896 0.931 . S
C1881 C1880 1.391 . S
C1881 C1885 1.376 . S
C1882 C1880 1.394 . S
C1882 C1883 1.369 . S
C1882 C1886 1.531 . S
C1883 C1882 1.369 . S
C1883 C1884 1.410 . S
C1883 C1891 1.503 . S
C1884 C1883 1.410 . S
C1884 C1885 1.392 . S
C1884 C1887 1.511 . S
C1885 C1881 1.376 . S
C1885 C1884 1.392 . S
C1885 H1897 0.929 . S
C1886 C1882 1.531 . S
C1886 H1898 0.960 . S
C1886 H1899 0.962 . S
C1886 H1900 0.960 . S
C1887 C1884 1.511 . S
C1887 H1901 0.961 . S
C1887 H1902 0.961 . S
C1887 H1903 0.961 . S
C1888 C1889 1.370 . S
C1888 C1890 1.363 . S
C1888 H1904 0.931 . S
C1889 C1888 1.370 . S
C1889 C1893 1.408 . S
C1890 C1888 1.363 . S
C1890 C1891 1.370 . S
C1890 C1894 1.524 . S
C1891 C1883 1.503 . S
C1891 C1890 1.370 . S
C1891 C1892 1.403 . S
C1892 C1891 1.403 . S
C1892 C1893 1.404 . S
C1892 C1895 1.539 . S
C1893 C1889 1.408 . S
C1893 C1892 1.404 . S
C1893 H1905 0.930 . S
C1894 C1890 1.524 . S
C1894 H1906 0.956 . S
C1894 H1907 0.961 . S
C1894 H1908 0.961 . S
C1895 C1892 1.539 . S
C1895 H1909 0.958 . S
C1895 H1910 0.961 . S
C1895 H1911 0.960 . S
H1896 C1880 0.931 . S
H1897 C1885 0.929 . S
H1898 C1886 0.960 . S
H1899 C1886 0.962 . S
H1900 C1886 0.960 . S
H1901 C1887 0.961 . S
H1902 C1887 0.961 . S
H1903 C1887 0.961 . S
H1904 C1888 0.931 . S
H1905 C1893 0.930 . S
H1906 C1894 0.956 . S
H1907 C1894 0.961 . S
H1908 C1894 0.961 . S
H1909 C1895 0.958 . S
H1910 C1895 0.961 . S
H1911 C1895 0.960 . S
C1912 C1913 1.391 . S
C1912 C1914 1.394 . S
C1912 H1928 0.931 . S
C1913 C1912 1.391 . S
C1913 C1917 1.376 . S
C1914 C1912 1.394 . S
C1914 C1915 1.369 . S
C1914 C1918 1.531 . S
C1915 C1914 1.369 . S
C1915 C1916 1.410 . S
C1915 C1923 1.503 . S
C1916 C1915 1.410 . S
C1916 C1917 1.392 . S
C1916 C1919 1.511 . S
C1917 C1913 1.376 . S
C1917 C1916 1.392 . S
C1917 H1929 0.929 . S
C1918 C1914 1.531 . S
C1918 H1930 0.960 . S
C1918 H1931 0.962 . S
C1918 H1932 0.960 . S
C1919 C1916 1.511 . S
C1919 H1933 0.961 . S
C1919 H1934 0.961 . S
C1919 H1935 0.961 . S
C1920 C1921 1.370 . S
C1920 C1922 1.363 . S
C1920 H1936 0.931 . S
C1921 C1920 1.370 . S
C1921 C1925 1.408 . S
C1922 C1920 1.363 . S
C1922 C1923 1.370 . S
C1922 C1926 1.524 . S
C1923 C1915 1.503 . S
C1923 C1922 1.370 . S
C1923 C1924 1.403 . S
C1924 C1923 1.403 . S
C1924 C1925 1.404 . S
C1924 C1927 1.539 . S
C1925 C1921 1.408 . S
C1925 C1924 1.404 . S
C1925 H1937 0.930 . S
C1926 C1922 1.524 . S
C1926 H1938 0.956 . S
C1926 H1939 0.961 . S
C1926 H1940 0.961 . S
C1927 C1924 1.539 . S
C1927 H1941 0.958 . S
C1927 H1942 0.961 . S
C1927 H1943 0.960 . S
H1928 C1912 0.931 . S
H1929 C1917 0.929 . S
H1930 C1918 0.960 . S
H1931 C1918 0.962 . S
H1932 C1918 0.960 . S
H1933 C1919 0.961 . S
H1934 C1919 0.961 . S
H1935 C1919 0.961 . S
H1936 C1920 0.931 . S
H1937 C1925 0.930 . S
H1938 C1926 0.956 . S
H1939 C1926 0.961 . S
H1940 C1926 0.961 . S
H1941 C1927 0.958 . S
H1942 C1927 0.961 . S
H1943 C1927 0.960 . S
C1944 C1945 1.391 . S
C1944 C1946 1.394 . S
C1944 H1960 0.931 . S
C1945 C1944 1.391 . S
C1945 C1949 1.376 . S
C1946 C1944 1.394 . S
C1946 C1947 1.369 . S
C1946 C1950 1.531 . S
C1947 C1946 1.369 . S
C1947 C1948 1.410 . S
C1947 C1955 1.503 . S
C1948 C1947 1.410 . S
C1948 C1949 1.392 . S
C1948 C1951 1.511 . S
C1949 C1945 1.376 . S
C1949 C1948 1.392 . S
C1949 H1961 0.929 . S
C1950 C1946 1.531 . S
C1950 H1962 0.960 . S
C1950 H1963 0.962 . S
C1950 H1964 0.960 . S
C1951 C1948 1.511 . S
C1951 H1965 0.961 . S
C1951 H1966 0.961 . S
C1951 H1967 0.961 . S
C1952 C1953 1.370 . S
C1952 C1954 1.363 . S
C1952 H1968 0.931 . S
C1953 C1952 1.370 . S
C1953 C1957 1.408 . S
C1954 C1952 1.363 . S
C1954 C1955 1.370 . S
C1954 C1958 1.524 . S
C1955 C1947 1.503 . S
C1955 C1954 1.370 . S
C1955 C1956 1.403 . S
C1956 C1955 1.403 . S
C1956 C1957 1.404 . S
C1956 C1959 1.539 . S
C1957 C1953 1.408 . S
C1957 C1956 1.404 . S
C1957 H1969 0.930 . S
C1958 C1954 1.524 . S
C1958 H1970 0.956 . S
C1958 H1971 0.961 . S
C1958 H1972 0.961 . S
C1959 C1956 1.539 . S
C1959 H1973 0.958 . S
C1959 H1974 0.961 . S
C1959 H1975 0.960 . S
H1960 C1944 0.931 . S
H1961 C1949 0.929 . S
H1962 C1950 0.960 . S
H1963 C1950 0.962 . S
H1964 C1950 0.960 . S
H1965 C1951 0.961 . S
H1966 C1951 0.961 . S
H1967 C1951 0.961 . S
H1968 C1952 0.931 . S
H1969 C1957 0.930 . S
H1970 C1958 0.956 . S
H1971 C1958 0.961 . S
H1972 C1958 0.961 . S
H1973 C1959 0.958 . S
H1974 C1959 0.961 . S
H1975 C1959 0.960 . S
C1976 C1977 1.391 . S
C1976 C1978 1.394 . S
C1976 H1992 0.931 . S
C1977 C1976 1.391 . S
C1977 C1981 1.376 . S
C1978 C1976 1.394 . S
C1978 C1979 1.369 . S
C1978 C1982 1.531 . S
C1979 C1978 1.369 . S
C1979 C1980 1.410 . S
C1979 C1987 1.503 . S
C1980 C1979 1.410 . S
C1980 C1981 1.392 . S
C1980 C1983 1.511 . S
C1981 C1977 1.376 . S
C1981 C1980 1.392 . S
C1981 H1993 0.929 . S
C1982 C1978 1.531 . S
C1982 H1994 0.960 . S
C1982 H1995 0.962 . S
C1982 H1996 0.960 . S
C1983 C1980 1.511 . S
C1983 H1997 0.961 . S
C1983 H1998 0.961 . S
C1983 H1999 0.961 . S
C1984 C1985 1.370 . S
C1984 C1986 1.363 . S
C1984 H2000 0.931 . S
C1985 C1984 1.370 . S
C1985 C1989 1.408 . S
C1986 C1984 1.363 . S
C1986 C1987 1.370 . S
C1986 C1990 1.524 . S
C1987 C1979 1.503 . S
C1987 C1986 1.370 . S
C1987 C1988 1.403 . S
C1988 C1987 1.403 . S
C1988 C1989 1.404 . S
C1988 C1991 1.539 . S
C1989 C1985 1.408 . S
C1989 C1988 1.404 . S
C1989 H2001 0.930 . S
C1990 C1986 1.524 . S
C1990 H2002 0.956 . S
C1990 H2003 0.961 . S
C1990 H2004 0.961 . S
C1991 C1988 1.539 . S
C1991 H2005 0.958 . S
C1991 H2006 0.961 . S
C1991 H2007 0.960 . S
H1992 C1976 0.931 . S
H1993 C1981 0.929 . S
H1994 C1982 0.960 . S
H1995 C1982 0.962 . S
H1996 C1982 0.960 . S
H1997 C1983 0.961 . S
H1998 C1983 0.961 . S
H1999 C1983 0.961 . S
H2000 C1984 0.931 . S
H2001 C1989 0.930 . S
H2002 C1990 0.956 . S
H2003 C1990 0.961 . S
H2004 C1990 0.961 . S
H2005 C1991 0.958 . S
H2006 C1991 0.961 . S
H2007 C1991 0.960 . S
C2008 C2009 1.391 . S
C2008 C2010 1.394 . S
C2008 H2024 0.931 . S
C2009 C2008 1.391 . S
C2009 C2013 1.376 . S
C2010 C2008 1.394 . S
C2010 C2011 1.369 . S
C2010 C2014 1.531 . S
C2011 C2010 1.369 . S
C2011 C2012 1.410 . S
C2011 C2019 1.503 . S
C2012 C2011 1.410 . S
C2012 C2013 1.392 . S
C2012 C2015 1.511 . S
C2013 C2009 1.376 . S
C2013 C2012 1.392 . S
C2013 H2025 0.929 . S
C2014 C2010 1.531 . S
C2014 H2026 0.960 . S
C2014 H2027 0.962 . S
C2014 H2028 0.960 . S
C2015 C2012 1.511 . S
C2015 H2029 0.961 . S
C2015 H2030 0.961 . S
C2015 H2031 0.961 . S
C2016 C2017 1.370 . S
C2016 C2018 1.363 . S
C2016 H2032 0.931 . S
C2017 C2016 1.370 . S
C2017 C2021 1.408 . S
C2018 C2016 1.363 . S
C2018 C2019 1.370 . S
C2018 C2022 1.524 . S
C2019 C2011 1.503 . S
C2019 C2018 1.370 . S
C2019 C2020 1.403 . S
C2020 C2019 1.403 . S
C2020 C2021 1.404 . S
C2020 C2023 1.539 . S
C2021 C2017 1.408 . S
C2021 C2020 1.404 . S
C2021 H2033 0.930 . S
C2022 C2018 1.524 . S
C2022 H2034 0.956 . S
C2022 H2035 0.961 . S
C2022 H2036 0.961 . S
C2023 C2020 1.539 . S
C2023 H2037 0.958 . S
C2023 H2038 0.961 . S
C2023 H2039 0.960 . S
H2024 C2008 0.931 . S
H2025 C2013 0.929 . S
H2026 C2014 0.960 . S
H2027 C2014 0.962 . S
H2028 C2014 0.960 . S
H2029 C2015 0.961 . S
H2030 C2015 0.961 . S
H2031 C2015 0.961 . S
H2032 C2016 0.931 . S
H2033 C2021 0.930 . S
H2034 C2022 0.956 . S
H2035 C2022 0.961 . S
H2036 C2022 0.961 . S
H2037 C2023 0.958 . S
H2038 C2023 0.961 . S
H2039 C2023 0.960 . S
C2040 C2041 1.391 . S
C2040 C2042 1.394 . S
C2040 H2056 0.931 . S
C2041 C2040 1.391 . S
C2041 C2045 1.376 . S
C2042 C2040 1.394 . S
C2042 C2043 1.369 . S
C2042 C2046 1.531 . S
C2043 C2042 1.369 . S
C2043 C2044 1.410 . S
C2043 C2051 1.503 . S
C2044 C2043 1.410 . S
C2044 C2045 1.392 . S
C2044 C2047 1.511 . S
C2045 C2041 1.376 . S
C2045 C2044 1.392 . S
C2045 H2057 0.929 . S
C2046 C2042 1.531 . S
C2046 H2058 0.960 . S
C2046 H2059 0.962 . S
C2046 H2060 0.960 . S
C2047 C2044 1.511 . S
C2047 H2061 0.961 . S
C2047 H2062 0.961 . S
C2047 H2063 0.961 . S
C2048 C2049 1.370 . S
C2048 C2050 1.363 . S
C2048 H2064 0.931 . S
C2049 C2048 1.370 . S
C2049 C2053 1.408 . S
C2050 C2048 1.363 . S
C2050 C2051 1.370 . S
C2050 C2054 1.524 . S
C2051 C2043 1.503 . S
C2051 C2050 1.370 . S
C2051 C2052 1.403 . S
C2052 C2051 1.403 . S
C2052 C2053 1.404 . S
C2052 C2055 1.539 . S
C2053 C2049 1.408 . S
C2053 C2052 1.404 . S
C2053 H2065 0.930 . S
C2054 C2050 1.524 . S
C2054 H2066 0.956 . S
C2054 H2067 0.961 . S
C2054 H2068 0.961 . S
C2055 C2052 1.539 . S
C2055 H2069 0.958 . S
C2055 H2070 0.961 . S
C2055 H2071 0.960 . S
H2056 C2040 0.931 . S
H2057 C2045 0.929 . S
H2058 C2046 0.960 . S
H2059 C2046 0.962 . S
H2060 C2046 0.960 . S
H2061 C2047 0.961 . S
H2062 C2047 0.961 . S
H2063 C2047 0.961 . S
H2064 C2048 0.931 . S
H2065 C2053 0.930 . S
H2066 C2054 0.956 . S
H2067 C2054 0.961 . S
H2068 C2054 0.961 . S
H2069 C2055 0.958 . S
H2070 C2055 0.961 . S
H2071 C2055 0.960 . S
C2072 C2073 1.391 . S
C2072 C2074 1.394 . S
C2072 H2088 0.931 . S
C2073 C2072 1.391 . S
C2073 C2077 1.376 . S
C2074 C2072 1.394 . S
C2074 C2075 1.369 . S
C2074 C2078 1.531 . S
C2075 C2074 1.369 . S
C2075 C2076 1.410 . S
C2075 C2083 1.503 . S
C2076 C2075 1.410 . S
C2076 C2077 1.392 . S
C2076 C2079 1.511 . S
C2077 C2073 1.376 . S
C2077 C2076 1.392 . S
C2077 H2089 0.929 . S
C2078 C2074 1.531 . S
C2078 H2090 0.960 . S
C2078 H2091 0.962 . S
C2078 H2092 0.960 . S
C2079 C2076 1.511 . S
C2079 H2093 0.961 . S
C2079 H2094 0.961 . S
C2079 H2095 0.961 . S
C2080 C2081 1.370 . S
C2080 C2082 1.363 . S
C2080 H2096 0.931 . S
C2081 C2080 1.370 . S
C2081 C2085 1.408 . S
C2082 C2080 1.363 . S
C2082 C2083 1.370 . S
C2082 C2086 1.524 . S
C2083 C2075 1.503 . S
C2083 C2082 1.370 . S
C2083 C2084 1.403 . S
C2084 C2083 1.403 . S
C2084 C2085 1.404 . S
C2084 C2087 1.539 . S
C2085 C2081 1.408 . S
C2085 C2084 1.404 . S
C2085 H2097 0.930 . S
C2086 C2082 1.524 . S
C2086 H2098 0.956 . S
C2086 H2099 0.961 . S
C2086 H2100 0.961 . S
C2087 C2084 1.539 . S
C2087 H2101 0.958 . S
C2087 H2102 0.961 . S
C2087 H2103 0.960 . S
H2088 C2072 0.931 . S
H2089 C2077 0.929 . S
H2090 C2078 0.960 . S
H2091 C2078 0.962 . S
H2092 C2078 0.960 . S
H2093 C2079 0.961 . S
H2094 C2079 0.961 . S
H2095 C2079 0.961 . S
H2096 C2080 0.931 . S
H2097 C2085 0.930 . S
H2098 C2086 0.956 . S
H2099 C2086 0.961 . S
H2100 C2086 0.961 . S
H2101 C2087 0.958 . S
H2102 C2087 0.961 . S
H2103 C2087 0.960 . S
C2104 C2105 1.391 . S
C2104 C2106 1.394 . S
C2104 H2120 0.931 . S
C2105 C2104 1.391 . S
C2105 C2109 1.376 . S
C2106 C2104 1.394 . S
C2106 C2107 1.369 . S
C2106 C2110 1.531 . S
C2107 C2106 1.369 . S
C2107 C2108 1.410 . S
C2107 C2115 1.503 . S
C2108 C2107 1.410 . S
C2108 C2109 1.392 . S
C2108 C2111 1.511 . S
C2109 C2105 1.376 . S
C2109 C2108 1.392 . S
C2109 H2121 0.929 . S
C2110 C2106 1.531 . S
C2110 H2122 0.960 . S
C2110 H2123 0.962 . S
C2110 H2124 0.960 . S
C2111 C2108 1.511 . S
C2111 H2125 0.961 . S
C2111 H2126 0.961 . S
C2111 H2127 0.961 . S
C2112 C2113 1.370 . S
C2112 C2114 1.363 . S
C2112 H2128 0.931 . S
C2113 C2112 1.370 . S
C2113 C2117 1.408 . S
C2114 C2112 1.363 . S
C2114 C2115 1.370 . S
C2114 C2118 1.524 . S
C2115 C2107 1.503 . S
C2115 C2114 1.370 . S
C2115 C2116 1.403 . S
C2116 C2115 1.403 . S
C2116 C2117 1.404 . S
C2116 C2119 1.539 . S
C2117 C2113 1.408 . S
C2117 C2116 1.404 . S
C2117 H2129 0.930 . S
C2118 C2114 1.524 . S
C2118 H2130 0.956 . S
C2118 H2131 0.961 . S
C2118 H2132 0.961 . S
C2119 C2116 1.539 . S
C2119 H2133 0.958 . S
C2119 H2134 0.961 . S
C2119 H2135 0.960 . S
H2120 C2104 0.931 . S
H2121 C2109 0.929 . S
H2122 C2110 0.960 . S
H2123 C2110 0.962 . S
H2124 C2110 0.960 . S
H2125 C2111 0.961 . S
H2126 C2111 0.961 . S
H2127 C2111 0.961 . S
H2128 C2112 0.931 . S
H2129 C2117 0.930 . S
H2130 C2118 0.956 . S
H2131 C2118 0.961 . S
H2132 C2118 0.961 . S
H2133 C2119 0.958 . S
H2134 C2119 0.961 . S
H2135 C2119 0.960 . S
C2136 C2137 1.391 . S
C2136 C2138 1.394 . S
C2136 H2152 0.931 . S
C2137 C2136 1.391 . S
C2137 C2141 1.376 . S
C2138 C2136 1.394 . S
C2138 C2139 1.369 . S
C2138 C2142 1.531 . S
C2139 C2138 1.369 . S
C2139 C2140 1.410 . S
C2139 C2147 1.503 . S
C2140 C2139 1.410 . S
C2140 C2141 1.392 . S
C2140 C2143 1.511 . S
C2141 C2137 1.376 . S
C2141 C2140 1.392 . S
C2141 H2153 0.929 . S
C2142 C2138 1.531 . S
C2142 H2154 0.960 . S
C2142 H2155 0.962 . S
C2142 H2156 0.960 . S
C2143 C2140 1.511 . S
C2143 H2157 0.961 . S
C2143 H2158 0.961 . S
C2143 H2159 0.961 . S
C2144 C2145 1.370 . S
C2144 C2146 1.363 . S
C2144 H2160 0.931 . S
C2145 C2144 1.370 . S
C2145 C2149 1.408 . S
C2146 C2144 1.363 . S
C2146 C2147 1.370 . S
C2146 C2150 1.524 . S
C2147 C2139 1.503 . S
C2147 C2146 1.370 . S
C2147 C2148 1.403 . S
C2148 C2147 1.403 . S
C2148 C2149 1.404 . S
C2148 C2151 1.539 . S
C2149 C2145 1.408 . S
C2149 C2148 1.404 . S
C2149 H2161 0.930 . S
C2150 C2146 1.524 . S
C2150 H2162 0.956 . S
C2150 H2163 0.961 . S
C2150 H2164 0.961 . S
C2151 C2148 1.539 . S
C2151 H2165 0.958 . S
C2151 H2166 0.961 . S
C2151 H2167 0.960 . S
H2152 C2136 0.931 . S
H2153 C2141 0.929 . S
H2154 C2142 0.960 . S
H2155 C2142 0.962 . S
H2156 C2142 0.960 . S
H2157 C2143 0.961 . S
H2158 C2143 0.961 . S
H2159 C2143 0.961 . S
H2160 C2144 0.931 . S
H2161 C2149 0.930 . S
H2162 C2150 0.956 . S
H2163 C2150 0.961 . S
H2164 C2150 0.961 . S
H2165 C2151 0.958 . S
H2166 C2151 0.961 . S
H2167 C2151 0.960 . S
C2168 C2169 1.391 . S
C2168 C2170 1.394 . S
C2168 H2184 0.931 . S
C2169 C2168 1.391 . S
C2169 C2173 1.376 . S
C2170 C2168 1.394 . S
C2170 C2171 1.369 . S
C2170 C2174 1.531 . S
C2171 C2170 1.369 . S
C2171 C2172 1.410 . S
C2171 C2179 1.503 . S
C2172 C2171 1.410 . S
C2172 C2173 1.392 . S
C2172 C2175 1.511 . S
C2173 C2169 1.376 . S
C2173 C2172 1.392 . S
C2173 H2185 0.929 . S
C2174 C2170 1.531 . S
C2174 H2186 0.960 . S
C2174 H2187 0.962 . S
C2174 H2188 0.960 . S
C2175 C2172 1.511 . S
C2175 H2189 0.961 . S
C2175 H2190 0.961 . S
C2175 H2191 0.961 . S
C2176 C2177 1.370 . S
C2176 C2178 1.363 . S
C2176 H2192 0.931 . S
C2177 C2176 1.370 . S
C2177 C2181 1.408 . S
C2178 C2176 1.363 . S
C2178 C2179 1.370 . S
C2178 C2182 1.524 . S
C2179 C2171 1.503 . S
C2179 C2178 1.370 . S
C2179 C2180 1.403 . S
C2180 C2179 1.403 . S
C2180 C2181 1.404 . S
C2180 C2183 1.539 . S
C2181 C2177 1.408 . S
C2181 C2180 1.404 . S
C2181 H2193 0.930 . S
C2182 C2178 1.524 . S
C2182 H2194 0.956 . S
C2182 H2195 0.961 . S
C2182 H2196 0.961 . S
C2183 C2180 1.539 . S
C2183 H2197 0.958 . S
C2183 H2198 0.961 . S
C2183 H2199 0.960 . S
H2184 C2168 0.931 . S
H2185 C2173 0.929 . S
H2186 C2174 0.960 . S
H2187 C2174 0.962 . S
H2188 C2174 0.960 . S
H2189 C2175 0.961 . S
H2190 C2175 0.961 . S
H2191 C2175 0.961 . S
H2192 C2176 0.931 . S
H2193 C2181 0.930 . S
H2194 C2182 0.956 . S
H2195 C2182 0.961 . S
H2196 C2182 0.961 . S
H2197 C2183 0.958 . S
H2198 C2183 0.961 . S
H2199 C2183 0.960 . S
C2200 C2201 1.391 . S
C2200 C2202 1.394 . S
C2200 H2216 0.931 . S
C2201 C2200 1.391 . S
C2201 C2205 1.376 . S
C2202 C2200 1.394 . S
C2202 C2203 1.369 . S
C2202 C2206 1.531 . S
C2203 C2202 1.369 . S
C2203 C2204 1.410 . S
C2203 C2211 1.503 . S
C2204 C2203 1.410 . S
C2204 C2205 1.392 . S
C2204 C2207 1.511 . S
C2205 C2201 1.376 . S
C2205 C2204 1.392 . S
C2205 H2217 0.929 . S
C2206 C2202 1.531 . S
C2206 H2218 0.960 . S
C2206 H2219 0.962 . S
C2206 H2220 0.960 . S
C2207 C2204 1.511 . S
C2207 H2221 0.961 . S
C2207 H2222 0.961 . S
C2207 H2223 0.961 . S
C2208 C2209 1.370 . S
C2208 C2210 1.363 . S
C2208 H2224 0.931 . S
C2209 C2208 1.370 . S
C2209 C2213 1.408 . S
C2210 C2208 1.363 . S
C2210 C2211 1.370 . S
C2210 C2214 1.524 . S
C2211 C2203 1.503 . S
C2211 C2210 1.370 . S
C2211 C2212 1.403 . S
C2212 C2211 1.403 . S
C2212 C2213 1.404 . S
C2212 C2215 1.539 . S
C2213 C2209 1.408 . S
C2213 C2212 1.404 . S
C2213 H2225 0.930 . S
C2214 C2210 1.524 . S
C2214 H2226 0.956 . S
C2214 H2227 0.961 . S
C2214 H2228 0.961 . S
C2215 C2212 1.539 . S
C2215 H2229 0.958 . S
C2215 H2230 0.961 . S
C2215 H2231 0.960 . S
H2216 C2200 0.931 . S
H2217 C2205 0.929 . S
H2218 C2206 0.960 . S
H2219 C2206 0.962 . S
H2220 C2206 0.960 . S
H2221 C2207 0.961 . S
H2222 C2207 0.961 . S
H2223 C2207 0.961 . S
H2224 C2208 0.931 . S
H2225 C2213 0.930 . S
H2226 C2214 0.956 . S
H2227 C2214 0.961 . S
H2228 C2214 0.961 . S
H2229 C2215 0.958 . S
H2230 C2215 0.961 . S
H2231 C2215 0.960 . S
C2232 C2233 1.391 . S
C2232 C2234 1.394 . S
C2232 H2248 0.931 . S
C2233 C2232 1.391 . S
C2233 C2237 1.376 . S
C2234 C2232 1.394 . S
C2234 C2235 1.369 . S
C2234 C2238 1.531 . S
C2235 C2234 1.369 . S
C2235 C2236 1.410 . S
C2235 C2243 1.503 . S
C2236 C2235 1.410 . S
C2236 C2237 1.392 . S
C2236 C2239 1.511 . S
C2237 C2233 1.376 . S
C2237 C2236 1.392 . S
C2237 H2249 0.929 . S
C2238 C2234 1.531 . S
C2238 H2250 0.960 . S
C2238 H2251 0.962 . S
C2238 H2252 0.960 . S
C2239 C2236 1.511 . S
C2239 H2253 0.961 . S
C2239 H2254 0.961 . S
C2239 H2255 0.961 . S
C2240 C2241 1.370 . S
C2240 C2242 1.363 . S
C2240 H2256 0.931 . S
C2241 C2240 1.370 . S
C2241 C2245 1.408 . S
C2242 C2240 1.363 . S
C2242 C2243 1.370 . S
C2242 C2246 1.524 . S
C2243 C2235 1.503 . S
C2243 C2242 1.370 . S
C2243 C2244 1.403 . S
C2244 C2243 1.403 . S
C2244 C2245 1.404 . S
C2244 C2247 1.539 . S
C2245 C2241 1.408 . S
C2245 C2244 1.404 . S
C2245 H2257 0.930 . S
C2246 C2242 1.524 . S
C2246 H2258 0.956 . S
C2246 H2259 0.961 . S
C2246 H2260 0.961 . S
C2247 C2244 1.539 . S
C2247 H2261 0.958 . S
C2247 H2262 0.961 . S
C2247 H2263 0.960 . S
H2248 C2232 0.931 . S
H2249 C2237 0.929 . S
H2250 C2238 0.960 . S
H2251 C2238 0.962 . S
H2252 C2238 0.960 . S
H2253 C2239 0.961 . S
H2254 C2239 0.961 . S
H2255 C2239 0.961 . S
H2256 C2240 0.931 . S
H2257 C2245 0.930 . S
H2258 C2246 0.956 . S
H2259 C2246 0.961 . S
H2260 C2246 0.961 . S
H2261 C2247 0.958 . S
H2262 C2247 0.961 . S
H2263 C2247 0.960 . S
C2264 C2265 1.391 1_545 S
C2264 C2266 1.394 . S
C2264 H2280 0.931 . S
C2265 C2264 1.391 1_565 S
C2265 C2269 1.376 . S
C2266 C2264 1.394 . S
C2266 C2267 1.369 . S
C2266 C2270 1.531 . S
C2267 C2266 1.369 . S
C2267 C2268 1.410 1_545 S
C2267 C2275 1.503 . S
C2268 C2267 1.410 1_565 S
C2268 C2269 1.392 . S
C2268 C2271 1.511 . S
C2269 C2265 1.376 . S
C2269 C2268 1.392 . S
C2269 H2281 0.929 . S
C2270 C2266 1.531 . S
C2270 H2282 0.960 . S
C2270 H2283 0.962 . S
C2270 H2284 0.960 . S
C2271 C2268 1.511 . S
C2271 H2285 0.961 . S
C2271 H2286 0.961 . S
C2271 H2287 0.961 . S
C2272 C2273 1.370 . S
C2272 C2274 1.363 . S
C2272 H2288 0.931 . S
C2273 C2272 1.370 . S
C2273 C2277 1.408 . S
C2274 C2272 1.363 . S
C2274 C2275 1.370 . S
C2274 C2278 1.524 . S
C2275 C2267 1.503 . S
C2275 C2274 1.370 . S
C2275 C2276 1.403 . S
C2276 C2275 1.403 . S
C2276 C2277 1.404 . S
C2276 C2279 1.539 . S
C2277 C2273 1.408 . S
C2277 C2276 1.404 . S
C2277 H2289 0.930 . S
C2278 C2274 1.524 . S
C2278 H2290 0.956 . S
C2278 H2291 0.961 1_545 S
C2278 H2292 0.961 . S
C2279 C2276 1.539 . S
C2279 H2293 0.958 . S
C2279 H2294 0.961 . S
C2279 H2295 0.960 . S
H2280 C2264 0.931 . S
H2281 C2269 0.929 . S
H2282 C2270 0.960 . S
H2283 C2270 0.962 . S
H2284 C2270 0.960 . S
H2285 C2271 0.961 . S
H2286 C2271 0.961 . S
H2287 C2271 0.961 . S
H2288 C2272 0.931 . S
H2289 C2277 0.930 . S
H2290 C2278 0.956 . S
H2291 C2278 0.961 1_565 S
H2292 C2278 0.961 . S
H2293 C2279 0.958 . S
H2294 C2279 0.961 . S
H2295 C2279 0.960 . S
C2296 C2297 1.391 . S
C2296 C2298 1.394 . S
C2296 H2312 0.931 . S
C2297 C2296 1.391 . S
C2297 C2301 1.376 . S
C2298 C2296 1.394 . S
C2298 C2299 1.369 . S
C2298 C2302 1.531 1_655 S
C2299 C2298 1.369 . S
C2299 C2300 1.410 . S
C2299 C2307 1.503 . S
C2300 C2299 1.410 . S
C2300 C2301 1.392 . S
C2300 C2303 1.511 . S
C2301 C2297 1.376 . S
C2301 C2300 1.392 . S
C2301 H2313 0.929 . S
C2302 C2298 1.531 1_455 S
C2302 H2314 0.960 . S
C2302 H2315 0.962 . S
C2302 H2316 0.960 . S
C2303 C2300 1.511 . S
C2303 H2317 0.961 . S
C2303 H2318 0.961 . S
C2303 H2319 0.961 . S
C2304 C2305 1.385 . S
C2304 C2306 1.335 1_455 S
C2304 H2320 0.945 . S
C2305 C2304 1.385 . S
C2305 C2309 1.408 . S
C2306 C2304 1.335 1_655 S
C2306 C2307 1.370 . S
C2306 C2310 1.524 . S
C2307 C2299 1.503 . S
C2307 C2306 1.370 . S
C2307 C2308 1.403 1_655 S
C2308 C2307 1.403 1_455 S
C2308 C2309 1.404 . S
C2308 C2311 1.539 . S
C2309 C2305 1.408 . S
C2309 C2308 1.404 . S
C2309 H2321 0.930 . S
C2310 C2306 1.524 . S
C2310 H2322 0.956 . S
C2310 H2323 0.961 . S
C2310 H2324 0.961 . S
C2311 C2308 1.539 . S
C2311 H2325 0.958 . S
C2311 H2326 0.962 1_455 S
C2311 H2327 0.960 1_455 S
H2312 C2296 0.931 . S
H2313 C2301 0.929 . S
H2314 C2302 0.960 . S
H2315 C2302 0.962 . S
H2316 C2302 0.960 . S
H2317 C2303 0.961 . S
H2318 C2303 0.961 . S
H2319 C2303 0.961 . S
H2320 C2304 0.945 . S
H2321 C2309 0.930 . S
H2322 C2310 0.956 . S
H2323 C2310 0.961 . S
H2324 C2310 0.961 . S
H2325 C2311 0.958 . S
H2326 C2311 0.962 1_655 S
H2327 C2311 0.960 1_655 S
C2328 C2329 1.391 . S
C2328 C2330 1.394 . S
C2328 H2344 0.931 . S
C2329 C2328 1.391 . S
C2329 C2333 1.376 . S
C2330 C2328 1.394 . S
C2330 C2331 1.369 . S
C2330 C2334 1.531 . S
C2331 C2330 1.369 . S
C2331 C2332 1.410 . S
C2331 C2339 1.503 . S
C2332 C2331 1.410 . S
C2332 C2333 1.392 . S
C2332 C2335 1.511 . S
C2333 C2329 1.376 . S
C2333 C2332 1.392 . S
C2333 H2345 0.929 . S
C2334 C2330 1.531 . S
C2334 H2346 0.960 . S
C2334 H2347 0.962 . S
C2334 H2348 0.960 . S
C2335 C2332 1.511 . S
C2335 H2349 0.961 . S
C2335 H2350 0.961 . S
C2335 H2351 0.961 . S
C2336 C2337 1.370 . S
C2336 C2338 1.363 . S
C2336 H2352 0.931 . S
C2337 C2336 1.370 . S
C2337 C2341 1.408 . S
C2338 C2336 1.363 . S
C2338 C2339 1.370 . S
C2338 C2342 1.524 . S
C2339 C2331 1.503 . S
C2339 C2338 1.370 . S
C2339 C2340 1.403 . S
C2340 C2339 1.403 . S
C2340 C2341 1.404 . S
C2340 C2343 1.539 . S
C2341 C2337 1.408 . S
C2341 C2340 1.404 . S
C2341 H2353 0.930 . S
C2342 C2338 1.524 . S
C2342 H2354 0.956 . S
C2342 H2355 0.961 . S
C2342 H2356 0.961 . S
C2343 C2340 1.539 . S
C2343 H2357 0.958 . S
C2343 H2358 0.961 . S
C2343 H2359 0.960 . S
H2344 C2328 0.931 . S
H2345 C2333 0.929 . S
H2346 C2334 0.960 . S
H2347 C2334 0.962 . S
H2348 C2334 0.960 . S
H2349 C2335 0.961 . S
H2350 C2335 0.961 . S
H2351 C2335 0.961 . S
H2352 C2336 0.931 . S
H2353 C2341 0.930 . S
H2354 C2342 0.956 . S
H2355 C2342 0.961 . S
H2356 C2342 0.961 . S
H2357 C2343 0.958 . S
H2358 C2343 0.961 . S
H2359 C2343 0.960 . S
C2360 C2361 1.391 1_565 S
C2360 C2362 1.394 . S
C2360 H2376 0.931 . S
C2361 C2360 1.391 1_545 S
C2361 C2365 1.376 . S
C2362 C2360 1.394 . S
C2362 C2363 1.369 . S
C2362 C2366 1.531 . S
C2363 C2362 1.369 . S
C2363 C2364 1.410 . S
C2363 C2371 1.503 . S
C2364 C2363 1.410 . S
C2364 C2365 1.392 1_565 S
C2364 C2367 1.511 1_565 S
C2365 C2361 1.376 . S
C2365 C2364 1.392 1_545 S
C2365 H2377 0.929 . S
C2366 C2362 1.531 . S
C2366 H2378 0.960 . S
C2366 H2379 0.962 . S
C2366 H2380 0.960 . S
C2367 C2364 1.511 1_545 S
C2367 H2381 0.961 . S
C2367 H2382 0.963 1_545 S
C2367 H2383 0.961 1_545 S
C2368 C2369 1.370 . S
C2368 C2370 1.363 . S
C2368 H2384 0.931 . S
C2369 C2368 1.370 . S
C2369 C2373 1.408 . S
C2370 C2368 1.363 . S
C2370 C2371 1.370 . S
C2370 C2374 1.524 1_565 S
C2371 C2363 1.503 . S
C2371 C2370 1.370 . S
C2371 C2372 1.403 . S
C2372 C2371 1.403 . S
C2372 C2373 1.404 . S
C2372 C2375 1.539 . S
C2373 C2369 1.408 . S
C2373 C2372 1.404 . S
C2373 H2385 0.930 . S
C2374 C2370 1.524 1_545 S
C2374 H2386 0.956 . S
C2374 H2387 0.961 . S
C2374 H2388 0.961 . S
C2375 C2372 1.539 . S
C2375 H2389 0.958 . S
C2375 H2390 0.961 . S
C2375 H2391 0.960 . S
H2376 C2360 0.931 . S
H2377 C2365 0.929 . S
H2378 C2366 0.960 . S
H2379 C2366 0.962 . S
H2380 C2366 0.960 . S
H2381 C2367 0.961 . S
H2382 C2367 0.963 1_565 S
H2383 C2367 0.961 1_565 S
H2384 C2368 0.931 . S
H2385 C2373 0.930 . S
H2386 C2374 0.956 . S
H2387 C2374 0.961 . S
H2388 C2374 0.961 . S
H2389 C2375 0.958 . S
H2390 C2375 0.961 . S
H2391 C2375 0.960 . S
C2392 C2393 1.391 . S
C2392 C2394 1.394 . S
C2392 H2408 0.931 . S
C2393 C2392 1.391 . S
C2393 C2397 1.376 . S
C2394 C2392 1.394 . S
C2394 C2395 1.369 . S
C2394 C2398 1.531 1_455 S
C2395 C2394 1.369 . S
C2395 C2396 1.410 . S
C2395 C2403 1.503 . S
C2396 C2395 1.410 . S
C2396 C2397 1.392 . S
C2396 C2399 1.511 . S
C2397 C2393 1.376 . S
C2397 C2396 1.392 . S
C2397 H2409 0.929 . S
C2398 C2394 1.531 1_655 S
C2398 H2410 0.960 . S
C2398 H2411 0.962 . S
C2398 H2412 0.960 . S
C2399 C2396 1.511 . S
C2399 H2413 0.961 . S
C2399 H2414 0.961 . S
C2399 H2415 0.961 . S
C2400 C2401 1.370 1_455 S
C2400 C2402 1.363 . S
C2400 H2416 0.931 . S
C2401 C2400 1.370 1_655 S
C2401 C2405 1.408 . S
C2402 C2400 1.363 . S
C2402 C2403 1.370 . S
C2402 C2406 1.524 . S
C2403 C2395 1.503 . S
C2403 C2402 1.370 . S
C2403 C2404 1.403 1_455 S
C2404 C2403 1.403 1_655 S
C2404 C2405 1.404 . S
C2404 C2407 1.539 . S
C2405 C2401 1.408 . S
C2405 C2404 1.404 . S
C2405 H2417 0.930 . S
C2406 C2402 1.524 . S
C2406 H2418 0.956 . S
C2406 H2419 0.961 . S
C2406 H2420 0.961 . S
C2407 C2404 1.539 . S
C2407 H2421 0.958 . S
C2407 H2422 0.961 . S
C2407 H2423 0.960 1_655 S
H2408 C2392 0.931 . S
H2409 C2397 0.929 . S
H2410 C2398 0.960 . S
H2411 C2398 0.962 . S
H2412 C2398 0.960 . S
H2413 C2399 0.961 . S
H2414 C2399 0.961 . S
H2415 C2399 0.961 . S
H2416 C2400 0.931 . S
H2417 C2405 0.930 . S
H2418 C2406 0.956 . S
H2419 C2406 0.961 . S
H2420 C2406 0.961 . S
H2421 C2407 0.958 . S
H2422 C2407 0.961 . S
H2423 C2407 0.960 1_455 S
C2424 C2425 1.391 . S
C2424 C2426 1.394 . S
C2424 H2440 0.931 . S
C2425 C2424 1.391 . S
C2425 C2429 1.376 . S
C2426 C2424 1.394 . S
C2426 C2427 1.369 . S
C2426 C2430 1.531 . S
C2427 C2426 1.369 . S
C2427 C2428 1.410 . S
C2427 C2435 1.503 . S
C2428 C2427 1.410 . S
C2428 C2429 1.392 . S
C2428 C2431 1.511 . S
C2429 C2425 1.376 . S
C2429 C2428 1.392 . S
C2429 H2441 0.929 . S
C2430 C2426 1.531 . S
C2430 H2442 0.960 . S
C2430 H2443 0.962 . S
C2430 H2444 0.960 . S
C2431 C2428 1.511 . S
C2431 H2445 0.961 . S
C2431 H2446 0.961 . S
C2431 H2447 0.961 . S
C2432 C2433 1.370 . S
C2432 C2434 1.363 . S
C2432 H2448 0.931 . S
C2433 C2432 1.370 . S
C2433 C2437 1.408 . S
C2434 C2432 1.363 . S
C2434 C2435 1.370 . S
C2434 C2438 1.524 . S
C2435 C2427 1.503 . S
C2435 C2434 1.370 . S
C2435 C2436 1.403 . S
C2436 C2435 1.403 . S
C2436 C2437 1.404 . S
C2436 C2439 1.539 . S
C2437 C2433 1.408 . S
C2437 C2436 1.404 . S
C2437 H2449 0.930 . S
C2438 C2434 1.524 . S
C2438 H2450 0.956 . S
C2438 H2451 0.961 . S
C2438 H2452 0.961 . S
C2439 C2436 1.539 . S
C2439 H2453 0.958 . S
C2439 H2454 0.961 . S
C2439 H2455 0.960 . S
H2440 C2424 0.931 . S
H2441 C2429 0.929 . S
H2442 C2430 0.960 . S
H2443 C2430 0.962 . S
H2444 C2430 0.960 . S
H2445 C2431 0.961 . S
H2446 C2431 0.961 . S
H2447 C2431 0.961 . S
H2448 C2432 0.931 . S
H2449 C2437 0.930 . S
H2450 C2438 0.956 . S
H2451 C2438 0.961 . S
H2452 C2438 0.961 . S
H2453 C2439 0.958 . S
H2454 C2439 0.961 . S
H2455 C2439 0.960 . S
C2456 C2457 1.391 . S
C2456 C2458 1.394 . S
C2456 H2472 0.931 . S
C2457 C2456 1.391 . S
C2457 C2461 1.376 . S
C2458 C2456 1.394 . S
C2458 C2459 1.369 . S
C2458 C2462 1.531 . S
C2459 C2458 1.369 . S
C2459 C2460 1.410 . S
C2459 C2467 1.503 . S
C2460 C2459 1.410 . S
C2460 C2461 1.392 . S
C2460 C2463 1.482 1_565 S
C2461 C2457 1.376 . S
C2461 C2460 1.392 . S
C2461 H2473 0.929 . S
C2462 C2458 1.531 . S
C2462 H2474 0.960 . S
C2462 H2475 0.962 . S
C2462 H2476 0.960 . S
C2463 C2460 1.482 1_545 S
C2463 H2477 0.996 . S
C2463 H2478 0.969 . S
C2463 H2479 0.949 1_545 S
C2464 C2465 1.370 . S
C2464 C2466 1.363 . S
C2464 H2480 0.931 . S
C2465 C2464 1.370 . S
C2465 C2469 1.408 1_545 S
C2466 C2464 1.363 . S
C2466 C2467 1.370 1_545 S
C2466 C2470 1.524 . S
C2467 C2459 1.503 . S
C2467 C2466 1.370 1_565 S
C2467 C2468 1.403 . S
C2468 C2467 1.403 . S
C2468 C2469 1.404 . S
C2468 C2471 1.539 . S
C2469 C2465 1.408 1_565 S
C2469 C2468 1.404 . S
C2469 H2481 0.930 . S
C2470 C2466 1.524 . S
C2470 H2482 0.956 1_545 S
C2470 H2483 0.961 . S
C2470 H2484 0.961 . S
C2471 C2468 1.539 . S
C2471 H2485 0.958 . S
C2471 H2486 0.961 . S
C2471 H2487 0.960 . S
H2472 C2456 0.931 . S
H2473 C2461 0.929 . S
H2474 C2462 0.960 . S
H2475 C2462 0.962 . S
H2476 C2462 0.960 . S
H2477 C2463 0.996 . S
H2478 C2463 0.969 . S
H2479 C2463 0.949 1_565 S
H2480 C2464 0.931 . S
H2481 C2469 0.930 . S
H2482 C2470 0.956 1_565 S
H2483 C2470 0.961 . S
H2484 C2470 0.961 . S
H2485 C2471 0.958 . S
H2486 C2471 0.961 . S
H2487 C2471 0.960 . S
C2488 C2489 1.391 . S
C2488 C2490 1.394 . S
C2488 H2504 0.931 . S
C2489 C2488 1.391 . S
C2489 C2493 1.376 . S
C2490 C2488 1.394 . S
C2490 C2491 1.369 . S
C2490 C2494 1.531 1_455 S
C2491 C2490 1.369 . S
C2491 C2492 1.410 . S
C2491 C2499 1.503 . S
C2492 C2491 1.410 . S
C2492 C2493 1.392 . S
C2492 C2495 1.511 . S
C2493 C2489 1.376 . S
C2493 C2492 1.392 . S
C2493 H2505 0.929 . S
C2494 C2490 1.531 1_655 S
C2494 H2506 0.960 . S
C2494 H2507 0.962 . S
C2494 H2508 0.960 . S
C2495 C2492 1.511 . S
C2495 H2509 0.961 . S
C2495 H2510 0.961 . S
C2495 H2511 0.961 . S
C2496 C2497 1.370 . S
C2496 C2498 1.363 1_655 S
C2496 H2512 0.931 . S
C2497 C2496 1.370 . S
C2497 C2501 1.408 . S
C2498 C2496 1.363 1_455 S
C2498 C2499 1.370 . S
C2498 C2502 1.524 . S
C2499 C2491 1.503 . S
C2499 C2498 1.370 . S
C2499 C2500 1.403 . S
C2500 C2499 1.403 . S
C2500 C2501 1.404 1_455 S
C2500 C2503 1.539 . S
C2501 C2497 1.408 . S
C2501 C2500 1.404 1_655 S
C2501 H2513 0.930 . S
C2502 C2498 1.524 . S
C2502 H2514 0.956 . S
C2502 H2515 0.961 . S
C2502 H2516 0.961 . S
C2503 C2500 1.539 . S
C2503 H2517 0.958 . S
C2503 H2518 0.961 . S
C2503 H2519 0.960 . S
H2504 C2488 0.931 . S
H2505 C2493 0.929 . S
H2506 C2494 0.960 . S
H2507 C2494 0.962 . S
H2508 C2494 0.960 . S
H2509 C2495 0.961 . S
H2510 C2495 0.961 . S
H2511 C2495 0.961 . S
H2512 C2496 0.931 . S
H2513 C2501 0.930 . S
H2514 C2502 0.956 . S
H2515 C2502 0.961 . S
H2516 C2502 0.961 . S
H2517 C2503 0.958 . S
H2518 C2503 0.961 . S
H2519 C2503 0.960 . S
C2520 C2521 1.391 . S
C2520 C2522 1.394 . S
C2520 H2536 0.931 . S
C2521 C2520 1.391 . S
C2521 C2525 1.376 . S
C2522 C2520 1.394 . S
C2522 C2523 1.369 . S
C2522 C2526 1.531 . S
C2523 C2522 1.369 . S
C2523 C2524 1.410 . S
C2523 C2531 1.503 . S
C2524 C2523 1.410 . S
C2524 C2525 1.392 . S
C2524 C2527 1.511 . S
C2525 C2521 1.376 . S
C2525 C2524 1.392 . S
C2525 H2537 0.929 . S
C2526 C2522 1.531 . S
C2526 H2538 0.960 . S
C2526 H2539 0.962 . S
C2526 H2540 0.960 . S
C2527 C2524 1.511 . S
C2527 H2541 0.961 . S
C2527 H2542 0.961 . S
C2527 H2543 0.961 . S
C2528 C2529 1.370 . S
C2528 C2530 1.363 . S
C2528 H2544 0.931 . S
C2529 C2528 1.370 . S
C2529 C2533 1.408 . S
C2530 C2528 1.363 . S
C2530 C2531 1.370 . S
C2530 C2534 1.524 . S
C2531 C2523 1.503 . S
C2531 C2530 1.370 . S
C2531 C2532 1.403 . S
C2532 C2531 1.403 . S
C2532 C2533 1.404 . S
C2532 C2535 1.539 . S
C2533 C2529 1.408 . S
C2533 C2532 1.404 . S
C2533 H2545 0.930 . S
C2534 C2530 1.524 . S
C2534 H2546 0.956 . S
C2534 H2547 0.961 . S
C2534 H2548 0.961 . S
C2535 C2532 1.539 . S
C2535 H2549 0.958 . S
C2535 H2550 0.961 . S
C2535 H2551 0.960 . S
H2536 C2520 0.931 . S
H2537 C2525 0.929 . S
H2538 C2526 0.960 . S
H2539 C2526 0.962 . S
H2540 C2526 0.960 . S
H2541 C2527 0.961 . S
H2542 C2527 0.961 . S
H2543 C2527 0.961 . S
H2544 C2528 0.931 . S
H2545 C2533 0.930 . S
H2546 C2534 0.956 . S
H2547 C2534 0.961 . S
H2548 C2534 0.961 . S
H2549 C2535 0.958 . S
H2550 C2535 0.961 . S
H2551 C2535 0.960 . S
C2552 C2553 1.391 . S
C2552 C2554 1.394 . S
C2552 H2568 0.931 . S
C2553 C2552 1.391 . S
C2553 C2557 1.376 . S
C2554 C2552 1.394 . S
C2554 C2555 1.369 . S
C2554 C2558 1.531 . S
C2555 C2554 1.369 . S
C2555 C2556 1.410 . S
C2555 C2563 1.503 . S
C2556 C2555 1.410 . S
C2556 C2557 1.392 . S
C2556 C2559 1.511 . S
C2557 C2553 1.376 . S
C2557 C2556 1.392 . S
C2557 H2569 0.929 . S
C2558 C2554 1.531 . S
C2558 H2570 0.960 . S
C2558 H2571 0.962 1_545 S
C2558 H2572 0.960 . S
C2559 C2556 1.511 . S
C2559 H2573 0.961 . S
C2559 H2574 0.961 . S
C2559 H2575 0.961 . S
C2560 C2561 1.370 . S
C2560 C2562 1.363 . S
C2560 H2576 0.931 . S
C2561 C2560 1.370 . S
C2561 C2565 1.408 1_565 S
C2562 C2560 1.363 . S
C2562 C2563 1.370 1_565 S
C2562 C2566 1.524 . S
C2563 C2555 1.503 . S
C2563 C2562 1.370 1_545 S
C2563 C2564 1.403 . S
C2564 C2563 1.403 . S
C2564 C2565 1.404 . S
C2564 C2567 1.539 . S
C2565 C2561 1.408 1_545 S
C2565 C2564 1.404 . S
C2565 H2577 0.930 . S
C2566 C2562 1.524 . S
C2566 H2578 0.956 . S
C2566 H2579 0.961 . S
C2566 H2580 0.961 . S
C2567 C2564 1.539 . S
C2567 H2581 0.958 . S
C2567 H2582 0.961 . S
C2567 H2583 0.960 . S
H2568 C2552 0.931 . S
H2569 C2557 0.929 . S
H2570 C2558 0.960 . S
H2571 C2558 0.962 1_565 S
H2572 C2558 0.960 . S
H2573 C2559 0.961 . S
H2574 C2559 0.961 . S
H2575 C2559 0.961 . S
H2576 C2560 0.931 . S
H2577 C2565 0.930 . S
H2578 C2566 0.956 . S
H2579 C2566 0.961 . S
H2580 C2566 0.961 . S
H2581 C2567 0.958 . S
H2582 C2567 0.961 . S
H2583 C2567 0.960 . S
C2584 C2585 1.391 1_655 S
C2584 C2586 1.394 . S
C2584 H2600 0.931 . S
C2585 C2584 1.391 1_455 S
C2585 C2589 1.376 . S
C2586 C2584 1.394 . S
C2586 C2587 1.369 . S
C2586 C2590 1.531 . S
C2587 C2586 1.369 . S
C2587 C2588 1.410 1_655 S
C2587 C2595 1.503 . S
C2588 C2587 1.410 1_455 S
C2588 C2589 1.392 . S
C2588 C2591 1.511 . S
C2589 C2585 1.376 . S
C2589 C2588 1.392 . S
C2589 H2601 0.929 . S
C2590 C2586 1.531 . S
C2590 H2602 0.960 . S
C2590 H2603 0.962 . S
C2590 H2604 0.960 . S
C2591 C2588 1.511 . S
C2591 H2605 0.961 . S
C2591 H2606 0.961 . S
C2591 H2607 0.961 . S
C2592 C2593 1.370 . S
C2592 C2594 1.363 . S
C2592 H2608 0.931 . S
C2593 C2592 1.370 . S
C2593 C2597 1.408 . S
C2594 C2592 1.363 . S
C2594 C2595 1.370 . S
C2594 C2598 1.524 . S
C2595 C2587 1.503 . S
C2595 C2594 1.370 . S
C2595 C2596 1.403 . S
C2596 C2595 1.403 . S
C2596 C2597 1.404 . S
C2596 C2599 1.539 1_655 S
C2597 C2593 1.408 . S
C2597 C2596 1.404 . S
C2597 H2609 0.930 . S
C2598 C2594 1.524 . S
C2598 H2610 0.956 . S
C2598 H2611 0.961 . S
C2598 H2612 0.961 . S
C2599 C2596 1.539 1_455 S
C2599 H2613 0.933 1_455 S
C2599 H2614 0.961 . S
C2599 H2615 0.960 . S
H2600 C2584 0.931 . S
H2601 C2589 0.929 . S
H2602 C2590 0.960 . S
H2603 C2590 0.962 . S
H2604 C2590 0.960 . S
H2605 C2591 0.961 . S
H2606 C2591 0.961 . S
H2607 C2591 0.961 . S
H2608 C2592 0.931 . S
H2609 C2597 0.930 . S
H2610 C2598 0.956 . S
H2611 C2598 0.961 . S
H2612 C2598 0.961 . S
H2613 C2599 0.933 1_655 S
H2614 C2599 0.961 . S
H2615 C2599 0.960 . S
C2616 C2617 1.391 . S
C2616 C2618 1.394 . S
C2616 H2632 0.931 . S
C2617 C2616 1.391 . S
C2617 C2621 1.376 . S
C2618 C2616 1.394 . S
C2618 C2619 1.369 . S
C2618 C2622 1.531 . S
C2619 C2618 1.369 . S
C2619 C2620 1.410 . S
C2619 C2627 1.503 1_655 S
C2620 C2619 1.410 . S
C2620 C2621 1.392 . S
C2620 C2623 1.511 . S
C2621 C2617 1.376 . S
C2621 C2620 1.392 . S
C2621 H2633 0.929 . S
C2622 C2618 1.531 . S
C2622 H2634 0.960 . S
C2622 H2635 0.962 . S
C2622 H2636 0.960 . S
C2623 C2620 1.511 . S
C2623 H2637 0.961 . S
C2623 H2638 0.961 1_655 S
C2623 H2639 0.961 . S
C2624 C2625 1.370 . S
C2624 C2626 1.363 . S
C2624 H2640 0.931 . S
C2625 C2624 1.370 . S
C2625 C2629 1.408 . S
C2626 C2624 1.363 . S
C2626 C2627 1.370 . S
C2626 C2630 1.524 . S
C2627 C2619 1.503 1_455 S
C2627 C2626 1.370 . S
C2627 C2628 1.403 . S
C2628 C2627 1.403 . S
C2628 C2629 1.404 . S
C2628 C2631 1.541 1_455 S
C2629 C2625 1.408 . S
C2629 C2628 1.404 . S
C2629 H2641 0.930 . S
C2630 C2626 1.524 . S
C2630 H2642 0.956 . S
C2630 H2643 0.961 . S
C2630 H2644 0.961 . S
C2631 C2628 1.541 1_655 S
C2631 H2645 0.958 . S
C2631 H2646 0.961 1_655 S
C2631 H2647 0.957 . S
H2632 C2616 0.931 . S
H2633 C2621 0.929 . S
H2634 C2622 0.960 . S
H2635 C2622 0.962 . S
H2636 C2622 0.960 . S
H2637 C2623 0.961 . S
H2638 C2623 0.961 1_455 S
H2639 C2623 0.961 . S
H2640 C2624 0.931 . S
H2641 C2629 0.930 . S
H2642 C2630 0.956 . S
H2643 C2630 0.961 . S
H2644 C2630 0.961 . S
H2645 C2631 0.958 . S
H2646 C2631 0.961 1_455 S
H2647 C2631 0.957 . S
C2648 C2649 1.391 . S
C2648 C2650 1.394 . S
C2648 H2664 0.931 . S
C2649 C2648 1.391 . S
C2649 C2653 1.376 . S
C2650 C2648 1.394 . S
C2650 C2651 1.369 . S
C2650 C2654 1.531 . S
C2651 C2650 1.369 . S
C2651 C2652 1.410 . S
C2651 C2659 1.503 . S
C2652 C2651 1.410 . S
C2652 C2653 1.392 . S
C2652 C2655 1.511 . S
C2653 C2649 1.376 . S
C2653 C2652 1.392 . S
C2653 H2665 0.929 . S
C2654 C2650 1.531 . S
C2654 H2666 0.960 . S
C2654 H2667 0.962 . S
C2654 H2668 0.960 . S
C2655 C2652 1.511 . S
C2655 H2669 0.961 . S
C2655 H2670 0.961 . S
C2655 H2671 0.961 . S
C2656 C2657 1.370 . S
C2656 C2658 1.363 . S
C2656 H2672 0.931 . S
C2657 C2656 1.370 . S
C2657 C2661 1.408 . S
C2658 C2656 1.363 . S
C2658 C2659 1.370 . S
C2658 C2662 1.524 . S
C2659 C2651 1.503 . S
C2659 C2658 1.370 . S
C2659 C2660 1.403 . S
C2660 C2659 1.403 . S
C2660 C2661 1.404 . S
C2660 C2663 1.539 . S
C2661 C2657 1.408 . S
C2661 C2660 1.404 . S
C2661 H2673 0.930 . S
C2662 C2658 1.524 . S
C2662 H2674 0.956 . S
C2662 H2675 0.961 . S
C2662 H2676 0.961 . S
C2663 C2660 1.539 . S
C2663 H2677 0.958 . S
C2663 H2678 0.961 . S
C2663 H2679 0.960 . S
H2664 C2648 0.931 . S
H2665 C2653 0.929 . S
H2666 C2654 0.960 . S
H2667 C2654 0.962 . S
H2668 C2654 0.960 . S
H2669 C2655 0.961 . S
H2670 C2655 0.961 . S
H2671 C2655 0.961 . S
H2672 C2656 0.931 . S
H2673 C2661 0.930 . S
H2674 C2662 0.956 . S
H2675 C2662 0.961 . S
H2676 C2662 0.961 . S
H2677 C2663 0.958 . S
H2678 C2663 0.961 . S
H2679 C2663 0.960 . S
C2680 C2681 1.391 . S
C2680 C2682 1.394 . S
C2680 H2696 0.931 . S
C2681 C2680 1.391 . S
C2681 C2685 1.376 . S
C2682 C2680 1.394 . S
C2682 C2683 1.369 . S
C2682 C2686 1.525 1_565 S
C2683 C2682 1.369 . S
C2683 C2684 1.410 . S
C2683 C2691 1.503 1_565 S
C2684 C2683 1.410 . S
C2684 C2685 1.392 . S
C2684 C2687 1.511 . S
C2685 C2681 1.376 . S
C2685 C2684 1.392 . S
C2685 H2697 0.929 . S
C2686 C2682 1.525 1_545 S
C2686 H2698 0.978 . S
C2686 H2699 0.955 . S
C2686 H2700 0.955 1_545 S
C2687 C2684 1.511 . S
C2687 H2701 0.961 . S
C2687 H2702 0.961 . S
C2687 H2703 0.961 . S
C2688 C2689 1.370 . S
C2688 C2690 1.363 . S
C2688 H2704 0.931 . S
C2689 C2688 1.370 . S
C2689 C2693 1.408 . S
C2690 C2688 1.363 . S
C2690 C2691 1.370 . S
C2690 C2694 1.524 . S
C2691 C2683 1.503 1_545 S
C2691 C2690 1.370 . S
C2691 C2692 1.403 . S
C2692 C2691 1.403 . S
C2692 C2693 1.404 . S
C2692 C2695 1.539 . S
C2693 C2689 1.408 . S
C2693 C2692 1.404 . S
C2693 H2705 0.930 . S
C2694 C2690 1.524 . S
C2694 H2706 0.956 1_545 S
C2694 H2707 0.961 1_545 S
C2694 H2708 0.961 . S
C2695 C2692 1.539 . S
C2695 H2709 0.958 . S
C2695 H2710 0.961 . S
C2695 H2711 0.960 . S
H2696 C2680 0.931 . S
H2697 C2685 0.929 . S
H2698 C2686 0.978 . S
H2699 C2686 0.955 . S
H2700 C2686 0.955 1_565 S
H2701 C2687 0.961 . S
H2702 C2687 0.961 . S
H2703 C2687 0.961 . S
H2704 C2688 0.931 . S
H2705 C2693 0.930 . S
H2706 C2694 0.956 1_565 S
H2707 C2694 0.961 1_565 S
H2708 C2694 0.961 . S
H2709 C2695 0.958 . S
H2710 C2695 0.961 . S
H2711 C2695 0.960 . S
C2712 C2713 1.391 . S
C2712 C2714 1.394 . S
C2712 H2728 0.931 . S
C2713 C2712 1.391 . S
C2713 C2717 1.376 . S
C2714 C2712 1.394 . S
C2714 C2715 1.369 . S
C2714 C2718 1.531 1_565 S
C2715 C2714 1.369 . S
C2715 C2716 1.410 . S
C2715 C2723 1.503 1_565 S
C2716 C2715 1.410 . S
C2716 C2717 1.392 . S
C2716 C2719 1.511 . S
C2717 C2713 1.376 . S
C2717 C2716 1.392 . S
C2717 H2729 0.929 . S
C2718 C2714 1.531 1_545 S
C2718 H2730 0.960 . S
C2718 H2731 0.962 . S
C2718 H2732 0.960 1_545 S
C2719 C2716 1.511 . S
C2719 H2733 0.961 . S
C2719 H2734 0.961 . S
C2719 H2735 0.961 . S
C2720 C2721 1.370 . S
C2720 C2722 1.363 . S
C2720 H2736 0.931 . S
C2721 C2720 1.370 . S
C2721 C2725 1.408 . S
C2722 C2720 1.363 . S
C2722 C2723 1.370 . S
C2722 C2726 1.524 . S
C2723 C2715 1.503 1_545 S
C2723 C2722 1.370 . S
C2723 C2724 1.403 . S
C2724 C2723 1.403 . S
C2724 C2725 1.404 . S
C2724 C2727 1.539 . S
C2725 C2721 1.408 . S
C2725 C2724 1.404 . S
C2725 H2737 0.930 . S
C2726 C2722 1.524 . S
C2726 H2738 0.956 1_545 S
C2726 H2739 0.961 1_545 S
C2726 H2740 0.961 . S
C2727 C2724 1.539 . S
C2727 H2741 0.958 . S
C2727 H2742 0.961 . S
C2727 H2743 0.960 . S
H2728 C2712 0.931 . S
H2729 C2717 0.929 . S
H2730 C2718 0.960 . S
H2731 C2718 0.962 . S
H2732 C2718 0.960 1_565 S
H2733 C2719 0.961 . S
H2734 C2719 0.961 . S
H2735 C2719 0.961 . S
H2736 C2720 0.931 . S
H2737 C2725 0.930 . S
H2738 C2726 0.956 1_565 S
H2739 C2726 0.961 1_565 S
H2740 C2726 0.961 . S
H2741 C2727 0.958 . S
H2742 C2727 0.961 . S
H2743 C2727 0.960 . S
C2744 C2745 1.391 . S
C2744 C2746 1.394 . S
C2744 H2760 0.931 . S
C2745 C2744 1.391 . S
C2745 C2749 1.376 . S
C2746 C2744 1.394 . S
C2746 C2747 1.369 . S
C2746 C2750 1.531 . S
C2747 C2746 1.369 . S
C2747 C2748 1.410 . S
C2747 C2755 1.503 1_655 S
C2748 C2747 1.410 . S
C2748 C2749 1.392 . S
C2748 C2751 1.511 . S
C2749 C2745 1.376 . S
C2749 C2748 1.392 . S
C2749 H2761 0.929 . S
C2750 C2746 1.531 . S
C2750 H2762 0.960 1_655 S
C2750 H2763 0.962 . S
C2750 H2764 0.960 . S
C2751 C2748 1.511 . S
C2751 H2765 0.961 . S
C2751 H2766 0.961 1_655 S
C2751 H2767 0.961 . S
C2752 C2753 1.370 . S
C2752 C2754 1.363 . S
C2752 H2768 0.931 . S
C2753 C2752 1.370 . S
C2753 C2757 1.408 . S
C2754 C2752 1.363 . S
C2754 C2755 1.370 . S
C2754 C2758 1.524 1_455 S
C2755 C2747 1.503 1_455 S
C2755 C2754 1.370 . S
C2755 C2756 1.403 . S
C2756 C2755 1.403 . S
C2756 C2757 1.404 . S
C2756 C2759 1.539 . S
C2757 C2753 1.408 . S
C2757 C2756 1.404 . S
C2757 H2769 0.930 . S
C2758 C2754 1.524 1_655 S
C2758 H2770 0.956 . S
C2758 H2771 0.961 . S
C2758 H2772 0.961 1_655 S
C2759 C2756 1.539 . S
C2759 H2773 0.958 . S
C2759 H2774 0.961 . S
C2759 H2775 0.960 . S
H2760 C2744 0.931 . S
H2761 C2749 0.929 . S
H2762 C2750 0.960 1_455 S
H2763 C2750 0.962 . S
H2764 C2750 0.960 . S
H2765 C2751 0.961 . S
H2766 C2751 0.961 1_455 S
H2767 C2751 0.961 . S
H2768 C2752 0.931 . S
H2769 C2757 0.930 . S
H2770 C2758 0.956 . S
H2771 C2758 0.961 . S
H2772 C2758 0.961 1_455 S
H2773 C2759 0.958 . S
H2774 C2759 0.961 . S
H2775 C2759 0.960 . S
C2776 C2777 1.391 . S
C2776 C2778 1.394 . S
C2776 H2792 0.931 . S
C2777 C2776 1.391 . S
C2777 C2781 1.376 . S
C2778 C2776 1.394 . S
C2778 C2779 1.369 . S
C2778 C2782 1.531 . S
C2779 C2778 1.369 . S
C2779 C2780 1.410 . S
C2779 C2787 1.503 . S
C2780 C2779 1.410 . S
C2780 C2781 1.392 . S
C2780 C2783 1.511 . S
C2781 C2777 1.376 . S
C2781 C2780 1.392 . S
C2781 H2793 0.929 . S
C2782 C2778 1.531 . S
C2782 H2794 0.960 . S
C2782 H2795 0.962 . S
C2782 H2796 0.960 . S
C2783 C2780 1.511 . S
C2783 H2797 0.961 . S
C2783 H2798 0.961 . S
C2783 H2799 0.961 . S
C2784 C2785 1.370 . S
C2784 C2786 1.363 . S
C2784 H2800 0.931 . S
C2785 C2784 1.370 . S
C2785 C2789 1.408 . S
C2786 C2784 1.363 . S
C2786 C2787 1.370 . S
C2786 C2790 1.524 . S
C2787 C2779 1.503 . S
C2787 C2786 1.370 . S
C2787 C2788 1.403 . S
C2788 C2787 1.403 . S
C2788 C2789 1.404 . S
C2788 C2791 1.539 . S
C2789 C2785 1.408 . S
C2789 C2788 1.404 . S
C2789 H2801 0.930 . S
C2790 C2786 1.524 . S
C2790 H2802 0.956 . S
C2790 H2803 0.961 . S
C2790 H2804 0.961 . S
C2791 C2788 1.539 . S
C2791 H2805 0.958 . S
C2791 H2806 0.961 . S
C2791 H2807 0.960 . S
H2792 C2776 0.931 . S
H2793 C2781 0.929 . S
H2794 C2782 0.960 . S
H2795 C2782 0.962 . S
H2796 C2782 0.960 . S
H2797 C2783 0.961 . S
H2798 C2783 0.961 . S
H2799 C2783 0.961 . S
H2800 C2784 0.931 . S
H2801 C2789 0.930 . S
H2802 C2790 0.956 . S
H2803 C2790 0.961 . S
H2804 C2790 0.961 . S
H2805 C2791 0.958 . S
H2806 C2791 0.961 . S
H2807 C2791 0.960 . S
C505 C7 1.309 . S
C513 C259 1.339 . S
C537 C21 1.348 . S
C545 C273 1.324 . S
C569 C287 1.315 . S
C577 C35 1.338 . S
C601 C49 1.334 . S
C609 C469 1.328 . S
C633 C483 1.343 . S
C641 C63 1.327 . S
C665 C77 1.346 . S
C673 C497 1.325 . S
C697 C343 1.346 . S
C705 C91 1.324 . S
C729 C105 1.347 . S
C737 C357 1.324 . S
C761 C119 1.344 . S
C769 C371 1.326 . S
C793 C133 1.314 . S
C801 C217 1.338 . S
C825 C231 1.310 . S
C833 C147 1.340 . S
C857 C161 1.343 . S
C865 C245 1.326 . S
C889 C175 1.315 . S
C897 C427 1.336 . S
C921 C189 1.308 . S
C929 C441 1.340 . S
C953 C203 1.311 . S
C961 C455 1.338 . S
C985 C301 1.343 . S
C993 C385 1.325 . S
C1017 C315 1.320 . S
C1025 C399 1.336 . S
C1049 C329 1.309 . S
C1057 C413 1.339 . S
C1081 C106 1.435 . S
C1089 C6 1.437 . S
C1113 C120 1.426 . S
C1121 C20 1.437 . S
C1145 C34 1.455 . S
C1153 C92 1.398 . S
C1177 C162 1.433 . S
C1185 C48 1.438 . S
C1209 C134 1.374 . S
C1217 C62 1.449 . S
C1241 C148 1.390 . S
C1249 C76 1.445 . S
C1273 C90 1.423 . S
C1281 C22 1.419 . S
C1305 C104 1.452 . S
C1313 C36 1.396 . S
C1337 C118 1.437 . S
C1345 C8 1.408 . S
C1369 C132 1.446 . S
C1377 C78 1.402 . S
C1401 C50 1.374 . S
C1409 C146 1.450 . S
C1433 C64 1.431 . S
C1441 C160 1.438 . S
C1465 C174 1.454 . S
C1473 C274 1.397 . S
C1497 C188 1.455 . S
C1505 C288 1.393 . S
C1529 C202 1.447 . S
C1537 C260 1.398 . S
C1561 C330 1.378 . S
C1569 C216 1.448 . S
C1593 C230 1.443 . S
C1601 C302 1.408 . S
C1625 C316 1.393 . S
C1633 C244 1.444 . S
C1657 C258 1.423 . S
C1665 C190 1.419 . S
C1689 C204 1.425 . S
C1697 C272 1.439 . S
C1721 C176 1.375 . S
C1729 C286 1.450 . S
C1753 C300 1.437 . S
C1761 C246 1.409 . S
C1785 C314 1.457 . S
C1793 C218 1.393 . S
C1817 C328 1.424 . S
C1825 C232 1.419 . S
C1849 C442 1.400 . S
C1857 C342 1.447 . S
C1881 C356 1.433 . S
C1889 C456 1.415 . S
C1913 C370 1.457 . S
C1921 C428 1.393 . S
C1945 C498 1.385 . S
C1953 C384 1.449 . S
C1977 C470 1.412 . S
C1985 C398 1.440 . S
C2009 C484 1.423 . S
C2017 C412 1.438 . S
C2041 C358 1.427 . S
C2049 C426 1.439 . S
C2073 C372 1.370 . S
C2081 C440 1.451 . S
C2105 C344 1.414 . S
C2113 C454 1.441 . S
C2137 C468 1.457 . S
C2145 C414 1.393 . S
C2169 C386 1.435 . S
C2177 C482 1.437 . S
C2201 C496 1.425 . S
C2209 C400 1.418 . S
C2233 C9 1.120 . S
C2241 C415 1.145 . S
C2265 C387 1.174 . S
C2273 C23 1.113 . S
C2297 C37 1.078 . S
C2305 C401 1.144 . S
C2329 C51 1.102 . S
C2337 C191 1.148 . S
C2361 C205 1.170 . S
C2369 C65 1.121 . S
C2393 C79 1.079 . S
C2401 C177 1.140 . S
C2425 C331 1.093 . S
C2433 C93 1.123 . S
C2457 C107 1.102 . S
C2465 C303 1.149 . S
C2489 C121 1.173 . S
C2497 C317 1.116 . S
C2521 C135 1.153 . S
C2529 C443 1.109 . S
C2553 C149 1.161 . S
C2561 C457 1.135 . S
C2585 C429 1.079 . S
C2593 C163 1.136 . S
C2617 C219 1.093 . S
C2625 C359 1.149 . S
C2649 C373 1.174 . S
C2657 C233 1.117 . S
C2681 C345 1.138 . S
C2689 C247 1.112 . S
C2713 C499 1.168 . S
C2721 C261 1.130 . S
C2745 C275 1.170 . S
C2753 C471 1.113 . S
C2777 C289 1.163 . S
C2785 C485 1.133 . S
