# Generated by pormake.
# Topology mer, (4)-cn, num edge types: 1
# Building blocks:
#     Node 0, Type 0, BuildingBlock: ESEHIV_clean_sbu_0, # of connection points: 4
#     Node 1, Type 0, BuildingBlock: ESEHIV_clean_sbu_0, # of connection points: 4
#     Node 2, Type 0, BuildingBlock: ESEHIV_clean_sbu_0, # of connection points: 4
#     Node 3, Type 0, BuildingBlock: ESEHIV_clean_sbu_0, # of connection points: 4
#     Node 4, Type 0, BuildingBlock: ESEHIV_clean_sbu_0, # of connection points: 4
#     Node 5, Type 0, BuildingBlock: ESEHIV_clean_sbu_0, # of connection points: 4
#     Node 6, Type 0, BuildingBlock: ESEHIV_clean_sbu_0, # of connection points: 4
#     Node 7, Type 0, BuildingBlock: ESEHIV_clean_sbu_0, # of connection points: 4
#     Node 8, Type 0, BuildingBlock: ESEHIV_clean_sbu_0, # of connection points: 4
#     Node 9, Type 0, BuildingBlock: ESEHIV_clean_sbu_0, # of connection points: 4
#     Node 10, Type 0, BuildingBlock: ESEHIV_clean_sbu_0, # of connection points: 4
#     Node 11, Type 0, BuildingBlock: ESEHIV_clean_sbu_0, # of connection points: 4
#     Node 12, Type 0, BuildingBlock: ESEHIV_clean_sbu_0, # of connection points: 4
#     Node 13, Type 0, BuildingBlock: ESEHIV_clean_sbu_0, # of connection points: 4
#     Node 14, Type 0, BuildingBlock: ESEHIV_clean_sbu_0, # of connection points: 4
#     Node 15, Type 0, BuildingBlock: ESEHIV_clean_sbu_0, # of connection points: 4
#     Node 16, Type 0, BuildingBlock: ESEHIV_clean_sbu_0, # of connection points: 4
#     Node 17, Type 0, BuildingBlock: ESEHIV_clean_sbu_0, # of connection points: 4
#     Node 18, Type 0, BuildingBlock: ESEHIV_clean_sbu_0, # of connection points: 4
#     Node 19, Type 0, BuildingBlock: ESEHIV_clean_sbu_0, # of connection points: 4
#     Node 20, Type 0, BuildingBlock: ESEHIV_clean_sbu_0, # of connection points: 4
#     Node 21, Type 0, BuildingBlock: ESEHIV_clean_sbu_0, # of connection points: 4
#     Node 22, Type 0, BuildingBlock: ESEHIV_clean_sbu_0, # of connection points: 4
#     Node 23, Type 0, BuildingBlock: ESEHIV_clean_sbu_0, # of connection points: 4
#     Node 24, Type 0, BuildingBlock: ESEHIV_clean_sbu_0, # of connection points: 4
#     Node 25, Type 0, BuildingBlock: ESEHIV_clean_sbu_0, # of connection points: 4
#     Node 26, Type 0, BuildingBlock: ESEHIV_clean_sbu_0, # of connection points: 4
#     Node 27, Type 0, BuildingBlock: ESEHIV_clean_sbu_0, # of connection points: 4
#     Node 28, Type 0, BuildingBlock: ESEHIV_clean_sbu_0, # of connection points: 4
#     Node 29, Type 0, BuildingBlock: ESEHIV_clean_sbu_0, # of connection points: 4
#     Node 30, Type 0, BuildingBlock: ESEHIV_clean_sbu_0, # of connection points: 4
#     Node 31, Type 0, BuildingBlock: ESEHIV_clean_sbu_0, # of connection points: 4
#     Edge 32, Type (0, 0), BuildingBlock: UVAHIK_clean_linker_0, # of connection points: 2
#     Edge 33, Type (0, 0), BuildingBlock: UVAHIK_clean_linker_0, # of connection points: 2
#     Edge 34, Type (0, 0), BuildingBlock: UVAHIK_clean_linker_0, # of connection points: 2
#     Edge 35, Type (0, 0), BuildingBlock: UVAHIK_clean_linker_0, # of connection points: 2
#     Edge 36, Type (0, 0), BuildingBlock: UVAHIK_clean_linker_0, # of connection points: 2
#     Edge 37, Type (0, 0), BuildingBlock: UVAHIK_clean_linker_0, # of connection points: 2
#     Edge 38, Type (0, 0), BuildingBlock: UVAHIK_clean_linker_0, # of connection points: 2
#     Edge 39, Type (0, 0), BuildingBlock: UVAHIK_clean_linker_0, # of connection points: 2
#     Edge 40, Type (0, 0), BuildingBlock: UVAHIK_clean_linker_0, # of connection points: 2
#     Edge 41, Type (0, 0), BuildingBlock: UVAHIK_clean_linker_0, # of connection points: 2
#     Edge 42, Type (0, 0), BuildingBlock: UVAHIK_clean_linker_0, # of connection points: 2
#     Edge 43, Type (0, 0), BuildingBlock: UVAHIK_clean_linker_0, # of connection points: 2
#     Edge 44, Type (0, 0), BuildingBlock: UVAHIK_clean_linker_0, # of connection points: 2
#     Edge 45, Type (0, 0), BuildingBlock: UVAHIK_clean_linker_0, # of connection points: 2
#     Edge 46, Type (0, 0), BuildingBlock: UVAHIK_clean_linker_0, # of connection points: 2
#     Edge 47, Type (0, 0), BuildingBlock: UVAHIK_clean_linker_0, # of connection points: 2
#     Edge 48, Type (0, 0), BuildingBlock: UVAHIK_clean_linker_0, # of connection points: 2
#     Edge 49, Type (0, 0), BuildingBlock: UVAHIK_clean_linker_0, # of connection points: 2
#     Edge 50, Type (0, 0), BuildingBlock: UVAHIK_clean_linker_0, # of connection points: 2
#     Edge 51, Type (0, 0), BuildingBlock: UVAHIK_clean_linker_0, # of connection points: 2
#     Edge 52, Type (0, 0), BuildingBlock: UVAHIK_clean_linker_0, # of connection points: 2
#     Edge 53, Type (0, 0), BuildingBlock: UVAHIK_clean_linker_0, # of connection points: 2
#     Edge 54, Type (0, 0), BuildingBlock: UVAHIK_clean_linker_0, # of connection points: 2
#     Edge 55, Type (0, 0), BuildingBlock: UVAHIK_clean_linker_0, # of connection points: 2
#     Edge 56, Type (0, 0), BuildingBlock: UVAHIK_clean_linker_0, # of connection points: 2
#     Edge 57, Type (0, 0), BuildingBlock: UVAHIK_clean_linker_0, # of connection points: 2
#     Edge 58, Type (0, 0), BuildingBlock: UVAHIK_clean_linker_0, # of connection points: 2
#     Edge 59, Type (0, 0), BuildingBlock: UVAHIK_clean_linker_0, # of connection points: 2
#     Edge 60, Type (0, 0), BuildingBlock: UVAHIK_clean_linker_0, # of connection points: 2
#     Edge 61, Type (0, 0), BuildingBlock: UVAHIK_clean_linker_0, # of connection points: 2
#     Edge 62, Type (0, 0), BuildingBlock: UVAHIK_clean_linker_0, # of connection points: 2
#     Edge 63, Type (0, 0), BuildingBlock: UVAHIK_clean_linker_0, # of connection points: 2
#     Edge 64, Type (0, 0), BuildingBlock: UVAHIK_clean_linker_0, # of connection points: 2
#     Edge 65, Type (0, 0), BuildingBlock: UVAHIK_clean_linker_0, # of connection points: 2
#     Edge 66, Type (0, 0), BuildingBlock: UVAHIK_clean_linker_0, # of connection points: 2
#     Edge 67, Type (0, 0), BuildingBlock: UVAHIK_clean_linker_0, # of connection points: 2
#     Edge 68, Type (0, 0), BuildingBlock: UVAHIK_clean_linker_0, # of connection points: 2
#     Edge 69, Type (0, 0), BuildingBlock: UVAHIK_clean_linker_0, # of connection points: 2
#     Edge 70, Type (0, 0), BuildingBlock: UVAHIK_clean_linker_0, # of connection points: 2
#     Edge 71, Type (0, 0), BuildingBlock: UVAHIK_clean_linker_0, # of connection points: 2
#     Edge 72, Type (0, 0), BuildingBlock: UVAHIK_clean_linker_0, # of connection points: 2
#     Edge 73, Type (0, 0), BuildingBlock: UVAHIK_clean_linker_0, # of connection points: 2
#     Edge 74, Type (0, 0), BuildingBlock: UVAHIK_clean_linker_0, # of connection points: 2
#     Edge 75, Type (0, 0), BuildingBlock: UVAHIK_clean_linker_0, # of connection points: 2
#     Edge 76, Type (0, 0), BuildingBlock: UVAHIK_clean_linker_0, # of connection points: 2
#     Edge 77, Type (0, 0), BuildingBlock: UVAHIK_clean_linker_0, # of connection points: 2
#     Edge 78, Type (0, 0), BuildingBlock: UVAHIK_clean_linker_0, # of connection points: 2
#     Edge 79, Type (0, 0), BuildingBlock: UVAHIK_clean_linker_0, # of connection points: 2
#     Edge 80, Type (0, 0), BuildingBlock: UVAHIK_clean_linker_0, # of connection points: 2
#     Edge 81, Type (0, 0), BuildingBlock: UVAHIK_clean_linker_0, # of connection points: 2
#     Edge 82, Type (0, 0), BuildingBlock: UVAHIK_clean_linker_0, # of connection points: 2
#     Edge 83, Type (0, 0), BuildingBlock: UVAHIK_clean_linker_0, # of connection points: 2
#     Edge 84, Type (0, 0), BuildingBlock: UVAHIK_clean_linker_0, # of connection points: 2
#     Edge 85, Type (0, 0), BuildingBlock: UVAHIK_clean_linker_0, # of connection points: 2
#     Edge 86, Type (0, 0), BuildingBlock: UVAHIK_clean_linker_0, # of connection points: 2
#     Edge 87, Type (0, 0), BuildingBlock: UVAHIK_clean_linker_0, # of connection points: 2
#     Edge 88, Type (0, 0), BuildingBlock: UVAHIK_clean_linker_0, # of connection points: 2
#     Edge 89, Type (0, 0), BuildingBlock: UVAHIK_clean_linker_0, # of connection points: 2
#     Edge 90, Type (0, 0), BuildingBlock: UVAHIK_clean_linker_0, # of connection points: 2
#     Edge 91, Type (0, 0), BuildingBlock: UVAHIK_clean_linker_0, # of connection points: 2
#     Edge 92, Type (0, 0), BuildingBlock: UVAHIK_clean_linker_0, # of connection points: 2
#     Edge 93, Type (0, 0), BuildingBlock: UVAHIK_clean_linker_0, # of connection points: 2
#     Edge 94, Type (0, 0), BuildingBlock: UVAHIK_clean_linker_0, # of connection points: 2
#     Edge 95, Type (0, 0), BuildingBlock: UVAHIK_clean_linker_0, # of connection points: 2
# Relax obj value: 0.083
# Max RMSD: 0.218
# Mean RMSD: 0.218
data_MOF--net-mer--node1-ESEHIV_clean_sbu_0--edge1-UVAHIK_clean_linker_0
_symmetry_space_group_name_H-M    P1
_symmetry_Int_Tables_number       1
_symmetry_cell_setting            triclinic
loop_
_symmetry_equiv_pos_as_xyz
'x, y, z'
_cell_length_a     88.364019
_cell_length_b     88.450588
_cell_length_c     72.167877
_cell_angle_alpha  90.010205
_cell_angle_beta   90.020487
_cell_angle_gamma 90.066374
loop_
_atom_site_label
_atom_site_type_symbol
_atom_site_fract_x
_atom_site_fract_y
_atom_site_fract_z
_atom_type_partial_charge
Cu0 Cu 0.12848 0.29823 0.39267 0.0
N1 N 0.13219 0.27756 0.39171 0.0
N2 N 0.14435 0.25545 0.39227 0.0
C3 C 0.14566 0.27064 0.39347 0.0
C4 C 0.12944 0.25278 0.38964 0.0
C5 C 0.12198 0.26645 0.3893 0.0
O6 O 0.14223 0.308 0.37528 0.0
C7 C 0.12527 0.31587 0.42609 0.0
O8 O 0.11653 0.32488 0.41636 0.0
H9 H 0.15615 0.27667 0.39585 0.0
H10 H 0.10997 0.26818 0.3874 0.0
N11 N 0.10873 0.3015 0.38436 0.0
N12 N 0.08377 0.30482 0.38237 0.0
C13 C 0.09555 0.30195 0.39378 0.0
C14 C 0.10506 0.30379 0.36649 0.0
C15 C 0.08972 0.30597 0.36524 0.0
C16 C 0.13942 0.32096 0.36844 0.0
O17 O 0.12802 0.32882 0.37503 0.0
H18 H 0.09463 0.30043 0.40862 0.0
H19 H 0.11303 0.30386 0.35513 0.0
O20 O 0.13146 0.30458 0.41824 0.0
H21 H 0.1243 0.24178 0.38783 0.0
H22 H 0.08337 0.30802 0.35265 0.0
Cu23 Cu 0.70676 0.13078 0.39313 0.0
N24 N 0.72777 0.13288 0.39365 0.0
N25 N 0.75061 0.14365 0.39544 0.0
C26 C 0.7355 0.14575 0.39675 0.0
C27 C 0.7524 0.12884 0.3915 0.0
C28 C 0.73829 0.12223 0.39038 0.0
O29 O 0.69807 0.14432 0.37453 0.0
C30 C 0.68896 0.12754 0.4262 0.0
O31 O 0.68139 0.11722 0.41694 0.0
H32 H 0.73009 0.15644 0.39973 0.0
H33 H 0.73588 0.11056 0.38705 0.0
N34 N 0.70169 0.11131 0.38538 0.0
N35 N 0.70038 0.08631 0.38159 0.0
C36 C 0.70548 0.0977 0.39243 0.0
C37 C 0.69384 0.10837 0.36981 0.0
C38 C 0.69304 0.093 0.36742 0.0
C39 C 0.70563 0.14797 0.36015 0.0
O40 O 0.71984 0.1438 0.35882 0.0
H41 H 0.71224 0.09619 0.4048 0.0
H42 H 0.68927 0.11687 0.36062 0.0
O43 O 0.6995 0.13482 0.41813 0.0
H44 H 0.76309 0.12325 0.38902 0.0
H45 H 0.68754 0.08717 0.35607 0.0
Cu46 Cu 0.87978 0.70511 0.39401 0.0
N47 N 0.87561 0.72569 0.39488 0.0
N48 N 0.86325 0.74768 0.39586 0.0
C49 C 0.86198 0.73249 0.3945 0.0
C50 C 0.87824 0.75047 0.39709 0.0
C51 C 0.88582 0.73689 0.39648 0.0
O52 O 0.86602 0.69589 0.37618 0.0
C53 C 0.88529 0.68706 0.42674 0.0
O54 O 0.89551 0.67984 0.41695 0.0
H55 H 0.85139 0.72638 0.39359 0.0
H56 H 0.89793 0.73527 0.39721 0.0
N57 N 0.89943 0.70307 0.38478 0.0
N58 N 0.92452 0.70372 0.38114 0.0
C59 C 0.91295 0.70418 0.39339 0.0
C60 C 0.90261 0.70196 0.36661 0.0
C61 C 0.918 0.70224 0.36433 0.0
C62 C 0.86902 0.68324 0.3686 0.0
O63 O 0.88056 0.67534 0.37475 0.0
H64 H 0.91425 0.70591 0.40816 0.0
H65 H 0.89424 0.7014 0.35569 0.0
O66 O 0.87744 0.6974 0.41912 0.0
H67 H 0.88341 0.76153 0.39815 0.0
H68 H 0.92395 0.70155 0.35124 0.0
Cu69 Cu 0.30587 0.87897 0.39394 0.0
N70 N 0.28496 0.87616 0.3931 0.0
N71 N 0.26247 0.86472 0.395 0.0
C72 C 0.27741 0.86379 0.39878 0.0
C73 C 0.26055 0.87835 0.38692 0.0
C74 C 0.27446 0.88538 0.38574 0.0
O75 O 0.316 0.86609 0.37569 0.0
C76 C 0.32288 0.88218 0.42752 0.0
O77 O 0.33078 0.89227 0.41831 0.0
H78 H 0.28289 0.85412 0.40504 0.0
H79 H 0.27683 0.89621 0.37942 0.0
N80 N 0.31055 0.89871 0.38688 0.0
N81 N 0.311 0.92375 0.3831 0.0
C82 C 0.30524 0.91211 0.39301 0.0
C83 C 0.32001 0.90203 0.37287 0.0
C84 C 0.32031 0.91741 0.3705 0.0
C85 C 0.30904 0.85805 0.36373 0.0
O86 O 0.2943 0.85658 0.36484 0.0
H87 H 0.29706 0.91326 0.40407 0.0
H88 H 0.32613 0.89377 0.36476 0.0
O89 O 0.31235 0.87501 0.41926 0.0
H90 H 0.24999 0.88266 0.38147 0.0
H91 H 0.32694 0.92348 0.3603 0.0
Cu92 Cu 0.12796 0.71052 0.66021 0.0
N93 N 0.13186 0.7312 0.66052 0.0
N94 N 0.14393 0.7534 0.65977 0.0
C95 C 0.14537 0.73818 0.6593 0.0
C96 C 0.12892 0.756 0.66137 0.0
C97 C 0.12153 0.7423 0.66182 0.0
O98 O 0.14183 0.70088 0.67756 0.0
C99 C 0.12298 0.69329 0.62666 0.0
O100 O 0.11302 0.68541 0.63613 0.0
H101 H 0.15597 0.7322 0.65785 0.0
H102 H 0.10946 0.74053 0.66305 0.0
N103 N 0.10833 0.70782 0.66927 0.0
N104 N 0.08321 0.70757 0.67279 0.0
C105 C 0.09481 0.70864 0.66061 0.0
C106 C 0.10513 0.70627 0.68738 0.0
C107 C 0.08973 0.706 0.68959 0.0
C108 C 0.1389 0.68801 0.68462 0.0
O109 O 0.12733 0.68025 0.67825 0.0
H110 H 0.0935 0.71056 0.64589 0.0
H111 H 0.11349 0.70574 0.69831 0.0
O112 O 0.13045 0.7037 0.63473 0.0
H113 H 0.12365 0.767 0.66241 0.0
H114 H 0.08379 0.70482 0.70262 0.0
Cu115 Cu 0.30548 0.1292 0.65893 0.0
N116 N 0.28445 0.13083 0.65879 0.0
N117 N 0.26151 0.14141 0.65813 0.0
C118 C 0.27659 0.14377 0.65702 0.0
C119 C 0.25987 0.12636 0.66053 0.0
C120 C 0.27405 0.11986 0.66096 0.0
O121 O 0.31393 0.14272 0.67772 0.0
C122 C 0.32342 0.12731 0.62592 0.0
O123 O 0.33167 0.1176 0.63528 0.0
H124 H 0.28189 0.15468 0.65509 0.0
H125 H 0.27659 0.10803 0.66304 0.0
N126 N 0.31131 0.10974 0.6658 0.0
N127 N 0.31503 0.0848 0.66717 0.0
C128 C 0.30788 0.0962 0.65826 0.0
C129 C 0.3208 0.10677 0.6799 0.0
C130 C 0.32311 0.09145 0.68079 0.0
C131 C 0.30659 0.14516 0.69264 0.0
O132 O 0.29296 0.13944 0.69452 0.0
H133 H 0.30058 0.09477 0.64634 0.0
H134 H 0.32576 0.11523 0.68887 0.0
O135 O 0.31239 0.13386 0.63393 0.0
H136 H 0.24922 0.12049 0.66238 0.0
H137 H 0.33008 0.08564 0.69085 0.0
Cu138 Cu 0.88147 0.30112 0.66041 0.0
N139 N 0.87764 0.28053 0.66327 0.0
N140 N 0.8659 0.25816 0.66249 0.0
C141 C 0.86536 0.27286 0.65746 0.0
C142 C 0.87914 0.25652 0.6716 0.0
C143 C 0.88635 0.27034 0.67208 0.0
O144 O 0.8706 0.31258 0.67923 0.0
C145 C 0.88218 0.31812 0.62676 0.0
O146 O 0.89143 0.32714 0.63576 0.0
H147 H 0.85614 0.27804 0.6499 0.0
H148 H 0.89704 0.27288 0.67868 0.0
N149 N 0.90183 0.30471 0.66542 0.0
N150 N 0.92683 0.30804 0.6636 0.0
C151 C 0.91418 0.30365 0.6545 0.0
C152 C 0.90688 0.30971 0.68189 0.0
C153 C 0.92224 0.31179 0.68083 0.0
C154 C 0.85857 0.3084 0.68748 0.0
O155 O 0.85127 0.29639 0.68159 0.0
H156 H 0.91384 0.30012 0.64015 0.0
H157 H 0.8998 0.31179 0.69384 0.0
O158 O 0.87639 0.30686 0.63515 0.0
H159 H 0.8831 0.2462 0.67804 0.0
H160 H 0.92951 0.31565 0.69194 0.0
Cu161 Cu 0.70828 0.88229 0.65868 0.0
N162 N 0.72875 0.87755 0.65625 0.0
N163 N 0.75014 0.86428 0.65354 0.0
C164 C 0.73488 0.8637 0.65448 0.0
C165 C 0.75368 0.87911 0.65462 0.0
C166 C 0.74047 0.88726 0.6563 0.0
O167 O 0.69854 0.86899 0.67674 0.0
C168 C 0.69781 0.86889 0.62555 0.0
O169 O 0.70127 0.85627 0.63418 0.0
H170 H 0.72824 0.85342 0.65404 0.0
H171 H 0.73946 0.89939 0.65772 0.0
N172 N 0.70638 0.90176 0.66827 0.0
N173 N 0.70405 0.92674 0.67154 0.0
C174 C 0.70698 0.91529 0.65966 0.0
C175 C 0.70312 0.90481 0.68608 0.0
C176 C 0.70165 0.92017 0.68814 0.0
C177 C 0.70597 0.86433 0.69077 0.0
O178 O 0.72048 0.86742 0.69197 0.0
H179 H 0.70909 0.91667 0.64498 0.0
H180 H 0.70167 0.89641 0.69681 0.0
O181 O 0.69924 0.88138 0.63413 0.0
H182 H 0.76502 0.88376 0.65472 0.0
H183 H 0.69903 0.92606 0.70088 0.0
Cu184 Cu 0.87769 0.70402 0.65893 0.0
N185 N 0.87366 0.72467 0.65869 0.0
N186 N 0.86142 0.74671 0.65697 0.0
C187 C 0.8601 0.73148 0.65708 0.0
C188 C 0.87639 0.74951 0.65861 0.0
C189 C 0.88389 0.7359 0.65967 0.0
O190 O 0.86397 0.69448 0.67653 0.0
C191 C 0.88347 0.68653 0.62597 0.0
O192 O 0.89368 0.67936 0.63585 0.0
H193 H 0.84955 0.72537 0.6557 0.0
H194 H 0.89597 0.7343 0.66102 0.0
N195 N 0.89729 0.70143 0.66806 0.0
N196 N 0.92237 0.70193 0.67189 0.0
C197 C 0.91082 0.70351 0.65975 0.0
C198 C 0.90045 0.69848 0.68593 0.0
C199 C 0.91584 0.69871 0.68832 0.0
C200 C 0.86605 0.68094 0.68192 0.0
O201 O 0.8764 0.67273 0.67359 0.0
H202 H 0.91213 0.70667 0.64534 0.0
H203 H 0.89207 0.69669 0.69662 0.0
O204 O 0.8754 0.69669 0.63361 0.0
H205 H 0.88157 0.76059 0.65923 0.0
H206 H 0.92178 0.69677 0.70122 0.0
Cu207 Cu 0.30415 0.87941 0.65955 0.0
N208 N 0.28314 0.87751 0.65919 0.0
N209 N 0.26034 0.86661 0.65837 0.0
C210 C 0.27545 0.86445 0.65754 0.0
C211 C 0.2585 0.88167 0.66046 0.0
C212 C 0.2726 0.88837 0.66099 0.0
O213 O 0.3126 0.86593 0.67834 0.0
C214 C 0.32227 0.88155 0.6267 0.0
O215 O 0.33042 0.89132 0.63613 0.0
H216 H 0.2809 0.85359 0.65587 0.0
H217 H 0.275 0.90026 0.66286 0.0
N218 N 0.30977 0.89891 0.66661 0.0
N219 N 0.3136 0.92384 0.66799 0.0
C220 C 0.30658 0.91244 0.6589 0.0
C221 C 0.31894 0.9019 0.68102 0.0
C222 C 0.32133 0.91721 0.68191 0.0
C223 C 0.30521 0.86345 0.69322 0.0
O224 O 0.29156 0.8691 0.69503 0.0
H225 H 0.2996 0.91385 0.6467 0.0
H226 H 0.32369 0.89346 0.69017 0.0
O227 O 0.31124 0.8749 0.63461 0.0
H228 H 0.24776 0.88741 0.66201 0.0
H229 H 0.32814 0.92304 0.69214 0.0
Cu230 Cu 0.12902 0.29665 0.65814 0.0
N231 N 0.13252 0.27594 0.65903 0.0
N232 N 0.14439 0.25365 0.65897 0.0
C233 C 0.14596 0.26883 0.65801 0.0
C234 C 0.12936 0.25118 0.66068 0.0
C235 C 0.12209 0.26495 0.66072 0.0
O236 O 0.14207 0.30622 0.67652 0.0
C237 C 0.12714 0.31498 0.62536 0.0
O238 O 0.11869 0.32406 0.63537 0.0
H239 H 0.15661 0.27472 0.65633 0.0
H240 H 0.11004 0.26683 0.66192 0.0
N241 N 0.10888 0.29992 0.66486 0.0
N242 N 0.08388 0.30332 0.66413 0.0
C243 C 0.09645 0.30055 0.65405 0.0
C244 C 0.10393 0.30201 0.6823 0.0
C245 C 0.08855 0.30425 0.68189 0.0
C246 C 0.13893 0.31897 0.68375 0.0
O247 O 0.12752 0.32682 0.67715 0.0
H248 H 0.09665 0.29924 0.63914 0.0
H249 H 0.11106 0.30194 0.69449 0.0
O250 O 0.13288 0.30329 0.63285 0.0
H251 H 0.124 0.24024 0.66208 0.0
H252 H 0.0813 0.3062 0.69374 0.0
Cu253 Cu 0.70587 0.13204 0.6585 0.0
N254 N 0.72687 0.13409 0.65853 0.0
N255 N 0.74969 0.14501 0.65733 0.0
C256 C 0.73464 0.14681 0.65475 0.0
C257 C 0.75138 0.13048 0.66274 0.0
C258 C 0.73729 0.12378 0.66347 0.0
O259 O 0.6969 0.14568 0.67681 0.0
C260 C 0.68811 0.12915 0.62537 0.0
O261 O 0.67994 0.11947 0.6349 0.0
H262 H 0.72924 0.15723 0.65056 0.0
H263 H 0.73477 0.11236 0.66783 0.0
N264 N 0.70058 0.11258 0.66606 0.0
N265 N 0.69732 0.08759 0.66828 0.0
C266 C 0.70338 0.09902 0.65823 0.0
C267 C 0.69264 0.10963 0.68152 0.0
C268 C 0.69063 0.09429 0.68294 0.0
C269 C 0.70436 0.14979 0.69109 0.0
O270 O 0.71865 0.14595 0.6926 0.0
H271 H 0.70956 0.0976 0.6454 0.0
H272 H 0.68864 0.11808 0.69116 0.0
O273 O 0.69902 0.13599 0.6333 0.0
H274 H 0.76194 0.12517 0.66661 0.0
H275 H 0.6849 0.08853 0.69416 0.0
Cu276 Cu 0.87862 0.30157 0.39409 0.0
N277 N 0.87677 0.28058 0.39423 0.0
N278 N 0.86599 0.25775 0.39555 0.0
C279 C 0.86387 0.27283 0.39699 0.0
C280 C 0.88088 0.256 0.39191 0.0
C281 C 0.8875 0.27012 0.39109 0.0
O282 O 0.86519 0.31024 0.37535 0.0
C283 C 0.88069 0.31908 0.42758 0.0
O284 O 0.89083 0.32721 0.41875 0.0
H285 H 0.85314 0.27821 0.39985 0.0
H286 H 0.89924 0.2726 0.38809 0.0
N287 N 0.89814 0.30716 0.3871 0.0
N288 N 0.9231 0.31105 0.38572 0.0
C289 C 0.91162 0.30464 0.39534 0.0
C290 C 0.90123 0.31526 0.37181 0.0
C291 C 0.91655 0.31766 0.37089 0.0
C292 C 0.86173 0.30274 0.36085 0.0
O293 O 0.86613 0.28862 0.35937 0.0
H294 H 0.91292 0.29847 0.40819 0.0
H295 H 0.89287 0.31915 0.36196 0.0
O296 O 0.87395 0.30839 0.41909 0.0
H297 H 0.88652 0.24533 0.38948 0.0
H298 H 0.92241 0.32361 0.35993 0.0
Cu299 Cu 0.70761 0.88107 0.39311 0.0
N300 N 0.72799 0.87618 0.39528 0.0
N301 N 0.74964 0.86324 0.39696 0.0
C302 C 0.73448 0.86242 0.39456 0.0
C303 C 0.75271 0.87809 0.39921 0.0
C304 C 0.73935 0.88602 0.39818 0.0
O305 O 0.69806 0.86739 0.37551 0.0
C306 C 0.69781 0.86823 0.42663 0.0
O307 O 0.70179 0.85564 0.41831 0.0
H308 H 0.72816 0.85206 0.39259 0.0
H309 H 0.73799 0.89812 0.39943 0.0
N310 N 0.70643 0.90038 0.38287 0.0
N311 N 0.70677 0.92539 0.37848 0.0
C312 C 0.70738 0.91405 0.39106 0.0
C313 C 0.7052 0.90314 0.36463 0.0
C314 C 0.70531 0.91848 0.36188 0.0
C315 C 0.68495 0.87041 0.36923 0.0
O316 O 0.67727 0.88153 0.3768 0.0
H317 H 0.70885 0.9156 0.40583 0.0
H318 H 0.70439 0.89454 0.35403 0.0
O319 O 0.6987 0.88061 0.41772 0.0
H320 H 0.76383 0.88295 0.4012 0.0
H321 H 0.70426 0.92407 0.34861 0.0
Cu322 Cu 0.13013 0.70854 0.39311 0.0
N323 N 0.1345 0.72911 0.39231 0.0
N324 N 0.14699 0.75108 0.3937 0.0
C325 C 0.14783 0.73591 0.39586 0.0
C326 C 0.13254 0.75383 0.38858 0.0
C327 C 0.12489 0.74028 0.38774 0.0
O328 O 0.14388 0.69845 0.376 0.0
C329 C 0.12484 0.6917 0.42684 0.0
O330 O 0.11509 0.68363 0.41728 0.0
H331 H 0.15787 0.72981 0.40005 0.0
H332 H 0.11317 0.73866 0.38391 0.0
N333 N 0.11048 0.70615 0.38403 0.0
N334 N 0.08536 0.7062 0.38056 0.0
C335 C 0.09698 0.70695 0.39274 0.0
C336 C 0.10723 0.70494 0.36589 0.0
C337 C 0.09182 0.70487 0.36371 0.0
C338 C 0.14061 0.68579 0.3686 0.0
O339 O 0.1287 0.67833 0.37456 0.0
H340 H 0.09572 0.70863 0.40751 0.0
H341 H 0.11557 0.70452 0.35493 0.0
O342 O 0.13236 0.70206 0.41876 0.0
H343 H 0.12786 0.7648 0.38526 0.0
H344 H 0.08583 0.704 0.35067 0.0
Cu345 Cu 0.30438 0.12915 0.39384 0.0
N346 N 0.2834 0.13145 0.39441 0.0
N347 N 0.26082 0.14274 0.39568 0.0
C348 C 0.27597 0.14456 0.39691 0.0
C349 C 0.25869 0.12786 0.39243 0.0
C350 C 0.27264 0.12093 0.39162 0.0
O351 O 0.31299 0.14256 0.37504 0.0
C352 C 0.32227 0.12616 0.42686 0.0
O353 O 0.32974 0.11574 0.41768 0.0
H354 H 0.28163 0.15523 0.39935 0.0
H355 H 0.27478 0.10913 0.38875 0.0
N356 N 0.30941 0.10959 0.38641 0.0
N357 N 0.31052 0.08456 0.38263 0.0
C358 C 0.30476 0.09602 0.39282 0.0
C359 C 0.3185 0.10657 0.37195 0.0
C360 C 0.31921 0.09119 0.36957 0.0
C361 C 0.30546 0.14556 0.36042 0.0
O362 O 0.29152 0.14057 0.35888 0.0
H363 H 0.29703 0.09461 0.40432 0.0
H364 H 0.3241 0.11502 0.36356 0.0
O365 O 0.31173 0.13341 0.41875 0.0
H366 H 0.24786 0.12242 0.39017 0.0
H367 H 0.32568 0.08534 0.35906 0.0
Cu368 Cu 0.63053 0.80784 0.89412 0.0
N369 N 0.63464 0.78726 0.89478 0.0
N370 N 0.64705 0.76531 0.8953 0.0
C371 C 0.64821 0.78045 0.89333 0.0
C372 C 0.63218 0.76254 0.89802 0.0
C373 C 0.62457 0.7761 0.89767 0.0
O374 O 0.64435 0.81704 0.87641 0.0
C375 C 0.6249 0.82487 0.92771 0.0
O376 O 0.61394 0.8317 0.91871 0.0
H377 H 0.65873 0.78652 0.89137 0.0
H378 H 0.61255 0.77775 0.8996 0.0
N379 N 0.61086 0.81003 0.88501 0.0
N380 N 0.58578 0.80892 0.88136 0.0
C381 C 0.59738 0.80825 0.89356 0.0
C382 C 0.60761 0.81178 0.86693 0.0
C383 C 0.59221 0.81121 0.86465 0.0
C384 C 0.64162 0.82981 0.86901 0.0
O385 O 0.63021 0.83788 0.8752 0.0
H386 H 0.59616 0.80583 0.90818 0.0
H387 H 0.61592 0.81289 0.85603 0.0
O388 O 0.63313 0.81527 0.91931 0.0
H389 H 0.62716 0.7515 0.90006 0.0
H390 H 0.58621 0.81219 0.85162 0.0
Cu391 Cu 0.20419 0.62827 0.8932 0.0
N392 N 0.22505 0.63123 0.89492 0.0
N393 N 0.2475 0.64279 0.89671 0.0
C394 C 0.23234 0.64458 0.8959 0.0
C395 C 0.24979 0.6277 0.89635 0.0
C396 C 0.23592 0.62061 0.89524 0.0
O397 O 0.19542 0.64224 0.87514 0.0
C398 C 0.19607 0.64271 0.92679 0.0
O399 O 0.20083 0.65491 0.9182 0.0
H400 H 0.22659 0.65537 0.89594 0.0
H401 H 0.2339 0.60856 0.89451 0.0
N402 N 0.20017 0.60892 0.88418 0.0
N403 N 0.1972 0.58397 0.88125 0.0
C404 C 0.20232 0.5953 0.89217 0.0
C405 C 0.19362 0.60607 0.86773 0.0
C406 C 0.19177 0.59073 0.86588 0.0
C407 C 0.2029 0.64558 0.86058 0.0
O408 O 0.2168 0.64054 0.8588 0.0
H409 H 0.2072 0.59377 0.9058 0.0
H410 H 0.19027 0.6146 0.85781 0.0
O411 O 0.19582 0.63022 0.91803 0.0
H412 H 0.2607 0.62216 0.89645 0.0
H413 H 0.18688 0.58499 0.85406 0.0
Cu414 Cu 0.38136 0.21173 0.89279 0.0
N415 N 0.37756 0.23238 0.89153 0.0
N416 N 0.36545 0.25455 0.89163 0.0
C417 C 0.36407 0.23936 0.8929 0.0
C418 C 0.3804 0.25715 0.88935 0.0
C419 C 0.38782 0.24346 0.88929 0.0
O420 O 0.36814 0.20174 0.87495 0.0
C421 C 0.38344 0.19388 0.92615 0.0
O422 O 0.39171 0.18442 0.91645 0.0
H423 H 0.35352 0.23339 0.89508 0.0
H424 H 0.39987 0.24169 0.88773 0.0
N425 N 0.40138 0.20867 0.88544 0.0
N426 N 0.42635 0.20493 0.88493 0.0
C427 C 0.41402 0.207 0.89572 0.0
C428 C 0.40594 0.20793 0.86769 0.0
C429 C 0.42128 0.20554 0.86732 0.0
C430 C 0.37169 0.1892 0.86746 0.0
O431 O 0.38361 0.18185 0.87356 0.0
H432 H 0.41415 0.20715 0.91071 0.0
H433 H 0.39854 0.20906 0.85582 0.0
O434 O 0.37787 0.20549 0.91829 0.0
H435 H 0.38562 0.26813 0.88761 0.0
H436 H 0.42823 0.20456 0.85502 0.0
Cu437 Cu 0.80785 0.37874 0.89542 0.0
N438 N 0.78684 0.37712 0.89504 0.0
N439 N 0.7639 0.36647 0.89475 0.0
C440 C 0.77898 0.36409 0.89549 0.0
C441 C 0.76225 0.38163 0.89381 0.0
C442 C 0.77643 0.38817 0.89395 0.0
O443 O 0.8153 0.36493 0.8766 0.0
C444 C 0.82564 0.38027 0.92844 0.0
O445 O 0.83407 0.3898 0.91904 0.0
H446 H 0.78429 0.3531 0.8965 0.0
H447 H 0.77895 0.40011 0.89312 0.0
N448 N 0.81355 0.39846 0.88915 0.0
N449 N 0.81616 0.42356 0.88956 0.0
C450 C 0.8097 0.41143 0.89774 0.0
C451 C 0.82261 0.40258 0.87503 0.0
C452 C 0.8243 0.41804 0.87531 0.0
C453 C 0.8291 0.3635 0.87192 0.0
O454 O 0.8396 0.37065 0.8814 0.0
H455 H 0.80239 0.41196 0.90976 0.0
H456 H 0.82751 0.39494 0.86503 0.0
O457 O 0.81452 0.37384 0.92042 0.0
H458 H 0.7516 0.38758 0.89272 0.0
H459 H 0.83068 0.42475 0.86548 0.0
Cu460 Cu 0.62929 0.20615 0.15805 0.0
N461 N 0.63247 0.2269 0.15898 0.0
N462 N 0.64412 0.24931 0.15942 0.0
C463 C 0.64587 0.23414 0.15885 0.0
C464 C 0.62902 0.25163 0.15993 0.0
C465 C 0.62187 0.23778 0.15967 0.0
O466 O 0.64347 0.19685 0.17529 0.0
C467 C 0.6261 0.18864 0.12447 0.0
O468 O 0.6175 0.17942 0.13411 0.0
H469 H 0.65664 0.22836 0.15806 0.0
H470 H 0.6098 0.23576 0.15995 0.0
N471 N 0.60973 0.20239 0.1667 0.0
N472 N 0.58482 0.19875 0.16927 0.0
C473 C 0.59644 0.20148 0.15754 0.0
C474 C 0.6063 0.20054 0.18471 0.0
C475 C 0.59102 0.19818 0.18633 0.0
C476 C 0.64096 0.18396 0.1825 0.0
O477 O 0.62961 0.17578 0.1763 0.0
H478 H 0.59532 0.20271 0.14268 0.0
H479 H 0.61441 0.201 0.19593 0.0
O480 O 0.6322 0.19995 0.13244 0.0
H481 H 0.62351 0.26253 0.16067 0.0
H482 H 0.58487 0.19655 0.19915 0.0
Cu483 Cu 0.80483 0.62956 0.15741 0.0
N484 N 0.78429 0.6339 0.15458 0.0
N485 N 0.76248 0.64649 0.15191 0.0
C486 C 0.77769 0.64759 0.15336 0.0
C487 C 0.75947 0.63152 0.15209 0.0
C488 C 0.77293 0.62381 0.15374 0.0
O489 O 0.81414 0.64313 0.17555 0.0
C490 C 0.81489 0.64267 0.12396 0.0
O491 O 0.81074 0.65529 0.13211 0.0
H492 H 0.78394 0.65811 0.15369 0.0
H493 H 0.77432 0.61168 0.15454 0.0
N494 N 0.80675 0.61018 0.16727 0.0
N495 N 0.80646 0.58518 0.17152 0.0
C496 C 0.80468 0.59657 0.15921 0.0
C497 C 0.81007 0.60727 0.1851 0.0
C498 C 0.8099 0.59191 0.18776 0.0
C499 C 0.80653 0.64745 0.1896 0.0
O500 O 0.79215 0.64381 0.19072 0.0
H501 H 0.80158 0.59508 0.14481 0.0
H502 H 0.81235 0.61576 0.19551 0.0
O503 O 0.81406 0.63034 0.13297 0.0
H504 H 0.74832 0.62646 0.15161 0.0
H505 H 0.81223 0.58613 0.20067 0.0
Cu506 Cu 0.38208 0.80157 0.15879 0.0
N507 N 0.37771 0.781 0.15835 0.0
N508 N 0.36496 0.75921 0.15688 0.0
C509 C 0.36397 0.77446 0.15729 0.0
C510 C 0.3799 0.75611 0.15775 0.0
C511 C 0.38772 0.76957 0.15866 0.0
O512 O 0.36891 0.81087 0.17712 0.0
C513 C 0.38666 0.81931 0.12569 0.0
O514 O 0.39725 0.82652 0.13495 0.0
H515 H 0.35352 0.78079 0.15652 0.0
H516 H 0.39987 0.77093 0.15947 0.0
N517 N 0.40208 0.80369 0.16673 0.0
N518 N 0.42729 0.80259 0.16835 0.0
C519 C 0.41505 0.80195 0.15712 0.0
C520 C 0.40628 0.80541 0.18452 0.0
C521 C 0.42178 0.80482 0.18556 0.0
C522 C 0.37183 0.82367 0.18437 0.0
O523 O 0.38312 0.83172 0.1778 0.0
H524 H 0.41548 0.79958 0.14241 0.0
H525 H 0.39854 0.80654 0.19605 0.0
O526 O 0.37891 0.80912 0.13377 0.0
H527 H 0.38485 0.74493 0.15794 0.0
H528 H 0.42848 0.80573 0.19807 0.0
Cu529 Cu 0.20434 0.37909 0.15868 0.0
N530 N 0.22533 0.37687 0.15829 0.0
N531 N 0.24802 0.36577 0.15725 0.0
C532 C 0.23289 0.36381 0.15597 0.0
C533 C 0.25001 0.3807 0.16036 0.0
C534 C 0.23599 0.38751 0.16103 0.0
O535 O 0.19565 0.36558 0.17734 0.0
C536 C 0.18675 0.38229 0.12543 0.0
O537 O 0.1793 0.39277 0.13454 0.0
H538 H 0.22734 0.35307 0.1536 0.0
H539 H 0.23374 0.39931 0.16374 0.0
N540 N 0.19926 0.39861 0.16623 0.0
N541 N 0.19821 0.42362 0.1702 0.0
C542 C 0.20375 0.41221 0.15974 0.0
C543 C 0.1905 0.40158 0.18102 0.0
C544 C 0.18985 0.41694 0.18352 0.0
C545 C 0.2031 0.36259 0.19204 0.0
O546 O 0.21701 0.36764 0.19371 0.0
H547 H 0.21126 0.41367 0.14804 0.0
H548 H 0.18515 0.3931 0.18961 0.0
O549 O 0.19714 0.37493 0.13366 0.0
H550 H 0.26077 0.38625 0.1626 0.0
H551 H 0.18371 0.42277 0.19435 0.0
Cu552 Cu 0.37977 0.20982 0.1597 0.0
N553 N 0.37619 0.23051 0.161 0.0
N554 N 0.3643 0.25277 0.16074 0.0
C555 C 0.3628 0.2376 0.15936 0.0
C556 C 0.37923 0.25523 0.16336 0.0
C557 C 0.38653 0.24148 0.16352 0.0
O558 O 0.3659 0.19993 0.17684 0.0
C559 C 0.38289 0.1925 0.12593 0.0
O560 O 0.3913 0.18308 0.13551 0.0
H561 H 0.35223 0.23173 0.15692 0.0
H562 H 0.39853 0.23959 0.16534 0.0
N563 N 0.39942 0.2064 0.16822 0.0
N564 N 0.42428 0.2024 0.17066 0.0
C565 C 0.4126 0.20494 0.15894 0.0
C566 C 0.40298 0.2051 0.18626 0.0
C567 C 0.41824 0.20253 0.18781 0.0
C568 C 0.36893 0.18709 0.18389 0.0
O569 O 0.38057 0.17943 0.17756 0.0
H570 H 0.4136 0.20555 0.14402 0.0
H571 H 0.39497 0.20596 0.19753 0.0
O572 O 0.37694 0.20383 0.13399 0.0
H573 H 0.38452 0.26616 0.16528 0.0
H574 H 0.42447 0.20113 0.20062 0.0
Cu575 Cu 0.80183 0.37972 0.15988 0.0
N576 N 0.7811 0.37611 0.15972 0.0
N577 N 0.75882 0.36419 0.15932 0.0
C578 C 0.77403 0.36263 0.15944 0.0
C579 C 0.7563 0.37925 0.15956 0.0
C580 C 0.77007 0.38656 0.15981 0.0
O581 O 0.81102 0.36561 0.17723 0.0
C582 C 0.82011 0.38408 0.1272 0.0
O583 O 0.82817 0.39356 0.13715 0.0
H584 H 0.77997 0.35194 0.15909 0.0
H585 H 0.77191 0.39864 0.16009 0.0
N586 N 0.80479 0.39924 0.16909 0.0
N587 N 0.80505 0.42431 0.17282 0.0
C588 C 0.80378 0.41279 0.16057 0.0
C589 C 0.8067 0.40234 0.18718 0.0
C590 C 0.80699 0.41772 0.18951 0.0
C591 C 0.82399 0.36809 0.18427 0.0
O592 O 0.83214 0.37941 0.17797 0.0
H593 H 0.80154 0.41415 0.14592 0.0
H594 H 0.80743 0.39395 0.19803 0.0
O595 O 0.80905 0.37714 0.13464 0.0
H596 H 0.74532 0.38464 0.15982 0.0
H597 H 0.80838 0.42359 0.20256 0.0
Cu598 Cu 0.63097 0.80345 0.15991 0.0
N599 N 0.63536 0.78287 0.1595 0.0
N600 N 0.64785 0.76098 0.15776 0.0
C601 C 0.64901 0.77622 0.15815 0.0
C602 C 0.6329 0.75801 0.15898 0.0
C603 C 0.62524 0.77152 0.16005 0.0
O604 O 0.64375 0.81297 0.17855 0.0
C605 C 0.62628 0.8214 0.12712 0.0
O606 O 0.61574 0.82839 0.13665 0.0
H607 H 0.65953 0.78246 0.15713 0.0
H608 H 0.61312 0.77297 0.16111 0.0
N609 N 0.61089 0.80545 0.16757 0.0
N610 N 0.58569 0.80408 0.16894 0.0
C611 C 0.598 0.80336 0.15787 0.0
C612 C 0.60655 0.80751 0.18525 0.0
C613 C 0.59104 0.80673 0.18614 0.0
C614 C 0.64077 0.8261 0.18476 0.0
O615 O 0.63 0.83402 0.1768 0.0
H616 H 0.5977 0.8007 0.14323 0.0
H617 H 0.61418 0.80898 0.19682 0.0
O618 O 0.63416 0.81117 0.13493 0.0
H619 H 0.62783 0.74687 0.15929 0.0
H620 H 0.58423 0.80781 0.19853 0.0
Cu621 Cu 0.20692 0.62897 0.15938 0.0
N622 N 0.2276 0.63288 0.15714 0.0
N623 N 0.24954 0.64531 0.1547 0.0
C624 C 0.23433 0.6465 0.15585 0.0
C625 C 0.25244 0.63033 0.15518 0.0
C626 C 0.23889 0.62271 0.15669 0.0
O627 O 0.19778 0.64266 0.17749 0.0
C628 C 0.19764 0.64285 0.12601 0.0
O629 O 0.20202 0.65523 0.13454 0.0
H630 H 0.22815 0.65706 0.15584 0.0
H631 H 0.23739 0.6106 0.1576 0.0
N632 N 0.20408 0.60957 0.16888 0.0
N633 N 0.20391 0.58456 0.17329 0.0
C634 C 0.20736 0.59595 0.16149 0.0
C635 C 0.19826 0.60668 0.18572 0.0
C636 C 0.19813 0.59133 0.18848 0.0
C637 C 0.20528 0.64639 0.1919 0.0
O638 O 0.21943 0.64204 0.19341 0.0
H639 H 0.2124 0.59445 0.14795 0.0
H640 H 0.19436 0.61517 0.19537 0.0
O641 O 0.19805 0.63036 0.13475 0.0
H642 H 0.26356 0.62522 0.15491 0.0
H643 H 0.19388 0.58561 0.20067 0.0
Cu644 Cu 0.38036 0.79885 0.89364 0.0
N645 N 0.37603 0.77827 0.89416 0.0
N646 N 0.36359 0.75629 0.89544 0.0
C647 C 0.36237 0.77152 0.89486 0.0
C648 C 0.3786 0.75343 0.89504 0.0
C649 C 0.38622 0.76699 0.89426 0.0
O650 O 0.36668 0.80846 0.87609 0.0
C651 C 0.38572 0.81694 0.92639 0.0
O652 O 0.3957 0.82447 0.91655 0.0
H653 H 0.3518 0.77769 0.89523 0.0
H654 H 0.39835 0.76855 0.89381 0.0
N655 N 0.4 0.80086 0.88441 0.0
N656 N 0.42511 0.80088 0.8809 0.0
C657 C 0.41352 0.80047 0.89312 0.0
C658 C 0.4032 0.80146 0.86621 0.0
C659 C 0.41861 0.80157 0.864 0.0
C660 C 0.37003 0.82108 0.86863 0.0
O661 O 0.38194 0.82852 0.87464 0.0
H662 H 0.41481 0.79936 0.90797 0.0
H663 H 0.39484 0.8015 0.85526 0.0
O664 O 0.37812 0.80638 0.91881 0.0
H665 H 0.38374 0.74233 0.89508 0.0
H666 H 0.42457 0.80209 0.85092 0.0
Cu667 Cu 0.20383 0.37852 0.89304 0.0
N668 N 0.22486 0.3768 0.89327 0.0
N669 N 0.24779 0.36621 0.89404 0.0
C670 C 0.23271 0.36387 0.89518 0.0
C671 C 0.24944 0.38125 0.89147 0.0
C672 C 0.23527 0.38775 0.89098 0.0
O673 O 0.19534 0.36481 0.87444 0.0
C674 C 0.18603 0.381 0.92617 0.0
O675 O 0.17794 0.39084 0.91681 0.0
H676 H 0.2274 0.35297 0.89722 0.0
H677 H 0.23272 0.39956 0.88876 0.0
N678 N 0.19817 0.39792 0.88569 0.0
N679 N 0.19459 0.42287 0.88365 0.0
C680 C 0.20125 0.41154 0.89325 0.0
C681 C 0.18941 0.40076 0.87087 0.0
C682 C 0.18719 0.41607 0.86956 0.0
C683 C 0.20274 0.36203 0.85965 0.0
O684 O 0.21648 0.36748 0.8578 0.0
H685 H 0.20802 0.41307 0.90561 0.0
H686 H 0.18493 0.39223 0.86163 0.0
O687 O 0.19689 0.37419 0.91812 0.0
H688 H 0.26009 0.3871 0.88954 0.0
H689 H 0.1808 0.42176 0.85884 0.0
Cu690 Cu 0.6293 0.21234 0.89304 0.0
N691 N 0.63332 0.23299 0.89272 0.0
N692 N 0.64569 0.25503 0.89308 0.0
C693 C 0.64694 0.2398 0.89344 0.0
C694 C 0.63069 0.25783 0.89208 0.0
C695 C 0.6231 0.24422 0.89186 0.0
O696 O 0.64241 0.20277 0.87476 0.0
C697 C 0.62697 0.19333 0.92531 0.0
O698 O 0.61881 0.18426 0.91489 0.0
H699 H 0.6575 0.23367 0.89447 0.0
H700 H 0.61098 0.2426 0.89108 0.0
N701 N 0.60926 0.20964 0.88553 0.0
N702 N 0.58427 0.20599 0.8849 0.0
C703 C 0.59661 0.20779 0.89575 0.0
C704 C 0.60469 0.20932 0.86776 0.0
C705 C 0.58933 0.20697 0.86731 0.0
C706 C 0.63882 0.19039 0.86687 0.0
O707 O 0.62691 0.18291 0.87278 0.0
H708 H 0.59649 0.20755 0.91074 0.0
H709 H 0.61209 0.21066 0.85594 0.0
O710 O 0.63262 0.20525 0.91825 0.0
H711 H 0.62553 0.2689 0.89129 0.0
H712 H 0.58237 0.20625 0.85499 0.0
Cu713 Cu 0.79967 0.62743 0.8937 0.0
N714 N 0.78047 0.63504 0.89859 0.0
N715 N 0.76008 0.64977 0.90143 0.0
C716 C 0.77465 0.64892 0.89572 0.0
C717 C 0.75672 0.63586 0.90798 0.0
C718 C 0.76929 0.62687 0.90626 0.0
O719 O 0.80904 0.63841 0.8733 0.0
C720 C 0.81247 0.64056 0.9254 0.0
O721 O 0.80796 0.65306 0.91726 0.0
H722 H 0.78103 0.65819 0.88981 0.0
H723 H 0.77023 0.61511 0.91022 0.0
N724 N 0.79663 0.60751 0.88621 0.0
N725 N 0.7952 0.58237 0.88565 0.0
C726 C 0.8015 0.59453 0.89395 0.0
C727 C 0.78712 0.60339 0.87255 0.0
C728 C 0.78617 0.58788 0.87221 0.0
C729 C 0.81974 0.63225 0.8642 0.0
O730 O 0.82512 0.61923 0.86996 0.0
H731 H 0.80893 0.59402 0.90586 0.0
H732 H 0.78092 0.6112 0.86388 0.0
O733 O 0.81091 0.62807 0.91686 0.0
H734 H 0.74587 0.63228 0.91336 0.0
H735 H 0.77925 0.58115 0.86296 0.0
C736 C 0.23448 0.15086 0.40167 0.0
C737 C 0.24941 0.15437 0.39649 0.0
C738 C 0.22333 0.16206 0.40196 0.0
C739 C 0.21424 0.19946 0.3823 0.0
H740 H 0.18449 0.20089 0.42174 0.0
C741 C 0.1713 0.24831 0.38892 0.0
C742 C 0.15632 0.2444 0.39345 0.0
C743 C 0.18285 0.23755 0.38984 0.0
C744 C 0.19263 0.20055 0.41053 0.0
H745 H 0.26426 0.1725 0.38749 0.0
H746 H 0.24491 0.19204 0.38832 0.0
H747 H 0.20429 0.1817 0.42244 0.0
H748 H 0.14185 0.22612 0.40284 0.0
H749 H 0.16191 0.20731 0.4041 0.0
H750 H 0.20255 0.21824 0.37033 0.0
C751 C 0.24179 0.18058 0.39201 0.0
C752 C 0.20397 0.18956 0.41093 0.0
C753 C 0.25294 0.16939 0.39176 0.0
C754 C 0.1532 0.22949 0.39905 0.0
C755 C 0.16475 0.21874 0.39999 0.0
C756 C 0.2029 0.21044 0.38189 0.0
C757 C 0.22684 0.17703 0.39702 0.0
C758 C 0.2149 0.18886 0.3968 0.0
C759 C 0.1797 0.22262 0.39533 0.0
C760 C 0.19193 0.2111 0.39597 0.0
H761 H 0.2314 0.13945 0.40557 0.0
H762 H 0.21188 0.15892 0.40573 0.0
H763 H 0.22233 0.19908 0.37104 0.0
H764 H 0.1741 0.25963 0.38439 0.0
H765 H 0.19427 0.24096 0.38634 0.0
C766 C 0.77716 0.15097 0.40183 0.0
C767 C 0.76231 0.15499 0.39687 0.0
C768 C 0.78858 0.16191 0.40276 0.0
C769 C 0.79474 0.2032 0.40668 0.0
H770 H 0.83422 0.19404 0.38611 0.0
C771 C 0.83936 0.24938 0.3927 0.0
C772 C 0.85458 0.24609 0.3967 0.0
C773 C 0.82831 0.2381 0.39361 0.0
C774 C 0.82333 0.19671 0.39213 0.0
H775 H 0.74791 0.17373 0.38881 0.0
H776 H 0.76776 0.19275 0.39045 0.0
H777 H 0.81455 0.17467 0.38618 0.0
H778 H 0.87004 0.22833 0.40503 0.0
H779 H 0.85075 0.20861 0.40661 0.0
H780 H 0.80347 0.22527 0.41249 0.0
C781 C 0.77054 0.18117 0.39392 0.0
C782 C 0.81205 0.18561 0.39218 0.0
C783 C 0.75914 0.17024 0.39299 0.0
C784 C 0.85847 0.23122 0.40164 0.0
C785 C 0.84741 0.21991 0.40255 0.0
C786 C 0.80601 0.2143 0.40663 0.0
C787 C 0.78541 0.17714 0.39876 0.0
C788 C 0.79758 0.18876 0.39933 0.0
C789 C 0.83219 0.22323 0.39854 0.0
C790 C 0.82041 0.21122 0.39923 0.0
H791 H 0.77996 0.13938 0.40516 0.0
H792 H 0.79986 0.15845 0.40679 0.0
H793 H 0.78381 0.20592 0.41258 0.0
H794 H 0.83597 0.26061 0.38849 0.0
H795 H 0.81675 0.24098 0.3901 0.0
C796 C 0.85328 0.77267 0.40501 0.0
C797 C 0.85121 0.75868 0.39613 0.0
C798 C 0.84182 0.78352 0.40493 0.0
C799 C 0.80071 0.78872 0.39794 0.0
H800 H 0.8123 0.8306 0.39069 0.0
C801 C 0.75726 0.83731 0.38781 0.0
C802 C 0.76038 0.85095 0.3971 0.0
C803 C 0.76794 0.82564 0.38752 0.0
C804 C 0.80889 0.81898 0.39291 0.0
H805 H 0.8354 0.74512 0.38024 0.0
H806 H 0.81536 0.76412 0.38003 0.0
H807 H 0.83162 0.81102 0.3904 0.0
H808 H 0.77697 0.8627 0.41398 0.0
H809 H 0.79552 0.84246 0.41338 0.0
H810 H 0.77792 0.79677 0.40041 0.0
C811 C 0.82582 0.76661 0.38725 0.0
C812 C 0.81996 0.80775 0.39276 0.0
C813 C 0.8373 0.75572 0.38737 0.0
C814 C 0.7743 0.85252 0.40634 0.0
C815 C 0.78495 0.84089 0.40602 0.0
C816 C 0.7896 0.79998 0.39806 0.0
C817 C 0.828 0.78069 0.39592 0.0
C818 C 0.81605 0.7925 0.39545 0.0
C819 C 0.78197 0.82736 0.39647 0.0
C820 C 0.79359 0.81526 0.39572 0.0
H821 H 0.86371 0.77521 0.41222 0.0
H822 H 0.84377 0.79411 0.41208 0.0
H823 H 0.79733 0.7771 0.40023 0.0
H824 H 0.74673 0.83577 0.38039 0.0
H825 H 0.76535 0.8154 0.37991 0.0
C826 C 0.17425 0.75771 0.39438 0.0
C827 C 0.15899 0.76204 0.39587 0.0
C828 C 0.18582 0.76845 0.39584 0.0
C829 C 0.19387 0.80753 0.41204 0.0
H830 H 0.2275 0.80484 0.37771 0.0
C831 C 0.23586 0.8567 0.39921 0.0
C832 C 0.25124 0.85301 0.39722 0.0
C833 C 0.2249 0.84532 0.40043 0.0
C834 C 0.21828 0.80565 0.38755 0.0
H835 H 0.14404 0.7811 0.40064 0.0
H836 H 0.16411 0.79981 0.40265 0.0
H837 H 0.20791 0.78546 0.37732 0.0
H838 H 0.26714 0.83442 0.39502 0.0
H839 H 0.24806 0.81462 0.39735 0.0
H840 H 0.20417 0.82791 0.42201 0.0
C841 C 0.16718 0.78808 0.40056 0.0
C842 C 0.20705 0.79452 0.38736 0.0
C843 C 0.15562 0.77735 0.39915 0.0
C844 C 0.25543 0.83768 0.39675 0.0
C845 C 0.24447 0.82632 0.39787 0.0
C846 C 0.20508 0.81871 0.41218 0.0
C847 C 0.18242 0.78379 0.39879 0.0
C848 C 0.19466 0.79535 0.39953 0.0
C849 C 0.22907 0.83 0.39957 0.0
C850 C 0.21737 0.81792 0.39988 0.0
H851 H 0.17731 0.74608 0.39172 0.0
H852 H 0.19745 0.76471 0.39464 0.0
H853 H 0.18462 0.8084 0.42182 0.0
H854 H 0.23228 0.86839 0.39977 0.0
H855 H 0.21311 0.84854 0.40159 0.0
C856 C 0.17063 0.76105 0.66452 0.0
C857 C 0.15582 0.76457 0.65885 0.0
C858 C 0.18205 0.77202 0.66398 0.0
C859 C 0.18775 0.81339 0.66327 0.0
H860 H 0.22818 0.80308 0.6467 0.0
C861 C 0.23398 0.85867 0.6519 0.0
C862 C 0.2487 0.85516 0.6579 0.0
C863 C 0.22269 0.84759 0.65161 0.0
C864 C 0.21698 0.8061 0.65154 0.0
H865 H 0.14156 0.78232 0.64766 0.0
H866 H 0.16142 0.80139 0.64676 0.0
H867 H 0.20847 0.78374 0.64696 0.0
H868 H 0.26297 0.83722 0.66861 0.0
H869 H 0.24331 0.81794 0.66813 0.0
H870 H 0.19625 0.83573 0.66793 0.0
C871 C 0.16415 0.79022 0.65194 0.0
C872 C 0.20569 0.79502 0.65169 0.0
C873 C 0.15275 0.77927 0.65246 0.0
C874 C 0.25185 0.84028 0.66359 0.0
C875 C 0.24056 0.82921 0.66332 0.0
C876 C 0.19903 0.82447 0.66313 0.0
C877 C 0.17891 0.78676 0.65778 0.0
C878 C 0.19094 0.79853 0.65756 0.0
C879 C 0.22584 0.83272 0.65735 0.0
C880 C 0.21379 0.82096 0.65728 0.0
H881 H 0.17336 0.74992 0.66974 0.0
H882 H 0.19326 0.76903 0.66881 0.0
H883 H 0.17657 0.81641 0.66815 0.0
H884 H 0.23123 0.86995 0.64719 0.0
H885 H 0.21152 0.85063 0.64667 0.0
C886 C 0.23498 0.14888 0.65201 0.0
C887 C 0.24973 0.15269 0.65766 0.0
C888 C 0.22355 0.1598 0.65172 0.0
C889 C 0.21741 0.20119 0.65084 0.0
H890 H 0.1773 0.19071 0.66846 0.0
C891 C 0.17108 0.24605 0.66374 0.0
C892 C 0.15622 0.24241 0.65836 0.0
C893 C 0.18248 0.23511 0.66332 0.0
C894 C 0.18839 0.19377 0.66329 0.0
H895 H 0.2639 0.17097 0.66775 0.0
H896 H 0.24402 0.18996 0.66725 0.0
H897 H 0.19715 0.17159 0.66826 0.0
H898 H 0.14183 0.22444 0.64792 0.0
H899 H 0.16169 0.20539 0.6472 0.0
H900 H 0.20865 0.22339 0.64594 0.0
C901 C 0.24134 0.17859 0.66272 0.0
C902 C 0.19977 0.18281 0.66317 0.0
C903 C 0.25276 0.16768 0.663 0.0
C904 C 0.15307 0.22758 0.65246 0.0
C905 C 0.16447 0.21665 0.65204 0.0
C906 C 0.20603 0.21216 0.65097 0.0
C907 C 0.22659 0.17479 0.65709 0.0
C908 C 0.21442 0.18639 0.65697 0.0
C909 C 0.1793 0.22027 0.6575 0.0
C910 C 0.19139 0.20859 0.65723 0.0
H911 H 0.2323 0.13751 0.64757 0.0
H912 H 0.21236 0.15654 0.64705 0.0
H913 H 0.22851 0.20427 0.64571 0.0
H914 H 0.17387 0.25728 0.66862 0.0
H915 H 0.19375 0.23822 0.66787 0.0
C916 C 0.75762 0.1719 0.65712 0.0
C917 C 0.76133 0.15646 0.65603 0.0
C918 C 0.76891 0.18296 0.65657 0.0
C919 C 0.80915 0.18943 0.64389 0.0
H920 H 0.80516 0.22376 0.67696 0.0
C921 C 0.858 0.23145 0.6591 0.0
C922 C 0.85427 0.24688 0.66001 0.0
C923 C 0.84666 0.22048 0.65751 0.0
C924 C 0.80636 0.21433 0.66749 0.0
H925 H 0.77995 0.14068 0.65301 0.0
H926 H 0.79964 0.15993 0.65262 0.0
H927 H 0.78547 0.20451 0.67631 0.0
H928 H 0.83567 0.26286 0.65989 0.0
H929 H 0.81592 0.24374 0.65697 0.0
H930 H 0.83022 0.19922 0.63535 0.0
C931 C 0.78795 0.16349 0.65366 0.0
C932 C 0.79505 0.20329 0.66708 0.0
C933 C 0.77665 0.15242 0.65412 0.0
C934 C 0.83895 0.2511 0.65904 0.0
C935 C 0.82762 0.24013 0.65757 0.0
C936 C 0.82051 0.20045 0.64438 0.0
C937 C 0.78424 0.17891 0.65503 0.0
C938 C 0.79628 0.1907 0.65527 0.0
C939 C 0.83134 0.22469 0.65693 0.0
C940 C 0.81923 0.21303 0.65618 0.0
H941 H 0.74602 0.17553 0.65877 0.0
H942 H 0.7656 0.19473 0.65737 0.0
H943 H 0.81037 0.18 0.63444 0.0
H944 H 0.86969 0.22785 0.65964 0.0
H945 H 0.84988 0.20867 0.65717 0.0
C946 C 0.85242 0.77214 0.64798 0.0
C947 C 0.84946 0.75773 0.65538 0.0
C948 C 0.84096 0.78296 0.64679 0.0
C949 C 0.80428 0.79344 0.66722 0.0
H950 H 0.80129 0.81954 0.6242 0.0
C951 C 0.75634 0.83736 0.65917 0.0
C952 C 0.76051 0.85171 0.6525 0.0
C953 C 0.76656 0.82531 0.65868 0.0
C954 C 0.80206 0.81243 0.63638 0.0
H955 H 0.83206 0.74343 0.66729 0.0
H956 H 0.81199 0.76227 0.66501 0.0
H957 H 0.82022 0.7995 0.62484 0.0
H958 H 0.77867 0.8645 0.6397 0.0
H959 H 0.79658 0.84361 0.63918 0.0
H960 H 0.78626 0.80648 0.67887 0.0
C961 C 0.82324 0.76521 0.66026 0.0
C962 C 0.8129 0.80094 0.63674 0.0
C963 C 0.83471 0.75436 0.66139 0.0
C964 C 0.77511 0.85366 0.64514 0.0
C965 C 0.78533 0.84162 0.64464 0.0
C966 C 0.79345 0.80495 0.66687 0.0
C967 C 0.82625 0.77966 0.653 0.0
C968 C 0.81423 0.79139 0.65223 0.0
C969 C 0.78122 0.82732 0.6515 0.0
C970 C 0.79229 0.81466 0.65152 0.0
H971 H 0.8636 0.77506 0.64301 0.0
H972 H 0.84371 0.79402 0.64129 0.0
H973 H 0.80514 0.78642 0.67947 0.0
H974 H 0.74526 0.83546 0.66511 0.0
H975 H 0.76297 0.81441 0.66391 0.0
C976 C 0.6723 0.75683 0.88468 0.0
C977 C 0.65913 0.75438 0.8952 0.0
C978 C 0.68385 0.74602 0.88437 0.0
C979 C 0.69067 0.70544 0.89418 0.0
H980 H 0.73299 0.71712 0.8955 0.0
C981 C 0.73725 0.66318 0.9123 0.0
C982 C 0.74996 0.66256 0.9006 0.0
C983 C 0.72682 0.67492 0.91078 0.0
C984 C 0.72121 0.71372 0.89493 0.0
H985 H 0.64803 0.73894 0.91415 0.0
H986 H 0.66815 0.72026 0.91384 0.0
H987 H 0.71339 0.73664 0.89447 0.0
H988 H 0.76188 0.67422 0.87853 0.0
H989 H 0.74368 0.69497 0.87614 0.0
H990 H 0.69846 0.68257 0.89509 0.0
C991 C 0.66943 0.7303 0.90539 0.0
C992 C 0.70999 0.72488 0.89431 0.0
C993 C 0.65787 0.74103 0.9056 0.0
C994 C 0.75227 0.67435 0.88781 0.0
C995 C 0.74185 0.68622 0.8864 0.0
C996 C 0.70185 0.69434 0.89496 0.0
C997 C 0.68251 0.73257 0.89464 0.0
C998 C 0.69457 0.72085 0.8942 0.0
C999 C 0.72888 0.68644 0.89766 0.0
C1000 C 0.71722 0.69836 0.89561 0.0
H1001 H 0.67352 0.76695 0.87639 0.0
H1002 H 0.6937 0.74807 0.8758 0.0
H1003 H 0.67894 0.7019 0.89362 0.0
H1004 H 0.73527 0.65458 0.92267 0.0
H1005 H 0.71709 0.67498 0.91992 0.0
C1006 C 0.25585 0.66895 0.88994 0.0
C1007 C 0.25887 0.65451 0.89723 0.0
C1008 C 0.26697 0.68021 0.89013 0.0
C1009 C 0.30834 0.68543 0.89308 0.0
H1010 H 0.29804 0.72692 0.905 0.0
C1011 C 0.35408 0.73095 0.90406 0.0
C1012 C 0.35152 0.74531 0.89631 0.0
C1013 C 0.34257 0.72013 0.90448 0.0
C1014 C 0.30107 0.71542 0.90145 0.0
H1015 H 0.27587 0.64077 0.91083 0.0
H1016 H 0.29523 0.66039 0.91116 0.0
H1017 H 0.27835 0.70753 0.90523 0.0
H1018 H 0.33477 0.75952 0.88297 0.0
H1019 H 0.31466 0.7406 0.88368 0.0
H1020 H 0.33103 0.69327 0.88925 0.0
C1021 C 0.28434 0.66292 0.90502 0.0
C1022 C 0.28979 0.70431 0.90158 0.0
C1023 C 0.27323 0.65166 0.90483 0.0
C1024 C 0.33708 0.74864 0.88923 0.0
C1025 C 0.32555 0.73779 0.88963 0.0
C1026 C 0.31961 0.69652 0.89294 0.0
C1027 C 0.28137 0.67731 0.8976 0.0
C1028 C 0.29331 0.68917 0.89745 0.0
C1029 C 0.3282 0.72337 0.89715 0.0
C1030 C 0.31612 0.71164 0.89717 0.0
H1031 H 0.24501 0.67148 0.88371 0.0
H1032 H 0.26437 0.6911 0.88406 0.0
H1033 H 0.31139 0.67394 0.88949 0.0
H1034 H 0.36495 0.72809 0.90998 0.0
H1035 H 0.34491 0.70924 0.91071 0.0
C1036 C 0.3386 0.26188 0.88763 0.0
C1037 C 0.35354 0.26567 0.89252 0.0
C1038 C 0.32712 0.27273 0.88827 0.0
C1039 C 0.32096 0.31405 0.88804 0.0
H1040 H 0.28116 0.30344 0.90658 0.0
C1041 C 0.27437 0.35879 0.89997 0.0
C1042 C 0.25957 0.35493 0.89455 0.0
C1043 C 0.28582 0.3479 0.90018 0.0
C1044 C 0.29217 0.30654 0.90119 0.0
H1045 H 0.36797 0.28383 0.90237 0.0
H1046 H 0.34798 0.30272 0.90349 0.0
H1047 H 0.30111 0.28441 0.90606 0.0
H1048 H 0.24534 0.33656 0.88483 0.0
H1049 H 0.26527 0.31761 0.88521 0.0
H1050 H 0.31201 0.33616 0.88312 0.0
C1051 C 0.3452 0.29141 0.89884 0.0
C1052 C 0.30361 0.29563 0.90088 0.0
C1053 C 0.35667 0.28056 0.89819 0.0
C1054 C 0.25652 0.33989 0.8894 0.0
C1055 C 0.26797 0.32901 0.88961 0.0
C1056 C 0.30953 0.32495 0.88834 0.0
C1057 C 0.33029 0.28764 0.89383 0.0
C1058 C 0.31813 0.29925 0.89428 0.0
C1059 C 0.28277 0.33288 0.89496 0.0
C1060 C 0.29499 0.32133 0.89489 0.0
H1061 H 0.33582 0.25059 0.88295 0.0
H1062 H 0.3158 0.2695 0.88407 0.0
H1063 H 0.33195 0.31715 0.88259 0.0
H1064 H 0.27707 0.3702 0.90426 0.0
H1065 H 0.29705 0.35121 0.90464 0.0
C1066 C 0.65511 0.28075 0.90021 0.0
C1067 C 0.65777 0.26603 0.89363 0.0
C1068 C 0.66674 0.29147 0.90057 0.0
C1069 C 0.70381 0.30037 0.8796 0.0
H1070 H 0.70774 0.32754 0.92152 0.0
C1071 C 0.75501 0.34042 0.88841 0.0
C1072 C 0.75209 0.35517 0.89472 0.0
C1073 C 0.74359 0.32947 0.88839 0.0
C1074 C 0.7067 0.32015 0.90962 0.0
H1075 H 0.67483 0.2511 0.88216 0.0
H1076 H 0.69518 0.26971 0.88309 0.0
H1077 H 0.68777 0.30849 0.9214 0.0
H1078 H 0.73483 0.3699 0.90611 0.0
H1079 H 0.71485 0.35088 0.90578 0.0
H1080 H 0.72272 0.31204 0.86781 0.0
C1081 C 0.68403 0.273 0.88782 0.0
C1082 C 0.69525 0.30922 0.90955 0.0
C1083 C 0.6724 0.26227 0.88748 0.0
C1084 C 0.73745 0.3587 0.901 0.0
C1085 C 0.72603 0.34774 0.90101 0.0
C1086 C 0.71526 0.31129 0.87967 0.0
C1087 C 0.68133 0.28774 0.89434 0.0
C1088 C 0.69365 0.29922 0.89452 0.0
C1089 C 0.72897 0.33299 0.8947 0.0
C1090 C 0.71682 0.32133 0.89466 0.0
H1091 H 0.64405 0.284 0.90525 0.0
H1092 H 0.66422 0.30275 0.9055 0.0
H1093 H 0.70275 0.29301 0.86768 0.0
H1094 H 0.76608 0.33733 0.88327 0.0
H1095 H 0.74628 0.31818 0.8836 0.0
C1096 C 0.67044 0.2573 0.16607 0.0
C1097 C 0.65588 0.26064 0.15936 0.0
C1098 C 0.68179 0.26833 0.1661 0.0
C1099 C 0.68736 0.30972 0.16456 0.0
H1100 H 0.72839 0.29933 0.15045 0.0
C1101 C 0.733 0.35512 0.15205 0.0
C1102 C 0.74758 0.35234 0.15907 0.0
C1103 C 0.72201 0.34376 0.15209 0.0
C1104 C 0.71702 0.30238 0.15462 0.0
H1105 H 0.64198 0.27816 0.14705 0.0
H1106 H 0.66173 0.29735 0.14708 0.0
H1107 H 0.70883 0.27983 0.15053 0.0
H1108 H 0.76196 0.33537 0.17172 0.0
H1109 H 0.74278 0.31553 0.17175 0.0
H1110 H 0.69551 0.33226 0.1686 0.0
C1111 C 0.66431 0.28628 0.15263 0.0
C1112 C 0.70582 0.2912 0.15467 0.0
C1113 C 0.65297 0.27526 0.15261 0.0
C1114 C 0.75093 0.33786 0.16598 0.0
C1115 C 0.73993 0.32648 0.16601 0.0
C1116 C 0.69855 0.32089 0.16448 0.0
C1117 C 0.67884 0.28296 0.15942 0.0
C1118 C 0.69084 0.29476 0.15958 0.0
C1119 C 0.72531 0.32933 0.15915 0.0
C1120 C 0.7135 0.31736 0.15945 0.0
H1121 H 0.67302 0.24623 0.17161 0.0
H1122 H 0.6928 0.26546 0.17167 0.0
H1123 H 0.676 0.31279 0.16873 0.0
H1124 H 0.73009 0.36603 0.1463 0.0
H1125 H 0.71095 0.34624 0.14639 0.0
C1126 C 0.73721 0.65633 0.14348 0.0
C1127 C 0.75161 0.65865 0.15129 0.0
C1128 C 0.7264 0.66784 0.14365 0.0
C1129 C 0.72151 0.70911 0.14871 0.0
H1130 H 0.68039 0.69806 0.16174 0.0
C1131 C 0.67452 0.75343 0.16289 0.0
C1132 C 0.65993 0.75009 0.15628 0.0
C1133 C 0.68605 0.74262 0.16196 0.0
C1134 C 0.69177 0.70133 0.15785 0.0
H1135 H 0.76591 0.67502 0.16527 0.0
H1136 H 0.74705 0.69512 0.16548 0.0
H1137 H 0.69986 0.67865 0.16048 0.0
H1138 H 0.6462 0.73295 0.14285 0.0
H1139 H 0.66623 0.71419 0.14115 0.0
H1140 H 0.71336 0.73182 0.14605 0.0
C1141 C 0.7442 0.68442 0.15907 0.0
C1142 C 0.70294 0.69019 0.15713 0.0
C1143 C 0.75502 0.67289 0.15893 0.0
C1144 C 0.65721 0.7358 0.14842 0.0
C1145 C 0.66871 0.72503 0.14745 0.0
C1146 C 0.71031 0.72028 0.14938 0.0
C1147 C 0.7297 0.68196 0.15161 0.0
C1148 C 0.71792 0.69393 0.15247 0.0
C1149 C 0.68324 0.72823 0.15437 0.0
C1150 C 0.69528 0.71649 0.15388 0.0
H1151 H 0.73428 0.64563 0.13716 0.0
H1152 H 0.71544 0.66567 0.13746 0.0
H1153 H 0.73292 0.71233 0.1449 0.0
H1154 H 0.67695 0.76427 0.16919 0.0
H1155 H 0.69707 0.7454 0.1676 0.0
C1156 C 0.27483 0.65506 0.14602 0.0
C1157 C 0.26045 0.65746 0.1538 0.0
C1158 C 0.28553 0.66669 0.14556 0.0
C1159 C 0.29555 0.70268 0.16837 0.0
H1160 H 0.32157 0.70787 0.12557 0.0
C1161 C 0.33821 0.75212 0.16237 0.0
C1162 C 0.3527 0.74847 0.15569 0.0
C1163 C 0.32643 0.74156 0.16151 0.0
C1164 C 0.31447 0.70649 0.13768 0.0
H1165 H 0.2461 0.67406 0.16722 0.0
H1166 H 0.26466 0.69442 0.1661 0.0
H1167 H 0.30192 0.68848 0.12513 0.0
H1168 H 0.36603 0.73094 0.14249 0.0
H1169 H 0.3456 0.71249 0.14127 0.0
H1170 H 0.30818 0.72062 0.18096 0.0
C1171 C 0.26771 0.68348 0.16051 0.0
C1172 C 0.30322 0.69537 0.13744 0.0
C1173 C 0.25699 0.67184 0.16096 0.0
C1174 C 0.35508 0.73407 0.14796 0.0
C1175 C 0.3433 0.72355 0.14705 0.0
C1176 C 0.3068 0.71381 0.1686 0.0
C1177 C 0.28213 0.68102 0.15287 0.0
C1178 C 0.2937 0.69325 0.15284 0.0
C1179 C 0.32885 0.72714 0.15389 0.0
C1180 C 0.31647 0.71576 0.15332 0.0
H1181 H 0.27783 0.64419 0.14021 0.0
H1182 H 0.29659 0.66436 0.13975 0.0
H1183 H 0.28856 0.70121 0.18056 0.0
H1184 H 0.33601 0.76305 0.16854 0.0
H1185 H 0.31539 0.74473 0.16675 0.0
C1186 C 0.27446 0.35793 0.15134 0.0
C1187 C 0.25957 0.35427 0.15654 0.0
C1188 C 0.28574 0.34687 0.15114 0.0
C1189 C 0.2916 0.30544 0.14992 0.0
H1190 H 0.33123 0.31556 0.16944 0.0
C1191 C 0.33746 0.26031 0.16419 0.0
C1192 C 0.35249 0.264 0.15964 0.0
C1193 C 0.32607 0.27125 0.16335 0.0
C1194 C 0.32028 0.3126 0.16374 0.0
H1195 H 0.24494 0.33604 0.16573 0.0
H1196 H 0.26458 0.31677 0.16536 0.0
H1197 H 0.31149 0.33477 0.16865 0.0
H1198 H 0.3672 0.28205 0.15018 0.0
H1199 H 0.34738 0.30111 0.14871 0.0
H1200 H 0.3004 0.28325 0.14508 0.0
C1201 C 0.26749 0.32816 0.16116 0.0
C1202 C 0.30897 0.32361 0.16328 0.0
C1203 C 0.25621 0.33923 0.16136 0.0
C1204 C 0.35582 0.27887 0.1541 0.0
C1205 C 0.34444 0.28981 0.15325 0.0
C1206 C 0.30293 0.29442 0.15038 0.0
C1207 C 0.28241 0.33186 0.15613 0.0
C1208 C 0.29449 0.32017 0.15638 0.0
C1209 C 0.32944 0.28615 0.15792 0.0
C1210 C 0.3174 0.29787 0.15731 0.0
H1211 H 0.27739 0.36934 0.14728 0.0
H1212 H 0.29706 0.35005 0.1469 0.0
H1213 H 0.28063 0.30248 0.14428 0.0
H1214 H 0.33451 0.24903 0.16877 0.0
H1215 H 0.31467 0.26811 0.1673 0.0
C1216 C 0.94572 0.29881 0.39962 0.0
C1217 C 0.93909 0.31084 0.38977 0.0
C1218 C 0.96149 0.29799 0.40165 0.0
C1219 C 0.99536 0.30949 0.37686 0.0
H1220 H 0.01778 0.30255 0.42226 0.0
C1221 C 0.05919 0.31711 0.37763 0.0
C1222 C 0.06801 0.30636 0.38695 0.0
C1223 C 0.04358 0.31762 0.38021 0.0
C1224 C 0.01166 0.30431 0.40944 0.0
H1225 H 0.94377 0.33203 0.37574 0.0
H1226 H 0.97108 0.33043 0.37898 0.0
H1227 H 0.98999 0.30315 0.42296 0.0
H1228 H 0.06761 0.28812 0.4069 0.0
H1229 H 0.04004 0.28871 0.41118 0.0
H1230 H 0.01669 0.31041 0.36315 0.0
C1231 C 0.96414 0.32151 0.38483 0.0
C1232 C 0.99578 0.30467 0.40987 0.0
C1233 C 0.94849 0.32239 0.38291 0.0
C1234 C 0.06101 0.29653 0.39961 0.0
C1235 C 0.04526 0.2969 0.40204 0.0
C1236 C 0.0111 0.309 0.37639 0.0
C1237 C 0.97084 0.30914 0.39379 0.0
C1238 C 0.98753 0.30758 0.39361 0.0
C1239 C 0.03633 0.3072 0.39196 0.0
C1240 C 0.0195 0.30675 0.39271 0.0
H1241 H 0.9388 0.28974 0.40505 0.0
H1242 H 0.9664 0.28832 0.40862 0.0
H1243 H 0.98926 0.31141 0.36404 0.0
H1244 H 0.06439 0.325 0.36808 0.0
H1245 H 0.03715 0.32603 0.37267 0.0
C1246 C 0.70491 0.06125 0.36804 0.0
C1247 C 0.70274 0.07032 0.38376 0.0
C1248 C 0.70588 0.0456 0.36966 0.0
C1249 C 0.71175 0.01387 0.40237 0.0
H1250 H 0.69151 0.99159 0.36323 0.0
C1251 C 0.70352 0.94783 0.39887 0.0
C1252 C 0.70756 0.9415 0.38166 0.0
C1253 C 0.70326 0.96357 0.40126 0.0
C1254 C 0.69723 0.99766 0.37424 0.0
H1255 H 0.70044 0.07022 0.41361 0.0
H1256 H 0.70184 0.04258 0.41651 0.0
H1257 H 0.69028 0.01902 0.36356 0.0
H1258 H 0.71552 0.94686 0.35395 0.0
H1259 H 0.71465 0.97405 0.358 0.0
H1260 H 0.71852 0.9922 0.41303 0.0
C1261 C 0.70295 0.04765 0.40292 0.0
C1262 C 0.69661 0.01339 0.3744 0.0
C1263 C 0.70214 0.06344 0.40129 0.0
C1264 C 0.7119 0.95125 0.36721 0.0
C1265 C 0.71149 0.96687 0.36954 0.0
C1266 C 0.71224 0.99802 0.4023 0.0
C1267 C 0.70449 0.03854 0.38703 0.0
C1268 C 0.70419 0.02174 0.38815 0.0
C1269 C 0.7069 0.9732 0.38644 0.0
C1270 C 0.70528 0.98982 0.38795 0.0
H1271 H 0.70577 0.0663 0.35442 0.0
H1272 H 0.70757 0.039 0.35719 0.0
H1273 H 0.71771 0.01996 0.41316 0.0
H1274 H 0.70009 0.94069 0.41029 0.0
H1275 H 0.69968 0.96822 0.41444 0.0
C1276 C 0.06304 0.70123 0.40055 0.0
C1277 C 0.06936 0.70717 0.3842 0.0
C1278 C 0.04728 0.70087 0.40295 0.0
C1279 C 0.01287 0.69993 0.37453 0.0
H1280 H 0.99102 0.71203 0.4187 0.0
C1281 C 0.94992 0.71173 0.37121 0.0
C1282 C 0.94051 0.70516 0.38466 0.0
C1283 C 0.96556 0.71186 0.37348 0.0
C1284 C 0.99701 0.70844 0.40638 0.0
H1285 H 0.06421 0.71848 0.35832 0.0
H1286 H 0.03696 0.71785 0.36244 0.0
H1287 H 0.01886 0.71247 0.4186 0.0
H1288 H 0.94008 0.69428 0.41155 0.0
H1289 H 0.96772 0.69451 0.41557 0.0
H1290 H 0.99128 0.69605 0.36216 0.0
C1291 C 0.04406 0.71308 0.37319 0.0
C1292 C 0.0129 0.7087 0.40632 0.0
C1293 C 0.05969 0.71343 0.37081 0.0
C1294 C 0.94708 0.69941 0.40096 0.0
C1295 C 0.96286 0.69953 0.40325 0.0
C1296 C 0.99712 0.69968 0.37459 0.0
C1297 C 0.03764 0.70644 0.38901 0.0
C1298 C 0.02095 0.70482 0.39019 0.0
C1299 C 0.97225 0.70541 0.38925 0.0
C1300 C 0.98899 0.70431 0.39031 0.0
H1301 H 0.07024 0.69633 0.41109 0.0
H1302 H 0.04262 0.69571 0.41531 0.0
H1303 H 0.01875 0.69648 0.36206 0.0
H1304 H 0.9452 0.71664 0.35876 0.0
H1305 H 0.97247 0.71685 0.36269 0.0
C1306 C 0.30824 0.94894 0.36912 0.0
C1307 C 0.30791 0.93967 0.38489 0.0
C1308 C 0.30701 0.96457 0.37075 0.0
C1309 C 0.29573 0.9962 0.40081 0.0
H1310 H 0.3252 0.01776 0.37098 0.0
C1311 C 0.30556 0.06192 0.40204 0.0
C1312 C 0.30788 0.06856 0.38455 0.0
C1313 C 0.30447 0.04615 0.4038 0.0
C1314 C 0.31682 0.01194 0.3793 0.0
H1315 H 0.30519 0.93943 0.41471 0.0
H1316 H 0.30309 0.96706 0.41764 0.0
H1317 H 0.32511 0.99032 0.37104 0.0
H1318 H 0.30965 0.06399 0.35513 0.0
H1319 H 0.30774 0.03672 0.35814 0.0
H1320 H 0.28742 0.01807 0.40893 0.0
C1321 C 0.30429 0.96211 0.40399 0.0
C1322 C 0.31676 0.9962 0.37932 0.0
C1323 C 0.30548 0.94634 0.40233 0.0
C1324 C 0.30831 0.05921 0.36884 0.0
C1325 C 0.3072 0.04357 0.37057 0.0
C1326 C 0.29578 0.01208 0.40078 0.0
C1327 C 0.30548 0.97139 0.38822 0.0
C1328 C 0.30601 0.98813 0.38971 0.0
C1329 C 0.30567 0.03682 0.38808 0.0
C1330 C 0.30613 0.02008 0.38966 0.0
H1331 H 0.30969 0.94409 0.35546 0.0
H1332 H 0.30754 0.97137 0.35828 0.0
H1333 H 0.28733 0.99027 0.40898 0.0
H1334 H 0.30519 0.06887 0.41439 0.0
H1335 H 0.30328 0.04125 0.41747 0.0
C1336 C 0.05743 0.71404 0.68293 0.0
C1337 C 0.06718 0.70841 0.66921 0.0
C1338 C 0.04181 0.71352 0.68055 0.0
C1339 C 0.01063 0.71016 0.64742 0.0
H1340 H 0.98947 0.69453 0.69045 0.0
C1341 C 0.94503 0.69964 0.65178 0.0
C1342 C 0.93834 0.70388 0.66868 0.0
C1343 C 0.96081 0.7002 0.6496 0.0
C1344 C 0.99517 0.69902 0.67835 0.0
H1345 H 0.06818 0.69858 0.64174 0.0
H1346 H 0.04057 0.69772 0.6375 0.0
H1347 H 0.01693 0.69557 0.69048 0.0
H1348 H 0.94279 0.71315 0.69594 0.0
H1349 H 0.97006 0.71422 0.69217 0.0
H1350 H 0.98864 0.71381 0.63547 0.0
C1351 C 0.04517 0.70248 0.65013 0.0
C1352 C 0.01091 0.69959 0.67837 0.0
C1353 C 0.06093 0.70298 0.65255 0.0
C1354 C 0.94762 0.70941 0.68295 0.0
C1355 C 0.96326 0.71002 0.68078 0.0
C1356 C 0.99474 0.70962 0.64742 0.0
C1357 C 0.03548 0.70738 0.66437 0.0
C1358 C 0.01882 0.70551 0.66313 0.0
C1359 C 0.97009 0.70505 0.6643 0.0
C1360 C 0.98687 0.7044 0.66312 0.0
H1361 H 0.06187 0.71871 0.69569 0.0
H1362 H 0.03463 0.71774 0.69156 0.0
H1363 H 0.01646 0.71474 0.63547 0.0
H1364 H 0.93812 0.69533 0.64056 0.0
H1365 H 0.96576 0.69632 0.63673 0.0
C1366 C 0.30015 0.94673 0.65691 0.0
C1367 C 0.31324 0.9398 0.66403 0.0
C1368 C 0.29946 0.96251 0.65506 0.0
C1369 C 0.31685 0.99646 0.67539 0.0
H1370 H 0.30006 0.0182 0.63351 0.0
C1371 C 0.32685 0.05962 0.66758 0.0
C1372 C 0.31437 0.06881 0.66339 0.0
C1373 C 0.3259 0.04396 0.66586 0.0
C1374 C 0.30464 0.01225 0.64537 0.0
H1375 H 0.33621 0.9438 0.67334 0.0
H1376 H 0.33506 0.9711 0.67003 0.0
H1377 H 0.29983 0.99042 0.63364 0.0
H1378 H 0.2913 0.06884 0.65321 0.0
H1379 H 0.28959 0.04123 0.6502 0.0
H1380 H 0.32173 0.01805 0.68716 0.0
C1381 C 0.32517 0.96449 0.6664 0.0
C1382 C 0.3045 0.99638 0.64544 0.0
C1383 C 0.32584 0.94884 0.66829 0.0
C1384 C 0.3011 0.06202 0.65651 0.0
C1385 C 0.30013 0.04624 0.65481 0.0
C1386 C 0.31699 0.0122 0.67531 0.0
C1387 C 0.31186 0.97156 0.66026 0.0
C1388 C 0.3109 0.98834 0.66032 0.0
C1389 C 0.31242 0.03705 0.65994 0.0
C1390 C 0.31118 0.02029 0.66017 0.0
H1391 H 0.29027 0.94002 0.65354 0.0
H1392 H 0.28904 0.96764 0.65028 0.0
H1393 H 0.32148 0.99062 0.68731 0.0
H1394 H 0.33735 0.06453 0.67244 0.0
H1395 H 0.3357 0.03722 0.66944 0.0
C1396 C 0.06289 0.29592 0.64332 0.0
C1397 C 0.0686 0.30506 0.65763 0.0
C1398 C 0.04761 0.29681 0.63824 0.0
C1399 C 0.01382 0.32122 0.64142 0.0
H1400 H 0.99093 0.28387 0.64448 0.0
C1401 C 0.95207 0.3198 0.66383 0.0
C1402 C 0.94211 0.30886 0.65674 0.0
C1403 C 0.96727 0.3199 0.65869 0.0
C1404 C 0.99714 0.29437 0.64311 0.0
H1405 H 0.06312 0.32279 0.67718 0.0
H1406 H 0.03658 0.3245 0.66824 0.0
H1407 H 0.01856 0.28307 0.64475 0.0
H1408 H 0.94012 0.28977 0.63811 0.0
H1409 H 0.96688 0.28993 0.62897 0.0
H1410 H 0.99249 0.33258 0.64037 0.0
C1411 C 0.04381 0.31659 0.66098 0.0
C1412 C 0.01298 0.2939 0.64329 0.0
C1413 C 0.05895 0.31552 0.66623 0.0
C1414 C 0.94756 0.29835 0.64376 0.0
C1415 C 0.96287 0.29838 0.63865 0.0
C1416 C 0.99803 0.32168 0.64111 0.0
C1417 C 0.0379 0.3071 0.64714 0.0
C1418 C 0.02144 0.30736 0.64318 0.0
C1419 C 0.97294 0.30904 0.64629 0.0
C1420 C 0.9895 0.30831 0.64272 0.0
H1421 H 0.07011 0.28772 0.63656 0.0
H1422 H 0.04333 0.28937 0.62751 0.0
H1423 H 0.02008 0.33175 0.64101 0.0
H1424 H 0.94817 0.32819 0.67364 0.0
H1425 H 0.97469 0.32815 0.66506 0.0
C1426 C 0.68682 0.06195 0.67221 0.0
C1427 C 0.69795 0.07154 0.66474 0.0
C1428 C 0.68807 0.04631 0.67062 0.0
C1429 C 0.70508 0.01491 0.64534 0.0
H1430 H 0.70014 0.99403 0.6922 0.0
C1431 C 0.71308 0.94967 0.65518 0.0
C1432 C 0.70309 0.94267 0.66768 0.0
C1433 C 0.71302 0.96545 0.65306 0.0
C1434 C 0.70137 0.99963 0.67894 0.0
H1435 H 0.71874 0.07213 0.6488 0.0
H1436 H 0.72081 0.04456 0.64579 0.0
H1437 H 0.69892 0.02144 0.69129 0.0
H1438 H 0.6845 0.94646 0.68663 0.0
H1439 H 0.6841 0.97372 0.68269 0.0
H1440 H 0.70719 0.99293 0.63295 0.0
C1441 C 0.71117 0.04932 0.65299 0.0
C1442 C 0.70074 0.01535 0.67845 0.0
C1443 C 0.70997 0.06507 0.6547 0.0
C1444 C 0.69256 0.9516 0.67725 0.0
C1445 C 0.69239 0.96723 0.67502 0.0
C1446 C 0.70559 0.99906 0.64579 0.0
C1447 C 0.70042 0.03981 0.66138 0.0
C1448 C 0.7023 0.02316 0.66164 0.0
C1449 C 0.70288 0.97442 0.66331 0.0
C1450 C 0.70343 0.99124 0.66258 0.0
H1451 H 0.67717 0.06652 0.67955 0.0
H1452 H 0.67944 0.03925 0.67687 0.0
H1453 H 0.70633 0.02069 0.63219 0.0
H1454 H 0.72133 0.94302 0.64767 0.0
H1455 H 0.72125 0.97063 0.64393 0.0
C1456 C 0.56308 0.812 0.90122 0.0
C1457 C 0.56987 0.8068 0.8848 0.0
C1458 C 0.54732 0.81124 0.90346 0.0
C1459 C 0.51303 0.8099 0.87465 0.0
H1460 H 0.49189 0.79666 0.91887 0.0
C1461 C 0.45094 0.79399 0.8714 0.0
C1462 C 0.44113 0.80033 0.88458 0.0
C1463 C 0.46656 0.79477 0.87375 0.0
C1464 C 0.49768 0.80054 0.90653 0.0
H1465 H 0.56566 0.79561 0.85858 0.0
H1466 H 0.53841 0.7942 0.86246 0.0
H1467 H 0.5197 0.79803 0.91884 0.0
H1468 H 0.44002 0.81176 0.9111 0.0
H1469 H 0.46761 0.81311 0.91527 0.0
H1470 H 0.49125 0.81223 0.86218 0.0
C1471 C 0.54511 0.7993 0.87339 0.0
C1472 C 0.51355 0.80133 0.90651 0.0
C1473 C 0.56073 0.80011 0.87115 0.0
C1474 C 0.44732 0.80678 0.90072 0.0
C1475 C 0.46307 0.80756 0.9031 0.0
C1476 C 0.4973 0.80908 0.87466 0.0
C1477 C 0.53816 0.80523 0.8893 0.0
C1478 C 0.52137 0.80565 0.89037 0.0
C1479 C 0.47282 0.80191 0.88934 0.0
C1480 C 0.48945 0.80405 0.89041 0.0
H1481 H 0.56989 0.8172 0.91196 0.0
H1482 H 0.54227 0.81587 0.91589 0.0
H1483 H 0.51869 0.81369 0.86217 0.0
H1484 H 0.44655 0.78856 0.85908 0.0
H1485 H 0.47378 0.78997 0.86314 0.0
C1486 C 0.20785 0.44565 0.89563 0.0
C1487 C 0.19518 0.43892 0.88713 0.0
C1488 C 0.20889 0.46143 0.89718 0.0
C1489 C 0.19505 0.49533 0.8736 0.0
H1490 H 0.20663 0.51758 0.9177 0.0
C1491 C 0.18561 0.55883 0.87763 0.0
C1492 C 0.19719 0.56795 0.88491 0.0
C1493 C 0.1861 0.54318 0.87959 0.0
C1494 C 0.20356 0.5115 0.90522 0.0
H1495 H 0.1732 0.44344 0.87496 0.0
H1496 H 0.17508 0.47075 0.87749 0.0
H1497 H 0.20632 0.48981 0.91826 0.0
H1498 H 0.21807 0.56786 0.90061 0.0
H1499 H 0.21904 0.54025 0.90392 0.0
H1500 H 0.19232 0.51674 0.86045 0.0
C1501 C 0.18436 0.46391 0.88257 0.0
C1502 C 0.20338 0.49563 0.90556 0.0
C1503 C 0.1833 0.44825 0.88109 0.0
C1504 C 0.20899 0.56109 0.8949 0.0
C1505 C 0.20953 0.54531 0.89679 0.0
C1506 C 0.1953 0.51106 0.87324 0.0
C1507 C 0.1973 0.47071 0.8902 0.0
C1508 C 0.19879 0.48742 0.88984 0.0
C1509 C 0.19824 0.53617 0.88876 0.0
C1510 C 0.19921 0.51938 0.88914 0.0
H1511 H 0.2172 0.43877 0.90039 0.0
H1512 H 0.219 0.46639 0.90313 0.0
H1513 H 0.19183 0.4893 0.86113 0.0
H1514 H 0.17618 0.56382 0.87027 0.0
H1515 H 0.17698 0.53652 0.87372 0.0
C1516 C 0.45149 0.19373 0.87975 0.0
C1517 C 0.4418 0.20263 0.89063 0.0
C1518 C 0.46676 0.19236 0.88425 0.0
C1519 C 0.49736 0.21293 0.90697 0.0
H1520 H 0.5193 0.17571 0.89789 0.0
C1521 C 0.56298 0.21039 0.90657 0.0
C1522 C 0.56883 0.20352 0.89054 0.0
C1523 C 0.54761 0.20893 0.911 0.0
C1524 C 0.51333 0.18618 0.90055 0.0
H1525 H 0.44042 0.21673 0.91511 0.0
H1526 H 0.46732 0.21437 0.92304 0.0
H1527 H 0.4917 0.1755 0.89797 0.0
H1528 H 0.56343 0.1891 0.86719 0.0
H1529 H 0.53675 0.18657 0.87482 0.0
H1530 H 0.51903 0.22371 0.90884 0.0
C1531 C 0.46302 0.20849 0.91097 0.0
C1532 C 0.49753 0.18606 0.90059 0.0
C1533 C 0.44763 0.20975 0.90652 0.0
C1534 C 0.55919 0.19468 0.87949 0.0
C1535 C 0.54394 0.19309 0.884 0.0
C1536 C 0.5132 0.21304 0.90695 0.0
C1537 C 0.47278 0.1999 0.89974 0.0
C1538 C 0.48937 0.19953 0.90314 0.0
C1539 C 0.5379 0.20037 0.89964 0.0
C1540 C 0.52133 0.19976 0.90309 0.0
H1541 H 0.44728 0.18795 0.86757 0.0
H1542 H 0.47398 0.18581 0.87517 0.0
H1543 H 0.4914 0.22351 0.90886 0.0
H1544 H 0.57017 0.21731 0.91528 0.0
H1545 H 0.54327 0.21462 0.92318 0.0
C1546 C 0.82611 0.44952 0.89196 0.0
C1547 C 0.8141 0.43925 0.89408 0.0
C1548 C 0.82383 0.46499 0.89467 0.0
C1549 C 0.79487 0.49321 0.88917 0.0
H1550 H 0.8213 0.51947 0.9176 0.0
C1551 C 0.78432 0.55714 0.89077 0.0
C1552 C 0.79696 0.56673 0.89051 0.0
C1553 C 0.78601 0.5417 0.89411 0.0
C1554 C 0.81391 0.51234 0.90941 0.0
H1555 H 0.79039 0.437 0.90109 0.0
H1556 H 0.78626 0.46418 0.90545 0.0
H1557 H 0.82519 0.49212 0.91831 0.0
H1558 H 0.82122 0.56792 0.89388 0.0
H1559 H 0.82443 0.54076 0.89887 0.0
H1560 H 0.78408 0.51319 0.87934 0.0
C1561 C 0.79748 0.4602 0.90187 0.0
C1562 C 0.81609 0.49668 0.90995 0.0
C1563 C 0.79984 0.44468 0.8995 0.0
C1564 C 0.81132 0.56069 0.89413 0.0
C1565 C 0.8131 0.54515 0.89707 0.0
C1566 C 0.79285 0.50884 0.88835 0.0
C1567 C 0.80941 0.4705 0.89924 0.0
C1568 C 0.80661 0.48699 0.89979 0.0
C1569 C 0.80047 0.53539 0.89682 0.0
C1570 C 0.80236 0.51867 0.89841 0.0
H1571 H 0.83723 0.44557 0.88793 0.0
H1572 H 0.83318 0.4727 0.89244 0.0
H1573 H 0.78757 0.486 0.88095 0.0
H1574 H 0.7731 0.56162 0.88832 0.0
H1575 H 0.77596 0.5347 0.89437 0.0
C1576 C 0.44882 0.19064 0.1775 0.0
C1577 C 0.44002 0.20019 0.16634 0.0
C1578 C 0.46442 0.18974 0.175 0.0
C1579 C 0.49638 0.19827 0.14371 0.0
H1580 H 0.51846 0.1998 0.19013 0.0
C1581 C 0.56212 0.20582 0.15101 0.0
C1582 C 0.56895 0.19722 0.1651 0.0
C1583 C 0.54634 0.20569 0.1488 0.0
C1584 C 0.51249 0.1992 0.17703 0.0
H1585 H 0.4405 0.21568 0.14313 0.0
H1586 H 0.46804 0.21425 0.13881 0.0
H1587 H 0.49103 0.20047 0.19044 0.0
H1588 H 0.56484 0.1808 0.18677 0.0
H1589 H 0.53751 0.18047 0.18288 0.0
H1590 H 0.51811 0.19708 0.13038 0.0
C1591 C 0.46278 0.20739 0.14945 0.0
C1592 C 0.49674 0.19958 0.17721 0.0
C1593 C 0.44705 0.20822 0.1519 0.0
C1594 C 0.55985 0.18782 0.17612 0.0
C1595 C 0.5442 0.18764 0.17389 0.0
C1596 C 0.51226 0.1979 0.14352 0.0
C1597 C 0.47166 0.19846 0.16136 0.0
C1598 C 0.48847 0.19883 0.16061 0.0
C1599 C 0.53721 0.19693 0.16062 0.0
C1600 C 0.52044 0.19809 0.16025 0.0
H1601 H 0.44365 0.18404 0.18843 0.0
H1602 H 0.47088 0.18242 0.18407 0.0
H1603 H 0.4903 0.1977 0.13069 0.0
H1604 H 0.56889 0.21318 0.14234 0.0
H1605 H 0.54126 0.21296 0.13845 0.0
C1606 C 0.80895 0.5625 0.15151 0.0
C1607 C 0.8049 0.56915 0.1685 0.0
C1608 C 0.80878 0.54671 0.14946 0.0
C1609 C 0.8116 0.51256 0.17833 0.0
H1610 H 0.79553 0.49074 0.13603 0.0
C1611 C 0.79848 0.44993 0.18342 0.0
C1612 C 0.80391 0.44033 0.16942 0.0
C1613 C 0.7986 0.46555 0.18109 0.0
C1614 C 0.80021 0.49673 0.14781 0.0
H1615 H 0.79641 0.56461 0.19611 0.0
H1616 H 0.79604 0.53732 0.19257 0.0
H1617 H 0.79563 0.51854 0.13594 0.0
H1618 H 0.81299 0.4396 0.14155 0.0
H1619 H 0.81314 0.4672 0.1374 0.0
H1620 H 0.81599 0.49096 0.19037 0.0
C1621 C 0.79978 0.54416 0.18099 0.0
C1622 C 0.80028 0.5126 0.14777 0.0
C1623 C 0.79999 0.55981 0.18303 0.0
C1624 C 0.80875 0.44672 0.15258 0.0
C1625 C 0.80885 0.46248 0.15021 0.0
C1626 C 0.8115 0.49682 0.17839 0.0
C1627 C 0.80455 0.53739 0.16438 0.0
C1628 C 0.80563 0.52065 0.16326 0.0
C1629 C 0.80412 0.47203 0.16467 0.0
C1630 C 0.80548 0.48872 0.16336 0.0
H1631 H 0.8128 0.56944 0.14009 0.0
H1632 H 0.8125 0.54181 0.13649 0.0
H1633 H 0.81619 0.51842 0.19025 0.0
H1634 H 0.79424 0.44538 0.19633 0.0
H1635 H 0.79451 0.4726 0.19229 0.0
C1636 C 0.4487 0.80555 0.14649 0.0
C1637 C 0.44293 0.80036 0.16349 0.0
C1638 C 0.46416 0.80418 0.14248 0.0
C1639 C 0.49879 0.78364 0.15687 0.0
H1640 H 0.52027 0.81997 0.14218 0.0
C1641 C 0.5603 0.79449 0.17659 0.0
C1642 C 0.57011 0.80154 0.16397 0.0
C1643 C 0.54501 0.79267 0.17241 0.0
C1644 C 0.51442 0.80963 0.1459 0.0
H1645 H 0.44862 0.78905 0.18918 0.0
H1646 H 0.47542 0.7867 0.1823 0.0
H1647 H 0.49259 0.81972 0.14208 0.0
H1648 H 0.5717 0.812 0.13692 0.0
H1649 H 0.54469 0.80896 0.1296 0.0
H1650 H 0.52055 0.77375 0.16143 0.0
C1651 C 0.46811 0.79182 0.17203 0.0
C1652 C 0.49857 0.80949 0.14584 0.0
C1653 C 0.45277 0.79334 0.17609 0.0
C1654 C 0.56436 0.80648 0.14685 0.0
C1655 C 0.54894 0.80482 0.14273 0.0
C1656 C 0.51458 0.78379 0.15694 0.0
C1657 C 0.47404 0.79736 0.15528 0.0
C1658 C 0.49061 0.79666 0.15198 0.0
C1659 C 0.5391 0.79795 0.15554 0.0
C1660 C 0.52256 0.79696 0.1521 0.0
H1661 H 0.44134 0.81105 0.13658 0.0
H1662 H 0.46841 0.80851 0.12944 0.0
H1663 H 0.49296 0.77349 0.1613 0.0
H1664 H 0.56445 0.7904 0.18978 0.0
H1665 H 0.53771 0.78752 0.18269 0.0
C1666 C 0.20171 0.44866 0.18436 0.0
C1667 C 0.20099 0.4396 0.16842 0.0
C1668 C 0.20309 0.4643 0.18292 0.0
C1669 C 0.213 0.49596 0.15175 0.0
H1670 H 0.1881 0.51834 0.18647 0.0
C1671 C 0.20506 0.56197 0.15286 0.0
C1672 C 0.20573 0.5685 0.17063 0.0
C1673 C 0.20535 0.5462 0.15073 0.0
C1674 C 0.19519 0.51226 0.17674 0.0
H1675 H 0.20179 0.43973 0.13845 0.0
H1676 H 0.20401 0.46735 0.13584 0.0
H1677 H 0.18687 0.49092 0.18602 0.0
H1678 H 0.20846 0.56361 0.19989 0.0
H1679 H 0.20878 0.53633 0.19621 0.0
H1680 H 0.2212 0.51758 0.1425 0.0
C1681 C 0.2036 0.46226 0.14948 0.0
C1682 C 0.19452 0.49654 0.17651 0.0
C1683 C 0.20232 0.44648 0.15094 0.0
C1684 C 0.20746 0.55898 0.18607 0.0
C1685 C 0.20769 0.54333 0.18396 0.0
C1686 C 0.2136 0.51182 0.15192 0.0
C1687 C 0.20365 0.47135 0.16549 0.0
C1688 C 0.20367 0.48815 0.16435 0.0
C1689 C 0.20627 0.53675 0.16635 0.0
C1690 C 0.20494 0.52008 0.16474 0.0
H1691 H 0.20111 0.44364 0.19802 0.0
H1692 H 0.20356 0.4709 0.19555 0.0
H1693 H 0.22018 0.48982 0.14221 0.0
H1694 H 0.20371 0.569 0.1407 0.0
H1695 H 0.20425 0.5414 0.13699 0.0
C1696 C 0.13616 0.3082 0.45681 0.0
C1697 C 0.12709 0.31811 0.44638 0.0
C1698 C 0.13718 0.30965 0.47607 0.0
C1699 C 0.11646 0.32504 0.51631 0.0
H1700 H 0.15405 0.31698 0.54219 0.0
C1701 C 0.12105 0.3293 0.59619 0.0
C1702 C 0.12881 0.31748 0.6051 0.0
C1703 C 0.12169 0.33091 0.5769 0.0
C1704 C 0.14344 0.31917 0.53519 0.0
H1705 H 0.11227 0.33759 0.4481 0.0
H1706 H 0.11417 0.3402 0.48171 0.0
H1707 H 0.15364 0.31713 0.5084 0.0
H1708 H 0.14367 0.29831 0.60065 0.0
H1709 H 0.14474 0.30107 0.56712 0.0
H1710 H 0.10621 0.32687 0.54309 0.0
C1711 C 0.12034 0.33117 0.47498 0.0
C1712 C 0.1432 0.31925 0.5158 0.0
C1713 C 0.11932 0.32972 0.45568 0.0
C1714 C 0.13756 0.30756 0.59429 0.0
C1715 C 0.13824 0.30919 0.57502 0.0
C1716 C 0.1167 0.32497 0.53571 0.0
C1717 C 0.12918 0.32105 0.48545 0.0
C1718 C 0.12967 0.322 0.50609 0.0
C1719 C 0.13017 0.32077 0.56604 0.0
C1720 C 0.13015 0.32185 0.54541 0.0
H1721 H 0.14229 0.2991 0.45015 0.0
H1722 H 0.14394 0.30153 0.48366 0.0
H1723 H 0.10578 0.32699 0.50933 0.0
H1724 H 0.11422 0.33717 0.60407 0.0
H1725 H 0.1155 0.34007 0.57047 0.0
C1726 C 0.69488 0.14071 0.59465 0.0
C1727 C 0.68565 0.13096 0.60512 0.0
C1728 C 0.69343 0.14147 0.57536 0.0
C1729 C 0.6801 0.11886 0.53556 0.0
H1730 H 0.68492 0.15643 0.50852 0.0
C1731 C 0.67536 0.12097 0.45572 0.0
C1732 C 0.68629 0.12966 0.44637 0.0
C1733 C 0.67375 0.12202 0.47498 0.0
C1734 C 0.68366 0.14582 0.51584 0.0
H1735 H 0.66729 0.11471 0.60345 0.0
H1736 H 0.66468 0.11614 0.56985 0.0
H1737 H 0.68482 0.15671 0.54234 0.0
H1738 H 0.70382 0.14661 0.44998 0.0
H1739 H 0.70112 0.14834 0.48349 0.0
H1740 H 0.6792 0.10793 0.50914 0.0
C1741 C 0.6732 0.12305 0.57655 0.0
C1742 C 0.6836 0.14599 0.53525 0.0
C1743 C 0.67463 0.12231 0.59585 0.0
C1744 C 0.69526 0.13975 0.4567 0.0
C1745 C 0.69366 0.14081 0.47595 0.0
C1746 C 0.68018 0.1187 0.51617 0.0
C1747 C 0.68272 0.13248 0.56602 0.0
C1748 C 0.68195 0.13249 0.54536 0.0
C1749 C 0.68303 0.1318 0.48539 0.0
C1750 C 0.68209 0.13216 0.50604 0.0
H1751 H 0.7035 0.14753 0.60131 0.0
H1752 H 0.70106 0.14875 0.56771 0.0
H1753 H 0.67905 0.10822 0.54286 0.0
H1754 H 0.66822 0.11311 0.44823 0.0
H1755 H 0.66529 0.11509 0.48174 0.0
C1756 C 0.89347 0.67412 0.45615 0.0
C1757 C 0.88375 0.68422 0.44696 0.0
C1758 C 0.89272 0.67237 0.47543 0.0
C1759 C 0.86817 0.67972 0.51639 0.0
H1760 H 0.90603 0.67901 0.54353 0.0
C1761 C 0.87171 0.69191 0.59497 0.0
C1762 C 0.88225 0.68383 0.60569 0.0
C1763 C 0.87129 0.69025 0.57569 0.0
C1764 C 0.89534 0.67895 0.53619 0.0
H1765 H 0.86534 0.70012 0.45088 0.0
H1766 H 0.86411 0.69716 0.48436 0.0
H1767 H 0.90636 0.67906 0.50977 0.0
H1768 H 0.90038 0.66735 0.60448 0.0
H1769 H 0.89956 0.66436 0.57087 0.0
H1770 H 0.85716 0.67985 0.54283 0.0
C1771 C 0.87223 0.69045 0.4767 0.0
C1772 C 0.89553 0.67898 0.51679 0.0
C1773 C 0.873 0.69222 0.45746 0.0
C1774 C 0.89213 0.67378 0.59667 0.0
C1775 C 0.89173 0.67214 0.57737 0.0
C1776 C 0.86798 0.67969 0.53578 0.0
C1777 C 0.8822 0.68064 0.48598 0.0
C1778 C 0.88195 0.67955 0.50662 0.0
C1779 C 0.88142 0.68049 0.5666 0.0
C1780 C 0.88157 0.6795 0.54595 0.0
H1781 H 0.90186 0.66775 0.44851 0.0
H1782 H 0.90043 0.66456 0.48208 0.0
H1783 H 0.85749 0.67989 0.50903 0.0
H1784 H 0.86394 0.69978 0.60141 0.0
H1785 H 0.86332 0.697 0.56786 0.0
C1786 C 0.31551 0.86983 0.59606 0.0
C1787 C 0.32485 0.8795 0.6065 0.0
C1788 C 0.31703 0.86894 0.57678 0.0
C1789 C 0.33087 0.89118 0.53696 0.0
H1790 H 0.32551 0.85362 0.51003 0.0
C1791 C 0.33623 0.88867 0.45723 0.0
C1792 C 0.32522 0.88016 0.44776 0.0
C1793 C 0.33762 0.88767 0.47652 0.0
C1794 C 0.32692 0.86422 0.51733 0.0
H1795 H 0.34349 0.89542 0.60485 0.0
H1796 H 0.34623 0.89375 0.57128 0.0
H1797 H 0.32545 0.85344 0.54386 0.0
H1798 H 0.3073 0.86361 0.45118 0.0
H1799 H 0.30963 0.86198 0.48475 0.0
H1800 H 0.3321 0.90202 0.5105 0.0
C1801 C 0.33757 0.88702 0.57797 0.0
C1802 C 0.3269 0.86412 0.53673 0.0
C1803 C 0.33606 0.8879 0.59725 0.0
C1804 C 0.31592 0.87031 0.458 0.0
C1805 C 0.31731 0.86932 0.47728 0.0
C1806 C 0.33089 0.89129 0.51757 0.0
C1807 C 0.32792 0.8777 0.56745 0.0
C1808 C 0.32875 0.87762 0.5468 0.0
C1809 C 0.32804 0.87813 0.48683 0.0
C1810 C 0.3288 0.87783 0.50749 0.0
H1811 H 0.30674 0.86321 0.6027 0.0
H1812 H 0.30931 0.86175 0.56913 0.0
H1813 H 0.33208 0.90183 0.54422 0.0
H1814 H 0.34362 0.89633 0.4498 0.0
H1815 H 0.34617 0.89445 0.48337 0.0
C1816 C 0.11648 0.67992 0.45692 0.0
C1817 C 0.12617 0.68976 0.44724 0.0
C1818 C 0.11697 0.67908 0.47631 0.0
C1819 C 0.12874 0.70169 0.51702 0.0
H1820 H 0.12352 0.66415 0.54403 0.0
C1821 C 0.13536 0.69951 0.59631 0.0
C1822 C 0.12465 0.69106 0.60635 0.0
C1823 C 0.13621 0.69836 0.57701 0.0
C1824 C 0.12486 0.67475 0.53669 0.0
H1825 H 0.14439 0.70603 0.45041 0.0
H1826 H 0.14538 0.70442 0.48405 0.0
H1827 H 0.12386 0.66387 0.51015 0.0
H1828 H 0.10673 0.6744 0.60389 0.0
H1829 H 0.10814 0.6725 0.57017 0.0
H1830 H 0.12962 0.71261 0.54342 0.0
C1831 C 0.13717 0.69755 0.47672 0.0
C1832 C 0.12505 0.67459 0.51726 0.0
C1833 C 0.13667 0.6984 0.45738 0.0
C1834 C 0.11512 0.68108 0.59662 0.0
C1835 C 0.11597 0.67993 0.57727 0.0
C1836 C 0.12855 0.70185 0.53638 0.0
C1837 C 0.12716 0.68808 0.48648 0.0
C1838 C 0.12704 0.68807 0.50717 0.0
C1839 C 0.12637 0.68875 0.56719 0.0
C1840 C 0.12665 0.68839 0.54651 0.0
H1841 H 0.10823 0.67312 0.44957 0.0
H1842 H 0.10901 0.67175 0.48335 0.0
H1843 H 0.12995 0.71233 0.50975 0.0
H1844 H 0.14296 0.70724 0.60332 0.0
H1845 H 0.14457 0.7051 0.56977 0.0
C1846 C 0.31597 0.13841 0.45732 0.0
C1847 C 0.32499 0.12838 0.447 0.0
C1848 C 0.31761 0.13952 0.47656 0.0
C1849 C 0.33138 0.11755 0.51676 0.0
H1850 H 0.32629 0.15545 0.54302 0.0
C1851 C 0.33707 0.12103 0.59637 0.0
C1852 C 0.3259 0.1294 0.60571 0.0
C1853 C 0.33848 0.12191 0.57708 0.0
C1854 C 0.32764 0.14476 0.5359 0.0
H1855 H 0.34323 0.11206 0.44884 0.0
H1856 H 0.34624 0.11414 0.48234 0.0
H1857 H 0.32615 0.15522 0.50919 0.0
H1858 H 0.30778 0.14565 0.60205 0.0
H1859 H 0.31019 0.14713 0.56846 0.0
H1860 H 0.3327 0.10705 0.54342 0.0
C1861 C 0.33769 0.12096 0.47559 0.0
C1862 C 0.32755 0.14462 0.51649 0.0
C1863 C 0.33603 0.11984 0.45634 0.0
C1864 C 0.31651 0.13905 0.59534 0.0
C1865 C 0.31795 0.13996 0.57605 0.0
C1866 C 0.3315 0.11769 0.53614 0.0
C1867 C 0.32834 0.13064 0.486 0.0
C1868 C 0.32929 0.13099 0.50665 0.0
C1869 C 0.32879 0.13121 0.56663 0.0
C1870 C 0.3295 0.13127 0.54598 0.0
H1871 H 0.30733 0.14515 0.45061 0.0
H1872 H 0.3101 0.14697 0.48411 0.0
H1873 H 0.33249 0.1068 0.5097 0.0
H1874 H 0.34454 0.11352 0.6039 0.0
H1875 H 0.34711 0.1152 0.57032 0.0
C1876 C 0.88687 0.33176 0.45784 0.0
C1877 C 0.87831 0.32114 0.4478 0.0
C1878 C 0.88569 0.33264 0.47717 0.0
C1879 C 0.87507 0.30916 0.51737 0.0
H1880 H 0.87669 0.347 0.54442 0.0
C1881 C 0.86968 0.31054 0.59691 0.0
C1882 C 0.87963 0.32014 0.60657 0.0
C1883 C 0.8682 0.3116 0.57765 0.0
C1884 C 0.87635 0.33633 0.53708 0.0
H1885 H 0.86129 0.30354 0.45021 0.0
H1886 H 0.85913 0.30518 0.48379 0.0
H1887 H 0.87642 0.34727 0.51057 0.0
H1888 H 0.89553 0.33868 0.60352 0.0
H1889 H 0.89311 0.34039 0.56993 0.0
H1890 H 0.87527 0.29818 0.54374 0.0
C1891 C 0.86697 0.31266 0.47678 0.0
C1892 C 0.87619 0.33649 0.51767 0.0
C1893 C 0.86814 0.31179 0.45748 0.0
C1894 C 0.88774 0.33112 0.59655 0.0
C1895 C 0.88629 0.33215 0.57726 0.0
C1896 C 0.87527 0.309 0.53673 0.0
C1897 C 0.87592 0.3229 0.48691 0.0
C1898 C 0.87559 0.3229 0.50756 0.0
C1899 C 0.87667 0.32225 0.56753 0.0
C1900 C 0.87596 0.32257 0.54687 0.0
H1901 H 0.89483 0.33913 0.45085 0.0
H1902 H 0.89284 0.34058 0.48452 0.0
H1903 H 0.87491 0.29847 0.51006 0.0
H1904 H 0.86318 0.30202 0.60418 0.0
H1905 H 0.86047 0.30398 0.57068 0.0
C1906 C 0.69313 0.85486 0.59587 0.0
C1907 C 0.69412 0.86866 0.60546 0.0
C1908 C 0.69127 0.8546 0.57662 0.0
C1909 C 0.68084 0.87809 0.53576 0.0
H1910 H 0.70614 0.84951 0.50937 0.0
C1911 C 0.69252 0.88176 0.45663 0.0
C1912 C 0.69414 0.86815 0.44672 0.0
C1913 C 0.6907 0.88162 0.47592 0.0
C1914 C 0.6988 0.85741 0.51647 0.0
H1915 H 0.69335 0.89304 0.60233 0.0
H1916 H 0.69025 0.89259 0.56874 0.0
H1917 H 0.70611 0.8496 0.54303 0.0
H1918 H 0.69436 0.84372 0.44929 0.0
H1919 H 0.69094 0.84349 0.48276 0.0
H1920 H 0.67371 0.88601 0.50907 0.0
C1921 C 0.69078 0.88194 0.57612 0.0
C1922 C 0.69878 0.85746 0.53584 0.0
C1923 C 0.69263 0.8822 0.5954 0.0
C1924 C 0.69328 0.85442 0.45647 0.0
C1925 C 0.69141 0.85429 0.47571 0.0
C1926 C 0.68085 0.87803 0.51633 0.0
C1927 C 0.69039 0.86813 0.56643 0.0
C1928 C 0.68985 0.86782 0.54576 0.0
C1929 C 0.69042 0.86788 0.48576 0.0
C1930 C 0.68988 0.86771 0.50643 0.0
H1931 H 0.69413 0.84421 0.60317 0.0
H1932 H 0.69072 0.84376 0.56968 0.0
H1933 H 0.6737 0.88612 0.54294 0.0
H1934 H 0.69316 0.89255 0.44958 0.0
H1935 H 0.69008 0.89232 0.48318 0.0
C1936 C 0.61776 0.83364 0.09744 0.0
C1937 C 0.62796 0.8242 0.10692 0.0
C1938 C 0.61849 0.83514 0.07814 0.0
C1939 C 0.63241 0.81472 0.03677 0.0
H1940 H 0.62408 0.8524 1.01129 0.0
C1941 C 0.63837 0.8195 0.95761 0.0
C1942 C 0.62677 0.82706 0.94801 0.0
C1943 C 0.63937 0.82034 0.97691 0.0
C1944 C 0.62632 0.84176 1.0182 0.0
H1945 H 0.64735 0.80944 0.10353 0.0
H1946 H 0.64878 0.81224 0.07002 0.0
H1947 H 0.62442 0.85178 0.04516 0.0
H1948 H 0.60741 0.84188 0.95126 0.0
H1949 H 0.6091 0.84326 0.98501 0.0
H1950 H 0.63419 0.80465 1.00993 0.0
C1951 C 0.63999 0.81824 0.07743 0.0
C1952 C 0.62651 0.84141 0.03762 0.0
C1953 C 0.63923 0.81672 0.0967 0.0
C1954 C 0.6165 0.83592 0.95819 0.0
C1955 C 0.6175 0.83676 0.97755 0.0
C1956 C 0.63224 0.81508 1.01741 0.0
C1957 C 0.62946 0.82725 0.06784 0.0
C1958 C 0.62956 0.82786 0.04716 0.0
C1959 C 0.62879 0.82875 0.98718 0.0
C1960 C 0.62919 0.82859 1.00785 0.0
H1961 H 0.6089 0.83955 0.10486 0.0
H1962 H 0.61012 0.84207 0.07123 0.0
H1963 H 0.63447 0.80401 0.04359 0.0
H1964 H 0.64655 0.81265 0.95024 0.0
H1965 H 0.64838 0.81426 0.98382 0.0
C1966 C 0.19336 0.65695 0.95669 0.0
C1967 C 0.19281 0.64317 0.94699 0.0
C1968 C 0.19182 0.65728 0.97599 0.0
C1969 C 0.17967 0.63456 1.01688 0.0
H1970 H 0.20745 0.66091 0.04315 0.0
C1971 C 0.19147 0.62979 0.09593 0.0
C1972 C 0.19405 0.64322 0.10589 0.0
C1973 C 0.18965 0.63008 0.07664 0.0
C1974 C 0.19943 0.65364 0.03608 0.0
H1975 H 0.18969 0.61897 0.95 0.0
H1976 H 0.18718 0.61953 0.98364 0.0
H1977 H 0.2072 0.66091 1.00947 0.0
H1978 H 0.19608 0.66758 0.10337 0.0
H1979 H 0.19272 0.6681 0.06989 0.0
H1980 H 0.1721 0.62715 0.04362 0.0
C1981 C 0.18865 0.63011 0.97633 0.0
C1982 C 0.19928 0.65365 1.0167 0.0
C1983 C 0.19015 0.62979 0.957 0.0
C1984 C 0.19421 0.657 0.09617 0.0
C1985 C 0.19239 0.65729 0.07692 0.0
C1986 C 0.17983 0.63454 0.03631 0.0
C1987 C 0.18974 0.64384 0.98612 0.0
C1988 C 0.18943 0.64409 1.00681 0.0
C1989 C 0.19037 0.64382 0.06684 0.0
C1990 C 0.18975 0.64407 0.04616 0.0
H1991 H 0.19529 0.66749 0.94944 0.0
H1992 H 0.19242 0.66809 0.98299 0.0
H1993 H 0.17181 0.62718 1.00975 0.0
H1994 H 0.1913 0.61897 0.10296 0.0
H1995 H 0.18823 0.61947 0.06935 0.0
C1996 C 0.37222 0.2009 0.09541 0.0
C1997 C 0.3813 0.19079 0.10553 0.0
C1998 C 0.37155 0.20013 0.07609 0.0
C1999 C 0.3797 0.1756 0.03555 0.0
H2000 H 0.38112 0.21386 1.00941 0.0
C2001 C 0.38957 0.18048 0.956 0.0
C2002 C 0.38167 0.19188 0.94648 0.0
C2003 C 0.3888 0.17945 0.97536 0.0
C2004 C 0.3805 0.20307 1.01645 0.0
H2005 H 0.39649 0.17164 0.10317 0.0
H2006 H 0.39542 0.17038 0.06937 0.0
H2007 H 0.38106 0.21363 0.04308 0.0
H2008 H 0.36628 0.21078 0.94986 0.0
H2009 H 0.36477 0.20886 0.98343 0.0
H2010 H 0.37924 0.16506 1.00878 0.0
C2011 C 0.3887 0.17884 0.07644 0.0
C2012 C 0.38047 0.20293 0.0358 0.0
C2013 C 0.38937 0.1796 0.09584 0.0
C2014 C 0.37261 0.20192 0.95672 0.0
C2015 C 0.37183 0.20089 0.97602 0.0
C2016 C 0.37973 0.17573 1.01612 0.0
C2017 C 0.37997 0.18926 0.06631 0.0
C2018 C 0.38001 0.18921 0.04564 0.0
C2019 C 0.38011 0.18981 0.98564 0.0
C2020 C 0.38006 0.18948 1.00632 0.0
H2021 H 0.36576 0.2096 0.1024 0.0
H2022 H 0.36447 0.20815 0.06878 0.0
H2023 H 0.37921 0.16483 0.04267 0.0
H2024 H 0.39667 0.17256 0.94856 0.0
H2025 H 0.39541 0.17085 0.98231 0.0
C2026 C 0.83462 0.39043 0.09821 0.0
C2027 C 0.82316 0.38211 0.1071 0.0
C2028 C 0.83682 0.38917 0.07904 0.0
C2029 C 0.82774 0.36494 0.03829 0.0
H2030 H 0.83407 0.4019 1.01047 0.0
C2031 C 0.81824 0.36907 0.95913 0.0
C2032 C 0.8279 0.37842 0.94871 0.0
C2033 C 0.81939 0.36851 0.97846 0.0
C2034 C 0.83255 0.39143 1.01802 0.0
H2035 H 0.80525 0.36567 0.10277 0.0
H2036 H 0.80899 0.36359 0.06949 0.0
H2037 H 0.833 0.40284 0.04417 0.0
H2038 H 0.84675 0.39411 0.95048 0.0
H2039 H 0.84882 0.39303 0.98415 0.0
H2040 H 0.82702 0.35359 1.01207 0.0
C2041 C 0.81641 0.37098 0.07731 0.0
C2042 C 0.83194 0.39196 0.03738 0.0
C2043 C 0.8142 0.37225 0.09642 0.0
C2044 C 0.83908 0.38682 0.95805 0.0
C2045 C 0.8402 0.38629 0.97739 0.0
C2046 C 0.82834 0.36441 1.01892 0.0
C2047 C 0.82765 0.37952 0.06832 0.0
C2048 C 0.82935 0.37876 0.04777 0.0
C2049 C 0.83022 0.37732 0.98786 0.0
C2050 C 0.83058 0.37767 1.00852 0.0
H2051 H 0.84176 0.3981 0.10599 0.0
H2052 H 0.84572 0.39577 0.07262 0.0
H2053 H 0.82599 0.35451 0.04584 0.0
H2054 H 0.80949 0.36246 0.95241 0.0
H2055 H 0.81142 0.36159 0.98607 0.0
C2056 C 0.63679 0.19678 0.09383 0.0
C2057 C 0.6278 0.18668 0.10412 0.0
C2058 C 0.63768 0.19564 0.07454 0.0
C2059 C 0.61668 0.18087 0.03413 0.0
H2060 H 0.65409 0.18956 1.00814 0.0
C2061 C 0.62085 0.17839 0.95403 0.0
C2062 C 0.62858 0.19044 0.9455 0.0
C2063 C 0.62155 0.17636 0.97327 0.0
C2064 C 0.64353 0.18719 1.01518 0.0
H2065 H 0.61298 0.16719 0.1021 0.0
H2066 H 0.61465 0.1651 0.0684 0.0
H2067 H 0.65392 0.18871 0.04191 0.0
H2068 H 0.64339 0.20958 0.95055 0.0
H2069 H 0.64454 0.20609 0.98397 0.0
H2070 H 0.60624 0.17956 1.00739 0.0
C2071 C 0.62086 0.17405 0.07529 0.0
C2072 C 0.64343 0.18671 0.03456 0.0
C2073 C 0.61998 0.17519 0.09463 0.0
C2074 C 0.63731 0.20017 0.95662 0.0
C2075 C 0.63804 0.19811 0.97582 0.0
C2076 C 0.61678 0.18134 1.01474 0.0
C2077 C 0.62961 0.18435 0.06497 0.0
C2078 C 0.62996 0.18375 0.04431 0.0
C2079 C 0.63004 0.18629 0.98443 0.0
C2080 C 0.63017 0.18471 1.00501 0.0
H2081 H 0.64295 0.2058 0.10064 0.0
H2082 H 0.64437 0.2039 0.06708 0.0
H2083 H 0.60606 0.17876 0.04115 0.0
H2084 H 0.61403 0.17066 0.9459 0.0
H2085 H 0.61539 0.16703 0.97941 0.0
C2086 C 0.8194 0.65627 0.09395 0.0
C2087 C 0.8186 0.64262 0.10387 0.0
C2088 C 0.82121 0.65625 0.0747 0.0
C2089 C 0.83154 0.63214 0.03424 0.0
H2090 H 0.80613 0.66039 1.00748 0.0
C2091 C 0.81875 0.62738 0.95535 0.0
C2092 C 0.81702 0.64086 0.94523 0.0
C2093 C 0.82101 0.62776 0.97458 0.0
C2094 C 0.81351 0.65258 1.01468 0.0
H2095 H 0.81966 0.61821 0.1013 0.0
H2096 H 0.82263 0.61816 0.0677 0.0
H2097 H 0.80636 0.66078 0.04112 0.0
H2098 H 0.81719 0.66533 0.94728 0.0
H2099 H 0.82135 0.66599 0.98062 0.0
H2100 H 0.83845 0.62379 1.00764 0.0
C2101 C 0.82202 0.62892 0.07482 0.0
C2102 C 0.81364 0.6528 0.03404 0.0
C2103 C 0.82025 0.62894 0.09412 0.0
C2104 C 0.81834 0.65472 0.95464 0.0
C2105 C 0.82062 0.6551 0.97381 0.0
C2106 C 0.83139 0.63191 1.01481 0.0
C2107 C 0.82221 0.64257 0.06481 0.0
C2108 C 0.82262 0.64257 0.04412 0.0
C2109 C 0.82161 0.64164 0.98412 0.0
C2110 C 0.82233 0.64211 1.00478 0.0
H2111 H 0.81829 0.66702 0.10101 0.0
H2112 H 0.82163 0.667 0.06752 0.0
H2113 H 0.83872 0.6242 0.04152 0.0
H2114 H 0.81777 0.6165 0.94856 0.0
H2115 H 0.82163 0.61717 0.98206 0.0
C2116 C 0.37306 0.81199 0.95688 0.0
C2117 C 0.38418 0.81968 0.9466 0.0
C2118 C 0.37234 0.81349 0.97613 0.0
C2119 C 0.38537 0.83677 1.01599 0.0
H2120 H 0.37843 0.79969 0.04336 0.0
C2121 C 0.39486 0.83104 0.09554 0.0
C2122 C 0.38478 0.82176 0.10546 0.0
C2123 C 0.39397 0.83206 0.07618 0.0
C2124 C 0.38017 0.81021 0.03598 0.0
H2125 H 0.40298 0.83539 0.94856 0.0
H2126 H 0.40183 0.83786 0.98225 0.0
H2127 H 0.37838 0.79919 1.00972 0.0
H2128 H 0.36538 0.80684 0.10281 0.0
H2129 H 0.36371 0.80878 0.06925 0.0
H2130 H 0.38733 0.84771 0.04242 0.0
C2131 C 0.39356 0.83077 0.97536 0.0
C2132 C 0.38013 0.80992 1.01663 0.0
C2133 C 0.39426 0.82931 0.95603 0.0
C2134 C 0.37343 0.814 0.09564 0.0
C2135 C 0.37252 0.81503 0.07634 0.0
C2136 C 0.38541 0.83705 0.03542 0.0
C2137 C 0.38276 0.82266 0.98568 0.0
C2138 C 0.38269 0.82319 1.00635 0.0
C2139 C 0.38296 0.82382 0.06632 0.0
C2140 C 0.38277 0.82376 0.04565 0.0
H2141 H 0.36502 0.80458 0.95008 0.0
H2142 H 0.36366 0.80732 0.98357 0.0
H2143 H 0.38724 0.84722 1.00853 0.0
H2144 H 0.40376 0.83717 0.10264 0.0
H2145 H 0.40225 0.83887 0.06891 0.0
C2146 C 0.19288 0.36928 0.95679 0.0
C2147 C 0.1836 0.37904 0.94642 0.0
C2148 C 0.19149 0.36845 0.97609 0.0
C2149 C 0.17825 0.39095 1.01602 0.0
H2150 H 0.18314 0.35337 0.04301 0.0
C2151 C 0.1733 0.3888 0.09579 0.0
C2152 C 0.18417 0.38014 0.10524 0.0
C2153 C 0.17177 0.38773 0.07652 0.0
C2154 C 0.18187 0.36398 0.0357 0.0
H2155 H 0.16522 0.39521 0.94825 0.0
H2156 H 0.16272 0.39365 0.98184 0.0
H2157 H 0.18306 0.35313 1.00918 0.0
H2158 H 0.2017 0.36321 0.10178 0.0
H2159 H 0.19915 0.36146 0.06824 0.0
H2160 H 0.17732 0.40185 0.04245 0.0
C2161 C 0.17123 0.3868 0.97508 0.0
C2162 C 0.18181 0.36384 1.01628 0.0
C2163 C 0.1726 0.38761 0.95578 0.0
C2164 C 0.19318 0.37004 0.09499 0.0
C2165 C 0.19166 0.36898 0.07572 0.0
C2166 C 0.17833 0.39109 0.03541 0.0
C2167 C 0.18081 0.37738 0.98552 0.0
C2168 C 0.18011 0.37734 1.00619 0.0
C2169 C 0.18109 0.37797 0.06619 0.0
C2170 C 0.18025 0.37763 0.04552 0.0
H2171 H 0.2015 0.36253 0.95007 0.0
H2172 H 0.19916 0.36118 0.98367 0.0
H2173 H 0.17718 0.40159 1.00874 0.0
H2174 H 0.16612 0.39665 0.10323 0.0
H2175 H 0.16333 0.39464 0.0697 0.0
C2176 C 0.18043 0.35785 0.21215 0.0
C2177 C 0.19581 0.35546 0.20829 0.0
C2178 C 0.17427 0.35328 0.22916 0.0
C2179 C 0.18659 0.34297 0.27716 0.0
H2180 H 0.14432 0.33223 0.28302 0.0
C2181 C 0.16047 0.31888 0.34512 0.0
C2182 C 0.147 0.32581 0.35107 0.0
C2183 C 0.16673 0.32245 0.32783 0.0
C2184 C 0.15614 0.33528 0.28157 0.0
H2185 H 0.21658 0.34559 0.21862 0.0
H2186 H 0.20574 0.33684 0.24768 0.0
H2187 H 0.15431 0.3373 0.25213 0.0
H2188 H 0.12964 0.34203 0.34356 0.0
H2189 H 0.14044 0.34801 0.31329 0.0
H2190 H 0.18839 0.34048 0.30665 0.0
C2191 C 0.19849 0.34283 0.23808 0.0
C2192 C 0.16188 0.33826 0.26386 0.0
C2193 C 0.2047 0.34768 0.22129 0.0
C2194 C 0.14008 0.33655 0.33948 0.0
C2195 C 0.14617 0.33989 0.32207 0.0
C2196 C 0.18089 0.33972 0.2948 0.0
C2197 C 0.18331 0.34597 0.24256 0.0
C2198 C 0.17719 0.34224 0.26137 0.0
C2199 C 0.15948 0.33278 0.31599 0.0
C2200 C 0.1656 0.33596 0.29721 0.0
H2201 H 0.17336 0.36399 0.20247 0.0
H2202 H 0.16259 0.35608 0.23205 0.0
H2203 H 0.19832 0.34635 0.27601 0.0
H2204 H 0.16605 0.31053 0.35371 0.0
H2205 H 0.17698 0.31678 0.32346 0.0
C2206 C 0.66201 0.18708 0.20564 0.0
C2207 C 0.64875 0.17962 0.19992 0.0
C2208 C 0.66838 0.18408 0.22303 0.0
C2209 C 0.65809 0.17185 0.26965 0.0
H2210 H 0.70065 0.1627 0.27581 0.0
C2211 C 0.68291 0.15148 0.33975 0.0
C2212 C 0.69816 0.15461 0.3437 0.0
C2213 C 0.67667 0.15554 0.3226 0.0
C2214 C 0.6888 0.16555 0.27449 0.0
H2215 H 0.63191 0.16298 0.20793 0.0
H2216 H 0.64291 0.15795 0.23835 0.0
H2217 H 0.69063 0.16749 0.24494 0.0
H2218 H 0.71854 0.16527 0.33336 0.0
H2219 H 0.70752 0.1731 0.304 0.0
H2220 H 0.65622 0.17035 0.29914 0.0
C2221 C 0.64838 0.16608 0.22933 0.0
C2222 C 0.68305 0.16818 0.25671 0.0
C2223 C 0.64218 0.16887 0.21183 0.0
C2224 C 0.70678 0.16262 0.33063 0.0
C2225 C 0.70048 0.16693 0.31367 0.0
C2226 C 0.66387 0.16948 0.28748 0.0
C2227 C 0.66145 0.17376 0.23519 0.0
C2228 C 0.66762 0.17124 0.25409 0.0
C2229 C 0.68547 0.16305 0.30913 0.0
C2230 C 0.67931 0.16619 0.29018 0.0
H2231 H 0.66733 0.19545 0.19681 0.0
H2232 H 0.67845 0.19018 0.22722 0.0
H2233 H 0.64617 0.17437 0.26804 0.0
H2234 H 0.67604 0.14516 0.34947 0.0
H2235 H 0.66514 0.15217 0.31966 0.0
C2236 C 0.80549 0.66254 0.21878 0.0
C2237 C 0.81401 0.65407 0.20607 0.0
C2238 C 0.81165 0.66681 0.23584 0.0
C2239 C 0.84781 0.66846 0.26299 0.0
H2240 H 0.82026 0.66744 0.30482 0.0
C2241 C 0.8683 0.66824 0.33915 0.0
C2242 C 0.86154 0.67895 0.35094 0.0
C2243 C 0.86238 0.66545 0.3215 0.0
C2244 C 0.82806 0.66787 0.29326 0.0
H2245 H 0.83585 0.64378 0.20103 0.0
H2246 H 0.84651 0.65078 0.23102 0.0
H2247 H 0.81065 0.6627 0.27373 0.0
H2248 H 0.84291 0.69473 0.35363 0.0
H2249 H 0.83231 0.68952 0.32293 0.0
H2250 H 0.86529 0.67309 0.28284 0.0
C2251 C 0.83516 0.6545 0.22771 0.0
C2252 C 0.82256 0.66526 0.27536 0.0
C2253 C 0.82906 0.65047 0.21047 0.0
C2254 C 0.84838 0.6864 0.34491 0.0
C2255 C 0.8423 0.68342 0.32734 0.0
C2256 C 0.85333 0.67084 0.28095 0.0
C2257 C 0.82642 0.66245 0.24084 0.0
C2258 C 0.83234 0.66555 0.25991 0.0
C2259 C 0.84941 0.67312 0.31532 0.0
C2260 C 0.84352 0.67058 0.29627 0.0
H2261 H 0.79388 0.66557 0.21571 0.0
H2262 H 0.80468 0.67331 0.24525 0.0
H2263 H 0.85568 0.66904 0.25153 0.0
H2264 H 0.8785 0.66235 0.34329 0.0
H2265 H 0.86799 0.65733 0.31262 0.0
C2266 C 0.35196 0.81986 0.20883 0.0
C2267 C 0.36431 0.82816 0.20192 0.0
C2268 C 0.34594 0.82307 0.22634 0.0
C2269 C 0.35655 0.83939 0.27134 0.0
H2270 H 0.3133 0.84094 0.28 0.0
C2271 C 0.33079 0.85886 0.34134 0.0
C2272 C 0.31696 0.85248 0.34696 0.0
C2273 C 0.337 0.85529 0.32403 0.0
C2274 C 0.32542 0.84029 0.27795 0.0
H2275 H 0.37976 0.84662 0.20786 0.0
H2276 H 0.36927 0.85218 0.23839 0.0
H2277 H 0.32278 0.83643 0.24881 0.0
H2278 H 0.29929 0.83665 0.3393 0.0
H2279 H 0.31036 0.82998 0.30953 0.0
H2280 H 0.35925 0.84299 0.30049 0.0
C2281 C 0.36432 0.84312 0.23029 0.0
C2282 C 0.33084 0.83778 0.26 0.0
C2283 C 0.37024 0.84001 0.21272 0.0
C2284 C 0.3099 0.84186 0.33532 0.0
C2285 C 0.31619 0.83816 0.31814 0.0
C2286 C 0.35114 0.84175 0.28934 0.0
C2287 C 0.35223 0.83456 0.2374 0.0
C2288 C 0.34646 0.83734 0.25647 0.0
C2289 C 0.32961 0.84512 0.31201 0.0
C2290 C 0.33548 0.84226 0.29291 0.0
H2291 H 0.34713 0.81064 0.2009 0.0
H2292 H 0.33667 0.81623 0.23146 0.0
H2293 H 0.36866 0.83889 0.26911 0.0
H2294 H 0.33647 0.86717 0.34991 0.0
H2295 H 0.34728 0.86099 0.31979 0.0
C2296 C 0.20448 0.66086 0.83161 0.0
C2297 C 0.1956 0.65292 0.84447 0.0
C2298 C 0.19827 0.66587 0.81488 0.0
C2299 C 0.16164 0.67057 0.78914 0.0
H2300 H 0.1881 0.66876 0.74631 0.0
C2301 C 0.13964 0.67247 0.71362 0.0
C2302 C 0.14653 0.68322 0.70198 0.0
C2303 C 0.14579 0.66914 0.73101 0.0
C2304 C 0.18062 0.66942 0.75816 0.0
H2305 H 0.17315 0.64426 0.85012 0.0
H2306 H 0.16238 0.65247 0.82068 0.0
H2307 H 0.19809 0.66276 0.77688 0.0
H2308 H 0.16559 0.69851 0.69925 0.0
H2309 H 0.17661 0.6923 0.72947 0.0
H2310 H 0.14404 0.67663 0.77005 0.0
C2311 C 0.17406 0.65528 0.82363 0.0
C2312 C 0.18634 0.66609 0.77578 0.0
C2313 C 0.18022 0.65054 0.84056 0.0
C2314 C 0.16003 0.69016 0.70787 0.0
C2315 C 0.16634 0.68662 0.72516 0.0
C2316 C 0.15587 0.67364 0.77146 0.0
C2317 C 0.18308 0.66275 0.81034 0.0
C2318 C 0.17696 0.66664 0.79158 0.0
C2319 C 0.15912 0.67627 0.73704 0.0
C2320 C 0.1653 0.6731 0.75579 0.0
H2321 H 0.21636 0.66295 0.83431 0.0
H2322 H 0.20552 0.67198 0.80538 0.0
H2323 H 0.15408 0.67141 0.80088 0.0
H2324 H 0.12919 0.66696 0.70959 0.0
H2325 H 0.14009 0.66101 0.7398 0.0
C2326 C 0.30472 0.15967 0.72218 0.0
C2327 C 0.31377 0.15254 0.70881 0.0
C2328 C 0.31099 0.16481 0.73881 0.0
C2329 C 0.34784 0.17164 0.76331 0.0
H2330 H 0.32261 0.16754 0.80701 0.0
C2331 C 0.37136 0.17408 0.83812 0.0
C2332 C 0.36408 0.18425 0.85016 0.0
C2333 C 0.36507 0.17058 0.82086 0.0
C2334 C 0.32975 0.16883 0.79491 0.0
H2335 H 0.33658 0.14547 0.70216 0.0
H2336 H 0.34751 0.15388 0.73144 0.0
H2337 H 0.31231 0.16119 0.7767 0.0
H2338 H 0.34422 0.19832 0.85374 0.0
H2339 H 0.33298 0.19179 0.82373 0.0
H2340 H 0.36546 0.17869 0.78188 0.0
C2341 C 0.33561 0.15596 0.72897 0.0
C2342 C 0.32383 0.16531 0.77745 0.0
C2343 C 0.32936 0.15109 0.71213 0.0
C2344 C 0.3501 0.19044 0.84479 0.0
C2345 C 0.34366 0.1867 0.82764 0.0
C2346 C 0.35382 0.17491 0.78083 0.0
C2347 C 0.32645 0.16263 0.74273 0.0
C2348 C 0.33277 0.16669 0.76134 0.0
C2349 C 0.35122 0.17694 0.81538 0.0
C2350 C 0.34483 0.17355 0.79679 0.0
H2351 H 0.29268 0.16104 0.71992 0.0
H2352 H 0.30361 0.1703 0.7487 0.0
H2353 H 0.35504 0.17314 0.75131 0.0
H2354 H 0.38219 0.16917 0.84176 0.0
H2355 H 0.37106 0.16291 0.81175 0.0
C2356 C 0.86419 0.32578 0.71409 0.0
C2357 C 0.85429 0.31556 0.70533 0.0
C2358 C 0.86116 0.33106 0.73197 0.0
C2359 C 0.83904 0.3212 0.77406 0.0
H2360 H 0.85052 0.36159 0.78958 0.0
C2361 C 0.82185 0.34749 0.84463 0.0
C2362 C 0.83284 0.35604 0.85409 0.0
C2363 C 0.82468 0.34197 0.8268 0.0
C2364 C 0.8474 0.35021 0.7855 0.0
H2365 H 0.83308 0.30345 0.70822 0.0
H2366 H 0.82754 0.31304 0.73916 0.0
H2367 H 0.85416 0.35399 0.75743 0.0
H2368 H 0.85563 0.36508 0.8524 0.0
H2369 H 0.86054 0.35547 0.82124 0.0
H2370 H 0.83204 0.31758 0.80216 0.0
C2371 C 0.83788 0.31664 0.73243 0.0
C2372 C 0.84949 0.34584 0.76705 0.0
C2373 C 0.84098 0.31125 0.71459 0.0
C2374 C 0.84692 0.35852 0.84553 0.0
C2375 C 0.84969 0.35313 0.82761 0.0
C2376 C 0.83683 0.32563 0.79248 0.0
C2377 C 0.84808 0.32639 0.74152 0.0
C2378 C 0.84539 0.33125 0.76107 0.0
C2379 C 0.83852 0.34499 0.81794 0.0
C2380 C 0.84105 0.34016 0.79843 0.0
H2381 H 0.8746 0.32927 0.70744 0.0
H2382 H 0.86938 0.3384 0.73853 0.0
H2383 H 0.83602 0.30978 0.77012 0.0
H2384 H 0.81088 0.34537 0.85081 0.0
H2385 H 0.81582 0.3358 0.81968 0.0
C2386 C 0.7064 0.84921 0.71995 0.0
C2387 C 0.6982 0.85792 0.70716 0.0
C2388 C 0.70001 0.84512 0.73694 0.0
C2389 C 0.66367 0.84444 0.7637 0.0
H2390 H 0.69099 0.84493 0.8058 0.0
C2391 C 0.64272 0.84493 0.83967 0.0
C2392 C 0.64926 0.83408 0.85146 0.0
C2393 C 0.64879 0.84767 0.82208 0.0
C2394 C 0.68324 0.84466 0.79416 0.0
H2395 H 0.6767 0.86883 0.70189 0.0
H2396 H 0.66564 0.86213 0.73176 0.0
H2397 H 0.70088 0.84939 0.7748 0.0
H2398 H 0.66763 0.81801 0.85425 0.0
H2399 H 0.67847 0.82312 0.82368 0.0
H2400 H 0.64598 0.84021 0.78337 0.0
C2401 C 0.6769 0.85809 0.72857 0.0
C2402 C 0.68891 0.84711 0.77631 0.0
C2403 C 0.68323 0.86195 0.7114 0.0
C2404 C 0.66234 0.82645 0.84552 0.0
C2405 C 0.66856 0.82938 0.82803 0.0
C2406 C 0.65799 0.84221 0.7816 0.0
C2407 C 0.68534 0.8499 0.74177 0.0
C2408 C 0.67922 0.84699 0.76078 0.0
C2409 C 0.66167 0.83981 0.816 0.0
C2410 C 0.66772 0.84228 0.79701 0.0
H2411 H 0.71793 0.84584 0.717 0.0
H2412 H 0.70673 0.83842 0.74642 0.0
H2413 H 0.65586 0.84402 0.75215 0.0
H2414 H 0.6326 0.85095 0.84374 0.0
H2415 H 0.64336 0.85589 0.81318 0.0
C2416 C 0.84912 0.68475 0.7096 0.0
C2417 C 0.85912 0.67553 0.69948 0.0
C2418 C 0.8442 0.68043 0.7273 0.0
C2419 C 0.85616 0.65697 0.76683 0.0
H2420 H 0.81487 0.6617 0.78396 0.0
C2421 C 0.83573 0.63089 0.8356 0.0
C2422 C 0.82494 0.63867 0.84626 0.0
C2423 C 0.83987 0.63611 0.81803 0.0
C2424 C 0.82651 0.66052 0.77951 0.0
H2425 H 0.87126 0.65422 0.69981 0.0
H2426 H 0.86265 0.64671 0.73052 0.0
H2427 H 0.82152 0.66902 0.75234 0.0
H2428 H 0.81028 0.6583 0.84689 0.0
H2429 H 0.81774 0.66762 0.81633 0.0
H2430 H 0.86127 0.64864 0.79392 0.0
C2431 C 0.85877 0.65738 0.72489 0.0
C2432 C 0.8303 0.66467 0.76134 0.0
C2433 C 0.86361 0.66164 0.70719 0.0
C2434 C 0.81862 0.65202 0.83905 0.0
C2435 C 0.82281 0.65729 0.82145 0.0
C2436 C 0.85242 0.65293 0.78499 0.0
C2437 C 0.84925 0.66685 0.73532 0.0
C2438 C 0.84514 0.66278 0.75473 0.0
C2439 C 0.83339 0.64932 0.81062 0.0
C2440 C 0.8375 0.65447 0.79155 0.0
H2441 H 0.84545 0.69554 0.70411 0.0
H2442 H 0.8369 0.688 0.73498 0.0
H2443 H 0.86778 0.65568 0.76232 0.0
H2444 H 0.84079 0.62052 0.84062 0.0
H2445 H 0.84787 0.62952 0.81006 0.0
C2446 C 0.36955 0.83611 0.83925 0.0
C2447 C 0.36237 0.82589 0.85133 0.0
C2448 C 0.36327 0.83943 0.82194 0.0
C2449 C 0.32806 0.84052 0.79575 0.0
H2450 H 0.3536 0.8362 0.75238 0.0
C2451 C 0.30331 0.84899 0.72278 0.0
C2452 C 0.31237 0.85617 0.70945 0.0
C2453 C 0.30955 0.84397 0.73948 0.0
C2454 C 0.34633 0.83769 0.76431 0.0
H2455 H 0.34268 0.81154 0.85492 0.0
H2456 H 0.33144 0.81777 0.82482 0.0
H2457 H 0.36392 0.83099 0.78307 0.0
H2458 H 0.33515 0.86346 0.70292 0.0
H2459 H 0.346 0.85528 0.73232 0.0
H2460 H 0.31064 0.84783 0.77734 0.0
C2461 C 0.34204 0.82303 0.82874 0.0
C2462 C 0.35226 0.83463 0.7819 0.0
C2463 C 0.34847 0.81947 0.84595 0.0
C2464 C 0.32793 0.85779 0.71287 0.0
C2465 C 0.33414 0.85306 0.72977 0.0
C2466 C 0.3222 0.84385 0.77822 0.0
C2467 C 0.34953 0.83283 0.81644 0.0
C2468 C 0.34318 0.836 0.79779 0.0
C2469 C 0.32497 0.84635 0.7435 0.0
C2470 C 0.33122 0.84246 0.76219 0.0
H2471 H 0.38031 0.84119 0.84289 0.0
H2472 H 0.36919 0.84714 0.8128 0.0
H2473 H 0.32086 0.84182 0.8078 0.0
H2474 H 0.29129 0.84748 0.72044 0.0
H2475 H 0.30217 0.83845 0.74935 0.0
C2476 C 0.13925 0.33419 0.71303 0.0
C2477 C 0.14636 0.32369 0.70127 0.0
C2478 C 0.14534 0.33755 0.73044 0.0
C2479 C 0.18027 0.33816 0.75727 0.0
H2480 H 0.15413 0.33518 0.80028 0.0
C2481 C 0.2045 0.34707 0.83045 0.0
C2482 C 0.19551 0.35465 0.84351 0.0
C2483 C 0.19828 0.34198 0.81376 0.0
C2484 C 0.16158 0.3363 0.78845 0.0
H2485 H 0.16572 0.30884 0.69837 0.0
H2486 H 0.17665 0.31513 0.72863 0.0
H2487 H 0.14401 0.32978 0.76952 0.0
H2488 H 0.17288 0.36256 0.84957 0.0
H2489 H 0.16208 0.35424 0.82017 0.0
H2490 H 0.19769 0.34529 0.77582 0.0
C2491 C 0.16624 0.32059 0.72439 0.0
C2492 C 0.15576 0.33313 0.77082 0.0
C2493 C 0.15998 0.31699 0.70709 0.0
C2494 C 0.18004 0.35659 0.83983 0.0
C2495 C 0.17386 0.35177 0.82293 0.0
C2496 C 0.18603 0.3416 0.77484 0.0
C2497 C 0.15884 0.33071 0.73636 0.0
C2498 C 0.16505 0.33401 0.75506 0.0
C2499 C 0.18297 0.34466 0.80946 0.0
C2500 C 0.1768 0.34069 0.79074 0.0
H2501 H 0.12869 0.33949 0.70904 0.0
H2502 H 0.13949 0.34551 0.73931 0.0
H2503 H 0.18764 0.33909 0.74533 0.0
H2504 H 0.21646 0.34532 0.83298 0.0
H2505 H 0.20561 0.33614 0.80411 0.0
C2506 C 0.70527 0.16505 0.72016 0.0
C2507 C 0.69675 0.15677 0.70724 0.0
C2508 C 0.69884 0.1698 0.73686 0.0
C2509 C 0.66204 0.17342 0.76229 0.0
H2510 H 0.68828 0.17194 0.80536 0.0
C2511 C 0.63944 0.17528 0.83751 0.0
C2512 C 0.64641 0.18578 0.84942 0.0
C2513 C 0.64567 0.17205 0.82014 0.0
C2514 C 0.68085 0.17251 0.79344 0.0
H2515 H 0.67464 0.14729 0.70146 0.0
H2516 H 0.66347 0.15511 0.73084 0.0
H2517 H 0.69855 0.16624 0.77485 0.0
H2518 H 0.66568 0.20076 0.85262 0.0
H2519 H 0.67678 0.19478 0.82242 0.0
H2520 H 0.64423 0.17917 0.78121 0.0
C2521 C 0.67505 0.15832 0.72796 0.0
C2522 C 0.68673 0.16934 0.77587 0.0
C2523 C 0.68145 0.15381 0.71107 0.0
C2524 C 0.66004 0.19261 0.84379 0.0
C2525 C 0.6664 0.18918 0.82652 0.0
C2526 C 0.65611 0.17636 0.77992 0.0
C2527 C 0.68376 0.16611 0.74129 0.0
C2528 C 0.67743 0.16978 0.76 0.0
C2529 C 0.65914 0.17905 0.81439 0.0
C2530 C 0.66546 0.17595 0.79568 0.0
H2531 H 0.71707 0.16761 0.71752 0.0
H2532 H 0.70581 0.17616 0.74643 0.0
H2533 H 0.65454 0.17413 0.75046 0.0
H2534 H 0.6289 0.16986 0.84134 0.0
H2535 H 0.63992 0.16407 0.81117 0.0
C2536 C 0.8393 0.36684 0.21343 0.0
C2537 C 0.8285 0.36026 0.20157 0.0
C2538 C 0.84228 0.36056 0.23083 0.0
C2539 C 0.84077 0.32576 0.25781 0.0
H2540 H 0.83838 0.3522 0.30059 0.0
C2541 C 0.84703 0.30158 0.33138 0.0
C2542 C 0.85497 0.31022 0.3445 0.0
C2543 C 0.84255 0.30794 0.31452 0.0
C2544 C 0.83932 0.34466 0.28883 0.0
H2545 H 0.81278 0.3416 0.19844 0.0
H2546 H 0.81838 0.33034 0.22868 0.0
H2547 H 0.83405 0.36242 0.26965 0.0
H2548 H 0.86413 0.3324 0.3505 0.0
H2549 H 0.85684 0.34341 0.32085 0.0
H2550 H 0.84663 0.30811 0.27666 0.0
C2551 C 0.82437 0.34047 0.22452 0.0
C2552 C 0.83677 0.35053 0.27109 0.0
C2553 C 0.82117 0.34692 0.20723 0.0
C2554 C 0.85786 0.32552 0.34072 0.0
C2555 C 0.85364 0.33182 0.32367 0.0
C2556 C 0.84359 0.31992 0.2755 0.0
C2557 C 0.83474 0.3474 0.23663 0.0
C2558 C 0.83746 0.34114 0.25542 0.0
C2559 C 0.84619 0.32302 0.31015 0.0
C2560 C 0.84287 0.32927 0.29131 0.0
H2561 H 0.84509 0.37717 0.20956 0.0
H2562 H 0.85043 0.36603 0.23982 0.0
H2563 H 0.84152 0.3183 0.24594 0.0
H2564 H 0.84455 0.28977 0.33399 0.0
H2565 H 0.83643 0.30089 0.3048 0.0
C2566 C 0.65871 0.82281 0.21156 0.0
C2567 C 0.64738 0.83125 0.20261 0.0
C2568 C 0.6637 0.82682 0.22933 0.0
C2569 C 0.66268 0.85825 0.26399 0.0
H2570 H 0.67067 0.82613 0.29923 0.0
C2571 C 0.66714 0.86983 0.34222 0.0
C2572 C 0.6798 0.86376 0.3514 0.0
C2573 C 0.66346 0.86521 0.32425 0.0
C2574 C 0.66858 0.83521 0.2895 0.0
H2575 H 0.63265 0.85073 0.20526 0.0
H2576 H 0.64104 0.8575 0.23619 0.0
H2577 H 0.66438 0.81983 0.26718 0.0
H2578 H 0.69806 0.84749 0.34914 0.0
H2579 H 0.69141 0.83923 0.3178 0.0
H2580 H 0.66652 0.8736 0.28646 0.0
C2581 C 0.64635 0.84795 0.22944 0.0
C2582 C 0.66505 0.83163 0.27108 0.0
C2583 C 0.64147 0.84402 0.21165 0.0
C2584 C 0.68824 0.8524 0.34249 0.0
C2585 C 0.68443 0.84766 0.32454 0.0
C2586 C 0.66604 0.86181 0.28241 0.0
C2587 C 0.65741 0.83932 0.23865 0.0
C2588 C 0.66194 0.8431 0.25808 0.0
C2589 C 0.67222 0.85429 0.31506 0.0
C2590 C 0.66892 0.85035 0.29542 0.0
H2591 H 0.66355 0.81293 0.20498 0.0
H2592 H 0.67243 0.82006 0.2358 0.0
H2593 H 0.66071 0.86743 0.25436 0.0
H2594 H 0.66036 0.87857 0.34863 0.0
H2595 H 0.65383 0.87035 0.31743 0.0
C2596 C 0.1619 0.68785 0.3456 0.0
C2597 C 0.1483 0.681 0.35128 0.0
C2598 C 0.16824 0.68444 0.3283 0.0
C2599 C 0.1577 0.67196 0.28171 0.0
H2600 H 0.2001 0.66188 0.27604 0.0
C2601 C 0.18251 0.65037 0.21209 0.0
C2602 C 0.19781 0.65326 0.20821 0.0
C2603 C 0.17624 0.65467 0.22915 0.0
C2604 C 0.18829 0.66497 0.27723 0.0
H2605 H 0.13084 0.665 0.34329 0.0
H2606 H 0.1418 0.65925 0.31306 0.0
H2607 H 0.19004 0.66724 0.30675 0.0
H2608 H 0.21829 0.66374 0.21857 0.0
H2609 H 0.20725 0.67197 0.24775 0.0
H2610 H 0.15593 0.67011 0.25224 0.0
C2611 C 0.14755 0.66723 0.32202 0.0
C2612 C 0.18252 0.66794 0.29491 0.0
C2613 C 0.14136 0.67044 0.33942 0.0
C2614 C 0.20648 0.66126 0.22124 0.0
C2615 C 0.20017 0.66581 0.23811 0.0
C2616 C 0.16351 0.66923 0.26397 0.0
C2617 C 0.16097 0.67431 0.31619 0.0
C2618 C 0.16715 0.67136 0.29737 0.0
C2619 C 0.18509 0.66218 0.24259 0.0
C2620 C 0.17889 0.66562 0.26144 0.0
H2621 H 0.16752 0.69606 0.35438 0.0
H2622 H 0.17857 0.6901 0.32414 0.0
H2623 H 0.14583 0.67476 0.28317 0.0
H2624 H 0.1756 0.64405 0.2024 0.0
H2625 H 0.16465 0.6515 0.23205 0.0
C2626 C 0.30375 0.16039 0.33111 0.0
C2627 C 0.31269 0.15267 0.3441 0.0
C2628 C 0.3099 0.16523 0.31428 0.0
C2629 C 0.34645 0.16997 0.28845 0.0
H2630 H 0.31994 0.16746 0.24568 0.0
C2631 C 0.3683 0.17158 0.2129 0.0
C2632 C 0.36132 0.18222 0.20122 0.0
C2633 C 0.36219 0.16825 0.23031 0.0
C2634 C 0.32744 0.16831 0.25752 0.0
H2635 H 0.33519 0.14424 0.34988 0.0
H2636 H 0.34587 0.15215 0.32026 0.0
H2637 H 0.31005 0.16163 0.27635 0.0
H2638 H 0.34214 0.19731 0.19841 0.0
H2639 H 0.33119 0.19109 0.22867 0.0
H2640 H 0.36396 0.17606 0.26926 0.0
C2641 C 0.33418 0.15491 0.32318 0.0
C2642 C 0.32177 0.16508 0.27519 0.0
C2643 C 0.32807 0.15034 0.34021 0.0
C2644 C 0.34777 0.18904 0.20707 0.0
C2645 C 0.3415 0.18549 0.22437 0.0
C2646 C 0.35216 0.17294 0.27072 0.0
C2647 C 0.32509 0.16216 0.30978 0.0
C2648 C 0.33117 0.1659 0.29096 0.0
C2649 C 0.34882 0.17528 0.2363 0.0
C2650 C 0.34271 0.17215 0.25509 0.0
H2651 H 0.29186 0.16244 0.33381 0.0
H2652 H 0.30261 0.17118 0.30469 0.0
H2653 H 0.35402 0.17101 0.30018 0.0
H2654 H 0.37879 0.16617 0.2089 0.0
H2655 H 0.36797 0.16021 0.23915 0.0
loop_
_geom_bond_atom_site_label_1
_geom_bond_atom_site_label_2
_geom_bond_distance
_geom_bond_site_symmetry_2
_ccdc_geom_bond_type
Cu0 N1 1.999 . S
Cu0 O6 1.974 . S
Cu0 N11 1.985 . S
Cu0 O20 1.959 . S
N1 Cu0 1.999 . S
N1 C3 1.263 . S
N1 C5 1.389 . S
N2 C3 1.358 . S
N2 C4 1.400 . S
C3 N1 1.263 . S
C3 N2 1.358 . S
C3 H9 0.930 . S
C4 N2 1.400 . S
C4 C5 1.351 . S
C4 H21 0.930 . S
C5 N1 1.389 . S
C5 C4 1.351 . S
C5 H10 0.930 . S
O6 Cu0 1.974 . S
O6 C16 1.282 . S
C7 O8 1.261 . S
C7 O20 1.251 . S
O8 C7 1.261 . S
H9 C3 0.930 . S
H10 C5 0.930 . S
N11 Cu0 1.985 . S
N11 C13 1.335 . S
N11 C14 1.390 . S
N12 C13 1.345 . S
N12 C15 1.336 . S
C13 N11 1.335 . S
C13 N12 1.345 . S
C13 H18 0.930 . S
C14 N11 1.390 . S
C14 C15 1.346 . S
C14 H19 0.930 . S
C15 N12 1.336 . S
C15 C14 1.346 . S
C15 H22 0.929 . S
C16 O6 1.282 . S
C16 O17 1.216 . S
O17 C16 1.216 . S
H18 C13 0.930 . S
H19 C14 0.930 . S
O20 Cu0 1.959 . S
O20 C7 1.251 . S
H21 C4 0.930 . S
H22 C15 0.929 . S
Cu23 N24 1.999 . S
Cu23 O29 1.974 . S
Cu23 N34 1.985 . S
Cu23 O43 1.959 . S
N24 Cu23 1.999 . S
N24 C26 1.263 . S
N24 C28 1.389 . S
N25 C26 1.358 . S
N25 C27 1.400 . S
C26 N24 1.263 . S
C26 N25 1.358 . S
C26 H32 0.930 . S
C27 N25 1.400 . S
C27 C28 1.351 . S
C27 H44 0.930 . S
C28 N24 1.389 . S
C28 C27 1.351 . S
C28 H33 0.930 . S
O29 Cu23 1.974 . S
O29 C39 1.282 . S
C30 O31 1.261 . S
C30 O43 1.251 . S
O31 C30 1.261 . S
H32 C26 0.930 . S
H33 C28 0.930 . S
N34 Cu23 1.985 . S
N34 C36 1.335 . S
N34 C37 1.390 . S
N35 C36 1.345 . S
N35 C38 1.336 . S
C36 N34 1.335 . S
C36 N35 1.345 . S
C36 H41 0.930 . S
C37 N34 1.390 . S
C37 C38 1.346 . S
C37 H42 0.930 . S
C38 N35 1.336 . S
C38 C37 1.346 . S
C38 H45 0.929 . S
C39 O29 1.282 . S
C39 O40 1.216 . S
O40 C39 1.216 . S
H41 C36 0.930 . S
H42 C37 0.930 . S
O43 Cu23 1.959 . S
O43 C30 1.251 . S
H44 C27 0.930 . S
H45 C38 0.929 . S
Cu46 N47 1.999 . S
Cu46 O52 1.974 . S
Cu46 N57 1.985 . S
Cu46 O66 1.959 . S
N47 Cu46 1.999 . S
N47 C49 1.263 . S
N47 C51 1.389 . S
N48 C49 1.358 . S
N48 C50 1.400 . S
C49 N47 1.263 . S
C49 N48 1.358 . S
C49 H55 0.930 . S
C50 N48 1.400 . S
C50 C51 1.351 . S
C50 H67 0.930 . S
C51 N47 1.389 . S
C51 C50 1.351 . S
C51 H56 0.930 . S
O52 Cu46 1.974 . S
O52 C62 1.282 . S
C53 O54 1.261 . S
C53 O66 1.251 . S
O54 C53 1.261 . S
H55 C49 0.930 . S
H56 C51 0.930 . S
N57 Cu46 1.985 . S
N57 C59 1.335 . S
N57 C60 1.390 . S
N58 C59 1.345 . S
N58 C61 1.336 . S
C59 N57 1.335 . S
C59 N58 1.345 . S
C59 H64 0.930 . S
C60 N57 1.390 . S
C60 C61 1.346 . S
C60 H65 0.930 . S
C61 N58 1.336 . S
C61 C60 1.346 . S
C61 H68 0.929 . S
C62 O52 1.282 . S
C62 O63 1.216 . S
O63 C62 1.216 . S
H64 C59 0.930 . S
H65 C60 0.930 . S
O66 Cu46 1.959 . S
O66 C53 1.251 . S
H67 C50 0.930 . S
H68 C61 0.929 . S
Cu69 N70 1.999 . S
Cu69 O75 1.974 . S
Cu69 N80 1.985 . S
Cu69 O89 1.959 . S
N70 Cu69 1.999 . S
N70 C72 1.263 . S
N70 C74 1.389 . S
N71 C72 1.358 . S
N71 C73 1.400 . S
C72 N70 1.263 . S
C72 N71 1.358 . S
C72 H78 0.930 . S
C73 N71 1.400 . S
C73 C74 1.351 . S
C73 H90 0.930 . S
C74 N70 1.389 . S
C74 C73 1.351 . S
C74 H79 0.930 . S
O75 Cu69 1.974 . S
O75 C85 1.282 . S
C76 O77 1.261 . S
C76 O89 1.251 . S
O77 C76 1.261 . S
H78 C72 0.930 . S
H79 C74 0.930 . S
N80 Cu69 1.985 . S
N80 C82 1.335 . S
N80 C83 1.390 . S
N81 C82 1.345 . S
N81 C84 1.336 . S
C82 N80 1.335 . S
C82 N81 1.345 . S
C82 H87 0.930 . S
C83 N80 1.390 . S
C83 C84 1.346 . S
C83 H88 0.930 . S
C84 N81 1.336 . S
C84 C83 1.346 . S
C84 H91 0.929 . S
C85 O75 1.282 . S
C85 O86 1.216 . S
O86 C85 1.216 . S
H87 C82 0.930 . S
H88 C83 0.930 . S
O89 Cu69 1.959 . S
O89 C76 1.251 . S
H90 C73 0.930 . S
H91 C84 0.929 . S
Cu92 N93 1.999 . S
Cu92 O98 1.974 . S
Cu92 N103 1.985 . S
Cu92 O112 1.959 . S
N93 Cu92 1.999 . S
N93 C95 1.263 . S
N93 C97 1.389 . S
N94 C95 1.358 . S
N94 C96 1.400 . S
C95 N93 1.263 . S
C95 N94 1.358 . S
C95 H101 0.930 . S
C96 N94 1.400 . S
C96 C97 1.351 . S
C96 H113 0.930 . S
C97 N93 1.389 . S
C97 C96 1.351 . S
C97 H102 0.930 . S
O98 Cu92 1.974 . S
O98 C108 1.282 . S
C99 O100 1.261 . S
C99 O112 1.251 . S
O100 C99 1.261 . S
H101 C95 0.930 . S
H102 C97 0.930 . S
N103 Cu92 1.985 . S
N103 C105 1.335 . S
N103 C106 1.390 . S
N104 C105 1.345 . S
N104 C107 1.336 . S
C105 N103 1.335 . S
C105 N104 1.345 . S
C105 H110 0.930 . S
C106 N103 1.390 . S
C106 C107 1.346 . S
C106 H111 0.930 . S
C107 N104 1.336 . S
C107 C106 1.346 . S
C107 H114 0.929 . S
C108 O98 1.282 . S
C108 O109 1.216 . S
O109 C108 1.216 . S
H110 C105 0.930 . S
H111 C106 0.930 . S
O112 Cu92 1.959 . S
O112 C99 1.251 . S
H113 C96 0.930 . S
H114 C107 0.929 . S
Cu115 N116 1.999 . S
Cu115 O121 1.974 . S
Cu115 N126 1.985 . S
Cu115 O135 1.959 . S
N116 Cu115 1.999 . S
N116 C118 1.263 . S
N116 C120 1.389 . S
N117 C118 1.358 . S
N117 C119 1.400 . S
C118 N116 1.263 . S
C118 N117 1.358 . S
C118 H124 0.930 . S
C119 N117 1.400 . S
C119 C120 1.351 . S
C119 H136 0.930 . S
C120 N116 1.389 . S
C120 C119 1.351 . S
C120 H125 0.930 . S
O121 Cu115 1.974 . S
O121 C131 1.282 . S
C122 O123 1.261 . S
C122 O135 1.251 . S
O123 C122 1.261 . S
H124 C118 0.930 . S
H125 C120 0.930 . S
N126 Cu115 1.985 . S
N126 C128 1.335 . S
N126 C129 1.390 . S
N127 C128 1.345 . S
N127 C130 1.336 . S
C128 N126 1.335 . S
C128 N127 1.345 . S
C128 H133 0.930 . S
C129 N126 1.390 . S
C129 C130 1.346 . S
C129 H134 0.930 . S
C130 N127 1.336 . S
C130 C129 1.346 . S
C130 H137 0.929 . S
C131 O121 1.282 . S
C131 O132 1.216 . S
O132 C131 1.216 . S
H133 C128 0.930 . S
H134 C129 0.930 . S
O135 Cu115 1.959 . S
O135 C122 1.251 . S
H136 C119 0.930 . S
H137 C130 0.929 . S
Cu138 N139 1.999 . S
Cu138 O144 1.974 . S
Cu138 N149 1.985 . S
Cu138 O158 1.959 . S
N139 Cu138 1.999 . S
N139 C141 1.263 . S
N139 C143 1.389 . S
N140 C141 1.358 . S
N140 C142 1.400 . S
C141 N139 1.263 . S
C141 N140 1.358 . S
C141 H147 0.930 . S
C142 N140 1.400 . S
C142 C143 1.351 . S
C142 H159 0.930 . S
C143 N139 1.389 . S
C143 C142 1.351 . S
C143 H148 0.930 . S
O144 Cu138 1.974 . S
O144 C154 1.282 . S
C145 O146 1.261 . S
C145 O158 1.251 . S
O146 C145 1.261 . S
H147 C141 0.930 . S
H148 C143 0.930 . S
N149 Cu138 1.985 . S
N149 C151 1.335 . S
N149 C152 1.390 . S
N150 C151 1.345 . S
N150 C153 1.336 . S
C151 N149 1.335 . S
C151 N150 1.345 . S
C151 H156 0.930 . S
C152 N149 1.390 . S
C152 C153 1.346 . S
C152 H157 0.930 . S
C153 N150 1.336 . S
C153 C152 1.346 . S
C153 H160 0.929 . S
C154 O144 1.282 . S
C154 O155 1.216 . S
O155 C154 1.216 . S
H156 C151 0.930 . S
H157 C152 0.930 . S
O158 Cu138 1.959 . S
O158 C145 1.251 . S
H159 C142 0.930 . S
H160 C153 0.929 . S
Cu161 N162 1.999 . S
Cu161 O167 1.974 . S
Cu161 N172 1.985 . S
Cu161 O181 1.959 . S
N162 Cu161 1.999 . S
N162 C164 1.263 . S
N162 C166 1.389 . S
N163 C164 1.358 . S
N163 C165 1.400 . S
C164 N162 1.263 . S
C164 N163 1.358 . S
C164 H170 0.930 . S
C165 N163 1.400 . S
C165 C166 1.351 . S
C165 H182 0.930 . S
C166 N162 1.389 . S
C166 C165 1.351 . S
C166 H171 0.930 . S
O167 Cu161 1.974 . S
O167 C177 1.282 . S
C168 O169 1.261 . S
C168 O181 1.251 . S
O169 C168 1.261 . S
H170 C164 0.930 . S
H171 C166 0.930 . S
N172 Cu161 1.985 . S
N172 C174 1.335 . S
N172 C175 1.390 . S
N173 C174 1.345 . S
N173 C176 1.336 . S
C174 N172 1.335 . S
C174 N173 1.345 . S
C174 H179 0.930 . S
C175 N172 1.390 . S
C175 C176 1.346 . S
C175 H180 0.930 . S
C176 N173 1.336 . S
C176 C175 1.346 . S
C176 H183 0.929 . S
C177 O167 1.282 . S
C177 O178 1.216 . S
O178 C177 1.216 . S
H179 C174 0.930 . S
H180 C175 0.930 . S
O181 Cu161 1.959 . S
O181 C168 1.251 . S
H182 C165 0.930 . S
H183 C176 0.929 . S
Cu184 N185 1.999 . S
Cu184 O190 1.974 . S
Cu184 N195 1.985 . S
Cu184 O204 1.959 . S
N185 Cu184 1.999 . S
N185 C187 1.263 . S
N185 C189 1.389 . S
N186 C187 1.358 . S
N186 C188 1.400 . S
C187 N185 1.263 . S
C187 N186 1.358 . S
C187 H193 0.930 . S
C188 N186 1.400 . S
C188 C189 1.351 . S
C188 H205 0.930 . S
C189 N185 1.389 . S
C189 C188 1.351 . S
C189 H194 0.930 . S
O190 Cu184 1.974 . S
O190 C200 1.282 . S
C191 O192 1.261 . S
C191 O204 1.251 . S
O192 C191 1.261 . S
H193 C187 0.930 . S
H194 C189 0.930 . S
N195 Cu184 1.985 . S
N195 C197 1.335 . S
N195 C198 1.390 . S
N196 C197 1.345 . S
N196 C199 1.336 . S
C197 N195 1.335 . S
C197 N196 1.345 . S
C197 H202 0.930 . S
C198 N195 1.390 . S
C198 C199 1.346 . S
C198 H203 0.930 . S
C199 N196 1.336 . S
C199 C198 1.346 . S
C199 H206 0.929 . S
C200 O190 1.282 . S
C200 O201 1.216 . S
O201 C200 1.216 . S
H202 C197 0.930 . S
H203 C198 0.930 . S
O204 Cu184 1.959 . S
O204 C191 1.251 . S
H205 C188 0.930 . S
H206 C199 0.929 . S
Cu207 N208 1.999 . S
Cu207 O213 1.974 . S
Cu207 N218 1.985 . S
Cu207 O227 1.959 . S
N208 Cu207 1.999 . S
N208 C210 1.263 . S
N208 C212 1.389 . S
N209 C210 1.358 . S
N209 C211 1.400 . S
C210 N208 1.263 . S
C210 N209 1.358 . S
C210 H216 0.930 . S
C211 N209 1.400 . S
C211 C212 1.351 . S
C211 H228 0.930 . S
C212 N208 1.389 . S
C212 C211 1.351 . S
C212 H217 0.930 . S
O213 Cu207 1.974 . S
O213 C223 1.282 . S
C214 O215 1.261 . S
C214 O227 1.251 . S
O215 C214 1.261 . S
H216 C210 0.930 . S
H217 C212 0.930 . S
N218 Cu207 1.985 . S
N218 C220 1.335 . S
N218 C221 1.390 . S
N219 C220 1.345 . S
N219 C222 1.336 . S
C220 N218 1.335 . S
C220 N219 1.345 . S
C220 H225 0.930 . S
C221 N218 1.390 . S
C221 C222 1.346 . S
C221 H226 0.930 . S
C222 N219 1.336 . S
C222 C221 1.346 . S
C222 H229 0.929 . S
C223 O213 1.282 . S
C223 O224 1.216 . S
O224 C223 1.216 . S
H225 C220 0.930 . S
H226 C221 0.930 . S
O227 Cu207 1.959 . S
O227 C214 1.251 . S
H228 C211 0.930 . S
H229 C222 0.929 . S
Cu230 N231 1.999 . S
Cu230 O236 1.974 . S
Cu230 N241 1.985 . S
Cu230 O250 1.959 . S
N231 Cu230 1.999 . S
N231 C233 1.263 . S
N231 C235 1.389 . S
N232 C233 1.358 . S
N232 C234 1.400 . S
C233 N231 1.263 . S
C233 N232 1.358 . S
C233 H239 0.930 . S
C234 N232 1.400 . S
C234 C235 1.351 . S
C234 H251 0.930 . S
C235 N231 1.389 . S
C235 C234 1.351 . S
C235 H240 0.930 . S
O236 Cu230 1.974 . S
O236 C246 1.282 . S
C237 O238 1.261 . S
C237 O250 1.251 . S
O238 C237 1.261 . S
H239 C233 0.930 . S
H240 C235 0.930 . S
N241 Cu230 1.985 . S
N241 C243 1.335 . S
N241 C244 1.390 . S
N242 C243 1.345 . S
N242 C245 1.336 . S
C243 N241 1.335 . S
C243 N242 1.345 . S
C243 H248 0.930 . S
C244 N241 1.390 . S
C244 C245 1.346 . S
C244 H249 0.930 . S
C245 N242 1.336 . S
C245 C244 1.346 . S
C245 H252 0.929 . S
C246 O236 1.282 . S
C246 O247 1.216 . S
O247 C246 1.216 . S
H248 C243 0.930 . S
H249 C244 0.930 . S
O250 Cu230 1.959 . S
O250 C237 1.251 . S
H251 C234 0.930 . S
H252 C245 0.929 . S
Cu253 N254 1.999 . S
Cu253 O259 1.974 . S
Cu253 N264 1.985 . S
Cu253 O273 1.959 . S
N254 Cu253 1.999 . S
N254 C256 1.263 . S
N254 C258 1.389 . S
N255 C256 1.358 . S
N255 C257 1.400 . S
C256 N254 1.263 . S
C256 N255 1.358 . S
C256 H262 0.930 . S
C257 N255 1.400 . S
C257 C258 1.351 . S
C257 H274 0.930 . S
C258 N254 1.389 . S
C258 C257 1.351 . S
C258 H263 0.930 . S
O259 Cu253 1.974 . S
O259 C269 1.282 . S
C260 O261 1.261 . S
C260 O273 1.251 . S
O261 C260 1.261 . S
H262 C256 0.930 . S
H263 C258 0.930 . S
N264 Cu253 1.985 . S
N264 C266 1.335 . S
N264 C267 1.390 . S
N265 C266 1.345 . S
N265 C268 1.336 . S
C266 N264 1.335 . S
C266 N265 1.345 . S
C266 H271 0.930 . S
C267 N264 1.390 . S
C267 C268 1.346 . S
C267 H272 0.930 . S
C268 N265 1.336 . S
C268 C267 1.346 . S
C268 H275 0.929 . S
C269 O259 1.282 . S
C269 O270 1.216 . S
O270 C269 1.216 . S
H271 C266 0.930 . S
H272 C267 0.930 . S
O273 Cu253 1.959 . S
O273 C260 1.251 . S
H274 C257 0.930 . S
H275 C268 0.929 . S
Cu276 N277 1.999 . S
Cu276 O282 1.974 . S
Cu276 N287 1.985 . S
Cu276 O296 1.959 . S
N277 Cu276 1.999 . S
N277 C279 1.263 . S
N277 C281 1.389 . S
N278 C279 1.358 . S
N278 C280 1.400 . S
C279 N277 1.263 . S
C279 N278 1.358 . S
C279 H285 0.930 . S
C280 N278 1.400 . S
C280 C281 1.351 . S
C280 H297 0.930 . S
C281 N277 1.389 . S
C281 C280 1.351 . S
C281 H286 0.930 . S
O282 Cu276 1.974 . S
O282 C292 1.282 . S
C283 O284 1.261 . S
C283 O296 1.251 . S
O284 C283 1.261 . S
H285 C279 0.930 . S
H286 C281 0.930 . S
N287 Cu276 1.985 . S
N287 C289 1.335 . S
N287 C290 1.390 . S
N288 C289 1.345 . S
N288 C291 1.336 . S
C289 N287 1.335 . S
C289 N288 1.345 . S
C289 H294 0.930 . S
C290 N287 1.390 . S
C290 C291 1.346 . S
C290 H295 0.930 . S
C291 N288 1.336 . S
C291 C290 1.346 . S
C291 H298 0.929 . S
C292 O282 1.282 . S
C292 O293 1.216 . S
O293 C292 1.216 . S
H294 C289 0.930 . S
H295 C290 0.930 . S
O296 Cu276 1.959 . S
O296 C283 1.251 . S
H297 C280 0.930 . S
H298 C291 0.929 . S
Cu299 N300 1.999 . S
Cu299 O305 1.974 . S
Cu299 N310 1.985 . S
Cu299 O319 1.959 . S
N300 Cu299 1.999 . S
N300 C302 1.263 . S
N300 C304 1.389 . S
N301 C302 1.358 . S
N301 C303 1.400 . S
C302 N300 1.263 . S
C302 N301 1.358 . S
C302 H308 0.930 . S
C303 N301 1.400 . S
C303 C304 1.351 . S
C303 H320 0.930 . S
C304 N300 1.389 . S
C304 C303 1.351 . S
C304 H309 0.930 . S
O305 Cu299 1.974 . S
O305 C315 1.282 . S
C306 O307 1.261 . S
C306 O319 1.251 . S
O307 C306 1.261 . S
H308 C302 0.930 . S
H309 C304 0.930 . S
N310 Cu299 1.985 . S
N310 C312 1.335 . S
N310 C313 1.390 . S
N311 C312 1.345 . S
N311 C314 1.336 . S
C312 N310 1.335 . S
C312 N311 1.345 . S
C312 H317 0.930 . S
C313 N310 1.390 . S
C313 C314 1.346 . S
C313 H318 0.930 . S
C314 N311 1.336 . S
C314 C313 1.346 . S
C314 H321 0.929 . S
C315 O305 1.282 . S
C315 O316 1.216 . S
O316 C315 1.216 . S
H317 C312 0.930 . S
H318 C313 0.930 . S
O319 Cu299 1.959 . S
O319 C306 1.251 . S
H320 C303 0.930 . S
H321 C314 0.929 . S
Cu322 N323 1.999 . S
Cu322 O328 1.974 . S
Cu322 N333 1.985 . S
Cu322 O342 1.959 . S
N323 Cu322 1.999 . S
N323 C325 1.263 . S
N323 C327 1.389 . S
N324 C325 1.358 . S
N324 C326 1.400 . S
C325 N323 1.263 . S
C325 N324 1.358 . S
C325 H331 0.930 . S
C326 N324 1.400 . S
C326 C327 1.351 . S
C326 H343 0.930 . S
C327 N323 1.389 . S
C327 C326 1.351 . S
C327 H332 0.930 . S
O328 Cu322 1.974 . S
O328 C338 1.282 . S
C329 O330 1.261 . S
C329 O342 1.251 . S
O330 C329 1.261 . S
H331 C325 0.930 . S
H332 C327 0.930 . S
N333 Cu322 1.985 . S
N333 C335 1.335 . S
N333 C336 1.390 . S
N334 C335 1.345 . S
N334 C337 1.336 . S
C335 N333 1.335 . S
C335 N334 1.345 . S
C335 H340 0.930 . S
C336 N333 1.390 . S
C336 C337 1.346 . S
C336 H341 0.930 . S
C337 N334 1.336 . S
C337 C336 1.346 . S
C337 H344 0.929 . S
C338 O328 1.282 . S
C338 O339 1.216 . S
O339 C338 1.216 . S
H340 C335 0.930 . S
H341 C336 0.930 . S
O342 Cu322 1.959 . S
O342 C329 1.251 . S
H343 C326 0.930 . S
H344 C337 0.929 . S
Cu345 N346 1.999 . S
Cu345 O351 1.974 . S
Cu345 N356 1.985 . S
Cu345 O365 1.959 . S
N346 Cu345 1.999 . S
N346 C348 1.263 . S
N346 C350 1.389 . S
N347 C348 1.358 . S
N347 C349 1.400 . S
C348 N346 1.263 . S
C348 N347 1.358 . S
C348 H354 0.930 . S
C349 N347 1.400 . S
C349 C350 1.351 . S
C349 H366 0.930 . S
C350 N346 1.389 . S
C350 C349 1.351 . S
C350 H355 0.930 . S
O351 Cu345 1.974 . S
O351 C361 1.282 . S
C352 O353 1.261 . S
C352 O365 1.251 . S
O353 C352 1.261 . S
H354 C348 0.930 . S
H355 C350 0.930 . S
N356 Cu345 1.985 . S
N356 C358 1.335 . S
N356 C359 1.390 . S
N357 C358 1.345 . S
N357 C360 1.336 . S
C358 N356 1.335 . S
C358 N357 1.345 . S
C358 H363 0.930 . S
C359 N356 1.390 . S
C359 C360 1.346 . S
C359 H364 0.930 . S
C360 N357 1.336 . S
C360 C359 1.346 . S
C360 H367 0.929 . S
C361 O351 1.282 . S
C361 O362 1.216 . S
O362 C361 1.216 . S
H363 C358 0.930 . S
H364 C359 0.930 . S
O365 Cu345 1.959 . S
O365 C352 1.251 . S
H366 C349 0.930 . S
H367 C360 0.929 . S
Cu368 N369 1.999 . S
Cu368 O374 1.974 . S
Cu368 N379 1.985 . S
Cu368 O388 1.959 . S
N369 Cu368 1.999 . S
N369 C371 1.263 . S
N369 C373 1.389 . S
N370 C371 1.358 . S
N370 C372 1.400 . S
C371 N369 1.263 . S
C371 N370 1.358 . S
C371 H377 0.930 . S
C372 N370 1.400 . S
C372 C373 1.351 . S
C372 H389 0.930 . S
C373 N369 1.389 . S
C373 C372 1.351 . S
C373 H378 0.930 . S
O374 Cu368 1.974 . S
O374 C384 1.282 . S
C375 O376 1.261 . S
C375 O388 1.251 . S
O376 C375 1.261 . S
H377 C371 0.930 . S
H378 C373 0.930 . S
N379 Cu368 1.985 . S
N379 C381 1.335 . S
N379 C382 1.390 . S
N380 C381 1.345 . S
N380 C383 1.336 . S
C381 N379 1.335 . S
C381 N380 1.345 . S
C381 H386 0.930 . S
C382 N379 1.390 . S
C382 C383 1.346 . S
C382 H387 0.930 . S
C383 N380 1.336 . S
C383 C382 1.346 . S
C383 H390 0.929 . S
C384 O374 1.282 . S
C384 O385 1.216 . S
O385 C384 1.216 . S
H386 C381 0.930 . S
H387 C382 0.930 . S
O388 Cu368 1.959 . S
O388 C375 1.251 . S
H389 C372 0.930 . S
H390 C383 0.929 . S
Cu391 N392 1.999 . S
Cu391 O397 1.974 . S
Cu391 N402 1.985 . S
Cu391 O411 1.959 . S
N392 Cu391 1.999 . S
N392 C394 1.263 . S
N392 C396 1.389 . S
N393 C394 1.358 . S
N393 C395 1.400 . S
C394 N392 1.263 . S
C394 N393 1.358 . S
C394 H400 0.930 . S
C395 N393 1.400 . S
C395 C396 1.351 . S
C395 H412 0.930 . S
C396 N392 1.389 . S
C396 C395 1.351 . S
C396 H401 0.930 . S
O397 Cu391 1.974 . S
O397 C407 1.282 . S
C398 O399 1.261 . S
C398 O411 1.251 . S
O399 C398 1.261 . S
H400 C394 0.930 . S
H401 C396 0.930 . S
N402 Cu391 1.985 . S
N402 C404 1.335 . S
N402 C405 1.390 . S
N403 C404 1.345 . S
N403 C406 1.336 . S
C404 N402 1.335 . S
C404 N403 1.345 . S
C404 H409 0.930 . S
C405 N402 1.390 . S
C405 C406 1.346 . S
C405 H410 0.930 . S
C406 N403 1.336 . S
C406 C405 1.346 . S
C406 H413 0.929 . S
C407 O397 1.282 . S
C407 O408 1.216 . S
O408 C407 1.216 . S
H409 C404 0.930 . S
H410 C405 0.930 . S
O411 Cu391 1.959 . S
O411 C398 1.251 . S
H412 C395 0.930 . S
H413 C406 0.929 . S
Cu414 N415 1.999 . S
Cu414 O420 1.974 . S
Cu414 N425 1.985 . S
Cu414 O434 1.959 . S
N415 Cu414 1.999 . S
N415 C417 1.263 . S
N415 C419 1.389 . S
N416 C417 1.358 . S
N416 C418 1.400 . S
C417 N415 1.263 . S
C417 N416 1.358 . S
C417 H423 0.930 . S
C418 N416 1.400 . S
C418 C419 1.351 . S
C418 H435 0.930 . S
C419 N415 1.389 . S
C419 C418 1.351 . S
C419 H424 0.930 . S
O420 Cu414 1.974 . S
O420 C430 1.282 . S
C421 O422 1.261 . S
C421 O434 1.251 . S
O422 C421 1.261 . S
H423 C417 0.930 . S
H424 C419 0.930 . S
N425 Cu414 1.985 . S
N425 C427 1.335 . S
N425 C428 1.390 . S
N426 C427 1.345 . S
N426 C429 1.336 . S
C427 N425 1.335 . S
C427 N426 1.345 . S
C427 H432 0.930 . S
C428 N425 1.390 . S
C428 C429 1.346 . S
C428 H433 0.930 . S
C429 N426 1.336 . S
C429 C428 1.346 . S
C429 H436 0.929 . S
C430 O420 1.282 . S
C430 O431 1.216 . S
O431 C430 1.216 . S
H432 C427 0.930 . S
H433 C428 0.930 . S
O434 Cu414 1.959 . S
O434 C421 1.251 . S
H435 C418 0.930 . S
H436 C429 0.929 . S
Cu437 N438 1.999 . S
Cu437 O443 1.974 . S
Cu437 N448 1.985 . S
Cu437 O457 1.959 . S
N438 Cu437 1.999 . S
N438 C440 1.263 . S
N438 C442 1.389 . S
N439 C440 1.358 . S
N439 C441 1.400 . S
C440 N438 1.263 . S
C440 N439 1.358 . S
C440 H446 0.930 . S
C441 N439 1.400 . S
C441 C442 1.351 . S
C441 H458 0.930 . S
C442 N438 1.389 . S
C442 C441 1.351 . S
C442 H447 0.930 . S
O443 Cu437 1.974 . S
O443 C453 1.282 . S
C444 O445 1.261 . S
C444 O457 1.251 . S
O445 C444 1.261 . S
H446 C440 0.930 . S
H447 C442 0.930 . S
N448 Cu437 1.985 . S
N448 C450 1.335 . S
N448 C451 1.390 . S
N449 C450 1.345 . S
N449 C452 1.336 . S
C450 N448 1.335 . S
C450 N449 1.345 . S
C450 H455 0.930 . S
C451 N448 1.390 . S
C451 C452 1.346 . S
C451 H456 0.930 . S
C452 N449 1.336 . S
C452 C451 1.346 . S
C452 H459 0.929 . S
C453 O443 1.282 . S
C453 O454 1.216 . S
O454 C453 1.216 . S
H455 C450 0.930 . S
H456 C451 0.930 . S
O457 Cu437 1.959 . S
O457 C444 1.251 . S
H458 C441 0.930 . S
H459 C452 0.929 . S
Cu460 N461 1.999 . S
Cu460 O466 1.974 . S
Cu460 N471 1.985 . S
Cu460 O480 1.959 . S
N461 Cu460 1.999 . S
N461 C463 1.263 . S
N461 C465 1.389 . S
N462 C463 1.358 . S
N462 C464 1.400 . S
C463 N461 1.263 . S
C463 N462 1.358 . S
C463 H469 0.930 . S
C464 N462 1.400 . S
C464 C465 1.351 . S
C464 H481 0.930 . S
C465 N461 1.389 . S
C465 C464 1.351 . S
C465 H470 0.930 . S
O466 Cu460 1.974 . S
O466 C476 1.282 . S
C467 O468 1.261 . S
C467 O480 1.251 . S
O468 C467 1.261 . S
H469 C463 0.930 . S
H470 C465 0.930 . S
N471 Cu460 1.985 . S
N471 C473 1.335 . S
N471 C474 1.390 . S
N472 C473 1.345 . S
N472 C475 1.336 . S
C473 N471 1.335 . S
C473 N472 1.345 . S
C473 H478 0.930 . S
C474 N471 1.390 . S
C474 C475 1.346 . S
C474 H479 0.930 . S
C475 N472 1.336 . S
C475 C474 1.346 . S
C475 H482 0.929 . S
C476 O466 1.282 . S
C476 O477 1.216 . S
O477 C476 1.216 . S
H478 C473 0.930 . S
H479 C474 0.930 . S
O480 Cu460 1.959 . S
O480 C467 1.251 . S
H481 C464 0.930 . S
H482 C475 0.929 . S
Cu483 N484 1.999 . S
Cu483 O489 1.974 . S
Cu483 N494 1.985 . S
Cu483 O503 1.959 . S
N484 Cu483 1.999 . S
N484 C486 1.263 . S
N484 C488 1.389 . S
N485 C486 1.358 . S
N485 C487 1.400 . S
C486 N484 1.263 . S
C486 N485 1.358 . S
C486 H492 0.930 . S
C487 N485 1.400 . S
C487 C488 1.351 . S
C487 H504 0.930 . S
C488 N484 1.389 . S
C488 C487 1.351 . S
C488 H493 0.930 . S
O489 Cu483 1.974 . S
O489 C499 1.282 . S
C490 O491 1.261 . S
C490 O503 1.251 . S
O491 C490 1.261 . S
H492 C486 0.930 . S
H493 C488 0.930 . S
N494 Cu483 1.985 . S
N494 C496 1.335 . S
N494 C497 1.390 . S
N495 C496 1.345 . S
N495 C498 1.336 . S
C496 N494 1.335 . S
C496 N495 1.345 . S
C496 H501 0.930 . S
C497 N494 1.390 . S
C497 C498 1.346 . S
C497 H502 0.930 . S
C498 N495 1.336 . S
C498 C497 1.346 . S
C498 H505 0.929 . S
C499 O489 1.282 . S
C499 O500 1.216 . S
O500 C499 1.216 . S
H501 C496 0.930 . S
H502 C497 0.930 . S
O503 Cu483 1.959 . S
O503 C490 1.251 . S
H504 C487 0.930 . S
H505 C498 0.929 . S
Cu506 N507 1.999 . S
Cu506 O512 1.974 . S
Cu506 N517 1.985 . S
Cu506 O526 1.959 . S
N507 Cu506 1.999 . S
N507 C509 1.263 . S
N507 C511 1.389 . S
N508 C509 1.358 . S
N508 C510 1.400 . S
C509 N507 1.263 . S
C509 N508 1.358 . S
C509 H515 0.930 . S
C510 N508 1.400 . S
C510 C511 1.351 . S
C510 H527 0.930 . S
C511 N507 1.389 . S
C511 C510 1.351 . S
C511 H516 0.930 . S
O512 Cu506 1.974 . S
O512 C522 1.282 . S
C513 O514 1.261 . S
C513 O526 1.251 . S
O514 C513 1.261 . S
H515 C509 0.930 . S
H516 C511 0.930 . S
N517 Cu506 1.985 . S
N517 C519 1.335 . S
N517 C520 1.390 . S
N518 C519 1.345 . S
N518 C521 1.336 . S
C519 N517 1.335 . S
C519 N518 1.345 . S
C519 H524 0.930 . S
C520 N517 1.390 . S
C520 C521 1.346 . S
C520 H525 0.930 . S
C521 N518 1.336 . S
C521 C520 1.346 . S
C521 H528 0.929 . S
C522 O512 1.282 . S
C522 O523 1.216 . S
O523 C522 1.216 . S
H524 C519 0.930 . S
H525 C520 0.930 . S
O526 Cu506 1.959 . S
O526 C513 1.251 . S
H527 C510 0.930 . S
H528 C521 0.929 . S
Cu529 N530 1.999 . S
Cu529 O535 1.974 . S
Cu529 N540 1.985 . S
Cu529 O549 1.959 . S
N530 Cu529 1.999 . S
N530 C532 1.263 . S
N530 C534 1.389 . S
N531 C532 1.358 . S
N531 C533 1.400 . S
C532 N530 1.263 . S
C532 N531 1.358 . S
C532 H538 0.930 . S
C533 N531 1.400 . S
C533 C534 1.351 . S
C533 H550 0.930 . S
C534 N530 1.389 . S
C534 C533 1.351 . S
C534 H539 0.930 . S
O535 Cu529 1.974 . S
O535 C545 1.282 . S
C536 O537 1.261 . S
C536 O549 1.251 . S
O537 C536 1.261 . S
H538 C532 0.930 . S
H539 C534 0.930 . S
N540 Cu529 1.985 . S
N540 C542 1.335 . S
N540 C543 1.390 . S
N541 C542 1.345 . S
N541 C544 1.336 . S
C542 N540 1.335 . S
C542 N541 1.345 . S
C542 H547 0.930 . S
C543 N540 1.390 . S
C543 C544 1.346 . S
C543 H548 0.930 . S
C544 N541 1.336 . S
C544 C543 1.346 . S
C544 H551 0.929 . S
C545 O535 1.282 . S
C545 O546 1.216 . S
O546 C545 1.216 . S
H547 C542 0.930 . S
H548 C543 0.930 . S
O549 Cu529 1.959 . S
O549 C536 1.251 . S
H550 C533 0.930 . S
H551 C544 0.929 . S
Cu552 N553 1.999 . S
Cu552 O558 1.974 . S
Cu552 N563 1.985 . S
Cu552 O572 1.959 . S
N553 Cu552 1.999 . S
N553 C555 1.263 . S
N553 C557 1.389 . S
N554 C555 1.358 . S
N554 C556 1.400 . S
C555 N553 1.263 . S
C555 N554 1.358 . S
C555 H561 0.930 . S
C556 N554 1.400 . S
C556 C557 1.351 . S
C556 H573 0.930 . S
C557 N553 1.389 . S
C557 C556 1.351 . S
C557 H562 0.930 . S
O558 Cu552 1.974 . S
O558 C568 1.282 . S
C559 O560 1.261 . S
C559 O572 1.251 . S
O560 C559 1.261 . S
H561 C555 0.930 . S
H562 C557 0.930 . S
N563 Cu552 1.985 . S
N563 C565 1.335 . S
N563 C566 1.390 . S
N564 C565 1.345 . S
N564 C567 1.336 . S
C565 N563 1.335 . S
C565 N564 1.345 . S
C565 H570 0.930 . S
C566 N563 1.390 . S
C566 C567 1.346 . S
C566 H571 0.930 . S
C567 N564 1.336 . S
C567 C566 1.346 . S
C567 H574 0.929 . S
C568 O558 1.282 . S
C568 O569 1.216 . S
O569 C568 1.216 . S
H570 C565 0.930 . S
H571 C566 0.930 . S
O572 Cu552 1.959 . S
O572 C559 1.251 . S
H573 C556 0.930 . S
H574 C567 0.929 . S
Cu575 N576 1.999 . S
Cu575 O581 1.974 . S
Cu575 N586 1.985 . S
Cu575 O595 1.959 . S
N576 Cu575 1.999 . S
N576 C578 1.263 . S
N576 C580 1.389 . S
N577 C578 1.358 . S
N577 C579 1.400 . S
C578 N576 1.263 . S
C578 N577 1.358 . S
C578 H584 0.930 . S
C579 N577 1.400 . S
C579 C580 1.351 . S
C579 H596 0.930 . S
C580 N576 1.389 . S
C580 C579 1.351 . S
C580 H585 0.930 . S
O581 Cu575 1.974 . S
O581 C591 1.282 . S
C582 O583 1.261 . S
C582 O595 1.251 . S
O583 C582 1.261 . S
H584 C578 0.930 . S
H585 C580 0.930 . S
N586 Cu575 1.985 . S
N586 C588 1.335 . S
N586 C589 1.390 . S
N587 C588 1.345 . S
N587 C590 1.336 . S
C588 N586 1.335 . S
C588 N587 1.345 . S
C588 H593 0.930 . S
C589 N586 1.390 . S
C589 C590 1.346 . S
C589 H594 0.930 . S
C590 N587 1.336 . S
C590 C589 1.346 . S
C590 H597 0.929 . S
C591 O581 1.282 . S
C591 O592 1.216 . S
O592 C591 1.216 . S
H593 C588 0.930 . S
H594 C589 0.930 . S
O595 Cu575 1.959 . S
O595 C582 1.251 . S
H596 C579 0.930 . S
H597 C590 0.929 . S
Cu598 N599 1.999 . S
Cu598 O604 1.974 . S
Cu598 N609 1.985 . S
Cu598 O618 1.959 . S
N599 Cu598 1.999 . S
N599 C601 1.263 . S
N599 C603 1.389 . S
N600 C601 1.358 . S
N600 C602 1.400 . S
C601 N599 1.263 . S
C601 N600 1.358 . S
C601 H607 0.930 . S
C602 N600 1.400 . S
C602 C603 1.351 . S
C602 H619 0.930 . S
C603 N599 1.389 . S
C603 C602 1.351 . S
C603 H608 0.930 . S
O604 Cu598 1.974 . S
O604 C614 1.282 . S
C605 O606 1.261 . S
C605 O618 1.251 . S
O606 C605 1.261 . S
H607 C601 0.930 . S
H608 C603 0.930 . S
N609 Cu598 1.985 . S
N609 C611 1.335 . S
N609 C612 1.390 . S
N610 C611 1.345 . S
N610 C613 1.336 . S
C611 N609 1.335 . S
C611 N610 1.345 . S
C611 H616 0.930 . S
C612 N609 1.390 . S
C612 C613 1.346 . S
C612 H617 0.930 . S
C613 N610 1.336 . S
C613 C612 1.346 . S
C613 H620 0.929 . S
C614 O604 1.282 . S
C614 O615 1.216 . S
O615 C614 1.216 . S
H616 C611 0.930 . S
H617 C612 0.930 . S
O618 Cu598 1.959 . S
O618 C605 1.251 . S
H619 C602 0.930 . S
H620 C613 0.929 . S
Cu621 N622 1.999 . S
Cu621 O627 1.974 . S
Cu621 N632 1.985 . S
Cu621 O641 1.959 . S
N622 Cu621 1.999 . S
N622 C624 1.263 . S
N622 C626 1.389 . S
N623 C624 1.358 . S
N623 C625 1.400 . S
C624 N622 1.263 . S
C624 N623 1.358 . S
C624 H630 0.930 . S
C625 N623 1.400 . S
C625 C626 1.351 . S
C625 H642 0.930 . S
C626 N622 1.389 . S
C626 C625 1.351 . S
C626 H631 0.930 . S
O627 Cu621 1.974 . S
O627 C637 1.282 . S
C628 O629 1.261 . S
C628 O641 1.251 . S
O629 C628 1.261 . S
H630 C624 0.930 . S
H631 C626 0.930 . S
N632 Cu621 1.985 . S
N632 C634 1.335 . S
N632 C635 1.390 . S
N633 C634 1.345 . S
N633 C636 1.336 . S
C634 N632 1.335 . S
C634 N633 1.345 . S
C634 H639 0.930 . S
C635 N632 1.390 . S
C635 C636 1.346 . S
C635 H640 0.930 . S
C636 N633 1.336 . S
C636 C635 1.346 . S
C636 H643 0.929 . S
C637 O627 1.282 . S
C637 O638 1.216 . S
O638 C637 1.216 . S
H639 C634 0.930 . S
H640 C635 0.930 . S
O641 Cu621 1.959 . S
O641 C628 1.251 . S
H642 C625 0.930 . S
H643 C636 0.929 . S
Cu644 N645 1.999 . S
Cu644 O650 1.974 . S
Cu644 N655 1.985 . S
Cu644 O664 1.959 . S
N645 Cu644 1.999 . S
N645 C647 1.263 . S
N645 C649 1.389 . S
N646 C647 1.358 . S
N646 C648 1.400 . S
C647 N645 1.263 . S
C647 N646 1.358 . S
C647 H653 0.930 . S
C648 N646 1.400 . S
C648 C649 1.351 . S
C648 H665 0.930 . S
C649 N645 1.389 . S
C649 C648 1.351 . S
C649 H654 0.930 . S
O650 Cu644 1.974 . S
O650 C660 1.282 . S
C651 O652 1.261 . S
C651 O664 1.251 . S
O652 C651 1.261 . S
H653 C647 0.930 . S
H654 C649 0.930 . S
N655 Cu644 1.985 . S
N655 C657 1.335 . S
N655 C658 1.390 . S
N656 C657 1.345 . S
N656 C659 1.336 . S
C657 N655 1.335 . S
C657 N656 1.345 . S
C657 H662 0.930 . S
C658 N655 1.390 . S
C658 C659 1.346 . S
C658 H663 0.930 . S
C659 N656 1.336 . S
C659 C658 1.346 . S
C659 H666 0.929 . S
C660 O650 1.282 . S
C660 O661 1.216 . S
O661 C660 1.216 . S
H662 C657 0.930 . S
H663 C658 0.930 . S
O664 Cu644 1.959 . S
O664 C651 1.251 . S
H665 C648 0.930 . S
H666 C659 0.929 . S
Cu667 N668 1.999 . S
Cu667 O673 1.974 . S
Cu667 N678 1.985 . S
Cu667 O687 1.959 . S
N668 Cu667 1.999 . S
N668 C670 1.263 . S
N668 C672 1.389 . S
N669 C670 1.358 . S
N669 C671 1.400 . S
C670 N668 1.263 . S
C670 N669 1.358 . S
C670 H676 0.930 . S
C671 N669 1.400 . S
C671 C672 1.351 . S
C671 H688 0.930 . S
C672 N668 1.389 . S
C672 C671 1.351 . S
C672 H677 0.930 . S
O673 Cu667 1.974 . S
O673 C683 1.282 . S
C674 O675 1.261 . S
C674 O687 1.251 . S
O675 C674 1.261 . S
H676 C670 0.930 . S
H677 C672 0.930 . S
N678 Cu667 1.985 . S
N678 C680 1.335 . S
N678 C681 1.390 . S
N679 C680 1.345 . S
N679 C682 1.336 . S
C680 N678 1.335 . S
C680 N679 1.345 . S
C680 H685 0.930 . S
C681 N678 1.390 . S
C681 C682 1.346 . S
C681 H686 0.930 . S
C682 N679 1.336 . S
C682 C681 1.346 . S
C682 H689 0.929 . S
C683 O673 1.282 . S
C683 O684 1.216 . S
O684 C683 1.216 . S
H685 C680 0.930 . S
H686 C681 0.930 . S
O687 Cu667 1.959 . S
O687 C674 1.251 . S
H688 C671 0.930 . S
H689 C682 0.929 . S
Cu690 N691 1.999 . S
Cu690 O696 1.974 . S
Cu690 N701 1.985 . S
Cu690 O710 1.959 . S
N691 Cu690 1.999 . S
N691 C693 1.263 . S
N691 C695 1.389 . S
N692 C693 1.358 . S
N692 C694 1.400 . S
C693 N691 1.263 . S
C693 N692 1.358 . S
C693 H699 0.930 . S
C694 N692 1.400 . S
C694 C695 1.351 . S
C694 H711 0.930 . S
C695 N691 1.389 . S
C695 C694 1.351 . S
C695 H700 0.930 . S
O696 Cu690 1.974 . S
O696 C706 1.282 . S
C697 O698 1.261 . S
C697 O710 1.251 . S
O698 C697 1.261 . S
H699 C693 0.930 . S
H700 C695 0.930 . S
N701 Cu690 1.985 . S
N701 C703 1.335 . S
N701 C704 1.390 . S
N702 C703 1.345 . S
N702 C705 1.336 . S
C703 N701 1.335 . S
C703 N702 1.345 . S
C703 H708 0.930 . S
C704 N701 1.390 . S
C704 C705 1.346 . S
C704 H709 0.930 . S
C705 N702 1.336 . S
C705 C704 1.346 . S
C705 H712 0.929 . S
C706 O696 1.282 . S
C706 O707 1.216 . S
O707 C706 1.216 . S
H708 C703 0.930 . S
H709 C704 0.930 . S
O710 Cu690 1.959 . S
O710 C697 1.251 . S
H711 C694 0.930 . S
H712 C705 0.929 . S
Cu713 N714 1.999 . S
Cu713 O719 1.974 . S
Cu713 N724 1.985 . S
Cu713 O733 1.959 . S
N714 Cu713 1.999 . S
N714 C716 1.263 . S
N714 C718 1.389 . S
N715 C716 1.358 . S
N715 C717 1.400 . S
C716 N714 1.263 . S
C716 N715 1.358 . S
C716 H722 0.930 . S
C717 N715 1.400 . S
C717 C718 1.351 . S
C717 H734 0.930 . S
C718 N714 1.389 . S
C718 C717 1.351 . S
C718 H723 0.930 . S
O719 Cu713 1.974 . S
O719 C729 1.282 . S
C720 O721 1.261 . S
C720 O733 1.251 . S
O721 C720 1.261 . S
H722 C716 0.930 . S
H723 C718 0.930 . S
N724 Cu713 1.985 . S
N724 C726 1.335 . S
N724 C727 1.390 . S
N725 C726 1.345 . S
N725 C728 1.336 . S
C726 N724 1.335 . S
C726 N725 1.345 . S
C726 H731 0.930 . S
C727 N724 1.390 . S
C727 C728 1.346 . S
C727 H732 0.930 . S
C728 N725 1.336 . S
C728 C727 1.346 . S
C728 H735 0.929 . S
C729 O719 1.282 . S
C729 O730 1.216 . S
O730 C729 1.216 . S
H731 C726 0.930 . S
H732 C727 0.930 . S
O733 Cu713 1.959 . S
O733 C720 1.251 . S
H734 C717 0.930 . S
H735 C728 0.929 . S
C736 C737 1.349 . S
C736 C738 1.327 . S
C736 H761 0.950 . S
C737 C736 1.349 . S
C737 C753 1.349 . S
C738 C736 1.327 . S
C738 C757 1.429 . S
C738 H762 0.950 . S
C739 C756 1.574 . S
C739 C758 1.368 . S
C739 H763 0.949 . S
H740 C744 0.949 . S
C741 C742 1.349 . S
C741 C743 1.327 . S
C741 H764 0.950 . S
C742 C741 1.349 . S
C742 C754 1.349 . S
C743 C741 1.327 . S
C743 C759 1.429 . S
C743 H765 0.950 . S
C744 H740 0.949 . S
C744 C752 1.574 . S
C744 C760 1.368 . S
H745 C753 0.950 . S
H746 C751 0.950 . S
H747 C752 0.949 . S
H748 C754 0.950 . S
H749 C755 0.950 . S
H750 C756 0.949 . S
C751 H746 0.950 . S
C751 C753 1.327 . S
C751 C757 1.429 . S
C752 C744 1.574 . S
C752 H747 0.949 . S
C752 C758 1.368 . S
C753 C737 1.349 . S
C753 H745 0.950 . S
C753 C751 1.327 . S
C754 C742 1.349 . S
C754 H748 0.950 . S
C754 C755 1.327 . S
C755 H749 0.950 . S
C755 C754 1.327 . S
C755 C759 1.429 . S
C756 C739 1.574 . S
C756 H750 0.949 . S
C756 C760 1.368 . S
C757 C738 1.429 . S
C757 C751 1.429 . S
C757 C758 1.523 . S
C758 C739 1.368 . S
C758 C752 1.368 . S
C758 C757 1.523 . S
C759 C743 1.429 . S
C759 C755 1.429 . S
C759 C760 1.523 . S
C760 C744 1.368 . S
C760 C756 1.368 . S
C760 C759 1.523 . S
H761 C736 0.950 . S
H762 C738 0.950 . S
H763 C739 0.949 . S
H764 C741 0.950 . S
H765 C743 0.950 . S
C766 C767 1.349 . S
C766 C768 1.327 . S
C766 H791 0.950 . S
C767 C766 1.349 . S
C767 C783 1.349 . S
C768 C766 1.327 . S
C768 C787 1.429 . S
C768 H792 0.950 . S
C769 C786 1.574 . S
C769 C788 1.368 . S
C769 H793 0.949 . S
H770 C774 0.949 . S
C771 C772 1.349 . S
C771 C773 1.327 . S
C771 H794 0.950 . S
C772 C771 1.349 . S
C772 C784 1.349 . S
C773 C771 1.327 . S
C773 C789 1.429 . S
C773 H795 0.950 . S
C774 H770 0.949 . S
C774 C782 1.574 . S
C774 C790 1.368 . S
H775 C783 0.950 . S
H776 C781 0.950 . S
H777 C782 0.949 . S
H778 C784 0.950 . S
H779 C785 0.950 . S
H780 C786 0.949 . S
C781 H776 0.950 . S
C781 C783 1.327 . S
C781 C787 1.429 . S
C782 C774 1.574 . S
C782 H777 0.949 . S
C782 C788 1.368 . S
C783 C767 1.349 . S
C783 H775 0.950 . S
C783 C781 1.327 . S
C784 C772 1.349 . S
C784 H778 0.950 . S
C784 C785 1.327 . S
C785 H779 0.950 . S
C785 C784 1.327 . S
C785 C789 1.429 . S
C786 C769 1.574 . S
C786 H780 0.949 . S
C786 C790 1.368 . S
C787 C768 1.429 . S
C787 C781 1.429 . S
C787 C788 1.523 . S
C788 C769 1.368 . S
C788 C782 1.368 . S
C788 C787 1.523 . S
C789 C773 1.429 . S
C789 C785 1.429 . S
C789 C790 1.523 . S
C790 C774 1.368 . S
C790 C786 1.368 . S
C790 C789 1.523 . S
H791 C766 0.950 . S
H792 C768 0.950 . S
H793 C769 0.949 . S
H794 C771 0.950 . S
H795 C773 0.950 . S
C796 C797 1.349 . S
C796 C798 1.327 . S
C796 H821 0.950 . S
C797 C796 1.349 . S
C797 C813 1.349 . S
C798 C796 1.327 . S
C798 C817 1.429 . S
C798 H822 0.950 . S
C799 C816 1.574 . S
C799 C818 1.368 . S
C799 H823 0.949 . S
H800 C804 0.949 . S
C801 C802 1.349 . S
C801 C803 1.327 . S
C801 H824 0.950 . S
C802 C801 1.349 . S
C802 C814 1.349 . S
C803 C801 1.327 . S
C803 C819 1.429 . S
C803 H825 0.950 . S
C804 H800 0.949 . S
C804 C812 1.574 . S
C804 C820 1.368 . S
H805 C813 0.950 . S
H806 C811 0.950 . S
H807 C812 0.949 . S
H808 C814 0.950 . S
H809 C815 0.950 . S
H810 C816 0.949 . S
C811 H806 0.950 . S
C811 C813 1.327 . S
C811 C817 1.429 . S
C812 C804 1.574 . S
C812 H807 0.949 . S
C812 C818 1.368 . S
C813 C797 1.349 . S
C813 H805 0.950 . S
C813 C811 1.327 . S
C814 C802 1.349 . S
C814 H808 0.950 . S
C814 C815 1.327 . S
C815 H809 0.950 . S
C815 C814 1.327 . S
C815 C819 1.429 . S
C816 C799 1.574 . S
C816 H810 0.949 . S
C816 C820 1.368 . S
C817 C798 1.429 . S
C817 C811 1.429 . S
C817 C818 1.523 . S
C818 C799 1.368 . S
C818 C812 1.368 . S
C818 C817 1.523 . S
C819 C803 1.429 . S
C819 C815 1.429 . S
C819 C820 1.523 . S
C820 C804 1.368 . S
C820 C816 1.368 . S
C820 C819 1.523 . S
H821 C796 0.950 . S
H822 C798 0.950 . S
H823 C799 0.949 . S
H824 C801 0.950 . S
H825 C803 0.950 . S
C826 C827 1.349 . S
C826 C828 1.327 . S
C826 H851 0.950 . S
C827 C826 1.349 . S
C827 C843 1.349 . S
C828 C826 1.327 . S
C828 C847 1.429 . S
C828 H852 0.950 . S
C829 C846 1.574 . S
C829 C848 1.368 . S
C829 H853 0.949 . S
H830 C834 0.949 . S
C831 C832 1.349 . S
C831 C833 1.327 . S
C831 H854 0.950 . S
C832 C831 1.349 . S
C832 C844 1.349 . S
C833 C831 1.327 . S
C833 C849 1.429 . S
C833 H855 0.950 . S
C834 H830 0.949 . S
C834 C842 1.574 . S
C834 C850 1.368 . S
H835 C843 0.950 . S
H836 C841 0.950 . S
H837 C842 0.949 . S
H838 C844 0.950 . S
H839 C845 0.950 . S
H840 C846 0.949 . S
C841 H836 0.950 . S
C841 C843 1.327 . S
C841 C847 1.429 . S
C842 C834 1.574 . S
C842 H837 0.949 . S
C842 C848 1.368 . S
C843 C827 1.349 . S
C843 H835 0.950 . S
C843 C841 1.327 . S
C844 C832 1.349 . S
C844 H838 0.950 . S
C844 C845 1.327 . S
C845 H839 0.950 . S
C845 C844 1.327 . S
C845 C849 1.429 . S
C846 C829 1.574 . S
C846 H840 0.949 . S
C846 C850 1.368 . S
C847 C828 1.429 . S
C847 C841 1.429 . S
C847 C848 1.523 . S
C848 C829 1.368 . S
C848 C842 1.368 . S
C848 C847 1.523 . S
C849 C833 1.429 . S
C849 C845 1.429 . S
C849 C850 1.523 . S
C850 C834 1.368 . S
C850 C846 1.368 . S
C850 C849 1.523 . S
H851 C826 0.950 . S
H852 C828 0.950 . S
H853 C829 0.949 . S
H854 C831 0.950 . S
H855 C833 0.950 . S
C856 C857 1.349 . S
C856 C858 1.327 . S
C856 H881 0.950 . S
C857 C856 1.349 . S
C857 C873 1.349 . S
C858 C856 1.327 . S
C858 C877 1.429 . S
C858 H882 0.950 . S
C859 C876 1.574 . S
C859 C878 1.368 . S
C859 H883 0.949 . S
H860 C864 0.949 . S
C861 C862 1.349 . S
C861 C863 1.327 . S
C861 H884 0.950 . S
C862 C861 1.349 . S
C862 C874 1.349 . S
C863 C861 1.327 . S
C863 C879 1.429 . S
C863 H885 0.950 . S
C864 H860 0.949 . S
C864 C872 1.574 . S
C864 C880 1.368 . S
H865 C873 0.950 . S
H866 C871 0.950 . S
H867 C872 0.949 . S
H868 C874 0.950 . S
H869 C875 0.950 . S
H870 C876 0.949 . S
C871 H866 0.950 . S
C871 C873 1.327 . S
C871 C877 1.429 . S
C872 C864 1.574 . S
C872 H867 0.949 . S
C872 C878 1.368 . S
C873 C857 1.349 . S
C873 H865 0.950 . S
C873 C871 1.327 . S
C874 C862 1.349 . S
C874 H868 0.950 . S
C874 C875 1.327 . S
C875 H869 0.950 . S
C875 C874 1.327 . S
C875 C879 1.429 . S
C876 C859 1.574 . S
C876 H870 0.949 . S
C876 C880 1.368 . S
C877 C858 1.429 . S
C877 C871 1.429 . S
C877 C878 1.523 . S
C878 C859 1.368 . S
C878 C872 1.368 . S
C878 C877 1.523 . S
C879 C863 1.429 . S
C879 C875 1.429 . S
C879 C880 1.523 . S
C880 C864 1.368 . S
C880 C876 1.368 . S
C880 C879 1.523 . S
H881 C856 0.950 . S
H882 C858 0.950 . S
H883 C859 0.949 . S
H884 C861 0.950 . S
H885 C863 0.950 . S
C886 C887 1.349 . S
C886 C888 1.327 . S
C886 H911 0.950 . S
C887 C886 1.349 . S
C887 C903 1.349 . S
C888 C886 1.327 . S
C888 C907 1.429 . S
C888 H912 0.950 . S
C889 C906 1.574 . S
C889 C908 1.368 . S
C889 H913 0.949 . S
H890 C894 0.949 . S
C891 C892 1.349 . S
C891 C893 1.327 . S
C891 H914 0.950 . S
C892 C891 1.349 . S
C892 C904 1.349 . S
C893 C891 1.327 . S
C893 C909 1.429 . S
C893 H915 0.950 . S
C894 H890 0.949 . S
C894 C902 1.574 . S
C894 C910 1.368 . S
H895 C903 0.950 . S
H896 C901 0.950 . S
H897 C902 0.949 . S
H898 C904 0.950 . S
H899 C905 0.950 . S
H900 C906 0.949 . S
C901 H896 0.950 . S
C901 C903 1.327 . S
C901 C907 1.429 . S
C902 C894 1.574 . S
C902 H897 0.949 . S
C902 C908 1.368 . S
C903 C887 1.349 . S
C903 H895 0.950 . S
C903 C901 1.327 . S
C904 C892 1.349 . S
C904 H898 0.950 . S
C904 C905 1.327 . S
C905 H899 0.950 . S
C905 C904 1.327 . S
C905 C909 1.429 . S
C906 C889 1.574 . S
C906 H900 0.949 . S
C906 C910 1.368 . S
C907 C888 1.429 . S
C907 C901 1.429 . S
C907 C908 1.523 . S
C908 C889 1.368 . S
C908 C902 1.368 . S
C908 C907 1.523 . S
C909 C893 1.429 . S
C909 C905 1.429 . S
C909 C910 1.523 . S
C910 C894 1.368 . S
C910 C906 1.368 . S
C910 C909 1.523 . S
H911 C886 0.950 . S
H912 C888 0.950 . S
H913 C889 0.949 . S
H914 C891 0.950 . S
H915 C893 0.950 . S
C916 C917 1.349 . S
C916 C918 1.327 . S
C916 H941 0.950 . S
C917 C916 1.349 . S
C917 C933 1.349 . S
C918 C916 1.327 . S
C918 C937 1.429 . S
C918 H942 0.950 . S
C919 C936 1.574 . S
C919 C938 1.368 . S
C919 H943 0.949 . S
H920 C924 0.949 . S
C921 C922 1.349 . S
C921 C923 1.327 . S
C921 H944 0.950 . S
C922 C921 1.349 . S
C922 C934 1.349 . S
C923 C921 1.327 . S
C923 C939 1.429 . S
C923 H945 0.950 . S
C924 H920 0.949 . S
C924 C932 1.574 . S
C924 C940 1.368 . S
H925 C933 0.950 . S
H926 C931 0.950 . S
H927 C932 0.949 . S
H928 C934 0.950 . S
H929 C935 0.950 . S
H930 C936 0.949 . S
C931 H926 0.950 . S
C931 C933 1.327 . S
C931 C937 1.429 . S
C932 C924 1.574 . S
C932 H927 0.949 . S
C932 C938 1.368 . S
C933 C917 1.349 . S
C933 H925 0.950 . S
C933 C931 1.327 . S
C934 C922 1.349 . S
C934 H928 0.950 . S
C934 C935 1.327 . S
C935 H929 0.950 . S
C935 C934 1.327 . S
C935 C939 1.429 . S
C936 C919 1.574 . S
C936 H930 0.949 . S
C936 C940 1.368 . S
C937 C918 1.429 . S
C937 C931 1.429 . S
C937 C938 1.523 . S
C938 C919 1.368 . S
C938 C932 1.368 . S
C938 C937 1.523 . S
C939 C923 1.429 . S
C939 C935 1.429 . S
C939 C940 1.523 . S
C940 C924 1.368 . S
C940 C936 1.368 . S
C940 C939 1.523 . S
H941 C916 0.950 . S
H942 C918 0.950 . S
H943 C919 0.949 . S
H944 C921 0.950 . S
H945 C923 0.950 . S
C946 C947 1.349 . S
C946 C948 1.327 . S
C946 H971 0.950 . S
C947 C946 1.349 . S
C947 C963 1.349 . S
C948 C946 1.327 . S
C948 C967 1.429 . S
C948 H972 0.950 . S
C949 C966 1.574 . S
C949 C968 1.368 . S
C949 H973 0.949 . S
H950 C954 0.949 . S
C951 C952 1.349 . S
C951 C953 1.327 . S
C951 H974 0.950 . S
C952 C951 1.349 . S
C952 C964 1.349 . S
C953 C951 1.327 . S
C953 C969 1.429 . S
C953 H975 0.950 . S
C954 H950 0.949 . S
C954 C962 1.574 . S
C954 C970 1.368 . S
H955 C963 0.950 . S
H956 C961 0.950 . S
H957 C962 0.949 . S
H958 C964 0.950 . S
H959 C965 0.950 . S
H960 C966 0.949 . S
C961 H956 0.950 . S
C961 C963 1.327 . S
C961 C967 1.429 . S
C962 C954 1.574 . S
C962 H957 0.949 . S
C962 C968 1.368 . S
C963 C947 1.349 . S
C963 H955 0.950 . S
C963 C961 1.327 . S
C964 C952 1.349 . S
C964 H958 0.950 . S
C964 C965 1.327 . S
C965 H959 0.950 . S
C965 C964 1.327 . S
C965 C969 1.429 . S
C966 C949 1.574 . S
C966 H960 0.949 . S
C966 C970 1.368 . S
C967 C948 1.429 . S
C967 C961 1.429 . S
C967 C968 1.523 . S
C968 C949 1.368 . S
C968 C962 1.368 . S
C968 C967 1.523 . S
C969 C953 1.429 . S
C969 C965 1.429 . S
C969 C970 1.523 . S
C970 C954 1.368 . S
C970 C966 1.368 . S
C970 C969 1.523 . S
H971 C946 0.950 . S
H972 C948 0.950 . S
H973 C949 0.949 . S
H974 C951 0.950 . S
H975 C953 0.950 . S
C976 C977 1.349 . S
C976 C978 1.327 . S
C976 H1001 0.950 . S
C977 C976 1.349 . S
C977 C993 1.349 . S
C978 C976 1.327 . S
C978 C997 1.429 . S
C978 H1002 0.950 . S
C979 C996 1.574 . S
C979 C998 1.368 . S
C979 H1003 0.949 . S
H980 C984 0.949 . S
C981 C982 1.349 . S
C981 C983 1.327 . S
C981 H1004 0.950 . S
C982 C981 1.349 . S
C982 C994 1.349 . S
C983 C981 1.327 . S
C983 C999 1.429 . S
C983 H1005 0.950 . S
C984 H980 0.949 . S
C984 C992 1.574 . S
C984 C1000 1.368 . S
H985 C993 0.950 . S
H986 C991 0.950 . S
H987 C992 0.949 . S
H988 C994 0.950 . S
H989 C995 0.950 . S
H990 C996 0.949 . S
C991 H986 0.950 . S
C991 C993 1.327 . S
C991 C997 1.429 . S
C992 C984 1.574 . S
C992 H987 0.949 . S
C992 C998 1.368 . S
C993 C977 1.349 . S
C993 H985 0.950 . S
C993 C991 1.327 . S
C994 C982 1.349 . S
C994 H988 0.950 . S
C994 C995 1.327 . S
C995 H989 0.950 . S
C995 C994 1.327 . S
C995 C999 1.429 . S
C996 C979 1.574 . S
C996 H990 0.949 . S
C996 C1000 1.368 . S
C997 C978 1.429 . S
C997 C991 1.429 . S
C997 C998 1.523 . S
C998 C979 1.368 . S
C998 C992 1.368 . S
C998 C997 1.523 . S
C999 C983 1.429 . S
C999 C995 1.429 . S
C999 C1000 1.523 . S
C1000 C984 1.368 . S
C1000 C996 1.368 . S
C1000 C999 1.523 . S
H1001 C976 0.950 . S
H1002 C978 0.950 . S
H1003 C979 0.949 . S
H1004 C981 0.950 . S
H1005 C983 0.950 . S
C1006 C1007 1.349 . S
C1006 C1008 1.327 . S
C1006 H1031 0.950 . S
C1007 C1006 1.349 . S
C1007 C1023 1.349 . S
C1008 C1006 1.327 . S
C1008 C1027 1.429 . S
C1008 H1032 0.950 . S
C1009 C1026 1.574 . S
C1009 C1028 1.368 . S
C1009 H1033 0.949 . S
H1010 C1014 0.949 . S
C1011 C1012 1.349 . S
C1011 C1013 1.327 . S
C1011 H1034 0.950 . S
C1012 C1011 1.349 . S
C1012 C1024 1.349 . S
C1013 C1011 1.327 . S
C1013 C1029 1.429 . S
C1013 H1035 0.950 . S
C1014 H1010 0.949 . S
C1014 C1022 1.574 . S
C1014 C1030 1.368 . S
H1015 C1023 0.950 . S
H1016 C1021 0.950 . S
H1017 C1022 0.949 . S
H1018 C1024 0.950 . S
H1019 C1025 0.950 . S
H1020 C1026 0.949 . S
C1021 H1016 0.950 . S
C1021 C1023 1.327 . S
C1021 C1027 1.429 . S
C1022 C1014 1.574 . S
C1022 H1017 0.949 . S
C1022 C1028 1.368 . S
C1023 C1007 1.349 . S
C1023 H1015 0.950 . S
C1023 C1021 1.327 . S
C1024 C1012 1.349 . S
C1024 H1018 0.950 . S
C1024 C1025 1.327 . S
C1025 H1019 0.950 . S
C1025 C1024 1.327 . S
C1025 C1029 1.429 . S
C1026 C1009 1.574 . S
C1026 H1020 0.949 . S
C1026 C1030 1.368 . S
C1027 C1008 1.429 . S
C1027 C1021 1.429 . S
C1027 C1028 1.523 . S
C1028 C1009 1.368 . S
C1028 C1022 1.368 . S
C1028 C1027 1.523 . S
C1029 C1013 1.429 . S
C1029 C1025 1.429 . S
C1029 C1030 1.523 . S
C1030 C1014 1.368 . S
C1030 C1026 1.368 . S
C1030 C1029 1.523 . S
H1031 C1006 0.950 . S
H1032 C1008 0.950 . S
H1033 C1009 0.949 . S
H1034 C1011 0.950 . S
H1035 C1013 0.950 . S
C1036 C1037 1.349 . S
C1036 C1038 1.327 . S
C1036 H1061 0.950 . S
C1037 C1036 1.349 . S
C1037 C1053 1.349 . S
C1038 C1036 1.327 . S
C1038 C1057 1.429 . S
C1038 H1062 0.950 . S
C1039 C1056 1.574 . S
C1039 C1058 1.368 . S
C1039 H1063 0.949 . S
H1040 C1044 0.949 . S
C1041 C1042 1.349 . S
C1041 C1043 1.327 . S
C1041 H1064 0.950 . S
C1042 C1041 1.349 . S
C1042 C1054 1.349 . S
C1043 C1041 1.327 . S
C1043 C1059 1.429 . S
C1043 H1065 0.950 . S
C1044 H1040 0.949 . S
C1044 C1052 1.574 . S
C1044 C1060 1.368 . S
H1045 C1053 0.950 . S
H1046 C1051 0.950 . S
H1047 C1052 0.949 . S
H1048 C1054 0.950 . S
H1049 C1055 0.950 . S
H1050 C1056 0.949 . S
C1051 H1046 0.950 . S
C1051 C1053 1.327 . S
C1051 C1057 1.429 . S
C1052 C1044 1.574 . S
C1052 H1047 0.949 . S
C1052 C1058 1.368 . S
C1053 C1037 1.349 . S
C1053 H1045 0.950 . S
C1053 C1051 1.327 . S
C1054 C1042 1.349 . S
C1054 H1048 0.950 . S
C1054 C1055 1.327 . S
C1055 H1049 0.950 . S
C1055 C1054 1.327 . S
C1055 C1059 1.429 . S
C1056 C1039 1.574 . S
C1056 H1050 0.949 . S
C1056 C1060 1.368 . S
C1057 C1038 1.429 . S
C1057 C1051 1.429 . S
C1057 C1058 1.523 . S
C1058 C1039 1.368 . S
C1058 C1052 1.368 . S
C1058 C1057 1.523 . S
C1059 C1043 1.429 . S
C1059 C1055 1.429 . S
C1059 C1060 1.523 . S
C1060 C1044 1.368 . S
C1060 C1056 1.368 . S
C1060 C1059 1.523 . S
H1061 C1036 0.950 . S
H1062 C1038 0.950 . S
H1063 C1039 0.949 . S
H1064 C1041 0.950 . S
H1065 C1043 0.950 . S
C1066 C1067 1.349 . S
C1066 C1068 1.327 . S
C1066 H1091 0.950 . S
C1067 C1066 1.349 . S
C1067 C1083 1.349 . S
C1068 C1066 1.327 . S
C1068 C1087 1.429 . S
C1068 H1092 0.950 . S
C1069 C1086 1.574 . S
C1069 C1088 1.368 . S
C1069 H1093 0.949 . S
H1070 C1074 0.949 . S
C1071 C1072 1.349 . S
C1071 C1073 1.327 . S
C1071 H1094 0.950 . S
C1072 C1071 1.349 . S
C1072 C1084 1.349 . S
C1073 C1071 1.327 . S
C1073 C1089 1.429 . S
C1073 H1095 0.950 . S
C1074 H1070 0.949 . S
C1074 C1082 1.574 . S
C1074 C1090 1.368 . S
H1075 C1083 0.950 . S
H1076 C1081 0.950 . S
H1077 C1082 0.949 . S
H1078 C1084 0.950 . S
H1079 C1085 0.950 . S
H1080 C1086 0.949 . S
C1081 H1076 0.950 . S
C1081 C1083 1.327 . S
C1081 C1087 1.429 . S
C1082 C1074 1.574 . S
C1082 H1077 0.949 . S
C1082 C1088 1.368 . S
C1083 C1067 1.349 . S
C1083 H1075 0.950 . S
C1083 C1081 1.327 . S
C1084 C1072 1.349 . S
C1084 H1078 0.950 . S
C1084 C1085 1.327 . S
C1085 H1079 0.950 . S
C1085 C1084 1.327 . S
C1085 C1089 1.429 . S
C1086 C1069 1.574 . S
C1086 H1080 0.949 . S
C1086 C1090 1.368 . S
C1087 C1068 1.429 . S
C1087 C1081 1.429 . S
C1087 C1088 1.523 . S
C1088 C1069 1.368 . S
C1088 C1082 1.368 . S
C1088 C1087 1.523 . S
C1089 C1073 1.429 . S
C1089 C1085 1.429 . S
C1089 C1090 1.523 . S
C1090 C1074 1.368 . S
C1090 C1086 1.368 . S
C1090 C1089 1.523 . S
H1091 C1066 0.950 . S
H1092 C1068 0.950 . S
H1093 C1069 0.949 . S
H1094 C1071 0.950 . S
H1095 C1073 0.950 . S
C1096 C1097 1.349 . S
C1096 C1098 1.327 . S
C1096 H1121 0.950 . S
C1097 C1096 1.349 . S
C1097 C1113 1.349 . S
C1098 C1096 1.327 . S
C1098 C1117 1.429 . S
C1098 H1122 0.950 . S
C1099 C1116 1.574 . S
C1099 C1118 1.368 . S
C1099 H1123 0.949 . S
H1100 C1104 0.949 . S
C1101 C1102 1.349 . S
C1101 C1103 1.327 . S
C1101 H1124 0.950 . S
C1102 C1101 1.349 . S
C1102 C1114 1.349 . S
C1103 C1101 1.327 . S
C1103 C1119 1.429 . S
C1103 H1125 0.950 . S
C1104 H1100 0.949 . S
C1104 C1112 1.574 . S
C1104 C1120 1.368 . S
H1105 C1113 0.950 . S
H1106 C1111 0.950 . S
H1107 C1112 0.949 . S
H1108 C1114 0.950 . S
H1109 C1115 0.950 . S
H1110 C1116 0.949 . S
C1111 H1106 0.950 . S
C1111 C1113 1.327 . S
C1111 C1117 1.429 . S
C1112 C1104 1.574 . S
C1112 H1107 0.949 . S
C1112 C1118 1.368 . S
C1113 C1097 1.349 . S
C1113 H1105 0.950 . S
C1113 C1111 1.327 . S
C1114 C1102 1.349 . S
C1114 H1108 0.950 . S
C1114 C1115 1.327 . S
C1115 H1109 0.950 . S
C1115 C1114 1.327 . S
C1115 C1119 1.429 . S
C1116 C1099 1.574 . S
C1116 H1110 0.949 . S
C1116 C1120 1.368 . S
C1117 C1098 1.429 . S
C1117 C1111 1.429 . S
C1117 C1118 1.523 . S
C1118 C1099 1.368 . S
C1118 C1112 1.368 . S
C1118 C1117 1.523 . S
C1119 C1103 1.429 . S
C1119 C1115 1.429 . S
C1119 C1120 1.523 . S
C1120 C1104 1.368 . S
C1120 C1116 1.368 . S
C1120 C1119 1.523 . S
H1121 C1096 0.950 . S
H1122 C1098 0.950 . S
H1123 C1099 0.949 . S
H1124 C1101 0.950 . S
H1125 C1103 0.950 . S
C1126 C1127 1.349 . S
C1126 C1128 1.327 . S
C1126 H1151 0.950 . S
C1127 C1126 1.349 . S
C1127 C1143 1.349 . S
C1128 C1126 1.327 . S
C1128 C1147 1.429 . S
C1128 H1152 0.950 . S
C1129 C1146 1.574 . S
C1129 C1148 1.368 . S
C1129 H1153 0.949 . S
H1130 C1134 0.949 . S
C1131 C1132 1.349 . S
C1131 C1133 1.327 . S
C1131 H1154 0.950 . S
C1132 C1131 1.349 . S
C1132 C1144 1.349 . S
C1133 C1131 1.327 . S
C1133 C1149 1.429 . S
C1133 H1155 0.950 . S
C1134 H1130 0.949 . S
C1134 C1142 1.574 . S
C1134 C1150 1.368 . S
H1135 C1143 0.950 . S
H1136 C1141 0.950 . S
H1137 C1142 0.949 . S
H1138 C1144 0.950 . S
H1139 C1145 0.950 . S
H1140 C1146 0.949 . S
C1141 H1136 0.950 . S
C1141 C1143 1.327 . S
C1141 C1147 1.429 . S
C1142 C1134 1.574 . S
C1142 H1137 0.949 . S
C1142 C1148 1.368 . S
C1143 C1127 1.349 . S
C1143 H1135 0.950 . S
C1143 C1141 1.327 . S
C1144 C1132 1.349 . S
C1144 H1138 0.950 . S
C1144 C1145 1.327 . S
C1145 H1139 0.950 . S
C1145 C1144 1.327 . S
C1145 C1149 1.429 . S
C1146 C1129 1.574 . S
C1146 H1140 0.949 . S
C1146 C1150 1.368 . S
C1147 C1128 1.429 . S
C1147 C1141 1.429 . S
C1147 C1148 1.523 . S
C1148 C1129 1.368 . S
C1148 C1142 1.368 . S
C1148 C1147 1.523 . S
C1149 C1133 1.429 . S
C1149 C1145 1.429 . S
C1149 C1150 1.523 . S
C1150 C1134 1.368 . S
C1150 C1146 1.368 . S
C1150 C1149 1.523 . S
H1151 C1126 0.950 . S
H1152 C1128 0.950 . S
H1153 C1129 0.949 . S
H1154 C1131 0.950 . S
H1155 C1133 0.950 . S
C1156 C1157 1.349 . S
C1156 C1158 1.327 . S
C1156 H1181 0.950 . S
C1157 C1156 1.349 . S
C1157 C1173 1.349 . S
C1158 C1156 1.327 . S
C1158 C1177 1.429 . S
C1158 H1182 0.950 . S
C1159 C1176 1.574 . S
C1159 C1178 1.368 . S
C1159 H1183 0.949 . S
H1160 C1164 0.949 . S
C1161 C1162 1.349 . S
C1161 C1163 1.327 . S
C1161 H1184 0.950 . S
C1162 C1161 1.349 . S
C1162 C1174 1.349 . S
C1163 C1161 1.327 . S
C1163 C1179 1.429 . S
C1163 H1185 0.950 . S
C1164 H1160 0.949 . S
C1164 C1172 1.574 . S
C1164 C1180 1.368 . S
H1165 C1173 0.950 . S
H1166 C1171 0.950 . S
H1167 C1172 0.949 . S
H1168 C1174 0.950 . S
H1169 C1175 0.950 . S
H1170 C1176 0.949 . S
C1171 H1166 0.950 . S
C1171 C1173 1.327 . S
C1171 C1177 1.429 . S
C1172 C1164 1.574 . S
C1172 H1167 0.949 . S
C1172 C1178 1.368 . S
C1173 C1157 1.349 . S
C1173 H1165 0.950 . S
C1173 C1171 1.327 . S
C1174 C1162 1.349 . S
C1174 H1168 0.950 . S
C1174 C1175 1.327 . S
C1175 H1169 0.950 . S
C1175 C1174 1.327 . S
C1175 C1179 1.429 . S
C1176 C1159 1.574 . S
C1176 H1170 0.949 . S
C1176 C1180 1.368 . S
C1177 C1158 1.429 . S
C1177 C1171 1.429 . S
C1177 C1178 1.523 . S
C1178 C1159 1.368 . S
C1178 C1172 1.368 . S
C1178 C1177 1.523 . S
C1179 C1163 1.429 . S
C1179 C1175 1.429 . S
C1179 C1180 1.523 . S
C1180 C1164 1.368 . S
C1180 C1176 1.368 . S
C1180 C1179 1.523 . S
H1181 C1156 0.950 . S
H1182 C1158 0.950 . S
H1183 C1159 0.949 . S
H1184 C1161 0.950 . S
H1185 C1163 0.950 . S
C1186 C1187 1.349 . S
C1186 C1188 1.327 . S
C1186 H1211 0.950 . S
C1187 C1186 1.349 . S
C1187 C1203 1.349 . S
C1188 C1186 1.327 . S
C1188 C1207 1.429 . S
C1188 H1212 0.950 . S
C1189 C1206 1.574 . S
C1189 C1208 1.368 . S
C1189 H1213 0.949 . S
H1190 C1194 0.949 . S
C1191 C1192 1.349 . S
C1191 C1193 1.327 . S
C1191 H1214 0.950 . S
C1192 C1191 1.349 . S
C1192 C1204 1.349 . S
C1193 C1191 1.327 . S
C1193 C1209 1.429 . S
C1193 H1215 0.950 . S
C1194 H1190 0.949 . S
C1194 C1202 1.574 . S
C1194 C1210 1.368 . S
H1195 C1203 0.950 . S
H1196 C1201 0.950 . S
H1197 C1202 0.949 . S
H1198 C1204 0.950 . S
H1199 C1205 0.950 . S
H1200 C1206 0.949 . S
C1201 H1196 0.950 . S
C1201 C1203 1.327 . S
C1201 C1207 1.429 . S
C1202 C1194 1.574 . S
C1202 H1197 0.949 . S
C1202 C1208 1.368 . S
C1203 C1187 1.349 . S
C1203 H1195 0.950 . S
C1203 C1201 1.327 . S
C1204 C1192 1.349 . S
C1204 H1198 0.950 . S
C1204 C1205 1.327 . S
C1205 H1199 0.950 . S
C1205 C1204 1.327 . S
C1205 C1209 1.429 . S
C1206 C1189 1.574 . S
C1206 H1200 0.949 . S
C1206 C1210 1.368 . S
C1207 C1188 1.429 . S
C1207 C1201 1.429 . S
C1207 C1208 1.523 . S
C1208 C1189 1.368 . S
C1208 C1202 1.368 . S
C1208 C1207 1.523 . S
C1209 C1193 1.429 . S
C1209 C1205 1.429 . S
C1209 C1210 1.523 . S
C1210 C1194 1.368 . S
C1210 C1206 1.368 . S
C1210 C1209 1.523 . S
H1211 C1186 0.950 . S
H1212 C1188 0.950 . S
H1213 C1189 0.949 . S
H1214 C1191 0.950 . S
H1215 C1193 0.950 . S
C1216 C1217 1.349 . S
C1216 C1218 1.327 . S
C1216 H1241 0.950 . S
C1217 C1216 1.349 . S
C1217 C1233 1.349 . S
C1218 C1216 1.327 . S
C1218 C1237 1.429 . S
C1218 H1242 0.950 . S
C1219 C1236 1.574 1_655 S
C1219 C1238 1.368 . S
C1219 H1243 0.949 . S
H1220 C1224 0.949 . S
C1221 C1222 1.349 . S
C1221 C1223 1.327 . S
C1221 H1244 0.950 . S
C1222 C1221 1.349 . S
C1222 C1234 1.349 . S
C1223 C1221 1.327 . S
C1223 C1239 1.429 . S
C1223 H1245 0.950 . S
C1224 H1220 0.949 . S
C1224 C1232 1.574 1_455 S
C1224 C1240 1.368 . S
H1225 C1233 0.950 . S
H1226 C1231 0.950 . S
H1227 C1232 0.949 . S
H1228 C1234 0.950 . S
H1229 C1235 0.950 . S
H1230 C1236 0.949 . S
C1231 H1226 0.950 . S
C1231 C1233 1.327 . S
C1231 C1237 1.429 . S
C1232 C1224 1.574 1_655 S
C1232 H1227 0.949 . S
C1232 C1238 1.368 . S
C1233 C1217 1.349 . S
C1233 H1225 0.950 . S
C1233 C1231 1.327 . S
C1234 C1222 1.349 . S
C1234 H1228 0.950 . S
C1234 C1235 1.327 . S
C1235 H1229 0.950 . S
C1235 C1234 1.327 . S
C1235 C1239 1.429 . S
C1236 C1219 1.574 1_455 S
C1236 H1230 0.949 . S
C1236 C1240 1.368 . S
C1237 C1218 1.429 . S
C1237 C1231 1.429 . S
C1237 C1238 1.523 . S
C1238 C1219 1.368 . S
C1238 C1232 1.368 . S
C1238 C1237 1.523 . S
C1239 C1223 1.429 . S
C1239 C1235 1.429 . S
C1239 C1240 1.523 . S
C1240 C1224 1.368 . S
C1240 C1236 1.368 . S
C1240 C1239 1.523 . S
H1241 C1216 0.950 . S
H1242 C1218 0.950 . S
H1243 C1219 0.949 . S
H1244 C1221 0.950 . S
H1245 C1223 0.950 . S
C1246 C1247 1.349 . S
C1246 C1248 1.327 . S
C1246 H1271 0.950 . S
C1247 C1246 1.349 . S
C1247 C1263 1.349 . S
C1248 C1246 1.327 . S
C1248 C1267 1.429 . S
C1248 H1272 0.950 . S
C1249 C1266 1.574 1_545 S
C1249 C1268 1.368 . S
C1249 H1273 0.949 . S
H1250 C1254 0.949 . S
C1251 C1252 1.349 . S
C1251 C1253 1.327 . S
C1251 H1274 0.950 . S
C1252 C1251 1.349 . S
C1252 C1264 1.349 . S
C1253 C1251 1.327 . S
C1253 C1269 1.429 . S
C1253 H1275 0.950 . S
C1254 H1250 0.949 . S
C1254 C1262 1.574 1_565 S
C1254 C1270 1.368 . S
H1255 C1263 0.950 . S
H1256 C1261 0.950 . S
H1257 C1262 0.949 . S
H1258 C1264 0.950 . S
H1259 C1265 0.950 . S
H1260 C1266 0.949 . S
C1261 H1256 0.950 . S
C1261 C1263 1.327 . S
C1261 C1267 1.429 . S
C1262 C1254 1.574 1_545 S
C1262 H1257 0.949 . S
C1262 C1268 1.368 . S
C1263 C1247 1.349 . S
C1263 H1255 0.950 . S
C1263 C1261 1.327 . S
C1264 C1252 1.349 . S
C1264 H1258 0.950 . S
C1264 C1265 1.327 . S
C1265 H1259 0.950 . S
C1265 C1264 1.327 . S
C1265 C1269 1.429 . S
C1266 C1249 1.574 1_565 S
C1266 H1260 0.949 . S
C1266 C1270 1.368 . S
C1267 C1248 1.429 . S
C1267 C1261 1.429 . S
C1267 C1268 1.523 . S
C1268 C1249 1.368 . S
C1268 C1262 1.368 . S
C1268 C1267 1.523 . S
C1269 C1253 1.429 . S
C1269 C1265 1.429 . S
C1269 C1270 1.523 . S
C1270 C1254 1.368 . S
C1270 C1266 1.368 . S
C1270 C1269 1.523 . S
H1271 C1246 0.950 . S
H1272 C1248 0.950 . S
H1273 C1249 0.949 . S
H1274 C1251 0.950 . S
H1275 C1253 0.950 . S
C1276 C1277 1.349 . S
C1276 C1278 1.327 . S
C1276 H1301 0.950 . S
C1277 C1276 1.349 . S
C1277 C1293 1.349 . S
C1278 C1276 1.327 . S
C1278 C1297 1.429 . S
C1278 H1302 0.950 . S
C1279 C1296 1.574 1_455 S
C1279 C1298 1.368 . S
C1279 H1303 0.949 . S
H1280 C1284 0.949 . S
C1281 C1282 1.349 . S
C1281 C1283 1.327 . S
C1281 H1304 0.950 . S
C1282 C1281 1.349 . S
C1282 C1294 1.349 . S
C1283 C1281 1.327 . S
C1283 C1299 1.429 . S
C1283 H1305 0.950 . S
C1284 H1280 0.949 . S
C1284 C1292 1.574 1_655 S
C1284 C1300 1.368 . S
H1285 C1293 0.950 . S
H1286 C1291 0.950 . S
H1287 C1292 0.949 . S
H1288 C1294 0.950 . S
H1289 C1295 0.950 . S
H1290 C1296 0.949 . S
C1291 H1286 0.950 . S
C1291 C1293 1.327 . S
C1291 C1297 1.429 . S
C1292 C1284 1.574 1_455 S
C1292 H1287 0.949 . S
C1292 C1298 1.368 . S
C1293 C1277 1.349 . S
C1293 H1285 0.950 . S
C1293 C1291 1.327 . S
C1294 C1282 1.349 . S
C1294 H1288 0.950 . S
C1294 C1295 1.327 . S
C1295 H1289 0.950 . S
C1295 C1294 1.327 . S
C1295 C1299 1.429 . S
C1296 C1279 1.574 1_655 S
C1296 H1290 0.949 . S
C1296 C1300 1.368 . S
C1297 C1278 1.429 . S
C1297 C1291 1.429 . S
C1297 C1298 1.523 . S
C1298 C1279 1.368 . S
C1298 C1292 1.368 . S
C1298 C1297 1.523 . S
C1299 C1283 1.429 . S
C1299 C1295 1.429 . S
C1299 C1300 1.523 . S
C1300 C1284 1.368 . S
C1300 C1296 1.368 . S
C1300 C1299 1.523 . S
H1301 C1276 0.950 . S
H1302 C1278 0.950 . S
H1303 C1279 0.949 . S
H1304 C1281 0.950 . S
H1305 C1283 0.950 . S
C1306 C1307 1.349 . S
C1306 C1308 1.327 . S
C1306 H1331 0.950 . S
C1307 C1306 1.349 . S
C1307 C1323 1.349 . S
C1308 C1306 1.327 . S
C1308 C1327 1.429 . S
C1308 H1332 0.950 . S
C1309 C1326 1.574 1_565 S
C1309 C1328 1.368 . S
C1309 H1333 0.949 . S
H1310 C1314 0.949 . S
C1311 C1312 1.349 . S
C1311 C1313 1.327 . S
C1311 H1334 0.950 . S
C1312 C1311 1.349 . S
C1312 C1324 1.349 . S
C1313 C1311 1.327 . S
C1313 C1329 1.429 . S
C1313 H1335 0.950 . S
C1314 H1310 0.949 . S
C1314 C1322 1.574 1_545 S
C1314 C1330 1.368 . S
H1315 C1323 0.950 . S
H1316 C1321 0.950 . S
H1317 C1322 0.949 . S
H1318 C1324 0.950 . S
H1319 C1325 0.950 . S
H1320 C1326 0.949 . S
C1321 H1316 0.950 . S
C1321 C1323 1.327 . S
C1321 C1327 1.429 . S
C1322 C1314 1.574 1_565 S
C1322 H1317 0.949 . S
C1322 C1328 1.368 . S
C1323 C1307 1.349 . S
C1323 H1315 0.950 . S
C1323 C1321 1.327 . S
C1324 C1312 1.349 . S
C1324 H1318 0.950 . S
C1324 C1325 1.327 . S
C1325 H1319 0.950 . S
C1325 C1324 1.327 . S
C1325 C1329 1.429 . S
C1326 C1309 1.574 1_545 S
C1326 H1320 0.949 . S
C1326 C1330 1.368 . S
C1327 C1308 1.429 . S
C1327 C1321 1.429 . S
C1327 C1328 1.523 . S
C1328 C1309 1.368 . S
C1328 C1322 1.368 . S
C1328 C1327 1.523 . S
C1329 C1313 1.429 . S
C1329 C1325 1.429 . S
C1329 C1330 1.523 . S
C1330 C1314 1.368 . S
C1330 C1326 1.368 . S
C1330 C1329 1.523 . S
H1331 C1306 0.950 . S
H1332 C1308 0.950 . S
H1333 C1309 0.949 . S
H1334 C1311 0.950 . S
H1335 C1313 0.950 . S
C1336 C1337 1.349 . S
C1336 C1338 1.327 . S
C1336 H1361 0.950 . S
C1337 C1336 1.349 . S
C1337 C1353 1.349 . S
C1338 C1336 1.327 . S
C1338 C1357 1.429 . S
C1338 H1362 0.950 . S
C1339 C1356 1.574 1_455 S
C1339 C1358 1.368 . S
C1339 H1363 0.949 . S
H1340 C1344 0.949 . S
C1341 C1342 1.349 . S
C1341 C1343 1.327 . S
C1341 H1364 0.950 . S
C1342 C1341 1.349 . S
C1342 C1354 1.349 . S
C1343 C1341 1.327 . S
C1343 C1359 1.429 . S
C1343 H1365 0.950 . S
C1344 H1340 0.949 . S
C1344 C1352 1.574 1_655 S
C1344 C1360 1.368 . S
H1345 C1353 0.950 . S
H1346 C1351 0.950 . S
H1347 C1352 0.949 . S
H1348 C1354 0.950 . S
H1349 C1355 0.950 . S
H1350 C1356 0.949 . S
C1351 H1346 0.950 . S
C1351 C1353 1.327 . S
C1351 C1357 1.429 . S
C1352 C1344 1.574 1_455 S
C1352 H1347 0.949 . S
C1352 C1358 1.368 . S
C1353 C1337 1.349 . S
C1353 H1345 0.950 . S
C1353 C1351 1.327 . S
C1354 C1342 1.349 . S
C1354 H1348 0.950 . S
C1354 C1355 1.327 . S
C1355 H1349 0.950 . S
C1355 C1354 1.327 . S
C1355 C1359 1.429 . S
C1356 C1339 1.574 1_655 S
C1356 H1350 0.949 . S
C1356 C1360 1.368 . S
C1357 C1338 1.429 . S
C1357 C1351 1.429 . S
C1357 C1358 1.523 . S
C1358 C1339 1.368 . S
C1358 C1352 1.368 . S
C1358 C1357 1.523 . S
C1359 C1343 1.429 . S
C1359 C1355 1.429 . S
C1359 C1360 1.523 . S
C1360 C1344 1.368 . S
C1360 C1356 1.368 . S
C1360 C1359 1.523 . S
H1361 C1336 0.950 . S
H1362 C1338 0.950 . S
H1363 C1339 0.949 . S
H1364 C1341 0.950 . S
H1365 C1343 0.950 . S
C1366 C1367 1.349 . S
C1366 C1368 1.327 . S
C1366 H1391 0.950 . S
C1367 C1366 1.349 . S
C1367 C1383 1.349 . S
C1368 C1366 1.327 . S
C1368 C1387 1.429 . S
C1368 H1392 0.950 . S
C1369 C1386 1.574 1_565 S
C1369 C1388 1.368 . S
C1369 H1393 0.949 . S
H1370 C1374 0.949 . S
C1371 C1372 1.349 . S
C1371 C1373 1.327 . S
C1371 H1394 0.950 . S
C1372 C1371 1.349 . S
C1372 C1384 1.349 . S
C1373 C1371 1.327 . S
C1373 C1389 1.429 . S
C1373 H1395 0.950 . S
C1374 H1370 0.949 . S
C1374 C1382 1.574 1_545 S
C1374 C1390 1.368 . S
H1375 C1383 0.950 . S
H1376 C1381 0.950 . S
H1377 C1382 0.949 . S
H1378 C1384 0.950 . S
H1379 C1385 0.950 . S
H1380 C1386 0.949 . S
C1381 H1376 0.950 . S
C1381 C1383 1.327 . S
C1381 C1387 1.429 . S
C1382 C1374 1.574 1_565 S
C1382 H1377 0.949 . S
C1382 C1388 1.368 . S
C1383 C1367 1.349 . S
C1383 H1375 0.950 . S
C1383 C1381 1.327 . S
C1384 C1372 1.349 . S
C1384 H1378 0.950 . S
C1384 C1385 1.327 . S
C1385 H1379 0.950 . S
C1385 C1384 1.327 . S
C1385 C1389 1.429 . S
C1386 C1369 1.574 1_545 S
C1386 H1380 0.949 . S
C1386 C1390 1.368 . S
C1387 C1368 1.429 . S
C1387 C1381 1.429 . S
C1387 C1388 1.523 . S
C1388 C1369 1.368 . S
C1388 C1382 1.368 . S
C1388 C1387 1.523 . S
C1389 C1373 1.429 . S
C1389 C1385 1.429 . S
C1389 C1390 1.523 . S
C1390 C1374 1.368 . S
C1390 C1386 1.368 . S
C1390 C1389 1.523 . S
H1391 C1366 0.950 . S
H1392 C1368 0.950 . S
H1393 C1369 0.949 . S
H1394 C1371 0.950 . S
H1395 C1373 0.950 . S
C1396 C1397 1.349 . S
C1396 C1398 1.327 . S
C1396 H1421 0.950 . S
C1397 C1396 1.349 . S
C1397 C1413 1.349 . S
C1398 C1396 1.327 . S
C1398 C1417 1.429 . S
C1398 H1422 0.950 . S
C1399 C1416 1.574 1_455 S
C1399 C1418 1.368 . S
C1399 H1423 0.949 . S
H1400 C1404 0.949 . S
C1401 C1402 1.349 . S
C1401 C1403 1.327 . S
C1401 H1424 0.950 . S
C1402 C1401 1.349 . S
C1402 C1414 1.349 . S
C1403 C1401 1.327 . S
C1403 C1419 1.429 . S
C1403 H1425 0.950 . S
C1404 H1400 0.949 . S
C1404 C1412 1.574 1_655 S
C1404 C1420 1.368 . S
H1405 C1413 0.950 . S
H1406 C1411 0.950 . S
H1407 C1412 0.949 . S
H1408 C1414 0.950 . S
H1409 C1415 0.950 . S
H1410 C1416 0.949 . S
C1411 H1406 0.950 . S
C1411 C1413 1.327 . S
C1411 C1417 1.429 . S
C1412 C1404 1.574 1_455 S
C1412 H1407 0.949 . S
C1412 C1418 1.368 . S
C1413 C1397 1.349 . S
C1413 H1405 0.950 . S
C1413 C1411 1.327 . S
C1414 C1402 1.349 . S
C1414 H1408 0.950 . S
C1414 C1415 1.327 . S
C1415 H1409 0.950 . S
C1415 C1414 1.327 . S
C1415 C1419 1.429 . S
C1416 C1399 1.574 1_655 S
C1416 H1410 0.949 . S
C1416 C1420 1.368 . S
C1417 C1398 1.429 . S
C1417 C1411 1.429 . S
C1417 C1418 1.523 . S
C1418 C1399 1.368 . S
C1418 C1412 1.368 . S
C1418 C1417 1.523 . S
C1419 C1403 1.429 . S
C1419 C1415 1.429 . S
C1419 C1420 1.523 . S
C1420 C1404 1.368 . S
C1420 C1416 1.368 . S
C1420 C1419 1.523 . S
H1421 C1396 0.950 . S
H1422 C1398 0.950 . S
H1423 C1399 0.949 . S
H1424 C1401 0.950 . S
H1425 C1403 0.950 . S
C1426 C1427 1.349 . S
C1426 C1428 1.327 . S
C1426 H1451 0.950 . S
C1427 C1426 1.349 . S
C1427 C1443 1.349 . S
C1428 C1426 1.327 . S
C1428 C1447 1.429 . S
C1428 H1452 0.950 . S
C1429 C1446 1.574 1_545 S
C1429 C1448 1.368 . S
C1429 H1453 0.949 . S
H1430 C1434 0.949 . S
C1431 C1432 1.349 . S
C1431 C1433 1.327 . S
C1431 H1454 0.950 . S
C1432 C1431 1.349 . S
C1432 C1444 1.349 . S
C1433 C1431 1.327 . S
C1433 C1449 1.429 . S
C1433 H1455 0.950 . S
C1434 H1430 0.949 . S
C1434 C1442 1.574 1_565 S
C1434 C1450 1.368 . S
H1435 C1443 0.950 . S
H1436 C1441 0.950 . S
H1437 C1442 0.949 . S
H1438 C1444 0.950 . S
H1439 C1445 0.950 . S
H1440 C1446 0.949 . S
C1441 H1436 0.950 . S
C1441 C1443 1.327 . S
C1441 C1447 1.429 . S
C1442 C1434 1.574 1_545 S
C1442 H1437 0.949 . S
C1442 C1448 1.368 . S
C1443 C1427 1.349 . S
C1443 H1435 0.950 . S
C1443 C1441 1.327 . S
C1444 C1432 1.349 . S
C1444 H1438 0.950 . S
C1444 C1445 1.327 . S
C1445 H1439 0.950 . S
C1445 C1444 1.327 . S
C1445 C1449 1.429 . S
C1446 C1429 1.574 1_565 S
C1446 H1440 0.949 . S
C1446 C1450 1.368 . S
C1447 C1428 1.429 . S
C1447 C1441 1.429 . S
C1447 C1448 1.523 . S
C1448 C1429 1.368 . S
C1448 C1442 1.368 . S
C1448 C1447 1.523 . S
C1449 C1433 1.429 . S
C1449 C1445 1.429 . S
C1449 C1450 1.523 . S
C1450 C1434 1.368 . S
C1450 C1446 1.368 . S
C1450 C1449 1.523 . S
H1451 C1426 0.950 . S
H1452 C1428 0.950 . S
H1453 C1429 0.949 . S
H1454 C1431 0.950 . S
H1455 C1433 0.950 . S
C1456 C1457 1.349 . S
C1456 C1458 1.327 . S
C1456 H1481 0.950 . S
C1457 C1456 1.349 . S
C1457 C1473 1.349 . S
C1458 C1456 1.327 . S
C1458 C1477 1.429 . S
C1458 H1482 0.950 . S
C1459 C1476 1.574 . S
C1459 C1478 1.368 . S
C1459 H1483 0.949 . S
H1460 C1464 0.949 . S
C1461 C1462 1.349 . S
C1461 C1463 1.327 . S
C1461 H1484 0.950 . S
C1462 C1461 1.349 . S
C1462 C1474 1.349 . S
C1463 C1461 1.327 . S
C1463 C1479 1.429 . S
C1463 H1485 0.950 . S
C1464 H1460 0.949 . S
C1464 C1472 1.574 . S
C1464 C1480 1.368 . S
H1465 C1473 0.950 . S
H1466 C1471 0.950 . S
H1467 C1472 0.949 . S
H1468 C1474 0.950 . S
H1469 C1475 0.950 . S
H1470 C1476 0.949 . S
C1471 H1466 0.950 . S
C1471 C1473 1.327 . S
C1471 C1477 1.429 . S
C1472 C1464 1.574 . S
C1472 H1467 0.949 . S
C1472 C1478 1.368 . S
C1473 C1457 1.349 . S
C1473 H1465 0.950 . S
C1473 C1471 1.327 . S
C1474 C1462 1.349 . S
C1474 H1468 0.950 . S
C1474 C1475 1.327 . S
C1475 H1469 0.950 . S
C1475 C1474 1.327 . S
C1475 C1479 1.429 . S
C1476 C1459 1.574 . S
C1476 H1470 0.949 . S
C1476 C1480 1.368 . S
C1477 C1458 1.429 . S
C1477 C1471 1.429 . S
C1477 C1478 1.523 . S
C1478 C1459 1.368 . S
C1478 C1472 1.368 . S
C1478 C1477 1.523 . S
C1479 C1463 1.429 . S
C1479 C1475 1.429 . S
C1479 C1480 1.523 . S
C1480 C1464 1.368 . S
C1480 C1476 1.368 . S
C1480 C1479 1.523 . S
H1481 C1456 0.950 . S
H1482 C1458 0.950 . S
H1483 C1459 0.949 . S
H1484 C1461 0.950 . S
H1485 C1463 0.950 . S
C1486 C1487 1.349 . S
C1486 C1488 1.327 . S
C1486 H1511 0.950 . S
C1487 C1486 1.349 . S
C1487 C1503 1.349 . S
C1488 C1486 1.327 . S
C1488 C1507 1.429 . S
C1488 H1512 0.950 . S
C1489 C1506 1.574 . S
C1489 C1508 1.368 . S
C1489 H1513 0.949 . S
H1490 C1494 0.949 . S
C1491 C1492 1.349 . S
C1491 C1493 1.327 . S
C1491 H1514 0.950 . S
C1492 C1491 1.349 . S
C1492 C1504 1.349 . S
C1493 C1491 1.327 . S
C1493 C1509 1.429 . S
C1493 H1515 0.950 . S
C1494 H1490 0.949 . S
C1494 C1502 1.574 . S
C1494 C1510 1.368 . S
H1495 C1503 0.950 . S
H1496 C1501 0.950 . S
H1497 C1502 0.949 . S
H1498 C1504 0.950 . S
H1499 C1505 0.950 . S
H1500 C1506 0.949 . S
C1501 H1496 0.950 . S
C1501 C1503 1.327 . S
C1501 C1507 1.429 . S
C1502 C1494 1.574 . S
C1502 H1497 0.949 . S
C1502 C1508 1.368 . S
C1503 C1487 1.349 . S
C1503 H1495 0.950 . S
C1503 C1501 1.327 . S
C1504 C1492 1.349 . S
C1504 H1498 0.950 . S
C1504 C1505 1.327 . S
C1505 H1499 0.950 . S
C1505 C1504 1.327 . S
C1505 C1509 1.429 . S
C1506 C1489 1.574 . S
C1506 H1500 0.949 . S
C1506 C1510 1.368 . S
C1507 C1488 1.429 . S
C1507 C1501 1.429 . S
C1507 C1508 1.523 . S
C1508 C1489 1.368 . S
C1508 C1502 1.368 . S
C1508 C1507 1.523 . S
C1509 C1493 1.429 . S
C1509 C1505 1.429 . S
C1509 C1510 1.523 . S
C1510 C1494 1.368 . S
C1510 C1506 1.368 . S
C1510 C1509 1.523 . S
H1511 C1486 0.950 . S
H1512 C1488 0.950 . S
H1513 C1489 0.949 . S
H1514 C1491 0.950 . S
H1515 C1493 0.950 . S
C1516 C1517 1.349 . S
C1516 C1518 1.327 . S
C1516 H1541 0.950 . S
C1517 C1516 1.349 . S
C1517 C1533 1.349 . S
C1518 C1516 1.327 . S
C1518 C1537 1.429 . S
C1518 H1542 0.950 . S
C1519 C1536 1.574 . S
C1519 C1538 1.368 . S
C1519 H1543 0.949 . S
H1520 C1524 0.949 . S
C1521 C1522 1.349 . S
C1521 C1523 1.327 . S
C1521 H1544 0.950 . S
C1522 C1521 1.349 . S
C1522 C1534 1.349 . S
C1523 C1521 1.327 . S
C1523 C1539 1.429 . S
C1523 H1545 0.950 . S
C1524 H1520 0.949 . S
C1524 C1532 1.574 . S
C1524 C1540 1.368 . S
H1525 C1533 0.950 . S
H1526 C1531 0.950 . S
H1527 C1532 0.949 . S
H1528 C1534 0.950 . S
H1529 C1535 0.950 . S
H1530 C1536 0.949 . S
C1531 H1526 0.950 . S
C1531 C1533 1.327 . S
C1531 C1537 1.429 . S
C1532 C1524 1.574 . S
C1532 H1527 0.949 . S
C1532 C1538 1.368 . S
C1533 C1517 1.349 . S
C1533 H1525 0.950 . S
C1533 C1531 1.327 . S
C1534 C1522 1.349 . S
C1534 H1528 0.950 . S
C1534 C1535 1.327 . S
C1535 H1529 0.950 . S
C1535 C1534 1.327 . S
C1535 C1539 1.429 . S
C1536 C1519 1.574 . S
C1536 H1530 0.949 . S
C1536 C1540 1.368 . S
C1537 C1518 1.429 . S
C1537 C1531 1.429 . S
C1537 C1538 1.523 . S
C1538 C1519 1.368 . S
C1538 C1532 1.368 . S
C1538 C1537 1.523 . S
C1539 C1523 1.429 . S
C1539 C1535 1.429 . S
C1539 C1540 1.523 . S
C1540 C1524 1.368 . S
C1540 C1536 1.368 . S
C1540 C1539 1.523 . S
H1541 C1516 0.950 . S
H1542 C1518 0.950 . S
H1543 C1519 0.949 . S
H1544 C1521 0.950 . S
H1545 C1523 0.950 . S
C1546 C1547 1.349 . S
C1546 C1548 1.327 . S
C1546 H1571 0.950 . S
C1547 C1546 1.349 . S
C1547 C1563 1.349 . S
C1548 C1546 1.327 . S
C1548 C1567 1.429 . S
C1548 H1572 0.950 . S
C1549 C1566 1.574 . S
C1549 C1568 1.368 . S
C1549 H1573 0.949 . S
H1550 C1554 0.949 . S
C1551 C1552 1.349 . S
C1551 C1553 1.327 . S
C1551 H1574 0.950 . S
C1552 C1551 1.349 . S
C1552 C1564 1.349 . S
C1553 C1551 1.327 . S
C1553 C1569 1.429 . S
C1553 H1575 0.950 . S
C1554 H1550 0.949 . S
C1554 C1562 1.574 . S
C1554 C1570 1.368 . S
H1555 C1563 0.950 . S
H1556 C1561 0.950 . S
H1557 C1562 0.949 . S
H1558 C1564 0.950 . S
H1559 C1565 0.950 . S
H1560 C1566 0.949 . S
C1561 H1556 0.950 . S
C1561 C1563 1.327 . S
C1561 C1567 1.429 . S
C1562 C1554 1.574 . S
C1562 H1557 0.949 . S
C1562 C1568 1.368 . S
C1563 C1547 1.349 . S
C1563 H1555 0.950 . S
C1563 C1561 1.327 . S
C1564 C1552 1.349 . S
C1564 H1558 0.950 . S
C1564 C1565 1.327 . S
C1565 H1559 0.950 . S
C1565 C1564 1.327 . S
C1565 C1569 1.429 . S
C1566 C1549 1.574 . S
C1566 H1560 0.949 . S
C1566 C1570 1.368 . S
C1567 C1548 1.429 . S
C1567 C1561 1.429 . S
C1567 C1568 1.523 . S
C1568 C1549 1.368 . S
C1568 C1562 1.368 . S
C1568 C1567 1.523 . S
C1569 C1553 1.429 . S
C1569 C1565 1.429 . S
C1569 C1570 1.523 . S
C1570 C1554 1.368 . S
C1570 C1566 1.368 . S
C1570 C1569 1.523 . S
H1571 C1546 0.950 . S
H1572 C1548 0.950 . S
H1573 C1549 0.949 . S
H1574 C1551 0.950 . S
H1575 C1553 0.950 . S
C1576 C1577 1.349 . S
C1576 C1578 1.327 . S
C1576 H1601 0.950 . S
C1577 C1576 1.349 . S
C1577 C1593 1.349 . S
C1578 C1576 1.327 . S
C1578 C1597 1.429 . S
C1578 H1602 0.950 . S
C1579 C1596 1.574 . S
C1579 C1598 1.368 . S
C1579 H1603 0.949 . S
H1580 C1584 0.949 . S
C1581 C1582 1.349 . S
C1581 C1583 1.327 . S
C1581 H1604 0.950 . S
C1582 C1581 1.349 . S
C1582 C1594 1.349 . S
C1583 C1581 1.327 . S
C1583 C1599 1.429 . S
C1583 H1605 0.950 . S
C1584 H1580 0.949 . S
C1584 C1592 1.574 . S
C1584 C1600 1.368 . S
H1585 C1593 0.950 . S
H1586 C1591 0.950 . S
H1587 C1592 0.949 . S
H1588 C1594 0.950 . S
H1589 C1595 0.950 . S
H1590 C1596 0.949 . S
C1591 H1586 0.950 . S
C1591 C1593 1.327 . S
C1591 C1597 1.429 . S
C1592 C1584 1.574 . S
C1592 H1587 0.949 . S
C1592 C1598 1.368 . S
C1593 C1577 1.349 . S
C1593 H1585 0.950 . S
C1593 C1591 1.327 . S
C1594 C1582 1.349 . S
C1594 H1588 0.950 . S
C1594 C1595 1.327 . S
C1595 H1589 0.950 . S
C1595 C1594 1.327 . S
C1595 C1599 1.429 . S
C1596 C1579 1.574 . S
C1596 H1590 0.949 . S
C1596 C1600 1.368 . S
C1597 C1578 1.429 . S
C1597 C1591 1.429 . S
C1597 C1598 1.523 . S
C1598 C1579 1.368 . S
C1598 C1592 1.368 . S
C1598 C1597 1.523 . S
C1599 C1583 1.429 . S
C1599 C1595 1.429 . S
C1599 C1600 1.523 . S
C1600 C1584 1.368 . S
C1600 C1596 1.368 . S
C1600 C1599 1.523 . S
H1601 C1576 0.950 . S
H1602 C1578 0.950 . S
H1603 C1579 0.949 . S
H1604 C1581 0.950 . S
H1605 C1583 0.950 . S
C1606 C1607 1.349 . S
C1606 C1608 1.327 . S
C1606 H1631 0.950 . S
C1607 C1606 1.349 . S
C1607 C1623 1.349 . S
C1608 C1606 1.327 . S
C1608 C1627 1.429 . S
C1608 H1632 0.950 . S
C1609 C1626 1.574 . S
C1609 C1628 1.368 . S
C1609 H1633 0.949 . S
H1610 C1614 0.949 . S
C1611 C1612 1.349 . S
C1611 C1613 1.327 . S
C1611 H1634 0.950 . S
C1612 C1611 1.349 . S
C1612 C1624 1.349 . S
C1613 C1611 1.327 . S
C1613 C1629 1.429 . S
C1613 H1635 0.950 . S
C1614 H1610 0.949 . S
C1614 C1622 1.574 . S
C1614 C1630 1.368 . S
H1615 C1623 0.950 . S
H1616 C1621 0.950 . S
H1617 C1622 0.949 . S
H1618 C1624 0.950 . S
H1619 C1625 0.950 . S
H1620 C1626 0.949 . S
C1621 H1616 0.950 . S
C1621 C1623 1.327 . S
C1621 C1627 1.429 . S
C1622 C1614 1.574 . S
C1622 H1617 0.949 . S
C1622 C1628 1.368 . S
C1623 C1607 1.349 . S
C1623 H1615 0.950 . S
C1623 C1621 1.327 . S
C1624 C1612 1.349 . S
C1624 H1618 0.950 . S
C1624 C1625 1.327 . S
C1625 H1619 0.950 . S
C1625 C1624 1.327 . S
C1625 C1629 1.429 . S
C1626 C1609 1.574 . S
C1626 H1620 0.949 . S
C1626 C1630 1.368 . S
C1627 C1608 1.429 . S
C1627 C1621 1.429 . S
C1627 C1628 1.523 . S
C1628 C1609 1.368 . S
C1628 C1622 1.368 . S
C1628 C1627 1.523 . S
C1629 C1613 1.429 . S
C1629 C1625 1.429 . S
C1629 C1630 1.523 . S
C1630 C1614 1.368 . S
C1630 C1626 1.368 . S
C1630 C1629 1.523 . S
H1631 C1606 0.950 . S
H1632 C1608 0.950 . S
H1633 C1609 0.949 . S
H1634 C1611 0.950 . S
H1635 C1613 0.950 . S
C1636 C1637 1.349 . S
C1636 C1638 1.327 . S
C1636 H1661 0.950 . S
C1637 C1636 1.349 . S
C1637 C1653 1.349 . S
C1638 C1636 1.327 . S
C1638 C1657 1.429 . S
C1638 H1662 0.950 . S
C1639 C1656 1.574 . S
C1639 C1658 1.368 . S
C1639 H1663 0.949 . S
H1640 C1644 0.949 . S
C1641 C1642 1.349 . S
C1641 C1643 1.327 . S
C1641 H1664 0.950 . S
C1642 C1641 1.349 . S
C1642 C1654 1.349 . S
C1643 C1641 1.327 . S
C1643 C1659 1.429 . S
C1643 H1665 0.950 . S
C1644 H1640 0.949 . S
C1644 C1652 1.574 . S
C1644 C1660 1.368 . S
H1645 C1653 0.950 . S
H1646 C1651 0.950 . S
H1647 C1652 0.949 . S
H1648 C1654 0.950 . S
H1649 C1655 0.950 . S
H1650 C1656 0.949 . S
C1651 H1646 0.950 . S
C1651 C1653 1.327 . S
C1651 C1657 1.429 . S
C1652 C1644 1.574 . S
C1652 H1647 0.949 . S
C1652 C1658 1.368 . S
C1653 C1637 1.349 . S
C1653 H1645 0.950 . S
C1653 C1651 1.327 . S
C1654 C1642 1.349 . S
C1654 H1648 0.950 . S
C1654 C1655 1.327 . S
C1655 H1649 0.950 . S
C1655 C1654 1.327 . S
C1655 C1659 1.429 . S
C1656 C1639 1.574 . S
C1656 H1650 0.949 . S
C1656 C1660 1.368 . S
C1657 C1638 1.429 . S
C1657 C1651 1.429 . S
C1657 C1658 1.523 . S
C1658 C1639 1.368 . S
C1658 C1652 1.368 . S
C1658 C1657 1.523 . S
C1659 C1643 1.429 . S
C1659 C1655 1.429 . S
C1659 C1660 1.523 . S
C1660 C1644 1.368 . S
C1660 C1656 1.368 . S
C1660 C1659 1.523 . S
H1661 C1636 0.950 . S
H1662 C1638 0.950 . S
H1663 C1639 0.949 . S
H1664 C1641 0.950 . S
H1665 C1643 0.950 . S
C1666 C1667 1.349 . S
C1666 C1668 1.327 . S
C1666 H1691 0.950 . S
C1667 C1666 1.349 . S
C1667 C1683 1.349 . S
C1668 C1666 1.327 . S
C1668 C1687 1.429 . S
C1668 H1692 0.950 . S
C1669 C1686 1.574 . S
C1669 C1688 1.368 . S
C1669 H1693 0.949 . S
H1670 C1674 0.949 . S
C1671 C1672 1.349 . S
C1671 C1673 1.327 . S
C1671 H1694 0.950 . S
C1672 C1671 1.349 . S
C1672 C1684 1.349 . S
C1673 C1671 1.327 . S
C1673 C1689 1.429 . S
C1673 H1695 0.950 . S
C1674 H1670 0.949 . S
C1674 C1682 1.574 . S
C1674 C1690 1.368 . S
H1675 C1683 0.950 . S
H1676 C1681 0.950 . S
H1677 C1682 0.949 . S
H1678 C1684 0.950 . S
H1679 C1685 0.950 . S
H1680 C1686 0.949 . S
C1681 H1676 0.950 . S
C1681 C1683 1.327 . S
C1681 C1687 1.429 . S
C1682 C1674 1.574 . S
C1682 H1677 0.949 . S
C1682 C1688 1.368 . S
C1683 C1667 1.349 . S
C1683 H1675 0.950 . S
C1683 C1681 1.327 . S
C1684 C1672 1.349 . S
C1684 H1678 0.950 . S
C1684 C1685 1.327 . S
C1685 H1679 0.950 . S
C1685 C1684 1.327 . S
C1685 C1689 1.429 . S
C1686 C1669 1.574 . S
C1686 H1680 0.949 . S
C1686 C1690 1.368 . S
C1687 C1668 1.429 . S
C1687 C1681 1.429 . S
C1687 C1688 1.523 . S
C1688 C1669 1.368 . S
C1688 C1682 1.368 . S
C1688 C1687 1.523 . S
C1689 C1673 1.429 . S
C1689 C1685 1.429 . S
C1689 C1690 1.523 . S
C1690 C1674 1.368 . S
C1690 C1686 1.368 . S
C1690 C1689 1.523 . S
H1691 C1666 0.950 . S
H1692 C1668 0.950 . S
H1693 C1669 0.949 . S
H1694 C1671 0.950 . S
H1695 C1673 0.950 . S
C1696 C1697 1.349 . S
C1696 C1698 1.327 . S
C1696 H1721 0.950 . S
C1697 C1696 1.349 . S
C1697 C1713 1.349 . S
C1698 C1696 1.327 . S
C1698 C1717 1.429 . S
C1698 H1722 0.950 . S
C1699 C1716 1.574 . S
C1699 C1718 1.368 . S
C1699 H1723 0.949 . S
H1700 C1704 0.949 . S
C1701 C1702 1.349 . S
C1701 C1703 1.327 . S
C1701 H1724 0.950 . S
C1702 C1701 1.349 . S
C1702 C1714 1.349 . S
C1703 C1701 1.327 . S
C1703 C1719 1.429 . S
C1703 H1725 0.950 . S
C1704 H1700 0.949 . S
C1704 C1712 1.574 . S
C1704 C1720 1.368 . S
H1705 C1713 0.950 . S
H1706 C1711 0.950 . S
H1707 C1712 0.949 . S
H1708 C1714 0.950 . S
H1709 C1715 0.950 . S
H1710 C1716 0.949 . S
C1711 H1706 0.950 . S
C1711 C1713 1.327 . S
C1711 C1717 1.429 . S
C1712 C1704 1.574 . S
C1712 H1707 0.949 . S
C1712 C1718 1.368 . S
C1713 C1697 1.349 . S
C1713 H1705 0.950 . S
C1713 C1711 1.327 . S
C1714 C1702 1.349 . S
C1714 H1708 0.950 . S
C1714 C1715 1.327 . S
C1715 H1709 0.950 . S
C1715 C1714 1.327 . S
C1715 C1719 1.429 . S
C1716 C1699 1.574 . S
C1716 H1710 0.949 . S
C1716 C1720 1.368 . S
C1717 C1698 1.429 . S
C1717 C1711 1.429 . S
C1717 C1718 1.523 . S
C1718 C1699 1.368 . S
C1718 C1712 1.368 . S
C1718 C1717 1.523 . S
C1719 C1703 1.429 . S
C1719 C1715 1.429 . S
C1719 C1720 1.523 . S
C1720 C1704 1.368 . S
C1720 C1716 1.368 . S
C1720 C1719 1.523 . S
H1721 C1696 0.950 . S
H1722 C1698 0.950 . S
H1723 C1699 0.949 . S
H1724 C1701 0.950 . S
H1725 C1703 0.950 . S
C1726 C1727 1.349 . S
C1726 C1728 1.327 . S
C1726 H1751 0.950 . S
C1727 C1726 1.349 . S
C1727 C1743 1.349 . S
C1728 C1726 1.327 . S
C1728 C1747 1.429 . S
C1728 H1752 0.950 . S
C1729 C1746 1.574 . S
C1729 C1748 1.368 . S
C1729 H1753 0.949 . S
H1730 C1734 0.949 . S
C1731 C1732 1.349 . S
C1731 C1733 1.327 . S
C1731 H1754 0.950 . S
C1732 C1731 1.349 . S
C1732 C1744 1.349 . S
C1733 C1731 1.327 . S
C1733 C1749 1.429 . S
C1733 H1755 0.950 . S
C1734 H1730 0.949 . S
C1734 C1742 1.574 . S
C1734 C1750 1.368 . S
H1735 C1743 0.950 . S
H1736 C1741 0.950 . S
H1737 C1742 0.949 . S
H1738 C1744 0.950 . S
H1739 C1745 0.950 . S
H1740 C1746 0.949 . S
C1741 H1736 0.950 . S
C1741 C1743 1.327 . S
C1741 C1747 1.429 . S
C1742 C1734 1.574 . S
C1742 H1737 0.949 . S
C1742 C1748 1.368 . S
C1743 C1727 1.349 . S
C1743 H1735 0.950 . S
C1743 C1741 1.327 . S
C1744 C1732 1.349 . S
C1744 H1738 0.950 . S
C1744 C1745 1.327 . S
C1745 H1739 0.950 . S
C1745 C1744 1.327 . S
C1745 C1749 1.429 . S
C1746 C1729 1.574 . S
C1746 H1740 0.949 . S
C1746 C1750 1.368 . S
C1747 C1728 1.429 . S
C1747 C1741 1.429 . S
C1747 C1748 1.523 . S
C1748 C1729 1.368 . S
C1748 C1742 1.368 . S
C1748 C1747 1.523 . S
C1749 C1733 1.429 . S
C1749 C1745 1.429 . S
C1749 C1750 1.523 . S
C1750 C1734 1.368 . S
C1750 C1746 1.368 . S
C1750 C1749 1.523 . S
H1751 C1726 0.950 . S
H1752 C1728 0.950 . S
H1753 C1729 0.949 . S
H1754 C1731 0.950 . S
H1755 C1733 0.950 . S
C1756 C1757 1.349 . S
C1756 C1758 1.327 . S
C1756 H1781 0.950 . S
C1757 C1756 1.349 . S
C1757 C1773 1.349 . S
C1758 C1756 1.327 . S
C1758 C1777 1.429 . S
C1758 H1782 0.950 . S
C1759 C1776 1.574 . S
C1759 C1778 1.368 . S
C1759 H1783 0.949 . S
H1760 C1764 0.949 . S
C1761 C1762 1.349 . S
C1761 C1763 1.327 . S
C1761 H1784 0.950 . S
C1762 C1761 1.349 . S
C1762 C1774 1.349 . S
C1763 C1761 1.327 . S
C1763 C1779 1.429 . S
C1763 H1785 0.950 . S
C1764 H1760 0.949 . S
C1764 C1772 1.574 . S
C1764 C1780 1.368 . S
H1765 C1773 0.950 . S
H1766 C1771 0.950 . S
H1767 C1772 0.949 . S
H1768 C1774 0.950 . S
H1769 C1775 0.950 . S
H1770 C1776 0.949 . S
C1771 H1766 0.950 . S
C1771 C1773 1.327 . S
C1771 C1777 1.429 . S
C1772 C1764 1.574 . S
C1772 H1767 0.949 . S
C1772 C1778 1.368 . S
C1773 C1757 1.349 . S
C1773 H1765 0.950 . S
C1773 C1771 1.327 . S
C1774 C1762 1.349 . S
C1774 H1768 0.950 . S
C1774 C1775 1.327 . S
C1775 H1769 0.950 . S
C1775 C1774 1.327 . S
C1775 C1779 1.429 . S
C1776 C1759 1.574 . S
C1776 H1770 0.949 . S
C1776 C1780 1.368 . S
C1777 C1758 1.429 . S
C1777 C1771 1.429 . S
C1777 C1778 1.523 . S
C1778 C1759 1.368 . S
C1778 C1772 1.368 . S
C1778 C1777 1.523 . S
C1779 C1763 1.429 . S
C1779 C1775 1.429 . S
C1779 C1780 1.523 . S
C1780 C1764 1.368 . S
C1780 C1776 1.368 . S
C1780 C1779 1.523 . S
H1781 C1756 0.950 . S
H1782 C1758 0.950 . S
H1783 C1759 0.949 . S
H1784 C1761 0.950 . S
H1785 C1763 0.950 . S
C1786 C1787 1.349 . S
C1786 C1788 1.327 . S
C1786 H1811 0.950 . S
C1787 C1786 1.349 . S
C1787 C1803 1.349 . S
C1788 C1786 1.327 . S
C1788 C1807 1.429 . S
C1788 H1812 0.950 . S
C1789 C1806 1.574 . S
C1789 C1808 1.368 . S
C1789 H1813 0.949 . S
H1790 C1794 0.949 . S
C1791 C1792 1.349 . S
C1791 C1793 1.327 . S
C1791 H1814 0.950 . S
C1792 C1791 1.349 . S
C1792 C1804 1.349 . S
C1793 C1791 1.327 . S
C1793 C1809 1.429 . S
C1793 H1815 0.950 . S
C1794 H1790 0.949 . S
C1794 C1802 1.574 . S
C1794 C1810 1.368 . S
H1795 C1803 0.950 . S
H1796 C1801 0.950 . S
H1797 C1802 0.949 . S
H1798 C1804 0.950 . S
H1799 C1805 0.950 . S
H1800 C1806 0.949 . S
C1801 H1796 0.950 . S
C1801 C1803 1.327 . S
C1801 C1807 1.429 . S
C1802 C1794 1.574 . S
C1802 H1797 0.949 . S
C1802 C1808 1.368 . S
C1803 C1787 1.349 . S
C1803 H1795 0.950 . S
C1803 C1801 1.327 . S
C1804 C1792 1.349 . S
C1804 H1798 0.950 . S
C1804 C1805 1.327 . S
C1805 H1799 0.950 . S
C1805 C1804 1.327 . S
C1805 C1809 1.429 . S
C1806 C1789 1.574 . S
C1806 H1800 0.949 . S
C1806 C1810 1.368 . S
C1807 C1788 1.429 . S
C1807 C1801 1.429 . S
C1807 C1808 1.523 . S
C1808 C1789 1.368 . S
C1808 C1802 1.368 . S
C1808 C1807 1.523 . S
C1809 C1793 1.429 . S
C1809 C1805 1.429 . S
C1809 C1810 1.523 . S
C1810 C1794 1.368 . S
C1810 C1806 1.368 . S
C1810 C1809 1.523 . S
H1811 C1786 0.950 . S
H1812 C1788 0.950 . S
H1813 C1789 0.949 . S
H1814 C1791 0.950 . S
H1815 C1793 0.950 . S
C1816 C1817 1.349 . S
C1816 C1818 1.327 . S
C1816 H1841 0.950 . S
C1817 C1816 1.349 . S
C1817 C1833 1.349 . S
C1818 C1816 1.327 . S
C1818 C1837 1.429 . S
C1818 H1842 0.950 . S
C1819 C1836 1.574 . S
C1819 C1838 1.368 . S
C1819 H1843 0.949 . S
H1820 C1824 0.949 . S
C1821 C1822 1.349 . S
C1821 C1823 1.327 . S
C1821 H1844 0.950 . S
C1822 C1821 1.349 . S
C1822 C1834 1.349 . S
C1823 C1821 1.327 . S
C1823 C1839 1.429 . S
C1823 H1845 0.950 . S
C1824 H1820 0.949 . S
C1824 C1832 1.574 . S
C1824 C1840 1.368 . S
H1825 C1833 0.950 . S
H1826 C1831 0.950 . S
H1827 C1832 0.949 . S
H1828 C1834 0.950 . S
H1829 C1835 0.950 . S
H1830 C1836 0.949 . S
C1831 H1826 0.950 . S
C1831 C1833 1.327 . S
C1831 C1837 1.429 . S
C1832 C1824 1.574 . S
C1832 H1827 0.949 . S
C1832 C1838 1.368 . S
C1833 C1817 1.349 . S
C1833 H1825 0.950 . S
C1833 C1831 1.327 . S
C1834 C1822 1.349 . S
C1834 H1828 0.950 . S
C1834 C1835 1.327 . S
C1835 H1829 0.950 . S
C1835 C1834 1.327 . S
C1835 C1839 1.429 . S
C1836 C1819 1.574 . S
C1836 H1830 0.949 . S
C1836 C1840 1.368 . S
C1837 C1818 1.429 . S
C1837 C1831 1.429 . S
C1837 C1838 1.523 . S
C1838 C1819 1.368 . S
C1838 C1832 1.368 . S
C1838 C1837 1.523 . S
C1839 C1823 1.429 . S
C1839 C1835 1.429 . S
C1839 C1840 1.523 . S
C1840 C1824 1.368 . S
C1840 C1836 1.368 . S
C1840 C1839 1.523 . S
H1841 C1816 0.950 . S
H1842 C1818 0.950 . S
H1843 C1819 0.949 . S
H1844 C1821 0.950 . S
H1845 C1823 0.950 . S
C1846 C1847 1.349 . S
C1846 C1848 1.327 . S
C1846 H1871 0.950 . S
C1847 C1846 1.349 . S
C1847 C1863 1.349 . S
C1848 C1846 1.327 . S
C1848 C1867 1.429 . S
C1848 H1872 0.950 . S
C1849 C1866 1.574 . S
C1849 C1868 1.368 . S
C1849 H1873 0.949 . S
H1850 C1854 0.949 . S
C1851 C1852 1.349 . S
C1851 C1853 1.327 . S
C1851 H1874 0.950 . S
C1852 C1851 1.349 . S
C1852 C1864 1.349 . S
C1853 C1851 1.327 . S
C1853 C1869 1.429 . S
C1853 H1875 0.950 . S
C1854 H1850 0.949 . S
C1854 C1862 1.574 . S
C1854 C1870 1.368 . S
H1855 C1863 0.950 . S
H1856 C1861 0.950 . S
H1857 C1862 0.949 . S
H1858 C1864 0.950 . S
H1859 C1865 0.950 . S
H1860 C1866 0.949 . S
C1861 H1856 0.950 . S
C1861 C1863 1.327 . S
C1861 C1867 1.429 . S
C1862 C1854 1.574 . S
C1862 H1857 0.949 . S
C1862 C1868 1.368 . S
C1863 C1847 1.349 . S
C1863 H1855 0.950 . S
C1863 C1861 1.327 . S
C1864 C1852 1.349 . S
C1864 H1858 0.950 . S
C1864 C1865 1.327 . S
C1865 H1859 0.950 . S
C1865 C1864 1.327 . S
C1865 C1869 1.429 . S
C1866 C1849 1.574 . S
C1866 H1860 0.949 . S
C1866 C1870 1.368 . S
C1867 C1848 1.429 . S
C1867 C1861 1.429 . S
C1867 C1868 1.523 . S
C1868 C1849 1.368 . S
C1868 C1862 1.368 . S
C1868 C1867 1.523 . S
C1869 C1853 1.429 . S
C1869 C1865 1.429 . S
C1869 C1870 1.523 . S
C1870 C1854 1.368 . S
C1870 C1866 1.368 . S
C1870 C1869 1.523 . S
H1871 C1846 0.950 . S
H1872 C1848 0.950 . S
H1873 C1849 0.949 . S
H1874 C1851 0.950 . S
H1875 C1853 0.950 . S
C1876 C1877 1.349 . S
C1876 C1878 1.327 . S
C1876 H1901 0.950 . S
C1877 C1876 1.349 . S
C1877 C1893 1.349 . S
C1878 C1876 1.327 . S
C1878 C1897 1.429 . S
C1878 H1902 0.950 . S
C1879 C1896 1.574 . S
C1879 C1898 1.368 . S
C1879 H1903 0.949 . S
H1880 C1884 0.949 . S
C1881 C1882 1.349 . S
C1881 C1883 1.327 . S
C1881 H1904 0.950 . S
C1882 C1881 1.349 . S
C1882 C1894 1.349 . S
C1883 C1881 1.327 . S
C1883 C1899 1.429 . S
C1883 H1905 0.950 . S
C1884 H1880 0.949 . S
C1884 C1892 1.574 . S
C1884 C1900 1.368 . S
H1885 C1893 0.950 . S
H1886 C1891 0.950 . S
H1887 C1892 0.949 . S
H1888 C1894 0.950 . S
H1889 C1895 0.950 . S
H1890 C1896 0.949 . S
C1891 H1886 0.950 . S
C1891 C1893 1.327 . S
C1891 C1897 1.429 . S
C1892 C1884 1.574 . S
C1892 H1887 0.949 . S
C1892 C1898 1.368 . S
C1893 C1877 1.349 . S
C1893 H1885 0.950 . S
C1893 C1891 1.327 . S
C1894 C1882 1.349 . S
C1894 H1888 0.950 . S
C1894 C1895 1.327 . S
C1895 H1889 0.950 . S
C1895 C1894 1.327 . S
C1895 C1899 1.429 . S
C1896 C1879 1.574 . S
C1896 H1890 0.949 . S
C1896 C1900 1.368 . S
C1897 C1878 1.429 . S
C1897 C1891 1.429 . S
C1897 C1898 1.523 . S
C1898 C1879 1.368 . S
C1898 C1892 1.368 . S
C1898 C1897 1.523 . S
C1899 C1883 1.429 . S
C1899 C1895 1.429 . S
C1899 C1900 1.523 . S
C1900 C1884 1.368 . S
C1900 C1896 1.368 . S
C1900 C1899 1.523 . S
H1901 C1876 0.950 . S
H1902 C1878 0.950 . S
H1903 C1879 0.949 . S
H1904 C1881 0.950 . S
H1905 C1883 0.950 . S
C1906 C1907 1.349 . S
C1906 C1908 1.327 . S
C1906 H1931 0.950 . S
C1907 C1906 1.349 . S
C1907 C1923 1.349 . S
C1908 C1906 1.327 . S
C1908 C1927 1.429 . S
C1908 H1932 0.950 . S
C1909 C1926 1.574 . S
C1909 C1928 1.368 . S
C1909 H1933 0.949 . S
H1910 C1914 0.949 . S
C1911 C1912 1.349 . S
C1911 C1913 1.327 . S
C1911 H1934 0.950 . S
C1912 C1911 1.349 . S
C1912 C1924 1.349 . S
C1913 C1911 1.327 . S
C1913 C1929 1.429 . S
C1913 H1935 0.950 . S
C1914 H1910 0.949 . S
C1914 C1922 1.574 . S
C1914 C1930 1.368 . S
H1915 C1923 0.950 . S
H1916 C1921 0.950 . S
H1917 C1922 0.949 . S
H1918 C1924 0.950 . S
H1919 C1925 0.950 . S
H1920 C1926 0.949 . S
C1921 H1916 0.950 . S
C1921 C1923 1.327 . S
C1921 C1927 1.429 . S
C1922 C1914 1.574 . S
C1922 H1917 0.949 . S
C1922 C1928 1.368 . S
C1923 C1907 1.349 . S
C1923 H1915 0.950 . S
C1923 C1921 1.327 . S
C1924 C1912 1.349 . S
C1924 H1918 0.950 . S
C1924 C1925 1.327 . S
C1925 H1919 0.950 . S
C1925 C1924 1.327 . S
C1925 C1929 1.429 . S
C1926 C1909 1.574 . S
C1926 H1920 0.949 . S
C1926 C1930 1.368 . S
C1927 C1908 1.429 . S
C1927 C1921 1.429 . S
C1927 C1928 1.523 . S
C1928 C1909 1.368 . S
C1928 C1922 1.368 . S
C1928 C1927 1.523 . S
C1929 C1913 1.429 . S
C1929 C1925 1.429 . S
C1929 C1930 1.523 . S
C1930 C1914 1.368 . S
C1930 C1926 1.368 . S
C1930 C1929 1.523 . S
H1931 C1906 0.950 . S
H1932 C1908 0.950 . S
H1933 C1909 0.949 . S
H1934 C1911 0.950 . S
H1935 C1913 0.950 . S
C1936 C1937 1.349 . S
C1936 C1938 1.327 . S
C1936 H1961 0.950 . S
C1937 C1936 1.349 . S
C1937 C1953 1.349 . S
C1938 C1936 1.327 . S
C1938 C1957 1.429 . S
C1938 H1962 0.950 . S
C1939 C1956 1.574 1_554 S
C1939 C1958 1.368 . S
C1939 H1963 0.949 . S
H1940 C1944 0.949 . S
C1941 C1942 1.349 . S
C1941 C1943 1.327 . S
C1941 H1964 0.950 . S
C1942 C1941 1.349 . S
C1942 C1954 1.349 . S
C1943 C1941 1.327 . S
C1943 C1959 1.429 . S
C1943 H1965 0.950 . S
C1944 H1940 0.949 . S
C1944 C1952 1.574 1_556 S
C1944 C1960 1.368 . S
H1945 C1953 0.950 . S
H1946 C1951 0.950 . S
H1947 C1952 0.949 . S
H1948 C1954 0.950 . S
H1949 C1955 0.950 . S
H1950 C1956 0.949 . S
C1951 H1946 0.950 . S
C1951 C1953 1.327 . S
C1951 C1957 1.429 . S
C1952 C1944 1.574 1_554 S
C1952 H1947 0.949 . S
C1952 C1958 1.368 . S
C1953 C1937 1.349 . S
C1953 H1945 0.950 . S
C1953 C1951 1.327 . S
C1954 C1942 1.349 . S
C1954 H1948 0.950 . S
C1954 C1955 1.327 . S
C1955 H1949 0.950 . S
C1955 C1954 1.327 . S
C1955 C1959 1.429 . S
C1956 C1939 1.574 1_556 S
C1956 H1950 0.949 . S
C1956 C1960 1.368 . S
C1957 C1938 1.429 . S
C1957 C1951 1.429 . S
C1957 C1958 1.523 . S
C1958 C1939 1.368 . S
C1958 C1952 1.368 . S
C1958 C1957 1.523 . S
C1959 C1943 1.429 . S
C1959 C1955 1.429 . S
C1959 C1960 1.523 . S
C1960 C1944 1.368 . S
C1960 C1956 1.368 . S
C1960 C1959 1.523 . S
H1961 C1936 0.950 . S
H1962 C1938 0.950 . S
H1963 C1939 0.949 . S
H1964 C1941 0.950 . S
H1965 C1943 0.950 . S
C1966 C1967 1.349 . S
C1966 C1968 1.327 . S
C1966 H1991 0.950 . S
C1967 C1966 1.349 . S
C1967 C1983 1.349 . S
C1968 C1966 1.327 . S
C1968 C1987 1.429 . S
C1968 H1992 0.950 . S
C1969 C1986 1.574 1_556 S
C1969 C1988 1.368 . S
C1969 H1993 0.949 . S
H1970 C1974 0.949 . S
C1971 C1972 1.349 . S
C1971 C1973 1.327 . S
C1971 H1994 0.950 . S
C1972 C1971 1.349 . S
C1972 C1984 1.349 . S
C1973 C1971 1.327 . S
C1973 C1989 1.429 . S
C1973 H1995 0.950 . S
C1974 H1970 0.949 . S
C1974 C1982 1.574 1_554 S
C1974 C1990 1.368 . S
H1975 C1983 0.950 . S
H1976 C1981 0.950 . S
H1977 C1982 0.949 . S
H1978 C1984 0.950 . S
H1979 C1985 0.950 . S
H1980 C1986 0.949 . S
C1981 H1976 0.950 . S
C1981 C1983 1.327 . S
C1981 C1987 1.429 . S
C1982 C1974 1.574 1_556 S
C1982 H1977 0.949 . S
C1982 C1988 1.368 . S
C1983 C1967 1.349 . S
C1983 H1975 0.950 . S
C1983 C1981 1.327 . S
C1984 C1972 1.349 . S
C1984 H1978 0.950 . S
C1984 C1985 1.327 . S
C1985 H1979 0.950 . S
C1985 C1984 1.327 . S
C1985 C1989 1.429 . S
C1986 C1969 1.574 1_554 S
C1986 H1980 0.949 . S
C1986 C1990 1.368 . S
C1987 C1968 1.429 . S
C1987 C1981 1.429 . S
C1987 C1988 1.523 . S
C1988 C1969 1.368 . S
C1988 C1982 1.368 . S
C1988 C1987 1.523 . S
C1989 C1973 1.429 . S
C1989 C1985 1.429 . S
C1989 C1990 1.523 . S
C1990 C1974 1.368 . S
C1990 C1986 1.368 . S
C1990 C1989 1.523 . S
H1991 C1966 0.950 . S
H1992 C1968 0.950 . S
H1993 C1969 0.949 . S
H1994 C1971 0.950 . S
H1995 C1973 0.950 . S
C1996 C1997 1.349 . S
C1996 C1998 1.327 . S
C1996 H2021 0.950 . S
C1997 C1996 1.349 . S
C1997 C2013 1.349 . S
C1998 C1996 1.327 . S
C1998 C2017 1.429 . S
C1998 H2022 0.950 . S
C1999 C2016 1.574 1_554 S
C1999 C2018 1.368 . S
C1999 H2023 0.949 . S
H2000 C2004 0.949 . S
C2001 C2002 1.349 . S
C2001 C2003 1.327 . S
C2001 H2024 0.950 . S
C2002 C2001 1.349 . S
C2002 C2014 1.349 . S
C2003 C2001 1.327 . S
C2003 C2019 1.429 . S
C2003 H2025 0.950 . S
C2004 H2000 0.949 . S
C2004 C2012 1.574 1_556 S
C2004 C2020 1.368 . S
H2005 C2013 0.950 . S
H2006 C2011 0.950 . S
H2007 C2012 0.949 . S
H2008 C2014 0.950 . S
H2009 C2015 0.950 . S
H2010 C2016 0.949 . S
C2011 H2006 0.950 . S
C2011 C2013 1.327 . S
C2011 C2017 1.429 . S
C2012 C2004 1.574 1_554 S
C2012 H2007 0.949 . S
C2012 C2018 1.368 . S
C2013 C1997 1.349 . S
C2013 H2005 0.950 . S
C2013 C2011 1.327 . S
C2014 C2002 1.349 . S
C2014 H2008 0.950 . S
C2014 C2015 1.327 . S
C2015 H2009 0.950 . S
C2015 C2014 1.327 . S
C2015 C2019 1.429 . S
C2016 C1999 1.574 1_556 S
C2016 H2010 0.949 . S
C2016 C2020 1.368 . S
C2017 C1998 1.429 . S
C2017 C2011 1.429 . S
C2017 C2018 1.523 . S
C2018 C1999 1.368 . S
C2018 C2012 1.368 . S
C2018 C2017 1.523 . S
C2019 C2003 1.429 . S
C2019 C2015 1.429 . S
C2019 C2020 1.523 . S
C2020 C2004 1.368 . S
C2020 C2016 1.368 . S
C2020 C2019 1.523 . S
H2021 C1996 0.950 . S
H2022 C1998 0.950 . S
H2023 C1999 0.949 . S
H2024 C2001 0.950 . S
H2025 C2003 0.950 . S
C2026 C2027 1.349 . S
C2026 C2028 1.327 . S
C2026 H2051 0.950 . S
C2027 C2026 1.349 . S
C2027 C2043 1.349 . S
C2028 C2026 1.327 . S
C2028 C2047 1.429 . S
C2028 H2052 0.950 . S
C2029 C2046 1.574 1_554 S
C2029 C2048 1.368 . S
C2029 H2053 0.949 . S
H2030 C2034 0.949 . S
C2031 C2032 1.349 . S
C2031 C2033 1.327 . S
C2031 H2054 0.950 . S
C2032 C2031 1.349 . S
C2032 C2044 1.349 . S
C2033 C2031 1.327 . S
C2033 C2049 1.429 . S
C2033 H2055 0.950 . S
C2034 H2030 0.949 . S
C2034 C2042 1.574 1_556 S
C2034 C2050 1.368 . S
H2035 C2043 0.950 . S
H2036 C2041 0.950 . S
H2037 C2042 0.949 . S
H2038 C2044 0.950 . S
H2039 C2045 0.950 . S
H2040 C2046 0.949 . S
C2041 H2036 0.950 . S
C2041 C2043 1.327 . S
C2041 C2047 1.429 . S
C2042 C2034 1.574 1_554 S
C2042 H2037 0.949 . S
C2042 C2048 1.368 . S
C2043 C2027 1.349 . S
C2043 H2035 0.950 . S
C2043 C2041 1.327 . S
C2044 C2032 1.349 . S
C2044 H2038 0.950 . S
C2044 C2045 1.327 . S
C2045 H2039 0.950 . S
C2045 C2044 1.327 . S
C2045 C2049 1.429 . S
C2046 C2029 1.574 1_556 S
C2046 H2040 0.949 . S
C2046 C2050 1.368 . S
C2047 C2028 1.429 . S
C2047 C2041 1.429 . S
C2047 C2048 1.523 . S
C2048 C2029 1.368 . S
C2048 C2042 1.368 . S
C2048 C2047 1.523 . S
C2049 C2033 1.429 . S
C2049 C2045 1.429 . S
C2049 C2050 1.523 . S
C2050 C2034 1.368 . S
C2050 C2046 1.368 . S
C2050 C2049 1.523 . S
H2051 C2026 0.950 . S
H2052 C2028 0.950 . S
H2053 C2029 0.949 . S
H2054 C2031 0.950 . S
H2055 C2033 0.950 . S
C2056 C2057 1.349 . S
C2056 C2058 1.327 . S
C2056 H2081 0.950 . S
C2057 C2056 1.349 . S
C2057 C2073 1.349 . S
C2058 C2056 1.327 . S
C2058 C2077 1.429 . S
C2058 H2082 0.950 . S
C2059 C2076 1.574 1_554 S
C2059 C2078 1.368 . S
C2059 H2083 0.949 . S
H2060 C2064 0.949 . S
C2061 C2062 1.349 . S
C2061 C2063 1.327 . S
C2061 H2084 0.950 . S
C2062 C2061 1.349 . S
C2062 C2074 1.349 . S
C2063 C2061 1.327 . S
C2063 C2079 1.429 . S
C2063 H2085 0.950 . S
C2064 H2060 0.949 . S
C2064 C2072 1.574 1_556 S
C2064 C2080 1.368 . S
H2065 C2073 0.950 . S
H2066 C2071 0.950 . S
H2067 C2072 0.949 . S
H2068 C2074 0.950 . S
H2069 C2075 0.950 . S
H2070 C2076 0.949 . S
C2071 H2066 0.950 . S
C2071 C2073 1.327 . S
C2071 C2077 1.429 . S
C2072 C2064 1.574 1_554 S
C2072 H2067 0.949 . S
C2072 C2078 1.368 . S
C2073 C2057 1.349 . S
C2073 H2065 0.950 . S
C2073 C2071 1.327 . S
C2074 C2062 1.349 . S
C2074 H2068 0.950 . S
C2074 C2075 1.327 . S
C2075 H2069 0.950 . S
C2075 C2074 1.327 . S
C2075 C2079 1.429 . S
C2076 C2059 1.574 1_556 S
C2076 H2070 0.949 . S
C2076 C2080 1.368 . S
C2077 C2058 1.429 . S
C2077 C2071 1.429 . S
C2077 C2078 1.523 . S
C2078 C2059 1.368 . S
C2078 C2072 1.368 . S
C2078 C2077 1.523 . S
C2079 C2063 1.429 . S
C2079 C2075 1.429 . S
C2079 C2080 1.523 . S
C2080 C2064 1.368 . S
C2080 C2076 1.368 . S
C2080 C2079 1.523 . S
H2081 C2056 0.950 . S
H2082 C2058 0.950 . S
H2083 C2059 0.949 . S
H2084 C2061 0.950 . S
H2085 C2063 0.950 . S
C2086 C2087 1.349 . S
C2086 C2088 1.327 . S
C2086 H2111 0.950 . S
C2087 C2086 1.349 . S
C2087 C2103 1.349 . S
C2088 C2086 1.327 . S
C2088 C2107 1.429 . S
C2088 H2112 0.950 . S
C2089 C2106 1.574 1_554 S
C2089 C2108 1.368 . S
C2089 H2113 0.949 . S
H2090 C2094 0.949 . S
C2091 C2092 1.349 . S
C2091 C2093 1.327 . S
C2091 H2114 0.950 . S
C2092 C2091 1.349 . S
C2092 C2104 1.349 . S
C2093 C2091 1.327 . S
C2093 C2109 1.429 . S
C2093 H2115 0.950 . S
C2094 H2090 0.949 . S
C2094 C2102 1.574 1_556 S
C2094 C2110 1.368 . S
H2095 C2103 0.950 . S
H2096 C2101 0.950 . S
H2097 C2102 0.949 . S
H2098 C2104 0.950 . S
H2099 C2105 0.950 . S
H2100 C2106 0.949 . S
C2101 H2096 0.950 . S
C2101 C2103 1.327 . S
C2101 C2107 1.429 . S
C2102 C2094 1.574 1_554 S
C2102 H2097 0.949 . S
C2102 C2108 1.368 . S
C2103 C2087 1.349 . S
C2103 H2095 0.950 . S
C2103 C2101 1.327 . S
C2104 C2092 1.349 . S
C2104 H2098 0.950 . S
C2104 C2105 1.327 . S
C2105 H2099 0.950 . S
C2105 C2104 1.327 . S
C2105 C2109 1.429 . S
C2106 C2089 1.574 1_556 S
C2106 H2100 0.949 . S
C2106 C2110 1.368 . S
C2107 C2088 1.429 . S
C2107 C2101 1.429 . S
C2107 C2108 1.523 . S
C2108 C2089 1.368 . S
C2108 C2102 1.368 . S
C2108 C2107 1.523 . S
C2109 C2093 1.429 . S
C2109 C2105 1.429 . S
C2109 C2110 1.523 . S
C2110 C2094 1.368 . S
C2110 C2106 1.368 . S
C2110 C2109 1.523 . S
H2111 C2086 0.950 . S
H2112 C2088 0.950 . S
H2113 C2089 0.949 . S
H2114 C2091 0.950 . S
H2115 C2093 0.950 . S
C2116 C2117 1.349 . S
C2116 C2118 1.327 . S
C2116 H2141 0.950 . S
C2117 C2116 1.349 . S
C2117 C2133 1.349 . S
C2118 C2116 1.327 . S
C2118 C2137 1.429 . S
C2118 H2142 0.950 . S
C2119 C2136 1.574 1_556 S
C2119 C2138 1.368 . S
C2119 H2143 0.949 . S
H2120 C2124 0.949 . S
C2121 C2122 1.349 . S
C2121 C2123 1.327 . S
C2121 H2144 0.950 . S
C2122 C2121 1.349 . S
C2122 C2134 1.349 . S
C2123 C2121 1.327 . S
C2123 C2139 1.429 . S
C2123 H2145 0.950 . S
C2124 H2120 0.949 . S
C2124 C2132 1.574 1_554 S
C2124 C2140 1.368 . S
H2125 C2133 0.950 . S
H2126 C2131 0.950 . S
H2127 C2132 0.949 . S
H2128 C2134 0.950 . S
H2129 C2135 0.950 . S
H2130 C2136 0.949 . S
C2131 H2126 0.950 . S
C2131 C2133 1.327 . S
C2131 C2137 1.429 . S
C2132 C2124 1.574 1_556 S
C2132 H2127 0.949 . S
C2132 C2138 1.368 . S
C2133 C2117 1.349 . S
C2133 H2125 0.950 . S
C2133 C2131 1.327 . S
C2134 C2122 1.349 . S
C2134 H2128 0.950 . S
C2134 C2135 1.327 . S
C2135 H2129 0.950 . S
C2135 C2134 1.327 . S
C2135 C2139 1.429 . S
C2136 C2119 1.574 1_554 S
C2136 H2130 0.949 . S
C2136 C2140 1.368 . S
C2137 C2118 1.429 . S
C2137 C2131 1.429 . S
C2137 C2138 1.523 . S
C2138 C2119 1.368 . S
C2138 C2132 1.368 . S
C2138 C2137 1.523 . S
C2139 C2123 1.429 . S
C2139 C2135 1.429 . S
C2139 C2140 1.523 . S
C2140 C2124 1.368 . S
C2140 C2136 1.368 . S
C2140 C2139 1.523 . S
H2141 C2116 0.950 . S
H2142 C2118 0.950 . S
H2143 C2119 0.949 . S
H2144 C2121 0.950 . S
H2145 C2123 0.950 . S
C2146 C2147 1.349 . S
C2146 C2148 1.327 . S
C2146 H2171 0.950 . S
C2147 C2146 1.349 . S
C2147 C2163 1.349 . S
C2148 C2146 1.327 . S
C2148 C2167 1.429 . S
C2148 H2172 0.950 . S
C2149 C2166 1.574 1_556 S
C2149 C2168 1.368 . S
C2149 H2173 0.949 . S
H2150 C2154 0.949 . S
C2151 C2152 1.349 . S
C2151 C2153 1.327 . S
C2151 H2174 0.950 . S
C2152 C2151 1.349 . S
C2152 C2164 1.349 . S
C2153 C2151 1.327 . S
C2153 C2169 1.429 . S
C2153 H2175 0.950 . S
C2154 H2150 0.949 . S
C2154 C2162 1.574 1_554 S
C2154 C2170 1.368 . S
H2155 C2163 0.950 . S
H2156 C2161 0.950 . S
H2157 C2162 0.949 . S
H2158 C2164 0.950 . S
H2159 C2165 0.950 . S
H2160 C2166 0.949 . S
C2161 H2156 0.950 . S
C2161 C2163 1.327 . S
C2161 C2167 1.429 . S
C2162 C2154 1.574 1_556 S
C2162 H2157 0.949 . S
C2162 C2168 1.368 . S
C2163 C2147 1.349 . S
C2163 H2155 0.950 . S
C2163 C2161 1.327 . S
C2164 C2152 1.349 . S
C2164 H2158 0.950 . S
C2164 C2165 1.327 . S
C2165 H2159 0.950 . S
C2165 C2164 1.327 . S
C2165 C2169 1.429 . S
C2166 C2149 1.574 1_554 S
C2166 H2160 0.949 . S
C2166 C2170 1.368 . S
C2167 C2148 1.429 . S
C2167 C2161 1.429 . S
C2167 C2168 1.523 . S
C2168 C2149 1.368 . S
C2168 C2162 1.368 . S
C2168 C2167 1.523 . S
C2169 C2153 1.429 . S
C2169 C2165 1.429 . S
C2169 C2170 1.523 . S
C2170 C2154 1.368 . S
C2170 C2166 1.368 . S
C2170 C2169 1.523 . S
H2171 C2146 0.950 . S
H2172 C2148 0.950 . S
H2173 C2149 0.949 . S
H2174 C2151 0.950 . S
H2175 C2153 0.950 . S
C2176 C2177 1.349 . S
C2176 C2178 1.327 . S
C2176 H2201 0.950 . S
C2177 C2176 1.349 . S
C2177 C2193 1.349 . S
C2178 C2176 1.327 . S
C2178 C2197 1.429 . S
C2178 H2202 0.950 . S
C2179 C2196 1.574 . S
C2179 C2198 1.368 . S
C2179 H2203 0.949 . S
H2180 C2184 0.949 . S
C2181 C2182 1.349 . S
C2181 C2183 1.327 . S
C2181 H2204 0.950 . S
C2182 C2181 1.349 . S
C2182 C2194 1.349 . S
C2183 C2181 1.327 . S
C2183 C2199 1.429 . S
C2183 H2205 0.950 . S
C2184 H2180 0.949 . S
C2184 C2192 1.574 . S
C2184 C2200 1.368 . S
H2185 C2193 0.950 . S
H2186 C2191 0.950 . S
H2187 C2192 0.949 . S
H2188 C2194 0.950 . S
H2189 C2195 0.950 . S
H2190 C2196 0.949 . S
C2191 H2186 0.950 . S
C2191 C2193 1.327 . S
C2191 C2197 1.429 . S
C2192 C2184 1.574 . S
C2192 H2187 0.949 . S
C2192 C2198 1.368 . S
C2193 C2177 1.349 . S
C2193 H2185 0.950 . S
C2193 C2191 1.327 . S
C2194 C2182 1.349 . S
C2194 H2188 0.950 . S
C2194 C2195 1.327 . S
C2195 H2189 0.950 . S
C2195 C2194 1.327 . S
C2195 C2199 1.429 . S
C2196 C2179 1.574 . S
C2196 H2190 0.949 . S
C2196 C2200 1.368 . S
C2197 C2178 1.429 . S
C2197 C2191 1.429 . S
C2197 C2198 1.523 . S
C2198 C2179 1.368 . S
C2198 C2192 1.368 . S
C2198 C2197 1.523 . S
C2199 C2183 1.429 . S
C2199 C2195 1.429 . S
C2199 C2200 1.523 . S
C2200 C2184 1.368 . S
C2200 C2196 1.368 . S
C2200 C2199 1.523 . S
H2201 C2176 0.950 . S
H2202 C2178 0.950 . S
H2203 C2179 0.949 . S
H2204 C2181 0.950 . S
H2205 C2183 0.950 . S
C2206 C2207 1.349 . S
C2206 C2208 1.327 . S
C2206 H2231 0.950 . S
C2207 C2206 1.349 . S
C2207 C2223 1.349 . S
C2208 C2206 1.327 . S
C2208 C2227 1.429 . S
C2208 H2232 0.950 . S
C2209 C2226 1.574 . S
C2209 C2228 1.368 . S
C2209 H2233 0.949 . S
H2210 C2214 0.949 . S
C2211 C2212 1.349 . S
C2211 C2213 1.327 . S
C2211 H2234 0.950 . S
C2212 C2211 1.349 . S
C2212 C2224 1.349 . S
C2213 C2211 1.327 . S
C2213 C2229 1.429 . S
C2213 H2235 0.950 . S
C2214 H2210 0.949 . S
C2214 C2222 1.574 . S
C2214 C2230 1.368 . S
H2215 C2223 0.950 . S
H2216 C2221 0.950 . S
H2217 C2222 0.949 . S
H2218 C2224 0.950 . S
H2219 C2225 0.950 . S
H2220 C2226 0.949 . S
C2221 H2216 0.950 . S
C2221 C2223 1.327 . S
C2221 C2227 1.429 . S
C2222 C2214 1.574 . S
C2222 H2217 0.949 . S
C2222 C2228 1.368 . S
C2223 C2207 1.349 . S
C2223 H2215 0.950 . S
C2223 C2221 1.327 . S
C2224 C2212 1.349 . S
C2224 H2218 0.950 . S
C2224 C2225 1.327 . S
C2225 H2219 0.950 . S
C2225 C2224 1.327 . S
C2225 C2229 1.429 . S
C2226 C2209 1.574 . S
C2226 H2220 0.949 . S
C2226 C2230 1.368 . S
C2227 C2208 1.429 . S
C2227 C2221 1.429 . S
C2227 C2228 1.523 . S
C2228 C2209 1.368 . S
C2228 C2222 1.368 . S
C2228 C2227 1.523 . S
C2229 C2213 1.429 . S
C2229 C2225 1.429 . S
C2229 C2230 1.523 . S
C2230 C2214 1.368 . S
C2230 C2226 1.368 . S
C2230 C2229 1.523 . S
H2231 C2206 0.950 . S
H2232 C2208 0.950 . S
H2233 C2209 0.949 . S
H2234 C2211 0.950 . S
H2235 C2213 0.950 . S
C2236 C2237 1.349 . S
C2236 C2238 1.327 . S
C2236 H2261 0.950 . S
C2237 C2236 1.349 . S
C2237 C2253 1.349 . S
C2238 C2236 1.327 . S
C2238 C2257 1.429 . S
C2238 H2262 0.950 . S
C2239 C2256 1.574 . S
C2239 C2258 1.368 . S
C2239 H2263 0.949 . S
H2240 C2244 0.949 . S
C2241 C2242 1.349 . S
C2241 C2243 1.327 . S
C2241 H2264 0.950 . S
C2242 C2241 1.349 . S
C2242 C2254 1.349 . S
C2243 C2241 1.327 . S
C2243 C2259 1.429 . S
C2243 H2265 0.950 . S
C2244 H2240 0.949 . S
C2244 C2252 1.574 . S
C2244 C2260 1.368 . S
H2245 C2253 0.950 . S
H2246 C2251 0.950 . S
H2247 C2252 0.949 . S
H2248 C2254 0.950 . S
H2249 C2255 0.950 . S
H2250 C2256 0.949 . S
C2251 H2246 0.950 . S
C2251 C2253 1.327 . S
C2251 C2257 1.429 . S
C2252 C2244 1.574 . S
C2252 H2247 0.949 . S
C2252 C2258 1.368 . S
C2253 C2237 1.349 . S
C2253 H2245 0.950 . S
C2253 C2251 1.327 . S
C2254 C2242 1.349 . S
C2254 H2248 0.950 . S
C2254 C2255 1.327 . S
C2255 H2249 0.950 . S
C2255 C2254 1.327 . S
C2255 C2259 1.429 . S
C2256 C2239 1.574 . S
C2256 H2250 0.949 . S
C2256 C2260 1.368 . S
C2257 C2238 1.429 . S
C2257 C2251 1.429 . S
C2257 C2258 1.523 . S
C2258 C2239 1.368 . S
C2258 C2252 1.368 . S
C2258 C2257 1.523 . S
C2259 C2243 1.429 . S
C2259 C2255 1.429 . S
C2259 C2260 1.523 . S
C2260 C2244 1.368 . S
C2260 C2256 1.368 . S
C2260 C2259 1.523 . S
H2261 C2236 0.950 . S
H2262 C2238 0.950 . S
H2263 C2239 0.949 . S
H2264 C2241 0.950 . S
H2265 C2243 0.950 . S
C2266 C2267 1.349 . S
C2266 C2268 1.327 . S
C2266 H2291 0.950 . S
C2267 C2266 1.349 . S
C2267 C2283 1.349 . S
C2268 C2266 1.327 . S
C2268 C2287 1.429 . S
C2268 H2292 0.950 . S
C2269 C2286 1.574 . S
C2269 C2288 1.368 . S
C2269 H2293 0.949 . S
H2270 C2274 0.949 . S
C2271 C2272 1.349 . S
C2271 C2273 1.327 . S
C2271 H2294 0.950 . S
C2272 C2271 1.349 . S
C2272 C2284 1.349 . S
C2273 C2271 1.327 . S
C2273 C2289 1.429 . S
C2273 H2295 0.950 . S
C2274 H2270 0.949 . S
C2274 C2282 1.574 . S
C2274 C2290 1.368 . S
H2275 C2283 0.950 . S
H2276 C2281 0.950 . S
H2277 C2282 0.949 . S
H2278 C2284 0.950 . S
H2279 C2285 0.950 . S
H2280 C2286 0.949 . S
C2281 H2276 0.950 . S
C2281 C2283 1.327 . S
C2281 C2287 1.429 . S
C2282 C2274 1.574 . S
C2282 H2277 0.949 . S
C2282 C2288 1.368 . S
C2283 C2267 1.349 . S
C2283 H2275 0.950 . S
C2283 C2281 1.327 . S
C2284 C2272 1.349 . S
C2284 H2278 0.950 . S
C2284 C2285 1.327 . S
C2285 H2279 0.950 . S
C2285 C2284 1.327 . S
C2285 C2289 1.429 . S
C2286 C2269 1.574 . S
C2286 H2280 0.949 . S
C2286 C2290 1.368 . S
C2287 C2268 1.429 . S
C2287 C2281 1.429 . S
C2287 C2288 1.523 . S
C2288 C2269 1.368 . S
C2288 C2282 1.368 . S
C2288 C2287 1.523 . S
C2289 C2273 1.429 . S
C2289 C2285 1.429 . S
C2289 C2290 1.523 . S
C2290 C2274 1.368 . S
C2290 C2286 1.368 . S
C2290 C2289 1.523 . S
H2291 C2266 0.950 . S
H2292 C2268 0.950 . S
H2293 C2269 0.949 . S
H2294 C2271 0.950 . S
H2295 C2273 0.950 . S
C2296 C2297 1.349 . S
C2296 C2298 1.327 . S
C2296 H2321 0.950 . S
C2297 C2296 1.349 . S
C2297 C2313 1.349 . S
C2298 C2296 1.327 . S
C2298 C2317 1.429 . S
C2298 H2322 0.950 . S
C2299 C2316 1.574 . S
C2299 C2318 1.368 . S
C2299 H2323 0.949 . S
H2300 C2304 0.949 . S
C2301 C2302 1.349 . S
C2301 C2303 1.327 . S
C2301 H2324 0.950 . S
C2302 C2301 1.349 . S
C2302 C2314 1.349 . S
C2303 C2301 1.327 . S
C2303 C2319 1.429 . S
C2303 H2325 0.950 . S
C2304 H2300 0.949 . S
C2304 C2312 1.574 . S
C2304 C2320 1.368 . S
H2305 C2313 0.950 . S
H2306 C2311 0.950 . S
H2307 C2312 0.949 . S
H2308 C2314 0.950 . S
H2309 C2315 0.950 . S
H2310 C2316 0.949 . S
C2311 H2306 0.950 . S
C2311 C2313 1.327 . S
C2311 C2317 1.429 . S
C2312 C2304 1.574 . S
C2312 H2307 0.949 . S
C2312 C2318 1.368 . S
C2313 C2297 1.349 . S
C2313 H2305 0.950 . S
C2313 C2311 1.327 . S
C2314 C2302 1.349 . S
C2314 H2308 0.950 . S
C2314 C2315 1.327 . S
C2315 H2309 0.950 . S
C2315 C2314 1.327 . S
C2315 C2319 1.429 . S
C2316 C2299 1.574 . S
C2316 H2310 0.949 . S
C2316 C2320 1.368 . S
C2317 C2298 1.429 . S
C2317 C2311 1.429 . S
C2317 C2318 1.523 . S
C2318 C2299 1.368 . S
C2318 C2312 1.368 . S
C2318 C2317 1.523 . S
C2319 C2303 1.429 . S
C2319 C2315 1.429 . S
C2319 C2320 1.523 . S
C2320 C2304 1.368 . S
C2320 C2316 1.368 . S
C2320 C2319 1.523 . S
H2321 C2296 0.950 . S
H2322 C2298 0.950 . S
H2323 C2299 0.949 . S
H2324 C2301 0.950 . S
H2325 C2303 0.950 . S
C2326 C2327 1.349 . S
C2326 C2328 1.327 . S
C2326 H2351 0.950 . S
C2327 C2326 1.349 . S
C2327 C2343 1.349 . S
C2328 C2326 1.327 . S
C2328 C2347 1.429 . S
C2328 H2352 0.950 . S
C2329 C2346 1.574 . S
C2329 C2348 1.368 . S
C2329 H2353 0.949 . S
H2330 C2334 0.949 . S
C2331 C2332 1.349 . S
C2331 C2333 1.327 . S
C2331 H2354 0.950 . S
C2332 C2331 1.349 . S
C2332 C2344 1.349 . S
C2333 C2331 1.327 . S
C2333 C2349 1.429 . S
C2333 H2355 0.950 . S
C2334 H2330 0.949 . S
C2334 C2342 1.574 . S
C2334 C2350 1.368 . S
H2335 C2343 0.950 . S
H2336 C2341 0.950 . S
H2337 C2342 0.949 . S
H2338 C2344 0.950 . S
H2339 C2345 0.950 . S
H2340 C2346 0.949 . S
C2341 H2336 0.950 . S
C2341 C2343 1.327 . S
C2341 C2347 1.429 . S
C2342 C2334 1.574 . S
C2342 H2337 0.949 . S
C2342 C2348 1.368 . S
C2343 C2327 1.349 . S
C2343 H2335 0.950 . S
C2343 C2341 1.327 . S
C2344 C2332 1.349 . S
C2344 H2338 0.950 . S
C2344 C2345 1.327 . S
C2345 H2339 0.950 . S
C2345 C2344 1.327 . S
C2345 C2349 1.429 . S
C2346 C2329 1.574 . S
C2346 H2340 0.949 . S
C2346 C2350 1.368 . S
C2347 C2328 1.429 . S
C2347 C2341 1.429 . S
C2347 C2348 1.523 . S
C2348 C2329 1.368 . S
C2348 C2342 1.368 . S
C2348 C2347 1.523 . S
C2349 C2333 1.429 . S
C2349 C2345 1.429 . S
C2349 C2350 1.523 . S
C2350 C2334 1.368 . S
C2350 C2346 1.368 . S
C2350 C2349 1.523 . S
H2351 C2326 0.950 . S
H2352 C2328 0.950 . S
H2353 C2329 0.949 . S
H2354 C2331 0.950 . S
H2355 C2333 0.950 . S
C2356 C2357 1.349 . S
C2356 C2358 1.327 . S
C2356 H2381 0.950 . S
C2357 C2356 1.349 . S
C2357 C2373 1.349 . S
C2358 C2356 1.327 . S
C2358 C2377 1.429 . S
C2358 H2382 0.950 . S
C2359 C2376 1.574 . S
C2359 C2378 1.368 . S
C2359 H2383 0.949 . S
H2360 C2364 0.949 . S
C2361 C2362 1.349 . S
C2361 C2363 1.327 . S
C2361 H2384 0.950 . S
C2362 C2361 1.349 . S
C2362 C2374 1.349 . S
C2363 C2361 1.327 . S
C2363 C2379 1.429 . S
C2363 H2385 0.950 . S
C2364 H2360 0.949 . S
C2364 C2372 1.574 . S
C2364 C2380 1.368 . S
H2365 C2373 0.950 . S
H2366 C2371 0.950 . S
H2367 C2372 0.949 . S
H2368 C2374 0.950 . S
H2369 C2375 0.950 . S
H2370 C2376 0.949 . S
C2371 H2366 0.950 . S
C2371 C2373 1.327 . S
C2371 C2377 1.429 . S
C2372 C2364 1.574 . S
C2372 H2367 0.949 . S
C2372 C2378 1.368 . S
C2373 C2357 1.349 . S
C2373 H2365 0.950 . S
C2373 C2371 1.327 . S
C2374 C2362 1.349 . S
C2374 H2368 0.950 . S
C2374 C2375 1.327 . S
C2375 H2369 0.950 . S
C2375 C2374 1.327 . S
C2375 C2379 1.429 . S
C2376 C2359 1.574 . S
C2376 H2370 0.949 . S
C2376 C2380 1.368 . S
C2377 C2358 1.429 . S
C2377 C2371 1.429 . S
C2377 C2378 1.523 . S
C2378 C2359 1.368 . S
C2378 C2372 1.368 . S
C2378 C2377 1.523 . S
C2379 C2363 1.429 . S
C2379 C2375 1.429 . S
C2379 C2380 1.523 . S
C2380 C2364 1.368 . S
C2380 C2376 1.368 . S
C2380 C2379 1.523 . S
H2381 C2356 0.950 . S
H2382 C2358 0.950 . S
H2383 C2359 0.949 . S
H2384 C2361 0.950 . S
H2385 C2363 0.950 . S
C2386 C2387 1.349 . S
C2386 C2388 1.327 . S
C2386 H2411 0.950 . S
C2387 C2386 1.349 . S
C2387 C2403 1.349 . S
C2388 C2386 1.327 . S
C2388 C2407 1.429 . S
C2388 H2412 0.950 . S
C2389 C2406 1.574 . S
C2389 C2408 1.368 . S
C2389 H2413 0.949 . S
H2390 C2394 0.949 . S
C2391 C2392 1.349 . S
C2391 C2393 1.327 . S
C2391 H2414 0.950 . S
C2392 C2391 1.349 . S
C2392 C2404 1.349 . S
C2393 C2391 1.327 . S
C2393 C2409 1.429 . S
C2393 H2415 0.950 . S
C2394 H2390 0.949 . S
C2394 C2402 1.574 . S
C2394 C2410 1.368 . S
H2395 C2403 0.950 . S
H2396 C2401 0.950 . S
H2397 C2402 0.949 . S
H2398 C2404 0.950 . S
H2399 C2405 0.950 . S
H2400 C2406 0.949 . S
C2401 H2396 0.950 . S
C2401 C2403 1.327 . S
C2401 C2407 1.429 . S
C2402 C2394 1.574 . S
C2402 H2397 0.949 . S
C2402 C2408 1.368 . S
C2403 C2387 1.349 . S
C2403 H2395 0.950 . S
C2403 C2401 1.327 . S
C2404 C2392 1.349 . S
C2404 H2398 0.950 . S
C2404 C2405 1.327 . S
C2405 H2399 0.950 . S
C2405 C2404 1.327 . S
C2405 C2409 1.429 . S
C2406 C2389 1.574 . S
C2406 H2400 0.949 . S
C2406 C2410 1.368 . S
C2407 C2388 1.429 . S
C2407 C2401 1.429 . S
C2407 C2408 1.523 . S
C2408 C2389 1.368 . S
C2408 C2402 1.368 . S
C2408 C2407 1.523 . S
C2409 C2393 1.429 . S
C2409 C2405 1.429 . S
C2409 C2410 1.523 . S
C2410 C2394 1.368 . S
C2410 C2406 1.368 . S
C2410 C2409 1.523 . S
H2411 C2386 0.950 . S
H2412 C2388 0.950 . S
H2413 C2389 0.949 . S
H2414 C2391 0.950 . S
H2415 C2393 0.950 . S
C2416 C2417 1.349 . S
C2416 C2418 1.327 . S
C2416 H2441 0.950 . S
C2417 C2416 1.349 . S
C2417 C2433 1.349 . S
C2418 C2416 1.327 . S
C2418 C2437 1.429 . S
C2418 H2442 0.950 . S
C2419 C2436 1.574 . S
C2419 C2438 1.368 . S
C2419 H2443 0.949 . S
H2420 C2424 0.949 . S
C2421 C2422 1.349 . S
C2421 C2423 1.327 . S
C2421 H2444 0.950 . S
C2422 C2421 1.349 . S
C2422 C2434 1.349 . S
C2423 C2421 1.327 . S
C2423 C2439 1.429 . S
C2423 H2445 0.950 . S
C2424 H2420 0.949 . S
C2424 C2432 1.574 . S
C2424 C2440 1.368 . S
H2425 C2433 0.950 . S
H2426 C2431 0.950 . S
H2427 C2432 0.949 . S
H2428 C2434 0.950 . S
H2429 C2435 0.950 . S
H2430 C2436 0.949 . S
C2431 H2426 0.950 . S
C2431 C2433 1.327 . S
C2431 C2437 1.429 . S
C2432 C2424 1.574 . S
C2432 H2427 0.949 . S
C2432 C2438 1.368 . S
C2433 C2417 1.349 . S
C2433 H2425 0.950 . S
C2433 C2431 1.327 . S
C2434 C2422 1.349 . S
C2434 H2428 0.950 . S
C2434 C2435 1.327 . S
C2435 H2429 0.950 . S
C2435 C2434 1.327 . S
C2435 C2439 1.429 . S
C2436 C2419 1.574 . S
C2436 H2430 0.949 . S
C2436 C2440 1.368 . S
C2437 C2418 1.429 . S
C2437 C2431 1.429 . S
C2437 C2438 1.523 . S
C2438 C2419 1.368 . S
C2438 C2432 1.368 . S
C2438 C2437 1.523 . S
C2439 C2423 1.429 . S
C2439 C2435 1.429 . S
C2439 C2440 1.523 . S
C2440 C2424 1.368 . S
C2440 C2436 1.368 . S
C2440 C2439 1.523 . S
H2441 C2416 0.950 . S
H2442 C2418 0.950 . S
H2443 C2419 0.949 . S
H2444 C2421 0.950 . S
H2445 C2423 0.950 . S
C2446 C2447 1.349 . S
C2446 C2448 1.327 . S
C2446 H2471 0.950 . S
C2447 C2446 1.349 . S
C2447 C2463 1.349 . S
C2448 C2446 1.327 . S
C2448 C2467 1.429 . S
C2448 H2472 0.950 . S
C2449 C2466 1.574 . S
C2449 C2468 1.368 . S
C2449 H2473 0.949 . S
H2450 C2454 0.949 . S
C2451 C2452 1.349 . S
C2451 C2453 1.327 . S
C2451 H2474 0.950 . S
C2452 C2451 1.349 . S
C2452 C2464 1.349 . S
C2453 C2451 1.327 . S
C2453 C2469 1.429 . S
C2453 H2475 0.950 . S
C2454 H2450 0.949 . S
C2454 C2462 1.574 . S
C2454 C2470 1.368 . S
H2455 C2463 0.950 . S
H2456 C2461 0.950 . S
H2457 C2462 0.949 . S
H2458 C2464 0.950 . S
H2459 C2465 0.950 . S
H2460 C2466 0.949 . S
C2461 H2456 0.950 . S
C2461 C2463 1.327 . S
C2461 C2467 1.429 . S
C2462 C2454 1.574 . S
C2462 H2457 0.949 . S
C2462 C2468 1.368 . S
C2463 C2447 1.349 . S
C2463 H2455 0.950 . S
C2463 C2461 1.327 . S
C2464 C2452 1.349 . S
C2464 H2458 0.950 . S
C2464 C2465 1.327 . S
C2465 H2459 0.950 . S
C2465 C2464 1.327 . S
C2465 C2469 1.429 . S
C2466 C2449 1.574 . S
C2466 H2460 0.949 . S
C2466 C2470 1.368 . S
C2467 C2448 1.429 . S
C2467 C2461 1.429 . S
C2467 C2468 1.523 . S
C2468 C2449 1.368 . S
C2468 C2462 1.368 . S
C2468 C2467 1.523 . S
C2469 C2453 1.429 . S
C2469 C2465 1.429 . S
C2469 C2470 1.523 . S
C2470 C2454 1.368 . S
C2470 C2466 1.368 . S
C2470 C2469 1.523 . S
H2471 C2446 0.950 . S
H2472 C2448 0.950 . S
H2473 C2449 0.949 . S
H2474 C2451 0.950 . S
H2475 C2453 0.950 . S
C2476 C2477 1.349 . S
C2476 C2478 1.327 . S
C2476 H2501 0.950 . S
C2477 C2476 1.349 . S
C2477 C2493 1.349 . S
C2478 C2476 1.327 . S
C2478 C2497 1.429 . S
C2478 H2502 0.950 . S
C2479 C2496 1.574 . S
C2479 C2498 1.368 . S
C2479 H2503 0.949 . S
H2480 C2484 0.949 . S
C2481 C2482 1.349 . S
C2481 C2483 1.327 . S
C2481 H2504 0.950 . S
C2482 C2481 1.349 . S
C2482 C2494 1.349 . S
C2483 C2481 1.327 . S
C2483 C2499 1.429 . S
C2483 H2505 0.950 . S
C2484 H2480 0.949 . S
C2484 C2492 1.574 . S
C2484 C2500 1.368 . S
H2485 C2493 0.950 . S
H2486 C2491 0.950 . S
H2487 C2492 0.949 . S
H2488 C2494 0.950 . S
H2489 C2495 0.950 . S
H2490 C2496 0.949 . S
C2491 H2486 0.950 . S
C2491 C2493 1.327 . S
C2491 C2497 1.429 . S
C2492 C2484 1.574 . S
C2492 H2487 0.949 . S
C2492 C2498 1.368 . S
C2493 C2477 1.349 . S
C2493 H2485 0.950 . S
C2493 C2491 1.327 . S
C2494 C2482 1.349 . S
C2494 H2488 0.950 . S
C2494 C2495 1.327 . S
C2495 H2489 0.950 . S
C2495 C2494 1.327 . S
C2495 C2499 1.429 . S
C2496 C2479 1.574 . S
C2496 H2490 0.949 . S
C2496 C2500 1.368 . S
C2497 C2478 1.429 . S
C2497 C2491 1.429 . S
C2497 C2498 1.523 . S
C2498 C2479 1.368 . S
C2498 C2492 1.368 . S
C2498 C2497 1.523 . S
C2499 C2483 1.429 . S
C2499 C2495 1.429 . S
C2499 C2500 1.523 . S
C2500 C2484 1.368 . S
C2500 C2496 1.368 . S
C2500 C2499 1.523 . S
H2501 C2476 0.950 . S
H2502 C2478 0.950 . S
H2503 C2479 0.949 . S
H2504 C2481 0.950 . S
H2505 C2483 0.950 . S
C2506 C2507 1.349 . S
C2506 C2508 1.327 . S
C2506 H2531 0.950 . S
C2507 C2506 1.349 . S
C2507 C2523 1.349 . S
C2508 C2506 1.327 . S
C2508 C2527 1.429 . S
C2508 H2532 0.950 . S
C2509 C2526 1.574 . S
C2509 C2528 1.368 . S
C2509 H2533 0.949 . S
H2510 C2514 0.949 . S
C2511 C2512 1.349 . S
C2511 C2513 1.327 . S
C2511 H2534 0.950 . S
C2512 C2511 1.349 . S
C2512 C2524 1.349 . S
C2513 C2511 1.327 . S
C2513 C2529 1.429 . S
C2513 H2535 0.950 . S
C2514 H2510 0.949 . S
C2514 C2522 1.574 . S
C2514 C2530 1.368 . S
H2515 C2523 0.950 . S
H2516 C2521 0.950 . S
H2517 C2522 0.949 . S
H2518 C2524 0.950 . S
H2519 C2525 0.950 . S
H2520 C2526 0.949 . S
C2521 H2516 0.950 . S
C2521 C2523 1.327 . S
C2521 C2527 1.429 . S
C2522 C2514 1.574 . S
C2522 H2517 0.949 . S
C2522 C2528 1.368 . S
C2523 C2507 1.349 . S
C2523 H2515 0.950 . S
C2523 C2521 1.327 . S
C2524 C2512 1.349 . S
C2524 H2518 0.950 . S
C2524 C2525 1.327 . S
C2525 H2519 0.950 . S
C2525 C2524 1.327 . S
C2525 C2529 1.429 . S
C2526 C2509 1.574 . S
C2526 H2520 0.949 . S
C2526 C2530 1.368 . S
C2527 C2508 1.429 . S
C2527 C2521 1.429 . S
C2527 C2528 1.523 . S
C2528 C2509 1.368 . S
C2528 C2522 1.368 . S
C2528 C2527 1.523 . S
C2529 C2513 1.429 . S
C2529 C2525 1.429 . S
C2529 C2530 1.523 . S
C2530 C2514 1.368 . S
C2530 C2526 1.368 . S
C2530 C2529 1.523 . S
H2531 C2506 0.950 . S
H2532 C2508 0.950 . S
H2533 C2509 0.949 . S
H2534 C2511 0.950 . S
H2535 C2513 0.950 . S
C2536 C2537 1.349 . S
C2536 C2538 1.327 . S
C2536 H2561 0.950 . S
C2537 C2536 1.349 . S
C2537 C2553 1.349 . S
C2538 C2536 1.327 . S
C2538 C2557 1.429 . S
C2538 H2562 0.950 . S
C2539 C2556 1.574 . S
C2539 C2558 1.368 . S
C2539 H2563 0.949 . S
H2540 C2544 0.949 . S
C2541 C2542 1.349 . S
C2541 C2543 1.327 . S
C2541 H2564 0.950 . S
C2542 C2541 1.349 . S
C2542 C2554 1.349 . S
C2543 C2541 1.327 . S
C2543 C2559 1.429 . S
C2543 H2565 0.950 . S
C2544 H2540 0.949 . S
C2544 C2552 1.574 . S
C2544 C2560 1.368 . S
H2545 C2553 0.950 . S
H2546 C2551 0.950 . S
H2547 C2552 0.949 . S
H2548 C2554 0.950 . S
H2549 C2555 0.950 . S
H2550 C2556 0.949 . S
C2551 H2546 0.950 . S
C2551 C2553 1.327 . S
C2551 C2557 1.429 . S
C2552 C2544 1.574 . S
C2552 H2547 0.949 . S
C2552 C2558 1.368 . S
C2553 C2537 1.349 . S
C2553 H2545 0.950 . S
C2553 C2551 1.327 . S
C2554 C2542 1.349 . S
C2554 H2548 0.950 . S
C2554 C2555 1.327 . S
C2555 H2549 0.950 . S
C2555 C2554 1.327 . S
C2555 C2559 1.429 . S
C2556 C2539 1.574 . S
C2556 H2550 0.949 . S
C2556 C2560 1.368 . S
C2557 C2538 1.429 . S
C2557 C2551 1.429 . S
C2557 C2558 1.523 . S
C2558 C2539 1.368 . S
C2558 C2552 1.368 . S
C2558 C2557 1.523 . S
C2559 C2543 1.429 . S
C2559 C2555 1.429 . S
C2559 C2560 1.523 . S
C2560 C2544 1.368 . S
C2560 C2556 1.368 . S
C2560 C2559 1.523 . S
H2561 C2536 0.950 . S
H2562 C2538 0.950 . S
H2563 C2539 0.949 . S
H2564 C2541 0.950 . S
H2565 C2543 0.950 . S
C2566 C2567 1.349 . S
C2566 C2568 1.327 . S
C2566 H2591 0.950 . S
C2567 C2566 1.349 . S
C2567 C2583 1.349 . S
C2568 C2566 1.327 . S
C2568 C2587 1.429 . S
C2568 H2592 0.950 . S
C2569 C2586 1.574 . S
C2569 C2588 1.368 . S
C2569 H2593 0.949 . S
H2570 C2574 0.949 . S
C2571 C2572 1.349 . S
C2571 C2573 1.327 . S
C2571 H2594 0.950 . S
C2572 C2571 1.349 . S
C2572 C2584 1.349 . S
C2573 C2571 1.327 . S
C2573 C2589 1.429 . S
C2573 H2595 0.950 . S
C2574 H2570 0.949 . S
C2574 C2582 1.574 . S
C2574 C2590 1.368 . S
H2575 C2583 0.950 . S
H2576 C2581 0.950 . S
H2577 C2582 0.949 . S
H2578 C2584 0.950 . S
H2579 C2585 0.950 . S
H2580 C2586 0.949 . S
C2581 H2576 0.950 . S
C2581 C2583 1.327 . S
C2581 C2587 1.429 . S
C2582 C2574 1.574 . S
C2582 H2577 0.949 . S
C2582 C2588 1.368 . S
C2583 C2567 1.349 . S
C2583 H2575 0.950 . S
C2583 C2581 1.327 . S
C2584 C2572 1.349 . S
C2584 H2578 0.950 . S
C2584 C2585 1.327 . S
C2585 H2579 0.950 . S
C2585 C2584 1.327 . S
C2585 C2589 1.429 . S
C2586 C2569 1.574 . S
C2586 H2580 0.949 . S
C2586 C2590 1.368 . S
C2587 C2568 1.429 . S
C2587 C2581 1.429 . S
C2587 C2588 1.523 . S
C2588 C2569 1.368 . S
C2588 C2582 1.368 . S
C2588 C2587 1.523 . S
C2589 C2573 1.429 . S
C2589 C2585 1.429 . S
C2589 C2590 1.523 . S
C2590 C2574 1.368 . S
C2590 C2586 1.368 . S
C2590 C2589 1.523 . S
H2591 C2566 0.950 . S
H2592 C2568 0.950 . S
H2593 C2569 0.949 . S
H2594 C2571 0.950 . S
H2595 C2573 0.950 . S
C2596 C2597 1.349 . S
C2596 C2598 1.327 . S
C2596 H2621 0.950 . S
C2597 C2596 1.349 . S
C2597 C2613 1.349 . S
C2598 C2596 1.327 . S
C2598 C2617 1.429 . S
C2598 H2622 0.950 . S
C2599 C2616 1.574 . S
C2599 C2618 1.368 . S
C2599 H2623 0.949 . S
H2600 C2604 0.949 . S
C2601 C2602 1.349 . S
C2601 C2603 1.327 . S
C2601 H2624 0.950 . S
C2602 C2601 1.349 . S
C2602 C2614 1.349 . S
C2603 C2601 1.327 . S
C2603 C2619 1.429 . S
C2603 H2625 0.950 . S
C2604 H2600 0.949 . S
C2604 C2612 1.574 . S
C2604 C2620 1.368 . S
H2605 C2613 0.950 . S
H2606 C2611 0.950 . S
H2607 C2612 0.949 . S
H2608 C2614 0.950 . S
H2609 C2615 0.950 . S
H2610 C2616 0.949 . S
C2611 H2606 0.950 . S
C2611 C2613 1.327 . S
C2611 C2617 1.429 . S
C2612 C2604 1.574 . S
C2612 H2607 0.949 . S
C2612 C2618 1.368 . S
C2613 C2597 1.349 . S
C2613 H2605 0.950 . S
C2613 C2611 1.327 . S
C2614 C2602 1.349 . S
C2614 H2608 0.950 . S
C2614 C2615 1.327 . S
C2615 H2609 0.950 . S
C2615 C2614 1.327 . S
C2615 C2619 1.429 . S
C2616 C2599 1.574 . S
C2616 H2610 0.949 . S
C2616 C2620 1.368 . S
C2617 C2598 1.429 . S
C2617 C2611 1.429 . S
C2617 C2618 1.523 . S
C2618 C2599 1.368 . S
C2618 C2612 1.368 . S
C2618 C2617 1.523 . S
C2619 C2603 1.429 . S
C2619 C2615 1.429 . S
C2619 C2620 1.523 . S
C2620 C2604 1.368 . S
C2620 C2616 1.368 . S
C2620 C2619 1.523 . S
H2621 C2596 0.950 . S
H2622 C2598 0.950 . S
H2623 C2599 0.949 . S
H2624 C2601 0.950 . S
H2625 C2603 0.950 . S
C2626 C2627 1.349 . S
C2626 C2628 1.327 . S
C2626 H2651 0.950 . S
C2627 C2626 1.349 . S
C2627 C2643 1.349 . S
C2628 C2626 1.327 . S
C2628 C2647 1.429 . S
C2628 H2652 0.950 . S
C2629 C2646 1.574 . S
C2629 C2648 1.368 . S
C2629 H2653 0.949 . S
H2630 C2634 0.949 . S
C2631 C2632 1.349 . S
C2631 C2633 1.327 . S
C2631 H2654 0.950 . S
C2632 C2631 1.349 . S
C2632 C2644 1.349 . S
C2633 C2631 1.327 . S
C2633 C2649 1.429 . S
C2633 H2655 0.950 . S
C2634 H2630 0.949 . S
C2634 C2642 1.574 . S
C2634 C2650 1.368 . S
H2635 C2643 0.950 . S
H2636 C2641 0.950 . S
H2637 C2642 0.949 . S
H2638 C2644 0.950 . S
H2639 C2645 0.950 . S
H2640 C2646 0.949 . S
C2641 H2636 0.950 . S
C2641 C2643 1.327 . S
C2641 C2647 1.429 . S
C2642 C2634 1.574 . S
C2642 H2637 0.949 . S
C2642 C2648 1.368 . S
C2643 C2627 1.349 . S
C2643 H2635 0.950 . S
C2643 C2641 1.327 . S
C2644 C2632 1.349 . S
C2644 H2638 0.950 . S
C2644 C2645 1.327 . S
C2645 H2639 0.950 . S
C2645 C2644 1.327 . S
C2645 C2649 1.429 . S
C2646 C2629 1.574 . S
C2646 H2640 0.949 . S
C2646 C2650 1.368 . S
C2647 C2628 1.429 . S
C2647 C2641 1.429 . S
C2647 C2648 1.523 . S
C2648 C2629 1.368 . S
C2648 C2642 1.368 . S
C2648 C2647 1.523 . S
C2649 C2633 1.429 . S
C2649 C2645 1.429 . S
C2649 C2650 1.523 . S
C2650 C2634 1.368 . S
C2650 C2646 1.368 . S
C2650 C2649 1.523 . S
H2651 C2626 0.950 . S
H2652 C2628 0.950 . S
H2653 C2629 0.949 . S
H2654 C2631 0.950 . S
H2655 C2633 0.950 . S
C737 N347 2.033 . S
C742 N2 2.033 . S
C767 N25 2.033 . S
C772 N278 2.033 . S
C797 N48 2.033 . S
C802 N301 2.033 . S
C827 N324 2.033 . S
C832 N71 2.033 . S
C857 N94 2.033 . S
C862 N209 2.033 . S
C887 N117 2.033 . S
C892 N232 2.033 . S
C917 N255 2.033 . S
C922 N140 2.033 . S
C947 N186 2.033 . S
C952 N163 2.033 . S
C977 N370 2.033 . S
C982 N715 2.033 . S
C1007 N393 2.033 . S
C1012 N646 2.033 . S
C1037 N416 2.033 . S
C1042 N669 2.033 . S
C1067 N692 2.033 . S
C1072 N439 2.033 . S
C1097 N462 2.033 . S
C1102 N577 2.033 . S
C1127 N485 2.033 . S
C1132 N600 2.033 . S
C1157 N623 2.033 . S
C1162 N508 2.033 . S
C1187 N531 2.033 . S
C1192 N554 2.033 . S
C1217 N288 2.123 . S
C1222 N12 2.123 . S
C1247 N35 2.123 . S
C1252 N311 2.123 . S
C1277 N334 2.123 . S
C1282 N58 2.123 . S
C1307 N81 2.123 . S
C1312 N357 2.123 . S
C1337 N104 2.123 . S
C1342 N196 2.123 . S
C1367 N219 2.123 . S
C1372 N127 2.123 . S
C1397 N242 2.123 . S
C1402 N150 2.123 . S
C1427 N265 2.123 . S
C1432 N173 2.123 . S
C1457 N380 2.123 . S
C1462 N656 2.123 . S
C1487 N679 2.123 . S
C1492 N403 2.123 . S
C1517 N426 2.123 . S
C1522 N702 2.123 . S
C1547 N449 2.123 . S
C1552 N725 2.123 . S
C1577 N564 2.123 . S
C1582 N472 2.123 . S
C1607 N495 2.123 . S
C1612 N587 2.123 . S
C1637 N518 2.123 . S
C1642 N610 2.123 . S
C1667 N541 2.123 . S
C1672 N633 2.123 . S
C1697 C7 1.594 . S
C1702 C237 1.594 . S
C1727 C260 1.594 . S
C1732 C30 1.594 . S
C1757 C53 1.594 . S
C1762 C191 1.594 . S
C1787 C214 1.594 . S
C1792 C76 1.594 . S
C1817 C329 1.594 . S
C1822 C99 1.594 . S
C1847 C352 1.594 . S
C1852 C122 1.594 . S
C1877 C283 1.594 . S
C1882 C145 1.594 . S
C1907 C168 1.594 . S
C1912 C306 1.594 . S
C1937 C605 1.594 . S
C1942 C375 1.594 . S
C1967 C398 1.594 . S
C1972 C628 1.594 . S
C1997 C559 1.594 . S
C2002 C421 1.594 . S
C2027 C582 1.594 . S
C2032 C444 1.594 . S
C2057 C467 1.594 . S
C2062 C697 1.594 . S
C2087 C490 1.594 . S
C2092 C720 1.594 . S
C2117 C651 1.594 . S
C2122 C513 1.594 . S
C2147 C674 1.594 . S
C2152 C536 1.594 . S
C2177 C545 1.555 . S
C2182 C16 1.555 . S
C2207 C476 1.555 . S
C2212 C39 1.555 . S
C2237 C499 1.555 . S
C2242 C62 1.555 . S
C2267 C522 1.555 . S
C2272 C85 1.555 . S
C2297 C407 1.555 . S
C2302 C108 1.555 . S
C2327 C131 1.555 . S
C2332 C430 1.555 . S
C2357 C154 1.555 . S
C2362 C453 1.555 . S
C2387 C177 1.555 . S
C2392 C384 1.555 . S
C2417 C200 1.555 . S
C2422 C729 1.555 . S
C2447 C660 1.555 . S
C2452 C223 1.555 . S
C2477 C246 1.555 . S
C2482 C683 1.555 . S
C2507 C269 1.555 . S
C2512 C706 1.555 . S
C2537 C591 1.555 . S
C2542 C292 1.555 . S
C2567 C614 1.555 . S
C2572 C315 1.555 . S
C2597 C338 1.555 . S
C2602 C637 1.555 . S
C2627 C361 1.555 . S
C2632 C568 1.555 . S
