# Generated by pormake.
# Topology whz, (6)-cn, num edge types: 1
# Building blocks:
#     Node 0, Type 0, BuildingBlock: FUNLAD_clean_sbu_0, # of connection points: 6
#     Node 1, Type 0, BuildingBlock: FUNLAD_clean_sbu_0, # of connection points: 6
#     Node 2, Type 0, BuildingBlock: FUNLAD_clean_sbu_0, # of connection points: 6
#     Node 3, Type 0, BuildingBlock: FUNLAD_clean_sbu_0, # of connection points: 6
#     Node 4, Type 0, BuildingBlock: FUNLAD_clean_sbu_0, # of connection points: 6
#     Node 5, Type 0, BuildingBlock: FUNLAD_clean_sbu_0, # of connection points: 6
#     Node 6, Type 0, BuildingBlock: FUNLAD_clean_sbu_0, # of connection points: 6
#     Node 7, Type 0, BuildingBlock: FUNLAD_clean_sbu_0, # of connection points: 6
#     Node 8, Type 0, BuildingBlock: FUNLAD_clean_sbu_0, # of connection points: 6
#     Node 9, Type 0, BuildingBlock: FUNLAD_clean_sbu_0, # of connection points: 6
#     Node 10, Type 0, BuildingBlock: FUNLAD_clean_sbu_0, # of connection points: 6
#     Node 11, Type 0, BuildingBlock: FUNLAD_clean_sbu_0, # of connection points: 6
#     Node 12, Type 0, BuildingBlock: FUNLAD_clean_sbu_0, # of connection points: 6
#     Node 13, Type 0, BuildingBlock: FUNLAD_clean_sbu_0, # of connection points: 6
#     Node 14, Type 0, BuildingBlock: FUNLAD_clean_sbu_0, # of connection points: 6
#     Node 15, Type 0, BuildingBlock: FUNLAD_clean_sbu_0, # of connection points: 6
#     Edge 16, Type (0, 0), BuildingBlock: XUDNAN_clean_linker_2, # of connection points: 2
#     Edge 17, Type (0, 0), BuildingBlock: XUDNAN_clean_linker_2, # of connection points: 2
#     Edge 18, Type (0, 0), BuildingBlock: XUDNAN_clean_linker_2, # of connection points: 2
#     Edge 19, Type (0, 0), BuildingBlock: XUDNAN_clean_linker_2, # of connection points: 2
#     Edge 20, Type (0, 0), BuildingBlock: XUDNAN_clean_linker_2, # of connection points: 2
#     Edge 21, Type (0, 0), BuildingBlock: XUDNAN_clean_linker_2, # of connection points: 2
#     Edge 22, Type (0, 0), BuildingBlock: XUDNAN_clean_linker_2, # of connection points: 2
#     Edge 23, Type (0, 0), BuildingBlock: XUDNAN_clean_linker_2, # of connection points: 2
#     Edge 24, Type (0, 0), BuildingBlock: XUDNAN_clean_linker_2, # of connection points: 2
#     Edge 25, Type (0, 0), BuildingBlock: XUDNAN_clean_linker_2, # of connection points: 2
#     Edge 26, Type (0, 0), BuildingBlock: XUDNAN_clean_linker_2, # of connection points: 2
#     Edge 27, Type (0, 0), BuildingBlock: XUDNAN_clean_linker_2, # of connection points: 2
#     Edge 28, Type (0, 0), BuildingBlock: XUDNAN_clean_linker_2, # of connection points: 2
#     Edge 29, Type (0, 0), BuildingBlock: XUDNAN_clean_linker_2, # of connection points: 2
#     Edge 30, Type (0, 0), BuildingBlock: XUDNAN_clean_linker_2, # of connection points: 2
#     Edge 31, Type (0, 0), BuildingBlock: XUDNAN_clean_linker_2, # of connection points: 2
#     Edge 32, Type (0, 0), BuildingBlock: XUDNAN_clean_linker_2, # of connection points: 2
#     Edge 33, Type (0, 0), BuildingBlock: XUDNAN_clean_linker_2, # of connection points: 2
#     Edge 34, Type (0, 0), BuildingBlock: XUDNAN_clean_linker_2, # of connection points: 2
#     Edge 35, Type (0, 0), BuildingBlock: XUDNAN_clean_linker_2, # of connection points: 2
#     Edge 36, Type (0, 0), BuildingBlock: XUDNAN_clean_linker_2, # of connection points: 2
#     Edge 37, Type (0, 0), BuildingBlock: XUDNAN_clean_linker_2, # of connection points: 2
#     Edge 38, Type (0, 0), BuildingBlock: XUDNAN_clean_linker_2, # of connection points: 2
#     Edge 39, Type (0, 0), BuildingBlock: XUDNAN_clean_linker_2, # of connection points: 2
#     Edge 40, Type (0, 0), BuildingBlock: XUDNAN_clean_linker_2, # of connection points: 2
#     Edge 41, Type (0, 0), BuildingBlock: XUDNAN_clean_linker_2, # of connection points: 2
#     Edge 42, Type (0, 0), BuildingBlock: XUDNAN_clean_linker_2, # of connection points: 2
#     Edge 43, Type (0, 0), BuildingBlock: XUDNAN_clean_linker_2, # of connection points: 2
#     Edge 44, Type (0, 0), BuildingBlock: XUDNAN_clean_linker_2, # of connection points: 2
#     Edge 45, Type (0, 0), BuildingBlock: XUDNAN_clean_linker_2, # of connection points: 2
#     Edge 46, Type (0, 0), BuildingBlock: XUDNAN_clean_linker_2, # of connection points: 2
#     Edge 47, Type (0, 0), BuildingBlock: XUDNAN_clean_linker_2, # of connection points: 2
#     Edge 48, Type (0, 0), BuildingBlock: XUDNAN_clean_linker_2, # of connection points: 2
#     Edge 49, Type (0, 0), BuildingBlock: XUDNAN_clean_linker_2, # of connection points: 2
#     Edge 50, Type (0, 0), BuildingBlock: XUDNAN_clean_linker_2, # of connection points: 2
#     Edge 51, Type (0, 0), BuildingBlock: XUDNAN_clean_linker_2, # of connection points: 2
#     Edge 52, Type (0, 0), BuildingBlock: XUDNAN_clean_linker_2, # of connection points: 2
#     Edge 53, Type (0, 0), BuildingBlock: XUDNAN_clean_linker_2, # of connection points: 2
#     Edge 54, Type (0, 0), BuildingBlock: XUDNAN_clean_linker_2, # of connection points: 2
#     Edge 55, Type (0, 0), BuildingBlock: XUDNAN_clean_linker_2, # of connection points: 2
#     Edge 56, Type (0, 0), BuildingBlock: XUDNAN_clean_linker_2, # of connection points: 2
#     Edge 57, Type (0, 0), BuildingBlock: XUDNAN_clean_linker_2, # of connection points: 2
#     Edge 58, Type (0, 0), BuildingBlock: XUDNAN_clean_linker_2, # of connection points: 2
#     Edge 59, Type (0, 0), BuildingBlock: XUDNAN_clean_linker_2, # of connection points: 2
#     Edge 60, Type (0, 0), BuildingBlock: XUDNAN_clean_linker_2, # of connection points: 2
#     Edge 61, Type (0, 0), BuildingBlock: XUDNAN_clean_linker_2, # of connection points: 2
#     Edge 62, Type (0, 0), BuildingBlock: XUDNAN_clean_linker_2, # of connection points: 2
#     Edge 63, Type (0, 0), BuildingBlock: XUDNAN_clean_linker_2, # of connection points: 2
# Relax obj value: 0.652
# Max RMSD: 0.291
# Mean RMSD: 0.291
data_MOF--net-whz--node1-FUNLAD_clean_sbu_0--edge1-XUDNAN_clean_linker_2
_symmetry_space_group_name_H-M    P1
_symmetry_Int_Tables_number       1
_symmetry_cell_setting            triclinic
loop_
_symmetry_equiv_pos_as_xyz
'x, y, z'
_cell_length_a     37.973952
_cell_length_b     37.940772
_cell_length_c     56.66715
_cell_angle_alpha  90.018363
_cell_angle_beta   89.986002
_cell_angle_gamma 90.023024
loop_
_atom_site_label
_atom_site_type_symbol
_atom_site_fract_x
_atom_site_fract_y
_atom_site_fract_z
_atom_type_partial_charge
C0 C 0.31866 0.12681 0.09895 0.0
N1 N 0.2785 0.22366 0.11943 0.0
C2 C 0.29002 0.23648 0.09838 0.0
C3 C 0.27338 0.2655 0.08813 0.0
C4 C 0.24506 0.28169 0.09989 0.0
C5 C 0.23392 0.26769 0.12159 0.0
C6 C 0.25071 0.23836 0.13087 0.0
Zn7 Zn 0.30141 0.18146 0.13491 0.0
C8 C 0.2508 0.12895 0.14931 0.0
N9 N 0.34837 0.09163 0.16857 0.0
C10 C 0.37318 0.06792 0.16139 0.0
C11 C 0.3294 0.0858 0.18863 0.0
C12 C 0.33386 0.05536 0.20177 0.0
C13 C 0.35824 0.03 0.1946 0.0
C14 C 0.37887 0.03675 0.17445 0.0
Zn15 Zn 0.33009 0.1357 0.1504 0.0
O16 O 0.30602 0.15724 0.10239 0.0
C17 C 0.38081 0.19002 0.13651 0.0
O18 O 0.33164 0.10943 0.11619 0.0
H19 H 0.30935 0.10411 0.19423 0.0
H20 H 0.31211 0.22424 0.08956 0.0
H21 H 0.38779 0.07262 0.14531 0.0
O22 O 0.35144 0.20408 0.1312 0.0
O23 O 0.38135 0.15875 0.1449 0.0
H24 H 0.24164 0.22754 0.14744 0.0
O25 O 0.32625 0.16301 0.18352 0.0
O26 O 0.29599 0.20591 0.16775 0.0
O27 O 0.27929 0.11469 0.15574 0.0
O28 O 0.25141 0.15831 0.13874 0.0
C29 C 0.30908 0.19153 0.18584 0.0
H30 H 0.28269 0.27514 0.07126 0.0
H31 H 0.21295 0.27967 0.13174 0.0
H32 H 0.31791 0.05151 0.21743 0.0
H33 H 0.39823 0.01776 0.16851 0.0
C34 C 0.61081 0.5819 0.34402 0.0
N35 N 0.5253 0.53255 0.37709 0.0
C36 C 0.50534 0.53814 0.35749 0.0
C37 C 0.47879 0.5141 0.35138 0.0
C38 C 0.47334 0.48412 0.36552 0.0
C39 C 0.4937 0.47974 0.38586 0.0
C40 C 0.51955 0.50416 0.39128 0.0
Zn41 Zn 0.56842 0.56181 0.38611 0.0
C42 C 0.62786 0.51146 0.39461 0.0
N43 N 0.66411 0.6118 0.40898 0.0
C44 C 0.66026 0.6335 0.42795 0.0
C45 C 0.69587 0.59673 0.40409 0.0
C46 C 0.72382 0.59962 0.42012 0.0
C47 C 0.7193 0.61884 0.4411 0.0
C48 C 0.68768 0.63755 0.44422 0.0
Zn49 Zn 0.61885 0.58799 0.39623 0.0
O50 O 0.58301 0.56677 0.3512 0.0
C51 C 0.5564 0.63737 0.39014 0.0
O52 O 0.6328 0.59439 0.35897 0.0
H53 H 0.69853 0.57942 0.38903 0.0
H54 H 0.51051 0.56071 0.34634 0.0
H55 H 0.63471 0.64461 0.43192 0.0
O56 O 0.54128 0.6088 0.38426 0.0
O57 O 0.58909 0.63718 0.39561 0.0
H58 H 0.53567 0.49966 0.40668 0.0
O59 O 0.60387 0.57901 0.43258 0.0
O60 O 0.55349 0.55776 0.42069 0.0
O61 O 0.64601 0.53911 0.39745 0.0
O62 O 0.59576 0.51418 0.38903 0.0
C63 C 0.57407 0.56556 0.43735 0.0
H64 H 0.46332 0.51843 0.3356 0.0
H65 H 0.48973 0.45754 0.39759 0.0
H66 H 0.74794 0.58521 0.41683 0.0
H67 H 0.68291 0.65254 0.46018 0.0
C68 C 0.18897 0.86849 0.60135 0.0
N69 N 0.21184 0.76496 0.61933 0.0
C70 C 0.20562 0.75793 0.59609 0.0
C71 C 0.22524 0.73193 0.5844 0.0
C72 C 0.25107 0.71345 0.59698 0.0
C73 C 0.25567 0.72004 0.62102 0.0
C74 C 0.23587 0.74609 0.63187 0.0
Zn75 Zn 0.1929 0.80861 0.63615 0.0
C76 C 0.25268 0.85271 0.65306 0.0
N77 N 0.16204 0.90342 0.67232 0.0
C78 C 0.13454 0.92606 0.66923 0.0
C79 C 0.18414 0.90737 0.6911 0.0
C80 C 0.17967 0.93445 0.70727 0.0
C81 C 0.15108 0.95756 0.70524 0.0
C82 C 0.12848 0.95343 0.68563 0.0
Zn83 Zn 0.1749 0.85915 0.65209 0.0
O84 O 0.19761 0.83686 0.60547 0.0
C85 C 0.11442 0.81575 0.636 0.0
O86 O 0.17534 0.88698 0.61794 0.0
H87 H 0.20538 0.88904 0.69409 0.0
H88 H 0.18675 0.77356 0.58637 0.0
H89 H 0.11689 0.9225 0.65444 0.0
O90 O 0.13915 0.79597 0.62841 0.0
O91 O 0.12184 0.84414 0.647 0.0
H92 H 0.24128 0.75247 0.65009 0.0
O93 O 0.17686 0.8291 0.68536 0.0
O94 O 0.18818 0.78033 0.66632 0.0
O95 O 0.22704 0.87331 0.65615 0.0
O96 O 0.24679 0.82203 0.64503 0.0
C97 C 0.1825 0.796 0.68555 0.0
H98 H 0.22133 0.72733 0.56573 0.0
H99 H 0.27554 0.70613 0.63111 0.0
H100 H 0.19857 0.9368 0.72148 0.0
H101 H 0.10588 0.97046 0.68331 0.0
C102 C 0.8783 0.42882 0.84604 0.0
N103 N 0.97498 0.45339 0.87677 0.0
C104 C 0.98973 0.44237 0.85616 0.0
C105 C 0.02104 0.45771 0.84817 0.0
C106 C 0.03692 0.48452 0.8616 0.0
C107 C 0.02148 0.49453 0.88302 0.0
C108 C 0.99036 0.47884 0.89017 0.0
Zn109 Zn 0.92705 0.43715 0.88805 0.0
C110 C 0.88085 0.4993 0.89488 0.0
N111 N 0.8235 0.41143 0.91293 0.0
C112 C 0.80667 0.37964 0.91291 0.0
C113 C 0.8123 0.43774 0.92757 0.0
C114 C 0.78383 0.43309 0.94257 0.0
C115 C 0.76682 0.4005 0.94369 0.0
C116 C 0.77826 0.37347 0.92844 0.0
Zn117 Zn 0.87247 0.42198 0.89738 0.0
O118 O 0.90831 0.43807 0.85369 0.0
C119 C 0.91865 0.35918 0.89081 0.0
O120 O 0.85521 0.41738 0.86067 0.0
H121 H 0.82682 0.46196 0.9293 0.0
H122 H 0.97683 0.42232 0.84569 0.0
H123 H 0.81639 0.35847 0.90191 0.0
O124 O 0.94054 0.38299 0.88473 0.0
O125 O 0.88795 0.36798 0.89782 0.0
H126 H 0.97811 0.48776 0.90631 0.0
O127 O 0.89148 0.4298 0.93339 0.0
O128 O 0.94586 0.4366 0.92193 0.0
O129 O 0.85855 0.4747 0.8957 0.0
O130 O 0.91306 0.49166 0.89213 0.0
C131 C 0.9236 0.43572 0.93842 0.0
H132 H 0.03227 0.44926 0.83154 0.0
H133 H 0.03332 0.51437 0.89426 0.0
H134 H 0.777 0.45427 0.95457 0.0
H135 H 0.76614 0.34764 0.92904 0.0
C136 C 0.67492 0.80476 0.81531 0.0
N137 N 0.64981 0.90823 0.83651 0.0
C138 C 0.66881 0.9382 0.84019 0.0
C139 C 0.66689 0.9661 0.82414 0.0
C140 C 0.64467 0.96335 0.80445 0.0
C141 C 0.6228 0.93361 0.80242 0.0
C142 C 0.62599 0.90609 0.81865 0.0
Zn143 Zn 0.66653 0.86227 0.8519 0.0
C144 C 0.60672 0.81439 0.86649 0.0
N145 N 0.70553 0.76575 0.87936 0.0
C146 C 0.73141 0.75181 0.8656 0.0
C147 C 0.69974 0.75377 0.9017 0.0
C148 C 0.7216 0.72765 0.91126 0.0
C149 C 0.74963 0.71469 0.89768 0.0
C150 C 0.75385 0.72632 0.87447 0.0
Zn151 Zn 0.68363 0.81058 0.86612 0.0
O152 O 0.66871 0.83768 0.81686 0.0
C153 C 0.74287 0.85819 0.85018 0.0
O154 O 0.68023 0.78725 0.83388 0.0
H155 H 0.6793 0.76551 0.91242 0.0
H156 H 0.68772 0.93936 0.85444 0.0
H157 H 0.73612 0.76182 0.84804 0.0
O158 O 0.71786 0.87944 0.84663 0.0
O159 O 0.73612 0.82781 0.85829 0.0
H160 H 0.6116 0.88186 0.81579 0.0
O161 O 0.68651 0.83369 0.89888 0.0
O162 O 0.66684 0.88525 0.8873 0.0
O163 O 0.63148 0.7939 0.87297 0.0
O164 O 0.61409 0.84411 0.85723 0.0
C165 C 0.6777 0.86504 0.9038 0.0
H166 H 0.68391 0.98877 0.82642 0.0
H167 H 0.60549 0.93035 0.78739 0.0
H168 H 0.71758 0.71873 0.92922 0.0
H169 H 0.7749 0.71627 0.86344 0.0
C170 C 0.4687 0.45051 0.57299 0.0
N171 N 0.36222 0.41523 0.57789 0.0
C172 C 0.36295 0.4331 0.557 0.0
C173 C 0.33466 0.43228 0.54155 0.0
C174 C 0.3042 0.41358 0.54743 0.0
C175 C 0.30414 0.39382 0.5685 0.0
C176 C 0.33358 0.39528 0.58371 0.0
Zn177 Zn 0.40234 0.43163 0.60071 0.0
C178 C 0.45188 0.37883 0.61976 0.0
N179 N 0.48279 0.48174 0.64101 0.0
C180 C 0.49812 0.51017 0.63063 0.0
C181 C 0.49193 0.47137 0.66316 0.0
C182 C 0.51815 0.48963 0.67553 0.0
C183 C 0.53473 0.51874 0.66488 0.0
C184 C 0.52414 0.52893 0.64219 0.0
Zn185 Zn 0.44525 0.45789 0.62115 0.0
O186 O 0.43789 0.43787 0.57054 0.0
C187 C 0.39666 0.51038 0.60121 0.0
O188 O 0.47876 0.46022 0.59313 0.0
H189 H 0.47916 0.44881 0.67112 0.0
H190 H 0.38437 0.45052 0.55269 0.0
H191 H 0.49062 0.51816 0.61304 0.0
O192 O 0.38155 0.4822 0.59502 0.0
O193 O 0.42517 0.50866 0.61271 0.0
H194 H 0.3327 0.38204 0.60061 0.0
O195 O 0.41277 0.45542 0.64987 0.0
O196 O 0.36955 0.4269 0.63227 0.0
O197 O 0.46472 0.40705 0.62848 0.0
O198 O 0.42424 0.38035 0.6069 0.0
C199 C 0.38283 0.4409 0.65076 0.0
H200 H 0.33629 0.44737 0.52536 0.0
H201 H 0.28109 0.37889 0.57367 0.0
H202 H 0.52572 0.48083 0.69298 0.0
H203 H 0.53686 0.55035 0.63286 0.0
C204 C 0.80665 0.20086 0.32573 0.0
N205 N 0.8528 0.1022 0.34173 0.0
C206 C 0.83978 0.06968 0.34703 0.0
C207 C 0.84208 0.04217 0.33067 0.0
C208 C 0.85848 0.04795 0.30881 0.0
C209 C 0.87472 0.08072 0.30479 0.0
C210 C 0.87135 0.1077 0.32151 0.0
Zn211 Zn 0.8317 0.14484 0.3594 0.0
C212 C 0.88174 0.20248 0.37119 0.0
N213 N 0.7803 0.23152 0.39236 0.0
C214 C 0.74856 0.24106 0.38329 0.0
C215 C 0.79531 0.24973 0.41049 0.0
C216 C 0.77832 0.27923 0.41996 0.0
C217 C 0.74546 0.28913 0.41092 0.0
C218 C 0.73048 0.26967 0.39251 0.0
Zn219 Zn 0.8047 0.19009 0.37666 0.0
O220 O 0.82153 0.17076 0.32537 0.0
C221 C 0.75441 0.13423 0.3629 0.0
O222 O 0.79769 0.21416 0.34522 0.0
H223 H 0.82064 0.24169 0.41736 0.0
H224 H 0.82482 0.06583 0.36307 0.0
H225 H 0.73739 0.22689 0.36855 0.0
O226 O 0.78275 0.11966 0.35646 0.0
O227 O 0.75543 0.16432 0.37259 0.0
H228 H 0.881 0.13382 0.3174 0.0
O229 O 0.81175 0.16676 0.40874 0.0
O230 O 0.83913 0.12054 0.39431 0.0
O231 O 0.85338 0.21537 0.37937 0.0
O232 O 0.88152 0.17175 0.36203 0.0
C233 C 0.82685 0.13744 0.41205 0.0
H234 H 0.82959 0.01717 0.33459 0.0
H235 H 0.8875 0.08636 0.28812 0.0
H236 H 0.79057 0.29407 0.43408 0.0
H237 H 0.70543 0.27718 0.38485 0.0
C238 C 0.03814 0.55055 0.07191 0.0
N239 N 0.13892 0.60078 0.07715 0.0
C240 C 0.13897 0.58787 0.05466 0.0
C241 C 0.1686 0.59061 0.04041 0.0
C242 C 0.19908 0.60657 0.0491 0.0
C243 C 0.19806 0.62217 0.07158 0.0
C244 C 0.1675 0.61871 0.08552 0.0
Zn245 Zn 0.10084 0.57805 0.09905 0.0
C246 C 0.04624 0.62418 0.11918 0.0
N247 N 0.02696 0.51719 0.13969 0.0
C248 C 0.02314 0.48282 0.13322 0.0
C249 C 0.00502 0.53196 0.15593 0.0
C250 C 0.97684 0.5125 0.16518 0.0
C251 C 0.97174 0.47738 0.15792 0.0
C252 C 0.99646 0.46226 0.14263 0.0
Zn253 Zn 0.06302 0.54624 0.12082 0.0
O254 O 0.06516 0.56998 0.06912 0.0
C255 C 0.11855 0.50187 0.09953 0.0
O256 O 0.03212 0.53716 0.09186 0.0
H257 H 0.00822 0.55929 0.16089 0.0
H258 H 0.11744 0.57228 0.04811 0.0
H259 H 0.03946 0.47126 0.11976 0.0
O260 O 0.12652 0.53148 0.091 0.0
O261 O 0.09286 0.49968 0.11372 0.0
H262 H 0.1677 0.62812 0.10353 0.0
O263 O 0.09272 0.55465 0.15044 0.0
O264 O 0.1338 0.58341 0.13078 0.0
O265 O 0.03552 0.59435 0.12675 0.0
O266 O 0.07456 0.62594 0.1071 0.0
C267 C 0.122 0.57057 0.15011 0.0
H268 H 0.1683 0.57849 0.02308 0.0
H269 H 0.22124 0.6348 0.07883 0.0
H270 H 0.95835 0.52542 0.17687 0.0
H271 H 0.99438 0.43507 0.137 0.0
C272 C 0.82266 0.6423 0.59647 0.0
N273 N 0.77382 0.73532 0.61681 0.0
C274 C 0.74704 0.72609 0.60209 0.0
C275 C 0.72357 0.7515 0.59388 0.0
C276 C 0.72781 0.7867 0.60085 0.0
C277 C 0.75711 0.79587 0.61471 0.0
C278 C 0.77991 0.76956 0.62259 0.0
Zn279 Zn 0.79988 0.69601 0.63381 0.0
C280 C 0.75245 0.63841 0.64696 0.0
N281 N 0.84925 0.60684 0.66704 0.0
C282 C 0.87716 0.58493 0.66301 0.0
C283 C 0.82705 0.6004 0.68551 0.0
C284 C 0.8313 0.5714 0.70004 0.0
C285 C 0.85892 0.54795 0.69613 0.0
C286 C 0.88275 0.55521 0.67766 0.0
Zn287 Zn 0.83044 0.64979 0.64707 0.0
O288 O 0.806 0.67008 0.60193 0.0
C289 C 0.87891 0.70757 0.63553 0.0
O290 O 0.83863 0.62503 0.61265 0.0
H291 H 0.80461 0.61701 0.68882 0.0
H292 H 0.74269 0.69869 0.59771 0.0
H293 H 0.89457 0.58995 0.64827 0.0
O294 O 0.84955 0.72079 0.62904 0.0
O295 O 0.87968 0.67672 0.64457 0.0
H296 H 0.80127 0.77623 0.6344 0.0
O297 O 0.8191 0.67642 0.68047 0.0
O298 O 0.79326 0.72248 0.66512 0.0
O299 O 0.78242 0.62446 0.64886 0.0
O300 O 0.75029 0.67022 0.64023 0.0
C301 C 0.80305 0.70561 0.68312 0.0
H302 H 0.70154 0.7435 0.58298 0.0
H303 H 0.76113 0.82271 0.62064 0.0
H304 H 0.81266 0.56719 0.71426 0.0
H305 H 0.90466 0.5377 0.67423 0.0
C306 C 0.10448 0.07709 0.85123 0.0
N307 N 0.01465 0.01931 0.86541 0.0
C308 C 0.99724 0.03078 0.84588 0.0
C309 C 0.97236 0.00901 0.83489 0.0
C310 C 0.96608 0.97514 0.84398 0.0
C311 C 0.98483 0.96401 0.86391 0.0
C312 C 0.00881 0.98662 0.87445 0.0
Zn313 Zn 0.05062 0.04903 0.88309 0.0
C314 C 0.11076 0.00536 0.89982 0.0
N315 N 0.12855 0.10504 0.92332 0.0
C316 C 0.16254 0.09863 0.91693 0.0
C317 C 0.12089 0.11903 0.94484 0.0
C318 C 0.14765 0.1244 0.96151 0.0
C319 C 0.18264 0.11534 0.95598 0.0
C320 C 0.19002 0.10367 0.93298 0.0
Zn321 Zn 0.08987 0.08009 0.90373 0.0
O322 O 0.07628 0.05944 0.85211 0.0
C323 C 0.0303 0.12514 0.88812 0.0
O324 O 0.11757 0.08989 0.87017 0.0
H325 H 0.09378 0.1237 0.94977 0.0
H326 H 0.00231 0.0569 0.83902 0.0
H327 H 0.16823 0.0866 0.90006 0.0
O328 O 0.02002 0.0959 0.87935 0.0
O329 O 0.0595 0.12659 0.89919 0.0
H330 H 0.02231 0.97811 0.89023 0.0
O331 O 0.06069 0.067 0.93617 0.0
O332 O 0.02396 0.03818 0.91348 0.0
O333 O 0.11921 0.03494 0.90826 0.0
O334 O 0.08267 0.00269 0.88782 0.0
C335 C 0.03301 0.04826 0.9338 0.0
H336 H 0.95802 0.01856 0.81966 0.0
H337 H 0.97998 0.93852 0.87189 0.0
H338 H 0.14076 0.13413 0.97887 0.0
H339 H 0.21641 0.09599 0.9279 0.0
C340 C 0.68066 0.36065 0.10316 0.0
N341 N 0.7109 0.26153 0.12738 0.0
C342 C 0.70323 0.2512 0.10497 0.0
C343 C 0.72141 0.22309 0.0947 0.0
C344 C 0.7472 0.20506 0.10782 0.0
C345 C 0.7536 0.21577 0.13115 0.0
C346 C 0.73564 0.24444 0.14042 0.0
Zn347 Zn 0.69022 0.30616 0.14167 0.0
C348 C 0.74688 0.3552 0.15589 0.0
N349 N 0.65366 0.4041 0.17118 0.0
C350 C 0.6309 0.42905 0.16305 0.0
C351 C 0.6709 0.40898 0.192 0.0
C352 C 0.66498 0.43852 0.20583 0.0
C353 C 0.64207 0.46508 0.1981 0.0
C354 C 0.62482 0.45999 0.17625 0.0
Zn355 Zn 0.66881 0.35765 0.15438 0.0
O356 O 0.69032 0.32973 0.1086 0.0
C357 C 0.61132 0.30855 0.14139 0.0
O358 O 0.66885 0.38105 0.11928 0.0
H359 H 0.68996 0.39005 0.19815 0.0
H360 H 0.68369 0.26531 0.09481 0.0
H361 H 0.6178 0.42524 0.14629 0.0
O362 O 0.63734 0.28854 0.1366 0.0
O363 O 0.61674 0.33966 0.14914 0.0
H364 H 0.74218 0.25342 0.15796 0.0
O365 O 0.67051 0.33238 0.18849 0.0
O366 O 0.6906 0.28262 0.17464 0.0
O367 O 0.72032 0.37443 0.15956 0.0
O368 O 0.74282 0.32451 0.14744 0.0
C369 C 0.68197 0.30139 0.19209 0.0
H370 H 0.71571 0.21607 0.07659 0.0
H371 H 0.77232 0.20223 0.14233 0.0
H372 H 0.67821 0.43987 0.22271 0.0
H373 H 0.60706 0.4797 0.16927 0.0
C374 C 0.39374 0.91807 0.34086 0.0
N375 N 0.48818 0.96061 0.36696 0.0
C376 C 0.5063 0.94508 0.34898 0.0
C377 C 0.53602 0.96181 0.33937 0.0
C378 C 0.54628 0.99472 0.34834 0.0
C379 C 0.52784 0.00931 0.36729 0.0
C380 C 0.49886 0.99186 0.37633 0.0
Zn381 Zn 0.4411 0.94344 0.37997 0.0
C382 C 0.38925 0.00203 0.37754 0.0
N383 N 0.33917 0.9167 0.40916 0.0
C384 C 0.32744 0.8835 0.41406 0.0
C385 C 0.32397 0.9451 0.41993 0.0
C386 C 0.29704 0.94101 0.43634 0.0
C387 C 0.28562 0.90728 0.44269 0.0
C388 C 0.30067 0.87817 0.43094 0.0
Zn389 Zn 0.3872 0.9278 0.39222 0.0
O390 O 0.4238 0.93029 0.3464 0.0
C391 C 0.43953 0.86847 0.39392 0.0
O392 O 0.37116 0.91169 0.35712 0.0
H393 H 0.33431 0.97128 0.41756 0.0
H394 H 0.49715 0.92037 0.34167 0.0
H395 H 0.34018 0.861 0.40604 0.0
O396 O 0.45987 0.89166 0.38507 0.0
O397 O 0.40792 0.87668 0.39925 0.0
H398 H 0.48413 0.00423 0.39037 0.0
O399 O 0.40422 0.94643 0.42597 0.0
O400 O 0.45778 0.95676 0.41371 0.0
O401 O 0.3687 0.97786 0.38415 0.0
O402 O 0.42165 0.99563 0.37468 0.0
C403 C 0.43521 0.95734 0.43008 0.0
H404 H 0.55004 0.94988 0.32477 0.0
H405 H 0.53543 0.03449 0.37479 0.0
H406 H 0.28725 0.96422 0.44534 0.0
H407 H 0.29278 0.85155 0.43536 0.0
C408 C 0.19506 0.29838 0.32332 0.0
N409 N 0.16949 0.40526 0.33252 0.0
C410 C 0.19489 0.40901 0.3157 0.0
C411 C 0.19287 0.43547 0.29881 0.0
C412 C 0.16402 0.45843 0.29851 0.0
C413 C 0.13836 0.45484 0.31636 0.0
C414 C 0.1416 0.42783 0.33329 0.0
Zn415 Zn 0.17672 0.36101 0.35369 0.0
C416 C 0.11239 0.31923 0.36296 0.0
N417 N 0.20008 0.26666 0.39148 0.0
C418 C 0.22991 0.26469 0.40472 0.0
C419 C 0.1843 0.23713 0.38287 0.0
C420 C 0.20168 0.20494 0.38394 0.0
C421 C 0.23538 0.20346 0.39393 0.0
C422 C 0.24832 0.23292 0.40613 0.0
Zn423 Zn 0.1891 0.31231 0.37412 0.0
O424 O 0.18623 0.3306 0.32125 0.0
C425 C 0.25303 0.35433 0.36442 0.0
O426 O 0.19662 0.28511 0.34366 0.0
H427 H 0.16076 0.23915 0.37226 0.0
H428 H 0.21669 0.39079 0.31482 0.0
H429 H 0.24181 0.28846 0.41161 0.0
O430 O 0.22973 0.37369 0.35522 0.0
O431 O 0.24398 0.32552 0.37402 0.0
H432 H 0.12142 0.42437 0.34658 0.0
O433 O 0.18245 0.33908 0.40499 0.0
O434 O 0.17009 0.38933 0.38739 0.0
O435 O 0.13496 0.30001 0.37336 0.0
O436 O 0.12222 0.34759 0.35287 0.0
C437 C 0.17536 0.37166 0.40638 0.0
H438 H 0.21369 0.43749 0.28581 0.0
H439 H 0.11549 0.47185 0.31675 0.0
H440 H 0.19072 0.18245 0.3747 0.0
H441 H 0.27419 0.23258 0.41417 0.0
C442 C 0.92851 0.92297 0.06662 0.0
N443 N 0.8305 0.88957 0.09337 0.0
C444 C 0.80021 0.90778 0.09752 0.0
C445 C 0.77239 0.90622 0.08138 0.0
C446 C 0.77562 0.88526 0.06107 0.0
C447 C 0.80541 0.86352 0.05882 0.0
C448 C 0.83275 0.86621 0.07522 0.0
Zn449 Zn 0.87683 0.90942 0.10663 0.0
C450 C 0.92896 0.85471 0.1199 0.0
N451 N 0.97285 0.95659 0.12819 0.0
C452 C 0.98301 0.9859 0.11622 0.0
C453 C 0.99189 0.94404 0.1467 0.0
C454 C 0.02276 0.96121 0.15367 0.0
C455 C 0.03365 0.99179 0.14167 0.0
C456 C 0.01296 0.00424 0.12291 0.0
Zn457 Zn 0.92762 0.93351 0.11729 0.0
O458 O 0.89816 0.91006 0.07086 0.0
C459 C 0.87412 0.98661 0.10246 0.0
O460 O 0.94729 0.93324 0.08365 0.0
H461 H 0.98321 0.92069 0.15597 0.0
H462 H 0.79899 0.92642 0.11194 0.0
H463 H 0.96781 0.99531 0.1014 0.0
O464 O 0.85705 0.95842 0.09977 0.0
O465 O 0.90508 0.98526 0.11088 0.0
H466 H 0.8572 0.8524 0.07201 0.0
O467 O 0.90861 0.93478 0.15134 0.0
O468 O 0.85683 0.91241 0.14286 0.0
O469 O 0.94867 0.88156 0.12288 0.0
O470 O 0.89724 0.85888 0.11326 0.0
C471 C 0.87816 0.92544 0.158 0.0
H472 H 0.74965 0.92301 0.08394 0.0
H473 H 0.80911 0.84709 0.04339 0.0
H474 H 0.03805 0.95037 0.16806 0.0
H475 H 0.01956 0.02814 0.11346 0.0
C476 C 0.29489 0.69124 0.82259 0.0
N477 N 0.34824 0.59795 0.83771 0.0
C478 C 0.32355 0.58837 0.82141 0.0
C479 C 0.33054 0.56339 0.80433 0.0
C480 C 0.3637 0.54785 0.80307 0.0
C481 C 0.38898 0.5568 0.82028 0.0
C482 C 0.38064 0.58234 0.83762 0.0
Zn483 Zn 0.32881 0.63962 0.85822 0.0
C484 C 0.37449 0.70006 0.86613 0.0
N485 N 0.27098 0.72362 0.8892 0.0
C486 C 0.2404 0.7346 0.87916 0.0
C487 C 0.28436 0.73981 0.90864 0.0
C488 C 0.26751 0.76938 0.91806 0.0
C489 C 0.23707 0.78269 0.90703 0.0
C490 C 0.22324 0.76432 0.8876 0.0
Zn491 Zn 0.29661 0.68385 0.87257 0.0
O492 O 0.31293 0.66327 0.82488 0.0
C493 C 0.25194 0.62273 0.86445 0.0
O494 O 0.28516 0.70763 0.84078 0.0
H495 H 0.30858 0.73039 0.91644 0.0
H496 H 0.29812 0.6009 0.82076 0.0
H497 H 0.22994 0.72114 0.86388 0.0
O498 O 0.28246 0.61157 0.86001 0.0
O499 O 0.24802 0.65463 0.87064 0.0
H500 H 0.40024 0.59029 0.85041 0.0
O501 O 0.30815 0.66066 0.90466 0.0
O502 O 0.34207 0.61727 0.89236 0.0
O503 O 0.34511 0.71185 0.87368 0.0
O504 O 0.37625 0.66896 0.85765 0.0
C505 C 0.32724 0.63408 0.90925 0.0
H506 H 0.31017 0.55705 0.7916 0.0
H507 H 0.41504 0.54525 0.8198 0.0
H508 H 0.27881 0.78219 0.93336 0.0
H509 H 0.20038 0.77365 0.87807 0.0
C510 C 0.53501 0.07283 0.56719 0.0
N511 N 0.64278 0.09164 0.58118 0.0
C512 C 0.64518 0.07198 0.5611 0.0
C513 C 0.67533 0.07249 0.54729 0.0
C514 C 0.70397 0.09347 0.55384 0.0
C515 C 0.70084 0.11471 0.57414 0.0
C516 C 0.66984 0.1131 0.58783 0.0
Zn517 Zn 0.59758 0.07984 0.60037 0.0
C518 C 0.55401 0.14093 0.61651 0.0
N519 N 0.50327 0.04271 0.63375 0.0
C520 C 0.48593 0.01824 0.62053 0.0
C521 C 0.49645 0.0463 0.65727 0.0
C522 C 0.47275 0.0233 0.66848 0.0
C523 C 0.45661 0.9966 0.65519 0.0
C524 C 0.46243 0.99505 0.6309 0.0
Zn525 Zn 0.54698 0.06303 0.61726 0.0
O526 O 0.56786 0.07935 0.56745 0.0
C527 C 0.59086 0.00224 0.60098 0.0
O528 O 0.51945 0.066 0.5863 0.0
H529 H 0.51089 0.06541 0.66761 0.0
H530 H 0.62407 0.05455 0.55596 0.0
H531 H 0.49224 0.01449 0.60214 0.0
O532 O 0.61127 0.02722 0.59559 0.0
O533 O 0.56131 0.00936 0.61018 0.0
H534 H 0.66781 0.12824 0.60395 0.0
O535 O 0.57473 0.06107 0.64852 0.0
O536 O 0.62529 0.07896 0.63391 0.0
O537 O 0.53349 0.11648 0.62364 0.0
O538 O 0.5829 0.13324 0.60614 0.0
C539 C 0.60686 0.06898 0.65156 0.0
H540 H 0.67616 0.05634 0.53153 0.0
H541 H 0.72237 0.13151 0.57967 0.0
H542 H 0.46848 0.02517 0.68733 0.0
H543 H 0.45007 0.97489 0.62015 0.0
H544 H 0.28232 0.25653 0.19751 0.0
H545 H 0.31104 0.15493 0.22714 0.0
H546 H 0.28241 0.1713 0.26456 0.0
H547 H 0.29578 0.30693 0.253 0.0
H548 H 0.25942 0.33611 0.24699 0.0
H549 H 0.28407 0.31719 0.22294 0.0
H550 H 0.22612 0.2923 0.2055 0.0
H551 H 0.20141 0.31036 0.22979 0.0
H552 H 0.19887 0.26391 0.22332 0.0
H553 H 0.24491 0.19469 0.29625 0.0
H554 H 0.21149 0.22901 0.32505 0.0
H555 H 0.2101 0.31851 0.2771 0.0
C556 C 0.2833 0.23809 0.21208 0.0
C557 C 0.29887 0.2044 0.20943 0.0
C558 C 0.29954 0.18093 0.22882 0.0
C559 C 0.28304 0.18986 0.25007 0.0
C560 C 0.26661 0.22257 0.25174 0.0
C561 C 0.26749 0.24684 0.23363 0.0
C562 C 0.24805 0.28037 0.24037 0.0
C563 C 0.27334 0.31202 0.24086 0.0
C564 C 0.21676 0.28712 0.22375 0.0
C565 C 0.23559 0.2708 0.26499 0.0
C566 C 0.24623 0.23706 0.27086 0.0
C567 C 0.23701 0.22138 0.29208 0.0
C568 C 0.21778 0.24121 0.30829 0.0
C569 C 0.20847 0.27678 0.30351 0.0
C570 C 0.21678 0.29148 0.28127 0.0
H571 H 0.44836 0.46969 0.52855 0.0
H572 H 0.53996 0.45372 0.57298 0.0
H573 H 0.57732 0.48354 0.5435 0.0
H574 H 0.49486 0.45974 0.47092 0.0
H575 H 0.46834 0.49356 0.45743 0.0
H576 H 0.4502 0.46672 0.48066 0.0
H577 H 0.43471 0.52351 0.50392 0.0
H578 H 0.4539 0.55048 0.48118 0.0
H579 H 0.46915 0.55439 0.51119 0.0
H580 H 0.6036 0.52043 0.51114 0.0
H581 H 0.61829 0.55401 0.47495 0.0
H582 H 0.50904 0.54729 0.45282 0.0
C583 C 0.47649 0.47121 0.53157 0.0
C584 C 0.49141 0.45919 0.55283 0.0
C585 C 0.52816 0.4626 0.55662 0.0
C586 C 0.54954 0.47969 0.54009 0.0
C587 C 0.53372 0.49314 0.5199 0.0
C588 C 0.4982 0.48846 0.51531 0.0
C589 C 0.48749 0.5069 0.49281 0.0
C590 C 0.47447 0.48014 0.47436 0.0
C591 C 0.45967 0.53551 0.49758 0.0
C592 C 0.52236 0.52298 0.48571 0.0
C593 C 0.54874 0.51486 0.50153 0.0
C594 C 0.58322 0.52682 0.49851 0.0
C595 C 0.59125 0.54625 0.47811 0.0
C596 C 0.56482 0.55327 0.46117 0.0
C597 C 0.52982 0.54239 0.4655 0.0
H598 H 0.20519 0.82007 0.72893 0.0
H599 H 0.17488 0.72567 0.69067 0.0
H600 H 0.20137 0.68888 0.72158 0.0
H601 H 0.28629 0.79197 0.74733 0.0
H602 H 0.28517 0.81028 0.77668 0.0
H603 H 0.25966 0.83022 0.75349 0.0
H604 H 0.20248 0.8232 0.77797 0.0
H605 H 0.22796 0.80433 0.80163 0.0
H606 H 0.19097 0.78053 0.78965 0.0
H607 H 0.23999 0.66278 0.75204 0.0
H608 H 0.27618 0.64749 0.78677 0.0
H609 H 0.2782 0.75761 0.80748 0.0
C610 C 0.20276 0.79169 0.72765 0.0
C611 C 0.18812 0.77571 0.70739 0.0
C612 C 0.1861 0.73844 0.70604 0.0
C613 C 0.20125 0.71728 0.72342 0.0
C614 C 0.21768 0.73374 0.74233 0.0
C615 C 0.21745 0.76998 0.74512 0.0
C616 C 0.23782 0.78064 0.767 0.0
C617 C 0.26908 0.8047 0.76073 0.0
C618 C 0.21334 0.79821 0.78514 0.0
C619 C 0.25031 0.74486 0.77548 0.0
C620 C 0.23875 0.71826 0.76078 0.0
C621 C 0.24863 0.68322 0.76404 0.0
C622 C 0.2696 0.67486 0.78357 0.0
C623 C 0.27988 0.70138 0.79969 0.0
C624 C 0.27057 0.73687 0.79537 0.0
H625 H 0.98984 0.45431 0.95218 0.0
H626 H 0.88194 0.44821 0.97732 0.0
H627 H 0.89929 0.48069 0.0134 0.0
H628 H 0.03318 0.4455 0.00912 0.0
H629 H 0.06745 0.47627 1.00134 0.0
H630 H 0.04658 0.45022 0.97876 0.0
H631 H 0.03103 0.50751 0.95613 0.0
H632 H 0.05101 0.5338 0.97898 0.0
H633 H 0.00579 0.54134 0.97073 0.0
H634 H 0.92814 0.51556 0.04582 0.0
H635 H 0.9674 0.54512 0.07434 0.0
H636 H 0.05573 0.53111 0.0268 0.0
C637 C 0.96987 0.45907 0.96545 0.0
C638 C 0.93449 0.44849 0.96198 0.0
C639 C 0.90924 0.45569 0.97971 0.0
C640 C 0.9188 0.47442 1.00013 0.0
C641 C 0.95361 0.48581 0.0024 0.0
C642 C 0.97883 0.478 0.98568 0.0
C643 C 0.01426 0.49379 0.99201 0.0
C644 C 0.042 0.46471 0.99553 0.0
C645 C 0.02621 0.5207 0.97335 0.0
C646 C 0.00516 0.51172 0.01506 0.0
C647 C 0.96998 0.50686 0.02067 0.0
C648 C 0.95561 0.51968 0.04154 0.0
C649 C 0.97804 0.53664 0.05752 0.0
C650 C 0.01434 0.54087 0.05249 0.0
C651 C 0.02788 0.52912 0.03071 0.0
H652 H 0.70564 0.83184 0.77509 0.0
H653 H 0.66326 0.73616 0.80597 0.0
H654 H 0.69414 0.7007 0.77617 0.0
H655 H 0.70201 0.79813 0.71184 0.0
H656 H 0.74206 0.82105 0.70432 0.0
H657 H 0.71278 0.83913 0.72624 0.0
H658 H 0.7648 0.84126 0.75575 0.0
H659 H 0.79391 0.82182 0.73431 0.0
H660 H 0.78817 0.80124 0.76272 0.0
H661 H 0.73794 0.67527 0.74886 0.0
H662 H 0.77885 0.66073 0.71655 0.0
H663 H 0.78963 0.77197 0.70021 0.0
C664 C 0.70147 0.80361 0.77478 0.0
C665 C 0.68213 0.78669 0.79282 0.0
C666 C 0.67796 0.74958 0.79226 0.0
C667 C 0.69566 0.72916 0.77556 0.0
C668 C 0.71678 0.74631 0.75917 0.0
C669 C 0.71862 0.78268 0.75786 0.0
C670 C 0.74375 0.79402 0.73845 0.0
C671 C 0.72397 0.81427 0.71906 0.0
C672 C 0.77447 0.81588 0.74842 0.0
C673 C 0.75633 0.75837 0.72969 0.0
C674 C 0.74088 0.73132 0.74226 0.0
C675 C 0.7497 0.69614 0.73849 0.0
C676 C 0.77346 0.68817 0.72038 0.0
C677 C 0.78747 0.71523 0.706 0.0
C678 C 0.7794 0.75083 0.71108 0.0
H679 H 0.69892 0.23481 0.20731 0.0
H680 H 0.6946 0.34426 0.22969 0.0
H681 H 0.73112 0.3299 0.26419 0.0
H682 H 0.69513 0.19772 0.2682 0.0
H683 H 0.72399 0.16173 0.26065 0.0
H684 H 0.69549 0.18045 0.23855 0.0
H685 H 0.74995 0.19123 0.21194 0.0
H686 H 0.77876 0.17378 0.23432 0.0
H687 H 0.78593 0.21755 0.22292 0.0
H688 H 0.77386 0.30626 0.29266 0.0
H689 H 0.80729 0.27121 0.32136 0.0
H690 H 0.78138 0.17548 0.28314 0.0
C691 C 0.70475 0.25551 0.21989 0.0
C692 C 0.69403 0.29071 0.21575 0.0
C693 C 0.70228 0.31711 0.23252 0.0
C694 C 0.72344 0.30931 0.25202 0.0
C695 C 0.73541 0.27487 0.25473 0.0
C696 C 0.72531 0.24804 0.23976 0.0
C697 C 0.74126 0.21309 0.24728 0.0
C698 C 0.71224 0.18669 0.25408 0.0
C699 C 0.7654 0.19804 0.22795 0.0
C700 C 0.76234 0.22469 0.26865 0.0
C701 C 0.75903 0.26063 0.27217 0.0
C702 C 0.77621 0.27804 0.29037 0.0
C703 C 0.79541 0.25791 0.30642 0.0
C704 C 0.79677 0.22069 0.30445 0.0
C705 C 0.78119 0.20391 0.28481 0.0
H706 H 0.99442 0.94199 0.05226 0.0
H707 H 0.88678 0.93093 0.02751 0.0
H708 H 0.90203 0.96484 0.99169 0.0
H709 H 0.00642 0.02891 0.03508 0.0
H710 H 0.05163 0.02436 0.02587 0.0
H711 H 0.03401 0.99564 0.04825 0.0
H712 H 0.05141 0.94063 0.02379 0.0
H713 H 0.0702 0.96913 1.0017 0.0
H714 H 0.03727 0.93716 0.99351 0.0
H715 H 0.92695 0.00521 0.96126 0.0
H716 H 0.96265 0.04018 0.93361 0.0
H717 H 0.05467 0.02543 0.97788 0.0
C718 C 0.97428 0.94572 0.03895 0.0
C719 C 0.93937 0.93366 0.04262 0.0
C720 C 0.91374 0.93943 0.02493 0.0
C721 C 0.92208 0.95907 0.00469 0.0
C722 C 0.95618 0.97239 0.0024 0.0
C723 C 0.98215 0.9652 0.01871 0.0
C724 C 0.01654 0.98327 0.01229 0.0
C725 C 0.02779 0.0096 0.03152 0.0
C726 C 0.04557 0.95591 0.00753 0.0
C727 C 0.00578 0.00216 0.98988 0.0
C728 C 0.97072 0.99569 0.9847 0.0
C729 C 0.95445 0.01017 0.96501 0.0
C730 C 0.97492 0.03025 0.94954 0.0
C731 C 0.01135 0.03566 0.9537 0.0
C732 C 0.02677 0.0223 0.97452 0.0
H733 H 0.50057 0.97382 0.44697 0.0
H734 H 0.38905 0.98303 0.46283 0.0
H735 H 0.40314 0.02105 0.49692 0.0
H736 H 0.52947 0.96841 0.5071 0.0
H737 H 0.56931 0.99301 0.50179 0.0
H738 H 0.54988 0.96756 0.47837 0.0
H739 H 0.54812 0.02366 0.45224 0.0
H740 H 0.56672 0.04945 0.47588 0.0
H741 H 0.52545 0.06234 0.46275 0.0
H742 H 0.42893 0.05763 0.52886 0.0
H743 H 0.46503 0.08232 0.56095 0.0
H744 H 0.56006 0.04903 0.52476 0.0
C745 C 0.47912 0.98362 0.45773 0.0
C746 C 0.44372 0.97551 0.45231 0.0
C747 C 0.41637 0.98869 0.46681 0.0
C748 C 0.42409 0.01066 0.48599 0.0
C749 C 0.45922 0.01899 0.49041 0.0
C750 C 0.48634 0.00535 0.47701 0.0
C751 C 0.52193 0.01669 0.48638 0.0
C752 C 0.54393 0.98451 0.49386 0.0
C753 C 0.54171 0.03939 0.46822 0.0
C754 C 0.51059 0.03842 0.50745 0.0
C755 C 0.47426 0.03993 0.50911 0.0
C756 C 0.45737 0.05682 0.52771 0.0
C757 C 0.4781 0.0709 0.54577 0.0
C758 C 0.51526 0.06774 0.54516 0.0
C759 C 0.53176 0.05256 0.52533 0.0
H760 H 0.17682 0.09477 0.00238 0.0
H761 H 0.25225 0.13488 0.95148 0.0
H762 H 0.29909 0.13169 0.98167 0.0
H763 H 0.20841 0.14354 0.05053 0.0
H764 H 0.2011 0.10973 0.07221 0.0
H765 H 0.17407 0.11134 0.0462 0.0
H766 H 0.19028 0.0474 0.03632 0.0
H767 H 0.21893 0.04412 0.0616 0.0
H768 H 0.2358 0.03512 0.03256 0.0
H769 H 0.33653 0.12937 0.01865 0.0
H770 H 0.35922 0.13281 0.05958 0.0
H771 H 0.26015 0.09255 0.08579 0.0
C772 C 0.20313 0.10306 0.99753 0.0
C773 C 0.21072 0.11509 0.97445 0.0
C774 C 0.24573 0.12522 0.96891 0.0
C775 C 0.27258 0.12341 0.98596 0.0
C776 C 0.2642 0.1111 0.00846 0.0
C777 C 0.23023 0.1013 0.01427 0.0
C778 C 0.22749 0.09121 0.04006 0.0
C779 C 0.20122 0.11537 0.053 0.0
C780 C 0.2175 0.05216 0.04279 0.0
C781 C 0.265 0.09775 0.04807 0.0
C782 C 0.28597 0.10878 0.02953 0.0
C783 C 0.32065 0.11984 0.03316 0.0
C784 C 0.33357 0.12123 0.05641 0.0
C785 C 0.31201 0.1113 0.07562 0.0
C786 C 0.27778 0.09835 0.07125 0.0
H787 H 0.66984 0.56385 0.31851 0.0
H788 H 0.56202 0.59948 0.31177 0.0
H789 H 0.56226 0.58362 0.26968 0.0
H790 H 0.69777 0.58774 0.25424 0.0
H791 H 0.72482 0.54878 0.25269 0.0
H792 H 0.71967 0.57175 0.28035 0.0
H793 H 0.69867 0.51375 0.29985 0.0
H794 H 0.70303 0.49078 0.27232 0.0
H795 H 0.66139 0.49067 0.28759 0.0
H796 H 0.56807 0.54947 0.23267 0.0
H797 H 0.58139 0.50498 0.20239 0.0
H798 H 0.68782 0.49629 0.23004 0.0
C799 C 0.64718 0.57027 0.30774 0.0
C800 C 0.61613 0.58341 0.31822 0.0
C801 C 0.58623 0.5899 0.30393 0.0
C802 C 0.58609 0.58093 0.27998 0.0
C803 C 0.61627 0.56588 0.27038 0.0
C804 C 0.64668 0.56145 0.2836 0.0
C805 C 0.67382 0.54056 0.2698 0.0
C806 C 0.70593 0.56359 0.26392 0.0
C807 C 0.68483 0.50697 0.28319 0.0
C808 C 0.65294 0.53178 0.24771 0.0
C809 C 0.61999 0.54699 0.24824 0.0
C810 C 0.59429 0.53842 0.23156 0.0
C811 C 0.60218 0.51306 0.21427 0.0
C812 C 0.63563 0.4965 0.21362 0.0
C813 C 0.66168 0.50756 0.23004 0.0
H814 H 0.23794 0.84223 0.57172 0.0
H815 H 0.15934 0.92489 0.57654 0.0
H816 H 0.17246 0.9417 0.5349 0.0
H817 H 0.30031 0.88984 0.53717 0.0
H818 H 0.3138 0.85128 0.52093 0.0
H819 H 0.29755 0.84686 0.55061 0.0
H820 H 0.25047 0.80251 0.53592 0.0
H821 H 0.26619 0.80722 0.50609 0.0
H822 H 0.22052 0.81542 0.51281 0.0
H823 H 0.19483 0.9478 0.4918 0.0
H824 H 0.2272 0.94701 0.45392 0.0
H825 H 0.29083 0.85992 0.47913 0.0
C826 C 0.22323 0.86393 0.56416 0.0
C827 C 0.1973 0.8821 0.57739 0.0
C828 C 0.17932 0.91065 0.56679 0.0
C829 C 0.18647 0.92012 0.54312 0.0
C830 C 0.21174 0.90085 0.5305 0.0
C831 C 0.23004 0.87359 0.54091 0.0
C832 C 0.25658 0.85727 0.52425 0.0
C833 C 0.29428 0.8616 0.53381 0.0
C834 C 0.2479 0.8183 0.51949 0.0
C835 C 0.25066 0.87955 0.50253 0.0
C836 C 0.22457 0.90442 0.50632 0.0
C837 C 0.21527 0.92845 0.4888 0.0
C838 C 0.23383 0.92775 0.46731 0.0
C839 C 0.26162 0.90333 0.46344 0.0
C840 C 0.26937 0.87845 0.48122 0.0
H841 H 0.91286 0.5298 0.726 0.0
H842 H 0.80861 0.49822 0.70347 0.0
H843 H 0.80416 0.4577 0.73744 0.0
H844 H 0.93943 0.4408 0.75181 0.0
H845 H 0.96272 0.46202 0.77562 0.0
H846 H 0.96033 0.48289 0.74708 0.0
H847 H 0.93427 0.53881 0.76668 0.0
H848 H 0.93606 0.51799 0.79512 0.0
H849 H 0.89486 0.53509 0.78426 0.0
H850 H 0.80642 0.42974 0.77826 0.0
H851 H 0.81825 0.41286 0.81989 0.0
H852 H 0.92179 0.46074 0.81446 0.0
C853 C 0.88995 0.51297 0.72759 0.0
C854 C 0.86133 0.51672 0.71193 0.0
C855 C 0.83105 0.49532 0.71511 0.0
C856 C 0.82822 0.47232 0.73443 0.0
C857 C 0.8561 0.47055 0.75034 0.0
C858 C 0.88677 0.48971 0.7468 0.0
C859 C 0.91152 0.48561 0.76757 0.0
C860 C 0.94551 0.46669 0.76007 0.0
C861 C 0.91962 0.5215 0.77908 0.0
C862 C 0.88942 0.46257 0.78366 0.0
C863 C 0.85761 0.45387 0.77349 0.0
C864 C 0.83169 0.43562 0.78616 0.0
C865 C 0.83852 0.42618 0.80983 0.0
C866 C 0.87102 0.435 0.82052 0.0
C867 C 0.89679 0.45291 0.8069 0.0
H868 H 0.74723 0.83357 0.03304 0.0
H869 H 0.7503 0.94691 0.04256 0.0
H870 H 0.71806 0.95484 0.00507 0.0
H871 H 0.76541 0.8335 0.97384 0.0
H872 H 0.73691 0.79719 0.96632 0.0
H873 H 0.75483 0.80045 0.99558 0.0
H874 H 0.69184 0.79844 0.01324 0.0
H875 H 0.67372 0.79501 0.98393 0.0
H876 H 0.6593 0.82973 0.00338 0.0
H877 H 0.69334 0.95028 0.9631 0.0
H878 H 0.67727 0.93298 0.92216 0.0
H879 H 0.68954 0.82304 0.94158 0.0
C880 C 0.74032 0.86001 0.02753 0.0
C881 C 0.75101 0.88955 0.04085 0.0
C882 C 0.74176 0.92379 0.03291 0.0
C883 C 0.72359 0.92859 0.01155 0.0
C884 C 0.7144 0.89888 0.99844 0.0
C885 C 0.72205 0.86522 0.00638 0.0
C886 C 0.71194 0.83771 0.98833 0.0
C887 C 0.74419 0.81597 0.98057 0.0
C888 C 0.68244 0.81382 0.99779 0.0
C889 C 0.69876 0.86112 0.96864 0.0
C890 C 0.69993 0.89633 0.97471 0.0
C891 C 0.69164 0.92271 0.95835 0.0
C892 C 0.68251 0.91272 0.93515 0.0
C893 C 0.68206 0.87672 0.92862 0.0
C894 C 0.68944 0.85085 0.9459 0.0
H895 H 0.35504 0.56437 0.75709 0.0
H896 H 0.38596 0.47851 0.80296 0.0
H897 H 0.385 0.43762 0.76857 0.0
H898 H 0.29427 0.51598 0.72206 0.0
H899 H 0.30533 0.53847 0.69504 0.0
H900 H 0.31007 0.56078 0.72293 0.0
H901 H 0.37599 0.5736 0.71421 0.0
H902 H 0.37084 0.55277 0.68592 0.0
H903 H 0.40456 0.53774 0.7059 0.0
H904 H 0.38078 0.40681 0.72808 0.0
H905 H 0.38262 0.39165 0.68555 0.0
H906 H 0.34978 0.49744 0.66794 0.0
C907 C 0.36211 0.53701 0.75984 0.0
C908 C 0.37074 0.52451 0.78259 0.0
C909 C 0.37978 0.48862 0.78558 0.0
C910 C 0.37873 0.46521 0.76622 0.0
C911 C 0.36835 0.47822 0.74418 0.0
C912 C 0.36075 0.51349 0.74096 0.0
C913 C 0.35099 0.52151 0.71567 0.0
C914 C 0.3129 0.53498 0.71383 0.0
C915 C 0.37716 0.54794 0.70479 0.0
C916 C 0.35463 0.4853 0.70485 0.0
C917 C 0.36439 0.46047 0.72152 0.0
C918 C 0.37244 0.42589 0.71503 0.0
C919 C 0.37271 0.41722 0.69087 0.0
C920 C 0.36482 0.44297 0.6736 0.0
C921 C 0.35406 0.47681 0.68085 0.0
H922 H 0.81648 0.1746 0.45212 0.0
H923 H 0.83164 0.06795 0.42663 0.0
H924 H 0.81308 0.04505 0.4657 0.0
H925 H 0.83691 0.15884 0.51695 0.0
H926 H 0.80213 0.18856 0.52548 0.0
H927 H 0.8265 0.19626 0.49864 0.0
H928 H 0.76806 0.19718 0.4751 0.0
H929 H 0.74361 0.18914 0.50163 0.0
H930 H 0.73882 0.1598 0.47681 0.0
H931 H 0.78138 0.03417 0.50405 0.0
H932 H 0.73836 0.0357 0.53666 0.0
H933 H 0.74023 0.14985 0.53571 0.0
C934 C 0.8173 0.14639 0.45499 0.0
C935 C 0.82574 0.123 0.43636 0.0
C936 C 0.82591 0.08634 0.44074 0.0
C937 C 0.81528 0.07318 0.46289 0.0
C938 C 0.80492 0.09708 0.48041 0.0
C939 C 0.80623 0.13302 0.47669 0.0
C940 C 0.78827 0.1532 0.49642 0.0
C941 C 0.81506 0.17553 0.51019 0.0
C942 C 0.7579 0.17614 0.48691 0.0
C943 C 0.77472 0.12301 0.51128 0.0
C944 C 0.7855 0.09087 0.50216 0.0
C945 C 0.77342 0.05917 0.51153 0.0
C946 C 0.74886 0.06033 0.53001 0.0
C947 C 0.73601 0.09295 0.53872 0.0
C948 C 0.75019 0.12461 0.5298 0.0
H949 H 0.17911 0.44821 0.25176 0.0
H950 H 0.14055 0.52742 0.30055 0.0
H951 H 0.13602 0.57003 0.26752 0.0
H952 H 0.23106 0.50775 0.21412 0.0
H953 H 0.21961 0.48401 0.18765 0.0
H954 H 0.22255 0.46104 0.21542 0.0
H955 H 0.15862 0.43806 0.21041 0.0
H956 H 0.15595 0.46023 0.18247 0.0
H957 H 0.12363 0.46914 0.205 0.0
H958 H 0.1306 0.60194 0.22812 0.0
H959 H 0.11905 0.61733 0.18636 0.0
H960 H 0.16436 0.51824 0.16423 0.0
C961 C 0.17049 0.47476 0.25571 0.0
C962 C 0.16063 0.48453 0.27891 0.0
C963 C 0.1482 0.51922 0.28298 0.0
C964 C 0.14596 0.54372 0.26436 0.0
C965 C 0.15645 0.53323 0.24178 0.0
C966 C 0.1683 0.49943 0.23746 0.0
C967 C 0.17523 0.49348 0.21145 0.0
C968 C 0.21445 0.48614 0.2069 0.0
C969 C 0.15196 0.46348 0.20178 0.0
C970 C 0.16448 0.52893 0.20156 0.0
C971 C 0.1542 0.55179 0.21932 0.0
C972 C 0.13952 0.58464 0.21416 0.0
C973 C 0.13352 0.59347 0.19038 0.0
C974 C 0.14237 0.56966 0.17212 0.0
C975 C 0.15924 0.53768 0.17781 0.0
H976 H 0.80791 0.68431 0.55941 0.0
H977 H 0.83031 0.57534 0.57685 0.0
H978 H 0.81361 0.55797 0.53598 0.0
H979 H 0.73141 0.66807 0.5303 0.0
H980 H 0.73655 0.70246 0.50862 0.0
H981 H 0.75723 0.70668 0.537 0.0
H982 H 0.81804 0.71489 0.51696 0.0
H983 H 0.7975 0.71106 0.4884 0.0
H984 H 0.83351 0.68239 0.49619 0.0
H985 H 0.78638 0.55261 0.49439 0.0
H986 H 0.75104 0.55901 0.45797 0.0
H987 H 0.74421 0.67166 0.46982 0.0
C988 C 0.81033 0.65679 0.55457 0.0
C989 C 0.82063 0.63115 0.57135 0.0
C990 C 0.82304 0.59549 0.56423 0.0
C991 C 0.81343 0.58546 0.54107 0.0
C992 C 0.80172 0.61147 0.52534 0.0
C993 C 0.80048 0.64648 0.5319 0.0
C994 C 0.7833 0.66916 0.51318 0.0
C995 C 0.75017 0.68765 0.52286 0.0
C996 C 0.80967 0.69595 0.50308 0.0
C997 C 0.77392 0.64141 0.49512 0.0
C998 C 0.78532 0.60836 0.50213 0.0
C999 C 0.77791 0.57846 0.48867 0.0
C1000 C 0.75793 0.5824 0.46791 0.0
C1001 C 0.74505 0.61592 0.4609 0.0
C1002 C 0.75379 0.64575 0.4746 0.0
H1003 H 0.14851 0.02621 0.83781 0.0
H1004 H 0.09721 0.12102 0.81342 0.0
H1005 H 0.10847 0.1034 0.77196 0.0
H1006 H 0.21373 0.01454 0.78765 0.0
H1007 H 0.20697 0.96752 0.78811 0.0
H1008 H 0.20367 0.99259 0.81505 0.0
H1009 H 0.14129 0.96692 0.82178 0.0
H1010 H 0.14376 0.9427 0.7946 0.0
H1011 H 0.10797 0.97302 0.79949 0.0
H1012 H 0.11678 0.06965 0.73302 0.0
H1013 H 0.12434 0.02549 0.70115 0.0
H1014 H 0.16362 0.95065 0.75276 0.0
C1015 C 0.14192 0.04436 0.82373 0.0
C1016 C 0.12365 0.07581 0.82873 0.0
C1017 C 0.11282 0.09772 0.80989 0.0
C1018 C 0.11869 0.08759 0.7863 0.0
C1019 C 0.13496 0.05521 0.78191 0.0
C1020 C 0.14679 0.03415 0.80022 0.0
C1021 C 0.15852 0.99841 0.79135 0.0
C1022 C 0.19808 0.99296 0.7958 0.0
C1023 C 0.13656 0.96854 0.80247 0.0
C1024 C 0.15076 0.00222 0.76531 0.0
C1025 C 0.13769 0.03521 0.75999 0.0
C1026 C 0.12746 0.0439 0.73702 0.0
C1027 C 0.13144 0.01846 0.71904 0.0
C1028 C 0.1451 0.98453 0.72416 0.0
C1029 C 0.15425 0.97654 0.74781 0.0
H1030 H 0.71777 0.32633 0.06928 0.0
H1031 H 0.65374 0.41963 0.08033 0.0
H1032 H 0.66212 0.43573 0.03816 0.0
H1033 H 0.78084 0.36645 0.03329 0.0
H1034 H 0.78753 0.3281 0.01504 0.0
H1035 H 0.77325 0.32298 0.04509 0.0
H1036 H 0.71926 0.28709 0.03073 0.0
H1037 H 0.73315 0.29252 1.00053 0.0
H1038 H 0.68965 0.30616 0.0094 0.0
H1039 H 0.68056 0.44248 0.99499 0.0
H1040 H 0.71222 0.44342 0.95689 0.0
H1041 H 0.76507 0.34605 0.97536 0.0
C1042 C 0.70497 0.34999 0.0629 0.0
C1043 C 0.68474 0.3716 0.07813 0.0
C1044 C 0.66921 0.40263 0.06901 0.0
C1045 C 0.67366 0.41178 0.04506 0.0
C1046 C 0.69372 0.38962 0.03057 0.0
C1047 C 0.70933 0.35952 0.03932 0.0
C1048 C 0.73203 0.34148 0.02095 0.0
C1049 C 0.77069 0.33968 0.02908 0.0
C1050 C 0.71765 0.30463 0.01506 0.0
C1051 C 0.72746 0.36646 1.0004 0.0
C1052 C 0.70479 0.39376 0.00613 0.0
C1053 C 0.6981 0.4211 0.99035 0.0
C1054 C 0.71614 0.42134 0.96871 0.0
C1055 C 0.74098 0.39467 0.96308 0.0
C1056 C 0.74564 0.36629 0.97886 0.0
H1057 H 0.41642 0.00427 0.21724 0.0
H1058 H 0.30548 0.98463 0.20577 0.0
H1059 H 0.30508 0.9421 0.23869 0.0
H1060 H 0.43917 0.91049 0.23964 0.0
H1061 H 0.46963 0.92872 0.26077 0.0
H1062 H 0.46343 0.94997 0.23261 0.0
H1063 H 0.44842 0.00841 0.25406 0.0
H1064 H 0.45424 0.98737 0.28212 0.0
H1065 H 0.4132 0.00901 0.27542 0.0
H1066 H 0.31289 0.91475 0.27858 0.0
H1067 H 0.32983 0.90188 0.3199 0.0
H1068 H 0.43653 0.93555 0.30424 0.0
C1069 C 0.39266 0.98943 0.22086 0.0
C1070 C 0.36113 0.99734 0.20887 0.0
C1071 C 0.33002 0.97857 0.21464 0.0
C1072 C 0.32954 0.95436 0.23332 0.0
C1073 C 0.36056 0.94866 0.24586 0.0
C1074 C 0.39182 0.96502 0.23949 0.0
C1075 C 0.42026 0.95806 0.25762 0.0
C1076 C 0.44987 0.93545 0.24702 0.0
C1077 C 0.43484 0.99276 0.2679 0.0
C1078 C 0.3995 0.9375 0.27586 0.0
C1079 C 0.36525 0.93179 0.26868 0.0
C1080 C 0.33998 0.91794 0.2841 0.0
C1081 C 0.34978 0.91067 0.30758 0.0
C1082 C 0.38454 0.91734 0.31537 0.0
C1083 C 0.40983 0.9295 0.29887 0.0
H1084 H 0.26212 0.36002 0.53056 0.0
H1085 H 0.27719 0.47314 0.52732 0.0
H1086 H 0.2355 0.47682 0.49411 0.0
H1087 H 0.26225 0.34458 0.47225 0.0
H1088 H 0.2285 0.31117 0.47174 0.0
H1089 H 0.25358 0.31833 0.49814 0.0
H1090 H 0.19597 0.32874 0.5217 0.0
H1091 H 0.17061 0.3215 0.49524 0.0
H1092 H 0.16511 0.36167 0.51182 0.0
H1093 H 0.2032 0.46641 0.45582 0.0
H1094 H 0.18088 0.44253 0.41793 0.0
H1095 H 0.18173 0.33751 0.44819 0.0
C1096 C 0.25544 0.38568 0.52351 0.0
C1097 C 0.27316 0.41617 0.53141 0.0
C1098 C 0.26428 0.44928 0.52136 0.0
C1099 C 0.2404 0.45172 0.50256 0.0
C1100 C 0.22476 0.42094 0.49428 0.0
C1101 C 0.23129 0.38861 0.50481 0.0
C1102 C 0.21387 0.35911 0.49113 0.0
C1103 C 0.24118 0.33173 0.48282 0.0
C1104 C 0.18465 0.34173 0.50585 0.0
C1105 C 0.19856 0.37959 0.47057 0.0
C1106 C 0.20464 0.41529 0.47274 0.0
C1107 C 0.19722 0.43862 0.45425 0.0
C1108 C 0.1844 0.42491 0.43277 0.0
C1109 C 0.17922 0.38821 0.43003 0.0
C1110 C 0.18488 0.36579 0.44968 0.0
H1111 H 0.92107 0.95116 0.19221 0.0
H1112 H 0.81268 0.91995 0.17975 0.0
H1113 H 0.7967 0.94247 0.21954 0.0
H1114 H 0.92436 0.93448 0.2561 0.0
H1115 H 0.95131 0.97287 0.26113 0.0
H1116 H 0.95454 0.94927 0.23362 0.0
H1117 H 0.94145 0.00694 0.2108 0.0
H1118 H 0.93786 0.03069 0.23814 0.0
H1119 H 0.90191 0.03133 0.21738 0.0
H1120 H 0.79244 0.97395 0.25966 0.0
H1121 H 0.79933 0.01246 0.2946 0.0
H1122 H 0.91027 0.02507 0.27864 0.0
C1123 C 0.89399 0.9482 0.19788 0.0
C1124 C 0.86812 0.93349 0.1828 0.0
C1125 C 0.83303 0.93071 0.19103 0.0
C1126 C 0.82377 0.94351 0.2136 0.0
C1127 C 0.84993 0.95894 0.22763 0.0
C1128 C 0.88436 0.96116 0.21998 0.0
C1129 C 0.90714 0.98175 0.23703 0.0
C1130 C 0.93604 0.95818 0.2476 0.0
C1131 C 0.923 0.01462 0.22512 0.0
C1132 C 0.88008 0.99168 0.2554 0.0
C1133 C 0.84734 0.9778 0.24998 0.0
C1134 C 0.81805 0.98455 0.26411 0.0
C1135 C 0.82227 0.00635 0.284 0.0
C1136 C 0.85542 0.02162 0.28942 0.0
C1137 C 0.88466 0.01374 0.27499 0.0
H1138 H 0.23857 0.66026 0.03037 0.0
H1139 H 0.23108 0.54661 0.03439 0.0
H1140 H 0.2765 0.54086 0.00345 0.0
H1141 H 0.24068 0.66558 0.97161 0.0
H1142 H 0.27137 0.70164 0.96907 0.0
H1143 H 0.2457 0.69673 0.99543 0.0
H1144 H 0.30285 0.69573 0.02046 0.0
H1145 H 0.32878 0.70056 0.99398 0.0
H1146 H 0.33692 0.66422 0.01372 0.0
H1147 H 0.31151 0.54739 0.96623 0.0
H1148 H 0.33175 0.56624 0.9266 0.0
H1149 H 0.31951 0.67532 0.94761 0.0
C1150 C 0.24788 0.63428 0.02549 0.0
C1151 C 0.23181 0.6039 0.0349 0.0
C1152 C 0.24347 0.5702 0.0275 0.0
C1153 C 0.26934 0.56668 0.00999 0.0
C1154 C 0.28368 0.59713 1.00017 0.0
C1155 C 0.27371 0.63036 0.00791 0.0
C1156 C 0.28916 0.65876 0.99226 0.0
C1157 C 0.26 0.682 0.98145 0.0
C1158 C 0.31603 0.68114 0.00592 0.0
C1159 C 0.30722 0.63634 0.9737 0.0
C1160 C 0.30454 0.60084 0.97876 0.0
C1161 C 0.31483 0.57514 0.96241 0.0
C1162 C 0.32656 0.58599 0.93995 0.0
C1163 C 0.32752 0.62218 0.93413 0.0
C1164 C 0.31959 0.64744 0.95173 0.0
H1165 H 0.56978 0.05809 0.69166 0.0
H1166 H 0.67688 0.06705 0.66564 0.0
H1167 H 0.69907 0.04894 0.70507 0.0
H1168 H 0.58607 0.08482 0.7537 0.0
H1169 H 0.55488 0.0528 0.76446 0.0
H1170 H 0.54843 0.07299 0.736 0.0
H1171 H 0.54549 0.01116 0.71666 0.0
H1172 H 0.55218 0.99077 0.7449 0.0
H1173 H 0.58153 0.98086 0.72079 0.0
H1174 H 0.70845 0.02224 0.74606 0.0
H1175 H 0.70443 0.9879 0.78307 0.0
H1176 H 0.59057 0.99465 0.78045 0.0
C1177 C 0.59801 0.05715 0.69426 0.0
C1178 C 0.62165 0.06409 0.67554 0.0
C1179 C 0.65831 0.06221 0.67979 0.0
C1180 C 0.67108 0.05194 0.70212 0.0
C1181 C 0.64678 0.04395 0.71992 0.0
C1182 C 0.61097 0.0467 0.71613 0.0
C1183 C 0.5899 0.03292 0.73681 0.0
C1184 C 0.56857 0.06266 0.74843 0.0
C1185 C 0.56589 0.00211 0.72933 0.0
C1186 C 0.61934 0.02064 0.75268 0.0
C1187 C 0.65202 0.02789 0.74296 0.0
C1188 C 0.68302 0.01701 0.75394 0.0
C1189 C 0.68047 0.99765 0.77501 0.0
C1190 C 0.64715 0.98887 0.78467 0.0
C1191 C 0.61635 0.0012 0.77354 0.0
H1192 H 0.45092 0.17061 0.14322 0.0
H1193 H 0.38392 0.2592 0.1245 0.0
H1194 H 0.43554 0.29775 0.12265 0.0
H1195 H 0.51043 0.21851 0.17981 0.0
H1196 H 0.54945 0.19558 0.17019 0.0
H1197 H 0.50736 0.17372 0.16936 0.0
H1198 H 0.51578 0.16073 0.12484 0.0
H1199 H 0.55798 0.18247 0.12556 0.0
H1200 H 0.52482 0.19658 0.10486 0.0
H1201 H 0.4926 0.32831 0.1258 0.0
H1202 H 0.554 0.34825 0.13074 0.0
H1203 H 0.58631 0.2406 0.1449 0.0
C1204 C 0.44723 0.19802 0.13852 0.0
C1205 C 0.41318 0.21171 0.13407 0.0
C1206 C 0.40955 0.24783 0.12799 0.0
C1207 C 0.43878 0.27013 0.12689 0.0
C1208 C 0.47176 0.25604 0.13163 0.0
C1209 C 0.4764 0.22081 0.13703 0.0
C1210 C 0.51508 0.21289 0.14141 0.0
C1211 C 0.52091 0.19938 0.1667 0.0
C1212 C 0.52925 0.18661 0.12307 0.0
C1213 C 0.53107 0.24927 0.13799 0.0
C1214 C 0.50543 0.27371 0.13249 0.0
C1215 C 0.51307 0.30939 0.12977 0.0
C1216 C 0.54796 0.32049 0.1327 0.0
C1217 C 0.57486 0.29595 0.13796 0.0
C1218 C 0.5663 0.25982 0.14048 0.0
H1219 H 0.57623 0.70758 0.38635 0.0
H1220 H 0.4868 0.63915 0.39993 0.0
H1221 H 0.44856 0.69087 0.4047 0.0
H1222 H 0.55116 0.77842 0.42667 0.0
H1223 H 0.56508 0.81312 0.40704 0.0
H1224 H 0.58658 0.7708 0.4061 0.0
H1225 H 0.57275 0.76574 0.36146 0.0
H1226 H 0.55133 0.80805 0.36227 0.0
H1227 H 0.52786 0.77 0.3515 0.0
H1228 H 0.41952 0.74897 0.40774 0.0
H1229 H 0.40016 0.81086 0.40574 0.0
H1230 H 0.50694 0.84285 0.38833 0.0
C1231 C 0.54867 0.70364 0.39049 0.0
C1232 C 0.53451 0.66935 0.39278 0.0
C1233 C 0.49821 0.66516 0.39792 0.0
C1234 C 0.47625 0.69438 0.40083 0.0
C1235 C 0.49082 0.72776 0.39833 0.0
C1236 C 0.52604 0.73271 0.39305 0.0
C1237 C 0.53418 0.77161 0.38996 0.0
C1238 C 0.56083 0.78422 0.40856 0.0
C1239 C 0.5473 0.77929 0.3648 0.0
C1240 C 0.49802 0.78748 0.39422 0.0
C1241 C 0.47357 0.76165 0.39933 0.0
C1242 C 0.43837 0.76952 0.40377 0.0
C1243 C 0.42764 0.80479 0.40263 0.0
C1244 C 0.45196 0.83174 0.39684 0.0
C1245 C 0.48769 0.82287 0.3928 0.0
H1246 H 0.94837 0.68555 0.63752 0.0
H1247 H 0.88292 0.77848 0.62874 0.0
H1248 H 0.93601 0.81554 0.62634 0.0
H1249 H 0.01471 0.72548 0.67325 0.0
H1250 H 0.05093 0.7023 0.65977 0.0
H1251 H 0.00779 0.68259 0.66034 0.0
H1252 H 0.00945 0.6757 0.61487 0.0
H1253 H 0.05261 0.69543 0.61416 0.0
H1254 H 0.01749 0.71384 0.59668 0.0
H1255 H 0.99545 0.84328 0.62779 0.0
H1256 H 0.05833 0.85953 0.6305 0.0
H1257 H 0.08636 0.74896 0.63553 0.0
C1258 C 0.94526 0.71367 0.63499 0.0
C1259 C 0.9114 0.72907 0.63335 0.0
C1260 C 0.9085 0.76598 0.62995 0.0
C1261 C 0.93852 0.78733 0.62859 0.0
C1262 C 0.97143 0.77142 0.63034 0.0
C1263 C 0.9751 0.73543 0.63321 0.0
C1264 C 0.01371 0.72522 0.63454 0.0
C1265 C 0.02227 0.70788 0.65839 0.0
C1266 C 0.02391 0.70112 0.61383 0.0
C1267 C 0.03102 0.76116 0.63236 0.0
C1268 C 0.00605 0.78742 0.63009 0.0
C1269 C 0.0153 0.82294 0.6292 0.0
C1270 C 0.05103 0.83193 0.63079 0.0
C1271 C 0.07714 0.80551 0.63288 0.0
C1272 C 0.06696 0.76964 0.63342 0.0
H1273 H 0.98508 0.331 0.893 0.0
H1274 H 0.87497 0.30235 0.88596 0.0
H1275 H 0.89175 0.23951 0.88303 0.0
H1276 H 0.02112 0.26566 0.85366 0.0
H1277 H 0.05916 0.25708 0.8718 0.0
H1278 H 0.03863 0.29987 0.87239 0.0
H1279 H 0.03099 0.29509 0.91771 0.0
H1280 H 0.0516 0.25236 0.91727 0.0
H1281 H 0.0084 0.25753 0.92999 0.0
H1282 H 0.92082 0.1799 0.87969 0.0
H1283 H 0.95932 0.1274 0.88025 0.0
H1284 H 0.05011 0.19454 0.89228 0.0
C1285 C 0.96453 0.3115 0.89072 0.0
C1286 C 0.92872 0.32153 0.8895 0.0
C1287 C 0.90255 0.29522 0.88692 0.0
C1288 C 0.91184 0.2595 0.88514 0.0
C1289 C 0.94739 0.25048 0.88634 0.0
C1290 C 0.97329 0.27567 0.8894 0.0
C1291 C 0.00939 0.25885 0.89129 0.0
C1292 C 0.03349 0.2711 0.87108 0.0
C1293 C 0.02607 0.2664 0.91551 0.0
C1294 C -0.00022 0.22026 0.88872 0.0
C1295 C 0.96394 0.21604 0.88557 0.0
C1296 C 0.94889 0.18288 0.88229 0.0
C1297 C 0.97099 0.15323 0.88254 0.0
C1298 C 0.00768 0.15685 0.88641 0.0
C1299 C 0.02214 0.1909 0.88945 0.0
H1300 H 0.58013 0.74712 0.86672 0.0
H1301 H 0.54943 0.85713 0.8705 0.0
H1302 H 0.48684 0.8395 0.87197 0.0
H1303 H 0.51087 0.72111 0.82802 0.0
H1304 H 0.50459 0.67839 0.84128 0.0
H1305 H 0.54715 0.69928 0.84242 0.0
H1306 H 0.54743 0.69386 0.888 0.0
H1307 H 0.50494 0.67277 0.88699 0.0
H1308 H 0.51121 0.71169 0.90475 0.0
H1309 H 0.42796 0.81028 0.87272 0.0
H1310 H 0.37595 0.7715 0.87082 0.0
H1311 H 0.44427 0.68031 0.86403 0.0
C1312 C 0.56021 0.76742 0.86824 0.0
C1313 C 0.56955 0.80348 0.86877 0.0
C1314 C 0.54278 0.82936 0.87017 0.0
C1315 C 0.50721 0.81961 0.87105 0.0
C1316 C 0.49884 0.78388 0.8702 0.0
C1317 C 0.52449 0.75815 0.86868 0.0
C1318 C 0.50821 0.72176 0.86669 0.0
C1319 C 0.51831 0.70411 0.84321 0.0
C1320 C 0.51856 0.69866 0.88787 0.0
C1321 C 0.4694 0.73109 0.86731 0.0
C1322 C 0.46467 0.76704 0.8696 0.0
C1323 C 0.4313 0.78209 0.87088 0.0
C1324 C 0.40193 0.75981 0.86981 0.0
C1325 C 0.40604 0.7229 0.86717 0.0
C1326 C 0.4403 0.70844 0.86585 0.0
H1327 H 0.42852 0.31036 0.61271 0.0
H1328 H 0.51995 0.37166 0.6337 0.0
H1329 H 0.55511 0.31743 0.63624 0.0
H1330 H 0.44759 0.23509 0.65173 0.0
H1331 H 0.43203 0.20296 0.63075 0.0
H1332 H 0.41332 0.2466 0.63111 0.0
H1333 H 0.42866 0.254 0.58685 0.0
H1334 H 0.44753 0.21048 0.58637 0.0
H1335 H 0.47349 0.24784 0.57722 0.0
H1336 H 0.58215 0.25796 0.63276 0.0
H1337 H 0.59774 0.19513 0.62767 0.0
H1338 H 0.48853 0.17069 0.6124 0.0
C1339 C 0.45583 0.31226 0.61807 0.0
C1340 C 0.47142 0.34534 0.62297 0.0
C1341 C 0.50726 0.3467 0.62997 0.0
C1342 C 0.52758 0.31602 0.6314 0.0
C1343 C 0.51163 0.28395 0.62619 0.0
C1344 C 0.47646 0.28166 0.62006 0.0
C1345 C 0.46601 0.24364 0.6155 0.0
C1346 C 0.43808 0.23135 0.63334 0.0
C1347 C 0.45317 0.23872 0.58997 0.0
C1348 C 0.50096 0.22519 0.61957 0.0
C1349 C 0.52696 0.24907 0.62551 0.0
C1350 C 0.56193 0.23887 0.62855 0.0
C1351 C 0.57057 0.20323 0.62554 0.0
C1352 C 0.54426 0.17819 0.62001 0.0
C1353 C 0.50898 0.1893 0.61714 0.0
H1354 H 0.08655 0.25223 0.36638 0.0
H1355 H 0.05429 0.3614 0.3591 0.0
H1356 H 0.99182 0.34296 0.36085 0.0
H1357 H 0.0171 0.21615 0.32953 0.0
H1358 H 0.01216 0.1769 0.34714 0.0
H1359 H 0.05421 0.19876 0.34558 0.0
H1360 H 0.05548 0.20364 0.39117 0.0
H1361 H 0.01335 0.18197 0.39289 0.0
H1362 H 0.01936 0.22463 0.4063 0.0
H1363 H 0.93364 0.31321 0.3659 0.0
H1364 H 0.88246 0.27376 0.3694 0.0
H1365 H 0.95195 0.18293 0.37033 0.0
C1366 C 0.0663 0.27224 0.36514 0.0
C1367 C 0.07511 0.3083 0.3628 0.0
C1368 C 0.048 0.33368 0.36089 0.0
C1369 C 0.01253 0.32345 0.36195 0.0
C1370 C 0.00475 0.28772 0.3645 0.0
C1371 C 0.03081 0.26242 0.36568 0.0
C1372 C 0.01527 0.22569 0.36769 0.0
C1373 C 0.02528 0.20305 0.3462 0.0
C1374 C 0.02654 0.20795 0.39089 0.0
C1375 C 0.97632 0.23431 0.36778 0.0
C1376 C 0.97097 0.27031 0.3662 0.0
C1377 C 0.93746 0.28499 0.36691 0.0
C1378 C 0.90859 0.26232 0.36905 0.0
C1379 C 0.91326 0.22527 0.37011 0.0
C1380 C 0.94763 0.21111 0.36939 0.0
H1381 H 0.06402 0.69363 0.11077 0.0
H1382 H 0.97966 0.6271 0.13721 0.0
H1383 H 0.94203 0.67941 0.14224 0.0
H1384 H 0.04643 0.76851 0.15038 0.0
H1385 H 0.05695 0.80091 0.12821 0.0
H1386 H 0.07818 0.75843 0.1277 0.0
H1387 H 0.057 0.74886 0.08472 0.0
H1388 H 0.03568 0.79122 0.08511 0.0
H1389 H 0.01071 0.75221 0.07803 0.0
H1390 H 0.91164 0.73742 0.14096 0.0
H1391 H 0.89145 0.79876 0.13591 0.0
H1392 H 0.99596 0.82918 0.11261 0.0
C1393 C 0.03776 0.69012 0.11785 0.0
C1394 C 0.02481 0.65618 0.12356 0.0
C1395 C 0.99027 0.65276 0.13276 0.0
C1396 C 0.96864 0.68233 0.13568 0.0
C1397 C 0.98202 0.71528 0.12962 0.0
C1398 C 0.01588 0.7195 0.12116 0.0
C1399 C 0.02341 0.75791 0.11561 0.0
C1400 C 0.053 0.77228 0.13143 0.0
C1401 C 0.03221 0.76282 0.08931 0.0
C1402 C 0.98822 0.77445 0.12179 0.0
C1403 C 0.96475 0.74927 0.12978 0.0
C1404 C 0.92991 0.75749 0.1351 0.0
C1405 C 0.91866 0.79234 0.1321 0.0
C1406 C 0.94225 0.81868 0.12413 0.0
C1407 C 0.9776 0.80966 0.11919 0.0
H1408 H 0.17583 0.30172 0.10374 0.0
H1409 H 0.27689 0.33621 0.07609 0.0
H1410 H 0.25144 0.39425 0.06716 0.0
H1411 H 0.11735 0.35758 0.06591 0.0
H1412 H 0.08831 0.36653 0.09035 0.0
H1413 H 0.11133 0.32505 0.08874 0.0
H1414 H 0.13733 0.33619 0.13039 0.0
H1415 H 0.11482 0.37777 0.13202 0.0
H1416 H 0.16191 0.37604 0.13583 0.0
H1417 H 0.21871 0.45061 0.06713 0.0
H1418 H 0.18138 0.50173 0.07642 0.0
H1419 H 0.10356 0.4323 0.108 0.0
C1420 C 0.19257 0.32121 0.09545 0.0
C1421 C 0.22843 0.31425 0.09065 0.0
C1422 C 0.24918 0.34048 0.07953 0.0
C1423 C 0.23498 0.37368 0.07448 0.0
C1424 C 0.20011 0.3802 0.08071 0.0
C1425 C 0.17911 0.35467 0.0909 0.0
C1426 C 0.14433 0.36973 0.09916 0.0
C1427 C 0.11351 0.35377 0.0852 0.0
C1428 C 0.13934 0.36463 0.12593 0.0
C1429 C 0.1497 0.40807 0.09298 0.0
C1430 C 0.18164 0.41335 0.08178 0.0
C1431 C 0.19341 0.44677 0.07555 0.0
C1432 C 0.17207 0.47563 0.08103 0.0
C1433 C 0.13964 0.47088 0.09301 0.0
C1434 C 0.1282 0.43663 0.09882 0.0
H1435 H 0.27644 0.42018 0.35457 0.0
H1436 H 0.31279 0.31495 0.37218 0.0
H1437 H 0.37459 0.33569 0.36926 0.0
H1438 H 0.3461 0.44313 0.31325 0.0
H1439 H 0.34811 0.48817 0.32329 0.0
H1440 H 0.30717 0.46422 0.32473 0.0
H1441 H 0.30261 0.47726 0.36957 0.0
H1442 H 0.34322 0.50156 0.36819 0.0
H1443 H 0.33871 0.46548 0.38866 0.0
H1444 H 0.43178 0.36875 0.36591 0.0
H1445 H 0.47988 0.41249 0.36696 0.0
H1446 H 0.40499 0.49614 0.3528 0.0
C1447 C 0.29735 0.40129 0.35758 0.0
C1448 C 0.28998 0.36589 0.36343 0.0
C1449 C 0.31801 0.34219 0.36766 0.0
C1450 C 0.35307 0.35366 0.36584 0.0
C1451 C 0.35935 0.3888 0.35984 0.0
C1452 C 0.33221 0.4123 0.35602 0.0
C1453 C 0.34562 0.44927 0.35175 0.0
C1454 C 0.33619 0.46193 0.32676 0.0
C1455 C 0.33173 0.47488 0.37067 0.0
C1456 C 0.38472 0.44317 0.35423 0.0
C1457 C 0.39214 0.40802 0.35846 0.0
C1458 C 0.42629 0.39628 0.36252 0.0
C1459 C 0.45336 0.4213 0.36313 0.0
C1460 C 0.446 0.45765 0.36005 0.0
C1461 C 0.41141 0.46849 0.35481 0.0
H1462 H 0.23986 0.64438 0.58729 0.0
H1463 H 0.31801 0.72719 0.58431 0.0
H1464 H 0.3649 0.68282 0.57904 0.0
H1465 H 0.28356 0.59072 0.62195 0.0
H1466 H 0.27179 0.54914 0.60874 0.0
H1467 H 0.24326 0.58649 0.60535 0.0
H1468 H 0.24621 0.58097 0.55984 0.0
H1469 H 0.27408 0.54279 0.563 0.0
H1470 H 0.28845 0.57959 0.54534 0.0
H1471 H 0.40326 0.63076 0.58505 0.0
H1472 H 0.43036 0.57356 0.59554 0.0
H1473 H 0.32756 0.52391 0.59285 0.0
C1474 C 0.2666 0.653 0.58398 0.0
C1475 C 0.27555 0.6889 0.58556 0.0
C1476 C 0.31087 0.69967 0.58246 0.0
C1477 C 0.3376 0.67467 0.5796 0.0
C1478 C 0.32835 0.63914 0.57958 0.0
C1479 C 0.29356 0.62826 0.58096 0.0
C1480 C 0.29106 0.58861 0.58355 0.0
C1481 C 0.27127 0.57817 0.60624 0.0
C1482 C 0.27394 0.57201 0.56162 0.0
C1483 C 0.32971 0.57931 0.58506 0.0
C1484 C 0.35084 0.60872 0.58251 0.0
C1485 C 0.38713 0.60732 0.58626 0.0
C1486 C 0.40224 0.5749 0.59248 0.0
C1487 C 0.38102 0.54447 0.59476 0.0
C1488 C 0.34443 0.54672 0.59073 0.0
H1489 H 0.05375 0.55441 0.86475 0.0
H1490 H 0.09516 0.45297 0.84266 0.0
H1491 H 0.15378 0.4798 0.8373 0.0
H1492 H 0.11204 0.61096 0.82711 0.0
H1493 H 0.11639 0.64349 0.85012 0.0
H1494 H 0.0764 0.61815 0.84758 0.0
H1495 H 0.0832 0.59831 0.89108 0.0
H1496 H 0.12349 0.62294 0.89367 0.0
H1497 H 0.12309 0.57644 0.90019 0.0
H1498 H 0.20834 0.51417 0.84054 0.0
H1499 H 0.25633 0.55521 0.84903 0.0
H1500 H 0.18061 0.63502 0.87046 0.0
C1501 C 0.07502 0.53801 0.85831 0.0
C1502 C 0.07004 0.50159 0.85415 0.0
C1503 C 0.09833 0.48099 0.84562 0.0
C1504 C 0.13171 0.49597 0.84265 0.0
C1505 C 0.13608 0.53153 0.84813 0.0
C1506 C 0.10848 0.55246 0.85547 0.0
C1507 C 0.12092 0.58899 0.86241 0.0
C1508 C 0.10553 0.61706 0.84581 0.0
C1509 C 0.11215 0.59712 0.88838 0.0
C1510 C 0.16013 0.58485 0.85875 0.0
C1511 C 0.16808 0.5516 0.85023 0.0
C1512 C 0.20246 0.54048 0.84677 0.0
C1513 C 0.22955 0.56406 0.85187 0.0
C1514 C 0.22222 0.59849 0.86041 0.0
C1515 C 0.18698 0.609 0.86387 0.0
H1516 H 0.73627 0.64697 0.90963 0.0
H1517 H 0.81979 0.72403 0.90358 0.0
H1518 H 0.86428 0.6768 0.9072 0.0
H1519 H 0.78537 0.58218 0.94968 0.0
H1520 H 0.76617 0.54536 0.93423 0.0
H1521 H 0.74166 0.58576 0.9375 0.0
H1522 H 0.73342 0.58823 0.89214 0.0
H1523 H 0.75858 0.54852 0.88862 0.0
H1524 H 0.77169 0.58803 0.87329 0.0
H1525 H 0.89876 0.62075 0.90341 0.0
H1526 H 0.92052 0.56019 0.89583 0.0
H1527 H 0.81379 0.52055 0.90323 0.0
C1528 C 0.76392 0.65388 0.91042 0.0
C1529 C 0.77489 0.68884 0.90685 0.0
C1530 C 0.8112 0.69722 0.90679 0.0
C1531 C 0.83655 0.67062 0.90876 0.0
C1532 C 0.825 0.63593 0.91086 0.0
C1533 C 0.7895 0.62756 0.91216 0.0
C1534 C 0.7838 0.58818 0.91119 0.0
C1535 C 0.76835 0.57457 0.93455 0.0
C1536 C 0.76052 0.57766 0.89005 0.0
C1537 C 0.82131 0.57594 0.9079 0.0
C1538 C 0.84484 0.60366 0.90815 0.0
C1539 C 0.88068 0.5987 0.9037 0.0
C1540 C 0.89276 0.56436 0.89918 0.0
C1541 C 0.86888 0.53573 0.8989 0.0
C1542 C 0.83282 0.54182 0.9034 0.0
H1543 H 0.68212 0.65741 0.64658 0.0
H1544 H 0.7538 0.57371 0.66735 0.0
H1545 H 0.70463 0.54014 0.68376 0.0
H1546 H 0.61898 0.64647 0.6974 0.0
H1547 H 0.58124 0.65439 0.67886 0.0
H1548 H 0.62268 0.67552 0.67235 0.0
H1549 H 0.62178 0.64942 0.63001 0.0
H1550 H 0.58014 0.62905 0.63629 0.0
H1551 H 0.61655 0.60252 0.62623 0.0
H1552 H 0.6488 0.5115 0.69249 0.0
H1553 H 0.58938 0.48692 0.68781 0.0
H1554 H 0.55176 0.58883 0.66393 0.0
C1555 C 0.6874 0.63224 0.65485 0.0
C1556 C 0.72181 0.61834 0.65566 0.0
C1557 C 0.72768 0.58507 0.66642 0.0
C1558 C 0.69996 0.56588 0.67615 0.0
C1559 C 0.66638 0.58021 0.67515 0.0
C1560 C 0.65982 0.61248 0.66464 0.0
C1561 C 0.62067 0.6195 0.66317 0.0
C1562 C 0.61029 0.65083 0.67889 0.0
C1563 C 0.60912 0.62544 0.6374 0.0
C1564 C 0.60647 0.58515 0.67302 0.0
C1565 C 0.63333 0.56336 0.68054 0.0
C1566 C 0.62733 0.52852 0.68725 0.0
C1567 C 0.59335 0.5148 0.68472 0.0
C1568 C 0.56602 0.53592 0.67538 0.0
C1569 C 0.57225 0.57211 0.67108 0.0
H1570 H 0.76766 0.357 0.40741 0.0
H1571 H 0.68066 0.29176 0.43053 0.0
H1572 H 0.64273 0.34434 0.43335 0.0
H1573 H 0.7414 0.43996 0.44257 0.0
H1574 H 0.75532 0.46801 0.41866 0.0
H1575 H 0.77793 0.42705 0.42419 0.0
H1576 H 0.76661 0.40842 0.38089 0.0
H1577 H 0.74312 0.44868 0.37534 0.0
H1578 H 0.72204 0.40687 0.36996 0.0
H1579 H 0.61162 0.39907 0.42475 0.0
H1580 H 0.58984 0.45639 0.41093 0.0
H1581 H 0.69672 0.48858 0.39419 0.0
C1582 C 0.74119 0.35432 0.4143 0.0
C1583 C 0.72697 0.32077 0.41917 0.0
C1584 C 0.69188 0.31753 0.42714 0.0
C1585 C 0.67024 0.34717 0.42873 0.0
C1586 C 0.68431 0.37974 0.42244 0.0
C1587 C 0.71919 0.38379 0.41593 0.0
C1588 C 0.72638 0.42102 0.40741 0.0
C1589 C 0.75176 0.44014 0.42421 0.0
C1590 C 0.74035 0.42122 0.38189 0.0
C1591 C 0.68969 0.43647 0.40882 0.0
C1592 C 0.66599 0.41219 0.41772 0.0
C1593 C 0.62999 0.4187 0.4184 0.0
C1594 C 0.61786 0.45115 0.41018 0.0
C1595 C 0.64168 0.47681 0.40151 0.0
C1596 C 0.67808 0.46948 0.40098 0.0
H1597 H 0.80687 0.35536 0.12945 0.0
H1598 H 0.76364 0.38697 0.19696 0.0
H1599 H 0.81953 0.41686 0.207 0.0
H1600 H 0.90034 0.34486 0.14823 0.0
H1601 H 0.91664 0.36393 0.12122 0.0
H1602 H 0.87579 0.33973 0.12122 0.0
H1603 H 0.8439 0.39375 0.10309 0.0
H1604 H 0.88452 0.41809 0.10314 0.0
H1605 H 0.84636 0.43574 0.11791 0.0
H1606 H 0.878 0.44773 0.20812 0.0
H1607 H 0.93382 0.47884 0.1996 0.0
H1608 H 0.93538 0.43137 0.1298 0.0
C1609 C 0.80979 0.36761 0.14661 0.0
C1610 C 0.78158 0.36855 0.16265 0.0
C1611 C 0.78542 0.38588 0.18462 0.0
C1612 C 0.81699 0.40276 0.19048 0.0
C1613 C 0.84419 0.40234 0.17402 0.0
C1614 C 0.84087 0.3853 0.1525 0.0
C1615 C 0.87225 0.39242 0.13683 0.0
C1616 C 0.89245 0.35819 0.13157 0.0
C1617 C 0.86107 0.41112 0.1139 0.0
C1618 C 0.89327 0.4166 0.15269 0.0
C1619 C 0.87708 0.42153 0.17422 0.0
C1620 C 0.89114 0.44387 0.19136 0.0
C1621 C 0.92266 0.46169 0.18629 0.0
C1622 C 0.93939 0.45739 0.16413 0.0
C1623 C 0.92418 0.43451 0.14723 0.0
H1624 H 0.73626 0.85502 0.5864 0.0
H1625 H 0.65676 0.77802 0.60549 0.0
H1626 H 0.61094 0.824 0.60314 0.0
H1627 H 0.7046 0.92235 0.62076 0.0
H1628 H 0.7144 0.95744 0.60035 0.0
H1629 H 0.7399 0.91756 0.59972 0.0
H1630 H 0.72493 0.90906 0.55542 0.0
H1631 H 0.69952 0.94917 0.5559 0.0
H1632 H 0.67952 0.90861 0.54615 0.0
H1633 H 0.57549 0.88001 0.60466 0.0
H1634 H 0.55307 0.94114 0.60777 0.0
H1635 H 0.65582 0.98064 0.58699 0.0
C1636 C 0.70909 0.84772 0.58956 0.0
C1637 C 0.69999 0.813 0.59596 0.0
C1638 C 0.6642 0.80438 0.60012 0.0
C1639 C 0.63801 0.83034 0.59892 0.0
C1640 C 0.64801 0.86461 0.59325 0.0
C1641 C 0.68265 0.87322 0.5883 0.0
C1642 C 0.68702 0.91238 0.58446 0.0
C1643 C 0.713 0.92835 0.6024 0.0
C1644 C 0.69841 0.92026 0.55896 0.0
C1645 C 0.64976 0.9246 0.58898 0.0
C1646 C 0.6275 0.89674 0.59382 0.0
C1647 C 0.59248 0.90202 0.60042 0.0
C1648 C 0.58002 0.93676 0.60224 0.0
C1649 C 0.60263 0.96557 0.5975 0.0
C1650 C 0.63771 0.95918 0.59044 0.0
H1651 H 0.76685 0.92465 0.84196 0.0
H1652 H 0.80058 0.81548 0.84525 0.0
H1653 H 0.8614 0.83387 0.83564 0.0
H1654 H 0.82825 0.95398 0.79462 0.0
H1655 H 0.8353 0.99599 0.80871 0.0
H1656 H 0.79357 0.97378 0.81183 0.0
H1657 H 0.79929 0.97649 0.85741 0.0
H1658 H 0.84061 0.99905 0.85439 0.0
H1659 H 0.83821 0.95888 0.8713 0.0
H1660 H 0.91884 0.86437 0.83017 0.0
H1661 H 0.96945 0.90479 0.8341 0.0
H1662 H 0.89829 0.99405 0.83524 0.0
C1663 C 0.7869 0.90452 0.84021 0.0
C1664 C 0.77911 0.86866 0.84423 0.0
C1665 C 0.80611 0.84313 0.84226 0.0
C1666 C 0.84057 0.85328 0.83654 0.0
C1667 C 0.84743 0.88897 0.83281 0.0
C1668 C 0.82136 0.91421 0.83474 0.0
C1669 C 0.83623 0.95109 0.83292 0.0
C1670 C 0.82252 0.9698 0.81069 0.0
C1671 C 0.82812 0.97261 0.85534 0.0
C1672 C 0.87503 0.94275 0.83078 0.0
C1673 C 0.88083 0.90676 0.83005 0.0
C1674 C 0.91464 0.89258 0.83034 0.0
C1675 C 0.94318 0.91569 0.83259 0.0
C1676 C 0.93761 0.95244 0.83485 0.0
C1677 C 0.90325 0.96616 0.8329 0.0
H1678 H 0.88966 0.05461 0.11638 0.0
H1679 H 0.82002 0.99286 0.0718 0.0
H1680 H 0.78582 0.0458 0.06253 0.0
H1681 H 0.82612 0.10367 0.14232 0.0
H1682 H 0.84964 0.14491 0.14342 0.0
H1683 H 0.8736 0.10412 0.1428 0.0
H1684 H 0.90767 0.12488 0.10569 0.0
H1685 H 0.88388 0.16601 0.10627 0.0
H1686 H 0.8836 0.1392 0.08001 0.0
H1687 H 0.75238 0.10067 0.06442 0.0
H1688 H 0.72288 0.15532 0.07651 0.0
H1689 H 0.81548 0.18479 0.11712 0.0
C1690 C 0.86792 0.05263 0.10408 0.0
C1691 C 0.85741 0.01973 0.09493 0.0
C1692 C 0.82841 0.01783 0.07921 0.0
C1693 C 0.80893 0.04781 0.07361 0.0
C1694 C 0.81899 0.07966 0.08361 0.0
C1695 C 0.84803 0.08252 0.09827 0.0
C1696 C 0.8505 0.11915 0.10875 0.0
C1697 C 0.84991 0.11785 0.13592 0.0
C1698 C 0.88337 0.13846 0.09962 0.0
C1699 C 0.81712 0.13539 0.09891 0.0
C1700 C 0.79971 0.11236 0.08412 0.0
C1701 C 0.76622 0.11955 0.07533 0.0
C1702 C 0.74968 0.15082 0.08226 0.0
C1703 C 0.7667 0.17459 0.09781 0.0
C1704 C 0.80143 0.16715 0.10543 0.0
H1705 H 0.61617 0.97913 0.35034 0.0
H1706 H 0.54155 0.05792 0.32692 0.0
H1707 H 0.58928 0.10179 0.32418 0.0
H1708 H 0.66068 0.02908 0.38737 0.0
H1709 H 0.70469 0.01343 0.38169 0.0
H1710 H 0.66764 0.98526 0.37593 0.0
H1711 H 0.68699 0.97734 0.33244 0.0
H1712 H 0.725 0.00453 0.33819 0.0
H1713 H 0.69539 0.01565 0.31449 0.0
H1714 H 0.63986 0.13967 0.33435 0.0
H1715 H 0.6949 0.16746 0.34842 0.0
H1716 H 0.73866 0.06416 0.36293 0.0
C1717 C 0.61051 0.00501 0.34323 0.0
C1718 C 0.57558 0.01527 0.33849 0.0
C1719 C 0.56844 0.04968 0.33019 0.0
C1720 C 0.5953 0.07476 0.32874 0.0
C1721 C 0.62916 0.06468 0.33521 0.0
C1722 C 0.63724 0.03033 0.34146 0.0
C1723 C 0.67502 0.02742 0.34985 0.0
C1724 C 0.67709 0.01296 0.37521 0.0
C1725 C 0.6969 0.00491 0.33272 0.0
C1726 C 0.68597 0.06575 0.34884 0.0
C1727 C 0.65916 0.08677 0.34029 0.0
C1728 C 0.66152 0.12344 0.34032 0.0
C1729 C 0.69255 0.139 0.34868 0.0
C1730 C 0.72075 0.11782 0.35662 0.0
C1731 C 0.71746 0.0808 0.35664 0.0
H1732 H 0.27876 0.16418 0.42254 0.0
H1733 H 0.24703 0.17924 0.34967 0.0
H1734 H 0.28958 0.1341 0.33696 0.0
H1735 H 0.37225 0.14746 0.41071 0.0
H1736 H 0.37574 0.11395 0.43313 0.0
H1737 H 0.34471 0.14953 0.43659 0.0
H1738 H 0.29372 0.10457 0.44154 0.0
H1739 H 0.32471 0.06902 0.43852 0.0
H1740 H 0.28702 0.07131 0.41925 0.0
H1741 H 0.33323 0.08597 0.33212 0.0
H1742 H 0.37055 0.03274 0.33633 0.0
H1743 H 0.37322 0.04791 0.41203 0.0
C1744 C 0.28096 0.15793 0.40394 0.0
C1745 C 0.2595 0.17479 0.38711 0.0
C1746 C 0.26286 0.16605 0.36289 0.0
C1747 C 0.28726 0.14084 0.35545 0.0
C1748 C 0.30815 0.12471 0.37244 0.0
C1749 C 0.30501 0.13253 0.39621 0.0
C1750 C 0.32878 0.10936 0.41095 0.0
C1751 C 0.35705 0.1314 0.42359 0.0
C1752 C 0.30727 0.08725 0.42859 0.0
C1753 C 0.34487 0.08669 0.39181 0.0
C1754 C 0.33327 0.09655 0.36966 0.0
C1755 C 0.34299 0.07828 0.34931 0.0
C1756 C 0.36427 0.04837 0.35178 0.0
C1757 C 0.37508 0.03727 0.37439 0.0
C1758 C 0.36589 0.05686 0.39455 0.0
H1759 H 0.07936 0.02586 0.11203 0.0
H1760 H 0.06247 0.00071 0.18602 0.0
H1761 H 0.11632 0.03387 0.1963 0.0
H1762 H 0.1721 0.0221 0.11195 0.0
H1763 H 0.17755 0.05908 0.09242 0.0
H1764 H 0.13853 0.03237 0.09051 0.0
H1765 H 0.09929 0.08734 0.09652 0.0
H1766 H 0.13804 0.11462 0.09797 0.0
H1767 H 0.10649 0.11541 0.12174 0.0
H1768 H 0.17342 0.06809 0.19799 0.0
H1769 H 0.22752 0.10333 0.19112 0.0
H1770 H 0.20141 0.11179 0.11695 0.0
C1771 C 0.08639 0.02768 0.1305 0.0
C1772 C 0.06642 0.01071 0.14821 0.0
C1773 C 0.07754 0.01299 0.17204 0.0
C1774 C 0.1079 0.03205 0.1781 0.0
C1775 C 0.12641 0.04901 0.16016 0.0
C1776 C 0.11584 0.04724 0.13689 0.0
C1777 C 0.13979 0.06818 0.12089 0.0
C1778 C 0.15805 0.04396 0.10289 0.0
C1779 C 0.11969 0.09817 0.10857 0.0
C1780 C 0.16555 0.08227 0.13881 0.0
C1781 C 0.15777 0.07049 0.16133 0.0
C1782 C 0.17941 0.078 0.18053 0.0
C1783 C 0.20989 0.09794 0.17652 0.0
C1784 C 0.21768 0.11066 0.15366 0.0
C1785 C 0.19517 0.10307 0.13466 0.0
H1786 H 0.09524 0.93479 0.89512 0.0
H1787 H 0.17831 0.00755 0.91533 0.0
H1788 H 0.21734 0.95767 0.92427 0.0
H1789 H 0.11562 0.86776 0.94014 0.0
H1790 H 0.10586 0.83149 0.92065 0.0
H1791 H 0.08322 0.87291 0.91714 0.0
H1792 H 0.10345 0.87611 0.87349 0.0
H1793 H 0.12584 0.83463 0.8768 0.0
H1794 H 0.14971 0.87281 0.86666 0.0
H1795 H 0.24914 0.90113 0.92736 0.0
H1796 H 0.27232 0.84108 0.92329 0.0
H1797 H 0.16756 0.80373 0.90485 0.0
C1798 C 0.12159 0.94012 0.90151 0.0
C1799 C 0.13375 0.97495 0.90453 0.0
C1800 C 0.16838 0.98101 0.91297 0.0
C1801 C 0.19074 0.95288 0.91821 0.0
C1802 C 0.17796 0.91886 0.91523 0.0
C1803 C 0.14423 0.91226 0.90715 0.0
C1804 C 0.13775 0.8731 0.90456 0.0
C1805 C 0.1089 0.86058 0.92165 0.0
C1806 C 0.12867 0.86362 0.87885 0.0
C1807 C 0.17353 0.85896 0.91163 0.0
C1808 C 0.19619 0.8858 0.9179 0.0
C1809 C 0.23151 0.87968 0.923 0.0
C1810 C 0.24437 0.84528 0.92084 0.0
C1811 C 0.22188 0.81736 0.91377 0.0
C1812 C 0.18567 0.82435 0.91006 0.0
H1813 H 0.27002 0.91797 0.66867 0.0
H1814 H 0.31591 0.8168 0.65044 0.0
H1815 H 0.37532 0.8412 0.65842 0.0
H1816 H 0.3292 0.96814 0.63928 0.0
H1817 H 0.3297 0.00393 0.66021 0.0
H1818 H 0.29149 0.97635 0.65783 0.0
H1819 H 0.29542 0.96242 0.70256 0.0
H1820 H 0.33407 0.98981 0.705 0.0
H1821 H 0.33557 0.94453 0.71456 0.0
H1822 H 0.42909 0.8789 0.66255 0.0
H1823 H 0.47216 0.92725 0.65814 0.0
H1824 H 0.39073 0.00373 0.6731 0.0
C1825 C 0.29243 0.90054 0.66683 0.0
C1826 C 0.28837 0.8654 0.65898 0.0
C1827 C 0.31845 0.84376 0.65649 0.0
C1828 C 0.3522 0.85733 0.6612 0.0
C1829 C 0.3552 0.89238 0.66856 0.0
C1830 C 0.326 0.91365 0.6713 0.0
C1831 C 0.33607 0.95155 0.67613 0.0
C1832 C 0.32073 0.97642 0.65723 0.0
C1833 C 0.3246 0.96272 0.70105 0.0
C1834 C 0.37567 0.9489 0.67438 0.0
C1835 C 0.38627 0.91434 0.67076 0.0
C1836 C 0.42121 0.90584 0.66596 0.0
C1837 C 0.4455 0.93339 0.6636 0.0
C1838 C 0.43462 0.96891 0.66582 0.0
C1839 C 0.39972 0.97668 0.67224 0.0
loop_
_geom_bond_atom_site_label_1
_geom_bond_atom_site_label_2
_geom_bond_distance
_geom_bond_site_symmetry_2
_ccdc_geom_bond_type
C0 O16 1.251 . S
C0 O18 1.254 . S
N1 C2 1.333 . S
N1 C6 1.307 . S
N1 Zn7 2.020 . S
C2 N1 1.333 . S
C2 C3 1.379 . S
C2 H20 0.952 . S
C3 C2 1.379 . S
C3 C4 1.390 . S
C3 H30 0.949 . S
C4 C3 1.390 . S
C4 C5 1.357 . S
C5 C4 1.357 . S
C5 C6 1.370 . S
C5 H31 0.950 . S
C6 N1 1.307 . S
C6 C5 1.370 . S
C6 H24 0.948 . S
Zn7 N1 2.020 . S
Zn7 O16 2.039 . S
Zn7 O22 2.034 . S
Zn7 O26 2.025 . S
Zn7 O28 2.024 . S
C8 O27 1.246 . S
C8 O28 1.249 . S
N9 C10 1.307 . S
N9 C11 1.333 . S
N9 Zn15 2.020 . S
C10 N9 1.307 . S
C10 C14 1.370 . S
C10 H21 0.948 . S
C11 N9 1.333 . S
C11 C12 1.379 . S
C11 H19 0.952 . S
C12 C11 1.379 . S
C12 C13 1.390 . S
C12 H32 0.949 . S
C13 C12 1.390 . S
C13 C14 1.357 . S
C14 C10 1.370 . S
C14 C13 1.357 . S
C14 H33 0.950 . S
Zn15 N9 2.020 . S
Zn15 O18 2.025 . S
Zn15 O23 2.024 . S
Zn15 O25 2.039 . S
Zn15 O27 2.034 . S
O16 C0 1.251 . S
O16 Zn7 2.039 . S
C17 O22 1.246 . S
C17 O23 1.249 . S
O18 C0 1.254 . S
O18 Zn15 2.025 . S
H19 C11 0.952 . S
H20 C2 0.952 . S
H21 C10 0.948 . S
O22 Zn7 2.034 . S
O22 C17 1.246 . S
O23 Zn15 2.024 . S
O23 C17 1.249 . S
H24 C6 0.948 . S
O25 Zn15 2.039 . S
O25 C29 1.251 . S
O26 Zn7 2.025 . S
O26 C29 1.254 . S
O27 C8 1.246 . S
O27 Zn15 2.034 . S
O28 Zn7 2.024 . S
O28 C8 1.249 . S
C29 O25 1.251 . S
C29 O26 1.254 . S
H30 C3 0.949 . S
H31 C5 0.950 . S
H32 C12 0.949 . S
H33 C14 0.950 . S
C34 O50 1.251 . S
C34 O52 1.254 . S
N35 C36 1.333 . S
N35 C40 1.307 . S
N35 Zn41 2.020 . S
C36 N35 1.333 . S
C36 C37 1.379 . S
C36 H54 0.952 . S
C37 C36 1.379 . S
C37 C38 1.390 . S
C37 H64 0.949 . S
C38 C37 1.390 . S
C38 C39 1.357 . S
C39 C38 1.357 . S
C39 C40 1.370 . S
C39 H65 0.950 . S
C40 N35 1.307 . S
C40 C39 1.370 . S
C40 H58 0.948 . S
Zn41 N35 2.020 . S
Zn41 O50 2.039 . S
Zn41 O56 2.034 . S
Zn41 O60 2.025 . S
Zn41 O62 2.024 . S
C42 O61 1.246 . S
C42 O62 1.249 . S
N43 C44 1.307 . S
N43 C45 1.333 . S
N43 Zn49 2.020 . S
C44 N43 1.307 . S
C44 C48 1.370 . S
C44 H55 0.948 . S
C45 N43 1.333 . S
C45 C46 1.379 . S
C45 H53 0.952 . S
C46 C45 1.379 . S
C46 C47 1.390 . S
C46 H66 0.949 . S
C47 C46 1.390 . S
C47 C48 1.357 . S
C48 C44 1.370 . S
C48 C47 1.357 . S
C48 H67 0.950 . S
Zn49 N43 2.020 . S
Zn49 O52 2.025 . S
Zn49 O57 2.024 . S
Zn49 O59 2.039 . S
Zn49 O61 2.034 . S
O50 C34 1.251 . S
O50 Zn41 2.039 . S
C51 O56 1.246 . S
C51 O57 1.249 . S
O52 C34 1.254 . S
O52 Zn49 2.025 . S
H53 C45 0.952 . S
H54 C36 0.952 . S
H55 C44 0.948 . S
O56 Zn41 2.034 . S
O56 C51 1.246 . S
O57 Zn49 2.024 . S
O57 C51 1.249 . S
H58 C40 0.948 . S
O59 Zn49 2.039 . S
O59 C63 1.251 . S
O60 Zn41 2.025 . S
O60 C63 1.254 . S
O61 C42 1.246 . S
O61 Zn49 2.034 . S
O62 Zn41 2.024 . S
O62 C42 1.249 . S
C63 O59 1.251 . S
C63 O60 1.254 . S
H64 C37 0.949 . S
H65 C39 0.950 . S
H66 C46 0.949 . S
H67 C48 0.950 . S
C68 O84 1.251 . S
C68 O86 1.254 . S
N69 C70 1.333 . S
N69 C74 1.307 . S
N69 Zn75 2.020 . S
C70 N69 1.333 . S
C70 C71 1.379 . S
C70 H88 0.952 . S
C71 C70 1.379 . S
C71 C72 1.390 . S
C71 H98 0.949 . S
C72 C71 1.390 . S
C72 C73 1.357 . S
C73 C72 1.357 . S
C73 C74 1.370 . S
C73 H99 0.950 . S
C74 N69 1.307 . S
C74 C73 1.370 . S
C74 H92 0.948 . S
Zn75 N69 2.020 . S
Zn75 O84 2.039 . S
Zn75 O90 2.034 . S
Zn75 O94 2.025 . S
Zn75 O96 2.024 . S
C76 O95 1.246 . S
C76 O96 1.249 . S
N77 C78 1.307 . S
N77 C79 1.333 . S
N77 Zn83 2.020 . S
C78 N77 1.307 . S
C78 C82 1.370 . S
C78 H89 0.948 . S
C79 N77 1.333 . S
C79 C80 1.379 . S
C79 H87 0.952 . S
C80 C79 1.379 . S
C80 C81 1.390 . S
C80 H100 0.949 . S
C81 C80 1.390 . S
C81 C82 1.357 . S
C82 C78 1.370 . S
C82 C81 1.357 . S
C82 H101 0.950 . S
Zn83 N77 2.020 . S
Zn83 O86 2.025 . S
Zn83 O91 2.024 . S
Zn83 O93 2.039 . S
Zn83 O95 2.034 . S
O84 C68 1.251 . S
O84 Zn75 2.039 . S
C85 O90 1.246 . S
C85 O91 1.249 . S
O86 C68 1.254 . S
O86 Zn83 2.025 . S
H87 C79 0.952 . S
H88 C70 0.952 . S
H89 C78 0.948 . S
O90 Zn75 2.034 . S
O90 C85 1.246 . S
O91 Zn83 2.024 . S
O91 C85 1.249 . S
H92 C74 0.948 . S
O93 Zn83 2.039 . S
O93 C97 1.251 . S
O94 Zn75 2.025 . S
O94 C97 1.254 . S
O95 C76 1.246 . S
O95 Zn83 2.034 . S
O96 Zn75 2.024 . S
O96 C76 1.249 . S
C97 O93 1.251 . S
C97 O94 1.254 . S
H98 C71 0.949 . S
H99 C73 0.950 . S
H100 C80 0.949 . S
H101 C82 0.950 . S
C102 O118 1.251 . S
C102 O120 1.254 . S
N103 C104 1.333 . S
N103 C108 1.307 1_655 S
N103 Zn109 2.020 . S
C104 N103 1.333 . S
C104 C105 1.379 1_655 S
C104 H122 0.952 . S
C105 C104 1.379 1_455 S
C105 C106 1.390 . S
C105 H132 0.949 . S
C106 C105 1.390 . S
C106 C107 1.357 . S
C107 C106 1.357 . S
C107 C108 1.370 . S
C107 H133 0.950 . S
C108 N103 1.307 1_455 S
C108 C107 1.370 . S
C108 H126 0.948 . S
Zn109 N103 2.020 . S
Zn109 O118 2.039 . S
Zn109 O124 2.034 . S
Zn109 O128 2.025 . S
Zn109 O130 2.024 . S
C110 O129 1.246 . S
C110 O130 1.249 . S
N111 C112 1.307 . S
N111 C113 1.333 . S
N111 Zn117 2.020 . S
C112 N111 1.307 . S
C112 C116 1.370 . S
C112 H123 0.948 . S
C113 N111 1.333 . S
C113 C114 1.379 . S
C113 H121 0.952 . S
C114 C113 1.379 . S
C114 C115 1.390 . S
C114 H134 0.949 . S
C115 C114 1.390 . S
C115 C116 1.357 . S
C116 C112 1.370 . S
C116 C115 1.357 . S
C116 H135 0.950 . S
Zn117 N111 2.020 . S
Zn117 O120 2.025 . S
Zn117 O125 2.024 . S
Zn117 O127 2.039 . S
Zn117 O129 2.034 . S
O118 C102 1.251 . S
O118 Zn109 2.039 . S
C119 O124 1.246 . S
C119 O125 1.249 . S
O120 C102 1.254 . S
O120 Zn117 2.025 . S
H121 C113 0.952 . S
H122 C104 0.952 . S
H123 C112 0.948 . S
O124 Zn109 2.034 . S
O124 C119 1.246 . S
O125 Zn117 2.024 . S
O125 C119 1.249 . S
H126 C108 0.948 . S
O127 Zn117 2.039 . S
O127 C131 1.251 . S
O128 Zn109 2.025 . S
O128 C131 1.254 . S
O129 C110 1.246 . S
O129 Zn117 2.034 . S
O130 Zn109 2.024 . S
O130 C110 1.249 . S
C131 O127 1.251 . S
C131 O128 1.254 . S
H132 C105 0.949 . S
H133 C107 0.950 . S
H134 C114 0.949 . S
H135 C116 0.950 . S
C136 O152 1.251 . S
C136 O154 1.254 . S
N137 C138 1.333 . S
N137 C142 1.307 . S
N137 Zn143 2.020 . S
C138 N137 1.333 . S
C138 C139 1.379 . S
C138 H156 0.952 . S
C139 C138 1.379 . S
C139 C140 1.390 . S
C139 H166 0.949 . S
C140 C139 1.390 . S
C140 C141 1.357 . S
C141 C140 1.357 . S
C141 C142 1.370 . S
C141 H167 0.950 . S
C142 N137 1.307 . S
C142 C141 1.370 . S
C142 H160 0.948 . S
Zn143 N137 2.020 . S
Zn143 O152 2.039 . S
Zn143 O158 2.034 . S
Zn143 O162 2.025 . S
Zn143 O164 2.024 . S
C144 O163 1.246 . S
C144 O164 1.249 . S
N145 C146 1.307 . S
N145 C147 1.333 . S
N145 Zn151 2.020 . S
C146 N145 1.307 . S
C146 C150 1.370 . S
C146 H157 0.948 . S
C147 N145 1.333 . S
C147 C148 1.379 . S
C147 H155 0.952 . S
C148 C147 1.379 . S
C148 C149 1.390 . S
C148 H168 0.949 . S
C149 C148 1.390 . S
C149 C150 1.357 . S
C150 C146 1.370 . S
C150 C149 1.357 . S
C150 H169 0.950 . S
Zn151 N145 2.020 . S
Zn151 O154 2.025 . S
Zn151 O159 2.024 . S
Zn151 O161 2.039 . S
Zn151 O163 2.034 . S
O152 C136 1.251 . S
O152 Zn143 2.039 . S
C153 O158 1.246 . S
C153 O159 1.249 . S
O154 C136 1.254 . S
O154 Zn151 2.025 . S
H155 C147 0.952 . S
H156 C138 0.952 . S
H157 C146 0.948 . S
O158 Zn143 2.034 . S
O158 C153 1.246 . S
O159 Zn151 2.024 . S
O159 C153 1.249 . S
H160 C142 0.948 . S
O161 Zn151 2.039 . S
O161 C165 1.251 . S
O162 Zn143 2.025 . S
O162 C165 1.254 . S
O163 C144 1.246 . S
O163 Zn151 2.034 . S
O164 Zn143 2.024 . S
O164 C144 1.249 . S
C165 O161 1.251 . S
C165 O162 1.254 . S
H166 C139 0.949 . S
H167 C141 0.950 . S
H168 C148 0.949 . S
H169 C150 0.950 . S
C170 O186 1.251 . S
C170 O188 1.254 . S
N171 C172 1.333 . S
N171 C176 1.307 . S
N171 Zn177 2.020 . S
C172 N171 1.333 . S
C172 C173 1.379 . S
C172 H190 0.952 . S
C173 C172 1.379 . S
C173 C174 1.390 . S
C173 H200 0.949 . S
C174 C173 1.390 . S
C174 C175 1.357 . S
C175 C174 1.357 . S
C175 C176 1.370 . S
C175 H201 0.950 . S
C176 N171 1.307 . S
C176 C175 1.370 . S
C176 H194 0.948 . S
Zn177 N171 2.020 . S
Zn177 O186 2.039 . S
Zn177 O192 2.034 . S
Zn177 O196 2.025 . S
Zn177 O198 2.024 . S
C178 O197 1.246 . S
C178 O198 1.249 . S
N179 C180 1.307 . S
N179 C181 1.333 . S
N179 Zn185 2.020 . S
C180 N179 1.307 . S
C180 C184 1.370 . S
C180 H191 0.948 . S
C181 N179 1.333 . S
C181 C182 1.379 . S
C181 H189 0.952 . S
C182 C181 1.379 . S
C182 C183 1.390 . S
C182 H202 0.949 . S
C183 C182 1.390 . S
C183 C184 1.357 . S
C184 C180 1.370 . S
C184 C183 1.357 . S
C184 H203 0.950 . S
Zn185 N179 2.020 . S
Zn185 O188 2.025 . S
Zn185 O193 2.024 . S
Zn185 O195 2.039 . S
Zn185 O197 2.034 . S
O186 C170 1.251 . S
O186 Zn177 2.039 . S
C187 O192 1.246 . S
C187 O193 1.249 . S
O188 C170 1.254 . S
O188 Zn185 2.025 . S
H189 C181 0.952 . S
H190 C172 0.952 . S
H191 C180 0.948 . S
O192 Zn177 2.034 . S
O192 C187 1.246 . S
O193 Zn185 2.024 . S
O193 C187 1.249 . S
H194 C176 0.948 . S
O195 Zn185 2.039 . S
O195 C199 1.251 . S
O196 Zn177 2.025 . S
O196 C199 1.254 . S
O197 C178 1.246 . S
O197 Zn185 2.034 . S
O198 Zn177 2.024 . S
O198 C178 1.249 . S
C199 O195 1.251 . S
C199 O196 1.254 . S
H200 C173 0.949 . S
H201 C175 0.950 . S
H202 C182 0.949 . S
H203 C184 0.950 . S
C204 O220 1.251 . S
C204 O222 1.254 . S
N205 C206 1.333 . S
N205 C210 1.307 . S
N205 Zn211 2.020 . S
C206 N205 1.333 . S
C206 C207 1.379 . S
C206 H224 0.952 . S
C207 C206 1.379 . S
C207 C208 1.390 . S
C207 H234 0.949 . S
C208 C207 1.390 . S
C208 C209 1.357 . S
C209 C208 1.357 . S
C209 C210 1.370 . S
C209 H235 0.950 . S
C210 N205 1.307 . S
C210 C209 1.370 . S
C210 H228 0.948 . S
Zn211 N205 2.020 . S
Zn211 O220 2.039 . S
Zn211 O226 2.034 . S
Zn211 O230 2.025 . S
Zn211 O232 2.024 . S
C212 O231 1.246 . S
C212 O232 1.249 . S
N213 C214 1.307 . S
N213 C215 1.333 . S
N213 Zn219 2.020 . S
C214 N213 1.307 . S
C214 C218 1.370 . S
C214 H225 0.948 . S
C215 N213 1.333 . S
C215 C216 1.379 . S
C215 H223 0.952 . S
C216 C215 1.379 . S
C216 C217 1.390 . S
C216 H236 0.949 . S
C217 C216 1.390 . S
C217 C218 1.357 . S
C218 C214 1.370 . S
C218 C217 1.357 . S
C218 H237 0.950 . S
Zn219 N213 2.020 . S
Zn219 O222 2.025 . S
Zn219 O227 2.024 . S
Zn219 O229 2.039 . S
Zn219 O231 2.034 . S
O220 C204 1.251 . S
O220 Zn211 2.039 . S
C221 O226 1.246 . S
C221 O227 1.249 . S
O222 C204 1.254 . S
O222 Zn219 2.025 . S
H223 C215 0.952 . S
H224 C206 0.952 . S
H225 C214 0.948 . S
O226 Zn211 2.034 . S
O226 C221 1.246 . S
O227 Zn219 2.024 . S
O227 C221 1.249 . S
H228 C210 0.948 . S
O229 Zn219 2.039 . S
O229 C233 1.251 . S
O230 Zn211 2.025 . S
O230 C233 1.254 . S
O231 C212 1.246 . S
O231 Zn219 2.034 . S
O232 Zn211 2.024 . S
O232 C212 1.249 . S
C233 O229 1.251 . S
C233 O230 1.254 . S
H234 C207 0.949 . S
H235 C209 0.950 . S
H236 C216 0.949 . S
H237 C218 0.950 . S
C238 O254 1.251 . S
C238 O256 1.254 . S
N239 C240 1.333 . S
N239 C244 1.307 . S
N239 Zn245 2.020 . S
C240 N239 1.333 . S
C240 C241 1.379 . S
C240 H258 0.952 . S
C241 C240 1.379 . S
C241 C242 1.390 . S
C241 H268 0.949 . S
C242 C241 1.390 . S
C242 C243 1.357 . S
C243 C242 1.357 . S
C243 C244 1.370 . S
C243 H269 0.950 . S
C244 N239 1.307 . S
C244 C243 1.370 . S
C244 H262 0.948 . S
Zn245 N239 2.020 . S
Zn245 O254 2.039 . S
Zn245 O260 2.034 . S
Zn245 O264 2.025 . S
Zn245 O266 2.024 . S
C246 O265 1.246 . S
C246 O266 1.249 . S
N247 C248 1.307 1_455 S
N247 C249 1.333 . S
N247 Zn253 2.020 . S
C248 N247 1.307 1_655 S
C248 C252 1.370 . S
C248 H259 0.948 . S
C249 N247 1.333 . S
C249 C250 1.379 1_455 S
C249 H257 0.952 . S
C250 C249 1.379 1_655 S
C250 C251 1.390 . S
C250 H270 0.949 . S
C251 C250 1.390 . S
C251 C252 1.357 . S
C252 C248 1.370 . S
C252 C251 1.357 . S
C252 H271 0.950 . S
Zn253 N247 2.020 . S
Zn253 O256 2.025 . S
Zn253 O261 2.024 . S
Zn253 O263 2.039 . S
Zn253 O265 2.034 . S
O254 C238 1.251 . S
O254 Zn245 2.039 . S
C255 O260 1.246 . S
C255 O261 1.249 . S
O256 C238 1.254 . S
O256 Zn253 2.025 . S
H257 C249 0.952 . S
H258 C240 0.952 . S
H259 C248 0.948 . S
O260 Zn245 2.034 . S
O260 C255 1.246 . S
O261 Zn253 2.024 . S
O261 C255 1.249 . S
H262 C244 0.948 . S
O263 Zn253 2.039 . S
O263 C267 1.251 . S
O264 Zn245 2.025 . S
O264 C267 1.254 . S
O265 C246 1.246 . S
O265 Zn253 2.034 . S
O266 Zn245 2.024 . S
O266 C246 1.249 . S
C267 O263 1.251 . S
C267 O264 1.254 . S
H268 C241 0.949 . S
H269 C243 0.950 . S
H270 C250 0.949 . S
H271 C252 0.950 . S
C272 O288 1.251 . S
C272 O290 1.254 . S
N273 C274 1.333 . S
N273 C278 1.307 . S
N273 Zn279 2.020 . S
C274 N273 1.333 . S
C274 C275 1.379 . S
C274 H292 0.952 . S
C275 C274 1.379 . S
C275 C276 1.390 . S
C275 H302 0.949 . S
C276 C275 1.390 . S
C276 C277 1.357 . S
C277 C276 1.357 . S
C277 C278 1.370 . S
C277 H303 0.950 . S
C278 N273 1.307 . S
C278 C277 1.370 . S
C278 H296 0.948 . S
Zn279 N273 2.020 . S
Zn279 O288 2.039 . S
Zn279 O294 2.034 . S
Zn279 O298 2.025 . S
Zn279 O300 2.024 . S
C280 O299 1.246 . S
C280 O300 1.249 . S
N281 C282 1.307 . S
N281 C283 1.333 . S
N281 Zn287 2.020 . S
C282 N281 1.307 . S
C282 C286 1.370 . S
C282 H293 0.948 . S
C283 N281 1.333 . S
C283 C284 1.379 . S
C283 H291 0.952 . S
C284 C283 1.379 . S
C284 C285 1.390 . S
C284 H304 0.949 . S
C285 C284 1.390 . S
C285 C286 1.357 . S
C286 C282 1.370 . S
C286 C285 1.357 . S
C286 H305 0.950 . S
Zn287 N281 2.020 . S
Zn287 O290 2.025 . S
Zn287 O295 2.024 . S
Zn287 O297 2.039 . S
Zn287 O299 2.034 . S
O288 C272 1.251 . S
O288 Zn279 2.039 . S
C289 O294 1.246 . S
C289 O295 1.249 . S
O290 C272 1.254 . S
O290 Zn287 2.025 . S
H291 C283 0.952 . S
H292 C274 0.952 . S
H293 C282 0.948 . S
O294 Zn279 2.034 . S
O294 C289 1.246 . S
O295 Zn287 2.024 . S
O295 C289 1.249 . S
H296 C278 0.948 . S
O297 Zn287 2.039 . S
O297 C301 1.251 . S
O298 Zn279 2.025 . S
O298 C301 1.254 . S
O299 C280 1.246 . S
O299 Zn287 2.034 . S
O300 Zn279 2.024 . S
O300 C280 1.249 . S
C301 O297 1.251 . S
C301 O298 1.254 . S
H302 C275 0.949 . S
H303 C277 0.950 . S
H304 C284 0.949 . S
H305 C286 0.950 . S
C306 O322 1.251 . S
C306 O324 1.254 . S
N307 C308 1.333 . S
N307 C312 1.307 1_455 S
N307 Zn313 2.020 . S
C308 N307 1.333 . S
C308 C309 1.379 1_455 S
C308 H326 0.952 . S
C309 C308 1.379 1_655 S
C309 C310 1.390 1_545 S
C309 H336 0.949 . S
C310 C309 1.390 1_565 S
C310 C311 1.357 . S
C311 C310 1.357 . S
C311 C312 1.370 1_565 S
C311 H337 0.950 . S
C312 N307 1.307 1_655 S
C312 C311 1.370 1_545 S
C312 H330 0.948 1_545 S
Zn313 N307 2.020 . S
Zn313 O322 2.039 . S
Zn313 O328 2.034 . S
Zn313 O332 2.025 . S
Zn313 O334 2.051 . S
C314 O333 1.246 . S
C314 O334 1.250 . S
N315 C316 1.307 . S
N315 C317 1.333 . S
N315 Zn321 2.020 . S
C316 N315 1.307 . S
C316 C320 1.370 . S
C316 H327 0.948 . S
C317 N315 1.333 . S
C317 C318 1.379 . S
C317 H325 0.952 . S
C318 C317 1.379 . S
C318 C319 1.390 . S
C318 H338 0.949 . S
C319 C318 1.390 . S
C319 C320 1.357 . S
C320 C316 1.370 . S
C320 C319 1.357 . S
C320 H339 0.950 . S
Zn321 N315 2.020 . S
Zn321 O324 2.025 . S
Zn321 O329 2.024 . S
Zn321 O331 2.039 . S
Zn321 O333 2.034 . S
O322 C306 1.251 . S
O322 Zn313 2.039 . S
C323 O328 1.246 . S
C323 O329 1.249 . S
O324 C306 1.254 . S
O324 Zn321 2.025 . S
H325 C317 0.952 . S
H326 C308 0.952 . S
H327 C316 0.948 . S
O328 Zn313 2.034 . S
O328 C323 1.246 . S
O329 Zn321 2.024 . S
O329 C323 1.249 . S
H330 C312 0.948 1_565 S
O331 Zn321 2.039 . S
O331 C335 1.251 . S
O332 Zn313 2.025 . S
O332 C335 1.254 . S
O333 C314 1.246 . S
O333 Zn321 2.034 . S
O334 Zn313 2.051 . S
O334 C314 1.250 . S
C335 O331 1.251 . S
C335 O332 1.254 . S
H336 C309 0.949 . S
H337 C311 0.950 . S
H338 C318 0.949 . S
H339 C320 0.950 . S
C340 O356 1.251 . S
C340 O358 1.254 . S
N341 C342 1.333 . S
N341 C346 1.307 . S
N341 Zn347 2.020 . S
C342 N341 1.333 . S
C342 C343 1.379 . S
C342 H360 0.952 . S
C343 C342 1.379 . S
C343 C344 1.390 . S
C343 H370 0.949 . S
C344 C343 1.390 . S
C344 C345 1.357 . S
C345 C344 1.357 . S
C345 C346 1.370 . S
C345 H371 0.950 . S
C346 N341 1.307 . S
C346 C345 1.370 . S
C346 H364 0.948 . S
Zn347 N341 2.020 . S
Zn347 O356 2.039 . S
Zn347 O362 2.034 . S
Zn347 O366 2.025 . S
Zn347 O368 2.024 . S
C348 O367 1.246 . S
C348 O368 1.249 . S
N349 C350 1.307 . S
N349 C351 1.333 . S
N349 Zn355 2.020 . S
C350 N349 1.307 . S
C350 C354 1.370 . S
C350 H361 0.948 . S
C351 N349 1.333 . S
C351 C352 1.379 . S
C351 H359 0.952 . S
C352 C351 1.379 . S
C352 C353 1.390 . S
C352 H372 0.949 . S
C353 C352 1.390 . S
C353 C354 1.357 . S
C354 C350 1.370 . S
C354 C353 1.357 . S
C354 H373 0.950 . S
Zn355 N349 2.020 . S
Zn355 O358 2.025 . S
Zn355 O363 2.024 . S
Zn355 O365 2.039 . S
Zn355 O367 2.034 . S
O356 C340 1.251 . S
O356 Zn347 2.039 . S
C357 O362 1.246 . S
C357 O363 1.249 . S
O358 C340 1.254 . S
O358 Zn355 2.025 . S
H359 C351 0.952 . S
H360 C342 0.952 . S
H361 C350 0.948 . S
O362 Zn347 2.034 . S
O362 C357 1.246 . S
O363 Zn355 2.024 . S
O363 C357 1.249 . S
H364 C346 0.948 . S
O365 Zn355 2.039 . S
O365 C369 1.251 . S
O366 Zn347 2.025 . S
O366 C369 1.254 . S
O367 C348 1.246 . S
O367 Zn355 2.034 . S
O368 Zn347 2.024 . S
O368 C348 1.249 . S
C369 O365 1.251 . S
C369 O366 1.254 . S
H370 C343 0.949 . S
H371 C345 0.950 . S
H372 C352 0.949 . S
H373 C354 0.950 . S
C374 O390 1.251 . S
C374 O392 1.254 . S
N375 C376 1.333 . S
N375 C380 1.307 . S
N375 Zn381 2.020 . S
C376 N375 1.333 . S
C376 C377 1.379 . S
C376 H394 0.952 . S
C377 C376 1.379 . S
C377 C378 1.390 1_565 S
C377 H404 0.949 . S
C378 C377 1.390 1_545 S
C378 C379 1.357 . S
C379 C378 1.357 . S
C379 C380 1.370 1_545 S
C379 H405 0.950 . S
C380 N375 1.307 . S
C380 C379 1.370 1_565 S
C380 H398 0.948 1_565 S
Zn381 N375 2.020 . S
Zn381 O390 2.039 . S
Zn381 O396 2.034 . S
Zn381 O400 2.025 . S
Zn381 O402 2.051 . S
C382 O401 1.246 . S
C382 O402 1.250 . S
N383 C384 1.307 . S
N383 C385 1.333 . S
N383 Zn389 2.020 . S
C384 N383 1.307 . S
C384 C388 1.370 . S
C384 H395 0.948 . S
C385 N383 1.333 . S
C385 C386 1.379 . S
C385 H393 0.952 . S
C386 C385 1.379 . S
C386 C387 1.390 . S
C386 H406 0.949 . S
C387 C386 1.390 . S
C387 C388 1.357 . S
C388 C384 1.370 . S
C388 C387 1.357 . S
C388 H407 0.950 . S
Zn389 N383 2.020 . S
Zn389 O392 2.025 . S
Zn389 O397 2.024 . S
Zn389 O399 2.039 . S
Zn389 O401 2.034 . S
O390 C374 1.251 . S
O390 Zn381 2.039 . S
C391 O396 1.246 . S
C391 O397 1.249 . S
O392 C374 1.254 . S
O392 Zn389 2.025 . S
H393 C385 0.952 . S
H394 C376 0.952 . S
H395 C384 0.948 . S
O396 Zn381 2.034 . S
O396 C391 1.246 . S
O397 Zn389 2.024 . S
O397 C391 1.249 . S
H398 C380 0.948 1_545 S
O399 Zn389 2.039 . S
O399 C403 1.251 . S
O400 Zn381 2.025 . S
O400 C403 1.254 . S
O401 C382 1.246 . S
O401 Zn389 2.034 . S
O402 Zn381 2.051 . S
O402 C382 1.250 . S
C403 O399 1.251 . S
C403 O400 1.254 . S
H404 C377 0.949 . S
H405 C379 0.950 . S
H406 C386 0.949 . S
H407 C388 0.950 . S
C408 O424 1.251 . S
C408 O426 1.254 . S
N409 C410 1.333 . S
N409 C414 1.307 . S
N409 Zn415 2.020 . S
C410 N409 1.333 . S
C410 C411 1.379 . S
C410 H428 0.952 . S
C411 C410 1.379 . S
C411 C412 1.390 . S
C411 H438 0.949 . S
C412 C411 1.390 . S
C412 C413 1.357 . S
C413 C412 1.357 . S
C413 C414 1.370 . S
C413 H439 0.950 . S
C414 N409 1.307 . S
C414 C413 1.370 . S
C414 H432 0.948 . S
Zn415 N409 2.020 . S
Zn415 O424 2.039 . S
Zn415 O430 2.034 . S
Zn415 O434 2.025 . S
Zn415 O436 2.024 . S
C416 O435 1.246 . S
C416 O436 1.249 . S
N417 C418 1.307 . S
N417 C419 1.333 . S
N417 Zn423 2.020 . S
C418 N417 1.307 . S
C418 C422 1.370 . S
C418 H429 0.948 . S
C419 N417 1.333 . S
C419 C420 1.379 . S
C419 H427 0.952 . S
C420 C419 1.379 . S
C420 C421 1.390 . S
C420 H440 0.949 . S
C421 C420 1.390 . S
C421 C422 1.357 . S
C422 C418 1.370 . S
C422 C421 1.357 . S
C422 H441 0.950 . S
Zn423 N417 2.020 . S
Zn423 O426 2.025 . S
Zn423 O431 2.024 . S
Zn423 O433 2.039 . S
Zn423 O435 2.034 . S
O424 C408 1.251 . S
O424 Zn415 2.039 . S
C425 O430 1.246 . S
C425 O431 1.249 . S
O426 C408 1.254 . S
O426 Zn423 2.025 . S
H427 C419 0.952 . S
H428 C410 0.952 . S
H429 C418 0.948 . S
O430 Zn415 2.034 . S
O430 C425 1.246 . S
O431 Zn423 2.024 . S
O431 C425 1.249 . S
H432 C414 0.948 . S
O433 Zn423 2.039 . S
O433 C437 1.251 . S
O434 Zn415 2.025 . S
O434 C437 1.254 . S
O435 C416 1.246 . S
O435 Zn423 2.034 . S
O436 Zn415 2.024 . S
O436 C416 1.249 . S
C437 O433 1.251 . S
C437 O434 1.254 . S
H438 C411 0.949 . S
H439 C413 0.950 . S
H440 C420 0.949 . S
H441 C422 0.950 . S
C442 O458 1.251 . S
C442 O460 1.254 . S
N443 C444 1.333 . S
N443 C448 1.307 . S
N443 Zn449 2.020 . S
C444 N443 1.333 . S
C444 C445 1.379 . S
C444 H462 0.952 . S
C445 C444 1.379 . S
C445 C446 1.390 . S
C445 H472 0.949 . S
C446 C445 1.390 . S
C446 C447 1.357 . S
C447 C446 1.357 . S
C447 C448 1.370 . S
C447 H473 0.950 . S
C448 N443 1.307 . S
C448 C447 1.370 . S
C448 H466 0.948 . S
Zn449 N443 2.020 . S
Zn449 O458 2.039 . S
Zn449 O464 2.034 . S
Zn449 O468 2.025 . S
Zn449 O470 2.024 . S
C450 O469 1.246 . S
C450 O470 1.249 . S
N451 C452 1.307 1_655 S
N451 C453 1.333 . S
N451 Zn457 2.020 . S
C452 N451 1.307 1_455 S
C452 C456 1.370 1_565 S
C452 H463 0.948 1_565 S
C453 N451 1.333 . S
C453 C454 1.379 1_655 S
C453 H461 0.952 . S
C454 C453 1.379 1_455 S
C454 C455 1.390 1_565 S
C454 H474 0.949 . S
C455 C454 1.390 1_545 S
C455 C456 1.357 . S
C456 C452 1.370 1_545 S
C456 C455 1.357 . S
C456 H475 0.950 . S
Zn457 N451 2.020 . S
Zn457 O460 2.025 . S
Zn457 O465 2.051 . S
Zn457 O467 2.039 . S
Zn457 O469 2.034 . S
O458 C442 1.251 . S
O458 Zn449 2.039 . S
C459 O464 1.246 . S
C459 O465 1.250 . S
O460 C442 1.254 . S
O460 Zn457 2.025 . S
H461 C453 0.952 . S
H462 C444 0.952 . S
H463 C452 0.948 1_545 S
O464 Zn449 2.034 . S
O464 C459 1.246 . S
O465 Zn457 2.051 . S
O465 C459 1.250 . S
H466 C448 0.948 . S
O467 Zn457 2.039 . S
O467 C471 1.251 . S
O468 Zn449 2.025 . S
O468 C471 1.254 . S
O469 C450 1.246 . S
O469 Zn457 2.034 . S
O470 Zn449 2.024 . S
O470 C450 1.249 . S
C471 O467 1.251 . S
C471 O468 1.254 . S
H472 C445 0.949 . S
H473 C447 0.950 . S
H474 C454 0.949 . S
H475 C456 0.950 . S
C476 O492 1.251 . S
C476 O494 1.254 . S
N477 C478 1.333 . S
N477 C482 1.307 . S
N477 Zn483 2.020 . S
C478 N477 1.333 . S
C478 C479 1.379 . S
C478 H496 0.952 . S
C479 C478 1.379 . S
C479 C480 1.390 . S
C479 H506 0.949 . S
C480 C479 1.390 . S
C480 C481 1.357 . S
C481 C480 1.357 . S
C481 C482 1.370 . S
C481 H507 0.950 . S
C482 N477 1.307 . S
C482 C481 1.370 . S
C482 H500 0.948 . S
Zn483 N477 2.020 . S
Zn483 O492 2.039 . S
Zn483 O498 2.034 . S
Zn483 O502 2.025 . S
Zn483 O504 2.024 . S
C484 O503 1.246 . S
C484 O504 1.249 . S
N485 C486 1.307 . S
N485 C487 1.333 . S
N485 Zn491 2.020 . S
C486 N485 1.307 . S
C486 C490 1.370 . S
C486 H497 0.948 . S
C487 N485 1.333 . S
C487 C488 1.379 . S
C487 H495 0.952 . S
C488 C487 1.379 . S
C488 C489 1.390 . S
C488 H508 0.949 . S
C489 C488 1.390 . S
C489 C490 1.357 . S
C490 C486 1.370 . S
C490 C489 1.357 . S
C490 H509 0.950 . S
Zn491 N485 2.020 . S
Zn491 O494 2.025 . S
Zn491 O499 2.024 . S
Zn491 O501 2.039 . S
Zn491 O503 2.034 . S
O492 C476 1.251 . S
O492 Zn483 2.039 . S
C493 O498 1.246 . S
C493 O499 1.249 . S
O494 C476 1.254 . S
O494 Zn491 2.025 . S
H495 C487 0.952 . S
H496 C478 0.952 . S
H497 C486 0.948 . S
O498 Zn483 2.034 . S
O498 C493 1.246 . S
O499 Zn491 2.024 . S
O499 C493 1.249 . S
H500 C482 0.948 . S
O501 Zn491 2.039 . S
O501 C505 1.251 . S
O502 Zn483 2.025 . S
O502 C505 1.254 . S
O503 C484 1.246 . S
O503 Zn491 2.034 . S
O504 Zn483 2.024 . S
O504 C484 1.249 . S
C505 O501 1.251 . S
C505 O502 1.254 . S
H506 C479 0.949 . S
H507 C481 0.950 . S
H508 C488 0.949 . S
H509 C490 0.950 . S
C510 O526 1.251 . S
C510 O528 1.254 . S
N511 C512 1.333 . S
N511 C516 1.307 . S
N511 Zn517 2.020 . S
C512 N511 1.333 . S
C512 C513 1.379 . S
C512 H530 0.952 . S
C513 C512 1.379 . S
C513 C514 1.390 . S
C513 H540 0.949 . S
C514 C513 1.390 . S
C514 C515 1.357 . S
C515 C514 1.357 . S
C515 C516 1.370 . S
C515 H541 0.950 . S
C516 N511 1.307 . S
C516 C515 1.370 . S
C516 H534 0.948 . S
Zn517 N511 2.020 . S
Zn517 O526 2.039 . S
Zn517 O532 2.034 . S
Zn517 O536 2.025 . S
Zn517 O538 2.024 . S
C518 O537 1.246 . S
C518 O538 1.249 . S
N519 C520 1.307 . S
N519 C521 1.333 . S
N519 Zn525 2.020 . S
C520 N519 1.307 . S
C520 C524 1.370 1_545 S
C520 H531 0.948 1_545 S
C521 N519 1.333 . S
C521 C522 1.379 . S
C521 H529 0.952 . S
C522 C521 1.379 . S
C522 C523 1.390 1_545 S
C522 H542 0.949 . S
C523 C522 1.390 1_565 S
C523 C524 1.357 . S
C524 C520 1.370 1_565 S
C524 C523 1.357 . S
C524 H543 0.950 . S
Zn525 N519 2.020 . S
Zn525 O528 2.025 . S
Zn525 O533 2.051 . S
Zn525 O535 2.039 . S
Zn525 O537 2.034 . S
O526 C510 1.251 . S
O526 Zn517 2.039 . S
C527 O532 1.246 . S
C527 O533 1.250 . S
O528 C510 1.254 . S
O528 Zn525 2.025 . S
H529 C521 0.952 . S
H530 C512 0.952 . S
H531 C520 0.948 1_565 S
O532 Zn517 2.034 . S
O532 C527 1.246 . S
O533 Zn525 2.051 . S
O533 C527 1.250 . S
H534 C516 0.948 . S
O535 Zn525 2.039 . S
O535 C539 1.251 . S
O536 Zn517 2.025 . S
O536 C539 1.254 . S
O537 C518 1.246 . S
O537 Zn525 2.034 . S
O538 Zn517 2.024 . S
O538 C518 1.249 . S
C539 O535 1.251 . S
C539 O536 1.254 . S
H540 C513 0.949 . S
H541 C515 0.950 . S
H542 C522 0.949 . S
H543 C524 0.950 . S
H544 C556 0.930 . S
H545 C558 0.930 . S
H546 C559 0.930 . S
H547 C563 0.959 . S
H548 C563 0.959 . S
H549 C563 0.961 . S
H550 C564 0.960 . S
H551 C564 0.961 . S
H552 C564 0.959 . S
H553 C567 0.929 . S
H554 C568 0.931 . S
H555 C570 0.930 . S
C556 H544 0.930 . S
C556 C557 1.399 . S
C556 C561 1.399 . S
C557 C556 1.399 . S
C557 C558 1.376 . S
C558 H545 0.930 . S
C558 C557 1.376 . S
C558 C559 1.388 . S
C559 H546 0.930 . S
C559 C558 1.388 . S
C559 C560 1.390 . S
C560 C559 1.390 . S
C560 C561 1.394 . S
C560 C566 1.465 . S
C561 C556 1.399 . S
C561 C560 1.394 . S
C561 C562 1.516 . S
C562 C561 1.516 . S
C562 C563 1.502 . S
C562 C564 1.561 . S
C562 C565 1.526 . S
C563 H547 0.959 . S
C563 H548 0.959 . S
C563 H549 0.961 . S
C563 C562 1.502 . S
C564 H550 0.960 . S
C564 H551 0.961 . S
C564 H552 0.959 . S
C564 C562 1.561 . S
C565 C562 1.526 . S
C565 C566 1.396 . S
C565 C570 1.390 . S
C566 C560 1.465 . S
C566 C565 1.396 . S
C566 C567 1.399 . S
C567 H553 0.929 . S
C567 C566 1.399 . S
C567 C568 1.385 . S
C568 H554 0.931 . S
C568 C567 1.385 . S
C568 C569 1.389 . S
C569 C568 1.389 . S
C569 C570 1.387 . S
C570 H555 0.930 . S
C570 C565 1.390 . S
C570 C569 1.387 . S
H571 C583 0.930 . S
H572 C585 0.930 . S
H573 C586 0.930 . S
H574 C590 0.959 . S
H575 C590 0.959 . S
H576 C590 0.961 . S
H577 C591 0.960 . S
H578 C591 0.961 . S
H579 C591 0.959 . S
H580 C594 0.929 . S
H581 C595 0.931 . S
H582 C597 0.930 . S
C583 H571 0.930 . S
C583 C584 1.399 . S
C583 C588 1.399 . S
C584 C583 1.399 . S
C584 C585 1.376 . S
C585 H572 0.930 . S
C585 C584 1.376 . S
C585 C586 1.388 . S
C586 H573 0.930 . S
C586 C585 1.388 . S
C586 C587 1.390 . S
C587 C586 1.390 . S
C587 C588 1.394 . S
C587 C593 1.465 . S
C588 C583 1.399 . S
C588 C587 1.394 . S
C588 C589 1.516 . S
C589 C588 1.516 . S
C589 C590 1.502 . S
C589 C591 1.561 . S
C589 C592 1.526 . S
C590 H574 0.959 . S
C590 H575 0.959 . S
C590 H576 0.961 . S
C590 C589 1.502 . S
C591 H577 0.960 . S
C591 H578 0.961 . S
C591 H579 0.959 . S
C591 C589 1.561 . S
C592 C589 1.526 . S
C592 C593 1.396 . S
C592 C597 1.390 . S
C593 C587 1.465 . S
C593 C592 1.396 . S
C593 C594 1.399 . S
C594 H580 0.929 . S
C594 C593 1.399 . S
C594 C595 1.385 . S
C595 H581 0.931 . S
C595 C594 1.385 . S
C595 C596 1.389 . S
C596 C595 1.389 . S
C596 C597 1.387 . S
C597 H582 0.930 . S
C597 C592 1.390 . S
C597 C596 1.387 . S
H598 C610 0.930 . S
H599 C612 0.930 . S
H600 C613 0.930 . S
H601 C617 0.959 . S
H602 C617 0.959 . S
H603 C617 0.961 . S
H604 C618 0.960 . S
H605 C618 0.961 . S
H606 C618 0.959 . S
H607 C621 0.929 . S
H608 C622 0.931 . S
H609 C624 0.930 . S
C610 H598 0.930 . S
C610 C611 1.399 . S
C610 C615 1.399 . S
C611 C610 1.399 . S
C611 C612 1.376 . S
C612 H599 0.930 . S
C612 C611 1.376 . S
C612 C613 1.388 . S
C613 H600 0.930 . S
C613 C612 1.388 . S
C613 C614 1.390 . S
C614 C613 1.390 . S
C614 C615 1.394 . S
C614 C620 1.465 . S
C615 C610 1.399 . S
C615 C614 1.394 . S
C615 C616 1.516 . S
C616 C615 1.516 . S
C616 C617 1.502 . S
C616 C618 1.561 . S
C616 C619 1.526 . S
C617 H601 0.959 . S
C617 H602 0.959 . S
C617 H603 0.961 . S
C617 C616 1.502 . S
C618 H604 0.960 . S
C618 H605 0.961 . S
C618 H606 0.959 . S
C618 C616 1.561 . S
C619 C616 1.526 . S
C619 C620 1.396 . S
C619 C624 1.390 . S
C620 C614 1.465 . S
C620 C619 1.396 . S
C620 C621 1.399 . S
C621 H607 0.929 . S
C621 C620 1.399 . S
C621 C622 1.385 . S
C622 H608 0.931 . S
C622 C621 1.385 . S
C622 C623 1.389 . S
C623 C622 1.389 . S
C623 C624 1.387 . S
C624 H609 0.930 . S
C624 C619 1.390 . S
C624 C623 1.387 . S
H625 C637 0.930 . S
H626 C639 0.930 . S
H627 C640 0.930 1_554 S
H628 C644 0.959 . S
H629 C644 0.959 . S
H630 C644 0.948 1_655 S
H631 C645 0.960 . S
H632 C645 0.961 . S
H633 C645 0.959 1_554 S
H634 C648 0.929 . S
H635 C649 0.931 . S
H636 C651 0.930 . S
C637 H625 0.930 . S
C637 C638 1.399 . S
C637 C642 1.399 . S
C638 C637 1.399 . S
C638 C639 1.376 . S
C639 H626 0.930 . S
C639 C638 1.376 . S
C639 C640 1.388 . S
C640 H627 0.930 1_556 S
C640 C639 1.388 . S
C640 C641 1.390 . S
C641 C640 1.390 . S
C641 C642 1.394 . S
C641 C647 1.465 1_656 S
C642 C637 1.399 . S
C642 C641 1.394 . S
C642 C643 1.516 . S
C643 C642 1.516 . S
C643 C644 1.502 1_655 S
C643 C645 1.561 . S
C643 C646 1.526 1_656 S
C644 H628 0.959 . S
C644 H629 0.959 . S
C644 H630 0.948 1_455 S
C644 C643 1.502 1_455 S
C645 H631 0.960 . S
C645 H632 0.961 . S
C645 H633 0.959 1_556 S
C645 C643 1.561 . S
C646 C643 1.526 1_454 S
C646 C647 1.396 . S
C646 C651 1.390 . S
C647 C641 1.465 1_454 S
C647 C646 1.396 . S
C647 C648 1.399 . S
C648 H634 0.929 . S
C648 C647 1.399 . S
C648 C649 1.385 . S
C649 H635 0.931 . S
C649 C648 1.385 . S
C649 C650 1.389 . S
C650 C649 1.389 . S
C650 C651 1.387 . S
C651 H636 0.930 . S
C651 C646 1.390 . S
C651 C650 1.387 . S
H652 C664 0.930 . S
H653 C666 0.930 . S
H654 C667 0.930 . S
H655 C671 0.959 . S
H656 C671 0.959 . S
H657 C671 0.961 . S
H658 C672 0.960 . S
H659 C672 0.961 . S
H660 C672 0.959 . S
H661 C675 0.929 . S
H662 C676 0.931 . S
H663 C678 0.930 . S
C664 H652 0.930 . S
C664 C665 1.399 . S
C664 C669 1.399 . S
C665 C664 1.399 . S
C665 C666 1.376 . S
C666 H653 0.930 . S
C666 C665 1.376 . S
C666 C667 1.388 . S
C667 H654 0.930 . S
C667 C666 1.388 . S
C667 C668 1.390 . S
C668 C667 1.390 . S
C668 C669 1.394 . S
C668 C674 1.465 . S
C669 C664 1.399 . S
C669 C668 1.394 . S
C669 C670 1.516 . S
C670 C669 1.516 . S
C670 C671 1.502 . S
C670 C672 1.561 . S
C670 C673 1.526 . S
C671 H655 0.959 . S
C671 H656 0.959 . S
C671 H657 0.961 . S
C671 C670 1.502 . S
C672 H658 0.960 . S
C672 H659 0.961 . S
C672 H660 0.959 . S
C672 C670 1.561 . S
C673 C670 1.526 . S
C673 C674 1.396 . S
C673 C678 1.390 . S
C674 C668 1.465 . S
C674 C673 1.396 . S
C674 C675 1.399 . S
C675 H661 0.929 . S
C675 C674 1.399 . S
C675 C676 1.385 . S
C676 H662 0.931 . S
C676 C675 1.385 . S
C676 C677 1.389 . S
C677 C676 1.389 . S
C677 C678 1.387 . S
C678 H663 0.930 . S
C678 C673 1.390 . S
C678 C677 1.387 . S
H679 C691 0.930 . S
H680 C693 0.930 . S
H681 C694 0.930 . S
H682 C698 0.959 . S
H683 C698 0.959 . S
H684 C698 0.961 . S
H685 C699 0.960 . S
H686 C699 0.961 . S
H687 C699 0.959 . S
H688 C702 0.929 . S
H689 C703 0.931 . S
H690 C705 0.930 . S
C691 H679 0.930 . S
C691 C692 1.399 . S
C691 C696 1.399 . S
C692 C691 1.399 . S
C692 C693 1.376 . S
C693 H680 0.930 . S
C693 C692 1.376 . S
C693 C694 1.388 . S
C694 H681 0.930 . S
C694 C693 1.388 . S
C694 C695 1.390 . S
C695 C694 1.390 . S
C695 C696 1.394 . S
C695 C701 1.465 . S
C696 C691 1.399 . S
C696 C695 1.394 . S
C696 C697 1.516 . S
C697 C696 1.516 . S
C697 C698 1.502 . S
C697 C699 1.561 . S
C697 C700 1.526 . S
C698 H682 0.959 . S
C698 H683 0.959 . S
C698 H684 0.961 . S
C698 C697 1.502 . S
C699 H685 0.960 . S
C699 H686 0.961 . S
C699 H687 0.959 . S
C699 C697 1.561 . S
C700 C697 1.526 . S
C700 C701 1.396 . S
C700 C705 1.390 . S
C701 C695 1.465 . S
C701 C700 1.396 . S
C701 C702 1.399 . S
C702 H688 0.929 . S
C702 C701 1.399 . S
C702 C703 1.385 . S
C703 H689 0.931 . S
C703 C702 1.385 . S
C703 C704 1.389 . S
C704 C703 1.389 . S
C704 C705 1.387 . S
C705 H690 0.930 . S
C705 C700 1.390 . S
C705 C704 1.387 . S
H706 C718 0.930 . S
H707 C720 0.930 . S
H708 C721 0.930 1_556 S
H709 C725 0.959 . S
H710 C725 0.959 . S
H711 C725 0.961 . S
H712 C726 0.960 . S
H713 C726 0.961 . S
H714 C726 0.959 . S
H715 C729 0.929 . S
H716 C730 0.931 . S
H717 C732 0.930 . S
C718 H706 0.930 . S
C718 C719 1.399 . S
C718 C723 1.399 . S
C719 C718 1.399 . S
C719 C720 1.376 . S
C720 H707 0.930 . S
C720 C719 1.376 . S
C720 C721 1.388 . S
C721 H708 0.930 1_554 S
C721 C720 1.388 . S
C721 C722 1.390 . S
C722 C721 1.390 . S
C722 C723 1.394 . S
C722 C728 1.465 1_654 S
C723 C718 1.399 . S
C723 C722 1.394 . S
C723 C724 1.516 1_665 S
C724 C723 1.516 1_445 S
C724 C725 1.502 1_455 S
C724 C726 1.561 . S
C724 C727 1.526 1_554 S
C725 H709 0.959 . S
C725 H710 0.959 . S
C725 H711 0.961 . S
C725 C724 1.502 1_655 S
C726 H712 0.960 . S
C726 H713 0.961 . S
C726 H714 0.959 . S
C726 C724 1.561 . S
C727 C724 1.526 1_556 S
C727 C728 1.396 1_545 S
C727 C732 1.390 . S
C728 C722 1.465 1_456 S
C728 C727 1.396 1_565 S
C728 C729 1.399 . S
C729 H715 0.929 . S
C729 C728 1.399 . S
C729 C730 1.385 1_565 S
C730 H716 0.931 . S
C730 C729 1.385 1_545 S
C730 C731 1.389 . S
C731 C730 1.389 . S
C731 C732 1.387 . S
C732 H717 0.930 . S
C732 C727 1.390 . S
C732 C731 1.387 . S
H733 C745 0.930 . S
H734 C747 0.930 . S
H735 C748 0.930 . S
H736 C752 0.959 1_565 S
H737 C752 0.959 . S
H738 C752 0.961 . S
H739 C753 0.960 . S
H740 C753 0.961 . S
H741 C753 0.959 . S
H742 C756 0.929 1_565 S
H743 C757 0.931 . S
H744 C759 0.930 . S
C745 H733 0.930 . S
C745 C746 1.399 . S
C745 C750 1.399 . S
C746 C745 1.399 . S
C746 C747 1.376 . S
C747 H734 0.930 . S
C747 C746 1.376 . S
C747 C748 1.388 . S
C748 H735 0.930 . S
C748 C747 1.388 . S
C748 C749 1.390 . S
C749 C748 1.390 . S
C749 C750 1.394 . S
C749 C755 1.465 1_565 S
C750 C745 1.399 . S
C750 C749 1.394 . S
C750 C751 1.516 1_565 S
C751 C750 1.516 1_545 S
C751 C752 1.502 . S
C751 C753 1.561 . S
C751 C754 1.526 . S
C752 H736 0.959 1_545 S
C752 H737 0.959 . S
C752 H738 0.961 . S
C752 C751 1.502 . S
C753 H739 0.960 . S
C753 H740 0.961 . S
C753 H741 0.959 . S
C753 C751 1.561 . S
C754 C751 1.526 . S
C754 C755 1.396 . S
C754 C759 1.390 . S
C755 C749 1.465 1_545 S
C755 C754 1.396 . S
C755 C756 1.399 . S
C756 H742 0.929 1_545 S
C756 C755 1.399 . S
C756 C757 1.385 . S
C757 H743 0.931 . S
C757 C756 1.385 . S
C757 C758 1.389 . S
C758 C757 1.389 . S
C758 C759 1.387 . S
C759 H744 0.930 . S
C759 C754 1.390 . S
C759 C758 1.387 . S
H760 C772 0.930 . S
H761 C774 0.930 . S
H762 C775 0.930 . S
H763 C779 0.959 . S
H764 C779 0.959 . S
H765 C779 0.961 . S
H766 C780 0.960 . S
H767 C780 0.961 . S
H768 C780 0.959 . S
H769 C783 0.929 . S
H770 C784 0.931 . S
H771 C786 0.930 . S
C772 H760 0.930 . S
C772 C773 1.399 . S
C772 C777 1.382 1_556 S
C773 C772 1.399 . S
C773 C774 1.376 . S
C774 H761 0.930 . S
C774 C773 1.376 . S
C774 C775 1.388 . S
C775 H762 0.930 . S
C775 C774 1.388 . S
C775 C776 1.390 1_556 S
C776 C775 1.390 1_554 S
C776 C777 1.397 . S
C776 C782 1.465 . S
C777 C772 1.382 1_554 S
C777 C776 1.397 . S
C777 C778 1.531 . S
C778 C777 1.531 . S
C778 C779 1.502 . S
C778 C780 1.561 . S
C778 C781 1.526 . S
C779 H763 0.959 . S
C779 H764 0.959 . S
C779 H765 0.961 . S
C779 C778 1.502 . S
C780 H766 0.960 . S
C780 H767 0.961 . S
C780 H768 0.959 . S
C780 C778 1.561 . S
C781 C778 1.526 . S
C781 C782 1.396 . S
C781 C786 1.390 . S
C782 C776 1.465 . S
C782 C781 1.396 . S
C782 C783 1.399 . S
C783 H769 0.929 . S
C783 C782 1.399 . S
C783 C784 1.385 . S
C784 H770 0.931 . S
C784 C783 1.385 . S
C784 C785 1.389 . S
C785 C784 1.389 . S
C785 C786 1.387 . S
C786 H771 0.930 . S
C786 C781 1.390 . S
C786 C785 1.387 . S
H787 C799 0.930 . S
H788 C801 0.930 . S
H789 C802 0.930 . S
H790 C806 0.959 . S
H791 C806 0.959 . S
H792 C806 0.961 . S
H793 C807 0.960 . S
H794 C807 0.961 . S
H795 C807 0.959 . S
H796 C810 0.929 . S
H797 C811 0.931 . S
H798 C813 0.930 . S
C799 H787 0.930 . S
C799 C800 1.399 . S
C799 C804 1.399 . S
C800 C799 1.399 . S
C800 C801 1.376 . S
C801 H788 0.930 . S
C801 C800 1.376 . S
C801 C802 1.388 . S
C802 H789 0.930 . S
C802 C801 1.388 . S
C802 C803 1.390 . S
C803 C802 1.390 . S
C803 C804 1.394 . S
C803 C809 1.465 . S
C804 C799 1.399 . S
C804 C803 1.394 . S
C804 C805 1.516 . S
C805 C804 1.516 . S
C805 C806 1.502 . S
C805 C807 1.561 . S
C805 C808 1.526 . S
C806 H790 0.959 . S
C806 H791 0.959 . S
C806 H792 0.961 . S
C806 C805 1.502 . S
C807 H793 0.960 . S
C807 H794 0.961 . S
C807 H795 0.959 . S
C807 C805 1.561 . S
C808 C805 1.526 . S
C808 C809 1.396 . S
C808 C813 1.390 . S
C809 C803 1.465 . S
C809 C808 1.396 . S
C809 C810 1.399 . S
C810 H796 0.929 . S
C810 C809 1.399 . S
C810 C811 1.385 . S
C811 H797 0.931 . S
C811 C810 1.385 . S
C811 C812 1.389 . S
C812 C811 1.389 . S
C812 C813 1.387 . S
C813 H798 0.930 . S
C813 C808 1.390 . S
C813 C812 1.387 . S
H814 C826 0.930 . S
H815 C828 0.930 . S
H816 C829 0.930 . S
H817 C833 0.959 . S
H818 C833 0.959 . S
H819 C833 0.961 . S
H820 C834 0.960 . S
H821 C834 0.961 . S
H822 C834 0.959 . S
H823 C837 0.929 . S
H824 C838 0.931 . S
H825 C840 0.930 . S
C826 H814 0.930 . S
C826 C827 1.399 . S
C826 C831 1.399 . S
C827 C826 1.399 . S
C827 C828 1.376 . S
C828 H815 0.930 . S
C828 C827 1.376 . S
C828 C829 1.388 . S
C829 H816 0.930 . S
C829 C828 1.388 . S
C829 C830 1.390 . S
C830 C829 1.390 . S
C830 C831 1.394 . S
C830 C836 1.465 . S
C831 C826 1.399 . S
C831 C830 1.394 . S
C831 C832 1.516 . S
C832 C831 1.516 . S
C832 C833 1.502 . S
C832 C834 1.561 . S
C832 C835 1.526 . S
C833 H817 0.959 . S
C833 H818 0.959 . S
C833 H819 0.961 . S
C833 C832 1.502 . S
C834 H820 0.960 . S
C834 H821 0.961 . S
C834 H822 0.959 . S
C834 C832 1.561 . S
C835 C832 1.526 . S
C835 C836 1.396 . S
C835 C840 1.390 . S
C836 C830 1.465 . S
C836 C835 1.396 . S
C836 C837 1.399 . S
C837 H823 0.929 . S
C837 C836 1.399 . S
C837 C838 1.385 . S
C838 H824 0.931 . S
C838 C837 1.385 . S
C838 C839 1.389 . S
C839 C838 1.389 . S
C839 C840 1.387 . S
C840 H825 0.930 . S
C840 C835 1.390 . S
C840 C839 1.387 . S
H841 C853 0.930 . S
H842 C855 0.930 . S
H843 C856 0.930 . S
H844 C860 0.959 . S
H845 C860 0.959 . S
H846 C860 0.961 . S
H847 C861 0.960 . S
H848 C861 0.961 . S
H849 C861 0.959 . S
H850 C864 0.929 . S
H851 C865 0.931 . S
H852 C867 0.930 . S
C853 H841 0.930 . S
C853 C854 1.399 . S
C853 C858 1.399 . S
C854 C853 1.399 . S
C854 C855 1.376 . S
C855 H842 0.930 . S
C855 C854 1.376 . S
C855 C856 1.388 . S
C856 H843 0.930 . S
C856 C855 1.388 . S
C856 C857 1.390 . S
C857 C856 1.390 . S
C857 C858 1.394 . S
C857 C863 1.465 . S
C858 C853 1.399 . S
C858 C857 1.394 . S
C858 C859 1.516 . S
C859 C858 1.516 . S
C859 C860 1.502 . S
C859 C861 1.561 . S
C859 C862 1.526 . S
C860 H844 0.959 . S
C860 H845 0.959 . S
C860 H846 0.961 . S
C860 C859 1.502 . S
C861 H847 0.960 . S
C861 H848 0.961 . S
C861 H849 0.959 . S
C861 C859 1.561 . S
C862 C859 1.526 . S
C862 C863 1.396 . S
C862 C867 1.390 . S
C863 C857 1.465 . S
C863 C862 1.396 . S
C863 C864 1.399 . S
C864 H850 0.929 . S
C864 C863 1.399 . S
C864 C865 1.385 . S
C865 H851 0.931 . S
C865 C864 1.385 . S
C865 C866 1.389 . S
C866 C865 1.389 . S
C866 C867 1.387 . S
C867 H852 0.930 . S
C867 C862 1.390 . S
C867 C866 1.387 . S
H868 C880 0.930 . S
H869 C882 0.930 . S
H870 C883 0.930 1_556 S
H871 C887 0.959 . S
H872 C887 0.959 . S
H873 C887 0.961 1_554 S
H874 C888 0.960 . S
H875 C888 0.961 . S
H876 C888 0.959 . S
H877 C891 0.929 . S
H878 C892 0.931 . S
H879 C894 0.930 . S
C880 H868 0.930 . S
C880 C881 1.399 . S
C880 C885 1.399 . S
C881 C880 1.399 . S
C881 C882 1.376 . S
C882 H869 0.930 . S
C882 C881 1.376 . S
C882 C883 1.388 . S
C883 H870 0.930 1_554 S
C883 C882 1.388 . S
C883 C884 1.390 1_554 S
C884 C883 1.390 1_556 S
C884 C885 1.394 1_556 S
C884 C890 1.465 . S
C885 C880 1.399 . S
C885 C884 1.394 1_554 S
C885 C886 1.516 1_554 S
C886 C885 1.516 1_556 S
C886 C887 1.502 . S
C886 C888 1.561 . S
C886 C889 1.526 . S
C887 H871 0.959 . S
C887 H872 0.959 . S
C887 H873 0.961 1_556 S
C887 C886 1.502 . S
C888 H874 0.960 . S
C888 H875 0.961 . S
C888 H876 0.959 . S
C888 C886 1.561 . S
C889 C886 1.526 . S
C889 C890 1.396 . S
C889 C894 1.390 . S
C890 C884 1.465 . S
C890 C889 1.396 . S
C890 C891 1.399 . S
C891 H877 0.929 . S
C891 C890 1.399 . S
C891 C892 1.385 . S
C892 H878 0.931 . S
C892 C891 1.385 . S
C892 C893 1.389 . S
C893 C892 1.389 . S
C893 C894 1.387 . S
C894 H879 0.930 . S
C894 C889 1.390 . S
C894 C893 1.387 . S
H895 C907 0.930 . S
H896 C909 0.930 . S
H897 C910 0.930 . S
H898 C914 0.959 . S
H899 C914 0.959 . S
H900 C914 0.961 . S
H901 C915 0.960 . S
H902 C915 0.961 . S
H903 C915 0.959 . S
H904 C918 0.929 . S
H905 C919 0.931 . S
H906 C921 0.930 . S
C907 H895 0.930 . S
C907 C908 1.399 . S
C907 C912 1.399 . S
C908 C907 1.399 . S
C908 C909 1.376 . S
C909 H896 0.930 . S
C909 C908 1.376 . S
C909 C910 1.388 . S
C910 H897 0.930 . S
C910 C909 1.388 . S
C910 C911 1.390 . S
C911 C910 1.390 . S
C911 C912 1.394 . S
C911 C917 1.465 . S
C912 C907 1.399 . S
C912 C911 1.394 . S
C912 C913 1.516 . S
C913 C912 1.516 . S
C913 C914 1.502 . S
C913 C915 1.561 . S
C913 C916 1.526 . S
C914 H898 0.959 . S
C914 H899 0.959 . S
C914 H900 0.961 . S
C914 C913 1.502 . S
C915 H901 0.960 . S
C915 H902 0.961 . S
C915 H903 0.959 . S
C915 C913 1.561 . S
C916 C913 1.526 . S
C916 C917 1.396 . S
C916 C921 1.390 . S
C917 C911 1.465 . S
C917 C916 1.396 . S
C917 C918 1.399 . S
C918 H904 0.929 . S
C918 C917 1.399 . S
C918 C919 1.385 . S
C919 H905 0.931 . S
C919 C918 1.385 . S
C919 C920 1.389 . S
C920 C919 1.389 . S
C920 C921 1.387 . S
C921 H906 0.930 . S
C921 C916 1.390 . S
C921 C920 1.387 . S
H922 C934 0.930 . S
H923 C936 0.930 . S
H924 C937 0.930 . S
H925 C941 0.959 . S
H926 C941 0.959 . S
H927 C941 0.961 . S
H928 C942 0.960 . S
H929 C942 0.961 . S
H930 C942 0.959 . S
H931 C945 0.929 . S
H932 C946 0.931 . S
H933 C948 0.930 . S
C934 H922 0.930 . S
C934 C935 1.399 . S
C934 C939 1.399 . S
C935 C934 1.399 . S
C935 C936 1.376 . S
C936 H923 0.930 . S
C936 C935 1.376 . S
C936 C937 1.388 . S
C937 H924 0.930 . S
C937 C936 1.388 . S
C937 C938 1.390 . S
C938 C937 1.390 . S
C938 C939 1.394 . S
C938 C944 1.465 . S
C939 C934 1.399 . S
C939 C938 1.394 . S
C939 C940 1.516 . S
C940 C939 1.516 . S
C940 C941 1.502 . S
C940 C942 1.561 . S
C940 C943 1.526 . S
C941 H925 0.959 . S
C941 H926 0.959 . S
C941 H927 0.961 . S
C941 C940 1.502 . S
C942 H928 0.960 . S
C942 H929 0.961 . S
C942 H930 0.959 . S
C942 C940 1.561 . S
C943 C940 1.526 . S
C943 C944 1.396 . S
C943 C948 1.390 . S
C944 C938 1.465 . S
C944 C943 1.396 . S
C944 C945 1.399 . S
C945 H931 0.929 . S
C945 C944 1.399 . S
C945 C946 1.385 . S
C946 H932 0.931 . S
C946 C945 1.385 . S
C946 C947 1.389 . S
C947 C946 1.389 . S
C947 C948 1.387 . S
C948 H933 0.930 . S
C948 C943 1.390 . S
C948 C947 1.387 . S
H949 C961 0.930 . S
H950 C963 0.930 . S
H951 C964 0.930 . S
H952 C968 0.959 . S
H953 C968 0.959 . S
H954 C968 0.961 . S
H955 C969 0.960 . S
H956 C969 0.961 . S
H957 C969 0.959 . S
H958 C972 0.929 . S
H959 C973 0.931 . S
H960 C975 0.930 . S
C961 H949 0.930 . S
C961 C962 1.399 . S
C961 C966 1.399 . S
C962 C961 1.399 . S
C962 C963 1.376 . S
C963 H950 0.930 . S
C963 C962 1.376 . S
C963 C964 1.388 . S
C964 H951 0.930 . S
C964 C963 1.388 . S
C964 C965 1.390 . S
C965 C964 1.390 . S
C965 C966 1.394 . S
C965 C971 1.465 . S
C966 C961 1.399 . S
C966 C965 1.394 . S
C966 C967 1.516 . S
C967 C966 1.516 . S
C967 C968 1.502 . S
C967 C969 1.561 . S
C967 C970 1.526 . S
C968 H952 0.959 . S
C968 H953 0.959 . S
C968 H954 0.961 . S
C968 C967 1.502 . S
C969 H955 0.960 . S
C969 H956 0.961 . S
C969 H957 0.959 . S
C969 C967 1.561 . S
C970 C967 1.526 . S
C970 C971 1.396 . S
C970 C975 1.390 . S
C971 C965 1.465 . S
C971 C970 1.396 . S
C971 C972 1.399 . S
C972 H958 0.929 . S
C972 C971 1.399 . S
C972 C973 1.385 . S
C973 H959 0.931 . S
C973 C972 1.385 . S
C973 C974 1.389 . S
C974 C973 1.389 . S
C974 C975 1.387 . S
C975 H960 0.930 . S
C975 C970 1.390 . S
C975 C974 1.387 . S
H976 C988 0.930 . S
H977 C990 0.930 . S
H978 C991 0.930 . S
H979 C995 0.959 . S
H980 C995 0.959 . S
H981 C995 0.961 . S
H982 C996 0.960 . S
H983 C996 0.961 . S
H984 C996 0.959 . S
H985 C999 0.929 . S
H986 C1000 0.931 . S
H987 C1002 0.930 . S
C988 H976 0.930 . S
C988 C989 1.399 . S
C988 C993 1.399 . S
C989 C988 1.399 . S
C989 C990 1.376 . S
C990 H977 0.930 . S
C990 C989 1.376 . S
C990 C991 1.388 . S
C991 H978 0.930 . S
C991 C990 1.388 . S
C991 C992 1.390 . S
C992 C991 1.390 . S
C992 C993 1.394 . S
C992 C998 1.465 . S
C993 C988 1.399 . S
C993 C992 1.394 . S
C993 C994 1.516 . S
C994 C993 1.516 . S
C994 C995 1.502 . S
C994 C996 1.561 . S
C994 C997 1.526 . S
C995 H979 0.959 . S
C995 H980 0.959 . S
C995 H981 0.961 . S
C995 C994 1.502 . S
C996 H982 0.960 . S
C996 H983 0.961 . S
C996 H984 0.959 . S
C996 C994 1.561 . S
C997 C994 1.526 . S
C997 C998 1.396 . S
C997 C1002 1.390 . S
C998 C992 1.465 . S
C998 C997 1.396 . S
C998 C999 1.399 . S
C999 H985 0.929 . S
C999 C998 1.399 . S
C999 C1000 1.385 . S
C1000 H986 0.931 . S
C1000 C999 1.385 . S
C1000 C1001 1.389 . S
C1001 C1000 1.389 . S
C1001 C1002 1.387 . S
C1002 H987 0.930 . S
C1002 C997 1.390 . S
C1002 C1001 1.387 . S
H1003 C1015 0.930 . S
H1004 C1017 0.930 . S
H1005 C1018 0.930 . S
H1006 C1022 0.959 . S
H1007 C1022 0.959 . S
H1008 C1022 0.961 . S
H1009 C1023 0.960 . S
H1010 C1023 0.961 . S
H1011 C1023 0.959 . S
H1012 C1026 0.929 . S
H1013 C1027 0.931 . S
H1014 C1029 0.930 . S
C1015 H1003 0.930 . S
C1015 C1016 1.399 . S
C1015 C1020 1.399 . S
C1016 C1015 1.399 . S
C1016 C1017 1.376 . S
C1017 H1004 0.930 . S
C1017 C1016 1.376 . S
C1017 C1018 1.388 . S
C1018 H1005 0.930 . S
C1018 C1017 1.388 . S
C1018 C1019 1.390 . S
C1019 C1018 1.390 . S
C1019 C1020 1.394 . S
C1019 C1025 1.465 . S
C1020 C1015 1.399 . S
C1020 C1019 1.394 . S
C1020 C1021 1.516 1_545 S
C1021 C1020 1.516 1_565 S
C1021 C1022 1.502 . S
C1021 C1023 1.561 . S
C1021 C1024 1.535 . S
C1022 H1006 0.959 . S
C1022 H1007 0.959 . S
C1022 H1008 0.961 . S
C1022 C1021 1.502 . S
C1023 H1009 0.960 . S
C1023 H1010 0.961 . S
C1023 H1011 0.959 . S
C1023 C1021 1.561 . S
C1024 C1021 1.535 . S
C1024 C1025 1.368 1_565 S
C1024 C1029 1.405 . S
C1025 C1019 1.465 . S
C1025 C1024 1.368 1_545 S
C1025 C1026 1.399 . S
C1026 H1012 0.929 . S
C1026 C1025 1.399 . S
C1026 C1027 1.385 . S
C1027 H1013 0.931 . S
C1027 C1026 1.385 . S
C1027 C1028 1.389 1_545 S
C1028 C1027 1.389 1_565 S
C1028 C1029 1.387 . S
C1029 H1014 0.930 . S
C1029 C1024 1.405 . S
C1029 C1028 1.387 . S
H1030 C1042 0.930 . S
H1031 C1044 0.930 . S
H1032 C1045 0.930 . S
H1033 C1049 0.959 . S
H1034 C1049 0.959 . S
H1035 C1049 0.961 . S
H1036 C1050 0.960 . S
H1037 C1050 0.961 . S
H1038 C1050 0.959 . S
H1039 C1053 0.929 . S
H1040 C1054 0.931 . S
H1041 C1056 0.930 . S
C1042 H1030 0.930 . S
C1042 C1043 1.399 . S
C1042 C1047 1.399 . S
C1043 C1042 1.399 . S
C1043 C1044 1.376 . S
C1044 H1031 0.930 . S
C1044 C1043 1.376 . S
C1044 C1045 1.388 . S
C1045 H1032 0.930 . S
C1045 C1044 1.388 . S
C1045 C1046 1.390 . S
C1046 C1045 1.390 . S
C1046 C1047 1.394 . S
C1046 C1052 1.465 . S
C1047 C1042 1.399 . S
C1047 C1046 1.394 . S
C1047 C1048 1.516 . S
C1048 C1047 1.516 . S
C1048 C1049 1.502 . S
C1048 C1050 1.561 . S
C1048 C1051 1.547 . S
C1049 H1033 0.959 . S
C1049 H1034 0.959 . S
C1049 H1035 0.961 . S
C1049 C1048 1.502 . S
C1050 H1036 0.960 . S
C1050 H1037 0.961 . S
C1050 H1038 0.959 . S
C1050 C1048 1.561 . S
C1051 C1048 1.547 . S
C1051 C1052 1.401 . S
C1051 C1056 1.366 1_554 S
C1052 C1046 1.465 . S
C1052 C1051 1.401 . S
C1052 C1053 1.399 1_554 S
C1053 H1039 0.929 . S
C1053 C1052 1.399 1_556 S
C1053 C1054 1.385 . S
C1054 H1040 0.931 . S
C1054 C1053 1.385 . S
C1054 C1055 1.389 . S
C1055 C1054 1.389 . S
C1055 C1056 1.387 . S
C1056 H1041 0.930 . S
C1056 C1051 1.366 1_556 S
C1056 C1055 1.387 . S
H1057 C1069 0.930 . S
H1058 C1071 0.930 . S
H1059 C1072 0.930 . S
H1060 C1076 0.959 1_565 S
H1061 C1076 0.959 . S
H1062 C1076 0.961 . S
H1063 C1077 0.960 . S
H1064 C1077 0.961 . S
H1065 C1077 0.959 . S
H1066 C1080 0.929 . S
H1067 C1081 0.931 . S
H1068 C1083 0.930 . S
C1069 H1057 0.930 . S
C1069 C1070 1.399 . S
C1069 C1074 1.399 1_545 S
C1070 C1069 1.399 . S
C1070 C1071 1.376 1_545 S
C1071 H1058 0.930 . S
C1071 C1070 1.376 1_565 S
C1071 C1072 1.388 . S
C1072 H1059 0.930 . S
C1072 C1071 1.388 . S
C1072 C1073 1.390 . S
C1073 C1072 1.390 . S
C1073 C1074 1.394 . S
C1073 C1079 1.465 . S
C1074 C1069 1.399 1_565 S
C1074 C1073 1.394 . S
C1074 C1075 1.516 1_565 S
C1075 C1074 1.516 1_545 S
C1075 C1076 1.502 . S
C1075 C1077 1.561 . S
C1075 C1078 1.526 1_545 S
C1076 H1060 0.959 1_545 S
C1076 H1061 0.959 . S
C1076 H1062 0.961 . S
C1076 C1075 1.502 . S
C1077 H1063 0.960 . S
C1077 H1064 0.961 . S
C1077 H1065 0.959 . S
C1077 C1075 1.561 . S
C1078 C1075 1.526 1_565 S
C1078 C1079 1.396 . S
C1078 C1083 1.390 . S
C1079 C1073 1.465 . S
C1079 C1078 1.396 . S
C1079 C1080 1.399 . S
C1080 H1066 0.929 . S
C1080 C1079 1.399 . S
C1080 C1081 1.385 . S
C1081 H1067 0.931 . S
C1081 C1080 1.385 . S
C1081 C1082 1.389 . S
C1082 C1081 1.389 . S
C1082 C1083 1.387 . S
C1083 H1068 0.930 . S
C1083 C1078 1.390 . S
C1083 C1082 1.387 . S
H1084 C1096 0.930 . S
H1085 C1098 0.930 . S
H1086 C1099 0.930 . S
H1087 C1103 0.959 . S
H1088 C1103 0.959 . S
H1089 C1103 0.961 . S
H1090 C1104 0.960 . S
H1091 C1104 0.961 . S
H1092 C1104 0.959 . S
H1093 C1107 0.929 . S
H1094 C1108 0.931 . S
H1095 C1110 0.930 . S
C1096 H1084 0.930 . S
C1096 C1097 1.399 . S
C1096 C1101 1.399 . S
C1097 C1096 1.399 . S
C1097 C1098 1.376 . S
C1098 H1085 0.930 . S
C1098 C1097 1.376 . S
C1098 C1099 1.388 . S
C1099 H1086 0.930 . S
C1099 C1098 1.388 . S
C1099 C1100 1.390 . S
C1100 C1099 1.390 . S
C1100 C1101 1.394 . S
C1100 C1106 1.465 . S
C1101 C1096 1.399 . S
C1101 C1100 1.394 . S
C1101 C1102 1.516 . S
C1102 C1101 1.516 . S
C1102 C1103 1.502 . S
C1102 C1104 1.561 . S
C1102 C1105 1.526 . S
C1103 H1087 0.959 . S
C1103 H1088 0.959 . S
C1103 H1089 0.961 . S
C1103 C1102 1.502 . S
C1104 H1090 0.960 . S
C1104 H1091 0.961 . S
C1104 H1092 0.959 . S
C1104 C1102 1.561 . S
C1105 C1102 1.526 . S
C1105 C1106 1.396 . S
C1105 C1110 1.390 . S
C1106 C1100 1.465 . S
C1106 C1105 1.396 . S
C1106 C1107 1.399 . S
C1107 H1093 0.929 . S
C1107 C1106 1.399 . S
C1107 C1108 1.385 . S
C1108 H1094 0.931 . S
C1108 C1107 1.385 . S
C1108 C1109 1.389 . S
C1109 C1108 1.389 . S
C1109 C1110 1.387 . S
C1110 H1095 0.930 . S
C1110 C1105 1.390 . S
C1110 C1109 1.387 . S
H1111 C1123 0.930 . S
H1112 C1125 0.930 . S
H1113 C1126 0.930 1_545 S
H1114 C1130 0.959 . S
H1115 C1130 0.959 . S
H1116 C1130 0.961 . S
H1117 C1131 0.960 . S
H1118 C1131 0.961 . S
H1119 C1131 0.959 . S
H1120 C1134 0.929 . S
H1121 C1135 0.931 . S
H1122 C1137 0.930 . S
C1123 H1111 0.930 . S
C1123 C1124 1.399 . S
C1123 C1128 1.399 . S
C1124 C1123 1.399 . S
C1124 C1125 1.376 . S
C1125 H1112 0.930 . S
C1125 C1124 1.376 . S
C1125 C1126 1.388 . S
C1126 H1113 0.930 1_565 S
C1126 C1125 1.388 . S
C1126 C1127 1.390 . S
C1127 C1126 1.390 . S
C1127 C1128 1.394 . S
C1127 C1133 1.465 . S
C1128 C1123 1.399 . S
C1128 C1127 1.394 . S
C1128 C1129 1.516 . S
C1129 C1128 1.516 . S
C1129 C1130 1.502 . S
C1129 C1131 1.561 . S
C1129 C1132 1.526 . S
C1130 H1114 0.959 . S
C1130 H1115 0.959 . S
C1130 H1116 0.961 . S
C1130 C1129 1.502 . S
C1131 H1117 0.960 . S
C1131 H1118 0.961 . S
C1131 H1119 0.959 . S
C1131 C1129 1.561 . S
C1132 C1129 1.526 . S
C1132 C1133 1.396 . S
C1132 C1137 1.390 . S
C1133 C1127 1.465 . S
C1133 C1132 1.396 . S
C1133 C1134 1.399 1_565 S
C1134 H1120 0.929 . S
C1134 C1133 1.399 1_545 S
C1134 C1135 1.385 . S
C1135 H1121 0.931 . S
C1135 C1134 1.385 . S
C1135 C1136 1.389 . S
C1136 C1135 1.389 . S
C1136 C1137 1.387 1_545 S
C1137 H1122 0.930 . S
C1137 C1132 1.390 . S
C1137 C1136 1.387 1_565 S
H1138 C1150 0.930 . S
H1139 C1152 0.930 . S
H1140 C1153 0.930 . S
H1141 C1157 0.959 . S
H1142 C1157 0.959 . S
H1143 C1157 0.961 . S
H1144 C1158 0.960 . S
H1145 C1158 0.961 . S
H1146 C1158 0.959 . S
H1147 C1161 0.929 . S
H1148 C1162 0.931 . S
H1149 C1164 0.930 . S
C1150 H1138 0.930 . S
C1150 C1151 1.399 . S
C1150 C1155 1.399 1_554 S
C1151 C1150 1.399 . S
C1151 C1152 1.376 . S
C1152 H1139 0.930 . S
C1152 C1151 1.376 . S
C1152 C1153 1.388 . S
C1153 H1140 0.930 . S
C1153 C1152 1.388 . S
C1153 C1154 1.390 1_554 S
C1154 C1153 1.390 1_556 S
C1154 C1155 1.394 . S
C1154 C1160 1.465 . S
C1155 C1150 1.399 1_556 S
C1155 C1154 1.394 . S
C1155 C1156 1.516 . S
C1156 C1155 1.516 . S
C1156 C1157 1.502 . S
C1156 C1158 1.561 . S
C1156 C1159 1.526 . S
C1157 H1141 0.959 . S
C1157 H1142 0.959 . S
C1157 H1143 0.961 . S
C1157 C1156 1.502 . S
C1158 H1144 0.960 . S
C1158 H1145 0.961 . S
C1158 H1146 0.959 . S
C1158 C1156 1.561 . S
C1159 C1156 1.526 . S
C1159 C1160 1.396 . S
C1159 C1164 1.390 . S
C1160 C1154 1.465 . S
C1160 C1159 1.396 . S
C1160 C1161 1.399 . S
C1161 H1147 0.929 . S
C1161 C1160 1.399 . S
C1161 C1162 1.385 . S
C1162 H1148 0.931 . S
C1162 C1161 1.385 . S
C1162 C1163 1.389 . S
C1163 C1162 1.389 . S
C1163 C1164 1.387 . S
C1164 H1149 0.930 . S
C1164 C1159 1.390 . S
C1164 C1163 1.387 . S
H1165 C1177 0.930 . S
H1166 C1179 0.930 . S
H1167 C1180 0.930 1_565 S
H1168 C1184 0.959 . S
H1169 C1184 0.959 . S
H1170 C1184 0.961 . S
H1171 C1185 0.960 . S
H1172 C1185 0.961 . S
H1173 C1185 0.959 . S
H1174 C1188 0.929 . S
H1175 C1189 0.931 . S
H1176 C1191 0.930 . S
C1177 H1165 0.930 . S
C1177 C1178 1.399 . S
C1177 C1182 1.399 . S
C1178 C1177 1.399 . S
C1178 C1179 1.376 . S
C1179 H1166 0.930 . S
C1179 C1178 1.376 . S
C1179 C1180 1.388 . S
C1180 H1167 0.930 1_545 S
C1180 C1179 1.388 . S
C1180 C1181 1.390 . S
C1181 C1180 1.390 . S
C1181 C1182 1.394 . S
C1181 C1187 1.465 . S
C1182 C1177 1.399 . S
C1182 C1181 1.394 . S
C1182 C1183 1.516 . S
C1183 C1182 1.516 . S
C1183 C1184 1.502 . S
C1183 C1185 1.561 . S
C1183 C1186 1.526 . S
C1184 H1168 0.959 . S
C1184 H1169 0.959 . S
C1184 H1170 0.961 . S
C1184 C1183 1.502 . S
C1185 H1171 0.960 . S
C1185 H1172 0.961 . S
C1185 H1173 0.959 . S
C1185 C1183 1.561 . S
C1186 C1183 1.526 . S
C1186 C1187 1.396 . S
C1186 C1191 1.390 . S
C1187 C1181 1.465 . S
C1187 C1186 1.396 . S
C1187 C1188 1.399 1_545 S
C1188 H1174 0.929 . S
C1188 C1187 1.399 1_565 S
C1188 C1189 1.385 . S
C1189 H1175 0.931 . S
C1189 C1188 1.385 . S
C1189 C1190 1.389 . S
C1190 C1189 1.389 . S
C1190 C1191 1.387 1_565 S
C1191 H1176 0.930 . S
C1191 C1186 1.390 . S
C1191 C1190 1.387 1_545 S
H1192 C1204 0.930 . S
H1193 C1206 0.930 . S
H1194 C1207 0.930 . S
H1195 C1211 0.959 . S
H1196 C1211 0.959 . S
H1197 C1211 0.961 . S
H1198 C1212 0.960 . S
H1199 C1212 0.961 . S
H1200 C1212 0.959 . S
H1201 C1215 0.929 . S
H1202 C1216 0.931 . S
H1203 C1218 0.930 . S
C1204 H1192 0.930 . S
C1204 C1205 1.399 . S
C1204 C1209 1.399 . S
C1205 C1204 1.399 . S
C1205 C1206 1.376 . S
C1206 H1193 0.930 . S
C1206 C1205 1.376 . S
C1206 C1207 1.388 . S
C1207 H1194 0.930 . S
C1207 C1206 1.388 . S
C1207 C1208 1.390 . S
C1208 C1207 1.390 . S
C1208 C1209 1.394 . S
C1208 C1214 1.465 . S
C1209 C1204 1.399 . S
C1209 C1208 1.394 . S
C1209 C1210 1.516 . S
C1210 C1209 1.516 . S
C1210 C1211 1.502 . S
C1210 C1212 1.561 . S
C1210 C1213 1.526 . S
C1211 H1195 0.959 . S
C1211 H1196 0.959 . S
C1211 H1197 0.961 . S
C1211 C1210 1.502 . S
C1212 H1198 0.960 . S
C1212 H1199 0.961 . S
C1212 H1200 0.959 . S
C1212 C1210 1.561 . S
C1213 C1210 1.526 . S
C1213 C1214 1.396 . S
C1213 C1218 1.390 . S
C1214 C1208 1.465 . S
C1214 C1213 1.396 . S
C1214 C1215 1.399 . S
C1215 H1201 0.929 . S
C1215 C1214 1.399 . S
C1215 C1216 1.385 . S
C1216 H1202 0.931 . S
C1216 C1215 1.385 . S
C1216 C1217 1.389 . S
C1217 C1216 1.389 . S
C1217 C1218 1.387 . S
C1218 H1203 0.930 . S
C1218 C1213 1.390 . S
C1218 C1217 1.387 . S
H1219 C1231 0.930 . S
H1220 C1233 0.930 . S
H1221 C1234 0.930 . S
H1222 C1238 0.959 . S
H1223 C1238 0.959 . S
H1224 C1238 0.961 . S
H1225 C1239 0.960 . S
H1226 C1239 0.961 . S
H1227 C1239 0.959 . S
H1228 C1242 0.929 . S
H1229 C1243 0.931 . S
H1230 C1245 0.930 . S
C1231 H1219 0.930 . S
C1231 C1232 1.399 . S
C1231 C1236 1.399 . S
C1232 C1231 1.399 . S
C1232 C1233 1.376 . S
C1233 H1220 0.930 . S
C1233 C1232 1.376 . S
C1233 C1234 1.388 . S
C1234 H1221 0.930 . S
C1234 C1233 1.388 . S
C1234 C1235 1.390 . S
C1235 C1234 1.390 . S
C1235 C1236 1.394 . S
C1235 C1241 1.465 . S
C1236 C1231 1.399 . S
C1236 C1235 1.394 . S
C1236 C1237 1.516 . S
C1237 C1236 1.516 . S
C1237 C1238 1.502 . S
C1237 C1239 1.561 . S
C1237 C1240 1.526 . S
C1238 H1222 0.959 . S
C1238 H1223 0.959 . S
C1238 H1224 0.961 . S
C1238 C1237 1.502 . S
C1239 H1225 0.960 . S
C1239 H1226 0.961 . S
C1239 H1227 0.959 . S
C1239 C1237 1.561 . S
C1240 C1237 1.526 . S
C1240 C1241 1.396 . S
C1240 C1245 1.390 . S
C1241 C1235 1.465 . S
C1241 C1240 1.396 . S
C1241 C1242 1.399 . S
C1242 H1228 0.929 . S
C1242 C1241 1.399 . S
C1242 C1243 1.385 . S
C1243 H1229 0.931 . S
C1243 C1242 1.385 . S
C1243 C1244 1.389 . S
C1244 C1243 1.389 . S
C1244 C1245 1.387 . S
C1245 H1230 0.930 . S
C1245 C1240 1.390 . S
C1245 C1244 1.387 . S
H1246 C1258 0.930 . S
H1247 C1260 0.930 . S
H1248 C1261 0.930 . S
H1249 C1265 0.959 . S
H1250 C1265 0.959 . S
H1251 C1265 0.961 1_655 S
H1252 C1266 0.960 . S
H1253 C1266 0.961 1_455 S
H1254 C1266 0.959 . S
H1255 C1269 0.929 . S
H1256 C1270 0.931 . S
H1257 C1272 0.930 . S
C1258 H1246 0.930 . S
C1258 C1259 1.399 . S
C1258 C1263 1.399 . S
C1259 C1258 1.399 . S
C1259 C1260 1.376 . S
C1260 H1247 0.930 . S
C1260 C1259 1.376 . S
C1260 C1261 1.388 . S
C1261 H1248 0.930 . S
C1261 C1260 1.388 . S
C1261 C1262 1.390 . S
C1262 C1261 1.390 . S
C1262 C1263 1.394 . S
C1262 C1268 1.465 1_655 S
C1263 C1258 1.399 . S
C1263 C1262 1.394 . S
C1263 C1264 1.516 1_655 S
C1264 C1263 1.516 1_455 S
C1264 C1265 1.502 . S
C1264 C1266 1.561 1_455 S
C1264 C1267 1.526 . S
C1265 H1249 0.959 . S
C1265 H1250 0.959 . S
C1265 H1251 0.961 1_455 S
C1265 C1264 1.502 . S
C1266 H1252 0.960 . S
C1266 H1253 0.961 1_655 S
C1266 H1254 0.959 . S
C1266 C1264 1.561 1_655 S
C1267 C1264 1.526 . S
C1267 C1268 1.396 . S
C1267 C1272 1.390 . S
C1268 C1262 1.465 1_455 S
C1268 C1267 1.396 . S
C1268 C1269 1.399 . S
C1269 H1255 0.929 . S
C1269 C1268 1.399 . S
C1269 C1270 1.385 . S
C1270 H1256 0.931 . S
C1270 C1269 1.385 . S
C1270 C1271 1.389 . S
C1271 C1270 1.389 . S
C1271 C1272 1.387 . S
C1272 H1257 0.930 . S
C1272 C1267 1.390 . S
C1272 C1271 1.387 . S
H1273 C1285 0.930 . S
H1274 C1287 0.930 . S
H1275 C1288 0.930 . S
H1276 C1292 0.959 . S
H1277 C1292 0.959 . S
H1278 C1292 0.961 . S
H1279 C1293 0.960 . S
H1280 C1293 0.961 . S
H1281 C1293 0.959 . S
H1282 C1296 0.929 1_655 S
H1283 C1297 0.931 . S
H1284 C1299 0.930 . S
C1285 H1273 0.930 . S
C1285 C1286 1.399 . S
C1285 C1290 1.399 . S
C1286 C1285 1.399 . S
C1286 C1287 1.376 . S
C1287 H1274 0.930 . S
C1287 C1286 1.376 . S
C1287 C1288 1.388 . S
C1288 H1275 0.930 . S
C1288 C1287 1.388 . S
C1288 C1289 1.390 . S
C1289 C1288 1.390 . S
C1289 C1290 1.394 . S
C1289 C1295 1.457 1_655 S
C1290 C1285 1.399 . S
C1290 C1289 1.394 . S
C1290 C1291 1.516 1_655 S
C1291 C1290 1.516 1_455 S
C1291 C1292 1.502 . S
C1291 C1293 1.561 1_455 S
C1291 C1294 1.526 . S
C1292 H1276 0.959 . S
C1292 H1277 0.959 . S
C1292 H1278 0.961 . S
C1292 C1291 1.502 . S
C1293 H1279 0.960 . S
C1293 H1280 0.961 . S
C1293 H1281 0.959 . S
C1293 C1291 1.561 1_655 S
C1294 C1291 1.526 . S
C1294 C1295 1.403 . S
C1294 C1299 1.390 . S
C1295 C1289 1.457 1_455 S
C1295 C1294 1.403 . S
C1295 C1296 1.401 . S
C1296 H1282 0.929 1_455 S
C1296 C1295 1.401 . S
C1296 C1297 1.385 . S
C1297 H1283 0.931 . S
C1297 C1296 1.385 . S
C1297 C1298 1.389 . S
C1298 C1297 1.389 . S
C1298 C1299 1.387 . S
C1299 H1284 0.930 . S
C1299 C1294 1.390 . S
C1299 C1298 1.387 . S
H1300 C1312 0.930 . S
H1301 C1314 0.930 . S
H1302 C1315 0.930 . S
H1303 C1319 0.959 . S
H1304 C1319 0.959 . S
H1305 C1319 0.961 . S
H1306 C1320 0.960 . S
H1307 C1320 0.961 . S
H1308 C1320 0.959 . S
H1309 C1323 0.929 . S
H1310 C1324 0.931 . S
H1311 C1326 0.930 . S
C1312 H1300 0.930 . S
C1312 C1313 1.399 . S
C1312 C1317 1.399 . S
C1313 C1312 1.399 . S
C1313 C1314 1.376 . S
C1314 H1301 0.930 . S
C1314 C1313 1.376 . S
C1314 C1315 1.388 . S
C1315 H1302 0.930 . S
C1315 C1314 1.388 . S
C1315 C1316 1.390 . S
C1316 C1315 1.390 . S
C1316 C1317 1.394 . S
C1316 C1322 1.465 . S
C1317 C1312 1.399 . S
C1317 C1316 1.394 . S
C1317 C1318 1.516 . S
C1318 C1317 1.516 . S
C1318 C1319 1.502 . S
C1318 C1320 1.561 . S
C1318 C1321 1.526 . S
C1319 H1303 0.959 . S
C1319 H1304 0.959 . S
C1319 H1305 0.961 . S
C1319 C1318 1.502 . S
C1320 H1306 0.960 . S
C1320 H1307 0.961 . S
C1320 H1308 0.959 . S
C1320 C1318 1.561 . S
C1321 C1318 1.526 . S
C1321 C1322 1.396 . S
C1321 C1326 1.390 . S
C1322 C1316 1.465 . S
C1322 C1321 1.396 . S
C1322 C1323 1.399 . S
C1323 H1309 0.929 . S
C1323 C1322 1.399 . S
C1323 C1324 1.385 . S
C1324 H1310 0.931 . S
C1324 C1323 1.385 . S
C1324 C1325 1.389 . S
C1325 C1324 1.389 . S
C1325 C1326 1.387 . S
C1326 H1311 0.930 . S
C1326 C1321 1.390 . S
C1326 C1325 1.387 . S
H1327 C1339 0.930 . S
H1328 C1341 0.930 . S
H1329 C1342 0.930 . S
H1330 C1346 0.959 . S
H1331 C1346 0.959 . S
H1332 C1346 0.961 . S
H1333 C1347 0.960 . S
H1334 C1347 0.961 . S
H1335 C1347 0.959 . S
H1336 C1350 0.929 . S
H1337 C1351 0.931 . S
H1338 C1353 0.930 . S
C1339 H1327 0.930 . S
C1339 C1340 1.399 . S
C1339 C1344 1.399 . S
C1340 C1339 1.399 . S
C1340 C1341 1.376 . S
C1341 H1328 0.930 . S
C1341 C1340 1.376 . S
C1341 C1342 1.388 . S
C1342 H1329 0.930 . S
C1342 C1341 1.388 . S
C1342 C1343 1.390 . S
C1343 C1342 1.390 . S
C1343 C1344 1.394 . S
C1343 C1349 1.465 . S
C1344 C1339 1.399 . S
C1344 C1343 1.394 . S
C1344 C1345 1.516 . S
C1345 C1344 1.516 . S
C1345 C1346 1.502 . S
C1345 C1347 1.561 . S
C1345 C1348 1.526 . S
C1346 H1330 0.959 . S
C1346 H1331 0.959 . S
C1346 H1332 0.961 . S
C1346 C1345 1.502 . S
C1347 H1333 0.960 . S
C1347 H1334 0.961 . S
C1347 H1335 0.959 . S
C1347 C1345 1.561 . S
C1348 C1345 1.526 . S
C1348 C1349 1.396 . S
C1348 C1353 1.390 . S
C1349 C1343 1.465 . S
C1349 C1348 1.396 . S
C1349 C1350 1.399 . S
C1350 H1336 0.929 . S
C1350 C1349 1.399 . S
C1350 C1351 1.385 . S
C1351 H1337 0.931 . S
C1351 C1350 1.385 . S
C1351 C1352 1.389 . S
C1352 C1351 1.389 . S
C1352 C1353 1.387 . S
C1353 H1338 0.930 . S
C1353 C1348 1.390 . S
C1353 C1352 1.387 . S
H1354 C1366 0.930 . S
H1355 C1368 0.930 . S
H1356 C1369 0.930 . S
H1357 C1373 0.959 . S
H1358 C1373 0.959 . S
H1359 C1373 0.961 . S
H1360 C1374 0.960 1_455 S
H1361 C1374 0.961 . S
H1362 C1374 0.959 . S
H1363 C1377 0.929 . S
H1364 C1378 0.931 . S
H1365 C1380 0.930 . S
C1366 H1354 0.930 . S
C1366 C1367 1.399 . S
C1366 C1371 1.399 . S
C1367 C1366 1.399 . S
C1367 C1368 1.376 . S
C1368 H1355 0.930 . S
C1368 C1367 1.376 . S
C1368 C1369 1.388 . S
C1369 H1356 0.930 . S
C1369 C1368 1.388 . S
C1369 C1370 1.390 . S
C1370 C1369 1.390 . S
C1370 C1371 1.394 . S
C1370 C1376 1.465 1_455 S
C1371 C1366 1.399 . S
C1371 C1370 1.394 . S
C1371 C1372 1.516 . S
C1372 C1371 1.516 . S
C1372 C1373 1.502 . S
C1372 C1374 1.561 1_455 S
C1372 C1375 1.526 1_455 S
C1373 H1357 0.959 . S
C1373 H1358 0.959 . S
C1373 H1359 0.961 . S
C1373 C1372 1.502 . S
C1374 H1360 0.960 1_655 S
C1374 H1361 0.961 . S
C1374 H1362 0.959 . S
C1374 C1372 1.561 1_655 S
C1375 C1372 1.526 1_655 S
C1375 C1376 1.396 . S
C1375 C1380 1.390 . S
C1376 C1370 1.465 1_655 S
C1376 C1375 1.396 . S
C1376 C1377 1.399 . S
C1377 H1363 0.929 . S
C1377 C1376 1.399 . S
C1377 C1378 1.385 . S
C1378 H1364 0.931 . S
C1378 C1377 1.385 . S
C1378 C1379 1.389 . S
C1379 C1378 1.389 . S
C1379 C1380 1.387 . S
C1380 H1365 0.930 . S
C1380 C1375 1.390 . S
C1380 C1379 1.387 . S
H1381 C1393 0.930 . S
H1382 C1395 0.930 . S
H1383 C1396 0.930 . S
H1384 C1400 0.959 . S
H1385 C1400 0.959 . S
H1386 C1400 0.961 . S
H1387 C1401 0.960 . S
H1388 C1401 0.961 . S
H1389 C1401 0.959 . S
H1390 C1404 0.929 . S
H1391 C1405 0.931 . S
H1392 C1407 0.930 . S
C1393 H1381 0.930 . S
C1393 C1394 1.399 . S
C1393 C1398 1.399 . S
C1394 C1393 1.399 . S
C1394 C1395 1.376 . S
C1395 H1382 0.930 . S
C1395 C1394 1.376 . S
C1395 C1396 1.388 . S
C1396 H1383 0.930 . S
C1396 C1395 1.388 . S
C1396 C1397 1.390 . S
C1397 C1396 1.390 . S
C1397 C1398 1.394 . S
C1397 C1403 1.465 1_455 S
C1398 C1393 1.399 . S
C1398 C1397 1.394 . S
C1398 C1399 1.516 1_455 S
C1399 C1398 1.516 1_655 S
C1399 C1400 1.502 1_655 S
C1399 C1401 1.561 . S
C1399 C1402 1.526 . S
C1400 H1384 0.959 . S
C1400 H1385 0.959 . S
C1400 H1386 0.961 . S
C1400 C1399 1.502 1_455 S
C1401 H1387 0.960 . S
C1401 H1388 0.961 . S
C1401 H1389 0.959 . S
C1401 C1399 1.561 . S
C1402 C1399 1.526 . S
C1402 C1403 1.396 . S
C1402 C1407 1.390 . S
C1403 C1397 1.465 1_655 S
C1403 C1402 1.396 . S
C1403 C1404 1.399 . S
C1404 H1390 0.929 . S
C1404 C1403 1.399 . S
C1404 C1405 1.385 . S
C1405 H1391 0.931 . S
C1405 C1404 1.385 . S
C1405 C1406 1.389 . S
C1406 C1405 1.389 . S
C1406 C1407 1.387 . S
C1407 H1392 0.930 . S
C1407 C1402 1.390 . S
C1407 C1406 1.387 . S
H1408 C1420 0.930 . S
H1409 C1422 0.930 . S
H1410 C1423 0.930 . S
H1411 C1427 0.959 . S
H1412 C1427 0.959 . S
H1413 C1427 0.961 . S
H1414 C1428 0.960 . S
H1415 C1428 0.961 . S
H1416 C1428 0.959 . S
H1417 C1431 0.929 . S
H1418 C1432 0.931 . S
H1419 C1434 0.930 . S
C1420 H1408 0.930 . S
C1420 C1421 1.399 . S
C1420 C1425 1.399 . S
C1421 C1420 1.399 . S
C1421 C1422 1.376 . S
C1422 H1409 0.930 . S
C1422 C1421 1.376 . S
C1422 C1423 1.388 . S
C1423 H1410 0.930 . S
C1423 C1422 1.388 . S
C1423 C1424 1.390 . S
C1424 C1423 1.390 . S
C1424 C1425 1.394 . S
C1424 C1430 1.465 . S
C1425 C1420 1.399 . S
C1425 C1424 1.394 . S
C1425 C1426 1.516 . S
C1426 C1425 1.516 . S
C1426 C1427 1.502 . S
C1426 C1428 1.561 . S
C1426 C1429 1.526 . S
C1427 H1411 0.959 . S
C1427 H1412 0.959 . S
C1427 H1413 0.961 . S
C1427 C1426 1.502 . S
C1428 H1414 0.960 . S
C1428 H1415 0.961 . S
C1428 H1416 0.959 . S
C1428 C1426 1.561 . S
C1429 C1426 1.526 . S
C1429 C1430 1.396 . S
C1429 C1434 1.390 . S
C1430 C1424 1.465 . S
C1430 C1429 1.396 . S
C1430 C1431 1.399 . S
C1431 H1417 0.929 . S
C1431 C1430 1.399 . S
C1431 C1432 1.385 . S
C1432 H1418 0.931 . S
C1432 C1431 1.385 . S
C1432 C1433 1.389 . S
C1433 C1432 1.389 . S
C1433 C1434 1.387 . S
C1434 H1419 0.930 . S
C1434 C1429 1.390 . S
C1434 C1433 1.387 . S
H1435 C1447 0.930 . S
H1436 C1449 0.930 . S
H1437 C1450 0.930 . S
H1438 C1454 0.959 . S
H1439 C1454 0.959 . S
H1440 C1454 0.961 . S
H1441 C1455 0.960 . S
H1442 C1455 0.961 . S
H1443 C1455 0.959 . S
H1444 C1458 0.929 . S
H1445 C1459 0.931 . S
H1446 C1461 0.930 . S
C1447 H1435 0.930 . S
C1447 C1448 1.399 . S
C1447 C1452 1.399 . S
C1448 C1447 1.399 . S
C1448 C1449 1.376 . S
C1449 H1436 0.930 . S
C1449 C1448 1.376 . S
C1449 C1450 1.388 . S
C1450 H1437 0.930 . S
C1450 C1449 1.388 . S
C1450 C1451 1.390 . S
C1451 C1450 1.390 . S
C1451 C1452 1.394 . S
C1451 C1457 1.465 . S
C1452 C1447 1.399 . S
C1452 C1451 1.394 . S
C1452 C1453 1.516 . S
C1453 C1452 1.516 . S
C1453 C1454 1.502 . S
C1453 C1455 1.561 . S
C1453 C1456 1.526 . S
C1454 H1438 0.959 . S
C1454 H1439 0.959 . S
C1454 H1440 0.961 . S
C1454 C1453 1.502 . S
C1455 H1441 0.960 . S
C1455 H1442 0.961 . S
C1455 H1443 0.959 . S
C1455 C1453 1.561 . S
C1456 C1453 1.526 . S
C1456 C1457 1.396 . S
C1456 C1461 1.390 . S
C1457 C1451 1.465 . S
C1457 C1456 1.396 . S
C1457 C1458 1.399 . S
C1458 H1444 0.929 . S
C1458 C1457 1.399 . S
C1458 C1459 1.385 . S
C1459 H1445 0.931 . S
C1459 C1458 1.385 . S
C1459 C1460 1.389 . S
C1460 C1459 1.389 . S
C1460 C1461 1.387 . S
C1461 H1446 0.930 . S
C1461 C1456 1.390 . S
C1461 C1460 1.387 . S
H1462 C1474 0.930 . S
H1463 C1476 0.930 . S
H1464 C1477 0.930 . S
H1465 C1481 0.959 . S
H1466 C1481 0.959 . S
H1467 C1481 0.961 . S
H1468 C1482 0.960 . S
H1469 C1482 0.961 . S
H1470 C1482 0.959 . S
H1471 C1485 0.929 . S
H1472 C1486 0.931 . S
H1473 C1488 0.930 . S
C1474 H1462 0.930 . S
C1474 C1475 1.399 . S
C1474 C1479 1.399 . S
C1475 C1474 1.399 . S
C1475 C1476 1.376 . S
C1476 H1463 0.930 . S
C1476 C1475 1.376 . S
C1476 C1477 1.388 . S
C1477 H1464 0.930 . S
C1477 C1476 1.388 . S
C1477 C1478 1.390 . S
C1478 C1477 1.390 . S
C1478 C1479 1.394 . S
C1478 C1484 1.465 . S
C1479 C1474 1.399 . S
C1479 C1478 1.394 . S
C1479 C1480 1.516 . S
C1480 C1479 1.516 . S
C1480 C1481 1.502 . S
C1480 C1482 1.561 . S
C1480 C1483 1.526 . S
C1481 H1465 0.959 . S
C1481 H1466 0.959 . S
C1481 H1467 0.961 . S
C1481 C1480 1.502 . S
C1482 H1468 0.960 . S
C1482 H1469 0.961 . S
C1482 H1470 0.959 . S
C1482 C1480 1.561 . S
C1483 C1480 1.526 . S
C1483 C1484 1.396 . S
C1483 C1488 1.390 . S
C1484 C1478 1.465 . S
C1484 C1483 1.396 . S
C1484 C1485 1.399 . S
C1485 H1471 0.929 . S
C1485 C1484 1.399 . S
C1485 C1486 1.385 . S
C1486 H1472 0.931 . S
C1486 C1485 1.385 . S
C1486 C1487 1.389 . S
C1487 C1486 1.389 . S
C1487 C1488 1.387 . S
C1488 H1473 0.930 . S
C1488 C1483 1.390 . S
C1488 C1487 1.387 . S
H1489 C1501 0.930 . S
H1490 C1503 0.930 . S
H1491 C1504 0.930 . S
H1492 C1508 0.959 . S
H1493 C1508 0.959 . S
H1494 C1508 0.961 . S
H1495 C1509 0.960 . S
H1496 C1509 0.961 . S
H1497 C1509 0.959 . S
H1498 C1512 0.929 . S
H1499 C1513 0.931 . S
H1500 C1515 0.930 . S
C1501 H1489 0.930 . S
C1501 C1502 1.399 . S
C1501 C1506 1.399 . S
C1502 C1501 1.399 . S
C1502 C1503 1.376 . S
C1503 H1490 0.930 . S
C1503 C1502 1.376 . S
C1503 C1504 1.388 . S
C1504 H1491 0.930 . S
C1504 C1503 1.388 . S
C1504 C1505 1.390 . S
C1505 C1504 1.390 . S
C1505 C1506 1.394 . S
C1505 C1511 1.465 . S
C1506 C1501 1.399 . S
C1506 C1505 1.394 . S
C1506 C1507 1.516 . S
C1507 C1506 1.516 . S
C1507 C1508 1.502 . S
C1507 C1509 1.561 . S
C1507 C1510 1.526 . S
C1508 H1492 0.959 . S
C1508 H1493 0.959 . S
C1508 H1494 0.961 . S
C1508 C1507 1.502 . S
C1509 H1495 0.960 . S
C1509 H1496 0.961 . S
C1509 H1497 0.959 . S
C1509 C1507 1.561 . S
C1510 C1507 1.526 . S
C1510 C1511 1.396 . S
C1510 C1515 1.390 . S
C1511 C1505 1.465 . S
C1511 C1510 1.396 . S
C1511 C1512 1.399 . S
C1512 H1498 0.929 . S
C1512 C1511 1.399 . S
C1512 C1513 1.385 . S
C1513 H1499 0.931 . S
C1513 C1512 1.385 . S
C1513 C1514 1.389 . S
C1514 C1513 1.389 . S
C1514 C1515 1.387 . S
C1515 H1500 0.930 . S
C1515 C1510 1.390 . S
C1515 C1514 1.387 . S
H1516 C1528 0.930 . S
H1517 C1530 0.930 . S
H1518 C1531 0.930 . S
H1519 C1535 0.959 . S
H1520 C1535 0.959 . S
H1521 C1535 0.961 . S
H1522 C1536 0.960 . S
H1523 C1536 0.961 . S
H1524 C1536 0.959 . S
H1525 C1539 0.929 . S
H1526 C1540 0.931 . S
H1527 C1542 0.930 . S
C1528 H1516 0.930 . S
C1528 C1529 1.399 . S
C1528 C1533 1.399 . S
C1529 C1528 1.399 . S
C1529 C1530 1.376 . S
C1530 H1517 0.930 . S
C1530 C1529 1.376 . S
C1530 C1531 1.388 . S
C1531 H1518 0.930 . S
C1531 C1530 1.388 . S
C1531 C1532 1.390 . S
C1532 C1531 1.390 . S
C1532 C1533 1.394 . S
C1532 C1538 1.465 . S
C1533 C1528 1.399 . S
C1533 C1532 1.394 . S
C1533 C1534 1.516 . S
C1534 C1533 1.516 . S
C1534 C1535 1.502 . S
C1534 C1536 1.561 . S
C1534 C1537 1.526 . S
C1535 H1519 0.959 . S
C1535 H1520 0.959 . S
C1535 H1521 0.961 . S
C1535 C1534 1.502 . S
C1536 H1522 0.960 . S
C1536 H1523 0.961 . S
C1536 H1524 0.959 . S
C1536 C1534 1.561 . S
C1537 C1534 1.526 . S
C1537 C1538 1.396 . S
C1537 C1542 1.390 . S
C1538 C1532 1.465 . S
C1538 C1537 1.396 . S
C1538 C1539 1.399 . S
C1539 H1525 0.929 . S
C1539 C1538 1.399 . S
C1539 C1540 1.385 . S
C1540 H1526 0.931 . S
C1540 C1539 1.385 . S
C1540 C1541 1.389 . S
C1541 C1540 1.389 . S
C1541 C1542 1.387 . S
C1542 H1527 0.930 . S
C1542 C1537 1.390 . S
C1542 C1541 1.387 . S
H1543 C1555 0.930 . S
H1544 C1557 0.930 . S
H1545 C1558 0.930 . S
H1546 C1562 0.959 . S
H1547 C1562 0.959 . S
H1548 C1562 0.961 . S
H1549 C1563 0.960 . S
H1550 C1563 0.961 . S
H1551 C1563 0.959 . S
H1552 C1566 0.929 . S
H1553 C1567 0.931 . S
H1554 C1569 0.930 . S
C1555 H1543 0.930 . S
C1555 C1556 1.399 . S
C1555 C1560 1.399 . S
C1556 C1555 1.399 . S
C1556 C1557 1.376 . S
C1557 H1544 0.930 . S
C1557 C1556 1.376 . S
C1557 C1558 1.388 . S
C1558 H1545 0.930 . S
C1558 C1557 1.388 . S
C1558 C1559 1.390 . S
C1559 C1558 1.390 . S
C1559 C1560 1.394 . S
C1559 C1565 1.465 . S
C1560 C1555 1.399 . S
C1560 C1559 1.394 . S
C1560 C1561 1.516 . S
C1561 C1560 1.516 . S
C1561 C1562 1.502 . S
C1561 C1563 1.561 . S
C1561 C1564 1.526 . S
C1562 H1546 0.959 . S
C1562 H1547 0.959 . S
C1562 H1548 0.961 . S
C1562 C1561 1.502 . S
C1563 H1549 0.960 . S
C1563 H1550 0.961 . S
C1563 H1551 0.959 . S
C1563 C1561 1.561 . S
C1564 C1561 1.526 . S
C1564 C1565 1.396 . S
C1564 C1569 1.390 . S
C1565 C1559 1.465 . S
C1565 C1564 1.396 . S
C1565 C1566 1.399 . S
C1566 H1552 0.929 . S
C1566 C1565 1.399 . S
C1566 C1567 1.385 . S
C1567 H1553 0.931 . S
C1567 C1566 1.385 . S
C1567 C1568 1.389 . S
C1568 C1567 1.389 . S
C1568 C1569 1.387 . S
C1569 H1554 0.930 . S
C1569 C1564 1.390 . S
C1569 C1568 1.387 . S
H1570 C1582 0.930 . S
H1571 C1584 0.930 . S
H1572 C1585 0.930 . S
H1573 C1589 0.959 . S
H1574 C1589 0.959 . S
H1575 C1589 0.961 . S
H1576 C1590 0.960 . S
H1577 C1590 0.961 . S
H1578 C1590 0.959 . S
H1579 C1593 0.929 . S
H1580 C1594 0.931 . S
H1581 C1596 0.930 . S
C1582 H1570 0.930 . S
C1582 C1583 1.399 . S
C1582 C1587 1.399 . S
C1583 C1582 1.399 . S
C1583 C1584 1.376 . S
C1584 H1571 0.930 . S
C1584 C1583 1.376 . S
C1584 C1585 1.388 . S
C1585 H1572 0.930 . S
C1585 C1584 1.388 . S
C1585 C1586 1.390 . S
C1586 C1585 1.390 . S
C1586 C1587 1.394 . S
C1586 C1592 1.465 . S
C1587 C1582 1.399 . S
C1587 C1586 1.394 . S
C1587 C1588 1.516 . S
C1588 C1587 1.516 . S
C1588 C1589 1.502 . S
C1588 C1590 1.561 . S
C1588 C1591 1.526 . S
C1589 H1573 0.959 . S
C1589 H1574 0.959 . S
C1589 H1575 0.961 . S
C1589 C1588 1.502 . S
C1590 H1576 0.960 . S
C1590 H1577 0.961 . S
C1590 H1578 0.959 . S
C1590 C1588 1.561 . S
C1591 C1588 1.526 . S
C1591 C1592 1.396 . S
C1591 C1596 1.390 . S
C1592 C1586 1.465 . S
C1592 C1591 1.396 . S
C1592 C1593 1.399 . S
C1593 H1579 0.929 . S
C1593 C1592 1.399 . S
C1593 C1594 1.385 . S
C1594 H1580 0.931 . S
C1594 C1593 1.385 . S
C1594 C1595 1.389 . S
C1595 C1594 1.389 . S
C1595 C1596 1.387 . S
C1596 H1581 0.930 . S
C1596 C1591 1.390 . S
C1596 C1595 1.387 . S
H1597 C1609 0.930 . S
H1598 C1611 0.930 . S
H1599 C1612 0.930 . S
H1600 C1616 0.959 . S
H1601 C1616 0.959 . S
H1602 C1616 0.961 . S
H1603 C1617 0.960 . S
H1604 C1617 0.961 . S
H1605 C1617 0.959 . S
H1606 C1620 0.929 . S
H1607 C1621 0.931 . S
H1608 C1623 0.930 . S
C1609 H1597 0.930 . S
C1609 C1610 1.399 . S
C1609 C1614 1.399 . S
C1610 C1609 1.399 . S
C1610 C1611 1.376 . S
C1611 H1598 0.930 . S
C1611 C1610 1.376 . S
C1611 C1612 1.388 . S
C1612 H1599 0.930 . S
C1612 C1611 1.388 . S
C1612 C1613 1.390 . S
C1613 C1612 1.390 . S
C1613 C1614 1.394 . S
C1613 C1619 1.465 . S
C1614 C1609 1.399 . S
C1614 C1613 1.394 . S
C1614 C1615 1.516 . S
C1615 C1614 1.516 . S
C1615 C1616 1.502 . S
C1615 C1617 1.561 . S
C1615 C1618 1.526 . S
C1616 H1600 0.959 . S
C1616 H1601 0.959 . S
C1616 H1602 0.961 . S
C1616 C1615 1.502 . S
C1617 H1603 0.960 . S
C1617 H1604 0.961 . S
C1617 H1605 0.959 . S
C1617 C1615 1.561 . S
C1618 C1615 1.526 . S
C1618 C1619 1.396 . S
C1618 C1623 1.390 . S
C1619 C1613 1.465 . S
C1619 C1618 1.396 . S
C1619 C1620 1.399 . S
C1620 H1606 0.929 . S
C1620 C1619 1.399 . S
C1620 C1621 1.385 . S
C1621 H1607 0.931 . S
C1621 C1620 1.385 . S
C1621 C1622 1.389 . S
C1622 C1621 1.389 . S
C1622 C1623 1.387 . S
C1623 H1608 0.930 . S
C1623 C1618 1.390 . S
C1623 C1622 1.387 . S
H1624 C1636 0.930 . S
H1625 C1638 0.930 . S
H1626 C1639 0.930 . S
H1627 C1643 0.959 . S
H1628 C1643 0.959 . S
H1629 C1643 0.961 . S
H1630 C1644 0.960 . S
H1631 C1644 0.961 . S
H1632 C1644 0.959 . S
H1633 C1647 0.929 . S
H1634 C1648 0.931 . S
H1635 C1650 0.930 . S
C1636 H1624 0.930 . S
C1636 C1637 1.399 . S
C1636 C1641 1.399 . S
C1637 C1636 1.399 . S
C1637 C1638 1.376 . S
C1638 H1625 0.930 . S
C1638 C1637 1.376 . S
C1638 C1639 1.388 . S
C1639 H1626 0.930 . S
C1639 C1638 1.388 . S
C1639 C1640 1.390 . S
C1640 C1639 1.390 . S
C1640 C1641 1.394 . S
C1640 C1646 1.465 . S
C1641 C1636 1.399 . S
C1641 C1640 1.394 . S
C1641 C1642 1.516 . S
C1642 C1641 1.516 . S
C1642 C1643 1.502 . S
C1642 C1644 1.561 . S
C1642 C1645 1.526 . S
C1643 H1627 0.959 . S
C1643 H1628 0.959 . S
C1643 H1629 0.961 . S
C1643 C1642 1.502 . S
C1644 H1630 0.960 . S
C1644 H1631 0.961 . S
C1644 H1632 0.959 . S
C1644 C1642 1.561 . S
C1645 C1642 1.526 . S
C1645 C1646 1.396 . S
C1645 C1650 1.390 . S
C1646 C1640 1.465 . S
C1646 C1645 1.396 . S
C1646 C1647 1.399 . S
C1647 H1633 0.929 . S
C1647 C1646 1.399 . S
C1647 C1648 1.385 . S
C1648 H1634 0.931 . S
C1648 C1647 1.385 . S
C1648 C1649 1.389 . S
C1649 C1648 1.389 . S
C1649 C1650 1.387 . S
C1650 H1635 0.930 . S
C1650 C1645 1.390 . S
C1650 C1649 1.387 . S
H1651 C1663 0.930 . S
H1652 C1665 0.930 . S
H1653 C1666 0.930 . S
H1654 C1670 0.959 . S
H1655 C1670 0.959 1_545 S
H1656 C1670 0.961 . S
H1657 C1671 0.960 . S
H1658 C1671 0.961 . S
H1659 C1671 0.959 . S
H1660 C1674 0.929 . S
H1661 C1675 0.931 . S
H1662 C1677 0.954 . S
C1663 H1651 0.930 . S
C1663 C1664 1.399 . S
C1663 C1668 1.399 . S
C1664 C1663 1.399 . S
C1664 C1665 1.376 . S
C1665 H1652 0.930 . S
C1665 C1664 1.376 . S
C1665 C1666 1.388 . S
C1666 H1653 0.930 . S
C1666 C1665 1.388 . S
C1666 C1667 1.390 . S
C1667 C1666 1.390 . S
C1667 C1668 1.394 . S
C1667 C1673 1.465 . S
C1668 C1663 1.399 . S
C1668 C1667 1.394 . S
C1668 C1669 1.516 . S
C1669 C1668 1.516 . S
C1669 C1670 1.502 . S
C1669 C1671 1.561 . S
C1669 C1672 1.526 . S
C1670 H1654 0.959 . S
C1670 H1655 0.959 1_565 S
C1670 H1656 0.961 . S
C1670 C1669 1.502 . S
C1671 H1657 0.960 . S
C1671 H1658 0.961 . S
C1671 H1659 0.959 . S
C1671 C1669 1.561 . S
C1672 C1669 1.526 . S
C1672 C1673 1.396 . S
C1672 C1677 1.390 . S
C1673 C1667 1.465 . S
C1673 C1672 1.396 . S
C1673 C1674 1.399 . S
C1674 H1660 0.929 . S
C1674 C1673 1.399 . S
C1674 C1675 1.385 . S
C1675 H1661 0.931 . S
C1675 C1674 1.385 . S
C1675 C1676 1.389 . S
C1676 C1675 1.389 . S
C1676 C1677 1.387 . S
C1677 H1662 0.954 . S
C1677 C1672 1.390 . S
C1677 C1676 1.387 . S
H1678 C1690 0.930 . S
H1679 C1692 0.958 . S
H1680 C1693 0.930 . S
H1681 C1697 0.959 . S
H1682 C1697 0.959 . S
H1683 C1697 0.961 . S
H1684 C1698 0.960 . S
H1685 C1698 0.961 . S
H1686 C1698 0.959 . S
H1687 C1701 0.929 . S
H1688 C1702 0.931 . S
H1689 C1704 0.930 . S
C1690 H1678 0.930 . S
C1690 C1691 1.399 . S
C1690 C1695 1.399 . S
C1691 C1690 1.399 . S
C1691 C1692 1.376 . S
C1692 H1679 0.958 . S
C1692 C1691 1.376 . S
C1692 C1693 1.388 . S
C1693 H1680 0.930 . S
C1693 C1692 1.388 . S
C1693 C1694 1.390 . S
C1694 C1693 1.390 . S
C1694 C1695 1.394 . S
C1694 C1700 1.465 . S
C1695 C1690 1.399 . S
C1695 C1694 1.394 . S
C1695 C1696 1.516 . S
C1696 C1695 1.516 . S
C1696 C1697 1.502 . S
C1696 C1698 1.561 . S
C1696 C1699 1.526 . S
C1697 H1681 0.959 . S
C1697 H1682 0.959 . S
C1697 H1683 0.961 . S
C1697 C1696 1.502 . S
C1698 H1684 0.960 . S
C1698 H1685 0.961 . S
C1698 H1686 0.959 . S
C1698 C1696 1.561 . S
C1699 C1696 1.526 . S
C1699 C1700 1.396 . S
C1699 C1704 1.390 . S
C1700 C1694 1.465 . S
C1700 C1699 1.396 . S
C1700 C1701 1.399 . S
C1701 H1687 0.929 . S
C1701 C1700 1.399 . S
C1701 C1702 1.385 . S
C1702 H1688 0.931 . S
C1702 C1701 1.385 . S
C1702 C1703 1.389 . S
C1703 C1702 1.389 . S
C1703 C1704 1.387 . S
C1704 H1689 0.930 . S
C1704 C1699 1.390 . S
C1704 C1703 1.387 . S
H1705 C1717 0.930 . S
H1706 C1719 0.930 . S
H1707 C1720 0.930 . S
H1708 C1724 0.959 . S
H1709 C1724 0.959 . S
H1710 C1724 0.961 . S
H1711 C1725 0.960 1_565 S
H1712 C1725 0.961 . S
H1713 C1725 0.959 . S
H1714 C1728 0.929 . S
H1715 C1729 0.931 . S
H1716 C1731 0.930 . S
C1717 H1705 0.930 . S
C1717 C1718 1.399 . S
C1717 C1722 1.399 . S
C1718 C1717 1.399 . S
C1718 C1719 1.376 . S
C1719 H1706 0.930 . S
C1719 C1718 1.376 . S
C1719 C1720 1.388 . S
C1720 H1707 0.930 . S
C1720 C1719 1.388 . S
C1720 C1721 1.390 . S
C1721 C1720 1.390 . S
C1721 C1722 1.394 . S
C1721 C1727 1.465 . S
C1722 C1717 1.399 . S
C1722 C1721 1.394 . S
C1722 C1723 1.516 . S
C1723 C1722 1.516 . S
C1723 C1724 1.502 . S
C1723 C1725 1.561 . S
C1723 C1726 1.526 . S
C1724 H1708 0.959 . S
C1724 H1709 0.959 . S
C1724 H1710 0.961 . S
C1724 C1723 1.502 . S
C1725 H1711 0.960 1_545 S
C1725 H1712 0.961 . S
C1725 H1713 0.959 . S
C1725 C1723 1.561 . S
C1726 C1723 1.526 . S
C1726 C1727 1.396 . S
C1726 C1731 1.390 . S
C1727 C1721 1.465 . S
C1727 C1726 1.396 . S
C1727 C1728 1.399 . S
C1728 H1714 0.929 . S
C1728 C1727 1.399 . S
C1728 C1729 1.385 . S
C1729 H1715 0.931 . S
C1729 C1728 1.385 . S
C1729 C1730 1.389 . S
C1730 C1729 1.389 . S
C1730 C1731 1.387 . S
C1731 H1716 0.930 . S
C1731 C1726 1.390 . S
C1731 C1730 1.387 . S
H1732 C1744 0.930 . S
H1733 C1746 0.930 . S
H1734 C1747 0.930 . S
H1735 C1751 0.959 . S
H1736 C1751 0.959 . S
H1737 C1751 0.961 . S
H1738 C1752 0.960 . S
H1739 C1752 0.961 . S
H1740 C1752 0.959 . S
H1741 C1755 0.929 . S
H1742 C1756 0.931 . S
H1743 C1758 0.930 . S
C1744 H1732 0.930 . S
C1744 C1745 1.399 . S
C1744 C1749 1.399 . S
C1745 C1744 1.399 . S
C1745 C1746 1.376 . S
C1746 H1733 0.930 . S
C1746 C1745 1.376 . S
C1746 C1747 1.388 . S
C1747 H1734 0.930 . S
C1747 C1746 1.388 . S
C1747 C1748 1.390 . S
C1748 C1747 1.390 . S
C1748 C1749 1.394 . S
C1748 C1754 1.465 . S
C1749 C1744 1.399 . S
C1749 C1748 1.394 . S
C1749 C1750 1.516 . S
C1750 C1749 1.516 . S
C1750 C1751 1.502 . S
C1750 C1752 1.561 . S
C1750 C1753 1.526 . S
C1751 H1735 0.959 . S
C1751 H1736 0.959 . S
C1751 H1737 0.961 . S
C1751 C1750 1.502 . S
C1752 H1738 0.960 . S
C1752 H1739 0.961 . S
C1752 H1740 0.959 . S
C1752 C1750 1.561 . S
C1753 C1750 1.526 . S
C1753 C1754 1.396 . S
C1753 C1758 1.390 . S
C1754 C1748 1.465 . S
C1754 C1753 1.396 . S
C1754 C1755 1.399 . S
C1755 H1741 0.929 . S
C1755 C1754 1.399 . S
C1755 C1756 1.385 . S
C1756 H1742 0.931 . S
C1756 C1755 1.385 . S
C1756 C1757 1.389 . S
C1757 C1756 1.389 . S
C1757 C1758 1.387 . S
C1758 H1743 0.930 . S
C1758 C1753 1.390 . S
C1758 C1757 1.387 . S
H1759 C1771 0.930 . S
H1760 C1773 0.930 . S
H1761 C1774 0.930 . S
H1762 C1778 0.959 . S
H1763 C1778 0.959 . S
H1764 C1778 0.961 . S
H1765 C1779 0.960 . S
H1766 C1779 0.961 . S
H1767 C1779 0.959 . S
H1768 C1782 0.929 . S
H1769 C1783 0.931 . S
H1770 C1785 0.930 . S
C1771 H1759 0.930 . S
C1771 C1772 1.399 . S
C1771 C1776 1.399 . S
C1772 C1771 1.399 . S
C1772 C1773 1.376 . S
C1773 H1760 0.930 . S
C1773 C1772 1.376 . S
C1773 C1774 1.388 . S
C1774 H1761 0.930 . S
C1774 C1773 1.388 . S
C1774 C1775 1.390 . S
C1775 C1774 1.390 . S
C1775 C1776 1.394 . S
C1775 C1781 1.465 . S
C1776 C1771 1.399 . S
C1776 C1775 1.394 . S
C1776 C1777 1.516 . S
C1777 C1776 1.516 . S
C1777 C1778 1.502 . S
C1777 C1779 1.561 . S
C1777 C1780 1.526 . S
C1778 H1762 0.959 . S
C1778 H1763 0.959 . S
C1778 H1764 0.961 . S
C1778 C1777 1.502 . S
C1779 H1765 0.960 . S
C1779 H1766 0.961 . S
C1779 H1767 0.959 . S
C1779 C1777 1.561 . S
C1780 C1777 1.526 . S
C1780 C1781 1.396 . S
C1780 C1785 1.390 . S
C1781 C1775 1.465 . S
C1781 C1780 1.396 . S
C1781 C1782 1.399 . S
C1782 H1768 0.929 . S
C1782 C1781 1.399 . S
C1782 C1783 1.385 . S
C1783 H1769 0.931 . S
C1783 C1782 1.385 . S
C1783 C1784 1.389 . S
C1784 C1783 1.389 . S
C1784 C1785 1.387 . S
C1785 H1770 0.930 . S
C1785 C1780 1.390 . S
C1785 C1784 1.387 . S
H1786 C1798 0.930 . S
H1787 C1800 0.930 . S
H1788 C1801 0.930 . S
H1789 C1805 0.959 . S
H1790 C1805 0.959 . S
H1791 C1805 0.961 . S
H1792 C1806 0.960 . S
H1793 C1806 0.961 . S
H1794 C1806 0.959 . S
H1795 C1809 0.929 . S
H1796 C1810 0.931 . S
H1797 C1812 0.930 . S
C1798 H1786 0.930 . S
C1798 C1799 1.399 . S
C1798 C1803 1.399 . S
C1799 C1798 1.399 . S
C1799 C1800 1.376 . S
C1800 H1787 0.930 . S
C1800 C1799 1.376 . S
C1800 C1801 1.388 . S
C1801 H1788 0.930 . S
C1801 C1800 1.388 . S
C1801 C1802 1.390 . S
C1802 C1801 1.390 . S
C1802 C1803 1.394 . S
C1802 C1808 1.465 . S
C1803 C1798 1.399 . S
C1803 C1802 1.394 . S
C1803 C1804 1.516 . S
C1804 C1803 1.516 . S
C1804 C1805 1.502 . S
C1804 C1806 1.561 . S
C1804 C1807 1.526 . S
C1805 H1789 0.959 . S
C1805 H1790 0.959 . S
C1805 H1791 0.961 . S
C1805 C1804 1.502 . S
C1806 H1792 0.960 . S
C1806 H1793 0.961 . S
C1806 H1794 0.959 . S
C1806 C1804 1.561 . S
C1807 C1804 1.526 . S
C1807 C1808 1.396 . S
C1807 C1812 1.390 . S
C1808 C1802 1.465 . S
C1808 C1807 1.396 . S
C1808 C1809 1.399 . S
C1809 H1795 0.929 . S
C1809 C1808 1.399 . S
C1809 C1810 1.385 . S
C1810 H1796 0.931 . S
C1810 C1809 1.385 . S
C1810 C1811 1.389 . S
C1811 C1810 1.389 . S
C1811 C1812 1.387 . S
C1812 H1797 0.930 . S
C1812 C1807 1.390 . S
C1812 C1811 1.387 . S
H1813 C1825 0.930 . S
H1814 C1827 0.930 . S
H1815 C1828 0.930 . S
H1816 C1832 0.959 . S
H1817 C1832 0.959 . S
H1818 C1832 0.961 . S
H1819 C1833 0.960 . S
H1820 C1833 0.961 . S
H1821 C1833 0.959 . S
H1822 C1836 0.929 . S
H1823 C1837 0.931 . S
H1824 C1839 0.930 . S
C1825 H1813 0.930 . S
C1825 C1826 1.399 . S
C1825 C1830 1.399 . S
C1826 C1825 1.399 . S
C1826 C1827 1.376 . S
C1827 H1814 0.930 . S
C1827 C1826 1.376 . S
C1827 C1828 1.388 . S
C1828 H1815 0.930 . S
C1828 C1827 1.388 . S
C1828 C1829 1.390 . S
C1829 C1828 1.390 . S
C1829 C1830 1.394 . S
C1829 C1835 1.465 . S
C1830 C1825 1.399 . S
C1830 C1829 1.394 . S
C1830 C1831 1.516 . S
C1831 C1830 1.516 . S
C1831 C1832 1.502 . S
C1831 C1833 1.561 . S
C1831 C1834 1.526 . S
C1832 H1816 0.959 . S
C1832 H1817 0.959 . S
C1832 H1818 0.961 . S
C1832 C1831 1.502 . S
C1833 H1819 0.960 . S
C1833 H1820 0.961 . S
C1833 H1821 0.959 . S
C1833 C1831 1.561 . S
C1834 C1831 1.526 . S
C1834 C1835 1.396 . S
C1834 C1839 1.390 . S
C1835 C1829 1.465 . S
C1835 C1834 1.396 . S
C1835 C1836 1.399 . S
C1836 H1822 0.929 . S
C1836 C1835 1.399 . S
C1836 C1837 1.385 . S
C1837 H1823 0.931 . S
C1837 C1836 1.385 . S
C1837 C1838 1.389 . S
C1838 C1837 1.389 . S
C1838 C1839 1.387 . S
C1839 H1824 0.930 . S
C1839 C1834 1.390 . S
C1839 C1838 1.387 . S
C557 C29 1.424 . S
C569 C408 1.439 . S
C584 C170 1.463 . S
C596 C63 1.404 . S
C611 C97 1.413 . S
C623 C476 1.470 . S
C638 C131 1.477 . S
C650 C238 1.397 . S
C665 C136 1.397 . S
C677 C301 1.473 . S
C692 C369 1.417 . S
C704 C204 1.447 . S
C719 C442 1.475 . S
C731 C335 1.398 . S
C746 C403 1.454 . S
C758 C510 1.411 . S
C773 C319 1.588 . S
C785 C0 1.569 . S
C800 C34 1.548 . S
C812 C353 1.536 . S
C827 C68 1.619 . S
C839 C387 1.529 . S
C854 C285 1.497 . S
C866 C102 1.603 . S
C881 C446 1.528 . S
C893 C165 1.545 . S
C908 C480 1.587 . S
C920 C199 1.585 . S
C935 C233 1.585 . S
C947 C514 1.499 . S
C962 C412 1.585 . S
C974 C267 1.582 . S
C989 C272 1.545 . S
C1001 C47 1.546 . S
C1016 C306 1.582 . S
C1028 C81 1.586 . S
C1043 C340 1.619 . S
C1055 C115 1.533 . S
C1070 C13 1.525 . S
C1082 C374 1.618 . S
C1097 C174 1.545 . S
C1109 C437 1.617 . S
C1124 C471 1.544 . S
C1136 C208 1.529 . S
C1151 C242 1.573 . S
C1163 C505 1.616 . S
C1178 C539 1.544 . S
C1190 C140 1.529 . S
C1205 C17 1.810 . S
C1217 C357 1.800 . S
C1232 C51 1.809 . S
C1244 C391 1.795 . S
C1259 C289 1.810 . S
C1271 C85 1.802 . S
C1286 C119 1.796 . S
C1298 C323 1.804 . S
C1313 C144 1.799 . S
C1325 C484 1.809 . S
C1340 C178 1.810 . S
C1352 C518 1.795 . S
C1367 C416 1.798 . S
C1379 C212 1.809 . S
C1394 C246 1.804 . S
C1406 C450 1.799 . S
C1421 C4 1.215 . S
C1433 C255 1.217 . S
C1448 C425 1.235 . S
C1460 C38 1.181 . S
C1475 C72 1.227 . S
C1487 C187 1.219 . S
C1502 C106 1.180 . S
C1514 C493 1.222 . S
C1529 C149 1.207 . S
C1541 C110 1.221 . S
C1556 C280 1.219 . S
C1568 C183 1.220 . S
C1583 C217 1.115 . S
C1595 C42 1.242 . S
C1610 C348 1.218 . S
C1622 C251 1.223 . S
C1637 C276 1.126 . S
C1649 C527 1.243 1_565 S
C1664 C153 1.229 . S
C1676 C310 1.204 . S
C1691 C459 1.229 1_545 S
C1703 C344 1.145 . S
C1718 C378 1.227 . S
C1730 C221 1.220 . S
C1745 C421 1.154 . S
C1757 C382 1.235 1_545 S
C1772 C455 1.225 . S
C1784 C8 1.217 . S
C1799 C314 1.218 1_565 S
C1811 C489 1.222 . S
C1826 C76 1.216 . S
C1838 C523 1.226 . S
