# Generated by pormake.
# Topology sni, (6)-cn, num edge types: 1
# Building blocks:
#     Node 0, Type 0, BuildingBlock: IZENUY_clean_sbu_0, # of connection points: 6
#     Node 1, Type 0, BuildingBlock: IZENUY_clean_sbu_0, # of connection points: 6
#     Node 2, Type 0, BuildingBlock: IZENUY_clean_sbu_0, # of connection points: 6
#     Node 3, Type 0, BuildingBlock: IZENUY_clean_sbu_0, # of connection points: 6
#     Node 4, Type 0, BuildingBlock: IZENUY_clean_sbu_0, # of connection points: 6
#     Node 5, Type 0, BuildingBlock: IZENUY_clean_sbu_0, # of connection points: 6
#     Node 6, Type 0, BuildingBlock: IZENUY_clean_sbu_0, # of connection points: 6
#     Node 7, Type 0, BuildingBlock: IZENUY_clean_sbu_0, # of connection points: 6
#     Edge 8, Type (0, 0), BuildingBlock: CIFDUS_clean_linker_0, # of connection points: 2
#     Edge 9, Type (0, 0), BuildingBlock: CIFDUS_clean_linker_0, # of connection points: 2
#     Edge 10, Type (0, 0), BuildingBlock: CIFDUS_clean_linker_0, # of connection points: 2
#     Edge 11, Type (0, 0), BuildingBlock: CIFDUS_clean_linker_0, # of connection points: 2
#     Edge 12, Type (0, 0), BuildingBlock: CIFDUS_clean_linker_0, # of connection points: 2
#     Edge 13, Type (0, 0), BuildingBlock: CIFDUS_clean_linker_0, # of connection points: 2
#     Edge 14, Type (0, 0), BuildingBlock: CIFDUS_clean_linker_0, # of connection points: 2
#     Edge 15, Type (0, 0), BuildingBlock: CIFDUS_clean_linker_0, # of connection points: 2
#     Edge 16, Type (0, 0), BuildingBlock: CIFDUS_clean_linker_0, # of connection points: 2
#     Edge 17, Type (0, 0), BuildingBlock: CIFDUS_clean_linker_0, # of connection points: 2
#     Edge 18, Type (0, 0), BuildingBlock: CIFDUS_clean_linker_0, # of connection points: 2
#     Edge 19, Type (0, 0), BuildingBlock: CIFDUS_clean_linker_0, # of connection points: 2
#     Edge 20, Type (0, 0), BuildingBlock: CIFDUS_clean_linker_0, # of connection points: 2
#     Edge 21, Type (0, 0), BuildingBlock: CIFDUS_clean_linker_0, # of connection points: 2
#     Edge 22, Type (0, 0), BuildingBlock: CIFDUS_clean_linker_0, # of connection points: 2
#     Edge 23, Type (0, 0), BuildingBlock: CIFDUS_clean_linker_0, # of connection points: 2
#     Edge 24, Type (0, 0), BuildingBlock: CIFDUS_clean_linker_0, # of connection points: 2
#     Edge 25, Type (0, 0), BuildingBlock: CIFDUS_clean_linker_0, # of connection points: 2
#     Edge 26, Type (0, 0), BuildingBlock: CIFDUS_clean_linker_0, # of connection points: 2
#     Edge 27, Type (0, 0), BuildingBlock: CIFDUS_clean_linker_0, # of connection points: 2
#     Edge 28, Type (0, 0), BuildingBlock: CIFDUS_clean_linker_0, # of connection points: 2
#     Edge 29, Type (0, 0), BuildingBlock: CIFDUS_clean_linker_0, # of connection points: 2
#     Edge 30, Type (0, 0), BuildingBlock: CIFDUS_clean_linker_0, # of connection points: 2
#     Edge 31, Type (0, 0), BuildingBlock: CIFDUS_clean_linker_0, # of connection points: 2
# Relax obj value: 0.128
# Max RMSD: 0.110
# Mean RMSD: 0.110
data_MOF--net-sni--node1-IZENUY_clean_sbu_0--edge1-CIFDUS_clean_linker_0
_symmetry_space_group_name_H-M    P1
_symmetry_Int_Tables_number       1
_symmetry_cell_setting            triclinic
loop_
_symmetry_equiv_pos_as_xyz
'x, y, z'
_cell_length_a     35.79728
_cell_length_b     35.935357
_cell_length_c     17.816019
_cell_angle_alpha  89.911442
_cell_angle_beta   89.82633
_cell_angle_gamma 90.935944
loop_
_atom_site_label
_atom_site_type_symbol
_atom_site_fract_x
_atom_site_fract_y
_atom_site_fract_z
_atom_type_partial_charge
Fe0 Fe 0.64023 0.20666 0.98725 0.0
Fe1 Fe 0.69619 0.14302 0.00941 0.0
O2 O 0.64965 0.15892 0.00191 0.0
Fe3 Fe 0.61202 0.12684 0.00999 0.0
O4 O 0.59688 0.13738 0.91677 0.0
O5 O 0.59755 0.19806 0.9311 0.0
O6 O 0.66672 0.20749 0.90002 0.0
C7 C 0.70047 0.19793 0.89379 0.0
C8 C 0.58573 0.18869 0.08982 0.0
O9 O 0.7156 0.17754 0.94297 0.0
C10 C 0.65646 0.10129 0.12076 0.0
O11 O 0.68056 0.22366 0.04051 0.0
O12 O 0.70529 0.17345 0.08947 0.0
O13 O 0.57908 0.15964 0.05207 0.0
O14 O 0.61379 0.20907 0.07487 0.0
C15 C 0.66441 0.08733 0.92406 0.0
O16 O 0.68456 0.10562 0.07763 0.0
O17 O 0.62541 0.1148 0.10382 0.0
C18 C 0.69964 0.20813 0.09091 0.0
O19 O 0.69026 0.11158 0.92917 0.0
O20 O 0.63717 0.08762 0.96939 0.0
C21 C 0.58593 0.16902 0.89747 0.0
Fe22 Fe 0.92553 0.63476 0.00557 0.0
Fe23 Fe 0.89053 0.71162 0.00187 0.0
O24 O 0.88524 0.66246 0.00378 0.0
Fe25 Fe 0.84025 0.64095 0.00487 0.0
O26 O 0.85409 0.60192 0.06519 0.0
O27 O 0.91238 0.61528 0.09572 0.0
O28 O 0.95504 0.66862 0.05615 0.0
C29 C 0.94572 0.69413 0.10075 0.0
C30 C 0.87677 0.59288 0.91173 0.0
O31 O 0.91581 0.71154 0.09083 0.0
C32 C 0.83262 0.70157 0.90294 0.0
O33 O 0.94039 0.65291 0.9155 0.0
O34 O 0.93407 0.71171 0.9464 0.0
O35 O 0.84953 0.6145 0.91915 0.0
O36 O 0.90435 0.59537 0.95567 0.0
C37 C 0.82905 0.70023 0.09955 0.0
O38 O 0.86514 0.71477 0.91397 0.0
O39 O 0.81887 0.67643 0.9453 0.0
C40 C 0.94681 0.687 0.90311 0.0
O41 O 0.84824 0.72065 0.05588 0.0
O42 O 0.82738 0.66538 0.09041 0.0
C43 C 0.8818 0.59844 0.10875 0.0
Fe44 Fe 0.34184 0.89134 0.0036 0.0
Fe45 Fe 0.39234 0.82257 0.00052 0.0
O46 O 0.38687 0.87154 0.00093 0.0
Fe47 Fe 0.42695 0.90075 -0.00044 0.0
O48 O 0.41493 0.92063 0.0885 0.0
O49 O 0.35629 0.93168 0.06088 0.0
O50 O 0.33055 0.86761 0.09099 0.0
C51 C 0.33204 0.83293 0.10129 0.0
C52 C 0.37699 0.9389 0.9049 0.0
O53 O 0.35035 0.81259 0.0569 0.0
C54 C 0.44974 0.849 0.90187 0.0
O55 O 0.31985 0.85426 0.94715 0.0
O56 O 0.3661 0.81787 0.91356 0.0
O57 O 0.40514 0.93863 0.94757 0.0
O58 O 0.34973 0.91686 0.91618 0.0
C59 C 0.44804 0.84322 0.09771 0.0
O60 O 0.43596 0.82374 0.944 0.0
O61 O 0.44079 0.88236 0.91048 0.0
C62 C 0.33321 0.82956 0.90433 0.0
O63 O 0.41832 0.82435 0.08871 0.0
O64 O 0.45702 0.86865 0.05166 0.0
C65 C 0.38476 0.93678 0.10211 0.0
Fe66 Fe 0.20027 0.38875 0.00785 0.0
Fe67 Fe 0.11679 0.40206 0.98781 0.0
O68 O 0.1542 0.37108 0.99641 0.0
Fe69 Fe 0.14507 0.32246 0.99357 0.0
O70 O 0.18331 0.31044 0.05752 0.0
O71 O 0.20515 0.36459 0.09608 0.0
O72 O 0.18611 0.4297 0.06306 0.0
C73 C 0.15607 0.43618 0.09853 0.0
C74 C 0.20859 0.32748 0.90845 0.0
O75 O 0.12565 0.42107 0.07924 0.0
C76 C 0.09818 0.35139 0.88135 0.0
O77 O 0.19876 0.4144 0.92011 0.0
O78 O 0.14423 0.43923 0.94136 0.0
O79 O 0.17471 0.31735 0.91212 0.0
O80 O 0.2222 0.35084 0.95475 0.0
C81 C 0.08677 0.34494 0.08039 0.0
O82 O 0.1064 0.38474 0.89562 0.0
O83 O 0.10512 0.32575 0.92809 0.0
C84 C 0.17463 0.43836 0.90491 0.0
O85 O 0.08202 0.37087 0.03316 0.0
O86 O 0.11509 0.32468 0.07581 0.0
C87 C 0.20116 0.32998 0.10495 0.0
Fe88 Fe 0.6643 0.81689 0.49903 0.0
Fe89 Fe 0.71841 0.88448 0.50141 0.0
O90 O 0.67222 0.86582 0.50314 0.0
Fe91 Fe 0.63352 0.89575 0.50857 0.0
O92 O 0.61839 0.87444 0.59552 0.0
O93 O 0.62105 0.81696 0.55501 0.0
O94 O 0.69009 0.8097 0.5858 0.0
C95 C 0.72334 0.82106 0.59652 0.0
C96 C 0.60988 0.84112 0.40396 0.0
O97 O 0.7381 0.84594 0.55488 0.0
C98 C 0.67811 0.93404 0.40918 0.0
O99 O 0.70569 0.80715 0.44283 0.0
O100 O 0.72836 0.86212 0.41196 0.0
O101 O 0.60216 0.86575 0.45211 0.0
O102 O 0.63856 0.8214 0.41127 0.0
C103 C 0.68629 0.93087 0.60552 0.0
O104 O 0.70656 0.9261 0.44762 0.0
O105 O 0.64658 0.91919 0.42237 0.0
C106 C 0.7251 0.82763 0.39976 0.0
O107 O 0.71234 0.90867 0.59076 0.0
O108 O 0.65718 0.93139 0.56548 0.0
C109 C 0.60995 0.84047 0.60242 0.0
Fe110 Fe 0.16212 0.71363 0.50266 0.0
Fe111 Fe 0.21505 0.64657 0.50004 0.0
O112 O 0.16937 0.66493 0.49793 0.0
Fe113 Fe 0.13074 0.63402 0.49052 0.0
O114 O 0.10071 0.66595 0.43891 0.0
O115 O 0.13753 0.71361 0.41288 0.0
O116 O 0.20477 0.72585 0.44918 0.0
C117 C 0.22497 0.70647 0.40602 0.0
C118 C 0.1032 0.68195 0.59223 0.0
O119 O 0.22784 0.67179 0.41558 0.0
C120 C 0.17766 0.59738 0.59129 0.0
O121 O 0.18668 0.71762 0.59202 0.0
O122 O 0.23451 0.68338 0.55976 0.0
O123 O 0.1129 0.64918 0.57893 0.0
O124 O 0.11766 0.70935 0.55664 0.0
C125 C 0.17793 0.60156 0.39245 0.0
O126 O 0.20478 0.62013 0.58558 0.0
O127 O 0.15263 0.59604 0.54155 0.0
C128 C 0.21972 0.7069 0.60297 0.0
O129 O 0.20405 0.60644 0.43944 0.0
O130 O 0.14693 0.61708 0.40125 0.0
C131 C 0.10882 0.69401 0.39913 0.0
Fe132 Fe 0.37124 0.21377 0.49675 0.0
Fe133 Fe 0.31749 0.1458 0.49694 0.0
O134 O 0.36342 0.1649 0.49712 0.0
Fe135 Fe 0.40201 0.13502 0.49719 0.0
O136 O 0.41706 0.15328 0.5856 0.0
O137 O 0.41455 0.21216 0.55312 0.0
O138 O 0.34589 0.21916 0.58436 0.0
C139 C 0.31275 0.20778 0.5956 0.0
C140 C 0.42541 0.19211 0.39848 0.0
O141 O 0.29778 0.18335 0.55352 0.0
C142 C 0.35716 0.09951 0.39703 0.0
O143 O 0.32951 0.2241 0.44149 0.0
O144 O 0.30658 0.16922 0.40986 0.0
O145 O 0.43344 0.1667 0.44452 0.0
O146 O 0.39667 0.21137 0.40804 0.0
C147 C 0.35093 0.09777 0.59423 0.0
O148 O 0.32941 0.10511 0.43969 0.0
O149 O 0.38832 0.11521 0.40872 0.0
C150 C 0.30952 0.20381 0.39903 0.0
O151 O 0.32501 0.12064 0.58443 0.0
O152 O 0.37862 0.09743 0.55 0.0
C153 C 0.42533 0.1869 0.59753 0.0
Fe154 Fe 0.87855 0.32014 0.49803 0.0
Fe155 Fe 0.90196 0.40211 0.50487 0.0
O156 O 0.86629 0.36772 0.50001 0.0
Fe157 Fe 0.81907 0.38175 0.49631 0.0
O158 O 0.80734 0.35578 0.57991 0.0
O159 O 0.83755 0.30422 0.55411 0.0
O160 O 0.90366 0.32365 0.58606 0.0
C161 C 0.93122 0.34517 0.59531 0.0
C162 C 0.82097 0.3189 0.39736 0.0
O163 O 0.93588 0.37312 0.55323 0.0
C164 C 0.85114 0.43497 0.40708 0.0
O165 O 0.92133 0.32847 0.43946 0.0
O166 O 0.91937 0.38857 0.41453 0.0
O167 O 0.80317 0.34285 0.43511 0.0
O168 O 0.85464 0.31243 0.41097 0.0
C169 C 0.85316 0.43052 0.60492 0.0
O170 O 0.8759 0.43824 0.45686 0.0
O171 O 0.8274 0.40876 0.41097 0.0
C172 C 0.92941 0.35624 0.3973 0.0
O173 O 0.88527 0.41718 0.59523 0.0
O174 O 0.82683 0.42291 0.55882 0.0
C175 C 0.8131 0.32172 0.5915 0.0
H176 H 0.50037 0.2049 0.39739 0.0
H177 H 0.40506 0.19173 0.25228 0.0
H178 H 0.44625 0.1912 0.14209 0.0
H179 H 0.50998 0.18893 0.08846 0.0
H180 H 0.60501 0.20775 0.23208 0.0
H181 H 0.56357 0.21216 0.34147 0.0
C182 C 0.48873 0.20264 0.34141 0.0
C183 C 0.44987 0.19822 0.33256 0.0
C184 C 0.51256 0.20321 0.27833 0.0
C185 C 0.4349 0.19543 0.26007 0.0
C186 C 0.45846 0.19489 0.19723 0.0
C187 C 0.52144 0.19469 0.14361 0.0
C188 C 0.5604 0.19783 0.15259 0.0
C189 C 0.49738 0.19797 0.20582 0.0
C190 C 0.57506 0.20549 0.22399 0.0
C191 C 0.5514 0.20774 0.28651 0.0
H192 H 0.82884 0.54412 0.13259 0.0
H193 H 0.93022 0.59185 0.22518 0.0
H194 H 0.9287 0.54598 0.32594 0.0
H195 H 0.89997 0.49194 0.38564 0.0
H196 H 0.7994 0.44228 0.29396 0.0
H197 H 0.79927 0.48954 0.19452 0.0
C198 C 0.85048 0.54461 0.17507 0.0
C199 C 0.87969 0.57133 0.17117 0.0
C200 C 0.84966 0.51785 0.23268 0.0
C201 C 0.90758 0.57147 0.22649 0.0
C202 C 0.90672 0.54528 0.2842 0.0
C203 C 0.87779 0.49139 0.34429 0.0
C204 C 0.84963 0.46363 0.34746 0.0
C205 C 0.87809 0.51826 0.28745 0.0
C206 C 0.82136 0.46338 0.29293 0.0
C207 C 0.8213 0.49037 0.2361 0.0
H208 H 0.53399 0.83591 0.40606 0.0
H209 H 0.62899 0.83432 0.25707 0.0
H210 H 0.58727 0.8335 0.14818 0.0
H211 H 0.52362 0.83794 0.09547 0.0
H212 H 0.42848 0.83359 0.24411 0.0
H213 H 0.47014 0.83161 0.35304 0.0
C214 C 0.54543 0.83488 0.34966 0.0
C215 C 0.58447 0.83547 0.33935 0.0
C216 C 0.52122 0.83344 0.28742 0.0
C217 C 0.59905 0.83375 0.26623 0.0
C218 C 0.5752 0.83347 0.20403 0.0
C219 C 0.5121 0.83594 0.15177 0.0
C220 C 0.47308 0.83608 0.162 0.0
C221 C 0.53625 0.83397 0.21392 0.0
C222 C 0.45841 0.83326 0.23498 0.0
C223 C 0.48224 0.8324 0.29721 0.0
H224 H 0.21478 0.47528 0.15913 0.0
H225 H 0.0944 0.46367 0.16675 0.0
H226 H 0.09092 0.51472 0.25515 0.0
H227 H 0.12129 0.56277 0.32955 0.0
H228 H 0.24147 0.57389 0.32927 0.0
H229 H 0.24574 0.52303 0.23813 0.0
C230 C 0.18784 0.48388 0.18036 0.0
C231 C 0.15496 0.46575 0.15587 0.0
C232 C 0.18591 0.51329 0.23198 0.0
C233 C 0.12024 0.47707 0.18435 0.0
C234 C 0.11811 0.50639 0.23485 0.0
C235 C 0.14846 0.55434 0.30913 0.0
C236 C 0.181 0.57219 0.33537 0.0
C237 C 0.15068 0.52479 0.25859 0.0
C238 C 0.21601 0.5605 0.30952 0.0
C239 C 0.21845 0.53146 0.25764 0.0
H240 H 0.60242 0.86979 0.73928 0.0
H241 H 0.55432 0.78763 0.59082 0.0
H242 H 0.50112 0.77882 0.67652 0.0
H243 H 0.46447 0.80134 0.78608 0.0
H244 H 0.51409 0.88433 0.93109 0.0
H245 H 0.57071 0.8856 0.8553 0.0
C246 C 0.58054 0.84952 0.72643 0.0
C247 C 0.58176 0.82982 0.65887 0.0
C248 C 0.55022 0.84494 0.77521 0.0
C249 C 0.55375 0.80317 0.64286 0.0
C250 C 0.52327 0.79831 0.69153 0.0
C251 C 0.48811 0.81892 0.80154 0.0
C252 C 0.4852 0.84314 0.86284 0.0
C253 C 0.52059 0.81998 0.75676 0.0
C254 C 0.5158 0.8659 0.88313 0.0
C255 C 0.54811 0.86669 0.83994 0.0
H256 H 0.12608 0.48751 0.84683 0.0
H257 H 0.2414 0.45493 0.83438 0.0
H258 H 0.25382 0.50335 0.74021 0.0
H259 H 0.23099 0.55415 0.65771 0.0
H260 H 0.11457 0.58286 0.6678 0.0
H261 H 0.10371 0.53733 0.76713 0.0
C262 C 0.15403 0.49102 0.82393 0.0
C263 C 0.18272 0.4676 0.84787 0.0
C264 C 0.16084 0.51849 0.76938 0.0
C265 C 0.2187 0.47249 0.8169 0.0
C266 C 0.22587 0.50026 0.76313 0.0
C267 C 0.20347 0.55061 0.68257 0.0
C268 C 0.17363 0.57183 0.65581 0.0
C269 C 0.19708 0.52338 0.73857 0.0
C270 C 0.13792 0.56673 0.68747 0.0
C271 C 0.13164 0.54067 0.74417 0.0
H272 H 0.44009 0.14256 0.71322 0.0
H273 H 0.47201 0.24831 0.61547 0.0
H274 H 0.52417 0.25384 0.7045 0.0
H275 H 0.56411 0.22475 0.8025 0.0
H276 H 0.53236 0.11604 0.88778 0.0
H277 H 0.47706 0.11529 0.81011 0.0
C278 C 0.4583 0.16701 0.71134 0.0
C279 C 0.45269 0.19467 0.65724 0.0
C280 C 0.48866 0.16912 0.75971 0.0
C281 C 0.47594 0.22656 0.6567 0.0
C282 C 0.5059 0.22953 0.70706 0.0
C283 C 0.54492 0.20109 0.80384 0.0
C284 C 0.55262 0.17027 0.84967 0.0
C285 C 0.51316 0.20038 0.75745 0.0
C286 C 0.52753 0.13977 0.85167 0.0
C287 C 0.4957 0.13937 0.80778 0.0
H288 H 0.81874 0.56698 0.82135 0.0
H289 H 0.93453 0.54853 0.87652 0.0
H290 H 0.93624 0.49639 0.79106 0.0
H291 H 0.90626 0.45602 0.70048 0.0
H292 H 0.79137 0.47292 0.63843 0.0
H293 H 0.78792 0.52502 0.72718 0.0
C294 C 0.84431 0.55159 0.81441 0.0
C295 C 0.87638 0.56189 0.85608 0.0
C296 C 0.84533 0.52105 0.76426 0.0
C297 C 0.90926 0.54143 0.84609 0.0
C298 C 0.91038 0.51141 0.797 0.0
C299 C 0.88025 0.47083 0.70618 0.0
C300 C 0.84914 0.46036 0.66244 0.0
C301 C 0.87869 0.50093 0.75601 0.0
C302 C 0.81581 0.48019 0.67132 0.0
C303 C 0.81388 0.51014 0.72191 0.0
H304 H 0.95601 0.65274 0.77141 0.0
H305 H 0.99857 0.74402 0.90418 0.0
H306 H 0.04969 0.75419 0.81395 0.0
H307 H 0.08631 0.73161 0.70413 0.0
H308 H 0.04166 0.63992 0.57441 0.0
H309 H 0.98717 0.63581 0.65558 0.0
C310 C 0.97625 0.67516 0.77999 0.0
C311 C 0.97406 0.69721 0.84439 0.0
C312 C 1.00531 0.68066 0.72847 0.0
C313 C 0.99991 0.72662 0.85468 0.0
C314 C 0.0292 0.73231 0.80338 0.0
C315 C 0.06418 0.71139 0.69314 0.0
C316 C 0.06819 0.68565 0.63462 0.0
C317 C 0.03281 0.70877 0.74101 0.0
C318 C 0.0394 0.65955 0.62028 0.0
C319 C 1.00823 0.65713 0.66655 0.0
H320 H 0.40745 0.05762 0.65068 0.0
H321 H 0.28875 0.07329 0.67296 0.0
H322 H 0.28551 0.02407 0.76855 0.0
H323 H 0.31704 0.97631 0.8466 0.0
H324 H 0.4364 0.96439 0.82599 0.0
H325 H 0.43861 1.01199 0.72861 0.0
C326 C 0.38076 0.05026 0.67614 0.0
C327 C 0.34835 0.06897 0.65415 0.0
C328 C 0.37922 0.02237 0.73134 0.0
C329 C 0.31416 0.05937 0.68879 0.0
C330 C 0.31228 0.03111 0.74328 0.0
C331 C 0.34339 0.98401 0.82021 0.0
C332 C 0.3765 0.96671 0.84335 0.0
C333 C 0.34466 1.01229 0.76497 0.0
C334 C 0.41055 0.97734 0.80943 0.0
C335 C 0.41188 1.00457 0.75369 0.0
H336 H 1.00269 0.36944 0.59341 0.0
H337 H 0.92542 0.30053 0.72018 0.0
H338 H 0.97309 0.29125 0.81679 0.0
H339 H 0.03461 0.30898 0.87127 0.0
H340 H 0.10954 0.38021 0.74411 0.0
H341 H 0.06519 0.38172 0.64061 0.0
C342 C 0.99626 0.3522 0.64196 0.0
C343 C 0.96044 0.33626 0.65046 0.0
C344 C 0.02351 0.34727 0.69693 0.0
C345 C 0.95279 0.31333 0.7128 0.0
C346 C 0.98 0.30807 0.76799 0.0
C347 C 0.04148 0.32385 0.81989 0.0
C348 C 0.07509 0.34446 0.81479 0.0
C349 C 1.0152 0.32565 0.76148 0.0
C350 C 0.0837 0.36419 0.74878 0.0
C351 C 0.05831 0.36527 0.68995 0.0
H352 H 0.72423 0.05274 0.85512 0.0
H353 H 0.60375 0.0565 0.85884 0.0
H354 H 0.60016 1.00886 0.76245 0.0
H355 H 0.63034 0.9661 0.67665 0.0
H356 H 0.75035 0.9582 0.67369 0.0
H357 H 0.75499 1.00681 0.77027 0.0
C358 C 0.69729 0.04311 0.83456 0.0
C359 C 0.6643 0.05831 0.86444 0.0
C360 C 0.69526 1.01474 0.77942 0.0
C361 C 0.62959 0.04522 0.83753 0.0
C362 C 0.62744 0.01795 0.78213 0.0
C363 C 0.65761 0.97495 0.69695 0.0
C364 C 0.68995 0.95865 0.66731 0.0
C365 C 0.65999 1.00248 0.75275 0.0
C366 C 0.72496 0.97019 0.69543 0.0
C367 C 0.72761 0.99814 0.75049 0.0
H368 H 0.02064 0.37969 0.09903 0.0
H369 H 0.08924 0.29504 0.19745 0.0
H370 H 0.0449 0.28802 0.30159 0.0
H371 H 0.98843 0.30958 0.37 0.0
H372 H 0.92219 0.39582 0.2704 0.0
H373 H 0.9634 0.39815 0.16169 0.0
C374 C 0.02585 0.35942 0.14279 0.0
C375 C 0.0584 0.3381 0.1403 0.0
C376 C 1.00052 0.35581 0.2028 0.0
C377 C 0.06444 0.3119 0.19772 0.0
C378 C 0.0391 0.3079 0.25752 0.0
C379 C 0.98278 0.32833 0.3238 0.0
C380 C 0.95242 0.35263 0.32851 0.0
C381 C 1.00726 0.33016 0.2614 0.0
C382 C 0.94558 0.37705 0.26848 0.0
C383 C 0.96915 0.37847 0.2062 0.0
H384 H 0.62509 0.9835 0.37496 0.0
H385 H 0.73807 0.95299 0.32169 0.0
H386 H 0.74261 1.00379 0.22996 0.0
H387 H 0.71323 0.05553 0.16199 0.0
H388 H 0.60093 0.08688 0.22163 0.0
H389 H 0.59768 0.03748 0.3146 0.0
C390 C 0.65063 0.98791 0.34297 0.0
C391 C 0.68099 0.96439 0.35393 0.0
C392 C 0.65328 0.01747 0.29194 0.0
C393 C 0.71427 0.97079 0.31361 0.0
C394 C 0.71688 0.99979 0.26137 0.0
C395 C 0.68825 0.05183 0.19595 0.0
C396 C 0.65725 0.0746 0.18392 0.0
C397 C 0.68645 0.02323 0.24979 0.0
C398 C 0.62514 0.06955 0.2289 0.0
C399 C 0.62312 0.04121 0.2821 0.0
H400 H 0.02051 0.70664 0.09602 0.0
H401 H 0.92674 0.69973 0.24785 0.0
H402 H 0.96928 0.70165 0.35547 0.0
H403 H 0.03354 0.69839 0.40523 0.0
H404 H 0.12723 0.70977 0.25413 0.0
H405 H 0.0845 0.71357 0.14705 0.0
C406 C 1.00949 0.7064 0.15282 0.0
C407 C 0.97067 0.70291 0.16439 0.0
C408 C 0.03411 0.70807 0.21421 0.0
C409 C 0.95652 0.70272 0.23789 0.0
C410 C 0.98085 0.70352 0.29928 0.0
C411 C 0.04447 0.70248 0.34889 0.0
C412 C 0.08337 0.70357 0.33714 0.0
C413 C 0.01972 0.7052 0.28802 0.0
C414 C 0.09737 0.70908 0.26428 0.0
C415 C 0.07295 0.71097 0.20315 0.0
H416 H 0.32523 0.97511 0.15564 0.0
H417 H 0.44461 0.96329 0.18003 0.0
H418 H 0.4462 1.01315 0.2716 0.0
H419 H 0.41453 0.0604 0.34322 0.0
H420 H 0.29511 0.07198 0.32539 0.0
H421 H 0.29274 0.02183 0.23219 0.0
C422 C 0.35153 0.98343 0.18115 0.0
C423 C 0.38472 0.96568 0.16057 0.0
C424 C 0.35234 1.0121 0.23445 0.0
C425 C 0.41859 0.97649 0.19462 0.0
C426 C 0.41963 1.0051 0.24692 0.0
C427 C 0.38796 0.05217 0.31864 0.0
C428 C 0.3551 0.06996 0.34032 0.0
C429 C 0.38678 0.02319 0.26673 0.0
C430 C 0.32079 0.05857 0.30918 0.0
C431 C 0.31944 0.02999 0.25607 0.0
H432 H 0.75433 0.32973 0.32473 0.0
H433 H 0.84481 0.25237 0.34531 0.0
H434 H 0.81484 0.21073 0.25601 0.0
H435 H 0.76343 0.19598 0.16984 0.0
H436 H 0.67437 0.27419 0.14292 0.0
H437 H 0.70297 0.31525 0.23639 0.0
C438 C 0.7674 0.30377 0.30965 0.0
C439 C 0.80183 0.29446 0.34179 0.0
C440 C 0.75022 0.27983 0.25689 0.0
C441 C 0.81846 0.26063 0.32123 0.0
C442 C 0.80128 0.23655 0.27019 0.0
C443 C 0.75022 0.2219 0.1848 0.0
C444 C 0.7169 0.23198 0.14948 0.0
C445 C 0.76723 0.24584 0.23744 0.0
C446 C 0.70025 0.26588 0.16896 0.0
C447 C 0.71654 0.2894 0.22253 0.0
H448 H 0.82585 0.77413 0.13061 0.0
H449 H 0.78222 0.6671 0.20292 0.0
H450 H 0.74603 0.69742 0.30125 0.0
H451 H 0.72723 0.75395 0.36671 0.0
H452 H 0.77108 0.86099 0.29504 0.0
H453 H 0.8068 0.83074 0.19578 0.0
C454 C 0.80841 0.7573 0.1677 0.0
C455 C 0.80677 0.71829 0.15915 0.0
C456 C 0.78776 0.77488 0.2241 0.0
C457 C 0.78402 0.6971 0.20802 0.0
C458 C 0.76332 0.71444 0.26428 0.0
C459 C 0.74455 0.77081 0.32947 0.0
C460 C 0.74651 0.80978 0.33861 0.0
C461 C 0.76504 0.75327 0.27282 0.0
C462 C 0.7691 0.83101 0.28954 0.0
C463 C 0.78952 0.81372 0.23276 0.0
H464 H 0.32739 0.75936 0.13612 0.0
H465 H 0.28709 0.86669 0.20501 0.0
H466 H 0.25053 0.83713 0.30535 0.0
H467 H 0.22976 0.78071 0.37315 0.0
H468 H 0.27048 0.67365 0.30314 0.0
H469 H 0.30704 0.70338 0.20368 0.0
C470 C 0.31063 0.7764 0.17296 0.0
C471 C 0.30997 0.81523 0.16268 0.0
C472 C 0.2897 0.75927 0.23048 0.0
C473 C 0.28811 0.83674 0.21134 0.0
C474 C 0.26717 0.81986 0.26882 0.0
C475 C 0.24666 0.76385 0.33624 0.0
C476 C 0.24734 0.72495 0.34599 0.0
C477 C 0.26772 0.78112 0.27885 0.0
C478 C 0.26941 0.70362 0.29736 0.0
C479 C 0.29036 0.72059 0.24027 0.0
H480 H 0.30022 0.27767 0.37561 0.0
H481 H 0.26765 0.1696 0.28993 0.0
H482 H 0.23019 0.1991 0.19283 0.0
H483 H 0.20755 0.2556 0.13119 0.0
H484 H 0.24048 0.36343 0.2179 0.0
H485 H 0.27674 0.33379 0.31602 0.0
C486 C 0.28499 0.26048 0.33572 0.0
C487 C 0.28684 0.22148 0.34002 0.0
C488 C 0.26347 0.27755 0.28031 0.0
C489 C 0.26671 0.1997 0.288 0.0
C490 C 0.24528 0.21653 0.23244 0.0
C491 C 0.22249 0.27264 0.17175 0.0
C492 C 0.22138 0.31169 0.16682 0.0
C493 C 0.24352 0.25544 0.22799 0.0
C494 C 0.24093 0.33331 0.22 0.0
C495 C 0.26174 0.31641 0.27619 0.0
H496 H 0.20683 0.77042 0.68405 0.0
H497 H 0.28719 0.68345 0.65257 0.0
H498 H 0.32955 0.71389 0.7405 0.0
H499 H 0.34469 0.76559 0.82536 0.0
H500 H 0.26464 0.85265 0.8581 0.0
H501 H 0.22177 0.82201 0.7708 0.0
C502 C 0.23346 0.75798 0.6969 0.0
C503 C 0.24367 0.72467 0.66133 0.0
C504 C 0.25809 0.77583 0.74747 0.0
C505 C 0.27849 0.70912 0.67861 0.0
C506 C 0.3029 0.72655 0.72895 0.0
C507 C 0.31797 0.778 0.81317 0.0
C508 C 0.3081 0.81147 0.84836 0.0
C509 C 0.29318 0.76007 0.76327 0.0
C510 C 0.27311 0.8269 0.83205 0.0
C511 C 0.24845 0.80935 0.78211 0.0
H512 H 0.33205 0.26535 0.68906 0.0
H513 H 0.2406 0.19064 0.63258 0.0
H514 H 0.20071 0.22123 0.72341 0.0
H515 H 0.19112 0.26937 0.81731 0.0
H516 H 0.28193 0.34423 0.87605 0.0
H517 H 0.32257 0.31338 0.78569 0.0
C518 C 0.30344 0.25567 0.69678 0.0
C519 C 0.28943 0.22578 0.65361 0.0
C520 C 0.28041 0.27347 0.74929 0.0
C521 C 0.25224 0.21362 0.66464 0.0
C522 C 0.22929 0.23112 0.71661 0.0
C523 C 0.21978 0.27907 0.81047 0.0
C524 C 0.23337 0.30915 0.85344 0.0
C525 C 0.243 0.26116 0.75888 0.0
C526 C 0.27069 0.32112 0.84381 0.0
C527 C 0.29398 0.30349 0.79213 0.0
H528 H 0.82299 0.25389 0.65983 0.0
H529 H 0.74599 0.34483 0.64386 0.0
H530 H 0.70367 0.31368 0.7313 0.0
H531 H 0.68868 0.26165 0.81536 0.0
H532 H 0.76635 0.17189 0.83831 0.0
H533 H 0.80777 0.20126 0.74526 0.0
C534 C 0.79691 0.26679 0.67538 0.0
C535 C 0.78792 0.30176 0.6452 0.0
C536 C 0.77261 0.24889 0.72705 0.0
C537 C 0.75398 0.31811 0.66642 0.0
C538 C 0.72954 0.30025 0.71638 0.0
C539 C 0.71447 0.24828 0.79948 0.0
C540 C 0.72427 0.21454 0.83362 0.0
C541 C 0.73859 0.26575 0.74736 0.0
C542 C 0.75812 0.19792 0.813 0.0
C543 C 0.78187 0.21472 0.7598 0.0
H544 H 0.70889 0.75756 0.67802 0.0
H545 H 0.79221 0.84419 0.64287 0.0
H546 H 0.83357 0.81443 0.73181 0.0
H547 H 0.84656 0.76405 0.81986 0.0
H548 H 0.76364 0.6773 0.85663 0.0
H549 H 0.72209 0.70671 0.76673 0.0
C550 C 0.73601 0.76999 0.69005 0.0
C551 C 0.7473 0.80306 0.65344 0.0
C552 C 0.76 0.75262 0.74138 0.0
C553 C 0.78269 0.81867 0.66974 0.0
C554 C 0.8065 0.80167 0.7207 0.0
C555 C 0.81951 0.7514 0.80799 0.0
C556 C 0.80837 0.71849 0.84515 0.0
C557 C 0.79555 0.76859 0.75666 0.0
C558 C 0.77304 0.70268 0.82907 0.0
C559 C 0.74915 0.71951 0.77768 0.0
loop_
_geom_bond_atom_site_label_1
_geom_bond_atom_site_label_2
_geom_bond_distance
_geom_bond_site_symmetry_2
_ccdc_geom_bond_type
Fe0 O2 1.918 . S
Fe0 O5 1.997 1_554 S
Fe0 O6 2.002 1_554 S
Fe0 O11 1.976 . S
Fe0 O14 1.996 . S
Fe1 O2 1.918 . S
Fe1 O9 1.997 1_554 S
Fe1 O12 1.996 . S
Fe1 O16 1.976 . S
Fe1 O19 2.002 1_554 S
O2 Fe0 1.918 . S
O2 Fe1 1.918 . S
O2 Fe3 1.918 . S
Fe3 O2 1.918 . S
Fe3 O4 2.002 1_554 S
Fe3 O13 1.976 . S
Fe3 O17 1.996 . S
Fe3 O20 1.997 1_554 S
O4 Fe3 2.002 1_556 S
O4 C21 1.295 . S
O5 Fe0 1.997 1_556 S
O5 C21 1.235 . S
O6 Fe0 2.002 1_556 S
O6 C7 1.295 . S
C7 O6 1.295 . S
C7 O9 1.235 . S
C8 O13 1.287 . S
C8 O14 1.255 . S
O9 Fe1 1.997 1_556 S
O9 C7 1.235 . S
C10 O16 1.287 . S
C10 O17 1.255 . S
O11 Fe0 1.976 . S
O11 C18 1.287 . S
O12 Fe1 1.996 . S
O12 C18 1.255 . S
O13 Fe3 1.976 . S
O13 C8 1.287 . S
O14 Fe0 1.996 . S
O14 C8 1.255 . S
C15 O19 1.295 . S
C15 O20 1.235 . S
O16 Fe1 1.976 . S
O16 C10 1.287 . S
O17 Fe3 1.996 . S
O17 C10 1.255 . S
C18 O11 1.287 . S
C18 O12 1.255 . S
O19 Fe1 2.002 1_556 S
O19 C15 1.295 . S
O20 Fe3 1.997 1_556 S
O20 C15 1.235 . S
C21 O4 1.295 . S
C21 O5 1.235 . S
Fe22 O24 1.918 . S
Fe22 O27 1.997 1_556 S
Fe22 O28 2.002 1_556 S
Fe22 O33 1.976 . S
Fe22 O36 1.996 . S
Fe23 O24 1.918 . S
Fe23 O31 1.997 1_556 S
Fe23 O34 1.996 . S
Fe23 O38 1.976 . S
Fe23 O41 2.002 1_556 S
O24 Fe22 1.918 . S
O24 Fe23 1.918 . S
O24 Fe25 1.918 . S
Fe25 O24 1.918 . S
Fe25 O26 2.002 1_556 S
Fe25 O35 1.976 . S
Fe25 O39 1.996 . S
Fe25 O42 1.997 1_556 S
O26 Fe25 2.002 1_554 S
O26 C43 1.295 . S
O27 Fe22 1.997 1_554 S
O27 C43 1.235 . S
O28 Fe22 2.002 1_554 S
O28 C29 1.295 . S
C29 O28 1.295 . S
C29 O31 1.235 . S
C30 O35 1.287 . S
C30 O36 1.255 . S
O31 Fe23 1.997 1_554 S
O31 C29 1.235 . S
C32 O38 1.287 . S
C32 O39 1.255 . S
O33 Fe22 1.976 . S
O33 C40 1.287 . S
O34 Fe23 1.996 . S
O34 C40 1.255 . S
O35 Fe25 1.976 . S
O35 C30 1.287 . S
O36 Fe22 1.996 . S
O36 C30 1.255 . S
C37 O41 1.295 . S
C37 O42 1.235 . S
O38 Fe23 1.976 . S
O38 C32 1.287 . S
O39 Fe25 1.996 . S
O39 C32 1.255 . S
C40 O33 1.287 . S
C40 O34 1.255 . S
O41 Fe23 2.002 1_554 S
O41 C37 1.295 . S
O42 Fe25 1.997 1_554 S
O42 C37 1.235 . S
C43 O26 1.295 . S
C43 O27 1.235 . S
Fe44 O46 1.918 . S
Fe44 O49 1.997 1_556 S
Fe44 O50 2.002 1_556 S
Fe44 O55 1.976 . S
Fe44 O58 1.996 . S
Fe45 O46 1.918 . S
Fe45 O53 1.997 1_556 S
Fe45 O56 1.996 . S
Fe45 O60 1.976 . S
Fe45 O63 2.002 1_556 S
O46 Fe44 1.918 . S
O46 Fe45 1.918 . S
O46 Fe47 1.918 . S
Fe47 O46 1.918 . S
Fe47 O48 2.002 1_556 S
Fe47 O57 1.976 . S
Fe47 O61 1.996 . S
Fe47 O64 1.997 1_556 S
O48 Fe47 2.002 1_554 S
O48 C65 1.295 . S
O49 Fe44 1.997 1_554 S
O49 C65 1.235 . S
O50 Fe44 2.002 1_554 S
O50 C51 1.295 . S
C51 O50 1.295 . S
C51 O53 1.235 . S
C52 O57 1.287 . S
C52 O58 1.255 . S
O53 Fe45 1.997 1_554 S
O53 C51 1.235 . S
C54 O60 1.287 . S
C54 O61 1.255 . S
O55 Fe44 1.976 . S
O55 C62 1.287 . S
O56 Fe45 1.996 . S
O56 C62 1.255 . S
O57 Fe47 1.976 . S
O57 C52 1.287 . S
O58 Fe44 1.996 . S
O58 C52 1.255 . S
C59 O63 1.295 . S
C59 O64 1.235 . S
O60 Fe45 1.976 . S
O60 C54 1.287 . S
O61 Fe47 1.996 . S
O61 C54 1.255 . S
C62 O55 1.287 . S
C62 O56 1.255 . S
O63 Fe45 2.002 1_554 S
O63 C59 1.295 . S
O64 Fe47 1.997 1_554 S
O64 C59 1.235 . S
C65 O48 1.295 . S
C65 O49 1.235 . S
Fe66 O68 1.918 . S
Fe66 O71 1.997 1_556 S
Fe66 O72 2.002 1_556 S
Fe66 O77 1.976 . S
Fe66 O80 1.996 . S
Fe67 O68 1.918 . S
Fe67 O75 1.997 1_556 S
Fe67 O78 1.996 . S
Fe67 O82 1.976 . S
Fe67 O85 2.002 1_556 S
O68 Fe66 1.918 . S
O68 Fe67 1.918 . S
O68 Fe69 1.918 . S
Fe69 O68 1.918 . S
Fe69 O70 2.002 1_556 S
Fe69 O79 1.976 . S
Fe69 O83 1.996 . S
Fe69 O86 1.997 1_556 S
O70 Fe69 2.002 1_554 S
O70 C87 1.295 . S
O71 Fe66 1.997 1_554 S
O71 C87 1.235 . S
O72 Fe66 2.002 1_554 S
O72 C73 1.295 . S
C73 O72 1.295 . S
C73 O75 1.235 . S
C74 O79 1.287 . S
C74 O80 1.255 . S
O75 Fe67 1.997 1_554 S
O75 C73 1.235 . S
C76 O82 1.287 . S
C76 O83 1.255 . S
O77 Fe66 1.976 . S
O77 C84 1.287 . S
O78 Fe67 1.996 . S
O78 C84 1.255 . S
O79 Fe69 1.976 . S
O79 C74 1.287 . S
O80 Fe66 1.996 . S
O80 C74 1.255 . S
C81 O85 1.295 . S
C81 O86 1.235 . S
O82 Fe67 1.976 . S
O82 C76 1.287 . S
O83 Fe69 1.996 . S
O83 C76 1.255 . S
C84 O77 1.287 . S
C84 O78 1.255 . S
O85 Fe67 2.002 1_554 S
O85 C81 1.295 . S
O86 Fe69 1.997 1_554 S
O86 C81 1.235 . S
C87 O70 1.295 . S
C87 O71 1.235 . S
Fe88 O90 1.918 . S
Fe88 O93 1.997 . S
Fe88 O94 2.002 . S
Fe88 O99 1.976 . S
Fe88 O102 1.996 . S
Fe89 O90 1.918 . S
Fe89 O97 1.997 . S
Fe89 O100 1.996 . S
Fe89 O104 1.976 . S
Fe89 O107 2.002 . S
O90 Fe88 1.918 . S
O90 Fe89 1.918 . S
O90 Fe91 1.918 . S
Fe91 O90 1.918 . S
Fe91 O92 2.002 . S
Fe91 O101 1.976 . S
Fe91 O105 1.996 . S
Fe91 O108 1.997 . S
O92 Fe91 2.002 . S
O92 C109 1.295 . S
O93 Fe88 1.997 . S
O93 C109 1.235 . S
O94 Fe88 2.002 . S
O94 C95 1.295 . S
C95 O94 1.295 . S
C95 O97 1.235 . S
C96 O101 1.287 . S
C96 O102 1.255 . S
O97 Fe89 1.997 . S
O97 C95 1.235 . S
C98 O104 1.287 . S
C98 O105 1.255 . S
O99 Fe88 1.976 . S
O99 C106 1.287 . S
O100 Fe89 1.996 . S
O100 C106 1.255 . S
O101 Fe91 1.976 . S
O101 C96 1.287 . S
O102 Fe88 1.996 . S
O102 C96 1.255 . S
C103 O107 1.295 . S
C103 O108 1.235 . S
O104 Fe89 1.976 . S
O104 C98 1.287 . S
O105 Fe91 1.996 . S
O105 C98 1.255 . S
C106 O99 1.287 . S
C106 O100 1.255 . S
O107 Fe89 2.002 . S
O107 C103 1.295 . S
O108 Fe91 1.997 . S
O108 C103 1.235 . S
C109 O92 1.295 . S
C109 O93 1.235 . S
Fe110 O112 1.918 . S
Fe110 O115 1.997 . S
Fe110 O116 2.002 . S
Fe110 O121 1.976 . S
Fe110 O124 1.996 . S
Fe111 O112 1.918 . S
Fe111 O119 1.997 . S
Fe111 O122 1.996 . S
Fe111 O126 1.976 . S
Fe111 O129 2.002 . S
O112 Fe110 1.918 . S
O112 Fe111 1.918 . S
O112 Fe113 1.918 . S
Fe113 O112 1.918 . S
Fe113 O114 2.002 . S
Fe113 O123 1.976 . S
Fe113 O127 1.996 . S
Fe113 O130 1.997 . S
O114 Fe113 2.002 . S
O114 C131 1.295 . S
O115 Fe110 1.997 . S
O115 C131 1.235 . S
O116 Fe110 2.002 . S
O116 C117 1.295 . S
C117 O116 1.295 . S
C117 O119 1.235 . S
C118 O123 1.287 . S
C118 O124 1.255 . S
O119 Fe111 1.997 . S
O119 C117 1.235 . S
C120 O126 1.287 . S
C120 O127 1.255 . S
O121 Fe110 1.976 . S
O121 C128 1.287 . S
O122 Fe111 1.996 . S
O122 C128 1.255 . S
O123 Fe113 1.976 . S
O123 C118 1.287 . S
O124 Fe110 1.996 . S
O124 C118 1.255 . S
C125 O129 1.295 . S
C125 O130 1.235 . S
O126 Fe111 1.976 . S
O126 C120 1.287 . S
O127 Fe113 1.996 . S
O127 C120 1.255 . S
C128 O121 1.287 . S
C128 O122 1.255 . S
O129 Fe111 2.002 . S
O129 C125 1.295 . S
O130 Fe113 1.997 . S
O130 C125 1.235 . S
C131 O114 1.295 . S
C131 O115 1.235 . S
Fe132 O134 1.918 . S
Fe132 O137 1.997 . S
Fe132 O138 2.002 . S
Fe132 O143 1.976 . S
Fe132 O146 1.996 . S
Fe133 O134 1.918 . S
Fe133 O141 1.997 . S
Fe133 O144 1.996 . S
Fe133 O148 1.976 . S
Fe133 O151 2.002 . S
O134 Fe132 1.918 . S
O134 Fe133 1.918 . S
O134 Fe135 1.918 . S
Fe135 O134 1.918 . S
Fe135 O136 2.002 . S
Fe135 O145 1.976 . S
Fe135 O149 1.996 . S
Fe135 O152 1.997 . S
O136 Fe135 2.002 . S
O136 C153 1.295 . S
O137 Fe132 1.997 . S
O137 C153 1.235 . S
O138 Fe132 2.002 . S
O138 C139 1.295 . S
C139 O138 1.295 . S
C139 O141 1.235 . S
C140 O145 1.287 . S
C140 O146 1.255 . S
O141 Fe133 1.997 . S
O141 C139 1.235 . S
C142 O148 1.287 . S
C142 O149 1.255 . S
O143 Fe132 1.976 . S
O143 C150 1.287 . S
O144 Fe133 1.996 . S
O144 C150 1.255 . S
O145 Fe135 1.976 . S
O145 C140 1.287 . S
O146 Fe132 1.996 . S
O146 C140 1.255 . S
C147 O151 1.295 . S
C147 O152 1.235 . S
O148 Fe133 1.976 . S
O148 C142 1.287 . S
O149 Fe135 1.996 . S
O149 C142 1.255 . S
C150 O143 1.287 . S
C150 O144 1.255 . S
O151 Fe133 2.002 . S
O151 C147 1.295 . S
O152 Fe135 1.997 . S
O152 C147 1.235 . S
C153 O136 1.295 . S
C153 O137 1.235 . S
Fe154 O156 1.918 . S
Fe154 O159 1.997 . S
Fe154 O160 2.002 . S
Fe154 O165 1.976 . S
Fe154 O168 1.996 . S
Fe155 O156 1.918 . S
Fe155 O163 1.997 . S
Fe155 O166 1.996 . S
Fe155 O170 1.976 . S
Fe155 O173 2.002 . S
O156 Fe154 1.918 . S
O156 Fe155 1.918 . S
O156 Fe157 1.918 . S
Fe157 O156 1.918 . S
Fe157 O158 2.002 . S
Fe157 O167 1.976 . S
Fe157 O171 1.996 . S
Fe157 O174 1.997 . S
O158 Fe157 2.002 . S
O158 C175 1.295 . S
O159 Fe154 1.997 . S
O159 C175 1.235 . S
O160 Fe154 2.002 . S
O160 C161 1.295 . S
C161 O160 1.295 . S
C161 O163 1.235 . S
C162 O167 1.287 . S
C162 O168 1.255 . S
O163 Fe155 1.997 . S
O163 C161 1.235 . S
C164 O170 1.287 . S
C164 O171 1.255 . S
O165 Fe154 1.976 . S
O165 C172 1.287 . S
O166 Fe155 1.996 . S
O166 C172 1.255 . S
O167 Fe157 1.976 . S
O167 C162 1.287 . S
O168 Fe154 1.996 . S
O168 C162 1.255 . S
C169 O173 1.295 . S
C169 O174 1.235 . S
O170 Fe155 1.976 . S
O170 C164 1.287 . S
O171 Fe157 1.996 . S
O171 C164 1.255 . S
C172 O165 1.287 . S
C172 O166 1.255 . S
O173 Fe155 2.002 . S
O173 C169 1.295 . S
O174 Fe157 1.997 . S
O174 C169 1.235 . S
C175 O158 1.295 . S
C175 O159 1.235 . S
H176 C182 0.930 . S
H177 C185 0.930 . S
H178 C186 0.930 . S
H179 C187 0.930 . S
H180 C190 0.930 . S
H181 C191 0.930 . S
C182 H176 0.930 . S
C182 C183 1.355 . S
C182 C184 1.415 . S
C183 C182 1.355 . S
C183 C185 1.419 . S
C184 C182 1.415 . S
C184 C189 1.425 . S
C184 C191 1.409 . S
C185 H177 0.930 . S
C185 C183 1.419 . S
C185 C186 1.362 . S
C186 H178 0.930 . S
C186 C185 1.362 . S
C186 C189 1.409 . S
C187 H179 0.930 . S
C187 C188 1.355 . S
C187 C189 1.415 . S
C188 C187 1.355 . S
C188 C190 1.419 . S
C189 C184 1.425 . S
C189 C186 1.409 . S
C189 C187 1.415 . S
C190 H180 0.930 . S
C190 C188 1.419 . S
C190 C191 1.362 . S
C191 H181 0.930 . S
C191 C184 1.409 . S
C191 C190 1.362 . S
H192 C198 0.930 . S
H193 C201 0.930 . S
H194 C202 0.930 . S
H195 C203 0.930 . S
H196 C206 0.930 . S
H197 C207 0.930 . S
C198 H192 0.930 . S
C198 C199 1.355 . S
C198 C200 1.415 . S
C199 C198 1.355 . S
C199 C201 1.419 . S
C200 C198 1.415 . S
C200 C205 1.425 . S
C200 C207 1.409 . S
C201 H193 0.930 . S
C201 C199 1.419 . S
C201 C202 1.362 . S
C202 H194 0.930 . S
C202 C201 1.362 . S
C202 C205 1.409 . S
C203 H195 0.930 . S
C203 C204 1.355 . S
C203 C205 1.415 . S
C204 C203 1.355 . S
C204 C206 1.419 . S
C205 C200 1.425 . S
C205 C202 1.409 . S
C205 C203 1.415 . S
C206 H196 0.930 . S
C206 C204 1.419 . S
C206 C207 1.362 . S
C207 H197 0.930 . S
C207 C200 1.409 . S
C207 C206 1.362 . S
H208 C214 0.930 . S
H209 C217 0.930 . S
H210 C218 0.930 . S
H211 C219 0.930 . S
H212 C222 0.930 . S
H213 C223 0.930 . S
C214 H208 0.930 . S
C214 C215 1.355 . S
C214 C216 1.415 . S
C215 C214 1.355 . S
C215 C217 1.419 . S
C216 C214 1.415 . S
C216 C221 1.425 . S
C216 C223 1.409 . S
C217 H209 0.930 . S
C217 C215 1.419 . S
C217 C218 1.362 . S
C218 H210 0.930 . S
C218 C217 1.362 . S
C218 C221 1.409 . S
C219 H211 0.930 . S
C219 C220 1.355 . S
C219 C221 1.415 . S
C220 C219 1.355 . S
C220 C222 1.419 . S
C221 C216 1.425 . S
C221 C218 1.409 . S
C221 C219 1.415 . S
C222 H212 0.930 . S
C222 C220 1.419 . S
C222 C223 1.362 . S
C223 H213 0.930 . S
C223 C216 1.409 . S
C223 C222 1.362 . S
H224 C230 0.930 . S
H225 C233 0.930 . S
H226 C234 0.930 . S
H227 C235 0.930 . S
H228 C238 0.930 . S
H229 C239 0.930 . S
C230 H224 0.930 . S
C230 C231 1.355 . S
C230 C232 1.415 . S
C231 C230 1.355 . S
C231 C233 1.419 . S
C232 C230 1.415 . S
C232 C237 1.425 . S
C232 C239 1.409 . S
C233 H225 0.930 . S
C233 C231 1.419 . S
C233 C234 1.362 . S
C234 H226 0.930 . S
C234 C233 1.362 . S
C234 C237 1.409 . S
C235 H227 0.930 . S
C235 C236 1.355 . S
C235 C237 1.415 . S
C236 C235 1.355 . S
C236 C238 1.419 . S
C237 C232 1.425 . S
C237 C234 1.409 . S
C237 C235 1.415 . S
C238 H228 0.930 . S
C238 C236 1.419 . S
C238 C239 1.362 . S
C239 H229 0.930 . S
C239 C232 1.409 . S
C239 C238 1.362 . S
H240 C246 0.930 . S
H241 C249 0.930 . S
H242 C250 0.930 . S
H243 C251 0.930 . S
H244 C254 0.930 . S
H245 C255 0.930 . S
C246 H240 0.930 . S
C246 C247 1.355 . S
C246 C248 1.415 . S
C247 C246 1.355 . S
C247 C249 1.419 . S
C248 C246 1.415 . S
C248 C253 1.425 . S
C248 C255 1.409 . S
C249 H241 0.930 . S
C249 C247 1.419 . S
C249 C250 1.362 . S
C250 H242 0.930 . S
C250 C249 1.362 . S
C250 C253 1.409 . S
C251 H243 0.930 . S
C251 C252 1.355 . S
C251 C253 1.415 . S
C252 C251 1.355 . S
C252 C254 1.419 . S
C253 C248 1.425 . S
C253 C250 1.409 . S
C253 C251 1.415 . S
C254 H244 0.930 . S
C254 C252 1.419 . S
C254 C255 1.362 . S
C255 H245 0.930 . S
C255 C248 1.409 . S
C255 C254 1.362 . S
H256 C262 0.930 . S
H257 C265 0.930 . S
H258 C266 0.930 . S
H259 C267 0.930 . S
H260 C270 0.930 . S
H261 C271 0.930 . S
C262 H256 0.930 . S
C262 C263 1.355 . S
C262 C264 1.415 . S
C263 C262 1.355 . S
C263 C265 1.419 . S
C264 C262 1.415 . S
C264 C269 1.425 . S
C264 C271 1.409 . S
C265 H257 0.930 . S
C265 C263 1.419 . S
C265 C266 1.362 . S
C266 H258 0.930 . S
C266 C265 1.362 . S
C266 C269 1.409 . S
C267 H259 0.930 . S
C267 C268 1.355 . S
C267 C269 1.415 . S
C268 C267 1.355 . S
C268 C270 1.419 . S
C269 C264 1.425 . S
C269 C266 1.409 . S
C269 C267 1.415 . S
C270 H260 0.930 . S
C270 C268 1.419 . S
C270 C271 1.362 . S
C271 H261 0.930 . S
C271 C264 1.409 . S
C271 C270 1.362 . S
H272 C278 0.930 . S
H273 C281 0.930 . S
H274 C282 0.930 . S
H275 C283 0.930 . S
H276 C286 0.930 . S
H277 C287 0.930 . S
C278 H272 0.930 . S
C278 C279 1.355 . S
C278 C280 1.415 . S
C279 C278 1.355 . S
C279 C281 1.419 . S
C280 C278 1.415 . S
C280 C285 1.425 . S
C280 C287 1.409 . S
C281 H273 0.930 . S
C281 C279 1.419 . S
C281 C282 1.362 . S
C282 H274 0.930 . S
C282 C281 1.362 . S
C282 C285 1.409 . S
C283 H275 0.930 . S
C283 C284 1.355 . S
C283 C285 1.415 . S
C284 C283 1.355 . S
C284 C286 1.419 . S
C285 C280 1.425 . S
C285 C282 1.409 . S
C285 C283 1.415 . S
C286 H276 0.930 . S
C286 C284 1.419 . S
C286 C287 1.362 . S
C287 H277 0.930 . S
C287 C280 1.409 . S
C287 C286 1.362 . S
H288 C294 0.930 . S
H289 C297 0.930 . S
H290 C298 0.930 . S
H291 C299 0.930 . S
H292 C302 0.930 . S
H293 C303 0.930 . S
C294 H288 0.930 . S
C294 C295 1.355 . S
C294 C296 1.415 . S
C295 C294 1.355 . S
C295 C297 1.419 . S
C296 C294 1.415 . S
C296 C301 1.425 . S
C296 C303 1.409 . S
C297 H289 0.930 . S
C297 C295 1.419 . S
C297 C298 1.362 . S
C298 H290 0.930 . S
C298 C297 1.362 . S
C298 C301 1.409 . S
C299 H291 0.930 . S
C299 C300 1.355 . S
C299 C301 1.415 . S
C300 C299 1.355 . S
C300 C302 1.419 . S
C301 C296 1.425 . S
C301 C298 1.409 . S
C301 C299 1.415 . S
C302 H292 0.930 . S
C302 C300 1.419 . S
C302 C303 1.362 . S
C303 H293 0.930 . S
C303 C296 1.409 . S
C303 C302 1.362 . S
H304 C310 0.930 . S
H305 C313 0.930 . S
H306 C314 0.930 . S
H307 C315 0.930 . S
H308 C318 0.930 . S
H309 C319 0.930 . S
C310 H304 0.930 . S
C310 C311 1.355 . S
C310 C312 1.415 . S
C311 C310 1.355 . S
C311 C313 1.419 . S
C312 C310 1.415 . S
C312 C317 1.425 1_655 S
C312 C319 1.409 . S
C313 H305 0.930 . S
C313 C311 1.419 . S
C313 C314 1.362 1_655 S
C314 H306 0.930 . S
C314 C313 1.362 1_455 S
C314 C317 1.409 . S
C315 H307 0.930 . S
C315 C316 1.355 . S
C315 C317 1.415 . S
C316 C315 1.355 . S
C316 C318 1.419 . S
C317 C312 1.425 1_455 S
C317 C314 1.409 . S
C317 C315 1.415 . S
C318 H308 0.930 . S
C318 C316 1.419 . S
C318 C319 1.362 1_455 S
C319 H309 0.930 . S
C319 C312 1.409 . S
C319 C318 1.362 1_655 S
H320 C326 0.930 . S
H321 C329 0.930 . S
H322 C330 0.930 . S
H323 C331 0.930 . S
H324 C334 0.930 . S
H325 C335 0.930 . S
C326 H320 0.930 . S
C326 C327 1.355 . S
C326 C328 1.415 . S
C327 C326 1.355 . S
C327 C329 1.419 . S
C328 C326 1.415 . S
C328 C333 1.425 1_545 S
C328 C335 1.409 . S
C329 H321 0.930 . S
C329 C327 1.419 . S
C329 C330 1.362 1_545 S
C330 H322 0.930 . S
C330 C329 1.362 1_565 S
C330 C333 1.409 . S
C331 H323 0.930 . S
C331 C332 1.355 . S
C331 C333 1.415 . S
C332 C331 1.355 . S
C332 C334 1.419 . S
C333 C328 1.425 1_565 S
C333 C330 1.409 . S
C333 C331 1.415 . S
C334 H324 0.930 . S
C334 C332 1.419 . S
C334 C335 1.362 1_565 S
C335 H325 0.930 . S
C335 C328 1.409 . S
C335 C334 1.362 1_545 S
H336 C342 0.930 . S
H337 C345 0.930 . S
H338 C346 0.930 . S
H339 C347 0.930 . S
H340 C350 0.930 . S
H341 C351 0.930 . S
C342 H336 0.930 . S
C342 C343 1.355 . S
C342 C344 1.415 1_655 S
C343 C342 1.355 . S
C343 C345 1.419 . S
C344 C342 1.415 1_455 S
C344 C349 1.425 1_455 S
C344 C351 1.409 . S
C345 H337 0.930 . S
C345 C343 1.419 . S
C345 C346 1.362 . S
C346 H338 0.930 . S
C346 C345 1.362 . S
C346 C349 1.409 . S
C347 H339 0.930 . S
C347 C348 1.355 . S
C347 C349 1.415 1_455 S
C348 C347 1.355 . S
C348 C350 1.419 . S
C349 C344 1.425 1_655 S
C349 C346 1.409 . S
C349 C347 1.415 1_655 S
C350 H340 0.930 . S
C350 C348 1.419 . S
C350 C351 1.362 . S
C351 H341 0.930 . S
C351 C344 1.409 . S
C351 C350 1.362 . S
H352 C358 0.930 . S
H353 C361 0.930 . S
H354 C362 0.930 . S
H355 C363 0.930 . S
H356 C366 0.930 . S
H357 C367 0.930 . S
C358 H352 0.930 . S
C358 C359 1.355 . S
C358 C360 1.415 . S
C359 C358 1.355 . S
C359 C361 1.419 . S
C360 C358 1.415 . S
C360 C365 1.425 1_545 S
C360 C367 1.409 1_545 S
C361 H353 0.930 . S
C361 C359 1.419 . S
C361 C362 1.362 . S
C362 H354 0.930 . S
C362 C361 1.362 . S
C362 C365 1.409 1_545 S
C363 H355 0.930 . S
C363 C364 1.355 . S
C363 C365 1.415 . S
C364 C363 1.355 . S
C364 C366 1.419 . S
C365 C360 1.425 1_565 S
C365 C362 1.409 1_565 S
C365 C363 1.415 . S
C366 H356 0.930 . S
C366 C364 1.419 . S
C366 C367 1.362 . S
C367 H357 0.930 . S
C367 C360 1.409 1_565 S
C367 C366 1.362 . S
H368 C374 0.930 . S
H369 C377 0.930 . S
H370 C378 0.930 . S
H371 C379 0.930 . S
H372 C382 0.930 . S
H373 C383 0.930 . S
C374 H368 0.930 . S
C374 C375 1.355 . S
C374 C376 1.415 1_455 S
C375 C374 1.355 . S
C375 C377 1.419 . S
C376 C374 1.415 1_655 S
C376 C381 1.425 1_655 S
C376 C383 1.409 . S
C377 H369 0.930 . S
C377 C375 1.419 . S
C377 C378 1.362 . S
C378 H370 0.930 . S
C378 C377 1.362 . S
C378 C381 1.409 . S
C379 H371 0.930 . S
C379 C380 1.355 . S
C379 C381 1.415 1_655 S
C380 C379 1.355 . S
C380 C382 1.419 . S
C381 C376 1.425 1_455 S
C381 C378 1.409 . S
C381 C379 1.415 1_455 S
C382 H372 0.930 . S
C382 C380 1.419 . S
C382 C383 1.362 . S
C383 H373 0.930 . S
C383 C376 1.409 . S
C383 C382 1.362 . S
H384 C390 0.930 . S
H385 C393 0.930 . S
H386 C394 0.930 . S
H387 C395 0.930 . S
H388 C398 0.930 . S
H389 C399 0.930 . S
C390 H384 0.930 . S
C390 C391 1.355 . S
C390 C392 1.415 . S
C391 C390 1.355 . S
C391 C393 1.419 . S
C392 C390 1.415 . S
C392 C397 1.425 1_565 S
C392 C399 1.409 . S
C393 H385 0.930 . S
C393 C391 1.419 . S
C393 C394 1.362 1_565 S
C394 H386 0.930 . S
C394 C393 1.362 1_545 S
C394 C397 1.409 . S
C395 H387 0.930 . S
C395 C396 1.355 . S
C395 C397 1.415 . S
C396 C395 1.355 . S
C396 C398 1.419 . S
C397 C392 1.425 1_545 S
C397 C394 1.409 . S
C397 C395 1.415 . S
C398 H388 0.930 . S
C398 C396 1.419 . S
C398 C399 1.362 1_545 S
C399 H389 0.930 . S
C399 C392 1.409 . S
C399 C398 1.362 1_565 S
H400 C406 0.930 . S
H401 C409 0.930 . S
H402 C410 0.930 . S
H403 C411 0.930 . S
H404 C414 0.930 . S
H405 C415 0.930 . S
C406 H400 0.930 . S
C406 C407 1.355 . S
C406 C408 1.415 . S
C407 C406 1.355 . S
C407 C409 1.419 . S
C408 C406 1.415 . S
C408 C413 1.425 1_655 S
C408 C415 1.409 1_655 S
C409 H401 0.930 . S
C409 C407 1.419 . S
C409 C410 1.362 . S
C410 H402 0.930 . S
C410 C409 1.362 . S
C410 C413 1.409 1_655 S
C411 H403 0.930 . S
C411 C412 1.355 . S
C411 C413 1.415 . S
C412 C411 1.355 . S
C412 C414 1.419 . S
C413 C408 1.425 1_455 S
C413 C410 1.409 1_455 S
C413 C411 1.415 . S
C414 H404 0.930 . S
C414 C412 1.419 . S
C414 C415 1.362 . S
C415 H405 0.930 . S
C415 C408 1.409 1_455 S
C415 C414 1.362 . S
H416 C422 0.930 . S
H417 C425 0.930 . S
H418 C426 0.930 . S
H419 C427 0.930 . S
H420 C430 0.930 . S
H421 C431 0.930 . S
C422 H416 0.930 . S
C422 C423 1.355 . S
C422 C424 1.415 . S
C423 C422 1.355 . S
C423 C425 1.419 . S
C424 C422 1.415 . S
C424 C429 1.425 1_565 S
C424 C431 1.409 . S
C425 H417 0.930 . S
C425 C423 1.419 . S
C425 C426 1.362 1_565 S
C426 H418 0.930 . S
C426 C425 1.362 1_545 S
C426 C429 1.409 . S
C427 H419 0.930 . S
C427 C428 1.355 . S
C427 C429 1.415 . S
C428 C427 1.355 . S
C428 C430 1.419 . S
C429 C424 1.425 1_545 S
C429 C426 1.409 . S
C429 C427 1.415 . S
C430 H420 0.930 . S
C430 C428 1.419 . S
C430 C431 1.362 1_545 S
C431 H421 0.930 . S
C431 C424 1.409 . S
C431 C430 1.362 1_565 S
H432 C438 0.930 . S
H433 C441 0.930 . S
H434 C442 0.930 . S
H435 C443 0.930 . S
H436 C446 0.930 . S
H437 C447 0.930 . S
C438 H432 0.930 . S
C438 C439 1.355 . S
C438 C440 1.415 . S
C439 C438 1.355 . S
C439 C441 1.419 . S
C440 C438 1.415 . S
C440 C445 1.425 . S
C440 C447 1.409 . S
C441 H433 0.930 . S
C441 C439 1.419 . S
C441 C442 1.362 . S
C442 H434 0.930 . S
C442 C441 1.362 . S
C442 C445 1.409 . S
C443 H435 0.930 . S
C443 C444 1.355 . S
C443 C445 1.415 . S
C444 C443 1.355 . S
C444 C446 1.419 . S
C445 C440 1.425 . S
C445 C442 1.409 . S
C445 C443 1.415 . S
C446 H436 0.930 . S
C446 C444 1.419 . S
C446 C447 1.362 . S
C447 H437 0.930 . S
C447 C440 1.409 . S
C447 C446 1.362 . S
H448 C454 0.930 . S
H449 C457 0.930 . S
H450 C458 0.930 . S
H451 C459 0.930 . S
H452 C462 0.930 . S
H453 C463 0.930 . S
C454 H448 0.930 . S
C454 C455 1.355 . S
C454 C456 1.415 . S
C455 C454 1.355 . S
C455 C457 1.419 . S
C456 C454 1.415 . S
C456 C461 1.425 . S
C456 C463 1.409 . S
C457 H449 0.930 . S
C457 C455 1.419 . S
C457 C458 1.362 . S
C458 H450 0.930 . S
C458 C457 1.362 . S
C458 C461 1.409 . S
C459 H451 0.930 . S
C459 C460 1.355 . S
C459 C461 1.415 . S
C460 C459 1.355 . S
C460 C462 1.419 . S
C461 C456 1.425 . S
C461 C458 1.409 . S
C461 C459 1.415 . S
C462 H452 0.930 . S
C462 C460 1.419 . S
C462 C463 1.362 . S
C463 H453 0.930 . S
C463 C456 1.409 . S
C463 C462 1.362 . S
H464 C470 0.930 . S
H465 C473 0.930 . S
H466 C474 0.930 . S
H467 C475 0.930 . S
H468 C478 0.930 . S
H469 C479 0.930 . S
C470 H464 0.930 . S
C470 C471 1.355 . S
C470 C472 1.415 . S
C471 C470 1.355 . S
C471 C473 1.419 . S
C472 C470 1.415 . S
C472 C477 1.425 . S
C472 C479 1.409 . S
C473 H465 0.930 . S
C473 C471 1.419 . S
C473 C474 1.362 . S
C474 H466 0.930 . S
C474 C473 1.362 . S
C474 C477 1.409 . S
C475 H467 0.930 . S
C475 C476 1.355 . S
C475 C477 1.415 . S
C476 C475 1.355 . S
C476 C478 1.419 . S
C477 C472 1.425 . S
C477 C474 1.409 . S
C477 C475 1.415 . S
C478 H468 0.930 . S
C478 C476 1.419 . S
C478 C479 1.362 . S
C479 H469 0.930 . S
C479 C472 1.409 . S
C479 C478 1.362 . S
H480 C486 0.930 . S
H481 C489 0.930 . S
H482 C490 0.930 . S
H483 C491 0.930 . S
H484 C494 0.930 . S
H485 C495 0.930 . S
C486 H480 0.930 . S
C486 C487 1.355 . S
C486 C488 1.415 . S
C487 C486 1.355 . S
C487 C489 1.419 . S
C488 C486 1.415 . S
C488 C493 1.425 . S
C488 C495 1.409 . S
C489 H481 0.930 . S
C489 C487 1.419 . S
C489 C490 1.362 . S
C490 H482 0.930 . S
C490 C489 1.362 . S
C490 C493 1.409 . S
C491 H483 0.930 . S
C491 C492 1.355 . S
C491 C493 1.415 . S
C492 C491 1.355 . S
C492 C494 1.419 . S
C493 C488 1.425 . S
C493 C490 1.409 . S
C493 C491 1.415 . S
C494 H484 0.930 . S
C494 C492 1.419 . S
C494 C495 1.362 . S
C495 H485 0.930 . S
C495 C488 1.409 . S
C495 C494 1.362 . S
H496 C502 0.930 . S
H497 C505 0.930 . S
H498 C506 0.930 . S
H499 C507 0.930 . S
H500 C510 0.930 . S
H501 C511 0.930 . S
C502 H496 0.930 . S
C502 C503 1.355 . S
C502 C504 1.415 . S
C503 C502 1.355 . S
C503 C505 1.419 . S
C504 C502 1.415 . S
C504 C509 1.425 . S
C504 C511 1.409 . S
C505 H497 0.930 . S
C505 C503 1.419 . S
C505 C506 1.362 . S
C506 H498 0.930 . S
C506 C505 1.362 . S
C506 C509 1.409 . S
C507 H499 0.930 . S
C507 C508 1.355 . S
C507 C509 1.415 . S
C508 C507 1.355 . S
C508 C510 1.419 . S
C509 C504 1.425 . S
C509 C506 1.409 . S
C509 C507 1.415 . S
C510 H500 0.930 . S
C510 C508 1.419 . S
C510 C511 1.362 . S
C511 H501 0.930 . S
C511 C504 1.409 . S
C511 C510 1.362 . S
H512 C518 0.930 . S
H513 C521 0.930 . S
H514 C522 0.930 . S
H515 C523 0.930 . S
H516 C526 0.930 . S
H517 C527 0.930 . S
C518 H512 0.930 . S
C518 C519 1.355 . S
C518 C520 1.415 . S
C519 C518 1.355 . S
C519 C521 1.419 . S
C520 C518 1.415 . S
C520 C525 1.425 . S
C520 C527 1.409 . S
C521 H513 0.930 . S
C521 C519 1.419 . S
C521 C522 1.362 . S
C522 H514 0.930 . S
C522 C521 1.362 . S
C522 C525 1.409 . S
C523 H515 0.930 . S
C523 C524 1.355 . S
C523 C525 1.415 . S
C524 C523 1.355 . S
C524 C526 1.419 . S
C525 C520 1.425 . S
C525 C522 1.409 . S
C525 C523 1.415 . S
C526 H516 0.930 . S
C526 C524 1.419 . S
C526 C527 1.362 . S
C527 H517 0.930 . S
C527 C520 1.409 . S
C527 C526 1.362 . S
H528 C534 0.930 . S
H529 C537 0.930 . S
H530 C538 0.930 . S
H531 C539 0.930 . S
H532 C542 0.930 . S
H533 C543 0.930 . S
C534 H528 0.930 . S
C534 C535 1.355 . S
C534 C536 1.415 . S
C535 C534 1.355 . S
C535 C537 1.419 . S
C536 C534 1.415 . S
C536 C541 1.425 . S
C536 C543 1.409 . S
C537 H529 0.930 . S
C537 C535 1.419 . S
C537 C538 1.362 . S
C538 H530 0.930 . S
C538 C537 1.362 . S
C538 C541 1.409 . S
C539 H531 0.930 . S
C539 C540 1.355 . S
C539 C541 1.415 . S
C540 C539 1.355 . S
C540 C542 1.419 . S
C541 C536 1.425 . S
C541 C538 1.409 . S
C541 C539 1.415 . S
C542 H532 0.930 . S
C542 C540 1.419 . S
C542 C543 1.362 . S
C543 H533 0.930 . S
C543 C536 1.409 . S
C543 C542 1.362 . S
H544 C550 0.930 . S
H545 C553 0.930 . S
H546 C554 0.930 . S
H547 C555 0.930 . S
H548 C558 0.930 . S
H549 C559 0.930 . S
C550 H544 0.930 . S
C550 C551 1.355 . S
C550 C552 1.415 . S
C551 C550 1.355 . S
C551 C553 1.419 . S
C552 C550 1.415 . S
C552 C557 1.425 . S
C552 C559 1.409 . S
C553 H545 0.930 . S
C553 C551 1.419 . S
C553 C554 1.362 . S
C554 H546 0.930 . S
C554 C553 1.362 . S
C554 C557 1.409 . S
C555 H547 0.930 . S
C555 C556 1.355 . S
C555 C557 1.415 . S
C556 C555 1.355 . S
C556 C558 1.419 . S
C557 C552 1.425 . S
C557 C554 1.409 . S
C557 C555 1.415 . S
C558 H548 0.930 . S
C558 C556 1.419 . S
C558 C559 1.362 . S
C559 H549 0.930 . S
C559 C552 1.409 . S
C559 C558 1.362 . S
C183 C140 1.413 . S
C188 C8 1.412 . S
C199 C43 1.467 . S
C204 C164 1.456 . S
C215 C96 1.467 . S
C220 C59 1.450 . S
C231 C73 1.478 . S
C236 C125 1.493 . S
C247 C109 1.443 . S
C252 C54 1.428 . S
C263 C84 1.415 . S
C268 C120 1.384 . S
C279 C153 1.473 . S
C284 C21 1.464 . S
C295 C30 1.427 . S
C300 C169 1.439 . S
C311 C40 1.407 . S
C316 C118 1.400 . S
C327 C147 1.439 . S
C332 C52 1.445 . S
C343 C161 1.465 . S
C348 C76 1.457 . S
C359 C15 1.494 . S
C364 C103 1.510 . S
C375 C81 1.453 . S
C380 C172 1.454 . S
C391 C98 1.408 . S
C396 C10 1.382 . S
C407 C29 1.468 . S
C412 C131 1.493 . S
C423 C65 1.420 . S
C428 C142 1.440 . S
C439 C162 1.171 . S
C444 C18 1.176 . S
C455 C37 1.227 . S
C460 C106 1.216 . S
C471 C51 1.253 . S
C476 C117 1.257 . S
C487 C150 1.215 . S
C492 C87 1.206 . S
C503 C128 1.175 . S
C508 C62 1.173 . S
C519 C139 1.226 . S
C524 C74 1.215 . S
C535 C175 1.251 . S
C540 C7 1.255 . S
C551 C95 1.214 . S
C556 C32 1.214 . S
