# Generated by pormake.
# Topology tsi, (8)-cn, num edge types: 1
# Building blocks:
#     Node 0, Type 0, BuildingBlock: TAGTUT_clean_sbu_3, # of connection points: 8
#     Node 1, Type 0, BuildingBlock: TAGTUT_clean_sbu_3, # of connection points: 8
#     Node 2, Type 0, BuildingBlock: TAGTUT_clean_sbu_3, # of connection points: 8
#     Node 3, Type 0, BuildingBlock: TAGTUT_clean_sbu_3, # of connection points: 8
#     Edge 4, Type (0, 0), BuildingBlock: MIFKUJ_clean_linker_0, # of connection points: 2
#     Edge 5, Type (0, 0), BuildingBlock: MIFKUJ_clean_linker_0, # of connection points: 2
#     Edge 6, Type (0, 0), BuildingBlock: MIFKUJ_clean_linker_0, # of connection points: 2
#     Edge 7, Type (0, 0), BuildingBlock: MIFKUJ_clean_linker_0, # of connection points: 2
#     Edge 8, Type (0, 0), BuildingBlock: MIFKUJ_clean_linker_0, # of connection points: 2
#     Edge 9, Type (0, 0), BuildingBlock: MIFKUJ_clean_linker_0, # of connection points: 2
#     Edge 10, Type (0, 0), BuildingBlock: MIFKUJ_clean_linker_0, # of connection points: 2
#     Edge 11, Type (0, 0), BuildingBlock: MIFKUJ_clean_linker_0, # of connection points: 2
#     Edge 12, Type (0, 0), BuildingBlock: MIFKUJ_clean_linker_0, # of connection points: 2
#     Edge 13, Type (0, 0), BuildingBlock: MIFKUJ_clean_linker_0, # of connection points: 2
#     Edge 14, Type (0, 0), BuildingBlock: MIFKUJ_clean_linker_0, # of connection points: 2
#     Edge 15, Type (0, 0), BuildingBlock: MIFKUJ_clean_linker_0, # of connection points: 2
#     Edge 16, Type (0, 0), BuildingBlock: MIFKUJ_clean_linker_0, # of connection points: 2
#     Edge 17, Type (0, 0), BuildingBlock: MIFKUJ_clean_linker_0, # of connection points: 2
#     Edge 18, Type (0, 0), BuildingBlock: MIFKUJ_clean_linker_0, # of connection points: 2
#     Edge 19, Type (0, 0), BuildingBlock: MIFKUJ_clean_linker_0, # of connection points: 2
# Relax obj value: 0.143
# Max RMSD: 0.224
# Mean RMSD: 0.224
data_MOF--net-tsi--node1-TAGTUT_clean_sbu_3--edge1-MIFKUJ_clean_linker_0
_symmetry_space_group_name_H-M    P1
_symmetry_Int_Tables_number       1
_symmetry_cell_setting            triclinic
loop_
_symmetry_equiv_pos_as_xyz
'x, y, z'
_cell_length_a     20.244972
_cell_length_b     20.221448
_cell_length_c     81.486229
_cell_angle_alpha  89.080645
_cell_angle_beta   89.85827
_cell_angle_gamma 90.128614
loop_
_atom_site_label
_atom_site_type_symbol
_atom_site_fract_x
_atom_site_fract_y
_atom_site_fract_z
_atom_type_partial_charge
C0 C 0.15441 0.2071 0.36269 0.0
C1 C 0.02574 0.14936 0.30906 0.0
C2 C 0.86345 0.24846 0.33219 0.0
Mg3 Mg 0.10592 0.23755 0.39916 0.0
Mg4 Mg 0.96955 0.17463 0.41528 0.0
O5 O 0.00885 0.2182 0.39746 0.0
Mg6 Mg 0.00292 0.18909 0.37415 0.0
O7 O 0.00482 0.1669 0.35022 0.0
Mg8 Mg 0.02757 0.25613 0.34054 0.0
Mg9 Mg 0.93791 0.12048 0.33971 0.0
C10 C 0.85199 0.17397 0.38947 0.0
O11 O 0.99257 0.07614 0.3796 0.0
O12 O 0.08202 0.29163 0.42324 0.0
O13 O 0.93187 0.04167 0.35799 0.0
O14 O 0.1257 0.14344 0.41492 0.0
O15 O 0.98489 0.25235 0.43273 0.0
O16 O 0.03182 0.09349 0.42239 0.0
O17 O 0.01005 0.29892 0.36632 0.0
O18 O 0.08499 0.33068 0.3846 0.0
C19 C 0.04733 0.34343 0.37242 0.0
C20 C 0.03416 0.29211 0.43362 0.0
O21 O 0.88991 0.18992 0.37729 0.0
O22 O 0.04369 0.20335 0.31588 0.0
O23 O 0.87367 0.16136 0.404 0.0
O24 O 0.91931 0.27824 0.33257 0.0
O25 O 0.98634 0.10808 0.31615 0.0
O26 O 0.85768 0.18745 0.33614 0.0
O27 O 0.11457 0.18703 0.37391 0.0
O28 O 0.13339 0.23214 0.34911 0.0
C29 C 0.09477 0.09693 0.42253 0.0
C30 C 0.95919 0.03154 0.37204 0.0
C31 C 0.13955 0.79646 0.63888 0.0
C32 C 0.00125 0.81183 0.69294 0.0
C33 C 0.84613 0.72279 0.66397 0.0
Mg34 Mg 0.09614 0.79001 0.60125 0.0
Mg35 Mg 0.9587 0.85761 0.58696 0.0
O36 O -0.0019 0.80398 0.6029 0.0
Mg37 Mg 0.98849 0.81573 0.6271 0.0
O38 O 0.98715 0.82134 0.65161 0.0
Mg39 Mg 0.01219 0.72789 0.65754 0.0
Mg40 Mg 0.91604 0.85644 0.66307 0.0
C41 C 0.8385 0.83473 0.61194 0.0
O42 O 0.97338 0.92923 0.62622 0.0
O43 O 0.07859 0.75521 0.5748 0.0
O44 O 0.91099 0.94732 0.64882 0.0
O45 O 0.11476 0.89447 0.59052 0.0
O46 O 0.97956 0.79348 0.56664 0.0
O47 O 0.02022 0.94384 0.58361 0.0
O48 O -0.00092 0.70373 0.63014 0.0
O49 O 0.0747 0.68653 0.61075 0.0
C50 C 0.03581 0.66474 0.62196 0.0
C51 C 0.03181 0.75916 0.56422 0.0
O52 O 0.87603 0.81164 0.62341 0.0
O53 O 0.02315 0.76383 0.68433 0.0
O54 O 0.86087 0.85884 0.5983 0.0
O55 O 0.90362 0.69663 0.66328 0.0
O56 O 0.96022 0.8544 0.68718 0.0
O57 O 0.83819 0.78514 0.66243 0.0
O58 O 0.0999 0.82193 0.62837 0.0
O59 O 0.11832 0.76119 0.65103 0.0
C60 C 0.08328 0.94365 0.58434 0.0
C61 C 0.93921 0.9674 0.63549 0.0
C62 C 0.55541 0.82687 0.87085 0.0
C63 C 0.54207 0.77903 0.93073 0.0
C64 C 0.59507 0.58081 0.92154 0.0
Mg65 Mg 0.53013 0.74135 0.839 0.0
Mg66 Mg 0.43334 0.61086 0.83848 0.0
O67 O 0.50576 0.65215 0.84825 0.0
Mg68 Mg 0.50677 0.67379 0.87213 0.0
O69 O 0.51521 0.70129 0.89538 0.0
Mg70 Mg 0.61277 0.71782 0.897 0.0
Mg71 Mg 0.47203 0.663 0.91327 0.0
C72 C 0.45674 0.51849 0.86987 0.0
O73 O 0.39441 0.68025 0.87517 0.0
O74 O 0.5417 0.68847 0.81422 0.0
O75 O 0.37565 0.65274 0.90182 0.0
O76 O 0.42185 0.76828 0.83217 0.0
O77 O 0.47553 0.59871 0.81423 0.0
O78 O 0.35582 0.68138 0.83646 0.0
O79 O 0.61867 0.66702 0.87161 0.0
O80 O 0.6355 0.7132 0.84682 0.0
C81 C 0.65753 0.68642 0.86009 0.0
C82 C 0.51829 0.63684 0.80729 0.0
O83 O 0.4927 0.5616 0.87721 0.0
O84 O 0.5916 0.77322 0.92099 0.0
O85 O 0.42683 0.53029 0.85624 0.0
O86 O 0.62866 0.62309 0.91308 0.0
O87 O 0.48972 0.74364 0.92956 0.0
O88 O 0.53196 0.58201 0.92183 0.0
O89 O 0.51679 0.78325 0.86492 0.0
O90 O 0.59472 0.8127 0.88261 0.0
C91 C 0.36424 0.74202 0.83248 0.0
C92 C 0.35529 0.66642 0.88721 0.0
C93 C 0.64369 0.27594 0.13958 0.0
C94 C 0.50183 0.3063 0.19309 0.0
C95 C 0.34896 0.21191 0.16517 0.0
Mg96 Mg 0.60049 0.25887 0.10204 0.0
Mg97 Mg 0.46219 0.32234 0.08716 0.0
O98 O 0.50218 0.27182 0.10358 0.0
Mg99 Mg 0.49326 0.2918 0.1274 0.0
O100 O 0.49172 0.30573 0.15166 0.0
Mg101 Mg 0.51524 0.21372 0.15914 0.0
Mg102 Mg 0.41984 0.34469 0.16216 0.0
C103 C 0.34254 0.30586 0.11233 0.0
O104 O 0.4796 0.40452 0.12431 0.0
O105 O 0.5817 0.21681 0.07636 0.0
O106 O 0.41535 0.43095 0.14601 0.0
O107 O 0.61804 0.36036 0.08905 0.0
O108 O 0.48436 0.25674 0.06729 0.0
O109 O 0.52186 0.4085 0.08314 0.0
O110 O 0.50392 0.18125 0.13239 0.0
O111 O 0.58114 0.15835 0.1138 0.0
C112 C 0.54223 0.14006 0.12539 0.0
C113 C 0.53574 0.22048 0.06555 0.0
O114 O 0.38069 0.2866 0.12407 0.0
O115 O 0.52409 0.25655 0.18518 0.0
O116 O 0.36425 0.32591 0.09825 0.0
O117 O 0.40628 0.18527 0.16491 0.0
O118 O 0.46175 0.34819 0.1866 0.0
O119 O 0.34139 0.27387 0.1627 0.0
O120 O 0.6046 0.2985 0.12853 0.0
O121 O 0.62179 0.24467 0.15231 0.0
C122 C 0.58493 0.40825 0.08275 0.0
C123 C 0.44492 0.4461 0.13247 0.0
H124 H 0.95266 0.29909 0.46036 0.0
H125 H 0.95203 0.38351 0.48148 0.0
H126 H 0.11515 0.48313 0.45747 0.0
H127 H 0.11615 0.39917 0.43625 0.0
H128 H 0.04911 0.41535 0.50284 0.0
H129 H 0.09811 0.64634 0.46254 0.0
H130 H 0.0722 0.69171 0.43499 0.0
H131 H 0.8948 0.57512 0.43383 0.0
H132 H 0.92035 0.5282 0.4612 0.0
H133 H 0.13334 0.67849 0.55503 0.0
H134 H 0.13577 0.6031 0.53196 0.0
H135 H 0.9433 0.6713 0.51677 0.0
H136 H 0.94073 0.74777 0.53964 0.0
H137 H 0.02205 0.65512 0.49087 0.0
H138 H 0.96305 0.52893 0.5396 0.0
H139 H 0.97659 0.48202 0.56752 0.0
H140 H 0.15609 0.38696 0.55275 0.0
H141 H 0.14429 0.43425 0.52483 0.0
C142 C 0.9884 0.33895 0.45954 0.0
C143 C 0.03461 0.34222 0.44664 0.0
C144 C 0.98794 0.38711 0.47162 0.0
C145 C 0.03315 0.43975 0.47093 0.0
C146 C 0.07931 0.44329 0.45809 0.0
C147 C 0.08012 0.39493 0.44606 0.0
C148 C 0.03356 0.48955 0.48401 0.0
C149 C 0.04332 0.46783 0.50025 0.0
C150 C 0.02559 0.55779 0.48058 0.0
C151 C 0.01147 0.5834 0.46382 0.0
C152 C 0.05384 0.63009 0.45633 0.0
C153 C 0.03933 0.6559 0.44073 0.0
C154 C 0.98213 0.63597 0.43261 0.0
C155 C 0.93953 0.58989 0.44003 0.0
C156 C 0.95419 0.56339 0.45554 0.0
C157 C 0.09172 0.67804 0.54671 0.0
C158 C 0.03643 0.71867 0.54931 0.0
C159 C 0.09313 0.63464 0.53357 0.0
C160 C 0.03919 0.63075 0.52286 0.0
C161 C 0.9853 0.67332 0.52496 0.0
C162 C 0.98388 0.71691 0.53807 0.0
C163 C 0.03784 0.581 0.50975 0.0
C164 C 0.02826 0.60272 0.49349 0.0
C165 C 0.04516 0.51254 0.5132 0.0
C166 C 0.05312 0.48573 0.53015 0.0
C167 C 0.00583 0.49869 0.54236 0.0
C168 C 0.01313 0.4719 0.55818 0.0
C169 C 0.06722 0.43158 0.56191 0.0
C170 C 0.11428 0.41825 0.54985 0.0
C171 C 0.10732 0.44506 0.53403 0.0
H172 H 0.07263 0.41033 0.5741 0.0
H173 H 0.97066 0.65651 0.42061 0.0
H174 H 0.44749 0.5971 0.78062 0.0
H175 H 0.48875 0.58662 0.75238 0.0
H176 H 0.68664 0.62727 0.76924 0.0
H177 H 0.64489 0.64165 0.79703 0.0
H178 H 0.66156 0.70454 0.74579 0.0
H179 H 0.63113 0.47062 0.75438 0.0
H180 H 0.5688 0.36899 0.7613 0.0
H181 H 0.43579 0.40785 0.72135 0.0
H182 H 0.49684 0.51022 0.71432 0.0
H183 H 0.84786 0.59571 0.67634 0.0
H184 H 0.76881 0.5517 0.69638 0.0
H185 H 0.63755 0.71408 0.68588 0.0
H186 H 0.71637 0.75937 0.66604 0.0
H187 H 0.62323 0.52984 0.70476 0.0
H188 H 0.64904 0.80366 0.7215 0.0
H189 H 0.72377 0.89852 0.71639 0.0
H190 H 0.88592 0.76541 0.70928 0.0
H191 H 0.81275 0.67039 0.71475 0.0
C192 C 0.49987 0.60279 0.77822 0.0
C193 C 0.54308 0.62098 0.79084 0.0
C194 C 0.52349 0.59639 0.76214 0.0
C195 C 0.59089 0.60625 0.75863 0.0
C196 C 0.63435 0.62016 0.77156 0.0
C197 C 0.61058 0.62838 0.78743 0.0
C198 C 0.6159 0.60991 0.74147 0.0
C199 C 0.65288 0.66602 0.73693 0.0
C200 C 0.60476 0.56 0.72974 0.0
C201 C 0.56816 0.49842 0.73393 0.0
C202 C 0.58828 0.45777 0.74715 0.0
C203 C 0.55324 0.39998 0.75108 0.0
C204 C 0.49827 0.38207 0.7418 0.0
C205 C 0.47833 0.42183 0.72854 0.0
C206 C 0.51317 0.4797 0.72457 0.0
C207 C 0.80091 0.62061 0.67771 0.0
C208 C 0.78967 0.68265 0.67013 0.0
C209 C 0.75542 0.59492 0.68911 0.0
C210 C 0.69848 0.63098 0.69293 0.0
C211 C 0.68189 0.68635 0.68324 0.0
C212 C 0.72731 0.7123 0.67194 0.0
C213 C 0.66891 0.62378 0.70949 0.0
C214 C 0.63106 0.56792 0.71378 0.0
C215 C 0.68071 0.67277 0.72133 0.0
C216 C 0.72506 0.72997 0.71808 0.0
C217 C 0.70064 0.79482 0.71877 0.0
C218 C 0.74278 0.84863 0.71585 0.0
C219 C 0.80944 0.8381 0.71226 0.0
C220 C 0.83424 0.77374 0.71182 0.0
C221 C 0.79244 0.71987 0.71483 0.0
H222 H 0.84193 0.8798 0.70995 0.0
H223 H 0.4712 0.33731 0.74487 0.0
H224 H 0.55124 0.47241 0.93922 0.0
H225 H 0.585 0.44369 0.96728 0.0
H226 H 0.74435 0.58487 0.96382 0.0
H227 H 0.71274 0.61221 0.93568 0.0
H228 H 0.70702 0.40852 0.98574 0.0
H229 H 0.70687 0.68873 0.99903 0.0
H230 H 0.65038 0.79321 0.99173 0.0
H231 H 0.48989 0.68423 0.97086 0.0
H232 H 0.54453 0.57929 0.97833 0.0
H233 H 0.71512 0.40685 0.07261 0.0
H234 H 0.75403 0.44293 0.04548 0.0
H235 H 0.56563 0.53602 0.03637 0.0
H236 H 0.52864 0.50462 0.06361 0.0
H237 H 0.64695 0.59892 0.02033 0.0
H238 H 0.61721 0.35683 0.02823 0.0
H239 H 0.6498 0.24834 0.0398 0.0
H240 H 0.84422 0.27161 0.01954 0.0
H241 H 0.81357 0.38118 0.00817 0.0
C242 C 0.59536 0.49505 0.94414 0.0
C243 C 0.6287 0.54515 0.93522 0.0
C244 C 0.61446 0.47878 0.96022 0.0
C245 C 0.66632 0.51322 0.96771 0.0
C246 C 0.70388 0.55813 0.95829 0.0
C247 C 0.68586 0.57328 0.94211 0.0
C248 C 0.67442 0.50963 0.9858 0.0
C249 C 0.6945 0.45025 0.99334 0.0
C250 C 0.65845 0.56408 0.99573 0.0
C251 C 0.63046 0.62625 0.98895 0.0
C252 C 0.66011 0.68716 0.9926 0.0
C253 C 0.62818 0.74637 0.98858 0.0
C254 C 0.56654 0.74505 0.98096 0.0
C255 C 0.53766 0.68489 0.97678 0.0
C256 C 0.56924 0.62555 0.98085 0.0
C257 C 0.68303 0.43757 0.0651 0.0
C258 C 0.61779 0.45105 0.07016 0.0
C259 C 0.70503 0.45713 0.04941 0.0
C260 C 0.66175 0.48931 0.03845 0.0
C261 C 0.59997 0.51014 0.04436 0.0
C262 C 0.57867 0.49214 0.06009 0.0
C263 C 0.67639 0.49677 0.02053 0.0
C264 C 0.66135 0.5574 0.01285 0.0
C265 C 0.69527 0.44287 0.01056 0.0
C266 C 0.71334 0.37736 0.01751 0.0
C267 C 0.667 0.33895 0.02632 0.0
C268 C 0.68508 0.27727 0.03283 0.0
C269 C 0.74876 0.2529 0.03035 0.0
C270 C 0.79486 0.29048 0.02144 0.0
C271 C 0.77727 0.35246 0.01501 0.0
H272 H 0.76233 0.20485 0.03528 0.0
H273 H 0.54059 0.79056 0.97858 0.0
H274 H 0.86457 0.35069 0.30994 0.0
H275 H 0.77469 0.38264 0.29185 0.0
H276 H 0.64103 0.25706 0.31973 0.0
H277 H 0.73345 0.21756 0.33603 0.0
H278 H 0.6239 0.2254 0.29259 0.0
H279 H 0.62026 0.43797 0.31276 0.0
H280 H 0.65986 0.54416 0.32349 0.0
H281 H 0.74716 0.59243 0.27672 0.0
H282 H 0.70922 0.48594 0.2658 0.0
H283 H 0.45664 0.3959 0.21559 0.0
H284 H 0.48924 0.40461 0.24447 0.0
H285 H 0.62656 0.244 0.23832 0.0
H286 H 0.59397 0.23429 0.20983 0.0
H287 H 0.60117 0.43225 0.25965 0.0
H288 H 0.63106 0.14466 0.26938 0.0
H289 H 0.56945 0.04281 0.26314 0.0
H290 H 0.3915 0.15539 0.25683 0.0
H291 H 0.45193 0.25791 0.26305 0.0
C292 C 0.81563 0.33126 0.31249 0.0
C293 C 0.806 0.28189 0.32458 0.0
C294 C 0.76364 0.35024 0.30219 0.0
C295 C 0.70019 0.32256 0.30428 0.0
C296 C 0.68932 0.27874 0.31759 0.0
C297 C 0.74203 0.25708 0.32724 0.0
C298 C 0.64991 0.32909 0.29098 0.0
C299 C 0.61833 0.27125 0.28567 0.0
C300 C 0.63923 0.38909 0.28213 0.0
C301 C 0.66205 0.45367 0.28849 0.0
C302 C 0.64832 0.471 0.3048 0.0
C303 C 0.67043 0.5313 0.31091 0.0
C304 C 0.70605 0.57501 0.30079 0.0
C305 C 0.71951 0.55853 0.28454 0.0
C306 C 0.69758 0.49821 0.27837 0.0
C307 C 0.49385 0.36253 0.22041 0.0
C308 C 0.5225 0.3142 0.21039 0.0
C309 C 0.51233 0.36758 0.23691 0.0
C310 C 0.55943 0.3242 0.24363 0.0
C311 C 0.58891 0.277 0.23353 0.0
C312 C 0.57049 0.27181 0.21716 0.0
C313 C 0.57997 0.32793 0.26105 0.0
C314 C 0.60566 0.38741 0.26703 0.0
C315 C 0.58197 0.27043 0.2711 0.0
C316 C 0.54614 0.20904 0.26668 0.0
C317 C 0.57878 0.14771 0.26668 0.0
C318 C 0.54407 0.08986 0.26313 0.0
C319 C 0.47659 0.09262 0.25965 0.0
C320 C 0.44378 0.15333 0.25955 0.0
C321 C 0.47833 0.21138 0.26299 0.0
H322 H 0.44973 0.04769 0.25703 0.0
H323 H 0.72316 0.62168 0.30554 0.0
H324 H 0.2233 0.25506 0.17123 0.0
H325 H 0.14864 0.20637 0.19157 0.0
H326 H 0.26971 0.03168 0.19428 0.0
H327 H 0.34611 0.08064 0.17429 0.0
H328 H 0.07733 0.09682 0.20328 0.0
H329 H 0.32071 0.01664 0.22838 0.0
H330 H 0.43946 0.03761 0.22331 0.0
H331 H 0.39825 0.24252 0.21324 0.0
H332 H 0.27962 0.22232 0.21796 0.0
H333 H -0.00251 0.04328 0.2894 0.0
H334 H 0.03956 0.02296 0.26167 0.0
H335 H 0.15258 0.20382 0.26332 0.0
H336 H 0.11195 0.22403 0.29085 0.0
H337 H 0.22571 0.10746 0.2516 0.0
H338 H 0.00548 0.19466 0.24285 0.0
H339 H 0.88411 0.19506 0.2456 0.0
H340 H 0.87353 0.00564 0.22266 0.0
H341 H -0.00498 0.0038 0.21997 0.0
C342 C 0.23298 0.20528 0.17568 0.0
C343 C 0.29236 0.17304 0.17175 0.0
C344 C 0.18975 0.17727 0.18723 0.0
C345 C 0.20507 0.11662 0.19486 0.0
C346 C 0.25792 0.07933 0.18879 0.0
C347 C 0.3017 0.10757 0.17737 0.0
C348 C 0.17811 0.10254 0.2115 0.0
C349 C 0.10964 0.09724 0.21388 0.0
C350 C 0.22014 0.10518 0.22533 0.0
C351 C 0.29175 0.11802 0.22355 0.0
C352 C 0.33732 0.06617 0.2252 0.0
C353 C 0.40447 0.07782 0.22223 0.0
C354 C 0.42651 0.14135 0.21791 0.0
C355 C 0.3814 0.19335 0.21655 0.0
C356 C 0.31422 0.18182 0.21933 0.0
C357 C 0.03149 0.07857 0.28387 0.0
C358 C 0.05127 0.13535 0.29239 0.0
C359 C 0.05529 0.06695 0.26801 0.0
C360 C 0.09909 0.11194 0.26042 0.0
C361 C 0.11913 0.16819 0.26896 0.0
C362 C 0.09555 0.1798 0.28473 0.0
C363 C 0.12446 0.10195 0.24354 0.0
C364 C 0.19308 0.10351 0.24111 0.0
C365 C 0.08216 0.09764 0.22976 0.0
C366 C 0.00929 0.09865 0.23143 0.0
C367 C 0.97729 0.15282 0.23854 0.0
C368 C 0.90849 0.15338 0.24006 0.0
C369 C 0.87115 0.10029 0.23437 0.0
C370 C 0.90253 0.04663 0.2271 0.0
C371 C 0.97134 0.04581 0.22558 0.0
H372 H 0.81788 0.10083 0.23555 0.0
H373 H 0.47851 0.1503 0.21569 0.0
H374 H 0.96738 0.90629 0.71534 0.0
H375 H 0.01416 0.92184 0.74271 0.0
H376 H 0.13623 0.74957 0.73647 0.0
H377 H 0.0904 0.73369 0.70921 0.0
H378 H 0.02215 0.84122 0.77125 0.0
H379 H 0.28843 0.78486 0.74918 0.0
H380 H 0.35522 0.797 0.72395 0.0
H381 H 0.23405 0.95954 0.70794 0.0
H382 H 0.16716 0.94907 0.73319 0.0
H383 H 0.23831 0.69739 0.82789 0.0
H384 H 0.1592 0.74228 0.8084 0.0
H385 H 0.28136 0.91548 0.80125 0.0
H386 H 0.36259 0.86945 0.82033 0.0
H387 H 0.26617 0.86061 0.77386 0.0
H388 H 0.11488 0.92053 0.81499 0.0
H389 H 0.0492 0.9085 0.84036 0.0
H390 H 0.93974 0.74906 0.81925 0.0
H391 H 0.00593 0.75867 0.79395 0.0
C392 C 0.00388 0.87142 0.71983 0.0
C393 C 0.02568 0.81913 0.70996 0.0
C394 C 0.0303 0.88032 0.7355 0.0
C395 C 0.07924 0.83743 0.74149 0.0
C396 C 0.09914 0.78381 0.73195 0.0
C397 C 0.07279 0.77479 0.71635 0.0
C398 C 0.11235 0.84955 0.75735 0.0
C399 C 0.07542 0.84607 0.77194 0.0
C400 C 0.18154 0.85824 0.75812 0.0
C401 C 0.22256 0.86593 0.74305 0.0
C402 C 0.27632 0.82351 0.74033 0.0
C403 C 0.31414 0.83003 0.72602 0.0
C404 C 0.29881 0.87892 0.71434 0.0
C405 C 0.24577 0.92157 0.71698 0.0
C406 C 0.20785 0.91533 0.73129 0.0
C407 C 0.24764 0.74596 0.82257 0.0
C408 C 0.30787 0.7788 0.82526 0.0
C409 C 0.20177 0.77196 0.81149 0.0
C410 C 0.21446 0.83197 0.80316 0.0
C411 C 0.2708 0.86867 0.80737 0.0
C412 C 0.31722 0.84229 0.81832 0.0
C413 C 0.17661 0.84882 0.78805 0.0
C414 C 0.21271 0.85761 0.77343 0.0
C415 C 0.10668 0.84566 0.78737 0.0
C416 C 0.06569 0.84032 0.80252 0.0
C417 C 0.07711 0.88258 0.81577 0.0
C418 C 0.03979 0.87612 0.83018 0.0
C419 C 0.99036 0.82801 0.83144 0.0
C420 C 0.97791 0.78646 0.81827 0.0
C421 C 0.01542 0.79234 0.80388 0.0
H422 H 0.96171 0.82298 0.84263 0.0
H423 H 0.32808 0.8838 0.70325 0.0
H424 H 0.43804 0.83374 0.94676 0.0
H425 H 0.44169 0.91657 0.96822 0.0
H426 H 0.6543 0.92296 0.96472 0.0
H427 H 0.65119 0.84062 0.94303 0.0
H428 H 0.50618 0.89976 0.99828 0.0
H429 H 0.69967 0.0834 0.97425 0.0
H430 H 0.74799 0.11754 0.94759 0.0
H431 H 0.56328 0.07887 0.92377 0.0
H432 H 0.51358 0.0458 0.95029 0.0
H433 H 0.61364 0.11227 0.06128 0.0
H434 H 0.62108 0.04338 0.03697 0.0
H435 H 0.48069 0.16919 0.01196 0.0
H436 H 0.47251 0.2384 0.03626 0.0
H437 H 0.59484 0.12811 0.9924 0.0
H438 H 0.42259 0.0394 0.02858 0.0
H439 H 0.3808 -0.00342 0.05516 0.0
H440 H 0.5246 0.84086 0.05451 0.0
H441 H 0.56791 0.88341 0.02803 0.0
C442 C 0.48558 0.85289 0.95051 0.0
C443 C 0.54441 0.83021 0.94336 0.0
C444 C 0.4875 0.9003 0.96271 0.0
C445 C 0.5482 0.92559 0.968 0.0
C446 C 0.60699 0.90423 0.96067 0.0
C447 C 0.60511 0.85712 0.94835 0.0
C448 C 0.54976 0.97189 0.98176 0.0
C449 C 0.52544 0.94972 0.997 0.0
C450 C 0.57555 0.03664 0.98003 0.0
C451 C 0.6032 0.0614 0.96422 0.0
C452 C 0.66921 0.08285 0.96334 0.0
C453 C 0.6969 0.10181 0.94825 0.0
C454 C 0.65896 0.09965 0.93397 0.0
C455 C 0.59283 0.07992 0.9348 0.0
C456 C 0.56484 0.06119 0.94986 0.0
C457 C 0.58461 0.12555 0.05058 0.0
C458 C 0.54182 0.18023 0.05072 0.0
C459 C 0.58912 0.0863 0.03672 0.0
C460 C 0.55124 0.10135 0.0228 0.0
C461 C 0.51031 0.15713 0.02265 0.0
C462 C 0.50521 0.19607 0.03657 0.0
C463 C 0.55053 0.05607 0.00884 0.0
C464 C 0.57543 0.07822 0.99364 0.0
C465 C 0.52553 0.99101 0.01059 0.0
C466 C 0.49894 0.96503 0.02642 0.0
C467 C 0.44565 -0.00363 0.03417 0.0
C468 C 0.42163 0.97208 0.04921 0.0
C469 C 0.45016 0.91615 0.05655 0.0
C470 C 0.50263 0.88425 0.04883 0.0
C471 C 0.5269 0.90841 0.0338 0.0
H472 H 0.43151 0.89743 0.06819 0.0
H473 H 0.6807 0.11369 0.92227 0.0
H474 H 0.20202 0.14011 0.43916 0.0
H475 H 0.2265 0.11263 0.46745 0.0
H476 H 0.09199 0.94683 0.46557 0.0
H477 H 0.06261 0.97841 0.43744 0.0
H478 H 0.05612 0.01205 0.48863 0.0
H479 H 0.27038 0.93859 0.47496 0.0
H480 H 0.38014 0.93983 0.46179 0.0
H481 H 0.43109 0.11626 0.48755 0.0
H482 H 0.32125 0.11671 0.5007 0.0
H483 H 0.20491 0.92255 0.57093 0.0
H484 H 0.23298 0.95432 0.54303 0.0
H485 H 0.07564 0.09788 0.5427 0.0
H486 H 0.04323 0.06181 0.57034 0.0
H487 H 0.26179 0.03641 0.5209 0.0
H488 H 0.98515 0.08917 0.50988 0.0
H489 H 0.87702 0.06567 0.52282 0.0
H490 H 0.95563 0.88965 0.54539 0.0
H491 H 0.06414 0.91188 0.53257 0.0
C492 C 0.17948 0.09607 0.44448 0.0
C493 C 0.12938 0.0621 0.4361 0.0
C494 C 0.19383 0.08018 0.46082 0.0
C495 C 0.16064 0.028 0.46892 0.0
C496 C 0.11739 0.98827 0.45978 0.0
C497 C 0.10118 0.0057 0.44359 0.0
C498 C 0.16217 0.02229 0.48723 0.0
C499 C 0.10153 0.01669 0.49556 0.0
C500 C 0.22097 0.02805 0.49656 0.0
C501 C 0.28729 0.02793 0.48873 0.0
C502 C 0.30479 0.97794 0.47773 0.0
C503 C 0.36707 0.9783 0.47028 0.0
C504 C 0.41251 0.02816 0.4738 0.0
C505 C 0.39582 0.07768 0.48482 0.0
C506 C 0.33358 0.0776 0.4923 0.0
C507 C 0.17744 0.96268 0.56524 0.0
C508 C 0.11953 0.98726 0.57258 0.0
C509 C 0.19375 0.98082 0.54913 0.0
C510 C 0.15394 0.02566 0.54036 0.0
C511 C 0.10496 0.06051 0.54894 0.0
C512 C 0.08697 0.04058 0.56486 0.0
C513 C 0.15591 0.02658 0.52204 0.0
C514 C 0.21687 0.03146 0.5138 0.0
C515 C 0.09784 0.01669 0.5127 0.0
C516 C 0.03278 0.00262 0.52041 0.0
C517 C 0.97925 0.04541 0.5176 0.0
C518 C 0.91799 0.03234 0.52493 0.0
C519 C 0.90961 0.97633 0.53499 0.0
C520 C 0.96238 0.93313 0.53769 0.0
C521 C 0.02375 0.94596 0.5304 0.0
H522 H 0.86216 0.96629 0.54067 0.0
H523 H 0.46069 0.02836 0.46802 0.0
H524 H 0.05319 0.96706 0.39034 0.0
H525 H 0.06502 0.84663 0.39284 0.0
H526 H 0.8752 0.82082 0.36985 0.0
H527 H 0.86281 0.94042 0.36749 0.0
H528 H 0.9035 0.71944 0.39229 0.0
H529 H 0.0083 0.83575 0.34589 0.0
H530 H 0.08315 0.92118 0.33438 0.0
H531 H 0.24596 0.83506 0.36072 0.0
H532 H 0.17179 0.74945 0.37251 0.0
H533 H 0.94196 0.40688 0.35804 0.0
H534 H 0.92463 0.52699 0.3573 0.0
H535 H 0.12272 0.55679 0.37525 0.0
H536 H 0.14088 0.43807 0.37547 0.0
H537 H 0.09009 0.65624 0.35614 0.0
H538 H 0.99111 0.53548 0.40113 0.0
H539 H 0.91909 0.44922 0.41327 0.0
H540 H 0.74924 0.54223 0.39157 0.0
H541 H 0.82055 0.62845 0.37901 0.0
C542 C 0.01289 0.9357 0.38645 0.0
C543 C 0.95777 0.96284 0.37839 0.0
C544 C 0.01982 0.86697 0.3878 0.0
C545 C 0.97167 0.82502 0.38113 0.0
C546 C 0.91312 0.8523 0.37494 0.0
C547 C 0.90629 0.92069 0.37353 0.0
C548 C 0.98629 0.75468 0.37796 0.0
C549 C 0.94406 0.7055 0.38434 0.0
C550 C 0.03955 0.73662 0.36768 0.0
C551 C 0.0845 0.78658 0.36015 0.0
C552 C 0.06005 0.83514 0.34923 0.0
C553 C 0.10232 0.88358 0.34267 0.0
C554 C 0.16925 0.8836 0.34684 0.0
C555 C 0.1941 0.83497 0.35751 0.0
C556 C 0.15201 0.78644 0.36411 0.0
C557 C 0.9825 0.43929 0.3612 0.0
C558 C 0.04223 0.41328 0.36715 0.0
C559 C 0.9724 0.50779 0.36093 0.0
C560 C 0.02172 0.55058 0.36675 0.0
C561 C 0.0837 0.52478 0.37091 0.0
C562 C 0.0939 0.45678 0.37108 0.0
C563 C 0.00726 0.62061 0.37043 0.0
C564 C 0.04953 0.66988 0.36412 0.0
C565 C 0.95455 0.63847 0.38095 0.0
C566 C 0.91127 0.58807 0.38898 0.0
C567 C 0.93846 0.53731 0.39884 0.0
C568 C 0.89778 0.48835 0.40578 0.0
C569 C 0.82964 0.49013 0.40315 0.0
C570 C 0.80205 0.54095 0.39359 0.0
C571 C 0.84258 0.58988 0.38656 0.0
H572 H 0.7982 0.45224 0.40855 0.0
H573 H 0.20187 0.92124 0.34178 0.0
H574 H 0.20191 0.88099 0.61745 0.0
H575 H 0.32055 0.89393 0.6131 0.0
H576 H 0.35814 0.74489 0.65039 0.0
H577 H 0.23947 0.73253 0.65508 0.0
H578 H 0.44145 0.85028 0.65281 0.0
H579 H 0.36308 0.7069 0.60945 0.0
H580 H 0.28821 0.68199 0.5865 0.0
H581 H 0.3575 0.85438 0.5602 0.0
H582 H 0.43239 0.88061 0.58307 0.0
H583 H 0.76862 0.76021 0.63423 0.0
H584 H 0.64924 0.75917 0.63858 0.0
H585 H 0.62553 0.90403 0.59961 0.0
H586 H 0.74491 0.9052 0.59512 0.0
H587 H 0.53448 0.80824 0.59754 0.0
H588 H 0.61797 0.94911 0.63837 0.0
H589 H 0.68861 0.98439 0.6612 0.0
H590 H 0.60582 0.83186 0.69223 0.0
H591 H 0.53652 0.79379 0.6694 0.0
C592 C 0.23536 0.8509 0.62472 0.0
C593 C 0.2113 0.80518 0.63648 0.0
C594 C 0.30312 0.85839 0.62222 0.0
C595 C 0.34794 0.81963 0.63126 0.0
C596 C 0.32422 0.77513 0.64327 0.0
C597 C 0.25643 0.76797 0.64588 0.0
C598 C 0.41957 0.82408 0.6279 0.0
C599 C 0.46206 0.84022 0.6408 0.0
C600 C 0.44577 0.81337 0.61205 0.0
C601 C 0.40305 0.79588 0.598 0.0
C602 C 0.36232 0.73947 0.59877 0.0
C603 C 0.31986 0.72515 0.58578 0.0
C604 C 0.31804 0.76662 0.57191 0.0
C605 C 0.35901 0.82227 0.57095 0.0
C606 C 0.40157 0.83681 0.5839 0.0
C607 C 0.73813 0.79235 0.62671 0.0
C608 C 0.76629 0.83346 0.6145 0.0
C609 C 0.66994 0.79154 0.62917 0.0
C610 C 0.62878 0.83221 0.61956 0.0
C611 C 0.65654 0.87236 0.60716 0.0
C612 C 0.72474 0.87303 0.60464 0.0
C613 C 0.55676 0.83307 0.62256 0.0
C614 C 0.51412 0.81818 0.60958 0.0
C615 C 0.53035 0.84592 0.63829 0.0
C616 C 0.57252 0.86805 0.65207 0.0
C617 C 0.61549 0.92237 0.64998 0.0
C618 C 0.65538 0.94284 0.66293 0.0
C619 C 0.65203 0.9101 0.67812 0.0
C620 C 0.60874 0.85684 0.68041 0.0
C621 C 0.56923 0.83567 0.66745 0.0
H622 H 0.6827 0.92635 0.68813 0.0
H623 H 0.28492 0.75561 0.5619 0.0
H624 H 0.35633 0.42983 0.86796 0.0
H625 H 0.36602 0.3096 0.87025 0.0
H626 H 0.5692 0.33083 0.88534 0.0
H627 H 0.5585 0.45087 0.88385 0.0
H628 H 0.44063 0.24188 0.85111 0.0
H629 H 0.6277 0.20663 0.90314 0.0
H630 H 0.65234 0.25368 0.93024 0.0
H631 H 0.44682 0.29712 0.93726 0.0
H632 H 0.42111 0.25062 0.91018 0.0
H633 H 0.64631 0.92479 0.8736 0.0
H634 H 0.62486 0.04346 0.87368 0.0
H635 H 0.42205 0.00732 0.8602 0.0
H636 H 0.4438 0.88843 0.85966 0.0
H637 H 0.54486 0.10225 0.89433 0.0
H638 H 0.35714 0.14354 0.84203 0.0
H639 H 0.33143 0.09906 0.81474 0.0
H640 H 0.53456 0.04443 0.80829 0.0
H641 H 0.5616 0.08918 0.83545 0.0
C642 C 0.40221 0.40866 0.87238 0.0
C643 C 0.45676 0.44933 0.8757 0.0
C644 C 0.40786 0.34006 0.87357 0.0
C645 C 0.46836 0.311 0.87789 0.0
C646 C 0.52157 0.35185 0.88229 0.0
C647 C 0.51549 0.42059 0.88144 0.0
C648 C 0.47815 0.23892 0.87588 0.0
C649 C 0.46211 0.21101 0.8607 0.0
C650 C 0.50786 0.19907 0.88817 0.0
C651 C 0.52257 0.22505 0.90468 0.0
C652 C 0.58778 0.22584 0.91053 0.0
C653 C 0.60195 0.25272 0.92584 0.0
C654 C 0.55117 0.27828 0.93547 0.0
C655 C 0.48611 0.27724 0.9298 0.0
C656 C 0.47175 0.25083 0.91445 0.0
C657 C 0.59764 0.94232 0.87018 0.0
C658 C 0.54664 0.89746 0.86668 0.0
C659 C 0.58532 0.01006 0.87037 0.0
C660 C 0.52178 0.03426 0.86711 0.0
C661 C 0.47167 0.98986 0.86261 0.0
C662 C 0.4842 0.92191 0.86223 0.0
C663 C 0.50719 0.10521 0.86958 0.0
C664 C 0.52257 0.13293 0.88483 0.0
C665 C 0.47649 0.14479 0.85736 0.0
C666 C 0.4612 0.11914 0.84084 0.0
C667 C 0.39635 0.12231 0.83475 0.0
C668 C 0.38154 0.09697 0.81932 0.0
C669 C 0.43128 0.06873 0.80981 0.0
C670 C 0.49602 0.06606 0.81569 0.0
C671 C 0.5111 0.09132 0.83111 0.0
H672 H 0.41968 0.04904 0.79789 0.0
H673 H 0.56225 0.29898 0.94733 0.0
H674 H 0.24822 0.37244 0.09483 0.0
H675 H 0.12906 0.37229 0.09968 0.0
H676 H 0.15474 0.23698 0.14064 0.0
H677 H 0.27378 0.23644 0.13578 0.0
H678 H 0.03968 0.27351 0.09919 0.0
H679 H 0.03878 0.2789 0.17093 0.0
H680 H 0.10717 0.32194 0.19339 0.0
H681 H 0.19374 0.46541 0.1604 0.0
H682 H 0.12391 0.42538 0.13792 0.0
H683 H 0.74238 0.21726 0.15736 0.0
H684 H 0.86132 0.22754 0.15284 0.0
H685 H 0.8264 0.36357 0.11246 0.0
H686 H 0.70749 0.35253 0.11664 0.0
H687 H 0.94548 0.33212 0.15333 0.0
H688 H 0.93706 0.33787 0.08295 0.0
H689 H 0.8624 0.30182 0.06087 0.0
H690 H 0.79463 0.13998 0.09128 0.0
H691 H 0.86926 0.17463 0.11344 0.0
C692 C 0.22851 0.34256 0.10486 0.0
C693 C 0.2705 0.30521 0.11511 0.0
C694 C 0.16047 0.34252 0.10759 0.0
C695 C 0.13334 0.30533 0.12063 0.0
C696 C 0.17494 0.26705 0.1307 0.0
C697 C 0.24296 0.26706 0.12797 0.0
C698 C 0.0614 0.30628 0.12365 0.0
C699 C 0.01906 0.28712 0.11096 0.0
C700 C 0.03477 0.32327 0.1391 0.0
C701 C 0.07669 0.3483 0.15263 0.0
C702 C 0.07211 0.31988 0.16847 0.0
C703 C 0.11103 0.34388 0.18123 0.0
C704 C 0.15518 0.39594 0.17829 0.0
C705 C 0.15985 0.42476 0.16264 0.0
C706 C 0.12046 0.40155 0.14989 0.0
C707 C 0.75999 0.24942 0.14753 0.0
C708 C 0.71555 0.28351 0.13723 0.0
C709 C 0.82792 0.25544 0.14502 0.0
C710 C 0.85245 0.29565 0.13221 0.0
C711 C 0.80831 0.33136 0.12224 0.0
C712 C 0.74041 0.32496 0.12464 0.0
C713 C 0.9242 0.29853 0.12897 0.0
C714 C 0.96638 0.31849 0.14159 0.0
C715 C 0.95076 0.28255 0.11346 0.0
C716 C 0.90842 0.25916 0.09988 0.0
C717 C 0.90664 0.29426 0.08486 0.0
C718 C 0.86421 0.27418 0.07235 0.0
C719 C 0.8237 0.21877 0.0747 0.0
C720 C 0.82591 0.18299 0.0895 0.0
C721 C 0.86823 0.20283 0.10203 0.0
H722 H 0.79059 0.20348 0.06507 0.0
H723 H 0.18556 0.41412 0.18816 0.0
H724 H 0.95759 0.03056 0.60569 0.0
H725 H 0.96074 0.15035 0.60048 0.0
H726 H 0.9205 0.18401 0.65174 0.0
H727 H 0.91387 0.06575 0.65678 0.0
H728 H 0.86046 0.27334 0.63452 0.0
H729 H 0.08454 0.17866 0.63381 0.0
H730 H 0.16741 0.10246 0.62244 0.0
H731 H 0.14471 0.19297 0.57476 0.0
H732 H 0.06134 0.26936 0.58583 0.0
H733 H -0.00534 0.59057 0.6486 0.0
H734 H 0.97238 0.47118 0.6493 0.0
H735 H 0.02493 0.46017 0.59804 0.0
H736 H 0.05127 0.57726 0.59757 0.0
H737 H 0.07239 0.36011 0.61225 0.0
H738 H 0.85839 0.46238 0.61271 0.0
H739 H 0.77399 0.53888 0.62318 0.0
H740 H 0.77396 0.43602 0.66969 0.0
H741 H 0.85887 0.35922 0.65954 0.0
C742 C 0.94864 0.06372 0.61575 0.0
C743 C 0.93621 0.03882 0.63165 0.0
C744 C 0.95056 0.13205 0.6128 0.0
C745 C 0.94226 0.17618 0.62582 0.0
C746 C 0.92704 0.15111 0.6415 0.0
C747 C 0.9236 0.08326 0.64437 0.0
C748 C 0.95425 0.24812 0.62371 0.0
C749 C 0.90686 0.2924 0.62969 0.0
C750 C 0.0141 0.27311 0.61705 0.0
C751 C 0.06643 0.22927 0.61062 0.0
C752 C 0.09734 0.1823 0.62091 0.0
C753 C 0.14429 0.13905 0.61451 0.0
C754 C 0.16119 0.14279 0.59788 0.0
C755 C 0.13155 0.19013 0.58764 0.0
C756 C 0.08452 0.23345 0.59397 0.0
C757 C 0.00209 0.56221 0.63758 0.0
C758 C 0.02508 0.59289 0.6231 0.0
C759 C 0.98883 0.49427 0.63792 0.0
C760 C -0.00402 0.45684 0.6236 0.0
C761 C 0.01944 0.48773 0.60923 0.0
C762 C 0.03446 0.5548 0.60901 0.0
C763 C 0.97916 0.38548 0.6234 0.0
C764 C 0.02563 0.34137 0.61694 0.0
C765 C 0.9182 0.36082 0.62947 0.0
C766 C 0.86527 0.40529 0.63539 0.0
C767 C 0.84042 0.45611 0.62518 0.0
C768 C 0.79253 0.49954 0.63106 0.0
C769 C 0.76869 0.49234 0.64709 0.0
C770 C 0.79244 0.44147 0.65726 0.0
C771 C 0.84035 0.39789 0.65144 0.0
H772 H 0.73179 0.52616 0.65164 0.0
H773 H 0.19728 0.10904 0.59294 0.0
H774 H 0.72312 0.62367 0.88509 0.0
H775 H 0.8424 0.61783 0.88917 0.0
H776 H 0.87347 0.73314 0.84482 0.0
H777 H 0.75456 0.73815 0.8404 0.0
H778 H 0.95872 0.63096 0.84703 0.0
H779 H 0.88328 0.80572 0.88189 0.0
H780 H 0.81122 0.85291 0.90315 0.0
H781 H 0.88233 0.70988 0.93835 0.0
H782 H 0.95425 0.66131 0.91724 0.0
H783 H 0.28966 0.72883 0.86227 0.0
H784 H 0.17079 0.72944 0.85724 0.0
H785 H 0.13982 0.60923 0.90082 0.0
H786 H 0.25881 0.60754 0.90579 0.0
H787 H 0.05473 0.71372 0.89882 0.0
H788 H 0.13421 0.5418 0.86461 0.0
H789 H 0.20361 0.49111 0.84339 0.0
H790 H 0.12241 0.6229 0.80692 0.0
H791 H 0.05442 0.67614 0.82806 0.0
C792 C 0.75532 0.64774 0.87619 0.0
C793 C 0.72943 0.68178 0.86249 0.0
C794 C 0.82338 0.64442 0.87855 0.0
C795 C 0.8665 0.67585 0.86739 0.0
C796 C 0.84091 0.70869 0.85355 0.0
C797 C 0.77293 0.71166 0.8511 0.0
C798 C 0.93832 0.67567 0.87032 0.0
C799 C 0.97998 0.64981 0.85824 0.0
C800 C 0.9654 0.69912 0.88511 0.0
C801 C 0.92379 0.7296 0.89796 0.0
C802 C 0.88338 0.78421 0.89416 0.0
C803 C 0.84257 0.8112 0.90617 0.0
C804 C 0.8421 0.78433 0.92208 0.0
C805 C 0.88273 0.73063 0.92602 0.0
C806 C 0.92362 0.70342 0.91404 0.0
C807 C 0.25769 0.7015 0.87059 0.0
C808 C 0.2836 0.66709 0.88423 0.0
C809 C 0.18985 0.70233 0.86778 0.0
C810 C 0.14693 0.66877 0.87858 0.0
C811 C 0.17242 0.63531 0.89236 0.0
C812 C 0.24029 0.63436 0.89515 0.0
C813 C 0.07524 0.6688 0.87555 0.0
C814 C 0.0336 0.69489 0.88759 0.0
C815 C 0.04827 0.64534 0.86073 0.0
C816 C 0.0897 0.61368 0.84799 0.0
C817 C 0.13182 0.56073 0.85212 0.0
C818 C 0.17097 0.5315 0.8401 0.0
C819 C 0.16769 0.55402 0.82383 0.0
C820 C 0.12515 0.60573 0.81954 0.0
C821 C 0.08646 0.63563 0.83156 0.0
H822 H 0.19791 0.53123 0.81452 0.0
H823 H 0.81033 0.80517 0.93136 0.0
H824 H 0.35704 0.54073 0.14138 0.0
H825 H 0.3703 0.65997 0.1381 0.0
H826 H 0.54564 0.63032 0.10896 0.0
H827 H 0.53296 0.51041 0.11225 0.0
H828 H 0.56718 0.70734 0.13588 0.0
H829 H 0.41336 0.70006 0.09155 0.0
H830 H 0.30979 0.67038 0.07759 0.0
H831 H 0.19838 0.77869 0.11307 0.0
H832 H 0.30124 0.8083 0.12739 0.0
H833 H 0.62547 0.04294 0.11569 0.0
H834 H 0.6057 0.92443 0.11683 0.0
H835 H 0.42594 0.9557 0.14418 0.0
H836 H 0.44466 0.07546 0.14278 0.0
H837 H 0.40597 0.87789 0.1179 0.0
H838 H 0.55908 0.88419 0.16244 0.0
H839 H 0.66237 0.91389 0.17652 0.0
H840 H 0.77461 0.80671 0.14099 0.0
H841 H 0.67203 0.77712 0.12654 0.0
C842 C 0.3976 0.55946 0.13395 0.0
C843 C 0.44457 0.51629 0.12729 0.0
C844 C 0.40488 0.62765 0.13202 0.0
C845 C 0.45912 0.65379 0.12337 0.0
C846 C 0.50356 0.61084 0.11572 0.0
C847 C 0.49605 0.54243 0.11755 0.0
C848 C 0.47353 0.72528 0.12413 0.0
C849 C 0.53253 0.74476 0.13167 0.0
C850 C 0.42703 0.77364 0.11921 0.0
C851 C 0.36502 0.7559 0.11063 0.0
C852 C 0.36674 0.71708 0.09647 0.0
C853 C 0.30816 0.70037 0.08847 0.0
C854 C 0.24753 0.7225 0.09447 0.0
C855 C 0.24537 0.76153 0.10845 0.0
C856 C 0.30381 0.77836 0.1165 0.0
C857 C 0.58224 0.02476 0.12221 0.0
C858 C 0.5363 0.06863 0.12903 0.0
C859 C 0.57118 0.95687 0.1229 0.0
C860 C 0.51443 0.93135 0.1306 0.0
C861 C 0.46999 0.97464 0.13814 0.0
C862 C 0.48101 0.0429 0.13745 0.0
C863 C 0.49966 0.85993 0.12963 0.0
C864 C 0.44062 0.84046 0.1221 0.0
C865 C 0.54603 0.81146 0.13461 0.0
C866 C 0.60784 0.82889 0.14333 0.0
C867 C 0.60581 0.86736 0.15755 0.0
C868 C 0.66424 0.8841 0.16561 0.0
C869 C 0.72502 0.86232 0.15963 0.0
C870 C 0.72749 0.82359 0.1456 0.0
C871 C 0.66921 0.80675 0.13748 0.0
H872 H 0.7702 0.87534 0.16589 0.0
H873 H 0.20223 0.70951 0.08826 0.0
H874 H 0.78461 0.21092 0.36204 0.0
H875 H 0.66499 0.21227 0.3581 0.0
H876 H 0.63656 0.13892 0.4075 0.0
H877 H 0.75614 0.13417 0.41134 0.0
H878 H 0.55305 0.08083 0.38662 0.0
H879 H 0.61738 0.30633 0.39784 0.0
H880 H 0.68688 0.40554 0.39351 0.0
H881 H 0.62503 0.4182 0.34321 0.0
H882 H 0.55547 0.31881 0.34719 0.0
H883 H 0.21654 0.16848 0.39094 0.0
H884 H 0.33495 0.16255 0.39592 0.0
H885 H 0.37298 0.23171 0.34641 0.0
H886 H 0.25433 0.23934 0.3414 0.0
H887 H 0.45147 0.29233 0.36806 0.0
H888 H 0.38762 0.0695 0.35626 0.0
H889 H 0.32053 0.96814 0.35952 0.0
H890 H 0.38347 0.94779 0.40962 0.0
H891 H 0.45024 0.04959 0.40673 0.0
C892 C 0.75305 0.19382 0.37192 0.0
C893 C 0.77992 0.17224 0.38691 0.0
C894 C 0.68494 0.19532 0.36972 0.0
C895 C 0.64239 0.17691 0.38257 0.0
C896 C 0.66877 0.15369 0.39745 0.0
C897 C 0.73708 0.15133 0.39962 0.0
C898 C 0.57038 0.18343 0.38044 0.0
C899 C 0.53056 0.12727 0.38285 0.0
C900 C 0.54166 0.24374 0.37508 0.0
C901 C 0.58128 0.30512 0.37282 0.0
C902 C 0.61856 0.33035 0.38586 0.0
C903 C 0.658 0.38656 0.38346 0.0
C904 C 0.66037 0.41813 0.36809 0.0
C905 C 0.62303 0.39375 0.35511 0.0
C906 C 0.58341 0.33763 0.35744 0.0
C907 C 0.24994 0.18267 0.38111 0.0
C908 C 0.22602 0.20425 0.36576 0.0
C909 C 0.3176 0.17899 0.38397 0.0
C910 C 0.36246 0.1959 0.37145 0.0
C911 C 0.33892 0.21839 0.3562 0.0
C912 C 0.27118 0.22252 0.35336 0.0
C913 C 0.43406 0.18973 0.37426 0.0
C914 C 0.47382 0.24598 0.37196 0.0
C915 C 0.4627 0.12941 0.37962 0.0
C916 C 0.42348 0.06751 0.38132 0.0
C917 C 0.38685 0.04363 0.368 0.0
C918 C 0.34891 0.98608 0.36978 0.0
C919 C 0.34762 0.95164 0.38478 0.0
C920 C 0.38447 0.97455 0.39802 0.0
C921 C 0.42243 0.03214 0.39631 0.0
H922 H 0.31817 0.90713 0.38613 0.0
H923 H 0.69112 0.46149 0.36625 0.0
loop_
_geom_bond_atom_site_label_1
_geom_bond_atom_site_label_2
_geom_bond_distance
_geom_bond_site_symmetry_2
_ccdc_geom_bond_type
C0 O27 1.312 . S
C0 O28 1.208 . S
C1 O22 1.331 . S
C1 O25 1.244 . S
C2 O24 1.264 . S
C2 O26 1.273 . S
Mg3 O5 1.936 1_455 S
Mg3 O12 2.081 1_455 S
Mg3 O14 2.023 . S
Mg3 O18 2.031 . S
Mg3 O27 2.291 . S
Mg4 O5 1.963 . S
Mg4 O15 1.942 . S
Mg4 O16 1.955 . S
Mg4 O23 1.986 . S
O5 Mg3 1.936 1_655 S
O5 Mg4 1.963 . S
O5 Mg6 1.915 . S
Mg6 O5 1.915 . S
Mg6 O7 1.915 1_655 S
Mg6 O11 2.013 . S
Mg6 O17 2.114 1_655 S
Mg6 O21 2.013 . S
Mg6 O27 2.114 1_655 S
O7 Mg6 1.915 1_455 S
O7 Mg8 1.936 . S
O7 Mg9 1.963 1_455 S
Mg8 O7 1.936 . S
Mg8 O17 2.291 . S
Mg8 O22 2.081 . S
Mg8 O24 2.023 1_455 S
Mg8 O28 2.031 . S
Mg9 O7 1.963 1_655 S
Mg9 O13 1.986 . S
Mg9 O25 1.942 1_655 S
Mg9 O26 1.955 . S
C10 O21 1.191 . S
C10 O23 1.307 . S
O11 Mg6 2.013 . S
O11 C30 1.191 . S
O12 Mg3 2.081 1_655 S
O12 C20 1.331 . S
O13 Mg9 1.986 . S
O13 C30 1.307 . S
O14 Mg3 2.023 . S
O14 C29 1.264 . S
O15 Mg4 1.942 . S
O15 C20 1.244 . S
O16 Mg4 1.955 . S
O16 C29 1.273 1_655 S
O17 Mg6 2.114 1_455 S
O17 Mg8 2.291 . S
O17 C19 1.312 . S
O18 Mg3 2.031 . S
O18 C19 1.208 . S
C19 O17 1.312 . S
C19 O18 1.208 . S
C20 O12 1.331 . S
C20 O15 1.244 . S
O21 Mg6 2.013 . S
O21 C10 1.191 . S
O22 C1 1.331 . S
O22 Mg8 2.081 . S
O23 Mg4 1.986 . S
O23 C10 1.307 . S
O24 C2 1.264 . S
O24 Mg8 2.023 1_655 S
O25 C1 1.244 . S
O25 Mg9 1.942 1_455 S
O26 C2 1.273 . S
O26 Mg9 1.955 . S
O27 C0 1.312 . S
O27 Mg3 2.291 . S
O27 Mg6 2.114 1_455 S
O28 C0 1.208 . S
O28 Mg8 2.031 . S
C29 O14 1.264 . S
C29 O16 1.273 1_455 S
C30 O11 1.191 . S
C30 O13 1.307 . S
C31 O58 1.312 . S
C31 O59 1.208 . S
C32 O53 1.331 . S
C32 O56 1.244 . S
C33 O55 1.264 . S
C33 O57 1.273 . S
Mg34 O36 1.936 1_455 S
Mg34 O43 2.081 1_455 S
Mg34 O45 2.023 . S
Mg34 O49 2.031 . S
Mg34 O58 2.291 . S
Mg35 O36 1.963 . S
Mg35 O46 1.942 . S
Mg35 O47 1.955 . S
Mg35 O54 1.986 . S
O36 Mg34 1.936 1_655 S
O36 Mg35 1.963 . S
O36 Mg37 1.915 . S
Mg37 O36 1.915 . S
Mg37 O38 1.915 1_655 S
Mg37 O42 2.013 . S
Mg37 O48 2.114 1_655 S
Mg37 O52 2.013 . S
Mg37 O58 2.114 1_655 S
O38 Mg37 1.915 1_455 S
O38 Mg39 1.936 . S
O38 Mg40 1.963 1_455 S
Mg39 O38 1.936 . S
Mg39 O48 2.291 . S
Mg39 O53 2.081 . S
Mg39 O55 2.023 1_455 S
Mg39 O59 2.031 . S
Mg40 O38 1.963 1_655 S
Mg40 O44 1.986 . S
Mg40 O56 1.942 1_655 S
Mg40 O57 1.955 . S
C41 O52 1.191 . S
C41 O54 1.307 . S
O42 Mg37 2.013 . S
O42 C61 1.191 . S
O43 Mg34 2.081 1_655 S
O43 C51 1.331 . S
O44 Mg40 1.986 . S
O44 C61 1.307 . S
O45 Mg34 2.023 . S
O45 C60 1.264 . S
O46 Mg35 1.942 . S
O46 C51 1.244 . S
O47 Mg35 1.955 . S
O47 C60 1.273 1_655 S
O48 Mg37 2.114 1_455 S
O48 Mg39 2.291 . S
O48 C50 1.312 . S
O49 Mg34 2.031 . S
O49 C50 1.208 . S
C50 O48 1.312 . S
C50 O49 1.208 . S
C51 O43 1.331 . S
C51 O46 1.244 . S
O52 Mg37 2.013 . S
O52 C41 1.191 . S
O53 C32 1.331 . S
O53 Mg39 2.081 . S
O54 Mg35 1.986 . S
O54 C41 1.307 . S
O55 C33 1.264 . S
O55 Mg39 2.023 1_655 S
O56 C32 1.244 . S
O56 Mg40 1.942 1_455 S
O57 C33 1.273 . S
O57 Mg40 1.955 . S
O58 C31 1.312 . S
O58 Mg34 2.291 . S
O58 Mg37 2.114 1_455 S
O59 C31 1.208 . S
O59 Mg39 2.031 . S
C60 O45 1.264 . S
C60 O47 1.273 1_455 S
C61 O42 1.191 . S
C61 O44 1.307 . S
C62 O89 1.312 . S
C62 O90 1.208 . S
C63 O84 1.331 . S
C63 O87 1.244 . S
C64 O86 1.264 . S
C64 O88 1.273 . S
Mg65 O67 1.936 . S
Mg65 O74 2.081 . S
Mg65 O76 2.023 . S
Mg65 O80 2.031 . S
Mg65 O89 2.291 . S
Mg66 O67 1.963 . S
Mg66 O77 1.942 . S
Mg66 O78 1.955 . S
Mg66 O85 1.986 . S
O67 Mg65 1.936 . S
O67 Mg66 1.963 . S
O67 Mg68 1.915 . S
Mg68 O67 1.915 . S
Mg68 O69 1.915 . S
Mg68 O73 2.013 . S
Mg68 O79 2.114 . S
Mg68 O83 2.013 . S
Mg68 O89 2.114 . S
O69 Mg68 1.915 . S
O69 Mg70 1.936 . S
O69 Mg71 1.963 . S
Mg70 O69 1.936 . S
Mg70 O79 2.291 . S
Mg70 O84 2.081 . S
Mg70 O86 2.023 . S
Mg70 O90 2.031 . S
Mg71 O69 1.963 . S
Mg71 O75 1.986 . S
Mg71 O87 1.942 . S
Mg71 O88 1.955 . S
C72 O83 1.191 . S
C72 O85 1.307 . S
O73 Mg68 2.013 . S
O73 C92 1.191 . S
O74 Mg65 2.081 . S
O74 C82 1.331 . S
O75 Mg71 1.986 . S
O75 C92 1.307 . S
O76 Mg65 2.023 . S
O76 C91 1.264 . S
O77 Mg66 1.942 . S
O77 C82 1.244 . S
O78 Mg66 1.955 . S
O78 C91 1.273 . S
O79 Mg68 2.114 . S
O79 Mg70 2.291 . S
O79 C81 1.312 . S
O80 Mg65 2.031 . S
O80 C81 1.208 . S
C81 O79 1.312 . S
C81 O80 1.208 . S
C82 O74 1.331 . S
C82 O77 1.244 . S
O83 Mg68 2.013 . S
O83 C72 1.191 . S
O84 C63 1.331 . S
O84 Mg70 2.081 . S
O85 Mg66 1.986 . S
O85 C72 1.307 . S
O86 C64 1.264 . S
O86 Mg70 2.023 . S
O87 C63 1.244 . S
O87 Mg71 1.942 . S
O88 C64 1.273 . S
O88 Mg71 1.955 . S
O89 C62 1.312 . S
O89 Mg65 2.291 . S
O89 Mg68 2.114 . S
O90 C62 1.208 . S
O90 Mg70 2.031 . S
C91 O76 1.264 . S
C91 O78 1.273 . S
C92 O73 1.191 . S
C92 O75 1.307 . S
C93 O120 1.312 . S
C93 O121 1.208 . S
C94 O115 1.331 . S
C94 O118 1.244 . S
C95 O117 1.264 . S
C95 O119 1.273 . S
Mg96 O98 1.936 . S
Mg96 O105 2.081 . S
Mg96 O107 2.023 . S
Mg96 O111 2.031 . S
Mg96 O120 2.291 . S
Mg97 O98 1.963 . S
Mg97 O108 1.942 . S
Mg97 O109 1.955 . S
Mg97 O116 1.986 . S
O98 Mg96 1.936 . S
O98 Mg97 1.963 . S
O98 Mg99 1.915 . S
Mg99 O98 1.915 . S
Mg99 O100 1.915 . S
Mg99 O104 2.013 . S
Mg99 O110 2.114 . S
Mg99 O114 2.013 . S
Mg99 O120 2.114 . S
O100 Mg99 1.915 . S
O100 Mg101 1.936 . S
O100 Mg102 1.963 . S
Mg101 O100 1.936 . S
Mg101 O110 2.291 . S
Mg101 O115 2.081 . S
Mg101 O117 2.023 . S
Mg101 O121 2.031 . S
Mg102 O100 1.963 . S
Mg102 O106 1.986 . S
Mg102 O118 1.942 . S
Mg102 O119 1.955 . S
C103 O114 1.191 . S
C103 O116 1.307 . S
O104 Mg99 2.013 . S
O104 C123 1.191 . S
O105 Mg96 2.081 . S
O105 C113 1.331 . S
O106 Mg102 1.986 . S
O106 C123 1.307 . S
O107 Mg96 2.023 . S
O107 C122 1.264 . S
O108 Mg97 1.942 . S
O108 C113 1.244 . S
O109 Mg97 1.955 . S
O109 C122 1.273 . S
O110 Mg99 2.114 . S
O110 Mg101 2.291 . S
O110 C112 1.312 . S
O111 Mg96 2.031 . S
O111 C112 1.208 . S
C112 O110 1.312 . S
C112 O111 1.208 . S
C113 O105 1.331 . S
C113 O108 1.244 . S
O114 Mg99 2.013 . S
O114 C103 1.191 . S
O115 C94 1.331 . S
O115 Mg101 2.081 . S
O116 Mg97 1.986 . S
O116 C103 1.307 . S
O117 C95 1.264 . S
O117 Mg101 2.023 . S
O118 C94 1.244 . S
O118 Mg102 1.942 . S
O119 C95 1.273 . S
O119 Mg102 1.955 . S
O120 C93 1.312 . S
O120 Mg96 2.291 . S
O120 Mg99 2.114 . S
O121 C93 1.208 . S
O121 Mg101 2.031 . S
C122 O107 1.264 . S
C122 O109 1.273 . S
C123 O104 1.191 . S
C123 O106 1.307 . S
H124 C142 0.951 . S
H125 C144 0.951 . S
H126 C146 0.950 1_455 S
H127 C147 0.950 1_455 S
H128 C149 0.950 . S
H129 C152 0.950 . S
H130 C153 0.950 . S
H131 C155 0.950 . S
H132 C156 0.950 . S
H133 C157 0.951 1_455 S
H134 C159 0.951 1_455 S
H135 C161 0.950 . S
H136 C162 0.950 . S
H137 C164 0.950 . S
H138 C167 0.950 . S
H139 C168 0.950 . S
H140 C170 0.950 . S
H141 C171 0.950 . S
C142 H124 0.951 . S
C142 C143 1.366 . S
C142 C144 1.388 . S
C143 C142 1.366 . S
C143 C147 1.385 . S
C144 H125 0.951 . S
C144 C142 1.388 . S
C144 C145 1.366 . S
C145 C144 1.366 . S
C145 C146 1.414 . S
C145 C148 1.499 . S
C146 H126 0.950 1_655 S
C146 C145 1.414 . S
C146 C147 1.374 . S
C147 H127 0.950 1_655 S
C147 C143 1.385 . S
C147 C146 1.374 . S
C148 C145 1.499 . S
C148 C149 1.373 . S
C148 C150 1.389 . S
C149 H128 0.950 . S
C149 C148 1.373 . S
C149 C165 1.377 . S
C150 C148 1.389 . S
C150 C151 1.524 . S
C150 C164 1.377 . S
C151 C150 1.524 . S
C151 C152 1.397 . S
C151 C156 1.363 . S
C152 H129 0.950 . S
C152 C151 1.397 . S
C152 C153 1.334 . S
C153 H130 0.950 . S
C153 C152 1.334 . S
C153 C154 1.287 . S
C154 C153 1.287 . S
C154 C155 1.524 . S
C154 H173 0.913 . S
C155 H131 0.950 . S
C155 C154 1.524 . S
C155 C156 1.415 . S
C156 H132 0.950 . S
C156 C151 1.363 . S
C156 C155 1.415 . S
C157 H133 0.951 1_655 S
C157 C158 1.366 . S
C157 C159 1.388 . S
C158 C157 1.366 . S
C158 C162 1.385 . S
C159 H134 0.951 1_655 S
C159 C157 1.388 . S
C159 C160 1.366 . S
C160 C159 1.366 . S
C160 C161 1.414 . S
C160 C163 1.499 . S
C161 H135 0.950 . S
C161 C160 1.414 . S
C161 C162 1.374 . S
C162 H136 0.950 . S
C162 C158 1.385 . S
C162 C161 1.374 . S
C163 C160 1.499 . S
C163 C164 1.373 . S
C163 C165 1.389 . S
C164 H137 0.950 . S
C164 C150 1.377 . S
C164 C163 1.373 . S
C165 C149 1.377 . S
C165 C163 1.389 . S
C165 C166 1.524 . S
C166 C165 1.524 . S
C166 C167 1.397 . S
C166 C171 1.363 1_655 S
C167 H138 0.950 . S
C167 C166 1.397 . S
C167 C168 1.334 . S
C168 H139 0.950 . S
C168 C167 1.334 . S
C168 C169 1.287 1_655 S
C169 C168 1.287 1_455 S
C169 C170 1.524 . S
C169 H172 0.999 . S
C170 H140 0.950 . S
C170 C169 1.524 . S
C170 C171 1.415 . S
C171 H141 0.950 . S
C171 C166 1.363 1_455 S
C171 C170 1.415 . S
H172 C169 0.999 . S
H173 C154 0.913 . S
H174 C192 0.951 . S
H175 C194 0.951 . S
H176 C196 0.950 . S
H177 C197 0.950 . S
H178 C199 0.950 . S
H179 C202 0.950 . S
H180 C203 0.950 . S
H181 C205 0.950 . S
H182 C206 0.950 . S
H183 C207 0.951 . S
H184 C209 0.951 . S
H185 C211 0.950 . S
H186 C212 0.950 . S
H187 C214 0.950 . S
H188 C217 0.950 . S
H189 C218 0.950 . S
H190 C220 0.950 . S
H191 C221 0.950 . S
C192 H174 0.951 . S
C192 C193 1.366 . S
C192 C194 1.388 . S
C193 C192 1.366 . S
C193 C197 1.385 . S
C194 H175 0.951 . S
C194 C192 1.388 . S
C194 C195 1.366 . S
C195 C194 1.366 . S
C195 C196 1.414 . S
C195 C198 1.499 . S
C196 H176 0.950 . S
C196 C195 1.414 . S
C196 C197 1.374 . S
C197 H177 0.950 . S
C197 C193 1.385 . S
C197 C196 1.374 . S
C198 C195 1.499 . S
C198 C199 1.373 . S
C198 C200 1.389 . S
C199 H178 0.950 . S
C199 C198 1.373 . S
C199 C215 1.377 . S
C200 C198 1.389 . S
C200 C201 1.524 . S
C200 C214 1.377 . S
C201 C200 1.524 . S
C201 C202 1.397 . S
C201 C206 1.363 . S
C202 H179 0.950 . S
C202 C201 1.397 . S
C202 C203 1.334 . S
C203 H180 0.950 . S
C203 C202 1.334 . S
C203 C204 1.287 . S
C204 C203 1.287 . S
C204 C205 1.524 . S
C204 H223 0.913 . S
C205 H181 0.950 . S
C205 C204 1.524 . S
C205 C206 1.415 . S
C206 H182 0.950 . S
C206 C201 1.363 . S
C206 C205 1.415 . S
C207 H183 0.951 . S
C207 C208 1.366 . S
C207 C209 1.388 . S
C208 C207 1.366 . S
C208 C212 1.385 . S
C209 H184 0.951 . S
C209 C207 1.388 . S
C209 C210 1.366 . S
C210 C209 1.366 . S
C210 C211 1.414 . S
C210 C213 1.499 . S
C211 H185 0.950 . S
C211 C210 1.414 . S
C211 C212 1.374 . S
C212 H186 0.950 . S
C212 C208 1.385 . S
C212 C211 1.374 . S
C213 C210 1.499 . S
C213 C214 1.373 . S
C213 C215 1.389 . S
C214 H187 0.950 . S
C214 C200 1.377 . S
C214 C213 1.373 . S
C215 C199 1.377 . S
C215 C213 1.389 . S
C215 C216 1.524 . S
C216 C215 1.524 . S
C216 C217 1.397 . S
C216 C221 1.363 . S
C217 H188 0.950 . S
C217 C216 1.397 . S
C217 C218 1.334 . S
C218 H189 0.950 . S
C218 C217 1.334 . S
C218 C219 1.287 . S
C219 C218 1.287 . S
C219 C220 1.524 . S
C219 H222 0.999 . S
C220 H190 0.950 . S
C220 C219 1.524 . S
C220 C221 1.415 . S
C221 H191 0.950 . S
C221 C216 1.363 . S
C221 C220 1.415 . S
H222 C219 0.999 . S
H223 C204 0.913 . S
H224 C242 0.951 . S
H225 C244 0.951 . S
H226 C246 0.950 . S
H227 C247 0.950 . S
H228 C249 0.950 . S
H229 C252 0.950 . S
H230 C253 0.950 . S
H231 C255 0.950 . S
H232 C256 0.950 . S
H233 C257 0.951 . S
H234 C259 0.951 . S
H235 C261 0.950 . S
H236 C262 0.950 . S
H237 C264 0.950 . S
H238 C267 0.950 . S
H239 C268 0.950 . S
H240 C270 0.950 . S
H241 C271 0.950 . S
C242 H224 0.951 . S
C242 C243 1.366 . S
C242 C244 1.388 . S
C243 C242 1.366 . S
C243 C247 1.385 . S
C244 H225 0.951 . S
C244 C242 1.388 . S
C244 C245 1.366 . S
C245 C244 1.366 . S
C245 C246 1.414 . S
C245 C248 1.499 . S
C246 H226 0.950 . S
C246 C245 1.414 . S
C246 C247 1.374 . S
C247 H227 0.950 . S
C247 C243 1.385 . S
C247 C246 1.374 . S
C248 C245 1.499 . S
C248 C249 1.373 . S
C248 C250 1.389 . S
C249 H228 0.950 . S
C249 C248 1.373 . S
C249 C265 1.377 1_556 S
C250 C248 1.389 . S
C250 C251 1.524 . S
C250 C264 1.377 1_556 S
C251 C250 1.524 . S
C251 C252 1.397 . S
C251 C256 1.363 . S
C252 H229 0.950 . S
C252 C251 1.397 . S
C252 C253 1.334 . S
C253 H230 0.950 . S
C253 C252 1.334 . S
C253 C254 1.287 . S
C254 C253 1.287 . S
C254 C255 1.524 . S
C254 H273 0.913 . S
C255 H231 0.950 . S
C255 C254 1.524 . S
C255 C256 1.415 . S
C256 H232 0.950 . S
C256 C251 1.363 . S
C256 C255 1.415 . S
C257 H233 0.951 . S
C257 C258 1.366 . S
C257 C259 1.388 . S
C258 C257 1.366 . S
C258 C262 1.385 . S
C259 H234 0.951 . S
C259 C257 1.388 . S
C259 C260 1.366 . S
C260 C259 1.366 . S
C260 C261 1.414 . S
C260 C263 1.499 . S
C261 H235 0.950 . S
C261 C260 1.414 . S
C261 C262 1.374 . S
C262 H236 0.950 . S
C262 C258 1.385 . S
C262 C261 1.374 . S
C263 C260 1.499 . S
C263 C264 1.373 . S
C263 C265 1.389 . S
C264 H237 0.950 . S
C264 C250 1.377 1_554 S
C264 C263 1.373 . S
C265 C249 1.377 1_554 S
C265 C263 1.389 . S
C265 C266 1.524 . S
C266 C265 1.524 . S
C266 C267 1.397 . S
C266 C271 1.363 . S
C267 H238 0.950 . S
C267 C266 1.397 . S
C267 C268 1.334 . S
C268 H239 0.950 . S
C268 C267 1.334 . S
C268 C269 1.287 . S
C269 C268 1.287 . S
C269 C270 1.524 . S
C269 H272 0.999 . S
C270 H240 0.950 . S
C270 C269 1.524 . S
C270 C271 1.415 . S
C271 H241 0.950 . S
C271 C266 1.363 . S
C271 C270 1.415 . S
H272 C269 0.999 . S
H273 C254 0.913 . S
H274 C292 0.951 . S
H275 C294 0.951 . S
H276 C296 0.950 . S
H277 C297 0.950 . S
H278 C299 0.950 . S
H279 C302 0.950 . S
H280 C303 0.950 . S
H281 C305 0.950 1_455 S
H282 C306 0.950 . S
H283 C307 0.951 . S
H284 C309 0.951 . S
H285 C311 0.950 . S
H286 C312 0.950 . S
H287 C314 0.950 . S
H288 C317 0.950 . S
H289 C318 0.950 . S
H290 C320 0.950 . S
H291 C321 0.950 . S
C292 H274 0.951 . S
C292 C293 1.366 . S
C292 C294 1.388 . S
C293 C292 1.366 . S
C293 C297 1.385 . S
C294 H275 0.951 . S
C294 C292 1.388 . S
C294 C295 1.366 . S
C295 C294 1.366 . S
C295 C296 1.414 . S
C295 C298 1.499 . S
C296 H276 0.950 . S
C296 C295 1.414 . S
C296 C297 1.374 . S
C297 H277 0.950 . S
C297 C293 1.385 . S
C297 C296 1.374 . S
C298 C295 1.499 . S
C298 C299 1.373 . S
C298 C300 1.389 . S
C299 H278 0.950 . S
C299 C298 1.373 . S
C299 C315 1.377 . S
C300 C298 1.389 . S
C300 C301 1.524 . S
C300 C314 1.377 . S
C301 C300 1.524 . S
C301 C302 1.397 . S
C301 C306 1.363 . S
C302 H279 0.950 . S
C302 C301 1.397 . S
C302 C303 1.334 . S
C303 H280 0.950 . S
C303 C302 1.334 . S
C303 C304 1.287 . S
C304 C303 1.287 . S
C304 C305 1.524 . S
C304 H323 0.913 1_655 S
C305 H281 0.950 1_655 S
C305 C304 1.524 . S
C305 C306 1.415 . S
C306 H282 0.950 . S
C306 C301 1.363 . S
C306 C305 1.415 . S
C307 H283 0.951 . S
C307 C308 1.366 . S
C307 C309 1.388 . S
C308 C307 1.366 . S
C308 C312 1.385 . S
C309 H284 0.951 . S
C309 C307 1.388 . S
C309 C310 1.366 . S
C310 C309 1.366 . S
C310 C311 1.414 . S
C310 C313 1.499 . S
C311 H285 0.950 . S
C311 C310 1.414 . S
C311 C312 1.374 . S
C312 H286 0.950 . S
C312 C308 1.385 . S
C312 C311 1.374 . S
C313 C310 1.499 . S
C313 C314 1.373 . S
C313 C315 1.389 . S
C314 H287 0.950 . S
C314 C300 1.377 . S
C314 C313 1.373 . S
C315 C299 1.377 . S
C315 C313 1.389 . S
C315 C316 1.524 . S
C316 C315 1.524 . S
C316 C317 1.397 . S
C316 C321 1.363 . S
C317 H288 0.950 . S
C317 C316 1.397 . S
C317 C318 1.334 . S
C318 H289 0.950 . S
C318 C317 1.334 . S
C318 C319 1.287 . S
C319 C318 1.287 . S
C319 C320 1.524 . S
C319 H322 0.999 . S
C320 H290 0.950 . S
C320 C319 1.524 . S
C320 C321 1.415 . S
C321 H291 0.950 . S
C321 C316 1.363 . S
C321 C320 1.415 . S
H322 C319 0.999 . S
H323 C304 0.913 1_455 S
H324 C342 0.951 . S
H325 C344 0.951 . S
H326 C346 0.950 . S
H327 C347 0.950 . S
H328 C349 0.950 . S
H329 C352 0.950 . S
H330 C353 0.950 . S
H331 C355 0.950 . S
H332 C356 0.950 . S
H333 C357 0.951 . S
H334 C359 0.951 . S
H335 C361 0.950 . S
H336 C362 0.950 . S
H337 C364 0.950 . S
H338 C367 0.950 . S
H339 C368 0.950 1_655 S
H340 C370 0.950 1_655 S
H341 C371 0.950 . S
C342 H324 0.951 . S
C342 C343 1.366 . S
C342 C344 1.388 . S
C343 C342 1.366 . S
C343 C347 1.385 . S
C344 H325 0.951 . S
C344 C342 1.388 . S
C344 C345 1.366 . S
C345 C344 1.366 . S
C345 C346 1.414 . S
C345 C348 1.499 . S
C346 H326 0.950 . S
C346 C345 1.414 . S
C346 C347 1.374 . S
C347 H327 0.950 . S
C347 C343 1.385 . S
C347 C346 1.374 . S
C348 C345 1.499 . S
C348 C349 1.373 . S
C348 C350 1.389 . S
C349 H328 0.950 . S
C349 C348 1.373 . S
C349 C365 1.377 . S
C350 C348 1.389 . S
C350 C351 1.524 . S
C350 C364 1.377 . S
C351 C350 1.524 . S
C351 C352 1.397 . S
C351 C356 1.363 . S
C352 H329 0.950 . S
C352 C351 1.397 . S
C352 C353 1.334 . S
C353 H330 0.950 . S
C353 C352 1.334 . S
C353 C354 1.287 . S
C354 C353 1.287 . S
C354 C355 1.524 . S
C354 H373 0.913 . S
C355 H331 0.950 . S
C355 C354 1.524 . S
C355 C356 1.415 . S
C356 H332 0.950 . S
C356 C351 1.363 . S
C356 C355 1.415 . S
C357 H333 0.951 . S
C357 C358 1.366 . S
C357 C359 1.388 . S
C358 C357 1.366 . S
C358 C362 1.385 . S
C359 H334 0.951 . S
C359 C357 1.388 . S
C359 C360 1.366 . S
C360 C359 1.366 . S
C360 C361 1.414 . S
C360 C363 1.499 . S
C361 H335 0.950 . S
C361 C360 1.414 . S
C361 C362 1.374 . S
C362 H336 0.950 . S
C362 C358 1.385 . S
C362 C361 1.374 . S
C363 C360 1.499 . S
C363 C364 1.373 . S
C363 C365 1.389 . S
C364 H337 0.950 . S
C364 C350 1.377 . S
C364 C363 1.373 . S
C365 C349 1.377 . S
C365 C363 1.389 . S
C365 C366 1.524 . S
C366 C365 1.524 . S
C366 C367 1.397 . S
C366 C371 1.363 . S
C367 H338 0.950 . S
C367 C366 1.397 . S
C367 C368 1.334 . S
C368 H339 0.950 1_455 S
C368 C367 1.334 . S
C368 C369 1.287 1_455 S
C369 C368 1.287 1_655 S
C369 C370 1.524 1_655 S
C369 H372 0.999 . S
C370 H340 0.950 1_455 S
C370 C369 1.524 1_455 S
C370 C371 1.415 . S
C371 H341 0.950 . S
C371 C366 1.363 . S
C371 C370 1.415 . S
H372 C369 0.999 . S
H373 C354 0.913 . S
H374 C392 0.951 . S
H375 C394 0.951 . S
H376 C396 0.950 . S
H377 C397 0.950 . S
H378 C399 0.950 . S
H379 C402 0.950 . S
H380 C403 0.950 . S
H381 C405 0.950 . S
H382 C406 0.950 . S
H383 C407 0.951 . S
H384 C409 0.951 . S
H385 C411 0.950 . S
H386 C412 0.950 . S
H387 C414 0.950 . S
H388 C417 0.950 . S
H389 C418 0.950 . S
H390 C420 0.950 . S
H391 C421 0.950 . S
C392 H374 0.951 . S
C392 C393 1.366 . S
C392 C394 1.388 . S
C393 C392 1.366 . S
C393 C397 1.385 . S
C394 H375 0.951 . S
C394 C392 1.388 . S
C394 C395 1.366 . S
C395 C394 1.366 . S
C395 C396 1.414 . S
C395 C398 1.499 . S
C396 H376 0.950 . S
C396 C395 1.414 . S
C396 C397 1.374 . S
C397 H377 0.950 . S
C397 C393 1.385 . S
C397 C396 1.374 . S
C398 C395 1.499 . S
C398 C399 1.373 . S
C398 C400 1.389 . S
C399 H378 0.950 . S
C399 C398 1.373 . S
C399 C415 1.377 . S
C400 C398 1.389 . S
C400 C401 1.524 . S
C400 C414 1.377 . S
C401 C400 1.524 . S
C401 C402 1.397 . S
C401 C406 1.363 . S
C402 H379 0.950 . S
C402 C401 1.397 . S
C402 C403 1.334 . S
C403 H380 0.950 . S
C403 C402 1.334 . S
C403 C404 1.287 . S
C404 C403 1.287 . S
C404 C405 1.524 . S
C404 H423 0.913 . S
C405 H381 0.950 . S
C405 C404 1.524 . S
C405 C406 1.415 . S
C406 H382 0.950 . S
C406 C401 1.363 . S
C406 C405 1.415 . S
C407 H383 0.951 . S
C407 C408 1.366 . S
C407 C409 1.388 . S
C408 C407 1.366 . S
C408 C412 1.385 . S
C409 H384 0.951 . S
C409 C407 1.388 . S
C409 C410 1.366 . S
C410 C409 1.366 . S
C410 C411 1.414 . S
C410 C413 1.499 . S
C411 H385 0.950 . S
C411 C410 1.414 . S
C411 C412 1.374 . S
C412 H386 0.950 . S
C412 C408 1.385 . S
C412 C411 1.374 . S
C413 C410 1.499 . S
C413 C414 1.373 . S
C413 C415 1.389 . S
C414 H387 0.950 . S
C414 C400 1.377 . S
C414 C413 1.373 . S
C415 C399 1.377 . S
C415 C413 1.389 . S
C415 C416 1.524 . S
C416 C415 1.524 . S
C416 C417 1.397 . S
C416 C421 1.363 . S
C417 H388 0.950 . S
C417 C416 1.397 . S
C417 C418 1.334 1_565 S
C418 H389 0.950 . S
C418 C417 1.334 1_545 S
C418 C419 1.287 . S
C419 C418 1.287 . S
C419 C420 1.524 . S
C419 H422 0.999 . S
C420 H390 0.950 . S
C420 C419 1.524 . S
C420 C421 1.415 1_545 S
C421 H391 0.950 . S
C421 C416 1.363 . S
C421 C420 1.415 1_565 S
H422 C419 0.999 . S
H423 C404 0.913 . S
H424 C442 0.951 . S
H425 C444 0.951 1_545 S
H426 C446 0.950 . S
H427 C447 0.950 . S
H428 C449 0.950 . S
H429 C452 0.950 . S
H430 C453 0.950 . S
H431 C455 0.950 . S
H432 C456 0.950 . S
H433 C457 0.951 . S
H434 C459 0.951 1_565 S
H435 C461 0.950 . S
H436 C462 0.950 . S
H437 C464 0.950 . S
H438 C467 0.950 . S
H439 C468 0.950 . S
H440 C470 0.950 . S
H441 C471 0.950 . S
C442 H424 0.951 . S
C442 C443 1.366 . S
C442 C444 1.388 . S
C443 C442 1.366 . S
C443 C447 1.385 . S
C444 H425 0.951 1_565 S
C444 C442 1.388 . S
C444 C445 1.366 . S
C445 C444 1.366 . S
C445 C446 1.414 . S
C445 C448 1.499 . S
C446 H426 0.950 . S
C446 C445 1.414 . S
C446 C447 1.374 . S
C447 H427 0.950 . S
C447 C443 1.385 . S
C447 C446 1.374 . S
C448 C445 1.499 . S
C448 C449 1.373 . S
C448 C450 1.389 1_565 S
C449 H428 0.950 . S
C449 C448 1.373 . S
C449 C465 1.377 1_556 S
C450 C448 1.389 1_545 S
C450 C451 1.524 . S
C450 C464 1.377 1_556 S
C451 C450 1.524 . S
C451 C452 1.397 1_545 S
C451 C456 1.363 . S
C452 H429 0.950 . S
C452 C451 1.397 1_565 S
C452 C453 1.334 . S
C453 H430 0.950 . S
C453 C452 1.334 . S
C453 C454 1.287 1_565 S
C454 C453 1.287 1_545 S
C454 C455 1.524 . S
C454 H473 0.913 . S
C455 H431 0.950 . S
C455 C454 1.524 . S
C455 C456 1.415 . S
C456 H432 0.950 . S
C456 C451 1.363 . S
C456 C455 1.415 . S
C457 H433 0.951 . S
C457 C458 1.366 . S
C457 C459 1.388 . S
C458 C457 1.366 . S
C458 C462 1.385 . S
C459 H434 0.951 1_545 S
C459 C457 1.388 . S
C459 C460 1.366 . S
C460 C459 1.366 . S
C460 C461 1.414 . S
C460 C463 1.499 . S
C461 H435 0.950 . S
C461 C460 1.414 . S
C461 C462 1.374 . S
C462 H436 0.950 . S
C462 C458 1.385 . S
C462 C461 1.374 . S
C463 C460 1.499 . S
C463 C464 1.373 . S
C463 C465 1.389 1_545 S
C464 H437 0.950 . S
C464 C450 1.377 1_554 S
C464 C463 1.373 . S
C465 C449 1.377 1_554 S
C465 C463 1.389 1_565 S
C465 C466 1.524 . S
C466 C465 1.524 . S
C466 C467 1.397 1_565 S
C466 C471 1.363 . S
C467 H438 0.950 . S
C467 C466 1.397 1_545 S
C467 C468 1.334 . S
C468 H439 0.950 . S
C468 C467 1.334 . S
C468 C469 1.287 1_545 S
C469 C468 1.287 1_565 S
C469 C470 1.524 . S
C469 H472 0.999 . S
C470 H440 0.950 . S
C470 C469 1.524 . S
C470 C471 1.415 . S
C471 H441 0.950 . S
C471 C466 1.363 . S
C471 C470 1.415 . S
H472 C469 0.999 . S
H473 C454 0.913 . S
H474 C492 0.951 . S
H475 C494 0.951 . S
H476 C496 0.950 1_565 S
H477 C497 0.950 . S
H478 C499 0.950 1_655 S
H479 C502 0.950 . S
H480 C503 0.950 . S
H481 C505 0.950 . S
H482 C506 0.950 . S
H483 C507 0.951 . S
H484 C509 0.951 . S
H485 C511 0.950 1_545 S
H486 C512 0.950 . S
H487 C514 0.950 . S
H488 C517 0.950 . S
H489 C518 0.950 . S
H490 C520 0.950 . S
H491 C521 0.950 . S
C492 H474 0.951 . S
C492 C493 1.366 . S
C492 C494 1.388 . S
C493 C492 1.366 . S
C493 C497 1.385 . S
C494 H475 0.951 . S
C494 C492 1.388 . S
C494 C495 1.366 . S
C495 C494 1.366 . S
C495 C496 1.414 . S
C495 C498 1.499 . S
C496 H476 0.950 1_545 S
C496 C495 1.414 . S
C496 C497 1.374 . S
C497 H477 0.950 . S
C497 C493 1.385 . S
C497 C496 1.374 . S
C498 C495 1.499 . S
C498 C499 1.373 1_545 S
C498 C500 1.389 . S
C499 H478 0.950 1_455 S
C499 C498 1.373 1_565 S
C499 C515 1.377 . S
C500 C498 1.389 . S
C500 C501 1.524 . S
C500 C514 1.377 . S
C501 C500 1.524 . S
C501 C502 1.397 . S
C501 C506 1.363 . S
C502 H479 0.950 . S
C502 C501 1.397 . S
C502 C503 1.334 . S
C503 H480 0.950 . S
C503 C502 1.334 . S
C503 C504 1.287 . S
C504 C503 1.287 . S
C504 C505 1.524 . S
C504 H523 0.913 . S
C505 H481 0.950 . S
C505 C504 1.524 . S
C505 C506 1.415 . S
C506 H482 0.950 . S
C506 C501 1.363 . S
C506 C505 1.415 . S
C507 H483 0.951 . S
C507 C508 1.366 . S
C507 C509 1.388 . S
C508 C507 1.366 . S
C508 C512 1.385 . S
C509 H484 0.951 . S
C509 C507 1.388 . S
C509 C510 1.366 . S
C510 C509 1.366 . S
C510 C511 1.414 . S
C510 C513 1.499 . S
C511 H485 0.950 1_565 S
C511 C510 1.414 . S
C511 C512 1.374 . S
C512 H486 0.950 . S
C512 C508 1.385 . S
C512 C511 1.374 . S
C513 C510 1.499 . S
C513 C514 1.373 1_565 S
C513 C515 1.389 . S
C514 H487 0.950 . S
C514 C500 1.377 . S
C514 C513 1.373 1_545 S
C515 C499 1.377 . S
C515 C513 1.389 . S
C515 C516 1.524 1_455 S
C516 C515 1.524 1_655 S
C516 C517 1.397 . S
C516 C521 1.363 . S
C517 H488 0.950 . S
C517 C516 1.397 . S
C517 C518 1.334 . S
C518 H489 0.950 . S
C518 C517 1.334 . S
C518 C519 1.287 . S
C519 C518 1.287 . S
C519 C520 1.524 . S
C519 H522 0.999 . S
C520 H490 0.950 . S
C520 C519 1.524 . S
C520 C521 1.415 . S
C521 H491 0.950 . S
C521 C516 1.363 . S
C521 C520 1.415 . S
H522 C519 0.999 . S
H523 C504 0.913 . S
H524 C542 0.951 1_545 S
H525 C544 0.951 . S
H526 C546 0.950 . S
H527 C547 0.950 1_545 S
H528 C549 0.950 . S
H529 C552 0.950 1_655 S
H530 C553 0.950 . S
H531 C555 0.950 . S
H532 C556 0.950 . S
H533 C557 0.951 . S
H534 C559 0.951 . S
H535 C561 0.950 . S
H536 C562 0.950 . S
H537 C564 0.950 . S
H538 C567 0.950 1_455 S
H539 C568 0.950 . S
H540 C570 0.950 . S
H541 C571 0.950 . S
C542 H524 0.951 1_565 S
C542 C543 1.364 1_465 S
C542 C544 1.388 . S
C543 C542 1.364 1_645 S
C543 C547 1.386 1_545 S
C544 H525 0.951 . S
C544 C542 1.388 . S
C544 C545 1.351 1_455 S
C545 C544 1.351 1_655 S
C545 C546 1.429 . S
C545 C548 1.499 . S
C546 H526 0.950 . S
C546 C545 1.429 . S
C546 C547 1.374 . S
C547 H527 0.950 1_565 S
C547 C543 1.386 1_565 S
C547 C546 1.374 . S
C548 C545 1.499 . S
C548 C549 1.373 . S
C548 C550 1.389 1_655 S
C549 H528 0.950 . S
C549 C548 1.373 . S
C549 C565 1.377 . S
C550 C548 1.389 1_455 S
C550 C551 1.524 . S
C550 C564 1.377 . S
C551 C550 1.524 . S
C551 C552 1.397 . S
C551 C556 1.363 . S
C552 H529 0.950 1_455 S
C552 C551 1.397 . S
C552 C553 1.334 . S
C553 H530 0.950 . S
C553 C552 1.334 . S
C553 C554 1.287 . S
C554 C553 1.287 . S
C554 C555 1.524 . S
C554 H573 0.913 . S
C555 H531 0.950 . S
C555 C554 1.524 . S
C555 C556 1.415 . S
C556 H532 0.950 . S
C556 C551 1.363 . S
C556 C555 1.415 . S
C557 H533 0.951 . S
C557 C558 1.366 . S
C557 C559 1.388 . S
C558 C557 1.366 . S
C558 C562 1.384 1_655 S
C559 H534 0.951 . S
C559 C557 1.388 . S
C559 C560 1.356 1_655 S
C560 C559 1.356 1_455 S
C560 C561 1.423 . S
C560 C563 1.499 . S
C561 H535 0.950 . S
C561 C560 1.423 . S
C561 C562 1.374 . S
C562 H536 0.950 . S
C562 C558 1.384 1_455 S
C562 C561 1.374 . S
C563 C560 1.499 . S
C563 C564 1.373 . S
C563 C565 1.389 1_455 S
C564 H537 0.950 . S
C564 C550 1.377 . S
C564 C563 1.373 . S
C565 C549 1.377 . S
C565 C563 1.389 1_655 S
C565 C566 1.524 . S
C566 C565 1.524 . S
C566 C567 1.397 . S
C566 C571 1.363 . S
C567 H538 0.950 1_655 S
C567 C566 1.397 . S
C567 C568 1.334 . S
C568 H539 0.950 . S
C568 C567 1.334 . S
C568 C569 1.287 . S
C569 C568 1.287 . S
C569 C570 1.524 . S
C569 H572 0.999 . S
C570 H540 0.950 . S
C570 C569 1.524 . S
C570 C571 1.415 . S
C571 H541 0.950 . S
C571 C566 1.363 . S
C571 C570 1.415 . S
H572 C569 0.999 . S
H573 C554 0.913 . S
H574 C592 0.951 . S
H575 C594 0.951 . S
H576 C596 0.950 . S
H577 C597 0.950 . S
H578 C599 0.950 . S
H579 C602 0.950 . S
H580 C603 0.950 . S
H581 C605 0.950 . S
H582 C606 0.950 . S
H583 C607 0.951 . S
H584 C609 0.951 . S
H585 C611 0.950 . S
H586 C612 0.950 . S
H587 C614 0.950 . S
H588 C617 0.950 . S
H589 C618 0.950 . S
H590 C620 0.950 . S
H591 C621 0.950 . S
C592 H574 0.951 . S
C592 C593 1.366 . S
C592 C594 1.388 . S
C593 C592 1.366 . S
C593 C597 1.385 . S
C594 H575 0.951 . S
C594 C592 1.388 . S
C594 C595 1.366 . S
C595 C594 1.366 . S
C595 C596 1.414 . S
C595 C598 1.499 . S
C596 H576 0.950 . S
C596 C595 1.414 . S
C596 C597 1.374 . S
C597 H577 0.950 . S
C597 C593 1.385 . S
C597 C596 1.374 . S
C598 C595 1.499 . S
C598 C599 1.373 . S
C598 C600 1.389 . S
C599 H578 0.950 . S
C599 C598 1.373 . S
C599 C615 1.377 . S
C600 C598 1.389 . S
C600 C601 1.524 . S
C600 C614 1.377 . S
C601 C600 1.524 . S
C601 C602 1.397 . S
C601 C606 1.363 . S
C602 H579 0.950 . S
C602 C601 1.397 . S
C602 C603 1.334 . S
C603 H580 0.950 . S
C603 C602 1.334 . S
C603 C604 1.287 . S
C604 C603 1.287 . S
C604 C605 1.524 . S
C604 H623 0.913 . S
C605 H581 0.950 . S
C605 C604 1.524 . S
C605 C606 1.415 . S
C606 H582 0.950 . S
C606 C601 1.363 . S
C606 C605 1.415 . S
C607 H583 0.951 . S
C607 C608 1.366 . S
C607 C609 1.388 . S
C608 C607 1.366 . S
C608 C612 1.385 . S
C609 H584 0.951 . S
C609 C607 1.388 . S
C609 C610 1.366 . S
C610 C609 1.366 . S
C610 C611 1.414 . S
C610 C613 1.499 . S
C611 H585 0.950 . S
C611 C610 1.414 . S
C611 C612 1.374 . S
C612 H586 0.950 . S
C612 C608 1.385 . S
C612 C611 1.374 . S
C613 C610 1.499 . S
C613 C614 1.373 . S
C613 C615 1.389 . S
C614 H587 0.950 . S
C614 C600 1.377 . S
C614 C613 1.373 . S
C615 C599 1.377 . S
C615 C613 1.389 . S
C615 C616 1.524 . S
C616 C615 1.524 . S
C616 C617 1.397 . S
C616 C621 1.363 . S
C617 H588 0.950 . S
C617 C616 1.397 . S
C617 C618 1.334 . S
C618 H589 0.950 . S
C618 C617 1.334 . S
C618 C619 1.287 . S
C619 C618 1.287 . S
C619 C620 1.524 . S
C619 H622 0.999 . S
C620 H590 0.950 . S
C620 C619 1.524 . S
C620 C621 1.415 . S
C621 H591 0.950 . S
C621 C616 1.363 . S
C621 C620 1.415 . S
H622 C619 0.999 . S
H623 C604 0.913 . S
H624 C642 0.951 . S
H625 C644 0.951 . S
H626 C646 0.950 . S
H627 C647 0.950 . S
H628 C649 0.950 . S
H629 C652 0.950 . S
H630 C653 0.950 . S
H631 C655 0.950 . S
H632 C656 0.950 . S
H633 C657 0.951 . S
H634 C659 0.951 . S
H635 C661 0.950 . S
H636 C662 0.950 . S
H637 C664 0.950 . S
H638 C667 0.950 . S
H639 C668 0.950 . S
H640 C670 0.950 . S
H641 C671 0.950 . S
C642 H624 0.951 . S
C642 C643 1.366 . S
C642 C644 1.388 . S
C643 C642 1.366 . S
C643 C647 1.385 . S
C644 H625 0.951 . S
C644 C642 1.388 . S
C644 C645 1.366 . S
C645 C644 1.366 . S
C645 C646 1.414 . S
C645 C648 1.499 . S
C646 H626 0.950 . S
C646 C645 1.414 . S
C646 C647 1.374 . S
C647 H627 0.950 . S
C647 C643 1.385 . S
C647 C646 1.374 . S
C648 C645 1.499 . S
C648 C649 1.373 . S
C648 C650 1.389 . S
C649 H628 0.950 . S
C649 C648 1.373 . S
C649 C665 1.377 . S
C650 C648 1.389 . S
C650 C651 1.524 . S
C650 C664 1.377 . S
C651 C650 1.524 . S
C651 C652 1.397 . S
C651 C656 1.363 . S
C652 H629 0.950 . S
C652 C651 1.397 . S
C652 C653 1.334 . S
C653 H630 0.950 . S
C653 C652 1.334 . S
C653 C654 1.287 . S
C654 C653 1.287 . S
C654 C655 1.524 . S
C654 H673 0.913 . S
C655 H631 0.950 . S
C655 C654 1.524 . S
C655 C656 1.415 . S
C656 H632 0.950 . S
C656 C651 1.363 . S
C656 C655 1.415 . S
C657 H633 0.951 . S
C657 C658 1.366 . S
C657 C659 1.388 1_565 S
C658 C657 1.366 . S
C658 C662 1.385 . S
C659 H634 0.951 . S
C659 C657 1.388 1_545 S
C659 C660 1.366 . S
C660 C659 1.366 . S
C660 C661 1.414 . S
C660 C663 1.499 . S
C661 H635 0.950 . S
C661 C660 1.414 . S
C661 C662 1.374 1_545 S
C662 H636 0.950 . S
C662 C658 1.385 . S
C662 C661 1.374 1_565 S
C663 C660 1.499 . S
C663 C664 1.373 . S
C663 C665 1.389 . S
C664 H637 0.950 . S
C664 C650 1.377 . S
C664 C663 1.373 . S
C665 C649 1.377 . S
C665 C663 1.389 . S
C665 C666 1.524 . S
C666 C665 1.524 . S
C666 C667 1.397 . S
C666 C671 1.363 . S
C667 H638 0.950 . S
C667 C666 1.397 . S
C667 C668 1.334 . S
C668 H639 0.950 . S
C668 C667 1.334 . S
C668 C669 1.287 . S
C669 C668 1.287 . S
C669 C670 1.524 . S
C669 H672 0.999 . S
C670 H640 0.950 . S
C670 C669 1.524 . S
C670 C671 1.415 . S
C671 H641 0.950 . S
C671 C666 1.363 . S
C671 C670 1.415 . S
H672 C669 0.999 . S
H673 C654 0.913 . S
H674 C692 0.951 . S
H675 C694 0.951 . S
H676 C696 0.950 . S
H677 C697 0.950 . S
H678 C699 0.950 . S
H679 C702 0.950 . S
H680 C703 0.950 . S
H681 C705 0.950 . S
H682 C706 0.950 . S
H683 C707 0.951 . S
H684 C709 0.951 . S
H685 C711 0.950 . S
H686 C712 0.950 . S
H687 C714 0.950 . S
H688 C717 0.950 . S
H689 C718 0.950 . S
H690 C720 0.950 . S
H691 C721 0.950 . S
C692 H674 0.951 . S
C692 C693 1.366 . S
C692 C694 1.388 . S
C693 C692 1.366 . S
C693 C697 1.385 . S
C694 H675 0.951 . S
C694 C692 1.388 . S
C694 C695 1.366 . S
C695 C694 1.366 . S
C695 C696 1.414 . S
C695 C698 1.499 . S
C696 H676 0.950 . S
C696 C695 1.414 . S
C696 C697 1.374 . S
C697 H677 0.950 . S
C697 C693 1.385 . S
C697 C696 1.374 . S
C698 C695 1.499 . S
C698 C699 1.373 . S
C698 C700 1.389 . S
C699 H678 0.950 . S
C699 C698 1.373 . S
C699 C715 1.377 1_455 S
C700 C698 1.389 . S
C700 C701 1.524 . S
C700 C714 1.377 1_455 S
C701 C700 1.524 . S
C701 C702 1.397 . S
C701 C706 1.363 . S
C702 H679 0.950 . S
C702 C701 1.397 . S
C702 C703 1.334 . S
C703 H680 0.950 . S
C703 C702 1.334 . S
C703 C704 1.287 . S
C704 C703 1.287 . S
C704 C705 1.524 . S
C704 H723 0.913 . S
C705 H681 0.950 . S
C705 C704 1.524 . S
C705 C706 1.415 . S
C706 H682 0.950 . S
C706 C701 1.363 . S
C706 C705 1.415 . S
C707 H683 0.951 . S
C707 C708 1.366 . S
C707 C709 1.388 . S
C708 C707 1.366 . S
C708 C712 1.385 . S
C709 H684 0.951 . S
C709 C707 1.388 . S
C709 C710 1.366 . S
C710 C709 1.366 . S
C710 C711 1.414 . S
C710 C713 1.499 . S
C711 H685 0.950 . S
C711 C710 1.414 . S
C711 C712 1.374 . S
C712 H686 0.950 . S
C712 C708 1.385 . S
C712 C711 1.374 . S
C713 C710 1.499 . S
C713 C714 1.373 . S
C713 C715 1.389 . S
C714 H687 0.950 . S
C714 C700 1.377 1_655 S
C714 C713 1.373 . S
C715 C699 1.377 1_655 S
C715 C713 1.389 . S
C715 C716 1.524 . S
C716 C715 1.524 . S
C716 C717 1.397 . S
C716 C721 1.363 . S
C717 H688 0.950 . S
C717 C716 1.397 . S
C717 C718 1.334 . S
C718 H689 0.950 . S
C718 C717 1.334 . S
C718 C719 1.287 . S
C719 C718 1.287 . S
C719 C720 1.524 . S
C719 H722 0.999 . S
C720 H690 0.950 . S
C720 C719 1.524 . S
C720 C721 1.415 . S
C721 H691 0.950 . S
C721 C716 1.363 . S
C721 C720 1.415 . S
H722 C719 0.999 . S
H723 C704 0.913 . S
H724 C742 0.951 1_565 S
H725 C744 0.951 . S
H726 C746 0.950 . S
H727 C747 0.950 1_565 S
H728 C749 0.950 . S
H729 C752 0.950 . S
H730 C753 0.950 . S
H731 C755 0.950 . S
H732 C756 0.950 . S
H733 C757 0.951 . S
H734 C759 0.951 . S
H735 C761 0.950 . S
H736 C762 0.950 . S
H737 C764 0.950 . S
H738 C767 0.950 . S
H739 C768 0.950 . S
H740 C770 0.950 . S
H741 C771 0.950 . S
C742 H724 0.951 1_545 S
C742 C743 1.365 1_445 S
C742 C744 1.388 . S
C743 C742 1.365 1_665 S
C743 C747 1.386 1_565 S
C744 H725 0.951 . S
C744 C742 1.388 . S
C744 C745 1.366 . S
C745 C744 1.366 . S
C745 C746 1.414 1_455 S
C745 C748 1.499 . S
C746 H726 0.950 . S
C746 C745 1.414 1_655 S
C746 C747 1.374 . S
C747 H727 0.950 1_545 S
C747 C743 1.386 1_545 S
C747 C746 1.374 . S
C748 C745 1.499 . S
C748 C749 1.373 1_455 S
C748 C750 1.389 . S
C749 H728 0.950 . S
C749 C748 1.373 1_655 S
C749 C765 1.377 . S
C750 C748 1.389 . S
C750 C751 1.524 . S
C750 C764 1.377 . S
C751 C750 1.524 . S
C751 C752 1.397 . S
C751 C756 1.363 . S
C752 H729 0.950 . S
C752 C751 1.397 . S
C752 C753 1.334 . S
C753 H730 0.950 . S
C753 C752 1.334 . S
C753 C754 1.287 . S
C754 C753 1.287 . S
C754 C755 1.524 . S
C754 H773 0.913 . S
C755 H731 0.950 . S
C755 C754 1.524 . S
C755 C756 1.415 . S
C756 H732 0.950 . S
C756 C751 1.363 . S
C756 C755 1.415 . S
C757 H733 0.951 . S
C757 C758 1.365 . S
C757 C759 1.388 . S
C758 C757 1.365 . S
C758 C762 1.385 1_655 S
C759 H734 0.951 . S
C759 C757 1.388 . S
C759 C760 1.366 . S
C760 C759 1.366 . S
C760 C761 1.414 1_655 S
C760 C763 1.499 . S
C761 H735 0.950 . S
C761 C760 1.414 1_455 S
C761 C762 1.374 . S
C762 H736 0.950 . S
C762 C758 1.385 1_455 S
C762 C761 1.374 . S
C763 C760 1.499 . S
C763 C764 1.373 1_655 S
C763 C765 1.389 . S
C764 H737 0.950 . S
C764 C750 1.377 . S
C764 C763 1.373 1_455 S
C765 C749 1.377 . S
C765 C763 1.389 . S
C765 C766 1.524 . S
C766 C765 1.524 . S
C766 C767 1.397 . S
C766 C771 1.363 . S
C767 H738 0.950 . S
C767 C766 1.397 . S
C767 C768 1.334 . S
C768 H739 0.950 . S
C768 C767 1.334 . S
C768 C769 1.287 . S
C769 C768 1.287 . S
C769 C770 1.524 . S
C769 H772 0.999 . S
C770 H740 0.950 . S
C770 C769 1.524 . S
C770 C771 1.415 . S
C771 H741 0.950 . S
C771 C766 1.363 . S
C771 C770 1.415 . S
H772 C769 0.999 . S
H773 C754 0.913 . S
H774 C792 0.951 . S
H775 C794 0.951 . S
H776 C796 0.950 . S
H777 C797 0.950 . S
H778 C799 0.950 . S
H779 C802 0.950 . S
H780 C803 0.950 . S
H781 C805 0.950 . S
H782 C806 0.950 . S
H783 C807 0.951 . S
H784 C809 0.951 . S
H785 C811 0.950 . S
H786 C812 0.950 . S
H787 C814 0.950 . S
H788 C817 0.950 . S
H789 C818 0.950 . S
H790 C820 0.950 . S
H791 C821 0.950 . S
C792 H774 0.951 . S
C792 C793 1.366 . S
C792 C794 1.388 . S
C793 C792 1.366 . S
C793 C797 1.385 . S
C794 H775 0.951 . S
C794 C792 1.388 . S
C794 C795 1.366 . S
C795 C794 1.366 . S
C795 C796 1.414 . S
C795 C798 1.499 . S
C796 H776 0.950 . S
C796 C795 1.414 . S
C796 C797 1.374 . S
C797 H777 0.950 . S
C797 C793 1.385 . S
C797 C796 1.374 . S
C798 C795 1.499 . S
C798 C799 1.373 . S
C798 C800 1.389 . S
C799 H778 0.950 . S
C799 C798 1.373 . S
C799 C815 1.377 1_655 S
C800 C798 1.389 . S
C800 C801 1.524 . S
C800 C814 1.377 1_655 S
C801 C800 1.524 . S
C801 C802 1.397 . S
C801 C806 1.363 . S
C802 H779 0.950 . S
C802 C801 1.397 . S
C802 C803 1.334 . S
C803 H780 0.950 . S
C803 C802 1.334 . S
C803 C804 1.287 . S
C804 C803 1.287 . S
C804 C805 1.524 . S
C804 H823 0.913 . S
C805 H781 0.950 . S
C805 C804 1.524 . S
C805 C806 1.415 . S
C806 H782 0.950 . S
C806 C801 1.363 . S
C806 C805 1.415 . S
C807 H783 0.951 . S
C807 C808 1.366 . S
C807 C809 1.388 . S
C808 C807 1.366 . S
C808 C812 1.385 . S
C809 H784 0.951 . S
C809 C807 1.388 . S
C809 C810 1.366 . S
C810 C809 1.366 . S
C810 C811 1.414 . S
C810 C813 1.499 . S
C811 H785 0.950 . S
C811 C810 1.414 . S
C811 C812 1.374 . S
C812 H786 0.950 . S
C812 C808 1.385 . S
C812 C811 1.374 . S
C813 C810 1.499 . S
C813 C814 1.373 . S
C813 C815 1.389 . S
C814 H787 0.950 . S
C814 C800 1.377 1_455 S
C814 C813 1.373 . S
C815 C799 1.377 1_455 S
C815 C813 1.389 . S
C815 C816 1.524 . S
C816 C815 1.524 . S
C816 C817 1.397 . S
C816 C821 1.363 . S
C817 H788 0.950 . S
C817 C816 1.397 . S
C817 C818 1.334 . S
C818 H789 0.950 . S
C818 C817 1.334 . S
C818 C819 1.287 . S
C819 C818 1.287 . S
C819 C820 1.524 . S
C819 H822 0.999 . S
C820 H790 0.950 . S
C820 C819 1.524 . S
C820 C821 1.415 . S
C821 H791 0.950 . S
C821 C816 1.363 . S
C821 C820 1.415 . S
H822 C819 0.999 . S
H823 C804 0.913 . S
H824 C842 0.951 . S
H825 C844 0.951 . S
H826 C846 0.950 . S
H827 C847 0.950 . S
H828 C849 0.950 . S
H829 C852 0.950 . S
H830 C853 0.950 . S
H831 C855 0.950 . S
H832 C856 0.950 . S
H833 C857 0.951 . S
H834 C859 0.951 . S
H835 C861 0.950 . S
H836 C862 0.950 . S
H837 C864 0.950 . S
H838 C867 0.950 . S
H839 C868 0.950 . S
H840 C870 0.950 . S
H841 C871 0.950 . S
C842 H824 0.951 . S
C842 C843 1.366 . S
C842 C844 1.388 . S
C843 C842 1.366 . S
C843 C847 1.385 . S
C844 H825 0.951 . S
C844 C842 1.388 . S
C844 C845 1.366 . S
C845 C844 1.366 . S
C845 C846 1.414 . S
C845 C848 1.499 . S
C846 H826 0.950 . S
C846 C845 1.414 . S
C846 C847 1.374 . S
C847 H827 0.950 . S
C847 C843 1.385 . S
C847 C846 1.374 . S
C848 C845 1.499 . S
C848 C849 1.373 . S
C848 C850 1.389 . S
C849 H828 0.950 . S
C849 C848 1.373 . S
C849 C865 1.377 . S
C850 C848 1.389 . S
C850 C851 1.524 . S
C850 C864 1.377 . S
C851 C850 1.524 . S
C851 C852 1.397 . S
C851 C856 1.363 . S
C852 H829 0.950 . S
C852 C851 1.397 . S
C852 C853 1.334 . S
C853 H830 0.950 . S
C853 C852 1.334 . S
C853 C854 1.287 . S
C854 C853 1.287 . S
C854 C855 1.524 . S
C854 H873 0.913 . S
C855 H831 0.950 . S
C855 C854 1.524 . S
C855 C856 1.415 . S
C856 H832 0.950 . S
C856 C851 1.363 . S
C856 C855 1.415 . S
C857 H833 0.951 . S
C857 C858 1.366 . S
C857 C859 1.388 1_545 S
C858 C857 1.366 . S
C858 C862 1.385 . S
C859 H834 0.951 . S
C859 C857 1.388 1_565 S
C859 C860 1.366 . S
C860 C859 1.366 . S
C860 C861 1.414 . S
C860 C863 1.499 . S
C861 H835 0.950 . S
C861 C860 1.414 . S
C861 C862 1.374 1_565 S
C862 H836 0.950 . S
C862 C858 1.385 . S
C862 C861 1.374 1_545 S
C863 C860 1.499 . S
C863 C864 1.373 . S
C863 C865 1.389 . S
C864 H837 0.950 . S
C864 C850 1.377 . S
C864 C863 1.373 . S
C865 C849 1.377 . S
C865 C863 1.389 . S
C865 C866 1.524 . S
C866 C865 1.524 . S
C866 C867 1.397 . S
C866 C871 1.363 . S
C867 H838 0.950 . S
C867 C866 1.397 . S
C867 C868 1.334 . S
C868 H839 0.950 . S
C868 C867 1.334 . S
C868 C869 1.287 . S
C869 C868 1.287 . S
C869 C870 1.524 . S
C869 H872 0.999 . S
C870 H840 0.950 . S
C870 C869 1.524 . S
C870 C871 1.415 . S
C871 H841 0.950 . S
C871 C866 1.363 . S
C871 C870 1.415 . S
H872 C869 0.999 . S
H873 C854 0.913 . S
H874 C892 0.951 . S
H875 C894 0.951 . S
H876 C896 0.950 . S
H877 C897 0.950 . S
H878 C899 0.950 . S
H879 C902 0.950 . S
H880 C903 0.950 . S
H881 C905 0.950 . S
H882 C906 0.950 . S
H883 C907 0.951 . S
H884 C909 0.951 . S
H885 C911 0.950 . S
H886 C912 0.950 . S
H887 C914 0.950 . S
H888 C917 0.950 . S
H889 C918 0.950 . S
H890 C920 0.950 1_565 S
H891 C921 0.950 . S
C892 H874 0.951 . S
C892 C893 1.366 . S
C892 C894 1.388 . S
C893 C892 1.366 . S
C893 C897 1.385 . S
C894 H875 0.951 . S
C894 C892 1.388 . S
C894 C895 1.366 . S
C895 C894 1.366 . S
C895 C896 1.414 . S
C895 C898 1.499 . S
C896 H876 0.950 . S
C896 C895 1.414 . S
C896 C897 1.374 . S
C897 H877 0.950 . S
C897 C893 1.385 . S
C897 C896 1.374 . S
C898 C895 1.499 . S
C898 C899 1.373 . S
C898 C900 1.389 . S
C899 H878 0.950 . S
C899 C898 1.373 . S
C899 C915 1.377 . S
C900 C898 1.389 . S
C900 C901 1.524 . S
C900 C914 1.377 . S
C901 C900 1.524 . S
C901 C902 1.397 . S
C901 C906 1.363 . S
C902 H879 0.950 . S
C902 C901 1.397 . S
C902 C903 1.334 . S
C903 H880 0.950 . S
C903 C902 1.334 . S
C903 C904 1.287 . S
C904 C903 1.287 . S
C904 C905 1.524 . S
C904 H923 0.913 . S
C905 H881 0.950 . S
C905 C904 1.524 . S
C905 C906 1.415 . S
C906 H882 0.950 . S
C906 C901 1.363 . S
C906 C905 1.415 . S
C907 H883 0.951 . S
C907 C908 1.366 . S
C907 C909 1.388 . S
C908 C907 1.366 . S
C908 C912 1.385 . S
C909 H884 0.951 . S
C909 C907 1.388 . S
C909 C910 1.366 . S
C910 C909 1.366 . S
C910 C911 1.414 . S
C910 C913 1.499 . S
C911 H885 0.950 . S
C911 C910 1.414 . S
C911 C912 1.374 . S
C912 H886 0.950 . S
C912 C908 1.385 . S
C912 C911 1.374 . S
C913 C910 1.499 . S
C913 C914 1.373 . S
C913 C915 1.389 . S
C914 H887 0.950 . S
C914 C900 1.377 . S
C914 C913 1.373 . S
C915 C899 1.377 . S
C915 C913 1.389 . S
C915 C916 1.524 . S
C916 C915 1.524 . S
C916 C917 1.397 . S
C916 C921 1.363 . S
C917 H888 0.950 . S
C917 C916 1.397 . S
C917 C918 1.334 . S
C918 H889 0.950 . S
C918 C917 1.334 . S
C918 C919 1.287 1_545 S
C919 C918 1.287 1_565 S
C919 C920 1.524 1_565 S
C919 H922 0.999 . S
C920 H890 0.950 1_545 S
C920 C919 1.524 1_545 S
C920 C921 1.415 . S
C921 H891 0.950 . S
C921 C916 1.363 . S
C921 C920 1.415 . S
H922 C919 0.999 . S
H923 C904 0.913 . S
C143 C20 1.247 . S
C158 C51 1.248 . S
C193 C82 1.355 . S
C208 C33 1.353 . S
C243 C64 1.460 . S
C258 C122 1.459 . S
C293 C2 1.351 . S
C308 C94 1.357 . S
C343 C95 1.352 . S
C358 C1 1.354 . S
C393 C32 1.356 . S
C408 C91 1.350 . S
C443 C63 1.248 . S
C458 C113 1.247 . S
C493 C29 1.459 . S
C508 C60 1.460 . S
C543 C30 1.450 . S
C558 C19 1.432 1_655 S
C593 C31 1.432 . S
C608 C41 1.450 . S
C643 C72 1.449 . S
C658 C62 1.431 . S
C693 C103 1.449 . S
C708 C93 1.432 . S
C743 C61 1.449 . S
C758 C50 1.431 1_655 S
C793 C81 1.432 . S
C808 C92 1.450 . S
C843 C123 1.449 . S
C858 C112 1.432 . S
C893 C10 1.450 . S
C908 C0 1.432 . S
