# Generated by pormake.
# Topology srs-f, (5)-cn, num edge types: 1
# Building blocks:
#     Node 0, Type 0, BuildingBlock: BEQFEK_clean_sbu_0, # of connection points: 5
#     Node 1, Type 0, BuildingBlock: BEQFEK_clean_sbu_0, # of connection points: 5
#     Node 2, Type 0, BuildingBlock: BEQFEK_clean_sbu_0, # of connection points: 5
#     Node 3, Type 0, BuildingBlock: BEQFEK_clean_sbu_0, # of connection points: 5
#     Node 4, Type 0, BuildingBlock: BEQFEK_clean_sbu_0, # of connection points: 5
#     Node 5, Type 0, BuildingBlock: BEQFEK_clean_sbu_0, # of connection points: 5
#     Node 6, Type 0, BuildingBlock: BEQFEK_clean_sbu_0, # of connection points: 5
#     Node 7, Type 0, BuildingBlock: BEQFEK_clean_sbu_0, # of connection points: 5
#     Node 8, Type 0, BuildingBlock: BEQFEK_clean_sbu_0, # of connection points: 5
#     Node 9, Type 0, BuildingBlock: BEQFEK_clean_sbu_0, # of connection points: 5
#     Node 10, Type 0, BuildingBlock: BEQFEK_clean_sbu_0, # of connection points: 5
#     Node 11, Type 0, BuildingBlock: BEQFEK_clean_sbu_0, # of connection points: 5
#     Node 12, Type 0, BuildingBlock: BEQFEK_clean_sbu_0, # of connection points: 5
#     Node 13, Type 0, BuildingBlock: BEQFEK_clean_sbu_0, # of connection points: 5
#     Node 14, Type 0, BuildingBlock: BEQFEK_clean_sbu_0, # of connection points: 5
#     Node 15, Type 0, BuildingBlock: BEQFEK_clean_sbu_0, # of connection points: 5
#     Node 16, Type 0, BuildingBlock: BEQFEK_clean_sbu_0, # of connection points: 5
#     Node 17, Type 0, BuildingBlock: BEQFEK_clean_sbu_0, # of connection points: 5
#     Node 18, Type 0, BuildingBlock: BEQFEK_clean_sbu_0, # of connection points: 5
#     Node 19, Type 0, BuildingBlock: BEQFEK_clean_sbu_0, # of connection points: 5
#     Node 20, Type 0, BuildingBlock: BEQFEK_clean_sbu_0, # of connection points: 5
#     Node 21, Type 0, BuildingBlock: BEQFEK_clean_sbu_0, # of connection points: 5
#     Node 22, Type 0, BuildingBlock: BEQFEK_clean_sbu_0, # of connection points: 5
#     Node 23, Type 0, BuildingBlock: BEQFEK_clean_sbu_0, # of connection points: 5
#     Node 24, Type 0, BuildingBlock: BEQFEK_clean_sbu_0, # of connection points: 5
#     Node 25, Type 0, BuildingBlock: BEQFEK_clean_sbu_0, # of connection points: 5
#     Node 26, Type 0, BuildingBlock: BEQFEK_clean_sbu_0, # of connection points: 5
#     Node 27, Type 0, BuildingBlock: BEQFEK_clean_sbu_0, # of connection points: 5
#     Node 28, Type 0, BuildingBlock: BEQFEK_clean_sbu_0, # of connection points: 5
#     Node 29, Type 0, BuildingBlock: BEQFEK_clean_sbu_0, # of connection points: 5
#     Node 30, Type 0, BuildingBlock: BEQFEK_clean_sbu_0, # of connection points: 5
#     Node 31, Type 0, BuildingBlock: BEQFEK_clean_sbu_0, # of connection points: 5
#     Node 32, Type 0, BuildingBlock: BEQFEK_clean_sbu_0, # of connection points: 5
#     Node 33, Type 0, BuildingBlock: BEQFEK_clean_sbu_0, # of connection points: 5
#     Node 34, Type 0, BuildingBlock: BEQFEK_clean_sbu_0, # of connection points: 5
#     Node 35, Type 0, BuildingBlock: BEQFEK_clean_sbu_0, # of connection points: 5
#     Node 36, Type 0, BuildingBlock: BEQFEK_clean_sbu_0, # of connection points: 5
#     Node 37, Type 0, BuildingBlock: BEQFEK_clean_sbu_0, # of connection points: 5
#     Node 38, Type 0, BuildingBlock: BEQFEK_clean_sbu_0, # of connection points: 5
#     Node 39, Type 0, BuildingBlock: BEQFEK_clean_sbu_0, # of connection points: 5
#     Node 40, Type 0, BuildingBlock: BEQFEK_clean_sbu_0, # of connection points: 5
#     Node 41, Type 0, BuildingBlock: BEQFEK_clean_sbu_0, # of connection points: 5
#     Node 42, Type 0, BuildingBlock: BEQFEK_clean_sbu_0, # of connection points: 5
#     Node 43, Type 0, BuildingBlock: BEQFEK_clean_sbu_0, # of connection points: 5
#     Node 44, Type 0, BuildingBlock: BEQFEK_clean_sbu_0, # of connection points: 5
#     Node 45, Type 0, BuildingBlock: BEQFEK_clean_sbu_0, # of connection points: 5
#     Node 46, Type 0, BuildingBlock: BEQFEK_clean_sbu_0, # of connection points: 5
#     Node 47, Type 0, BuildingBlock: BEQFEK_clean_sbu_0, # of connection points: 5
#     Edge 48, Type (0, 0), None
#     Edge 49, Type (0, 0), None
#     Edge 50, Type (0, 0), None
#     Edge 51, Type (0, 0), None
#     Edge 52, Type (0, 0), None
#     Edge 53, Type (0, 0), None
#     Edge 54, Type (0, 0), None
#     Edge 55, Type (0, 0), None
#     Edge 56, Type (0, 0), None
#     Edge 57, Type (0, 0), None
#     Edge 58, Type (0, 0), None
#     Edge 59, Type (0, 0), None
#     Edge 60, Type (0, 0), None
#     Edge 61, Type (0, 0), None
#     Edge 62, Type (0, 0), None
#     Edge 63, Type (0, 0), None
#     Edge 64, Type (0, 0), None
#     Edge 65, Type (0, 0), None
#     Edge 66, Type (0, 0), None
#     Edge 67, Type (0, 0), None
#     Edge 68, Type (0, 0), None
#     Edge 69, Type (0, 0), None
#     Edge 70, Type (0, 0), None
#     Edge 71, Type (0, 0), None
#     Edge 72, Type (0, 0), None
#     Edge 73, Type (0, 0), None
#     Edge 74, Type (0, 0), None
#     Edge 75, Type (0, 0), None
#     Edge 76, Type (0, 0), None
#     Edge 77, Type (0, 0), None
#     Edge 78, Type (0, 0), None
#     Edge 79, Type (0, 0), None
#     Edge 80, Type (0, 0), None
#     Edge 81, Type (0, 0), None
#     Edge 82, Type (0, 0), None
#     Edge 83, Type (0, 0), None
#     Edge 84, Type (0, 0), None
#     Edge 85, Type (0, 0), None
#     Edge 86, Type (0, 0), None
#     Edge 87, Type (0, 0), None
#     Edge 88, Type (0, 0), None
#     Edge 89, Type (0, 0), None
#     Edge 90, Type (0, 0), None
#     Edge 91, Type (0, 0), None
#     Edge 92, Type (0, 0), None
#     Edge 93, Type (0, 0), None
#     Edge 94, Type (0, 0), None
#     Edge 95, Type (0, 0), None
#     Edge 96, Type (0, 0), None
#     Edge 97, Type (0, 0), None
#     Edge 98, Type (0, 0), None
#     Edge 99, Type (0, 0), None
#     Edge 100, Type (0, 0), None
#     Edge 101, Type (0, 0), None
#     Edge 102, Type (0, 0), None
#     Edge 103, Type (0, 0), None
#     Edge 104, Type (0, 0), None
#     Edge 105, Type (0, 0), None
#     Edge 106, Type (0, 0), None
#     Edge 107, Type (0, 0), None
#     Edge 108, Type (0, 0), None
#     Edge 109, Type (0, 0), None
#     Edge 110, Type (0, 0), None
#     Edge 111, Type (0, 0), None
#     Edge 112, Type (0, 0), None
#     Edge 113, Type (0, 0), None
#     Edge 114, Type (0, 0), None
#     Edge 115, Type (0, 0), None
#     Edge 116, Type (0, 0), None
#     Edge 117, Type (0, 0), None
#     Edge 118, Type (0, 0), None
#     Edge 119, Type (0, 0), None
#     Edge 120, Type (0, 0), None
#     Edge 121, Type (0, 0), None
#     Edge 122, Type (0, 0), None
#     Edge 123, Type (0, 0), None
#     Edge 124, Type (0, 0), None
#     Edge 125, Type (0, 0), None
#     Edge 126, Type (0, 0), None
#     Edge 127, Type (0, 0), None
#     Edge 128, Type (0, 0), None
#     Edge 129, Type (0, 0), None
#     Edge 130, Type (0, 0), None
#     Edge 131, Type (0, 0), None
#     Edge 132, Type (0, 0), None
#     Edge 133, Type (0, 0), None
#     Edge 134, Type (0, 0), None
#     Edge 135, Type (0, 0), None
#     Edge 136, Type (0, 0), None
#     Edge 137, Type (0, 0), None
#     Edge 138, Type (0, 0), None
#     Edge 139, Type (0, 0), None
#     Edge 140, Type (0, 0), None
#     Edge 141, Type (0, 0), None
#     Edge 142, Type (0, 0), None
#     Edge 143, Type (0, 0), None
#     Edge 144, Type (0, 0), None
#     Edge 145, Type (0, 0), None
#     Edge 146, Type (0, 0), None
#     Edge 147, Type (0, 0), None
#     Edge 148, Type (0, 0), None
#     Edge 149, Type (0, 0), None
#     Edge 150, Type (0, 0), None
#     Edge 151, Type (0, 0), None
#     Edge 152, Type (0, 0), None
#     Edge 153, Type (0, 0), None
#     Edge 154, Type (0, 0), None
#     Edge 155, Type (0, 0), None
#     Edge 156, Type (0, 0), None
#     Edge 157, Type (0, 0), None
#     Edge 158, Type (0, 0), None
#     Edge 159, Type (0, 0), None
#     Edge 160, Type (0, 0), None
#     Edge 161, Type (0, 0), None
#     Edge 162, Type (0, 0), None
#     Edge 163, Type (0, 0), None
#     Edge 164, Type (0, 0), None
#     Edge 165, Type (0, 0), None
#     Edge 166, Type (0, 0), None
#     Edge 167, Type (0, 0), None
# Relax obj value: 1.684
# Max RMSD: 0.186
# Mean RMSD: 0.186
data_MOF--net-srs-f--node1-BEQFEK_clean_sbu_0--edge1-none
_symmetry_space_group_name_H-M    P1
_symmetry_Int_Tables_number       1
_symmetry_cell_setting            triclinic
loop_
_symmetry_equiv_pos_as_xyz
'x, y, z'
_cell_length_a     42.513857
_cell_length_b     42.513827
_cell_length_c     42.511978
_cell_angle_alpha  89.997411
_cell_angle_beta   89.99724
_cell_angle_gamma 89.998557
loop_
_atom_site_label
_atom_site_type_symbol
_atom_site_fract_x
_atom_site_fract_y
_atom_site_fract_z
_atom_type_partial_charge
Co0 Co 0.03828 0.39258 0.12139 0.0
Co1 Co 0.03776 0.3922 0.19464 0.0
C2 C -0.00994 0.35368 0.16078 0.0
O3 O 0.00319 0.3634 0.13561 0.0
O4 O -0.00021 0.36327 0.1878 0.0
C5 C -4e-05 0.41262 0.07504 0.0
O6 O -0.01369 0.42071 0.10154 0.0
C7 C 0.05027 0.38674 0.26185 0.0
C8 C 0.07502 0.43074 0.27167 0.0
C9 C 0.06054 0.40563 0.28677 0.0
N10 N 0.05287 0.40265 0.23505 0.0
N11 N 0.06996 0.42793 0.24063 0.0
C12 C 0.04471 0.35195 0.26257 0.0
H13 H 0.06757 0.33995 0.25871 0.0
H14 H 0.02899 0.34485 0.24302 0.0
H15 H 0.03551 0.34373 0.28548 0.0
C16 C 0.03257 0.4618 0.13381 0.0
N17 N 0.03764 0.43188 0.14306 0.0
N18 N 0.03315 0.43036 0.17342 0.0
C19 C 0.02312 0.4584 0.1839 0.0
C20 C 0.02141 0.4795 0.15906 0.0
C21 C 0.03715 0.47346 0.10098 0.0
H22 H 0.05357 0.45791 0.08793 0.0
H23 H 0.01438 0.47391 0.08868 0.0
H24 H 0.04634 0.4979 0.10139 0.0
O25 O 0.07841 0.36988 0.13012 0.0
O26 O 0.07319 0.36927 0.1819 0.0
H27 H 0.02641 0.47698 0.22997 0.0
H28 H -0.01259 0.47709 0.21476 0.0
C29 C 0.00937 0.46321 0.21587 0.0
H30 H 0.00447 0.44039 0.22752 0.0
H31 H 0.0774 0.44377 0.22343 0.0
O32 O 0.02671 0.39917 0.07625 0.0
C33 C 0.08806 0.36201 0.15753 0.0
Co34 Co 0.92626 0.78833 0.3713 0.0
Co35 Co 0.92666 0.78781 0.44454 0.0
C36 C 0.96516 0.74009 0.41068 0.0
O37 O 0.95544 0.75322 0.38551 0.0
O38 O 0.95558 0.74983 0.4377 0.0
C39 C 0.90619 0.75001 0.32496 0.0
O40 O 0.8981 0.73637 0.35147 0.0
C41 C 0.93215 0.80034 0.51176 0.0
C42 C 0.88816 0.82511 0.52158 0.0
C43 C 0.91328 0.81063 0.53668 0.0
N44 N 0.91623 0.80293 0.48496 0.0
N45 N 0.89096 0.82004 0.49055 0.0
C46 C 0.96694 0.79477 0.51246 0.0
H47 H 0.97894 0.81762 0.50858 0.0
H48 H 0.97403 0.77904 0.49291 0.0
H49 H 0.97517 0.78557 0.53537 0.0
C50 C 0.85704 0.78264 0.38375 0.0
N51 N 0.88697 0.7877 0.39299 0.0
N52 N 0.8885 0.78321 0.42335 0.0
C53 C 0.86046 0.77319 0.43384 0.0
C54 C 0.83935 0.77149 0.40901 0.0
C55 C 0.84537 0.78722 0.35093 0.0
H56 H 0.86092 0.80363 0.33787 0.0
H57 H 0.8449 0.76446 0.33863 0.0
H58 H 0.82093 0.79642 0.35135 0.0
O59 O 0.94898 0.82845 0.38001 0.0
O60 O 0.9496 0.82323 0.43179 0.0
H61 H 0.84189 0.77649 0.47991 0.0
H62 H 0.84177 0.73749 0.46471 0.0
C63 C 0.85565 0.75945 0.46582 0.0
H64 H 0.87848 0.75454 0.47745 0.0
H65 H 0.87512 0.82747 0.47335 0.0
O66 O 0.91964 0.77675 0.32617 0.0
C67 C 0.95686 0.83809 0.40742 0.0
Co68 Co 0.53054 0.67624 0.6214 0.0
Co69 Co 0.53106 0.67662 0.69465 0.0
C70 C 0.57877 0.71514 0.66078 0.0
O71 O 0.56563 0.70543 0.63562 0.0
O72 O 0.56903 0.70556 0.6878 0.0
C73 C 0.56886 0.65621 0.57505 0.0
O74 O 0.58251 0.64811 0.60155 0.0
C75 C 0.51856 0.68208 0.76187 0.0
C76 C 0.49381 0.63808 0.77169 0.0
C77 C 0.50829 0.66319 0.78679 0.0
N78 N 0.51596 0.66617 0.73507 0.0
N79 N 0.49887 0.64089 0.74066 0.0
C80 C 0.52412 0.71687 0.76259 0.0
H81 H 0.50126 0.72887 0.75872 0.0
H82 H 0.53984 0.72397 0.74303 0.0
H83 H 0.53333 0.72509 0.78549 0.0
C84 C 0.53625 0.60702 0.63383 0.0
N85 N 0.53118 0.63694 0.64308 0.0
N86 N 0.53568 0.63847 0.67344 0.0
C87 C 0.54571 0.61043 0.68392 0.0
C88 C 0.54742 0.58933 0.65908 0.0
C89 C 0.53168 0.59537 0.60101 0.0
H90 H 0.51526 0.61091 0.58796 0.0
H91 H 0.55444 0.59491 0.5887 0.0
H92 H 0.52249 0.57092 0.60141 0.0
O93 O 0.49041 0.69895 0.63014 0.0
O94 O 0.49563 0.69955 0.68192 0.0
H95 H 0.54243 0.59184 0.72999 0.0
H96 H 0.58142 0.59174 0.71477 0.0
C97 C 0.55946 0.60562 0.71589 0.0
H98 H 0.56436 0.62844 0.72753 0.0
H99 H 0.49143 0.62505 0.72345 0.0
O100 O 0.54211 0.66965 0.57627 0.0
C101 C 0.48076 0.70682 0.65755 0.0
Co102 Co 0.64259 0.2805 0.87133 0.0
Co103 Co 0.64218 0.28101 0.94457 0.0
C104 C 0.60369 0.32874 0.9107 0.0
O105 O 0.61341 0.3156 0.88554 0.0
O106 O 0.61326 0.31899 0.93772 0.0
C107 C 0.66267 0.31883 0.82499 0.0
O108 O 0.67075 0.33246 0.8515 0.0
C109 C 0.63668 0.26848 0.01178 0.0
C110 C 0.68068 0.24372 0.02161 0.0
C111 C 0.65556 0.2582 0.0367 0.0
N112 N 0.65261 0.26589 -0.01502 0.0
N113 N 0.67788 0.24879 -0.00942 0.0
C114 C 0.6019 0.27406 0.01249 0.0
H115 H 0.58989 0.25121 0.00861 0.0
H116 H 0.59481 0.28979 -0.00706 0.0
H117 H 0.59367 0.28325 0.03539 0.0
C118 C 0.71181 0.28618 0.88377 0.0
N119 N 0.68188 0.28112 0.89301 0.0
N120 N 0.68035 0.28562 0.92337 0.0
C121 C 0.70839 0.29563 0.93386 0.0
C122 C 0.7295 0.29734 0.90903 0.0
C123 C 0.72347 0.28161 0.85095 0.0
H124 H 0.70791 0.26522 0.83788 0.0
H125 H 0.72397 0.30438 0.83866 0.0
H126 H 0.7479 0.27239 0.85136 0.0
O127 O 0.61986 0.24038 0.88003 0.0
O128 O 0.61925 0.2456 0.93182 0.0
H129 H 0.72696 0.29234 0.97993 0.0
H130 H 0.72707 0.33134 0.96472 0.0
C131 C 0.71319 0.30938 0.96583 0.0
H132 H 0.69037 0.31428 0.97747 0.0
H133 H 0.69373 0.24135 0.97338 0.0
O134 O 0.64921 0.29208 0.8262 0.0
C135 C 0.61198 0.23074 0.90745 0.0
Co136 Co 0.03831 0.67625 0.44749 0.0
Co137 Co 0.0378 0.67664 0.37424 0.0
C138 C -0.00991 0.71515 0.40811 0.0
O139 O 0.00322 0.70544 0.43327 0.0
O140 O -0.00017 0.70557 0.38109 0.0
C141 C -3e-05 0.6562 0.49382 0.0
O142 O -0.01367 0.64812 0.46731 0.0
C143 C 0.05031 0.68211 0.30703 0.0
C144 C 0.07504 0.63811 0.2972 0.0
C145 C 0.06057 0.66323 0.28211 0.0
N146 N 0.0529 0.6662 0.33383 0.0
N147 N 0.06999 0.64091 0.32823 0.0
C148 C 0.04474 0.7169 0.30631 0.0
H149 H 0.06759 0.7289 0.31019 0.0
H150 H 0.02901 0.724 0.32586 0.0
H151 H 0.03554 0.72513 0.28341 0.0
C152 C 0.03259 0.60703 0.43505 0.0
N153 N 0.03767 0.63695 0.42581 0.0
N154 N 0.03318 0.63848 0.39545 0.0
C155 C 0.02314 0.61044 0.38497 0.0
C156 C 0.02142 0.58934 0.4098 0.0
C157 C 0.03715 0.59537 0.46788 0.0
H158 H 0.05354 0.61092 0.48095 0.0
H159 H 0.01437 0.59489 0.48017 0.0
H160 H 0.04636 0.57093 0.46748 0.0
O161 O 0.07844 0.69895 0.43877 0.0
O162 O 0.07323 0.69956 0.38699 0.0
H163 H 0.02641 0.59187 0.3389 0.0
H164 H -0.01259 0.59178 0.35412 0.0
C165 C 0.00939 0.60565 0.353 0.0
H166 H 0.00449 0.62847 0.34136 0.0
H167 H 0.07742 0.62507 0.34544 0.0
O168 O 0.02673 0.66964 0.49262 0.0
C169 C 0.0881 0.70682 0.41135 0.0
Co170 Co 0.6426 0.7883 0.69759 0.0
Co171 Co 0.64219 0.7878 0.62435 0.0
C172 C 0.6037 0.74008 0.65821 0.0
O173 O 0.61342 0.75321 0.68338 0.0
O174 O 0.61327 0.74982 0.63119 0.0
C175 C 0.66267 0.74996 0.74392 0.0
O176 O 0.67076 0.73633 0.7174 0.0
C177 C 0.63668 0.80034 0.55714 0.0
C178 C 0.68067 0.82512 0.5473 0.0
C179 C 0.65555 0.81064 0.53221 0.0
N180 N 0.65261 0.80293 0.58393 0.0
N181 N 0.67788 0.82004 0.57833 0.0
C182 C 0.60189 0.79477 0.55644 0.0
H183 H 0.58989 0.81763 0.56033 0.0
H184 H 0.59481 0.77904 0.57599 0.0
H185 H 0.59366 0.78558 0.53354 0.0
C186 C 0.71182 0.78262 0.68513 0.0
N187 N 0.68189 0.78768 0.6759 0.0
N188 N 0.68035 0.78319 0.64554 0.0
C189 C 0.70839 0.77318 0.63504 0.0
C190 C 0.72951 0.77147 0.65986 0.0
C191 C 0.72349 0.78718 0.71795 0.0
H192 H 0.70794 0.80359 0.73101 0.0
H193 H 0.72396 0.76441 0.73024 0.0
H194 H 0.74792 0.79639 0.71753 0.0
O195 O 0.61988 0.82843 0.68889 0.0
O196 O 0.61926 0.82322 0.63711 0.0
H197 H 0.72695 0.77649 0.58896 0.0
H198 H 0.72708 0.73749 0.60416 0.0
C199 C 0.71319 0.75945 0.60306 0.0
H200 H 0.69037 0.75454 0.59143 0.0
H201 H 0.69372 0.82747 0.59554 0.0
O202 O 0.64922 0.77672 0.74272 0.0
C203 C 0.612 0.83808 0.66147 0.0
Co204 Co 0.53053 0.39258 0.94751 0.0
Co205 Co 0.53106 0.39219 0.87427 0.0
C206 C 0.57876 0.35367 0.90813 0.0
O207 O 0.56562 0.36339 0.9333 0.0
O208 O 0.56903 0.36326 0.88111 0.0
C209 C 0.56886 0.41263 -0.00615 0.0
O210 O 0.5825 0.4207 0.96733 0.0
C211 C 0.51855 0.38672 0.80705 0.0
C212 C 0.49381 0.43072 0.79722 0.0
C213 C 0.50828 0.4056 0.78213 0.0
N214 N 0.51595 0.40264 0.83385 0.0
N215 N 0.49886 0.42792 0.82826 0.0
C216 C 0.52412 0.35193 0.80634 0.0
H217 H 0.50126 0.33993 0.81022 0.0
H218 H 0.53984 0.34483 0.82589 0.0
H219 H 0.53331 0.3437 0.78344 0.0
C220 C 0.53625 0.4618 0.93507 0.0
N221 N 0.53117 0.43188 0.92583 0.0
N222 N 0.53567 0.43035 0.89547 0.0
C223 C 0.54571 0.45838 0.88499 0.0
C224 C 0.54742 0.47949 0.90982 0.0
C225 C 0.53169 0.47346 0.9679 0.0
H226 H 0.51529 0.4579 -0.01903 0.0
H227 H 0.55446 0.47394 0.98018 0.0
H228 H 0.52247 0.49789 0.96749 0.0
O229 O 0.4904 0.36988 0.93879 0.0
O230 O 0.49562 0.36927 0.88701 0.0
H231 H 0.54245 0.47696 0.83892 0.0
H232 H 0.58144 0.47705 0.85414 0.0
C233 C 0.55947 0.46318 0.85302 0.0
H234 H 0.56436 0.44036 0.84138 0.0
H235 H 0.49143 0.44376 0.84546 0.0
O236 O 0.5421 0.39918 -0.00736 0.0
C237 C 0.48075 0.36201 0.91137 0.0
Co238 Co 0.92623 0.28052 0.19761 0.0
Co239 Co 0.92663 0.28102 0.12436 0.0
C240 C 0.96512 0.32875 0.15821 0.0
O241 O 0.95541 0.31562 0.18339 0.0
O242 O 0.95555 0.319 0.1312 0.0
C243 C 0.90615 0.31886 0.24393 0.0
O244 O 0.89807 0.33249 0.21741 0.0
C245 C 0.93213 0.26848 0.05715 0.0
C246 C 0.88814 0.24371 0.04733 0.0
C247 C 0.91326 0.25819 0.03223 0.0
N248 N 0.91621 0.2659 0.08395 0.0
N249 N 0.89094 0.24879 0.07836 0.0
C250 C 0.96692 0.27405 0.05645 0.0
H251 H 0.97892 0.2512 0.06033 0.0
H252 H 0.97401 0.28978 0.07599 0.0
H253 H 0.97515 0.28324 0.03354 0.0
C254 C 0.85701 0.28621 0.18515 0.0
N255 N 0.88693 0.28115 0.17592 0.0
N256 N 0.88847 0.28563 0.14556 0.0
C257 C 0.86043 0.29565 0.13506 0.0
C258 C 0.83932 0.29736 0.15989 0.0
C259 C 0.84534 0.28165 0.21798 0.0
H260 H 0.86089 0.26524 0.23104 0.0
H261 H 0.84486 0.30442 0.23027 0.0
H262 H 0.8209 0.27244 0.21757 0.0
O263 O 0.94895 0.2404 0.1889 0.0
O264 O 0.94956 0.24561 0.13712 0.0
H265 H 0.84187 0.29234 0.08899 0.0
H266 H 0.84174 0.33134 0.10418 0.0
C267 C 0.85563 0.30938 0.10308 0.0
H268 H 0.87845 0.31429 0.09145 0.0
H269 H 0.87509 0.24136 0.09556 0.0
O270 O 0.91961 0.29211 0.24273 0.0
C271 C 0.95682 0.23075 0.16149 0.0
Co272 Co 0.1214 0.03828 0.39262 0.0
Co273 Co 0.19464 0.03777 0.39223 0.0
C274 C 0.16078 -0.00994 0.35371 0.0
O275 O 0.13561 0.00319 0.36343 0.0
O276 O 0.1878 -0.00021 0.36329 0.0
C277 C 0.07506 -4e-05 0.41268 0.0
O278 O 0.10157 -0.01368 0.42076 0.0
C279 C 0.26185 0.05028 0.38675 0.0
C280 C 0.27168 0.07502 0.43075 0.0
C281 C 0.28677 0.06054 0.40563 0.0
N282 N 0.23505 0.05287 0.40267 0.0
N283 N 0.24065 0.06996 0.42795 0.0
C284 C 0.26256 0.04471 0.35196 0.0
H285 H 0.25868 0.06756 0.33995 0.0
H286 H 0.24302 0.02897 0.34486 0.0
H287 H 0.28547 0.03551 0.34373 0.0
C288 C 0.13383 0.03258 0.46184 0.0
N289 N 0.14307 0.03765 0.43192 0.0
N290 N 0.17343 0.03315 0.43039 0.0
C291 C 0.18391 0.02312 0.45843 0.0
C292 C 0.15908 0.02141 0.47953 0.0
C293 C 0.101 0.03715 0.4735 0.0
H294 H 0.08794 0.05354 0.45794 0.0
H295 H 0.08872 0.01437 0.47399 0.0
H296 H 0.10141 0.04637 0.49793 0.0
O297 O 0.13011 0.07841 0.36991 0.0
O298 O 0.1819 0.0732 0.3693 0.0
H299 H 0.22998 0.0264 0.47701 0.0
H300 H 0.21476 -0.0126 0.47711 0.0
C301 C 0.21588 0.00937 0.46323 0.0
H302 H 0.22752 0.00447 0.44041 0.0
H303 H 0.22345 0.07739 0.44379 0.0
O304 O 0.07627 0.02671 0.39923 0.0
C305 C 0.15753 0.08806 0.36204 0.0
Co306 Co 0.28054 0.8713 0.64262 0.0
Co307 Co 0.28104 0.94455 0.6422 0.0
C308 C 0.32876 0.91068 0.60371 0.0
O309 O 0.31563 0.88552 0.61343 0.0
O310 O 0.31902 0.9377 0.61328 0.0
C311 C 0.31886 0.82497 0.66271 0.0
O312 O 0.3325 0.85149 0.6708 0.0
C313 C 0.26851 0.01176 0.63669 0.0
C314 C 0.24374 0.02159 0.68069 0.0
C315 C 0.25823 0.03668 0.65557 0.0
N316 N 0.26592 -0.01504 0.65262 0.0
N317 N 0.24881 -0.00944 0.67789 0.0
C318 C 0.27409 0.01246 0.60191 0.0
H319 H 0.25124 0.00857 0.5899 0.0
H320 H 0.28983 -0.00708 0.59482 0.0
H321 H 0.28328 0.03537 0.59367 0.0
C322 C 0.28621 0.88377 0.71184 0.0
N323 N 0.28116 0.893 0.68191 0.0
N324 N 0.28565 0.92336 0.68037 0.0
C325 C 0.29566 0.93385 0.70841 0.0
C326 C 0.29736 0.90903 0.72953 0.0
C327 C 0.28163 0.85095 0.72351 0.0
H328 H 0.26523 0.83789 0.70796 0.0
H329 H 0.3044 0.83865 0.724 0.0
H330 H 0.27242 0.85137 0.74795 0.0
O331 O 0.24041 0.88 0.6199 0.0
O332 O 0.24562 0.93178 0.61927 0.0
H333 H 0.29236 0.97993 0.72697 0.0
H334 H 0.33136 0.96472 0.72709 0.0
C335 C 0.3094 0.96583 0.71321 0.0
H336 H 0.31431 0.97746 0.69038 0.0
H337 H 0.24138 0.97336 0.69374 0.0
O338 O 0.29212 0.82618 0.64925 0.0
C339 C 0.23076 0.90741 0.61201 0.0
Co340 Co 0.44744 0.03056 0.8926 0.0
Co341 Co 0.37419 0.03108 0.89221 0.0
C342 C 0.40806 0.07878 0.85369 0.0
O343 O 0.43323 0.06565 0.86341 0.0
O344 O 0.38104 0.06905 0.86327 0.0
C345 C 0.49377 0.06888 0.91266 0.0
O346 O 0.46726 0.08252 0.92075 0.0
C347 C 0.30698 0.01857 0.88672 0.0
C348 C 0.29715 -0.00618 0.93073 0.0
C349 C 0.28206 0.0083 0.90561 0.0
N350 N 0.33378 0.01597 0.90264 0.0
N351 N 0.32818 -0.00112 0.92792 0.0
C352 C 0.30627 0.02414 0.85193 0.0
H353 H 0.31016 0.00128 0.83993 0.0
H354 H 0.32582 0.03987 0.84484 0.0
H355 H 0.28337 0.03333 0.8437 0.0
C356 C 0.43499 0.03625 0.96182 0.0
N357 N 0.42576 0.03119 0.9319 0.0
N358 N 0.3954 0.03569 0.93037 0.0
C359 C 0.38491 0.04572 0.95841 0.0
C360 C 0.40974 0.04742 0.97951 0.0
C361 C 0.46782 0.03168 0.97348 0.0
H362 H 0.48088 0.01529 0.95792 0.0
H363 H 0.4801 0.05446 0.97398 0.0
H364 H 0.46741 0.02246 -0.00209 0.0
O365 O 0.43872 -0.00957 0.8699 0.0
O366 O 0.38694 -0.00435 0.86928 0.0
H367 H 0.33884 0.04244 0.97699 0.0
H368 H 0.35406 0.08144 0.97709 0.0
C369 C 0.35294 0.05947 0.96321 0.0
H370 H 0.3413 0.06437 0.94039 0.0
H371 H 0.34538 -0.00855 0.94377 0.0
O372 O 0.49256 0.04213 0.89921 0.0
C373 C 0.41131 -0.01922 0.86203 0.0
Co374 Co 0.28828 0.19753 0.1426 0.0
Co375 Co 0.28778 0.12429 0.1422 0.0
C376 C 0.24006 0.15815 0.1037 0.0
O377 O 0.25319 0.18332 0.11342 0.0
O378 O 0.2498 0.13113 0.11328 0.0
C379 C 0.24996 0.24386 0.16269 0.0
O380 O 0.23633 0.21735 0.17078 0.0
C381 C 0.30032 0.05708 0.1367 0.0
C382 C 0.32509 0.04725 0.18069 0.0
C383 C 0.31061 0.03216 0.15557 0.0
N384 N 0.30291 0.08388 0.15262 0.0
N385 N 0.32001 0.07828 0.17789 0.0
C386 C 0.29475 0.05638 0.10191 0.0
H387 H 0.3176 0.06026 0.0899 0.0
H388 H 0.27901 0.07592 0.09482 0.0
H389 H 0.28556 0.03347 0.09368 0.0
C390 C 0.28262 0.18507 0.21183 0.0
N391 N 0.28767 0.17584 0.1819 0.0
N392 N 0.28317 0.14548 0.18037 0.0
C393 C 0.27317 0.13499 0.20841 0.0
C394 C 0.27147 0.15982 0.22952 0.0
C395 C 0.2872 0.2179 0.22349 0.0
H396 H 0.3036 0.23095 0.20794 0.0
H397 H 0.26443 0.2302 0.22398 0.0
H398 H 0.29641 0.21748 0.24793 0.0
O399 O 0.32841 0.18883 0.11988 0.0
O400 O 0.32319 0.13705 0.11926 0.0
H401 H 0.27648 0.08892 0.22698 0.0
H402 H 0.23748 0.10412 0.22711 0.0
C403 C 0.25944 0.10301 0.21322 0.0
H404 H 0.25452 0.09138 0.1904 0.0
H405 H 0.32745 0.09549 0.19373 0.0
O406 O 0.27671 0.24266 0.14922 0.0
C407 C 0.33805 0.16142 0.112 0.0
Co408 Co 0.12137 0.03054 0.17627 0.0
Co409 Co 0.19461 0.03106 0.17664 0.0
C410 C 0.16076 0.07876 0.21517 0.0
O411 O 0.13559 0.06563 0.20546 0.0
O412 O 0.18778 0.06903 0.20558 0.0
C413 C 0.07502 0.06887 0.15623 0.0
O414 O 0.10153 0.08251 0.14814 0.0
C415 C 0.26183 0.01858 0.18208 0.0
C416 C 0.27164 -0.0062 0.13805 0.0
C417 C 0.2867 0.00828 0.16317 0.0
N418 N 0.23502 0.01596 0.16618 0.0
N419 N 0.24061 -0.00114 0.14089 0.0
C420 C 0.26257 0.02411 0.21688 0.0
H421 H 0.25872 0.00124 0.22886 0.0
H422 H 0.24302 0.03982 0.22401 0.0
H423 H 0.28548 0.03332 0.22509 0.0
C424 C 0.13379 0.03626 0.10704 0.0
N425 N 0.14304 0.03119 0.13697 0.0
N426 N 0.1734 0.03568 0.13848 0.0
C427 C 0.18388 0.04571 0.11044 0.0
C428 C 0.15904 0.04742 0.08934 0.0
C429 C 0.10096 0.03168 0.09539 0.0
H430 H 0.08792 0.01527 0.11094 0.0
H431 H 0.08866 0.05445 0.09493 0.0
H432 H 0.10137 0.02249 0.07095 0.0
O433 O 0.1301 -0.00959 0.19898 0.0
O434 O 0.18188 -0.00437 0.19957 0.0
H435 H 0.22994 0.04242 0.09186 0.0
H436 H 0.21473 0.08142 0.09175 0.0
C437 C 0.21584 0.05946 0.10563 0.0
H438 H 0.22749 0.06437 0.12845 0.0
H439 H 0.22339 -0.00858 0.12507 0.0
O440 O 0.07624 0.04212 0.16968 0.0
C441 C 0.15752 -0.01924 0.20684 0.0
Co442 Co 0.28835 0.87129 0.42623 0.0
Co443 Co 0.28784 0.94453 0.42663 0.0
C444 C 0.24012 0.91067 0.46513 0.0
O445 O 0.25325 0.88551 0.45542 0.0
O446 O 0.24986 0.93769 0.45555 0.0
C447 C 0.25001 0.82497 0.40616 0.0
O448 O 0.23638 0.85148 0.39807 0.0
C449 C 0.30033 0.01174 0.43211 0.0
C450 C 0.32513 0.02157 0.38809 0.0
C451 C 0.31064 0.03662 0.41321 0.0
N452 N 0.30296 -0.01506 0.41619 0.0
N453 N 0.32006 -0.00947 0.39091 0.0
C454 C 0.29478 0.01246 0.4669 0.0
H455 H 0.31765 0.00859 0.47889 0.0
H456 H 0.27906 -0.00709 0.47401 0.0
H457 H 0.28559 0.03536 0.47513 0.0
C458 C 0.28266 0.88374 0.35701 0.0
N459 N 0.28773 0.89297 0.38693 0.0
N460 N 0.28323 0.92333 0.38846 0.0
C461 C 0.27321 0.93382 0.36043 0.0
C462 C 0.2715 0.90899 0.33932 0.0
C463 C 0.28722 0.85091 0.34534 0.0
H464 H 0.30361 0.83784 0.3609 0.0
H465 H 0.26445 0.83863 0.34484 0.0
H466 H 0.29645 0.85132 0.32091 0.0
O467 O 0.32847 0.87999 0.44895 0.0
O468 O 0.32326 0.93177 0.44956 0.0
H469 H 0.27651 0.9799 0.34186 0.0
H470 H 0.2375 0.96469 0.34174 0.0
C471 C 0.25947 0.9658 0.35562 0.0
H472 H 0.25456 0.97743 0.37845 0.0
H473 H 0.3275 0.97332 0.37508 0.0
O474 O 0.27676 0.82616 0.41961 0.0
C475 C 0.33812 0.90741 0.45683 0.0
Co476 Co 0.44747 0.0383 0.67625 0.0
Co477 Co 0.37423 0.03779 0.67663 0.0
C478 C 0.40808 -0.00991 0.71516 0.0
O479 O 0.43325 0.00322 0.70544 0.0
O480 O 0.38106 -0.00018 0.70557 0.0
C481 C 0.49381 -4e-05 0.65621 0.0
O482 O 0.4673 -0.01368 0.64812 0.0
C483 C 0.30701 0.05026 0.68207 0.0
C484 C 0.2972 0.07504 0.63803 0.0
C485 C 0.28214 0.06055 0.66315 0.0
N486 N 0.33382 0.05289 0.66617 0.0
N487 N 0.32823 0.06999 0.64088 0.0
C488 C 0.30627 0.04473 0.71686 0.0
H489 H 0.31012 0.0676 0.72885 0.0
H490 H 0.32582 0.02902 0.72399 0.0
H491 H 0.28336 0.03553 0.72508 0.0
C492 C 0.43505 0.03258 0.60702 0.0
N493 N 0.4258 0.03766 0.63695 0.0
N494 N 0.39544 0.03316 0.63847 0.0
C495 C 0.38496 0.02313 0.61043 0.0
C496 C 0.4098 0.02141 0.58933 0.0
C497 C 0.46787 0.03715 0.59536 0.0
H498 H 0.48092 0.05356 0.61091 0.0
H499 H 0.48017 0.01438 0.59491 0.0
H500 H 0.46747 0.04634 0.57092 0.0
O501 O 0.43875 0.07844 0.69895 0.0
O502 O 0.38697 0.07323 0.69955 0.0
H503 H 0.3389 0.02641 0.59186 0.0
H504 H 0.35411 -0.01259 0.59176 0.0
C505 C 0.35299 0.00938 0.60563 0.0
H506 H 0.34135 0.00448 0.62845 0.0
H507 H 0.34545 0.07742 0.62505 0.0
O508 O 0.4926 0.02672 0.66965 0.0
C509 C 0.41133 0.08809 0.70681 0.0
Co510 Co 0.28049 0.19755 0.92622 0.0
Co511 Co 0.28099 0.12431 0.92662 0.0
C512 C 0.32871 0.15816 0.96512 0.0
O513 O 0.31558 0.18333 0.9554 0.0
O514 O 0.31897 0.13114 0.95554 0.0
C515 C 0.31882 0.24388 0.90615 0.0
O516 O 0.33246 0.21737 0.89807 0.0
C517 C 0.2685 0.0571 0.93209 0.0
C518 C 0.24371 0.04728 0.88807 0.0
C519 C 0.25819 0.03222 0.91319 0.0
N520 N 0.26588 0.0839 0.91618 0.0
N521 N 0.24877 0.07831 0.8909 0.0
C522 C 0.27404 0.05637 0.96688 0.0
H523 H 0.25117 0.06023 0.97887 0.0
H524 H 0.28976 0.07592 0.974 0.0
H525 H 0.28324 0.03346 0.97511 0.0
C526 C 0.28619 0.18511 0.857 0.0
N527 N 0.28112 0.17587 0.88692 0.0
N528 N 0.28561 0.14551 0.88845 0.0
C529 C 0.29563 0.13502 0.86041 0.0
C530 C 0.29735 0.15985 0.8393 0.0
C531 C 0.28162 0.21793 0.84533 0.0
H532 H 0.26521 0.23099 0.86088 0.0
H533 H 0.30439 0.23022 0.84486 0.0
H534 H 0.27242 0.21752 0.82089 0.0
O535 O 0.24036 0.18884 0.94894 0.0
O536 O 0.24557 0.13706 0.94955 0.0
H537 H 0.29233 0.08895 0.84185 0.0
H538 H 0.33134 0.10415 0.84173 0.0
C539 C 0.30937 0.10305 0.85562 0.0
H540 H 0.31428 0.09141 0.87844 0.0
H541 H 0.24134 0.09552 0.87506 0.0
O542 O 0.29207 0.24268 0.91961 0.0
C543 C 0.23071 0.16143 0.95682 0.0
Co544 Co 0.39254 0.12136 0.03829 0.0
Co545 Co 0.39215 0.1946 0.03776 0.0
C546 C 0.35364 0.16073 -0.00994 0.0
O547 O 0.36336 0.13556 0.00319 0.0
O548 O 0.36322 0.18775 -0.00021 0.0
C549 C 0.41258 0.075 -1e-05 0.0
O550 O 0.42066 0.10148 -0.0137 0.0
C551 C 0.38666 0.26181 0.05028 0.0
C552 C 0.43065 0.27164 0.07505 0.0
C553 C 0.40554 0.28673 0.06057 0.0
N554 N 0.40258 0.23501 0.05287 0.0
N555 N 0.42785 0.24061 0.06998 0.0
C556 C 0.35187 0.26252 0.04472 0.0
H557 H 0.33987 0.25865 0.06758 0.0
H558 H 0.34478 0.24297 0.02899 0.0
H559 H 0.34364 0.28542 0.03551 0.0
C560 C 0.46176 0.1338 0.03258 0.0
N561 N 0.43184 0.14304 0.03764 0.0
N562 N 0.43031 0.1734 0.03315 0.0
C563 C 0.45835 0.18388 0.02314 0.0
C564 C 0.47946 0.15905 0.02143 0.0
C565 C 0.47342 0.10097 0.03715 0.0
H566 H 0.45788 0.08792 0.05358 0.0
H567 H 0.47386 0.08867 0.01439 0.0
H568 H 0.49787 0.10138 0.04633 0.0
O569 O 0.36984 0.13008 0.07842 0.0
O570 O 0.36923 0.18187 0.0732 0.0
H571 H 0.47692 0.22995 0.02644 0.0
H572 H 0.47705 0.21475 -0.01256 0.0
C573 C 0.46316 0.21586 0.0094 0.0
H574 H 0.44034 0.22749 0.00448 0.0
H575 H 0.44369 0.2234 0.07741 0.0
O576 O 0.39915 0.07623 0.02675 0.0
C577 C 0.36198 0.1575 0.08807 0.0
Co578 Co 0.89258 0.44743 0.03054 0.0
Co579 Co 0.8922 0.37419 0.03107 0.0
C580 C 0.85368 0.40805 0.07878 0.0
O581 O 0.86339 0.43322 0.06564 0.0
O582 O 0.86326 0.38104 0.06904 0.0
C583 C 0.91262 0.49377 0.06888 0.0
O584 O 0.92069 0.46726 0.08253 0.0
C585 C 0.88676 0.30697 0.01862 0.0
C586 C 0.9308 0.29715 -0.00614 0.0
C587 C 0.90568 0.28209 0.00835 0.0
N588 N 0.90266 0.33378 0.01599 0.0
N589 N 0.92795 0.32819 -0.0011 0.0
C590 C 0.85197 0.30623 0.02417 0.0
H591 H 0.83998 0.31008 0.0013 0.0
H592 H 0.84484 0.32578 0.03988 0.0
H593 H 0.84375 0.28332 0.03338 0.0
C594 C 0.96179 0.43502 0.03628 0.0
N595 N 0.93188 0.42576 0.03118 0.0
N596 N 0.93035 0.3954 0.03569 0.0
C597 C 0.95838 0.38492 0.04576 0.0
C598 C 0.97944 0.40977 0.0475 0.0
C599 C 0.97346 0.46785 0.03173 0.0
H600 H 0.95791 0.48092 0.01534 0.0
H601 H 0.97394 0.48012 0.05451 0.0
H602 H -0.00211 0.46744 0.02253 0.0
O603 O 0.86987 0.43871 -0.00958 0.0
O604 O 0.86927 0.38692 -0.00437 0.0
H605 H 0.97695 0.33885 0.04254 0.0
H606 H 0.97703 0.3541 0.08152 0.0
C607 C 0.96317 0.35296 0.05955 0.0
H608 H 0.94034 0.34132 0.06444 0.0
H609 H 0.94378 0.3454 -0.00854 0.0
O610 O 0.89918 0.49257 0.04212 0.0
C611 C 0.862 0.41129 -0.01923 0.0
Co612 Co 0.87131 0.64264 0.2805 0.0
Co613 Co 0.94455 0.64223 0.281 0.0
C614 C 0.91069 0.60373 0.32873 0.0
O615 O 0.88553 0.61345 0.3156 0.0
O616 O 0.93771 0.6133 0.31898 0.0
C617 C 0.825 0.66271 0.31885 0.0
O618 O 0.85152 0.67077 0.33248 0.0
C619 C 0.01177 0.63675 0.26853 0.0
C620 C 0.0216 0.68078 0.24375 0.0
C621 C 0.03665 0.65565 0.25823 0.0
N622 N -0.01503 0.65266 0.2659 0.0
N623 N -0.00943 0.67795 0.2488 0.0
C624 C 0.01249 0.60196 0.27409 0.0
H625 H 0.00863 0.58997 0.25123 0.0
H626 H -0.00705 0.59485 0.28981 0.0
H627 H 0.0354 0.59373 0.28328 0.0
C628 C 0.88375 0.71185 0.28622 0.0
N629 N 0.893 0.68193 0.28112 0.0
N630 N 0.92336 0.68039 0.28562 0.0
C631 C 0.93386 0.70841 0.29568 0.0
C632 C 0.90901 0.72948 0.29742 0.0
C633 C 0.85093 0.72353 0.28168 0.0
H634 H 0.83785 0.70798 0.26529 0.0
H635 H 0.83867 0.72402 0.30447 0.0
H636 H 0.85135 0.74796 0.27247 0.0
O637 O 0.88002 0.61991 0.24037 0.0
O638 O 0.9318 0.61929 0.24558 0.0
H639 H 0.97994 0.72697 0.29243 0.0
H640 H 0.9647 0.72705 0.33142 0.0
C641 C 0.96582 0.71319 0.30945 0.0
H642 H 0.97745 0.69036 0.31434 0.0
H643 H 0.97336 0.69378 0.24137 0.0
O644 O 0.82619 0.64926 0.29209 0.0
C645 C 0.90743 0.61203 0.23072 0.0
Co646 Co 0.67624 0.62139 0.53054 0.0
Co647 Co 0.67662 0.69464 0.53106 0.0
C648 C 0.71514 0.66078 0.57876 0.0
O649 O 0.70543 0.63561 0.56563 0.0
O650 O 0.70556 0.68779 0.56903 0.0
C651 C 0.6562 0.57506 0.56888 0.0
O652 O 0.64814 0.60157 0.58253 0.0
C653 C 0.68205 0.76186 0.51861 0.0
C654 C 0.63801 0.77167 0.49385 0.0
C655 C 0.66313 0.78673 0.50833 0.0
N656 N 0.66616 0.73505 0.51598 0.0
N657 N 0.64086 0.74064 0.49889 0.0
C658 C 0.71684 0.7626 0.52415 0.0
H659 H 0.72883 0.75875 0.50128 0.0
H660 H 0.72397 0.74305 0.53986 0.0
H661 H 0.72506 0.78551 0.53335 0.0
C662 C 0.60703 0.6338 0.53629 0.0
N663 N 0.63694 0.64306 0.53118 0.0
N664 N 0.63847 0.67342 0.53569 0.0
C665 C 0.61044 0.68391 0.54577 0.0
C666 C 0.58938 0.65905 0.54751 0.0
C667 C 0.59536 0.60098 0.53175 0.0
H668 H 0.61091 0.5879 0.51535 0.0
H669 H 0.59489 0.5887 0.55453 0.0
H670 H 0.57093 0.60138 0.52254 0.0
O671 O 0.69895 0.63012 0.49041 0.0
O672 O 0.69955 0.68191 0.49562 0.0
H673 H 0.59186 0.72997 0.54254 0.0
H674 H 0.59179 0.71473 0.58153 0.0
C675 C 0.60565 0.71586 0.55955 0.0
H676 H 0.62847 0.7275 0.56443 0.0
H677 H 0.62503 0.72342 0.49146 0.0
O678 O 0.66964 0.57626 0.54212 0.0
C679 C 0.70681 0.65754 0.48076 0.0
Co680 Co 0.19757 0.92623 0.28053 0.0
Co681 Co 0.12433 0.92664 0.28106 0.0
C682 C 0.15821 0.96513 0.32877 0.0
O683 O 0.18338 0.95541 0.31564 0.0
O684 O 0.13119 0.95556 0.31903 0.0
C685 C 0.24393 0.90617 0.31884 0.0
O686 O 0.21744 0.89809 0.33252 0.0
C687 C 0.05712 0.93215 0.26853 0.0
C688 C 0.04729 0.88816 0.24377 0.0
C689 C 0.0322 0.91327 0.25825 0.0
N690 N 0.08392 0.91622 0.26594 0.0
N691 N 0.07832 0.89095 0.24884 0.0
C692 C 0.05642 0.96693 0.27411 0.0
H693 H 0.0603 0.97893 0.25125 0.0
H694 H 0.07597 0.97402 0.28983 0.0
H695 H 0.03352 0.97517 0.28331 0.0
C696 C 0.18512 0.85702 0.28624 0.0
N697 N 0.17589 0.88694 0.28117 0.0
N698 N 0.14553 0.88848 0.28566 0.0
C699 C 0.13503 0.86044 0.29568 0.0
C700 C 0.15986 0.83933 0.29739 0.0
C701 C 0.21794 0.84534 0.28166 0.0
H702 H 0.23099 0.86088 0.26524 0.0
H703 H 0.23024 0.84489 0.30443 0.0
H704 H 0.21752 0.8209 0.27248 0.0
O705 O 0.18886 0.94895 0.24041 0.0
O706 O 0.13707 0.94957 0.24563 0.0
H707 H 0.08896 0.84188 0.29239 0.0
H708 H 0.10416 0.84176 0.33139 0.0
C709 C 0.10306 0.85564 0.30943 0.0
H710 H 0.09142 0.87846 0.31434 0.0
H711 H 0.09552 0.8751 0.2414 0.0
O712 O 0.2427 0.91961 0.29208 0.0
C713 C 0.16144 0.95682 0.23076 0.0
Co714 Co 0.17628 0.94746 0.5383 0.0
Co715 Co 0.17668 0.87422 0.53778 0.0
C716 C 0.21519 0.9081 0.49007 0.0
O717 O 0.20547 0.93327 0.5032 0.0
O718 O 0.20561 0.88108 0.49981 0.0
C719 C 0.15624 -0.00617 0.5 0.0
O720 O 0.14816 0.96735 0.48631 0.0
C721 C 0.18216 0.80701 0.55028 0.0
C722 C 0.13816 0.79718 0.57504 0.0
C723 C 0.16328 0.78209 0.56056 0.0
N724 N 0.16624 0.83381 0.55288 0.0
N725 N 0.14096 0.82821 0.56998 0.0
C726 C 0.21694 0.8063 0.54471 0.0
H727 H 0.22895 0.81016 0.56757 0.0
H728 H 0.22404 0.82585 0.52899 0.0
H729 H 0.22518 0.7834 0.53551 0.0
C730 C 0.10706 0.93502 0.53258 0.0
N731 N 0.13698 0.92578 0.53765 0.0
N732 N 0.13851 0.89542 0.53316 0.0
C733 C 0.11048 0.88494 0.52313 0.0
C734 C 0.08937 0.90977 0.52142 0.0
C735 C 0.09539 0.96784 0.53715 0.0
H736 H 0.11092 -0.01911 0.55359 0.0
H737 H 0.09496 0.98015 0.51439 0.0
H738 H 0.07094 0.96743 0.54632 0.0
O739 O 0.19897 0.93874 0.57843 0.0
O740 O 0.19959 0.88696 0.57322 0.0
H741 H 0.09191 0.83886 0.52642 0.0
H742 H 0.0918 0.85408 0.48742 0.0
C743 C 0.10568 0.85296 0.50939 0.0
H744 H 0.1285 0.84133 0.50448 0.0
H745 H 0.12512 0.84541 0.57742 0.0
O746 O 0.16966 -0.0074 0.52677 0.0
C747 C 0.20684 0.91132 0.58809 0.0
Co748 Co 0.87129 0.42626 0.28835 0.0
Co749 Co 0.94454 0.42666 0.28784 0.0
C750 C 0.91068 0.46516 0.24011 0.0
O751 O 0.88551 0.45544 0.25325 0.0
O752 O 0.9377 0.45558 0.24985 0.0
C753 C 0.82498 0.40619 0.25001 0.0
O754 O 0.8515 0.39812 0.23638 0.0
C755 C 0.01175 0.43213 0.30033 0.0
C756 C 0.02156 0.3881 0.32512 0.0
C757 C 0.03662 0.41322 0.31064 0.0
N758 N -0.01506 0.41622 0.30295 0.0
N759 N -0.00947 0.39094 0.32006 0.0
C760 C 0.01248 0.46692 0.29478 0.0
H761 H 0.00862 0.47891 0.31764 0.0
H762 H -0.00707 0.47403 0.27906 0.0
H763 H 0.03539 0.47514 0.28558 0.0
C764 C 0.88373 0.35705 0.28265 0.0
N765 N 0.89297 0.38697 0.28774 0.0
N766 N 0.92334 0.3885 0.28323 0.0
C767 C 0.93383 0.36047 0.27319 0.0
C768 C 0.90898 0.3394 0.27145 0.0
C769 C 0.8509 0.34538 0.2872 0.0
H770 H 0.83782 0.36093 0.30358 0.0
H771 H 0.83864 0.34488 0.26441 0.0
H772 H 0.85131 0.32095 0.29642 0.0
O773 O 0.88 0.44899 0.32847 0.0
O774 O 0.93178 0.44959 0.32326 0.0
H775 H 0.9799 0.3419 0.27645 0.0
H776 H 0.96468 0.3418 0.23746 0.0
C777 C 0.9658 0.35567 0.25942 0.0
H778 H 0.97743 0.37849 0.25452 0.0
H779 H 0.97332 0.3751 0.32749 0.0
O780 O 0.82617 0.41965 0.27676 0.0
C781 C 0.90741 0.45686 0.33812 0.0
Co782 Co 0.69754 0.64257 0.78835 0.0
Co783 Co 0.6243 0.64217 0.78785 0.0
C784 C 0.65815 0.60367 0.74012 0.0
O785 O 0.68332 0.61339 0.75325 0.0
O786 O 0.63114 0.61325 0.74986 0.0
C787 C 0.74385 0.66264 0.75 0.0
O788 O 0.71733 0.67071 0.73637 0.0
C789 C 0.55709 0.6367 0.80035 0.0
C790 C 0.54727 0.68072 0.82514 0.0
C791 C 0.53221 0.6556 0.81065 0.0
N792 N 0.58389 0.65261 0.80296 0.0
N793 N 0.5783 0.67789 0.82007 0.0
C794 C 0.55636 0.60191 0.79479 0.0
H795 H 0.56023 0.58992 0.81766 0.0
H796 H 0.5759 0.5948 0.77907 0.0
H797 H 0.53345 0.59369 0.7856 0.0
C798 C 0.68511 0.71179 0.78264 0.0
N799 N 0.67586 0.68187 0.78773 0.0
N800 N 0.6455 0.68033 0.78323 0.0
C801 C 0.635 0.70836 0.77318 0.0
C802 C 0.65985 0.72943 0.77145 0.0
C803 C 0.71793 0.72346 0.78718 0.0
H804 H 0.73102 0.7079 0.80356 0.0
H805 H 0.73019 0.72395 0.76439 0.0
H806 H 0.71752 0.74789 0.79639 0.0
O807 O 0.68884 0.61984 0.82847 0.0
O808 O 0.63706 0.61923 0.82326 0.0
H809 H 0.58893 0.72693 0.77645 0.0
H810 H 0.60415 0.72703 0.73746 0.0
C811 C 0.60303 0.71316 0.75943 0.0
H812 H 0.5914 0.69033 0.75453 0.0
H813 H 0.59552 0.69372 0.8275 0.0
O814 O 0.74267 0.64919 0.77675 0.0
C815 C 0.66143 0.61197 0.83812 0.0
Co816 Co 0.53831 0.89258 0.6214 0.0
Co817 Co 0.53777 0.8922 0.69465 0.0
C818 C 0.49008 0.85368 0.66078 0.0
O819 O 0.50321 0.86339 0.63561 0.0
O820 O 0.49981 0.86326 0.6878 0.0
C821 C 0.49998 0.91262 0.57506 0.0
O822 O 0.48633 0.92068 0.60157 0.0
C823 C 0.55027 0.88676 0.76187 0.0
C824 C 0.575 0.93077 0.77168 0.0
C825 C 0.56053 0.90566 0.78678 0.0
N826 N 0.55287 0.90266 0.73506 0.0
N827 N 0.56995 0.92795 0.74064 0.0
C828 C 0.54471 0.85197 0.7626 0.0
H829 H 0.56757 0.83997 0.75873 0.0
H830 H 0.529 0.84486 0.74304 0.0
H831 H 0.53551 0.84375 0.7855 0.0
C832 C 0.53257 0.9618 0.6338 0.0
N833 N 0.53767 0.93188 0.64307 0.0
N834 N 0.53315 0.93035 0.67343 0.0
C835 C 0.52308 0.95838 0.68391 0.0
C836 C 0.52135 0.97944 0.65905 0.0
C837 C 0.53711 0.97346 0.60098 0.0
H838 H 0.55351 0.95791 0.58791 0.0
H839 H 0.51433 0.97393 0.5887 0.0
H840 H 0.54631 -0.0021 0.60138 0.0
O841 O 0.57843 0.86987 0.63013 0.0
O842 O 0.57321 0.86927 0.68192 0.0
H843 H 0.52631 0.97697 0.72998 0.0
H844 H 0.48732 0.97703 0.71473 0.0
C845 C 0.5093 0.96318 0.71587 0.0
H846 H 0.50442 0.94035 0.72751 0.0
H847 H 0.57737 0.94379 0.72343 0.0
O848 O 0.52674 0.89918 0.57626 0.0
C849 C 0.58808 0.86202 0.65755 0.0
Co850 Co 0.42622 0.28833 0.87131 0.0
Co851 Co 0.4266 0.28782 0.94456 0.0
C852 C 0.46511 0.2401 0.91071 0.0
O853 O 0.4554 0.25323 0.88554 0.0
O854 O 0.45553 0.24984 0.93772 0.0
C855 C 0.40616 0.24999 0.82499 0.0
O856 O 0.39809 0.23636 0.8515 0.0
C857 C 0.43204 0.30031 0.01178 0.0
C858 C 0.38801 0.32508 0.02158 0.0
C859 C 0.41313 0.3106 0.03665 0.0
N860 N 0.41614 0.30292 -0.01503 0.0
N861 N 0.39085 0.32002 -0.00945 0.0
C862 C 0.46683 0.29476 0.01252 0.0
H863 H 0.47882 0.31763 0.00866 0.0
H864 H 0.47396 0.27905 -0.00703 0.0
H865 H 0.47505 0.28556 0.03543 0.0
C866 C 0.357 0.28262 0.88373 0.0
N867 N 0.38692 0.28771 0.89299 0.0
N868 N 0.38844 0.28321 0.92335 0.0
C869 C 0.36042 0.27315 0.93384 0.0
C870 C 0.33935 0.27141 0.90899 0.0
C871 C 0.34534 0.28716 0.8509 0.0
H872 H 0.36089 0.30355 0.83782 0.0
H873 H 0.34485 0.26438 0.83864 0.0
H874 H 0.32091 0.29638 0.85131 0.0
O875 O 0.44895 0.32845 0.88003 0.0
O876 O 0.44954 0.32324 0.93182 0.0
H877 H 0.34184 0.27639 0.97991 0.0
H878 H 0.34176 0.2374 0.96467 0.0
C879 C 0.35562 0.25938 0.9658 0.0
H880 H 0.37844 0.25448 0.97744 0.0
H881 H 0.37502 0.32745 0.97333 0.0
O882 O 0.41961 0.27675 0.82618 0.0
C883 C 0.4568 0.3381 0.90745 0.0
Co884 Co 0.03052 0.17625 0.12141 0.0
Co885 Co 0.03105 0.17663 0.19466 0.0
C886 C 0.07875 0.21515 0.16078 0.0
O887 O 0.06562 0.20543 0.13562 0.0
O888 O 0.06902 0.20557 0.18781 0.0
C889 C 0.06885 0.15621 0.07507 0.0
O890 O 0.0825 0.14814 0.10158 0.0
C891 C 0.01856 0.18208 0.26188 0.0
C892 C -0.00616 0.13806 0.2717 0.0
C893 C 0.00831 0.16318 0.2868 0.0
N894 N 0.01597 0.16617 0.23508 0.0
N895 N -0.00111 0.14088 0.24067 0.0
C896 C 0.02412 0.21687 0.2626 0.0
H897 H 0.00126 0.22886 0.25874 0.0
H898 H 0.03984 0.22397 0.24305 0.0
H899 H 0.03332 0.22509 0.28551 0.0
C900 C 0.03626 0.10703 0.13383 0.0
N901 N 0.03116 0.13695 0.14309 0.0
N902 N 0.03568 0.13848 0.17345 0.0
C903 C 0.04575 0.11045 0.18393 0.0
C904 C 0.04749 0.08939 0.15908 0.0
C905 C 0.03172 0.09537 0.101 0.0
H906 H 0.01532 0.11091 0.08793 0.0
H907 H 0.0545 0.09489 0.08872 0.0
H908 H 0.02252 0.07093 0.10141 0.0
O909 O -0.0096 0.19895 0.13015 0.0
O910 O -0.00439 0.19956 0.18194 0.0
H911 H 0.04253 0.09186 0.23 0.0
H912 H 0.08151 0.09181 0.21475 0.0
C913 C 0.05953 0.10566 0.21589 0.0
H914 H 0.06441 0.12848 0.22753 0.0
H915 H -0.00854 0.12504 0.22346 0.0
O916 O 0.04209 0.16965 0.07628 0.0
C917 C -0.01925 0.20681 0.15757 0.0
Co918 Co 0.14262 0.78051 0.3713 0.0
Co919 Co 0.14223 0.78102 0.44455 0.0
C920 C 0.10373 0.82874 0.41068 0.0
O921 O 0.11345 0.81561 0.38551 0.0
O922 O 0.1133 0.81899 0.4377 0.0
C923 C 0.16267 0.81884 0.32496 0.0
O924 O 0.17074 0.83251 0.35146 0.0
C925 C 0.13678 0.76852 0.51176 0.0
C926 C 0.18081 0.74374 0.52157 0.0
C927 C 0.15569 0.75822 0.53664 0.0
N928 N 0.15268 0.76591 0.48495 0.0
N929 N 0.17797 0.74881 0.49054 0.0
C930 C 0.10199 0.77406 0.5125 0.0
H931 H 0.09 0.75119 0.50864 0.0
H932 H 0.09486 0.78978 0.49295 0.0
H933 H 0.09377 0.78326 0.53541 0.0
C934 C 0.21184 0.78624 0.38372 0.0
N935 N 0.18192 0.78114 0.39297 0.0
N936 N 0.18039 0.78563 0.42334 0.0
C937 C 0.20841 0.79569 0.43383 0.0
C938 C 0.22948 0.79744 0.40898 0.0
C939 C 0.22351 0.78171 0.35089 0.0
H940 H 0.20797 0.76531 0.33781 0.0
H941 H 0.22398 0.80449 0.33863 0.0
H942 H 0.24795 0.77251 0.3513 0.0
O943 O 0.1199 0.74038 0.38002 0.0
O944 O 0.1193 0.74559 0.43181 0.0
H945 H 0.22698 0.79244 0.4799 0.0
H946 H 0.22706 0.83143 0.46467 0.0
C947 C 0.2132 0.80946 0.4658 0.0
H948 H 0.19038 0.81435 0.47743 0.0
H949 H 0.1938 0.74138 0.47332 0.0
O950 O 0.14924 0.79208 0.32617 0.0
C951 C 0.11204 0.73073 0.40744 0.0
Co952 Co 0.53827 0.17625 0.94751 0.0
Co953 Co 0.53775 0.17665 0.87427 0.0
C954 C 0.49004 0.21516 0.90814 0.0
O955 O 0.50317 0.20545 0.93331 0.0
O956 O 0.49978 0.20559 0.88112 0.0
C957 C 0.49994 0.15623 -0.00614 0.0
O958 O 0.48626 0.14817 0.96736 0.0
C959 C 0.55026 0.18211 0.80705 0.0
C960 C 0.575 0.1381 0.79723 0.0
C961 C 0.56053 0.16322 0.78213 0.0
N962 N 0.55285 0.1662 0.83385 0.0
N963 N 0.56993 0.14091 0.82827 0.0
C964 C 0.54471 0.2169 0.80633 0.0
H965 H 0.56757 0.22889 0.81021 0.0
H966 H 0.52898 0.224 0.82588 0.0
H967 H 0.53551 0.22513 0.78343 0.0
C968 C 0.53251 0.10704 0.93509 0.0
N969 N 0.53762 0.13696 0.92584 0.0
N970 N 0.53312 0.13849 0.89547 0.0
C971 C 0.52305 0.11047 0.88498 0.0
C972 C 0.5213 0.0894 0.90983 0.0
C973 C 0.53704 0.09537 0.96792 0.0
H974 H 0.55344 0.11091 -0.019 0.0
H975 H 0.51425 0.09491 0.98019 0.0
H976 H 0.54622 0.07093 0.96751 0.0
O977 O 0.5784 0.19895 0.93879 0.0
O978 O 0.57319 0.19956 0.887 0.0
H979 H 0.52629 0.09189 0.83891 0.0
H980 H 0.4873 0.09183 0.85415 0.0
C981 C 0.50928 0.10568 0.85302 0.0
H982 H 0.5044 0.12851 0.84138 0.0
H983 H 0.57736 0.12507 0.84547 0.0
O984 O 0.52671 0.16964 -0.00736 0.0
C985 C 0.58806 0.20681 0.91137 0.0
Co986 Co 0.14259 0.28832 0.19758 0.0
Co987 Co 0.14218 0.2878 0.12433 0.0
C988 C 0.10368 0.24009 0.15821 0.0
O989 O 0.1134 0.25322 0.18337 0.0
O990 O 0.11325 0.24983 0.13119 0.0
C991 C 0.16266 0.24998 0.24389 0.0
O992 O 0.17072 0.23634 0.21737 0.0
C993 C 0.13669 0.30033 0.05712 0.0
C994 C 0.18069 0.32508 0.04729 0.0
C995 C 0.15557 0.31061 0.0322 0.0
N996 N 0.15261 0.30292 0.08392 0.0
N997 N 0.17789 0.32001 0.07832 0.0
C998 C 0.1019 0.29477 0.05642 0.0
H999 H 0.0899 0.31762 0.0603 0.0
H1000 H 0.09481 0.27903 0.07596 0.0
H1001 H 0.09366 0.28558 0.03351 0.0
C1002 C 0.2118 0.2826 0.18513 0.0
N1003 N 0.18188 0.2877 0.17589 0.0
N1004 N 0.18034 0.28319 0.14552 0.0
C1005 C 0.20836 0.27313 0.13502 0.0
C1006 C 0.22944 0.2714 0.15987 0.0
C1007 C 0.22348 0.28714 0.21795 0.0
H1008 H 0.20793 0.30352 0.23104 0.0
H1009 H 0.22398 0.26435 0.23022 0.0
H1010 H 0.24791 0.29635 0.21753 0.0
O1011 O 0.11986 0.32844 0.18887 0.0
O1012 O 0.11925 0.32323 0.13709 0.0
H1013 H 0.22693 0.27638 0.08895 0.0
H1014 H 0.227 0.23739 0.10418 0.0
C1015 C 0.21315 0.25937 0.10306 0.0
H1016 H 0.19032 0.25448 0.09143 0.0
H1017 H 0.19374 0.32743 0.09552 0.0
O1018 O 0.14922 0.27673 0.24271 0.0
C1019 C 0.112 0.33809 0.16145 0.0
Co1020 Co 0.03057 0.89257 0.4475 0.0
Co1021 Co 0.03109 0.8922 0.37425 0.0
C1022 C 0.0788 0.85367 0.40812 0.0
O1023 O 0.06566 0.86339 0.43329 0.0
O1024 O 0.06906 0.86326 0.3811 0.0
C1025 C 0.06889 0.91259 0.49385 0.0
O1026 O 0.08257 0.92066 0.46735 0.0
C1027 C 0.01862 0.88676 0.30703 0.0
C1028 C -0.00615 0.93081 0.29723 0.0
C1029 C 0.00832 0.90568 0.28216 0.0
N1030 N 0.016 0.90267 0.33384 0.0
N1031 N -0.00109 0.92796 0.32826 0.0
C1032 C 0.02415 0.85197 0.30629 0.0
H1033 H 0.00128 0.83999 0.31015 0.0
H1034 H 0.03986 0.84484 0.32584 0.0
H1035 H 0.03335 0.84376 0.28338 0.0
C1036 C 0.03632 0.96179 0.43509 0.0
N1037 N 0.03121 0.93187 0.42583 0.0
N1038 N 0.03572 0.93035 0.39547 0.0
C1039 C 0.04578 0.95838 0.38498 0.0
C1040 C 0.04753 0.97943 0.40984 0.0
C1041 C 0.03179 0.97345 0.46792 0.0
H1042 H 0.01538 0.95791 0.481 0.0
H1043 H 0.05457 0.97391 0.48019 0.0
H1044 H 0.0226 -0.00211 0.46752 0.0
O1045 O -0.00956 0.86987 0.43877 0.0
O1046 O -0.00435 0.86928 0.38698 0.0
H1047 H 0.04254 0.97696 0.33891 0.0
H1048 H 0.08153 0.97703 0.35415 0.0
C1049 C 0.05956 0.96317 0.35302 0.0
H1050 H 0.06445 0.94035 0.34138 0.0
H1051 H -0.00852 0.94379 0.34548 0.0
O1052 O 0.04212 0.89917 0.49263 0.0
C1053 C -0.01922 0.86202 0.41135 0.0
Co1054 Co 0.42624 0.78051 0.6976 0.0
Co1055 Co 0.42665 0.78102 0.62435 0.0
C1056 C 0.46514 0.82874 0.65821 0.0
O1057 O 0.45542 0.81561 0.68338 0.0
O1058 O 0.45557 0.819 0.63119 0.0
C1059 C 0.40617 0.81886 0.7439 0.0
O1060 O 0.39811 0.83249 0.71738 0.0
C1061 C 0.43213 0.76849 0.55714 0.0
C1062 C 0.38813 0.74375 0.54732 0.0
C1063 C 0.41325 0.75822 0.53222 0.0
N1064 N 0.41621 0.76591 0.58394 0.0
N1065 N 0.39093 0.74882 0.57835 0.0
C1066 C 0.46692 0.77406 0.55643 0.0
H1067 H 0.47892 0.7512 0.56031 0.0
H1068 H 0.47402 0.78979 0.57597 0.0
H1069 H 0.47515 0.78325 0.53352 0.0
C1070 C 0.35703 0.78624 0.68515 0.0
N1071 N 0.38695 0.78114 0.67591 0.0
N1072 N 0.38849 0.78564 0.64554 0.0
C1073 C 0.36046 0.7957 0.63504 0.0
C1074 C 0.33939 0.79744 0.65989 0.0
C1075 C 0.34535 0.7817 0.71798 0.0
H1076 H 0.3609 0.76532 0.73107 0.0
H1077 H 0.34485 0.80449 0.73024 0.0
H1078 H 0.32092 0.77249 0.71756 0.0
O1079 O 0.44896 0.74039 0.68889 0.0
O1080 O 0.44957 0.7456 0.6371 0.0
H1081 H 0.3419 0.79246 0.58897 0.0
H1082 H 0.34183 0.83145 0.6042 0.0
C1083 C 0.35568 0.80947 0.60308 0.0
H1084 H 0.37851 0.81435 0.59144 0.0
H1085 H 0.37508 0.7414 0.59555 0.0
O1086 O 0.41961 0.79211 0.74272 0.0
C1087 C 0.45683 0.73074 0.66147 0.0
Co1088 Co 0.62137 0.53825 0.89261 0.0
Co1089 Co 0.69461 0.53773 0.89221 0.0
C1090 C 0.66073 0.49003 0.85369 0.0
O1091 O 0.63557 0.50316 0.86341 0.0
O1092 O 0.68775 0.49976 0.86327 0.0
C1093 C 0.575 0.49996 0.91266 0.0
O1094 O 0.60149 0.48626 0.92074 0.0
C1095 C 0.76183 0.55023 0.88674 0.0
C1096 C 0.77165 0.57498 0.93074 0.0
C1097 C 0.78675 0.5605 0.90563 0.0
N1098 N 0.73503 0.55282 0.90265 0.0
N1099 N 0.74062 0.56992 0.92793 0.0
C1100 C 0.76255 0.54467 0.85195 0.0
H1101 H 0.75868 0.56753 0.83995 0.0
H1102 H 0.743 0.52894 0.84485 0.0
H1103 H 0.78545 0.53547 0.84372 0.0
C1104 C 0.63381 0.53253 0.96183 0.0
N1105 N 0.64305 0.5376 0.9319 0.0
N1106 N 0.67341 0.5331 0.93037 0.0
C1107 C 0.68389 0.52307 0.95841 0.0
C1108 C 0.65906 0.52136 0.97952 0.0
C1109 C 0.60098 0.53711 0.97349 0.0
H1110 H 0.58794 0.55354 0.95796 0.0
H1111 H 0.58868 0.51435 0.97394 0.0
H1112 H 0.6014 0.54629 -0.00206 0.0
O1113 O 0.63009 0.57839 0.86991 0.0
O1114 O 0.68188 0.57317 0.8693 0.0
H1115 H 0.72996 0.52635 0.97699 0.0
H1116 H 0.71474 0.48736 0.97709 0.0
C1117 C 0.71586 0.50932 0.96321 0.0
H1118 H 0.7275 0.50442 0.94039 0.0
H1119 H 0.72341 0.57735 0.94377 0.0
O1120 O 0.57623 0.52672 0.89922 0.0
C1121 C 0.65751 0.58804 0.86205 0.0
Co1122 Co 0.78051 0.37127 0.14264 0.0
Co1123 Co 0.78103 0.44451 0.14221 0.0
C1124 C 0.82874 0.41063 0.10371 0.0
O1125 O 0.81561 0.38546 0.11344 0.0
O1126 O 0.819 0.43765 0.11328 0.0
C1127 C 0.81884 0.32493 0.1627 0.0
O1128 O 0.83252 0.35143 0.17076 0.0
C1129 C 0.76851 0.51173 0.13671 0.0
C1130 C 0.74376 0.52156 0.18071 0.0
C1131 C 0.75823 0.53665 0.15559 0.0
N1132 N 0.76592 0.48493 0.15263 0.0
N1133 N 0.74883 0.49052 0.17791 0.0
C1134 C 0.77408 0.51243 0.10192 0.0
H1135 H 0.75122 0.50855 0.08992 0.0
H1136 H 0.7898 0.49288 0.09482 0.0
H1137 H 0.78327 0.53533 0.09368 0.0
C1138 C 0.78625 0.38373 0.21185 0.0
N1139 N 0.78115 0.39297 0.18192 0.0
N1140 N 0.78565 0.42333 0.18038 0.0
C1141 C 0.79571 0.43384 0.2084 0.0
C1142 C 0.79745 0.409 0.22948 0.0
C1143 C 0.78171 0.35091 0.22354 0.0
H1144 H 0.76529 0.33784 0.20802 0.0
H1145 H 0.80448 0.33863 0.22399 0.0
H1146 H 0.77254 0.35134 0.24799 0.0
O1147 O 0.74038 0.37998 0.11993 0.0
O1148 O 0.7456 0.43176 0.11929 0.0
H1149 H 0.79245 0.47992 0.22695 0.0
H1150 H 0.83145 0.46469 0.22703 0.0
C1151 C 0.80947 0.46581 0.21317 0.0
H1152 H 0.81436 0.47743 0.19034 0.0
H1153 H 0.7414 0.47332 0.19376 0.0
O1154 O 0.79207 0.32614 0.14928 0.0
C1155 C 0.73073 0.40739 0.11204 0.0
Co1156 Co 0.94748 0.53058 0.39259 0.0
Co1157 Co 0.87423 0.53111 0.39219 0.0
C1158 C 0.90812 0.5788 0.35367 0.0
O1159 O 0.93328 0.56567 0.36339 0.0
O1160 O 0.8811 0.56907 0.36325 0.0
C1161 C -0.00616 0.56887 0.41264 0.0
O1162 O 0.96736 0.58257 0.42071 0.0
C1163 C 0.80702 0.51861 0.38671 0.0
C1164 C 0.79719 0.49386 0.43072 0.0
C1165 C 0.7821 0.50834 0.4056 0.0
N1166 N 0.83382 0.51602 0.40263 0.0
N1167 N 0.82822 0.49892 0.42791 0.0
C1168 C 0.80631 0.52417 0.35193 0.0
H1169 H 0.81017 0.50131 0.33993 0.0
H1170 H 0.82586 0.53989 0.34482 0.0
H1171 H 0.78341 0.53338 0.34369 0.0
C1172 C 0.93503 0.5363 0.46181 0.0
N1173 N 0.92579 0.53124 0.43189 0.0
N1174 N 0.89543 0.53573 0.43036 0.0
C1175 C 0.88494 0.54576 0.45839 0.0
C1176 C 0.90977 0.54747 0.4795 0.0
C1177 C 0.96785 0.53172 0.47348 0.0
H1178 H -0.01911 0.51529 0.45795 0.0
H1179 H 0.98016 0.55448 0.47392 0.0
H1180 H 0.96743 0.52255 0.49793 0.0
O1181 O 0.93875 0.49044 0.3699 0.0
O1182 O 0.88697 0.49567 0.36928 0.0
H1183 H 0.83887 0.54248 0.47696 0.0
H1184 H 0.85409 0.58148 0.47707 0.0
C1185 C 0.85297 0.55951 0.46319 0.0
H1186 H 0.84134 0.56442 0.44037 0.0
H1187 H 0.84542 0.49148 0.44375 0.0
O1188 O -0.00739 0.54211 0.39921 0.0
C1189 C 0.91133 0.48079 0.36204 0.0
Co1190 Co 0.78831 0.69756 0.64261 0.0
Co1191 Co 0.78779 0.62432 0.64219 0.0
C1192 C 0.74008 0.6582 0.60369 0.0
O1193 O 0.75321 0.68337 0.61342 0.0
O1194 O 0.74982 0.63118 0.61326 0.0
C1195 C 0.74999 0.7439 0.66268 0.0
O1196 O 0.73631 0.7174 0.67073 0.0
C1197 C 0.80032 0.55711 0.63669 0.0
C1198 C 0.82507 0.54728 0.68069 0.0
C1199 C 0.8106 0.53219 0.65557 0.0
N1200 N 0.8029 0.5839 0.65262 0.0
N1201 N 0.82 0.57831 0.67789 0.0
C1202 C 0.79475 0.5564 0.6019 0.0
H1203 H 0.81761 0.56028 0.5899 0.0
H1204 H 0.77902 0.57595 0.59481 0.0
H1205 H 0.78556 0.5335 0.59367 0.0
C1206 C 0.78257 0.6851 0.71182 0.0
N1207 N 0.78767 0.67586 0.6819 0.0
N1208 N 0.78317 0.6455 0.68036 0.0
C1209 C 0.77312 0.63499 0.70838 0.0
C1210 C 0.77138 0.65983 0.72946 0.0
C1211 C 0.78712 0.71792 0.72351 0.0
H1212 H 0.80354 0.73099 0.70799 0.0
H1213 H 0.76434 0.7302 0.72396 0.0
H1214 H 0.79629 0.7175 0.74796 0.0
O1215 O 0.82844 0.68885 0.6199 0.0
O1216 O 0.82322 0.63707 0.61927 0.0
H1217 H 0.77638 0.58892 0.72693 0.0
H1218 H 0.73739 0.60414 0.72703 0.0
C1219 C 0.75936 0.60302 0.71316 0.0
H1220 H 0.75447 0.5914 0.69033 0.0
H1221 H 0.82743 0.59551 0.69374 0.0
O1222 O 0.77675 0.74269 0.64925 0.0
C1223 C 0.83809 0.66144 0.61202 0.0
Co1224 Co 0.62135 0.53053 0.67626 0.0
Co1225 Co 0.69459 0.53105 0.67665 0.0
C1226 C 0.66072 0.57875 0.71518 0.0
O1227 O 0.63555 0.56562 0.70546 0.0
O1228 O 0.68774 0.56901 0.7056 0.0
C1229 C 0.57499 0.56885 0.65625 0.0
O1230 O 0.60149 0.58255 0.64819 0.0
C1231 C 0.76182 0.51859 0.68208 0.0
C1232 C 0.77162 0.49383 0.63804 0.0
C1233 C 0.78669 0.50831 0.66316 0.0
N1234 N 0.73501 0.51596 0.66618 0.0
N1235 N 0.74059 0.49888 0.64089 0.0
C1236 C 0.76256 0.52411 0.71688 0.0
H1237 H 0.75872 0.50124 0.72885 0.0
H1238 H 0.743 0.53981 0.72401 0.0
H1239 H 0.78546 0.53332 0.72509 0.0
C1240 C 0.63377 0.53631 0.60705 0.0
N1241 N 0.64302 0.53119 0.63696 0.0
N1242 N 0.67339 0.53569 0.63849 0.0
C1243 C 0.68388 0.54577 0.61047 0.0
C1244 C 0.65903 0.54752 0.58941 0.0
C1245 C 0.60095 0.53177 0.59537 0.0
H1246 H 0.58789 0.51533 0.61089 0.0
H1247 H 0.58866 0.55454 0.59495 0.0
H1248 H 0.60136 0.52262 0.57092 0.0
O1249 O 0.63008 0.49039 0.69896 0.0
O1250 O 0.68186 0.4956 0.69957 0.0
H1251 H 0.72995 0.54253 0.5919 0.0
H1252 H 0.71471 0.58152 0.59183 0.0
C1253 C 0.71584 0.55954 0.60569 0.0
H1254 H 0.72748 0.56443 0.62852 0.0
H1255 H 0.72337 0.49145 0.62506 0.0
O1256 O 0.57622 0.54208 0.66966 0.0
C1257 C 0.6575 0.48074 0.70682 0.0
Co1258 Co 0.7883 0.37125 0.92626 0.0
Co1259 Co 0.78779 0.44449 0.92665 0.0
C1260 C 0.74008 0.41063 0.96517 0.0
O1261 O 0.7532 0.38546 0.95545 0.0
O1262 O 0.74982 0.43764 0.95559 0.0
C1263 C 0.74998 0.3249 0.9062 0.0
O1264 O 0.73631 0.3514 0.89812 0.0
C1265 C 0.80029 0.5117 0.93212 0.0
C1266 C 0.82509 0.52151 0.8881 0.0
C1267 C 0.81061 0.53657 0.91322 0.0
N1268 N 0.80291 0.4849 0.91621 0.0
N1269 N 0.82002 0.49048 0.89093 0.0
C1270 C 0.79476 0.51243 0.96692 0.0
H1271 H 0.81763 0.50857 0.9789 0.0
H1272 H 0.77904 0.49288 0.97404 0.0
H1273 H 0.78556 0.53534 0.97514 0.0
C1274 C 0.78259 0.3837 0.85703 0.0
N1275 N 0.78766 0.39293 0.88696 0.0
N1276 N 0.78317 0.42329 0.88849 0.0
C1277 C 0.77315 0.43379 0.86045 0.0
C1278 C 0.77144 0.40896 0.83934 0.0
C1279 C 0.78715 0.35087 0.84537 0.0
H1280 H 0.80357 0.33782 0.8609 0.0
H1281 H 0.76438 0.33858 0.84491 0.0
H1282 H 0.79634 0.35129 0.82092 0.0
O1283 O 0.82843 0.37996 0.94897 0.0
O1284 O 0.82322 0.43174 0.94958 0.0
H1285 H 0.77646 0.47986 0.84189 0.0
H1286 H 0.73745 0.46466 0.84177 0.0
C1287 C 0.75941 0.46576 0.85565 0.0
H1288 H 0.75451 0.4774 0.87848 0.0
H1289 H 0.82745 0.47326 0.8751 0.0
O1290 O 0.77674 0.32612 0.91964 0.0
C1291 C 0.83809 0.40737 0.95683 0.0
Co1292 Co 0.94748 0.5383 0.17624 0.0
Co1293 Co 0.87424 0.53778 0.17664 0.0
C1294 C 0.90811 0.49009 0.21517 0.0
O1295 O 0.93328 0.50321 0.20545 0.0
O1296 O 0.88109 0.49983 0.2056 0.0
C1297 C -0.00616 0.49997 0.15623 0.0
O1298 O 0.96734 0.48628 0.14817 0.0
C1299 C 0.80702 0.55024 0.18209 0.0
C1300 C 0.79721 0.575 0.13804 0.0
C1301 C 0.78214 0.56052 0.16316 0.0
N1302 N 0.83383 0.55287 0.16618 0.0
N1303 N 0.82824 0.56995 0.14089 0.0
C1304 C 0.80628 0.54472 0.21688 0.0
H1305 H 0.81012 0.56759 0.22886 0.0
H1306 H 0.82583 0.52902 0.22401 0.0
H1307 H 0.78337 0.53551 0.2251 0.0
C1308 C 0.93505 0.53252 0.10703 0.0
N1309 N 0.92581 0.53764 0.13695 0.0
N1310 N 0.89544 0.53314 0.13849 0.0
C1311 C 0.88495 0.52306 0.11047 0.0
C1312 C 0.9098 0.52131 0.0894 0.0
C1313 C 0.96788 0.53706 0.09535 0.0
H1314 H -0.01906 0.55349 0.11087 0.0
H1315 H 0.98017 0.51429 0.09493 0.0
H1316 H 0.96747 0.54621 0.0709 0.0
O1317 O 0.93876 0.57844 0.19893 0.0
O1318 O 0.88697 0.57323 0.19955 0.0
H1319 H 0.83887 0.5263 0.0919 0.0
H1320 H 0.85411 0.48731 0.09184 0.0
C1321 C 0.85299 0.50929 0.10569 0.0
H1322 H 0.84135 0.50441 0.12852 0.0
H1323 H 0.84545 0.57738 0.12505 0.0
O1324 O -0.00739 0.52675 0.16963 0.0
C1325 C 0.91134 0.5881 0.20679 0.0
Co1326 Co 0.78052 0.69759 0.42624 0.0
Co1327 Co 0.78103 0.62435 0.42664 0.0
C1328 C 0.82874 0.65821 0.46515 0.0
O1329 O 0.81562 0.68337 0.45543 0.0
O1330 O 0.819 0.63119 0.45557 0.0
C1331 C 0.81886 0.74393 0.40619 0.0
O1332 O 0.83253 0.71743 0.39813 0.0
C1333 C 0.76853 0.55713 0.4321 0.0
C1334 C 0.74375 0.54733 0.38807 0.0
C1335 C 0.75823 0.53226 0.41319 0.0
N1336 N 0.76592 0.58394 0.41619 0.0
N1337 N 0.74882 0.57836 0.3909 0.0
C1338 C 0.77407 0.55639 0.46689 0.0
H1339 H 0.7512 0.56026 0.47888 0.0
H1340 H 0.78978 0.57594 0.47402 0.0
H1341 H 0.78326 0.53349 0.47511 0.0
C1342 C 0.78627 0.68516 0.35702 0.0
N1343 N 0.78116 0.67591 0.38694 0.0
N1344 N 0.78566 0.64555 0.38848 0.0
C1345 C 0.79572 0.63505 0.36046 0.0
C1346 C 0.79747 0.65989 0.33939 0.0
C1347 C 0.78173 0.71798 0.34535 0.0
H1348 H 0.76532 0.73105 0.36088 0.0
H1349 H 0.80451 0.73026 0.3449 0.0
H1350 H 0.77256 0.71757 0.3209 0.0
O1351 O 0.74039 0.68888 0.44896 0.0
O1352 O 0.7456 0.63709 0.44956 0.0
H1353 H 0.79246 0.58898 0.34189 0.0
H1354 H 0.83145 0.6042 0.34181 0.0
C1355 C 0.80948 0.60308 0.35567 0.0
H1356 H 0.81437 0.59145 0.3785 0.0
H1357 H 0.7414 0.59558 0.37507 0.0
O1358 O 0.79209 0.74272 0.41962 0.0
C1359 C 0.73073 0.66146 0.45682 0.0
Co1360 Co 0.89258 0.62138 0.53831 0.0
Co1361 Co 0.8922 0.69463 0.53779 0.0
C1362 C 0.85368 0.66077 0.49008 0.0
O1363 O 0.86339 0.6356 0.50321 0.0
O1364 O 0.86326 0.68779 0.49982 0.0
C1365 C 0.9126 0.57504 0.49998 0.0
O1366 O 0.92066 0.60153 0.4863 0.0
C1367 C 0.88677 0.76185 0.55026 0.0
C1368 C 0.9308 0.77165 0.57503 0.0
C1369 C 0.90568 0.78672 0.56055 0.0
N1370 N 0.90267 0.73503 0.55288 0.0
N1371 N 0.92796 0.74061 0.56998 0.0
C1372 C 0.85198 0.76259 0.54472 0.0
H1373 H 0.83999 0.75874 0.5676 0.0
H1374 H 0.84485 0.74304 0.52901 0.0
H1375 H 0.84376 0.7855 0.53552 0.0
C1376 C 0.96179 0.63379 0.53256 0.0
N1377 N 0.93188 0.64305 0.53766 0.0
N1378 N 0.93036 0.67341 0.53316 0.0
C1379 C 0.95838 0.6839 0.5231 0.0
C1380 C 0.97944 0.65904 0.52135 0.0
C1381 C 0.97345 0.60095 0.53709 0.0
H1382 H 0.95791 0.58789 0.5535 0.0
H1383 H 0.97391 0.58869 0.51431 0.0
H1384 H -0.0021 0.60135 0.54628 0.0
O1385 O 0.86988 0.63011 0.57844 0.0
O1386 O 0.86928 0.6819 0.57323 0.0
H1387 H 0.97696 0.72996 0.52635 0.0
H1388 H 0.97705 0.71473 0.48736 0.0
C1389 C 0.96318 0.71586 0.50933 0.0
H1390 H 0.94036 0.7275 0.50443 0.0
H1391 H 0.94378 0.7234 0.57741 0.0
O1392 O 0.89918 0.57625 0.52675 0.0
C1393 C 0.86202 0.65753 0.5881 0.0
Co1394 Co 0.39261 0.94747 0.53054 0.0
Co1395 Co 0.39222 0.87423 0.53107 0.0
C1396 C 0.3537 0.90811 0.57877 0.0
O1397 O 0.36342 0.93327 0.56564 0.0
O1398 O 0.36327 0.88109 0.56904 0.0
C1399 C 0.41263 -0.00617 0.56886 0.0
O1400 O 0.42069 0.96734 0.58255 0.0
C1401 C 0.38676 0.80701 0.51862 0.0
C1402 C 0.4308 0.79718 0.49385 0.0
C1403 C 0.40567 0.78213 0.50834 0.0
N1404 N 0.40267 0.83381 0.51599 0.0
N1405 N 0.42796 0.82822 0.4989 0.0
C1406 C 0.35197 0.80628 0.52416 0.0
H1407 H 0.33999 0.81012 0.50129 0.0
H1408 H 0.34485 0.82584 0.53986 0.0
H1409 H 0.34375 0.78338 0.53338 0.0
C1410 C 0.46182 0.93505 0.53631 0.0
N1411 N 0.43191 0.9258 0.5312 0.0
N1412 N 0.43037 0.89543 0.5357 0.0
C1413 C 0.45839 0.88494 0.54577 0.0
C1414 C 0.47946 0.90979 0.54752 0.0
C1415 C 0.47349 0.96787 0.53176 0.0
H1416 H 0.45797 -0.01907 0.51532 0.0
H1417 H 0.47392 0.98016 0.55453 0.0
H1418 H 0.49795 0.96746 0.5226 0.0
O1419 O 0.36991 0.93874 0.49041 0.0
O1420 O 0.3693 0.88696 0.49562 0.0
H1421 H 0.47695 0.83886 0.54253 0.0
H1422 H 0.47704 0.8541 0.58152 0.0
C1423 C 0.46318 0.85298 0.55954 0.0
H1424 H 0.44035 0.84135 0.56444 0.0
H1425 H 0.44379 0.84543 0.49146 0.0
O1426 O 0.39922 -0.00739 0.54209 0.0
C1427 C 0.36205 0.91132 0.48075 0.0
Co1428 Co 0.37128 0.14262 0.78051 0.0
Co1429 Co 0.44452 0.14221 0.78103 0.0
C1430 C 0.41064 0.10371 0.82875 0.0
O1431 O 0.38547 0.11344 0.81561 0.0
O1432 O 0.43766 0.11328 0.819 0.0
C1433 C 0.32492 0.16267 0.81883 0.0
O1434 O 0.35142 0.17073 0.83251 0.0
C1435 C 0.51174 0.13674 0.76856 0.0
C1436 C 0.52156 0.18076 0.74378 0.0
C1437 C 0.53662 0.15564 0.75826 0.0
N1438 N 0.48493 0.15265 0.76593 0.0
N1439 N 0.49053 0.17793 0.74883 0.0
C1440 C 0.51246 0.10195 0.7741 0.0
H1441 H 0.50861 0.08996 0.75123 0.0
H1442 H 0.4929 0.09483 0.78981 0.0
H1443 H 0.53536 0.09372 0.78331 0.0
C1444 C 0.38372 0.21183 0.78625 0.0
N1445 N 0.39296 0.18191 0.78115 0.0
N1446 N 0.42332 0.18037 0.78565 0.0
C1447 C 0.43383 0.20839 0.79571 0.0
C1448 C 0.40898 0.22946 0.79745 0.0
C1449 C 0.3509 0.22351 0.78171 0.0
H1450 H 0.33783 0.20799 0.76528 0.0
H1451 H 0.33861 0.22396 0.80448 0.0
H1452 H 0.35132 0.24796 0.77254 0.0
O1453 O 0.38 0.1199 0.74038 0.0
O1454 O 0.43178 0.11929 0.74559 0.0
H1455 H 0.4799 0.22694 0.79246 0.0
H1456 H 0.46467 0.22703 0.83145 0.0
C1457 C 0.46579 0.21317 0.80948 0.0
H1458 H 0.47742 0.19034 0.81438 0.0
H1459 H 0.47332 0.19377 0.7414 0.0
O1460 O 0.32614 0.14925 0.79206 0.0
C1461 C 0.40741 0.11203 0.73073 0.0
Co1462 Co 0.17622 0.12136 0.03054 0.0
Co1463 Co 0.17661 0.1946 0.03106 0.0
C1464 C 0.21512 0.16072 0.07877 0.0
O1465 O 0.2054 0.13556 0.06564 0.0
O1466 O 0.20555 0.18774 0.06903 0.0
C1467 C 0.1562 0.075 0.06887 0.0
O1468 O 0.14814 0.10149 0.08256 0.0
C1469 C 0.18206 0.26182 0.01861 0.0
C1470 C 0.13802 0.27164 -0.00616 0.0
C1471 C 0.16314 0.2867 0.00832 0.0
N1472 N 0.16615 0.23502 0.01598 0.0
N1473 N 0.14086 0.24061 -0.00111 0.0
C1474 C 0.21685 0.26255 0.02414 0.0
H1475 H 0.22883 0.25871 0.00127 0.0
H1476 H 0.22397 0.24299 0.03984 0.0
H1477 H 0.22507 0.28545 0.03335 0.0
C1478 C 0.10701 0.13378 0.03631 0.0
N1479 N 0.13692 0.14303 0.0312 0.0
N1480 N 0.13845 0.1734 0.03569 0.0
C1481 C 0.11043 0.18389 0.04577 0.0
C1482 C 0.08937 0.15904 0.04752 0.0
C1483 C 0.09534 0.10095 0.03177 0.0
H1484 H 0.11085 0.08789 0.01534 0.0
H1485 H 0.09491 0.08867 0.05455 0.0
H1486 H 0.07088 0.10136 0.02262 0.0
O1487 O 0.19892 0.13009 -0.0096 0.0
O1488 O 0.19953 0.18188 -0.00438 0.0
H1489 H 0.09187 0.22996 0.04253 0.0
H1490 H 0.09178 0.21472 0.08152 0.0
C1491 C 0.10565 0.21585 0.05954 0.0
H1492 H 0.12847 0.22748 0.06444 0.0
H1493 H 0.12503 0.2234 -0.00854 0.0
O1494 O 0.16961 0.07622 0.04209 0.0
C1495 C 0.20678 0.15751 -0.01925 0.0
Co1496 Co 0.69754 0.4262 0.78052 0.0
Co1497 Co 0.6243 0.42661 0.78103 0.0
C1498 C 0.65816 0.4651 0.82875 0.0
O1499 O 0.68333 0.45538 0.81562 0.0
O1500 O 0.63114 0.45553 0.81901 0.0
C1501 C 0.74387 0.40615 0.81885 0.0
O1502 O 0.71737 0.39809 0.83253 0.0
C1503 C 0.55708 0.43208 0.76856 0.0
C1504 C 0.54726 0.38806 0.74378 0.0
C1505 C 0.5322 0.41318 0.75826 0.0
N1506 N 0.58388 0.41617 0.76593 0.0
N1507 N 0.57829 0.39088 0.74883 0.0
C1508 C 0.55636 0.46687 0.77411 0.0
H1509 H 0.56023 0.47886 0.75124 0.0
H1510 H 0.57591 0.47398 0.78983 0.0
H1511 H 0.53345 0.4751 0.78331 0.0
C1512 C 0.68511 0.35699 0.78625 0.0
N1513 N 0.67586 0.38691 0.78115 0.0
N1514 N 0.64549 0.38845 0.78565 0.0
C1515 C 0.635 0.36042 0.79571 0.0
C1516 C 0.65984 0.33935 0.79746 0.0
C1517 C 0.71793 0.34532 0.78172 0.0
H1518 H 0.73101 0.36086 0.76533 0.0
H1519 H 0.73019 0.34484 0.80451 0.0
H1520 H 0.71752 0.32088 0.77253 0.0
O1521 O 0.68883 0.44893 0.74039 0.0
O1522 O 0.63704 0.44954 0.7456 0.0
H1523 H 0.58892 0.34187 0.79246 0.0
H1524 H 0.60415 0.34177 0.83145 0.0
C1525 C 0.60303 0.35564 0.80948 0.0
H1526 H 0.5914 0.37847 0.81437 0.0
H1527 H 0.5955 0.37505 0.7414 0.0
O1528 O 0.74267 0.41958 0.79209 0.0
C1529 C 0.66141 0.45679 0.73074 0.0
Co1530 Co 0.67624 0.44745 0.03833 0.0
Co1531 Co 0.67662 0.3742 0.03782 0.0
C1532 C 0.71514 0.40806 -0.0099 0.0
O1533 O 0.70543 0.43323 0.00323 0.0
O1534 O 0.70556 0.38104 -0.00015 0.0
C1535 C 0.65623 0.4938 0.0 0.0
O1536 O 0.64816 0.4673 -0.01368 0.0
C1537 C 0.68206 0.30698 0.05029 0.0
C1538 C 0.63803 0.29717 0.07506 0.0
C1539 C 0.66315 0.28211 0.06058 0.0
N1540 N 0.66616 0.33379 0.05291 0.0
N1541 N 0.64087 0.32821 0.07001 0.0
C1542 C 0.71685 0.30624 0.04474 0.0
H1543 H 0.72884 0.3101 0.06761 0.0
H1544 H 0.72398 0.32579 0.02903 0.0
H1545 H 0.72507 0.28334 0.03554 0.0
C1546 C 0.60703 0.43504 0.03259 0.0
N1547 N 0.63694 0.42578 0.03769 0.0
N1548 N 0.63847 0.39542 0.03319 0.0
C1549 C 0.61044 0.38493 0.02313 0.0
C1550 C 0.58938 0.40979 0.02138 0.0
C1551 C 0.59537 0.46787 0.03711 0.0
H1552 H 0.61091 0.48094 0.05352 0.0
H1553 H 0.59492 0.48014 0.01433 0.0
H1554 H 0.57093 0.46747 0.0463 0.0
O1555 O 0.69894 0.43872 0.07846 0.0
O1556 O 0.69955 0.38693 0.07326 0.0
H1557 H 0.59187 0.33886 0.02639 0.0
H1558 H 0.59178 0.3541 -0.01261 0.0
C1559 C 0.60564 0.35297 0.00936 0.0
H1560 H 0.62847 0.34133 0.00447 0.0
H1561 H 0.62504 0.34542 0.07744 0.0
O1562 O 0.66964 0.49258 0.02677 0.0
C1563 C 0.7068 0.4113 0.08812 0.0
Co1564 Co 0.37127 0.92626 0.78833 0.0
Co1565 Co 0.44451 0.92666 0.78783 0.0
C1566 C 0.41065 0.96516 0.7401 0.0
O1567 O 0.38548 0.95544 0.75323 0.0
O1568 O 0.43766 0.95559 0.74985 0.0
C1569 C 0.32493 0.90621 0.75001 0.0
O1570 O 0.35143 0.89814 0.73633 0.0
C1571 C 0.51172 0.93214 0.80032 0.0
C1572 C 0.52154 0.88813 0.82513 0.0
C1573 C 0.5366 0.91325 0.81064 0.0
N1574 N 0.48492 0.91623 0.80294 0.0
N1575 N 0.49051 0.89095 0.82005 0.0
C1576 C 0.51245 0.96693 0.79478 0.0
H1577 H 0.50859 0.97892 0.81765 0.0
H1578 H 0.49289 0.97405 0.77907 0.0
H1579 H 0.53535 0.97516 0.78557 0.0
C1580 C 0.38371 0.85704 0.78262 0.0
N1581 N 0.39295 0.88696 0.78771 0.0
N1582 N 0.42332 0.8885 0.78321 0.0
C1583 C 0.43382 0.86047 0.77317 0.0
C1584 C 0.40898 0.8394 0.77143 0.0
C1585 C 0.35089 0.84537 0.78715 0.0
H1586 H 0.33782 0.8609 0.80358 0.0
H1587 H 0.33861 0.84493 0.76438 0.0
H1588 H 0.3513 0.82092 0.79633 0.0
O1589 O 0.37998 0.94898 0.82846 0.0
O1590 O 0.43176 0.94959 0.82325 0.0
H1591 H 0.4799 0.84193 0.77646 0.0
H1592 H 0.46469 0.8418 0.73746 0.0
C1593 C 0.4658 0.85568 0.75942 0.0
H1594 H 0.47742 0.87851 0.75451 0.0
H1595 H 0.4733 0.87512 0.82748 0.0
O1596 O 0.32614 0.91964 0.77678 0.0
C1597 C 0.40739 0.95684 0.83811 0.0
Co1598 Co 0.19757 0.14259 0.28834 0.0
Co1599 Co 0.12432 0.14218 0.28784 0.0
C1600 C 0.15819 0.10369 0.24011 0.0
O1601 O 0.18336 0.11341 0.25324 0.0
O1602 O 0.13117 0.11326 0.24986 0.0
C1603 C 0.2439 0.16264 0.25001 0.0
O1604 O 0.2174 0.1707 0.23634 0.0
C1605 C 0.05711 0.1367 0.30034 0.0
C1606 C 0.04729 0.18072 0.32514 0.0
C1607 C 0.03224 0.1556 0.31066 0.0
N1608 N 0.08391 0.15262 0.30295 0.0
N1609 N 0.07832 0.1779 0.32006 0.0
C1610 C 0.05639 0.10191 0.2948 0.0
H1611 H 0.06025 0.08992 0.31767 0.0
H1612 H 0.07595 0.09479 0.27909 0.0
H1613 H 0.03349 0.09368 0.2856 0.0
C1614 C 0.18512 0.2118 0.28261 0.0
N1615 N 0.17588 0.18188 0.28771 0.0
N1616 N 0.14552 0.18035 0.28322 0.0
C1617 C 0.13501 0.20837 0.27317 0.0
C1618 C 0.15985 0.22944 0.27143 0.0
C1619 C 0.21795 0.22348 0.28715 0.0
H1620 H 0.23102 0.20796 0.30357 0.0
H1621 H 0.23022 0.22392 0.26437 0.0
H1622 H 0.21753 0.24793 0.29631 0.0
O1623 O 0.18886 0.11987 0.32847 0.0
O1624 O 0.13707 0.11926 0.32326 0.0
H1625 H 0.08893 0.22692 0.27646 0.0
H1626 H 0.10415 0.22704 0.23746 0.0
C1627 C 0.10304 0.21316 0.25942 0.0
H1628 H 0.09141 0.19033 0.25452 0.0
H1629 H 0.09554 0.19373 0.32749 0.0
O1630 O 0.24269 0.14921 0.27678 0.0
C1631 C 0.16144 0.112 0.33812 0.0
loop_
_geom_bond_atom_site_label_1
_geom_bond_atom_site_label_2
_geom_bond_distance
_geom_bond_site_symmetry_2
_ccdc_geom_bond_type
Co0 O3 1.970 . S
Co0 N17 1.989 . S
Co0 O25 1.967 . S
Co0 O32 1.920 . S
Co1 O4 1.966 . S
Co1 N10 2.022 . S
Co1 N18 1.993 . S
Co1 O26 1.941 . S
C2 O3 1.258 . S
C2 O4 1.263 . S
O3 Co0 1.970 . S
O3 C2 1.258 . S
O4 Co1 1.966 . S
O4 C2 1.263 . S
C5 O6 1.235 . S
C5 O32 1.289 . S
O6 C5 1.235 . S
C7 C9 1.400 . S
C7 N10 1.351 . S
C7 C12 1.501 . S
C8 C9 1.387 . S
C8 N11 1.341 . S
C9 C7 1.400 . S
C9 C8 1.387 . S
N10 Co1 2.022 . S
N10 C7 1.351 . S
N10 N11 1.365 . S
N11 C8 1.341 . S
N11 N10 1.365 . S
N11 H31 0.862 . S
C12 C7 1.501 . S
C12 H13 0.961 . S
C12 H14 0.961 . S
C12 H15 0.960 . S
H13 C12 0.961 . S
H14 C12 0.961 . S
H15 C12 0.960 . S
C16 N17 1.342 . S
C16 C20 1.401 . S
C16 C21 1.499 . S
N17 Co0 1.989 . S
N17 C16 1.342 . S
N17 N18 1.388 . S
N18 Co1 1.993 . S
N18 N17 1.388 . S
N18 C19 1.346 . S
C19 N18 1.346 . S
C19 C20 1.396 . S
C19 C29 1.510 . S
C20 C16 1.401 . S
C20 C19 1.396 . S
C21 C16 1.499 . S
C21 H22 0.959 . S
C21 H23 0.960 . S
C21 H24 0.961 . S
H22 C21 0.959 . S
H23 C21 0.960 . S
H24 C21 0.961 . S
O25 Co0 1.967 . S
O25 C33 1.258 . S
O26 Co1 1.941 . S
O26 C33 1.266 . S
H27 C29 0.959 . S
H28 C29 0.961 . S
C29 C19 1.510 . S
C29 H27 0.959 . S
C29 H28 0.961 . S
C29 H30 0.960 . S
H30 C29 0.960 . S
H31 N11 0.862 . S
O32 Co0 1.920 . S
O32 C5 1.289 . S
C33 O25 1.258 . S
C33 O26 1.266 . S
Co34 O37 1.970 . S
Co34 N51 1.989 . S
Co34 O59 1.967 . S
Co34 O66 1.920 . S
Co35 O38 1.966 . S
Co35 N44 2.022 . S
Co35 N52 1.993 . S
Co35 O60 1.941 . S
C36 O37 1.258 . S
C36 O38 1.263 . S
O37 Co34 1.970 . S
O37 C36 1.258 . S
O38 Co35 1.966 . S
O38 C36 1.263 . S
C39 O40 1.235 . S
C39 O66 1.289 . S
O40 C39 1.235 . S
C41 C43 1.400 . S
C41 N44 1.351 . S
C41 C46 1.501 . S
C42 C43 1.387 . S
C42 N45 1.341 . S
C43 C41 1.400 . S
C43 C42 1.387 . S
N44 Co35 2.022 . S
N44 C41 1.351 . S
N44 N45 1.365 . S
N45 C42 1.341 . S
N45 N44 1.365 . S
N45 H65 0.862 . S
C46 C41 1.501 . S
C46 H47 0.961 . S
C46 H48 0.961 . S
C46 H49 0.960 . S
H47 C46 0.961 . S
H48 C46 0.961 . S
H49 C46 0.960 . S
C50 N51 1.342 . S
C50 C54 1.401 . S
C50 C55 1.499 . S
N51 Co34 1.989 . S
N51 C50 1.342 . S
N51 N52 1.388 . S
N52 Co35 1.993 . S
N52 N51 1.388 . S
N52 C53 1.346 . S
C53 N52 1.346 . S
C53 C54 1.396 . S
C53 C63 1.510 . S
C54 C50 1.401 . S
C54 C53 1.396 . S
C55 C50 1.499 . S
C55 H56 0.959 . S
C55 H57 0.960 . S
C55 H58 0.961 . S
H56 C55 0.959 . S
H57 C55 0.960 . S
H58 C55 0.961 . S
O59 Co34 1.967 . S
O59 C67 1.258 . S
O60 Co35 1.941 . S
O60 C67 1.266 . S
H61 C63 0.959 . S
H62 C63 0.961 . S
C63 C53 1.510 . S
C63 H61 0.959 . S
C63 H62 0.961 . S
C63 H64 0.960 . S
H64 C63 0.960 . S
H65 N45 0.862 . S
O66 Co34 1.920 . S
O66 C39 1.289 . S
C67 O59 1.258 . S
C67 O60 1.266 . S
Co68 O71 1.970 . S
Co68 N85 1.989 . S
Co68 O93 1.967 . S
Co68 O100 1.920 . S
Co69 O72 1.966 . S
Co69 N78 2.022 . S
Co69 N86 1.993 . S
Co69 O94 1.941 . S
C70 O71 1.258 . S
C70 O72 1.263 . S
O71 Co68 1.970 . S
O71 C70 1.258 . S
O72 Co69 1.966 . S
O72 C70 1.263 . S
C73 O74 1.235 . S
C73 O100 1.289 . S
O74 C73 1.235 . S
C75 C77 1.400 . S
C75 N78 1.351 . S
C75 C80 1.501 . S
C76 C77 1.387 . S
C76 N79 1.341 . S
C77 C75 1.400 . S
C77 C76 1.387 . S
N78 Co69 2.022 . S
N78 C75 1.351 . S
N78 N79 1.365 . S
N79 C76 1.341 . S
N79 N78 1.365 . S
N79 H99 0.862 . S
C80 C75 1.501 . S
C80 H81 0.961 . S
C80 H82 0.961 . S
C80 H83 0.960 . S
H81 C80 0.961 . S
H82 C80 0.961 . S
H83 C80 0.960 . S
C84 N85 1.342 . S
C84 C88 1.401 . S
C84 C89 1.499 . S
N85 Co68 1.989 . S
N85 C84 1.342 . S
N85 N86 1.388 . S
N86 Co69 1.993 . S
N86 N85 1.388 . S
N86 C87 1.346 . S
C87 N86 1.346 . S
C87 C88 1.396 . S
C87 C97 1.510 . S
C88 C84 1.401 . S
C88 C87 1.396 . S
C89 C84 1.499 . S
C89 H90 0.959 . S
C89 H91 0.960 . S
C89 H92 0.961 . S
H90 C89 0.959 . S
H91 C89 0.960 . S
H92 C89 0.961 . S
O93 Co68 1.967 . S
O93 C101 1.258 . S
O94 Co69 1.941 . S
O94 C101 1.266 . S
H95 C97 0.959 . S
H96 C97 0.961 . S
C97 C87 1.510 . S
C97 H95 0.959 . S
C97 H96 0.961 . S
C97 H98 0.960 . S
H98 C97 0.960 . S
H99 N79 0.862 . S
O100 Co68 1.920 . S
O100 C73 1.289 . S
C101 O93 1.258 . S
C101 O94 1.266 . S
Co102 O105 1.970 . S
Co102 N119 1.989 . S
Co102 O127 1.967 . S
Co102 O134 1.920 . S
Co103 O106 1.966 . S
Co103 N112 2.022 1_556 S
Co103 N120 1.993 . S
Co103 O128 1.941 . S
C104 O105 1.258 . S
C104 O106 1.263 . S
O105 Co102 1.970 . S
O105 C104 1.258 . S
O106 Co103 1.966 . S
O106 C104 1.263 . S
C107 O108 1.235 . S
C107 O134 1.289 . S
O108 C107 1.235 . S
C109 C111 1.400 . S
C109 N112 1.351 . S
C109 C114 1.501 . S
C110 C111 1.387 . S
C110 N113 1.341 . S
C111 C109 1.400 . S
C111 C110 1.387 . S
N112 Co103 2.022 1_554 S
N112 C109 1.351 . S
N112 N113 1.365 . S
N113 C110 1.341 . S
N113 N112 1.365 . S
N113 H133 0.862 . S
C114 C109 1.501 . S
C114 H115 0.961 1_554 S
C114 H116 0.961 . S
C114 H117 0.960 . S
H115 C114 0.961 1_556 S
H116 C114 0.961 . S
H117 C114 0.960 . S
C118 N119 1.342 . S
C118 C122 1.401 . S
C118 C123 1.499 . S
N119 Co102 1.989 . S
N119 C118 1.342 . S
N119 N120 1.388 . S
N120 Co103 1.993 . S
N120 N119 1.388 . S
N120 C121 1.346 . S
C121 N120 1.346 . S
C121 C122 1.396 . S
C121 C131 1.510 . S
C122 C118 1.401 . S
C122 C121 1.396 . S
C123 C118 1.499 . S
C123 H124 0.959 . S
C123 H125 0.960 . S
C123 H126 0.961 . S
H124 C123 0.959 . S
H125 C123 0.960 . S
H126 C123 0.961 . S
O127 Co102 1.967 . S
O127 C135 1.258 . S
O128 Co103 1.941 . S
O128 C135 1.266 . S
H129 C131 0.959 . S
H130 C131 0.961 . S
C131 C121 1.510 . S
C131 H129 0.959 . S
C131 H130 0.961 . S
C131 H132 0.960 . S
H132 C131 0.960 . S
H133 N113 0.862 . S
O134 Co102 1.920 . S
O134 C107 1.289 . S
C135 O127 1.258 . S
C135 O128 1.266 . S
Co136 O139 1.970 . S
Co136 N153 1.989 . S
Co136 O161 1.967 . S
Co136 O168 1.920 . S
Co137 O140 1.966 . S
Co137 N146 2.022 . S
Co137 N154 1.993 . S
Co137 O162 1.941 . S
C138 O139 1.258 . S
C138 O140 1.263 . S
O139 Co136 1.970 . S
O139 C138 1.258 . S
O140 Co137 1.966 . S
O140 C138 1.263 . S
C141 O142 1.235 . S
C141 O168 1.289 . S
O142 C141 1.235 . S
C143 C145 1.400 . S
C143 N146 1.351 . S
C143 C148 1.501 . S
C144 C145 1.387 . S
C144 N147 1.341 . S
C145 C143 1.400 . S
C145 C144 1.387 . S
N146 Co137 2.022 . S
N146 C143 1.351 . S
N146 N147 1.365 . S
N147 C144 1.341 . S
N147 N146 1.365 . S
N147 H167 0.862 . S
C148 C143 1.501 . S
C148 H149 0.961 . S
C148 H150 0.961 . S
C148 H151 0.960 . S
H149 C148 0.961 . S
H150 C148 0.961 . S
H151 C148 0.960 . S
C152 N153 1.342 . S
C152 C156 1.401 . S
C152 C157 1.499 . S
N153 Co136 1.989 . S
N153 C152 1.342 . S
N153 N154 1.388 . S
N154 Co137 1.993 . S
N154 N153 1.388 . S
N154 C155 1.346 . S
C155 N154 1.346 . S
C155 C156 1.396 . S
C155 C165 1.510 . S
C156 C152 1.401 . S
C156 C155 1.396 . S
C157 C152 1.499 . S
C157 H158 0.959 . S
C157 H159 0.960 . S
C157 H160 0.961 . S
H158 C157 0.959 . S
H159 C157 0.960 . S
H160 C157 0.961 . S
O161 Co136 1.967 . S
O161 C169 1.258 . S
O162 Co137 1.941 . S
O162 C169 1.266 . S
H163 C165 0.959 . S
H164 C165 0.961 . S
C165 C155 1.510 . S
C165 H163 0.959 . S
C165 H164 0.961 . S
C165 H166 0.960 . S
H166 C165 0.960 . S
H167 N147 0.862 . S
O168 Co136 1.920 . S
O168 C141 1.289 . S
C169 O161 1.258 . S
C169 O162 1.266 . S
Co170 O173 1.970 . S
Co170 N187 1.989 . S
Co170 O195 1.967 . S
Co170 O202 1.920 . S
Co171 O174 1.966 . S
Co171 N180 2.022 . S
Co171 N188 1.993 . S
Co171 O196 1.941 . S
C172 O173 1.258 . S
C172 O174 1.263 . S
O173 Co170 1.970 . S
O173 C172 1.258 . S
O174 Co171 1.966 . S
O174 C172 1.263 . S
C175 O176 1.235 . S
C175 O202 1.289 . S
O176 C175 1.235 . S
C177 C179 1.400 . S
C177 N180 1.351 . S
C177 C182 1.501 . S
C178 C179 1.387 . S
C178 N181 1.341 . S
C179 C177 1.400 . S
C179 C178 1.387 . S
N180 Co171 2.022 . S
N180 C177 1.351 . S
N180 N181 1.365 . S
N181 C178 1.341 . S
N181 N180 1.365 . S
N181 H201 0.862 . S
C182 C177 1.501 . S
C182 H183 0.961 . S
C182 H184 0.961 . S
C182 H185 0.960 . S
H183 C182 0.961 . S
H184 C182 0.961 . S
H185 C182 0.960 . S
C186 N187 1.342 . S
C186 C190 1.401 . S
C186 C191 1.499 . S
N187 Co170 1.989 . S
N187 C186 1.342 . S
N187 N188 1.388 . S
N188 Co171 1.993 . S
N188 N187 1.388 . S
N188 C189 1.346 . S
C189 N188 1.346 . S
C189 C190 1.396 . S
C189 C199 1.510 . S
C190 C186 1.401 . S
C190 C189 1.396 . S
C191 C186 1.499 . S
C191 H192 0.959 . S
C191 H193 0.960 . S
C191 H194 0.961 . S
H192 C191 0.959 . S
H193 C191 0.960 . S
H194 C191 0.961 . S
O195 Co170 1.967 . S
O195 C203 1.258 . S
O196 Co171 1.941 . S
O196 C203 1.266 . S
H197 C199 0.959 . S
H198 C199 0.961 . S
C199 C189 1.510 . S
C199 H197 0.959 . S
C199 H198 0.961 . S
C199 H200 0.960 . S
H200 C199 0.960 . S
H201 N181 0.862 . S
O202 Co170 1.920 . S
O202 C175 1.289 . S
C203 O195 1.258 . S
C203 O196 1.266 . S
Co204 O207 1.970 . S
Co204 N221 1.989 . S
Co204 O229 1.967 . S
Co204 O236 1.920 1_556 S
Co205 O208 1.966 . S
Co205 N214 2.022 . S
Co205 N222 1.993 . S
Co205 O230 1.941 . S
C206 O207 1.258 . S
C206 O208 1.263 . S
O207 Co204 1.970 . S
O207 C206 1.258 . S
O208 Co205 1.966 . S
O208 C206 1.263 . S
C209 O210 1.235 . S
C209 O236 1.289 . S
O210 C209 1.235 . S
C211 C213 1.400 . S
C211 N214 1.351 . S
C211 C216 1.501 . S
C212 C213 1.387 . S
C212 N215 1.341 . S
C213 C211 1.400 . S
C213 C212 1.387 . S
N214 Co205 2.022 . S
N214 C211 1.351 . S
N214 N215 1.365 . S
N215 C212 1.341 . S
N215 N214 1.365 . S
N215 H235 0.862 . S
C216 C211 1.501 . S
C216 H217 0.961 . S
C216 H218 0.961 . S
C216 H219 0.960 . S
H217 C216 0.961 . S
H218 C216 0.961 . S
H219 C216 0.960 . S
C220 N221 1.342 . S
C220 C224 1.401 . S
C220 C225 1.499 1_556 S
N221 Co204 1.989 . S
N221 C220 1.342 . S
N221 N222 1.388 . S
N222 Co205 1.993 . S
N222 N221 1.388 . S
N222 C223 1.346 . S
C223 N222 1.346 . S
C223 C224 1.396 . S
C223 C233 1.510 . S
C224 C220 1.401 . S
C224 C223 1.396 . S
C225 C220 1.499 1_554 S
C225 H226 0.959 . S
C225 H227 0.960 . S
C225 H228 0.961 . S
H226 C225 0.959 . S
H227 C225 0.960 . S
H228 C225 0.961 . S
O229 Co204 1.967 . S
O229 C237 1.258 . S
O230 Co205 1.941 . S
O230 C237 1.266 . S
H231 C233 0.959 . S
H232 C233 0.961 . S
C233 C223 1.510 . S
C233 H231 0.959 . S
C233 H232 0.961 . S
C233 H234 0.960 . S
H234 C233 0.960 . S
H235 N215 0.862 . S
O236 Co204 1.920 1_554 S
O236 C209 1.289 . S
C237 O229 1.258 . S
C237 O230 1.266 . S
Co238 O241 1.970 . S
Co238 N255 1.989 . S
Co238 O263 1.967 . S
Co238 O270 1.920 . S
Co239 O242 1.966 . S
Co239 N248 2.022 . S
Co239 N256 1.993 . S
Co239 O264 1.941 . S
C240 O241 1.258 . S
C240 O242 1.263 . S
O241 Co238 1.970 . S
O241 C240 1.258 . S
O242 Co239 1.966 . S
O242 C240 1.263 . S
C243 O244 1.235 . S
C243 O270 1.289 . S
O244 C243 1.235 . S
C245 C247 1.400 . S
C245 N248 1.351 . S
C245 C250 1.501 . S
C246 C247 1.387 . S
C246 N249 1.341 . S
C247 C245 1.400 . S
C247 C246 1.387 . S
N248 Co239 2.022 . S
N248 C245 1.351 . S
N248 N249 1.365 . S
N249 C246 1.341 . S
N249 N248 1.365 . S
N249 H269 0.862 . S
C250 C245 1.501 . S
C250 H251 0.961 . S
C250 H252 0.961 . S
C250 H253 0.960 . S
H251 C250 0.961 . S
H252 C250 0.961 . S
H253 C250 0.960 . S
C254 N255 1.342 . S
C254 C258 1.401 . S
C254 C259 1.499 . S
N255 Co238 1.989 . S
N255 C254 1.342 . S
N255 N256 1.388 . S
N256 Co239 1.993 . S
N256 N255 1.388 . S
N256 C257 1.346 . S
C257 N256 1.346 . S
C257 C258 1.396 . S
C257 C267 1.510 . S
C258 C254 1.401 . S
C258 C257 1.396 . S
C259 C254 1.499 . S
C259 H260 0.959 . S
C259 H261 0.960 . S
C259 H262 0.961 . S
H260 C259 0.959 . S
H261 C259 0.960 . S
H262 C259 0.961 . S
O263 Co238 1.967 . S
O263 C271 1.258 . S
O264 Co239 1.941 . S
O264 C271 1.266 . S
H265 C267 0.959 . S
H266 C267 0.961 . S
C267 C257 1.510 . S
C267 H265 0.959 . S
C267 H266 0.961 . S
C267 H268 0.960 . S
H268 C267 0.960 . S
H269 N249 0.862 . S
O270 Co238 1.920 . S
O270 C243 1.289 . S
C271 O263 1.258 . S
C271 O264 1.266 . S
Co272 O275 1.970 . S
Co272 N289 1.989 . S
Co272 O297 1.967 . S
Co272 O304 1.920 . S
Co273 O276 1.966 . S
Co273 N282 2.022 . S
Co273 N290 1.993 . S
Co273 O298 1.941 . S
C274 O275 1.258 . S
C274 O276 1.263 . S
O275 Co272 1.970 . S
O275 C274 1.258 . S
O276 Co273 1.966 . S
O276 C274 1.263 . S
C277 O278 1.235 . S
C277 O304 1.289 . S
O278 C277 1.235 . S
C279 C281 1.400 . S
C279 N282 1.351 . S
C279 C284 1.501 . S
C280 C281 1.387 . S
C280 N283 1.341 . S
C281 C279 1.400 . S
C281 C280 1.387 . S
N282 Co273 2.022 . S
N282 C279 1.351 . S
N282 N283 1.365 . S
N283 C280 1.341 . S
N283 N282 1.365 . S
N283 H303 0.862 . S
C284 C279 1.501 . S
C284 H285 0.961 . S
C284 H286 0.961 . S
C284 H287 0.960 . S
H285 C284 0.961 . S
H286 C284 0.961 . S
H287 C284 0.960 . S
C288 N289 1.342 . S
C288 C292 1.401 . S
C288 C293 1.499 . S
N289 Co272 1.989 . S
N289 C288 1.342 . S
N289 N290 1.388 . S
N290 Co273 1.993 . S
N290 N289 1.388 . S
N290 C291 1.346 . S
C291 N290 1.346 . S
C291 C292 1.396 . S
C291 C301 1.510 . S
C292 C288 1.401 . S
C292 C291 1.396 . S
C293 C288 1.499 . S
C293 H294 0.959 . S
C293 H295 0.960 . S
C293 H296 0.961 . S
H294 C293 0.959 . S
H295 C293 0.960 . S
H296 C293 0.961 . S
O297 Co272 1.967 . S
O297 C305 1.258 . S
O298 Co273 1.941 . S
O298 C305 1.266 . S
H299 C301 0.959 . S
H300 C301 0.961 . S
C301 C291 1.510 . S
C301 H299 0.959 . S
C301 H300 0.961 . S
C301 H302 0.960 . S
H302 C301 0.960 . S
H303 N283 0.862 . S
O304 Co272 1.920 . S
O304 C277 1.289 . S
C305 O297 1.258 . S
C305 O298 1.266 . S
Co306 O309 1.970 . S
Co306 N323 1.989 . S
Co306 O331 1.967 . S
Co306 O338 1.920 . S
Co307 O310 1.966 . S
Co307 N316 2.022 1_565 S
Co307 N324 1.993 . S
Co307 O332 1.941 . S
C308 O309 1.258 . S
C308 O310 1.263 . S
O309 Co306 1.970 . S
O309 C308 1.258 . S
O310 Co307 1.966 . S
O310 C308 1.263 . S
C311 O312 1.235 . S
C311 O338 1.289 . S
O312 C311 1.235 . S
C313 C315 1.400 . S
C313 N316 1.351 . S
C313 C318 1.501 . S
C314 C315 1.387 . S
C314 N317 1.341 . S
C315 C313 1.400 . S
C315 C314 1.387 . S
N316 Co307 2.022 1_545 S
N316 C313 1.351 . S
N316 N317 1.365 . S
N317 C314 1.341 . S
N317 N316 1.365 . S
N317 H337 0.862 . S
C318 C313 1.501 . S
C318 H319 0.961 1_545 S
C318 H320 0.961 . S
C318 H321 0.960 . S
H319 C318 0.961 1_565 S
H320 C318 0.961 . S
H321 C318 0.960 . S
C322 N323 1.342 . S
C322 C326 1.401 . S
C322 C327 1.499 . S
N323 Co306 1.989 . S
N323 C322 1.342 . S
N323 N324 1.388 . S
N324 Co307 1.993 . S
N324 N323 1.388 . S
N324 C325 1.346 . S
C325 N324 1.346 . S
C325 C326 1.396 . S
C325 C335 1.510 . S
C326 C322 1.401 . S
C326 C325 1.396 . S
C327 C322 1.499 . S
C327 H328 0.959 . S
C327 H329 0.960 . S
C327 H330 0.961 . S
H328 C327 0.959 . S
H329 C327 0.960 . S
H330 C327 0.961 . S
O331 Co306 1.967 . S
O331 C339 1.258 . S
O332 Co307 1.941 . S
O332 C339 1.266 . S
H333 C335 0.959 . S
H334 C335 0.961 . S
C335 C325 1.510 . S
C335 H333 0.959 . S
C335 H334 0.961 . S
C335 H336 0.960 . S
H336 C335 0.960 . S
H337 N317 0.862 . S
O338 Co306 1.920 . S
O338 C311 1.289 . S
C339 O331 1.258 . S
C339 O332 1.266 . S
Co340 O343 1.970 . S
Co340 N357 1.989 . S
Co340 O365 1.967 1_545 S
Co340 O372 1.920 . S
Co341 O344 1.966 . S
Co341 N350 2.022 . S
Co341 N358 1.993 . S
Co341 O366 1.941 1_545 S
C342 O343 1.258 . S
C342 O344 1.263 . S
O343 Co340 1.970 . S
O343 C342 1.258 . S
O344 Co341 1.966 . S
O344 C342 1.263 . S
C345 O346 1.235 . S
C345 O372 1.289 . S
O346 C345 1.235 . S
C347 C349 1.400 . S
C347 N350 1.351 . S
C347 C352 1.501 . S
C348 C349 1.387 . S
C348 N351 1.341 . S
C349 C347 1.400 . S
C349 C348 1.387 . S
N350 Co341 2.022 . S
N350 C347 1.351 . S
N350 N351 1.365 . S
N351 C348 1.341 . S
N351 N350 1.365 . S
N351 H371 0.862 1_545 S
C352 C347 1.501 . S
C352 H353 0.961 . S
C352 H354 0.961 . S
C352 H355 0.960 . S
H353 C352 0.961 . S
H354 C352 0.961 . S
H355 C352 0.960 . S
C356 N357 1.342 . S
C356 C360 1.401 1_556 S
C356 C361 1.499 . S
N357 Co340 1.989 . S
N357 C356 1.342 . S
N357 N358 1.388 . S
N358 Co341 1.993 . S
N358 N357 1.388 . S
N358 C359 1.346 . S
C359 N358 1.346 . S
C359 C360 1.396 1_556 S
C359 C369 1.510 . S
C360 C356 1.401 1_554 S
C360 C359 1.396 1_554 S
C361 C356 1.499 . S
C361 H362 0.959 . S
C361 H363 0.960 1_556 S
C361 H364 0.961 1_556 S
H362 C361 0.959 . S
H363 C361 0.960 1_554 S
H364 C361 0.961 1_554 S
O365 Co340 1.967 1_565 S
O365 C373 1.258 . S
O366 Co341 1.941 1_565 S
O366 C373 1.266 . S
H367 C369 0.959 1_554 S
H368 C369 0.951 1_554 S
C369 C359 1.510 . S
C369 H367 0.959 1_556 S
C369 H368 0.951 1_556 S
C369 H370 0.960 . S
H370 C369 0.960 . S
H371 N351 0.862 1_565 S
O372 Co340 1.920 . S
O372 C345 1.289 . S
C373 O365 1.258 . S
C373 O366 1.266 . S
Co374 O377 1.970 . S
Co374 N391 1.989 . S
Co374 O399 1.967 . S
Co374 O406 1.920 . S
Co375 O378 1.966 . S
Co375 N384 2.022 . S
Co375 N392 1.993 . S
Co375 O400 1.941 . S
C376 O377 1.258 . S
C376 O378 1.263 . S
O377 Co374 1.970 . S
O377 C376 1.258 . S
O378 Co375 1.966 . S
O378 C376 1.263 . S
C379 O380 1.235 . S
C379 O406 1.289 . S
O380 C379 1.235 . S
C381 C383 1.400 . S
C381 N384 1.351 . S
C381 C386 1.501 . S
C382 C383 1.387 . S
C382 N385 1.341 . S
C383 C381 1.400 . S
C383 C382 1.387 . S
N384 Co375 2.022 . S
N384 C381 1.351 . S
N384 N385 1.365 . S
N385 C382 1.341 . S
N385 N384 1.365 . S
N385 H405 0.862 . S
C386 C381 1.501 . S
C386 H387 0.961 . S
C386 H388 0.961 . S
C386 H389 0.960 . S
H387 C386 0.961 . S
H388 C386 0.961 . S
H389 C386 0.960 . S
C390 N391 1.342 . S
C390 C394 1.401 . S
C390 C395 1.499 . S
N391 Co374 1.989 . S
N391 C390 1.342 . S
N391 N392 1.388 . S
N392 Co375 1.993 . S
N392 N391 1.388 . S
N392 C393 1.346 . S
C393 N392 1.346 . S
C393 C394 1.396 . S
C393 C403 1.510 . S
C394 C390 1.401 . S
C394 C393 1.396 . S
C395 C390 1.499 . S
C395 H396 0.959 . S
C395 H397 0.960 . S
C395 H398 0.961 . S
H396 C395 0.959 . S
H397 C395 0.960 . S
H398 C395 0.961 . S
O399 Co374 1.967 . S
O399 C407 1.258 . S
O400 Co375 1.941 . S
O400 C407 1.266 . S
H401 C403 0.959 . S
H402 C403 0.961 . S
C403 C393 1.510 . S
C403 H401 0.959 . S
C403 H402 0.961 . S
C403 H404 0.960 . S
H404 C403 0.960 . S
H405 N385 0.862 . S
O406 Co374 1.920 . S
O406 C379 1.289 . S
C407 O399 1.258 . S
C407 O400 1.266 . S
Co408 O411 1.970 . S
Co408 N425 1.989 . S
Co408 O433 1.967 1_545 S
Co408 O440 1.920 . S
Co409 O412 1.966 . S
Co409 N418 2.022 . S
Co409 N426 1.993 . S
Co409 O434 1.941 1_545 S
C410 O411 1.258 . S
C410 O412 1.263 . S
O411 Co408 1.970 . S
O411 C410 1.258 . S
O412 Co409 1.966 . S
O412 C410 1.263 . S
C413 O414 1.235 . S
C413 O440 1.289 . S
O414 C413 1.235 . S
C415 C417 1.400 . S
C415 N418 1.351 . S
C415 C420 1.501 . S
C416 C417 1.387 . S
C416 N419 1.341 . S
C417 C415 1.400 . S
C417 C416 1.387 . S
N418 Co409 2.022 . S
N418 C415 1.351 . S
N418 N419 1.365 . S
N419 C416 1.341 . S
N419 N418 1.365 . S
N419 H439 0.862 1_545 S
C420 C415 1.501 . S
C420 H421 0.961 . S
C420 H422 0.961 . S
C420 H423 0.960 . S
H421 C420 0.961 . S
H422 C420 0.961 . S
H423 C420 0.960 . S
C424 N425 1.342 . S
C424 C428 1.401 . S
C424 C429 1.499 . S
N425 Co408 1.989 . S
N425 C424 1.342 . S
N425 N426 1.388 . S
N426 Co409 1.993 . S
N426 N425 1.388 . S
N426 C427 1.346 . S
C427 N426 1.346 . S
C427 C428 1.396 . S
C427 C437 1.510 . S
C428 C424 1.401 . S
C428 C427 1.396 . S
C429 C424 1.499 . S
C429 H430 0.959 . S
C429 H431 0.960 . S
C429 H432 0.961 . S
H430 C429 0.959 . S
H431 C429 0.960 . S
H432 C429 0.961 . S
O433 Co408 1.967 1_565 S
O433 C441 1.258 . S
O434 Co409 1.941 1_565 S
O434 C441 1.266 . S
H435 C437 0.959 . S
H436 C437 0.961 . S
C437 C427 1.510 . S
C437 H435 0.959 . S
C437 H436 0.961 . S
C437 H438 0.960 . S
H438 C437 0.960 . S
H439 N419 0.862 1_565 S
O440 Co408 1.920 . S
O440 C413 1.289 . S
C441 O433 1.258 . S
C441 O434 1.266 . S
Co442 O445 1.970 . S
Co442 N459 1.989 . S
Co442 O467 1.967 . S
Co442 O474 1.920 . S
Co443 O446 1.966 . S
Co443 N452 2.022 1_565 S
Co443 N460 1.993 . S
Co443 O468 1.941 . S
C444 O445 1.258 . S
C444 O446 1.263 . S
O445 Co442 1.970 . S
O445 C444 1.258 . S
O446 Co443 1.966 . S
O446 C444 1.263 . S
C447 O448 1.235 . S
C447 O474 1.289 . S
O448 C447 1.235 . S
C449 C451 1.400 . S
C449 N452 1.351 . S
C449 C454 1.501 . S
C450 C451 1.387 . S
C450 N453 1.341 . S
C451 C449 1.400 . S
C451 C450 1.387 . S
N452 Co443 2.022 1_545 S
N452 C449 1.351 . S
N452 N453 1.365 . S
N453 C450 1.341 . S
N453 N452 1.365 . S
N453 H473 0.862 . S
C454 C449 1.501 . S
C454 H455 0.961 1_545 S
C454 H456 0.961 . S
C454 H457 0.960 . S
H455 C454 0.961 1_565 S
H456 C454 0.961 . S
H457 C454 0.960 . S
C458 N459 1.342 . S
C458 C462 1.401 . S
C458 C463 1.499 . S
N459 Co442 1.989 . S
N459 C458 1.342 . S
N459 N460 1.388 . S
N460 Co443 1.993 . S
N460 N459 1.388 . S
N460 C461 1.346 . S
C461 N460 1.346 . S
C461 C462 1.396 . S
C461 C471 1.510 . S
C462 C458 1.401 . S
C462 C461 1.396 . S
C463 C458 1.499 . S
C463 H464 0.959 . S
C463 H465 0.960 . S
C463 H466 0.961 . S
H464 C463 0.959 . S
H465 C463 0.960 . S
H466 C463 0.961 . S
O467 Co442 1.967 . S
O467 C475 1.258 . S
O468 Co443 1.941 . S
O468 C475 1.266 . S
H469 C471 0.959 . S
H470 C471 0.961 . S
C471 C461 1.510 . S
C471 H469 0.959 . S
C471 H470 0.961 . S
C471 H472 0.960 . S
H472 C471 0.960 . S
H473 N453 0.862 . S
O474 Co442 1.920 . S
O474 C447 1.289 . S
C475 O467 1.258 . S
C475 O468 1.266 . S
Co476 O479 1.970 . S
Co476 N493 1.989 . S
Co476 O501 1.967 . S
Co476 O508 1.920 . S
Co477 O480 1.966 . S
Co477 N486 2.022 . S
Co477 N494 1.993 . S
Co477 O502 1.941 . S
C478 O479 1.258 . S
C478 O480 1.263 . S
O479 Co476 1.970 . S
O479 C478 1.258 . S
O480 Co477 1.966 . S
O480 C478 1.263 . S
C481 O482 1.235 . S
C481 O508 1.289 . S
O482 C481 1.235 . S
C483 C485 1.400 . S
C483 N486 1.351 . S
C483 C488 1.501 . S
C484 C485 1.387 . S
C484 N487 1.341 . S
C485 C483 1.400 . S
C485 C484 1.387 . S
N486 Co477 2.022 . S
N486 C483 1.351 . S
N486 N487 1.365 . S
N487 C484 1.341 . S
N487 N486 1.365 . S
N487 H507 0.862 . S
C488 C483 1.501 . S
C488 H489 0.961 . S
C488 H490 0.961 . S
C488 H491 0.960 . S
H489 C488 0.961 . S
H490 C488 0.961 . S
H491 C488 0.960 . S
C492 N493 1.342 . S
C492 C496 1.401 . S
C492 C497 1.499 . S
N493 Co476 1.989 . S
N493 C492 1.342 . S
N493 N494 1.388 . S
N494 Co477 1.993 . S
N494 N493 1.388 . S
N494 C495 1.346 . S
C495 N494 1.346 . S
C495 C496 1.396 . S
C495 C505 1.510 . S
C496 C492 1.401 . S
C496 C495 1.396 . S
C497 C492 1.499 . S
C497 H498 0.959 . S
C497 H499 0.960 . S
C497 H500 0.961 . S
H498 C497 0.959 . S
H499 C497 0.960 . S
H500 C497 0.961 . S
O501 Co476 1.967 . S
O501 C509 1.258 . S
O502 Co477 1.941 . S
O502 C509 1.266 . S
H503 C505 0.959 . S
H504 C505 0.961 . S
C505 C495 1.510 . S
C505 H503 0.959 . S
C505 H504 0.961 . S
C505 H506 0.960 . S
H506 C505 0.960 . S
H507 N487 0.862 . S
O508 Co476 1.920 . S
O508 C481 1.289 . S
C509 O501 1.258 . S
C509 O502 1.266 . S
Co510 O513 1.970 . S
Co510 N527 1.989 . S
Co510 O535 1.967 . S
Co510 O542 1.920 . S
Co511 O514 1.966 . S
Co511 N520 2.022 . S
Co511 N528 1.993 . S
Co511 O536 1.941 . S
C512 O513 1.258 . S
C512 O514 1.263 . S
O513 Co510 1.970 . S
O513 C512 1.258 . S
O514 Co511 1.966 . S
O514 C512 1.263 . S
C515 O516 1.235 . S
C515 O542 1.289 . S
O516 C515 1.235 . S
C517 C519 1.400 . S
C517 N520 1.351 . S
C517 C522 1.501 . S
C518 C519 1.387 . S
C518 N521 1.341 . S
C519 C517 1.400 . S
C519 C518 1.387 . S
N520 Co511 2.022 . S
N520 C517 1.351 . S
N520 N521 1.365 . S
N521 C518 1.341 . S
N521 N520 1.365 . S
N521 H541 0.862 . S
C522 C517 1.501 . S
C522 H523 0.961 . S
C522 H524 0.961 . S
C522 H525 0.960 . S
H523 C522 0.961 . S
H524 C522 0.961 . S
H525 C522 0.960 . S
C526 N527 1.342 . S
C526 C530 1.401 . S
C526 C531 1.499 . S
N527 Co510 1.989 . S
N527 C526 1.342 . S
N527 N528 1.388 . S
N528 Co511 1.993 . S
N528 N527 1.388 . S
N528 C529 1.346 . S
C529 N528 1.346 . S
C529 C530 1.396 . S
C529 C539 1.510 . S
C530 C526 1.401 . S
C530 C529 1.396 . S
C531 C526 1.499 . S
C531 H532 0.959 . S
C531 H533 0.960 . S
C531 H534 0.961 . S
H532 C531 0.959 . S
H533 C531 0.960 . S
H534 C531 0.961 . S
O535 Co510 1.967 . S
O535 C543 1.258 . S
O536 Co511 1.941 . S
O536 C543 1.266 . S
H537 C539 0.959 . S
H538 C539 0.961 . S
C539 C529 1.510 . S
C539 H537 0.959 . S
C539 H538 0.961 . S
C539 H540 0.960 . S
H540 C539 0.960 . S
H541 N521 0.862 . S
O542 Co510 1.920 . S
O542 C515 1.289 . S
C543 O535 1.258 . S
C543 O536 1.266 . S
Co544 O547 1.970 . S
Co544 N561 1.989 . S
Co544 O569 1.967 . S
Co544 O576 1.920 . S
Co545 O548 1.966 . S
Co545 N554 2.022 . S
Co545 N562 1.993 . S
Co545 O570 1.941 . S
C546 O547 1.258 . S
C546 O548 1.263 . S
O547 Co544 1.970 . S
O547 C546 1.258 . S
O548 Co545 1.966 . S
O548 C546 1.263 . S
C549 O550 1.235 . S
C549 O576 1.289 . S
O550 C549 1.235 . S
C551 C553 1.400 . S
C551 N554 1.351 . S
C551 C556 1.501 . S
C552 C553 1.387 . S
C552 N555 1.341 . S
C553 C551 1.400 . S
C553 C552 1.387 . S
N554 Co545 2.022 . S
N554 C551 1.351 . S
N554 N555 1.365 . S
N555 C552 1.341 . S
N555 N554 1.365 . S
N555 H575 0.862 . S
C556 C551 1.501 . S
C556 H557 0.961 . S
C556 H558 0.961 . S
C556 H559 0.960 . S
H557 C556 0.961 . S
H558 C556 0.961 . S
H559 C556 0.960 . S
C560 N561 1.342 . S
C560 C564 1.401 . S
C560 C565 1.499 . S
N561 Co544 1.989 . S
N561 C560 1.342 . S
N561 N562 1.388 . S
N562 Co545 1.993 . S
N562 N561 1.388 . S
N562 C563 1.346 . S
C563 N562 1.346 . S
C563 C564 1.396 . S
C563 C573 1.510 . S
C564 C560 1.401 . S
C564 C563 1.396 . S
C565 C560 1.499 . S
C565 H566 0.959 . S
C565 H567 0.960 . S
C565 H568 0.961 . S
H566 C565 0.959 . S
H567 C565 0.960 . S
H568 C565 0.961 . S
O569 Co544 1.967 . S
O569 C577 1.258 . S
O570 Co545 1.941 . S
O570 C577 1.266 . S
H571 C573 0.959 . S
H572 C573 0.961 . S
C573 C563 1.510 . S
C573 H571 0.959 . S
C573 H572 0.961 . S
C573 H574 0.960 . S
H574 C573 0.960 . S
H575 N555 0.862 . S
O576 Co544 1.920 . S
O576 C549 1.289 . S
C577 O569 1.258 . S
C577 O570 1.266 . S
Co578 O581 1.970 . S
Co578 N595 1.989 . S
Co578 O603 1.967 1_554 S
Co578 O610 1.920 . S
Co579 O582 1.966 . S
Co579 N588 2.022 . S
Co579 N596 1.993 . S
Co579 O604 1.941 1_554 S
C580 O581 1.258 . S
C580 O582 1.263 . S
O581 Co578 1.970 . S
O581 C580 1.258 . S
O582 Co579 1.966 . S
O582 C580 1.263 . S
C583 O584 1.235 . S
C583 O610 1.289 . S
O584 C583 1.235 . S
C585 C587 1.400 . S
C585 N588 1.351 . S
C585 C590 1.501 . S
C586 C587 1.387 . S
C586 N589 1.341 . S
C587 C585 1.400 . S
C587 C586 1.387 . S
N588 Co579 2.022 . S
N588 C585 1.351 . S
N588 N589 1.365 . S
N589 C586 1.341 . S
N589 N588 1.365 . S
N589 H609 0.862 1_554 S
C590 C585 1.501 . S
C590 H591 0.961 . S
C590 H592 0.961 . S
C590 H593 0.960 . S
H591 C590 0.961 . S
H592 C590 0.961 . S
H593 C590 0.960 . S
C594 N595 1.342 . S
C594 C598 1.401 1_655 S
C594 C599 1.499 . S
N595 Co578 1.989 . S
N595 C594 1.342 . S
N595 N596 1.388 . S
N596 Co579 1.993 . S
N596 N595 1.388 . S
N596 C597 1.346 . S
C597 N596 1.346 . S
C597 C598 1.396 1_655 S
C597 C607 1.510 . S
C598 C594 1.401 1_455 S
C598 C597 1.396 1_455 S
C599 C594 1.499 . S
C599 H600 0.959 . S
C599 H601 0.960 1_655 S
C599 H602 0.961 1_655 S
H600 C599 0.959 . S
H601 C599 0.960 1_455 S
H602 C599 0.961 1_455 S
O603 Co578 1.967 1_556 S
O603 C611 1.258 . S
O604 Co579 1.941 1_556 S
O604 C611 1.266 . S
H605 C607 0.959 1_455 S
H606 C607 0.951 1_455 S
C607 C597 1.510 . S
C607 H605 0.959 1_655 S
C607 H606 0.951 1_655 S
C607 H608 0.960 . S
H608 C607 0.960 . S
H609 N589 0.862 1_556 S
O610 Co578 1.920 . S
O610 C583 1.289 . S
C611 O603 1.258 . S
C611 O604 1.266 . S
Co612 O615 1.970 . S
Co612 N629 1.989 . S
Co612 O637 1.967 . S
Co612 O644 1.920 . S
Co613 O616 1.966 . S
Co613 N622 2.022 1_655 S
Co613 N630 1.993 . S
Co613 O638 1.941 . S
C614 O615 1.258 . S
C614 O616 1.263 . S
O615 Co612 1.970 . S
O615 C614 1.258 . S
O616 Co613 1.966 . S
O616 C614 1.263 . S
C617 O618 1.235 . S
C617 O644 1.289 . S
O618 C617 1.235 . S
C619 C621 1.400 . S
C619 N622 1.351 . S
C619 C624 1.501 . S
C620 C621 1.387 . S
C620 N623 1.341 . S
C621 C619 1.400 . S
C621 C620 1.387 . S
N622 Co613 2.022 1_455 S
N622 C619 1.351 . S
N622 N623 1.365 . S
N623 C620 1.341 . S
N623 N622 1.365 . S
N623 H643 0.862 . S
C624 C619 1.501 . S
C624 H625 0.961 1_455 S
C624 H626 0.961 . S
C624 H627 0.960 . S
H625 C624 0.961 1_655 S
H626 C624 0.961 . S
H627 C624 0.960 . S
C628 N629 1.342 . S
C628 C632 1.401 . S
C628 C633 1.499 . S
N629 Co612 1.989 . S
N629 C628 1.342 . S
N629 N630 1.388 . S
N630 Co613 1.993 . S
N630 N629 1.388 . S
N630 C631 1.346 . S
C631 N630 1.346 . S
C631 C632 1.396 . S
C631 C641 1.510 . S
C632 C628 1.401 . S
C632 C631 1.396 . S
C633 C628 1.499 . S
C633 H634 0.959 . S
C633 H635 0.960 . S
C633 H636 0.961 . S
H634 C633 0.959 . S
H635 C633 0.960 . S
H636 C633 0.961 . S
O637 Co612 1.967 . S
O637 C645 1.258 . S
O638 Co613 1.941 . S
O638 C645 1.266 . S
H639 C641 0.959 . S
H640 C641 0.961 . S
C641 C631 1.510 . S
C641 H639 0.959 . S
C641 H640 0.961 . S
C641 H642 0.960 . S
H642 C641 0.960 . S
H643 N623 0.862 . S
O644 Co612 1.920 . S
O644 C617 1.289 . S
C645 O637 1.258 . S
C645 O638 1.266 . S
Co646 O649 1.970 . S
Co646 N663 1.989 . S
Co646 O671 1.967 . S
Co646 O678 1.920 . S
Co647 O650 1.966 . S
Co647 N656 2.022 . S
Co647 N664 1.993 . S
Co647 O672 1.941 . S
C648 O649 1.258 . S
C648 O650 1.263 . S
O649 Co646 1.970 . S
O649 C648 1.258 . S
O650 Co647 1.966 . S
O650 C648 1.263 . S
C651 O652 1.235 . S
C651 O678 1.289 . S
O652 C651 1.235 . S
C653 C655 1.400 . S
C653 N656 1.351 . S
C653 C658 1.501 . S
C654 C655 1.387 . S
C654 N657 1.341 . S
C655 C653 1.400 . S
C655 C654 1.387 . S
N656 Co647 2.022 . S
N656 C653 1.351 . S
N656 N657 1.365 . S
N657 C654 1.341 . S
N657 N656 1.365 . S
N657 H677 0.862 . S
C658 C653 1.501 . S
C658 H659 0.961 . S
C658 H660 0.961 . S
C658 H661 0.960 . S
H659 C658 0.961 . S
H660 C658 0.961 . S
H661 C658 0.960 . S
C662 N663 1.342 . S
C662 C666 1.401 . S
C662 C667 1.499 . S
N663 Co646 1.989 . S
N663 C662 1.342 . S
N663 N664 1.388 . S
N664 Co647 1.993 . S
N664 N663 1.388 . S
N664 C665 1.346 . S
C665 N664 1.346 . S
C665 C666 1.396 . S
C665 C675 1.510 . S
C666 C662 1.401 . S
C666 C665 1.396 . S
C667 C662 1.499 . S
C667 H668 0.959 . S
C667 H669 0.960 . S
C667 H670 0.961 . S
H668 C667 0.959 . S
H669 C667 0.960 . S
H670 C667 0.961 . S
O671 Co646 1.967 . S
O671 C679 1.258 . S
O672 Co647 1.941 . S
O672 C679 1.266 . S
H673 C675 0.959 . S
H674 C675 0.961 . S
C675 C665 1.510 . S
C675 H673 0.959 . S
C675 H674 0.961 . S
C675 H676 0.960 . S
H676 C675 0.960 . S
H677 N657 0.862 . S
O678 Co646 1.920 . S
O678 C651 1.289 . S
C679 O671 1.258 . S
C679 O672 1.266 . S
Co680 O683 1.970 . S
Co680 N697 1.989 . S
Co680 O705 1.967 . S
Co680 O712 1.920 . S
Co681 O684 1.966 . S
Co681 N690 2.022 . S
Co681 N698 1.993 . S
Co681 O706 1.941 . S
C682 O683 1.258 . S
C682 O684 1.263 . S
O683 Co680 1.970 . S
O683 C682 1.258 . S
O684 Co681 1.966 . S
O684 C682 1.263 . S
C685 O686 1.235 . S
C685 O712 1.289 . S
O686 C685 1.235 . S
C687 C689 1.400 . S
C687 N690 1.351 . S
C687 C692 1.501 . S
C688 C689 1.387 . S
C688 N691 1.341 . S
C689 C687 1.400 . S
C689 C688 1.387 . S
N690 Co681 2.022 . S
N690 C687 1.351 . S
N690 N691 1.365 . S
N691 C688 1.341 . S
N691 N690 1.365 . S
N691 H711 0.862 . S
C692 C687 1.501 . S
C692 H693 0.961 . S
C692 H694 0.961 . S
C692 H695 0.960 . S
H693 C692 0.961 . S
H694 C692 0.961 . S
H695 C692 0.960 . S
C696 N697 1.342 . S
C696 C700 1.401 . S
C696 C701 1.499 . S
N697 Co680 1.989 . S
N697 C696 1.342 . S
N697 N698 1.388 . S
N698 Co681 1.993 . S
N698 N697 1.388 . S
N698 C699 1.346 . S
C699 N698 1.346 . S
C699 C700 1.396 . S
C699 C709 1.510 . S
C700 C696 1.401 . S
C700 C699 1.396 . S
C701 C696 1.499 . S
C701 H702 0.959 . S
C701 H703 0.960 . S
C701 H704 0.961 . S
H702 C701 0.959 . S
H703 C701 0.960 . S
H704 C701 0.961 . S
O705 Co680 1.967 . S
O705 C713 1.258 . S
O706 Co681 1.941 . S
O706 C713 1.266 . S
H707 C709 0.959 . S
H708 C709 0.961 . S
C709 C699 1.510 . S
C709 H707 0.959 . S
C709 H708 0.961 . S
C709 H710 0.960 . S
H710 C709 0.960 . S
H711 N691 0.862 . S
O712 Co680 1.920 . S
O712 C685 1.289 . S
C713 O705 1.258 . S
C713 O706 1.266 . S
Co714 O717 1.970 . S
Co714 N731 1.989 . S
Co714 O739 1.967 . S
Co714 O746 1.920 1_565 S
Co715 O718 1.966 . S
Co715 N724 2.022 . S
Co715 N732 1.993 . S
Co715 O740 1.941 . S
C716 O717 1.258 . S
C716 O718 1.263 . S
O717 Co714 1.970 . S
O717 C716 1.258 . S
O718 Co715 1.966 . S
O718 C716 1.263 . S
C719 O720 1.235 . S
C719 O746 1.289 . S
O720 C719 1.235 . S
C721 C723 1.400 . S
C721 N724 1.351 . S
C721 C726 1.501 . S
C722 C723 1.387 . S
C722 N725 1.341 . S
C723 C721 1.400 . S
C723 C722 1.387 . S
N724 Co715 2.022 . S
N724 C721 1.351 . S
N724 N725 1.365 . S
N725 C722 1.341 . S
N725 N724 1.365 . S
N725 H745 0.862 . S
C726 C721 1.501 . S
C726 H727 0.961 . S
C726 H728 0.961 . S
C726 H729 0.960 . S
H727 C726 0.961 . S
H728 C726 0.961 . S
H729 C726 0.960 . S
C730 N731 1.342 . S
C730 C734 1.401 . S
C730 C735 1.499 1_565 S
N731 Co714 1.989 . S
N731 C730 1.342 . S
N731 N732 1.388 . S
N732 Co715 1.993 . S
N732 N731 1.388 . S
N732 C733 1.346 . S
C733 N732 1.346 . S
C733 C734 1.396 . S
C733 C743 1.510 . S
C734 C730 1.401 . S
C734 C733 1.396 . S
C735 C730 1.499 1_545 S
C735 H736 0.959 . S
C735 H737 0.960 . S
C735 H738 0.961 . S
H736 C735 0.959 . S
H737 C735 0.960 . S
H738 C735 0.961 . S
O739 Co714 1.967 . S
O739 C747 1.258 . S
O740 Co715 1.941 . S
O740 C747 1.266 . S
H741 C743 0.959 . S
H742 C743 0.961 . S
C743 C733 1.510 . S
C743 H741 0.959 . S
C743 H742 0.961 . S
C743 H744 0.960 . S
H744 C743 0.960 . S
H745 N725 0.862 . S
O746 Co714 1.920 1_545 S
O746 C719 1.289 . S
C747 O739 1.258 . S
C747 O740 1.266 . S
Co748 O751 1.970 . S
Co748 N765 1.989 . S
Co748 O773 1.967 . S
Co748 O780 1.920 . S
Co749 O752 1.966 . S
Co749 N758 2.022 1_655 S
Co749 N766 1.993 . S
Co749 O774 1.941 . S
C750 O751 1.258 . S
C750 O752 1.263 . S
O751 Co748 1.970 . S
O751 C750 1.258 . S
O752 Co749 1.966 . S
O752 C750 1.263 . S
C753 O754 1.235 . S
C753 O780 1.289 . S
O754 C753 1.235 . S
C755 C757 1.400 . S
C755 N758 1.351 . S
C755 C760 1.501 . S
C756 C757 1.387 . S
C756 N759 1.341 . S
C757 C755 1.400 . S
C757 C756 1.387 . S
N758 Co749 2.022 1_455 S
N758 C755 1.351 . S
N758 N759 1.365 . S
N759 C756 1.341 . S
N759 N758 1.365 . S
N759 H779 0.862 . S
C760 C755 1.501 . S
C760 H761 0.961 1_455 S
C760 H762 0.961 . S
C760 H763 0.960 . S
H761 C760 0.961 1_655 S
H762 C760 0.961 . S
H763 C760 0.960 . S
C764 N765 1.342 . S
C764 C768 1.401 . S
C764 C769 1.499 . S
N765 Co748 1.989 . S
N765 C764 1.342 . S
N765 N766 1.388 . S
N766 Co749 1.993 . S
N766 N765 1.388 . S
N766 C767 1.346 . S
C767 N766 1.346 . S
C767 C768 1.396 . S
C767 C777 1.510 . S
C768 C764 1.401 . S
C768 C767 1.396 . S
C769 C764 1.499 . S
C769 H770 0.959 . S
C769 H771 0.960 . S
C769 H772 0.961 . S
H770 C769 0.959 . S
H771 C769 0.960 . S
H772 C769 0.961 . S
O773 Co748 1.967 . S
O773 C781 1.258 . S
O774 Co749 1.941 . S
O774 C781 1.266 . S
H775 C777 0.959 . S
H776 C777 0.961 . S
C777 C767 1.510 . S
C777 H775 0.959 . S
C777 H776 0.961 . S
C777 H778 0.960 . S
H778 C777 0.960 . S
H779 N759 0.862 . S
O780 Co748 1.920 . S
O780 C753 1.289 . S
C781 O773 1.258 . S
C781 O774 1.266 . S
Co782 O785 1.970 . S
Co782 N799 1.989 . S
Co782 O807 1.967 . S
Co782 O814 1.920 . S
Co783 O786 1.966 . S
Co783 N792 2.022 . S
Co783 N800 1.993 . S
Co783 O808 1.941 . S
C784 O785 1.258 . S
C784 O786 1.263 . S
O785 Co782 1.970 . S
O785 C784 1.258 . S
O786 Co783 1.966 . S
O786 C784 1.263 . S
C787 O788 1.235 . S
C787 O814 1.289 . S
O788 C787 1.235 . S
C789 C791 1.400 . S
C789 N792 1.351 . S
C789 C794 1.501 . S
C790 C791 1.387 . S
C790 N793 1.341 . S
C791 C789 1.400 . S
C791 C790 1.387 . S
N792 Co783 2.022 . S
N792 C789 1.351 . S
N792 N793 1.365 . S
N793 C790 1.341 . S
N793 N792 1.365 . S
N793 H813 0.862 . S
C794 C789 1.501 . S
C794 H795 0.961 . S
C794 H796 0.961 . S
C794 H797 0.960 . S
H795 C794 0.961 . S
H796 C794 0.961 . S
H797 C794 0.960 . S
C798 N799 1.342 . S
C798 C802 1.401 . S
C798 C803 1.499 . S
N799 Co782 1.989 . S
N799 C798 1.342 . S
N799 N800 1.388 . S
N800 Co783 1.993 . S
N800 N799 1.388 . S
N800 C801 1.346 . S
C801 N800 1.346 . S
C801 C802 1.396 . S
C801 C811 1.510 . S
C802 C798 1.401 . S
C802 C801 1.396 . S
C803 C798 1.499 . S
C803 H804 0.959 . S
C803 H805 0.960 . S
C803 H806 0.961 . S
H804 C803 0.959 . S
H805 C803 0.960 . S
H806 C803 0.961 . S
O807 Co782 1.967 . S
O807 C815 1.258 . S
O808 Co783 1.941 . S
O808 C815 1.266 . S
H809 C811 0.959 . S
H810 C811 0.961 . S
C811 C801 1.510 . S
C811 H809 0.959 . S
C811 H810 0.961 . S
C811 H812 0.960 . S
H812 C811 0.960 . S
H813 N793 0.862 . S
O814 Co782 1.920 . S
O814 C787 1.289 . S
C815 O807 1.258 . S
C815 O808 1.266 . S
Co816 O819 1.970 . S
Co816 N833 1.989 . S
Co816 O841 1.967 . S
Co816 O848 1.920 . S
Co817 O820 1.966 . S
Co817 N826 2.022 . S
Co817 N834 1.993 . S
Co817 O842 1.941 . S
C818 O819 1.258 . S
C818 O820 1.263 . S
O819 Co816 1.970 . S
O819 C818 1.258 . S
O820 Co817 1.966 . S
O820 C818 1.263 . S
C821 O822 1.235 . S
C821 O848 1.289 . S
O822 C821 1.235 . S
C823 C825 1.400 . S
C823 N826 1.351 . S
C823 C828 1.501 . S
C824 C825 1.387 . S
C824 N827 1.341 . S
C825 C823 1.400 . S
C825 C824 1.387 . S
N826 Co817 2.022 . S
N826 C823 1.351 . S
N826 N827 1.365 . S
N827 C824 1.341 . S
N827 N826 1.365 . S
N827 H847 0.862 . S
C828 C823 1.501 . S
C828 H829 0.961 . S
C828 H830 0.961 . S
C828 H831 0.960 . S
H829 C828 0.961 . S
H830 C828 0.961 . S
H831 C828 0.960 . S
C832 N833 1.342 . S
C832 C836 1.401 1_565 S
C832 C837 1.499 . S
N833 Co816 1.989 . S
N833 C832 1.342 . S
N833 N834 1.388 . S
N834 Co817 1.993 . S
N834 N833 1.388 . S
N834 C835 1.346 . S
C835 N834 1.346 . S
C835 C836 1.396 1_565 S
C835 C845 1.510 . S
C836 C832 1.401 1_545 S
C836 C835 1.396 1_545 S
C837 C832 1.499 . S
C837 H838 0.959 . S
C837 H839 0.960 1_565 S
C837 H840 0.961 1_565 S
H838 C837 0.959 . S
H839 C837 0.960 1_545 S
H840 C837 0.961 1_545 S
O841 Co816 1.967 . S
O841 C849 1.258 . S
O842 Co817 1.941 . S
O842 C849 1.266 . S
H843 C845 0.959 1_545 S
H844 C845 0.950 1_545 S
C845 C835 1.510 . S
C845 H843 0.959 1_565 S
C845 H844 0.950 1_565 S
C845 H846 0.960 . S
H846 C845 0.960 . S
H847 N827 0.862 . S
O848 Co816 1.920 . S
O848 C821 1.289 . S
C849 O841 1.258 . S
C849 O842 1.266 . S
Co850 O853 1.970 . S
Co850 N867 1.989 . S
Co850 O875 1.967 . S
Co850 O882 1.920 . S
Co851 O854 1.966 . S
Co851 N860 2.022 1_556 S
Co851 N868 1.993 . S
Co851 O876 1.941 . S
C852 O853 1.258 . S
C852 O854 1.263 . S
O853 Co850 1.970 . S
O853 C852 1.258 . S
O854 Co851 1.966 . S
O854 C852 1.263 . S
C855 O856 1.235 . S
C855 O882 1.289 . S
O856 C855 1.235 . S
C857 C859 1.400 . S
C857 N860 1.351 . S
C857 C862 1.501 . S
C858 C859 1.387 . S
C858 N861 1.341 . S
C859 C857 1.400 . S
C859 C858 1.387 . S
N860 Co851 2.022 1_554 S
N860 C857 1.351 . S
N860 N861 1.365 . S
N861 C858 1.341 . S
N861 N860 1.365 . S
N861 H881 0.862 . S
C862 C857 1.501 . S
C862 H863 0.961 1_554 S
C862 H864 0.961 . S
C862 H865 0.960 . S
H863 C862 0.961 1_556 S
H864 C862 0.961 . S
H865 C862 0.960 . S
C866 N867 1.342 . S
C866 C870 1.401 . S
C866 C871 1.499 . S
N867 Co850 1.989 . S
N867 C866 1.342 . S
N867 N868 1.388 . S
N868 Co851 1.993 . S
N868 N867 1.388 . S
N868 C869 1.346 . S
C869 N868 1.346 . S
C869 C870 1.396 . S
C869 C879 1.510 . S
C870 C866 1.401 . S
C870 C869 1.396 . S
C871 C866 1.499 . S
C871 H872 0.959 . S
C871 H873 0.960 . S
C871 H874 0.961 . S
H872 C871 0.959 . S
H873 C871 0.960 . S
H874 C871 0.961 . S
O875 Co850 1.967 . S
O875 C883 1.258 . S
O876 Co851 1.941 . S
O876 C883 1.266 . S
H877 C879 0.959 . S
H878 C879 0.961 . S
C879 C869 1.510 . S
C879 H877 0.959 . S
C879 H878 0.961 . S
C879 H880 0.960 . S
H880 C879 0.960 . S
H881 N861 0.862 . S
O882 Co850 1.920 . S
O882 C855 1.289 . S
C883 O875 1.258 . S
C883 O876 1.266 . S
Co884 O887 1.970 . S
Co884 N901 1.989 . S
Co884 O909 1.967 1_455 S
Co884 O916 1.920 . S
Co885 O888 1.966 . S
Co885 N894 2.022 . S
Co885 N902 1.993 . S
Co885 O910 1.941 1_455 S
C886 O887 1.258 . S
C886 O888 1.263 . S
O887 Co884 1.970 . S
O887 C886 1.258 . S
O888 Co885 1.966 . S
O888 C886 1.263 . S
C889 O890 1.235 . S
C889 O916 1.289 . S
O890 C889 1.235 . S
C891 C893 1.400 . S
C891 N894 1.351 . S
C891 C896 1.501 . S
C892 C893 1.387 . S
C892 N895 1.341 . S
C893 C891 1.400 . S
C893 C892 1.387 . S
N894 Co885 2.022 . S
N894 C891 1.351 . S
N894 N895 1.365 . S
N895 C892 1.341 . S
N895 N894 1.365 . S
N895 H915 0.862 1_455 S
C896 C891 1.501 . S
C896 H897 0.961 . S
C896 H898 0.961 . S
C896 H899 0.960 . S
H897 C896 0.961 . S
H898 C896 0.961 . S
H899 C896 0.960 . S
C900 N901 1.342 . S
C900 C904 1.401 . S
C900 C905 1.499 . S
N901 Co884 1.989 . S
N901 C900 1.342 . S
N901 N902 1.388 . S
N902 Co885 1.993 . S
N902 N901 1.388 . S
N902 C903 1.346 . S
C903 N902 1.346 . S
C903 C904 1.396 . S
C903 C913 1.510 . S
C904 C900 1.401 . S
C904 C903 1.396 . S
C905 C900 1.499 . S
C905 H906 0.959 . S
C905 H907 0.960 . S
C905 H908 0.961 . S
H906 C905 0.959 . S
H907 C905 0.960 . S
H908 C905 0.961 . S
O909 Co884 1.967 1_655 S
O909 C917 1.258 . S
O910 Co885 1.941 1_655 S
O910 C917 1.266 . S
H911 C913 0.959 . S
H912 C913 0.961 . S
C913 C903 1.510 . S
C913 H911 0.959 . S
C913 H912 0.961 . S
C913 H914 0.960 . S
H914 C913 0.960 . S
H915 N895 0.862 1_655 S
O916 Co884 1.920 . S
O916 C889 1.289 . S
C917 O909 1.258 . S
C917 O910 1.266 . S
Co918 O921 1.970 . S
Co918 N935 1.989 . S
Co918 O943 1.967 . S
Co918 O950 1.920 . S
Co919 O922 1.966 . S
Co919 N928 2.022 . S
Co919 N936 1.993 . S
Co919 O944 1.941 . S
C920 O921 1.258 . S
C920 O922 1.263 . S
O921 Co918 1.970 . S
O921 C920 1.258 . S
O922 Co919 1.966 . S
O922 C920 1.263 . S
C923 O924 1.235 . S
C923 O950 1.289 . S
O924 C923 1.235 . S
C925 C927 1.400 . S
C925 N928 1.351 . S
C925 C930 1.501 . S
C926 C927 1.387 . S
C926 N929 1.341 . S
C927 C925 1.400 . S
C927 C926 1.387 . S
N928 Co919 2.022 . S
N928 C925 1.351 . S
N928 N929 1.365 . S
N929 C926 1.341 . S
N929 N928 1.365 . S
N929 H949 0.862 . S
C930 C925 1.501 . S
C930 H931 0.961 . S
C930 H932 0.961 . S
C930 H933 0.960 . S
H931 C930 0.961 . S
H932 C930 0.961 . S
H933 C930 0.960 . S
C934 N935 1.342 . S
C934 C938 1.401 . S
C934 C939 1.499 . S
N935 Co918 1.989 . S
N935 C934 1.342 . S
N935 N936 1.388 . S
N936 Co919 1.993 . S
N936 N935 1.388 . S
N936 C937 1.346 . S
C937 N936 1.346 . S
C937 C938 1.396 . S
C937 C947 1.510 . S
C938 C934 1.401 . S
C938 C937 1.396 . S
C939 C934 1.499 . S
C939 H940 0.959 . S
C939 H941 0.960 . S
C939 H942 0.961 . S
H940 C939 0.959 . S
H941 C939 0.960 . S
H942 C939 0.961 . S
O943 Co918 1.967 . S
O943 C951 1.258 . S
O944 Co919 1.941 . S
O944 C951 1.266 . S
H945 C947 0.959 . S
H946 C947 0.961 . S
C947 C937 1.510 . S
C947 H945 0.959 . S
C947 H946 0.961 . S
C947 H948 0.960 . S
H948 C947 0.960 . S
H949 N929 0.862 . S
O950 Co918 1.920 . S
O950 C923 1.289 . S
C951 O943 1.258 . S
C951 O944 1.266 . S
Co952 O955 1.970 . S
Co952 N969 1.989 . S
Co952 O977 1.967 . S
Co952 O984 1.920 1_556 S
Co953 O956 1.966 . S
Co953 N962 2.022 . S
Co953 N970 1.993 . S
Co953 O978 1.941 . S
C954 O955 1.258 . S
C954 O956 1.263 . S
O955 Co952 1.970 . S
O955 C954 1.258 . S
O956 Co953 1.966 . S
O956 C954 1.263 . S
C957 O958 1.235 . S
C957 O984 1.289 . S
O958 C957 1.235 . S
C959 C961 1.400 . S
C959 N962 1.351 . S
C959 C964 1.501 . S
C960 C961 1.387 . S
C960 N963 1.341 . S
C961 C959 1.400 . S
C961 C960 1.387 . S
N962 Co953 2.022 . S
N962 C959 1.351 . S
N962 N963 1.365 . S
N963 C960 1.341 . S
N963 N962 1.365 . S
N963 H983 0.862 . S
C964 C959 1.501 . S
C964 H965 0.961 . S
C964 H966 0.961 . S
C964 H967 0.960 . S
H965 C964 0.961 . S
H966 C964 0.961 . S
H967 C964 0.960 . S
C968 N969 1.342 . S
C968 C972 1.401 . S
C968 C973 1.499 1_556 S
N969 Co952 1.989 . S
N969 C968 1.342 . S
N969 N970 1.388 . S
N970 Co953 1.993 . S
N970 N969 1.388 . S
N970 C971 1.346 . S
C971 N970 1.346 . S
C971 C972 1.396 . S
C971 C981 1.510 . S
C972 C968 1.401 . S
C972 C971 1.396 . S
C973 C968 1.499 1_554 S
C973 H974 0.959 . S
C973 H975 0.960 . S
C973 H976 0.961 . S
H974 C973 0.959 . S
H975 C973 0.960 . S
H976 C973 0.961 . S
O977 Co952 1.967 . S
O977 C985 1.258 . S
O978 Co953 1.941 . S
O978 C985 1.266 . S
H979 C981 0.959 . S
H980 C981 0.961 . S
C981 C971 1.510 . S
C981 H979 0.959 . S
C981 H980 0.961 . S
C981 H982 0.960 . S
H982 C981 0.960 . S
H983 N963 0.862 . S
O984 Co952 1.920 1_554 S
O984 C957 1.289 . S
C985 O977 1.258 . S
C985 O978 1.266 . S
Co986 O989 1.970 . S
Co986 N1003 1.989 . S
Co986 O1011 1.967 . S
Co986 O1018 1.920 . S
Co987 O990 1.966 . S
Co987 N996 2.022 . S
Co987 N1004 1.993 . S
Co987 O1012 1.941 . S
C988 O989 1.258 . S
C988 O990 1.263 . S
O989 Co986 1.970 . S
O989 C988 1.258 . S
O990 Co987 1.966 . S
O990 C988 1.263 . S
C991 O992 1.235 . S
C991 O1018 1.289 . S
O992 C991 1.235 . S
C993 C995 1.400 . S
C993 N996 1.351 . S
C993 C998 1.501 . S
C994 C995 1.387 . S
C994 N997 1.341 . S
C995 C993 1.400 . S
C995 C994 1.387 . S
N996 Co987 2.022 . S
N996 C993 1.351 . S
N996 N997 1.365 . S
N997 C994 1.341 . S
N997 N996 1.365 . S
N997 H1017 0.862 . S
C998 C993 1.501 . S
C998 H999 0.961 . S
C998 H1000 0.961 . S
C998 H1001 0.960 . S
H999 C998 0.961 . S
H1000 C998 0.961 . S
H1001 C998 0.960 . S
C1002 N1003 1.342 . S
C1002 C1006 1.401 . S
C1002 C1007 1.499 . S
N1003 Co986 1.989 . S
N1003 C1002 1.342 . S
N1003 N1004 1.388 . S
N1004 Co987 1.993 . S
N1004 N1003 1.388 . S
N1004 C1005 1.346 . S
C1005 N1004 1.346 . S
C1005 C1006 1.396 . S
C1005 C1015 1.510 . S
C1006 C1002 1.401 . S
C1006 C1005 1.396 . S
C1007 C1002 1.499 . S
C1007 H1008 0.959 . S
C1007 H1009 0.960 . S
C1007 H1010 0.961 . S
H1008 C1007 0.959 . S
H1009 C1007 0.960 . S
H1010 C1007 0.961 . S
O1011 Co986 1.967 . S
O1011 C1019 1.258 . S
O1012 Co987 1.941 . S
O1012 C1019 1.266 . S
H1013 C1015 0.959 . S
H1014 C1015 0.961 . S
C1015 C1005 1.510 . S
C1015 H1013 0.959 . S
C1015 H1014 0.961 . S
C1015 H1016 0.960 . S
H1016 C1015 0.960 . S
H1017 N997 0.862 . S
O1018 Co986 1.920 . S
O1018 C991 1.289 . S
C1019 O1011 1.258 . S
C1019 O1012 1.266 . S
Co1020 O1023 1.970 . S
Co1020 N1037 1.989 . S
Co1020 O1045 1.967 1_455 S
Co1020 O1052 1.920 . S
Co1021 O1024 1.966 . S
Co1021 N1030 2.022 . S
Co1021 N1038 1.993 . S
Co1021 O1046 1.941 1_455 S
C1022 O1023 1.258 . S
C1022 O1024 1.263 . S
O1023 Co1020 1.970 . S
O1023 C1022 1.258 . S
O1024 Co1021 1.966 . S
O1024 C1022 1.263 . S
C1025 O1026 1.235 . S
C1025 O1052 1.289 . S
O1026 C1025 1.235 . S
C1027 C1029 1.400 . S
C1027 N1030 1.351 . S
C1027 C1032 1.501 . S
C1028 C1029 1.387 . S
C1028 N1031 1.341 . S
C1029 C1027 1.400 . S
C1029 C1028 1.387 . S
N1030 Co1021 2.022 . S
N1030 C1027 1.351 . S
N1030 N1031 1.365 . S
N1031 C1028 1.341 . S
N1031 N1030 1.365 . S
N1031 H1051 0.862 1_455 S
C1032 C1027 1.501 . S
C1032 H1033 0.961 . S
C1032 H1034 0.961 . S
C1032 H1035 0.960 . S
H1033 C1032 0.961 . S
H1034 C1032 0.961 . S
H1035 C1032 0.960 . S
C1036 N1037 1.342 . S
C1036 C1040 1.401 1_565 S
C1036 C1041 1.499 . S
N1037 Co1020 1.989 . S
N1037 C1036 1.342 . S
N1037 N1038 1.388 . S
N1038 Co1021 1.993 . S
N1038 N1037 1.388 . S
N1038 C1039 1.346 . S
C1039 N1038 1.346 . S
C1039 C1040 1.396 1_565 S
C1039 C1049 1.510 . S
C1040 C1036 1.401 1_545 S
C1040 C1039 1.396 1_545 S
C1041 C1036 1.499 . S
C1041 H1042 0.959 . S
C1041 H1043 0.960 1_565 S
C1041 H1044 0.961 1_565 S
H1042 C1041 0.959 . S
H1043 C1041 0.960 1_545 S
H1044 C1041 0.961 1_545 S
O1045 Co1020 1.967 1_655 S
O1045 C1053 1.258 . S
O1046 Co1021 1.941 1_655 S
O1046 C1053 1.266 . S
H1047 C1049 0.959 1_545 S
H1048 C1049 0.951 1_545 S
C1049 C1039 1.510 . S
C1049 H1047 0.959 1_565 S
C1049 H1048 0.951 1_565 S
C1049 H1050 0.960 . S
H1050 C1049 0.960 . S
H1051 N1031 0.862 1_655 S
O1052 Co1020 1.920 . S
O1052 C1025 1.289 . S
C1053 O1045 1.258 . S
C1053 O1046 1.266 . S
Co1054 O1057 1.970 . S
Co1054 N1071 1.989 . S
Co1054 O1079 1.967 . S
Co1054 O1086 1.920 . S
Co1055 O1058 1.966 . S
Co1055 N1064 2.022 . S
Co1055 N1072 1.993 . S
Co1055 O1080 1.941 . S
C1056 O1057 1.258 . S
C1056 O1058 1.263 . S
O1057 Co1054 1.970 . S
O1057 C1056 1.258 . S
O1058 Co1055 1.966 . S
O1058 C1056 1.263 . S
C1059 O1060 1.235 . S
C1059 O1086 1.289 . S
O1060 C1059 1.235 . S
C1061 C1063 1.400 . S
C1061 N1064 1.351 . S
C1061 C1066 1.501 . S
C1062 C1063 1.387 . S
C1062 N1065 1.341 . S
C1063 C1061 1.400 . S
C1063 C1062 1.387 . S
N1064 Co1055 2.022 . S
N1064 C1061 1.351 . S
N1064 N1065 1.365 . S
N1065 C1062 1.341 . S
N1065 N1064 1.365 . S
N1065 H1085 0.862 . S
C1066 C1061 1.501 . S
C1066 H1067 0.961 . S
C1066 H1068 0.961 . S
C1066 H1069 0.960 . S
H1067 C1066 0.961 . S
H1068 C1066 0.961 . S
H1069 C1066 0.960 . S
C1070 N1071 1.342 . S
C1070 C1074 1.401 . S
C1070 C1075 1.499 . S
N1071 Co1054 1.989 . S
N1071 C1070 1.342 . S
N1071 N1072 1.388 . S
N1072 Co1055 1.993 . S
N1072 N1071 1.388 . S
N1072 C1073 1.346 . S
C1073 N1072 1.346 . S
C1073 C1074 1.396 . S
C1073 C1083 1.510 . S
C1074 C1070 1.401 . S
C1074 C1073 1.396 . S
C1075 C1070 1.499 . S
C1075 H1076 0.959 . S
C1075 H1077 0.960 . S
C1075 H1078 0.961 . S
H1076 C1075 0.959 . S
H1077 C1075 0.960 . S
H1078 C1075 0.961 . S
O1079 Co1054 1.967 . S
O1079 C1087 1.258 . S
O1080 Co1055 1.941 . S
O1080 C1087 1.266 . S
H1081 C1083 0.959 . S
H1082 C1083 0.961 . S
C1083 C1073 1.510 . S
C1083 H1081 0.959 . S
C1083 H1082 0.961 . S
C1083 H1084 0.960 . S
H1084 C1083 0.960 . S
H1085 N1065 0.862 . S
O1086 Co1054 1.920 . S
O1086 C1059 1.289 . S
C1087 O1079 1.258 . S
C1087 O1080 1.266 . S
Co1088 O1091 1.970 . S
Co1088 N1105 1.989 . S
Co1088 O1113 1.967 . S
Co1088 O1120 1.920 . S
Co1089 O1092 1.966 . S
Co1089 N1098 2.022 . S
Co1089 N1106 1.993 . S
Co1089 O1114 1.941 . S
C1090 O1091 1.258 . S
C1090 O1092 1.263 . S
O1091 Co1088 1.970 . S
O1091 C1090 1.258 . S
O1092 Co1089 1.966 . S
O1092 C1090 1.263 . S
C1093 O1094 1.235 . S
C1093 O1120 1.289 . S
O1094 C1093 1.235 . S
C1095 C1097 1.400 . S
C1095 N1098 1.351 . S
C1095 C1100 1.501 . S
C1096 C1097 1.387 . S
C1096 N1099 1.341 . S
C1097 C1095 1.400 . S
C1097 C1096 1.387 . S
N1098 Co1089 2.022 . S
N1098 C1095 1.351 . S
N1098 N1099 1.365 . S
N1099 C1096 1.341 . S
N1099 N1098 1.365 . S
N1099 H1119 0.862 . S
C1100 C1095 1.501 . S
C1100 H1101 0.961 . S
C1100 H1102 0.961 . S
C1100 H1103 0.960 . S
H1101 C1100 0.961 . S
H1102 C1100 0.961 . S
H1103 C1100 0.960 . S
C1104 N1105 1.342 . S
C1104 C1108 1.401 1_556 S
C1104 C1109 1.499 . S
N1105 Co1088 1.989 . S
N1105 C1104 1.342 . S
N1105 N1106 1.388 . S
N1106 Co1089 1.993 . S
N1106 N1105 1.388 . S
N1106 C1107 1.346 . S
C1107 N1106 1.346 . S
C1107 C1108 1.396 1_556 S
C1107 C1117 1.510 . S
C1108 C1104 1.401 1_554 S
C1108 C1107 1.396 1_554 S
C1109 C1104 1.499 . S
C1109 H1110 0.959 . S
C1109 H1111 0.960 1_556 S
C1109 H1112 0.961 1_556 S
H1110 C1109 0.959 . S
H1111 C1109 0.960 1_554 S
H1112 C1109 0.961 1_554 S
O1113 Co1088 1.967 . S
O1113 C1121 1.258 . S
O1114 Co1089 1.941 . S
O1114 C1121 1.266 . S
H1115 C1117 0.959 1_554 S
H1116 C1117 0.950 1_554 S
C1117 C1107 1.510 . S
C1117 H1115 0.959 1_556 S
C1117 H1116 0.950 1_556 S
C1117 H1118 0.960 . S
H1118 C1117 0.960 . S
H1119 N1099 0.862 . S
O1120 Co1088 1.920 . S
O1120 C1093 1.289 . S
C1121 O1113 1.258 . S
C1121 O1114 1.266 . S
Co1122 O1125 1.970 . S
Co1122 N1139 1.989 . S
Co1122 O1147 1.967 . S
Co1122 O1154 1.920 . S
Co1123 O1126 1.966 . S
Co1123 N1132 2.022 . S
Co1123 N1140 1.993 . S
Co1123 O1148 1.941 . S
C1124 O1125 1.258 . S
C1124 O1126 1.263 . S
O1125 Co1122 1.970 . S
O1125 C1124 1.258 . S
O1126 Co1123 1.966 . S
O1126 C1124 1.263 . S
C1127 O1128 1.235 . S
C1127 O1154 1.289 . S
O1128 C1127 1.235 . S
C1129 C1131 1.400 . S
C1129 N1132 1.351 . S
C1129 C1134 1.501 . S
C1130 C1131 1.387 . S
C1130 N1133 1.341 . S
C1131 C1129 1.400 . S
C1131 C1130 1.387 . S
N1132 Co1123 2.022 . S
N1132 C1129 1.351 . S
N1132 N1133 1.365 . S
N1133 C1130 1.341 . S
N1133 N1132 1.365 . S
N1133 H1153 0.862 . S
C1134 C1129 1.501 . S
C1134 H1135 0.961 . S
C1134 H1136 0.961 . S
C1134 H1137 0.960 . S
H1135 C1134 0.961 . S
H1136 C1134 0.961 . S
H1137 C1134 0.960 . S
C1138 N1139 1.342 . S
C1138 C1142 1.401 . S
C1138 C1143 1.499 . S
N1139 Co1122 1.989 . S
N1139 C1138 1.342 . S
N1139 N1140 1.388 . S
N1140 Co1123 1.993 . S
N1140 N1139 1.388 . S
N1140 C1141 1.346 . S
C1141 N1140 1.346 . S
C1141 C1142 1.396 . S
C1141 C1151 1.510 . S
C1142 C1138 1.401 . S
C1142 C1141 1.396 . S
C1143 C1138 1.499 . S
C1143 H1144 0.959 . S
C1143 H1145 0.960 . S
C1143 H1146 0.961 . S
H1144 C1143 0.959 . S
H1145 C1143 0.960 . S
H1146 C1143 0.961 . S
O1147 Co1122 1.967 . S
O1147 C1155 1.258 . S
O1148 Co1123 1.941 . S
O1148 C1155 1.266 . S
H1149 C1151 0.959 . S
H1150 C1151 0.961 . S
C1151 C1141 1.510 . S
C1151 H1149 0.959 . S
C1151 H1150 0.961 . S
C1151 H1152 0.960 . S
H1152 C1151 0.960 . S
H1153 N1133 0.862 . S
O1154 Co1122 1.920 . S
O1154 C1127 1.289 . S
C1155 O1147 1.258 . S
C1155 O1148 1.266 . S
Co1156 O1159 1.970 . S
Co1156 N1173 1.989 . S
Co1156 O1181 1.967 . S
Co1156 O1188 1.920 1_655 S
Co1157 O1160 1.966 . S
Co1157 N1166 2.022 . S
Co1157 N1174 1.993 . S
Co1157 O1182 1.941 . S
C1158 O1159 1.258 . S
C1158 O1160 1.263 . S
O1159 Co1156 1.970 . S
O1159 C1158 1.258 . S
O1160 Co1157 1.966 . S
O1160 C1158 1.263 . S
C1161 O1162 1.235 . S
C1161 O1188 1.289 . S
O1162 C1161 1.235 . S
C1163 C1165 1.400 . S
C1163 N1166 1.351 . S
C1163 C1168 1.501 . S
C1164 C1165 1.387 . S
C1164 N1167 1.341 . S
C1165 C1163 1.400 . S
C1165 C1164 1.387 . S
N1166 Co1157 2.022 . S
N1166 C1163 1.351 . S
N1166 N1167 1.365 . S
N1167 C1164 1.341 . S
N1167 N1166 1.365 . S
N1167 H1187 0.862 . S
C1168 C1163 1.501 . S
C1168 H1169 0.961 . S
C1168 H1170 0.961 . S
C1168 H1171 0.960 . S
H1169 C1168 0.961 . S
H1170 C1168 0.961 . S
H1171 C1168 0.960 . S
C1172 N1173 1.342 . S
C1172 C1176 1.401 . S
C1172 C1177 1.499 1_655 S
N1173 Co1156 1.989 . S
N1173 C1172 1.342 . S
N1173 N1174 1.388 . S
N1174 Co1157 1.993 . S
N1174 N1173 1.388 . S
N1174 C1175 1.346 . S
C1175 N1174 1.346 . S
C1175 C1176 1.396 . S
C1175 C1185 1.510 . S
C1176 C1172 1.401 . S
C1176 C1175 1.396 . S
C1177 C1172 1.499 1_455 S
C1177 H1178 0.959 . S
C1177 H1179 0.960 . S
C1177 H1180 0.961 . S
H1178 C1177 0.959 . S
H1179 C1177 0.960 . S
H1180 C1177 0.961 . S
O1181 Co1156 1.967 . S
O1181 C1189 1.258 . S
O1182 Co1157 1.941 . S
O1182 C1189 1.266 . S
H1183 C1185 0.959 . S
H1184 C1185 0.961 . S
C1185 C1175 1.510 . S
C1185 H1183 0.959 . S
C1185 H1184 0.961 . S
C1185 H1186 0.960 . S
H1186 C1185 0.960 . S
H1187 N1167 0.862 . S
O1188 Co1156 1.920 1_455 S
O1188 C1161 1.289 . S
C1189 O1181 1.258 . S
C1189 O1182 1.266 . S
Co1190 O1193 1.970 . S
Co1190 N1207 1.989 . S
Co1190 O1215 1.967 . S
Co1190 O1222 1.920 . S
Co1191 O1194 1.966 . S
Co1191 N1200 2.022 . S
Co1191 N1208 1.993 . S
Co1191 O1216 1.941 . S
C1192 O1193 1.258 . S
C1192 O1194 1.263 . S
O1193 Co1190 1.970 . S
O1193 C1192 1.258 . S
O1194 Co1191 1.966 . S
O1194 C1192 1.263 . S
C1195 O1196 1.235 . S
C1195 O1222 1.289 . S
O1196 C1195 1.235 . S
C1197 C1199 1.400 . S
C1197 N1200 1.351 . S
C1197 C1202 1.501 . S
C1198 C1199 1.387 . S
C1198 N1201 1.341 . S
C1199 C1197 1.400 . S
C1199 C1198 1.387 . S
N1200 Co1191 2.022 . S
N1200 C1197 1.351 . S
N1200 N1201 1.365 . S
N1201 C1198 1.341 . S
N1201 N1200 1.365 . S
N1201 H1221 0.862 . S
C1202 C1197 1.501 . S
C1202 H1203 0.961 . S
C1202 H1204 0.961 . S
C1202 H1205 0.960 . S
H1203 C1202 0.961 . S
H1204 C1202 0.961 . S
H1205 C1202 0.960 . S
C1206 N1207 1.342 . S
C1206 C1210 1.401 . S
C1206 C1211 1.499 . S
N1207 Co1190 1.989 . S
N1207 C1206 1.342 . S
N1207 N1208 1.388 . S
N1208 Co1191 1.993 . S
N1208 N1207 1.388 . S
N1208 C1209 1.346 . S
C1209 N1208 1.346 . S
C1209 C1210 1.396 . S
C1209 C1219 1.510 . S
C1210 C1206 1.401 . S
C1210 C1209 1.396 . S
C1211 C1206 1.499 . S
C1211 H1212 0.959 . S
C1211 H1213 0.960 . S
C1211 H1214 0.961 . S
H1212 C1211 0.959 . S
H1213 C1211 0.960 . S
H1214 C1211 0.961 . S
O1215 Co1190 1.967 . S
O1215 C1223 1.258 . S
O1216 Co1191 1.941 . S
O1216 C1223 1.266 . S
H1217 C1219 0.959 . S
H1218 C1219 0.961 . S
C1219 C1209 1.510 . S
C1219 H1217 0.959 . S
C1219 H1218 0.961 . S
C1219 H1220 0.960 . S
H1220 C1219 0.960 . S
H1221 N1201 0.862 . S
O1222 Co1190 1.920 . S
O1222 C1195 1.289 . S
C1223 O1215 1.258 . S
C1223 O1216 1.266 . S
Co1224 O1227 1.970 . S
Co1224 N1241 1.989 . S
Co1224 O1249 1.967 . S
Co1224 O1256 1.920 . S
Co1225 O1228 1.966 . S
Co1225 N1234 2.022 . S
Co1225 N1242 1.993 . S
Co1225 O1250 1.941 . S
C1226 O1227 1.258 . S
C1226 O1228 1.263 . S
O1227 Co1224 1.970 . S
O1227 C1226 1.258 . S
O1228 Co1225 1.966 . S
O1228 C1226 1.263 . S
C1229 O1230 1.235 . S
C1229 O1256 1.289 . S
O1230 C1229 1.235 . S
C1231 C1233 1.400 . S
C1231 N1234 1.351 . S
C1231 C1236 1.501 . S
C1232 C1233 1.387 . S
C1232 N1235 1.341 . S
C1233 C1231 1.400 . S
C1233 C1232 1.387 . S
N1234 Co1225 2.022 . S
N1234 C1231 1.351 . S
N1234 N1235 1.365 . S
N1235 C1232 1.341 . S
N1235 N1234 1.365 . S
N1235 H1255 0.862 . S
C1236 C1231 1.501 . S
C1236 H1237 0.961 . S
C1236 H1238 0.961 . S
C1236 H1239 0.960 . S
H1237 C1236 0.961 . S
H1238 C1236 0.961 . S
H1239 C1236 0.960 . S
C1240 N1241 1.342 . S
C1240 C1244 1.401 . S
C1240 C1245 1.499 . S
N1241 Co1224 1.989 . S
N1241 C1240 1.342 . S
N1241 N1242 1.388 . S
N1242 Co1225 1.993 . S
N1242 N1241 1.388 . S
N1242 C1243 1.346 . S
C1243 N1242 1.346 . S
C1243 C1244 1.396 . S
C1243 C1253 1.510 . S
C1244 C1240 1.401 . S
C1244 C1243 1.396 . S
C1245 C1240 1.499 . S
C1245 H1246 0.959 . S
C1245 H1247 0.960 . S
C1245 H1248 0.961 . S
H1246 C1245 0.959 . S
H1247 C1245 0.960 . S
H1248 C1245 0.961 . S
O1249 Co1224 1.967 . S
O1249 C1257 1.258 . S
O1250 Co1225 1.941 . S
O1250 C1257 1.266 . S
H1251 C1253 0.959 . S
H1252 C1253 0.961 . S
C1253 C1243 1.510 . S
C1253 H1251 0.959 . S
C1253 H1252 0.961 . S
C1253 H1254 0.960 . S
H1254 C1253 0.960 . S
H1255 N1235 0.862 . S
O1256 Co1224 1.920 . S
O1256 C1229 1.289 . S
C1257 O1249 1.258 . S
C1257 O1250 1.266 . S
Co1258 O1261 1.970 . S
Co1258 N1275 1.989 . S
Co1258 O1283 1.967 . S
Co1258 O1290 1.920 . S
Co1259 O1262 1.966 . S
Co1259 N1268 2.022 . S
Co1259 N1276 1.993 . S
Co1259 O1284 1.941 . S
C1260 O1261 1.258 . S
C1260 O1262 1.263 . S
O1261 Co1258 1.970 . S
O1261 C1260 1.258 . S
O1262 Co1259 1.966 . S
O1262 C1260 1.263 . S
C1263 O1264 1.235 . S
C1263 O1290 1.289 . S
O1264 C1263 1.235 . S
C1265 C1267 1.400 . S
C1265 N1268 1.351 . S
C1265 C1270 1.501 . S
C1266 C1267 1.387 . S
C1266 N1269 1.341 . S
C1267 C1265 1.400 . S
C1267 C1266 1.387 . S
N1268 Co1259 2.022 . S
N1268 C1265 1.351 . S
N1268 N1269 1.365 . S
N1269 C1266 1.341 . S
N1269 N1268 1.365 . S
N1269 H1289 0.862 . S
C1270 C1265 1.501 . S
C1270 H1271 0.961 . S
C1270 H1272 0.961 . S
C1270 H1273 0.960 . S
H1271 C1270 0.961 . S
H1272 C1270 0.961 . S
H1273 C1270 0.960 . S
C1274 N1275 1.342 . S
C1274 C1278 1.401 . S
C1274 C1279 1.499 . S
N1275 Co1258 1.989 . S
N1275 C1274 1.342 . S
N1275 N1276 1.388 . S
N1276 Co1259 1.993 . S
N1276 N1275 1.388 . S
N1276 C1277 1.346 . S
C1277 N1276 1.346 . S
C1277 C1278 1.396 . S
C1277 C1287 1.510 . S
C1278 C1274 1.401 . S
C1278 C1277 1.396 . S
C1279 C1274 1.499 . S
C1279 H1280 0.959 . S
C1279 H1281 0.960 . S
C1279 H1282 0.961 . S
H1280 C1279 0.959 . S
H1281 C1279 0.960 . S
H1282 C1279 0.961 . S
O1283 Co1258 1.967 . S
O1283 C1291 1.258 . S
O1284 Co1259 1.941 . S
O1284 C1291 1.266 . S
H1285 C1287 0.959 . S
H1286 C1287 0.961 . S
C1287 C1277 1.510 . S
C1287 H1285 0.959 . S
C1287 H1286 0.961 . S
C1287 H1288 0.960 . S
H1288 C1287 0.960 . S
H1289 N1269 0.862 . S
O1290 Co1258 1.920 . S
O1290 C1263 1.289 . S
C1291 O1283 1.258 . S
C1291 O1284 1.266 . S
Co1292 O1295 1.970 . S
Co1292 N1309 1.989 . S
Co1292 O1317 1.967 . S
Co1292 O1324 1.920 1_655 S
Co1293 O1296 1.966 . S
Co1293 N1302 2.022 . S
Co1293 N1310 1.993 . S
Co1293 O1318 1.941 . S
C1294 O1295 1.258 . S
C1294 O1296 1.263 . S
O1295 Co1292 1.970 . S
O1295 C1294 1.258 . S
O1296 Co1293 1.966 . S
O1296 C1294 1.263 . S
C1297 O1298 1.235 . S
C1297 O1324 1.289 . S
O1298 C1297 1.235 . S
C1299 C1301 1.400 . S
C1299 N1302 1.351 . S
C1299 C1304 1.501 . S
C1300 C1301 1.387 . S
C1300 N1303 1.341 . S
C1301 C1299 1.400 . S
C1301 C1300 1.387 . S
N1302 Co1293 2.022 . S
N1302 C1299 1.351 . S
N1302 N1303 1.365 . S
N1303 C1300 1.341 . S
N1303 N1302 1.365 . S
N1303 H1323 0.862 . S
C1304 C1299 1.501 . S
C1304 H1305 0.961 . S
C1304 H1306 0.961 . S
C1304 H1307 0.960 . S
H1305 C1304 0.961 . S
H1306 C1304 0.961 . S
H1307 C1304 0.960 . S
C1308 N1309 1.342 . S
C1308 C1312 1.401 . S
C1308 C1313 1.499 1_655 S
N1309 Co1292 1.989 . S
N1309 C1308 1.342 . S
N1309 N1310 1.388 . S
N1310 Co1293 1.993 . S
N1310 N1309 1.388 . S
N1310 C1311 1.346 . S
C1311 N1310 1.346 . S
C1311 C1312 1.396 . S
C1311 C1321 1.510 . S
C1312 C1308 1.401 . S
C1312 C1311 1.396 . S
C1313 C1308 1.499 1_455 S
C1313 H1314 0.959 . S
C1313 H1315 0.960 . S
C1313 H1316 0.961 . S
H1314 C1313 0.959 . S
H1315 C1313 0.960 . S
H1316 C1313 0.961 . S
O1317 Co1292 1.967 . S
O1317 C1325 1.258 . S
O1318 Co1293 1.941 . S
O1318 C1325 1.266 . S
H1319 C1321 0.959 . S
H1320 C1321 0.961 . S
C1321 C1311 1.510 . S
C1321 H1319 0.959 . S
C1321 H1320 0.961 . S
C1321 H1322 0.960 . S
H1322 C1321 0.960 . S
H1323 N1303 0.862 . S
O1324 Co1292 1.920 1_455 S
O1324 C1297 1.289 . S
C1325 O1317 1.258 . S
C1325 O1318 1.266 . S
Co1326 O1329 1.970 . S
Co1326 N1343 1.989 . S
Co1326 O1351 1.967 . S
Co1326 O1358 1.920 . S
Co1327 O1330 1.966 . S
Co1327 N1336 2.022 . S
Co1327 N1344 1.993 . S
Co1327 O1352 1.941 . S
C1328 O1329 1.258 . S
C1328 O1330 1.263 . S
O1329 Co1326 1.970 . S
O1329 C1328 1.258 . S
O1330 Co1327 1.966 . S
O1330 C1328 1.263 . S
C1331 O1332 1.235 . S
C1331 O1358 1.289 . S
O1332 C1331 1.235 . S
C1333 C1335 1.400 . S
C1333 N1336 1.351 . S
C1333 C1338 1.501 . S
C1334 C1335 1.387 . S
C1334 N1337 1.341 . S
C1335 C1333 1.400 . S
C1335 C1334 1.387 . S
N1336 Co1327 2.022 . S
N1336 C1333 1.351 . S
N1336 N1337 1.365 . S
N1337 C1334 1.341 . S
N1337 N1336 1.365 . S
N1337 H1357 0.862 . S
C1338 C1333 1.501 . S
C1338 H1339 0.961 . S
C1338 H1340 0.961 . S
C1338 H1341 0.960 . S
H1339 C1338 0.961 . S
H1340 C1338 0.961 . S
H1341 C1338 0.960 . S
C1342 N1343 1.342 . S
C1342 C1346 1.401 . S
C1342 C1347 1.499 . S
N1343 Co1326 1.989 . S
N1343 C1342 1.342 . S
N1343 N1344 1.388 . S
N1344 Co1327 1.993 . S
N1344 N1343 1.388 . S
N1344 C1345 1.346 . S
C1345 N1344 1.346 . S
C1345 C1346 1.396 . S
C1345 C1355 1.510 . S
C1346 C1342 1.401 . S
C1346 C1345 1.396 . S
C1347 C1342 1.499 . S
C1347 H1348 0.959 . S
C1347 H1349 0.960 . S
C1347 H1350 0.961 . S
H1348 C1347 0.959 . S
H1349 C1347 0.960 . S
H1350 C1347 0.961 . S
O1351 Co1326 1.967 . S
O1351 C1359 1.258 . S
O1352 Co1327 1.941 . S
O1352 C1359 1.266 . S
H1353 C1355 0.959 . S
H1354 C1355 0.961 . S
C1355 C1345 1.510 . S
C1355 H1353 0.959 . S
C1355 H1354 0.961 . S
C1355 H1356 0.960 . S
H1356 C1355 0.960 . S
H1357 N1337 0.862 . S
O1358 Co1326 1.920 . S
O1358 C1331 1.289 . S
C1359 O1351 1.258 . S
C1359 O1352 1.266 . S
Co1360 O1363 1.970 . S
Co1360 N1377 1.989 . S
Co1360 O1385 1.967 . S
Co1360 O1392 1.920 . S
Co1361 O1364 1.966 . S
Co1361 N1370 2.022 . S
Co1361 N1378 1.993 . S
Co1361 O1386 1.941 . S
C1362 O1363 1.258 . S
C1362 O1364 1.263 . S
O1363 Co1360 1.970 . S
O1363 C1362 1.258 . S
O1364 Co1361 1.966 . S
O1364 C1362 1.263 . S
C1365 O1366 1.235 . S
C1365 O1392 1.289 . S
O1366 C1365 1.235 . S
C1367 C1369 1.400 . S
C1367 N1370 1.351 . S
C1367 C1372 1.501 . S
C1368 C1369 1.387 . S
C1368 N1371 1.341 . S
C1369 C1367 1.400 . S
C1369 C1368 1.387 . S
N1370 Co1361 2.022 . S
N1370 C1367 1.351 . S
N1370 N1371 1.365 . S
N1371 C1368 1.341 . S
N1371 N1370 1.365 . S
N1371 H1391 0.862 . S
C1372 C1367 1.501 . S
C1372 H1373 0.961 . S
C1372 H1374 0.961 . S
C1372 H1375 0.960 . S
H1373 C1372 0.961 . S
H1374 C1372 0.961 . S
H1375 C1372 0.960 . S
C1376 N1377 1.342 . S
C1376 C1380 1.401 1_655 S
C1376 C1381 1.499 . S
N1377 Co1360 1.989 . S
N1377 C1376 1.342 . S
N1377 N1378 1.388 . S
N1378 Co1361 1.993 . S
N1378 N1377 1.388 . S
N1378 C1379 1.346 . S
C1379 N1378 1.346 . S
C1379 C1380 1.396 1_655 S
C1379 C1389 1.510 . S
C1380 C1376 1.401 1_455 S
C1380 C1379 1.396 1_455 S
C1381 C1376 1.499 . S
C1381 H1382 0.959 . S
C1381 H1383 0.960 1_655 S
C1381 H1384 0.961 1_655 S
H1382 C1381 0.959 . S
H1383 C1381 0.960 1_455 S
H1384 C1381 0.961 1_455 S
O1385 Co1360 1.967 . S
O1385 C1393 1.258 . S
O1386 Co1361 1.941 . S
O1386 C1393 1.266 . S
H1387 C1389 0.959 1_455 S
H1388 C1389 0.950 1_455 S
C1389 C1379 1.510 . S
C1389 H1387 0.959 1_655 S
C1389 H1388 0.950 1_655 S
C1389 H1390 0.960 . S
H1390 C1389 0.960 . S
H1391 N1371 0.862 . S
O1392 Co1360 1.920 . S
O1392 C1365 1.289 . S
C1393 O1385 1.258 . S
C1393 O1386 1.266 . S
Co1394 O1397 1.970 . S
Co1394 N1411 1.989 . S
Co1394 O1419 1.967 . S
Co1394 O1426 1.920 1_565 S
Co1395 O1398 1.966 . S
Co1395 N1404 2.022 . S
Co1395 N1412 1.993 . S
Co1395 O1420 1.941 . S
C1396 O1397 1.258 . S
C1396 O1398 1.263 . S
O1397 Co1394 1.970 . S
O1397 C1396 1.258 . S
O1398 Co1395 1.966 . S
O1398 C1396 1.263 . S
C1399 O1400 1.235 . S
C1399 O1426 1.289 . S
O1400 C1399 1.235 . S
C1401 C1403 1.400 . S
C1401 N1404 1.351 . S
C1401 C1406 1.501 . S
C1402 C1403 1.387 . S
C1402 N1405 1.341 . S
C1403 C1401 1.400 . S
C1403 C1402 1.387 . S
N1404 Co1395 2.022 . S
N1404 C1401 1.351 . S
N1404 N1405 1.365 . S
N1405 C1402 1.341 . S
N1405 N1404 1.365 . S
N1405 H1425 0.862 . S
C1406 C1401 1.501 . S
C1406 H1407 0.961 . S
C1406 H1408 0.961 . S
C1406 H1409 0.960 . S
H1407 C1406 0.961 . S
H1408 C1406 0.961 . S
H1409 C1406 0.960 . S
C1410 N1411 1.342 . S
C1410 C1414 1.401 . S
C1410 C1415 1.499 1_565 S
N1411 Co1394 1.989 . S
N1411 C1410 1.342 . S
N1411 N1412 1.388 . S
N1412 Co1395 1.993 . S
N1412 N1411 1.388 . S
N1412 C1413 1.346 . S
C1413 N1412 1.346 . S
C1413 C1414 1.396 . S
C1413 C1423 1.510 . S
C1414 C1410 1.401 . S
C1414 C1413 1.396 . S
C1415 C1410 1.499 1_545 S
C1415 H1416 0.959 . S
C1415 H1417 0.960 . S
C1415 H1418 0.961 . S
H1416 C1415 0.959 . S
H1417 C1415 0.960 . S
H1418 C1415 0.961 . S
O1419 Co1394 1.967 . S
O1419 C1427 1.258 . S
O1420 Co1395 1.941 . S
O1420 C1427 1.266 . S
H1421 C1423 0.959 . S
H1422 C1423 0.961 . S
C1423 C1413 1.510 . S
C1423 H1421 0.959 . S
C1423 H1422 0.961 . S
C1423 H1424 0.960 . S
H1424 C1423 0.960 . S
H1425 N1405 0.862 . S
O1426 Co1394 1.920 1_545 S
O1426 C1399 1.289 . S
C1427 O1419 1.258 . S
C1427 O1420 1.266 . S
Co1428 O1431 1.970 . S
Co1428 N1445 1.989 . S
Co1428 O1453 1.967 . S
Co1428 O1460 1.920 . S
Co1429 O1432 1.966 . S
Co1429 N1438 2.022 . S
Co1429 N1446 1.993 . S
Co1429 O1454 1.941 . S
C1430 O1431 1.258 . S
C1430 O1432 1.263 . S
O1431 Co1428 1.970 . S
O1431 C1430 1.258 . S
O1432 Co1429 1.966 . S
O1432 C1430 1.263 . S
C1433 O1434 1.235 . S
C1433 O1460 1.289 . S
O1434 C1433 1.235 . S
C1435 C1437 1.400 . S
C1435 N1438 1.351 . S
C1435 C1440 1.501 . S
C1436 C1437 1.387 . S
C1436 N1439 1.341 . S
C1437 C1435 1.400 . S
C1437 C1436 1.387 . S
N1438 Co1429 2.022 . S
N1438 C1435 1.351 . S
N1438 N1439 1.365 . S
N1439 C1436 1.341 . S
N1439 N1438 1.365 . S
N1439 H1459 0.862 . S
C1440 C1435 1.501 . S
C1440 H1441 0.961 . S
C1440 H1442 0.961 . S
C1440 H1443 0.960 . S
H1441 C1440 0.961 . S
H1442 C1440 0.961 . S
H1443 C1440 0.960 . S
C1444 N1445 1.342 . S
C1444 C1448 1.401 . S
C1444 C1449 1.499 . S
N1445 Co1428 1.989 . S
N1445 C1444 1.342 . S
N1445 N1446 1.388 . S
N1446 Co1429 1.993 . S
N1446 N1445 1.388 . S
N1446 C1447 1.346 . S
C1447 N1446 1.346 . S
C1447 C1448 1.396 . S
C1447 C1457 1.510 . S
C1448 C1444 1.401 . S
C1448 C1447 1.396 . S
C1449 C1444 1.499 . S
C1449 H1450 0.959 . S
C1449 H1451 0.960 . S
C1449 H1452 0.961 . S
H1450 C1449 0.959 . S
H1451 C1449 0.960 . S
H1452 C1449 0.961 . S
O1453 Co1428 1.967 . S
O1453 C1461 1.258 . S
O1454 Co1429 1.941 . S
O1454 C1461 1.266 . S
H1455 C1457 0.959 . S
H1456 C1457 0.961 . S
C1457 C1447 1.510 . S
C1457 H1455 0.959 . S
C1457 H1456 0.961 . S
C1457 H1458 0.960 . S
H1458 C1457 0.960 . S
H1459 N1439 0.862 . S
O1460 Co1428 1.920 . S
O1460 C1433 1.289 . S
C1461 O1453 1.258 . S
C1461 O1454 1.266 . S
Co1462 O1465 1.970 . S
Co1462 N1479 1.989 . S
Co1462 O1487 1.967 1_554 S
Co1462 O1494 1.920 . S
Co1463 O1466 1.966 . S
Co1463 N1472 2.022 . S
Co1463 N1480 1.993 . S
Co1463 O1488 1.941 1_554 S
C1464 O1465 1.258 . S
C1464 O1466 1.263 . S
O1465 Co1462 1.970 . S
O1465 C1464 1.258 . S
O1466 Co1463 1.966 . S
O1466 C1464 1.263 . S
C1467 O1468 1.235 . S
C1467 O1494 1.289 . S
O1468 C1467 1.235 . S
C1469 C1471 1.400 . S
C1469 N1472 1.351 . S
C1469 C1474 1.501 . S
C1470 C1471 1.387 . S
C1470 N1473 1.341 . S
C1471 C1469 1.400 . S
C1471 C1470 1.387 . S
N1472 Co1463 2.022 . S
N1472 C1469 1.351 . S
N1472 N1473 1.365 . S
N1473 C1470 1.341 . S
N1473 N1472 1.365 . S
N1473 H1493 0.862 1_554 S
C1474 C1469 1.501 . S
C1474 H1475 0.961 . S
C1474 H1476 0.961 . S
C1474 H1477 0.960 . S
H1475 C1474 0.961 . S
H1476 C1474 0.961 . S
H1477 C1474 0.960 . S
C1478 N1479 1.342 . S
C1478 C1482 1.401 . S
C1478 C1483 1.499 . S
N1479 Co1462 1.989 . S
N1479 C1478 1.342 . S
N1479 N1480 1.388 . S
N1480 Co1463 1.993 . S
N1480 N1479 1.388 . S
N1480 C1481 1.346 . S
C1481 N1480 1.346 . S
C1481 C1482 1.396 . S
C1481 C1491 1.510 . S
C1482 C1478 1.401 . S
C1482 C1481 1.396 . S
C1483 C1478 1.499 . S
C1483 H1484 0.959 . S
C1483 H1485 0.960 . S
C1483 H1486 0.961 . S
H1484 C1483 0.959 . S
H1485 C1483 0.960 . S
H1486 C1483 0.961 . S
O1487 Co1462 1.967 1_556 S
O1487 C1495 1.258 . S
O1488 Co1463 1.941 1_556 S
O1488 C1495 1.266 . S
H1489 C1491 0.959 . S
H1490 C1491 0.961 . S
C1491 C1481 1.510 . S
C1491 H1489 0.959 . S
C1491 H1490 0.961 . S
C1491 H1492 0.960 . S
H1492 C1491 0.960 . S
H1493 N1473 0.862 1_556 S
O1494 Co1462 1.920 . S
O1494 C1467 1.289 . S
C1495 O1487 1.258 . S
C1495 O1488 1.266 . S
Co1496 O1499 1.970 . S
Co1496 N1513 1.989 . S
Co1496 O1521 1.967 . S
Co1496 O1528 1.920 . S
Co1497 O1500 1.966 . S
Co1497 N1506 2.022 . S
Co1497 N1514 1.993 . S
Co1497 O1522 1.941 . S
C1498 O1499 1.258 . S
C1498 O1500 1.263 . S
O1499 Co1496 1.970 . S
O1499 C1498 1.258 . S
O1500 Co1497 1.966 . S
O1500 C1498 1.263 . S
C1501 O1502 1.235 . S
C1501 O1528 1.289 . S
O1502 C1501 1.235 . S
C1503 C1505 1.400 . S
C1503 N1506 1.351 . S
C1503 C1508 1.501 . S
C1504 C1505 1.387 . S
C1504 N1507 1.341 . S
C1505 C1503 1.400 . S
C1505 C1504 1.387 . S
N1506 Co1497 2.022 . S
N1506 C1503 1.351 . S
N1506 N1507 1.365 . S
N1507 C1504 1.341 . S
N1507 N1506 1.365 . S
N1507 H1527 0.862 . S
C1508 C1503 1.501 . S
C1508 H1509 0.961 . S
C1508 H1510 0.961 . S
C1508 H1511 0.960 . S
H1509 C1508 0.961 . S
H1510 C1508 0.961 . S
H1511 C1508 0.960 . S
C1512 N1513 1.342 . S
C1512 C1516 1.401 . S
C1512 C1517 1.499 . S
N1513 Co1496 1.989 . S
N1513 C1512 1.342 . S
N1513 N1514 1.388 . S
N1514 Co1497 1.993 . S
N1514 N1513 1.388 . S
N1514 C1515 1.346 . S
C1515 N1514 1.346 . S
C1515 C1516 1.396 . S
C1515 C1525 1.510 . S
C1516 C1512 1.401 . S
C1516 C1515 1.396 . S
C1517 C1512 1.499 . S
C1517 H1518 0.959 . S
C1517 H1519 0.960 . S
C1517 H1520 0.961 . S
H1518 C1517 0.959 . S
H1519 C1517 0.960 . S
H1520 C1517 0.961 . S
O1521 Co1496 1.967 . S
O1521 C1529 1.258 . S
O1522 Co1497 1.941 . S
O1522 C1529 1.266 . S
H1523 C1525 0.959 . S
H1524 C1525 0.961 . S
C1525 C1515 1.510 . S
C1525 H1523 0.959 . S
C1525 H1524 0.961 . S
C1525 H1526 0.960 . S
H1526 C1525 0.960 . S
H1527 N1507 0.862 . S
O1528 Co1496 1.920 . S
O1528 C1501 1.289 . S
C1529 O1521 1.258 . S
C1529 O1522 1.266 . S
Co1530 O1533 1.970 . S
Co1530 N1547 1.989 . S
Co1530 O1555 1.967 . S
Co1530 O1562 1.920 . S
Co1531 O1534 1.966 . S
Co1531 N1540 2.022 . S
Co1531 N1548 1.993 . S
Co1531 O1556 1.941 . S
C1532 O1533 1.258 . S
C1532 O1534 1.263 . S
O1533 Co1530 1.970 . S
O1533 C1532 1.258 . S
O1534 Co1531 1.966 . S
O1534 C1532 1.263 . S
C1535 O1536 1.235 . S
C1535 O1562 1.289 . S
O1536 C1535 1.235 . S
C1537 C1539 1.400 . S
C1537 N1540 1.351 . S
C1537 C1542 1.501 . S
C1538 C1539 1.387 . S
C1538 N1541 1.341 . S
C1539 C1537 1.400 . S
C1539 C1538 1.387 . S
N1540 Co1531 2.022 . S
N1540 C1537 1.351 . S
N1540 N1541 1.365 . S
N1541 C1538 1.341 . S
N1541 N1540 1.365 . S
N1541 H1561 0.862 . S
C1542 C1537 1.501 . S
C1542 H1543 0.961 . S
C1542 H1544 0.961 . S
C1542 H1545 0.960 . S
H1543 C1542 0.961 . S
H1544 C1542 0.961 . S
H1545 C1542 0.960 . S
C1546 N1547 1.342 . S
C1546 C1550 1.401 . S
C1546 C1551 1.499 . S
N1547 Co1530 1.989 . S
N1547 C1546 1.342 . S
N1547 N1548 1.388 . S
N1548 Co1531 1.993 . S
N1548 N1547 1.388 . S
N1548 C1549 1.346 . S
C1549 N1548 1.346 . S
C1549 C1550 1.396 . S
C1549 C1559 1.510 . S
C1550 C1546 1.401 . S
C1550 C1549 1.396 . S
C1551 C1546 1.499 . S
C1551 H1552 0.959 . S
C1551 H1553 0.960 . S
C1551 H1554 0.961 . S
H1552 C1551 0.959 . S
H1553 C1551 0.960 . S
H1554 C1551 0.961 . S
O1555 Co1530 1.967 . S
O1555 C1563 1.258 . S
O1556 Co1531 1.941 . S
O1556 C1563 1.266 . S
H1557 C1559 0.959 . S
H1558 C1559 0.961 . S
C1559 C1549 1.510 . S
C1559 H1557 0.959 . S
C1559 H1558 0.961 . S
C1559 H1560 0.960 . S
H1560 C1559 0.960 . S
H1561 N1541 0.862 . S
O1562 Co1530 1.920 . S
O1562 C1535 1.289 . S
C1563 O1555 1.258 . S
C1563 O1556 1.266 . S
Co1564 O1567 1.970 . S
Co1564 N1581 1.989 . S
Co1564 O1589 1.967 . S
Co1564 O1596 1.920 . S
Co1565 O1568 1.966 . S
Co1565 N1574 2.022 . S
Co1565 N1582 1.993 . S
Co1565 O1590 1.941 . S
C1566 O1567 1.258 . S
C1566 O1568 1.263 . S
O1567 Co1564 1.970 . S
O1567 C1566 1.258 . S
O1568 Co1565 1.966 . S
O1568 C1566 1.263 . S
C1569 O1570 1.235 . S
C1569 O1596 1.289 . S
O1570 C1569 1.235 . S
C1571 C1573 1.400 . S
C1571 N1574 1.351 . S
C1571 C1576 1.501 . S
C1572 C1573 1.387 . S
C1572 N1575 1.341 . S
C1573 C1571 1.400 . S
C1573 C1572 1.387 . S
N1574 Co1565 2.022 . S
N1574 C1571 1.351 . S
N1574 N1575 1.365 . S
N1575 C1572 1.341 . S
N1575 N1574 1.365 . S
N1575 H1595 0.862 . S
C1576 C1571 1.501 . S
C1576 H1577 0.961 . S
C1576 H1578 0.961 . S
C1576 H1579 0.960 . S
H1577 C1576 0.961 . S
H1578 C1576 0.961 . S
H1579 C1576 0.960 . S
C1580 N1581 1.342 . S
C1580 C1584 1.401 . S
C1580 C1585 1.499 . S
N1581 Co1564 1.989 . S
N1581 C1580 1.342 . S
N1581 N1582 1.388 . S
N1582 Co1565 1.993 . S
N1582 N1581 1.388 . S
N1582 C1583 1.346 . S
C1583 N1582 1.346 . S
C1583 C1584 1.396 . S
C1583 C1593 1.510 . S
C1584 C1580 1.401 . S
C1584 C1583 1.396 . S
C1585 C1580 1.499 . S
C1585 H1586 0.959 . S
C1585 H1587 0.960 . S
C1585 H1588 0.961 . S
H1586 C1585 0.959 . S
H1587 C1585 0.960 . S
H1588 C1585 0.961 . S
O1589 Co1564 1.967 . S
O1589 C1597 1.258 . S
O1590 Co1565 1.941 . S
O1590 C1597 1.266 . S
H1591 C1593 0.959 . S
H1592 C1593 0.961 . S
C1593 C1583 1.510 . S
C1593 H1591 0.959 . S
C1593 H1592 0.961 . S
C1593 H1594 0.960 . S
H1594 C1593 0.960 . S
H1595 N1575 0.862 . S
O1596 Co1564 1.920 . S
O1596 C1569 1.289 . S
C1597 O1589 1.258 . S
C1597 O1590 1.266 . S
Co1598 O1601 1.970 . S
Co1598 N1615 1.989 . S
Co1598 O1623 1.967 . S
Co1598 O1630 1.920 . S
Co1599 O1602 1.966 . S
Co1599 N1608 2.022 . S
Co1599 N1616 1.993 . S
Co1599 O1624 1.941 . S
C1600 O1601 1.258 . S
C1600 O1602 1.263 . S
O1601 Co1598 1.970 . S
O1601 C1600 1.258 . S
O1602 Co1599 1.966 . S
O1602 C1600 1.263 . S
C1603 O1604 1.235 . S
C1603 O1630 1.289 . S
O1604 C1603 1.235 . S
C1605 C1607 1.400 . S
C1605 N1608 1.351 . S
C1605 C1610 1.501 . S
C1606 C1607 1.387 . S
C1606 N1609 1.341 . S
C1607 C1605 1.400 . S
C1607 C1606 1.387 . S
N1608 Co1599 2.022 . S
N1608 C1605 1.351 . S
N1608 N1609 1.365 . S
N1609 C1606 1.341 . S
N1609 N1608 1.365 . S
N1609 H1629 0.862 . S
C1610 C1605 1.501 . S
C1610 H1611 0.961 . S
C1610 H1612 0.961 . S
C1610 H1613 0.960 . S
H1611 C1610 0.961 . S
H1612 C1610 0.961 . S
H1613 C1610 0.960 . S
C1614 N1615 1.342 . S
C1614 C1618 1.401 . S
C1614 C1619 1.499 . S
N1615 Co1598 1.989 . S
N1615 C1614 1.342 . S
N1615 N1616 1.388 . S
N1616 Co1599 1.993 . S
N1616 N1615 1.388 . S
N1616 C1617 1.346 . S
C1617 N1616 1.346 . S
C1617 C1618 1.396 . S
C1617 C1627 1.510 . S
C1618 C1614 1.401 . S
C1618 C1617 1.396 . S
C1619 C1614 1.499 . S
C1619 H1620 0.959 . S
C1619 H1621 0.960 . S
C1619 H1622 0.961 . S
H1620 C1619 0.959 . S
H1621 C1619 0.960 . S
H1622 C1619 0.961 . S
O1623 Co1598 1.967 . S
O1623 C1631 1.258 . S
O1624 Co1599 1.941 . S
O1624 C1631 1.266 . S
H1625 C1627 0.959 . S
H1626 C1627 0.961 . S
C1627 C1617 1.510 . S
C1627 H1625 0.959 . S
C1627 H1626 0.961 . S
C1627 H1628 0.960 . S
H1628 C1627 0.960 . S
H1629 N1609 0.862 . S
O1630 Co1598 1.920 . S
O1630 C1603 1.289 . S
C1631 O1623 1.258 . S
C1631 O1624 1.266 . S
C1019 C33 0.989 . S
C67 C1053 0.989 . S
C101 C1087 0.989 . S
C985 C135 0.987 . S
C951 C169 0.989 . S
C849 C203 0.989 . S
C237 C883 0.989 . S
C917 C271 0.988 . S
C305 C1631 0.989 . S
C747 C339 0.987 . S
C373 C1597 0.989 . S
C577 C407 0.989 . S
C441 C713 0.988 . S
C475 C1427 0.989 . S
C509 C1461 0.989 . S
C1495 C543 0.988 . S
C611 C1291 0.989 . S
C1325 C645 0.987 . S
C679 C1359 0.989 . S
C781 C1189 0.989 . S
C1121 C815 0.989 . S
C1155 C1563 0.989 . S
C1223 C1393 0.989 . S
C1529 C1257 0.989 . S
C757 C9 0.525 . S
C1369 C43 0.525 . S
C791 C77 0.525 . S
C1539 C111 0.526 . S
C621 C145 0.526 . S
C179 C655 0.525 . S
C1505 C213 0.525 . S
C587 C247 0.525 . S
C451 C281 0.525 . S
C315 C485 0.526 . S
C519 C349 0.525 . S
C417 C383 0.525 . S
C553 C859 0.525 . S
C689 C1029 0.525 . S
C723 C927 0.526 . S
C825 C1573 0.525 . S
C1607 C893 0.525 . S
C1437 C961 0.526 . S
C995 C1471 0.525 . S
C1063 C1403 0.525 . S
C1267 C1097 0.525 . S
C1301 C1131 0.526 . S
C1165 C1335 0.525 . S
C1199 C1233 0.525 . S
C240 C2 3.609 1_655 S
C138 C36 3.609 1_455 S
C172 C70 3.609 . S
C206 C104 3.609 . S
C274 C682 3.609 1_545 S
C1396 C308 3.609 . S
C1430 C342 3.609 . S
C376 C1464 3.609 . S
C410 C1600 3.609 . S
C444 C716 3.609 . S
C1566 C478 3.609 1_565 S
C512 C546 3.609 1_556 S
C1124 C580 3.609 . S
C614 C1158 3.609 . S
C1192 C648 3.609 . S
C750 C1294 3.609 . S
C1226 C784 3.609 . S
C1056 C818 3.609 . S
C954 C852 3.609 . S
C988 C886 3.609 . S
C920 C1022 3.609 . S
C1090 C1498 3.609 . S
C1532 C1260 3.609 1_554 S
C1362 C1328 3.609 . S
C598 C5 2.490 . S
C39 C632 2.490 . S
C73 C666 2.490 . S
C107 C1516 2.490 . S
C1380 C141 2.490 . S
C802 C175 2.490 . S
C1550 C209 2.490 . S
C243 C768 2.490 . S
C277 C1040 2.490 . S
C1074 C311 2.490 . S
C972 C345 2.490 . S
C1006 C379 2.490 . S
C904 C413 2.490 . S
C447 C938 2.490 . S
C836 C481 2.490 . S
C515 C870 2.490 . S
C549 C360 2.490 . S
C583 C1312 2.490 . S
C617 C1346 2.490 . S
C651 C1244 2.490 . S
C462 C685 2.490 . S
C292 C719 2.489 . S
C753 C1142 2.490 . S
C1210 C787 2.490 . S
C821 C1414 2.490 . S
C1448 C855 2.490 . S
C889 C1482 2.490 . S
C923 C700 2.490 . S
C957 C564 2.489 . S
C991 C1618 2.490 . S
C1025 C734 2.490 . S
C1584 C1059 2.490 . S
C1093 C224 2.490 . S
C1127 C258 2.490 . S
C1161 C156 2.490 . S
C190 C1195 2.490 . S
C1229 C88 2.490 . S
C122 C1263 2.490 . S
C1297 C20 2.489 . S
C1331 C54 2.490 . S
C1176 C1365 2.490 . S
C1399 C496 2.490 . S
C530 C1433 2.490 . S
C1467 C428 2.490 . S
C1278 C1501 2.490 . S
C1108 C1535 2.490 . S
C326 C1569 2.490 . S
C394 C1603 2.490 . S
