# Generated by pormake.
# Topology wna, (6)-cn, num edge types: 1
# Building blocks:
#     Node 0, Type 0, BuildingBlock: BETDEL_clean_sbu_0, # of connection points: 6
#     Node 1, Type 0, BuildingBlock: BETDEL_clean_sbu_0, # of connection points: 6
#     Node 2, Type 0, BuildingBlock: BETDEL_clean_sbu_0, # of connection points: 6
#     Node 3, Type 0, BuildingBlock: BETDEL_clean_sbu_0, # of connection points: 6
#     Node 4, Type 0, BuildingBlock: BETDEL_clean_sbu_0, # of connection points: 6
#     Node 5, Type 0, BuildingBlock: BETDEL_clean_sbu_0, # of connection points: 6
#     Node 6, Type 0, BuildingBlock: BETDEL_clean_sbu_0, # of connection points: 6
#     Node 7, Type 0, BuildingBlock: BETDEL_clean_sbu_0, # of connection points: 6
#     Node 8, Type 0, BuildingBlock: BETDEL_clean_sbu_0, # of connection points: 6
#     Node 9, Type 0, BuildingBlock: BETDEL_clean_sbu_0, # of connection points: 6
#     Node 10, Type 0, BuildingBlock: BETDEL_clean_sbu_0, # of connection points: 6
#     Node 11, Type 0, BuildingBlock: BETDEL_clean_sbu_0, # of connection points: 6
#     Node 12, Type 0, BuildingBlock: BETDEL_clean_sbu_0, # of connection points: 6
#     Node 13, Type 0, BuildingBlock: BETDEL_clean_sbu_0, # of connection points: 6
#     Node 14, Type 0, BuildingBlock: BETDEL_clean_sbu_0, # of connection points: 6
#     Node 15, Type 0, BuildingBlock: BETDEL_clean_sbu_0, # of connection points: 6
#     Node 16, Type 0, BuildingBlock: BETDEL_clean_sbu_0, # of connection points: 6
#     Node 17, Type 0, BuildingBlock: BETDEL_clean_sbu_0, # of connection points: 6
#     Node 18, Type 0, BuildingBlock: BETDEL_clean_sbu_0, # of connection points: 6
#     Node 19, Type 0, BuildingBlock: BETDEL_clean_sbu_0, # of connection points: 6
#     Node 20, Type 0, BuildingBlock: BETDEL_clean_sbu_0, # of connection points: 6
#     Node 21, Type 0, BuildingBlock: BETDEL_clean_sbu_0, # of connection points: 6
#     Node 22, Type 0, BuildingBlock: BETDEL_clean_sbu_0, # of connection points: 6
#     Node 23, Type 0, BuildingBlock: BETDEL_clean_sbu_0, # of connection points: 6
#     Node 24, Type 0, BuildingBlock: BETDEL_clean_sbu_0, # of connection points: 6
#     Node 25, Type 0, BuildingBlock: BETDEL_clean_sbu_0, # of connection points: 6
#     Node 26, Type 0, BuildingBlock: BETDEL_clean_sbu_0, # of connection points: 6
#     Node 27, Type 0, BuildingBlock: BETDEL_clean_sbu_0, # of connection points: 6
#     Node 28, Type 0, BuildingBlock: BETDEL_clean_sbu_0, # of connection points: 6
#     Node 29, Type 0, BuildingBlock: BETDEL_clean_sbu_0, # of connection points: 6
#     Node 30, Type 0, BuildingBlock: BETDEL_clean_sbu_0, # of connection points: 6
#     Node 31, Type 0, BuildingBlock: BETDEL_clean_sbu_0, # of connection points: 6
#     Node 32, Type 0, BuildingBlock: BETDEL_clean_sbu_0, # of connection points: 6
#     Node 33, Type 0, BuildingBlock: BETDEL_clean_sbu_0, # of connection points: 6
#     Node 34, Type 0, BuildingBlock: BETDEL_clean_sbu_0, # of connection points: 6
#     Node 35, Type 0, BuildingBlock: BETDEL_clean_sbu_0, # of connection points: 6
#     Edge 36, Type (0, 0), None
#     Edge 37, Type (0, 0), None
#     Edge 38, Type (0, 0), None
#     Edge 39, Type (0, 0), None
#     Edge 40, Type (0, 0), None
#     Edge 41, Type (0, 0), None
#     Edge 42, Type (0, 0), None
#     Edge 43, Type (0, 0), None
#     Edge 44, Type (0, 0), None
#     Edge 45, Type (0, 0), None
#     Edge 46, Type (0, 0), None
#     Edge 47, Type (0, 0), None
#     Edge 48, Type (0, 0), None
#     Edge 49, Type (0, 0), None
#     Edge 50, Type (0, 0), None
#     Edge 51, Type (0, 0), None
#     Edge 52, Type (0, 0), None
#     Edge 53, Type (0, 0), None
#     Edge 54, Type (0, 0), None
#     Edge 55, Type (0, 0), None
#     Edge 56, Type (0, 0), None
#     Edge 57, Type (0, 0), None
#     Edge 58, Type (0, 0), None
#     Edge 59, Type (0, 0), None
#     Edge 60, Type (0, 0), None
#     Edge 61, Type (0, 0), None
#     Edge 62, Type (0, 0), None
#     Edge 63, Type (0, 0), None
#     Edge 64, Type (0, 0), None
#     Edge 65, Type (0, 0), None
#     Edge 66, Type (0, 0), None
#     Edge 67, Type (0, 0), None
#     Edge 68, Type (0, 0), None
#     Edge 69, Type (0, 0), None
#     Edge 70, Type (0, 0), None
#     Edge 71, Type (0, 0), None
#     Edge 72, Type (0, 0), None
#     Edge 73, Type (0, 0), None
#     Edge 74, Type (0, 0), None
#     Edge 75, Type (0, 0), None
#     Edge 76, Type (0, 0), None
#     Edge 77, Type (0, 0), None
#     Edge 78, Type (0, 0), None
#     Edge 79, Type (0, 0), None
#     Edge 80, Type (0, 0), None
#     Edge 81, Type (0, 0), None
#     Edge 82, Type (0, 0), None
#     Edge 83, Type (0, 0), None
#     Edge 84, Type (0, 0), None
#     Edge 85, Type (0, 0), None
#     Edge 86, Type (0, 0), None
#     Edge 87, Type (0, 0), None
#     Edge 88, Type (0, 0), None
#     Edge 89, Type (0, 0), None
#     Edge 90, Type (0, 0), None
#     Edge 91, Type (0, 0), None
#     Edge 92, Type (0, 0), None
#     Edge 93, Type (0, 0), None
#     Edge 94, Type (0, 0), None
#     Edge 95, Type (0, 0), None
#     Edge 96, Type (0, 0), None
#     Edge 97, Type (0, 0), None
#     Edge 98, Type (0, 0), None
#     Edge 99, Type (0, 0), None
#     Edge 100, Type (0, 0), None
#     Edge 101, Type (0, 0), None
#     Edge 102, Type (0, 0), None
#     Edge 103, Type (0, 0), None
#     Edge 104, Type (0, 0), None
#     Edge 105, Type (0, 0), None
#     Edge 106, Type (0, 0), None
#     Edge 107, Type (0, 0), None
#     Edge 108, Type (0, 0), None
#     Edge 109, Type (0, 0), None
#     Edge 110, Type (0, 0), None
#     Edge 111, Type (0, 0), None
#     Edge 112, Type (0, 0), None
#     Edge 113, Type (0, 0), None
#     Edge 114, Type (0, 0), None
#     Edge 115, Type (0, 0), None
#     Edge 116, Type (0, 0), None
#     Edge 117, Type (0, 0), None
#     Edge 118, Type (0, 0), None
#     Edge 119, Type (0, 0), None
#     Edge 120, Type (0, 0), None
#     Edge 121, Type (0, 0), None
#     Edge 122, Type (0, 0), None
#     Edge 123, Type (0, 0), None
#     Edge 124, Type (0, 0), None
#     Edge 125, Type (0, 0), None
#     Edge 126, Type (0, 0), None
#     Edge 127, Type (0, 0), None
#     Edge 128, Type (0, 0), None
#     Edge 129, Type (0, 0), None
#     Edge 130, Type (0, 0), None
#     Edge 131, Type (0, 0), None
#     Edge 132, Type (0, 0), None
#     Edge 133, Type (0, 0), None
#     Edge 134, Type (0, 0), None
#     Edge 135, Type (0, 0), None
#     Edge 136, Type (0, 0), None
#     Edge 137, Type (0, 0), None
#     Edge 138, Type (0, 0), None
#     Edge 139, Type (0, 0), None
#     Edge 140, Type (0, 0), None
#     Edge 141, Type (0, 0), None
#     Edge 142, Type (0, 0), None
#     Edge 143, Type (0, 0), None
# Relax obj value: 0.142
# Max RMSD: 0.204
# Mean RMSD: 0.194
data_MOF--net-wna--node1-BETDEL_clean_sbu_0--edge1-none
_symmetry_space_group_name_H-M    P1
_symmetry_Int_Tables_number       1
_symmetry_cell_setting            triclinic
loop_
_symmetry_equiv_pos_as_xyz
'x, y, z'
_cell_length_a     17.4033
_cell_length_b     17.400746
_cell_length_c     56.913057
_cell_angle_alpha  90.055411
_cell_angle_beta   89.97167
_cell_angle_gamma 119.97273
loop_
_atom_site_label
_atom_site_type_symbol
_atom_site_fract_x
_atom_site_fract_y
_atom_site_fract_z
_atom_type_partial_charge
Dy0 Dy 0.10072 0.26377 0.16092 0.0
C1 C 0.03731 0.20857 0.2599 0.0
C2 C 0.09703 0.31842 0.117 0.0
Dy3 Dy 0.09226 0.25174 0.21378 0.0
O4 O 0.07697 0.23783 0.12232 0.0
O5 O 0.11797 0.36826 0.1355 0.0
O6 O 0.19733 0.21511 0.15776 0.0
O7 O 0.10979 0.17332 0.18633 0.0
C8 C 0.17638 0.17278 0.17765 0.0
C9 C 0.07729 0.38611 0.19393 0.0
O10 O 0.24018 0.31712 0.20726 0.0
O11 O 0.22915 0.37873 0.17252 0.0
O12 O 0.98731 0.20173 0.24225 0.0
O13 O 0.11849 0.23953 0.25247 0.0
O14 O 0.11885 0.39285 0.21335 0.0
O15 O 0.0416 0.30718 0.18716 0.0
O16 O 0.96177 0.15423 0.16373 0.0
O17 O 0.97676 0.11942 0.20217 0.0
C18 C 0.27783 0.37078 0.18899 0.0
C19 C 0.93256 0.10035 0.18196 0.0
Dy20 Dy 0.76948 0.84333 0.16092 0.0
C21 C 0.82473 0.83546 0.25989 0.0
C22 C 0.71478 0.7849 0.11698 0.0
Dy23 Dy 0.7816 0.84714 0.21376 0.0
O24 O 0.79537 0.84536 0.12232 0.0
O25 O 0.66497 0.75613 0.13547 0.0
O26 O 0.8181 0.98856 0.15776 0.0
O27 O 0.86005 0.94291 0.18633 0.0
C28 C 0.8606 1.00999 0.17763 0.0
C29 C 0.64712 0.69782 0.19391 0.0
O30 O 0.71631 0.9298 0.20725 0.0
O31 O 0.65456 0.85694 0.17252 0.0
O32 O 0.83156 0.79221 0.24224 0.0
O33 O 0.79383 0.88573 0.25246 0.0
O34 O 0.64047 0.73283 0.21332 0.0
O35 O 0.72603 0.74091 0.18714 0.0
O36 O 0.87897 0.81377 0.16372 0.0
O37 O 0.91388 0.86379 0.20216 0.0
C38 C 0.6626 0.91372 0.18897 0.0
C39 C 0.9329 0.83853 0.18195 0.0
Dy40 Dy 0.18985 0.9324 0.1609 0.0
C41 C 0.19785 0.996 0.25984 0.0
C42 C 0.24819 0.9361 0.11695 0.0
Dy43 Dy 0.18623 0.941 0.21373 0.0
O44 O 0.18766 0.95617 0.12232 0.0
O45 O 0.27706 0.9151 0.13543 0.0
O46 O 0.04468 0.83579 0.15774 0.0
O47 O 0.09032 0.92354 0.18631 0.0
C48 C 0.02327 0.85696 0.17761 0.0
C49 C 0.33558 0.95582 0.19388 0.0
O50 O 0.10364 0.79307 0.20722 0.0
O51 O 0.17633 0.80392 0.17248 0.0
O52 O 0.24103 0.046 0.2422 0.0
O53 O 0.14771 0.9148 0.25241 0.0
O54 O 0.30065 0.91426 0.21328 0.0
O55 O 0.29239 0.99156 0.18711 0.0
O56 O 0.2193 0.07141 0.16371 0.0
O57 O 0.16953 0.0566 0.20216 0.0
C58 C 0.11966 0.75532 0.18894 0.0
C59 C 0.19471 0.10075 0.18196 0.0
Dy60 Dy 0.27187 0.09306 0.38353 0.0
C61 C 0.21207 0.02598 0.28468 0.0
C62 C 0.33575 0.09505 0.4267 0.0
Dy63 Dy 0.25542 0.08229 0.33071 0.0
O64 O 0.25251 0.06653 0.42214 0.0
O65 O 0.38353 0.1214 0.40782 0.0
O66 O 0.22147 0.18802 0.38763 0.0
O67 O 0.1799 0.1017 0.35871 0.0
C68 C 0.17929 0.16786 0.36772 0.0
C69 C 0.39056 0.06744 0.35016 0.0
O70 O 0.31784 0.23001 0.33636 0.0
O71 O 0.38384 0.22111 0.37046 0.0
O72 O 0.20355 0.97604 0.30249 0.0
O73 O 0.24407 0.10749 0.29193 0.0
O74 O 0.39667 0.10982 0.33095 0.0
O75 O 0.31208 0.03177 0.35717 0.0
O76 O 0.16079 0.95426 0.38113 0.0
O77 O 0.12359 0.96844 0.34283 0.0
C78 C 0.37256 0.26881 0.35432 0.0
C79 C 0.10555 0.92503 0.36312 0.0
Dy80 Dy 0.94045 0.18599 0.38365 0.0
C81 C 1.00737 0.19292 0.28474 0.0
C82 C 0.93894 0.2478 0.42692 0.0
Dy83 Dy 0.95112 0.18013 0.33079 0.0
O84 O 0.96725 0.19294 0.42226 0.0
O85 O 0.9125 0.26938 0.40808 0.0
O86 O 0.84554 0.04069 0.3877 0.0
O87 O 0.9318 0.08534 0.35879 0.0
C88 C 0.86568 0.01861 0.36778 0.0
C89 C 0.96592 0.33018 0.35026 0.0
O90 O 0.80346 0.09493 0.33642 0.0
O91 O 0.81232 0.16983 0.37057 0.0
O92 O 0.0573 0.23436 0.30257 0.0
O93 O 0.92589 0.14347 0.29199 0.0
O94 O 0.92354 0.29383 0.33105 0.0
O95 O 1.00158 0.28735 0.35727 0.0
O96 O 0.07925 0.2136 0.3812 0.0
O97 O 0.06502 0.16218 0.34288 0.0
C98 C 0.76467 0.11089 0.35439 0.0
C99 C 0.10847 0.18761 0.36317 0.0
Dy100 Dy 0.8478 0.76172 0.3836 0.0
C101 C 0.84037 0.82121 0.28473 0.0
C102 C 0.78651 0.69822 0.42685 0.0
Dy103 Dy 0.85324 0.77797 0.33077 0.0
O104 O 0.84106 0.78142 0.42223 0.0
O105 O 0.76486 0.65027 0.40798 0.0
O106 O 0.99311 0.81202 0.3876 0.0
O107 O 0.94823 0.85363 0.35873 0.0
C108 C 1.01501 0.85428 0.36771 0.0
C109 C 0.70336 0.64285 0.35026 0.0
O110 O 0.93864 0.71562 0.33636 0.0
O111 O 0.86375 0.64963 0.37046 0.0
O112 O 0.79899 0.82987 0.30255 0.0
O113 O 0.88978 0.78912 0.29198 0.0
O114 O 0.73961 0.63673 0.33104 0.0
O115 O 0.74617 0.72137 0.35728 0.0
O116 O 0.82011 0.8729 0.38123 0.0
O117 O 0.87115 0.90985 0.34289 0.0
C118 C 0.92274 0.66091 0.35431 0.0
C119 C 0.84592 0.92801 0.36321 0.0
Dy120 Dy 0.94718 0.77445 0.8298 0.0
C121 C 0.94273 0.70751 0.92651 0.0
C122 C 1.00235 0.81916 0.78381 0.0
Dy123 Dy 0.93871 0.76197 0.88267 0.0
O124 O 0.05106 0.82049 0.80118 0.0
O125 O 0.9221 0.79243 0.79141 0.0
O126 O 0.92088 0.63349 0.83011 0.0
O127 O 0.99805 0.71903 0.85641 0.0
C128 C 0.96272 0.6403 0.84949 0.0
C129 C 0.8631 0.8529 0.86588 0.0
O130 O 0.07773 0.87136 0.87985 0.0
O131 O 0.06288 0.9064 0.84142 0.0
O132 O 0.96246 0.78803 0.92122 0.0
O133 O 0.92189 0.65762 0.90802 0.0
O134 O 0.84174 0.81036 0.88573 0.0
O135 O 0.92998 0.85251 0.85738 0.0
O136 O 0.79924 0.70816 0.83617 0.0
O137 O 0.81012 0.64706 0.87104 0.0
C138 C 0.10711 0.92519 0.8616 0.0
C139 C 0.76156 0.65466 0.85446 0.0
Dy140 Dy 0.25735 0.17748 0.82979 0.0
C141 C 0.32521 0.24072 0.92648 0.0
C142 C 0.21238 0.18847 0.78389 0.0
Dy143 Dy 0.27041 0.18194 0.88264 0.0
O144 O 0.21136 0.23582 0.80132 0.0
O145 O 0.2389 0.13464 0.79138 0.0
O146 O 0.39829 0.29187 0.83003 0.0
O147 O 0.31302 0.28397 0.85637 0.0
C148 C 0.39164 0.32722 0.84939 0.0
C149 C 0.17927 0.01536 0.8659 0.0
O150 O 0.16093 0.21159 0.87991 0.0
O151 O 0.12552 0.16132 0.8415 0.0
O152 O 0.24467 0.17996 0.9212 0.0
O153 O 0.37496 0.26958 0.90797 0.0
O154 O 0.22216 0.03666 0.88571 0.0
O155 O 0.17954 0.08252 0.8574 0.0
O156 O 0.32371 0.09581 0.83609 0.0
O157 O 0.38521 0.16811 0.87093 0.0
C158 C 0.10692 0.18698 0.86169 0.0
C159 C 0.37745 0.1118 0.85434 0.0
Dy160 Dy 0.85517 0.08529 0.82977 0.0
C161 C 0.79136 0.08962 0.92645 0.0
C162 C 0.8458 0.03023 0.78386 0.0
Dy163 Dy 0.85002 0.0936 0.8826 0.0
O164 O 0.79804 0.98144 0.80116 0.0
O165 O 0.89909 0.1105 0.79148 0.0
O166 O 0.74057 0.11164 0.82979 0.0
O167 O 0.74828 0.03449 0.8562 0.0
C168 C 0.70502 0.06979 0.84913 0.0
C169 C 1.01675 0.1689 0.86603 0.0
O170 O 0.82033 0.95446 0.87977 0.0
O171 O 0.87105 0.96943 0.84141 0.0
O172 O 0.852 0.06966 0.92114 0.0
O173 O 0.76247 0.11059 0.90797 0.0
O174 O 0.99533 0.19046 0.88583 0.0
O175 O 0.94966 0.10213 0.85746 0.0
O176 O 0.93669 0.23313 0.8362 0.0
O177 O 0.86392 0.22224 0.87095 0.0
C178 C 0.84513 0.92509 0.86156 0.0
C179 C 0.92049 0.27079 0.85445 0.0
Dy180 Dy 0.78616 0.94697 0.71314 0.0
C181 C 0.69444 0.92679 0.61672 0.0
C182 C 0.83276 1.00041 0.75908 0.0
Dy183 Dy 0.76389 0.93113 0.65919 0.0
O184 O 0.7873 0.91821 0.75201 0.0
O185 O 0.85441 0.05268 0.74105 0.0
O186 O 0.64855 0.92727 0.71401 0.0
O187 O 0.73072 0.99748 0.68619 0.0
C188 C 0.65346 0.9656 0.69415 0.0
C189 C 0.87097 0.86848 0.67207 0.0
O190 O 0.87433 0.06898 0.66203 0.0
O191 O 0.9192 0.05386 0.69934 0.0
O192 O 0.77883 0.96643 0.62118 0.0
O193 O 0.64773 0.88948 0.63535 0.0
O194 O 0.84722 0.86905 0.65044 0.0
O195 O 0.83468 0.89921 0.6852 0.0
O196 O 0.72168 0.7982 0.70666 0.0
O197 O 0.65383 0.80299 0.6722 0.0
C198 C 0.93455 0.09515 0.67878 0.0
C199 C 0.66543 0.75752 0.6889 0.0
Dy200 Dy 0.08645 0.84514 0.71299 0.0
C201 C 0.10733 0.77602 0.61657 0.0
C202 C 0.03241 0.83614 0.75901 0.0
Dy203 Dy 0.10167 0.8402 0.65904 0.0
O204 O 0.11466 0.87345 0.75198 0.0
O205 O 0.98038 0.80601 0.74091 0.0
O206 O 0.10912 0.72871 0.71324 0.0
O207 O 0.03717 0.73992 0.6858 0.0
C208 C 0.07084 0.69561 0.69335 0.0
C209 C 0.16247 1.00936 0.67207 0.0
O210 O 0.96317 0.81012 0.66208 0.0
O211 O 0.97873 0.8705 0.69935 0.0
O212 O 0.06623 0.81939 0.62105 0.0
O213 O 0.14547 0.76763 0.63515 0.0
O214 O 0.16186 0.98521 0.65042 0.0
O215 O 0.13273 0.94251 0.68525 0.0
O216 O 0.23481 0.9325 0.70646 0.0
O217 O 0.22973 0.85881 0.67221 0.0
C218 C 0.93712 0.84425 0.67883 0.0
C219 C 0.27539 0.91739 0.68859 0.0
Dy220 Dy 0.18819 0.24888 0.71322 0.0
C221 C 0.25919 0.33978 0.61679 0.0
C222 C 0.19574 0.20217 0.75912 0.0
Dy223 Dy 0.19425 0.2702 0.65926 0.0
O224 O 0.15925 0.24801 0.75218 0.0
O225 O 0.22579 0.1803 0.741 0.0
O226 O 0.3061 0.3869 0.71388 0.0
O227 O 0.29396 0.30414 0.6862 0.0
C228 C 0.33939 0.38164 0.69402 0.0
C229 C 0.02481 0.16196 0.67209 0.0
O230 O 0.22219 0.16019 0.6622 0.0
O231 O 0.16148 0.11551 0.69944 0.0
O232 O 0.21493 0.25537 0.62125 0.0
O233 O 0.26822 0.38643 0.63542 0.0
O234 O 0.04919 0.18584 0.65047 0.0
O235 O 0.0916 0.19894 0.6853 0.0
O236 O 0.10241 0.3118 0.70673 0.0
O237 O 0.17494 0.37956 0.67226 0.0
C238 C 0.1874 0.0999 0.67889 0.0
C239 C 0.11729 0.36739 0.68886 0.0
Dy240 Dy 0.76813 0.59928 0.4936 0.0
C241 C 0.70354 0.54066 0.5927 0.0
C242 C 0.76858 0.66135 0.45028 0.0
Dy243 Dy 0.75833 0.58445 0.54655 0.0
O244 O 0.74175 0.57852 0.45497 0.0
O245 O 0.79403 0.70956 0.46911 0.0
O246 O 0.86336 0.54874 0.49002 0.0
O247 O 0.77669 0.50776 0.51873 0.0
C248 C 0.84282 0.50659 0.50994 0.0
C249 C 0.74361 0.71958 0.52708 0.0
O250 O 0.90627 0.64931 0.54026 0.0
O251 O 0.89619 0.71307 0.50583 0.0
O252 O 0.65328 0.53321 0.57505 0.0
O253 O 0.78473 0.57216 0.58522 0.0
O254 O 0.78475 0.72556 0.54652 0.0
O255 O 0.70826 0.64098 0.52006 0.0
O256 O 0.62903 0.489 0.49606 0.0
O257 O 0.64311 0.45267 0.53445 0.0
C258 C 0.94439 0.70391 0.5222 0.0
C259 C 0.59951 0.43424 0.51414 0.0
Dy260 Dy 0.43511 0.1764 0.49336 0.0
C261 C 0.49519 0.1709 0.5921 0.0
C262 C 0.37284 0.11409 0.4501 0.0
Dy263 Dy 0.44993 0.18202 0.54623 0.0
O264 O 0.45565 0.17031 0.45473 0.0
O265 O 0.32478 0.09148 0.46893 0.0
O266 O 0.48535 0.32204 0.48973 0.0
O267 O 0.52678 0.27657 0.51842 0.0
C268 C 0.52772 0.34371 0.50963 0.0
C269 C 0.31443 0.03232 0.52683 0.0
O270 O 0.38462 0.26467 0.5401 0.0
O271 O 0.3216 0.1916 0.50548 0.0
O272 O 0.49632 0.12372 0.57464 0.0
O273 O 0.46859 0.2247 0.58465 0.0
O274 O 0.30847 0.06813 0.54618 0.0
O275 O 0.39307 0.0751 0.51983 0.0
O276 O 0.54561 0.1477 0.4959 0.0
O277 O 0.58157 0.19818 0.5343 0.0
C278 C 0.33035 0.2485 0.52197 0.0
C279 C 0.60012 0.17278 0.51405 0.0
Dy280 Dy 0.85818 0.266 0.4937 0.0
C281 C 0.86121 0.32935 0.59298 0.0
C282 C 0.92024 0.26594 0.45038 0.0
Dy283 Dy 0.85184 0.2753 0.54674 0.0
O284 O 0.86431 0.29287 0.45509 0.0
O285 O 0.94283 0.24031 0.46918 0.0
O286 O 0.71269 0.17084 0.48984 0.0
O287 O 0.75762 0.25717 0.5187 0.0
C288 C 0.69063 0.19123 0.50973 0.0
C289 C 1.00216 0.29045 0.52737 0.0
O290 O 0.76897 0.1275 0.54031 0.0
O291 O 0.84343 0.1377 0.50595 0.0
O292 O 0.90462 0.3798 0.57542 0.0
O293 O 0.81181 0.24828 0.58537 0.0
O294 O 0.96692 0.24936 0.54681 0.0
O295 O 0.95882 0.32563 0.52034 0.0
O296 O 0.88668 0.40509 0.4963 0.0
O297 O 0.83567 0.39077 0.53467 0.0
C298 C 0.78573 0.08946 0.52225 0.0
C299 C 0.86122 0.43452 0.5144 0.0
Dy300 Dy 0.94229 0.43236 0.71671 0.0
C301 C 0.87507 0.35877 0.61792 0.0
C302 C 1.00511 0.43364 0.75995 0.0
Dy303 Dy 0.92041 0.41494 0.66399 0.0
O304 O 0.92232 0.4066 0.75529 0.0
O305 O 0.05338 0.45983 0.74115 0.0
O306 O 0.89403 0.52946 0.72021 0.0
O307 O 0.84918 0.43959 0.69209 0.0
C308 C 0.85 0.50712 0.70056 0.0
C309 C 0.05555 0.39926 0.68309 0.0
O310 O 0.98581 0.56373 0.66899 0.0
O311 O 0.05532 0.55655 0.70253 0.0
O312 O 0.86602 0.3085 0.63572 0.0
O313 O 0.90827 0.44032 0.62525 0.0
O314 O 0.06068 0.43983 0.66363 0.0
O315 O 0.9779 0.36574 0.69066 0.0
O316 O 0.82829 0.29584 0.71583 0.0
O317 O 0.78834 0.30305 0.67728 0.0
C318 C 0.04255 0.60357 0.68655 0.0
C319 C 0.77096 0.26467 0.69835 0.0
Dy320 Dy 0.60867 0.5193 0.71666 0.0
C321 C 0.67405 0.52578 0.6176 0.0
C322 C 0.60565 0.57989 0.75998 0.0
Dy323 Dy 0.61885 0.51406 0.66376 0.0
O324 O 0.6349 0.52579 0.7553 0.0
O325 O 0.57922 0.60144 0.74113 0.0
O326 O 0.51545 0.3734 0.72044 0.0
O327 O 0.60205 0.41976 0.69163 0.0
C328 C 0.5366 0.35226 0.70053 0.0
C329 C 0.63268 0.66359 0.68335 0.0
O330 O 0.47124 0.42778 0.66969 0.0
O331 O 0.48004 0.5024 0.70387 0.0
O332 O 0.72418 0.56823 0.6353 0.0
O333 O 0.59286 0.47605 0.62503 0.0
O334 O 0.59044 0.62731 0.6641 0.0
O335 O 0.66866 0.62099 0.69031 0.0
O336 O 0.74855 0.55066 0.7142 0.0
O337 O 0.73477 0.49948 0.67586 0.0
C338 C 0.43242 0.44351 0.68771 0.0
C339 C 0.77854 0.5259 0.69609 0.0
Dy340 Dy 0.51019 0.09346 0.71712 0.0
C341 C 0.51155 0.15704 0.61688 0.0
C342 C 0.44462 0.02287 0.75955 0.0
Dy343 Dy 0.51942 0.11145 0.66289 0.0
O344 O 0.48882 0.10743 0.75519 0.0
O345 O 0.43524 0.97674 0.74078 0.0
O346 O 0.65429 0.17839 0.72645 0.0
O347 O 0.61412 0.16245 0.69132 0.0
C348 C 0.6801 0.19963 0.70481 0.0
C349 C 0.36823 0.97962 0.68236 0.0
O350 O 0.6062 0.0507 0.66986 0.0
O351 O 0.53368 0.98553 0.70462 0.0
O352 O 0.5482 0.11142 0.62391 0.0
O353 O 0.48137 0.17903 0.63495 0.0
O354 O 0.40252 0.97286 0.66283 0.0
O355 O 0.41262 0.05786 0.68964 0.0
O356 O 0.48093 0.20286 0.71265 0.0
O357 O 0.5463 0.24518 0.67581 0.0
C358 C 0.59158 0.99683 0.68809 0.0
C359 C 0.51662 0.26168 0.69557 0.0
Dy360 Dy 0.6146 0.10902 0.16323 0.0
C361 C 0.60982 0.0413 0.25997 0.0
C362 C 0.66952 0.15403 0.11726 0.0
Dy363 Dy 0.60618 0.09616 0.21613 0.0
O364 O 0.71827 0.155 0.13457 0.0
O365 O 0.58938 0.12747 0.1249 0.0
O366 O 0.58828 0.96804 0.16343 0.0
O367 O 0.66544 0.05337 0.18981 0.0
C368 C 0.6301 0.97471 0.18281 0.0
C369 C 0.53028 0.18693 0.1994 0.0
O370 O 0.74514 0.2058 0.21331 0.0
O371 O 0.73014 0.24099 0.17491 0.0
O372 O 0.62992 0.12194 0.25469 0.0
O373 O 0.58889 0.9915 0.24146 0.0
O374 O 0.50902 0.14432 0.21924 0.0
O375 O 0.59722 0.18671 0.19089 0.0
O376 O 0.46673 0.04264 0.1696 0.0
O377 O 0.4779 0.98121 0.20438 0.0
C378 C 0.77437 0.25978 0.19509 0.0
C379 C 0.42923 0.98894 0.18785 0.0
Dy380 Dy 0.92425 0.51201 0.16323 0.0
C381 C 0.99214 0.57537 0.25995 0.0
C382 C 0.87923 0.52188 0.11725 0.0
Dy383 Dy 0.9372 0.51676 0.2161 0.0
O384 O 0.87827 0.56969 0.13458 0.0
O385 O 0.90575 0.46824 0.12488 0.0
O386 O 0.06525 0.62649 0.16343 0.0
O387 O 0.98 0.61866 0.18979 0.0
C388 C 0.05864 0.66182 0.18279 0.0
C389 C 0.8463 0.35006 0.19942 0.0
O390 O 0.82763 0.54626 0.21328 0.0
O391 O 0.7923 0.49574 0.17489 0.0
O392 O 0.91149 0.51493 0.25466 0.0
O393 O 0.0419 0.60411 0.24145 0.0
O394 O 0.88908 0.3715 0.21924 0.0
O395 O 0.84652 0.41715 0.19087 0.0
O396 O 0.99052 0.43038 0.16961 0.0
O397 O 0.05212 0.5033 0.20436 0.0
C398 C 0.77358 0.52136 0.19507 0.0
C399 C 0.04428 0.44669 0.18786 0.0
Dy400 Dy 0.52117 0.41871 0.16325 0.0
C401 C 0.45829 0.42375 0.25997 0.0
C402 C 0.51144 0.36373 0.11727 0.0
Dy403 Dy 0.5167 0.42732 0.21611 0.0
O404 O 0.4637 0.31497 0.13458 0.0
O405 O 0.56488 0.44391 0.12492 0.0
O406 O 0.40655 0.44513 0.16347 0.0
O407 O 0.41464 0.36797 0.18983 0.0
C408 C 0.37135 0.40333 0.18284 0.0
C409 C 0.68329 0.50299 0.19941 0.0
O410 O 0.48732 0.28829 0.21331 0.0
O411 O 0.53749 0.30308 0.1749 0.0
O412 O 0.51879 0.4036 0.25466 0.0
O413 O 0.42942 0.44472 0.24149 0.0
O414 O 0.66191 0.52449 0.21923 0.0
O415 O 0.61623 0.43606 0.19087 0.0
O416 O 0.60274 0.56661 0.16961 0.0
O417 O 0.53002 0.55561 0.20438 0.0
C418 C 0.512 0.25892 0.19508 0.0
C419 C 0.58651 0.60421 0.18786 0.0
Dy420 Dy 0.45294 0.28024 0.04644 0.0
C421 C 0.36081 0.2585 0.94996 0.0
C422 C 0.49857 0.33383 0.09246 0.0
Dy423 Dy 0.43089 0.26435 0.99243 0.0
O424 O 0.45282 0.25167 0.08539 0.0
O425 O 0.52112 0.38602 0.07439 0.0
O426 O 0.31479 0.25935 0.04697 0.0
O427 O 0.39744 0.33058 1.01937 0.0
C428 C 0.31998 0.29816 0.02717 0.0
C429 C 0.53896 0.20312 1.00527 0.0
O430 O 0.54065 0.40234 0.99537 0.0
O431 O 0.58581 0.38703 0.03264 0.0
O432 O 0.44524 0.29934 0.95441 0.0
O433 O 0.31436 0.22096 0.96861 0.0
O434 O 0.5151 0.2034 0.98364 0.0
O435 O 0.50228 0.23336 1.01844 0.0
O436 O 0.39149 0.13172 0.04004 0.0
O437 O 0.32201 0.13639 1.00594 0.0
C438 C 0.60101 0.42822 1.01207 0.0
C439 C 0.33547 0.09089 0.02227 0.0
Dy440 Dy 0.75288 0.17869 0.04643 0.0
C441 C 0.77394 0.10773 0.94996 0.0
C442 C 0.69938 0.17093 0.09245 0.0
Dy443 Dy 0.76869 0.17236 0.99244 0.0
O444 O 0.78151 0.20713 0.08539 0.0
O445 O 0.64718 0.1414 0.07437 0.0
O446 O 0.77379 0.06139 0.04691 0.0
O447 O 0.70246 0.07276 1.01934 0.0
C448 C 0.73487 0.02767 0.02712 0.0
C449 C 0.82988 0.3417 1.00528 0.0
O450 O 0.6307 0.14415 0.99538 0.0
O451 O 0.64606 0.2048 0.03264 0.0
O452 O 0.73335 0.15158 0.95444 0.0
O453 O 0.81166 0.09886 0.96857 0.0
O454 O 0.82953 0.3174 0.98365 0.0
O455 O 0.79971 0.2749 1.01845 0.0
O456 O 0.90136 0.26572 0.04006 0.0
O457 O 0.89677 0.19156 1.00593 0.0
C458 C 0.60482 0.17869 1.01207 0.0
C459 C 0.94223 0.25052 0.02228 0.0
Dy460 Dy 0.85445 0.58036 0.04643 0.0
C461 C 0.92484 0.67204 0.95 0.0
C462 C 0.86232 0.53481 0.09244 0.0
Dy463 Dy 0.86054 0.60214 0.99246 0.0
O464 O 0.82617 0.5808 0.08539 0.0
O465 O 0.89178 0.51201 0.07436 0.0
O466 O 0.97168 0.71853 0.04691 0.0
O467 O 0.96029 0.63567 1.01933 0.0
C468 C 1.00534 0.7132 0.02712 0.0
C469 C 0.69129 0.49407 1.00529 0.0
O470 O 0.88876 0.49232 0.99536 0.0
O471 O 0.82837 0.44736 0.03264 0.0
O472 O 0.88132 0.58762 0.95445 0.0
O473 O 0.9336 0.71859 0.96863 0.0
O474 O 0.7155 0.51795 0.98366 0.0
O475 O 0.75809 0.53077 1.01847 0.0
O476 O 0.76724 0.64168 0.04005 0.0
O477 O 0.84145 0.71113 1.00597 0.0
C478 C 0.85433 0.43204 1.01206 0.0
C479 C 0.78239 0.69765 0.02228 0.0
Dy480 Dy 0.43359 0.93009 0.82663 0.0
C481 C 0.37075 0.87112 0.92574 0.0
C482 C 0.42812 0.98667 0.78302 0.0
Dy483 Dy 0.42561 0.9162 0.87969 0.0
O484 O 0.40833 0.90587 0.78802 0.0
O485 O 0.4501 0.0358 0.80169 0.0
O486 O 0.52944 0.88042 0.82306 0.0
O487 O 0.44254 0.83902 0.85177 0.0
C488 C 0.50879 0.8381 0.84295 0.0
C489 C 0.41059 0.05112 0.86026 0.0
O490 O 0.57336 0.98228 0.87316 0.0
O491 O 0.56275 0.04403 0.83831 0.0
O492 O 0.32203 0.87022 0.90842 0.0
O493 O 0.45082 0.8975 0.91804 0.0
O494 O 0.45246 0.05749 0.87961 0.0
O495 O 0.37503 0.97242 0.8533 0.0
O496 O 0.29464 0.82033 0.82953 0.0
O497 O 0.3098 0.78464 0.86789 0.0
C498 C 0.61107 0.03607 0.85492 0.0
C499 C 0.26549 0.76616 0.84771 0.0
Dy500 Dy 0.10136 0.50893 0.82698 0.0
C501 C 0.16215 0.50508 0.92585 0.0
C502 C 0.04118 0.4502 0.78342 0.0
Dy503 Dy 0.11646 0.51435 0.87985 0.0
O504 O 0.12385 0.50559 0.78839 0.0
O505 O 0.9922 0.42603 0.80209 0.0
O506 O 0.15072 0.65432 0.82355 0.0
O507 O 0.19303 0.6089 0.85205 0.0
C508 C 0.1935 0.67591 0.84337 0.0
C509 C 0.98134 0.36439 0.86047 0.0
O510 O 0.05041 0.59641 0.87365 0.0
O511 O 0.98705 0.52251 0.83917 0.0
O512 O 0.16338 0.45741 0.90851 0.0
O513 O 0.13522 0.55835 0.91819 0.0
O514 O 0.97527 0.3999 0.87987 0.0
O515 O 0.05984 0.40749 0.8534 0.0
O516 O 0.21133 0.47956 0.82934 0.0
O517 O 0.2479 0.53012 0.86772 0.0
C518 C 0.99585 0.57975 0.85556 0.0
C519 C 0.26613 0.50466 0.84742 0.0
Dy520 Dy 0.52389 0.59743 0.8267 0.0
C521 C 0.52708 0.66219 0.92575 0.0
C522 C 0.58627 0.59747 0.78342 0.0
Dy523 Dy 0.5177 0.60693 0.87973 0.0
O524 O 0.53002 0.62405 0.78808 0.0
O525 O 0.60891 0.57202 0.80225 0.0
O526 O 0.3782 0.50224 0.82302 0.0
O527 O 0.42374 0.58913 0.85173 0.0
C528 C 0.35655 0.52303 0.84292 0.0
C529 C 0.66783 0.62176 0.86041 0.0
O530 O 0.43553 0.45902 0.87344 0.0
O531 O 0.50913 0.46909 0.83891 0.0
O532 O 0.57459 0.71095 0.9084 0.0
O533 O 0.47384 0.58196 0.91809 0.0
O534 O 0.63229 0.58026 0.8798 0.0
O535 O 0.62462 0.65705 0.85333 0.0
O536 O 0.55262 0.73662 0.82927 0.0
O537 O 0.50175 0.72241 0.86765 0.0
C538 C 0.45203 0.42098 0.85534 0.0
C539 C 0.52734 0.76616 0.84739 0.0
Dy540 Dy 0.60926 0.76136 0.0509 0.0
C541 C 0.54025 0.69198 0.95062 0.0
C542 C 0.67926 0.7672 0.09344 0.0
Dy543 Dy 0.58639 0.74536 0.9967 0.0
O544 O 0.59485 0.7265 0.08895 0.0
O545 O 0.72575 0.80451 0.07478 0.0
O546 O 0.52513 0.82255 0.05965 0.0
O547 O 0.53783 0.79224 0.02491 0.0
C548 C 0.5012 0.82268 0.03802 0.0
C549 C 0.71952 0.72753 1.01599 0.0
O550 O 0.64831 0.8939 1.00317 0.0
O551 O 0.71794 0.88929 0.03729 0.0
O552 O 0.58588 0.7741 0.95775 0.0
O553 O 0.51817 0.63973 0.96867 0.0
O554 O 0.7246 0.76609 0.99616 0.0
O555 O 0.64204 0.6952 0.02377 0.0
O556 O 0.49918 0.62345 0.04791 0.0
O557 O 0.45371 0.63875 1.01065 0.0
C558 C 0.70445 0.9347 1.02094 0.0
C559 C 0.43867 0.59765 0.03124 0.0
Dy560 Dy 0.27165 0.85407 0.05085 0.0
C561 C 0.34097 0.85443 0.9506 0.0
C562 C 0.26589 0.91831 0.09341 0.0
Dy563 Dy 0.28753 0.84702 0.99669 0.0
O564 O 0.30668 0.87467 0.0889 0.0
O565 O 0.22846 0.92742 0.07476 0.0
O566 O 0.21061 0.70893 0.05963 0.0
O567 O 0.24071 0.75155 0.02486 0.0
C568 C 0.21038 0.68465 0.03801 0.0
C569 C 0.30539 0.99806 1.01601 0.0
O570 O 0.13903 0.76035 1.00314 0.0
O571 O 0.14367 0.83481 0.03725 0.0
O572 O 0.25886 0.81813 0.95771 0.0
O573 O 0.39318 0.88428 0.96868 0.0
O574 O 0.26666 0.96445 0.99619 0.0
O575 O 0.33778 0.95293 0.02376 0.0
O576 O 0.40958 0.88191 0.04786 0.0
O577 O 0.3942 0.82094 1.01061 0.0
C578 C 0.09824 0.77577 1.02091 0.0
C579 C 0.43538 0.84715 0.03119 0.0
Dy580 Dy 0.17906 0.42381 0.05093 0.0
C581 C 0.17877 0.49207 0.9507 0.0
C582 C 0.11484 0.3539 0.09347 0.0
Dy583 Dy 0.18599 0.44627 0.99676 0.0
O584 O 0.15844 0.43831 0.08898 0.0
O585 O 0.10577 0.30736 0.0748 0.0
O586 O 0.32425 0.50799 0.0597 0.0
O587 O 0.28144 0.49514 0.02494 0.0
C588 C 0.3484 0.53187 0.03807 0.0
C589 C 0.03506 0.31323 1.01606 0.0
O590 O 0.27272 0.38452 1.00322 0.0
O591 O 0.19846 0.31506 0.03735 0.0
O592 O 0.21521 0.44642 0.95782 0.0
O593 O 0.14863 0.51436 0.96874 0.0
O594 O 0.06869 0.30802 0.99625 0.0
O595 O 0.08011 0.39078 0.02382 0.0
O596 O 0.15122 0.53393 0.0479 0.0
O597 O 0.21203 0.57911 1.01064 0.0
C598 C 0.25739 0.32847 1.02099 0.0
C599 C 0.1859 0.59431 0.03121 0.0
Dy600 Dy 0.28112 0.44314 0.49663 0.0
C601 C 0.27704 0.3753 0.5933 0.0
C602 C 0.33627 0.48818 0.4507 0.0
Dy603 Dy 0.27305 0.4302 0.5495 0.0
O604 O 0.38504 0.48953 0.46805 0.0
O605 O 0.25598 0.46127 0.45828 0.0
O606 O 0.25479 0.30223 0.49678 0.0
O607 O 0.33229 0.38757 0.52312 0.0
C608 C 0.29701 0.30897 0.51609 0.0
C609 C 0.19729 0.52119 0.53287 0.0
O610 O 0.41203 0.53971 0.54664 0.0
O611 O 0.39666 0.57508 0.50829 0.0
O612 O 0.29718 0.45597 0.58805 0.0
O613 O 0.25597 0.3255 0.57478 0.0
O614 O 0.17617 0.4787 0.55273 0.0
O615 O 0.26408 0.52083 0.52432 0.0
O616 O 0.13328 0.37686 0.50307 0.0
O617 O 0.14443 0.31544 0.53786 0.0
C618 C 0.4411 0.59375 0.52843 0.0
C619 C 0.09577 0.32327 0.52135 0.0
Dy620 Dy 0.59089 0.846 0.49658 0.0
C621 C 0.6589 0.9093 0.59324 0.0
C622 C 0.54571 0.8559 0.45065 0.0
Dy623 Dy 0.60392 0.85067 0.54941 0.0
O624 O 0.54424 0.90331 0.46801 0.0
O625 O 0.57285 0.80269 0.45822 0.0
O626 O 0.73179 0.96059 0.49679 0.0
O627 O 0.6464 0.95261 0.52313 0.0
C628 C 0.72499 0.99592 0.51614 0.0
C629 C 0.513 0.684 0.53276 0.0
O630 O 0.49438 0.88021 0.54661 0.0
O631 O 0.45903 0.82973 0.50822 0.0
O632 O 0.57818 0.84898 0.58796 0.0
O633 O 0.70869 0.93796 0.57473 0.0
O634 O 0.5558 0.70543 0.55258 0.0
O635 O 0.51317 0.75105 0.52421 0.0
O636 O 0.65702 0.76426 0.50287 0.0
O637 O 0.71868 0.83689 0.53765 0.0
C638 C 0.44039 0.85545 0.52838 0.0
C639 C 0.71077 0.78037 0.52111 0.0
Dy640 Dy 0.18794 0.75253 0.49658 0.0
C641 C 0.1251 0.75824 0.5931 0.0
C642 C 0.178 0.69727 0.45065 0.0
Dy643 Dy 0.18367 0.76175 0.54933 0.0
O644 O 0.1307 0.64846 0.468 0.0
O645 O 0.23113 0.77762 0.45823 0.0
O646 O 0.07328 0.77882 0.49679 0.0
O647 O 0.08141 0.70164 0.52314 0.0
C648 C 0.03799 0.7368 0.51613 0.0
C649 C 0.3502 0.83725 0.53268 0.0
O650 O 0.15454 0.62278 0.54671 0.0
O651 O 0.20439 0.63706 0.50828 0.0
O652 O 0.18581 0.7383 0.58785 0.0
O653 O 0.09605 0.77891 0.5746 0.0
O654 O 0.32881 0.85897 0.55246 0.0
O655 O 0.28321 0.77022 0.52416 0.0
O656 O 0.26953 0.90051 0.50277 0.0
O657 O 0.19737 0.89025 0.53758 0.0
C658 C 0.17904 0.59315 0.52851 0.0
C659 C 0.25359 0.93852 0.52098 0.0
Dy660 Dy 0.11867 0.61358 0.37992 0.0
C661 C 0.0277 0.59276 0.28345 0.0
C662 C 0.16482 0.66735 0.42586 0.0
Dy663 Dy 0.09723 0.59775 0.32595 0.0
O664 O 0.12 0.58509 0.41881 0.0
O665 O 0.18601 0.71953 0.40783 0.0
O666 O 0.98045 0.59285 0.38065 0.0
O667 O 0.06285 0.66331 0.35289 0.0
C668 C 0.98538 0.63091 0.36075 0.0
C669 C 0.20506 0.53604 0.3389 0.0
O670 O 0.20712 0.73584 0.32886 0.0
O671 O 0.25182 0.72064 0.36617 0.0
O672 O 0.11209 0.63301 0.28793 0.0
O673 O 0.98104 0.55529 0.30207 0.0
O674 O 0.18128 0.53649 0.31727 0.0
O675 O 0.1683 0.5663 0.35206 0.0
O676 O 0.05494 0.46494 0.3735 0.0
O677 O 0.98747 0.46944 0.33892 0.0
C678 C 0.26731 0.76196 0.34561 0.0
C679 C 0.99898 0.42418 0.3557 0.0
Dy680 Dy 0.42008 0.51223 0.37996 0.0
C681 C 0.44091 0.44188 0.28348 0.0
C682 C 0.36622 0.50482 0.42591 0.0
Dy683 Dy 0.43592 0.5064 0.32602 0.0
O684 O 0.44847 0.54197 0.41888 0.0
O685 O 0.31411 0.47401 0.40785 0.0
O686 O 0.44076 0.39467 0.38069 0.0
O687 O 0.37032 0.4066 0.35292 0.0
C688 C 0.40267 0.36148 0.36078 0.0
C689 C 0.49757 0.67597 0.33895 0.0
O690 O 0.29779 0.47811 0.32889 0.0
O691 O 0.31295 0.53823 0.3662 0.0
O692 O 0.40055 0.48594 0.288 0.0
O693 O 0.47847 0.43273 0.30209 0.0
O694 O 0.49709 0.65158 0.31732 0.0
O695 O 0.46735 0.60909 0.35212 0.0
O696 O 0.56871 0.59716 0.37355 0.0
O697 O 0.56416 0.52482 0.33902 0.0
C698 C 0.27161 0.51222 0.34563 0.0
C699 C 0.60946 0.58183 0.35575 0.0
Dy700 Dy 0.52137 0.91512 0.37994 0.0
C701 C 0.59174 1.0058 0.28347 0.0
C702 C 0.52898 0.86904 0.42587 0.0
Dy703 Dy 0.52722 0.93635 0.32598 0.0
O704 O 0.49157 0.91391 0.41884 0.0
O705 O 0.55993 0.84777 0.40782 0.0
O706 O 0.63873 0.05338 0.38068 0.0
O707 O 0.62701 0.97087 0.35293 0.0
C708 C 0.67199 0.04838 0.3608 0.0
C709 C 0.3577 0.82845 0.33889 0.0
O710 O 0.55559 0.82654 0.32891 0.0
O711 O 0.49543 0.78192 0.36621 0.0
O712 O 0.54776 0.9214 0.28795 0.0
O713 O 0.60082 0.05249 0.30209 0.0
O714 O 0.38204 0.85222 0.31727 0.0
O715 O 0.42459 0.86528 0.35207 0.0
O716 O 0.43636 0.97872 0.37348 0.0
O717 O 0.50861 0.04619 0.33894 0.0
C718 C 0.52146 0.7664 0.34566 0.0
C719 C 0.45163 0.03462 0.35567 0.0
loop_
_geom_bond_atom_site_label_1
_geom_bond_atom_site_label_2
_geom_bond_distance
_geom_bond_site_symmetry_2
_ccdc_geom_bond_type
Dy0 O4 2.398 . S
Dy0 O5 2.491 . S
Dy0 O6 2.403 . S
Dy0 O7 2.664 . S
Dy0 O11 2.326 . S
Dy0 O15 2.310 . S
Dy0 O16 2.351 1_455 S
C1 O12 1.185 . S
C1 O13 1.355 . S
C2 O4 1.185 . S
C2 O5 1.355 . S
Dy3 O7 2.310 . S
Dy3 O10 2.351 . S
Dy3 O12 2.398 . S
Dy3 O13 2.491 . S
Dy3 O14 2.403 . S
Dy3 O15 2.664 . S
Dy3 O17 2.329 . S
O4 Dy0 2.398 . S
O4 C2 1.185 . S
O5 Dy0 2.491 . S
O5 C2 1.355 . S
O6 Dy0 2.403 . S
O6 C8 1.254 . S
O7 Dy0 2.664 . S
O7 Dy3 2.310 . S
O7 C8 1.268 . S
C8 O6 1.254 . S
C8 O7 1.268 . S
C9 O14 1.254 . S
C9 O15 1.268 . S
O10 Dy3 2.351 . S
O10 C18 1.249 . S
O11 Dy0 2.326 . S
O11 C18 1.267 . S
O12 C1 1.185 . S
O12 Dy3 2.398 . S
O13 C1 1.355 . S
O13 Dy3 2.491 . S
O14 Dy3 2.403 . S
O14 C9 1.254 . S
O15 Dy0 2.310 . S
O15 Dy3 2.664 . S
O15 C9 1.268 . S
O16 Dy0 2.351 1_655 S
O16 C19 1.249 . S
O17 Dy3 2.329 . S
O17 C19 1.267 1_455 S
C18 O10 1.249 . S
C18 O11 1.267 . S
C19 O16 1.249 . S
C19 O17 1.267 1_655 S
Dy20 O24 2.398 . S
Dy20 O25 2.491 . S
Dy20 O26 2.403 1_565 S
Dy20 O27 2.664 . S
Dy20 O31 2.326 . S
Dy20 O35 2.310 . S
Dy20 O36 2.351 . S
C21 O32 1.185 . S
C21 O33 1.355 . S
C22 O24 1.185 . S
C22 O25 1.355 . S
Dy23 O27 2.310 . S
Dy23 O30 2.351 . S
Dy23 O32 2.398 . S
Dy23 O33 2.491 . S
Dy23 O34 2.403 . S
Dy23 O35 2.664 . S
Dy23 O37 2.326 . S
O24 Dy20 2.398 . S
O24 C22 1.185 . S
O25 Dy20 2.491 . S
O25 C22 1.355 . S
O26 Dy20 2.403 1_545 S
O26 C28 1.254 . S
O27 Dy20 2.664 . S
O27 Dy23 2.310 . S
O27 C28 1.268 1_565 S
C28 O26 1.254 . S
C28 O27 1.268 1_545 S
C29 O34 1.254 . S
C29 O35 1.268 . S
O30 Dy23 2.351 . S
O30 C38 1.249 . S
O31 Dy20 2.326 . S
O31 C38 1.267 . S
O32 C21 1.185 . S
O32 Dy23 2.398 . S
O33 C21 1.355 . S
O33 Dy23 2.491 . S
O34 Dy23 2.403 . S
O34 C29 1.254 . S
O35 Dy20 2.310 . S
O35 Dy23 2.664 . S
O35 C29 1.268 . S
O36 Dy20 2.351 . S
O36 C39 1.249 . S
O37 Dy23 2.326 . S
O37 C39 1.267 . S
C38 O30 1.249 . S
C38 O31 1.267 . S
C39 O36 1.249 . S
C39 O37 1.267 . S
Dy40 O44 2.398 . S
Dy40 O45 2.491 . S
Dy40 O46 2.403 1_455 S
Dy40 O47 2.664 . S
Dy40 O51 2.326 . S
Dy40 O55 2.310 . S
Dy40 O56 2.351 1_565 S
C41 O52 1.185 . S
C41 O53 1.355 . S
C42 O44 1.185 . S
C42 O45 1.355 . S
Dy43 O47 2.310 . S
Dy43 O50 2.351 . S
Dy43 O52 2.398 . S
Dy43 O53 2.491 . S
Dy43 O54 2.403 . S
Dy43 O55 2.664 . S
Dy43 O57 2.328 . S
O44 Dy40 2.398 . S
O44 C42 1.185 . S
O45 Dy40 2.491 . S
O45 C42 1.355 . S
O46 Dy40 2.403 1_655 S
O46 C48 1.254 . S
O47 Dy40 2.664 . S
O47 Dy43 2.310 . S
O47 C48 1.268 1_455 S
C48 O46 1.254 . S
C48 O47 1.268 1_655 S
C49 O54 1.254 . S
C49 O55 1.268 . S
O50 Dy43 2.351 . S
O50 C58 1.249 . S
O51 Dy40 2.326 . S
O51 C58 1.267 . S
O52 C41 1.185 . S
O52 Dy43 2.398 . S
O53 C41 1.355 . S
O53 Dy43 2.491 . S
O54 Dy43 2.403 . S
O54 C49 1.254 . S
O55 Dy40 2.310 . S
O55 Dy43 2.664 . S
O55 C49 1.268 . S
O56 Dy40 2.351 1_545 S
O56 C59 1.249 . S
O57 Dy43 2.328 . S
O57 C59 1.266 1_565 S
C58 O50 1.249 . S
C58 O51 1.267 . S
C59 O56 1.249 . S
C59 O57 1.266 1_545 S
Dy60 O64 2.398 . S
Dy60 O65 2.491 . S
Dy60 O66 2.403 . S
Dy60 O67 2.664 . S
Dy60 O71 2.326 . S
Dy60 O75 2.310 . S
Dy60 O76 2.351 1_545 S
C61 O72 1.185 . S
C61 O73 1.355 . S
C62 O64 1.185 . S
C62 O65 1.355 . S
Dy63 O67 2.310 . S
Dy63 O70 2.351 . S
Dy63 O72 2.398 . S
Dy63 O73 2.491 . S
Dy63 O74 2.403 . S
Dy63 O75 2.664 . S
Dy63 O77 2.326 . S
O64 Dy60 2.398 . S
O64 C62 1.185 . S
O65 Dy60 2.491 . S
O65 C62 1.355 . S
O66 Dy60 2.403 . S
O66 C68 1.254 . S
O67 Dy60 2.664 . S
O67 Dy63 2.310 . S
O67 C68 1.268 . S
C68 O66 1.254 . S
C68 O67 1.268 . S
C69 O74 1.254 . S
C69 O75 1.268 . S
O70 Dy63 2.351 . S
O70 C78 1.249 . S
O71 Dy60 2.326 . S
O71 C78 1.267 . S
O72 C61 1.185 . S
O72 Dy63 2.398 . S
O73 C61 1.355 . S
O73 Dy63 2.491 . S
O74 Dy63 2.403 . S
O74 C69 1.254 . S
O75 Dy60 2.310 . S
O75 Dy63 2.664 . S
O75 C69 1.268 . S
O76 Dy60 2.351 1_565 S
O76 C79 1.249 . S
O77 Dy63 2.326 . S
O77 C79 1.267 1_545 S
C78 O70 1.249 . S
C78 O71 1.267 . S
C79 O76 1.249 . S
C79 O77 1.267 1_565 S
Dy80 O84 2.398 . S
Dy80 O85 2.491 . S
Dy80 O86 2.403 1_545 S
Dy80 O87 2.664 . S
Dy80 O91 2.326 . S
Dy80 O95 2.310 . S
Dy80 O96 2.351 1_655 S
C81 O92 1.185 . S
C81 O93 1.355 . S
C82 O84 1.185 . S
C82 O85 1.355 . S
Dy83 O87 2.310 . S
Dy83 O90 2.351 . S
Dy83 O92 2.398 . S
Dy83 O93 2.491 . S
Dy83 O94 2.403 . S
Dy83 O95 2.664 . S
Dy83 O97 2.340 . S
O84 Dy80 2.398 . S
O84 C82 1.185 . S
O85 Dy80 2.491 . S
O85 C82 1.355 . S
O86 Dy80 2.403 1_565 S
O86 C88 1.254 . S
O87 Dy80 2.664 . S
O87 Dy83 2.310 . S
O87 C88 1.268 1_545 S
C88 O86 1.254 . S
C88 O87 1.268 1_565 S
C89 O94 1.254 . S
C89 O95 1.268 . S
O90 Dy83 2.351 . S
O90 C98 1.249 . S
O91 Dy80 2.326 . S
O91 C98 1.267 . S
O92 C81 1.185 . S
O92 Dy83 2.398 . S
O93 C81 1.355 . S
O93 Dy83 2.491 . S
O94 Dy83 2.403 . S
O94 C89 1.254 . S
O95 Dy80 2.310 . S
O95 Dy83 2.664 . S
O95 C89 1.268 . S
O96 Dy80 2.351 1_455 S
O96 C99 1.249 . S
O97 Dy83 2.340 . S
O97 C99 1.258 1_655 S
C98 O90 1.249 . S
C98 O91 1.267 . S
C99 O96 1.249 . S
C99 O97 1.258 1_455 S
Dy100 O104 2.398 . S
Dy100 O105 2.491 . S
Dy100 O106 2.403 1_655 S
Dy100 O107 2.664 . S
Dy100 O111 2.326 . S
Dy100 O115 2.310 . S
Dy100 O116 2.351 . S
C101 O112 1.185 . S
C101 O113 1.355 . S
C102 O104 1.185 . S
C102 O105 1.355 . S
Dy103 O107 2.310 . S
Dy103 O110 2.351 . S
Dy103 O112 2.398 . S
Dy103 O113 2.491 . S
Dy103 O114 2.403 . S
Dy103 O115 2.664 . S
Dy103 O117 2.326 . S
O104 Dy100 2.398 . S
O104 C102 1.185 . S
O105 Dy100 2.491 . S
O105 C102 1.355 . S
O106 Dy100 2.403 1_455 S
O106 C108 1.254 . S
O107 Dy100 2.664 . S
O107 Dy103 2.310 . S
O107 C108 1.268 1_655 S
C108 O106 1.254 . S
C108 O107 1.268 1_455 S
C109 O114 1.254 . S
C109 O115 1.268 . S
O110 Dy103 2.351 . S
O110 C118 1.249 . S
O111 Dy100 2.326 . S
O111 C118 1.267 . S
O112 C101 1.185 . S
O112 Dy103 2.398 . S
O113 C101 1.355 . S
O113 Dy103 2.491 . S
O114 Dy103 2.403 . S
O114 C109 1.254 . S
O115 Dy100 2.310 . S
O115 Dy103 2.664 . S
O115 C109 1.268 . S
O116 Dy100 2.351 . S
O116 C119 1.249 . S
O117 Dy103 2.326 . S
O117 C119 1.267 . S
C118 O110 1.249 . S
C118 O111 1.267 . S
C119 O116 1.249 . S
C119 O117 1.267 . S
Dy120 O124 2.398 . S
Dy120 O125 2.491 . S
Dy120 O126 2.403 . S
Dy120 O127 2.664 . S
Dy120 O131 2.329 . S
Dy120 O135 2.310 . S
Dy120 O136 2.351 . S
C121 O132 1.185 . S
C121 O133 1.355 . S
C122 O124 1.185 . S
C122 O125 1.355 . S
Dy123 O127 2.310 . S
Dy123 O130 2.351 1_655 S
Dy123 O132 2.398 . S
Dy123 O133 2.491 . S
Dy123 O134 2.403 . S
Dy123 O135 2.664 . S
Dy123 O137 2.326 . S
O124 Dy120 2.398 . S
O124 C122 1.185 . S
O125 Dy120 2.491 . S
O125 C122 1.355 . S
O126 Dy120 2.403 . S
O126 C128 1.254 . S
O127 Dy120 2.664 . S
O127 Dy123 2.310 . S
O127 C128 1.268 . S
C128 O126 1.254 . S
C128 O127 1.268 . S
C129 O134 1.254 . S
C129 O135 1.268 . S
O130 Dy123 2.351 1_455 S
O130 C138 1.249 . S
O131 Dy120 2.329 . S
O131 C138 1.267 1_655 S
O132 C121 1.185 . S
O132 Dy123 2.398 . S
O133 C121 1.355 . S
O133 Dy123 2.491 . S
O134 Dy123 2.403 . S
O134 C129 1.254 . S
O135 Dy120 2.310 . S
O135 Dy123 2.664 . S
O135 C129 1.268 . S
O136 Dy120 2.351 . S
O136 C139 1.249 . S
O137 Dy123 2.326 . S
O137 C139 1.267 . S
C138 O130 1.249 . S
C138 O131 1.267 1_455 S
C139 O136 1.249 . S
C139 O137 1.267 . S
Dy140 O144 2.398 . S
Dy140 O145 2.491 . S
Dy140 O146 2.403 . S
Dy140 O147 2.664 . S
Dy140 O151 2.326 . S
Dy140 O155 2.310 . S
Dy140 O156 2.351 . S
C141 O152 1.185 . S
C141 O153 1.355 . S
C142 O144 1.185 . S
C142 O145 1.355 . S
Dy143 O147 2.310 . S
Dy143 O150 2.351 . S
Dy143 O152 2.398 . S
Dy143 O153 2.491 . S
Dy143 O154 2.403 1_545 S
Dy143 O155 2.664 . S
Dy143 O157 2.326 . S
O144 Dy140 2.398 . S
O144 C142 1.185 . S
O145 Dy140 2.491 . S
O145 C142 1.355 . S
O146 Dy140 2.403 . S
O146 C148 1.254 . S
O147 Dy140 2.664 . S
O147 Dy143 2.310 . S
O147 C148 1.268 . S
C148 O146 1.254 . S
C148 O147 1.268 . S
C149 O154 1.254 . S
C149 O155 1.268 1_565 S
O150 Dy143 2.351 . S
O150 C158 1.249 . S
O151 Dy140 2.326 . S
O151 C158 1.267 . S
O152 C141 1.185 . S
O152 Dy143 2.398 . S
O153 C141 1.355 . S
O153 Dy143 2.491 . S
O154 Dy143 2.403 1_565 S
O154 C149 1.254 . S
O155 Dy140 2.310 . S
O155 Dy143 2.664 . S
O155 C149 1.268 1_545 S
O156 Dy140 2.351 . S
O156 C159 1.249 . S
O157 Dy143 2.326 . S
O157 C159 1.267 . S
C158 O150 1.249 . S
C158 O151 1.267 . S
C159 O156 1.249 . S
C159 O157 1.267 . S
Dy160 O164 2.398 . S
Dy160 O165 2.491 . S
Dy160 O166 2.403 . S
Dy160 O167 2.664 . S
Dy160 O171 2.328 . S
Dy160 O175 2.310 . S
Dy160 O176 2.351 . S
C161 O172 1.185 . S
C161 O173 1.355 . S
C162 O164 1.185 . S
C162 O165 1.355 . S
Dy163 O167 2.310 . S
Dy163 O170 2.351 1_545 S
Dy163 O172 2.398 . S
Dy163 O173 2.491 . S
Dy163 O174 2.403 1_655 S
Dy163 O175 2.664 . S
Dy163 O177 2.326 . S
O164 Dy160 2.398 . S
O164 C162 1.185 . S
O165 Dy160 2.491 . S
O165 C162 1.355 . S
O166 Dy160 2.403 . S
O166 C168 1.254 . S
O167 Dy160 2.664 . S
O167 Dy163 2.310 . S
O167 C168 1.268 . S
C168 O166 1.254 . S
C168 O167 1.268 . S
C169 O174 1.254 . S
C169 O175 1.268 1_455 S
O170 Dy163 2.351 1_565 S
O170 C178 1.249 . S
O171 Dy160 2.328 . S
O171 C178 1.266 1_545 S
O172 C161 1.185 . S
O172 Dy163 2.398 . S
O173 C161 1.355 . S
O173 Dy163 2.491 . S
O174 Dy163 2.403 1_455 S
O174 C169 1.254 . S
O175 Dy160 2.310 . S
O175 Dy163 2.664 . S
O175 C169 1.268 1_655 S
O176 Dy160 2.351 . S
O176 C179 1.249 . S
O177 Dy163 2.326 . S
O177 C179 1.267 . S
C178 O170 1.249 . S
C178 O171 1.266 1_565 S
C179 O176 1.249 . S
C179 O177 1.267 . S
Dy180 O184 2.398 . S
Dy180 O185 2.491 . S
Dy180 O186 2.403 . S
Dy180 O187 2.664 . S
Dy180 O191 2.326 . S
Dy180 O195 2.310 . S
Dy180 O196 2.351 . S
C181 O192 1.185 . S
C181 O193 1.355 . S
C182 O184 1.185 . S
C182 O185 1.355 . S
Dy183 O187 2.310 . S
Dy183 O190 2.351 1_565 S
Dy183 O192 2.398 . S
Dy183 O193 2.491 . S
Dy183 O194 2.403 . S
Dy183 O195 2.664 . S
Dy183 O197 2.326 . S
O184 Dy180 2.398 . S
O184 C182 1.185 . S
O185 Dy180 2.491 . S
O185 C182 1.355 . S
O186 Dy180 2.403 . S
O186 C188 1.254 . S
O187 Dy180 2.664 . S
O187 Dy183 2.310 . S
O187 C188 1.268 . S
C188 O186 1.254 . S
C188 O187 1.268 . S
C189 O194 1.254 . S
C189 O195 1.268 . S
O190 Dy183 2.351 1_545 S
O190 C198 1.249 . S
O191 Dy180 2.326 . S
O191 C198 1.267 1_565 S
O192 C181 1.185 . S
O192 Dy183 2.398 . S
O193 C181 1.355 . S
O193 Dy183 2.491 . S
O194 Dy183 2.403 . S
O194 C189 1.254 . S
O195 Dy180 2.310 . S
O195 Dy183 2.664 . S
O195 C189 1.268 . S
O196 Dy180 2.351 . S
O196 C199 1.249 . S
O197 Dy183 2.326 . S
O197 C199 1.267 . S
C198 O190 1.249 . S
C198 O191 1.267 1_545 S
C199 O196 1.249 . S
C199 O197 1.267 . S
Dy200 O204 2.398 . S
Dy200 O205 2.491 . S
Dy200 O206 2.403 . S
Dy200 O207 2.664 . S
Dy200 O211 2.340 . S
Dy200 O215 2.310 . S
Dy200 O216 2.351 . S
C201 O212 1.185 . S
C201 O213 1.355 . S
C202 O204 1.185 . S
C202 O205 1.355 . S
Dy203 O207 2.310 . S
Dy203 O210 2.351 1_455 S
Dy203 O212 2.398 . S
Dy203 O213 2.491 . S
Dy203 O214 2.403 1_565 S
Dy203 O215 2.664 . S
Dy203 O217 2.326 . S
O204 Dy200 2.398 . S
O204 C202 1.185 . S
O205 Dy200 2.491 . S
O205 C202 1.355 . S
O206 Dy200 2.403 . S
O206 C208 1.254 . S
O207 Dy200 2.664 . S
O207 Dy203 2.310 . S
O207 C208 1.268 . S
C208 O206 1.254 . S
C208 O207 1.268 . S
C209 O214 1.254 . S
C209 O215 1.268 1_545 S
O210 Dy203 2.351 1_655 S
O210 C218 1.249 . S
O211 Dy200 2.340 . S
O211 C218 1.258 1_455 S
O212 C201 1.185 . S
O212 Dy203 2.398 . S
O213 C201 1.355 . S
O213 Dy203 2.491 . S
O214 Dy203 2.403 1_545 S
O214 C209 1.254 . S
O215 Dy200 2.310 . S
O215 Dy203 2.664 . S
O215 C209 1.268 1_565 S
O216 Dy200 2.351 . S
O216 C219 1.249 . S
O217 Dy203 2.326 . S
O217 C219 1.267 . S
C218 O210 1.249 . S
C218 O211 1.258 1_655 S
C219 O216 1.249 . S
C219 O217 1.267 . S
Dy220 O224 2.398 . S
Dy220 O225 2.491 . S
Dy220 O226 2.403 . S
Dy220 O227 2.664 . S
Dy220 O231 2.326 . S
Dy220 O235 2.310 . S
Dy220 O236 2.351 . S
C221 O232 1.185 . S
C221 O233 1.355 . S
C222 O224 1.185 . S
C222 O225 1.355 . S
Dy223 O227 2.310 . S
Dy223 O230 2.351 . S
Dy223 O232 2.398 . S
Dy223 O233 2.491 . S
Dy223 O234 2.403 1_455 S
Dy223 O235 2.664 . S
Dy223 O237 2.326 . S
O224 Dy220 2.398 . S
O224 C222 1.185 . S
O225 Dy220 2.491 . S
O225 C222 1.355 . S
O226 Dy220 2.403 . S
O226 C228 1.254 . S
O227 Dy220 2.664 . S
O227 Dy223 2.310 . S
O227 C228 1.268 . S
C228 O226 1.254 . S
C228 O227 1.268 . S
C229 O234 1.254 . S
C229 O235 1.268 1_655 S
O230 Dy223 2.351 . S
O230 C238 1.249 . S
O231 Dy220 2.326 . S
O231 C238 1.267 . S
O232 C221 1.185 . S
O232 Dy223 2.398 . S
O233 C221 1.355 . S
O233 Dy223 2.491 . S
O234 Dy223 2.403 1_655 S
O234 C229 1.254 . S
O235 Dy220 2.310 . S
O235 Dy223 2.664 . S
O235 C229 1.268 1_455 S
O236 Dy220 2.351 . S
O236 C239 1.249 . S
O237 Dy223 2.326 . S
O237 C239 1.267 . S
C238 O230 1.249 . S
C238 O231 1.267 . S
C239 O236 1.249 . S
C239 O237 1.267 . S
Dy240 O244 2.398 . S
Dy240 O245 2.491 . S
Dy240 O246 2.403 . S
Dy240 O247 2.664 . S
Dy240 O251 2.326 . S
Dy240 O255 2.310 . S
Dy240 O256 2.351 . S
C241 O252 1.185 . S
C241 O253 1.355 . S
C242 O244 1.185 . S
C242 O245 1.355 . S
Dy243 O247 2.310 . S
Dy243 O250 2.351 . S
Dy243 O252 2.398 . S
Dy243 O253 2.491 . S
Dy243 O254 2.403 . S
Dy243 O255 2.664 . S
Dy243 O257 2.326 . S
O244 Dy240 2.398 . S
O244 C242 1.185 . S
O245 Dy240 2.491 . S
O245 C242 1.355 . S
O246 Dy240 2.403 . S
O246 C248 1.254 . S
O247 Dy240 2.664 . S
O247 Dy243 2.310 . S
O247 C248 1.268 . S
C248 O246 1.254 . S
C248 O247 1.268 . S
C249 O254 1.254 . S
C249 O255 1.268 . S
O250 Dy243 2.351 . S
O250 C258 1.249 . S
O251 Dy240 2.326 . S
O251 C258 1.267 . S
O252 C241 1.185 . S
O252 Dy243 2.398 . S
O253 C241 1.355 . S
O253 Dy243 2.491 . S
O254 Dy243 2.403 . S
O254 C249 1.254 . S
O255 Dy240 2.310 . S
O255 Dy243 2.664 . S
O255 C249 1.268 . S
O256 Dy240 2.351 . S
O256 C259 1.249 . S
O257 Dy243 2.326 . S
O257 C259 1.267 . S
C258 O250 1.249 . S
C258 O251 1.267 . S
C259 O256 1.249 . S
C259 O257 1.267 . S
Dy260 O264 2.398 . S
Dy260 O265 2.491 . S
Dy260 O266 2.403 . S
Dy260 O267 2.664 . S
Dy260 O271 2.326 . S
Dy260 O275 2.310 . S
Dy260 O276 2.351 . S
C261 O272 1.185 . S
C261 O273 1.355 . S
C262 O264 1.185 . S
C262 O265 1.355 . S
Dy263 O267 2.310 . S
Dy263 O270 2.351 . S
Dy263 O272 2.398 . S
Dy263 O273 2.491 . S
Dy263 O274 2.403 . S
Dy263 O275 2.664 . S
Dy263 O277 2.326 . S
O264 Dy260 2.398 . S
O264 C262 1.185 . S
O265 Dy260 2.491 . S
O265 C262 1.355 . S
O266 Dy260 2.403 . S
O266 C268 1.254 . S
O267 Dy260 2.664 . S
O267 Dy263 2.310 . S
O267 C268 1.268 . S
C268 O266 1.254 . S
C268 O267 1.268 . S
C269 O274 1.254 . S
C269 O275 1.268 . S
O270 Dy263 2.351 . S
O270 C278 1.249 . S
O271 Dy260 2.326 . S
O271 C278 1.267 . S
O272 C261 1.185 . S
O272 Dy263 2.398 . S
O273 C261 1.355 . S
O273 Dy263 2.491 . S
O274 Dy263 2.403 . S
O274 C269 1.254 . S
O275 Dy260 2.310 . S
O275 Dy263 2.664 . S
O275 C269 1.268 . S
O276 Dy260 2.351 . S
O276 C279 1.249 . S
O277 Dy263 2.326 . S
O277 C279 1.267 . S
C278 O270 1.249 . S
C278 O271 1.267 . S
C279 O276 1.249 . S
C279 O277 1.267 . S
Dy280 O284 2.398 . S
Dy280 O285 2.491 . S
Dy280 O286 2.403 . S
Dy280 O287 2.664 . S
Dy280 O291 2.326 . S
Dy280 O295 2.310 . S
Dy280 O296 2.351 . S
C281 O292 1.185 . S
C281 O293 1.355 . S
C282 O284 1.185 . S
C282 O285 1.355 . S
Dy283 O287 2.310 . S
Dy283 O290 2.351 . S
Dy283 O292 2.398 . S
Dy283 O293 2.491 . S
Dy283 O294 2.403 . S
Dy283 O295 2.664 . S
Dy283 O297 2.326 . S
O284 Dy280 2.398 . S
O284 C282 1.185 . S
O285 Dy280 2.491 . S
O285 C282 1.355 . S
O286 Dy280 2.403 . S
O286 C288 1.254 . S
O287 Dy280 2.664 . S
O287 Dy283 2.310 . S
O287 C288 1.268 . S
C288 O286 1.254 . S
C288 O287 1.268 . S
C289 O294 1.254 . S
C289 O295 1.268 . S
O290 Dy283 2.351 . S
O290 C298 1.249 . S
O291 Dy280 2.326 . S
O291 C298 1.267 . S
O292 C281 1.185 . S
O292 Dy283 2.398 . S
O293 C281 1.355 . S
O293 Dy283 2.491 . S
O294 Dy283 2.403 . S
O294 C289 1.254 . S
O295 Dy280 2.310 . S
O295 Dy283 2.664 . S
O295 C289 1.268 . S
O296 Dy280 2.351 . S
O296 C299 1.249 . S
O297 Dy283 2.326 . S
O297 C299 1.267 . S
C298 O290 1.249 . S
C298 O291 1.267 . S
C299 O296 1.249 . S
C299 O297 1.267 . S
Dy300 O304 2.398 . S
Dy300 O305 2.491 1_655 S
Dy300 O306 2.403 . S
Dy300 O307 2.664 . S
Dy300 O311 2.326 . S
Dy300 O315 2.310 . S
Dy300 O316 2.351 . S
C301 O312 1.185 . S
C301 O313 1.355 . S
C302 O304 1.185 . S
C302 O305 1.355 1_655 S
Dy303 O307 2.310 . S
Dy303 O310 2.351 1_655 S
Dy303 O312 2.398 . S
Dy303 O313 2.491 . S
Dy303 O314 2.403 1_655 S
Dy303 O315 2.664 . S
Dy303 O317 2.326 . S
O304 Dy300 2.398 . S
O304 C302 1.185 . S
O305 Dy300 2.491 1_455 S
O305 C302 1.355 1_455 S
O306 Dy300 2.403 . S
O306 C308 1.254 . S
O307 Dy300 2.664 . S
O307 Dy303 2.310 . S
O307 C308 1.268 . S
C308 O306 1.254 . S
C308 O307 1.268 . S
C309 O314 1.254 . S
C309 O315 1.268 1_455 S
O310 Dy303 2.351 1_455 S
O310 C318 1.249 . S
O311 Dy300 2.326 . S
O311 C318 1.267 1_655 S
O312 C301 1.185 . S
O312 Dy303 2.398 . S
O313 C301 1.355 . S
O313 Dy303 2.491 . S
O314 Dy303 2.403 1_455 S
O314 C309 1.254 . S
O315 Dy300 2.310 . S
O315 Dy303 2.664 . S
O315 C309 1.268 1_655 S
O316 Dy300 2.351 . S
O316 C319 1.249 . S
O317 Dy303 2.326 . S
O317 C319 1.267 . S
C318 O310 1.249 . S
C318 O311 1.267 1_455 S
C319 O316 1.249 . S
C319 O317 1.267 . S
Dy320 O324 2.398 . S
Dy320 O325 2.491 . S
Dy320 O326 2.403 . S
Dy320 O327 2.664 . S
Dy320 O331 2.326 . S
Dy320 O335 2.310 . S
Dy320 O336 2.351 . S
C321 O332 1.185 . S
C321 O333 1.355 . S
C322 O324 1.185 . S
C322 O325 1.355 . S
Dy323 O327 2.310 . S
Dy323 O330 2.351 . S
Dy323 O332 2.398 . S
Dy323 O333 2.491 . S
Dy323 O334 2.403 . S
Dy323 O335 2.664 . S
Dy323 O337 2.326 . S
O324 Dy320 2.398 . S
O324 C322 1.185 . S
O325 Dy320 2.491 . S
O325 C322 1.355 . S
O326 Dy320 2.403 . S
O326 C328 1.254 . S
O327 Dy320 2.664 . S
O327 Dy323 2.310 . S
O327 C328 1.268 . S
C328 O326 1.254 . S
C328 O327 1.268 . S
C329 O334 1.254 . S
C329 O335 1.268 . S
O330 Dy323 2.351 . S
O330 C338 1.249 . S
O331 Dy320 2.326 . S
O331 C338 1.267 . S
O332 C321 1.185 . S
O332 Dy323 2.398 . S
O333 C321 1.355 . S
O333 Dy323 2.491 . S
O334 Dy323 2.403 . S
O334 C329 1.254 . S
O335 Dy320 2.310 . S
O335 Dy323 2.664 . S
O335 C329 1.268 . S
O336 Dy320 2.351 . S
O336 C339 1.249 . S
O337 Dy323 2.326 . S
O337 C339 1.267 . S
C338 O330 1.249 . S
C338 O331 1.267 . S
C339 O336 1.249 . S
C339 O337 1.267 . S
Dy340 O344 2.398 . S
Dy340 O345 2.491 1_545 S
Dy340 O346 2.403 . S
Dy340 O347 2.664 . S
Dy340 O351 2.326 . S
Dy340 O355 2.310 . S
Dy340 O356 2.351 . S
C341 O352 1.185 . S
C341 O353 1.355 . S
C342 O344 1.185 . S
C342 O345 1.355 1_545 S
Dy343 O347 2.310 . S
Dy343 O350 2.351 1_545 S
Dy343 O352 2.398 . S
Dy343 O353 2.491 . S
Dy343 O354 2.403 1_545 S
Dy343 O355 2.664 . S
Dy343 O357 2.326 . S
O344 Dy340 2.398 . S
O344 C342 1.185 . S
O345 Dy340 2.491 1_565 S
O345 C342 1.355 1_565 S
O346 Dy340 2.403 . S
O346 C348 1.254 . S
O347 Dy340 2.664 . S
O347 Dy343 2.310 . S
O347 C348 1.268 . S
C348 O346 1.254 . S
C348 O347 1.268 . S
C349 O354 1.254 . S
C349 O355 1.268 1_565 S
O350 Dy343 2.351 1_565 S
O350 C358 1.249 . S
O351 Dy340 2.326 . S
O351 C358 1.267 1_545 S
O352 C341 1.185 . S
O352 Dy343 2.398 . S
O353 C341 1.355 . S
O353 Dy343 2.491 . S
O354 Dy343 2.403 1_565 S
O354 C349 1.254 . S
O355 Dy340 2.310 . S
O355 Dy343 2.664 . S
O355 C349 1.268 1_545 S
O356 Dy340 2.351 . S
O356 C359 1.249 . S
O357 Dy343 2.326 . S
O357 C359 1.267 . S
C358 O350 1.249 . S
C358 O351 1.267 1_565 S
C359 O356 1.249 . S
C359 O357 1.267 . S
Dy360 O364 2.398 . S
Dy360 O365 2.491 . S
Dy360 O366 2.403 1_545 S
Dy360 O367 2.664 . S
Dy360 O371 2.326 . S
Dy360 O375 2.310 . S
Dy360 O376 2.351 1_545 S
C361 O372 1.185 . S
C361 O373 1.355 1_545 S
C362 O364 1.185 . S
C362 O365 1.355 . S
Dy363 O367 2.310 . S
Dy363 O370 2.351 . S
Dy363 O372 2.398 . S
Dy363 O373 2.491 1_545 S
Dy363 O374 2.403 . S
Dy363 O375 2.664 . S
Dy363 O377 2.326 . S
O364 Dy360 2.398 . S
O364 C362 1.185 . S
O365 Dy360 2.491 . S
O365 C362 1.355 . S
O366 Dy360 2.403 1_565 S
O366 C368 1.254 . S
O367 Dy360 2.664 . S
O367 Dy363 2.310 . S
O367 C368 1.268 1_545 S
C368 O366 1.254 . S
C368 O367 1.268 1_565 S
C369 O374 1.254 . S
C369 O375 1.268 . S
O370 Dy363 2.351 . S
O370 C378 1.249 . S
O371 Dy360 2.326 . S
O371 C378 1.267 . S
O372 C361 1.185 . S
O372 Dy363 2.398 . S
O373 C361 1.355 1_565 S
O373 Dy363 2.491 1_565 S
O374 Dy363 2.403 . S
O374 C369 1.254 . S
O375 Dy360 2.310 . S
O375 Dy363 2.664 . S
O375 C369 1.268 . S
O376 Dy360 2.351 1_565 S
O376 C379 1.249 . S
O377 Dy363 2.326 . S
O377 C379 1.267 1_545 S
C378 O370 1.249 . S
C378 O371 1.267 . S
C379 O376 1.249 . S
C379 O377 1.267 1_565 S
Dy380 O384 2.398 . S
Dy380 O385 2.491 . S
Dy380 O386 2.403 1_655 S
Dy380 O387 2.664 . S
Dy380 O391 2.326 . S
Dy380 O395 2.310 . S
Dy380 O396 2.351 1_655 S
C381 O392 1.185 . S
C381 O393 1.355 1_655 S
C382 O384 1.185 . S
C382 O385 1.355 . S
Dy383 O387 2.310 . S
Dy383 O390 2.351 . S
Dy383 O392 2.398 . S
Dy383 O393 2.491 1_655 S
Dy383 O394 2.403 . S
Dy383 O395 2.664 . S
Dy383 O397 2.326 . S
O384 Dy380 2.398 . S
O384 C382 1.185 . S
O385 Dy380 2.491 . S
O385 C382 1.355 . S
O386 Dy380 2.403 1_455 S
O386 C388 1.254 . S
O387 Dy380 2.664 . S
O387 Dy383 2.310 . S
O387 C388 1.268 1_655 S
C388 O386 1.254 . S
C388 O387 1.268 1_455 S
C389 O394 1.254 . S
C389 O395 1.268 . S
O390 Dy383 2.351 . S
O390 C398 1.249 . S
O391 Dy380 2.326 . S
O391 C398 1.267 . S
O392 C381 1.185 . S
O392 Dy383 2.398 . S
O393 C381 1.355 1_455 S
O393 Dy383 2.491 1_455 S
O394 Dy383 2.403 . S
O394 C389 1.254 . S
O395 Dy380 2.310 . S
O395 Dy383 2.664 . S
O395 C389 1.268 . S
O396 Dy380 2.351 1_455 S
O396 C399 1.249 . S
O397 Dy383 2.326 . S
O397 C399 1.267 1_655 S
C398 O390 1.249 . S
C398 O391 1.267 . S
C399 O396 1.249 . S
C399 O397 1.267 1_455 S
Dy400 O404 2.398 . S
Dy400 O405 2.491 . S
Dy400 O406 2.403 . S
Dy400 O407 2.664 . S
Dy400 O411 2.326 . S
Dy400 O415 2.310 . S
Dy400 O416 2.351 . S
C401 O412 1.185 . S
C401 O413 1.355 . S
C402 O404 1.185 . S
C402 O405 1.355 . S
Dy403 O407 2.310 . S
Dy403 O410 2.351 . S
Dy403 O412 2.398 . S
Dy403 O413 2.491 . S
Dy403 O414 2.403 . S
Dy403 O415 2.664 . S
Dy403 O417 2.326 . S
O404 Dy400 2.398 . S
O404 C402 1.185 . S
O405 Dy400 2.491 . S
O405 C402 1.355 . S
O406 Dy400 2.403 . S
O406 C408 1.254 . S
O407 Dy400 2.664 . S
O407 Dy403 2.310 . S
O407 C408 1.268 . S
C408 O406 1.254 . S
C408 O407 1.268 . S
C409 O414 1.254 . S
C409 O415 1.268 . S
O410 Dy403 2.351 . S
O410 C418 1.249 . S
O411 Dy400 2.326 . S
O411 C418 1.267 . S
O412 C401 1.185 . S
O412 Dy403 2.398 . S
O413 C401 1.355 . S
O413 Dy403 2.491 . S
O414 Dy403 2.403 . S
O414 C409 1.254 . S
O415 Dy400 2.310 . S
O415 Dy403 2.664 . S
O415 C409 1.268 . S
O416 Dy400 2.351 . S
O416 C419 1.249 . S
O417 Dy403 2.326 . S
O417 C419 1.267 . S
C418 O410 1.249 . S
C418 O411 1.267 . S
C419 O416 1.249 . S
C419 O417 1.267 . S
Dy420 O424 2.398 . S
Dy420 O425 2.491 . S
Dy420 O426 2.403 . S
Dy420 O427 2.664 1_554 S
Dy420 O431 2.326 . S
Dy420 O435 2.310 . S
Dy420 O436 2.351 . S
C421 O432 1.185 . S
C421 O433 1.355 . S
C422 O424 1.185 . S
C422 O425 1.355 . S
Dy423 O427 2.310 . S
Dy423 O430 2.351 . S
Dy423 O432 2.398 . S
Dy423 O433 2.491 . S
Dy423 O434 2.403 . S
Dy423 O435 2.664 1_556 S
Dy423 O437 2.326 . S
O424 Dy420 2.398 . S
O424 C422 1.185 . S
O425 Dy420 2.491 . S
O425 C422 1.355 . S
O426 Dy420 2.403 . S
O426 C428 1.254 . S
O427 Dy420 2.664 1_556 S
O427 Dy423 2.310 . S
O427 C428 1.268 1_556 S
C428 O426 1.254 . S
C428 O427 1.268 1_554 S
C429 O434 1.254 . S
C429 O435 1.268 1_556 S
O430 Dy423 2.351 . S
O430 C438 1.249 1_556 S
O431 Dy420 2.326 . S
O431 C438 1.267 . S
O432 C421 1.185 . S
O432 Dy423 2.398 . S
O433 C421 1.355 . S
O433 Dy423 2.491 . S
O434 Dy423 2.403 . S
O434 C429 1.254 . S
O435 Dy420 2.310 . S
O435 Dy423 2.664 1_554 S
O435 C429 1.268 1_554 S
O436 Dy420 2.351 . S
O436 C439 1.249 1_554 S
O437 Dy423 2.326 . S
O437 C439 1.267 . S
C438 O430 1.249 1_554 S
C438 O431 1.267 . S
C439 O436 1.249 1_556 S
C439 O437 1.267 . S
Dy440 O444 2.398 . S
Dy440 O445 2.491 . S
Dy440 O446 2.403 . S
Dy440 O447 2.664 1_554 S
Dy440 O451 2.326 . S
Dy440 O455 2.310 . S
Dy440 O456 2.351 . S
C441 O452 1.185 . S
C441 O453 1.355 . S
C442 O444 1.185 . S
C442 O445 1.355 . S
Dy443 O447 2.310 . S
Dy443 O450 2.351 . S
Dy443 O452 2.398 . S
Dy443 O453 2.491 . S
Dy443 O454 2.403 . S
Dy443 O455 2.664 1_556 S
Dy443 O457 2.326 . S
O444 Dy440 2.398 . S
O444 C442 1.185 . S
O445 Dy440 2.491 . S
O445 C442 1.355 . S
O446 Dy440 2.403 . S
O446 C448 1.254 . S
O447 Dy440 2.664 1_556 S
O447 Dy443 2.310 . S
O447 C448 1.268 1_556 S
C448 O446 1.254 . S
C448 O447 1.268 1_554 S
C449 O454 1.254 . S
C449 O455 1.268 1_556 S
O450 Dy443 2.351 . S
O450 C458 1.249 1_556 S
O451 Dy440 2.326 . S
O451 C458 1.267 . S
O452 C441 1.185 . S
O452 Dy443 2.398 . S
O453 C441 1.355 . S
O453 Dy443 2.491 . S
O454 Dy443 2.403 . S
O454 C449 1.254 . S
O455 Dy440 2.310 . S
O455 Dy443 2.664 1_554 S
O455 C449 1.268 1_554 S
O456 Dy440 2.351 . S
O456 C459 1.249 1_554 S
O457 Dy443 2.326 . S
O457 C459 1.267 . S
C458 O450 1.249 1_554 S
C458 O451 1.267 . S
C459 O456 1.249 1_556 S
C459 O457 1.267 . S
Dy460 O464 2.398 . S
Dy460 O465 2.491 . S
Dy460 O466 2.403 . S
Dy460 O467 2.664 1_554 S
Dy460 O471 2.326 . S
Dy460 O475 2.310 . S
Dy460 O476 2.351 . S
C461 O472 1.185 . S
C461 O473 1.355 . S
C462 O464 1.185 . S
C462 O465 1.355 . S
Dy463 O467 2.310 . S
Dy463 O470 2.351 . S
Dy463 O472 2.398 . S
Dy463 O473 2.491 . S
Dy463 O474 2.403 . S
Dy463 O475 2.664 1_556 S
Dy463 O477 2.326 . S
O464 Dy460 2.398 . S
O464 C462 1.185 . S
O465 Dy460 2.491 . S
O465 C462 1.355 . S
O466 Dy460 2.403 . S
O466 C468 1.254 . S
O467 Dy460 2.664 1_556 S
O467 Dy463 2.310 . S
O467 C468 1.268 1_556 S
C468 O466 1.254 . S
C468 O467 1.268 1_554 S
C469 O474 1.254 . S
C469 O475 1.268 1_556 S
O470 Dy463 2.351 . S
O470 C478 1.249 1_556 S
O471 Dy460 2.326 . S
O471 C478 1.267 . S
O472 C461 1.185 . S
O472 Dy463 2.398 . S
O473 C461 1.355 . S
O473 Dy463 2.491 . S
O474 Dy463 2.403 . S
O474 C469 1.254 . S
O475 Dy460 2.310 . S
O475 Dy463 2.664 1_554 S
O475 C469 1.268 1_554 S
O476 Dy460 2.351 . S
O476 C479 1.249 1_554 S
O477 Dy463 2.326 . S
O477 C479 1.267 . S
C478 O470 1.249 1_554 S
C478 O471 1.267 . S
C479 O476 1.249 1_556 S
C479 O477 1.267 . S
Dy480 O484 2.398 . S
Dy480 O485 2.491 1_565 S
Dy480 O486 2.403 . S
Dy480 O487 2.664 . S
Dy480 O491 2.326 . S
Dy480 O495 2.310 . S
Dy480 O496 2.351 . S
C481 O492 1.185 . S
C481 O493 1.355 . S
C482 O484 1.185 . S
C482 O485 1.355 1_565 S
Dy483 O487 2.310 . S
Dy483 O490 2.351 1_565 S
Dy483 O492 2.398 . S
Dy483 O493 2.491 . S
Dy483 O494 2.403 1_565 S
Dy483 O495 2.664 . S
Dy483 O497 2.326 . S
O484 Dy480 2.398 . S
O484 C482 1.185 . S
O485 Dy480 2.491 1_545 S
O485 C482 1.355 1_545 S
O486 Dy480 2.403 . S
O486 C488 1.254 . S
O487 Dy480 2.664 . S
O487 Dy483 2.310 . S
O487 C488 1.268 . S
C488 O486 1.254 . S
C488 O487 1.268 . S
C489 O494 1.254 . S
C489 O495 1.268 1_545 S
O490 Dy483 2.351 1_545 S
O490 C498 1.249 . S
O491 Dy480 2.326 . S
O491 C498 1.267 1_565 S
O492 C481 1.185 . S
O492 Dy483 2.398 . S
O493 C481 1.355 . S
O493 Dy483 2.491 . S
O494 Dy483 2.403 1_545 S
O494 C489 1.254 . S
O495 Dy480 2.310 . S
O495 Dy483 2.664 . S
O495 C489 1.268 1_565 S
O496 Dy480 2.351 . S
O496 C499 1.249 . S
O497 Dy483 2.326 . S
O497 C499 1.267 . S
C498 O490 1.249 . S
C498 O491 1.267 1_545 S
C499 O496 1.249 . S
C499 O497 1.267 . S
Dy500 O504 2.398 . S
Dy500 O505 2.491 1_455 S
Dy500 O506 2.403 . S
Dy500 O507 2.664 . S
Dy500 O511 2.326 . S
Dy500 O515 2.310 . S
Dy500 O516 2.351 . S
C501 O512 1.185 . S
C501 O513 1.355 . S
C502 O504 1.185 . S
C502 O505 1.355 1_455 S
Dy503 O507 2.310 . S
Dy503 O510 2.351 1_455 S
Dy503 O512 2.398 . S
Dy503 O513 2.491 . S
Dy503 O514 2.403 1_455 S
Dy503 O515 2.664 . S
Dy503 O517 2.326 . S
O504 Dy500 2.398 . S
O504 C502 1.185 . S
O505 Dy500 2.491 1_655 S
O505 C502 1.355 1_655 S
O506 Dy500 2.403 . S
O506 C508 1.254 . S
O507 Dy500 2.664 . S
O507 Dy503 2.310 . S
O507 C508 1.268 . S
C508 O506 1.254 . S
C508 O507 1.268 . S
C509 O514 1.254 . S
C509 O515 1.268 1_655 S
O510 Dy503 2.351 1_655 S
O510 C518 1.249 . S
O511 Dy500 2.326 . S
O511 C518 1.267 1_455 S
O512 C501 1.185 . S
O512 Dy503 2.398 . S
O513 C501 1.355 . S
O513 Dy503 2.491 . S
O514 Dy503 2.403 1_655 S
O514 C509 1.254 . S
O515 Dy500 2.310 . S
O515 Dy503 2.664 . S
O515 C509 1.268 1_455 S
O516 Dy500 2.351 . S
O516 C519 1.249 . S
O517 Dy503 2.326 . S
O517 C519 1.267 . S
C518 O510 1.249 . S
C518 O511 1.267 1_655 S
C519 O516 1.249 . S
C519 O517 1.267 . S
Dy520 O524 2.398 . S
Dy520 O525 2.491 . S
Dy520 O526 2.403 . S
Dy520 O527 2.664 . S
Dy520 O531 2.326 . S
Dy520 O535 2.310 . S
Dy520 O536 2.351 . S
C521 O532 1.185 . S
C521 O533 1.355 . S
C522 O524 1.185 . S
C522 O525 1.355 . S
Dy523 O527 2.310 . S
Dy523 O530 2.351 . S
Dy523 O532 2.398 . S
Dy523 O533 2.491 . S
Dy523 O534 2.403 . S
Dy523 O535 2.664 . S
Dy523 O537 2.326 . S
O524 Dy520 2.398 . S
O524 C522 1.185 . S
O525 Dy520 2.491 . S
O525 C522 1.355 . S
O526 Dy520 2.403 . S
O526 C528 1.254 . S
O527 Dy520 2.664 . S
O527 Dy523 2.310 . S
O527 C528 1.268 . S
C528 O526 1.254 . S
C528 O527 1.268 . S
C529 O534 1.254 . S
C529 O535 1.268 . S
O530 Dy523 2.351 . S
O530 C538 1.249 . S
O531 Dy520 2.326 . S
O531 C538 1.267 . S
O532 C521 1.185 . S
O532 Dy523 2.398 . S
O533 C521 1.355 . S
O533 Dy523 2.491 . S
O534 Dy523 2.403 . S
O534 C529 1.254 . S
O535 Dy520 2.310 . S
O535 Dy523 2.664 . S
O535 C529 1.268 . S
O536 Dy520 2.351 . S
O536 C539 1.249 . S
O537 Dy523 2.326 . S
O537 C539 1.267 . S
C538 O530 1.249 . S
C538 O531 1.267 . S
C539 O536 1.249 . S
C539 O537 1.267 . S
Dy540 O544 2.398 . S
Dy540 O545 2.491 . S
Dy540 O546 2.403 . S
Dy540 O547 2.664 1_554 S
Dy540 O551 2.326 . S
Dy540 O555 2.310 . S
Dy540 O556 2.351 . S
C541 O552 1.185 . S
C541 O553 1.355 . S
C542 O544 1.185 . S
C542 O545 1.355 . S
Dy543 O547 2.310 . S
Dy543 O550 2.351 . S
Dy543 O552 2.398 . S
Dy543 O553 2.491 . S
Dy543 O554 2.403 . S
Dy543 O555 2.664 1_556 S
Dy543 O557 2.326 . S
O544 Dy540 2.398 . S
O544 C542 1.185 . S
O545 Dy540 2.491 . S
O545 C542 1.355 . S
O546 Dy540 2.403 . S
O546 C548 1.254 . S
O547 Dy540 2.664 1_556 S
O547 Dy543 2.310 . S
O547 C548 1.268 1_556 S
C548 O546 1.254 . S
C548 O547 1.268 1_554 S
C549 O554 1.254 . S
C549 O555 1.268 1_556 S
O550 Dy543 2.351 . S
O550 C558 1.249 1_556 S
O551 Dy540 2.326 . S
O551 C558 1.267 . S
O552 C541 1.185 . S
O552 Dy543 2.398 . S
O553 C541 1.355 . S
O553 Dy543 2.491 . S
O554 Dy543 2.403 . S
O554 C549 1.254 . S
O555 Dy540 2.310 . S
O555 Dy543 2.664 1_554 S
O555 C549 1.268 1_554 S
O556 Dy540 2.351 . S
O556 C559 1.249 1_554 S
O557 Dy543 2.326 . S
O557 C559 1.267 . S
C558 O550 1.249 1_554 S
C558 O551 1.267 . S
C559 O556 1.249 1_556 S
C559 O557 1.267 . S
Dy560 O564 2.398 . S
Dy560 O565 2.491 . S
Dy560 O566 2.403 . S
Dy560 O567 2.664 1_554 S
Dy560 O571 2.326 . S
Dy560 O575 2.310 . S
Dy560 O576 2.351 . S
C561 O572 1.185 . S
C561 O573 1.355 . S
C562 O564 1.185 . S
C562 O565 1.355 . S
Dy563 O567 2.310 . S
Dy563 O570 2.351 . S
Dy563 O572 2.398 . S
Dy563 O573 2.491 . S
Dy563 O574 2.403 . S
Dy563 O575 2.664 1_556 S
Dy563 O577 2.326 . S
O564 Dy560 2.398 . S
O564 C562 1.185 . S
O565 Dy560 2.491 . S
O565 C562 1.355 . S
O566 Dy560 2.403 . S
O566 C568 1.254 . S
O567 Dy560 2.664 1_556 S
O567 Dy563 2.310 . S
O567 C568 1.268 1_556 S
C568 O566 1.254 . S
C568 O567 1.268 1_554 S
C569 O574 1.254 . S
C569 O575 1.268 1_556 S
O570 Dy563 2.351 . S
O570 C578 1.249 1_556 S
O571 Dy560 2.326 . S
O571 C578 1.267 . S
O572 C561 1.185 . S
O572 Dy563 2.398 . S
O573 C561 1.355 . S
O573 Dy563 2.491 . S
O574 Dy563 2.403 . S
O574 C569 1.254 . S
O575 Dy560 2.310 . S
O575 Dy563 2.664 1_554 S
O575 C569 1.268 1_554 S
O576 Dy560 2.351 . S
O576 C579 1.249 1_554 S
O577 Dy563 2.326 . S
O577 C579 1.267 . S
C578 O570 1.249 1_554 S
C578 O571 1.267 . S
C579 O576 1.249 1_556 S
C579 O577 1.267 . S
Dy580 O584 2.398 . S
Dy580 O585 2.491 . S
Dy580 O586 2.403 . S
Dy580 O587 2.664 1_554 S
Dy580 O591 2.326 . S
Dy580 O595 2.310 . S
Dy580 O596 2.351 . S
C581 O592 1.185 . S
C581 O593 1.355 . S
C582 O584 1.185 . S
C582 O585 1.355 . S
Dy583 O587 2.310 . S
Dy583 O590 2.351 . S
Dy583 O592 2.398 . S
Dy583 O593 2.491 . S
Dy583 O594 2.403 . S
Dy583 O595 2.664 1_556 S
Dy583 O597 2.326 . S
O584 Dy580 2.398 . S
O584 C582 1.185 . S
O585 Dy580 2.491 . S
O585 C582 1.355 . S
O586 Dy580 2.403 . S
O586 C588 1.254 . S
O587 Dy580 2.664 1_556 S
O587 Dy583 2.310 . S
O587 C588 1.268 1_556 S
C588 O586 1.254 . S
C588 O587 1.268 1_554 S
C589 O594 1.254 . S
C589 O595 1.268 1_556 S
O590 Dy583 2.351 . S
O590 C598 1.249 1_556 S
O591 Dy580 2.326 . S
O591 C598 1.267 . S
O592 C581 1.185 . S
O592 Dy583 2.398 . S
O593 C581 1.355 . S
O593 Dy583 2.491 . S
O594 Dy583 2.403 . S
O594 C589 1.254 . S
O595 Dy580 2.310 . S
O595 Dy583 2.664 1_554 S
O595 C589 1.268 1_554 S
O596 Dy580 2.351 . S
O596 C599 1.249 1_554 S
O597 Dy583 2.326 . S
O597 C599 1.267 . S
C598 O590 1.249 1_554 S
C598 O591 1.267 . S
C599 O596 1.249 1_556 S
C599 O597 1.267 . S
Dy600 O604 2.398 . S
Dy600 O605 2.491 . S
Dy600 O606 2.403 . S
Dy600 O607 2.664 . S
Dy600 O611 2.326 . S
Dy600 O615 2.310 . S
Dy600 O616 2.351 . S
C601 O612 1.185 . S
C601 O613 1.355 . S
C602 O604 1.185 . S
C602 O605 1.355 . S
Dy603 O607 2.310 . S
Dy603 O610 2.351 . S
Dy603 O612 2.398 . S
Dy603 O613 2.491 . S
Dy603 O614 2.403 . S
Dy603 O615 2.664 . S
Dy603 O617 2.326 . S
O604 Dy600 2.398 . S
O604 C602 1.185 . S
O605 Dy600 2.491 . S
O605 C602 1.355 . S
O606 Dy600 2.403 . S
O606 C608 1.254 . S
O607 Dy600 2.664 . S
O607 Dy603 2.310 . S
O607 C608 1.268 . S
C608 O606 1.254 . S
C608 O607 1.268 . S
C609 O614 1.254 . S
C609 O615 1.268 . S
O610 Dy603 2.351 . S
O610 C618 1.249 . S
O611 Dy600 2.326 . S
O611 C618 1.267 . S
O612 C601 1.185 . S
O612 Dy603 2.398 . S
O613 C601 1.355 . S
O613 Dy603 2.491 . S
O614 Dy603 2.403 . S
O614 C609 1.254 . S
O615 Dy600 2.310 . S
O615 Dy603 2.664 . S
O615 C609 1.268 . S
O616 Dy600 2.351 . S
O616 C619 1.249 . S
O617 Dy603 2.326 . S
O617 C619 1.267 . S
C618 O610 1.249 . S
C618 O611 1.267 . S
C619 O616 1.249 . S
C619 O617 1.267 . S
Dy620 O624 2.398 . S
Dy620 O625 2.491 . S
Dy620 O626 2.403 . S
Dy620 O627 2.664 . S
Dy620 O631 2.326 . S
Dy620 O635 2.310 . S
Dy620 O636 2.351 . S
C621 O632 1.185 . S
C621 O633 1.355 . S
C622 O624 1.185 . S
C622 O625 1.355 . S
Dy623 O627 2.310 . S
Dy623 O630 2.351 . S
Dy623 O632 2.398 . S
Dy623 O633 2.491 . S
Dy623 O634 2.403 . S
Dy623 O635 2.664 . S
Dy623 O637 2.326 . S
O624 Dy620 2.398 . S
O624 C622 1.185 . S
O625 Dy620 2.491 . S
O625 C622 1.355 . S
O626 Dy620 2.403 . S
O626 C628 1.254 . S
O627 Dy620 2.664 . S
O627 Dy623 2.310 . S
O627 C628 1.268 . S
C628 O626 1.254 . S
C628 O627 1.268 . S
C629 O634 1.254 . S
C629 O635 1.268 . S
O630 Dy623 2.351 . S
O630 C638 1.249 . S
O631 Dy620 2.326 . S
O631 C638 1.267 . S
O632 C621 1.185 . S
O632 Dy623 2.398 . S
O633 C621 1.355 . S
O633 Dy623 2.491 . S
O634 Dy623 2.403 . S
O634 C629 1.254 . S
O635 Dy620 2.310 . S
O635 Dy623 2.664 . S
O635 C629 1.268 . S
O636 Dy620 2.351 . S
O636 C639 1.249 . S
O637 Dy623 2.326 . S
O637 C639 1.267 . S
C638 O630 1.249 . S
C638 O631 1.267 . S
C639 O636 1.249 . S
C639 O637 1.267 . S
Dy640 O644 2.398 . S
Dy640 O645 2.491 . S
Dy640 O646 2.403 . S
Dy640 O647 2.664 . S
Dy640 O651 2.326 . S
Dy640 O655 2.310 . S
Dy640 O656 2.351 . S
C641 O652 1.185 . S
C641 O653 1.355 . S
C642 O644 1.185 . S
C642 O645 1.355 . S
Dy643 O647 2.310 . S
Dy643 O650 2.351 . S
Dy643 O652 2.398 . S
Dy643 O653 2.491 . S
Dy643 O654 2.403 . S
Dy643 O655 2.664 . S
Dy643 O657 2.326 . S
O644 Dy640 2.398 . S
O644 C642 1.185 . S
O645 Dy640 2.491 . S
O645 C642 1.355 . S
O646 Dy640 2.403 . S
O646 C648 1.254 . S
O647 Dy640 2.664 . S
O647 Dy643 2.310 . S
O647 C648 1.268 . S
C648 O646 1.254 . S
C648 O647 1.268 . S
C649 O654 1.254 . S
C649 O655 1.268 . S
O650 Dy643 2.351 . S
O650 C658 1.249 . S
O651 Dy640 2.326 . S
O651 C658 1.267 . S
O652 C641 1.185 . S
O652 Dy643 2.398 . S
O653 C641 1.355 . S
O653 Dy643 2.491 . S
O654 Dy643 2.403 . S
O654 C649 1.254 . S
O655 Dy640 2.310 . S
O655 Dy643 2.664 . S
O655 C649 1.268 . S
O656 Dy640 2.351 . S
O656 C659 1.249 . S
O657 Dy643 2.326 . S
O657 C659 1.267 . S
C658 O650 1.249 . S
C658 O651 1.267 . S
C659 O656 1.249 . S
C659 O657 1.267 . S
Dy660 O664 2.398 . S
Dy660 O665 2.491 . S
Dy660 O666 2.403 1_455 S
Dy660 O667 2.664 . S
Dy660 O671 2.326 . S
Dy660 O675 2.310 . S
Dy660 O676 2.351 1_455 S
C661 O672 1.185 . S
C661 O673 1.355 1_455 S
C662 O664 1.185 . S
C662 O665 1.355 . S
Dy663 O667 2.310 . S
Dy663 O670 2.351 . S
Dy663 O672 2.398 . S
Dy663 O673 2.491 1_455 S
Dy663 O674 2.403 . S
Dy663 O675 2.664 . S
Dy663 O677 2.326 . S
O664 Dy660 2.398 . S
O664 C662 1.185 . S
O665 Dy660 2.491 . S
O665 C662 1.355 . S
O666 Dy660 2.403 1_655 S
O666 C668 1.254 . S
O667 Dy660 2.664 . S
O667 Dy663 2.310 . S
O667 C668 1.268 1_455 S
C668 O666 1.254 . S
C668 O667 1.268 1_655 S
C669 O674 1.254 . S
C669 O675 1.268 . S
O670 Dy663 2.351 . S
O670 C678 1.249 . S
O671 Dy660 2.326 . S
O671 C678 1.267 . S
O672 C661 1.185 . S
O672 Dy663 2.398 . S
O673 C661 1.355 1_655 S
O673 Dy663 2.491 1_655 S
O674 Dy663 2.403 . S
O674 C669 1.254 . S
O675 Dy660 2.310 . S
O675 Dy663 2.664 . S
O675 C669 1.268 . S
O676 Dy660 2.351 1_655 S
O676 C679 1.249 . S
O677 Dy663 2.326 . S
O677 C679 1.267 1_455 S
C678 O670 1.249 . S
C678 O671 1.267 . S
C679 O676 1.249 . S
C679 O677 1.267 1_655 S
Dy680 O684 2.398 . S
Dy680 O685 2.491 . S
Dy680 O686 2.403 . S
Dy680 O687 2.664 . S
Dy680 O691 2.326 . S
Dy680 O695 2.310 . S
Dy680 O696 2.351 . S
C681 O692 1.185 . S
C681 O693 1.355 . S
C682 O684 1.185 . S
C682 O685 1.355 . S
Dy683 O687 2.310 . S
Dy683 O690 2.351 . S
Dy683 O692 2.398 . S
Dy683 O693 2.491 . S
Dy683 O694 2.403 . S
Dy683 O695 2.664 . S
Dy683 O697 2.326 . S
O684 Dy680 2.398 . S
O684 C682 1.185 . S
O685 Dy680 2.491 . S
O685 C682 1.355 . S
O686 Dy680 2.403 . S
O686 C688 1.254 . S
O687 Dy680 2.664 . S
O687 Dy683 2.310 . S
O687 C688 1.268 . S
C688 O686 1.254 . S
C688 O687 1.268 . S
C689 O694 1.254 . S
C689 O695 1.268 . S
O690 Dy683 2.351 . S
O690 C698 1.249 . S
O691 Dy680 2.326 . S
O691 C698 1.267 . S
O692 C681 1.185 . S
O692 Dy683 2.398 . S
O693 C681 1.355 . S
O693 Dy683 2.491 . S
O694 Dy683 2.403 . S
O694 C689 1.254 . S
O695 Dy680 2.310 . S
O695 Dy683 2.664 . S
O695 C689 1.268 . S
O696 Dy680 2.351 . S
O696 C699 1.249 . S
O697 Dy683 2.326 . S
O697 C699 1.267 . S
C698 O690 1.249 . S
C698 O691 1.267 . S
C699 O696 1.249 . S
C699 O697 1.267 . S
Dy700 O704 2.398 . S
Dy700 O705 2.491 . S
Dy700 O706 2.403 1_565 S
Dy700 O707 2.664 . S
Dy700 O711 2.326 . S
Dy700 O715 2.310 . S
Dy700 O716 2.351 1_565 S
C701 O712 1.185 . S
C701 O713 1.355 1_565 S
C702 O704 1.185 . S
C702 O705 1.355 . S
Dy703 O707 2.310 . S
Dy703 O710 2.351 . S
Dy703 O712 2.398 . S
Dy703 O713 2.491 1_565 S
Dy703 O714 2.403 . S
Dy703 O715 2.664 . S
Dy703 O717 2.326 . S
O704 Dy700 2.398 . S
O704 C702 1.185 . S
O705 Dy700 2.491 . S
O705 C702 1.355 . S
O706 Dy700 2.403 1_545 S
O706 C708 1.254 . S
O707 Dy700 2.664 . S
O707 Dy703 2.310 . S
O707 C708 1.268 1_565 S
C708 O706 1.254 . S
C708 O707 1.268 1_545 S
C709 O714 1.254 . S
C709 O715 1.268 . S
O710 Dy703 2.351 . S
O710 C718 1.249 . S
O711 Dy700 2.326 . S
O711 C718 1.267 . S
O712 C701 1.185 . S
O712 Dy703 2.398 . S
O713 C701 1.355 1_545 S
O713 Dy703 2.491 1_545 S
O714 Dy703 2.403 . S
O714 C709 1.254 . S
O715 Dy700 2.310 . S
O715 Dy703 2.664 . S
O715 C709 1.268 . S
O716 Dy700 2.351 1_545 S
O716 C719 1.249 . S
O717 Dy703 2.326 . S
O717 C719 1.267 1_565 S
C718 O710 1.249 . S
C718 O711 1.267 . S
C719 O716 1.249 . S
C719 O717 1.267 1_545 S
C8 C59 1.656 . S
C19 C28 1.657 . S
C48 C39 1.656 . S
C68 C99 1.704 . S
C119 C88 1.704 . S
C108 C79 1.705 . S
C129 C178 1.656 . S
C149 C138 1.657 . S
C169 C158 1.656 . S
C189 C218 1.704 . S
C238 C209 1.704 . S
C198 C229 1.705 . S
C299 C248 1.696 . S
C268 C259 1.697 . S
C279 C288 1.696 . S
C308 C339 1.716 . S
C359 C328 1.716 . S
C319 C348 1.717 . S
C369 C418 1.683 . S
C389 C378 1.683 . S
C398 C409 1.682 . S
C458 C429 1.634 1_554 S
C449 C478 1.634 1_556 S
C438 C469 1.634 1_554 S
C488 C539 1.683 . S
C508 C499 1.684 . S
C528 C519 1.682 . S
C548 C579 1.634 1_554 S
C568 C599 1.634 1_554 S
C588 C559 1.634 1_554 S
C609 C658 1.696 . S
C629 C618 1.697 . S
C638 C649 1.696 . S
C669 C698 1.716 . S
C689 C718 1.716 . S
C678 C709 1.717 . S
C18 C408 1.647 . S
C368 C38 1.647 . S
C58 C388 1.648 . S
C78 C688 1.545 . S
C708 C98 1.546 . S
C118 C668 1.545 . S
C529 C139 1.647 . S
C159 C489 1.647 . S
C179 C509 1.648 . S
C329 C199 1.545 . S
C349 C219 1.546 . S
C309 C239 1.545 . S
C258 C648 1.594 1_655 S
C278 C608 1.594 . S
C628 C298 1.595 1_565 S
C208 C318 1.567 . S
C228 C338 1.568 . S
C188 C358 1.568 . S
C49 C379 1.637 . S
C399 C9 1.637 . S
C419 C29 1.638 . S
C569 C439 1.531 1_565 S
C589 C459 1.532 1_455 S
C479 C549 1.531 . S
C168 C498 1.637 . S
C128 C518 1.637 . S
C148 C538 1.638 . S
C558 C448 1.531 1_565 S
C468 C578 1.532 1_655 S
C598 C428 1.531 . S
C619 C289 1.594 1_455 S
C639 C249 1.594 . S
C659 C269 1.595 1_565 S
C679 C89 1.567 . S
C109 C699 1.568 . S
C69 C719 1.568 . S
C582 C2 1.877 . S
C542 C22 1.877 . S
C42 C562 1.877 . S
C262 C62 2.050 . S
C82 C282 2.050 . S
C102 C242 2.050 . S
C121 C461 1.877 . S
C141 C421 1.877 . S
C161 C441 1.877 . S
C621 C181 2.051 . S
C641 C201 2.050 . S
C601 C221 2.050 . S
C302 C502 2.095 1_655 S
C322 C522 2.096 . S
C342 C482 2.096 1_545 S
C361 C701 2.096 1_545 S
C661 C381 2.095 1_455 S
C401 C681 2.096 . S
C81 C1 1.535 1_655 S
C101 C21 1.534 . S
C61 C41 1.535 1_545 S
C122 C202 1.535 1_655 S
C222 C142 1.534 . S
C162 C182 1.535 1_545 S
C321 C241 1.568 . S
C341 C261 1.568 . S
C301 C281 1.569 . S
C442 C362 1.640 . S
C382 C462 1.641 . S
C402 C422 1.641 . S
C481 C561 1.640 . S
C581 C501 1.641 . S
C521 C541 1.640 . S
C602 C682 1.568 . S
C702 C622 1.568 . S
C642 C662 1.568 . S
