# Generated by pormake.
# Topology lcy-e, (6)-cn, num edge types: 1
# Building blocks:
#     Node 0, Type 0, BuildingBlock: PAMTUU_clean_sbu_0, # of connection points: 6
#     Node 1, Type 0, BuildingBlock: PAMTUU_clean_sbu_0, # of connection points: 6
#     Node 2, Type 0, BuildingBlock: PAMTUU_clean_sbu_0, # of connection points: 6
#     Node 3, Type 0, BuildingBlock: PAMTUU_clean_sbu_0, # of connection points: 6
#     Node 4, Type 0, BuildingBlock: PAMTUU_clean_sbu_0, # of connection points: 6
#     Node 5, Type 0, BuildingBlock: PAMTUU_clean_sbu_0, # of connection points: 6
#     Node 6, Type 0, BuildingBlock: PAMTUU_clean_sbu_0, # of connection points: 6
#     Node 7, Type 0, BuildingBlock: PAMTUU_clean_sbu_0, # of connection points: 6
#     Node 8, Type 0, BuildingBlock: PAMTUU_clean_sbu_0, # of connection points: 6
#     Node 9, Type 0, BuildingBlock: PAMTUU_clean_sbu_0, # of connection points: 6
#     Node 10, Type 0, BuildingBlock: PAMTUU_clean_sbu_0, # of connection points: 6
#     Node 11, Type 0, BuildingBlock: PAMTUU_clean_sbu_0, # of connection points: 6
#     Edge 12, Type (0, 0), None
#     Edge 13, Type (0, 0), None
#     Edge 14, Type (0, 0), None
#     Edge 15, Type (0, 0), None
#     Edge 16, Type (0, 0), None
#     Edge 17, Type (0, 0), None
#     Edge 18, Type (0, 0), None
#     Edge 19, Type (0, 0), None
#     Edge 20, Type (0, 0), None
#     Edge 21, Type (0, 0), None
#     Edge 22, Type (0, 0), None
#     Edge 23, Type (0, 0), None
#     Edge 24, Type (0, 0), None
#     Edge 25, Type (0, 0), None
#     Edge 26, Type (0, 0), None
#     Edge 27, Type (0, 0), None
#     Edge 28, Type (0, 0), None
#     Edge 29, Type (0, 0), None
#     Edge 30, Type (0, 0), None
#     Edge 31, Type (0, 0), None
#     Edge 32, Type (0, 0), None
#     Edge 33, Type (0, 0), None
#     Edge 34, Type (0, 0), None
#     Edge 35, Type (0, 0), None
#     Edge 36, Type (0, 0), None
#     Edge 37, Type (0, 0), None
#     Edge 38, Type (0, 0), None
#     Edge 39, Type (0, 0), None
#     Edge 40, Type (0, 0), None
#     Edge 41, Type (0, 0), None
#     Edge 42, Type (0, 0), None
#     Edge 43, Type (0, 0), None
#     Edge 44, Type (0, 0), None
#     Edge 45, Type (0, 0), None
#     Edge 46, Type (0, 0), None
#     Edge 47, Type (0, 0), None
# Relax obj value: 0.144
# Max RMSD: 0.332
# Mean RMSD: 0.314
data_MOF--net-lcy-e--node1-PAMTUU_clean_sbu_0--edge1-none
_symmetry_space_group_name_H-M    P1
_symmetry_Int_Tables_number       1
_symmetry_cell_setting            triclinic
loop_
_symmetry_equiv_pos_as_xyz
'x, y, z'
_cell_length_a     23.53186
_cell_length_b     23.423735
_cell_length_c     23.533016
_cell_angle_alpha  89.988988
_cell_angle_beta   89.985237
_cell_angle_gamma 89.628363
loop_
_atom_site_label
_atom_site_type_symbol
_atom_site_fract_x
_atom_site_fract_y
_atom_site_fract_z
_atom_type_partial_charge
Tb0 Tb 0.13385 0.35768 0.51544 0.0
Tb1 Tb 0.18742 0.27122 0.60142 0.0
C2 C 0.09928 0.34976 0.65064 0.0
C3 C 0.14641 0.43542 0.38565 0.0
C4 C 0.22914 0.47177 0.30602 0.0
C5 C 0.23264 0.48786 0.36343 0.0
C6 C 0.19207 0.4699 0.40266 0.0
C7 C 0.14362 0.41781 0.3285 0.0
C8 C 0.18465 0.43583 0.28895 0.0
C9 C 0.10607 0.41291 0.42872 0.0
O10 O 0.20153 0.40977 0.54229 0.0
O11 O 0.22013 0.3587 0.62404 0.0
O12 O 0.25692 0.29552 0.54954 0.0
O13 O 0.19564 0.29582 0.47737 0.0
O14 O 0.21298 0.23519 0.6792 0.0
O15 O 0.21823 0.18658 0.60124 0.0
O16 O 0.12593 0.23307 0.54012 0.0
O17 O 0.06439 0.3058 0.53985 0.0
O18 O 0.10087 0.38062 0.60262 0.0
O19 O 0.11937 0.29834 0.6533 0.0
C20 C 0.22167 0.40697 0.59334 0.0
O21 O 0.10307 0.35733 0.4314 0.0
O22 O 0.1083 0.43584 0.47938 0.0
C23 C 0.24783 0.28759 0.49606 0.0
C24 C 0.17454 0.14143 0.6794 0.0
C25 C 0.09108 0.06267 0.71599 0.0
C26 C 0.08824 0.12032 0.73232 0.0
C27 C 0.12917 0.15911 0.71427 0.0
C28 C 0.17672 0.08403 0.66161 0.0
C29 C 0.13534 1.04492 0.67976 0.0
C30 C 0.2151 0.18417 0.6566 0.0
C31 C 0.0737 0.252 0.53205 0.0
H32 H 0.26619 0.51585 0.37784 0.0
H33 H 0.19667 0.48334 0.44643 0.0
H34 H 0.1096 0.39027 0.31443 0.0
H35 H 0.18022 0.42362 0.24479 0.0
H36 H 0.05488 0.13526 0.76052 0.0
H37 H 0.12504 0.2031 0.72789 0.0
H38 H 0.2105 0.06946 0.63379 0.0
H39 H 0.13927 1.00055 0.66733 0.0
Tb40 Tb 0.07092 0.96199 0.85184 0.0
Tb41 Tb 0.98623 0.90658 0.76641 0.0
C42 C 0.93536 0.99552 0.84345 0.0
C43 C 0.20031 0.95119 0.92966 0.0
C44 C 0.28016 0.86792 0.96643 0.0
C45 C 0.22299 0.8652 0.98339 0.0
C46 C 0.18366 0.90605 0.96526 0.0
C47 C 0.25724 0.95325 0.91129 0.0
C48 C 0.29691 0.91194 0.92953 0.0
C49 C 0.15695 0.99132 0.90654 0.0
O50 O 1.04474 0.89426 0.90481 0.0
O51 O 0.96391 0.87361 0.85355 0.0
O52 O 1.03932 0.83768 0.79197 0.0
O53 O 0.11027 0.90007 0.79104 0.0
O54 O 0.9092 0.87952 0.7305 0.0
O55 O 0.98761 0.87466 0.68275 0.0
O56 O 1.04675 0.96854 0.72761 0.0
O57 O 1.0455 1.03099 0.79898 0.0
O58 O 0.98347 0.99483 0.87399 0.0
O59 O 0.93269 0.97424 0.79281 0.0
C60 C 0.99428 0.87286 0.90178 0.0
O61 O 0.15444 0.99377 0.85116 0.0
O62 O 0.10625 0.98901 0.92924 0.0
C63 C 0.09255 0.84739 0.78344 0.0
C64 C 0.90914 0.91727 0.63665 0.0
C65 C 0.87231 1.00045 0.55704 0.0
C66 C 0.85543 1.00353 0.61423 0.0
C67 C 0.87359 0.96272 0.65345 0.0
C68 C 0.92747 0.91486 0.57971 0.0
C69 C 0.90918 0.95612 0.54015 0.0
C70 C 0.93223 0.87714 0.67992 0.0
C71 C 0.05421 1.02118 0.74571 0.0
H72 H 0.20884 0.832 1.0121 0.0
H73 H 0.14005 0.90199 0.97932 0.0
H74 H 0.271 0.98683 0.88288 0.0
H75 H 0.3409 0.91576 0.91661 0.0
H76 H 0.82674 1.03697 0.62849 0.0
H77 H 0.85956 0.96705 0.69707 0.0
H78 H 0.95585 0.88103 0.56586 0.0
H79 H 0.92203 0.95204 0.49613 0.0
Tb80 Tb 0.4361 0.76109 1.0154 0.0
Tb81 Tb 0.38258 0.84757 0.10147 0.0
C82 C 0.47072 0.76896 0.15058 0.0
C83 C 0.42349 0.68334 0.88564 0.0
C84 C 0.3408 0.64693 0.80604 0.0
C85 C 0.33736 0.63076 0.86344 0.0
C86 C 0.3779 0.64875 0.90265 0.0
C87 C 0.42623 0.70102 0.82849 0.0
C88 C 0.38522 0.68297 0.78896 0.0
C89 C 0.46383 0.70584 0.92869 0.0
O90 O 0.36835 0.70907 1.04228 0.0
O91 O 0.34987 0.76006 0.12411 0.0
O92 O 0.31305 0.82336 0.04963 0.0
O93 O 0.37431 0.82297 0.97737 0.0
O94 O 0.35709 0.88355 0.17931 0.0
O95 O 0.35179 0.93221 0.10137 0.0
O96 O 0.44403 0.88573 1.04012 0.0
O97 O 0.50555 0.81297 1.03976 0.0
O98 O 0.46908 0.7381 0.10257 0.0
O99 O 0.45068 0.8204 0.15324 0.0
C100 C 0.34829 0.71183 0.09337 0.0
O101 O 0.46685 0.76143 0.93133 0.0
O102 O 0.4616 0.68292 0.97935 0.0
C103 C 0.32215 0.83126 0.99614 0.0
C104 C 0.39552 0.97732 0.17949 0.0
C105 C 0.47895 0.05609 0.21605 0.0
C106 C 0.48184 0.99842 0.23234 0.0
C107 C 0.44092 0.95962 0.21429 0.0
C108 C 0.39329 1.03473 0.16176 0.0
C109 C 0.43466 0.07385 0.17989 0.0
C110 C 0.35495 0.93458 0.15673 0.0
C111 C 0.49625 0.86678 1.032 0.0
H112 H 0.30386 0.60268 0.87785 0.0
H113 H 0.37334 0.63525 0.94642 0.0
H114 H 0.46019 0.72864 0.81442 0.0
H115 H 0.38961 0.69525 0.74481 0.0
H116 H 0.51522 0.98347 0.26049 0.0
H117 H 0.44509 0.91562 0.22787 0.0
H118 H 0.35948 0.04932 0.13399 0.0
H119 H 0.43069 0.11823 0.1675 0.0
Tb120 Tb 0.49906 0.15672 0.35189 0.0
Tb121 Tb 0.58375 0.21219 0.26647 0.0
C122 C 0.63465 0.12324 0.34345 0.0
C123 C 0.36963 0.16755 0.42968 0.0
C124 C 0.28981 0.25087 0.46638 0.0
C125 C 0.34697 0.25359 0.48332 0.0
C126 C 0.38629 0.21271 0.46523 0.0
C127 C 0.31271 0.16549 0.41133 0.0
C128 C 0.27305 0.20683 0.42954 0.0
C129 C 0.413 0.12739 0.40658 0.0
O130 O 0.52523 0.22439 0.40491 0.0
O131 O 0.60605 0.2451 0.35362 0.0
O132 O 0.53066 0.28109 0.29206 0.0
O133 O 0.45973 0.21869 0.29112 0.0
O134 O 0.66077 0.23931 0.23053 0.0
O135 O 0.58237 0.24412 0.1828 0.0
O136 O 0.52325 0.15023 0.22769 0.0
O137 O 0.52449 0.08774 0.29904 0.0
O138 O 0.58653 0.12388 0.37401 0.0
O139 O 0.63731 0.14454 0.29281 0.0
C140 C 0.57569 0.2458 0.40187 0.0
O141 O 0.41554 0.12496 0.35121 0.0
O142 O 0.46369 0.12968 0.42929 0.0
C143 C 0.47744 0.27138 0.28353 0.0
C144 C 0.66088 0.20154 0.1367 0.0
C145 C 0.69773 0.11829 0.05716 0.0
C146 C 0.71473 0.11535 0.11432 0.0
C147 C 0.69657 0.15619 0.15349 0.0
C148 C 0.64244 0.20381 0.0798 0.0
C149 C 0.66073 0.16253 1.04028 0.0
C150 C 0.63776 0.24167 0.17996 0.0
C151 C 0.5158 0.09757 0.24578 0.0
H152 H 0.36113 0.28681 0.51199 0.0
H153 H 0.4299 0.21677 0.47928 0.0
H154 H 0.29895 0.1319 0.38297 0.0
H155 H 0.22906 0.20302 0.41664 0.0
H156 H 0.74352 0.08199 0.12858 0.0
H157 H 0.71069 0.15196 0.19709 0.0
H158 H 0.61395 0.23756 0.06595 0.0
H159 H 0.64778 0.16651 0.99628 0.0
Tb160 Tb 0.63312 0.26152 0.59023 0.0
Tb161 Tb 0.68771 0.34646 0.50443 0.0
C162 C 0.59897 0.26931 0.45501 0.0
C163 C 0.64435 0.18464 0.72031 0.0
C164 C 0.72724 0.14804 0.79996 0.0
C165 C 0.73081 0.13164 0.74266 0.0
C166 C 0.69015 0.1497 0.70342 0.0
C167 C 0.64147 0.20258 0.77736 0.0
C168 C 0.68259 0.1844 0.81696 0.0
C169 C 0.60423 0.20753 0.67706 0.0
O170 O 0.7004 0.20775 0.56368 0.0
O171 O 0.72033 0.25857 0.48222 0.0
O172 O 0.75677 0.32125 0.55692 0.0
O173 O 0.69494 0.32247 0.62858 0.0
O174 O 0.71438 0.38167 0.4268 0.0
O175 O 0.71888 0.43054 0.5046 0.0
O176 O 0.62606 0.38597 0.56529 0.0
O177 O 0.56421 0.31446 0.56476 0.0
O178 O 0.60004 0.23881 0.50326 0.0
O179 O 0.62005 0.32008 0.45189 0.0
C180 C 0.72127 0.21031 0.51289 0.0
O181 O 0.6016 0.26315 0.674 0.0
O182 O 0.60656 0.1842 0.62659 0.0
C183 C 0.7473 0.32985 0.61026 0.0
C184 C 0.67604 0.47587 0.42591 0.0
C185 C 0.59235 0.55516 0.38897 0.0
C186 C 0.59027 0.49768 0.37209 0.0
C187 C 0.63134 0.45863 0.39028 0.0
C188 C 0.67747 0.5331 0.44418 0.0
C189 C 0.63597 0.57249 0.42585 0.0
C190 C 0.71635 0.43274 0.44921 0.0
C191 C 0.57367 0.36802 0.57292 0.0
H192 H 0.7645 0.10331 0.72834 0.0
H193 H 0.69483 0.13601 0.65971 0.0
H194 H 0.60735 0.23052 0.7913 0.0
H195 H 0.67813 0.19684 0.86107 0.0
H196 H 0.55741 0.48308 0.34338 0.0
H197 H 0.62778 0.41477 0.37627 0.0
H198 H 0.71071 0.54732 0.4726 0.0
H199 H 0.63928 0.61675 0.43871 0.0
Tb200 Tb 0.08424 0.40736 0.83926 0.0
Tb201 Tb 0.99799 0.46171 0.75362 0.0
C202 C 0.07604 0.37322 0.70393 0.0
C203 C 0.16215 0.41948 0.96875 0.0
C204 C 0.19868 0.50251 0.04828 0.0
C205 C 0.21522 0.50556 0.99098 0.0
C206 C 0.19718 0.46484 0.9518 0.0
C207 C 0.14416 0.41712 1.02579 0.0
C208 C 0.16227 0.45829 0.06529 0.0
C209 C 0.13948 0.3791 0.92568 0.0
O210 O 0.13604 0.47548 0.81255 0.0
O211 O 0.08507 0.49462 0.73099 0.0
O212 O 1.02248 0.53116 0.8058 0.0
O213 O 1.02274 0.46925 0.87769 0.0
O214 O 0.96184 0.4876 0.67603 0.0
O215 O 0.91388 0.49304 0.75426 0.0
O216 O 0.96003 0.39989 0.81488 0.0
O217 O 1.03225 0.33787 0.81483 0.0
O218 O 0.10679 0.37451 0.75193 0.0
O219 O 1.02491 0.39357 0.70137 0.0
C220 C 0.13317 0.49594 0.76159 0.0
O221 O 0.08414 0.3762 0.92323 0.0
O222 O 0.16211 0.3814 0.87493 0.0
C223 C 1.01446 0.52175 0.85923 0.0
C224 C 0.86824 0.4496 0.6763 0.0
C225 C 0.78899 0.36652 0.63987 0.0
C226 C 0.7718 0.4111 0.67616 0.0
C227 C 0.81116 0.45231 0.69422 0.0
C228 C 0.88535 0.40387 0.6414 0.0
C229 C 0.84632 0.36313 0.62342 0.0
C230 C 0.91118 0.49001 0.69891 0.0
C231 C 0.97878 0.3474 0.82299 0.0
H232 H 0.24355 0.53889 0.97661 0.0
H233 H 0.21095 0.46913 0.90811 0.0
H234 H 0.11622 0.38335 1.03981 0.0
H235 H 0.14966 0.4542 0.10937 0.0
H236 H 0.72769 0.41545 0.6887 0.0
H237 H 0.79701 0.48636 0.72206 0.0
H238 H 0.92908 0.39932 0.6277 0.0
H239 H 0.86083 0.3295 0.59519 0.0
Tb240 Tb 0.88221 0.77218 1.00437 0.0
Tb241 Tb 0.93686 0.85705 0.09016 0.0
C242 C 0.84867 0.90832 1.0129 0.0
C243 C 0.89379 0.6428 0.92584 0.0
C244 C 0.97749 0.56352 0.88894 0.0
C245 C 0.97959 0.621 0.87204 0.0
C246 C 0.93852 0.66005 0.89022 0.0
C247 C 0.89233 0.58557 0.94412 0.0
C248 C 0.93384 0.54617 0.9258 0.0
C249 C 0.8535 0.68595 0.94916 0.0
O250 O 0.94988 0.79856 0.9518 0.0
O251 O 0.96991 0.8798 1.00317 0.0
O252 O 1.00572 0.80406 0.06464 0.0
O253 O 0.94381 0.73261 0.06521 0.0
O254 O 0.96355 0.93435 0.12642 0.0
O255 O 0.96835 0.85542 0.17391 0.0
O256 O 0.87503 0.79613 0.12856 0.0
O257 O 0.81319 0.79741 0.05693 0.0
O258 O 0.84961 0.86008 0.98221 0.0
O259 O 0.86956 0.91084 0.06367 0.0
C260 C 0.97099 0.84932 0.95492 0.0
O261 O 0.85097 0.68812 1.00455 0.0
O262 O 0.85551 0.73703 0.92675 0.0
C263 C 0.99623 0.7505 0.07278 0.0
C264 C 0.92575 0.93405 0.22016 0.0
C265 C 0.84288 0.97086 0.29977 0.0
C266 C 0.83961 0.98757 0.24253 0.0
C267 C 0.88027 0.96942 0.20331 0.0
C268 C 0.92834 0.91583 0.27715 0.0
C269 C 0.88722 0.93411 0.31672 0.0
C270 C 0.96583 0.91105 0.17692 0.0
C271 C 0.82267 0.78874 0.11025 0.0
H272 H 1.01249 0.6356 0.84335 0.0
H273 H 0.9421 0.70391 0.87621 0.0
H274 H 0.85907 0.57136 0.97253 0.0
H275 H 0.93051 0.50192 0.93867 0.0
H276 H 0.80615 1.01619 0.22824 0.0
H277 H 0.87582 0.98335 0.15965 0.0
H278 H 0.9622 0.88757 0.29105 0.0
H279 H 0.89145 0.9214 0.36078 0.0
Tb280 Tb 0.57191 0.65694 0.25358 0.0
Tb281 Tb 0.48572 0.71137 0.33923 0.0
C282 C 0.4367 0.62282 0.26161 0.0
C283 C 0.7017 0.66898 0.1763 0.0
C284 C 0.78098 0.75209 0.13991 0.0
C285 C 0.72365 0.75553 0.12351 0.0
C286 C 0.6846 0.71478 0.14147 0.0
C287 C 0.75879 0.66622 0.19417 0.0
C288 C 0.79816 0.70743 0.17612 0.0
C289 C 0.65874 0.62858 0.1989 0.0
O290 O 0.54503 0.72504 0.20127 0.0
O291 O 0.4632 0.74425 0.25189 0.0
O292 O 0.53775 0.78084 0.31474 0.0
O293 O 0.6099 0.71874 0.31481 0.0
O294 O 0.40787 0.73739 0.37495 0.0
O295 O 0.48586 0.74255 0.42318 0.0
O296 O 0.54713 0.64942 0.37769 0.0
O297 O 0.54738 0.5875 0.3058 0.0
O298 O 0.48483 0.62406 0.23102 0.0
O299 O 0.4338 0.64335 0.31254 0.0
C300 C 0.49393 0.74548 0.20386 0.0
O301 O 0.656 0.62554 0.25425 0.0
O302 O 0.60809 0.63101 0.17601 0.0
C303 C 0.59122 0.77127 0.32285 0.0
C304 C 0.40786 0.69927 0.46876 0.0
C305 C 0.37139 0.61621 0.54833 0.0
C306 C 0.40764 0.66054 0.56535 0.0
C307 C 0.42572 0.70173 0.52583 0.0
C308 C 0.373 0.6538 0.45181 0.0
C309 C 0.35499 0.61307 0.49101 0.0
C310 C 0.43052 0.73967 0.42568 0.0
C311 C 0.55543 0.59693 0.35921 0.0
H312 H 0.70915 0.78921 0.09532 0.0
H313 H 0.64087 0.71938 0.1278 0.0
H314 H 0.77292 0.63211 0.22196 0.0
H315 H 0.84227 0.70304 0.18861 0.0
H316 H 0.42014 0.6647 0.60944 0.0
H317 H 0.45354 0.73559 0.53986 0.0
H318 H 0.35934 0.64944 0.4081 0.0
H319 H 0.32678 0.57964 0.47663 0.0
Tb320 Tb 0.33384 0.5221 0.14999 0.0
Tb321 Tb 0.24802 0.6077 0.20455 0.0
C322 C 0.32527 0.65834 0.11671 0.0
C323 C 0.41162 0.39198 0.16232 0.0
C324 C 0.44767 0.31293 0.24638 0.0
C325 C 0.46349 0.37058 0.24935 0.0
C326 C 0.44573 0.40951 0.2081 0.0
C327 C 0.3943 0.33458 0.16 0.0
C328 C 0.41222 0.2953 0.20168 0.0
C329 C 0.38879 0.43499 0.12171 0.0
O330 O 0.38671 0.54865 0.21723 0.0
O331 O 0.33513 0.63016 0.23753 0.0
O332 O 0.27337 0.55529 0.27371 0.0
O333 O 0.27308 0.48342 0.21181 0.0
O334 O 0.21119 0.68533 0.2308 0.0
O335 O 0.16418 0.60647 0.23589 0.0
O336 O 0.20994 0.54667 0.14249 0.0
O337 O 0.28167 0.54726 0.08073 0.0
O338 O 0.3559 0.60981 0.11736 0.0
O339 O 0.27454 0.66129 0.13767 0.0
C340 C 0.38354 0.59955 0.23828 0.0
O341 O 0.33342 0.4378 0.11885 0.0
O342 O 0.41143 0.48584 0.12366 0.0
C343 C 0.26547 0.50168 0.26424 0.0
C344 C 0.1176 0.68455 0.1926 0.0
C345 C 1.03793 0.7204 0.10937 0.0
C346 C 1.0208 0.68534 0.15469 0.0
C347 C 0.06041 0.66752 0.19597 0.0
C348 C 0.13461 0.71813 0.14614 0.0
C349 C 0.09537 0.73582 0.1053 0.0
C350 C 0.16082 0.66207 0.23302 0.0
C351 C 0.22833 0.53904 0.09012 0.0
H352 H 0.49113 0.3854 0.28304 0.0
H353 H 0.45896 0.45349 0.21235 0.0
H354 H 0.36701 0.32015 0.12592 0.0
H355 H 0.40024 0.25091 0.19765 0.0
H356 H 0.97659 0.67371 0.15955 0.0
H357 H 1.04636 0.64062 0.23061 0.0
H358 H 0.17841 0.73108 0.1411 0.0
H359 H 0.10978 0.76317 0.07111 0.0
Tb360 Tb 0.83322 0.09757 0.95516 0.0
Tb361 Tb 0.74716 1.01174 0.90167 0.0
C362 C 0.82522 0.96195 0.9898 0.0
C363 C 0.91187 0.22667 0.94281 0.0
C364 C 0.94913 0.3057 0.85969 0.0
C365 C 0.96637 0.24819 0.85757 0.0
C366 C 0.94799 0.20925 0.89835 0.0
C367 C 0.89327 0.28393 0.94426 0.0
C368 C 0.91172 0.32318 0.90303 0.0
C369 C 0.88872 0.18378 0.98309 0.0
O370 O 0.88467 0.07057 0.88665 0.0
O371 O 0.83422 0.9885 0.86859 0.0
O372 O 0.77162 0.06417 0.83244 0.0
O373 O 0.77176 0.13656 0.89392 0.0
O374 O 0.71162 0.93383 0.87591 0.0
O375 O 0.66318 1.01243 0.87071 0.0
O376 O 0.70878 0.07348 0.9632 0.0
O377 O 0.78103 0.07331 1.02449 0.0
O378 O 0.85601 1.0099 0.98789 0.0
O379 O 0.77408 0.95957 0.96982 0.0
C380 C 0.88206 1.01925 0.86658 0.0
O381 O 0.83333 0.18197 0.98601 0.0
O382 O 0.9111 0.13254 0.9809 0.0
C383 C 0.76365 0.11792 0.84175 0.0
C384 C 0.61775 0.93392 0.91359 0.0
C385 C 0.53812 0.89674 0.99588 0.0
C386 C 0.5954 0.87973 0.99893 0.0
C387 C 0.63465 0.89809 0.95857 0.0
C388 C 0.56071 0.95239 0.91125 0.0
C389 C 0.52116 0.93397 0.95208 0.0
C390 C 0.66084 0.95681 0.87353 0.0
C391 C 0.72754 0.08163 1.0153 0.0
H392 H 0.99545 0.23347 0.8249 0.0
H393 H 0.96229 0.16536 0.89478 0.0
H394 H 0.86452 0.29829 0.97733 0.0
H395 H 0.89854 0.36744 0.90637 0.0
H396 H 0.60972 0.85078 1.03198 0.0
H397 H 0.67834 0.88394 0.96282 0.0
H398 H 0.54675 0.98093 0.87776 0.0
H399 H 0.47708 0.94695 0.94803 0.0
Tb400 Tb 0.7368 1.02111 0.45503 0.0
Tb401 Tb 0.82286 0.10707 0.4016 0.0
C402 C 0.74474 0.1567 0.48977 0.0
C403 C 0.65817 0.89198 0.44261 0.0
C404 C 0.62088 0.81295 0.35954 0.0
C405 C 0.60369 0.87048 0.35738 0.0
C406 C 0.62209 0.90941 0.39814 0.0
C407 C 0.67672 0.8347 0.44409 0.0
C408 C 0.65825 0.79545 0.40289 0.0
C409 C 0.68132 0.93484 0.4829 0.0
O410 O 0.68539 1.04816 0.38654 0.0
O411 O 0.73578 0.1303 0.36857 0.0
O412 O 0.79848 0.05471 0.33233 0.0
O413 O 0.7983 0.98222 0.39374 0.0
O414 O 0.85836 0.18505 0.37596 0.0
O415 O 0.90685 0.10649 0.37065 0.0
O416 O 0.86123 1.04527 0.46308 0.0
O417 O 0.78895 1.0453 0.52438 0.0
O418 O 0.71396 0.10875 0.48781 0.0
O419 O 0.7959 0.1591 0.46983 0.0
C420 C 0.68796 0.09951 0.36654 0.0
O421 O 0.7367 0.93667 0.48579 0.0
O422 O 0.65892 0.98608 0.48074 0.0
C423 C 0.80646 1.00094 0.34159 0.0
C424 C 0.95223 0.18496 0.41362 0.0
C425 C 1.03184 0.22207 0.49592 0.0
C426 C 0.97455 0.23907 0.49899 0.0
C427 C 0.93532 0.22074 0.45862 0.0
C428 C 1.00928 0.1665 0.41126 0.0
C429 C 0.04882 0.18489 0.45209 0.0
C430 C 0.90916 0.1621 0.37354 0.0
C431 C 0.84246 1.03707 0.51518 0.0
H432 H 0.57464 0.88522 0.3247 0.0
H433 H 0.60784 0.95332 0.39454 0.0
H434 H 0.70544 0.82031 0.47717 0.0
H435 H 0.67139 0.75118 0.40625 0.0
H436 H 0.96023 0.268 0.53205 0.0
H437 H 0.89162 0.23488 0.46289 0.0
H438 H 1.02326 0.13799 0.37775 0.0
H439 H 0.0929 0.17192 0.44803 0.0
Tb440 Tb 0.32189 0.51099 0.70459 0.0
Tb441 Tb 0.23619 0.59667 0.64999 0.0
C442 C 0.18634 0.51919 0.73824 0.0
C443 C 0.45225 0.43402 0.69271 0.0
C444 C 0.53195 0.39813 0.60948 0.0
C445 C 0.47453 0.38259 0.60553 0.0
C446 C 0.43528 0.40029 0.64635 0.0
C447 C 0.50942 0.45116 0.69597 0.0
C448 C 0.54903 0.43332 0.65469 0.0
C449 C 0.40902 0.45655 0.7331 0.0
O450 O 0.29541 0.45743 0.63768 0.0
O451 O 0.21411 0.50898 0.61732 0.0
O452 O 0.2884 0.57148 0.58076 0.0
O453 O 0.36005 0.57203 0.64255 0.0
O454 O 0.15865 0.63298 0.6236 0.0
O455 O 0.23669 0.68098 0.61885 0.0
O456 O 0.2969 0.6353 0.71184 0.0
O457 O 0.29653 0.5634 0.77374 0.0
O458 O 0.23474 0.48857 0.73752 0.0
O459 O 0.18321 0.57009 0.71718 0.0
C460 C 0.2447 0.46043 0.61668 0.0
O461 O 0.40571 0.51214 0.73594 0.0
O462 O 0.35863 0.43333 0.73087 0.0
C463 C 0.34174 0.57963 0.59016 0.0
C464 C 0.15846 0.72681 0.66227 0.0
C465 C 0.12234 0.80585 0.74629 0.0
C466 C 0.15783 0.82349 0.7016 0.0
C467 C 0.17578 0.78421 0.65994 0.0
C468 C 0.12431 0.70928 0.70804 0.0
C469 C 0.10652 0.7482 0.74927 0.0
C470 C 0.18132 0.68381 0.62166 0.0
C471 C 0.30451 0.617 0.76426 0.0
H472 H 0.46014 0.35513 0.57142 0.0
H473 H 0.3915 0.38726 0.6414 0.0
H474 H 0.52344 0.47817 0.73052 0.0
H475 H 0.59323 0.44504 0.65947 0.0
H476 H 0.16982 0.86788 0.69757 0.0
H477 H 0.2031 0.79865 0.62586 0.0
H478 H 0.11108 0.6653 0.71229 0.0
H479 H 0.07886 0.73337 0.78296 0.0
loop_
_geom_bond_atom_site_label_1
_geom_bond_atom_site_label_2
_geom_bond_distance
_geom_bond_site_symmetry_2
_ccdc_geom_bond_type
Tb0 C9 2.764 . S
Tb0 O10 2.325 . S
Tb0 O13 2.303 . S
Tb0 O17 2.322 . S
Tb0 O18 2.349 . S
Tb0 O21 2.415 . S
Tb0 O22 2.399 . S
Tb1 O11 2.322 . S
Tb1 O12 2.349 . S
Tb1 O14 2.415 . S
Tb1 O15 2.399 . S
Tb1 O16 2.325 . S
Tb1 O19 2.303 . S
Tb1 C30 2.764 . S
C2 O18 1.261 . S
C2 O19 1.257 . S
C3 C6 1.358 . S
C3 C7 1.332 . S
C3 C9 1.504 . S
C4 C5 1.373 . S
C4 C8 1.308 . S
C5 C4 1.373 . S
C5 C6 1.429 . S
C5 H32 0.932 . S
C6 C3 1.358 . S
C6 C5 1.429 . S
C6 H33 0.930 . S
C7 C3 1.332 . S
C7 C8 1.394 . S
C7 H34 0.932 . S
C8 C4 1.308 . S
C8 C7 1.394 . S
C8 H35 0.929 . S
C9 Tb0 2.764 . S
C9 C3 1.504 . S
C9 O21 1.239 . S
C9 O22 1.263 . S
O10 Tb0 2.325 . S
O10 C20 1.236 . S
O11 Tb1 2.322 . S
O11 C20 1.257 . S
O12 Tb1 2.349 . S
O12 C23 1.261 . S
O13 Tb0 2.303 . S
O13 C23 1.257 . S
O14 Tb1 2.415 . S
O14 C30 1.239 . S
O15 Tb1 2.399 . S
O15 C30 1.263 . S
O16 Tb1 2.325 . S
O16 C31 1.236 . S
O17 Tb0 2.322 . S
O17 C31 1.257 . S
O18 Tb0 2.349 . S
O18 C2 1.261 . S
O19 Tb1 2.303 . S
O19 C2 1.257 . S
C20 O10 1.236 . S
C20 O11 1.257 . S
O21 Tb0 2.415 . S
O21 C9 1.239 . S
O22 Tb0 2.399 . S
O22 C9 1.263 . S
C23 O12 1.261 . S
C23 O13 1.257 . S
C24 C27 1.358 . S
C24 C28 1.332 . S
C24 C30 1.504 . S
C25 C26 1.373 . S
C25 C29 1.308 . S
C26 C25 1.373 . S
C26 C27 1.429 . S
C26 H36 0.932 . S
C27 C24 1.358 . S
C27 C26 1.429 . S
C27 H37 0.930 . S
C28 C24 1.332 . S
C28 C29 1.394 . S
C28 H38 0.932 1_455 S
C29 C25 1.308 . S
C29 C28 1.394 . S
C29 H39 0.929 1_455 S
C30 Tb1 2.764 . S
C30 O14 1.239 . S
C30 O15 1.263 . S
C30 C24 1.504 . S
C31 O16 1.236 . S
C31 O17 1.257 . S
H32 C5 0.932 . S
H33 C6 0.930 . S
H34 C7 0.932 . S
H35 C8 0.929 . S
H36 C26 0.932 . S
H37 C27 0.930 . S
H38 C28 0.932 1_655 S
H39 C29 0.929 1_655 S
Tb40 C49 2.764 . S
Tb40 O50 2.325 . S
Tb40 O53 2.303 . S
Tb40 O57 2.322 . S
Tb40 O58 2.349 1_455 S
Tb40 O61 2.415 . S
Tb40 O62 2.399 . S
Tb41 O51 2.322 . S
Tb41 O52 2.349 1_655 S
Tb41 O54 2.415 . S
Tb41 O55 2.399 . S
Tb41 O56 2.325 . S
Tb41 O59 2.303 . S
Tb41 C70 2.764 . S
C42 O58 1.261 . S
C42 O59 1.257 . S
C43 C46 1.365 . S
C43 C47 1.332 . S
C43 C49 1.504 . S
C44 C45 1.373 . S
C44 C48 1.308 1_554 S
C45 C44 1.373 . S
C45 C46 1.423 1_554 S
C45 H72 0.932 . S
C46 C43 1.365 . S
C46 C45 1.423 1_556 S
C46 H73 0.930 1_556 S
C47 C43 1.332 . S
C47 C48 1.394 . S
C47 H74 0.932 . S
C48 C44 1.308 1_556 S
C48 C47 1.394 . S
C48 H75 0.929 . S
C49 Tb40 2.764 . S
C49 C43 1.504 . S
C49 O61 1.239 . S
C49 O62 1.263 . S
O50 Tb40 2.325 . S
O50 C60 1.236 1_455 S
O51 Tb41 2.322 . S
O51 C60 1.257 . S
O52 Tb41 2.349 1_455 S
O52 C63 1.261 . S
O53 Tb40 2.303 . S
O53 C63 1.257 . S
O54 Tb41 2.415 . S
O54 C70 1.239 . S
O55 Tb41 2.399 . S
O55 C70 1.263 . S
O56 Tb41 2.325 . S
O56 C71 1.236 1_655 S
O57 Tb40 2.322 . S
O57 C71 1.257 . S
O58 Tb40 2.349 1_655 S
O58 C42 1.261 . S
O59 Tb41 2.303 . S
O59 C42 1.257 . S
C60 O50 1.236 1_655 S
C60 O51 1.257 . S
O61 Tb40 2.415 . S
O61 C49 1.239 . S
O62 Tb40 2.399 . S
O62 C49 1.263 . S
C63 O52 1.261 . S
C63 O53 1.257 . S
C64 C67 1.358 . S
C64 C68 1.332 . S
C64 C70 1.504 . S
C65 C66 1.373 . S
C65 C69 1.308 1_565 S
C66 C65 1.373 . S
C66 C67 1.429 . S
C66 H76 0.932 . S
C67 C64 1.358 . S
C67 C66 1.429 . S
C67 H77 0.930 . S
C68 C64 1.332 . S
C68 C69 1.394 1_565 S
C68 H78 0.932 1_565 S
C69 C65 1.308 1_545 S
C69 C68 1.394 1_545 S
C69 H79 0.929 . S
C70 Tb41 2.764 . S
C70 O54 1.239 . S
C70 O55 1.263 . S
C70 C64 1.504 . S
C71 O56 1.236 1_455 S
C71 O57 1.257 . S
H72 C45 0.932 . S
H73 C46 0.930 1_554 S
H74 C47 0.932 . S
H75 C48 0.929 . S
H76 C66 0.932 . S
H77 C67 0.930 . S
H78 C68 0.932 1_545 S
H79 C69 0.929 . S
Tb80 C89 2.764 . S
Tb80 O90 2.325 . S
Tb80 O93 2.303 . S
Tb80 O97 2.322 . S
Tb80 O98 2.349 1_556 S
Tb80 O101 2.415 . S
Tb80 O102 2.399 . S
Tb81 O91 2.322 . S
Tb81 O92 2.349 1_554 S
Tb81 O94 2.415 . S
Tb81 O95 2.399 . S
Tb81 O96 2.325 . S
Tb81 O99 2.303 . S
Tb81 C110 2.764 . S
C82 O98 1.261 . S
C82 O99 1.257 . S
C83 C86 1.358 . S
C83 C87 1.332 . S
C83 C89 1.504 . S
C84 C85 1.373 . S
C84 C88 1.308 . S
C85 C84 1.373 . S
C85 C86 1.429 . S
C85 H112 0.932 . S
C86 C83 1.358 . S
C86 C85 1.429 . S
C86 H113 0.930 . S
C87 C83 1.332 . S
C87 C88 1.394 . S
C87 H114 0.932 . S
C88 C84 1.308 . S
C88 C87 1.394 . S
C88 H115 0.929 . S
C89 Tb80 2.764 . S
C89 C83 1.504 . S
C89 O101 1.239 . S
C89 O102 1.263 . S
O90 Tb80 2.325 . S
O90 C100 1.236 1_556 S
O91 Tb81 2.322 . S
O91 C100 1.257 . S
O92 Tb81 2.349 1_556 S
O92 C103 1.261 . S
O93 Tb80 2.303 . S
O93 C103 1.257 . S
O94 Tb81 2.415 . S
O94 C110 1.239 . S
O95 Tb81 2.399 . S
O95 C110 1.263 . S
O96 Tb81 2.325 . S
O96 C111 1.236 1_554 S
O97 Tb80 2.322 . S
O97 C111 1.257 . S
O98 Tb80 2.349 1_554 S
O98 C82 1.261 . S
O99 Tb81 2.303 . S
O99 C82 1.257 . S
C100 O90 1.236 1_554 S
C100 O91 1.257 . S
O101 Tb80 2.415 . S
O101 C89 1.239 . S
O102 Tb80 2.399 . S
O102 C89 1.263 . S
C103 O92 1.261 . S
C103 O93 1.257 . S
C104 C107 1.358 . S
C104 C108 1.332 . S
C104 C110 1.504 . S
C105 C106 1.373 . S
C105 C109 1.308 . S
C106 C105 1.373 . S
C106 C107 1.429 . S
C106 H116 0.932 1_565 S
C107 C104 1.358 . S
C107 C106 1.429 . S
C107 H117 0.930 . S
C108 C104 1.332 . S
C108 C109 1.394 . S
C108 H118 0.932 . S
C109 C105 1.308 . S
C109 C108 1.394 . S
C109 H119 0.929 . S
C110 Tb81 2.764 . S
C110 O94 1.239 . S
C110 O95 1.263 . S
C110 C104 1.504 . S
C111 O96 1.236 1_556 S
C111 O97 1.257 . S
H112 C85 0.932 . S
H113 C86 0.930 . S
H114 C87 0.932 . S
H115 C88 0.929 . S
H116 C106 0.932 1_545 S
H117 C107 0.930 . S
H118 C108 0.932 . S
H119 C109 0.929 . S
Tb120 C129 2.764 . S
Tb120 O130 2.325 . S
Tb120 O133 2.303 . S
Tb120 O137 2.322 . S
Tb120 O138 2.349 . S
Tb120 O141 2.415 . S
Tb120 O142 2.399 . S
Tb121 O131 2.322 . S
Tb121 O132 2.349 . S
Tb121 O134 2.415 . S
Tb121 O135 2.399 . S
Tb121 O136 2.325 . S
Tb121 O139 2.303 . S
Tb121 C150 2.764 . S
C122 O138 1.261 . S
C122 O139 1.257 . S
C123 C126 1.358 . S
C123 C127 1.332 . S
C123 C129 1.504 . S
C124 C125 1.373 . S
C124 C128 1.308 . S
C125 C124 1.373 . S
C125 C126 1.429 . S
C125 H152 0.932 . S
C126 C123 1.358 . S
C126 C125 1.429 . S
C126 H153 0.930 . S
C127 C123 1.332 . S
C127 C128 1.394 . S
C127 H154 0.932 . S
C128 C124 1.308 . S
C128 C127 1.394 . S
C128 H155 0.929 . S
C129 Tb120 2.764 . S
C129 C123 1.504 . S
C129 O141 1.239 . S
C129 O142 1.263 . S
O130 Tb120 2.325 . S
O130 C140 1.236 . S
O131 Tb121 2.322 . S
O131 C140 1.257 . S
O132 Tb121 2.349 . S
O132 C143 1.261 . S
O133 Tb120 2.303 . S
O133 C143 1.257 . S
O134 Tb121 2.415 . S
O134 C150 1.239 . S
O135 Tb121 2.399 . S
O135 C150 1.263 . S
O136 Tb121 2.325 . S
O136 C151 1.236 . S
O137 Tb120 2.322 . S
O137 C151 1.257 . S
O138 Tb120 2.349 . S
O138 C122 1.261 . S
O139 Tb121 2.303 . S
O139 C122 1.257 . S
C140 O130 1.236 . S
C140 O131 1.257 . S
O141 Tb120 2.415 . S
O141 C129 1.239 . S
O142 Tb120 2.399 . S
O142 C129 1.263 . S
C143 O132 1.261 . S
C143 O133 1.257 . S
C144 C147 1.358 . S
C144 C148 1.332 . S
C144 C150 1.504 . S
C145 C146 1.373 . S
C145 C149 1.308 . S
C146 C145 1.373 . S
C146 C147 1.429 . S
C146 H156 0.932 . S
C147 C144 1.358 . S
C147 C146 1.429 . S
C147 H157 0.930 . S
C148 C144 1.332 . S
C148 C149 1.394 . S
C148 H158 0.932 . S
C149 C145 1.308 . S
C149 C148 1.394 . S
C149 H159 0.929 1_545 S
C150 Tb121 2.764 . S
C150 O134 1.239 . S
C150 O135 1.263 . S
C150 C144 1.504 . S
C151 O136 1.236 . S
C151 O137 1.257 . S
H152 C125 0.932 . S
H153 C126 0.930 . S
H154 C127 0.932 . S
H155 C128 0.929 . S
H156 C146 0.932 . S
H157 C147 0.930 . S
H158 C148 0.932 . S
H159 C149 0.929 1_565 S
Tb160 C169 2.764 . S
Tb160 O170 2.325 . S
Tb160 O173 2.303 . S
Tb160 O177 2.322 . S
Tb160 O178 2.349 . S
Tb160 O181 2.415 . S
Tb160 O182 2.399 . S
Tb161 O171 2.322 . S
Tb161 O172 2.349 . S
Tb161 O174 2.415 . S
Tb161 O175 2.399 . S
Tb161 O176 2.325 . S
Tb161 O179 2.303 . S
Tb161 C190 2.764 . S
C162 O178 1.261 . S
C162 O179 1.257 . S
C163 C166 1.358 . S
C163 C167 1.332 . S
C163 C169 1.504 . S
C164 C165 1.373 . S
C164 C168 1.308 1_565 S
C165 C164 1.373 . S
C165 C166 1.429 1_565 S
C165 H192 0.932 . S
C166 C163 1.358 . S
C166 C165 1.429 1_545 S
C166 H193 0.932 . S
C167 C163 1.332 . S
C167 C168 1.394 . S
C167 H194 0.932 . S
C168 C164 1.308 1_545 S
C168 C167 1.394 . S
C168 H195 0.929 . S
C169 Tb160 2.764 . S
C169 C163 1.504 . S
C169 O181 1.239 . S
C169 O182 1.263 . S
O170 Tb160 2.325 . S
O170 C180 1.236 . S
O171 Tb161 2.322 . S
O171 C180 1.257 . S
O172 Tb161 2.349 . S
O172 C183 1.261 . S
O173 Tb160 2.303 . S
O173 C183 1.257 . S
O174 Tb161 2.415 . S
O174 C190 1.239 . S
O175 Tb161 2.399 . S
O175 C190 1.263 . S
O176 Tb161 2.325 . S
O176 C191 1.236 . S
O177 Tb160 2.322 . S
O177 C191 1.257 . S
O178 Tb160 2.349 . S
O178 C162 1.261 . S
O179 Tb161 2.303 . S
O179 C162 1.257 . S
C180 O170 1.236 . S
C180 O171 1.257 . S
O181 Tb160 2.415 . S
O181 C169 1.239 . S
O182 Tb160 2.399 . S
O182 C169 1.263 . S
C183 O172 1.261 . S
C183 O173 1.257 . S
C184 C187 1.358 . S
C184 C188 1.332 . S
C184 C190 1.504 . S
C185 C186 1.373 . S
C185 C189 1.308 . S
C186 C185 1.373 . S
C186 C187 1.429 . S
C186 H196 0.932 . S
C187 C184 1.358 . S
C187 C186 1.429 . S
C187 H197 0.930 . S
C188 C184 1.332 . S
C188 C189 1.394 . S
C188 H198 0.932 . S
C189 C185 1.308 . S
C189 C188 1.394 . S
C189 H199 0.929 . S
C190 Tb161 2.764 . S
C190 O174 1.239 . S
C190 O175 1.263 . S
C190 C184 1.504 . S
C191 O176 1.236 . S
C191 O177 1.257 . S
H192 C165 0.932 . S
H193 C166 0.932 . S
H194 C167 0.932 . S
H195 C168 0.929 . S
H196 C186 0.932 . S
H197 C187 0.930 . S
H198 C188 0.932 . S
H199 C189 0.929 . S
Tb200 C209 2.764 . S
Tb200 O210 2.325 . S
Tb200 O213 2.303 1_455 S
Tb200 O217 2.322 1_455 S
Tb200 O218 2.349 . S
Tb200 O221 2.415 . S
Tb200 O222 2.399 . S
Tb201 O211 2.322 1_655 S
Tb201 O212 2.349 . S
Tb201 O214 2.415 . S
Tb201 O215 2.399 . S
Tb201 O216 2.325 . S
Tb201 O219 2.303 1_655 S
Tb201 C230 2.764 . S
C202 O218 1.261 . S
C202 O219 1.257 . S
C203 C206 1.358 . S
C203 C207 1.332 . S
C203 C209 1.504 . S
C204 C205 1.373 . S
C204 C208 1.308 . S
C205 C204 1.373 . S
C205 C206 1.429 . S
C205 H232 0.932 . S
C206 C203 1.358 . S
C206 C205 1.429 . S
C206 H233 0.930 . S
C207 C203 1.332 . S
C207 C208 1.394 . S
C207 H234 0.932 . S
C208 C204 1.308 . S
C208 C207 1.394 . S
C208 H235 0.929 . S
C209 Tb200 2.764 . S
C209 C203 1.504 . S
C209 O221 1.239 . S
C209 O222 1.263 . S
O210 Tb200 2.325 . S
O210 C220 1.236 . S
O211 Tb201 2.322 1_455 S
O211 C220 1.257 . S
O212 Tb201 2.349 . S
O212 C223 1.261 . S
O213 Tb200 2.303 1_655 S
O213 C223 1.257 . S
O214 Tb201 2.415 . S
O214 C230 1.239 . S
O215 Tb201 2.399 . S
O215 C230 1.263 . S
O216 Tb201 2.325 . S
O216 C231 1.236 . S
O217 Tb200 2.322 1_655 S
O217 C231 1.257 . S
O218 Tb200 2.349 . S
O218 C202 1.261 . S
O219 Tb201 2.303 1_455 S
O219 C202 1.257 . S
C220 O210 1.236 . S
C220 O211 1.257 . S
O221 Tb200 2.415 . S
O221 C209 1.239 . S
O222 Tb200 2.399 . S
O222 C209 1.263 . S
C223 O212 1.261 . S
C223 O213 1.257 . S
C224 C227 1.358 . S
C224 C228 1.332 . S
C224 C230 1.504 . S
C225 C226 1.373 . S
C225 C229 1.308 . S
C226 C225 1.373 . S
C226 C227 1.429 . S
C226 H236 0.932 . S
C227 C224 1.358 . S
C227 C226 1.429 . S
C227 H237 0.930 . S
C228 C224 1.332 . S
C228 C229 1.394 . S
C228 H238 0.932 . S
C229 C225 1.308 . S
C229 C228 1.394 . S
C229 H239 0.929 . S
C230 Tb201 2.764 . S
C230 O214 1.239 . S
C230 O215 1.263 . S
C230 C224 1.504 . S
C231 O216 1.236 . S
C231 O217 1.257 . S
H232 C205 0.932 . S
H233 C206 0.930 . S
H234 C207 0.932 . S
H235 C208 0.929 . S
H236 C226 0.932 . S
H237 C227 0.930 . S
H238 C228 0.932 . S
H239 C229 0.929 . S
Tb240 C249 2.764 . S
Tb240 O250 2.325 . S
Tb240 O253 2.303 1_556 S
Tb240 O257 2.322 1_556 S
Tb240 O258 2.349 . S
Tb240 O261 2.415 . S
Tb240 O262 2.399 . S
Tb241 O251 2.322 1_554 S
Tb241 O252 2.349 . S
Tb241 O254 2.415 . S
Tb241 O255 2.399 . S
Tb241 O256 2.325 . S
Tb241 O259 2.303 1_554 S
Tb241 C270 2.764 . S
C242 O258 1.261 . S
C242 O259 1.257 . S
C243 C246 1.358 . S
C243 C247 1.332 . S
C243 C249 1.504 . S
C244 C245 1.373 . S
C244 C248 1.308 . S
C245 C244 1.373 . S
C245 C246 1.429 . S
C245 H272 0.932 . S
C246 C243 1.358 . S
C246 C245 1.429 . S
C246 H273 0.930 . S
C247 C243 1.332 . S
C247 C248 1.394 . S
C247 H274 0.932 . S
C248 C244 1.308 . S
C248 C247 1.394 . S
C248 H275 0.929 1_655 S
C249 Tb240 2.764 . S
C249 C243 1.504 . S
C249 O261 1.239 . S
C249 O262 1.263 . S
O250 Tb240 2.325 . S
O250 C260 1.236 . S
O251 Tb241 2.322 1_556 S
O251 C260 1.257 . S
O252 Tb241 2.349 . S
O252 C263 1.261 . S
O253 Tb240 2.303 1_554 S
O253 C263 1.257 . S
O254 Tb241 2.415 . S
O254 C270 1.239 . S
O255 Tb241 2.399 . S
O255 C270 1.263 . S
O256 Tb241 2.325 . S
O256 C271 1.236 . S
O257 Tb240 2.322 1_554 S
O257 C271 1.257 . S
O258 Tb240 2.349 . S
O258 C242 1.261 . S
O259 Tb241 2.303 1_556 S
O259 C242 1.257 . S
C260 O250 1.236 . S
C260 O251 1.257 . S
O261 Tb240 2.415 . S
O261 C249 1.239 . S
O262 Tb240 2.399 . S
O262 C249 1.263 . S
C263 O252 1.261 . S
C263 O253 1.257 . S
C264 C267 1.358 . S
C264 C268 1.332 . S
C264 C270 1.504 . S
C265 C266 1.373 . S
C265 C269 1.308 . S
C266 C265 1.373 . S
C266 C267 1.429 . S
C266 H276 0.932 . S
C267 C264 1.358 . S
C267 C266 1.429 . S
C267 H277 0.930 . S
C268 C264 1.332 . S
C268 C269 1.394 . S
C268 H278 0.932 . S
C269 C265 1.308 . S
C269 C268 1.394 . S
C269 H279 0.929 . S
C270 Tb241 2.764 . S
C270 O254 1.239 . S
C270 O255 1.263 . S
C270 C264 1.504 . S
C271 O256 1.236 . S
C271 O257 1.257 . S
H272 C245 0.932 . S
H273 C246 0.930 . S
H274 C247 0.932 . S
H275 C248 0.929 1_455 S
H276 C266 0.932 . S
H277 C267 0.930 . S
H278 C268 0.932 . S
H279 C269 0.929 . S
Tb280 C289 2.764 . S
Tb280 O290 2.325 . S
Tb280 O293 2.303 . S
Tb280 O297 2.322 . S
Tb280 O298 2.349 . S
Tb280 O301 2.415 . S
Tb280 O302 2.399 . S
Tb281 O291 2.322 . S
Tb281 O292 2.349 . S
Tb281 O294 2.415 . S
Tb281 O295 2.399 . S
Tb281 O296 2.325 . S
Tb281 O299 2.303 . S
Tb281 C310 2.764 . S
C282 O298 1.261 . S
C282 O299 1.257 . S
C283 C286 1.358 . S
C283 C287 1.332 . S
C283 C289 1.504 . S
C284 C285 1.373 . S
C284 C288 1.308 1_556 S
C285 C284 1.373 . S
C285 C286 1.429 1_556 S
C285 H312 0.932 . S
C286 C283 1.358 . S
C286 C285 1.429 1_554 S
C286 H313 0.930 . S
C287 C283 1.332 . S
C287 C288 1.394 . S
C287 H314 0.932 . S
C288 C284 1.308 1_554 S
C288 C287 1.394 . S
C288 H315 0.929 . S
C289 Tb280 2.764 . S
C289 C283 1.504 . S
C289 O301 1.239 . S
C289 O302 1.263 . S
O290 Tb280 2.325 . S
O290 C300 1.236 . S
O291 Tb281 2.322 . S
O291 C300 1.257 . S
O292 Tb281 2.349 . S
O292 C303 1.261 . S
O293 Tb280 2.303 . S
O293 C303 1.257 . S
O294 Tb281 2.415 . S
O294 C310 1.239 . S
O295 Tb281 2.399 . S
O295 C310 1.263 . S
O296 Tb281 2.325 . S
O296 C311 1.236 . S
O297 Tb280 2.322 . S
O297 C311 1.257 . S
O298 Tb280 2.349 . S
O298 C282 1.261 . S
O299 Tb281 2.303 . S
O299 C282 1.257 . S
C300 O290 1.236 . S
C300 O291 1.257 . S
O301 Tb280 2.415 . S
O301 C289 1.239 . S
O302 Tb280 2.399 . S
O302 C289 1.263 . S
C303 O292 1.261 . S
C303 O293 1.257 . S
C304 C307 1.358 . S
C304 C308 1.332 . S
C304 C310 1.504 . S
C305 C306 1.373 . S
C305 C309 1.308 . S
C306 C305 1.373 . S
C306 C307 1.429 . S
C306 H316 0.932 . S
C307 C304 1.358 . S
C307 C306 1.429 . S
C307 H317 0.930 . S
C308 C304 1.332 . S
C308 C309 1.394 . S
C308 H318 0.932 . S
C309 C305 1.308 . S
C309 C308 1.394 . S
C309 H319 0.929 . S
C310 Tb281 2.764 . S
C310 O294 1.239 . S
C310 O295 1.263 . S
C310 C304 1.504 . S
C311 O296 1.236 . S
C311 O297 1.257 . S
H312 C285 0.932 . S
H313 C286 0.930 . S
H314 C287 0.932 . S
H315 C288 0.929 . S
H316 C306 0.932 . S
H317 C307 0.930 . S
H318 C308 0.932 . S
H319 C309 0.929 . S
Tb320 C329 2.764 . S
Tb320 O330 2.325 . S
Tb320 O333 2.303 . S
Tb320 O337 2.322 . S
Tb320 O338 2.349 . S
Tb320 O341 2.415 . S
Tb320 O342 2.399 . S
Tb321 O331 2.322 . S
Tb321 O332 2.349 . S
Tb321 O334 2.415 . S
Tb321 O335 2.399 . S
Tb321 O336 2.325 . S
Tb321 O339 2.303 . S
Tb321 C350 2.764 . S
C322 O338 1.261 . S
C322 O339 1.257 . S
C323 C326 1.358 . S
C323 C327 1.332 . S
C323 C329 1.504 . S
C324 C325 1.373 . S
C324 C328 1.308 . S
C325 C324 1.373 . S
C325 C326 1.429 . S
C325 H352 0.932 . S
C326 C323 1.358 . S
C326 C325 1.429 . S
C326 H353 0.930 . S
C327 C323 1.332 . S
C327 C328 1.394 . S
C327 H354 0.932 . S
C328 C324 1.308 . S
C328 C327 1.394 . S
C328 H355 0.929 . S
C329 Tb320 2.764 . S
C329 C323 1.504 . S
C329 O341 1.239 . S
C329 O342 1.263 . S
O330 Tb320 2.325 . S
O330 C340 1.236 . S
O331 Tb321 2.322 . S
O331 C340 1.257 . S
O332 Tb321 2.349 . S
O332 C343 1.261 . S
O333 Tb320 2.303 . S
O333 C343 1.257 . S
O334 Tb321 2.415 . S
O334 C350 1.239 . S
O335 Tb321 2.399 . S
O335 C350 1.263 . S
O336 Tb321 2.325 . S
O336 C351 1.236 . S
O337 Tb320 2.322 . S
O337 C351 1.257 . S
O338 Tb320 2.349 . S
O338 C322 1.261 . S
O339 Tb321 2.303 . S
O339 C322 1.257 . S
C340 O330 1.236 . S
C340 O331 1.257 . S
O341 Tb320 2.415 . S
O341 C329 1.239 . S
O342 Tb320 2.399 . S
O342 C329 1.263 . S
C343 O332 1.261 . S
C343 O333 1.257 . S
C344 C347 1.358 . S
C344 C348 1.332 . S
C344 C350 1.504 . S
C345 C346 1.373 . S
C345 C349 1.308 . S
C346 C345 1.373 . S
C346 C347 1.429 . S
C346 H356 0.932 1_455 S
C347 C344 1.358 . S
C347 C346 1.429 . S
C347 H357 0.930 . S
C348 C344 1.332 . S
C348 C349 1.394 . S
C348 H358 0.932 . S
C349 C345 1.308 . S
C349 C348 1.394 . S
C349 H359 0.929 1_554 S
C350 Tb321 2.764 . S
C350 O334 1.239 . S
C350 O335 1.263 . S
C350 C344 1.504 . S
C351 O336 1.236 . S
C351 O337 1.257 . S
H352 C325 0.932 . S
H353 C326 0.930 . S
H354 C327 0.932 . S
H355 C328 0.929 . S
H356 C346 0.932 1_655 S
H357 C347 0.930 . S
H358 C348 0.932 . S
H359 C349 0.929 1_556 S
Tb360 C369 2.764 . S
Tb360 O370 2.325 . S
Tb360 O373 2.303 . S
Tb360 O377 2.322 . S
Tb360 O378 2.349 1_545 S
Tb360 O381 2.415 . S
Tb360 O382 2.399 . S
Tb361 O371 2.322 . S
Tb361 O372 2.349 1_565 S
Tb361 O374 2.415 . S
Tb361 O375 2.399 . S
Tb361 O376 2.325 . S
Tb361 O379 2.303 . S
Tb361 C390 2.764 . S
C362 O378 1.261 . S
C362 O379 1.257 . S
C363 C366 1.358 . S
C363 C367 1.332 . S
C363 C369 1.504 . S
C364 C365 1.373 . S
C364 C368 1.308 1_455 S
C365 C364 1.373 . S
C365 C366 1.429 1_455 S
C365 H392 0.932 . S
C366 C363 1.358 . S
C366 C365 1.429 1_655 S
C366 H393 0.930 . S
C367 C363 1.332 . S
C367 C368 1.394 . S
C367 H394 0.932 . S
C368 C364 1.308 1_655 S
C368 C367 1.394 . S
C368 H395 0.929 . S
C369 Tb360 2.764 . S
C369 C363 1.504 . S
C369 O381 1.239 . S
C369 O382 1.263 . S
O370 Tb360 2.325 . S
O370 C380 1.236 1_545 S
O371 Tb361 2.322 . S
O371 C380 1.257 . S
O372 Tb361 2.349 1_545 S
O372 C383 1.261 . S
O373 Tb360 2.303 . S
O373 C383 1.257 . S
O374 Tb361 2.415 . S
O374 C390 1.239 . S
O375 Tb361 2.399 . S
O375 C390 1.263 . S
O376 Tb361 2.325 . S
O376 C391 1.236 1_565 S
O377 Tb360 2.322 . S
O377 C391 1.257 . S
O378 Tb360 2.349 1_565 S
O378 C362 1.261 . S
O379 Tb361 2.303 . S
O379 C362 1.257 . S
C380 O370 1.236 1_565 S
C380 O371 1.257 . S
O381 Tb360 2.415 . S
O381 C369 1.239 . S
O382 Tb360 2.399 . S
O382 C369 1.263 . S
C383 O372 1.261 . S
C383 O373 1.257 . S
C384 C387 1.358 . S
C384 C388 1.332 . S
C384 C390 1.504 . S
C385 C386 1.373 . S
C385 C389 1.308 . S
C386 C385 1.373 . S
C386 C387 1.429 . S
C386 H396 0.932 . S
C387 C384 1.358 . S
C387 C386 1.429 . S
C387 H397 0.930 . S
C388 C384 1.332 . S
C388 C389 1.394 . S
C388 H398 0.932 . S
C389 C385 1.308 . S
C389 C388 1.394 . S
C389 H399 0.929 1_556 S
C390 Tb361 2.764 . S
C390 O374 1.239 . S
C390 O375 1.263 . S
C390 C384 1.504 . S
C391 O376 1.236 1_545 S
C391 O377 1.257 . S
H392 C365 0.932 . S
H393 C366 0.930 . S
H394 C367 0.932 . S
H395 C368 0.929 . S
H396 C386 0.932 . S
H397 C387 0.930 . S
H398 C388 0.932 . S
H399 C389 0.929 1_554 S
Tb400 C409 2.764 . S
Tb400 O410 2.325 . S
Tb400 O413 2.303 . S
Tb400 O417 2.322 . S
Tb400 O418 2.349 1_565 S
Tb400 O421 2.415 . S
Tb400 O422 2.399 . S
Tb401 O411 2.322 . S
Tb401 O412 2.349 1_545 S
Tb401 O414 2.415 . S
Tb401 O415 2.399 . S
Tb401 O416 2.325 . S
Tb401 O419 2.303 . S
Tb401 C430 2.764 . S
C402 O418 1.261 . S
C402 O419 1.257 . S
C403 C406 1.358 . S
C403 C407 1.332 . S
C403 C409 1.504 . S
C404 C405 1.373 . S
C404 C408 1.308 . S
C405 C404 1.373 . S
C405 C406 1.429 . S
C405 H432 0.932 . S
C406 C403 1.358 . S
C406 C405 1.429 . S
C406 H433 0.930 . S
C407 C403 1.332 . S
C407 C408 1.394 . S
C407 H434 0.932 . S
C408 C404 1.308 . S
C408 C407 1.394 . S
C408 H435 0.929 . S
C409 Tb400 2.764 . S
C409 C403 1.504 . S
C409 O421 1.239 . S
C409 O422 1.263 . S
O410 Tb400 2.325 . S
O410 C420 1.236 1_565 S
O411 Tb401 2.322 . S
O411 C420 1.257 . S
O412 Tb401 2.349 1_565 S
O412 C423 1.261 . S
O413 Tb400 2.303 . S
O413 C423 1.257 . S
O414 Tb401 2.415 . S
O414 C430 1.239 . S
O415 Tb401 2.399 . S
O415 C430 1.263 . S
O416 Tb401 2.325 . S
O416 C431 1.236 1_545 S
O417 Tb400 2.322 . S
O417 C431 1.257 . S
O418 Tb400 2.349 1_545 S
O418 C402 1.261 . S
O419 Tb401 2.303 . S
O419 C402 1.257 . S
C420 O410 1.236 1_545 S
C420 O411 1.257 . S
O421 Tb400 2.415 . S
O421 C409 1.239 . S
O422 Tb400 2.399 . S
O422 C409 1.263 . S
C423 O412 1.261 . S
C423 O413 1.257 . S
C424 C427 1.358 . S
C424 C428 1.332 . S
C424 C430 1.504 . S
C425 C426 1.373 . S
C425 C429 1.308 . S
C426 C425 1.373 . S
C426 C427 1.429 . S
C426 H436 0.932 . S
C427 C424 1.358 . S
C427 C426 1.429 . S
C427 H437 0.930 . S
C428 C424 1.332 . S
C428 C429 1.394 . S
C428 H438 0.932 . S
C429 C425 1.308 . S
C429 C428 1.394 . S
C429 H439 0.929 . S
C430 Tb401 2.764 . S
C430 O414 1.239 . S
C430 O415 1.263 . S
C430 C424 1.504 . S
C431 O416 1.236 1_565 S
C431 O417 1.257 . S
H432 C405 0.932 . S
H433 C406 0.930 . S
H434 C407 0.932 . S
H435 C408 0.929 . S
H436 C426 0.932 . S
H437 C427 0.930 . S
H438 C428 0.932 . S
H439 C429 0.929 . S
Tb440 C449 2.764 . S
Tb440 O450 2.325 . S
Tb440 O453 2.303 . S
Tb440 O457 2.322 . S
Tb440 O458 2.349 . S
Tb440 O461 2.415 . S
Tb440 O462 2.399 . S
Tb441 O451 2.322 . S
Tb441 O452 2.349 . S
Tb441 O454 2.415 . S
Tb441 O455 2.399 . S
Tb441 O456 2.325 . S
Tb441 O459 2.303 . S
Tb441 C470 2.764 . S
C442 O458 1.261 . S
C442 O459 1.257 . S
C443 C446 1.358 . S
C443 C447 1.332 . S
C443 C449 1.504 . S
C444 C445 1.373 . S
C444 C448 1.308 . S
C445 C444 1.373 . S
C445 C446 1.429 . S
C445 H472 0.932 . S
C446 C443 1.358 . S
C446 C445 1.429 . S
C446 H473 0.930 . S
C447 C443 1.332 . S
C447 C448 1.394 . S
C447 H474 0.932 . S
C448 C444 1.308 . S
C448 C447 1.394 . S
C448 H475 0.929 . S
C449 Tb440 2.764 . S
C449 C443 1.504 . S
C449 O461 1.239 . S
C449 O462 1.263 . S
O450 Tb440 2.325 . S
O450 C460 1.236 . S
O451 Tb441 2.322 . S
O451 C460 1.257 . S
O452 Tb441 2.349 . S
O452 C463 1.261 . S
O453 Tb440 2.303 . S
O453 C463 1.257 . S
O454 Tb441 2.415 . S
O454 C470 1.239 . S
O455 Tb441 2.399 . S
O455 C470 1.263 . S
O456 Tb441 2.325 . S
O456 C471 1.236 . S
O457 Tb440 2.322 . S
O457 C471 1.257 . S
O458 Tb440 2.349 . S
O458 C442 1.261 . S
O459 Tb441 2.303 . S
O459 C442 1.257 . S
C460 O450 1.236 . S
C460 O451 1.257 . S
O461 Tb440 2.415 . S
O461 C449 1.239 . S
O462 Tb440 2.399 . S
O462 C449 1.263 . S
C463 O452 1.261 . S
C463 O453 1.257 . S
C464 C467 1.358 . S
C464 C468 1.332 . S
C464 C470 1.504 . S
C465 C466 1.373 . S
C465 C469 1.308 . S
C466 C465 1.373 . S
C466 C467 1.429 . S
C466 H476 0.932 . S
C467 C464 1.358 . S
C467 C466 1.429 . S
C467 H477 0.930 . S
C468 C464 1.332 . S
C468 C469 1.394 . S
C468 H478 0.932 . S
C469 C465 1.308 . S
C469 C468 1.394 . S
C469 H479 0.929 . S
C470 Tb441 2.764 . S
C470 O454 1.239 . S
C470 O455 1.263 . S
C470 C464 1.504 . S
C471 O456 1.236 . S
C471 O457 1.257 . S
H472 C445 0.932 . S
H473 C446 0.930 . S
H474 C447 0.932 . S
H475 C448 0.929 . S
H476 C466 0.932 . S
H477 C467 0.930 . S
H478 C468 0.932 . S
H479 C469 0.929 . S
C20 C460 1.959 . S
C380 C42 3.053 . S
C100 C322 2.681 . S
C122 C420 2.544 . S
C180 C402 2.639 . S
C220 C442 2.619 . S
C362 C242 3.213 . S
C282 C340 2.076 . S
C140 C162 2.883 . S
C2 C202 2.943 . S
C60 C260 2.317 . S
C300 C82 3.246 . S
C4 C343 3.342 . S
C65 C431 1.395 . S
C471 C84 3.712 . S
C145 C391 2.253 1_554 S
C164 C383 3.388 1_565 S
C351 C204 4.074 1_554 S
C423 C265 1.830 . S
C463 C305 1.615 . S
C23 C124 3.320 . S
C25 C71 1.684 1_545 S
C44 C103 3.377 1_554 S
C151 C105 1.533 1_545 S
C225 C183 2.539 . S
C223 C244 3.268 . S
C271 C284 3.666 1_554 S
C185 C311 2.417 . S
C324 C143 3.863 . S
C231 C364 4.016 1_655 S
C345 C263 1.981 1_455 S
C404 C303 2.727 . S
C191 C444 3.324 . S
C465 C63 1.841 . S
C111 C385 1.946 . S
C425 C31 2.023 1_655 S
