# Generated by pormake.
# Topology snk, (6)-cn, num edge types: 1
# Building blocks:
#     Node 0, Type 0, BuildingBlock: KUMJIN_clean_sbu_0, # of connection points: 6
#     Node 1, Type 0, BuildingBlock: KUMJIN_clean_sbu_0, # of connection points: 6
#     Node 2, Type 0, BuildingBlock: KUMJIN_clean_sbu_0, # of connection points: 6
#     Node 3, Type 0, BuildingBlock: KUMJIN_clean_sbu_0, # of connection points: 6
#     Node 4, Type 0, BuildingBlock: KUMJIN_clean_sbu_0, # of connection points: 6
#     Node 5, Type 0, BuildingBlock: KUMJIN_clean_sbu_0, # of connection points: 6
#     Node 6, Type 0, BuildingBlock: KUMJIN_clean_sbu_0, # of connection points: 6
#     Node 7, Type 0, BuildingBlock: KUMJIN_clean_sbu_0, # of connection points: 6
#     Edge 8, Type (0, 0), BuildingBlock: EZIPEK_clean_linker_0, # of connection points: 2
#     Edge 9, Type (0, 0), BuildingBlock: EZIPEK_clean_linker_0, # of connection points: 2
#     Edge 10, Type (0, 0), BuildingBlock: EZIPEK_clean_linker_0, # of connection points: 2
#     Edge 11, Type (0, 0), BuildingBlock: EZIPEK_clean_linker_0, # of connection points: 2
#     Edge 12, Type (0, 0), BuildingBlock: EZIPEK_clean_linker_0, # of connection points: 2
#     Edge 13, Type (0, 0), BuildingBlock: EZIPEK_clean_linker_0, # of connection points: 2
#     Edge 14, Type (0, 0), BuildingBlock: EZIPEK_clean_linker_0, # of connection points: 2
#     Edge 15, Type (0, 0), BuildingBlock: EZIPEK_clean_linker_0, # of connection points: 2
#     Edge 16, Type (0, 0), BuildingBlock: EZIPEK_clean_linker_0, # of connection points: 2
#     Edge 17, Type (0, 0), BuildingBlock: EZIPEK_clean_linker_0, # of connection points: 2
#     Edge 18, Type (0, 0), BuildingBlock: EZIPEK_clean_linker_0, # of connection points: 2
#     Edge 19, Type (0, 0), BuildingBlock: EZIPEK_clean_linker_0, # of connection points: 2
#     Edge 20, Type (0, 0), BuildingBlock: EZIPEK_clean_linker_0, # of connection points: 2
#     Edge 21, Type (0, 0), BuildingBlock: EZIPEK_clean_linker_0, # of connection points: 2
#     Edge 22, Type (0, 0), BuildingBlock: EZIPEK_clean_linker_0, # of connection points: 2
#     Edge 23, Type (0, 0), BuildingBlock: EZIPEK_clean_linker_0, # of connection points: 2
#     Edge 24, Type (0, 0), BuildingBlock: EZIPEK_clean_linker_0, # of connection points: 2
#     Edge 25, Type (0, 0), BuildingBlock: EZIPEK_clean_linker_0, # of connection points: 2
#     Edge 26, Type (0, 0), BuildingBlock: EZIPEK_clean_linker_0, # of connection points: 2
#     Edge 27, Type (0, 0), BuildingBlock: EZIPEK_clean_linker_0, # of connection points: 2
#     Edge 28, Type (0, 0), BuildingBlock: EZIPEK_clean_linker_0, # of connection points: 2
#     Edge 29, Type (0, 0), BuildingBlock: EZIPEK_clean_linker_0, # of connection points: 2
#     Edge 30, Type (0, 0), BuildingBlock: EZIPEK_clean_linker_0, # of connection points: 2
#     Edge 31, Type (0, 0), BuildingBlock: EZIPEK_clean_linker_0, # of connection points: 2
# Relax obj value: 0.002
# Max RMSD: 0.037
# Mean RMSD: 0.036
data_MOF--net-snk--node1-KUMJIN_clean_sbu_0--edge1-EZIPEK_clean_linker_0
_symmetry_space_group_name_H-M    P1
_symmetry_Int_Tables_number       1
_symmetry_cell_setting            triclinic
loop_
_symmetry_equiv_pos_as_xyz
'x, y, z'
_cell_length_a     26.99944
_cell_length_b     26.908518
_cell_length_c     20.14416
_cell_angle_alpha  88.379841
_cell_angle_beta   88.026876
_cell_angle_gamma 90.179541
loop_
_atom_site_label
_atom_site_type_symbol
_atom_site_fract_x
_atom_site_fract_y
_atom_site_fract_z
_atom_type_partial_charge
Eu0 Eu 0.99389 0.96582 0.46605 0.0
C1 C 0.99889 0.15928 0.64668 0.0
C2 C 0.08196 0.19425 0.64093 0.0
C3 C 0.01459 0.24006 0.69356 0.0
C4 C 0.0487 0.15525 0.62836 0.0
C5 C 0.9814 0.20167 0.67979 0.0
C6 C 0.06463 0.23657 0.67361 0.0
C7 C 0.90006 0.16382 0.68734 0.0
N8 N 0.96825 0.12034 0.63642 0.0
C9 C 0.9195 0.12181 0.65673 0.0
C10 C 0.93129 0.20364 0.69979 0.0
Eu11 Eu 0.00791 0.04493 0.61107 0.0
N12 N 0.06551 0.11137 0.60477 0.0
C13 C 0.11494 0.10424 0.59232 0.0
C14 C 0.13222 0.18824 0.62397 0.0
C15 C 0.14877 0.14306 0.59926 0.0
H16 H 0.89594 0.08993 0.65102 0.0
H17 H 0.18784 0.13737 0.58835 0.0
H18 H 0.08974 0.26652 0.68444 0.0
H19 H 0.86137 0.16482 0.70315 0.0
H20 H 0.12846 0.06795 0.57926 0.0
H21 H 0.8161 0.87053 0.49943 0.0
H22 H 0.1587 0.21749 0.63241 0.0
H23 H 0.10095 0.92473 0.39197 0.0
H24 H 0.87658 0.93794 0.50927 0.0
H25 H 0.12904 0.85559 0.3252 0.0
H26 H 0.00185 0.27274 0.71923 0.0
H27 H 0.83984 0.79533 0.43834 0.0
H28 H 0.90335 0.7514 0.36845 0.0
H29 H 0.9164 0.23569 0.72492 0.0
H30 H 0.98785 0.74822 0.31933 0.0
N31 N 0.93702 0.89806 0.46747 0.0
C32 C 0.88886 0.90363 0.48864 0.0
C33 C 0.86734 0.82378 0.4463 0.0
C34 C 0.91557 0.81993 0.41961 0.0
C35 C 0.8539 0.86598 0.48097 0.0
C36 C 0.95034 0.85763 0.43247 0.0
H37 H 0.07216 0.78631 0.30401 0.0
N38 N 0.02907 0.89414 0.41556 0.0
C39 C 0.09192 0.85514 0.34727 0.0
C40 C 0.99765 0.85595 0.40483 0.0
C41 C 0.07559 0.89443 0.38621 0.0
C42 C 0.05976 0.81617 0.33534 0.0
C43 C 0.01181 0.81641 0.36353 0.0
O44 O 0.01181 0.99437 0.36511 0.0
O45 O 0.02944 0.03674 0.50267 0.0
O46 O 0.95579 0.08391 0.53675 0.0
O47 O 0.92619 0.01286 0.49012 0.0
O48 O 0.0705 0.99655 0.43686 0.0
O49 O 0.93529 0.98331 0.39743 0.0
O50 O 0.98526 0.0324 0.71525 0.0
O51 O 0.97286 0.97551 0.57435 0.0
O52 O 0.04012 0.92047 0.53968 0.0
O53 O 0.07041 0.98679 0.59946 0.0
O54 O 0.94098 0.00446 0.65846 0.0
O55 O 0.06321 0.04424 0.6882 0.0
C56 C 0.07103 0.03665 0.47 0.0
C57 C 0.95582 0.97154 0.28391 0.0
C58 C 0.96207 0.97565 0.16327 0.0
C59 C 0.972 0.99597 0.22474 0.0
C60 C 0.93769 0.9297 0.16096 0.0
C61 C 0.93027 0.92609 0.281 0.0
C62 C 0.92213 0.9049 0.21982 0.0
C63 C 0.92493 0.0615 0.49661 0.0
C64 C 0.96583 0.99424 0.34768 0.0
C65 C 0.97755 0.77878 0.3508 0.0
C66 C 0.92951 0.78053 0.37883 0.0
C67 C 0.93826 0.96782 0.61907 0.0
C68 C 0.03402 0.0687 0.79622 0.0
C69 C 0.01669 0.04821 0.85742 0.0
C70 C 0.01874 0.07584 0.91525 0.0
C71 C 0.03623 0.12496 0.91148 0.0
C72 C 0.05431 0.1168 0.79384 0.0
C73 C 0.05396 0.14532 0.85075 0.0
C74 C 0.06986 0.93862 0.58499 0.0
C75 C 0.02985 0.0388 0.73652 0.0
H76 H 0.99169 0.03107 0.22636 0.0
H77 H 0.93079 0.91322 0.11369 0.0
H78 H 0.91637 0.90703 0.32567 0.0
H79 H 0.90351 0.86934 0.21811 0.0
H80 H 0.0023 0.01048 0.86038 0.0
H81 H 0.0375 0.14683 0.95572 0.0
H82 H 0.07092 0.13219 0.74871 0.0
H83 H 0.0685 0.18289 0.84801 0.0
Eu84 Eu 0.28788 0.75029 0.72312 0.0
C85 C 0.08425 0.71647 0.86245 0.0
C86 C 0.04112 0.79343 0.8409 0.0
C87 C 0.99691 0.71486 0.8393 0.0
C88 C 0.08498 0.76744 0.85401 0.0
C89 C 0.03987 0.6896 0.85741 0.0
C90 C 0.99785 0.76663 0.82888 0.0
C91 C 0.08403 0.61526 0.88903 0.0
N92 N 0.12738 0.69327 0.87634 0.0
C93 C 0.12755 0.64342 0.89187 0.0
C94 C 0.04009 0.63831 0.8708 0.0
Eu95 Eu 0.20062 0.74332 0.86766 0.0
N96 N 0.12798 0.79184 0.8634 0.0
C97 C 0.12755 0.84154 0.87378 0.0
C98 C 0.04156 0.84525 0.84481 0.0
C99 C 0.08406 0.86889 0.86614 0.0
H100 H 0.16123 0.62475 0.90497 0.0
H101 H 0.08369 0.90819 0.87591 0.0
H102 H 0.96433 0.78574 0.81535 0.0
H103 H 0.08459 0.57569 0.89992 0.0
H104 H 0.16065 0.86004 0.88816 0.0
H105 H 0.36522 0.56545 0.68194 0.0
H106 H 0.00859 0.86686 0.83584 0.0
H107 H 0.35327 0.85586 0.69397 0.0
H108 H 0.30049 0.62946 0.68366 0.0
H109 H 0.44016 0.88514 0.69903 0.0
H110 H 0.96245 0.6948 0.83606 0.0
H111 H 0.44942 0.58508 0.71903 0.0
H112 H 0.50817 0.64882 0.76243 0.0
H113 H 0.00657 0.61633 0.86781 0.0
H114 H 0.52992 0.73757 0.76279 0.0
N115 N 0.34732 0.68556 0.72048 0.0
C116 C 0.33699 0.63897 0.69946 0.0
C117 C 0.42111 0.61355 0.71932 0.0
C118 C 0.43192 0.66198 0.73758 0.0
C119 C 0.37378 0.60244 0.69796 0.0
C120 C 0.39448 0.69809 0.73357 0.0
H121 H 0.50597 0.82608 0.73049 0.0
N122 N 0.37048 0.78101 0.72056 0.0
C123 C 0.43113 0.84641 0.70936 0.0
C124 C 0.40658 0.74772 0.73335 0.0
C125 C 0.38214 0.82971 0.70608 0.0
C126 C 0.46818 0.81299 0.72748 0.0
C127 C 0.45617 0.76282 0.73938 0.0
O128 O 0.2987 0.78794 0.62576 0.0
O129 O 0.21363 0.77642 0.76266 0.0
O130 O 0.16535 0.70541 0.78552 0.0
O131 O 0.23516 0.68349 0.72317 0.0
O132 O 0.25641 0.82776 0.71013 0.0
O133 O 0.26817 0.71343 0.63265 0.0
O134 O 0.21219 0.70831 0.96465 0.0
O135 O 0.27598 0.72151 0.82776 0.0
O136 O 0.31791 0.79649 0.80405 0.0
O137 O 0.24887 0.81217 0.8721 0.0
O138 O 0.23736 0.66819 0.88239 0.0
O139 O 0.19668 0.78726 0.95754 0.0
C140 C 0.21341 0.82107 0.73886 0.0
C141 C 0.30756 0.73774 0.53085 0.0
C142 C 0.30169 0.72484 0.41234 0.0
C143 C 0.28008 0.73897 0.4731 0.0
C144 C 0.35136 0.70949 0.40955 0.0
C145 C 0.35714 0.72232 0.52796 0.0
C146 C 0.37894 0.70834 0.46725 0.0
C147 C 0.18694 0.68134 0.73728 0.0
C148 C 0.28225 0.75041 0.59344 0.0
C149 C 0.49202 0.72697 0.75484 0.0
C150 C 0.47971 0.67636 0.75441 0.0
C151 C 0.2789 0.67746 0.85151 0.0
C152 C 0.17805 0.74464 0.06035 0.0
C153 C 0.20491 0.74149 0.11859 0.0
C154 C 0.18043 0.73426 0.18057 0.0
C155 C 0.12854 0.73028 0.18405 0.0
C156 C 0.12623 0.74089 0.06402 0.0
C157 C 0.10163 0.73394 0.12589 0.0
C158 C 0.29598 0.81936 0.85428 0.0
C159 C 0.20573 0.74921 0.99675 0.0
H160 H 0.24158 0.75052 0.47541 0.0
H161 H 0.36861 0.69848 0.36292 0.0
H162 H 0.37864 0.72078 0.57242 0.0
H163 H 0.41719 0.69637 0.46498 0.0
H164 H 0.24505 0.74419 0.11575 0.0
H165 H 0.10908 0.72436 0.23153 0.0
H166 H 0.10504 0.74295 1.0193 0.0
H167 H 0.06167 0.73128 0.12864 0.0
Eu168 Eu 0.51006 0.9579 0.10469 0.0
C169 C 0.46048 0.15654 1.00788 0.0
C170 C 0.37112 0.15593 1.00819 0.0
C171 C 0.41439 0.22615 0.05236 0.0
C172 C 0.41686 0.13215 0.99669 0.0
C173 C 0.45985 0.20506 0.03239 0.0
C174 C 0.36998 0.20177 0.03972 0.0
C175 C 0.54643 0.21233 0.99912 0.0
N176 N 0.50306 0.13545 0.98566 0.0
C177 C 0.54492 0.16397 0.97554 0.0
C178 C 0.50421 0.23224 0.03027 0.0
Eu179 Eu 0.49868 0.04851 0.96659 0.0
N180 N 0.4196 0.08796 0.96624 0.0
C181 C 0.37931 0.0708 0.93421 0.0
C182 C 0.32852 0.13432 0.98394 0.0
C183 C 0.33292 0.09278 0.94423 0.0
H184 H 0.57815 0.14818 0.95333 0.0
H185 H 0.30062 0.07761 0.92157 0.0
H186 H 0.33527 0.22029 0.05038 0.0
H187 H 0.58026 0.23395 0.99402 0.0
H188 H 0.38227 0.03957 0.90177 0.0
H189 H 0.68834 0.87323 0.03957 0.0
H190 H 0.29264 0.15092 0.99211 0.0
H191 H 0.40717 0.90068 0.16929 0.0
H192 H 0.63251 0.93973 0.07554 0.0
H193 H 0.36811 0.81748 0.16678 0.0
H194 H 0.41265 0.26294 0.07219 0.0
H195 H 0.65502 0.78807 1.02629 0.0
H196 H 0.58119 0.73103 0.03029 0.0
H197 H 0.50558 0.2698 0.04778 0.0
H198 H 0.49426 0.71646 0.0645 0.0
N199 N 0.56872 0.89398 0.08403 0.0
C200 C 0.61787 0.9031 0.07145 0.0
C201 C 0.63092 0.8173 0.04392 0.0
C202 C 0.58096 0.80776 0.05974 0.0
C203 C 0.6497 0.86514 0.05106 0.0
C204 C 0.55101 0.84696 0.08272 0.0
H205 H 0.41383 0.74804 0.11527 0.0
N206 N 0.47473 0.87756 0.12234 0.0
C207 C 0.40575 0.82304 0.1477 0.0
C208 C 0.502 0.83873 0.10086 0.0
C209 C 0.42813 0.86994 0.14967 0.0
C210 C 0.43177 0.78385 0.11891 0.0
C211 C 0.48093 0.79122 0.09631 0.0
O212 O 0.48266 0.96715 0.20715 0.0
O213 O 0.48172 0.03373 0.0747 0.0
O214 O 0.5564 0.07663 0.03444 0.0
O215 O 0.57748 0.00828 0.1004 0.0
O216 O 0.43463 0.98845 0.13278 0.0
O217 O 0.56117 0.95893 0.18671 0.0
O218 O 0.5257 0.08781 0.87543 0.0
O219 O 0.52746 0.97216 0.99369 0.0
O220 O 0.4528 0.92563 0.04018 0.0
O221 O 0.43535 0.99232 0.96788 0.0
O222 O 0.57706 0.02166 0.95153 0.0
O223 O 0.48863 0.01733 0.86899 0.0
C224 C 0.43932 0.03176 0.10445 0.0
C225 C 0.53059 0.93915 0.29662 0.0
C226 C 0.52506 0.94206 0.41773 0.0
C227 C 0.52182 0.96576 0.35498 0.0
C228 C 0.5376 0.89151 0.42162 0.0
C229 C 0.54276 0.88856 0.30121 0.0
C230 C 0.54633 0.86496 0.36364 0.0
C231 C 0.5834 0.05491 0.08003 0.0
C232 C 0.52636 0.96535 0.23206 0.0
C233 C 0.50961 0.75298 0.06904 0.0
C234 C 0.55947 0.76115 0.05062 0.0
C235 C 0.5702 0.97495 0.96441 0.0
C236 C 0.48919 0.06946 0.77268 0.0
C237 C 0.50078 0.04195 0.71585 0.0
C238 C 0.48141 0.05559 0.65413 0.0
C239 C 0.45036 0.09721 0.64957 0.0
C240 C 0.45795 0.11086 0.7675 0.0
C241 C 0.43877 0.12465 0.70602 0.0
C242 C 0.42658 0.94739 0.99387 0.0
C243 C 0.51048 0.05381 0.83618 0.0
H244 H 0.51217 0.00484 0.35166 0.0
H245 H 0.54044 0.8727 0.46946 0.0
H246 H 0.5494 0.86747 0.25675 0.0
H247 H 0.55568 0.82592 0.36715 0.0
H248 H 0.52475 0.00978 0.71962 0.0
H249 H 0.43509 0.10832 0.6024 0.0
H250 H 0.44849 0.13241 0.81076 0.0
H251 H 0.41478 0.15666 0.70208 0.0
Eu252 Eu 0.28281 0.26399 0.35187 0.0
C253 C 0.10592 0.24344 0.14187 0.0
C254 C 0.07669 0.15824 0.14732 0.0
C255 C 0.03295 0.22017 0.08189 0.0
C256 C 0.11091 0.19505 0.16485 0.0
C257 C 0.06659 0.25676 0.10059 0.0
C258 C 0.038 0.17097 0.10523 0.0
C259 C 0.09548 0.34171 0.10162 0.0
N260 N 0.13946 0.27752 0.1603 0.0
C261 C 0.1346 0.32639 0.14107 0.0
C262 C 0.06173 0.30662 0.08044 0.0
Eu263 Eu 0.2135 0.24468 0.20437 0.0
N264 N 0.14979 0.18381 0.20338 0.0
C265 C 0.15682 0.13606 0.22516 0.0
C266 C 0.08287 0.10961 0.17183 0.0
C267 C 0.12297 0.09857 0.21142 0.0
H268 H 0.16118 0.35376 0.15522 0.0
H269 H 0.12889 0.06083 0.22936 0.0
H270 H 0.01156 0.14317 0.09098 0.0
H271 H 0.09187 0.38045 0.08665 0.0
H272 H 0.18969 0.12629 0.2505 0.0
H273 H 0.36596 0.44888 0.32928 0.0
H274 H 0.05741 0.08031 0.15965 0.0
H275 H 0.33698 0.15565 0.40138 0.0
H276 H 0.30586 0.38292 0.30761 0.0
H277 H 0.40488 0.12997 0.47268 0.0
H278 H 0.00255 0.22967 0.05024 0.0
H279 H 0.43697 0.43013 0.4001 0.0
H280 H 0.48189 0.36811 0.47126 0.0
H281 H 0.03164 0.31847 0.04957 0.0
H282 H 0.49075 0.28202 0.51362 0.0
N283 N 0.34535 0.32597 0.3567 0.0
C284 C 0.33821 0.37358 0.33433 0.0
C285 C 0.41157 0.40073 0.38832 0.0
C286 C 0.41754 0.35239 0.41392 0.0
C287 C 0.37176 0.41134 0.34805 0.0
C288 C 0.38378 0.31528 0.39614 0.0
H289 H 0.4627 0.19274 0.51349 0.0
N290 N 0.3565 0.23259 0.3992 0.0
C291 C 0.40072 0.16876 0.45831 0.0
C292 C 0.38908 0.26704 0.41908 0.0
C293 C 0.36227 0.18362 0.41741 0.0
C294 C 0.43316 0.20429 0.48147 0.0
C295 C 0.42789 0.25413 0.46146 0.0
O296 O 0.26503 0.24561 0.45687 0.0
O297 O 0.21491 0.22468 0.31481 0.0
O298 O 0.1657 0.29591 0.26935 0.0
O299 O 0.22857 0.32741 0.33143 0.0
O300 O 0.25594 0.18749 0.38401 0.0
O301 O 0.25309 0.32021 0.41743 0.0
O302 O 0.2318 0.26582 0.10075 0.0
O303 O 0.2823 0.28254 0.24135 0.0
O304 O 0.33047 0.21199 0.28711 0.0
O305 O 0.27003 0.18287 0.21905 0.0
O306 O 0.24317 0.31985 0.17091 0.0
O307 O 0.23348 0.18815 0.13297 0.0
C308 C 0.21721 0.1837 0.34937 0.0
C309 C 0.27204 0.31225 0.53107 0.0
C310 C 0.27155 0.31229 0.65191 0.0
C311 C 0.25727 0.29082 0.59285 0.0
C312 C 0.30133 0.35514 0.64913 0.0
C313 C 0.30203 0.35517 0.52886 0.0
C314 C 0.31673 0.37626 0.58769 0.0
C315 C 0.18199 0.32841 0.31228 0.0
C316 C 0.25284 0.29118 0.47027 0.0
C317 C 0.46073 0.29113 0.48112 0.0
C318 C 0.45575 0.34013 0.45698 0.0
C319 C 0.28159 0.32337 0.20633 0.0
C320 C 0.21206 0.20637 1.02115 0.0
C321 C 0.22505 0.23232 0.96151 0.0
C322 C 0.2062 0.21734 0.90112 0.0
C323 C 0.17382 0.17657 0.90055 0.0
C324 C 0.17954 0.16552 1.01975 0.0
C325 C 0.1604 0.15099 0.95976 0.0
C326 C 0.31582 0.18128 0.24085 0.0
C327 C 0.23628 0.21988 0.08269 0.0
H328 H 0.23405 0.25787 0.59508 0.0
H329 H 0.31264 0.37202 0.69442 0.0
H330 H 0.31348 0.3729 0.48195 0.0
H331 H 0.33972 0.40933 0.58562 0.0
H332 H 0.25098 0.26316 0.96169 0.0
H333 H 0.15997 0.164 0.85407 0.0
H334 H 0.16982 0.14404 0.06453 0.0
H335 H 0.13603 0.11907 0.95906 0.0
Eu336 Eu 0.80211 0.24763 0.20768 0.0
C337 C 0.5901 0.22417 0.35332 0.0
C338 C 0.54416 0.29985 0.33392 0.0
C339 C 0.50128 0.22031 0.34073 0.0
C340 C 0.58919 0.27505 0.34413 0.0
C341 C 0.54591 0.19624 0.35401 0.0
C342 C 0.50058 0.27189 0.32917 0.0
C343 C 0.5936 0.12309 0.3806 0.0
N344 N 0.63432 0.20201 0.3624 0.0
C345 C 0.63658 0.15236 0.37831 0.0
C346 C 0.54804 0.14503 0.36764 0.0
Eu347 Eu 0.7061 0.25277 0.34932 0.0
N348 N 0.63269 0.30022 0.34322 0.0
C349 C 0.63343 0.35091 0.33781 0.0
C350 C 0.54458 0.35179 0.32764 0.0
C351 C 0.58945 0.37744 0.33028 0.0
H352 H 0.67171 0.13494 0.38725 0.0
H353 H 0.59048 0.4175 0.32487 0.0
H354 H 0.46607 0.28993 0.31795 0.0
H355 H 0.59573 0.0836 0.39144 0.0
H356 H 0.66794 0.37114 0.33817 0.0
H357 H 0.92125 0.08747 0.24782 0.0
H358 H 0.51071 0.37229 0.31992 0.0
H359 H 0.83532 0.36326 0.15577 0.0
H360 H 0.8431 0.13093 0.22609 0.0
H361 H 0.90975 0.41704 0.15234 0.0
H362 H 0.46706 0.19938 0.34047 0.0
H363 H 0.99881 0.13555 0.25799 0.0
H364 H 0.04058 0.21976 0.26014 0.0
H365 H 0.51481 0.12227 0.36876 0.0
H366 H 0.03792 0.30924 0.22888 0.0
N367 N 0.87618 0.20281 0.22193 0.0
C368 C 0.87689 0.15222 0.22858 0.0
C369 C 0.96482 0.15472 0.24651 0.0
C370 C 0.9638 0.20656 0.23848 0.0
C371 C 0.9212 0.12741 0.24077 0.0
C372 C 0.91865 0.22949 0.22347 0.0
H373 H 0.98983 0.38293 0.18862 0.0
N374 N 0.87263 0.29994 0.19431 0.0
C375 C 0.91215 0.37862 0.16929 0.0
C376 C 0.91673 0.27986 0.20982 0.0
C377 C 0.87001 0.3481 0.1714 0.0
C378 C 0.95726 0.35924 0.18971 0.0
C379 C 0.95997 0.30911 0.20972 0.0
O380 O 0.78617 0.26592 0.10415 0.0
O381 O 0.72852 0.27801 0.24461 0.0
O382 O 0.68378 0.19965 0.26946 0.0
O383 O 0.76102 0.17552 0.22826 0.0
O384 O 0.75897 0.30946 0.15852 0.0
O385 O 0.80914 0.19152 0.13079 0.0
O386 O 0.72318 0.23059 0.45117 0.0
O387 O 0.77938 0.2224 0.31217 0.0
O388 O 0.82386 0.30319 0.28468 0.0
O389 O 0.746 0.32551 0.32665 0.0
O390 O 0.74682 0.18801 0.39522 0.0
O391 O 0.70677 0.30751 0.42857 0.0
C392 C 0.72067 0.31061 0.19832 0.0
C393 C 0.8248 0.22066 1.01858 0.0
C394 C 0.82509 0.22999 0.89729 0.0
C395 C 0.79943 0.22905 0.95932 0.0
C396 C 0.8765 0.22212 0.89498 0.0
C397 C 0.87622 0.213 1.01536 0.0
C398 C 0.90181 0.21364 0.95372 0.0
C399 C 0.71252 0.17102 0.23183 0.0
C400 C 0.79679 0.22203 0.08274 0.0
C401 C 0.0044 0.28722 0.22891 0.0
C402 C 0.00612 0.23619 0.24493 0.0
C403 C 0.78592 0.18825 0.35683 0.0
C404 C 0.69826 0.27846 0.54239 0.0
C405 C 0.72939 0.26938 0.59622 0.0
C406 C 0.71041 0.27034 0.66213 0.0
C407 C 0.65995 0.28062 0.67372 0.0
C408 C 0.64787 0.2882 0.55486 0.0
C409 C 0.62893 0.2893 0.62036 0.0
C410 C 0.79433 0.33185 0.32111 0.0
C411 C 0.71927 0.27497 0.4742 0.0
H412 H 0.75976 0.2354 0.96144 0.0
H413 H 0.89696 0.22265 0.84779 0.0
H414 H 0.89653 0.20685 0.06032 0.0
H415 H 0.94146 0.20766 0.95145 0.0
H416 H 0.76827 0.26114 0.58691 0.0
H417 H 0.64453 0.28138 0.72405 0.0
H418 H 0.62324 0.29451 0.51413 0.0
H419 H 0.58996 0.29653 0.62984 0.0
Eu420 Eu 0.78236 0.76398 0.85169 0.0
C421 C 0.60229 0.74447 0.64605 0.0
C422 C 0.57158 0.65988 0.6474 0.0
C423 C 0.52479 0.7257 0.5936 0.0
C424 C 0.60732 0.6952 0.66476 0.0
C425 C 0.56036 0.76062 0.61164 0.0
C426 C 0.53077 0.67527 0.61063 0.0
C427 C 0.59315 0.84415 0.61242 0.0
N428 N 0.63871 0.77657 0.66112 0.0
C429 C 0.63505 0.82589 0.64391 0.0
C430 C 0.55572 0.81129 0.59587 0.0
Eu431 Eu 0.71287 0.74081 0.70092 0.0
N432 N 0.64774 0.68166 0.69887 0.0
C433 C 0.65445 0.63316 0.71755 0.0
C434 C 0.57789 0.61022 0.66774 0.0
C435 C 0.61931 0.59692 0.70368 0.0
H436 H 0.66444 0.8513 0.65459 0.0
H437 H 0.62496 0.55855 0.71906 0.0
H438 H 0.50302 0.64869 0.59666 0.0
H439 H 0.59018 0.88338 0.59982 0.0
H440 H 0.68779 0.62202 0.74108 0.0
H441 H 0.8685 0.9471 0.83148 0.0
H442 H 0.55109 0.582 0.65596 0.0
H443 H 0.83277 0.65452 0.89948 0.0
H444 H 0.80833 0.88197 0.80626 0.0
H445 H 0.90016 0.62637 0.97107 0.0
H446 H 0.49253 0.7373 0.56669 0.0
H447 H 0.93709 0.92714 0.90613 0.0
H448 H 0.97935 0.86373 0.97886 0.0
H449 H 0.52348 0.82529 0.57096 0.0
H450 H 0.98734 0.7766 1.01783 0.0
N451 N 0.84635 0.82418 0.85573 0.0
C452 C 0.84021 0.87201 0.83369 0.0
C453 C 0.91201 0.89799 0.89219 0.0
C454 C 0.91704 0.84925 0.91697 0.0
C455 C 0.87359 0.90931 0.84977 0.0
C456 C 0.88371 0.81266 0.89652 0.0
H457 H 0.95877 0.68795 1.01339 0.0
N458 N 0.85513 0.73042 0.89747 0.0
C459 C 0.89703 0.6653 0.95682 0.0
C460 C 0.88799 0.76409 0.91864 0.0
C461 C 0.85921 0.68133 0.91561 0.0
C462 C 0.92992 0.70005 0.98096 0.0
C463 C 0.92572 0.75016 0.96197 0.0
O464 O 0.7589 0.74637 0.95471 0.0
O465 O 0.71673 0.72397 0.81116 0.0
O466 O 0.66709 0.79257 0.76718 0.0
O467 O 0.73009 0.82735 0.82581 0.0
O468 O 0.74897 0.69165 0.89255 0.0
O469 O 0.75806 0.82279 0.91741 0.0
O470 O 0.73197 0.7563 0.59576 0.0
O471 O 0.77795 0.78103 0.74174 0.0
O472 O 0.82917 0.71218 0.7855 0.0
O473 O 0.76502 0.67804 0.72883 0.0
O474 O 0.74908 0.81129 0.65713 0.0
O475 O 0.73786 0.68129 0.63718 0.0
C476 C 0.71375 0.68633 0.85194 0.0
C477 C 0.77286 0.80897 0.0324 0.0
C478 C 0.77602 0.79868 0.15287 0.0
C479 C 0.76006 0.78231 0.09158 0.0
C480 C 0.8048 0.84201 0.15492 0.0
C481 C 0.80219 0.85211 0.03522 0.0
C482 C 0.81793 0.86846 0.09625 0.0
C483 C 0.68335 0.82671 0.80776 0.0
C484 C 0.75263 0.79286 0.9693 0.0
C485 C 0.95824 0.78653 0.98424 0.0
C486 C 0.95379 0.83607 0.96191 0.0
C487 C 0.78333 0.81725 0.69908 0.0
C488 C 0.72309 0.68976 0.5216 0.0
C489 C 0.73551 0.7146 0.46096 0.0
C490 C 0.72313 0.6939 0.40052 0.0
C491 C 0.69835 0.64804 0.40074 0.0
C492 C 0.69738 0.64421 0.52111 0.0
C493 C 0.68516 0.62357 0.46088 0.0
C494 C 0.81248 0.67903 0.7435 0.0
C495 C 0.74127 0.7098 0.58375 0.0
H496 H 0.73711 0.74925 0.09017 0.0
H497 H 0.81657 0.85547 0.20202 0.0
H498 H 0.8123 0.87369 0.9906 0.0
H499 H 0.8398 0.90211 0.09812 0.0
H500 H 0.7557 0.74952 0.4606 0.0
H501 H 0.68932 0.63134 0.35437 0.0
H502 H 0.68754 0.62406 0.56699 0.0
H503 H 0.66593 0.58821 0.46081 0.0
Eu504 Eu 0.49589 0.45396 0.94985 0.0
C505 C 0.50677 0.64091 0.15717 0.0
C506 C 0.58988 0.675 0.15355 0.0
C507 C 0.52507 0.71405 0.22046 0.0
C508 C 0.55541 0.639 0.13453 0.0
C509 C 0.49067 0.67897 0.19945 0.0
C510 C 0.57457 0.71219 0.19725 0.0
C511 C 0.40752 0.64655 0.19355 0.0
N512 N 0.47508 0.60573 0.13701 0.0
C513 C 0.42559 0.6088 0.153 0.0
C514 C 0.44039 0.68105 0.21831 0.0
Eu515 Eu 0.51298 0.53321 0.09423 0.0
N516 N 0.56938 0.60076 0.09584 0.0
C517 C 0.6175 0.59668 0.07379 0.0
C518 C 0.63878 0.6721 0.12875 0.0
C519 C 0.65252 0.63296 0.08807 0.0
H520 H 0.39975 0.58189 0.13557 0.0
H521 H 0.69055 0.62954 0.07 0.0
H522 H 0.60048 0.74014 0.21228 0.0
H523 H 0.36836 0.64849 0.20664 0.0
H524 H 0.6297 0.56413 0.04821 0.0
H525 H 0.31388 0.3658 0.97272 0.0
H526 H 0.66625 0.6993 0.14165 0.0
H527 H 0.60705 0.40616 0.91233 0.0
H528 H 0.37475 0.43402 0.98082 0.0
H529 H 0.64053 0.32907 0.86437 0.0
H530 H 0.51351 0.74349 0.25311 0.0
H531 H 0.34141 0.28437 0.93141 0.0
H532 H 0.40974 0.23281 0.88232 0.0
H533 H 0.42641 0.70988 0.25035 0.0
H534 H 0.49779 0.2238 0.84989 0.0
N535 N 0.4369 0.38875 0.95784 0.0
C536 C 0.38754 0.39716 0.96924 0.0
C537 C 0.36855 0.31318 0.93928 0.0
C538 C 0.41879 0.3058 0.92332 0.0
C539 C 0.35288 0.35906 0.96263 0.0
C540 C 0.45281 0.3443 0.93508 0.0
H541 H 0.58421 0.25868 0.84499 0.0
N542 N 0.53409 0.37737 0.92705 0.0
C543 C 0.60175 0.33125 0.87944 0.0
C544 C 0.50266 0.33888 0.91773 0.0
C545 C 0.58291 0.37452 0.90753 0.0
C546 C 0.5698 0.29167 0.86839 0.0
C547 C 0.5195 0.29533 0.88684 0.0
O548 O 0.51773 0.46356 0.8444 0.0
O549 O 0.53242 0.52303 0.9854 0.0
O550 O 0.46732 0.57921 1.02227 0.0
O551 O 0.43518 0.51429 0.96286 0.0
O552 O 0.56276 0.49375 0.90069 0.0
O553 O 0.43991 0.45514 0.87472 0.0
O554 O 0.49602 0.50301 0.19458 0.0
O555 O 0.47468 0.4647 0.05711 0.0
O556 O 0.54708 0.41473 1.02493 0.0
O557 O 0.57952 0.48622 0.06647 0.0
O558 O 0.43785 0.5024 0.13022 0.0
O559 O 0.57199 0.51845 0.16371 0.0
C560 C 0.56642 0.53048 0.93985 0.0
C561 C 0.46373 0.43103 0.76507 0.0
C562 C 0.47034 0.42731 0.64446 0.0
C563 C 0.48085 0.45111 0.70344 0.0
C564 C 0.44355 0.38254 0.64724 0.0
C565 C 0.43604 0.38672 0.76713 0.0
C566 C 0.42671 0.36227 0.70854 0.0
C567 C 0.43748 0.5627 0.97646 0.0
C568 C 0.47229 0.4593 0.82514 0.0
C569 C 0.48557 0.25737 0.87391 0.0
C570 C 0.43544 0.26243 0.89255 0.0
C571 C 0.43465 0.46444 0.09313 0.0
C572 C 0.54937 0.52798 0.2777 0.0
C573 C 0.52973 0.50424 0.33575 0.0
C574 C 0.536 0.52524 0.39789 0.0
C575 C 0.56048 0.57103 0.4018 0.0
C576 C 0.57554 0.57288 0.28268 0.0
C577 C 0.58 0.59479 0.3442 0.0
C578 C 0.5794 0.43742 0.06262 0.0
C579 C 0.54166 0.50549 0.21291 0.0
H580 H 0.5012 0.486 0.70109 0.0
H581 H 0.43516 0.36379 0.60208 0.0
H582 H 0.42077 0.3715 0.81349 0.0
H583 H 0.40558 0.32803 0.71062 0.0
H584 H 0.51005 0.46924 0.33275 0.0
H585 H 0.56506 0.58788 0.44944 0.0
H586 H 0.59274 0.59097 0.23935 0.0
H587 H 0.59897 0.63007 0.34724 0.0
Eu588 Eu 0.00232 0.46452 0.58381 0.0
C589 C 0.01503 0.6745 0.4603 0.0
C590 C 0.94323 0.7106 0.51513 0.0
C591 C 0.0205 0.75742 0.50411 0.0
C592 C 0.96683 0.67015 0.48469 0.0
C593 C 0.04207 0.7187 0.46788 0.0
C594 C 0.97095 0.75357 0.52714 0.0
C595 C 0.10854 0.68329 0.40149 0.0
N596 N 0.03585 0.63475 0.43038 0.0
C597 C 0.08083 0.63947 0.39735 0.0
C598 C 0.0898 0.72244 0.43881 0.0
Eu599 Eu 0.99248 0.55781 0.44662 0.0
N600 N 0.94283 0.62642 0.47772 0.0
C601 C 0.8929 0.6235 0.48881 0.0
C602 C 0.8925 0.70671 0.53132 0.0
C603 C 0.86691 0.66352 0.5159 0.0
H604 H 0.09642 0.60886 0.37027 0.0
H605 H 0.82753 0.66035 0.52662 0.0
H606 H 0.95396 0.7848 0.55163 0.0
H607 H 0.14478 0.68643 0.37724 0.0
H608 H 0.87351 0.58965 0.47936 0.0
H609 H 0.18358 0.38166 0.53203 0.0
H610 H 0.87257 0.73714 0.55384 0.0
H611 H 0.89865 0.40434 0.64056 0.0
H612 H 0.1253 0.44741 0.56632 0.0
H613 H 0.86089 0.32105 0.63223 0.0
H614 H 0.0411 0.7912 0.51225 0.0
H615 H 0.15122 0.29819 0.5065 0.0
H616 H 0.07884 0.24063 0.50429 0.0
H617 H 0.11188 0.7558 0.44337 0.0
H618 H 0.9893 0.22438 0.52835 0.0
N619 N 0.06149 0.4022 0.56032 0.0
C620 C 0.11121 0.41121 0.55627 0.0
C621 C 0.12595 0.32701 0.52236 0.0
C622 C 0.07517 0.31737 0.53076 0.0
C623 C 0.14425 0.37391 0.53682 0.0
C624 C 0.04388 0.35579 0.55226 0.0
H625 H 0.90846 0.2537 0.57874 0.0
N626 N 0.96719 0.38367 0.59388 0.0
C627 C 0.89863 0.32769 0.61424 0.0
C628 C 0.99503 0.34612 0.56977 0.0
C629 C 0.92027 0.37469 0.6193 0.0
C630 C 0.92564 0.28971 0.58423 0.0
C631 C 0.97486 0.29837 0.56288 0.0
O632 O 0.97331 0.47014 0.68614 0.0
O633 O 0.97162 0.53973 0.5553 0.0
O634 O 0.05111 0.58662 0.51146 0.0
O635 O 0.06645 0.51919 0.5835 0.0
O636 O 0.92589 0.49121 0.61082 0.0
O637 O 0.05214 0.46323 0.66776 0.0
O638 O 0.00621 0.53213 0.34574 0.0
O639 O 0.02275 0.48322 0.47647 0.0
O640 O 0.94809 0.4351 0.51248 0.0
O641 O 0.92597 0.50551 0.45089 0.0
O642 O 0.06732 0.52838 0.41463 0.0
O643 O 0.94433 0.5804 0.36535 0.0
C644 C 0.92927 0.53568 0.58578 0.0
C645 C 0.02008 0.44283 0.77735 0.0
C646 C 0.01696 0.44711 0.89864 0.0
C647 C 0.01588 0.47071 0.83546 0.0
C648 C 0.02262 0.39528 0.90311 0.0
C649 C 0.0258 0.39112 0.78265 0.0
C650 C 0.02713 0.36755 0.84541 0.0
C651 C 0.07403 0.56541 0.5614 0.0
C652 C 0.01659 0.46875 0.71233 0.0
C653 C 0.00452 0.26107 0.53506 0.0
C654 C 0.05496 0.27038 0.52032 0.0
C655 C 0.06447 0.48527 0.44428 0.0
C656 C 0.97812 0.57824 0.25362 0.0
C657 C 0.9853 0.54685 0.19917 0.0
C658 C 0.99372 0.56696 0.13447 0.0
C659 C 0.99559 0.61878 0.12498 0.0
C660 C 0.97943 0.62997 0.24288 0.0
C661 C 0.98797 0.65002 0.17873 0.0
C662 C 0.92077 0.45778 0.46776 0.0
C663 C 0.96924 0.5557 0.3206 0.0
H664 H 0.01113 0.5107 0.83163 0.0
H665 H 0.02342 0.3764 0.95123 0.0
H666 H 0.02887 0.36911 0.73847 0.0
H667 H 0.03141 0.32759 0.84936 0.0
H668 H 0.98395 0.50681 0.20695 0.0
H669 H 0.00327 0.63482 0.0759 0.0
H670 H 0.97394 0.65478 0.28391 0.0
H671 H 0.98859 0.68993 0.1707 0.0
C672 C 0.09479 0.12855 0.43378 0.0
C673 C 0.10825 0.07822 0.44773 0.0
C674 C 0.19098 0.09715 0.39386 0.0
C675 C 0.17683 0.14714 0.37705 0.0
N676 N 0.11439 0.21005 0.38427 0.0
N677 N 0.17535 0.02049 0.45837 0.0
C678 C 0.12829 0.16239 0.39746 0.0
C679 C 0.15804 0.06428 0.43197 0.0
N680 N 0.05168 0.14561 0.46091 0.0
N681 N 0.23613 0.08011 0.37186 0.0
H682 H 0.15371 0.99693 0.48959 0.0
H683 H 0.21243 0.01003 0.45631 0.0
H684 H 0.263 0.10263 0.34801 0.0
H685 H 0.24585 0.0427 0.37259 0.0
H686 H 0.03787 0.18105 0.45363 0.0
H687 H 0.02967 0.12425 0.49353 0.0
H688 H 0.07777 0.22176 0.38502 0.0
H689 H 0.13977 0.238 0.3716 0.0
C690 C 0.13076 0.86467 0.59621 0.0
C691 C 0.10328 0.90409 0.62477 0.0
C692 C 0.15092 0.89141 0.72586 0.0
C693 C 0.17076 0.84592 0.70351 0.0
N694 N 0.17445 0.78748 0.6146 0.0
N695 N 0.07594 0.93943 0.72772 0.0
C696 C 0.15856 0.83177 0.63797 0.0
C697 C 0.11014 0.91294 0.69293 0.0
N698 N 0.13378 0.86073 0.529 0.0
N699 N 0.17216 0.91588 0.7759 0.0
H700 H 0.04099 0.946 0.7089 0.0
H701 H 0.08001 0.94873 0.77702 0.0
H702 H 0.20404 0.90289 0.79832 0.0
H703 H 0.1603 0.95098 0.79026 0.0
H704 H 0.15651 0.83532 0.50463 0.0
H705 H 0.11892 0.88766 0.49781 0.0
H706 H 0.16396 0.77351 0.56942 0.0
H707 H 0.19214 0.76192 0.64497 0.0
C708 C 0.37987 0.84794 0.88772 0.0
C709 C 0.32751 0.85223 0.89415 0.0
C710 C 0.34126 0.91154 0.98171 0.0
C711 C 0.39136 0.91617 0.96004 0.0
N712 N 0.45297 0.89773 0.8745 0.0
N713 N 0.25946 0.9013 0.94115 0.0
C714 C 0.40892 0.8877 0.90684 0.0
C715 C 0.30798 0.88764 0.93979 0.0
N716 N 0.40268 0.80475 0.87096 0.0
N717 N 0.32557 0.92853 0.04184 0.0
H718 H 0.23541 0.89175 0.90462 0.0
H719 H 0.24565 0.92866 0.97239 0.0
H720 H 0.35039 0.94193 0.07566 0.0
H721 H 0.28939 0.92312 0.0606 0.0
H722 H 0.44116 0.8011 0.8716 0.0
H723 H 0.38371 0.77132 0.86701 0.0
H724 H 0.46551 0.87743 0.834 0.0
H725 H 0.47461 0.92831 0.88511 0.0
C726 C 0.35813 0.07232 0.13321 0.0
C727 C 0.41047 0.07388 0.13429 0.0
C728 C 0.40333 0.14644 0.20579 0.0
C729 C 0.35039 0.14201 0.21062 0.0
N730 N 0.28305 0.08349 0.19803 0.0
N731 N 0.47911 0.09942 0.1991 0.0
C732 C 0.3293 0.10011 0.17942 0.0
C733 C 0.43223 0.10727 0.17812 0.0
N734 N 0.33545 0.04334 0.08886 0.0
N735 N 0.42732 0.18768 0.22545 0.0
H736 H 0.50098 0.06987 0.18343 0.0
H737 H 0.49438 0.12021 0.23634 0.0
H738 H 0.41033 0.21637 0.25022 0.0
H739 H 0.46478 0.19396 0.21331 0.0
H740 H 0.29731 0.04388 0.08227 0.0
H741 H 0.35558 0.02372 0.05335 0.0
H742 H 0.26748 0.05119 0.18023 0.0
H743 H 0.26411 0.09699 0.23918 0.0
C744 C 0.91269 0.87721 0.65178 0.0
C745 C 0.8994 0.92691 0.63322 0.0
C746 C 0.81171 0.90515 0.66457 0.0
C747 C 0.82481 0.85537 0.6834 0.0
N748 N 0.88656 0.79171 0.67418 0.0
N749 N 0.83608 0.99009 0.63845 0.0
C750 C 0.87513 0.84096 0.67188 0.0
C751 C 0.84889 0.94109 0.64435 0.0
N752 N 0.96161 0.86518 0.65455 0.0
N753 N 0.76286 0.91816 0.66219 0.0
H754 H 0.85964 0.0175 0.61803 0.0
H755 H 0.80277 0.00428 0.65733 0.0
H756 H 0.73387 0.89572 0.68051 0.0
H757 H 0.75056 0.95027 0.63789 0.0
H758 H 0.97441 0.83203 0.67554 0.0
H759 H 0.98961 0.89053 0.6417 0.0
H760 H 0.9213 0.77784 0.66093 0.0
H761 H 0.85971 0.76424 0.68228 0.0
C762 C 0.90881 0.13344 0.41592 0.0
C763 C 0.89043 0.0913 0.45263 0.0
C764 C 0.81182 0.10352 0.39521 0.0
C765 C 0.82684 0.15209 0.37248 0.0
N766 N 0.8911 0.21456 0.36969 0.0
N767 N 0.82025 0.03697 0.47717 0.0
C768 C 0.87567 0.16762 0.38583 0.0
C769 C 0.84087 0.0761 0.44161 0.0
N770 N 0.95821 0.13754 0.40255 0.0
N771 N 0.76917 0.08361 0.37271 0.0
H772 H 0.83958 0.01597 0.51141 0.0
H773 H 0.78269 0.02803 0.4769 0.0
H774 H 0.74704 0.10279 0.33935 0.0
H775 H 0.7586 0.04669 0.38169 0.0
H776 H 0.97441 0.16765 0.37635 0.0
H777 H 0.9809 0.10652 0.4081 0.0
H778 H 0.92474 0.22896 0.38458 0.0
H779 H 0.86917 0.23907 0.34328 0.0
C780 C 0.69889 0.09011 0.17103 0.0
C781 C 0.68857 0.1409 0.18204 0.0
C782 C 0.61244 0.13534 0.12517 0.0
C783 C 0.62187 0.08508 0.11059 0.0
N784 N 0.68588 0.02375 0.09469 0.0
N785 N 0.65587 0.21237 0.12518 0.0
C786 C 0.66865 0.06451 0.12647 0.0
C787 C 0.65154 0.16405 0.14568 0.0
N788 N 0.73695 0.06662 0.20138 0.0
N789 N 0.5665 0.15577 0.12416 0.0
H790 H 0.68789 0.23271 0.13319 0.0
H791 H 0.63025 0.22918 0.09413 0.0
H792 H 0.53503 0.13632 0.11209 0.0
H793 H 0.55995 0.19166 0.14082 0.0
H794 H 0.74241 0.02835 0.19912 0.0
H795 H 0.76167 0.08513 0.23059 0.0
H796 H 0.72092 0.00882 0.10203 0.0
H797 H 0.66812 0.01055 0.05354 0.0
C798 C 0.66717 0.9158 0.84498 0.0
C799 C 0.64914 0.86676 0.83554 0.0
C800 C 0.5764 0.88745 0.90741 0.0
C801 C 0.59391 0.93728 0.91583 0.0
N802 N 0.64232 1.00065 0.85257 0.0
N803 N 0.57419 0.81692 0.83586 0.0
C804 C 0.6356 0.95224 0.87371 0.0
C805 C 0.60001 0.85589 0.85973 0.0
N806 N 0.71328 0.92979 0.82198 0.0
N807 N 0.53687 0.8692 0.94367 0.0
H808 H 0.58697 0.79519 0.79738 0.0
H809 H 0.53678 0.81043 0.8473 0.0
H810 H 0.51588 0.89041 0.9753 0.0
H811 H 0.52621 0.83192 0.94477 0.0
H812 H 0.73064 0.9621 0.83705 0.0
H813 H 0.73381 0.90942 0.78818 0.0
H814 H 0.67151 0.0123 0.82058 0.0
H815 H 0.61416 0.02681 0.85265 0.0
C816 C 0.65399 0.56006 0.90712 0.0
C817 C 0.60362 0.57265 0.923 0.0
C818 C 0.62364 0.65974 0.88414 0.0
C819 C 0.67376 0.64692 0.86797 0.0
N820 N 0.73836 0.58555 0.87972 0.0
N821 N 0.53875 0.63206 0.90441 0.0
C822 C 0.68908 0.59724 0.88371 0.0
C823 C 0.58811 0.62202 0.90593 0.0
N824 N 0.66838 0.5114 0.91076 0.0
N825 N 0.61037 0.7086 0.88328 0.0
H826 H 0.51217 0.6045 0.91265 0.0
H827 H 0.52437 0.66566 0.88709 0.0
H828 H 0.63523 0.73709 0.87015 0.0
H829 H 0.57638 0.72115 0.90207 0.0
H830 H 0.70121 0.49836 0.88899 0.0
H831 H 0.64633 0.48292 0.93158 0.0
H832 H 0.75316 0.55364 0.90166 0.0
H833 H 0.76549 0.60894 0.85817 0.0
C834 C 0.69593 0.3947 0.15523 0.0
C835 C 0.68012 0.34786 0.18368 0.0
C836 C 0.59612 0.3687 0.1479 0.0
C837 C 0.61447 0.40818 0.10598 0.0
N838 N 0.68526 0.45854 0.07015 0.0
N839 N 0.61283 0.28919 0.19953 0.0
C840 C 0.66524 0.42157 0.11041 0.0
C841 C 0.62949 0.33452 0.17782 0.0
N842 N 0.74087 0.41364 0.17091 0.0
N843 N 0.54692 0.36656 0.16437 0.0
H844 H 0.63555 0.26459 0.22434 0.0
H845 H 0.57764 0.27569 0.18982 0.0
H846 H 0.52411 0.39693 0.15477 0.0
H847 H 0.53089 0.339 0.19551 0.0
H848 H 0.75242 0.44971 0.15796 0.0
H849 H 0.76439 0.39497 0.20288 0.0
H850 H 0.72321 0.4654 0.06496 0.0
H851 H 0.66456 0.48005 0.03799 0.0
C852 C 0.83998 0.44806 0.40475 0.0
C853 C 0.88329 0.427 0.4339 0.0
C854 C 0.85086 0.34515 0.41116 0.0
C855 C 0.81731 0.36575 0.36718 0.0
N856 N 0.77428 0.438 0.32681 0.0
N857 N 0.93433 0.35189 0.44012 0.0
C858 C 0.81009 0.41772 0.36504 0.0
C859 C 0.88995 0.3745 0.43097 0.0
N860 N 0.82522 0.49533 0.41769 0.0
N861 N 0.84522 0.29763 0.43511 0.0
H862 H 0.96704 0.3706 0.44761 0.0
H863 H 0.93952 0.31417 0.43132 0.0
H864 H 0.81512 0.2757 0.4232 0.0
H865 H 0.86802 0.28245 0.47112 0.0
H866 H 0.79181 0.51028 0.40238 0.0
H867 H 0.84272 0.5178 0.45039 0.0
H868 H 0.77214 0.47591 0.31523 0.0
H869 H 0.74707 0.41645 0.30611 0.0
C870 C 0.82334 0.59807 0.6814 0.0
C871 C 0.84587 0.64005 0.71055 0.0
C872 C 0.92573 0.60592 0.66939 0.0
C873 C 0.90171 0.5747 0.62471 0.0
N874 N 0.82385 0.54035 0.5919 0.0
N875 N 0.92395 0.68418 0.72319 0.0
C876 C 0.84927 0.57127 0.63121 0.0
C877 C 0.89856 0.64429 0.70185 0.0
N878 N 0.77926 0.57981 0.70663 0.0
N879 N 0.97284 0.59582 0.68766 0.0
H880 H 0.90844 0.71292 0.74972 0.0
H881 H 0.96144 0.68958 0.71103 0.0
H882 H 0.99369 0.56699 0.66785 0.0
H883 H 0.98943 0.61406 0.72625 0.0
H884 H 0.76287 0.54738 0.69049 0.0
H885 H 0.76368 0.59209 0.75092 0.0
H886 H 0.78535 0.54125 0.58909 0.0
H887 H 0.84135 0.51602 0.55955 0.0
C888 C 0.3088 0.40789 0.15343 0.0
C889 C 0.32273 0.3604 0.18172 0.0
C890 C 0.40709 0.37574 0.13118 0.0
C891 C 0.39493 0.4249 0.11044 0.0
N892 N 0.33273 0.4884 0.10421 0.0
N893 N 0.39099 0.30722 0.20901 0.0
C894 C 0.34531 0.44086 0.12247 0.0
C895 C 0.37356 0.34678 0.17384 0.0
N896 N 0.26016 0.42198 0.15483 0.0
N897 N 0.45011 0.35552 0.10815 0.0
H898 H 0.36888 0.28783 0.24372 0.0
H899 H 0.42848 0.2986 0.21084 0.0
H900 H 0.47289 0.37387 0.07292 0.0
H901 H 0.46099 0.31933 0.11928 0.0
H902 H 0.24659 0.45095 0.1254 0.0
H903 H 0.23236 0.40394 0.18313 0.0
H904 H 0.30053 0.50587 0.12117 0.0
H905 H 0.35559 0.51128 0.07366 0.0
C906 C 0.39364 0.64878 0.95588 0.0
C907 C 0.40331 0.5985 0.93894 0.0
C908 C 0.33607 0.60372 0.85981 0.0
C909 C 0.32456 0.65291 0.87779 0.0
N910 N 0.33531 0.71705 0.95766 0.0
N911 N 0.40373 0.54819 0.84362 0.0
C912 C 0.35164 0.67424 0.92959 0.0
C913 C 0.37951 0.58095 0.88276 0.0
N914 N 0.42733 0.67474 0.98985 0.0
N915 N 0.30556 0.57794 0.82079 0.0
H916 H 0.44215 0.54593 0.84624 0.0
H917 H 0.38878 0.53259 0.80194 0.0
H918 H 0.27524 0.59434 0.79914 0.0
H919 H 0.30982 0.54005 0.81257 0.0
H920 H 0.42438 0.7128 0.99705 0.0
H921 H 0.46232 0.66108 0.99928 0.0
H922 H 0.34904 0.73047 1.00147 0.0
H923 H 0.30531 0.73712 0.94042 0.0
C924 C 0.16732 0.6019 0.68539 0.0
C925 C 0.15508 0.6518 0.69604 0.0
C926 C 0.08549 0.64412 0.62344 0.0
C927 C 0.10444 0.59744 0.60248 0.0
N928 N 0.17101 0.53758 0.60573 0.0
N929 N 0.10095 0.72202 0.67483 0.0
C930 C 0.14785 0.57809 0.6309 0.0
C931 C 0.11398 0.67369 0.66462 0.0
N932 N 0.19346 0.57586 0.73116 0.0
N933 N 0.03851 0.65856 0.60959 0.0
H934 H 0.11693 0.74456 0.70926 0.0
H935 H 0.07646 0.74152 0.64497 0.0
H936 H 0.01328 0.63587 0.58743 0.0
H937 H 0.02174 0.69028 0.62806 0.0
H938 H 0.20105 0.53803 0.72763 0.0
H939 H 0.19913 0.59056 0.7776 0.0
H940 H 0.20466 0.5244 0.62295 0.0
H941 H 0.15962 0.52149 0.56267 0.0
C942 C 0.09693 0.36439 0.35345 0.0
C943 C 0.14899 0.36978 0.33995 0.0
C944 C 0.14513 0.44833 0.40154 0.0
C945 C 0.09297 0.44343 0.41224 0.0
N946 N 0.02057 0.40968 0.36293 0.0
N947 N 0.21536 0.43018 0.3295 0.0
C948 C 0.06899 0.40502 0.37868 0.0
C949 C 0.17117 0.41543 0.3584 0.0
N950 N 0.07296 0.32091 0.34364 0.0
N951 N 0.17015 0.48561 0.43065 0.0
H952 H 0.2317 0.41106 0.29063 0.0
H953 H 0.23154 0.46477 0.33641 0.0
H954 H 0.1524 0.51375 0.45644 0.0
H955 H 0.2087 0.4868 0.43205 0.0
H956 H 0.03671 0.31444 0.36172 0.0
H957 H 0.08895 0.29132 0.31943 0.0
H958 H 0.00345 0.38529 0.33138 0.0
H959 H 0.99899 0.44 0.37616 0.0
C960 C 0.95731 0.06073 1.00984 0.0
C961 C 0.00481 0.05206 0.98032 0.0
C962 C 0.02371 0.99222 0.06972 0.0
C963 C 0.97721 0.00271 0.10094 0.0
N964 N 0.90229 0.05123 0.10716 0.0
N965 N 0.08639 0.01616 0.9857 0.0
C966 C 0.94478 0.03841 0.07297 0.0
C967 C 0.03897 0.01967 1.01133 0.0
N968 N 0.9236 0.0887 0.97622 0.0
N969 N 0.05273 0.95521 0.09516 0.0
H970 H 0.09868 0.0349 0.94215 0.0
H971 H 0.1147 0.99772 1.00991 0.0
H972 H 0.04369 0.9356 0.13936 0.0
H973 H 0.08412 0.94156 0.07051 0.0
H974 H 0.8866 0.09219 0.99155 0.0
H975 H 0.93171 0.10591 0.93006 0.0
H976 H 0.88012 0.08116 0.09352 0.0
H977 H 0.89074 0.03402 0.15212 0.0
C978 C 0.24904 0.6826 0.3299 0.0
C979 C 0.2717 0.7266 0.35183 0.0
C980 C 0.22912 0.77595 0.26709 0.0
C981 C 0.20985 0.73153 0.24157 0.0
N982 N 0.20619 0.64196 0.2423 0.0
N983 N 0.28967 0.81402 0.33613 0.0
C984 C 0.22112 0.68461 0.27122 0.0
C985 C 0.26351 0.77301 0.31892 0.0
N986 N 0.2528 0.63926 0.36646 0.0
N987 N 0.21346 0.821 0.24287 0.0
H988 H 0.31495 0.81333 0.37417 0.0
H989 H 0.28953 0.84767 0.30932 0.0
H990 H 0.18827 0.82458 0.20491 0.0
H991 H 0.22194 0.85469 0.26404 0.0
H992 H 0.23234 0.60738 0.35768 0.0
H993 H 0.27367 0.63614 0.409 0.0
H994 H 0.21787 0.60664 0.25711 0.0
H995 H 0.18478 0.64197 0.20017 0.0
C996 C 0.45849 0.98992 0.57383 0.0
C997 C 0.4931 0.02576 0.59427 0.0
C998 C 0.551 0.00227 0.50377 0.0
C999 C 0.51442 0.97014 0.47943 0.0
N1000 N 0.43101 0.93767 0.4859 0.0
N1001 N 0.56952 0.07117 0.57417 0.0
C1002 C 0.46751 0.96506 0.5131 0.0
C1003 C 0.53867 0.03333 0.55799 0.0
N1004 N 0.4176 0.97871 0.61342 0.0
N1005 N 0.59801 0.00194 0.47633 0.0
H1006 H 0.56212 0.09414 0.61415 0.0
H1007 H 0.60041 0.0823 0.54503 0.0
H1008 H 0.60824 0.98003 0.43624 0.0
H1009 H 0.62775 0.02038 0.49634 0.0
H1010 H 0.39391 0.94905 0.60531 0.0
H1011 H 0.40944 0.99657 0.65776 0.0
H1012 H 0.39439 0.93702 0.50389 0.0
H1013 H 0.43636 0.91842 0.44201 0.0
C1014 C 0.19363 0.28046 0.80891 0.0
C1015 C 0.22294 0.24238 0.8376 0.0
C1016 C 0.2862 0.254 0.74816 0.0
C1017 C 0.25527 0.28938 0.71684 0.0
N1018 N 0.17779 0.33349 0.71241 0.0
N1019 N 0.29269 0.18691 0.82995 0.0
C1020 C 0.2084 0.30185 0.74584 0.0
C1021 C 0.26817 0.22765 0.80611 0.0
N1022 N 0.15234 0.29684 0.8428 0.0
N1023 N 0.33299 0.24584 0.7227 0.0
H1024 H 0.27963 0.16596 0.87113 0.0
H1025 H 0.32325 0.17111 0.80584 0.0
H1026 H 0.34657 0.26226 0.67818 0.0
H1027 H 0.35964 0.22568 0.748 0.0
H1028 H 0.13228 0.32803 0.82834 0.0
H1029 H 0.13986 0.28118 0.88835 0.0
H1030 H 0.14105 0.33996 0.7269 0.0
H1031 H 0.18827 0.3514 0.66751 0.0
C1032 C 0.79381 0.2895 0.80917 0.0
C1033 C 0.7981 0.23997 0.83468 0.0
C1034 C 0.74599 0.21008 0.74608 0.0
C1035 C 0.74287 0.25941 0.71945 0.0
N1036 N 0.77012 0.34475 0.71816 0.0
N1037 N 0.78587 0.15212 0.82189 0.0
C1038 C 0.7688 0.29873 0.74878 0.0
C1039 C 0.77641 0.19994 0.80139 0.0
N1040 N 0.81245 0.32789 0.84387 0.0
N1041 N 0.71879 0.17311 0.71941 0.0
H1042 H 0.80705 0.14339 0.86293 0.0
H1043 H 0.77602 0.12105 0.79561 0.0
H1044 H 0.69777 0.17863 0.67735 0.0
H1045 H 0.71453 0.13768 0.74098 0.0
H1046 H 0.80579 0.36519 0.83253 0.0
H1047 H 0.83219 0.3225 0.88709 0.0
H1048 H 0.79276 0.37366 0.73239 0.0
H1049 H 0.75127 0.35309 0.67492 0.0
C1050 C 0.78385 0.71269 0.30581 0.0
C1051 C 0.73646 0.72026 0.33657 0.0
C1052 C 0.71545 0.78031 0.24793 0.0
C1053 C 0.76191 0.7709 0.21552 0.0
N1054 N 0.8381 0.72467 0.20781 0.0
N1055 N 0.65518 0.75697 0.33591 0.0
C1056 C 0.79555 0.7361 0.24292 0.0
C1057 C 0.70161 0.75282 0.30719 0.0
N1058 N 0.81786 0.68374 0.33749 0.0
N1059 N 0.68531 0.81652 0.22278 0.0
H1060 H 0.64426 0.73852 0.38027 0.0
H1061 H 0.62634 0.77654 0.31463 0.0
H1062 H 0.694 0.83678 0.17902 0.0
H1063 H 0.65309 0.82889 0.24669 0.0
H1064 H 0.85474 0.68048 0.32158 0.0
H1065 H 0.81 0.66475 0.3825 0.0
H1066 H 0.86201 0.69616 0.22127 0.0
H1067 H 0.84817 0.74167 0.16211 0.0
C1068 C 0.45494 0.48603 0.54862 0.0
C1069 C 0.48613 0.45055 0.57953 0.0
C1070 C 0.55023 0.46453 0.49176 0.0
C1071 C 0.51823 0.49851 0.4595 0.0
N1072 N 0.43819 0.53697 0.45055 0.0
N1073 N 0.56 0.40059 0.57771 0.0
C1074 C 0.46996 0.50795 0.48606 0.0
C1075 C 0.53283 0.4382 0.55021 0.0
N1076 N 0.41156 0.49962 0.58006 0.0
N1077 N 0.59772 0.45857 0.46738 0.0
H1078 H 0.54903 0.38153 0.6216 0.0
H1079 H 0.59164 0.38586 0.55501 0.0
H1080 H 0.61135 0.47618 0.42368 0.0
H1081 H 0.62478 0.43866 0.49215 0.0
H1082 H 0.38985 0.52928 0.56427 0.0
H1083 H 0.39845 0.48309 0.62475 0.0
H1084 H 0.40075 0.54096 0.4632 0.0
H1085 H 0.44839 0.55451 0.40526 0.0
C1086 C 0.9629 0.48729 0.98654 0.0
C1087 C 0.0111 0.4766 0.96031 0.0
C1088 C 0.048 0.52523 0.04796 0.0
C1089 C -0.0001 0.53411 0.07597 0.0
N1090 N 0.91174 0.51941 0.07716 0.0
N1091 N 0.09971 0.47913 0.97023 0.0
C1092 C 0.9574 0.51377 0.0468 0.0
C1093 C 0.05371 0.49375 0.99236 0.0
N1094 N 0.92233 0.47314 0.95275 0.0
N1095 N 0.0882 0.54786 0.07372 0.0
H1096 H 0.10545 0.45769 0.92834 0.0
H1097 H 0.13201 0.48538 0.99553 0.0
H1098 H 0.08596 0.56884 0.11647 0.0
H1099 H 0.12334 0.54844 0.05079 0.0
H1100 H 0.88635 0.48456 0.9643 0.0
H1101 H 0.92479 0.45213 0.91004 0.0
H1102 H 0.88004 0.50071 0.0635 0.0
H1103 H 0.90581 0.54057 0.11925 0.0
loop_
_geom_bond_atom_site_label_1
_geom_bond_atom_site_label_2
_geom_bond_distance
_geom_bond_site_symmetry_2
_ccdc_geom_bond_type
Eu0 N31 2.645 1_455 S
Eu0 N38 2.609 1_455 S
Eu0 O44 2.565 . S
Eu0 O45 2.617 1_565 S
Eu0 O47 2.329 1_465 S
Eu0 O48 2.572 1_565 S
Eu0 O49 2.416 1_455 S
Eu0 O51 2.375 1_455 S
Eu0 O52 2.442 . S
Eu0 C64 2.850 . S
C1 C4 1.429 . S
C1 C5 1.411 . S
C1 N8 1.377 . S
C2 C4 1.420 . S
C2 C6 1.423 . S
C2 C14 1.392 . S
C3 C5 1.420 . S
C3 C6 1.351 . S
C3 H26 0.931 . S
C4 C1 1.429 . S
C4 C2 1.420 . S
C4 N12 1.362 . S
C5 C1 1.411 . S
C5 C3 1.420 . S
C5 C10 1.395 . S
C6 C2 1.423 . S
C6 C3 1.351 . S
C6 H18 0.930 . S
C7 C9 1.400 . S
C7 C10 1.386 1_655 S
C7 H19 0.930 . S
N8 C1 1.377 . S
N8 C9 1.321 1_455 S
N8 Eu11 2.609 1_455 S
C9 C7 1.400 . S
C9 N8 1.321 1_655 S
C9 H16 0.930 . S
C10 C5 1.395 . S
C10 C7 1.386 1_455 S
C10 H29 0.930 . S
Eu11 N8 2.609 1_655 S
Eu11 N12 2.649 1_655 S
Eu11 O45 2.377 1_655 S
Eu11 O46 2.438 . S
Eu11 O50 2.562 . S
Eu11 O51 2.615 1_545 S
Eu11 O53 2.333 1_645 S
Eu11 O54 2.569 1_545 S
Eu11 O55 2.417 1_655 S
Eu11 C75 2.849 . S
N12 C4 1.362 . S
N12 Eu11 2.649 1_455 S
N12 C13 1.334 . S
C13 N12 1.334 . S
C13 C15 1.413 . S
C13 H20 0.929 . S
C14 C2 1.392 . S
C14 C15 1.367 . S
C14 H22 0.930 . S
C15 C13 1.413 . S
C15 C14 1.367 . S
C15 H17 0.930 . S
H16 C9 0.930 . S
H17 C15 0.930 . S
H18 C6 0.930 . S
H19 C7 0.930 . S
H20 C13 0.929 . S
H21 C35 0.930 . S
H22 C14 0.930 . S
H23 C41 0.930 . S
H24 C32 0.929 . S
H25 C39 0.930 . S
H26 C3 0.931 . S
H27 C33 0.930 . S
H28 C66 0.930 . S
H29 C10 0.930 . S
H30 C65 0.931 . S
N31 Eu0 2.645 1_655 S
N31 C32 1.334 . S
N31 C36 1.362 . S
C32 H24 0.929 . S
C32 N31 1.334 . S
C32 C35 1.413 . S
C33 H27 0.930 . S
C33 C34 1.392 . S
C33 C35 1.367 . S
C34 C33 1.392 . S
C34 C36 1.420 . S
C34 C66 1.423 . S
C35 H21 0.930 . S
C35 C32 1.413 . S
C35 C33 1.367 . S
C36 N31 1.362 . S
C36 C34 1.420 . S
C36 C40 1.429 . S
H37 C42 0.930 . S
N38 Eu0 2.609 1_655 S
N38 C40 1.377 . S
N38 C41 1.321 1_655 S
C39 H25 0.930 . S
C39 C41 1.400 . S
C39 C42 1.386 1_455 S
C40 C36 1.429 . S
C40 N38 1.377 . S
C40 C43 1.411 . S
C41 H23 0.930 . S
C41 N38 1.321 1_455 S
C41 C39 1.400 . S
C42 H37 0.930 . S
C42 C39 1.386 1_655 S
C42 C43 1.395 . S
C43 C40 1.411 . S
C43 C42 1.395 . S
C43 C65 1.420 . S
O44 Eu0 2.565 . S
O44 C64 1.257 . S
O45 Eu0 2.617 1_545 S
O45 Eu11 2.377 1_455 S
O45 C56 1.276 . S
O46 Eu11 2.438 . S
O46 C63 1.264 . S
O47 Eu0 2.329 1_645 S
O47 C63 1.254 . S
O48 Eu0 2.572 1_545 S
O48 C56 1.235 . S
O49 Eu0 2.416 1_655 S
O49 C64 1.249 1_655 S
O50 Eu11 2.562 . S
O50 C75 1.257 . S
O51 Eu0 2.375 1_655 S
O51 Eu11 2.615 1_565 S
O51 C67 1.276 . S
O52 Eu0 2.442 . S
O52 C74 1.264 . S
O53 Eu11 2.333 1_465 S
O53 C74 1.254 . S
O54 Eu11 2.569 1_565 S
O54 C67 1.235 . S
O55 Eu11 2.417 1_455 S
O55 C75 1.249 1_455 S
C56 O45 1.276 . S
C56 O48 1.235 . S
C57 C59 1.393 . S
C57 C61 1.395 . S
C57 C64 1.492 . S
C58 C59 1.392 . S
C58 C60 1.386 . S
C59 C57 1.393 . S
C59 C58 1.392 . S
C59 H76 0.930 1_455 S
C60 C58 1.386 . S
C60 C62 1.395 . S
C60 H77 0.930 . S
C61 C57 1.395 . S
C61 C62 1.379 . S
C61 H78 0.930 . S
C62 C60 1.395 . S
C62 C61 1.379 . S
C62 H79 0.930 . S
C63 O46 1.264 . S
C63 O47 1.254 . S
C64 Eu0 2.850 . S
C64 O44 1.257 . S
C64 O49 1.249 1_455 S
C64 C57 1.492 . S
C65 H30 0.931 . S
C65 C43 1.420 . S
C65 C66 1.351 . S
C66 H28 0.930 . S
C66 C34 1.423 . S
C66 C65 1.351 . S
C67 O51 1.276 . S
C67 O54 1.235 . S
C68 C69 1.393 . S
C68 C72 1.395 . S
C68 C75 1.492 . S
C69 C68 1.393 . S
C69 C70 1.392 . S
C69 H80 0.930 1_655 S
C70 C69 1.392 . S
C70 C71 1.386 . S
C71 C70 1.386 . S
C71 C73 1.395 . S
C71 H81 0.930 . S
C72 C68 1.395 . S
C72 C73 1.379 . S
C72 H82 0.930 . S
C73 C71 1.395 . S
C73 C72 1.379 . S
C73 H83 0.930 . S
C74 O52 1.264 . S
C74 O53 1.254 . S
C75 Eu11 2.849 . S
C75 O50 1.257 . S
C75 O55 1.249 1_655 S
C75 C68 1.492 . S
H76 C59 0.930 1_655 S
H77 C60 0.930 . S
H78 C61 0.930 . S
H79 C62 0.930 . S
H80 C69 0.930 1_455 S
H81 C71 0.930 . S
H82 C72 0.930 . S
H83 C73 0.930 . S
Eu84 N115 2.657 . S
Eu84 N122 2.609 . S
Eu84 O128 2.558 . S
Eu84 O129 2.612 . S
Eu84 O131 2.339 . S
Eu84 O132 2.563 . S
Eu84 O133 2.419 . S
Eu84 O135 2.380 . S
Eu84 O136 2.432 . S
Eu84 C148 2.848 . S
C85 C88 1.429 . S
C85 C89 1.411 . S
C85 N92 1.377 . S
C86 C88 1.420 . S
C86 C90 1.423 . S
C86 C98 1.392 . S
C87 C89 1.420 . S
C87 C90 1.351 . S
C87 H110 0.931 1_455 S
C88 C85 1.429 . S
C88 C86 1.420 . S
C88 N96 1.362 . S
C89 C85 1.411 . S
C89 C87 1.420 . S
C89 C94 1.395 . S
C90 C86 1.423 . S
C90 C87 1.351 . S
C90 H102 0.930 . S
C91 C93 1.400 . S
C91 C94 1.386 . S
C91 H103 0.930 . S
N92 C85 1.377 . S
N92 C93 1.321 . S
N92 Eu95 2.609 . S
C93 C91 1.400 . S
C93 N92 1.321 . S
C93 H100 0.930 . S
C94 C89 1.395 . S
C94 C91 1.386 . S
C94 H113 0.930 1_455 S
Eu95 N92 2.609 . S
Eu95 N96 2.657 . S
Eu95 O129 2.380 . S
Eu95 O130 2.432 . S
Eu95 O134 2.558 . S
Eu95 O135 2.612 . S
Eu95 O137 2.339 . S
Eu95 O138 2.563 . S
Eu95 O139 2.419 . S
Eu95 C159 2.848 . S
N96 C88 1.362 . S
N96 Eu95 2.657 . S
N96 C97 1.334 . S
C97 N96 1.334 . S
C97 C99 1.413 . S
C97 H104 0.929 . S
C98 C86 1.392 . S
C98 C99 1.367 . S
C98 H106 0.930 . S
C99 C97 1.413 . S
C99 C98 1.367 . S
C99 H101 0.930 . S
H100 C93 0.930 . S
H101 C99 0.930 . S
H102 C90 0.930 . S
H103 C91 0.930 . S
H104 C97 0.929 . S
H105 C119 0.930 . S
H106 C98 0.930 . S
H107 C125 0.930 . S
H108 C116 0.929 . S
H109 C123 0.930 . S
H110 C87 0.931 1_655 S
H111 C117 0.930 . S
H112 C150 0.930 . S
H113 C94 0.930 1_655 S
H114 C149 0.931 . S
N115 Eu84 2.657 . S
N115 C116 1.334 . S
N115 C120 1.362 . S
C116 H108 0.929 . S
C116 N115 1.334 . S
C116 C119 1.413 . S
C117 H111 0.930 . S
C117 C118 1.392 . S
C117 C119 1.367 . S
C118 C117 1.392 . S
C118 C120 1.420 . S
C118 C150 1.423 . S
C119 H105 0.930 . S
C119 C116 1.413 . S
C119 C117 1.367 . S
C120 N115 1.362 . S
C120 C118 1.420 . S
C120 C124 1.429 . S
H121 C126 0.930 . S
N122 Eu84 2.609 . S
N122 C124 1.377 . S
N122 C125 1.321 . S
C123 H109 0.930 . S
C123 C125 1.400 . S
C123 C126 1.386 . S
C124 C120 1.429 . S
C124 N122 1.377 . S
C124 C127 1.411 . S
C125 H107 0.930 . S
C125 N122 1.321 . S
C125 C123 1.400 . S
C126 H121 0.930 . S
C126 C123 1.386 . S
C126 C127 1.395 . S
C127 C124 1.411 . S
C127 C126 1.395 . S
C127 C149 1.420 . S
O128 Eu84 2.558 . S
O128 C148 1.257 . S
O129 Eu84 2.612 . S
O129 Eu95 2.380 . S
O129 C140 1.276 . S
O130 Eu95 2.432 . S
O130 C147 1.264 . S
O131 Eu84 2.339 . S
O131 C147 1.254 . S
O132 Eu84 2.563 . S
O132 C140 1.235 . S
O133 Eu84 2.419 . S
O133 C148 1.249 . S
O134 Eu95 2.558 . S
O134 C159 1.257 . S
O135 Eu84 2.380 . S
O135 Eu95 2.612 . S
O135 C151 1.276 . S
O136 Eu84 2.432 . S
O136 C158 1.264 . S
O137 Eu95 2.339 . S
O137 C158 1.254 . S
O138 Eu95 2.563 . S
O138 C151 1.235 . S
O139 Eu95 2.419 . S
O139 C159 1.249 . S
C140 O129 1.276 . S
C140 O132 1.235 . S
C141 C143 1.393 . S
C141 C145 1.395 . S
C141 C148 1.492 . S
C142 C143 1.392 . S
C142 C144 1.386 . S
C143 C141 1.393 . S
C143 C142 1.392 . S
C143 H160 0.930 . S
C144 C142 1.386 . S
C144 C146 1.395 . S
C144 H161 0.930 . S
C145 C141 1.395 . S
C145 C146 1.379 . S
C145 H162 0.930 . S
C146 C144 1.395 . S
C146 C145 1.379 . S
C146 H163 0.930 . S
C147 O130 1.264 . S
C147 O131 1.254 . S
C148 Eu84 2.848 . S
C148 O128 1.257 . S
C148 O133 1.249 . S
C148 C141 1.492 . S
C149 H114 0.931 . S
C149 C127 1.420 . S
C149 C150 1.351 . S
C150 H112 0.930 . S
C150 C118 1.423 . S
C150 C149 1.351 . S
C151 O135 1.276 . S
C151 O138 1.235 . S
C152 C153 1.393 . S
C152 C156 1.395 . S
C152 C159 1.492 1_554 S
C153 C152 1.393 . S
C153 C154 1.392 . S
C153 H164 0.930 . S
C154 C153 1.392 . S
C154 C155 1.386 . S
C155 C154 1.386 . S
C155 C157 1.395 . S
C155 H165 0.930 . S
C156 C152 1.395 . S
C156 C157 1.379 . S
C156 H166 0.930 . S
C157 C155 1.395 . S
C157 C156 1.379 . S
C157 H167 0.930 . S
C158 O136 1.264 . S
C158 O137 1.254 . S
C159 Eu95 2.848 . S
C159 O134 1.257 . S
C159 O139 1.249 . S
C159 C152 1.492 1_556 S
H160 C143 0.930 . S
H161 C144 0.930 . S
H162 C145 0.930 . S
H163 C146 0.930 . S
H164 C153 0.930 . S
H165 C155 0.930 . S
H166 C156 0.930 . S
H167 C157 0.930 . S
Eu168 N199 2.657 . S
Eu168 N206 2.609 . S
Eu168 O212 2.558 . S
Eu168 O213 2.612 1_565 S
Eu168 O215 2.339 1_565 S
Eu168 O216 2.563 1_565 S
Eu168 O217 2.419 . S
Eu168 O219 2.380 1_554 S
Eu168 O220 2.432 . S
Eu168 C232 2.848 . S
C169 C172 1.429 . S
C169 C173 1.411 . S
C169 N176 1.377 . S
C170 C172 1.420 . S
C170 C174 1.423 . S
C170 C182 1.392 . S
C171 C173 1.420 . S
C171 C174 1.351 . S
C171 H194 0.931 . S
C172 C169 1.429 . S
C172 C170 1.420 . S
C172 N180 1.362 . S
C173 C169 1.411 . S
C173 C171 1.420 . S
C173 C178 1.395 . S
C174 C170 1.423 . S
C174 C171 1.351 . S
C174 H186 0.930 . S
C175 C177 1.400 . S
C175 C178 1.386 . S
C175 H187 0.930 . S
N176 C169 1.377 . S
N176 C177 1.321 . S
N176 Eu179 2.609 . S
C177 C175 1.400 . S
C177 N176 1.321 . S
C177 H184 0.930 . S
C178 C173 1.395 . S
C178 C175 1.386 . S
C178 H197 0.930 . S
Eu179 N176 2.609 . S
Eu179 N180 2.657 . S
Eu179 O213 2.380 1_556 S
Eu179 O214 2.432 . S
Eu179 O218 2.558 . S
Eu179 O219 2.612 1_545 S
Eu179 O221 2.339 1_545 S
Eu179 O222 2.563 1_545 S
Eu179 O223 2.419 . S
Eu179 C243 2.848 . S
N180 C172 1.362 . S
N180 Eu179 2.657 . S
N180 C181 1.334 . S
C181 N180 1.334 . S
C181 C183 1.413 . S
C181 H188 0.929 . S
C182 C170 1.392 . S
C182 C183 1.367 . S
C182 H190 0.930 . S
C183 C181 1.413 . S
C183 C182 1.367 . S
C183 H185 0.930 . S
H184 C177 0.930 . S
H185 C183 0.930 . S
H186 C174 0.930 . S
H187 C175 0.930 . S
H188 C181 0.929 . S
H189 C203 0.930 . S
H190 C182 0.930 . S
H191 C209 0.930 . S
H192 C200 0.929 . S
H193 C207 0.930 . S
H194 C171 0.931 . S
H195 C201 0.930 . S
H196 C234 0.930 . S
H197 C178 0.930 . S
H198 C233 0.931 . S
N199 Eu168 2.657 . S
N199 C200 1.334 . S
N199 C204 1.362 . S
C200 H192 0.929 . S
C200 N199 1.334 . S
C200 C203 1.413 . S
C201 H195 0.930 . S
C201 C202 1.392 . S
C201 C203 1.367 . S
C202 C201 1.392 . S
C202 C204 1.420 . S
C202 C234 1.423 . S
C203 H189 0.930 . S
C203 C200 1.413 . S
C203 C201 1.367 . S
C204 N199 1.362 . S
C204 C202 1.420 . S
C204 C208 1.429 . S
H205 C210 0.930 . S
N206 Eu168 2.609 . S
N206 C208 1.377 . S
N206 C209 1.321 . S
C207 H193 0.930 . S
C207 C209 1.400 . S
C207 C210 1.386 . S
C208 C204 1.429 . S
C208 N206 1.377 . S
C208 C211 1.411 . S
C209 H191 0.930 . S
C209 N206 1.321 . S
C209 C207 1.400 . S
C210 H205 0.930 . S
C210 C207 1.386 . S
C210 C211 1.395 . S
C211 C208 1.411 . S
C211 C210 1.395 . S
C211 C233 1.420 . S
O212 Eu168 2.558 . S
O212 C232 1.257 . S
O213 Eu168 2.612 1_545 S
O213 Eu179 2.380 1_554 S
O213 C224 1.276 . S
O214 Eu179 2.432 . S
O214 C231 1.264 1_556 S
O215 Eu168 2.339 1_545 S
O215 C231 1.254 . S
O216 Eu168 2.563 1_545 S
O216 C224 1.235 . S
O217 Eu168 2.419 . S
O217 C232 1.249 . S
O218 Eu179 2.558 . S
O218 C243 1.257 . S
O219 Eu168 2.380 1_556 S
O219 Eu179 2.612 1_565 S
O219 C235 1.276 . S
O220 Eu168 2.432 . S
O220 C242 1.264 1_554 S
O221 Eu179 2.339 1_565 S
O221 C242 1.254 . S
O222 Eu179 2.563 1_565 S
O222 C235 1.235 . S
O223 Eu179 2.419 . S
O223 C243 1.249 . S
C224 O213 1.276 . S
C224 O216 1.235 . S
C225 C227 1.393 . S
C225 C229 1.395 . S
C225 C232 1.492 . S
C226 C227 1.392 . S
C226 C228 1.386 . S
C227 C225 1.393 . S
C227 C226 1.392 . S
C227 H244 0.945 . S
C228 C226 1.386 . S
C228 C230 1.395 . S
C228 H245 0.930 . S
C229 C225 1.395 . S
C229 C230 1.379 . S
C229 H246 0.930 . S
C230 C228 1.395 . S
C230 C229 1.379 . S
C230 H247 0.930 . S
C231 O214 1.264 1_554 S
C231 O215 1.254 . S
C232 Eu168 2.848 . S
C232 O212 1.257 . S
C232 O217 1.249 . S
C232 C225 1.492 . S
C233 H198 0.931 . S
C233 C211 1.420 . S
C233 C234 1.351 . S
C234 H196 0.930 . S
C234 C202 1.423 . S
C234 C233 1.351 . S
C235 O219 1.276 . S
C235 O222 1.235 . S
C236 C237 1.393 . S
C236 C240 1.395 . S
C236 C243 1.492 . S
C237 C236 1.393 . S
C237 C238 1.392 . S
C237 H248 0.930 . S
C238 C237 1.392 . S
C238 C239 1.386 . S
C239 C238 1.386 . S
C239 C241 1.395 . S
C239 H249 0.930 . S
C240 C236 1.395 . S
C240 C241 1.379 . S
C240 H250 0.930 . S
C241 C239 1.395 . S
C241 C240 1.379 . S
C241 H251 0.930 . S
C242 O220 1.264 1_556 S
C242 O221 1.254 . S
C243 Eu179 2.848 . S
C243 O218 1.257 . S
C243 O223 1.249 . S
C243 C236 1.492 . S
H244 C227 0.945 . S
H245 C228 0.930 . S
H246 C229 0.930 . S
H247 C230 0.930 . S
H248 C237 0.930 . S
H249 C239 0.930 . S
H250 C240 0.930 . S
H251 C241 0.930 . S
Eu252 N283 2.657 . S
Eu252 N290 2.609 . S
Eu252 O296 2.558 . S
Eu252 O297 2.612 . S
Eu252 O299 2.339 . S
Eu252 O300 2.563 . S
Eu252 O301 2.419 . S
Eu252 O303 2.380 . S
Eu252 O304 2.432 . S
Eu252 C316 2.848 . S
C253 C256 1.429 . S
C253 C257 1.411 . S
C253 N260 1.377 . S
C254 C256 1.420 . S
C254 C258 1.423 . S
C254 C266 1.392 . S
C255 C257 1.420 . S
C255 C258 1.351 . S
C255 H278 0.931 1_455 S
C256 C253 1.429 . S
C256 C254 1.420 . S
C256 N264 1.362 . S
C257 C253 1.411 . S
C257 C255 1.420 . S
C257 C262 1.395 . S
C258 C254 1.423 . S
C258 C255 1.351 . S
C258 H270 0.930 . S
C259 C261 1.400 . S
C259 C262 1.386 . S
C259 H271 0.930 . S
N260 C253 1.377 . S
N260 C261 1.321 . S
N260 Eu263 2.609 . S
C261 C259 1.400 . S
C261 N260 1.321 . S
C261 H268 0.930 . S
C262 C257 1.395 . S
C262 C259 1.386 . S
C262 H281 0.930 1_455 S
Eu263 N260 2.609 . S
Eu263 N264 2.657 . S
Eu263 O297 2.380 . S
Eu263 O298 2.432 . S
Eu263 O302 2.558 . S
Eu263 O303 2.612 . S
Eu263 O305 2.339 . S
Eu263 O306 2.563 . S
Eu263 O307 2.419 . S
Eu263 C327 2.848 . S
N264 C256 1.362 . S
N264 Eu263 2.657 . S
N264 C265 1.334 . S
C265 N264 1.334 . S
C265 C267 1.413 . S
C265 H272 0.929 . S
C266 C254 1.392 . S
C266 C267 1.367 . S
C266 H274 0.930 . S
C267 C265 1.413 . S
C267 C266 1.367 . S
C267 H269 0.930 . S
H268 C261 0.930 . S
H269 C267 0.930 . S
H270 C258 0.930 . S
H271 C259 0.930 . S
H272 C265 0.929 . S
H273 C287 0.930 . S
H274 C266 0.930 . S
H275 C293 0.930 . S
H276 C284 0.929 . S
H277 C291 0.930 . S
H278 C255 0.931 1_655 S
H279 C285 0.930 . S
H280 C318 0.930 . S
H281 C262 0.930 1_655 S
H282 C317 0.931 . S
N283 Eu252 2.657 . S
N283 C284 1.334 . S
N283 C288 1.362 . S
C284 H276 0.929 . S
C284 N283 1.334 . S
C284 C287 1.413 . S
C285 H279 0.930 . S
C285 C286 1.392 . S
C285 C287 1.367 . S
C286 C285 1.392 . S
C286 C288 1.420 . S
C286 C318 1.423 . S
C287 H273 0.930 . S
C287 C284 1.413 . S
C287 C285 1.367 . S
C288 N283 1.362 . S
C288 C286 1.420 . S
C288 C292 1.429 . S
H289 C294 0.930 . S
N290 Eu252 2.609 . S
N290 C292 1.377 . S
N290 C293 1.321 . S
C291 H277 0.930 . S
C291 C293 1.400 . S
C291 C294 1.386 . S
C292 C288 1.429 . S
C292 N290 1.377 . S
C292 C295 1.411 . S
C293 H275 0.930 . S
C293 N290 1.321 . S
C293 C291 1.400 . S
C294 H289 0.930 . S
C294 C291 1.386 . S
C294 C295 1.395 . S
C295 C292 1.411 . S
C295 C294 1.395 . S
C295 C317 1.420 . S
O296 Eu252 2.558 . S
O296 C316 1.257 . S
O297 Eu252 2.612 . S
O297 Eu263 2.380 . S
O297 C308 1.276 . S
O298 Eu263 2.432 . S
O298 C315 1.264 . S
O299 Eu252 2.339 . S
O299 C315 1.254 . S
O300 Eu252 2.563 . S
O300 C308 1.235 . S
O301 Eu252 2.419 . S
O301 C316 1.249 . S
O302 Eu263 2.558 . S
O302 C327 1.257 . S
O303 Eu252 2.380 . S
O303 Eu263 2.612 . S
O303 C319 1.276 . S
O304 Eu252 2.432 . S
O304 C326 1.264 . S
O305 Eu263 2.339 . S
O305 C326 1.254 . S
O306 Eu263 2.563 . S
O306 C319 1.235 . S
O307 Eu263 2.419 . S
O307 C327 1.249 . S
C308 O297 1.276 . S
C308 O300 1.235 . S
C309 C311 1.393 . S
C309 C313 1.395 . S
C309 C316 1.492 . S
C310 C311 1.392 . S
C310 C312 1.386 . S
C311 C309 1.393 . S
C311 C310 1.392 . S
C311 H328 0.930 . S
C312 C310 1.386 . S
C312 C314 1.395 . S
C312 H329 0.930 . S
C313 C309 1.395 . S
C313 C314 1.379 . S
C313 H330 0.930 . S
C314 C312 1.395 . S
C314 C313 1.379 . S
C314 H331 0.930 . S
C315 O298 1.264 . S
C315 O299 1.254 . S
C316 Eu252 2.848 . S
C316 O296 1.257 . S
C316 O301 1.249 . S
C316 C309 1.492 . S
C317 H282 0.931 . S
C317 C295 1.420 . S
C317 C318 1.351 . S
C318 H280 0.930 . S
C318 C286 1.423 . S
C318 C317 1.351 . S
C319 O303 1.276 . S
C319 O306 1.235 . S
C320 C321 1.393 . S
C320 C324 1.395 . S
C320 C327 1.492 1_556 S
C321 C320 1.393 . S
C321 C322 1.392 . S
C321 H332 0.930 . S
C322 C321 1.392 . S
C322 C323 1.386 . S
C323 C322 1.386 . S
C323 C325 1.395 . S
C323 H333 0.930 . S
C324 C320 1.395 . S
C324 C325 1.379 . S
C324 H334 0.930 . S
C325 C323 1.395 . S
C325 C324 1.379 . S
C325 H335 0.930 . S
C326 O304 1.264 . S
C326 O305 1.254 . S
C327 Eu263 2.848 . S
C327 O302 1.257 . S
C327 O307 1.249 . S
C327 C320 1.492 1_554 S
H328 C311 0.930 . S
H329 C312 0.930 . S
H330 C313 0.930 . S
H331 C314 0.930 . S
H332 C321 0.930 . S
H333 C323 0.930 . S
H334 C324 0.930 . S
H335 C325 0.930 . S
Eu336 N367 2.657 . S
Eu336 N374 2.609 . S
Eu336 O380 2.558 . S
Eu336 O381 2.612 . S
Eu336 O383 2.339 . S
Eu336 O384 2.563 . S
Eu336 O385 2.419 . S
Eu336 O387 2.380 . S
Eu336 O388 2.432 . S
Eu336 C400 2.848 . S
C337 C340 1.429 . S
C337 C341 1.411 . S
C337 N344 1.377 . S
C338 C340 1.420 . S
C338 C342 1.423 . S
C338 C350 1.392 . S
C339 C341 1.420 . S
C339 C342 1.351 . S
C339 H362 0.931 . S
C340 C337 1.429 . S
C340 C338 1.420 . S
C340 N348 1.362 . S
C341 C337 1.411 . S
C341 C339 1.420 . S
C341 C346 1.395 . S
C342 C338 1.423 . S
C342 C339 1.351 . S
C342 H354 0.930 . S
C343 C345 1.400 . S
C343 C346 1.386 . S
C343 H355 0.930 . S
N344 C337 1.377 . S
N344 C345 1.321 . S
N344 Eu347 2.609 . S
C345 C343 1.400 . S
C345 N344 1.321 . S
C345 H352 0.930 . S
C346 C341 1.395 . S
C346 C343 1.386 . S
C346 H365 0.930 . S
Eu347 N344 2.609 . S
Eu347 N348 2.657 . S
Eu347 O381 2.380 . S
Eu347 O382 2.432 . S
Eu347 O386 2.558 . S
Eu347 O387 2.612 . S
Eu347 O389 2.339 . S
Eu347 O390 2.563 . S
Eu347 O391 2.419 . S
Eu347 C411 2.848 . S
N348 C340 1.362 . S
N348 Eu347 2.657 . S
N348 C349 1.334 . S
C349 N348 1.334 . S
C349 C351 1.413 . S
C349 H356 0.929 . S
C350 C338 1.392 . S
C350 C351 1.367 . S
C350 H358 0.930 . S
C351 C349 1.413 . S
C351 C350 1.367 . S
C351 H353 0.930 . S
H352 C345 0.930 . S
H353 C351 0.930 . S
H354 C342 0.930 . S
H355 C343 0.930 . S
H356 C349 0.929 . S
H357 C371 0.930 . S
H358 C350 0.930 . S
H359 C377 0.930 . S
H360 C368 0.929 . S
H361 C375 0.930 . S
H362 C339 0.931 . S
H363 C369 0.930 . S
H364 C402 0.930 . S
H365 C346 0.930 . S
H366 C401 0.931 1_455 S
N367 Eu336 2.657 . S
N367 C368 1.334 . S
N367 C372 1.362 . S
C368 H360 0.929 . S
C368 N367 1.334 . S
C368 C371 1.413 . S
C369 H363 0.930 . S
C369 C370 1.392 . S
C369 C371 1.367 . S
C370 C369 1.392 . S
C370 C372 1.420 . S
C370 C402 1.423 . S
C371 H357 0.930 . S
C371 C368 1.413 . S
C371 C369 1.367 . S
C372 N367 1.362 . S
C372 C370 1.420 . S
C372 C376 1.429 . S
H373 C378 0.930 1_455 S
N374 Eu336 2.609 . S
N374 C376 1.377 . S
N374 C377 1.321 . S
C375 H361 0.930 . S
C375 C377 1.400 . S
C375 C378 1.386 . S
C376 C372 1.429 . S
C376 N374 1.377 . S
C376 C379 1.411 . S
C377 H359 0.930 . S
C377 N374 1.321 . S
C377 C375 1.400 . S
C378 H373 0.930 1_655 S
C378 C375 1.386 . S
C378 C379 1.395 . S
C379 C376 1.411 . S
C379 C378 1.395 . S
C379 C401 1.420 . S
O380 Eu336 2.558 . S
O380 C400 1.257 . S
O381 Eu336 2.612 . S
O381 Eu347 2.380 . S
O381 C392 1.276 . S
O382 Eu347 2.432 . S
O382 C399 1.264 . S
O383 Eu336 2.339 . S
O383 C399 1.254 . S
O384 Eu336 2.563 . S
O384 C392 1.235 . S
O385 Eu336 2.419 . S
O385 C400 1.249 . S
O386 Eu347 2.558 . S
O386 C411 1.257 . S
O387 Eu336 2.380 . S
O387 Eu347 2.612 . S
O387 C403 1.276 . S
O388 Eu336 2.432 . S
O388 C410 1.264 . S
O389 Eu347 2.339 . S
O389 C410 1.254 . S
O390 Eu347 2.563 . S
O390 C403 1.235 . S
O391 Eu347 2.419 . S
O391 C411 1.249 . S
C392 O381 1.276 . S
C392 O384 1.235 . S
C393 C395 1.393 . S
C393 C397 1.395 . S
C393 C400 1.492 1_556 S
C394 C395 1.392 . S
C394 C396 1.386 . S
C395 C393 1.393 . S
C395 C394 1.392 . S
C395 H412 0.930 . S
C396 C394 1.386 . S
C396 C398 1.395 . S
C396 H413 0.930 . S
C397 C393 1.395 . S
C397 C398 1.379 . S
C397 H414 0.930 . S
C398 C396 1.395 . S
C398 C397 1.379 . S
C398 H415 0.930 . S
C399 O382 1.264 . S
C399 O383 1.254 . S
C400 Eu336 2.848 . S
C400 O380 1.257 . S
C400 O385 1.249 . S
C400 C393 1.492 1_554 S
C401 H366 0.931 1_655 S
C401 C379 1.420 . S
C401 C402 1.351 . S
C402 H364 0.930 . S
C402 C370 1.423 . S
C402 C401 1.351 . S
C403 O387 1.276 . S
C403 O390 1.235 . S
C404 C405 1.393 . S
C404 C408 1.395 . S
C404 C411 1.492 . S
C405 C404 1.393 . S
C405 C406 1.392 . S
C405 H416 0.930 . S
C406 C405 1.392 . S
C406 C407 1.386 . S
C407 C406 1.386 . S
C407 C409 1.395 . S
C407 H417 0.930 . S
C408 C404 1.395 . S
C408 C409 1.379 . S
C408 H418 0.930 . S
C409 C407 1.395 . S
C409 C408 1.379 . S
C409 H419 0.930 . S
C410 O388 1.264 . S
C410 O389 1.254 . S
C411 Eu347 2.848 . S
C411 O386 1.257 . S
C411 O391 1.249 . S
C411 C404 1.492 . S
H412 C395 0.930 . S
H413 C396 0.930 . S
H414 C397 0.930 . S
H415 C398 0.930 . S
H416 C405 0.930 . S
H417 C407 0.930 . S
H418 C408 0.930 . S
H419 C409 0.930 . S
Eu420 N451 2.657 . S
Eu420 N458 2.609 . S
Eu420 O464 2.558 . S
Eu420 O465 2.612 . S
Eu420 O467 2.339 . S
Eu420 O468 2.563 . S
Eu420 O469 2.419 . S
Eu420 O471 2.380 . S
Eu420 O472 2.432 . S
Eu420 C484 2.848 . S
C421 C424 1.429 . S
C421 C425 1.411 . S
C421 N428 1.377 . S
C422 C424 1.420 . S
C422 C426 1.423 . S
C422 C434 1.392 . S
C423 C425 1.420 . S
C423 C426 1.351 . S
C423 H446 0.931 . S
C424 C421 1.429 . S
C424 C422 1.420 . S
C424 N432 1.362 . S
C425 C421 1.411 . S
C425 C423 1.420 . S
C425 C430 1.395 . S
C426 C422 1.423 . S
C426 C423 1.351 . S
C426 H438 0.930 . S
C427 C429 1.400 . S
C427 C430 1.386 . S
C427 H439 0.930 . S
N428 C421 1.377 . S
N428 C429 1.321 . S
N428 Eu431 2.609 . S
C429 C427 1.400 . S
C429 N428 1.321 . S
C429 H436 0.930 . S
C430 C425 1.395 . S
C430 C427 1.386 . S
C430 H449 0.930 . S
Eu431 N428 2.609 . S
Eu431 N432 2.657 . S
Eu431 O465 2.380 . S
Eu431 O466 2.432 . S
Eu431 O470 2.558 . S
Eu431 O471 2.612 . S
Eu431 O473 2.339 . S
Eu431 O474 2.563 . S
Eu431 O475 2.419 . S
Eu431 C495 2.848 . S
N432 C424 1.362 . S
N432 Eu431 2.657 . S
N432 C433 1.334 . S
C433 N432 1.334 . S
C433 C435 1.413 . S
C433 H440 0.929 . S
C434 C422 1.392 . S
C434 C435 1.367 . S
C434 H442 0.930 . S
C435 C433 1.413 . S
C435 C434 1.367 . S
C435 H437 0.930 . S
H436 C429 0.930 . S
H437 C435 0.930 . S
H438 C426 0.930 . S
H439 C427 0.930 . S
H440 C433 0.929 . S
H441 C455 0.930 . S
H442 C434 0.930 . S
H443 C461 0.930 . S
H444 C452 0.929 . S
H445 C459 0.930 . S
H446 C423 0.931 . S
H447 C453 0.930 . S
H448 C486 0.930 . S
H449 C430 0.930 . S
H450 C485 0.931 1_455 S
N451 Eu420 2.657 . S
N451 C452 1.334 . S
N451 C456 1.362 . S
C452 H444 0.929 . S
C452 N451 1.334 . S
C452 C455 1.413 . S
C453 H447 0.930 . S
C453 C454 1.392 . S
C453 C455 1.367 . S
C454 C453 1.392 . S
C454 C456 1.420 . S
C454 C486 1.423 . S
C455 H441 0.930 . S
C455 C452 1.413 . S
C455 C453 1.367 . S
C456 N451 1.362 . S
C456 C454 1.420 . S
C456 C460 1.429 . S
H457 C462 0.930 1_455 S
N458 Eu420 2.609 . S
N458 C460 1.377 . S
N458 C461 1.321 . S
C459 H445 0.930 . S
C459 C461 1.400 . S
C459 C462 1.386 . S
C460 C456 1.429 . S
C460 N458 1.377 . S
C460 C463 1.411 . S
C461 H443 0.930 . S
C461 N458 1.321 . S
C461 C459 1.400 . S
C462 H457 0.930 1_655 S
C462 C459 1.386 . S
C462 C463 1.395 . S
C463 C460 1.411 . S
C463 C462 1.395 . S
C463 C485 1.420 . S
O464 Eu420 2.558 . S
O464 C484 1.257 . S
O465 Eu420 2.612 . S
O465 Eu431 2.380 . S
O465 C476 1.276 . S
O466 Eu431 2.432 . S
O466 C483 1.264 . S
O467 Eu420 2.339 . S
O467 C483 1.254 . S
O468 Eu420 2.563 . S
O468 C476 1.235 . S
O469 Eu420 2.419 . S
O469 C484 1.249 . S
O470 Eu431 2.558 . S
O470 C495 1.257 . S
O471 Eu420 2.380 . S
O471 Eu431 2.612 . S
O471 C487 1.276 . S
O472 Eu420 2.432 . S
O472 C494 1.264 . S
O473 Eu431 2.339 . S
O473 C494 1.254 . S
O474 Eu431 2.563 . S
O474 C487 1.235 . S
O475 Eu431 2.419 . S
O475 C495 1.249 . S
C476 O465 1.276 . S
C476 O468 1.235 . S
C477 C479 1.393 . S
C477 C481 1.395 . S
C477 C484 1.492 1_554 S
C478 C479 1.392 . S
C478 C480 1.386 . S
C479 C477 1.393 . S
C479 C478 1.392 . S
C479 H496 0.930 . S
C480 C478 1.386 . S
C480 C482 1.395 . S
C480 H497 0.930 . S
C481 C477 1.395 . S
C481 C482 1.379 . S
C481 H498 0.930 . S
C482 C480 1.395 . S
C482 C481 1.379 . S
C482 H499 0.930 . S
C483 O466 1.264 . S
C483 O467 1.254 . S
C484 Eu420 2.848 . S
C484 O464 1.257 . S
C484 O469 1.249 . S
C484 C477 1.492 1_556 S
C485 H450 0.931 1_655 S
C485 C463 1.420 . S
C485 C486 1.351 . S
C486 H448 0.930 . S
C486 C454 1.423 . S
C486 C485 1.351 . S
C487 O471 1.276 . S
C487 O474 1.235 . S
C488 C489 1.393 . S
C488 C492 1.395 . S
C488 C495 1.492 . S
C489 C488 1.393 . S
C489 C490 1.392 . S
C489 H500 0.930 . S
C490 C489 1.392 . S
C490 C491 1.386 . S
C491 C490 1.386 . S
C491 C493 1.395 . S
C491 H501 0.930 . S
C492 C488 1.395 . S
C492 C493 1.379 . S
C492 H502 0.930 . S
C493 C491 1.395 . S
C493 C492 1.379 . S
C493 H503 0.930 . S
C494 O472 1.264 . S
C494 O473 1.254 . S
C495 Eu431 2.848 . S
C495 O470 1.257 . S
C495 O475 1.249 . S
C495 C488 1.492 . S
H496 C479 0.930 . S
H497 C480 0.930 . S
H498 C481 0.930 . S
H499 C482 0.930 . S
H500 C489 0.930 . S
H501 C491 0.930 . S
H502 C492 0.930 . S
H503 C493 0.930 . S
Eu504 N535 2.657 . S
Eu504 N542 2.609 . S
Eu504 O548 2.558 . S
Eu504 O549 2.612 . S
Eu504 O551 2.339 . S
Eu504 O552 2.563 . S
Eu504 O553 2.419 . S
Eu504 O555 2.380 1_556 S
Eu504 O556 2.432 . S
Eu504 C568 2.848 . S
C505 C508 1.429 . S
C505 C509 1.411 . S
C505 N512 1.377 . S
C506 C508 1.420 . S
C506 C510 1.423 . S
C506 C518 1.392 . S
C507 C509 1.420 . S
C507 C510 1.351 . S
C507 H530 0.931 . S
C508 C505 1.429 . S
C508 C506 1.420 . S
C508 N516 1.362 . S
C509 C505 1.411 . S
C509 C507 1.420 . S
C509 C514 1.395 . S
C510 C506 1.423 . S
C510 C507 1.351 . S
C510 H522 0.930 . S
C511 C513 1.400 . S
C511 C514 1.386 . S
C511 H523 0.930 . S
N512 C505 1.377 . S
N512 C513 1.321 . S
N512 Eu515 2.609 . S
C513 C511 1.400 . S
C513 N512 1.321 . S
C513 H520 0.930 . S
C514 C509 1.395 . S
C514 C511 1.386 . S
C514 H533 0.930 . S
Eu515 N512 2.609 . S
Eu515 N516 2.657 . S
Eu515 O549 2.380 1_554 S
Eu515 O550 2.432 . S
Eu515 O554 2.558 . S
Eu515 O555 2.612 . S
Eu515 O557 2.339 . S
Eu515 O558 2.563 . S
Eu515 O559 2.419 . S
Eu515 C579 2.848 . S
N516 C508 1.362 . S
N516 Eu515 2.657 . S
N516 C517 1.334 . S
C517 N516 1.334 . S
C517 C519 1.413 . S
C517 H524 0.929 . S
C518 C506 1.392 . S
C518 C519 1.367 . S
C518 H526 0.930 . S
C519 C517 1.413 . S
C519 C518 1.367 . S
C519 H521 0.930 . S
H520 C513 0.930 . S
H521 C519 0.930 . S
H522 C510 0.930 . S
H523 C511 0.930 . S
H524 C517 0.929 . S
H525 C539 0.930 . S
H526 C518 0.930 . S
H527 C545 0.930 . S
H528 C536 0.929 . S
H529 C543 0.930 . S
H530 C507 0.931 . S
H531 C537 0.930 . S
H532 C570 0.930 . S
H533 C514 0.930 . S
H534 C569 0.931 . S
N535 Eu504 2.657 . S
N535 C536 1.334 . S
N535 C540 1.362 . S
C536 H528 0.929 . S
C536 N535 1.334 . S
C536 C539 1.413 . S
C537 H531 0.930 . S
C537 C538 1.392 . S
C537 C539 1.367 . S
C538 C537 1.392 . S
C538 C540 1.420 . S
C538 C570 1.423 . S
C539 H525 0.930 . S
C539 C536 1.413 . S
C539 C537 1.367 . S
C540 N535 1.362 . S
C540 C538 1.420 . S
C540 C544 1.429 . S
H541 C546 0.930 . S
N542 Eu504 2.609 . S
N542 C544 1.377 . S
N542 C545 1.321 . S
C543 H529 0.930 . S
C543 C545 1.400 . S
C543 C546 1.386 . S
C544 C540 1.429 . S
C544 N542 1.377 . S
C544 C547 1.411 . S
C545 H527 0.930 . S
C545 N542 1.321 . S
C545 C543 1.400 . S
C546 H541 0.930 . S
C546 C543 1.386 . S
C546 C547 1.395 . S
C547 C544 1.411 . S
C547 C546 1.395 . S
C547 C569 1.420 . S
O548 Eu504 2.558 . S
O548 C568 1.257 . S
O549 Eu504 2.612 . S
O549 Eu515 2.380 1_556 S
O549 C560 1.276 . S
O550 Eu515 2.432 . S
O550 C567 1.264 1_554 S
O551 Eu504 2.339 . S
O551 C567 1.254 . S
O552 Eu504 2.563 . S
O552 C560 1.235 . S
O553 Eu504 2.419 . S
O553 C568 1.249 . S
O554 Eu515 2.558 . S
O554 C579 1.257 . S
O555 Eu504 2.380 1_554 S
O555 Eu515 2.612 . S
O555 C571 1.276 . S
O556 Eu504 2.432 . S
O556 C578 1.264 1_556 S
O557 Eu515 2.339 . S
O557 C578 1.254 . S
O558 Eu515 2.563 . S
O558 C571 1.235 . S
O559 Eu515 2.419 . S
O559 C579 1.249 . S
C560 O549 1.276 . S
C560 O552 1.235 . S
C561 C563 1.393 . S
C561 C565 1.395 . S
C561 C568 1.492 . S
C562 C563 1.392 . S
C562 C564 1.386 . S
C563 C561 1.393 . S
C563 C562 1.392 . S
C563 H580 0.930 . S
C564 C562 1.386 . S
C564 C566 1.395 . S
C564 H581 0.930 . S
C565 C561 1.395 . S
C565 C566 1.379 . S
C565 H582 0.930 . S
C566 C564 1.395 . S
C566 C565 1.379 . S
C566 H583 0.930 . S
C567 O550 1.264 1_556 S
C567 O551 1.254 . S
C568 Eu504 2.848 . S
C568 O548 1.257 . S
C568 O553 1.249 . S
C568 C561 1.492 . S
C569 H534 0.931 . S
C569 C547 1.420 . S
C569 C570 1.351 . S
C570 H532 0.930 . S
C570 C538 1.423 . S
C570 C569 1.351 . S
C571 O555 1.276 . S
C571 O558 1.235 . S
C572 C573 1.393 . S
C572 C576 1.395 . S
C572 C579 1.492 . S
C573 C572 1.393 . S
C573 C574 1.392 . S
C573 H584 0.930 . S
C574 C573 1.392 . S
C574 C575 1.386 . S
C575 C574 1.386 . S
C575 C577 1.395 . S
C575 H585 0.930 . S
C576 C572 1.395 . S
C576 C577 1.379 . S
C576 H586 0.930 . S
C577 C575 1.395 . S
C577 C576 1.379 . S
C577 H587 0.930 . S
C578 O556 1.264 1_554 S
C578 O557 1.254 . S
C579 Eu515 2.848 . S
C579 O554 1.257 . S
C579 O559 1.249 . S
C579 C572 1.492 . S
H580 C563 0.930 . S
H581 C564 0.930 . S
H582 C565 0.930 . S
H583 C566 0.930 . S
H584 C573 0.930 . S
H585 C575 0.930 . S
H586 C576 0.930 . S
H587 C577 0.930 . S
Eu588 N619 2.650 1_655 S
Eu588 N626 2.609 1_655 S
Eu588 O632 2.562 . S
Eu588 O633 2.615 . S
Eu588 O635 2.333 1_655 S
Eu588 O636 2.569 . S
Eu588 O637 2.417 1_655 S
Eu588 O639 2.377 1_655 S
Eu588 O640 2.438 . S
Eu588 C652 2.849 . S
C589 C592 1.429 . S
C589 C593 1.411 . S
C589 N596 1.377 . S
C590 C592 1.420 . S
C590 C594 1.423 . S
C590 C602 1.392 . S
C591 C593 1.420 . S
C591 C594 1.351 . S
C591 H614 0.931 . S
C592 C589 1.429 . S
C592 C590 1.420 . S
C592 N600 1.362 . S
C593 C589 1.411 . S
C593 C591 1.420 . S
C593 C598 1.395 . S
C594 C590 1.423 . S
C594 C591 1.351 . S
C594 H606 0.930 . S
C595 C597 1.400 . S
C595 C598 1.386 1_455 S
C595 H607 0.930 . S
N596 C589 1.377 . S
N596 C597 1.321 1_655 S
N596 Eu599 2.609 1_655 S
C597 C595 1.400 . S
C597 N596 1.321 1_455 S
C597 H604 0.930 . S
C598 C593 1.395 . S
C598 C595 1.386 1_655 S
C598 H617 0.930 . S
Eu599 N596 2.609 1_455 S
Eu599 N600 2.645 1_455 S
Eu599 O633 2.375 1_455 S
Eu599 O634 2.442 . S
Eu599 O638 2.565 . S
Eu599 O639 2.616 . S
Eu599 O641 2.330 1_455 S
Eu599 O642 2.572 . S
Eu599 O643 2.416 1_455 S
Eu599 C663 2.850 . S
N600 C592 1.362 . S
N600 Eu599 2.645 1_655 S
N600 C601 1.334 . S
C601 N600 1.334 . S
C601 C603 1.413 . S
C601 H608 0.929 . S
C602 C590 1.392 . S
C602 C603 1.367 . S
C602 H610 0.930 . S
C603 C601 1.413 . S
C603 C602 1.367 . S
C603 H605 0.930 . S
H604 C597 0.930 . S
H605 C603 0.930 . S
H606 C594 0.930 . S
H607 C595 0.930 . S
H608 C601 0.929 . S
H609 C623 0.930 . S
H610 C602 0.930 . S
H611 C629 0.930 . S
H612 C620 0.929 . S
H613 C627 0.930 . S
H614 C591 0.931 . S
H615 C621 0.930 . S
H616 C654 0.930 . S
H617 C598 0.930 . S
H618 C653 0.931 . S
N619 Eu588 2.650 1_455 S
N619 C620 1.334 . S
N619 C624 1.362 . S
C620 H612 0.929 . S
C620 N619 1.334 . S
C620 C623 1.413 . S
C621 H615 0.930 . S
C621 C622 1.392 . S
C621 C623 1.367 . S
C622 C621 1.392 . S
C622 C624 1.420 . S
C622 C654 1.423 . S
C623 H609 0.930 . S
C623 C620 1.413 . S
C623 C621 1.367 . S
C624 N619 1.362 . S
C624 C622 1.420 . S
C624 C628 1.429 . S
H625 C630 0.930 . S
N626 Eu588 2.609 1_455 S
N626 C628 1.377 . S
N626 C629 1.321 1_455 S
C627 H613 0.930 . S
C627 C629 1.400 . S
C627 C630 1.386 1_655 S
C628 C624 1.429 . S
C628 N626 1.377 . S
C628 C631 1.411 . S
C629 H611 0.930 . S
C629 N626 1.321 1_655 S
C629 C627 1.400 . S
C630 H625 0.930 . S
C630 C627 1.386 1_455 S
C630 C631 1.395 . S
C631 C628 1.411 . S
C631 C630 1.395 . S
C631 C653 1.420 . S
O632 Eu588 2.562 . S
O632 C652 1.257 . S
O633 Eu588 2.615 . S
O633 Eu599 2.375 1_655 S
O633 C644 1.276 . S
O634 Eu599 2.442 . S
O634 C651 1.264 . S
O635 Eu588 2.333 1_455 S
O635 C651 1.254 . S
O636 Eu588 2.569 . S
O636 C644 1.235 . S
O637 Eu588 2.417 1_455 S
O637 C652 1.249 1_455 S
O638 Eu599 2.565 . S
O638 C663 1.257 . S
O639 Eu588 2.377 1_455 S
O639 Eu599 2.616 . S
O639 C655 1.276 . S
O640 Eu588 2.438 . S
O640 C662 1.264 . S
O641 Eu599 2.330 1_655 S
O641 C662 1.254 . S
O642 Eu599 2.572 . S
O642 C655 1.235 . S
O643 Eu599 2.416 1_655 S
O643 C663 1.249 1_655 S
C644 O633 1.276 . S
C644 O636 1.235 . S
C645 C647 1.393 . S
C645 C649 1.395 . S
C645 C652 1.492 . S
C646 C647 1.392 . S
C646 C648 1.386 . S
C647 C645 1.393 . S
C647 C646 1.392 . S
C647 H664 0.930 1_655 S
C648 C646 1.386 . S
C648 C650 1.395 . S
C648 H665 0.930 . S
C649 C645 1.395 . S
C649 C650 1.379 . S
C649 H666 0.930 . S
C650 C648 1.395 . S
C650 C649 1.379 . S
C650 H667 0.930 . S
C651 O634 1.264 . S
C651 O635 1.254 . S
C652 Eu588 2.849 . S
C652 O632 1.257 . S
C652 O637 1.249 1_655 S
C652 C645 1.492 . S
C653 H618 0.931 . S
C653 C631 1.420 . S
C653 C654 1.351 . S
C654 H616 0.930 . S
C654 C622 1.423 . S
C654 C653 1.351 . S
C655 O639 1.276 . S
C655 O642 1.235 . S
C656 C657 1.393 . S
C656 C660 1.395 . S
C656 C663 1.492 . S
C657 C656 1.393 . S
C657 C658 1.392 . S
C657 H668 0.930 1_455 S
C658 C657 1.392 . S
C658 C659 1.386 . S
C659 C658 1.386 . S
C659 C661 1.395 . S
C659 H669 0.930 . S
C660 C656 1.395 . S
C660 C661 1.379 . S
C660 H670 0.930 . S
C661 C659 1.395 . S
C661 C660 1.379 . S
C661 H671 0.930 . S
C662 O640 1.264 . S
C662 O641 1.254 . S
C663 Eu599 2.850 . S
C663 O638 1.257 . S
C663 O643 1.249 1_455 S
C663 C656 1.492 . S
H664 C647 0.930 1_455 S
H665 C648 0.930 . S
H666 C649 0.930 . S
H667 C650 0.930 . S
H668 C657 0.930 1_655 S
H669 C659 0.930 . S
H670 C660 0.930 . S
H671 C661 0.930 . S
C672 C673 1.363 . S
C672 C678 1.379 . S
C672 N680 1.356 . S
C673 C672 1.363 . S
C673 C679 1.363 . S
C674 C675 1.363 . S
C674 C679 1.379 . S
C674 N681 1.356 . S
C675 C674 1.363 . S
C675 C678 1.363 . S
N676 C678 1.356 . S
N676 H688 0.984 . S
N676 H689 0.985 . S
N677 C679 1.356 . S
N677 H682 0.984 . S
N677 H683 0.985 . S
C678 C672 1.379 . S
C678 C675 1.363 . S
C678 N676 1.356 . S
C679 C673 1.363 . S
C679 C674 1.379 . S
C679 N677 1.356 . S
N680 C672 1.356 . S
N680 H686 0.984 . S
N680 H687 0.984 . S
N681 C674 1.356 . S
N681 H684 0.984 . S
N681 H685 0.985 . S
H682 N677 0.984 . S
H683 N677 0.985 . S
H684 N681 0.984 . S
H685 N681 0.985 . S
H686 N680 0.984 . S
H687 N680 0.984 . S
H688 N676 0.984 . S
H689 N676 0.985 . S
C690 C691 1.363 . S
C690 C696 1.379 . S
C690 N698 1.356 . S
C691 C690 1.363 . S
C691 C697 1.363 . S
C692 C693 1.363 . S
C692 C697 1.379 . S
C692 N699 1.356 . S
C693 C692 1.363 . S
C693 C696 1.363 . S
N694 C696 1.356 . S
N694 H706 0.984 . S
N694 H707 0.985 . S
N695 C697 1.356 . S
N695 H700 0.984 . S
N695 H701 0.985 . S
C696 C690 1.379 . S
C696 C693 1.363 . S
C696 N694 1.356 . S
C697 C691 1.363 . S
C697 C692 1.379 . S
C697 N695 1.356 . S
N698 C690 1.356 . S
N698 H704 0.984 . S
N698 H705 0.984 . S
N699 C692 1.356 . S
N699 H702 0.984 . S
N699 H703 0.985 . S
H700 N695 0.984 . S
H701 N695 0.985 . S
H702 N699 0.984 . S
H703 N699 0.985 . S
H704 N698 0.984 . S
H705 N698 0.984 . S
H706 N694 0.984 . S
H707 N694 0.985 . S
C708 C709 1.363 . S
C708 C714 1.379 . S
C708 N716 1.356 . S
C709 C708 1.363 . S
C709 C715 1.363 . S
C710 C711 1.363 . S
C710 C715 1.379 . S
C710 N717 1.356 . S
C711 C710 1.363 . S
C711 C714 1.363 . S
N712 C714 1.356 . S
N712 H724 0.984 . S
N712 H725 0.985 . S
N713 C715 1.356 . S
N713 H718 0.984 . S
N713 H719 0.985 . S
C714 C708 1.379 . S
C714 C711 1.363 . S
C714 N712 1.356 . S
C715 C709 1.363 . S
C715 C710 1.379 . S
C715 N713 1.356 . S
N716 C708 1.356 . S
N716 H722 0.984 . S
N716 H723 0.984 . S
N717 C710 1.356 . S
N717 H720 0.984 . S
N717 H721 0.985 1_556 S
H718 N713 0.984 . S
H719 N713 0.985 . S
H720 N717 0.984 . S
H721 N717 0.985 1_554 S
H722 N716 0.984 . S
H723 N716 0.984 . S
H724 N712 0.984 . S
H725 N712 0.985 . S
C726 C727 1.363 . S
C726 C732 1.379 . S
C726 N734 1.356 . S
C727 C726 1.363 . S
C727 C733 1.363 . S
C728 C729 1.363 . S
C728 C733 1.379 . S
C728 N735 1.356 . S
C729 C728 1.363 . S
C729 C732 1.363 . S
N730 C732 1.356 . S
N730 H742 0.984 . S
N730 H743 0.985 . S
N731 C733 1.356 . S
N731 H736 0.984 . S
N731 H737 0.985 . S
C732 C726 1.379 . S
C732 C729 1.363 . S
C732 N730 1.356 . S
C733 C727 1.363 . S
C733 C728 1.379 . S
C733 N731 1.356 . S
N734 C726 1.356 . S
N734 H740 0.984 . S
N734 H741 0.984 . S
N735 C728 1.356 . S
N735 H738 0.984 . S
N735 H739 0.985 . S
H736 N731 0.984 . S
H737 N731 0.985 . S
H738 N735 0.984 . S
H739 N735 0.985 . S
H740 N734 0.984 . S
H741 N734 0.984 . S
H742 N730 0.984 . S
H743 N730 0.985 . S
C744 C745 1.363 . S
C744 C750 1.379 . S
C744 N752 1.356 . S
C745 C744 1.363 . S
C745 C751 1.363 . S
C746 C747 1.363 . S
C746 C751 1.379 . S
C746 N753 1.356 . S
C747 C746 1.363 . S
C747 C750 1.363 . S
N748 C750 1.356 . S
N748 H760 0.984 . S
N748 H761 0.985 . S
N749 C751 1.356 . S
N749 H754 0.984 . S
N749 H755 0.985 . S
C750 C744 1.379 . S
C750 C747 1.363 . S
C750 N748 1.356 . S
C751 C745 1.363 . S
C751 C746 1.379 . S
C751 N749 1.356 . S
N752 C744 1.356 . S
N752 H758 0.984 . S
N752 H759 0.984 . S
N753 C746 1.356 . S
N753 H756 0.984 . S
N753 H757 0.985 . S
H754 N749 0.984 . S
H755 N749 0.985 . S
H756 N753 0.984 . S
H757 N753 0.985 . S
H758 N752 0.984 . S
H759 N752 0.984 . S
H760 N748 0.984 . S
H761 N748 0.985 . S
C762 C763 1.363 . S
C762 C768 1.379 . S
C762 N770 1.356 . S
C763 C762 1.363 . S
C763 C769 1.363 . S
C764 C765 1.363 . S
C764 C769 1.379 . S
C764 N771 1.356 . S
C765 C764 1.363 . S
C765 C768 1.363 . S
N766 C768 1.356 . S
N766 H778 0.984 . S
N766 H779 0.985 . S
N767 C769 1.356 . S
N767 H772 0.984 . S
N767 H773 0.985 . S
C768 C762 1.379 . S
C768 C765 1.363 . S
C768 N766 1.356 . S
C769 C763 1.363 . S
C769 C764 1.379 . S
C769 N767 1.356 . S
N770 C762 1.356 . S
N770 H776 0.984 . S
N770 H777 0.984 . S
N771 C764 1.356 . S
N771 H774 0.984 . S
N771 H775 0.985 . S
H772 N767 0.984 . S
H773 N767 0.985 . S
H774 N771 0.984 . S
H775 N771 0.985 . S
H776 N770 0.984 . S
H777 N770 0.984 . S
H778 N766 0.984 . S
H779 N766 0.985 . S
C780 C781 1.363 . S
C780 C786 1.379 . S
C780 N788 1.356 . S
C781 C780 1.363 . S
C781 C787 1.363 . S
C782 C783 1.363 . S
C782 C787 1.379 . S
C782 N789 1.356 . S
C783 C782 1.363 . S
C783 C786 1.363 . S
N784 C786 1.356 . S
N784 H796 0.984 . S
N784 H797 0.985 . S
N785 C787 1.356 . S
N785 H790 0.984 . S
N785 H791 0.985 . S
C786 C780 1.379 . S
C786 C783 1.363 . S
C786 N784 1.356 . S
C787 C781 1.363 . S
C787 C782 1.379 . S
C787 N785 1.356 . S
N788 C780 1.356 . S
N788 H794 0.984 . S
N788 H795 0.984 . S
N789 C782 1.356 . S
N789 H792 0.984 . S
N789 H793 0.985 . S
H790 N785 0.984 . S
H791 N785 0.985 . S
H792 N789 0.984 . S
H793 N789 0.985 . S
H794 N788 0.984 . S
H795 N788 0.984 . S
H796 N784 0.984 . S
H797 N784 0.985 . S
C798 C799 1.363 . S
C798 C804 1.379 . S
C798 N806 1.356 . S
C799 C798 1.363 . S
C799 C805 1.363 . S
C800 C801 1.363 . S
C800 C805 1.379 . S
C800 N807 1.356 . S
C801 C800 1.363 . S
C801 C804 1.363 . S
N802 C804 1.356 . S
N802 H814 0.984 . S
N802 H815 0.985 . S
N803 C805 1.356 . S
N803 H808 0.984 . S
N803 H809 0.985 . S
C804 C798 1.379 . S
C804 C801 1.363 . S
C804 N802 1.356 . S
C805 C799 1.363 . S
C805 C800 1.379 . S
C805 N803 1.356 . S
N806 C798 1.356 . S
N806 H812 0.984 . S
N806 H813 0.984 . S
N807 C800 1.356 . S
N807 H810 0.984 . S
N807 H811 0.985 1_556 S
H808 N803 0.984 . S
H809 N803 0.985 . S
H810 N807 0.984 . S
H811 N807 0.985 1_554 S
H812 N806 0.984 . S
H813 N806 0.984 . S
H814 N802 0.984 . S
H815 N802 0.985 . S
C816 C817 1.363 . S
C816 C822 1.379 . S
C816 N824 1.356 . S
C817 C816 1.363 . S
C817 C823 1.363 . S
C818 C819 1.363 . S
C818 C823 1.379 . S
C818 N825 1.356 . S
C819 C818 1.363 . S
C819 C822 1.363 . S
N820 C822 1.356 . S
N820 H832 0.984 . S
N820 H833 0.985 . S
N821 C823 1.356 . S
N821 H826 0.984 . S
N821 H827 0.985 1_556 S
C822 C816 1.379 . S
C822 C819 1.363 . S
C822 N820 1.356 . S
C823 C817 1.363 . S
C823 C818 1.379 . S
C823 N821 1.356 . S
N824 C816 1.356 . S
N824 H830 0.984 . S
N824 H831 0.984 . S
N825 C818 1.356 . S
N825 H828 0.984 . S
N825 H829 0.985 . S
H826 N821 0.984 . S
H827 N821 0.985 1_554 S
H828 N825 0.984 . S
H829 N825 0.985 . S
H830 N824 0.984 . S
H831 N824 0.984 . S
H832 N820 0.984 . S
H833 N820 0.985 . S
C834 C835 1.363 . S
C834 C840 1.379 . S
C834 N842 1.356 . S
C835 C834 1.363 . S
C835 C841 1.363 . S
C836 C837 1.363 . S
C836 C841 1.379 . S
C836 N843 1.356 . S
C837 C836 1.363 . S
C837 C840 1.363 . S
N838 C840 1.356 . S
N838 H850 0.984 1_554 S
N838 H851 0.985 1_554 S
N839 C841 1.356 . S
N839 H844 0.984 . S
N839 H845 0.985 . S
C840 C834 1.379 . S
C840 C837 1.363 . S
C840 N838 1.356 . S
C841 C835 1.363 . S
C841 C836 1.379 . S
C841 N839 1.356 . S
N842 C834 1.356 . S
N842 H848 0.984 . S
N842 H849 0.984 . S
N843 C836 1.356 . S
N843 H846 0.984 . S
N843 H847 0.985 . S
H844 N839 0.984 . S
H845 N839 0.985 . S
H846 N843 0.984 . S
H847 N843 0.985 . S
H848 N842 0.984 . S
H849 N842 0.984 . S
H850 N838 0.984 1_556 S
H851 N838 0.985 1_556 S
C852 C853 1.363 . S
C852 C858 1.379 . S
C852 N860 1.356 . S
C853 C852 1.363 . S
C853 C859 1.363 . S
C854 C855 1.363 . S
C854 C859 1.379 . S
C854 N861 1.356 . S
C855 C854 1.363 . S
C855 C858 1.363 . S
N856 C858 1.356 . S
N856 H868 0.984 . S
N856 H869 0.985 . S
N857 C859 1.356 . S
N857 H862 0.984 . S
N857 H863 0.985 . S
C858 C852 1.379 . S
C858 C855 1.363 . S
C858 N856 1.356 . S
C859 C853 1.363 . S
C859 C854 1.379 . S
C859 N857 1.356 . S
N860 C852 1.356 . S
N860 H866 0.984 . S
N860 H867 0.984 . S
N861 C854 1.356 . S
N861 H864 0.984 . S
N861 H865 0.985 . S
H862 N857 0.984 . S
H863 N857 0.985 . S
H864 N861 0.984 . S
H865 N861 0.985 . S
H866 N860 0.984 . S
H867 N860 0.984 . S
H868 N856 0.984 . S
H869 N856 0.985 . S
C870 C871 1.363 . S
C870 C876 1.379 . S
C870 N878 1.356 . S
C871 C870 1.363 . S
C871 C877 1.363 . S
C872 C873 1.363 . S
C872 C877 1.379 . S
C872 N879 1.356 . S
C873 C872 1.363 . S
C873 C876 1.363 . S
N874 C876 1.356 . S
N874 H886 0.984 . S
N874 H887 0.985 . S
N875 C877 1.356 . S
N875 H880 0.984 . S
N875 H881 0.985 . S
C876 C870 1.379 . S
C876 C873 1.363 . S
C876 N874 1.356 . S
C877 C871 1.363 . S
C877 C872 1.379 . S
C877 N875 1.356 . S
N878 C870 1.356 . S
N878 H884 0.984 . S
N878 H885 0.984 . S
N879 C872 1.356 . S
N879 H882 0.984 . S
N879 H883 0.985 . S
H880 N875 0.984 . S
H881 N875 0.985 . S
H882 N879 0.984 . S
H883 N879 0.985 . S
H884 N878 0.984 . S
H885 N878 0.984 . S
H886 N874 0.984 . S
H887 N874 0.985 . S
C888 C889 1.363 . S
C888 C894 1.379 . S
C888 N896 1.356 . S
C889 C888 1.363 . S
C889 C895 1.363 . S
C890 C891 1.363 . S
C890 C895 1.379 . S
C890 N897 1.356 . S
C891 C890 1.363 . S
C891 C894 1.363 . S
N892 C894 1.356 . S
N892 H904 0.984 . S
N892 H905 0.985 . S
N893 C895 1.356 . S
N893 H898 0.984 . S
N893 H899 0.985 . S
C894 C888 1.379 . S
C894 C891 1.363 . S
C894 N892 1.356 . S
C895 C889 1.363 . S
C895 C890 1.379 . S
C895 N893 1.356 . S
N896 C888 1.356 . S
N896 H902 0.984 . S
N896 H903 0.984 . S
N897 C890 1.356 . S
N897 H900 0.984 . S
N897 H901 0.985 1_554 S
H898 N893 0.984 . S
H899 N893 0.985 . S
H900 N897 0.984 . S
H901 N897 0.985 1_556 S
H902 N896 0.984 . S
H903 N896 0.984 . S
H904 N892 0.984 . S
H905 N892 0.985 . S
C906 C907 1.363 . S
C906 C912 1.379 . S
C906 N914 1.356 . S
C907 C906 1.363 . S
C907 C913 1.363 . S
C908 C909 1.363 . S
C908 C913 1.379 . S
C908 N915 1.356 . S
C909 C908 1.363 . S
C909 C912 1.363 . S
N910 C912 1.356 . S
N910 H922 0.984 . S
N910 H923 0.985 . S
N911 C913 1.356 . S
N911 H916 0.984 . S
N911 H917 0.985 . S
C912 C906 1.379 . S
C912 C909 1.363 . S
C912 N910 1.356 . S
C913 C907 1.363 . S
C913 C908 1.379 . S
C913 N911 1.356 . S
N914 C906 1.356 . S
N914 H920 0.984 1_556 S
N914 H921 0.984 1_556 S
N915 C908 1.356 . S
N915 H918 0.984 . S
N915 H919 0.985 . S
H916 N911 0.984 . S
H917 N911 0.985 . S
H918 N915 0.984 . S
H919 N915 0.985 . S
H920 N914 0.984 1_554 S
H921 N914 0.984 1_554 S
H922 N910 0.984 . S
H923 N910 0.985 . S
C924 C925 1.363 . S
C924 C930 1.379 . S
C924 N932 1.356 . S
C925 C924 1.363 . S
C925 C931 1.363 . S
C926 C927 1.363 . S
C926 C931 1.379 . S
C926 N933 1.356 . S
C927 C926 1.363 . S
C927 C930 1.363 . S
N928 C930 1.356 . S
N928 H940 0.984 . S
N928 H941 0.985 . S
N929 C931 1.356 . S
N929 H934 0.984 . S
N929 H935 0.985 . S
C930 C924 1.379 . S
C930 C927 1.363 . S
C930 N928 1.356 . S
C931 C925 1.363 . S
C931 C926 1.379 . S
C931 N929 1.356 . S
N932 C924 1.356 . S
N932 H938 0.984 . S
N932 H939 0.984 . S
N933 C926 1.356 . S
N933 H936 0.984 . S
N933 H937 0.985 . S
H934 N929 0.984 . S
H935 N929 0.985 . S
H936 N933 0.984 . S
H937 N933 0.985 . S
H938 N932 0.984 . S
H939 N932 0.984 . S
H940 N928 0.984 . S
H941 N928 0.985 . S
C942 C943 1.363 . S
C942 C948 1.379 . S
C942 N950 1.356 . S
C943 C942 1.363 . S
C943 C949 1.363 . S
C944 C945 1.363 . S
C944 C949 1.379 . S
C944 N951 1.356 . S
C945 C944 1.363 . S
C945 C948 1.363 . S
N946 C948 1.356 . S
N946 H958 0.984 . S
N946 H959 0.985 . S
N947 C949 1.356 . S
N947 H952 0.984 . S
N947 H953 0.985 . S
C948 C942 1.379 . S
C948 C945 1.363 . S
C948 N946 1.356 . S
C949 C943 1.363 . S
C949 C944 1.379 . S
C949 N947 1.356 . S
N950 C942 1.356 . S
N950 H956 0.984 . S
N950 H957 0.984 . S
N951 C944 1.356 . S
N951 H954 0.984 . S
N951 H955 0.985 . S
H952 N947 0.984 . S
H953 N947 0.985 . S
H954 N951 0.984 . S
H955 N951 0.985 . S
H956 N950 0.984 . S
H957 N950 0.984 . S
H958 N946 0.984 . S
H959 N946 0.985 . S
C960 C961 1.363 1_565 S
C960 C966 1.379 1_556 S
C960 N968 1.356 . S
C961 C960 1.363 1_545 S
C961 C967 1.363 1_655 S
C962 C963 1.363 1_545 S
C962 C967 1.379 1_554 S
C962 N969 1.356 . S
C963 C962 1.363 1_565 S
C963 C966 1.363 1_455 S
N964 C966 1.356 . S
N964 H976 0.984 . S
N964 H977 0.985 . S
N965 C967 1.356 . S
N965 H970 0.984 . S
N965 H971 0.985 . S
C966 C960 1.379 1_554 S
C966 C963 1.363 1_655 S
C966 N964 1.356 . S
C967 C961 1.363 1_455 S
C967 C962 1.379 1_556 S
C967 N965 1.356 . S
N968 C960 1.356 . S
N968 H974 0.984 . S
N968 H975 0.984 . S
N969 C962 1.356 . S
N969 H972 0.984 . S
N969 H973 0.985 . S
H970 N965 0.984 . S
H971 N965 0.985 . S
H972 N969 0.984 . S
H973 N969 0.985 . S
H974 N968 0.984 . S
H975 N968 0.984 . S
H976 N964 0.984 . S
H977 N964 0.985 . S
C978 C979 1.363 . S
C978 C984 1.379 . S
C978 N986 1.356 . S
C979 C978 1.363 . S
C979 C985 1.363 . S
C980 C981 1.363 . S
C980 C985 1.379 . S
C980 N987 1.356 . S
C981 C980 1.363 . S
C981 C984 1.363 . S
N982 C984 1.356 . S
N982 H994 0.984 . S
N982 H995 0.985 . S
N983 C985 1.356 . S
N983 H988 0.984 . S
N983 H989 0.985 . S
C984 C978 1.379 . S
C984 C981 1.363 . S
C984 N982 1.356 . S
C985 C979 1.363 . S
C985 C980 1.379 . S
C985 N983 1.356 . S
N986 C978 1.356 . S
N986 H992 0.984 . S
N986 H993 0.984 . S
N987 C980 1.356 . S
N987 H990 0.984 . S
N987 H991 0.985 . S
H988 N983 0.984 . S
H989 N983 0.985 . S
H990 N987 0.984 . S
H991 N987 0.985 . S
H992 N986 0.984 . S
H993 N986 0.984 . S
H994 N982 0.984 . S
H995 N982 0.985 . S
C996 C997 1.363 . S
C996 C1002 1.379 . S
C996 N1004 1.356 . S
C997 C996 1.363 . S
C997 C1003 1.363 1_545 S
C998 C999 1.363 . S
C998 C1003 1.379 . S
C998 N1005 1.356 . S
C999 C998 1.363 . S
C999 C1002 1.363 1_565 S
N1000 C1002 1.356 . S
N1000 H1012 0.984 . S
N1000 H1013 0.985 . S
N1001 C1003 1.356 . S
N1001 H1006 0.984 . S
N1001 H1007 0.985 . S
C1002 C996 1.379 . S
C1002 C999 1.363 1_545 S
C1002 N1000 1.356 . S
C1003 C997 1.363 1_565 S
C1003 C998 1.379 . S
C1003 N1001 1.356 . S
N1004 C996 1.356 . S
N1004 H1010 0.984 . S
N1004 H1011 0.984 . S
N1005 C998 1.356 . S
N1005 H1008 0.984 . S
N1005 H1009 0.985 . S
H1006 N1001 0.984 . S
H1007 N1001 0.985 . S
H1008 N1005 0.984 . S
H1009 N1005 0.985 . S
H1010 N1004 0.984 . S
H1011 N1004 0.984 . S
H1012 N1000 0.984 . S
H1013 N1000 0.985 . S
C1014 C1015 1.363 . S
C1014 C1020 1.379 . S
C1014 N1022 1.356 . S
C1015 C1014 1.363 . S
C1015 C1021 1.363 . S
C1016 C1017 1.363 . S
C1016 C1021 1.379 . S
C1016 N1023 1.356 . S
C1017 C1016 1.363 . S
C1017 C1020 1.363 . S
N1018 C1020 1.356 . S
N1018 H1030 0.984 . S
N1018 H1031 0.985 . S
N1019 C1021 1.356 . S
N1019 H1024 0.984 . S
N1019 H1025 0.985 . S
C1020 C1014 1.379 . S
C1020 C1017 1.363 . S
C1020 N1018 1.356 . S
C1021 C1015 1.363 . S
C1021 C1016 1.379 . S
C1021 N1019 1.356 . S
N1022 C1014 1.356 . S
N1022 H1028 0.984 . S
N1022 H1029 0.984 . S
N1023 C1016 1.356 . S
N1023 H1026 0.984 . S
N1023 H1027 0.985 . S
H1024 N1019 0.984 . S
H1025 N1019 0.985 . S
H1026 N1023 0.984 . S
H1027 N1023 0.985 . S
H1028 N1022 0.984 . S
H1029 N1022 0.984 . S
H1030 N1018 0.984 . S
H1031 N1018 0.985 . S
C1032 C1033 1.363 . S
C1032 C1038 1.379 . S
C1032 N1040 1.356 . S
C1033 C1032 1.363 . S
C1033 C1039 1.363 . S
C1034 C1035 1.363 . S
C1034 C1039 1.379 . S
C1034 N1041 1.356 . S
C1035 C1034 1.363 . S
C1035 C1038 1.363 . S
N1036 C1038 1.356 . S
N1036 H1048 0.984 . S
N1036 H1049 0.985 . S
N1037 C1039 1.356 . S
N1037 H1042 0.984 . S
N1037 H1043 0.985 . S
C1038 C1032 1.379 . S
C1038 C1035 1.363 . S
C1038 N1036 1.356 . S
C1039 C1033 1.363 . S
C1039 C1034 1.379 . S
C1039 N1037 1.356 . S
N1040 C1032 1.356 . S
N1040 H1046 0.984 . S
N1040 H1047 0.984 . S
N1041 C1034 1.356 . S
N1041 H1044 0.984 . S
N1041 H1045 0.985 . S
H1042 N1037 0.984 . S
H1043 N1037 0.985 . S
H1044 N1041 0.984 . S
H1045 N1041 0.985 . S
H1046 N1040 0.984 . S
H1047 N1040 0.984 . S
H1048 N1036 0.984 . S
H1049 N1036 0.985 . S
C1050 C1051 1.363 . S
C1050 C1056 1.379 . S
C1050 N1058 1.356 . S
C1051 C1050 1.363 . S
C1051 C1057 1.363 . S
C1052 C1053 1.363 . S
C1052 C1057 1.379 . S
C1052 N1059 1.356 . S
C1053 C1052 1.363 . S
C1053 C1056 1.363 . S
N1054 C1056 1.356 . S
N1054 H1066 0.984 . S
N1054 H1067 0.985 . S
N1055 C1057 1.356 . S
N1055 H1060 0.984 . S
N1055 H1061 0.985 . S
C1056 C1050 1.379 . S
C1056 C1053 1.363 . S
C1056 N1054 1.356 . S
C1057 C1051 1.363 . S
C1057 C1052 1.379 . S
C1057 N1055 1.356 . S
N1058 C1050 1.356 . S
N1058 H1064 0.984 . S
N1058 H1065 0.984 . S
N1059 C1052 1.356 . S
N1059 H1062 0.984 . S
N1059 H1063 0.985 . S
H1060 N1055 0.984 . S
H1061 N1055 0.985 . S
H1062 N1059 0.984 . S
H1063 N1059 0.985 . S
H1064 N1058 0.984 . S
H1065 N1058 0.984 . S
H1066 N1054 0.984 . S
H1067 N1054 0.985 . S
C1068 C1069 1.363 . S
C1068 C1074 1.379 . S
C1068 N1076 1.356 . S
C1069 C1068 1.363 . S
C1069 C1075 1.363 . S
C1070 C1071 1.363 . S
C1070 C1075 1.379 . S
C1070 N1077 1.356 . S
C1071 C1070 1.363 . S
C1071 C1074 1.363 . S
N1072 C1074 1.356 . S
N1072 H1084 0.984 . S
N1072 H1085 0.985 . S
N1073 C1075 1.356 . S
N1073 H1078 0.984 . S
N1073 H1079 0.985 . S
C1074 C1068 1.379 . S
C1074 C1071 1.363 . S
C1074 N1072 1.356 . S
C1075 C1069 1.363 . S
C1075 C1070 1.379 . S
C1075 N1073 1.356 . S
N1076 C1068 1.356 . S
N1076 H1082 0.984 . S
N1076 H1083 0.984 . S
N1077 C1070 1.356 . S
N1077 H1080 0.984 . S
N1077 H1081 0.985 . S
H1078 N1073 0.984 . S
H1079 N1073 0.985 . S
H1080 N1077 0.984 . S
H1081 N1077 0.985 . S
H1082 N1076 0.984 . S
H1083 N1076 0.984 . S
H1084 N1072 0.984 . S
H1085 N1072 0.985 . S
C1086 C1087 1.363 . S
C1086 C1092 1.379 1_556 S
C1086 N1094 1.356 . S
C1087 C1086 1.363 . S
C1087 C1093 1.363 1_655 S
C1088 C1089 1.363 . S
C1088 C1093 1.379 1_554 S
C1088 N1095 1.356 . S
C1089 C1088 1.363 . S
C1089 C1092 1.363 1_455 S
N1090 C1092 1.356 . S
N1090 H1102 0.984 . S
N1090 H1103 0.985 . S
N1091 C1093 1.356 . S
N1091 H1096 0.984 . S
N1091 H1097 0.985 . S
C1092 C1086 1.379 1_554 S
C1092 C1089 1.363 1_655 S
C1092 N1090 1.356 . S
C1093 C1087 1.363 1_455 S
C1093 C1088 1.379 1_556 S
C1093 N1091 1.356 . S
N1094 C1086 1.356 . S
N1094 H1100 0.984 . S
N1094 H1101 0.984 . S
N1095 C1088 1.356 . S
N1095 H1098 0.984 . S
N1095 H1099 0.985 . S
H1096 N1091 0.984 . S
H1097 N1091 0.985 . S
H1098 N1095 0.984 . S
H1099 N1095 0.985 . S
H1100 N1094 0.984 . S
H1101 N1094 0.984 . S
H1102 N1090 0.984 . S
H1103 N1090 0.985 . S
C673 C56 1.568 . S
C675 C308 1.564 . S
C691 C74 1.474 . S
C693 C140 1.436 . S
C709 C158 1.345 . S
C711 C242 1.348 . S
C727 C224 1.437 . S
C729 C326 1.472 . S
C745 C67 1.567 . S
C747 C487 1.571 . S
C763 C63 1.474 . S
C765 C403 1.438 . S
C781 C399 1.345 . S
C783 C231 1.343 . S
C799 C483 1.474 . S
C801 C235 1.439 . S
C817 C560 1.568 . S
C819 C476 1.568 . S
C835 C392 1.437 . S
C837 C578 1.473 . S
C853 C662 1.345 . S
C855 C410 1.347 . S
C871 C494 1.474 . S
C873 C644 1.438 . S
C889 C319 1.568 . S
C891 C571 1.567 . S
C907 C567 1.474 . S
C909 C151 1.437 . S
C925 C147 1.345 . S
C927 C651 1.344 . S
C943 C315 1.474 . S
C945 C655 1.435 . S
C961 C70 1.384 . S
C963 C58 1.384 . S
C979 C142 1.365 . S
C981 C154 1.365 . S
C997 C238 1.365 . S
C999 C226 1.365 . S
C1015 C322 1.384 . S
C1017 C310 1.384 . S
C1033 C394 1.365 . S
C1035 C406 1.365 . S
C1051 C490 1.384 . S
C1053 C478 1.384 . S
C1069 C562 1.384 . S
C1071 C574 1.384 . S
C1087 C646 1.365 . S
C1089 C658 1.365 . S
