# Generated by pormake.
# Topology sxb, (6)-cn, num edge types: 1
# Building blocks:
#     Node 0, Type 0, BuildingBlock: NUHQIS_clean_sbu_0, # of connection points: 6
#     Node 1, Type 0, BuildingBlock: NUHQIS_clean_sbu_0, # of connection points: 6
#     Node 2, Type 0, BuildingBlock: NUHQIS_clean_sbu_0, # of connection points: 6
#     Node 3, Type 0, BuildingBlock: NUHQIS_clean_sbu_0, # of connection points: 6
#     Edge 4, Type (0, 0), BuildingBlock: FUNLAD_clean_linker_1, # of connection points: 2
#     Edge 5, Type (0, 0), BuildingBlock: FUNLAD_clean_linker_1, # of connection points: 2
#     Edge 6, Type (0, 0), BuildingBlock: FUNLAD_clean_linker_1, # of connection points: 2
#     Edge 7, Type (0, 0), BuildingBlock: FUNLAD_clean_linker_1, # of connection points: 2
#     Edge 8, Type (0, 0), BuildingBlock: FUNLAD_clean_linker_1, # of connection points: 2
#     Edge 9, Type (0, 0), BuildingBlock: FUNLAD_clean_linker_1, # of connection points: 2
#     Edge 10, Type (0, 0), BuildingBlock: FUNLAD_clean_linker_1, # of connection points: 2
#     Edge 11, Type (0, 0), BuildingBlock: FUNLAD_clean_linker_1, # of connection points: 2
#     Edge 12, Type (0, 0), BuildingBlock: FUNLAD_clean_linker_1, # of connection points: 2
#     Edge 13, Type (0, 0), BuildingBlock: FUNLAD_clean_linker_1, # of connection points: 2
#     Edge 14, Type (0, 0), BuildingBlock: FUNLAD_clean_linker_1, # of connection points: 2
#     Edge 15, Type (0, 0), BuildingBlock: FUNLAD_clean_linker_1, # of connection points: 2
# Relax obj value: 0.066
# Max RMSD: 0.154
# Mean RMSD: 0.154
data_MOF--net-sxb--node1-NUHQIS_clean_sbu_0--edge1-FUNLAD_clean_linker_1
_symmetry_space_group_name_H-M    P1
_symmetry_Int_Tables_number       1
_symmetry_cell_setting            triclinic
loop_
_symmetry_equiv_pos_as_xyz
'x, y, z'
_cell_length_a     25.144443
_cell_length_b     17.917326
_cell_length_c     31.309252
_cell_angle_alpha  90.000318
_cell_angle_beta   95.821743
_cell_angle_gamma 90.767277
loop_
_atom_site_label
_atom_site_type_symbol
_atom_site_fract_x
_atom_site_fract_y
_atom_site_fract_z
_atom_type_partial_charge
Tb0 Tb 0.96787 0.9398 0.9879 0.0
Eu1 Eu 0.06871 0.06309 0.98505 0.0
C2 C 1.01021 0.98663 0.90107 0.0
C3 C 0.08673 0.88575 0.9896 0.0
C4 C 0.82969 0.88057 -0.00051 0.0
C5 C 0.73365 0.87662 0.97891 0.0
C6 C 0.78504 0.85 0.97474 0.0
C7 C 0.82196 0.93658 0.02954 0.0
C8 C 0.77072 0.96348 0.03359 0.0
C9 C 0.72598 0.93456 0.00807 0.0
C10 C 0.88414 0.86078 0.98992 0.0
O11 O 0.98089 0.99381 0.0505 0.0
O12 O 0.07077 0.0135 0.05108 0.0
O13 O 0.9984 0.13243 -0.00146 0.0
O14 O 0.93387 0.04766 0.97139 0.0
C15 C 1.0283 0.00405 0.07147 0.0
O16 O 0.13415 0.12897 0.01867 0.0
O17 O 0.12368 0.1275 0.94932 0.0
O18 O 1.02719 0.05061 0.91825 0.0
O19 O 0.99625 0.93045 0.92469 0.0
O20 O 0.03902 0.87213 0.00193 0.0
O21 O 0.10028 0.95001 0.97348 0.0
C22 C 0.94838 0.11391 0.9867 0.0
O23 O 0.89906 0.89083 0.95513 0.0
O24 O 0.92212 0.86492 0.02155 0.0
C25 C 0.2123 0.12096 0.98295 0.0
C26 C 0.31955 0.07357 0.98461 0.0
C27 C 0.30622 0.13358 0.01048 0.0
C28 C 0.253 0.15658 0.0098 0.0
C29 C 0.22554 0.06066 0.9575 0.0
C30 C 0.27845 0.03727 0.95844 0.0
C31 C 0.15592 0.14355 0.98349 0.0
H32 H 0.70068 0.85386 0.95785 0.0
H33 H 0.79015 0.80746 0.95096 0.0
H34 H 0.85577 0.96166 0.04877 0.0
H35 H 0.76624 0.00846 0.05603 0.0
H36 H 0.33629 0.16187 0.03201 0.0
H37 H 0.24355 0.20189 0.03053 0.0
H38 H 0.19491 0.0308 0.93718 0.0
H39 H 0.2873 0.99047 0.93855 0.0
Tb40 Tb 0.08116 0.94549 0.48355 0.0
Eu41 Eu 0.98498 0.06811 0.4929 0.0
C42 C 0.04351 0.9844 0.57151 0.0
C43 C 0.96075 0.89615 0.47067 0.0
C44 C 0.2198 0.88554 0.48814 0.0
C45 C 0.29015 0.95628 0.53011 0.0
C46 C 0.23714 0.93056 0.5237 0.0
C47 C 0.25667 0.86631 0.45936 0.0
C48 C 0.30981 0.89206 0.46572 0.0
C49 C 0.32725 0.93795 0.50118 0.0
C50 C 0.16243 0.86633 0.47802 0.0
O51 O 0.04205 0.96426 0.4192 0.0
O52 O 1.01203 0.08365 0.42714 0.0
O53 O 0.06144 0.13331 0.51195 0.0
O54 O 0.11737 0.05494 0.47951 0.0
C55 C 1.02565 0.02868 0.4029 0.0
O56 O 0.92059 0.14061 0.46674 0.0
O57 O 0.93218 0.12124 0.53511 0.0
O58 O 0.99615 0.99431 0.5511 0.0
O59 O 0.08559 0.982 0.55019 0.0
O60 O 1.00881 0.87743 0.48773 0.0
O61 O 0.94793 0.96521 0.46152 0.0
C62 C 0.10842 0.1173 0.49943 0.0
O63 O 0.13311 0.86245 0.51011 0.0
O64 O 0.13856 0.90322 0.44596 0.0
C65 C 0.84316 0.12218 0.50276 0.0
C66 C 0.73459 0.07662 0.5014 0.0
C67 C 0.76933 0.03996 0.47615 0.0
C68 C 0.8229 0.06217 0.4769 0.0
C69 C 0.80919 0.15792 0.52893 0.0
C70 C 0.7553 0.13575 0.52817 0.0
C71 C 0.89987 0.14575 0.50316 0.0
H72 H 0.30197 0.99171 0.55758 0.0
H73 H 0.20938 0.94775 0.54598 0.0
H74 H 0.24404 0.83251 0.43137 0.0
H75 H 0.33639 0.87612 0.4424 0.0
H76 H 0.75495 0.99389 0.45551 0.0
H77 H 0.84842 0.03253 0.457 0.0
H78 H 0.82413 0.20381 0.54948 0.0
H79 H 0.7302 0.16627 0.5479 0.0
Tb80 Tb 0.46328 0.42545 -6e-05 0.0
Eu81 Eu 0.56623 0.54596 0.00784 0.0
C82 C 0.51344 0.47986 0.91788 0.0
C83 C 0.58138 0.36953 0.00441 0.0
C84 C 0.32395 0.36717 0.00185 0.0
C85 C 0.22793 0.35404 0.98335 0.0
C86 C 0.28011 0.32997 0.9797 0.0
C87 C 0.31504 0.42927 0.02741 0.0
C88 C 0.2631 0.45377 0.03067 0.0
C89 C 0.21903 0.41671 0.00871 0.0
C90 C 0.37888 0.34669 0.9946 0.0
O91 O 0.46579 0.47872 0.06235 0.0
O92 O 0.556 0.49795 0.07316 0.0
O93 O 0.495 0.61594 0.01728 0.0
O94 O 0.43225 0.53525 0.9832 0.0
C95 C 0.50951 0.48902 0.08816 0.0
O96 O 0.63591 0.59204 0.04687 0.0
O97 O 0.61993 0.62632 0.98084 0.0
O98 O 0.53365 0.53961 0.93817 0.0
O99 O 0.49484 0.42248 0.93805 0.0
O100 O 0.53384 0.35744 0.0174 0.0
O101 O 0.59573 0.43469 0.99017 0.0
C102 C 0.44624 0.60064 0.00015 0.0
O103 O 0.39714 0.37979 0.96199 0.0
O104 O 0.4142 0.34747 0.02818 0.0
C105 C 0.70963 0.60372 0.00728 0.0
C106 C 0.81374 0.54935 0.00242 0.0
C107 C 0.80588 0.61626 0.02452 0.0
C108 C 0.7541 0.64304 0.02701 0.0
C109 C 0.71763 0.53848 0.98413 0.0
C110 C 0.76907 0.51137 0.98197 0.0
C111 C 0.6549 0.62527 0.01457 0.0
H112 H 0.19498 0.32528 0.96506 0.0
H113 H 0.28631 0.28341 0.95878 0.0
H114 H 0.34834 0.46007 0.04398 0.0
H115 H 0.25724 0.50221 0.05019 0.0
H116 H 0.83924 0.64634 0.04139 0.0
H117 H 0.74869 0.69309 0.04542 0.0
H118 H 0.68386 0.50734 0.96868 0.0
H119 H 0.7739 0.45971 0.96484 0.0
Tb120 Tb 0.60265 0.43641 0.50897 0.0
Eu121 Eu 0.50201 0.55714 0.50275 0.0
C122 C 0.54842 0.47685 0.59097 0.0
C123 C 0.48188 0.37913 0.49925 0.0
C124 C 0.74191 0.37658 0.50096 0.0
C125 C 0.82601 0.33655 0.47689 0.0
C126 C 0.77217 0.3226 0.48239 0.0
C127 C 0.76564 0.44639 0.51198 0.0
C128 C 0.81943 0.46058 0.50634 0.0
C129 C 0.85076 0.40496 0.48969 0.0
C130 C 0.68612 0.35919 0.5091 0.0
O131 O 0.60052 0.49684 0.44863 0.0
O132 O 0.51057 0.51192 0.4368 0.0
O133 O 0.57716 0.62494 0.497 0.0
O134 O 0.63268 0.54282 0.53538 0.0
C135 C 0.55717 0.50424 0.42222 0.0
O136 O 0.43649 0.61378 0.46518 0.0
O137 O 0.45039 0.6337 0.53334 0.0
O138 O 0.53005 0.53864 0.57258 0.0
O139 O 0.5687 0.42304 0.56949 0.0
O140 O 0.53163 0.36594 0.49179 0.0
O141 O 0.46608 0.44462 0.51131 0.0
C142 C 0.62304 0.60902 0.51881 0.0
O143 O 0.66988 0.38915 0.54332 0.0
O144 O 0.65 0.36364 0.47628 0.0
C145 C 0.36071 0.62565 0.50294 0.0
C146 C 0.25119 0.59169 0.507 0.0
C147 C 0.268 0.66444 0.49737 0.0
C148 C 0.32225 0.68111 0.49498 0.0
C149 C 0.34432 0.55359 0.514 0.0
C150 C 0.2901 0.53652 0.51581 0.0
C151 C 0.41761 0.64219 0.49875 0.0
H152 H 0.84864 0.29313 0.46322 0.0
H153 H 0.75429 0.2692 0.47256 0.0
H154 H 0.7427 0.48989 0.52528 0.0
H155 H 0.83592 0.51522 0.51493 0.0
H156 H 0.23894 0.70814 0.4909 0.0
H157 H 0.33418 0.73709 0.48668 0.0
H158 H 0.37355 0.51053 0.52121 0.0
H159 H 0.27895 0.48052 0.52467 0.0
H160 H 0.41653 0.71459 0.01002 0.0
C161 C 0.40495 0.658 0.00018 0.0
H162 H 0.34078 0.58295 0.98193 0.0
H163 H 0.17679 0.7847 0.06959 0.0
H164 H 0.20213 0.70253 0.1295 0.0
H165 H 0.27761 0.6164 0.12752 0.0
H166 H 0.32819 0.61217 0.06554 0.0
C167 C 0.35316 0.63994 0.99014 0.0
C168 C 0.3103 0.69499 0.99222 0.0
C169 C 0.28096 0.69632 0.0285 0.0
C170 C 0.23718 0.74535 0.02941 0.0
C171 C 0.20953 0.74722 0.06662 0.0
C172 C 0.22392 0.70067 0.10142 0.0
C173 C 0.26644 0.65225 0.10034 0.0
C174 C 0.295 0.6502 0.06451 0.0
H175 H 0.11561 0.76936 0.99623 0.0
C176 C 0.12762 0.82757 0.99384 0.0
H177 H 0.19128 0.90557 0.99283 0.0
H178 H 0.35903 0.70579 0.91805 0.0
H179 H 0.33388 0.78764 0.85783 0.0
H180 H 0.25722 0.87196 0.85882 0.0
H181 H 0.20536 0.87494 0.9199 0.0
C182 C 0.17957 0.84714 0.99484 0.0
C183 C 0.2228 0.79221 0.99373 0.0
C184 C 0.25256 0.79123 0.95758 0.0
C185 C 0.29646 0.74249 0.95686 0.0
C186 C 0.32534 0.74199 0.92029 0.0
C187 C 0.3113 0.78862 0.88547 0.0
C188 C 0.26818 0.8361 0.88604 0.0
C189 C 0.23888 0.83745 0.92147 0.0
H190 H 0.61404 0.25852 0.02392 0.0
C191 C 0.62142 0.30983 0.00685 0.0
H192 H 0.67568 0.37267 0.97338 0.0
H193 H 0.88864 0.24591 0.05945 0.0
H194 H 0.88514 0.36163 0.09893 0.0
H195 H 0.80325 0.43685 0.09283 0.0
H196 H 0.72426 0.39604 0.04759 0.0
C197 C 0.66809 0.3211 0.99005 0.0
C198 C 0.71413 0.27054 0.99736 0.0
C199 C 0.76013 0.2953 0.02378 0.0
C200 C 0.80771 0.25298 0.02643 0.0
C201 C 0.8522 0.27743 0.05461 0.0
C202 C 0.85053 0.34343 0.07793 0.0
C203 C 0.80442 0.38567 0.07459 0.0
C204 C 0.75947 0.36182 0.04824 0.0
H205 H 0.9116 0.2261 0.98383 0.0
C206 C 0.90549 0.16747 0.99099 0.0
H207 H 0.85467 0.08337 0.01106 0.0
H208 H 0.63229 0.20723 0.94452 0.0
H209 H 0.636 0.09346 0.9033 0.0
H210 H 0.7188 0.02054 0.90652 0.0
H211 H 0.79858 0.06181 0.9502 0.0
C212 C 0.85873 0.14198 0.00313 0.0
C213 C 0.80948 0.18707 0.00154 0.0
C214 C 0.76288 0.16134 0.97592 0.0
C215 C 0.71505 0.20308 0.97401 0.0
C216 C 0.66954 0.17733 0.94745 0.0
C217 C 0.67108 0.11202 0.92357 0.0
C218 C 0.71775 0.07117 0.92526 0.0
C219 C 0.76327 0.09541 0.95083 0.0
H220 H 0.14635 0.23026 0.50668 0.0
C221 C 0.15377 0.1707 0.50606 0.0
H222 H 0.21027 0.0846 0.50912 0.0
H223 H 0.39373 0.24758 0.42554 0.0
H224 H 0.3654 0.15251 0.37264 0.0
H225 H 0.28662 0.07255 0.38065 0.0
H226 H 0.23408 0.08915 0.44036 0.0
C227 C 0.2041 0.14446 0.50893 0.0
C228 C 0.25242 0.19202 0.50557 0.0
C229 C 0.28372 0.17994 0.47091 0.0
C230 C 0.33005 0.22482 0.46677 0.0
C231 C 0.35891 0.21409 0.43075 0.0
C232 C 0.34311 0.15972 0.40011 0.0
C233 C 0.29862 0.11482 0.40453 0.0
C234 C 0.26894 0.12482 0.43923 0.0
H235 H 0.45423 0.26054 0.49968 0.0
C236 C 0.4415 0.31811 0.49609 0.0
H237 H 0.37706 0.3926 0.48718 0.0
H238 H 0.20712 0.22055 0.57975 0.0
H239 H 0.23573 0.31505 0.63293 0.0
H240 H 0.31459 0.39514 0.62483 0.0
H241 H 0.36594 0.38015 0.56405 0.0
C242 C 0.38912 0.33488 0.49129 0.0
C243 C 0.34548 0.28065 0.49773 0.0
C244 C 0.31534 0.29078 0.53323 0.0
C245 C 0.26909 0.2459 0.53741 0.0
C246 C 0.24131 0.25504 0.57414 0.0
C247 C 0.2576 0.30864 0.60514 0.0
C248 C 0.30203 0.35365 0.60062 0.0
C249 C 0.33096 0.34472 0.56537 0.0
H250 H 0.89046 0.8472 0.43396 0.0
C251 C 0.91724 0.84107 0.46326 0.0
H252 H 0.9238 0.80306 0.527 0.0
H253 H 0.67608 0.82701 0.53818 0.0
H254 H 0.71103 0.93166 0.58239 0.0
H255 H 0.80604 0.96864 0.58571 0.0
H256 H 0.86732 0.90048 0.54582 0.0
C257 C 0.90022 0.80233 0.4959 0.0
C258 C 0.84299 0.77872 0.49383 0.0
C259 C 0.80778 0.81919 0.51767 0.0
C260 C 0.75276 0.79857 0.51542 0.0
C261 C 0.71834 0.84012 0.53915 0.0
C262 C 0.73773 0.9005 0.56439 0.0
C263 C 0.79135 0.92118 0.56638 0.0
C264 C 0.82613 0.88134 0.54335 0.0
H265 H 0.69889 0.65402 0.5492 0.0
C266 C 0.66774 0.66284 0.523 0.0
H267 H 0.64935 0.71335 0.46258 0.0
H268 H 0.89871 0.69253 0.44227 0.0
H269 H 0.86284 0.59104 0.39588 0.0
H270 H 0.76788 0.55392 0.39313 0.0
H271 H 0.70755 0.61964 0.43517 0.0
C272 C 0.67762 0.70913 0.49112 0.0
C273 C 0.73312 0.73763 0.48943 0.0
C274 C 0.76783 0.69874 0.46451 0.0
C275 C 0.82282 0.7194 0.46662 0.0
C276 C 0.85659 0.67926 0.44164 0.0
C277 C 0.83662 0.62068 0.41515 0.0
C278 C 0.78307 0.59988 0.41347 0.0
C279 C 0.7489 0.63813 0.43782 0.0
H280 H 0.37942 0.98877 0.97245 0.0
C281 C 0.37498 0.04477 0.98497 0.0
H282 H 0.41761 0.1403 0.01059 0.0
H283 H 0.62049 0.95097 0.07975 0.0
H284 H 0.58726 0.98911 0.1462 0.0
H285 H 0.50211 0.05598 0.1457 0.0
H286 H 0.44942 0.08455 0.07865 0.0
C287 C 0.41974 0.08403 -0.00184 0.0
C288 C 0.47378 0.05017 -0.00216 0.0
C289 C 0.50499 0.03571 0.03722 0.0
C290 C 0.55479 -0.0015 0.03746 0.0
C291 C 0.58348 0.98136 0.07746 0.0
C292 C 0.56461 0.00239 0.11595 0.0
C293 C 0.51662 0.03992 0.11568 0.0
C294 C 0.48683 0.05611 0.07692 0.0
H295 H 0.67295 0.02606 0.02409 0.0
C296 C 0.67305 0.97006 0.01066 0.0
H297 H 0.62394 0.88118 0.9843 0.0
H298 H 0.42822 0.07929 0.91646 0.0
H299 H 0.4621 0.04326 0.8498 0.0
H300 H 0.5472 0.97628 0.85015 0.0
H301 H 0.59924 0.9457 0.91712 0.0
C302 C 0.62569 0.93708 0.99768 0.0
C303 C 0.57405 0.9774 -0.00185 0.0
C304 C 0.54336 0.9934 0.95873 0.0
C305 C 0.49364 0.03067 0.95853 0.0
C306 C 0.46522 0.04882 0.91857 0.0
C307 C 0.48444 0.029 0.88002 0.0
C308 C 0.53237 0.99136 0.88021 0.0
C309 C 0.56173 0.97385 0.91896 0.0
H310 H 0.39187 0.00429 0.53748 0.0
C311 C 0.38307 0.96851 0.50951 0.0
H312 H 0.41693 0.92138 0.4564 0.0
H313 H 0.60766 0.15337 0.45549 0.0
H314 H 0.55171 0.19035 0.39154 0.0
H315 H 0.46198 0.13476 0.37438 0.0
H316 H 0.42685 0.04287 0.4216 0.0
C317 C 0.42336 0.9546 0.48539 0.0
C318 C 0.47803 0.98783 0.49603 0.0
C319 C 0.4982 0.04089 0.46789 0.0
C320 C 0.5506 0.07183 0.47725 0.0
C321 C 0.56886 0.1265 0.44928 0.0
C322 C 0.53701 0.14867 0.41263 0.0
C323 C 0.48635 0.11751 0.40306 0.0
C324 C 0.46681 0.0646 0.43034 0.0
H325 H 0.66427 0.01321 0.47161 0.0
C326 C 0.67713 0.0526 0.49717 0.0
H327 H 0.6506 0.11205 0.54957 0.0
H328 H 0.45448 0.88235 0.55505 0.0
H329 H 0.5101 0.84744 0.6195 0.0
H330 H 0.59885 0.90617 0.63746 0.0
H331 H 0.63267 -0.00033 0.59067 0.0
C332 C 0.64003 0.07583 0.52223 0.0
C333 C 0.58332 0.04876 0.51436 0.0
C334 C 0.56264 -0.00253 0.54316 0.0
C335 C 0.51052 0.96566 0.53356 0.0
C336 C 0.49273 0.91054 0.56148 0.0
C337 C 0.52446 0.8895 0.59848 0.0
C338 C 0.5745 0.92238 0.60852 0.0
C339 C 0.59356 0.97568 0.58129 0.0
H340 H 0.86837 0.4546 -0.00207 0.0
C341 C 0.86715 0.51483 0.00212 0.0
H342 H 0.91373 0.61407 0.00867 0.0
H343 H 0.1256 0.45754 0.08605 0.0
H344 H 0.10347 0.53164 0.14627 0.0
H345 H 1.01829 0.59907 0.14305 0.0
H346 H 0.95462 0.59233 0.07965 0.0
C347 C 0.91348 0.55383 0.00496 0.0
C348 C 0.96606 0.51567 0.00552 0.0
C349 C 1.00343 0.52128 0.04254 0.0
C350 C 0.05317 0.48375 0.04403 0.0
C351 C 0.08835 0.48741 0.08233 0.0
C352 C 0.07587 0.52911 0.11741 0.0
C353 C 1.02788 0.56695 0.11563 0.0
C354 C 0.99176 0.56281 0.0789 0.0
H355 H 0.16244 0.50805 0.01599 0.0
C356 C 0.165 0.44824 0.01068 0.0
H357 H 0.12116 0.34685 0.00313 0.0
H358 H 0.90653 0.49969 0.92748 0.0
H359 H 0.92842 0.42488 0.86752 0.0
H360 H 1.01334 0.35684 0.87094 0.0
H361 H 0.0771 0.36396 0.93421 0.0
C362 C 0.11974 0.40682 0.00778 0.0
C363 C 0.06624 0.44223 0.00795 0.0
C364 C 1.02861 0.43586 0.97113 0.0
C365 C 0.97892 0.47356 0.96959 0.0
C366 C 0.9437 0.46969 0.93131 0.0
C367 C 0.95604 0.42753 0.89636 0.0
C368 C 1.00389 0.38937 0.89825 0.0
C369 C 0.04008 0.39378 0.93492 0.0
H370 H 0.16765 0.62212 0.5149 0.0
C371 C 0.19306 0.57574 0.50826 0.0
H372 H 0.19419 0.46161 0.49103 0.0
H373 H 0.97547 0.36472 0.55801 0.0
H374 H 0.03909 0.29029 0.6025 0.0
H375 H 0.13592 0.30946 0.6006 0.0
H376 H 0.17026 0.40249 0.55371 0.0
C377 C 0.16997 0.50858 0.49862 0.0
C378 C 0.111 0.49545 0.49859 0.0
C379 C 0.0917 0.44048 0.52611 0.0
C380 C 0.03562 0.42978 0.52762 0.0
C381 C 1.01756 0.37509 0.55563 0.0
C382 C 0.05363 0.332 0.58136 0.0
C383 C 0.10824 0.34273 0.58019 0.0
C384 C 0.12734 0.39631 0.55308 0.0
H385 H 0.92754 0.37677 0.4646 0.0
C386 C 0.90894 0.41577 0.48497 0.0
H387 H 0.92432 0.50674 0.5281 0.0
H388 H 0.13307 0.5938 0.43512 0.0
H389 H 0.06898 0.66611 0.39006 0.0
H390 H 0.97225 0.65163 0.3956 0.0
H391 H 0.93934 0.56374 0.44631 0.0
C392 C 0.94034 0.46799 0.50628 0.0
C393 C 0.99883 0.47403 0.50176 0.0
C394 C 1.01798 0.52665 0.47301 0.0
C395 C 0.07393 0.53652 0.47078 0.0
C396 C 0.09134 0.58656 0.43984 0.0
C397 C 0.05488 0.62787 0.41334 0.0
C398 C 1.00042 0.61965 0.41641 0.0
C399 C 0.98202 0.5694 0.44569 0.0
H400 H 0.99441 0.08468 0.34291 0.0
C401 C 1.01783 0.0378 0.35586 0.0
H402 H 0.06107 0.94233 0.34195 0.0
H403 H 0.95589 0.87262 0.15682 0.0
H404 H 0.93189 0.76308 0.19641 0.0
H405 H 0.94911 0.75881 0.27534 0.0
H406 H 0.99103 0.86352 0.31509 0.0
C407 C 0.03815 0.98969 0.32902 0.0
C408 C 1.02611 0.99459 0.28143 0.0
C409 C 1.00014 0.93348 0.25872 0.0
C410 C 0.989 0.93658 0.21327 0.0
C411 C 0.96456 0.87381 0.19137 0.0
C412 C 0.95059 0.81046 0.21369 0.0
C413 C 0.96036 0.80801 0.25811 0.0
C414 C 0.98469 0.86858 0.28053 0.0
H415 H 0.07552 0.01034 0.13454 0.0
C416 C 0.03503 0.00577 0.11877 0.0
H417 H 0.95307 0.99577 0.12764 0.0
H418 H 0.08394 0.11716 0.31341 0.0
H419 H 0.10308 0.22931 0.27431 0.0
H420 H 0.07376 0.24049 0.19699 0.0
H421 H 1.0266 0.13845 0.15813 0.0
C422 C 0.99371 0.00233 0.14277 0.0
C423 C 1.00288 0.00128 0.19059 0.0
C424 C 1.02723 0.06338 0.21341 0.0
C425 C 0.04074 0.05896 0.25859 0.0
C426 C 0.06963 0.11911 0.2797 0.0
C427 C 0.08143 0.18365 0.25752 0.0
C428 C 0.06518 0.18979 0.21396 0.0
C429 C 0.03847 0.13053 0.19198 0.0
H430 H 0.98732 0.92618 0.84043 0.0
C431 C 1.00745 0.97605 0.85412 0.0
H432 H 0.04985 0.07479 0.84156 0.0
H433 H 0.05611 0.85928 0.66668 0.0
H434 H 0.10667 0.77231 0.71354 0.0
H435 H 0.12365 0.79668 0.79131 0.0
H436 H 0.08882 0.90703 0.82279 0.0
C437 C 0.03015 0.02436 0.82828 0.0
C438 C 1.02603 0.01356 0.78076 0.0
C439 C 0.04921 0.95071 0.76255 0.0
C440 C 0.04232 0.93905 0.71729 0.0
C441 C 0.06243 0.87296 0.70045 0.0
C442 C 0.09121 0.8222 0.72705 0.0
C443 C 0.10054 0.83573 0.77086 0.0
C444 C 0.07991 0.89908 0.78857 0.0
H445 H 0.09082 0.9853 0.63493 0.0
C446 C 0.0504 0.98301 0.61892 0.0
H447 H 0.96802 0.98229 0.6265 0.0
H448 H 0.97758 0.14077 0.80487 0.0
H449 H 0.93267 0.23236 0.75762 0.0
H450 H 0.92587 0.21647 0.679 0.0
H451 H 0.9634 0.10857 0.64717 0.0
C452 C 1.00849 0.98265 0.64245 0.0
C453 C 1.01525 0.99275 0.69004 0.0
C454 C 0.99379 0.05693 0.70819 0.0
C455 C 0.99879 0.067 0.75353 0.0
C456 C 0.97582 0.1308 0.77068 0.0
C457 C 0.94978 0.18385 0.74392 0.0
C458 C 0.94587 0.17484 0.69967 0.0
C459 C 0.9675 0.11235 0.68183 0.0
H460 H 0.60187 0.49972 0.3653 0.0
C461 C 0.56202 0.50363 0.3757 0.0
H462 H 0.47936 0.51062 0.35583 0.0
H463 H 0.51596 0.6341 0.17103 0.0
H464 H 0.48217 0.74409 0.20384 0.0
H465 H 0.46813 0.74512 0.28068 0.0
H466 H 0.48785 0.63617 0.32521 0.0
C467 C 0.51942 0.50507 0.34616 0.0
C468 C 0.52602 0.50288 0.29943 0.0
C469 C 0.51364 0.5667 0.27374 0.0
C470 C 0.52136 0.56593 0.22935 0.0
C471 C 0.50994 0.63113 0.20471 0.0
C472 C 0.49077 0.69481 0.22319 0.0
C473 C 0.4829 0.69541 0.26646 0.0
C474 C 0.4943 0.6324 0.29164 0.0
H475 H 0.46528 0.4886 0.1454 0.0
C476 C 0.50506 0.49217 0.13471 0.0
H477 H 0.58796 0.50033 0.15426 0.0
H478 H 0.54775 0.36783 0.33823 0.0
H479 H 0.58119 0.2579 0.30529 0.0
H480 H 0.59727 0.25807 0.22884 0.0
H481 H 0.57946 0.36817 0.18479 0.0
C482 C 0.54769 0.49915 0.16398 0.0
C483 C 0.54093 0.50102 0.21064 0.0
C484 C 0.55306 0.43707 0.23624 0.0
C485 C 0.5449 0.43756 0.28055 0.0
C486 C 0.55487 0.37155 0.30481 0.0
C487 C 0.57371 0.30776 0.2862 0.0
C488 C 0.58266 0.30781 0.24315 0.0
C489 C 0.57235 0.37143 0.21826 0.0
H490 H 0.58031 0.43329 0.654 0.0
C491 C 0.55041 0.46971 0.63791 0.0
H492 H 0.48743 0.54364 0.64449 0.0
H493 H 0.55686 0.36844 0.83326 0.0
H494 H 0.53955 0.25167 0.79498 0.0
H495 H 0.50922 0.25076 0.7175 0.0
H496 H 0.49887 0.36647 0.67763 0.0
C497 C 0.51731 0.50753 0.6609 0.0
C498 C 0.52363 0.5075 0.70884 0.0
C499 C 0.52405 0.43958 0.73227 0.0
C500 C 0.53585 0.44038 0.77767 0.0
C501 C 0.54342 0.37136 0.7994 0.0
C502 C 0.53427 0.30383 0.77771 0.0
C503 C 0.51759 0.3033 0.73406 0.0
C504 C 0.51244 0.37018 0.71145 0.0
H505 H 0.47788 0.44292 0.85429 0.0
C506 C 0.50984 0.47672 0.87078 0.0
H507 H 0.57767 0.54452 0.86484 0.0
H508 H 0.52757 0.64824 0.67423 0.0
H509 H 0.53636 0.76493 0.71323 0.0
H510 H 0.54498 0.76679 0.79239 0.0
H511 H 0.54605 0.65185 0.83295 0.0
C512 C 0.54548 0.51137 0.84817 0.0
C513 C 0.54019 0.50941 0.80022 0.0
C514 C 0.53779 0.57745 0.77692 0.0
C515 C 0.53072 0.57646 0.73123 0.0
C516 C 0.53115 0.64531 0.70889 0.0
C517 C 0.53639 0.71297 0.73089 0.0
C518 C 0.54137 0.71401 0.77543 0.0
C519 C 0.54207 0.64735 0.79834 0.0
loop_
_geom_bond_atom_site_label_1
_geom_bond_atom_site_label_2
_geom_bond_distance
_geom_bond_site_symmetry_2
_ccdc_geom_bond_type
Tb0 C10 2.825 . S
Tb0 O11 2.347 1_556 S
Tb0 O14 2.366 1_565 S
Tb0 O19 2.418 . S
Tb0 O20 2.384 1_655 S
Tb0 O23 2.479 . S
Tb0 O24 2.471 1_556 S
Eu1 O12 2.418 . S
Eu1 O13 2.384 1_455 S
Eu1 O16 2.479 . S
Eu1 O17 2.471 1_554 S
Eu1 O18 2.347 1_554 S
Eu1 O21 2.366 1_545 S
Eu1 C31 2.825 . S
C2 O18 1.259 1_665 S
C2 O19 1.265 . S
C3 O20 1.255 1_554 S
C3 O21 1.265 . S
C4 C6 1.370 1_554 S
C4 C7 1.386 . S
C4 C10 1.504 1_554 S
C5 C6 1.384 . S
C5 C9 1.387 1_556 S
C5 H32 0.930 . S
C6 C4 1.370 1_556 S
C6 C5 1.384 . S
C6 H33 0.931 . S
C7 C4 1.386 . S
C7 C8 1.390 . S
C7 H34 0.930 . S
C8 C7 1.390 . S
C8 C9 1.391 . S
C8 H35 0.930 . S
C9 C5 1.387 1_554 S
C9 C8 1.391 . S
C10 Tb0 2.825 . S
C10 C4 1.504 1_556 S
C10 O23 1.238 . S
C10 O24 1.247 1_556 S
O11 Tb0 2.347 1_554 S
O11 C15 1.259 1_665 S
O12 Eu1 2.418 . S
O12 C15 1.265 . S
O13 Eu1 2.384 1_655 S
O13 C22 1.255 1_554 S
O14 Tb0 2.366 1_545 S
O14 C22 1.265 . S
C15 O11 1.259 1_445 S
C15 O12 1.265 . S
O16 Eu1 2.479 . S
O16 C31 1.238 . S
O17 Eu1 2.471 1_556 S
O17 C31 1.247 1_556 S
O18 Eu1 2.347 1_556 S
O18 C2 1.259 1_445 S
O19 Tb0 2.418 . S
O19 C2 1.265 . S
O20 Tb0 2.384 1_455 S
O20 C3 1.255 1_556 S
O21 Eu1 2.366 1_565 S
O21 C3 1.265 . S
C22 O13 1.255 1_556 S
C22 O14 1.265 . S
O23 Tb0 2.479 . S
O23 C10 1.238 . S
O24 Tb0 2.471 1_554 S
O24 C10 1.247 1_554 S
C25 C28 1.374 1_556 S
C25 C29 1.381 . S
C25 C31 1.505 1_556 S
C26 C27 1.387 1_556 S
C26 C30 1.391 . S
C27 C26 1.387 1_554 S
C27 C28 1.384 . S
C27 H36 0.930 . S
C28 C25 1.374 1_554 S
C28 C27 1.384 . S
C28 H37 0.931 . S
C29 C25 1.381 . S
C29 C30 1.390 . S
C29 H38 0.930 . S
C30 C26 1.391 . S
C30 C29 1.390 . S
C30 H39 0.930 . S
C31 Eu1 2.825 . S
C31 O16 1.238 . S
C31 O17 1.247 1_554 S
C31 C25 1.505 1_554 S
H32 C5 0.930 . S
H33 C6 0.931 . S
H34 C7 0.930 . S
H35 C8 0.930 . S
H36 C27 0.930 . S
H37 C28 0.931 . S
H38 C29 0.930 . S
H39 C30 0.930 . S
Tb40 C50 2.825 . S
Tb40 O51 2.347 . S
Tb40 O54 2.366 1_565 S
Tb40 O59 2.418 . S
Tb40 O60 2.384 1_455 S
Tb40 O63 2.479 . S
Tb40 O64 2.471 . S
Eu41 O52 2.418 . S
Eu41 O53 2.384 1_655 S
Eu41 O56 2.479 . S
Eu41 O57 2.471 . S
Eu41 O58 2.347 . S
Eu41 O61 2.366 1_545 S
Eu41 C71 2.825 . S
C42 O58 1.259 1_465 S
C42 O59 1.265 . S
C43 O60 1.255 . S
C43 O61 1.265 . S
C44 C46 1.380 . S
C44 C47 1.374 . S
C44 C50 1.507 . S
C45 C46 1.384 . S
C45 C49 1.387 . S
C45 H72 0.930 . S
C46 C44 1.380 . S
C46 C45 1.384 . S
C46 H73 0.931 . S
C47 C44 1.374 . S
C47 C48 1.390 . S
C47 H74 0.930 . S
C48 C47 1.390 . S
C48 C49 1.391 . S
C48 H75 0.930 . S
C49 C45 1.387 . S
C49 C48 1.391 . S
C50 Tb40 2.825 . S
C50 C44 1.507 . S
C50 O63 1.238 . S
C50 O64 1.247 . S
O51 Tb40 2.347 . S
O51 C55 1.259 1_465 S
O52 Eu41 2.418 . S
O52 C55 1.265 . S
O53 Eu41 2.384 1_455 S
O53 C62 1.255 . S
O54 Tb40 2.366 1_545 S
O54 C62 1.265 . S
C55 O51 1.259 1_645 S
C55 O52 1.265 . S
O56 Eu41 2.479 . S
O56 C71 1.238 . S
O57 Eu41 2.471 . S
O57 C71 1.247 . S
O58 Eu41 2.347 . S
O58 C42 1.259 1_645 S
O59 Tb40 2.418 . S
O59 C42 1.265 . S
O60 Tb40 2.384 1_655 S
O60 C43 1.255 . S
O61 Eu41 2.366 1_565 S
O61 C43 1.265 . S
C62 O53 1.255 . S
C62 O54 1.265 . S
O63 Tb40 2.479 . S
O63 C50 1.238 . S
O64 Tb40 2.471 . S
O64 C50 1.247 . S
C65 C68 1.380 . S
C65 C69 1.374 . S
C65 C71 1.507 . S
C66 C67 1.387 . S
C66 C70 1.391 . S
C67 C66 1.387 . S
C67 C68 1.384 . S
C67 H76 0.930 . S
C68 C65 1.380 . S
C68 C67 1.384 . S
C68 H77 0.931 . S
C69 C65 1.374 . S
C69 C70 1.390 . S
C69 H78 0.930 . S
C70 C66 1.391 . S
C70 C69 1.390 . S
C70 H79 0.930 . S
C71 Eu41 2.825 . S
C71 O56 1.238 . S
C71 O57 1.247 . S
C71 C65 1.507 . S
H72 C45 0.930 . S
H73 C46 0.931 . S
H74 C47 0.930 . S
H75 C48 0.930 . S
H76 C67 0.930 . S
H77 C68 0.931 . S
H78 C69 0.930 . S
H79 C70 0.930 . S
Tb80 C90 2.825 . S
Tb80 O91 2.347 1_556 S
Tb80 O94 2.366 . S
Tb80 O99 2.418 . S
Tb80 O100 2.384 . S
Tb80 O103 2.479 . S
Tb80 O104 2.471 1_556 S
Eu81 O92 2.418 . S
Eu81 O93 2.384 . S
Eu81 O96 2.479 . S
Eu81 O97 2.471 1_554 S
Eu81 O98 2.347 1_554 S
Eu81 O101 2.366 . S
Eu81 C111 2.825 . S
C82 O98 1.259 . S
C82 O99 1.265 . S
C83 O100 1.255 1_554 S
C83 O101 1.265 . S
C84 C86 1.370 1_554 S
C84 C87 1.386 . S
C84 C90 1.504 1_554 S
C85 C86 1.384 . S
C85 C89 1.387 1_556 S
C85 H112 0.930 . S
C86 C84 1.370 1_556 S
C86 C85 1.384 . S
C86 H113 0.931 . S
C87 C84 1.386 . S
C87 C88 1.390 . S
C87 H114 0.930 . S
C88 C87 1.390 . S
C88 C89 1.391 . S
C88 H115 0.930 . S
C89 C85 1.387 1_554 S
C89 C88 1.391 . S
C90 Tb80 2.825 . S
C90 C84 1.504 1_556 S
C90 O103 1.238 . S
C90 O104 1.247 1_556 S
O91 Tb80 2.347 1_554 S
O91 C95 1.259 . S
O92 Eu81 2.418 . S
O92 C95 1.265 . S
O93 Eu81 2.384 . S
O93 C102 1.255 1_554 S
O94 Tb80 2.366 . S
O94 C102 1.265 . S
C95 O91 1.259 . S
C95 O92 1.265 . S
O96 Eu81 2.479 . S
O96 C111 1.238 . S
O97 Eu81 2.471 1_556 S
O97 C111 1.247 1_556 S
O98 Eu81 2.347 1_556 S
O98 C82 1.259 . S
O99 Tb80 2.418 . S
O99 C82 1.265 . S
O100 Tb80 2.384 . S
O100 C83 1.255 1_556 S
O101 Eu81 2.366 . S
O101 C83 1.265 . S
C102 O93 1.255 1_556 S
C102 O94 1.265 . S
O103 Tb80 2.479 . S
O103 C90 1.238 . S
O104 Tb80 2.471 1_554 S
O104 C90 1.247 1_554 S
C105 C108 1.374 1_556 S
C105 C109 1.381 . S
C105 C111 1.505 1_556 S
C106 C107 1.387 1_556 S
C106 C110 1.391 . S
C107 C106 1.387 1_554 S
C107 C108 1.384 . S
C107 H116 0.930 . S
C108 C105 1.374 1_554 S
C108 C107 1.384 . S
C108 H117 0.931 . S
C109 C105 1.381 . S
C109 C110 1.390 . S
C109 H118 0.930 . S
C110 C106 1.391 . S
C110 C109 1.390 . S
C110 H119 0.930 . S
C111 Eu81 2.825 . S
C111 O96 1.238 . S
C111 O97 1.247 1_554 S
C111 C105 1.505 1_554 S
H112 C85 0.930 . S
H113 C86 0.931 . S
H114 C87 0.930 . S
H115 C88 0.930 . S
H116 C107 0.930 . S
H117 C108 0.931 . S
H118 C109 0.930 . S
H119 C110 0.930 . S
Tb120 C130 2.825 . S
Tb120 O131 2.347 . S
Tb120 O134 2.366 . S
Tb120 O139 2.418 . S
Tb120 O140 2.384 . S
Tb120 O143 2.479 . S
Tb120 O144 2.471 . S
Eu121 O132 2.418 . S
Eu121 O133 2.384 . S
Eu121 O136 2.479 . S
Eu121 O137 2.471 . S
Eu121 O138 2.347 . S
Eu121 O141 2.366 . S
Eu121 C151 2.825 . S
C122 O138 1.259 . S
C122 O139 1.265 . S
C123 O140 1.255 . S
C123 O141 1.265 . S
C124 C126 1.380 . S
C124 C127 1.374 . S
C124 C130 1.507 . S
C125 C126 1.384 . S
C125 C129 1.387 . S
C125 H152 0.930 . S
C126 C124 1.380 . S
C126 C125 1.384 . S
C126 H153 0.931 . S
C127 C124 1.374 . S
C127 C128 1.390 . S
C127 H154 0.930 . S
C128 C127 1.390 . S
C128 C129 1.391 . S
C128 H155 0.930 . S
C129 C125 1.387 . S
C129 C128 1.391 . S
C130 Tb120 2.825 . S
C130 C124 1.507 . S
C130 O143 1.238 . S
C130 O144 1.247 . S
O131 Tb120 2.347 . S
O131 C135 1.259 . S
O132 Eu121 2.418 . S
O132 C135 1.265 . S
O133 Eu121 2.384 . S
O133 C142 1.255 . S
O134 Tb120 2.366 . S
O134 C142 1.265 . S
C135 O131 1.259 . S
C135 O132 1.265 . S
O136 Eu121 2.479 . S
O136 C151 1.238 . S
O137 Eu121 2.471 . S
O137 C151 1.247 . S
O138 Eu121 2.347 . S
O138 C122 1.259 . S
O139 Tb120 2.418 . S
O139 C122 1.265 . S
O140 Tb120 2.384 . S
O140 C123 1.255 . S
O141 Eu121 2.366 . S
O141 C123 1.265 . S
C142 O133 1.255 . S
C142 O134 1.265 . S
O143 Tb120 2.479 . S
O143 C130 1.238 . S
O144 Tb120 2.471 . S
O144 C130 1.247 . S
C145 C148 1.380 . S
C145 C149 1.374 . S
C145 C151 1.507 . S
C146 C147 1.387 . S
C146 C150 1.391 . S
C147 C146 1.387 . S
C147 C148 1.384 . S
C147 H156 0.930 . S
C148 C145 1.380 . S
C148 C147 1.384 . S
C148 H157 0.931 . S
C149 C145 1.374 . S
C149 C150 1.390 . S
C149 H158 0.930 . S
C150 C146 1.391 . S
C150 C149 1.390 . S
C150 H159 0.930 . S
C151 Eu121 2.825 . S
C151 O136 1.238 . S
C151 O137 1.247 . S
C151 C145 1.507 . S
H152 C125 0.930 . S
H153 C126 0.931 . S
H154 C127 0.930 . S
H155 C128 0.930 . S
H156 C147 0.930 . S
H157 C148 0.931 . S
H158 C149 0.930 . S
H159 C150 0.930 . S
H160 C161 0.951 . S
C161 H160 0.951 . S
C161 C167 1.265 1_556 S
H162 C167 0.950 . S
H163 C171 0.949 . S
H164 C172 0.950 . S
H165 C173 0.951 . S
H166 C174 0.951 . S
C167 C161 1.265 1_554 S
C167 H162 0.950 . S
C167 C168 1.477 . S
C168 C167 1.477 . S
C168 C169 1.418 . S
C168 C185 1.375 1_554 S
C169 C168 1.418 . S
C169 C170 1.438 . S
C169 C174 1.429 . S
C170 C169 1.438 . S
C170 C171 1.428 . S
C170 C183 1.380 1_554 S
C171 H163 0.949 . S
C171 C170 1.428 . S
C171 C172 1.345 . S
C172 H164 0.950 . S
C172 C171 1.345 . S
C172 C173 1.424 . S
C173 H165 0.951 . S
C173 C172 1.424 . S
C173 C174 1.347 . S
C174 H166 0.951 . S
C174 C169 1.429 . S
C174 C173 1.347 . S
H175 C176 0.951 . S
C176 H175 0.951 . S
C176 C182 1.265 1_554 S
H177 C182 0.950 . S
H178 C186 0.949 . S
H179 C187 0.950 . S
H180 C188 0.951 . S
H181 C189 0.951 . S
C182 C176 1.265 1_556 S
C182 H177 0.950 . S
C182 C183 1.477 . S
C183 C170 1.380 1_556 S
C183 C182 1.477 . S
C183 C184 1.412 . S
C184 C183 1.412 . S
C184 C185 1.438 . S
C184 C189 1.429 . S
C185 C168 1.375 1_556 S
C185 C184 1.438 . S
C185 C186 1.428 . S
C186 H178 0.949 . S
C186 C185 1.428 . S
C186 C187 1.345 . S
C187 H179 0.950 . S
C187 C186 1.345 . S
C187 C188 1.424 . S
C188 H180 0.951 . S
C188 C187 1.424 . S
C188 C189 1.347 . S
C189 H181 0.951 . S
C189 C184 1.429 . S
C189 C188 1.347 . S
H190 C191 0.954 . S
C191 H190 0.954 . S
C191 C197 1.265 . S
H192 C197 0.950 . S
H193 C201 0.949 . S
H194 C202 0.950 . S
H195 C203 0.951 . S
H196 C204 0.951 . S
C197 C191 1.265 . S
C197 H192 0.950 . S
C197 C198 1.478 . S
C198 C197 1.478 . S
C198 C199 1.397 . S
C198 C215 1.394 1_554 S
C199 C198 1.397 . S
C199 C200 1.438 . S
C199 C204 1.429 . S
C200 C199 1.438 . S
C200 C201 1.428 . S
C200 C213 1.394 1_554 S
C201 H193 0.949 . S
C201 C200 1.428 . S
C201 C202 1.345 . S
C202 H194 0.950 . S
C202 C201 1.345 . S
C202 C203 1.424 . S
C203 H195 0.951 . S
C203 C202 1.424 . S
C203 C204 1.347 . S
C204 H196 0.951 . S
C204 C199 1.429 . S
C204 C203 1.347 . S
H205 C206 0.953 . S
C206 H205 0.953 . S
C206 C212 1.265 . S
H207 C212 0.950 . S
H208 C216 0.949 . S
H209 C217 0.950 . S
H210 C218 0.951 . S
H211 C219 0.951 . S
C212 C206 1.265 . S
C212 H207 0.950 . S
C212 C213 1.478 . S
C213 C200 1.394 1_556 S
C213 C212 1.478 . S
C213 C214 1.397 . S
C214 C213 1.397 . S
C214 C215 1.438 . S
C214 C219 1.429 . S
C215 C198 1.394 1_556 S
C215 C214 1.438 . S
C215 C216 1.428 . S
C216 H208 0.949 . S
C216 C215 1.428 . S
C216 C217 1.345 . S
C217 H209 0.950 . S
C217 C216 1.345 . S
C217 C218 1.424 . S
C218 H210 0.951 . S
C218 C217 1.424 . S
C218 C219 1.347 . S
C219 H211 0.951 . S
C219 C214 1.429 . S
C219 C218 1.347 . S
H220 C221 0.951 . S
C221 H220 0.951 . S
C221 C227 1.265 . S
H222 C227 0.950 . S
H223 C231 0.949 . S
H224 C232 0.950 . S
H225 C233 0.951 . S
H226 C234 0.951 . S
C227 C221 1.265 . S
C227 H222 0.950 . S
C227 C228 1.478 . S
C228 C227 1.478 . S
C228 C229 1.397 . S
C228 C245 1.394 . S
C229 C228 1.397 . S
C229 C230 1.438 . S
C229 C234 1.429 . S
C230 C229 1.438 . S
C230 C231 1.428 . S
C230 C243 1.394 . S
C231 H223 0.949 . S
C231 C230 1.428 . S
C231 C232 1.345 . S
C232 H224 0.950 . S
C232 C231 1.345 . S
C232 C233 1.424 . S
C233 H225 0.951 . S
C233 C232 1.424 . S
C233 C234 1.347 . S
C234 H226 0.951 . S
C234 C229 1.429 . S
C234 C233 1.347 . S
H235 C236 0.951 . S
C236 H235 0.951 . S
C236 C242 1.265 . S
H237 C242 0.950 . S
H238 C246 0.949 . S
H239 C247 0.950 . S
H240 C248 0.951 . S
H241 C249 0.951 . S
C242 C236 1.265 . S
C242 H237 0.950 . S
C242 C243 1.478 . S
C243 C230 1.394 . S
C243 C242 1.478 . S
C243 C244 1.397 . S
C244 C243 1.397 . S
C244 C245 1.438 . S
C244 C249 1.429 . S
C245 C228 1.394 . S
C245 C244 1.438 . S
C245 C246 1.428 . S
C246 H238 0.949 . S
C246 C245 1.428 . S
C246 C247 1.345 . S
C247 H239 0.950 . S
C247 C246 1.345 . S
C247 C248 1.424 . S
C248 H240 0.951 . S
C248 C247 1.424 . S
C248 C249 1.347 . S
C249 H241 0.951 . S
C249 C244 1.429 . S
C249 C248 1.347 . S
H250 C251 0.951 . S
C251 H250 0.951 . S
C251 C257 1.265 . S
H252 C257 0.950 . S
H253 C261 0.949 . S
H254 C262 0.950 . S
H255 C263 0.951 . S
H256 C264 0.951 . S
C257 C251 1.265 . S
C257 H252 0.950 . S
C257 C258 1.478 . S
C258 C257 1.478 . S
C258 C259 1.397 . S
C258 C275 1.394 . S
C259 C258 1.397 . S
C259 C260 1.438 . S
C259 C264 1.429 . S
C260 C259 1.438 . S
C260 C261 1.428 . S
C260 C273 1.394 . S
C261 H253 0.949 . S
C261 C260 1.428 . S
C261 C262 1.345 . S
C262 H254 0.950 . S
C262 C261 1.345 . S
C262 C263 1.424 . S
C263 H255 0.951 . S
C263 C262 1.424 . S
C263 C264 1.347 . S
C264 H256 0.951 . S
C264 C259 1.429 . S
C264 C263 1.347 . S
H265 C266 0.951 . S
C266 H265 0.951 . S
C266 C272 1.265 . S
H267 C272 0.950 . S
H268 C276 0.949 . S
H269 C277 0.950 . S
H270 C278 0.951 . S
H271 C279 0.951 . S
C272 C266 1.265 . S
C272 H267 0.950 . S
C272 C273 1.478 . S
C273 C260 1.394 . S
C273 C272 1.478 . S
C273 C274 1.397 . S
C274 C273 1.397 . S
C274 C275 1.438 . S
C274 C279 1.429 . S
C275 C258 1.394 . S
C275 C274 1.438 . S
C275 C276 1.428 . S
C276 H268 0.949 . S
C276 C275 1.428 . S
C276 C277 1.345 . S
C277 H269 0.950 . S
C277 C276 1.345 . S
C277 C278 1.424 . S
C278 H270 0.951 . S
C278 C277 1.424 . S
C278 C279 1.347 . S
C279 H271 0.951 . S
C279 C274 1.429 . S
C279 C278 1.347 . S
H280 C281 0.951 . S
C281 H280 0.951 . S
C281 C287 1.265 . S
H282 C287 0.950 1_554 S
H283 C291 0.949 . S
H284 C292 0.950 . S
H285 C293 0.951 . S
H286 C294 0.951 . S
C287 C281 1.265 . S
C287 H282 0.950 1_556 S
C287 C288 1.478 . S
C288 C287 1.478 . S
C288 C289 1.397 1_556 S
C288 C305 1.394 . S
C289 C288 1.397 1_554 S
C289 C290 1.438 1_545 S
C289 C294 1.429 . S
C290 C289 1.438 1_565 S
C290 C291 1.428 . S
C290 C303 1.394 . S
C291 H283 0.949 . S
C291 C290 1.428 . S
C291 C292 1.345 1_565 S
C292 H284 0.950 . S
C292 C291 1.345 1_545 S
C292 C293 1.424 . S
C293 H285 0.951 . S
C293 C292 1.424 . S
C293 C294 1.347 . S
C294 H286 0.951 . S
C294 C289 1.429 . S
C294 C293 1.347 . S
H295 C296 0.951 . S
C296 H295 0.951 . S
C296 C302 1.265 . S
H297 C302 0.950 1_556 S
H298 C306 0.949 . S
H299 C307 0.950 . S
H300 C308 0.951 . S
H301 C309 0.951 . S
C302 C296 1.265 . S
C302 H297 0.950 1_554 S
C302 C303 1.478 . S
C303 C290 1.394 . S
C303 C302 1.478 . S
C303 C304 1.397 1_554 S
C304 C303 1.397 1_556 S
C304 C305 1.438 1_565 S
C304 C309 1.429 . S
C305 C288 1.394 . S
C305 C304 1.438 1_545 S
C305 C306 1.428 . S
C306 H298 0.949 . S
C306 C305 1.428 . S
C306 C307 1.345 1_545 S
C307 H299 0.950 . S
C307 C306 1.345 1_565 S
C307 C308 1.424 . S
C308 H300 0.951 . S
C308 C307 1.424 . S
C308 C309 1.347 . S
C309 H301 0.951 . S
C309 C304 1.429 . S
C309 C308 1.347 . S
H310 C311 0.951 . S
C311 H310 0.951 . S
C311 C317 1.265 . S
H312 C317 0.950 . S
H313 C321 0.949 . S
H314 C322 0.950 . S
H315 C323 0.951 1_565 S
H316 C324 0.951 . S
C317 C311 1.265 . S
C317 H312 0.950 . S
C317 C318 1.478 . S
C318 C317 1.478 . S
C318 C319 1.397 . S
C318 C335 1.394 . S
C319 C318 1.397 . S
C319 C320 1.438 1_565 S
C319 C324 1.429 . S
C320 C319 1.438 1_545 S
C320 C321 1.428 . S
C320 C333 1.394 . S
C321 H313 0.949 . S
C321 C320 1.428 . S
C321 C322 1.345 . S
C322 H314 0.950 . S
C322 C321 1.345 . S
C322 C323 1.424 . S
C323 H315 0.951 1_545 S
C323 C322 1.424 . S
C323 C324 1.347 1_545 S
C324 H316 0.951 . S
C324 C319 1.429 . S
C324 C323 1.347 1_565 S
H325 C326 0.951 . S
C326 H325 0.951 . S
C326 C332 1.265 . S
H327 C332 0.950 . S
H328 C336 0.949 . S
H329 C337 0.950 . S
H330 C338 0.951 1_545 S
H331 C339 0.951 . S
C332 C326 1.265 . S
C332 H327 0.950 . S
C332 C333 1.478 . S
C333 C320 1.394 . S
C333 C332 1.478 . S
C333 C334 1.397 . S
C334 C333 1.397 . S
C334 C335 1.438 1_545 S
C334 C339 1.429 . S
C335 C318 1.394 . S
C335 C334 1.438 1_565 S
C335 C336 1.428 . S
C336 H328 0.949 . S
C336 C335 1.428 . S
C336 C337 1.345 . S
C337 H329 0.950 . S
C337 C336 1.345 . S
C337 C338 1.424 . S
C338 H330 0.951 1_565 S
C338 C337 1.424 . S
C338 C339 1.347 1_565 S
C339 H331 0.951 . S
C339 C334 1.429 . S
C339 C338 1.347 1_545 S
H340 C341 0.951 . S
C341 H340 0.951 . S
C341 C347 1.265 . S
H342 C347 0.950 . S
H343 C351 0.949 . S
H344 C352 0.950 . S
H345 C353 0.951 . S
H346 C354 0.951 . S
C347 C341 1.265 . S
C347 H342 0.950 . S
C347 C348 1.478 . S
C348 C347 1.478 . S
C348 C349 1.397 1_556 S
C348 C365 1.394 . S
C349 C348 1.397 1_554 S
C349 C350 1.438 1_655 S
C349 C354 1.429 . S
C350 C349 1.438 1_455 S
C350 C351 1.428 . S
C350 C363 1.394 . S
C351 H343 0.949 . S
C351 C350 1.428 . S
C351 C352 1.345 . S
C352 H344 0.950 . S
C352 C351 1.345 . S
C352 C353 1.424 . S
C353 H345 0.951 . S
C353 C352 1.424 . S
C353 C354 1.347 1_455 S
C354 H346 0.951 . S
C354 C349 1.429 . S
C354 C353 1.347 1_655 S
H355 C356 0.951 . S
C356 H355 0.951 . S
C356 C362 1.265 . S
H357 C362 0.950 . S
H358 C366 0.949 . S
H359 C367 0.950 . S
H360 C368 0.951 . S
H361 C369 0.951 . S
C362 C356 1.265 . S
C362 H357 0.950 . S
C362 C363 1.478 . S
C363 C350 1.394 . S
C363 C362 1.478 . S
C363 C364 1.397 1_554 S
C364 C363 1.397 1_556 S
C364 C365 1.438 1_455 S
C364 C369 1.429 . S
C365 C348 1.394 . S
C365 C364 1.438 1_655 S
C365 C366 1.428 . S
C366 H358 0.949 . S
C366 C365 1.428 . S
C366 C367 1.345 . S
C367 H359 0.950 . S
C367 C366 1.345 . S
C367 C368 1.424 . S
C368 H360 0.951 . S
C368 C367 1.424 . S
C368 C369 1.347 1_655 S
C369 H361 0.951 . S
C369 C364 1.429 . S
C369 C368 1.347 1_455 S
H370 C371 0.951 . S
C371 H370 0.951 . S
C371 C377 1.265 . S
H372 C377 0.950 . S
H373 C381 0.949 . S
H374 C382 0.950 . S
H375 C383 0.951 . S
H376 C384 0.951 . S
C377 C371 1.265 . S
C377 H372 0.950 . S
C377 C378 1.478 . S
C378 C377 1.478 . S
C378 C379 1.397 . S
C378 C395 1.394 . S
C379 C378 1.397 . S
C379 C380 1.438 1_455 S
C379 C384 1.429 . S
C380 C379 1.438 1_655 S
C380 C381 1.428 . S
C380 C393 1.394 . S
C381 H373 0.949 . S
C381 C380 1.428 . S
C381 C382 1.345 . S
C382 H374 0.950 . S
C382 C381 1.345 . S
C382 C383 1.424 1_655 S
C383 H375 0.951 . S
C383 C382 1.424 1_455 S
C383 C384 1.347 . S
C384 H376 0.951 . S
C384 C379 1.429 . S
C384 C383 1.347 . S
H385 C386 0.951 . S
C386 H385 0.951 . S
C386 C392 1.265 . S
H387 C392 0.950 . S
H388 C396 0.949 . S
H389 C397 0.950 . S
H390 C398 0.951 . S
H391 C399 0.951 . S
C392 C386 1.265 . S
C392 H387 0.950 . S
C392 C393 1.478 . S
C393 C380 1.394 . S
C393 C392 1.478 . S
C393 C394 1.397 . S
C394 C393 1.397 . S
C394 C395 1.438 1_655 S
C394 C399 1.429 . S
C395 C378 1.394 . S
C395 C394 1.438 1_455 S
C395 C396 1.428 . S
C396 H388 0.949 . S
C396 C395 1.428 . S
C396 C397 1.345 . S
C397 H389 0.950 . S
C397 C396 1.345 . S
C397 C398 1.424 1_455 S
C398 H390 0.951 . S
C398 C397 1.424 1_655 S
C398 C399 1.347 . S
C399 H391 0.951 . S
C399 C394 1.429 . S
C399 C398 1.347 . S
H400 C401 0.951 . S
C401 H400 0.951 . S
C401 C407 1.265 1_655 S
H402 C407 0.950 . S
H403 C411 0.949 . S
H404 C412 0.950 . S
H405 C413 0.951 . S
H406 C414 0.951 . S
C407 C401 1.265 1_455 S
C407 H402 0.950 . S
C407 C408 1.478 . S
C408 C407 1.478 . S
C408 C409 1.397 . S
C408 C425 1.394 1_465 S
C409 C408 1.397 . S
C409 C410 1.438 . S
C409 C414 1.429 . S
C410 C409 1.438 . S
C410 C411 1.428 . S
C410 C423 1.394 1_455 S
C411 H403 0.949 . S
C411 C410 1.428 . S
C411 C412 1.345 . S
C412 H404 0.950 . S
C412 C411 1.345 . S
C412 C413 1.424 . S
C413 H405 0.951 . S
C413 C412 1.424 . S
C413 C414 1.347 . S
C414 H406 0.951 . S
C414 C409 1.429 . S
C414 C413 1.347 . S
H415 C416 0.951 . S
C416 H415 0.951 . S
C416 C422 1.265 1_455 S
H417 C422 0.950 1_545 S
H418 C426 0.949 . S
H419 C427 0.950 . S
H420 C428 0.951 . S
H421 C429 0.951 . S
C422 C416 1.265 1_655 S
C422 H417 0.950 1_565 S
C422 C423 1.478 . S
C423 C410 1.394 1_655 S
C423 C422 1.478 . S
C423 C424 1.397 1_565 S
C424 C423 1.397 1_545 S
C424 C425 1.438 . S
C424 C429 1.429 . S
C425 C408 1.394 1_645 S
C425 C424 1.438 . S
C425 C426 1.428 . S
C426 H418 0.949 . S
C426 C425 1.428 . S
C426 C427 1.345 . S
C427 H419 0.950 . S
C427 C426 1.345 . S
C427 C428 1.424 . S
C428 H420 0.951 . S
C428 C427 1.424 . S
C428 C429 1.347 . S
C429 H421 0.951 . S
C429 C424 1.429 . S
C429 C428 1.347 . S
H430 C431 0.951 . S
C431 H430 0.951 . S
C431 C437 1.265 1_655 S
H432 C437 0.950 . S
H433 C441 0.949 . S
H434 C442 0.950 . S
H435 C443 0.951 . S
H436 C444 0.951 . S
C437 C431 1.265 1_455 S
C437 H432 0.950 . S
C437 C438 1.478 . S
C438 C437 1.478 . S
C438 C439 1.397 1_545 S
C438 C455 1.394 1_455 S
C439 C438 1.397 1_565 S
C439 C440 1.438 . S
C439 C444 1.429 . S
C440 C439 1.438 . S
C440 C441 1.428 . S
C440 C453 1.394 1_465 S
C441 H433 0.949 . S
C441 C440 1.428 . S
C441 C442 1.345 . S
C442 H434 0.950 . S
C442 C441 1.345 . S
C442 C443 1.424 . S
C443 H435 0.951 . S
C443 C442 1.424 . S
C443 C444 1.347 . S
C444 H436 0.951 . S
C444 C439 1.429 . S
C444 C443 1.347 . S
H445 C446 0.951 . S
C446 H445 0.951 . S
C446 C452 1.265 1_455 S
H447 C452 0.950 . S
H448 C456 0.949 . S
H449 C457 0.950 . S
H450 C458 0.951 . S
H451 C459 0.951 . S
C452 C446 1.265 1_655 S
C452 H447 0.950 . S
C452 C453 1.478 . S
C453 C440 1.394 1_645 S
C453 C452 1.478 . S
C453 C454 1.397 . S
C454 C453 1.397 . S
C454 C455 1.438 . S
C454 C459 1.429 . S
C455 C438 1.394 1_655 S
C455 C454 1.438 . S
C455 C456 1.428 . S
C456 H448 0.949 . S
C456 C455 1.428 . S
C456 C457 1.345 . S
C457 H449 0.950 . S
C457 C456 1.345 . S
C457 C458 1.424 . S
C458 H450 0.951 . S
C458 C457 1.424 . S
C458 C459 1.347 . S
C459 H451 0.951 . S
C459 C454 1.429 . S
C459 C458 1.347 . S
H460 C461 0.951 . S
C461 H460 0.951 . S
C461 C467 1.265 . S
H462 C467 0.950 . S
H463 C471 0.949 . S
H464 C472 0.950 . S
H465 C473 0.951 . S
H466 C474 0.951 . S
C467 C461 1.265 . S
C467 H462 0.950 . S
C467 C468 1.478 . S
C468 C467 1.478 . S
C468 C469 1.397 . S
C468 C485 1.394 . S
C469 C468 1.397 . S
C469 C470 1.438 . S
C469 C474 1.429 . S
C470 C469 1.438 . S
C470 C471 1.428 . S
C470 C483 1.394 . S
C471 H463 0.949 . S
C471 C470 1.428 . S
C471 C472 1.345 . S
C472 H464 0.950 . S
C472 C471 1.345 . S
C472 C473 1.424 . S
C473 H465 0.951 . S
C473 C472 1.424 . S
C473 C474 1.347 . S
C474 H466 0.951 . S
C474 C469 1.429 . S
C474 C473 1.347 . S
H475 C476 0.951 . S
C476 H475 0.951 . S
C476 C482 1.265 . S
H477 C482 0.950 . S
H478 C486 0.949 . S
H479 C487 0.950 . S
H480 C488 0.951 . S
H481 C489 0.951 . S
C482 C476 1.265 . S
C482 H477 0.950 . S
C482 C483 1.478 . S
C483 C470 1.394 . S
C483 C482 1.478 . S
C483 C484 1.397 . S
C484 C483 1.397 . S
C484 C485 1.438 . S
C484 C489 1.429 . S
C485 C468 1.394 . S
C485 C484 1.438 . S
C485 C486 1.428 . S
C486 H478 0.949 . S
C486 C485 1.428 . S
C486 C487 1.345 . S
C487 H479 0.950 . S
C487 C486 1.345 . S
C487 C488 1.424 . S
C488 H480 0.951 . S
C488 C487 1.424 . S
C488 C489 1.347 . S
C489 H481 0.951 . S
C489 C484 1.429 . S
C489 C488 1.347 . S
H490 C491 0.951 . S
C491 H490 0.951 . S
C491 C497 1.265 . S
H492 C497 0.950 . S
H493 C501 0.949 . S
H494 C502 0.950 . S
H495 C503 0.951 . S
H496 C504 0.951 . S
C497 C491 1.265 . S
C497 H492 0.950 . S
C497 C498 1.478 . S
C498 C497 1.478 . S
C498 C499 1.397 . S
C498 C515 1.394 . S
C499 C498 1.397 . S
C499 C500 1.438 . S
C499 C504 1.429 . S
C500 C499 1.438 . S
C500 C501 1.428 . S
C500 C513 1.394 . S
C501 H493 0.949 . S
C501 C500 1.428 . S
C501 C502 1.345 . S
C502 H494 0.950 . S
C502 C501 1.345 . S
C502 C503 1.424 . S
C503 H495 0.951 . S
C503 C502 1.424 . S
C503 C504 1.347 . S
C504 H496 0.951 . S
C504 C499 1.429 . S
C504 C503 1.347 . S
H505 C506 0.951 . S
C506 H505 0.951 . S
C506 C512 1.265 . S
H507 C512 0.950 . S
H508 C516 0.949 . S
H509 C517 0.950 . S
H510 C518 0.951 . S
H511 C519 0.951 . S
C512 C506 1.265 . S
C512 H507 0.950 . S
C512 C513 1.478 . S
C513 C500 1.394 . S
C513 C512 1.478 . S
C513 C514 1.397 . S
C514 C513 1.397 . S
C514 C515 1.438 . S
C514 C519 1.429 . S
C515 C498 1.394 . S
C515 C514 1.438 . S
C515 C516 1.428 . S
C516 H508 0.949 . S
C516 C515 1.428 . S
C516 C517 1.345 . S
C517 H509 0.950 . S
C517 C516 1.345 . S
C517 C518 1.424 . S
C518 H510 0.951 . S
C518 C517 1.424 . S
C518 C519 1.347 . S
C519 H511 0.951 . S
C519 C514 1.429 . S
C519 C518 1.347 . S
C161 C102 1.609 . S
C176 C3 1.610 . S
C191 C83 1.607 . S
C206 C22 1.606 . S
C221 C62 1.607 . S
C236 C123 1.606 . S
C251 C43 1.565 . S
C266 C142 1.565 . S
C281 C26 1.325 . S
C296 C9 1.325 . S
C311 C49 1.319 . S
C326 C66 1.319 . S
C341 C106 1.321 . S
C356 C89 1.321 . S
C371 C146 1.398 . S
C386 C129 1.398 . S
C401 C55 1.435 1_565 S
C416 C15 1.436 1_565 S
C431 C2 1.433 1_545 S
C446 C42 1.441 1_545 S
C461 C135 1.484 . S
C476 C95 1.486 . S
C491 C122 1.437 . S
C506 C82 1.437 . S
