# Generated by pormake.
# Topology wkf, (6)-cn, num edge types: 1
# Building blocks:
#     Node 0, Type 0, BuildingBlock: MAKGUD_clean_sbu_1, # of connection points: 6
#     Node 1, Type 0, BuildingBlock: MAKGUD_clean_sbu_1, # of connection points: 6
#     Node 2, Type 0, BuildingBlock: MAKGUD_clean_sbu_1, # of connection points: 6
#     Node 3, Type 0, BuildingBlock: MAKGUD_clean_sbu_1, # of connection points: 6
#     Node 4, Type 0, BuildingBlock: MAKGUD_clean_sbu_1, # of connection points: 6
#     Node 5, Type 0, BuildingBlock: MAKGUD_clean_sbu_1, # of connection points: 6
#     Node 6, Type 0, BuildingBlock: MAKGUD_clean_sbu_1, # of connection points: 6
#     Node 7, Type 0, BuildingBlock: MAKGUD_clean_sbu_1, # of connection points: 6
#     Node 8, Type 0, BuildingBlock: MAKGUD_clean_sbu_1, # of connection points: 6
#     Node 9, Type 0, BuildingBlock: MAKGUD_clean_sbu_1, # of connection points: 6
#     Node 10, Type 0, BuildingBlock: MAKGUD_clean_sbu_1, # of connection points: 6
#     Node 11, Type 0, BuildingBlock: MAKGUD_clean_sbu_1, # of connection points: 6
#     Edge 12, Type (0, 0), BuildingBlock: CIFDUS_clean_linker_0, # of connection points: 2
#     Edge 13, Type (0, 0), BuildingBlock: CIFDUS_clean_linker_0, # of connection points: 2
#     Edge 14, Type (0, 0), BuildingBlock: CIFDUS_clean_linker_0, # of connection points: 2
#     Edge 15, Type (0, 0), BuildingBlock: CIFDUS_clean_linker_0, # of connection points: 2
#     Edge 16, Type (0, 0), BuildingBlock: CIFDUS_clean_linker_0, # of connection points: 2
#     Edge 17, Type (0, 0), BuildingBlock: CIFDUS_clean_linker_0, # of connection points: 2
#     Edge 18, Type (0, 0), BuildingBlock: CIFDUS_clean_linker_0, # of connection points: 2
#     Edge 19, Type (0, 0), BuildingBlock: CIFDUS_clean_linker_0, # of connection points: 2
#     Edge 20, Type (0, 0), BuildingBlock: CIFDUS_clean_linker_0, # of connection points: 2
#     Edge 21, Type (0, 0), BuildingBlock: CIFDUS_clean_linker_0, # of connection points: 2
#     Edge 22, Type (0, 0), BuildingBlock: CIFDUS_clean_linker_0, # of connection points: 2
#     Edge 23, Type (0, 0), BuildingBlock: CIFDUS_clean_linker_0, # of connection points: 2
#     Edge 24, Type (0, 0), BuildingBlock: CIFDUS_clean_linker_0, # of connection points: 2
#     Edge 25, Type (0, 0), BuildingBlock: CIFDUS_clean_linker_0, # of connection points: 2
#     Edge 26, Type (0, 0), BuildingBlock: CIFDUS_clean_linker_0, # of connection points: 2
#     Edge 27, Type (0, 0), BuildingBlock: CIFDUS_clean_linker_0, # of connection points: 2
#     Edge 28, Type (0, 0), BuildingBlock: CIFDUS_clean_linker_0, # of connection points: 2
#     Edge 29, Type (0, 0), BuildingBlock: CIFDUS_clean_linker_0, # of connection points: 2
#     Edge 30, Type (0, 0), BuildingBlock: CIFDUS_clean_linker_0, # of connection points: 2
#     Edge 31, Type (0, 0), BuildingBlock: CIFDUS_clean_linker_0, # of connection points: 2
#     Edge 32, Type (0, 0), BuildingBlock: CIFDUS_clean_linker_0, # of connection points: 2
#     Edge 33, Type (0, 0), BuildingBlock: CIFDUS_clean_linker_0, # of connection points: 2
#     Edge 34, Type (0, 0), BuildingBlock: CIFDUS_clean_linker_0, # of connection points: 2
#     Edge 35, Type (0, 0), BuildingBlock: CIFDUS_clean_linker_0, # of connection points: 2
#     Edge 36, Type (0, 0), BuildingBlock: CIFDUS_clean_linker_0, # of connection points: 2
#     Edge 37, Type (0, 0), BuildingBlock: CIFDUS_clean_linker_0, # of connection points: 2
#     Edge 38, Type (0, 0), BuildingBlock: CIFDUS_clean_linker_0, # of connection points: 2
#     Edge 39, Type (0, 0), BuildingBlock: CIFDUS_clean_linker_0, # of connection points: 2
#     Edge 40, Type (0, 0), BuildingBlock: CIFDUS_clean_linker_0, # of connection points: 2
#     Edge 41, Type (0, 0), BuildingBlock: CIFDUS_clean_linker_0, # of connection points: 2
#     Edge 42, Type (0, 0), BuildingBlock: CIFDUS_clean_linker_0, # of connection points: 2
#     Edge 43, Type (0, 0), BuildingBlock: CIFDUS_clean_linker_0, # of connection points: 2
#     Edge 44, Type (0, 0), BuildingBlock: CIFDUS_clean_linker_0, # of connection points: 2
#     Edge 45, Type (0, 0), BuildingBlock: CIFDUS_clean_linker_0, # of connection points: 2
#     Edge 46, Type (0, 0), BuildingBlock: CIFDUS_clean_linker_0, # of connection points: 2
#     Edge 47, Type (0, 0), BuildingBlock: CIFDUS_clean_linker_0, # of connection points: 2
# Relax obj value: 0.045
# Max RMSD: 0.163
# Mean RMSD: 0.162
data_MOF--net-wkf--node1-MAKGUD_clean_sbu_1--edge1-CIFDUS_clean_linker_0
_symmetry_space_group_name_H-M    P1
_symmetry_Int_Tables_number       1
_symmetry_cell_setting            triclinic
loop_
_symmetry_equiv_pos_as_xyz
'x, y, z'
_cell_length_a     26.301386
_cell_length_b     26.165343
_cell_length_c     75.080816
_cell_angle_alpha  90.130792
_cell_angle_beta   90.049492
_cell_angle_gamma 119.94068
loop_
_atom_site_label
_atom_site_type_symbol
_atom_site_fract_x
_atom_site_fract_y
_atom_site_fract_z
_atom_type_partial_charge
O0 O 0.43624 0.08368 0.43441 0.0
Tb1 Tb 0.46345 0.07199 0.40789 0.0
C2 C 0.47556 0.0974 0.36801 0.0
O3 O 0.43392 0.93393 0.39392 0.0
Tb4 Tb 0.45004 0.9648 0.36596 0.0
C5 C 0.35306 0.90942 0.34574 0.0
O6 O 0.39572 0.9796 0.41128 0.0
O7 O 0.49679 0.91585 0.3593 0.0
C8 C 0.46851 0.85784 0.36194 0.0
O9 O 0.41582 0.83417 0.36895 0.0
O10 O 0.43691 0.07735 0.38092 0.0
O11 O 0.49448 0.06259 0.36137 0.0
O12 O 0.5576 0.10401 0.41133 0.0
C13 C 0.39209 0.93145 0.40435 0.0
C14 C 0.44158 0.13516 0.43161 0.0
O15 O 0.35379 0.91685 0.36293 0.0
O16 O 0.40678 0.93418 0.34002 0.0
C17 C 0.59543 0.15799 0.40587 0.0
O18 O 0.57558 0.18567 0.396 0.0
O19 O 0.45802 0.15068 0.4152 0.0
O20 O 0.52302 0.43737 0.50327 0.0
Tb21 Tb 0.52206 0.44838 0.53231 0.0
C22 C 0.50994 0.39803 0.57194 0.0
O23 O 0.40663 0.45763 0.55296 0.0
Tb24 Tb 0.45684 0.48095 0.57779 0.0
C25 C 0.38677 0.44442 0.60658 0.0
O26 O 0.48043 0.50419 0.53236 0.0
O27 O 0.49034 0.57636 0.57936 0.0
C28 C 0.45239 0.59192 0.58502 0.0
O29 O 0.39743 0.55032 0.58691 0.0
O30 O 0.50287 0.38713 0.55464 0.0
O31 O 0.51984 0.44906 0.57856 0.0
O32 O 0.61945 0.49241 0.53119 0.0
C33 C 0.42703 0.48867 0.53826 0.0
C34 C 0.48568 0.38114 0.50274 0.0
O35 O 0.36966 0.42893 0.59019 0.0
O36 O 0.4434 0.47827 0.60667 0.0
C37 C 0.64447 0.46676 0.52227 0.0
O38 O 0.61021 0.41392 0.51562 0.0
O39 O 0.46792 0.36311 0.51886 0.0
O40 O 0.91868 0.34547 0.7516 0.0
Tb41 Tb 0.99056 0.43249 0.74372 0.0
C42 C 0.97891 0.41792 0.70288 0.0
O43 O 0.11905 0.46181 0.72515 0.0
Tb44 Tb 0.11665 0.50235 0.69963 0.0
C45 C 0.16591 0.46552 0.67506 0.0
O46 O 0.08524 0.48824 0.74965 0.0
O47 O 0.16568 0.60002 0.69715 0.0
C48 C 0.2225 0.6304 0.70104 0.0
O49 O 0.24636 0.60197 0.70848 0.0
O50 O 0.99223 0.39829 0.71724 0.0
O51 O 1.02137 0.46324 0.69416 0.0
O52 O 0.9403 0.47865 0.7474 0.0
C53 C 0.12896 0.48768 0.74092 0.0
C54 C 0.93946 0.34382 0.76716 0.0
O55 O 0.18625 0.4846 0.69094 0.0
O56 O 0.11722 0.46642 0.67311 0.0
C57 C 0.88687 0.45572 0.74056 0.0
O58 O 0.86894 0.41096 0.72953 0.0
O59 O 0.99003 0.39142 0.76927 0.0
O60 O 0.65099 0.12141 0.84042 0.0
Tb61 Tb 0.64044 0.10215 0.86898 0.0
C62 C 0.71006 0.16122 0.90739 0.0
O63 O 0.65413 0.99363 0.88802 0.0
Tb64 Tb 0.62994 1.01881 0.91294 0.0
C65 C 0.65095 0.96289 0.93942 0.0
O66 O 0.59368 1.00433 0.86857 0.0
O67 O 0.53347 0.96967 0.91116 0.0
C68 C 0.50844 0.91205 0.90852 0.0
O69 O 0.54271 0.88967 0.90575 0.0
O70 O 0.69845 0.16083 0.89014 0.0
O71 O 0.68493 0.11427 0.91792 0.0
O72 O 0.58686 0.14531 0.86609 0.0
C73 C 0.61728 0.97326 0.87455 0.0
C74 C 0.70627 0.13741 0.83945 0.0
O75 O 0.6704 0.96888 0.9232 0.0
O76 O 0.62047 0.98941 0.94079 0.0
C77 C 0.61361 0.20349 0.86409 0.0
O78 O 0.67102 0.2336 0.86561 0.0
O79 O 0.72443 0.13237 0.85514 0.0
O80 O 0.71747 0.63607 0.10629 0.0
Tb81 Tb 0.66554 0.59562 0.08236 0.0
C82 C 0.6602 0.59474 0.04003 0.0
O83 O 0.59223 0.63863 0.0642 0.0
Tb84 Tb 0.57076 0.64379 0.03647 0.0
C85 C 0.61568 0.74623 0.01904 0.0
O86 O 0.62577 0.64837 0.09165 0.0
O87 O 0.4752 0.59424 0.03082 0.0
C88 C 0.45354 0.61063 0.01743 0.0
O89 O 0.49067 0.65326 1.00704 0.0
O90 O 0.67878 0.62801 0.05455 0.0
O91 O 0.61903 0.59618 0.02985 0.0
O92 O 0.61611 0.49963 0.08705 0.0
C93 C 0.6017 0.66625 0.0796 0.0
C94 C 0.76264 0.63137 0.10181 0.0
O95 O 0.59006 0.73544 0.03456 0.0
O96 O 0.61752 0.69976 1.01372 0.0
C97 C 0.63168 0.46542 0.0784 0.0
O98 O 0.66985 0.48867 0.06543 0.0
O99 O 0.75404 0.60814 0.08594 0.0
O100 O 0.96946 0.53194 0.17156 0.0
Tb101 Tb 0.99005 0.539 0.20007 0.0
C102 C 0.95267 0.55502 0.24059 0.0
O103 O 0.09625 0.65336 0.21947 0.0
Tb104 Tb 0.08995 0.61934 0.24617 0.0
C105 C 0.12846 0.70705 0.27037 0.0
O106 O 0.08726 0.58673 0.19867 0.0
O107 O 0.15469 0.58973 0.24784 0.0
C108 C 0.20815 0.62957 0.25301 0.0
O109 O 0.22009 0.68438 0.25477 0.0
O110 O 0.946 0.55402 0.22299 0.0
O111 O 0.9967 0.55242 0.24831 0.0
O112 O 0.94147 0.44136 0.1972 0.0
C113 C 0.12024 0.63762 0.20691 0.0
C114 C 0.9557 0.57311 0.171 0.0
O115 O 0.12877 0.71293 0.25317 0.0
O116 O 0.10369 0.65103 0.27396 0.0
C117 C 0.88368 0.412 0.19452 0.0
O118 O 0.85511 0.44106 0.19603 0.0
O119 O 0.96176 0.5956 0.18684 0.0
O120 O 0.95776 0.608 0.43101 0.0
Tb121 Tb 0.97325 0.55382 0.44991 0.0
C122 C 0.97712 0.56628 0.49208 0.0
O123 O 0.12638 0.66063 0.46901 0.0
Tb124 Tb 0.10943 0.62983 0.49736 0.0
C125 C 0.16811 0.72376 0.51913 0.0
O126 O 0.06528 0.61794 0.44303 0.0
O127 O 0.14516 0.57183 0.50462 0.0
C128 C 0.20032 0.5879 0.50056 0.0
O129 O 0.2295 0.63436 0.49037 0.0
O130 O 0.99986 0.56046 0.47722 0.0
O131 O 1.01597 0.59169 0.50474 0.0
O132 O 0.93582 0.46836 0.43594 0.0
C133 C 0.11452 0.65743 0.45148 0.0
C134 C 0.90722 0.59705 0.43727 0.0
O135 O 0.11318 0.68388 0.52039 0.0
O136 O 0.18981 0.71139 0.50536 0.0
C137 C 0.90161 0.41615 0.44325 0.0
O138 O 0.90315 0.41015 0.46056 0.0
O139 O 0.89558 0.56445 0.45146 0.0
O140 O 0.51955 0.11795 0.69244 0.0
Tb141 Tb 0.51755 0.08985 0.66465 0.0
C142 C 0.51618 0.12991 0.6238 0.0
O143 O 0.40665 0.97483 0.64301 0.0
Tb144 Tb 0.46084 0.99294 0.61926 0.0
C145 C 0.39733 0.95346 0.58921 0.0
O146 O 0.4677 0.99196 0.66679 0.0
O147 O 0.4898 0.92811 0.6221 0.0
C148 C 0.44726 0.87264 0.62276 0.0
O149 O 0.39299 0.86213 0.62351 0.0
O150 O 0.50725 0.13349 0.64098 0.0
O151 O 0.52416 0.08754 0.61717 0.0
O152 O 0.6144 0.13557 0.66821 0.0
C153 C 0.41877 0.95654 0.65791 0.0
C154 C 0.47999 0.13352 0.69065 0.0
O155 O 0.37749 0.95921 0.60454 0.0
O156 O 0.45302 0.97194 0.5908 0.0
C157 C 0.6464 0.19415 0.66896 0.0
O158 O 0.62045 0.2248 0.66544 0.0
O159 O 0.46081 0.12309 0.67436 0.0
O160 O 0.46575 0.3795 0.76363 0.0
Tb161 Tb 0.49453 0.42959 0.78873 0.0
C162 C 0.50601 0.42591 0.82878 0.0
O163 O 0.41824 0.51362 0.80405 0.0
Tb164 Tb 0.46769 0.5215 0.82881 0.0
C165 C 0.38888 0.48372 0.85536 0.0
O166 O 0.4367 0.46404 0.78055 0.0
O167 O 0.51326 0.61884 0.83196 0.0
C168 C 0.48194 0.64588 0.83147 0.0
O169 O 0.42597 0.614 0.82743 0.0
O170 O 0.46747 0.40093 0.81596 0.0
O171 O 0.52339 0.48131 0.83306 0.0
O172 O 0.58992 0.4822 0.78405 0.0
C173 C 0.40996 0.49127 0.78761 0.0
C174 C 0.46845 0.33376 0.76904 0.0
O175 O 0.3804 0.45982 0.83961 0.0
O176 O 0.44195 0.52822 0.85616 0.0
C177 C 0.62409 0.46301 0.79067 0.0
O178 O 0.60132 0.41941 0.80211 0.0
O179 O 0.48395 0.34132 0.78569 0.0
O180 O 0.98246 0.41791 0.02156 0.0
Tb181 Tb 0.98919 0.46692 0.99737 0.0
C182 C 0.98848 0.44294 0.95269 0.0
O183 O 0.10527 0.54165 0.97407 0.0
Tb184 Tb 0.12178 0.53372 0.94575 0.0
C185 C 0.18365 0.48722 0.93211 0.0
O186 O 0.08586 0.50785 1.00219 0.0
O187 O 0.16767 0.62271 0.93405 0.0
C188 C 0.192 0.6715 0.94375 0.0
O189 O 0.17673 0.66846 0.96054 0.0
O190 O 1.00597 0.46657 0.96866 0.0
O191 O 1.02793 0.46831 0.9398 0.0
O192 O 0.9456 0.5179 1.00492 0.0
C193 C 0.12464 0.53079 0.989 0.0
C194 C 0.93755 0.36828 0.01653 0.0
O195 O 0.19157 0.51088 0.94795 0.0
O196 O 0.13922 0.48735 0.92458 0.0
C197 C 0.88747 0.49302 1.00414 0.0
O198 O 0.85755 0.43993 0.99719 0.0
O199 O 0.92237 0.37378 1.00039 0.0
O200 O 0.70474 0.10939 0.09 0.0
Tb201 Tb 0.66393 0.09001 0.11617 0.0
C202 C 0.65951 0.0814 0.1583 0.0
O203 O 0.58967 0.97076 0.1336 0.0
Tb204 Tb 0.57191 0.94202 0.16125 0.0
C205 C 0.62281 0.88915 0.17797 0.0
O206 O 0.62413 0.99806 0.1064 0.0
O207 O 0.4766 0.89076 0.16728 0.0
C208 C 0.44992 0.83228 0.16796 0.0
O209 O 0.48109 0.80679 0.16466 0.0
O210 O 0.67777 0.06787 0.14353 0.0
O211 O 0.61898 0.0379 0.16836 0.0
O212 O 0.61692 0.13993 0.11447 0.0
C213 C 0.59948 0.95447 0.11793 0.0
C214 C 0.75626 0.15082 0.09504 0.0
O215 O 0.60464 0.87942 0.16145 0.0
O216 O 0.61435 0.93026 0.18466 0.0
C217 C 0.64093 0.19296 0.12186 0.0
O218 O 0.68731 0.20996 0.13203 0.0
O219 O 0.7566 0.15711 0.11232 0.0
O220 O 0.65389 0.55262 0.35778 0.0
Tb221 Tb 0.63442 0.55866 0.32958 0.0
C222 C 0.68163 0.56256 0.28939 0.0
O223 O 0.6371 0.67163 0.30902 0.0
Tb224 Tb 0.60619 0.62362 0.28397 0.0
C225 C 0.6459 0.69932 0.25656 0.0
O226 O 0.58485 0.60719 0.33107 0.0
O227 O 0.51307 0.59746 0.28508 0.0
C228 C 0.50211 0.64145 0.28537 0.0
O229 O 0.54701 0.69539 0.28608 0.0
O230 O 0.6925 0.57229 0.30668 0.0
O231 O 0.63345 0.55714 0.28202 0.0
O232 O 0.58809 0.46057 0.3312 0.0
C233 C 0.60166 0.65787 0.32274 0.0
C234 C 0.70813 0.5952 0.35754 0.0
O235 O 0.6651 0.7113 0.27287 0.0
O236 O 0.6056 0.64403 0.25561 0.0
C237 C 0.619 0.43299 0.33035 0.0
O238 O 0.67537 0.46503 0.32697 0.0
O239 O 0.72031 0.61758 0.34163 0.0
H240 H 0.13008 0.70552 0.30693 0.0
H241 H 0.21521 0.81659 0.26161 0.0
H242 H 0.29101 0.89029 0.28096 0.0
H243 H 0.33848 0.91946 0.31043 0.0
H244 H 0.25084 0.81317 0.35627 0.0
H245 H 0.17076 0.74185 0.33723 0.0
C246 C 0.16458 0.74642 0.30138 0.0
C247 C 0.16704 0.75532 0.28281 0.0
C248 C 0.208 0.78932 0.31269 0.0
C249 C 0.21202 0.80861 0.27582 0.0
C250 C 0.25574 0.85072 0.28688 0.0
C251 C 0.30134 0.88111 0.31626 0.0
C252 C 0.30072 0.8713 0.33468 0.0
C253 C 0.25498 0.84098 0.30527 0.0
C254 C 0.25219 0.82175 0.34211 0.0
C255 C 0.20655 0.7808 0.33121 0.0
H256 H 0.42759 0.26131 0.50172 0.0
H257 H 0.51883 0.41474 0.46839 0.0
H258 H 0.5089 0.35192 0.44288 0.0
H259 H 0.48049 0.25339 0.43054 0.0
H260 H 0.39412 0.10092 0.46451 0.0
H261 H 0.39543 0.16286 0.48911 0.0
C262 C 0.44454 0.28088 0.4888 0.0
C263 C 0.47379 0.34258 0.48694 0.0
C264 C 0.43979 0.24451 0.47429 0.0
C265 C 0.49601 0.36735 0.47016 0.0
C266 C 0.49049 0.33143 0.45557 0.0
C267 C 0.46123 0.23374 0.44326 0.0
C268 C 0.43716 0.17262 0.44569 0.0
C269 C 0.46336 0.26997 0.45754 0.0
C270 C 0.41291 0.14783 0.4623 0.0
C271 C 0.41375 0.18326 0.4764 0.0
H272 H 0.27259 0.47268 0.67709 0.0
H273 H 0.12756 0.42602 0.6413 0.0
H274 H 0.18048 0.40903 0.61731 0.0
H275 H 0.27129 0.41448 0.60586 0.0
H276 H 0.41767 0.46553 0.64146 0.0
H277 H 0.36098 0.4729 0.66611 0.0
C278 C 0.25235 0.45819 0.66408 0.0
C279 C 0.19624 0.45076 0.66098 0.0
C280 C 0.28342 0.44924 0.65028 0.0
C281 C 0.1707 0.43214 0.64404 0.0
C282 C 0.201 0.42246 0.6303 0.0
C283 C 0.29025 0.42597 0.61911 0.0
C284 C 0.34853 0.43906 0.62185 0.0
C285 C 0.25779 0.4317 0.63317 0.0
C286 C 0.37283 0.45493 0.63902 0.0
C287 C 0.34052 0.45949 0.65311 0.0
H288 H 0.82401 0.26078 0.76696 0.0
H289 H 0.97979 0.3322 0.79952 0.0
H290 H 0.92219 0.27011 0.82445 0.0
H291 H 0.82578 0.20148 0.83778 0.0
H292 H 0.66962 0.13553 0.80556 0.0
H293 H 0.72878 0.1889 0.77976 0.0
C294 C 0.84546 0.26201 0.77943 0.0
C295 C 0.90608 0.30092 0.78139 0.0
C296 C 0.81177 0.22737 0.79384 0.0
C297 C 0.93319 0.30252 0.79768 0.0
C298 C 0.90021 0.26716 0.81196 0.0
C299 C 0.80493 0.19815 0.82503 0.0
C300 C 0.74342 0.16456 0.82357 0.0
C301 C 0.83923 0.23028 0.81032 0.0
C302 C 0.71687 0.16111 0.80702 0.0
C303 C 0.75068 0.19173 0.79227 0.0
H304 H 0.61766 0.95147 0.9743 0.0
H305 H 0.69565 0.88969 0.93553 0.0
H306 H 0.69588 0.82021 0.95719 0.0
H307 H 0.66721 0.77172 0.98646 0.0
H308 H 0.59064 0.83402 0.02552 0.0
H309 H 0.59725 0.90887 1.00464 0.0
C310 C 0.63529 0.92322 0.97069 0.0
C311 C 0.65627 0.92548 0.95329 0.0
C312 C 0.63544 0.88333 0.98328 0.0
C313 C 0.67921 0.88881 0.94882 0.0
C314 C 0.67922 0.84892 0.9612 0.0
C315 C 0.65284 0.80231 0.99049 0.0
C316 C 0.62823 0.79714 1.00749 0.0
C317 C 0.65655 0.84507 0.97837 0.0
C318 C 0.60983 0.83712 1.01253 0.0
C319 C 0.61331 0.87974 1.00054 0.0
H320 H 0.91039 0.64635 0.16945 0.0
H321 H 0.94438 0.52984 0.13737 0.0
H322 H 0.89405 0.54387 0.11206 0.0
H323 H 0.83197 0.5817 0.09997 0.0
H324 H 0.79313 0.69337 0.13273 0.0
H325 H 0.85436 0.6898 0.15665 0.0
C326 C 0.90744 0.62474 0.15683 0.0
C327 C 0.93079 0.58694 0.15529 0.0
C328 C 0.87744 0.63215 0.14243 0.0
C329 C 0.92655 0.55903 0.1389 0.0
C330 C 0.89772 0.56699 0.12442 0.0
C331 C 0.83812 0.60633 0.11219 0.0
C332 C 0.80828 0.63788 0.11459 0.0
C333 C 0.87189 0.60245 0.12614 0.0
C334 C 0.81582 0.66889 0.13058 0.0
C335 C 0.85055 0.66658 0.14431 0.0
H336 H 0.27771 0.89085 0.5862 0.0
H337 H 0.4369 0.9417 0.55696 0.0
H338 H 0.38008 0.87825 0.53214 0.0
H339 H 0.28551 0.80233 0.51958 0.0
H340 H 0.12625 0.74937 0.549 0.0
H341 H 0.18225 0.81944 0.57272 0.0
C342 C 0.29979 0.88873 0.57427 0.0
C343 C 0.36148 0.921 0.57344 0.0
C344 C 0.26674 0.85125 0.56009 0.0
C345 C 0.38949 0.9174 0.55794 0.0
C346 C 0.357 0.8809 0.54375 0.0
C347 C 0.26304 0.80668 0.53109 0.0
C348 C 0.20181 0.77054 0.53254 0.0
C349 C 0.29568 0.84671 0.54479 0.0
C350 C 0.17335 0.7766 0.54756 0.0
C351 C 0.2054 0.81662 0.56116 0.0
H352 H 0.50643 0.14769 0.7261 0.0
H353 H 0.42271 0.19422 0.68489 0.0
H354 H 0.40879 0.25819 0.70568 0.0
H355 H 0.42661 0.30646 0.73511 0.0
H356 H 0.50634 0.25679 0.77674 0.0
H357 H 0.51508 0.18834 0.75644 0.0
C358 C 0.48453 0.17132 0.72177 0.0
C359 C 0.46598 0.16654 0.70396 0.0
C360 C 0.47612 0.2077 0.73389 0.0
C361 C 0.43737 0.19713 0.69854 0.0
C362 C 0.42957 0.23392 0.71041 0.0
C363 C 0.44512 0.28 0.73977 0.0
C364 C 0.46606 0.28688 0.75736 0.0
C365 C 0.44963 0.24034 0.72804 0.0
C366 C 0.48977 0.25219 0.76327 0.0
C367 C 0.49506 0.21323 0.75163 0.0
H368 H 0.16624 0.42773 0.90107 0.0
H369 H 0.29928 0.52971 0.9401 0.0
H370 H 0.37517 0.53468 0.92008 0.0
H371 H 0.40446 0.51946 0.89005 0.0
H372 H 0.27067 0.41508 0.85146 0.0
H373 H 0.19439 0.4013 0.87269 0.0
C374 C 0.21173 0.44984 0.90535 0.0
C375 C 0.22717 0.4785 0.92201 0.0
C376 C 0.25507 0.45276 0.89372 0.0
C377 C 0.28622 0.50698 0.9274 0.0
C378 C 0.32969 0.5103 0.91587 0.0
C379 C 0.35855 0.49297 0.88642 0.0
C380 C 0.34321 0.46882 0.86914 0.0
C381 C 0.31481 0.48488 0.89878 0.0
C382 C 0.28361 0.43421 0.86464 0.0
C383 C 0.23996 0.42648 0.87677 0.0
H384 H 0.75164 0.14629 0.05909 0.0
H385 H 0.86314 0.24645 0.10297 0.0
H386 H 0.93248 0.32031 0.08213 0.0
H387 H 0.95643 0.36062 0.05169 0.0
H388 H 0.84195 0.26247 1.00808 0.0
H389 H 0.77881 0.18324 0.02853 0.0
C390 C 0.79158 0.18384 0.06407 0.0
C391 C 0.80229 0.19106 0.08254 0.0
C392 C 0.83038 0.22661 0.05206 0.0
C393 C 0.85405 0.23995 0.08882 0.0
C394 C 0.89351 0.28226 0.0769 0.0
C395 C 0.9181 0.32146 0.04663 0.0
C396 C 0.90367 0.31737 0.02842 0.0
C397 C 0.88142 0.27671 0.05854 0.0
C398 C 0.85385 0.26659 0.02205 0.0
C399 C 0.8177 0.22141 0.03374 0.0
H400 H 0.61745 0.68052 0.22123 0.0
H401 H 0.69959 0.81818 0.26069 0.0
H402 H 0.70465 0.89073 0.23927 0.0
H403 H 0.67609 0.91312 0.21031 0.0
H404 H 0.59748 0.77689 0.17033 0.0
H405 H 0.60145 0.70608 0.19076 0.0
C406 C 0.63742 0.72661 0.22501 0.0
C407 C 0.65768 0.74386 0.24258 0.0
C408 C 0.64052 0.76833 0.21253 0.0
C409 C 0.68371 0.80374 0.24727 0.0
C410 C 0.68635 0.84526 0.23503 0.0
C411 C 0.66098 0.86822 0.20596 0.0
C412 C 0.63622 0.85016 0.18888 0.0
C413 C 0.66354 0.82781 0.21778 0.0
C414 C 0.61697 0.79194 0.18338 0.0
C415 C 0.61882 0.7513 0.19512 0.0
H416 H 0.92592 0.66032 0.40701 0.0
H417 H 0.78927 0.54542 0.44314 0.0
H418 H 0.71458 0.53751 0.42204 0.0
H419 H 0.68826 0.55441 0.39178 0.0
H420 H 0.82571 0.66979 0.3559 0.0
H421 H 0.89968 0.68647 0.37837 0.0
C422 C 0.8798 0.63465 0.41044 0.0
C423 C 0.86318 0.60332 0.42658 0.0
C424 C 0.83714 0.62966 0.39813 0.0
C425 C 0.80326 0.57019 0.43084 0.0
C426 C 0.76049 0.56521 0.41869 0.0
C427 C 0.73437 0.58383 0.389 0.0
C428 C 0.7515 0.61037 0.37212 0.0
C429 C 0.77688 0.5933 0.40205 0.0
C430 C 0.81136 0.64865 0.36875 0.0
C431 C 0.85375 0.65814 0.38159 0.0
H432 H 0.52005 0.64636 0.34841 0.0
H433 H 0.64473 0.77121 0.3112 0.0
H434 H 0.61809 0.84431 0.32008 0.0
H435 H 0.55741 0.87405 0.33812 0.0
H436 H 0.43192 0.74821 0.37498 0.0
H437 H 0.46092 0.67647 0.36674 0.0
C438 C 0.54165 0.68958 0.34228 0.0
C439 C 0.58451 0.70231 0.32904 0.0
C440 C 0.52592 0.7323 0.34746 0.0
C441 C 0.6115 0.75914 0.32136 0.0
C442 C 0.59629 0.80151 0.32646 0.0
C443 C 0.53687 0.83124 0.3445 0.0
C444 C 0.49233 0.81741 0.35726 0.0
C445 C 0.55337 0.78884 0.33949 0.0
C446 C 0.46613 0.76088 0.3651 0.0
C447 C 0.48268 0.7193 0.36037 0.0
H448 H 0.69883 0.43878 0.4964 0.0
H449 H 0.73727 0.56043 0.53994 0.0
H450 H 0.84299 0.60259 0.53445 0.0
H451 H 0.92535 0.60265 0.51754 0.0
H452 H 0.88354 0.4827 0.47352 0.0
H453 H 0.77908 0.44226 0.47886 0.0
C454 C 0.7301 0.4746 0.50476 0.0
C455 C 0.70946 0.49584 0.51874 0.0
C456 C 0.79071 0.49898 0.50138 0.0
C457 C 0.75133 0.54295 0.52914 0.0
C458 C 0.81199 0.56699 0.52599 0.0
C459 C 0.89336 0.56794 0.50903 0.0
C460 C 0.913 0.54583 0.49493 0.0
C461 C 0.83239 0.54513 0.51219 0.0
C462 C 0.87036 0.5006 0.48429 0.0
C463 C 0.8103 0.47746 0.4874 0.0
H464 H 0.42904 0.89317 0.68601 0.0
H465 H 0.3076 0.88252 0.64554 0.0
H466 H 0.23555 0.78409 0.65559 0.0
H467 H 0.20651 0.69776 0.67538 0.0
H468 H 0.32896 0.70764 0.71534 0.0
H469 H 0.39925 0.80794 0.7062 0.0
C470 C 0.38675 0.86958 0.67943 0.0
C471 C 0.3746 0.89624 0.66492 0.0
C472 C 0.34481 0.81193 0.68526 0.0
C473 C 0.31908 0.86397 0.65666 0.0
C474 C 0.27738 0.8072 0.66244 0.0
C475 C 0.24818 0.72211 0.68227 0.0
C476 C 0.26168 0.69442 0.69617 0.0
C477 C 0.28961 0.78032 0.67669 0.0
C478 C 0.31673 0.7271 0.70464 0.0
C479 C 0.35738 0.78484 0.69937 0.0
H480 H 0.46182 0.30607 0.82939 0.0
H481 H 0.60897 0.46964 0.84766 0.0
H482 H 0.65363 0.41545 0.86055 0.0
H483 H 0.65276 0.32184 0.86589 0.0
H484 H 0.50391 0.15762 0.84887 0.0
H485 H 0.45798 0.21154 0.83651 0.0
C486 C 0.5036 0.32997 0.83625 0.0
C487 C 0.53202 0.39231 0.8374 0.0
C488 C 0.52873 0.29821 0.84394 0.0
C489 C 0.58588 0.42202 0.84653 0.0
C490 C 0.61156 0.3909 0.85389 0.0
C491 C 0.60997 0.2976 0.85962 0.0
C492 C 0.58204 0.23534 0.85834 0.0
C493 C 0.58362 0.32903 0.85261 0.0
C494 C 0.52646 0.20518 0.85021 0.0
C495 C 0.50029 0.23619 0.84301 0.0
H496 H 0.17423 0.49721 0.01588 0.0
H497 H 0.21867 0.60243 0.96824 0.0
H498 H 0.32174 0.63367 0.97246 0.0
H499 H 0.40061 0.63417 0.98994 0.0
H500 H 0.35963 0.53081 0.03792 0.0
H501 H 0.25479 0.49582 0.03328 0.0
C502 C 0.20641 0.5267 1.00635 0.0
C503 C 0.18775 0.54681 0.99155 0.0
C504 C 0.26673 0.54503 1.00897 0.0
C505 C 0.23077 0.58555 0.97958 0.0
C506 C 0.29019 0.60366 0.98203 0.0
C507 C 0.36899 0.60371 0.99942 0.0
C508 C 0.38873 0.58539 1.01432 0.0
C509 C 0.30881 0.58405 0.99671 0.0
C510 C 0.3463 0.54575 0.02631 0.0
C511 C 0.28612 0.52584 0.02368 0.0
H512 H 0.76522 0.33351 0.1958 0.0
H513 H 0.92762 0.34834 0.17777 0.0
H514 H 0.8731 0.24999 0.1642 0.0
H515 H 0.77844 0.15941 0.1569 0.0
H516 H 0.6172 0.14189 0.17709 0.0
H517 H 0.67158 0.2411 0.19007 0.0
C518 C 0.78893 0.31517 0.18903 0.0
C519 C 0.85098 0.34902 0.18791 0.0
C520 C 0.75712 0.2579 0.18142 0.0
C521 C 0.88032 0.32375 0.17907 0.0
C522 C 0.84893 0.26741 0.17116 0.0
C523 C 0.75513 0.17742 0.16406 0.0
C524 C 0.69328 0.14306 0.16575 0.0
C525 C 0.78722 0.23411 0.17211 0.0
C526 C 0.66437 0.16703 0.17545 0.0
C527 C 0.69563 0.22392 0.18292 0.0
H528 H 0.31026 0.60801 0.49244 0.0
H529 H 0.16373 0.50354 0.52702 0.0
H530 H 0.2201 0.46372 0.54157 0.0
H531 H 0.31274 0.46092 0.54517 0.0
H532 H 0.45814 0.56512 0.51009 0.0
H533 H 0.40067 0.60243 0.49522 0.0
C534 C 0.2902 0.57619 0.50308 0.0
C535 C 0.23231 0.55903 0.50854 0.0
C536 C 0.32308 0.55355 0.51144 0.0
C537 C 0.20774 0.51758 0.52239 0.0
C538 C 0.24024 0.49495 0.53079 0.0
C539 C 0.33199 0.4917 0.53425 0.0
C540 C 0.3904 0.51012 0.52891 0.0
C541 C 0.29824 0.51299 0.52556 0.0
C542 C 0.41379 0.54992 0.51462 0.0
C543 C 0.38077 0.57141 0.50606 0.0
H544 H 0.72916 0.31098 0.66462 0.0
H545 H 0.70581 0.15063 0.68823 0.0
H546 H 0.80457 0.20518 0.70116 0.0
H547 H 0.89763 0.29957 0.7065 0.0
H548 H 0.92279 0.45824 0.68117 0.0
H549 H 0.82396 0.40368 0.66839 0.0
C550 C 0.74568 0.28766 0.67248 0.0
C551 C 0.7093 0.22625 0.67537 0.0
C552 C 0.80316 0.31941 0.67975 0.0
C553 C 0.7323 0.1974 0.68558 0.0
C554 C 0.78893 0.22884 0.69311 0.0
C555 C 0.88155 0.32232 0.69819 0.0
C556 C 0.91811 0.38354 0.69498 0.0
C557 C 0.82473 0.29003 0.69043 0.0
C558 C 0.89622 0.41155 0.68394 0.0
C559 C 0.83944 0.3802 0.67661 0.0
H560 H 0.53046 0.90454 0.85005 0.0
H561 H 0.66773 0.9061 0.88193 0.0
H562 H 0.64191 0.80846 0.87086 0.0
H563 H 0.57773 0.7192 0.85278 0.0
H564 H 0.43861 0.71673 0.8217 0.0
H565 H 0.46789 0.81654 0.83153 0.0
C566 C 0.55506 0.88381 0.8545 0.0
C567 C 0.60125 0.91362 0.86688 0.0
C568 C 0.53958 0.8266 0.84814 0.0
C569 C 0.63198 0.88502 0.87247 0.0
C570 C 0.61724 0.82873 0.8661 0.0
C571 C 0.5544 0.7408 0.84794 0.0
C572 C 0.506 0.70982 0.83636 0.0
C573 C 0.57086 0.79867 0.85398 0.0
C574 C 0.47597 0.73886 0.83057 0.0
C575 C 0.49263 0.79627 0.83624 0.0
H576 H 0.7768 0.62847 0.04571 0.0
H577 H 0.6226 0.5015 0.01712 0.0
H578 H 0.67867 0.4599 1.00362 0.0
H579 H 0.77158 0.45963 0.99953 0.0
H580 H 0.92773 0.58928 0.02673 0.0
H581 H 0.87134 0.62982 0.04091 0.0
C582 C 0.75527 0.59138 0.03663 0.0
C583 C 0.69489 0.56792 0.03263 0.0
C584 C 0.78849 0.56842 0.02847 0.0
C585 C 0.66855 0.52048 0.02055 0.0
C586 C 0.70078 0.49667 1.01278 0.0
C587 C 0.79364 0.49698 1.0085 0.0
C588 C 0.85439 0.52117 1.01195 0.0
C589 C 0.76085 0.5204 0.01653 0.0
C590 C 0.8815 0.56974 0.02363 0.0
C591 C 0.849 0.59281 0.03185 0.0
H592 H 0.38029 0.84955 0.1922 0.0
H593 H 0.37599 0.72539 0.15357 0.0
H594 H 0.27508 0.65456 0.16178 0.0
H595 H 0.18765 0.62537 0.18066 0.0
H596 H 0.19364 0.74764 0.2204 0.0
H597 H 0.29267 0.81999 0.21125 0.0
C598 C 0.35691 0.80739 0.1854 0.0
C599 C 0.38595 0.79343 0.1721 0.0
C600 C 0.29872 0.76555 0.19059 0.0
C601 C 0.355 0.73775 0.16377 0.0
C602 C 0.29709 0.69688 0.16852 0.0
C603 C 0.21054 0.66776 0.18735 0.0
C604 C 0.18228 0.68034 0.20125 0.0
C605 C 0.26848 0.7098 0.18207 0.0
C606 C 0.21348 0.73596 0.20968 0.0
C607 C 0.27052 0.77786 0.20441 0.0
H608 H 0.52079 0.35612 0.35012 0.0
H609 H 0.66249 0.3629 0.31948 0.0
H610 H 0.63146 0.26117 0.3275 0.0
H611 H 0.56616 0.16951 0.34448 0.0
H612 H 0.4266 0.16511 0.37585 0.0
H613 H 0.4545 0.26429 0.36644 0.0
C614 C 0.54437 0.33513 0.34497 0.0
C615 C 0.59398 0.36797 0.33407 0.0
C616 C 0.5269 0.2761 0.34996 0.0
C617 C 0.62419 0.33945 0.32786 0.0
C618 C 0.6065 0.28086 0.3325 0.0
C619 C 0.54155 0.18998 0.34916 0.0
C620 C 0.49403 0.15855 0.36097 0.0
C621 C 0.55827 0.2486 0.34375 0.0
C622 C 0.46342 0.1871 0.36685 0.0
C623 C 0.47931 0.24444 0.36143 0.0
H624 H 0.23543 0.71654 0.45569 0.0
H625 H 0.09902 0.70541 0.42115 0.0
H626 H 0.17217 0.78621 0.40314 0.0
H627 H 0.27499 0.86449 0.39787 0.0
H628 H 0.41245 0.87324 0.43114 0.0
H629 H 0.33969 0.78936 0.44869 0.0
C630 C 0.22169 0.73152 0.44416 0.0
C631 C 0.16119 0.70451 0.43994 0.0
C632 C 0.26453 0.77785 0.43352 0.0
C633 C 0.14484 0.72461 0.42478 0.0
C634 C 0.18682 0.77122 0.41445 0.0
C635 C 0.28903 0.84722 0.40876 0.0
C636 C 0.34923 0.8748 0.41308 0.0
C637 C 0.24676 0.79862 0.41874 0.0
C638 C 0.36661 0.85237 0.42738 0.0
C639 C 0.32483 0.80462 0.4375 0.0
H640 H 0.51543 0.29871 0.56273 0.0
H641 H 0.51175 0.39705 0.60847 0.0
H642 H 0.5147 0.32463 0.62827 0.0
H643 H 0.51635 0.23205 0.63285 0.0
H644 H 0.52129 0.1341 0.58719 0.0
H645 H 0.52018 0.20749 0.56734 0.0
C646 C 0.51537 0.30453 0.57703 0.0
C647 C 0.51331 0.35385 0.58397 0.0
C648 C 0.51738 0.26254 0.58847 0.0
C649 C 0.51353 0.36011 0.60261 0.0
C650 C 0.51511 0.31845 0.61401 0.0
C651 C 0.51745 0.22665 0.61856 0.0
C652 C 0.51892 0.17698 0.61166 0.0
C653 C 0.51682 0.26931 0.60712 0.0
C654 C 0.52043 0.17155 0.59303 0.0
C655 C 0.51958 0.2136 0.58161 0.0
H656 H 0.3278 0.52388 0.79698 0.0
H657 H 0.38704 0.46467 0.75196 0.0
H658 H 0.30875 0.46112 0.73367 0.0
H659 H 0.21986 0.47001 0.73044 0.0
H660 H 0.15929 0.52769 0.77544 0.0
H661 H 0.24104 0.53681 0.79335 0.0
C662 C 0.32421 0.51076 0.78312 0.0
C663 C 0.36423 0.4945 0.77608 0.0
C664 C 0.27808 0.50813 0.77252 0.0
C665 C 0.35761 0.47736 0.75801 0.0
C666 C 0.31244 0.4752 0.74743 0.0
C667 C 0.22451 0.48496 0.74413 0.0
C668 C 0.18237 0.4977 0.75144 0.0
C669 C 0.27184 0.48972 0.75455 0.0
C670 C 0.1902 0.5172 0.76928 0.0
C671 C 0.23723 0.5224 0.77963 0.0
H672 H 0.76894 0.18552 0.94 0.0
H673 H 0.75835 0.27027 0.89196 0.0
H674 H 0.83904 0.36385 0.90222 0.0
H675 H 0.91783 0.42216 0.92383 0.0
H676 H 0.93338 0.3386 0.97109 0.0
H677 H 0.84597 0.2459 0.96251 0.0
C678 C 0.78365 0.22451 0.93185 0.0
C679 C 0.75673 0.21962 0.91506 0.0
C680 C 0.83129 0.27932 0.93782 0.0
C681 C 0.77752 0.27142 0.90482 0.0
C682 C 0.82409 0.32554 0.9107 0.0
C683 C 0.90132 0.38398 0.93246 0.0
C684 C 0.93079 0.38859 0.94863 0.0
C685 C 0.85198 0.33003 0.92703 0.0
C686 C 0.90958 0.33788 0.95928 0.0
C687 C 0.86021 0.28419 0.95408 0.0
H688 H 0.64257 0.92519 0.08902 0.0
H689 H 0.53286 0.84725 0.13485 0.0
H690 H 0.52192 0.75092 0.12696 0.0
H691 H 0.54648 0.68903 0.10708 0.0
H692 H 0.65595 0.76922 0.06133 0.0
H693 H 0.66248 0.86346 0.06864 0.0
C694 C 0.616 0.88723 0.09734 0.0
C695 C 0.59006 0.89435 0.113 0.0
C696 C 0.60891 0.83175 0.09237 0.0
C697 C 0.55527 0.84392 0.12326 0.0
C698 C 0.54845 0.78858 0.11854 0.0
C699 C 0.57057 0.72687 0.09849 0.0
C700 C 0.59801 0.72089 0.083 0.0
C701 C 0.57545 0.78191 0.10316 0.0
C702 C 0.63103 0.77117 0.07251 0.0
C703 C 0.63594 0.82561 0.07699 0.0
H704 H 0.7824 0.5627 0.29963 0.0
H705 H 0.68097 0.55075 0.25297 0.0
H706 H 0.75404 0.54616 0.23402 0.0
H707 H 0.84838 0.54796 0.2304 0.0
H708 H 0.94968 0.55992 0.27711 0.0
H709 H 0.87537 0.56191 0.29607 0.0
C710 C 0.77594 0.55888 0.28532 0.0
C711 C 0.72562 0.55715 0.27789 0.0
C712 C 0.81849 0.55633 0.27438 0.0
C713 C 0.71872 0.55207 0.25924 0.0
C714 C 0.76077 0.54956 0.24832 0.0
C715 C 0.85431 0.55075 0.24473 0.0
C716 C 0.90522 0.55368 0.25216 0.0
C717 C 0.81109 0.552 0.2557 0.0
C718 C 0.91136 0.55733 0.27084 0.0
C719 C 0.86871 0.55863 0.28177 0.0
H720 H 0.82303 0.30212 0.45332 0.0
H721 H 0.87045 0.42152 0.40883 0.0
H722 H 0.7829 0.34998 0.39278 0.0
H723 H 0.68758 0.25793 0.39245 0.0
H724 H 0.63965 0.1371 0.43648 0.0
H725 H 0.73258 0.20405 0.45139 0.0
C726 C 0.81485 0.31217 0.43999 0.0
C727 C 0.85364 0.36782 0.43244 0.0
C728 C 0.76384 0.27052 0.43072 0.0
C729 C 0.84191 0.37948 0.41508 0.0
C730 C 0.79144 0.33853 0.40587 0.0
C731 C 0.69783 0.24563 0.40518 0.0
C732 C 0.6562 0.19245 0.41334 0.0
C733 C 0.75133 0.28457 0.41372 0.0
C734 C 0.67068 0.17738 0.4298 0.0
C735 C 0.72378 0.21602 0.43841 0.0
H736 H 0.52131 0.85811 0.59984 0.0
H737 H 0.39091 0.77072 0.64066 0.0
H738 H 0.38502 0.67715 0.63337 0.0
H739 H 0.40731 0.61788 0.61328 0.0
H740 H 0.53621 0.70089 0.57194 0.0
H741 H 0.55274 0.79824 0.58151 0.0
C742 C 0.4931 0.81887 0.60746 0.0
C743 C 0.45667 0.82143 0.62085 0.0
C744 C 0.48877 0.76421 0.60285 0.0
C745 C 0.41942 0.76996 0.63037 0.0
C746 C 0.41571 0.7163 0.62612 0.0
C747 C 0.43951 0.65732 0.60642 0.0
C748 C 0.46984 0.65209 0.59173 0.0
C749 C 0.44855 0.71253 0.61201 0.0
C750 C 0.51218 0.7037 0.58324 0.0
C751 C 0.52139 0.75931 0.5887 0.0
H752 H 0.65896 0.47267 0.75584 0.0
H753 H 0.72179 0.48875 0.80968 0.0
H754 H 0.81322 0.49668 0.79886 0.0
H755 H 0.87051 0.48641 0.77428 0.0
H756 H 0.80245 0.45966 0.72077 0.0
H757 H 0.71933 0.46912 0.73106 0.0
C758 C 0.69353 0.47991 0.76514 0.0
C759 C 0.68387 0.48139 0.78357 0.0
C760 C 0.74521 0.48165 0.75882 0.0
C761 C 0.72838 0.48848 0.79544 0.0
C762 C 0.7806 0.49252 0.78925 0.0
C763 C 0.83836 0.48434 0.76482 0.0
C764 C 0.84335 0.47301 0.7467 0.0
C765 C 0.78896 0.48744 0.77099 0.0
C766 C 0.80013 0.46877 0.73474 0.0
C767 C 0.75226 0.4739 0.74065 0.0
H768 H 0.42987 0.91319 0.9326 0.0
H769 H 0.44327 0.81471 0.88856 0.0
H770 H 0.34397 0.73406 0.89422 0.0
H771 H 0.25738 0.68614 0.91371 0.0
H772 H 0.24539 0.78159 0.9589 0.0
H773 H 0.33866 0.86791 0.95075 0.0
C774 C 0.41032 0.8748 0.92396 0.0
C775 C 0.44403 0.87036 0.91007 0.0
C776 C 0.35332 0.82722 0.92768 0.0
C777 C 0.41836 0.8195 0.89928 0.0
C778 C 0.36154 0.77307 0.90257 0.0
C779 C 0.27444 0.72617 0.92159 0.0
C780 C 0.24391 0.72684 0.93695 0.0
C781 C 0.32914 0.77557 0.91705 0.0
C782 C 0.26757 0.77932 0.94703 0.0
C783 C 0.32125 0.82891 0.9424 0.0
H784 H 0.60868 0.215 0.08921 0.0
H785 H 0.63786 0.27395 0.1438 0.0
H786 H 0.62864 0.35949 0.13572 0.0
H787 H 0.62452 0.42462 0.11252 0.0
H788 H 0.60568 0.3706 0.05755 0.0
H789 H 0.59784 0.27691 0.06626 0.0
C790 C 0.61128 0.24567 0.09939 0.0
C791 C 0.62319 0.23743 0.11715 0.0
C792 C 0.6084 0.29651 0.0945 0.0
C793 C 0.6282 0.27878 0.13007 0.0
C794 C 0.62325 0.32805 0.12543 0.0
C795 C 0.61692 0.39156 0.10252 0.0
C796 C 0.61482 0.40449 0.08439 0.0
C797 C 0.615 0.33842 0.1076 0.0
C798 C 0.60684 0.36171 0.07159 0.0
C799 C 0.60272 0.30811 0.07657 0.0
H800 H 0.40785 0.56299 0.26466 0.0
H801 H 0.46338 0.70521 0.30262 0.0
H802 H 0.37537 0.71089 0.29668 0.0
H803 H 0.28855 0.68348 0.2787 0.0
H804 H 0.22944 0.54221 0.24041 0.0
H805 H 0.3123 0.52778 0.24846 0.0
C806 C 0.3997 0.59402 0.27193 0.0
C807 C 0.44229 0.63377 0.28407 0.0
C808 C 0.34889 0.59796 0.26814 0.0
C809 C 0.43152 0.67434 0.29319 0.0
C810 C 0.38128 0.67783 0.28974 0.0
C811 C 0.29343 0.64916 0.27215 0.0
C812 C 0.25336 0.61457 0.25876 0.0
C813 C 0.34072 0.64126 0.27687 0.0
C814 C 0.25976 0.56958 0.2507 0.0
C815 C 0.3073 0.56152 0.25529 0.0
loop_
_geom_bond_atom_site_label_1
_geom_bond_atom_site_label_2
_geom_bond_distance
_geom_bond_site_symmetry_2
_ccdc_geom_bond_type
O0 Tb1 2.506 . S
O0 C14 1.265 . S
Tb1 O0 2.506 . S
Tb1 O6 2.312 1_545 S
Tb1 O10 2.271 . S
Tb1 O12 2.338 . S
Tb1 O19 2.441 . S
C2 O10 1.252 . S
C2 O11 1.253 . S
O3 Tb4 2.271 . S
O3 C13 1.252 . S
Tb4 O3 2.271 . S
Tb4 O7 2.338 . S
Tb4 O11 2.312 1_565 S
Tb4 O15 2.441 . S
Tb4 O16 2.506 . S
C5 O15 1.244 . S
C5 O16 1.265 . S
O6 Tb1 2.312 1_565 S
O6 C13 1.253 . S
O7 Tb4 2.338 . S
O7 C8 1.258 . S
C8 O7 1.258 . S
C8 O9 1.251 . S
O9 C8 1.251 . S
O10 Tb1 2.271 . S
O10 C2 1.252 . S
O11 C2 1.253 . S
O11 Tb4 2.312 1_545 S
O12 Tb1 2.338 . S
O12 C17 1.258 . S
C13 O3 1.252 . S
C13 O6 1.253 . S
C14 O0 1.265 . S
C14 O19 1.244 . S
O15 Tb4 2.441 . S
O15 C5 1.244 . S
O16 Tb4 2.506 . S
O16 C5 1.265 . S
C17 O12 1.258 . S
C17 O18 1.251 . S
O18 C17 1.251 . S
O19 Tb1 2.441 . S
O19 C14 1.244 . S
O20 Tb21 2.506 . S
O20 C34 1.265 . S
Tb21 O20 2.506 . S
Tb21 O26 2.312 . S
Tb21 O30 2.271 . S
Tb21 O32 2.338 . S
Tb21 O39 2.441 . S
C22 O30 1.252 . S
C22 O31 1.253 . S
O23 Tb24 2.271 . S
O23 C33 1.252 . S
Tb24 O23 2.271 . S
Tb24 O27 2.338 . S
Tb24 O31 2.312 . S
Tb24 O35 2.441 . S
Tb24 O36 2.506 . S
C25 O35 1.244 . S
C25 O36 1.265 . S
O26 Tb21 2.312 . S
O26 C33 1.253 . S
O27 Tb24 2.338 . S
O27 C28 1.258 . S
C28 O27 1.258 . S
C28 O29 1.251 . S
O29 C28 1.251 . S
O30 Tb21 2.271 . S
O30 C22 1.252 . S
O31 C22 1.253 . S
O31 Tb24 2.312 . S
O32 Tb21 2.338 . S
O32 C37 1.258 . S
C33 O23 1.252 . S
C33 O26 1.253 . S
C34 O20 1.265 . S
C34 O39 1.244 . S
O35 Tb24 2.441 . S
O35 C25 1.244 . S
O36 Tb24 2.506 . S
O36 C25 1.265 . S
C37 O32 1.258 . S
C37 O38 1.251 . S
O38 C37 1.251 . S
O39 Tb21 2.441 . S
O39 C34 1.244 . S
O40 Tb41 2.506 . S
O40 C54 1.265 . S
Tb41 O40 2.506 . S
Tb41 O46 2.312 1_655 S
Tb41 O50 2.271 . S
Tb41 O52 2.338 . S
Tb41 O59 2.441 . S
C42 O50 1.252 . S
C42 O51 1.253 . S
O43 Tb44 2.271 . S
O43 C53 1.252 . S
Tb44 O43 2.271 . S
Tb44 O47 2.338 . S
Tb44 O51 2.312 1_455 S
Tb44 O55 2.441 . S
Tb44 O56 2.506 . S
C45 O55 1.244 . S
C45 O56 1.265 . S
O46 Tb41 2.312 1_455 S
O46 C53 1.253 . S
O47 Tb44 2.338 . S
O47 C48 1.258 . S
C48 O47 1.258 . S
C48 O49 1.251 . S
O49 C48 1.251 . S
O50 Tb41 2.271 . S
O50 C42 1.252 . S
O51 C42 1.253 . S
O51 Tb44 2.312 1_655 S
O52 Tb41 2.338 . S
O52 C57 1.258 . S
C53 O43 1.252 . S
C53 O46 1.253 . S
C54 O40 1.265 . S
C54 O59 1.244 . S
O55 Tb44 2.441 . S
O55 C45 1.244 . S
O56 Tb44 2.506 . S
O56 C45 1.265 . S
C57 O52 1.258 . S
C57 O58 1.251 . S
O58 C57 1.251 . S
O59 Tb41 2.441 . S
O59 C54 1.244 . S
O60 Tb61 2.506 . S
O60 C74 1.265 . S
Tb61 O60 2.506 . S
Tb61 O66 2.312 1_545 S
Tb61 O70 2.271 . S
Tb61 O72 2.338 . S
Tb61 O79 2.441 . S
C62 O70 1.252 . S
C62 O71 1.253 . S
O63 Tb64 2.271 . S
O63 C73 1.252 . S
Tb64 O63 2.271 . S
Tb64 O67 2.338 . S
Tb64 O71 2.312 1_565 S
Tb64 O75 2.441 . S
Tb64 O76 2.506 . S
C65 O75 1.244 . S
C65 O76 1.265 . S
O66 Tb61 2.312 1_565 S
O66 C73 1.253 . S
O67 Tb64 2.338 . S
O67 C68 1.258 . S
C68 O67 1.258 . S
C68 O69 1.251 . S
O69 C68 1.251 . S
O70 Tb61 2.271 . S
O70 C62 1.252 . S
O71 C62 1.253 . S
O71 Tb64 2.312 1_545 S
O72 Tb61 2.338 . S
O72 C77 1.258 . S
C73 O63 1.252 . S
C73 O66 1.253 . S
C74 O60 1.265 . S
C74 O79 1.244 . S
O75 Tb64 2.441 . S
O75 C65 1.244 . S
O76 Tb64 2.506 . S
O76 C65 1.265 . S
C77 O72 1.258 . S
C77 O78 1.251 . S
O78 C77 1.251 . S
O79 Tb61 2.441 . S
O79 C74 1.244 . S
O80 Tb81 2.506 . S
O80 C94 1.265 . S
Tb81 O80 2.506 . S
Tb81 O86 2.312 . S
Tb81 O90 2.271 . S
Tb81 O92 2.338 . S
Tb81 O99 2.441 . S
C82 O90 1.252 . S
C82 O91 1.253 . S
O83 Tb84 2.271 . S
O83 C93 1.252 . S
Tb84 O83 2.271 . S
Tb84 O87 2.338 . S
Tb84 O91 2.312 . S
Tb84 O95 2.441 . S
Tb84 O96 2.506 1_554 S
C85 O95 1.244 1_556 S
C85 O96 1.265 . S
O86 Tb81 2.312 . S
O86 C93 1.253 . S
O87 Tb84 2.338 . S
O87 C88 1.258 . S
C88 O87 1.258 . S
C88 O89 1.251 . S
O89 C88 1.251 . S
O90 Tb81 2.271 . S
O90 C82 1.252 . S
O91 C82 1.253 . S
O91 Tb84 2.312 . S
O92 Tb81 2.338 . S
O92 C97 1.258 . S
C93 O83 1.252 . S
C93 O86 1.253 . S
C94 O80 1.265 . S
C94 O99 1.244 . S
O95 Tb84 2.441 . S
O95 C85 1.244 1_554 S
O96 Tb84 2.506 1_556 S
O96 C85 1.265 . S
C97 O92 1.258 . S
C97 O98 1.251 . S
O98 C97 1.251 . S
O99 Tb81 2.441 . S
O99 C94 1.244 . S
O100 Tb101 2.506 . S
O100 C114 1.265 . S
Tb101 O100 2.506 . S
Tb101 O106 2.312 1_655 S
Tb101 O110 2.271 . S
Tb101 O112 2.338 . S
Tb101 O119 2.441 . S
C102 O110 1.252 . S
C102 O111 1.253 . S
O103 Tb104 2.271 . S
O103 C113 1.252 . S
Tb104 O103 2.271 . S
Tb104 O107 2.338 . S
Tb104 O111 2.312 1_455 S
Tb104 O115 2.441 . S
Tb104 O116 2.506 . S
C105 O115 1.244 . S
C105 O116 1.265 . S
O106 Tb101 2.312 1_455 S
O106 C113 1.253 . S
O107 Tb104 2.338 . S
O107 C108 1.258 . S
C108 O107 1.258 . S
C108 O109 1.251 . S
O109 C108 1.251 . S
O110 Tb101 2.271 . S
O110 C102 1.252 . S
O111 C102 1.253 . S
O111 Tb104 2.312 1_655 S
O112 Tb101 2.338 . S
O112 C117 1.258 . S
C113 O103 1.252 . S
C113 O106 1.253 . S
C114 O100 1.265 . S
C114 O119 1.244 . S
O115 Tb104 2.441 . S
O115 C105 1.244 . S
O116 Tb104 2.506 . S
O116 C105 1.265 . S
C117 O112 1.258 . S
C117 O118 1.251 . S
O118 C117 1.251 . S
O119 Tb101 2.441 . S
O119 C114 1.244 . S
O120 Tb121 2.506 . S
O120 C134 1.265 . S
Tb121 O120 2.506 . S
Tb121 O126 2.312 1_655 S
Tb121 O130 2.271 . S
Tb121 O132 2.338 . S
Tb121 O139 2.441 . S
C122 O130 1.252 . S
C122 O131 1.253 . S
O123 Tb124 2.271 . S
O123 C133 1.252 . S
Tb124 O123 2.271 . S
Tb124 O127 2.338 . S
Tb124 O131 2.312 1_455 S
Tb124 O135 2.441 . S
Tb124 O136 2.506 . S
C125 O135 1.244 . S
C125 O136 1.265 . S
O126 Tb121 2.312 1_455 S
O126 C133 1.253 . S
O127 Tb124 2.338 . S
O127 C128 1.258 . S
C128 O127 1.258 . S
C128 O129 1.251 . S
O129 C128 1.251 . S
O130 Tb121 2.271 . S
O130 C122 1.252 . S
O131 C122 1.253 . S
O131 Tb124 2.312 1_655 S
O132 Tb121 2.338 . S
O132 C137 1.258 . S
C133 O123 1.252 . S
C133 O126 1.253 . S
C134 O120 1.265 . S
C134 O139 1.244 . S
O135 Tb124 2.441 . S
O135 C125 1.244 . S
O136 Tb124 2.506 . S
O136 C125 1.265 . S
C137 O132 1.258 . S
C137 O138 1.251 . S
O138 C137 1.251 . S
O139 Tb121 2.441 . S
O139 C134 1.244 . S
O140 Tb141 2.506 . S
O140 C154 1.265 . S
Tb141 O140 2.506 . S
Tb141 O146 2.312 1_545 S
Tb141 O150 2.271 . S
Tb141 O152 2.338 . S
Tb141 O159 2.441 . S
C142 O150 1.252 . S
C142 O151 1.253 . S
O143 Tb144 2.271 . S
O143 C153 1.252 . S
Tb144 O143 2.271 . S
Tb144 O147 2.338 . S
Tb144 O151 2.312 1_565 S
Tb144 O155 2.441 . S
Tb144 O156 2.506 . S
C145 O155 1.244 . S
C145 O156 1.265 . S
O146 Tb141 2.312 1_565 S
O146 C153 1.253 . S
O147 Tb144 2.338 . S
O147 C148 1.258 . S
C148 O147 1.258 . S
C148 O149 1.251 . S
O149 C148 1.251 . S
O150 Tb141 2.271 . S
O150 C142 1.252 . S
O151 C142 1.253 . S
O151 Tb144 2.312 1_545 S
O152 Tb141 2.338 . S
O152 C157 1.258 . S
C153 O143 1.252 . S
C153 O146 1.253 . S
C154 O140 1.265 . S
C154 O159 1.244 . S
O155 Tb144 2.441 . S
O155 C145 1.244 . S
O156 Tb144 2.506 . S
O156 C145 1.265 . S
C157 O152 1.258 . S
C157 O158 1.251 . S
O158 C157 1.251 . S
O159 Tb141 2.441 . S
O159 C154 1.244 . S
O160 Tb161 2.506 . S
O160 C174 1.265 . S
Tb161 O160 2.506 . S
Tb161 O166 2.312 . S
Tb161 O170 2.271 . S
Tb161 O172 2.338 . S
Tb161 O179 2.441 . S
C162 O170 1.252 . S
C162 O171 1.253 . S
O163 Tb164 2.271 . S
O163 C173 1.252 . S
Tb164 O163 2.271 . S
Tb164 O167 2.338 . S
Tb164 O171 2.312 . S
Tb164 O175 2.441 . S
Tb164 O176 2.506 . S
C165 O175 1.244 . S
C165 O176 1.265 . S
O166 Tb161 2.312 . S
O166 C173 1.253 . S
O167 Tb164 2.338 . S
O167 C168 1.258 . S
C168 O167 1.258 . S
C168 O169 1.251 . S
O169 C168 1.251 . S
O170 Tb161 2.271 . S
O170 C162 1.252 . S
O171 C162 1.253 . S
O171 Tb164 2.312 . S
O172 Tb161 2.338 . S
O172 C177 1.258 . S
C173 O163 1.252 . S
C173 O166 1.253 . S
C174 O160 1.265 . S
C174 O179 1.244 . S
O175 Tb164 2.441 . S
O175 C165 1.244 . S
O176 Tb164 2.506 . S
O176 C165 1.265 . S
C177 O172 1.258 . S
C177 O178 1.251 . S
O178 C177 1.251 . S
O179 Tb161 2.441 . S
O179 C174 1.244 . S
O180 Tb181 2.506 1_554 S
O180 C194 1.265 . S
Tb181 O180 2.506 1_556 S
Tb181 O186 2.312 1_655 S
Tb181 O190 2.271 . S
Tb181 O192 2.338 . S
Tb181 O199 2.441 . S
C182 O190 1.252 . S
C182 O191 1.253 . S
O183 Tb184 2.271 . S
O183 C193 1.252 . S
Tb184 O183 2.271 . S
Tb184 O187 2.338 . S
Tb184 O191 2.312 1_455 S
Tb184 O195 2.441 . S
Tb184 O196 2.506 . S
C185 O195 1.244 . S
C185 O196 1.265 . S
O186 Tb181 2.312 1_455 S
O186 C193 1.253 . S
O187 Tb184 2.338 . S
O187 C188 1.258 . S
C188 O187 1.258 . S
C188 O189 1.251 . S
O189 C188 1.251 . S
O190 Tb181 2.271 . S
O190 C182 1.252 . S
O191 C182 1.253 . S
O191 Tb184 2.312 1_655 S
O192 Tb181 2.338 . S
O192 C197 1.258 . S
C193 O183 1.252 . S
C193 O186 1.253 . S
C194 O180 1.265 . S
C194 O199 1.244 1_554 S
O195 Tb184 2.441 . S
O195 C185 1.244 . S
O196 Tb184 2.506 . S
O196 C185 1.265 . S
C197 O192 1.258 . S
C197 O198 1.251 . S
O198 C197 1.251 . S
O199 Tb181 2.441 . S
O199 C194 1.244 1_556 S
O200 Tb201 2.506 . S
O200 C214 1.265 . S
Tb201 O200 2.506 . S
Tb201 O206 2.312 1_545 S
Tb201 O210 2.271 . S
Tb201 O212 2.338 . S
Tb201 O219 2.441 . S
C202 O210 1.252 . S
C202 O211 1.253 . S
O203 Tb204 2.271 . S
O203 C213 1.252 . S
Tb204 O203 2.271 . S
Tb204 O207 2.338 . S
Tb204 O211 2.312 1_565 S
Tb204 O215 2.441 . S
Tb204 O216 2.506 . S
C205 O215 1.244 . S
C205 O216 1.265 . S
O206 Tb201 2.312 1_565 S
O206 C213 1.253 . S
O207 Tb204 2.338 . S
O207 C208 1.258 . S
C208 O207 1.258 . S
C208 O209 1.251 . S
O209 C208 1.251 . S
O210 Tb201 2.271 . S
O210 C202 1.252 . S
O211 C202 1.253 . S
O211 Tb204 2.312 1_545 S
O212 Tb201 2.338 . S
O212 C217 1.258 . S
C213 O203 1.252 . S
C213 O206 1.253 . S
C214 O200 1.265 . S
C214 O219 1.244 . S
O215 Tb204 2.441 . S
O215 C205 1.244 . S
O216 Tb204 2.506 . S
O216 C205 1.265 . S
C217 O212 1.258 . S
C217 O218 1.251 . S
O218 C217 1.251 . S
O219 Tb201 2.441 . S
O219 C214 1.244 . S
O220 Tb221 2.506 . S
O220 C234 1.265 . S
Tb221 O220 2.506 . S
Tb221 O226 2.312 . S
Tb221 O230 2.271 . S
Tb221 O232 2.338 . S
Tb221 O239 2.441 . S
C222 O230 1.252 . S
C222 O231 1.253 . S
O223 Tb224 2.271 . S
O223 C233 1.252 . S
Tb224 O223 2.271 . S
Tb224 O227 2.338 . S
Tb224 O231 2.312 . S
Tb224 O235 2.441 . S
Tb224 O236 2.506 . S
C225 O235 1.244 . S
C225 O236 1.265 . S
O226 Tb221 2.312 . S
O226 C233 1.253 . S
O227 Tb224 2.338 . S
O227 C228 1.258 . S
C228 O227 1.258 . S
C228 O229 1.251 . S
O229 C228 1.251 . S
O230 Tb221 2.271 . S
O230 C222 1.252 . S
O231 C222 1.253 . S
O231 Tb224 2.312 . S
O232 Tb221 2.338 . S
O232 C237 1.258 . S
C233 O223 1.252 . S
C233 O226 1.253 . S
C234 O220 1.265 . S
C234 O239 1.244 . S
O235 Tb224 2.441 . S
O235 C225 1.244 . S
O236 Tb224 2.506 . S
O236 C225 1.265 . S
C237 O232 1.258 . S
C237 O238 1.251 . S
O238 C237 1.251 . S
O239 Tb221 2.441 . S
O239 C234 1.244 . S
H240 C246 0.930 . S
H241 C249 0.930 . S
H242 C250 0.930 . S
H243 C251 0.930 . S
H244 C254 0.930 . S
H245 C255 0.930 . S
C246 H240 0.930 . S
C246 C247 1.355 . S
C246 C248 1.415 . S
C247 C246 1.355 . S
C247 C249 1.419 . S
C248 C246 1.415 . S
C248 C253 1.425 . S
C248 C255 1.409 . S
C249 H241 0.930 . S
C249 C247 1.419 . S
C249 C250 1.362 . S
C250 H242 0.930 . S
C250 C249 1.362 . S
C250 C253 1.409 . S
C251 H243 0.930 . S
C251 C252 1.355 . S
C251 C253 1.415 . S
C252 C251 1.355 . S
C252 C254 1.419 . S
C253 C248 1.425 . S
C253 C250 1.409 . S
C253 C251 1.415 . S
C254 H244 0.930 . S
C254 C252 1.419 . S
C254 C255 1.362 . S
C255 H245 0.930 . S
C255 C248 1.409 . S
C255 C254 1.362 . S
H256 C262 0.930 . S
H257 C265 0.930 . S
H258 C266 0.930 . S
H259 C267 0.930 . S
H260 C270 0.930 . S
H261 C271 0.930 . S
C262 H256 0.930 . S
C262 C263 1.355 . S
C262 C264 1.415 . S
C263 C262 1.355 . S
C263 C265 1.419 . S
C264 C262 1.415 . S
C264 C269 1.425 . S
C264 C271 1.409 . S
C265 H257 0.930 . S
C265 C263 1.419 . S
C265 C266 1.362 . S
C266 H258 0.930 . S
C266 C265 1.362 . S
C266 C269 1.409 . S
C267 H259 0.930 . S
C267 C268 1.355 . S
C267 C269 1.415 . S
C268 C267 1.355 . S
C268 C270 1.419 . S
C269 C264 1.425 . S
C269 C266 1.409 . S
C269 C267 1.415 . S
C270 H260 0.930 . S
C270 C268 1.419 . S
C270 C271 1.362 . S
C271 H261 0.930 . S
C271 C264 1.409 . S
C271 C270 1.362 . S
H272 C278 0.930 . S
H273 C281 0.930 . S
H274 C282 0.930 . S
H275 C283 0.930 . S
H276 C286 0.930 . S
H277 C287 0.930 . S
C278 H272 0.930 . S
C278 C279 1.355 . S
C278 C280 1.415 . S
C279 C278 1.355 . S
C279 C281 1.419 . S
C280 C278 1.415 . S
C280 C285 1.425 . S
C280 C287 1.409 . S
C281 H273 0.930 . S
C281 C279 1.419 . S
C281 C282 1.362 . S
C282 H274 0.930 . S
C282 C281 1.362 . S
C282 C285 1.409 . S
C283 H275 0.930 . S
C283 C284 1.355 . S
C283 C285 1.415 . S
C284 C283 1.355 . S
C284 C286 1.419 . S
C285 C280 1.425 . S
C285 C282 1.409 . S
C285 C283 1.415 . S
C286 H276 0.930 . S
C286 C284 1.419 . S
C286 C287 1.362 . S
C287 H277 0.930 . S
C287 C280 1.409 . S
C287 C286 1.362 . S
H288 C294 0.930 . S
H289 C297 0.930 . S
H290 C298 0.930 . S
H291 C299 0.930 . S
H292 C302 0.930 . S
H293 C303 0.930 . S
C294 H288 0.930 . S
C294 C295 1.355 . S
C294 C296 1.415 . S
C295 C294 1.355 . S
C295 C297 1.419 . S
C296 C294 1.415 . S
C296 C301 1.425 . S
C296 C303 1.409 . S
C297 H289 0.930 . S
C297 C295 1.419 . S
C297 C298 1.362 . S
C298 H290 0.930 . S
C298 C297 1.362 . S
C298 C301 1.409 . S
C299 H291 0.930 . S
C299 C300 1.355 . S
C299 C301 1.415 . S
C300 C299 1.355 . S
C300 C302 1.419 . S
C301 C296 1.425 . S
C301 C298 1.409 . S
C301 C299 1.415 . S
C302 H292 0.930 . S
C302 C300 1.419 . S
C302 C303 1.362 . S
C303 H293 0.930 . S
C303 C296 1.409 . S
C303 C302 1.362 . S
H304 C310 0.930 . S
H305 C313 0.930 . S
H306 C314 0.930 . S
H307 C315 0.930 . S
H308 C318 0.930 . S
H309 C319 0.930 . S
C310 H304 0.930 . S
C310 C311 1.355 . S
C310 C312 1.415 . S
C311 C310 1.355 . S
C311 C313 1.419 . S
C312 C310 1.415 . S
C312 C317 1.425 . S
C312 C319 1.409 . S
C313 H305 0.930 . S
C313 C311 1.419 . S
C313 C314 1.362 . S
C314 H306 0.930 . S
C314 C313 1.362 . S
C314 C317 1.409 . S
C315 H307 0.930 . S
C315 C316 1.355 . S
C315 C317 1.415 . S
C316 C315 1.355 . S
C316 C318 1.419 . S
C317 C312 1.425 . S
C317 C314 1.409 . S
C317 C315 1.415 . S
C318 H308 0.930 . S
C318 C316 1.419 . S
C318 C319 1.362 . S
C319 H309 0.930 . S
C319 C312 1.409 . S
C319 C318 1.362 . S
H320 C326 0.930 . S
H321 C329 0.930 . S
H322 C330 0.930 . S
H323 C331 0.930 . S
H324 C334 0.930 . S
H325 C335 0.930 . S
C326 H320 0.930 . S
C326 C327 1.355 . S
C326 C328 1.415 . S
C327 C326 1.355 . S
C327 C329 1.419 . S
C328 C326 1.415 . S
C328 C333 1.425 . S
C328 C335 1.409 . S
C329 H321 0.930 . S
C329 C327 1.419 . S
C329 C330 1.362 . S
C330 H322 0.930 . S
C330 C329 1.362 . S
C330 C333 1.409 . S
C331 H323 0.930 . S
C331 C332 1.355 . S
C331 C333 1.415 . S
C332 C331 1.355 . S
C332 C334 1.419 . S
C333 C328 1.425 . S
C333 C330 1.409 . S
C333 C331 1.415 . S
C334 H324 0.930 . S
C334 C332 1.419 . S
C334 C335 1.362 . S
C335 H325 0.930 . S
C335 C328 1.409 . S
C335 C334 1.362 . S
H336 C342 0.930 . S
H337 C345 0.930 . S
H338 C346 0.930 . S
H339 C347 0.930 . S
H340 C350 0.930 . S
H341 C351 0.930 . S
C342 H336 0.930 . S
C342 C343 1.355 . S
C342 C344 1.415 . S
C343 C342 1.355 . S
C343 C345 1.419 . S
C344 C342 1.415 . S
C344 C349 1.425 . S
C344 C351 1.409 . S
C345 H337 0.930 . S
C345 C343 1.419 . S
C345 C346 1.362 . S
C346 H338 0.930 . S
C346 C345 1.362 . S
C346 C349 1.409 . S
C347 H339 0.930 . S
C347 C348 1.355 . S
C347 C349 1.415 . S
C348 C347 1.355 . S
C348 C350 1.419 . S
C349 C344 1.425 . S
C349 C346 1.409 . S
C349 C347 1.415 . S
C350 H340 0.930 . S
C350 C348 1.419 . S
C350 C351 1.362 . S
C351 H341 0.930 . S
C351 C344 1.409 . S
C351 C350 1.362 . S
H352 C358 0.930 . S
H353 C361 0.930 . S
H354 C362 0.930 . S
H355 C363 0.930 . S
H356 C366 0.930 . S
H357 C367 0.930 . S
C358 H352 0.930 . S
C358 C359 1.355 . S
C358 C360 1.415 . S
C359 C358 1.355 . S
C359 C361 1.419 . S
C360 C358 1.415 . S
C360 C365 1.425 . S
C360 C367 1.409 . S
C361 H353 0.930 . S
C361 C359 1.419 . S
C361 C362 1.362 . S
C362 H354 0.930 . S
C362 C361 1.362 . S
C362 C365 1.409 . S
C363 H355 0.930 . S
C363 C364 1.355 . S
C363 C365 1.415 . S
C364 C363 1.355 . S
C364 C366 1.419 . S
C365 C360 1.425 . S
C365 C362 1.409 . S
C365 C363 1.415 . S
C366 H356 0.930 . S
C366 C364 1.419 . S
C366 C367 1.362 . S
C367 H357 0.930 . S
C367 C360 1.409 . S
C367 C366 1.362 . S
H368 C374 0.930 . S
H369 C377 0.930 . S
H370 C378 0.930 . S
H371 C379 0.930 . S
H372 C382 0.930 . S
H373 C383 0.930 . S
C374 H368 0.930 . S
C374 C375 1.355 . S
C374 C376 1.415 . S
C375 C374 1.355 . S
C375 C377 1.419 . S
C376 C374 1.415 . S
C376 C381 1.425 . S
C376 C383 1.409 . S
C377 H369 0.930 . S
C377 C375 1.419 . S
C377 C378 1.362 . S
C378 H370 0.930 . S
C378 C377 1.362 . S
C378 C381 1.409 . S
C379 H371 0.930 . S
C379 C380 1.355 . S
C379 C381 1.415 . S
C380 C379 1.355 . S
C380 C382 1.419 . S
C381 C376 1.425 . S
C381 C378 1.409 . S
C381 C379 1.415 . S
C382 H372 0.930 . S
C382 C380 1.419 . S
C382 C383 1.362 . S
C383 H373 0.930 . S
C383 C376 1.409 . S
C383 C382 1.362 . S
H384 C390 0.930 . S
H385 C393 0.930 . S
H386 C394 0.930 . S
H387 C395 0.930 . S
H388 C398 0.930 . S
H389 C399 0.930 . S
C390 H384 0.930 . S
C390 C391 1.355 . S
C390 C392 1.415 . S
C391 C390 1.355 . S
C391 C393 1.419 . S
C392 C390 1.415 . S
C392 C397 1.425 . S
C392 C399 1.409 . S
C393 H385 0.930 . S
C393 C391 1.419 . S
C393 C394 1.362 . S
C394 H386 0.930 . S
C394 C393 1.362 . S
C394 C397 1.409 . S
C395 H387 0.930 . S
C395 C396 1.355 . S
C395 C397 1.415 . S
C396 C395 1.355 . S
C396 C398 1.419 . S
C397 C392 1.425 . S
C397 C394 1.409 . S
C397 C395 1.415 . S
C398 H388 0.930 . S
C398 C396 1.419 . S
C398 C399 1.362 . S
C399 H389 0.930 . S
C399 C392 1.409 . S
C399 C398 1.362 . S
H400 C406 0.930 . S
H401 C409 0.930 . S
H402 C410 0.930 . S
H403 C411 0.930 . S
H404 C414 0.930 . S
H405 C415 0.930 . S
C406 H400 0.930 . S
C406 C407 1.355 . S
C406 C408 1.415 . S
C407 C406 1.355 . S
C407 C409 1.419 . S
C408 C406 1.415 . S
C408 C413 1.425 . S
C408 C415 1.409 . S
C409 H401 0.930 . S
C409 C407 1.419 . S
C409 C410 1.362 . S
C410 H402 0.930 . S
C410 C409 1.362 . S
C410 C413 1.409 . S
C411 H403 0.930 . S
C411 C412 1.355 . S
C411 C413 1.415 . S
C412 C411 1.355 . S
C412 C414 1.419 . S
C413 C408 1.425 . S
C413 C410 1.409 . S
C413 C411 1.415 . S
C414 H404 0.930 . S
C414 C412 1.419 . S
C414 C415 1.362 . S
C415 H405 0.930 . S
C415 C408 1.409 . S
C415 C414 1.362 . S
H416 C422 0.930 . S
H417 C425 0.930 . S
H418 C426 0.930 . S
H419 C427 0.930 . S
H420 C430 0.930 . S
H421 C431 0.930 . S
C422 H416 0.930 . S
C422 C423 1.355 . S
C422 C424 1.415 . S
C423 C422 1.355 . S
C423 C425 1.419 . S
C424 C422 1.415 . S
C424 C429 1.425 . S
C424 C431 1.409 . S
C425 H417 0.930 . S
C425 C423 1.419 . S
C425 C426 1.362 . S
C426 H418 0.930 . S
C426 C425 1.362 . S
C426 C429 1.409 . S
C427 H419 0.930 . S
C427 C428 1.355 . S
C427 C429 1.415 . S
C428 C427 1.355 . S
C428 C430 1.419 . S
C429 C424 1.425 . S
C429 C426 1.409 . S
C429 C427 1.415 . S
C430 H420 0.930 . S
C430 C428 1.419 . S
C430 C431 1.362 . S
C431 H421 0.930 . S
C431 C424 1.409 . S
C431 C430 1.362 . S
H432 C438 0.930 . S
H433 C441 0.930 . S
H434 C442 0.930 . S
H435 C443 0.930 . S
H436 C446 0.930 . S
H437 C447 0.930 . S
C438 H432 0.930 . S
C438 C439 1.355 . S
C438 C440 1.415 . S
C439 C438 1.355 . S
C439 C441 1.419 . S
C440 C438 1.415 . S
C440 C445 1.425 . S
C440 C447 1.409 . S
C441 H433 0.930 . S
C441 C439 1.419 . S
C441 C442 1.362 . S
C442 H434 0.930 . S
C442 C441 1.362 . S
C442 C445 1.409 . S
C443 H435 0.930 . S
C443 C444 1.355 . S
C443 C445 1.415 . S
C444 C443 1.355 . S
C444 C446 1.419 . S
C445 C440 1.425 . S
C445 C442 1.409 . S
C445 C443 1.415 . S
C446 H436 0.930 . S
C446 C444 1.419 . S
C446 C447 1.362 . S
C447 H437 0.930 . S
C447 C440 1.409 . S
C447 C446 1.362 . S
H448 C454 0.930 . S
H449 C457 0.930 . S
H450 C458 0.930 . S
H451 C459 0.930 . S
H452 C462 0.930 . S
H453 C463 0.930 . S
C454 H448 0.930 . S
C454 C455 1.355 . S
C454 C456 1.415 . S
C455 C454 1.355 . S
C455 C457 1.419 . S
C456 C454 1.415 . S
C456 C461 1.425 . S
C456 C463 1.409 . S
C457 H449 0.930 . S
C457 C455 1.419 . S
C457 C458 1.362 . S
C458 H450 0.930 . S
C458 C457 1.362 . S
C458 C461 1.409 . S
C459 H451 0.930 . S
C459 C460 1.355 . S
C459 C461 1.415 . S
C460 C459 1.355 . S
C460 C462 1.419 . S
C461 C456 1.425 . S
C461 C458 1.409 . S
C461 C459 1.415 . S
C462 H452 0.930 . S
C462 C460 1.419 . S
C462 C463 1.362 . S
C463 H453 0.930 . S
C463 C456 1.409 . S
C463 C462 1.362 . S
H464 C470 0.930 . S
H465 C473 0.930 . S
H466 C474 0.930 . S
H467 C475 0.930 . S
H468 C478 0.930 . S
H469 C479 0.930 . S
C470 H464 0.930 . S
C470 C471 1.355 . S
C470 C472 1.415 . S
C471 C470 1.355 . S
C471 C473 1.419 . S
C472 C470 1.415 . S
C472 C477 1.425 . S
C472 C479 1.409 . S
C473 H465 0.930 . S
C473 C471 1.419 . S
C473 C474 1.362 . S
C474 H466 0.930 . S
C474 C473 1.362 . S
C474 C477 1.409 . S
C475 H467 0.930 . S
C475 C476 1.355 . S
C475 C477 1.415 . S
C476 C475 1.355 . S
C476 C478 1.419 . S
C477 C472 1.425 . S
C477 C474 1.409 . S
C477 C475 1.415 . S
C478 H468 0.930 . S
C478 C476 1.419 . S
C478 C479 1.362 . S
C479 H469 0.930 . S
C479 C472 1.409 . S
C479 C478 1.362 . S
H480 C486 0.930 . S
H481 C489 0.930 . S
H482 C490 0.930 . S
H483 C491 0.930 . S
H484 C494 0.930 . S
H485 C495 0.930 . S
C486 H480 0.930 . S
C486 C487 1.355 . S
C486 C488 1.415 . S
C487 C486 1.355 . S
C487 C489 1.419 . S
C488 C486 1.415 . S
C488 C493 1.425 . S
C488 C495 1.409 . S
C489 H481 0.930 . S
C489 C487 1.419 . S
C489 C490 1.362 . S
C490 H482 0.930 . S
C490 C489 1.362 . S
C490 C493 1.409 . S
C491 H483 0.930 . S
C491 C492 1.355 . S
C491 C493 1.415 . S
C492 C491 1.355 . S
C492 C494 1.419 . S
C493 C488 1.425 . S
C493 C490 1.409 . S
C493 C491 1.415 . S
C494 H484 0.930 . S
C494 C492 1.419 . S
C494 C495 1.362 . S
C495 H485 0.930 . S
C495 C488 1.409 . S
C495 C494 1.362 . S
H496 C502 0.930 1_554 S
H497 C505 0.930 . S
H498 C506 0.930 . S
H499 C507 0.930 . S
H500 C510 0.930 . S
H501 C511 0.930 . S
C502 H496 0.930 1_556 S
C502 C503 1.355 . S
C502 C504 1.415 1_556 S
C503 C502 1.355 . S
C503 C505 1.419 . S
C504 C502 1.415 1_554 S
C504 C509 1.425 1_554 S
C504 C511 1.409 . S
C505 H497 0.930 . S
C505 C503 1.419 . S
C505 C506 1.362 . S
C506 H498 0.930 . S
C506 C505 1.362 . S
C506 C509 1.409 . S
C507 H499 0.930 . S
C507 C508 1.355 1_556 S
C507 C509 1.415 . S
C508 C507 1.355 1_554 S
C508 C510 1.419 . S
C509 C504 1.425 1_556 S
C509 C506 1.409 . S
C509 C507 1.415 . S
C510 H500 0.930 . S
C510 C508 1.419 . S
C510 C511 1.362 . S
C511 H501 0.930 . S
C511 C504 1.409 . S
C511 C510 1.362 . S
H512 C518 0.930 . S
H513 C521 0.930 . S
H514 C522 0.930 . S
H515 C523 0.930 . S
H516 C526 0.930 . S
H517 C527 0.930 . S
C518 H512 0.930 . S
C518 C519 1.355 . S
C518 C520 1.415 . S
C519 C518 1.355 . S
C519 C521 1.419 . S
C520 C518 1.415 . S
C520 C525 1.425 . S
C520 C527 1.409 . S
C521 H513 0.930 . S
C521 C519 1.419 . S
C521 C522 1.362 . S
C522 H514 0.930 . S
C522 C521 1.362 . S
C522 C525 1.409 . S
C523 H515 0.930 . S
C523 C524 1.355 . S
C523 C525 1.415 . S
C524 C523 1.355 . S
C524 C526 1.419 . S
C525 C520 1.425 . S
C525 C522 1.409 . S
C525 C523 1.415 . S
C526 H516 0.930 . S
C526 C524 1.419 . S
C526 C527 1.362 . S
C527 H517 0.930 . S
C527 C520 1.409 . S
C527 C526 1.362 . S
H528 C534 0.930 . S
H529 C537 0.930 . S
H530 C538 0.930 . S
H531 C539 0.930 . S
H532 C542 0.930 . S
H533 C543 0.930 . S
C534 H528 0.930 . S
C534 C535 1.355 . S
C534 C536 1.415 . S
C535 C534 1.355 . S
C535 C537 1.419 . S
C536 C534 1.415 . S
C536 C541 1.425 . S
C536 C543 1.409 . S
C537 H529 0.930 . S
C537 C535 1.419 . S
C537 C538 1.362 . S
C538 H530 0.930 . S
C538 C537 1.362 . S
C538 C541 1.409 . S
C539 H531 0.930 . S
C539 C540 1.355 . S
C539 C541 1.415 . S
C540 C539 1.355 . S
C540 C542 1.419 . S
C541 C536 1.425 . S
C541 C538 1.409 . S
C541 C539 1.415 . S
C542 H532 0.930 . S
C542 C540 1.419 . S
C542 C543 1.362 . S
C543 H533 0.930 . S
C543 C536 1.409 . S
C543 C542 1.362 . S
H544 C550 0.930 . S
H545 C553 0.930 . S
H546 C554 0.930 . S
H547 C555 0.930 . S
H548 C558 0.930 . S
H549 C559 0.930 . S
C550 H544 0.930 . S
C550 C551 1.355 . S
C550 C552 1.415 . S
C551 C550 1.355 . S
C551 C553 1.419 . S
C552 C550 1.415 . S
C552 C557 1.425 . S
C552 C559 1.409 . S
C553 H545 0.930 . S
C553 C551 1.419 . S
C553 C554 1.362 . S
C554 H546 0.930 . S
C554 C553 1.362 . S
C554 C557 1.409 . S
C555 H547 0.930 . S
C555 C556 1.355 . S
C555 C557 1.415 . S
C556 C555 1.355 . S
C556 C558 1.419 . S
C557 C552 1.425 . S
C557 C554 1.409 . S
C557 C555 1.415 . S
C558 H548 0.930 . S
C558 C556 1.419 . S
C558 C559 1.362 . S
C559 H549 0.930 . S
C559 C552 1.409 . S
C559 C558 1.362 . S
H560 C566 0.930 . S
H561 C569 0.930 . S
H562 C570 0.930 . S
H563 C571 0.930 . S
H564 C574 0.930 . S
H565 C575 0.930 . S
C566 H560 0.930 . S
C566 C567 1.355 . S
C566 C568 1.415 . S
C567 C566 1.355 . S
C567 C569 1.419 . S
C568 C566 1.415 . S
C568 C573 1.425 . S
C568 C575 1.409 . S
C569 H561 0.930 . S
C569 C567 1.419 . S
C569 C570 1.362 . S
C570 H562 0.930 . S
C570 C569 1.362 . S
C570 C573 1.409 . S
C571 H563 0.930 . S
C571 C572 1.355 . S
C571 C573 1.415 . S
C572 C571 1.355 . S
C572 C574 1.419 . S
C573 C568 1.425 . S
C573 C570 1.409 . S
C573 C571 1.415 . S
C574 H564 0.930 . S
C574 C572 1.419 . S
C574 C575 1.362 . S
C575 H565 0.930 . S
C575 C568 1.409 . S
C575 C574 1.362 . S
H576 C582 0.930 . S
H577 C585 0.930 . S
H578 C586 0.930 . S
H579 C587 0.930 . S
H580 C590 0.930 . S
H581 C591 0.930 . S
C582 H576 0.930 . S
C582 C583 1.355 . S
C582 C584 1.415 . S
C583 C582 1.355 . S
C583 C585 1.419 . S
C584 C582 1.415 . S
C584 C589 1.425 . S
C584 C591 1.409 1_554 S
C585 H577 0.930 . S
C585 C583 1.419 . S
C585 C586 1.362 . S
C586 H578 0.930 . S
C586 C585 1.362 . S
C586 C589 1.409 . S
C587 H579 0.930 . S
C587 C588 1.355 1_554 S
C587 C589 1.415 . S
C588 C587 1.355 1_556 S
C588 C590 1.419 . S
C589 C584 1.425 . S
C589 C586 1.409 . S
C589 C587 1.415 . S
C590 H580 0.930 . S
C590 C588 1.419 . S
C590 C591 1.362 . S
C591 H581 0.930 . S
C591 C584 1.409 1_556 S
C591 C590 1.362 . S
H592 C598 0.930 . S
H593 C601 0.930 . S
H594 C602 0.930 . S
H595 C603 0.930 . S
H596 C606 0.930 . S
H597 C607 0.930 . S
C598 H592 0.930 . S
C598 C599 1.355 . S
C598 C600 1.415 . S
C599 C598 1.355 . S
C599 C601 1.419 . S
C600 C598 1.415 . S
C600 C605 1.425 . S
C600 C607 1.409 . S
C601 H593 0.930 . S
C601 C599 1.419 . S
C601 C602 1.362 . S
C602 H594 0.930 . S
C602 C601 1.362 . S
C602 C605 1.409 . S
C603 H595 0.930 . S
C603 C604 1.355 . S
C603 C605 1.415 . S
C604 C603 1.355 . S
C604 C606 1.419 . S
C605 C600 1.425 . S
C605 C602 1.409 . S
C605 C603 1.415 . S
C606 H596 0.930 . S
C606 C604 1.419 . S
C606 C607 1.362 . S
C607 H597 0.930 . S
C607 C600 1.409 . S
C607 C606 1.362 . S
H608 C614 0.930 . S
H609 C617 0.930 . S
H610 C618 0.930 . S
H611 C619 0.930 . S
H612 C622 0.930 . S
H613 C623 0.930 . S
C614 H608 0.930 . S
C614 C615 1.355 . S
C614 C616 1.415 . S
C615 C614 1.355 . S
C615 C617 1.419 . S
C616 C614 1.415 . S
C616 C621 1.425 . S
C616 C623 1.409 . S
C617 H609 0.930 . S
C617 C615 1.419 . S
C617 C618 1.362 . S
C618 H610 0.930 . S
C618 C617 1.362 . S
C618 C621 1.409 . S
C619 H611 0.930 . S
C619 C620 1.355 . S
C619 C621 1.415 . S
C620 C619 1.355 . S
C620 C622 1.419 . S
C621 C616 1.425 . S
C621 C618 1.409 . S
C621 C619 1.415 . S
C622 H612 0.930 . S
C622 C620 1.419 . S
C622 C623 1.362 . S
C623 H613 0.930 . S
C623 C616 1.409 . S
C623 C622 1.362 . S
H624 C630 0.930 . S
H625 C633 0.930 . S
H626 C634 0.930 . S
H627 C635 0.930 . S
H628 C638 0.930 . S
H629 C639 0.930 . S
C630 H624 0.930 . S
C630 C631 1.355 . S
C630 C632 1.415 . S
C631 C630 1.355 . S
C631 C633 1.419 . S
C632 C630 1.415 . S
C632 C637 1.425 . S
C632 C639 1.409 . S
C633 H625 0.930 . S
C633 C631 1.419 . S
C633 C634 1.362 . S
C634 H626 0.930 . S
C634 C633 1.362 . S
C634 C637 1.409 . S
C635 H627 0.930 . S
C635 C636 1.355 . S
C635 C637 1.415 . S
C636 C635 1.355 . S
C636 C638 1.419 . S
C637 C632 1.425 . S
C637 C634 1.409 . S
C637 C635 1.415 . S
C638 H628 0.930 . S
C638 C636 1.419 . S
C638 C639 1.362 . S
C639 H629 0.930 . S
C639 C632 1.409 . S
C639 C638 1.362 . S
H640 C646 0.930 . S
H641 C649 0.930 . S
H642 C650 0.930 . S
H643 C651 0.930 . S
H644 C654 0.930 . S
H645 C655 0.930 . S
C646 H640 0.930 . S
C646 C647 1.355 . S
C646 C648 1.415 . S
C647 C646 1.355 . S
C647 C649 1.419 . S
C648 C646 1.415 . S
C648 C653 1.425 . S
C648 C655 1.409 . S
C649 H641 0.930 . S
C649 C647 1.419 . S
C649 C650 1.362 . S
C650 H642 0.930 . S
C650 C649 1.362 . S
C650 C653 1.409 . S
C651 H643 0.930 . S
C651 C652 1.355 . S
C651 C653 1.415 . S
C652 C651 1.355 . S
C652 C654 1.419 . S
C653 C648 1.425 . S
C653 C650 1.409 . S
C653 C651 1.415 . S
C654 H644 0.930 . S
C654 C652 1.419 . S
C654 C655 1.362 . S
C655 H645 0.930 . S
C655 C648 1.409 . S
C655 C654 1.362 . S
H656 C662 0.930 . S
H657 C665 0.930 . S
H658 C666 0.930 . S
H659 C667 0.930 . S
H660 C670 0.930 . S
H661 C671 0.930 . S
C662 H656 0.930 . S
C662 C663 1.355 . S
C662 C664 1.415 . S
C663 C662 1.355 . S
C663 C665 1.419 . S
C664 C662 1.415 . S
C664 C669 1.425 . S
C664 C671 1.409 . S
C665 H657 0.930 . S
C665 C663 1.419 . S
C665 C666 1.362 . S
C666 H658 0.930 . S
C666 C665 1.362 . S
C666 C669 1.409 . S
C667 H659 0.930 . S
C667 C668 1.355 . S
C667 C669 1.415 . S
C668 C667 1.355 . S
C668 C670 1.419 . S
C669 C664 1.425 . S
C669 C666 1.409 . S
C669 C667 1.415 . S
C670 H660 0.930 . S
C670 C668 1.419 . S
C670 C671 1.362 . S
C671 H661 0.930 . S
C671 C664 1.409 . S
C671 C670 1.362 . S
H672 C678 0.930 . S
H673 C681 0.930 . S
H674 C682 0.930 . S
H675 C683 0.930 . S
H676 C686 0.930 . S
H677 C687 0.930 . S
C678 H672 0.930 . S
C678 C679 1.355 . S
C678 C680 1.415 . S
C679 C678 1.355 . S
C679 C681 1.419 . S
C680 C678 1.415 . S
C680 C685 1.425 . S
C680 C687 1.409 . S
C681 H673 0.930 . S
C681 C679 1.419 . S
C681 C682 1.362 . S
C682 H674 0.930 . S
C682 C681 1.362 . S
C682 C685 1.409 . S
C683 H675 0.930 . S
C683 C684 1.355 . S
C683 C685 1.415 . S
C684 C683 1.355 . S
C684 C686 1.419 . S
C685 C680 1.425 . S
C685 C682 1.409 . S
C685 C683 1.415 . S
C686 H676 0.930 . S
C686 C684 1.419 . S
C686 C687 1.362 . S
C687 H677 0.930 . S
C687 C680 1.409 . S
C687 C686 1.362 . S
H688 C694 0.930 . S
H689 C697 0.930 . S
H690 C698 0.930 . S
H691 C699 0.930 . S
H692 C702 0.930 . S
H693 C703 0.930 . S
C694 H688 0.930 . S
C694 C695 1.355 . S
C694 C696 1.415 . S
C695 C694 1.355 . S
C695 C697 1.419 . S
C696 C694 1.415 . S
C696 C701 1.425 . S
C696 C703 1.409 . S
C697 H689 0.930 . S
C697 C695 1.419 . S
C697 C698 1.362 . S
C698 H690 0.930 . S
C698 C697 1.362 . S
C698 C701 1.409 . S
C699 H691 0.930 . S
C699 C700 1.355 . S
C699 C701 1.415 . S
C700 C699 1.355 . S
C700 C702 1.419 . S
C701 C696 1.425 . S
C701 C698 1.409 . S
C701 C699 1.415 . S
C702 H692 0.930 . S
C702 C700 1.419 . S
C702 C703 1.362 . S
C703 H693 0.930 . S
C703 C696 1.409 . S
C703 C702 1.362 . S
H704 C710 0.930 . S
H705 C713 0.930 . S
H706 C714 0.930 . S
H707 C715 0.930 . S
H708 C718 0.930 . S
H709 C719 0.930 . S
C710 H704 0.930 . S
C710 C711 1.355 . S
C710 C712 1.415 . S
C711 C710 1.355 . S
C711 C713 1.419 . S
C712 C710 1.415 . S
C712 C717 1.425 . S
C712 C719 1.409 . S
C713 H705 0.930 . S
C713 C711 1.419 . S
C713 C714 1.362 . S
C714 H706 0.930 . S
C714 C713 1.362 . S
C714 C717 1.409 . S
C715 H707 0.930 . S
C715 C716 1.355 . S
C715 C717 1.415 . S
C716 C715 1.355 . S
C716 C718 1.419 . S
C717 C712 1.425 . S
C717 C714 1.409 . S
C717 C715 1.415 . S
C718 H708 0.930 . S
C718 C716 1.419 . S
C718 C719 1.362 . S
C719 H709 0.930 . S
C719 C712 1.409 . S
C719 C718 1.362 . S
H720 C726 0.930 . S
H721 C729 0.930 . S
H722 C730 0.930 . S
H723 C731 0.930 . S
H724 C734 0.930 . S
H725 C735 0.930 . S
C726 H720 0.930 . S
C726 C727 1.355 . S
C726 C728 1.415 . S
C727 C726 1.355 . S
C727 C729 1.419 . S
C728 C726 1.415 . S
C728 C733 1.425 . S
C728 C735 1.409 . S
C729 H721 0.930 . S
C729 C727 1.419 . S
C729 C730 1.362 . S
C730 H722 0.930 . S
C730 C729 1.362 . S
C730 C733 1.409 . S
C731 H723 0.930 . S
C731 C732 1.355 . S
C731 C733 1.415 . S
C732 C731 1.355 . S
C732 C734 1.419 . S
C733 C728 1.425 . S
C733 C730 1.409 . S
C733 C731 1.415 . S
C734 H724 0.930 . S
C734 C732 1.419 . S
C734 C735 1.362 . S
C735 H725 0.930 . S
C735 C728 1.409 . S
C735 C734 1.362 . S
H736 C742 0.930 . S
H737 C745 0.930 . S
H738 C746 0.930 . S
H739 C747 0.930 . S
H740 C750 0.930 . S
H741 C751 0.930 . S
C742 H736 0.930 . S
C742 C743 1.355 . S
C742 C744 1.415 . S
C743 C742 1.355 . S
C743 C745 1.419 . S
C744 C742 1.415 . S
C744 C749 1.425 . S
C744 C751 1.409 . S
C745 H737 0.930 . S
C745 C743 1.419 . S
C745 C746 1.362 . S
C746 H738 0.930 . S
C746 C745 1.362 . S
C746 C749 1.409 . S
C747 H739 0.930 . S
C747 C748 1.355 . S
C747 C749 1.415 . S
C748 C747 1.355 . S
C748 C750 1.419 . S
C749 C744 1.425 . S
C749 C746 1.409 . S
C749 C747 1.415 . S
C750 H740 0.930 . S
C750 C748 1.419 . S
C750 C751 1.362 . S
C751 H741 0.930 . S
C751 C744 1.409 . S
C751 C750 1.362 . S
H752 C758 0.930 . S
H753 C761 0.930 . S
H754 C762 0.930 . S
H755 C763 0.930 . S
H756 C766 0.930 . S
H757 C767 0.930 . S
C758 H752 0.930 . S
C758 C759 1.355 . S
C758 C760 1.415 . S
C759 C758 1.355 . S
C759 C761 1.419 . S
C760 C758 1.415 . S
C760 C765 1.425 . S
C760 C767 1.409 . S
C761 H753 0.930 . S
C761 C759 1.419 . S
C761 C762 1.362 . S
C762 H754 0.930 . S
C762 C761 1.362 . S
C762 C765 1.409 . S
C763 H755 0.930 . S
C763 C764 1.355 . S
C763 C765 1.415 . S
C764 C763 1.355 . S
C764 C766 1.419 . S
C765 C760 1.425 . S
C765 C762 1.409 . S
C765 C763 1.415 . S
C766 H756 0.930 . S
C766 C764 1.419 . S
C766 C767 1.362 . S
C767 H757 0.930 . S
C767 C760 1.409 . S
C767 C766 1.362 . S
H768 C774 0.930 . S
H769 C777 0.930 . S
H770 C778 0.930 . S
H771 C779 0.930 . S
H772 C782 0.930 . S
H773 C783 0.930 . S
C774 H768 0.930 . S
C774 C775 1.355 . S
C774 C776 1.415 . S
C775 C774 1.355 . S
C775 C777 1.419 . S
C776 C774 1.415 . S
C776 C781 1.425 . S
C776 C783 1.409 . S
C777 H769 0.930 . S
C777 C775 1.419 . S
C777 C778 1.362 . S
C778 H770 0.930 . S
C778 C777 1.362 . S
C778 C781 1.409 . S
C779 H771 0.930 . S
C779 C780 1.355 . S
C779 C781 1.415 . S
C780 C779 1.355 . S
C780 C782 1.419 . S
C781 C776 1.425 . S
C781 C778 1.409 . S
C781 C779 1.415 . S
C782 H772 0.930 . S
C782 C780 1.419 . S
C782 C783 1.362 . S
C783 H773 0.930 . S
C783 C776 1.409 . S
C783 C782 1.362 . S
H784 C790 0.930 . S
H785 C793 0.930 . S
H786 C794 0.930 . S
H787 C795 0.930 . S
H788 C798 0.930 . S
H789 C799 0.930 . S
C790 H784 0.930 . S
C790 C791 1.355 . S
C790 C792 1.415 . S
C791 C790 1.355 . S
C791 C793 1.419 . S
C792 C790 1.415 . S
C792 C797 1.425 . S
C792 C799 1.409 . S
C793 H785 0.930 . S
C793 C791 1.419 . S
C793 C794 1.362 . S
C794 H786 0.930 . S
C794 C793 1.362 . S
C794 C797 1.409 . S
C795 H787 0.930 . S
C795 C796 1.355 . S
C795 C797 1.415 . S
C796 C795 1.355 . S
C796 C798 1.419 . S
C797 C792 1.425 . S
C797 C794 1.409 . S
C797 C795 1.415 . S
C798 H788 0.930 . S
C798 C796 1.419 . S
C798 C799 1.362 . S
C799 H789 0.930 . S
C799 C792 1.409 . S
C799 C798 1.362 . S
H800 C806 0.930 . S
H801 C809 0.930 . S
H802 C810 0.930 . S
H803 C811 0.930 . S
H804 C814 0.930 . S
H805 C815 0.930 . S
C806 H800 0.930 . S
C806 C807 1.355 . S
C806 C808 1.415 . S
C807 C806 1.355 . S
C807 C809 1.419 . S
C808 C806 1.415 . S
C808 C813 1.425 . S
C808 C815 1.409 . S
C809 H801 0.930 . S
C809 C807 1.419 . S
C809 C810 1.362 . S
C810 H802 0.930 . S
C810 C809 1.362 . S
C810 C813 1.409 . S
C811 H803 0.930 . S
C811 C812 1.355 . S
C811 C813 1.415 . S
C812 C811 1.355 . S
C812 C814 1.419 . S
C813 C808 1.425 . S
C813 C810 1.409 . S
C813 C811 1.415 . S
C814 H804 0.930 . S
C814 C812 1.419 . S
C814 C815 1.362 . S
C815 H805 0.930 . S
C815 C808 1.409 . S
C815 C814 1.362 . S
C247 C105 1.489 . S
C252 C5 1.510 . S
C263 C34 1.406 . S
C268 C14 1.387 . S
C279 C45 1.518 . S
C284 C25 1.527 . S
C295 C54 1.476 . S
C300 C74 1.495 . S
C311 C65 1.407 . S
C316 C85 1.427 . S
C327 C114 1.510 . S
C332 C94 1.536 . S
C343 C145 1.510 . S
C348 C125 1.485 . S
C359 C154 1.550 . S
C364 C174 1.551 . S
C375 C185 1.427 . S
C380 C165 1.432 . S
C391 C214 1.509 . S
C396 C194 1.505 . S
C407 C225 1.539 . S
C412 C205 1.553 . S
C423 C134 1.432 . S
C428 C234 1.430 . S
C439 C233 2.105 . S
C444 C8 2.083 . S
C455 C37 1.857 . S
C460 C122 1.877 . S
C471 C153 1.956 . S
C476 C48 1.963 . S
C487 C162 2.096 . S
C492 C77 2.069 . S
C503 C193 1.897 . S
C508 C88 1.832 . S
C519 C117 1.901 . S
C524 C202 1.996 . S
C535 C128 2.054 . S
C540 C33 2.107 . S
C551 C157 1.916 . S
C556 C42 1.972 . S
C567 C73 1.865 . S
C572 C168 1.866 . S
C583 C82 2.132 . S
C588 C197 2.041 . S
C599 C208 1.964 . S
C604 C113 1.945 . S
C615 C237 1.862 . S
C620 C2 1.872 . S
C631 C133 2.875 . S
C636 C13 2.914 . S
C647 C22 2.532 . S
C652 C142 2.587 . S
C663 C173 2.538 . S
C668 C53 2.580 . S
C679 C62 2.905 . S
C684 C182 2.885 . S
C695 C213 2.573 . S
C700 C93 2.552 . S
C711 C222 2.536 . S
C716 C102 2.581 . S
C727 C137 1.184 . S
C732 C17 1.252 . S
C743 C148 1.465 . S
C748 C28 1.402 . S
C759 C177 1.450 . S
C764 C57 1.448 . S
C775 C68 1.266 . S
C780 C188 1.246 . S
C791 C217 1.465 . S
C796 C97 1.423 . S
C807 C228 1.470 . S
C812 C108 1.396 . S
