# Generated by pormake.
# Topology vby, (6)-cn, num edge types: 1
# Building blocks:
#     Node 0, Type 0, BuildingBlock: UKALOJ_clean_sbu_0, # of connection points: 6
#     Node 1, Type 0, BuildingBlock: UKALOJ_clean_sbu_0, # of connection points: 6
#     Node 2, Type 0, BuildingBlock: UKALOJ_clean_sbu_0, # of connection points: 6
#     Node 3, Type 0, BuildingBlock: UKALOJ_clean_sbu_0, # of connection points: 6
#     Node 4, Type 0, BuildingBlock: UKALOJ_clean_sbu_0, # of connection points: 6
#     Node 5, Type 0, BuildingBlock: UKALOJ_clean_sbu_0, # of connection points: 6
#     Node 6, Type 0, BuildingBlock: UKALOJ_clean_sbu_0, # of connection points: 6
#     Node 7, Type 0, BuildingBlock: UKALOJ_clean_sbu_0, # of connection points: 6
#     Edge 8, Type (0, 0), None
#     Edge 9, Type (0, 0), None
#     Edge 10, Type (0, 0), None
#     Edge 11, Type (0, 0), None
#     Edge 12, Type (0, 0), None
#     Edge 13, Type (0, 0), None
#     Edge 14, Type (0, 0), None
#     Edge 15, Type (0, 0), None
#     Edge 16, Type (0, 0), None
#     Edge 17, Type (0, 0), None
#     Edge 18, Type (0, 0), None
#     Edge 19, Type (0, 0), None
#     Edge 20, Type (0, 0), None
#     Edge 21, Type (0, 0), None
#     Edge 22, Type (0, 0), None
#     Edge 23, Type (0, 0), None
#     Edge 24, Type (0, 0), None
#     Edge 25, Type (0, 0), None
#     Edge 26, Type (0, 0), None
#     Edge 27, Type (0, 0), None
#     Edge 28, Type (0, 0), None
#     Edge 29, Type (0, 0), None
#     Edge 30, Type (0, 0), None
#     Edge 31, Type (0, 0), None
# Relax obj value: 0.057
# Max RMSD: 0.108
# Mean RMSD: 0.108
data_MOF--net-vby--node1-UKALOJ_clean_sbu_0--edge1-none
_symmetry_space_group_name_H-M    P1
_symmetry_Int_Tables_number       1
_symmetry_cell_setting            triclinic
loop_
_symmetry_equiv_pos_as_xyz
'x, y, z'
_cell_length_a     6.7871082
_cell_length_b     26.930362
_cell_length_c     23.934555
_cell_angle_alpha  89.99995
_cell_angle_beta   89.949862
_cell_angle_gamma 89.999482
loop_
_atom_site_label
_atom_site_type_symbol
_atom_site_fract_x
_atom_site_fract_y
_atom_site_fract_z
_atom_type_partial_charge
Zn0 Zn 0.07422 0.34829 0.98361 0.0
O1 O 0.3813 0.3556 0.98216 0.0
C2 C 0.1755 0.2491 1.02366 0.0
Zn3 Zn 0.0721 0.34742 0.07727 0.0
C4 C 0.46837 0.35204 0.02927 0.0
O5 O 0.37396 0.35439 0.07486 0.0
C6 C 0.67726 0.34321 0.0316 0.0
O7 O 0.02457 0.425 0.08281 0.0
O8 O 0.02445 0.42597 0.99102 0.0
N9 N 0.0827 0.34185 0.16282 0.0
C10 C 0.951 0.35339 0.20308 0.0
C11 C 0.20287 0.3223 0.2436 0.0
N12 N 0.23892 0.32268 0.18817 0.0
N13 N 0.02388 0.34177 0.25366 0.0
C14 C 0.0851 0.33729 0.84951 0.0
C15 C 0.81808 0.37679 0.8332 0.0
N16 N 0.02095 0.35514 0.89896 0.0
N17 N 0.85605 0.37985 0.88807 0.0
N18 N 0.95612 0.34894 0.80833 0.0
H19 H 0.31856 0.29115 0.88143 0.0
H20 H 0.38889 0.33426 0.82758 0.0
H21 H 0.25114 0.27981 0.8088 0.0
C22 C 0.27131 0.30851 0.84161 0.0
C23 C 0.75487 0.37738 0.19349 0.0
H24 H 0.7621 0.40365 0.15795 0.0
H25 H 0.7053 0.39762 0.23136 0.0
H26 H 0.64486 0.34819 0.18381 0.0
O27 O 0.76512 0.34027 0.07806 0.0
O28 O 0.77227 0.34016 0.98674 0.0
C29 C 0.00026 0.44837 0.03725 0.0
O30 O 0.1346 0.27105 0.97793 0.0
O31 O 0.13314 0.26988 0.07004 0.0
Zn32 Zn 0.87534 0.60205 0.07725 0.0
O33 O 0.91933 0.52435 0.08279 0.0
C34 C 0.2786 0.60513 0.0314 0.0
Zn35 Zn 0.87434 0.60111 0.98371 0.0
C36 C 0.94262 0.50088 0.03724 0.0
O37 O 0.91932 0.52329 0.991 0.0
C38 C 0.77737 0.70056 1.02371 0.0
O39 O 0.56103 0.59507 0.98262 0.0
O40 O 0.56713 0.59603 0.07512 0.0
N41 N 0.92662 0.59425 0.89898 0.0
C42 C 0.86286 0.6123 0.84961 0.0
C43 C 0.12873 0.57238 0.83303 0.0
N44 N 0.0908 0.56928 0.88793 0.0
N45 N -0.00854 0.60053 0.80832 0.0
C46 C -0.00353 0.59596 0.20308 0.0
C47 C 0.7449 0.62729 0.24365 0.0
N48 N 0.86513 0.60764 0.16283 0.0
N49 N 0.70909 0.62695 0.18823 0.0
N50 N 0.92353 0.60764 0.25367 0.0
H51 H 0.18421 0.54539 0.15795 0.0
H52 H 0.24103 0.55142 0.23135 0.0
H53 H 0.30278 0.60071 0.18374 0.0
C54 C 0.19206 0.57169 0.19346 0.0
C55 C 0.67746 0.64144 0.8419 0.0
H56 H 0.63017 0.65857 0.88186 0.0
H57 H 0.5594 0.61599 0.82754 0.0
H58 H 0.6988 0.67035 0.80938 0.0
O59 O 0.81858 0.67855 0.97803 0.0
O60 O 0.81802 0.67969 0.07012 0.0
C61 C 0.4718 0.59852 0.02959 0.0
O62 O 0.18866 0.60831 0.07772 0.0
O63 O 0.18274 0.60795 0.98656 0.0
Zn64 Zn 0.07205 0.60205 0.48157 0.0
O65 O 0.02808 0.52435 0.47605 0.0
C66 C 0.66876 0.60513 0.52743 0.0
Zn67 Zn 0.07299 0.60112 0.57511 0.0
C68 C 0.00474 0.50088 0.5216 0.0
O69 O 0.02799 0.5233 0.56784 0.0
C70 C 0.17 0.70056 0.53511 0.0
O71 O 0.38629 0.59508 0.57619 0.0
O72 O 0.38027 0.59603 0.48369 0.0
N73 N 0.02089 0.59428 0.65985 0.0
C74 C 0.08527 0.61224 0.70919 0.0
C75 C 0.81911 0.57244 0.72591 0.0
N76 N 0.85653 0.5694 0.67098 0.0
N77 N 0.95708 0.60041 0.75055 0.0
C78 C 0.95062 0.59599 0.35577 0.0
C79 C 0.20207 0.62731 0.31513 0.0
N80 N 0.08213 0.60764 0.39598 0.0
N81 N 0.2381 0.62695 0.37055 0.0
N82 N 0.02328 0.60773 0.30517 0.0
H83 H 0.76314 0.54538 0.40094 0.0
H84 H 0.70612 0.5514 0.32755 0.0
H85 H 0.64434 0.60068 0.37517 0.0
C86 C 0.75513 0.57168 0.36543 0.0
C87 C 0.27089 0.64131 0.71681 0.0
H88 H 0.31827 0.65834 0.6768 0.0
H89 H 0.38876 0.61583 0.73124 0.0
H90 H 0.24977 0.67029 0.74925 0.0
O91 O 0.12875 0.67855 0.58079 0.0
O92 O 0.12937 0.67969 0.48869 0.0
C93 C 0.47556 0.59852 0.52923 0.0
O94 O 0.75875 0.60831 0.48112 0.0
O95 O 0.76458 0.60795 0.57228 0.0
Zn96 Zn 0.8732 0.34829 0.57521 0.0
O97 O 0.56613 0.35559 0.57665 0.0
C98 C 0.77188 0.2491 0.53515 0.0
Zn99 Zn 0.87525 0.34742 0.48156 0.0
C100 C 0.47901 0.35204 0.52954 0.0
O101 O 0.57339 0.3544 0.48394 0.0
C102 C 0.27012 0.34321 0.52723 0.0
O103 O 0.92278 0.425 0.47603 0.0
O104 O 0.92298 0.42597 0.56782 0.0
N105 N 0.86479 0.34185 0.396 0.0
C106 C -0.00333 0.35337 0.35577 0.0
C107 C 0.7449 0.32227 0.31518 0.0
N108 N 0.70863 0.32269 0.3706 0.0
N109 N 0.92405 0.34167 0.30519 0.0
C110 C 0.86152 0.33736 0.70929 0.0
C111 C 0.12882 0.37673 0.72575 0.0
N112 N 0.92627 0.35512 0.65987 0.0
N113 N 0.09135 0.37974 0.67084 0.0
N114 N -0.00991 0.34906 0.75053 0.0
H115 H 0.62763 0.29144 0.67722 0.0
H116 H 0.55777 0.3344 0.73128 0.0
H117 H 0.69516 0.27982 0.74978 0.0
C118 C 0.6751 0.30864 0.7171 0.0
C119 C 0.19271 0.37739 0.3654 0.0
H120 H 0.18532 0.40367 0.40093 0.0
H121 H 0.24233 0.39762 0.32753 0.0
H122 H 0.30277 0.34822 0.37511 0.0
O123 O 0.18222 0.34027 0.48078 0.0
O124 O 0.17516 0.34015 0.5721 0.0
C125 C 0.94713 0.44837 0.52159 0.0
O126 O 0.8128 0.27105 0.58088 0.0
O127 O 0.81421 0.26988 0.48877 0.0
Zn128 Zn 0.57422 0.84829 0.98361 0.0
O129 O 0.8813 0.8556 0.98216 0.0
C130 C 0.6755 0.7491 1.02366 0.0
Zn131 Zn 0.57209 0.84742 0.07727 0.0
C132 C 0.96837 0.85204 0.02927 0.0
O133 O 0.87396 0.85439 0.07486 0.0
C134 C 0.17726 0.84321 0.0316 0.0
O135 O 0.52456 0.925 0.08281 0.0
O136 O 0.52445 0.92597 0.99102 0.0
N137 N 0.58269 0.84185 0.16282 0.0
C138 C 0.451 0.85339 0.20308 0.0
C139 C 0.70287 0.8223 0.2436 0.0
N140 N 0.73892 0.82268 0.18817 0.0
N141 N 0.52388 0.84177 0.25366 0.0
C142 C 0.5851 0.83729 0.84951 0.0
C143 C 0.31807 0.87678 0.8332 0.0
N144 N 0.52095 0.85514 0.89896 0.0
N145 N 0.35605 0.87985 0.88807 0.0
N146 N 0.45612 0.84894 0.80833 0.0
H147 H 0.81855 0.79115 0.88142 0.0
H148 H 0.8889 0.83426 0.82759 0.0
H149 H 0.75115 0.77981 0.8088 0.0
C150 C 0.77131 0.80851 0.84161 0.0
C151 C 0.25486 0.87738 0.19349 0.0
H152 H 0.2621 0.90365 0.15795 0.0
H153 H 0.2053 0.89762 0.23136 0.0
H154 H 0.14486 0.84819 0.18381 0.0
O155 O 0.26512 0.84027 0.07806 0.0
O156 O 0.27227 0.84016 0.98674 0.0
C157 C 0.50025 0.94837 0.03725 0.0
O158 O 0.6346 0.77105 0.97793 0.0
O159 O 0.63314 0.76987 0.07004 0.0
Zn160 Zn 0.37534 0.10205 0.07725 0.0
O161 O 0.41933 0.02435 0.08279 0.0
C162 C 0.7786 0.10513 0.0314 0.0
Zn163 Zn 0.37434 0.10111 0.98371 0.0
C164 C 0.44262 0.00088 0.03724 0.0
O165 O 0.41932 0.02329 0.991 0.0
C166 C 0.27737 0.20056 1.02371 0.0
O167 O 0.06103 0.09507 0.98262 0.0
O168 O 0.06713 0.09603 0.07512 0.0
N169 N 0.42662 0.09425 0.89898 0.0
C170 C 0.36286 0.1123 0.84961 0.0
C171 C 0.62873 0.07238 0.83303 0.0
N172 N 0.5908 0.06928 0.88793 0.0
N173 N 0.49146 0.10053 0.80832 0.0
C174 C 0.49647 0.09596 0.20308 0.0
C175 C 0.2449 0.12729 0.24365 0.0
N176 N 0.36513 0.10764 0.16283 0.0
N177 N 0.20909 0.12695 0.18823 0.0
N178 N 0.42353 0.10764 0.25367 0.0
H179 H 0.68421 0.04539 0.15795 0.0
H180 H 0.74103 0.05142 0.23135 0.0
H181 H 0.80278 0.10071 0.18373 0.0
C182 C 0.69206 0.07169 0.19346 0.0
C183 C 0.17746 0.14144 0.8419 0.0
H184 H 0.13022 0.15859 0.88186 0.0
H185 H 0.05938 0.11599 0.82756 0.0
H186 H 0.19878 0.17034 0.80937 0.0
O187 O 0.31859 0.17855 0.97803 0.0
O188 O 0.31802 0.17969 0.07012 0.0
C189 C 0.9718 0.09852 0.02959 0.0
O190 O 0.68866 0.10831 0.07772 0.0
O191 O 0.68274 0.10795 0.98656 0.0
Zn192 Zn 0.57205 0.10205 0.48157 0.0
O193 O 0.52808 0.02435 0.47605 0.0
C194 C 0.16876 0.10513 0.52743 0.0
Zn195 Zn 0.57299 0.10112 0.57511 0.0
C196 C 0.50474 0.00088 0.5216 0.0
O197 O 0.52799 0.0233 0.56784 0.0
C198 C 0.67 0.20056 0.53511 0.0
O199 O 0.8863 0.09508 0.57619 0.0
O200 O 0.88027 0.09603 0.48369 0.0
N201 N 0.52089 0.09428 0.65985 0.0
C202 C 0.58528 0.11224 0.70919 0.0
C203 C 0.31911 0.07244 0.72591 0.0
N204 N 0.35653 0.0694 0.67098 0.0
N205 N 0.45708 0.10041 0.75055 0.0
C206 C 0.45062 0.09599 0.35577 0.0
C207 C 0.70207 0.12731 0.31513 0.0
N208 N 0.58213 0.10764 0.39598 0.0
N209 N 0.7381 0.12695 0.37055 0.0
N210 N 0.52328 0.10773 0.30517 0.0
H211 H 0.26314 0.04538 0.40094 0.0
H212 H 0.20612 0.0514 0.32755 0.0
H213 H 0.14434 0.10068 0.37517 0.0
C214 C 0.25513 0.07168 0.36543 0.0
C215 C 0.7709 0.1413 0.71681 0.0
H216 H 0.81831 0.15832 0.6768 0.0
H217 H 0.88874 0.11583 0.73127 0.0
H218 H 0.74974 0.1703 0.74924 0.0
O219 O 0.62876 0.17855 0.58079 0.0
O220 O 0.62937 0.17969 0.48869 0.0
C221 C -0.02444 0.09852 0.52922 0.0
O222 O 0.25875 0.10831 0.48112 0.0
O223 O 0.26458 0.10795 0.57228 0.0
Zn224 Zn 0.3732 0.84829 0.57521 0.0
O225 O 0.06613 0.85559 0.57665 0.0
C226 C 0.27187 0.7491 0.53515 0.0
Zn227 Zn 0.37525 0.84742 0.48156 0.0
C228 C -0.02099 0.85204 0.52954 0.0
O229 O 0.07338 0.8544 0.48394 0.0
C230 C 0.77012 0.84321 0.52723 0.0
O231 O 0.42277 0.925 0.47603 0.0
O232 O 0.42298 0.92597 0.56782 0.0
N233 N 0.36479 0.84185 0.396 0.0
C234 C 0.49666 0.85337 0.35577 0.0
C235 C 0.2449 0.82227 0.31518 0.0
N236 N 0.20863 0.82269 0.3706 0.0
N237 N 0.42405 0.84167 0.30519 0.0
C238 C 0.36152 0.83736 0.70929 0.0
C239 C 0.62881 0.87673 0.72575 0.0
N240 N 0.42627 0.85512 0.65987 0.0
N241 N 0.59134 0.87974 0.67084 0.0
N242 N 0.49009 0.84906 0.75053 0.0
H243 H 0.12762 0.79144 0.67722 0.0
H244 H 0.05777 0.8344 0.73129 0.0
H245 H 0.19517 0.77982 0.74978 0.0
C246 C 0.1751 0.80864 0.7171 0.0
C247 C 0.69271 0.87739 0.3654 0.0
H248 H 0.68532 0.90367 0.40093 0.0
H249 H 0.74232 0.89762 0.32753 0.0
H250 H 0.80277 0.84822 0.37511 0.0
O251 O 0.68222 0.84027 0.48078 0.0
O252 O 0.67516 0.84015 0.5721 0.0
C253 C 0.44713 0.94837 0.52159 0.0
O254 O 0.3128 0.77105 0.58088 0.0
O255 O 0.31421 0.76988 0.48877 0.0
loop_
_geom_bond_atom_site_label_1
_geom_bond_atom_site_label_2
_geom_bond_distance
_geom_bond_site_symmetry_2
_ccdc_geom_bond_type
Zn0 O1 2.055 . S
Zn0 O8 2.046 . S
Zn0 N16 2.036 . S
Zn0 O28 2.053 1_455 S
Zn0 O30 2.066 . S
O1 Zn0 2.055 . S
O1 C4 1.259 1_556 S
C2 O30 1.256 . S
C2 O31 1.244 1_556 S
Zn3 O5 2.046 . S
Zn3 O7 2.055 . S
Zn3 N9 2.036 . S
Zn3 O27 2.066 1_455 S
Zn3 O31 2.053 . S
C4 O1 1.259 1_554 S
C4 O5 1.254 . S
O5 Zn3 2.046 . S
O5 C4 1.254 . S
C6 O27 1.256 . S
C6 O28 1.244 1_554 S
O7 Zn3 2.055 . S
O7 C29 1.259 . S
O8 Zn0 2.046 . S
O8 C29 1.254 1_556 S
N9 Zn3 2.036 . S
N9 C10 1.298 . S
N9 N12 1.398 . S
C10 N9 1.298 . S
C10 N13 1.367 . S
C10 C23 1.481 1_455 S
C11 N12 1.299 . S
C11 N13 1.379 . S
N12 N9 1.398 . S
N12 C11 1.299 . S
N13 C10 1.367 . S
N13 C11 1.379 . S
C14 N16 1.298 . S
C14 N18 1.367 . S
C14 C22 1.481 . S
C15 N17 1.299 . S
C15 N18 1.379 1_655 S
N16 Zn0 2.036 . S
N16 C14 1.298 . S
N16 N17 1.398 1_455 S
N17 C15 1.299 . S
N17 N16 1.398 1_655 S
N18 C14 1.367 . S
N18 C15 1.379 1_455 S
H19 C22 0.980 . S
H20 C22 0.981 . S
H21 C22 0.981 . S
C22 C14 1.481 . S
C22 H19 0.980 . S
C22 H20 0.981 . S
C22 H21 0.981 . S
C23 C10 1.481 1_655 S
C23 H24 0.980 . S
C23 H25 0.981 . S
C23 H26 0.981 . S
H24 C23 0.980 . S
H25 C23 0.981 . S
H26 C23 0.981 . S
O27 Zn3 2.066 1_655 S
O27 C6 1.256 . S
O28 Zn0 2.053 1_655 S
O28 C6 1.244 1_556 S
C29 O7 1.259 . S
C29 O8 1.254 1_554 S
O30 Zn0 2.066 . S
O30 C2 1.256 . S
O31 C2 1.244 1_554 S
O31 Zn3 2.053 . S
Zn32 O33 2.055 . S
Zn32 O40 2.046 . S
Zn32 N48 2.036 . S
Zn32 O60 2.053 . S
Zn32 O62 2.066 1_655 S
O33 Zn32 2.055 . S
O33 C36 1.259 . S
C34 O62 1.256 . S
C34 O63 1.244 1_554 S
Zn35 O37 2.046 . S
Zn35 O39 2.055 . S
Zn35 N41 2.036 . S
Zn35 O59 2.066 . S
Zn35 O63 2.053 1_655 S
C36 O33 1.259 . S
C36 O37 1.254 1_554 S
O37 Zn35 2.046 . S
O37 C36 1.254 1_556 S
C38 O59 1.256 . S
C38 O60 1.244 1_556 S
O39 Zn35 2.055 . S
O39 C61 1.259 1_556 S
O40 Zn32 2.046 . S
O40 C61 1.254 . S
N41 Zn35 2.036 . S
N41 C42 1.298 . S
N41 N44 1.398 1_655 S
C42 N41 1.298 . S
C42 N45 1.367 . S
C42 C55 1.481 . S
C43 N44 1.299 . S
C43 N45 1.379 1_455 S
N44 N41 1.398 1_455 S
N44 C43 1.299 . S
N45 C42 1.367 . S
N45 C43 1.379 1_655 S
C46 N48 1.298 . S
C46 N50 1.367 . S
C46 C54 1.481 1_655 S
C47 N49 1.299 . S
C47 N50 1.379 . S
N48 Zn32 2.036 . S
N48 C46 1.298 . S
N48 N49 1.398 . S
N49 C47 1.299 . S
N49 N48 1.398 . S
N50 C46 1.367 . S
N50 C47 1.379 . S
H51 C54 0.980 . S
H52 C54 0.981 . S
H53 C54 0.981 . S
C54 C46 1.481 1_455 S
C54 H51 0.980 . S
C54 H52 0.981 . S
C54 H53 0.981 . S
C55 C42 1.481 . S
C55 H56 0.980 . S
C55 H57 0.981 . S
C55 H58 0.981 . S
H56 C55 0.980 . S
H57 C55 0.981 . S
H58 C55 0.981 . S
O59 Zn35 2.066 . S
O59 C38 1.256 . S
O60 Zn32 2.053 . S
O60 C38 1.244 1_554 S
C61 O39 1.259 1_554 S
C61 O40 1.254 . S
O62 Zn32 2.066 1_455 S
O62 C34 1.256 . S
O63 C34 1.244 1_556 S
O63 Zn35 2.053 1_455 S
Zn64 O65 2.055 . S
Zn64 O72 2.046 . S
Zn64 N80 2.036 . S
Zn64 O92 2.053 . S
Zn64 O94 2.066 1_455 S
O65 Zn64 2.055 . S
O65 C68 1.259 . S
C66 O94 1.256 . S
C66 O95 1.244 . S
Zn67 O69 2.046 . S
Zn67 O71 2.055 . S
Zn67 N73 2.036 . S
Zn67 O91 2.066 . S
Zn67 O95 2.053 1_455 S
C68 O65 1.259 . S
C68 O69 1.254 . S
O69 Zn67 2.046 . S
O69 C68 1.254 . S
C70 O91 1.256 . S
C70 O92 1.244 . S
O71 Zn67 2.055 . S
O71 C93 1.259 . S
O72 Zn64 2.046 . S
O72 C93 1.254 . S
N73 Zn67 2.036 . S
N73 C74 1.298 . S
N73 N76 1.398 1_455 S
C74 N73 1.298 . S
C74 N77 1.367 . S
C74 C87 1.481 . S
C75 N76 1.299 . S
C75 N77 1.379 1_655 S
N76 N73 1.398 1_655 S
N76 C75 1.299 . S
N77 C74 1.367 . S
N77 C75 1.379 1_455 S
C78 N80 1.298 . S
C78 N82 1.367 . S
C78 C86 1.481 1_455 S
C79 N81 1.299 . S
C79 N82 1.379 . S
N80 Zn64 2.036 . S
N80 C78 1.298 . S
N80 N81 1.398 . S
N81 C79 1.299 . S
N81 N80 1.398 . S
N82 C78 1.367 . S
N82 C79 1.379 . S
H83 C86 0.980 . S
H84 C86 0.981 . S
H85 C86 0.981 . S
C86 C78 1.481 1_655 S
C86 H83 0.980 . S
C86 H84 0.981 . S
C86 H85 0.981 . S
C87 C74 1.481 . S
C87 H88 0.980 . S
C87 H89 0.981 . S
C87 H90 0.981 . S
H88 C87 0.980 . S
H89 C87 0.981 . S
H90 C87 0.981 . S
O91 Zn67 2.066 . S
O91 C70 1.256 . S
O92 Zn64 2.053 . S
O92 C70 1.244 . S
C93 O71 1.259 . S
C93 O72 1.254 . S
O94 Zn64 2.066 1_655 S
O94 C66 1.256 . S
O95 C66 1.244 . S
O95 Zn67 2.053 1_655 S
Zn96 O97 2.055 . S
Zn96 O104 2.046 . S
Zn96 N112 2.036 . S
Zn96 O124 2.053 1_655 S
Zn96 O126 2.066 . S
O97 Zn96 2.055 . S
O97 C100 1.259 . S
C98 O126 1.256 . S
C98 O127 1.244 . S
Zn99 O101 2.046 . S
Zn99 O103 2.055 . S
Zn99 N105 2.036 . S
Zn99 O123 2.066 1_655 S
Zn99 O127 2.053 . S
C100 O97 1.259 . S
C100 O101 1.254 . S
O101 Zn99 2.046 . S
O101 C100 1.254 . S
C102 O123 1.256 . S
C102 O124 1.244 . S
O103 Zn99 2.055 . S
O103 C125 1.259 . S
O104 Zn96 2.046 . S
O104 C125 1.254 . S
N105 Zn99 2.036 . S
N105 C106 1.298 . S
N105 N108 1.398 . S
C106 N105 1.298 . S
C106 N109 1.367 . S
C106 C119 1.481 1_655 S
C107 N108 1.299 . S
C107 N109 1.379 . S
N108 N105 1.398 . S
N108 C107 1.299 . S
N109 C106 1.367 . S
N109 C107 1.379 . S
C110 N112 1.298 . S
C110 N114 1.367 . S
C110 C118 1.481 . S
C111 N113 1.299 . S
C111 N114 1.379 1_455 S
N112 Zn96 2.036 . S
N112 C110 1.298 . S
N112 N113 1.398 1_655 S
N113 C111 1.299 . S
N113 N112 1.398 1_455 S
N114 C110 1.367 . S
N114 C111 1.379 1_655 S
H115 C118 0.980 . S
H116 C118 0.981 . S
H117 C118 0.981 . S
C118 C110 1.481 . S
C118 H115 0.980 . S
C118 H116 0.981 . S
C118 H117 0.981 . S
C119 C106 1.481 1_455 S
C119 H120 0.980 . S
C119 H121 0.981 . S
C119 H122 0.981 . S
H120 C119 0.980 . S
H121 C119 0.981 . S
H122 C119 0.981 . S
O123 Zn99 2.066 1_455 S
O123 C102 1.256 . S
O124 Zn96 2.053 1_455 S
O124 C102 1.244 . S
C125 O103 1.259 . S
C125 O104 1.254 . S
O126 Zn96 2.066 . S
O126 C98 1.256 . S
O127 C98 1.244 . S
O127 Zn99 2.053 . S
Zn128 O129 2.055 . S
Zn128 O136 2.046 . S
Zn128 N144 2.036 . S
Zn128 O156 2.053 . S
Zn128 O158 2.066 . S
O129 Zn128 2.055 . S
O129 C132 1.259 1_556 S
C130 O158 1.256 . S
C130 O159 1.244 1_556 S
Zn131 O133 2.046 . S
Zn131 O135 2.055 . S
Zn131 N137 2.036 . S
Zn131 O155 2.066 . S
Zn131 O159 2.053 . S
C132 O129 1.259 1_554 S
C132 O133 1.254 . S
O133 Zn131 2.046 . S
O133 C132 1.254 . S
C134 O155 1.256 . S
C134 O156 1.244 1_554 S
O135 Zn131 2.055 . S
O135 C157 1.259 . S
O136 Zn128 2.046 . S
O136 C157 1.254 1_556 S
N137 Zn131 2.036 . S
N137 C138 1.298 . S
N137 N140 1.398 . S
C138 N137 1.298 . S
C138 N141 1.367 . S
C138 C151 1.481 . S
C139 N140 1.299 . S
C139 N141 1.379 . S
N140 N137 1.398 . S
N140 C139 1.299 . S
N141 C138 1.367 . S
N141 C139 1.379 . S
C142 N144 1.298 . S
C142 N146 1.367 . S
C142 C150 1.481 . S
C143 N145 1.299 . S
C143 N146 1.379 . S
N144 Zn128 2.036 . S
N144 C142 1.298 . S
N144 N145 1.398 . S
N145 C143 1.299 . S
N145 N144 1.398 . S
N146 C142 1.367 . S
N146 C143 1.379 . S
H147 C150 0.980 . S
H148 C150 0.981 . S
H149 C150 0.981 . S
C150 C142 1.481 . S
C150 H147 0.980 . S
C150 H148 0.981 . S
C150 H149 0.981 . S
C151 C138 1.481 . S
C151 H152 0.980 . S
C151 H153 0.981 . S
C151 H154 0.981 . S
H152 C151 0.980 . S
H153 C151 0.981 . S
H154 C151 0.981 . S
O155 Zn131 2.066 . S
O155 C134 1.256 . S
O156 Zn128 2.053 . S
O156 C134 1.244 1_556 S
C157 O135 1.259 . S
C157 O136 1.254 1_554 S
O158 Zn128 2.066 . S
O158 C130 1.256 . S
O159 C130 1.244 1_554 S
O159 Zn131 2.053 . S
Zn160 O161 2.055 . S
Zn160 O168 2.046 . S
Zn160 N176 2.036 . S
Zn160 O188 2.053 . S
Zn160 O190 2.066 . S
O161 Zn160 2.055 . S
O161 C164 1.259 . S
C162 O190 1.256 . S
C162 O191 1.244 1_554 S
Zn163 O165 2.046 . S
Zn163 O167 2.055 . S
Zn163 N169 2.036 . S
Zn163 O187 2.066 . S
Zn163 O191 2.053 . S
C164 O161 1.259 . S
C164 O165 1.254 1_554 S
O165 Zn163 2.046 . S
O165 C164 1.254 1_556 S
C166 O187 1.256 . S
C166 O188 1.244 1_556 S
O167 Zn163 2.055 . S
O167 C189 1.259 1_556 S
O168 Zn160 2.046 . S
O168 C189 1.254 . S
N169 Zn163 2.036 . S
N169 C170 1.298 . S
N169 N172 1.398 . S
C170 N169 1.298 . S
C170 N173 1.367 . S
C170 C183 1.481 . S
C171 N172 1.299 . S
C171 N173 1.379 . S
N172 N169 1.398 . S
N172 C171 1.299 . S
N173 C170 1.367 . S
N173 C171 1.379 . S
C174 N176 1.298 . S
C174 N178 1.367 . S
C174 C182 1.481 . S
C175 N177 1.299 . S
C175 N178 1.379 . S
N176 Zn160 2.036 . S
N176 C174 1.298 . S
N176 N177 1.398 . S
N177 C175 1.299 . S
N177 N176 1.398 . S
N178 C174 1.367 . S
N178 C175 1.379 . S
H179 C182 0.980 . S
H180 C182 0.981 . S
H181 C182 0.981 . S
C182 C174 1.481 . S
C182 H179 0.980 . S
C182 H180 0.981 . S
C182 H181 0.981 . S
C183 C170 1.481 . S
C183 H184 0.980 . S
C183 H185 0.981 . S
C183 H186 0.981 . S
H184 C183 0.980 . S
H185 C183 0.981 . S
H186 C183 0.981 . S
O187 Zn163 2.066 . S
O187 C166 1.256 . S
O188 Zn160 2.053 . S
O188 C166 1.244 1_554 S
C189 O167 1.259 1_554 S
C189 O168 1.254 . S
O190 Zn160 2.066 . S
O190 C162 1.256 . S
O191 C162 1.244 1_556 S
O191 Zn163 2.053 . S
Zn192 O193 2.055 . S
Zn192 O200 2.046 . S
Zn192 N208 2.036 . S
Zn192 O220 2.053 . S
Zn192 O222 2.066 . S
O193 Zn192 2.055 . S
O193 C196 1.259 . S
C194 O222 1.256 . S
C194 O223 1.244 . S
Zn195 O197 2.046 . S
Zn195 O199 2.055 . S
Zn195 N201 2.036 . S
Zn195 O219 2.066 . S
Zn195 O223 2.053 . S
C196 O193 1.259 . S
C196 O197 1.254 . S
O197 Zn195 2.046 . S
O197 C196 1.254 . S
C198 O219 1.256 . S
C198 O220 1.244 . S
O199 Zn195 2.055 . S
O199 C221 1.259 . S
O200 Zn192 2.046 . S
O200 C221 1.254 . S
N201 Zn195 2.036 . S
N201 C202 1.298 . S
N201 N204 1.398 . S
C202 N201 1.298 . S
C202 N205 1.367 . S
C202 C215 1.481 . S
C203 N204 1.299 . S
C203 N205 1.379 . S
N204 N201 1.398 . S
N204 C203 1.299 . S
N205 C202 1.367 . S
N205 C203 1.379 . S
C206 N208 1.298 . S
C206 N210 1.367 . S
C206 C214 1.481 . S
C207 N209 1.299 . S
C207 N210 1.379 . S
N208 Zn192 2.036 . S
N208 C206 1.298 . S
N208 N209 1.398 . S
N209 C207 1.299 . S
N209 N208 1.398 . S
N210 C206 1.367 . S
N210 C207 1.379 . S
H211 C214 0.980 . S
H212 C214 0.981 . S
H213 C214 0.981 . S
C214 C206 1.481 . S
C214 H211 0.980 . S
C214 H212 0.981 . S
C214 H213 0.981 . S
C215 C202 1.481 . S
C215 H216 0.980 . S
C215 H217 0.981 . S
C215 H218 0.981 . S
H216 C215 0.980 . S
H217 C215 0.981 . S
H218 C215 0.981 . S
O219 Zn195 2.066 . S
O219 C198 1.256 . S
O220 Zn192 2.053 . S
O220 C198 1.244 . S
C221 O199 1.259 . S
C221 O200 1.254 . S
O222 Zn192 2.066 . S
O222 C194 1.256 . S
O223 C194 1.244 . S
O223 Zn195 2.053 . S
Zn224 O225 2.055 . S
Zn224 O232 2.046 . S
Zn224 N240 2.036 . S
Zn224 O252 2.053 . S
Zn224 O254 2.066 . S
O225 Zn224 2.055 . S
O225 C228 1.259 . S
C226 O254 1.256 . S
C226 O255 1.244 . S
Zn227 O229 2.046 . S
Zn227 O231 2.055 . S
Zn227 N233 2.036 . S
Zn227 O251 2.066 . S
Zn227 O255 2.053 . S
C228 O225 1.259 . S
C228 O229 1.254 . S
O229 Zn227 2.046 . S
O229 C228 1.254 . S
C230 O251 1.256 . S
C230 O252 1.244 . S
O231 Zn227 2.055 . S
O231 C253 1.259 . S
O232 Zn224 2.046 . S
O232 C253 1.254 . S
N233 Zn227 2.036 . S
N233 C234 1.298 . S
N233 N236 1.398 . S
C234 N233 1.298 . S
C234 N237 1.367 . S
C234 C247 1.481 . S
C235 N236 1.299 . S
C235 N237 1.379 . S
N236 N233 1.398 . S
N236 C235 1.299 . S
N237 C234 1.367 . S
N237 C235 1.379 . S
C238 N240 1.298 . S
C238 N242 1.367 . S
C238 C246 1.481 . S
C239 N241 1.299 . S
C239 N242 1.379 . S
N240 Zn224 2.036 . S
N240 C238 1.298 . S
N240 N241 1.398 . S
N241 C239 1.299 . S
N241 N240 1.398 . S
N242 C238 1.367 . S
N242 C239 1.379 . S
H243 C246 0.980 . S
H244 C246 0.981 . S
H245 C246 0.981 . S
C246 C238 1.481 . S
C246 H243 0.980 . S
C246 H244 0.981 . S
C246 H245 0.981 . S
C247 C234 1.481 . S
C247 H248 0.980 . S
C247 H249 0.981 . S
C247 H250 0.981 . S
H248 C247 0.980 . S
H249 C247 0.981 . S
H250 C247 0.981 . S
O251 Zn227 2.066 . S
O251 C230 1.256 . S
O252 Zn224 2.053 . S
O252 C230 1.244 . S
C253 O231 1.259 . S
C253 O232 1.254 . S
O254 Zn224 2.066 . S
O254 C226 1.256 . S
O255 C226 1.244 . S
O255 Zn227 2.053 . S
C4 C6 1.421 . S
C34 C61 1.421 . S
C66 C93 1.421 . S
C100 C102 1.421 . S
C132 C134 1.421 1_655 S
C189 C162 1.421 1_455 S
C194 C221 1.421 1_455 S
C230 C228 1.421 1_655 S
C36 C29 1.492 1_655 S
C125 C68 1.492 1_655 S
C157 C164 1.492 1_565 S
C196 C253 1.492 1_545 S
C2 C166 1.751 . S
C130 C38 1.751 . S
C70 C226 1.751 . S
C98 C198 1.751 . S
N13 N109 1.343 1_455 S
N50 N82 1.343 1_655 S
N45 N77 1.547 1_655 S
N114 N18 1.547 1_655 S
N141 N237 1.343 . S
N178 N210 1.343 . S
N173 N205 1.547 . S
N242 N146 1.547 . S
