# Generated by pormake.
# Topology vby, (6)-cn, num edge types: 1
# Building blocks:
#     Node 0, Type 0, BuildingBlock: KUMBUR_clean_sbu_0, # of connection points: 6
#     Node 1, Type 0, BuildingBlock: KUMBUR_clean_sbu_0, # of connection points: 6
#     Node 2, Type 0, BuildingBlock: KUMBUR_clean_sbu_0, # of connection points: 6
#     Node 3, Type 0, BuildingBlock: KUMBUR_clean_sbu_0, # of connection points: 6
#     Node 4, Type 0, BuildingBlock: KUMBUR_clean_sbu_0, # of connection points: 6
#     Node 5, Type 0, BuildingBlock: KUMBUR_clean_sbu_0, # of connection points: 6
#     Node 6, Type 0, BuildingBlock: KUMBUR_clean_sbu_0, # of connection points: 6
#     Node 7, Type 0, BuildingBlock: KUMBUR_clean_sbu_0, # of connection points: 6
#     Edge 8, Type (0, 0), BuildingBlock: KIFKEQ_clean_linker_1, # of connection points: 2
#     Edge 9, Type (0, 0), BuildingBlock: KIFKEQ_clean_linker_1, # of connection points: 2
#     Edge 10, Type (0, 0), BuildingBlock: KIFKEQ_clean_linker_1, # of connection points: 2
#     Edge 11, Type (0, 0), BuildingBlock: KIFKEQ_clean_linker_1, # of connection points: 2
#     Edge 12, Type (0, 0), BuildingBlock: KIFKEQ_clean_linker_1, # of connection points: 2
#     Edge 13, Type (0, 0), BuildingBlock: KIFKEQ_clean_linker_1, # of connection points: 2
#     Edge 14, Type (0, 0), BuildingBlock: KIFKEQ_clean_linker_1, # of connection points: 2
#     Edge 15, Type (0, 0), BuildingBlock: KIFKEQ_clean_linker_1, # of connection points: 2
#     Edge 16, Type (0, 0), BuildingBlock: KIFKEQ_clean_linker_1, # of connection points: 2
#     Edge 17, Type (0, 0), BuildingBlock: KIFKEQ_clean_linker_1, # of connection points: 2
#     Edge 18, Type (0, 0), BuildingBlock: KIFKEQ_clean_linker_1, # of connection points: 2
#     Edge 19, Type (0, 0), BuildingBlock: KIFKEQ_clean_linker_1, # of connection points: 2
#     Edge 20, Type (0, 0), BuildingBlock: KIFKEQ_clean_linker_1, # of connection points: 2
#     Edge 21, Type (0, 0), BuildingBlock: KIFKEQ_clean_linker_1, # of connection points: 2
#     Edge 22, Type (0, 0), BuildingBlock: KIFKEQ_clean_linker_1, # of connection points: 2
#     Edge 23, Type (0, 0), BuildingBlock: KIFKEQ_clean_linker_1, # of connection points: 2
#     Edge 24, Type (0, 0), BuildingBlock: KIFKEQ_clean_linker_1, # of connection points: 2
#     Edge 25, Type (0, 0), BuildingBlock: KIFKEQ_clean_linker_1, # of connection points: 2
#     Edge 26, Type (0, 0), BuildingBlock: KIFKEQ_clean_linker_1, # of connection points: 2
#     Edge 27, Type (0, 0), BuildingBlock: KIFKEQ_clean_linker_1, # of connection points: 2
#     Edge 28, Type (0, 0), BuildingBlock: KIFKEQ_clean_linker_1, # of connection points: 2
#     Edge 29, Type (0, 0), BuildingBlock: KIFKEQ_clean_linker_1, # of connection points: 2
#     Edge 30, Type (0, 0), BuildingBlock: KIFKEQ_clean_linker_1, # of connection points: 2
#     Edge 31, Type (0, 0), BuildingBlock: KIFKEQ_clean_linker_1, # of connection points: 2
# Relax obj value: 0.109
# Max RMSD: 0.196
# Mean RMSD: 0.196
data_MOF--net-vby--node1-KUMBUR_clean_sbu_0--edge1-KIFKEQ_clean_linker_1
_symmetry_space_group_name_H-M    P1
_symmetry_Int_Tables_number       1
_symmetry_cell_setting            triclinic
loop_
_symmetry_equiv_pos_as_xyz
'x, y, z'
_cell_length_a     14.677665
_cell_length_b     99.080655
_cell_length_c     30.661824
_cell_angle_alpha  114.73139
_cell_angle_beta   90.077447
_cell_angle_gamma 89.968853
loop_
_atom_site_label
_atom_site_type_symbol
_atom_site_fract_x
_atom_site_fract_y
_atom_site_fract_z
_atom_type_partial_charge
Tb0 Tb 0.16541 0.40431 0.02103 0.0
C1 C 1.00146 0.34571 0.87971 0.0
C2 C 0.8518 0.34491 0.91118 0.0
C3 C 0.87879 0.33251 0.82525 0.0
C4 C 0.94294 0.34991 0.91814 0.0
C5 C 0.97118 0.33651 0.83298 0.0
C6 C 0.81906 0.33673 0.86436 0.0
C7 C 0.12762 0.33424 0.80651 0.0
N8 N 0.0905 0.34951 0.88905 0.0
C9 C 0.15429 0.34343 0.85351 0.0
C10 C 1.03544 0.33099 0.79601 0.0
Tb11 Tb 0.12872 0.36448 0.96736 0.0
N12 N 0.97844 0.35733 0.96278 0.0
C13 C 0.92818 0.35875 0.00207 0.0
C14 C 0.79814 0.34747 0.9515 0.0
C15 C 0.83724 0.3541 -0.00291 0.0
H16 H 0.22568 0.34592 0.86103 0.0
H17 H 0.79726 0.3557 0.02852 0.0
H18 H 0.74889 0.333 0.85824 0.0
H19 H 0.17815 0.32974 0.77841 0.0
H20 H 0.95651 0.36388 0.03774 0.0
H21 H 0.42606 0.4006 0.89066 0.0
H22 H 0.72782 0.34383 0.94776 0.0
H23 H 0.16056 0.42403 0.13942 0.0
H24 H 0.27705 0.39586 0.91612 0.0
H25 H 0.26871 0.43779 0.20447 0.0
H26 H 0.85378 0.32563 0.78953 0.0
H27 H 0.5439 0.41397 0.95079 0.0
H28 H 0.58955 0.42695 0.03711 0.0
H29 H 1.01502 0.32383 0.75963 0.0
H30 H 0.5485 0.43633 0.12246 0.0
N31 N 0.30596 0.40669 0.99141 0.0
C32 C 0.32551 0.40197 0.94352 0.0
C33 C 0.47738 0.41211 0.96256 0.0
C34 C 0.45707 0.41719 0.01134 0.0
C35 C 0.41107 0.40457 0.92855 0.0
C36 C 0.36945 0.41441 0.02484 0.0
H37 H 0.4296 0.4403 0.18521 0.0
N38 N 0.26124 0.417 0.08443 0.0
C39 C 0.29227 0.43245 0.16772 0.0
C40 C 0.34687 0.41949 0.07284 0.0
C41 C 0.23157 0.42438 0.13085 0.0
C42 C 0.38282 0.43389 0.15668 0.0
C43 C 0.41054 0.42776 0.10867 0.0
O44 O 0.0991 0.42475 0.06 0.0
O45 O 0.06587 0.38645 0.99234 0.0
O46 O 0.10142 0.37162 0.90945 0.0
O47 O 0.12849 0.39725 0.94502 0.0
O48 O 1.02535 0.40551 0.04854 0.0
O49 O 0.16914 0.42067 0.99407 0.0
O50 O 0.21545 0.34583 0.95002 0.0
O51 O 0.22881 0.38248 -0.00017 0.0
O52 O 0.17243 0.39728 0.08014 0.0
O53 O 0.10757 0.37354 0.04534 0.0
O54 O 0.26953 0.36386 0.94241 0.0
O55 O 0.11703 0.3512 0.00587 0.0
C56 C 0.99746 0.39256 0.01903 0.0
C57 C 0.0513 0.43857 0.01642 0.0
C58 C 1.00571 0.46122 0.00744 0.0
C59 C 0.07161 0.4529 0.01954 0.0
C60 C 0.91901 0.45481 0.99246 0.0
C61 C 0.96496 0.43246 0.00069 0.0
C62 C 0.89925 0.44058 0.98897 0.0
C63 C 0.10735 0.38474 0.90756 0.0
C64 C 0.12144 0.43016 0.02933 0.0
C65 C 0.49853 0.43014 0.09543 0.0
C66 C 0.52172 0.42488 0.04685 0.0
C67 C 0.29786 0.37641 0.97371 0.0
C68 C 0.15231 0.32566 0.96287 0.0
C69 C 0.1993 0.31582 0.97795 0.0
C70 C 0.16994 0.30088 0.96253 0.0
C71 C 0.09485 0.29596 0.93131 0.0
C72 C 0.07782 0.32026 0.93175 0.0
C73 C 0.04961 0.30556 0.91598 0.0
C74 C 0.13682 0.38536 0.08293 0.0
C75 C 0.1781 0.34161 0.9807 0.0
H76 H 0.13917 0.45743 0.0308 0.0
H77 H 0.86552 0.46085 0.98398 0.0
H78 H 0.94833 0.42144 -0.00238 0.0
H79 H 0.83232 0.43585 0.97728 0.0
H80 H 0.25664 0.31984 0.00229 0.0
H81 H 0.07131 0.28458 0.91844 0.0
H82 H 1.04061 0.32741 0.91986 0.0
H83 H 0.99187 0.3016 0.89194 0.0
Tb84 Tb 1.01701 0.65799 0.0398 0.0
C85 C 0.84769 0.60001 0.89858 0.0
C86 C 0.70083 0.59824 0.93166 0.0
C87 C 0.72393 0.58664 0.84524 0.0
C88 C 0.79136 0.6035 0.93782 0.0
C89 C 0.81522 0.59134 0.85185 0.0
C90 C 0.66687 0.59006 0.8851 0.0
C91 C 0.96757 0.5915 0.82224 0.0
N92 N 0.93559 0.60463 0.90647 0.0
C93 C 0.99679 0.59992 0.86934 0.0
C94 C 0.87613 0.58732 0.81337 0.0
Tb95 Tb 0.97639 0.61834 0.98493 0.0
N96 N 0.82651 0.61151 0.98218 0.0
C97 C 0.77648 0.61361 0.02219 0.0
C98 C 0.64799 0.60103 0.97248 0.0
C99 C 0.68644 0.60858 0.01795 0.0
H100 H 0.06757 0.60312 0.87595 0.0
H101 H 0.64667 0.61061 0.04979 0.0
H102 H 0.59723 0.58606 0.8796 0.0
H103 H 1.01561 0.58819 0.79285 0.0
H104 H 0.80512 0.61946 0.05763 0.0
H105 H 0.34562 0.66862 0.98059 0.0
H106 H 0.57815 0.59719 0.9693 0.0
H107 H 0.92335 0.67233 0.14894 0.0
H108 H 0.18766 0.65976 0.9706 0.0
H109 H 0.97321 0.68623 0.23253 0.0
H110 H 0.69743 0.58006 0.80959 0.0
H111 H 0.41394 0.68045 0.06166 0.0
H112 H 0.39371 0.69003 0.15106 0.0
H113 H 0.8538 0.58071 0.77689 0.0
H114 H 0.29196 0.69492 0.21986 0.0
N115 N 0.16521 0.66608 0.04527 0.0
C116 C 0.21556 0.66489 0.0063 0.0
C117 C 0.3441 0.67657 0.05753 0.0
C118 C 0.29091 0.67852 0.09752 0.0
C119 C 0.3057 0.66994 0.01177 0.0
C120 C 0.20047 0.67322 0.09006 0.0
H121 H 0.1345 0.69373 0.25059 0.0
N122 N 0.05563 0.67154 0.11915 0.0
C123 C 1.02195 0.68341 0.20359 0.0
C124 C 0.14355 0.67608 0.12851 0.0
C125 C 0.99386 0.67556 0.15594 0.0
C126 C 0.11309 0.68759 0.21366 0.0
C127 C 0.17494 0.68414 0.17585 0.0
O128 O 0.92965 0.67651 0.05845 0.0
O129 O 0.91496 0.64029 0.00921 0.0
O130 O 0.94771 0.62713 0.93148 0.0
O131 O 1.04119 0.64801 0.96133 0.0
O132 O 0.87672 0.65881 0.0667 0.0
O133 O 1.0261 0.67144 0.00156 0.0
O134 O 0.05486 0.59871 0.9635 0.0
O135 O 0.07632 0.63602 0.01357 0.0
O136 O 0.05697 0.64888 0.0911 0.0
O137 O 0.96579 0.62776 0.06428 0.0
O138 O 0.12129 0.61667 0.96215 0.0
O139 O 0.95398 0.60413 0.01907 0.0
C140 C 0.84702 0.64622 0.03625 0.0
C141 C 0.98863 0.69692 0.04605 0.0
C142 C 0.96989 0.72169 0.04604 0.0
C143 C 0.94696 0.70635 0.02749 0.0
C144 C 1.03406 0.72726 0.08363 0.0
C145 C 0.05243 0.70297 0.0832 0.0
C146 C 0.07491 0.71798 0.10177 0.0
C147 C 0.99629 0.6375 0.92557 0.0
C148 C 0.96495 0.68088 0.0276 0.0
C149 C 0.26621 0.68881 0.18374 0.0
C150 C 0.32414 0.68602 0.14458 0.0
C151 C 0.14754 0.62982 0.99022 0.0
C152 C 0.07242 0.58817 0.02009 0.0
C153 C 0.05866 0.57331 0.01338 0.0
C154 C 0.10863 0.56722 0.04034 0.0
C155 C 0.17339 0.57629 0.07362 0.0
C156 C 0.13718 0.59693 0.05351 0.0
C157 C 0.18752 0.59097 0.07997 0.0
C158 C 1.01659 0.63795 0.09783 0.0
C159 C 1.01498 0.59452 0.9938 0.0
H160 H 0.89771 0.70175 -0.00134 0.0
H161 H 0.05181 0.73894 0.09991 0.0
H162 H 0.0844 0.69614 0.09834 0.0
H163 H 0.12383 0.72249 0.13077 0.0
H164 H 1.00737 0.56664 0.98809 0.0
H165 H 0.21388 0.572 0.09455 0.0
H166 H 0.14814 0.60838 0.05938 0.0
H167 H 0.23751 0.59779 0.10575 0.0
Tb168 Tb 0.10982 0.61666 0.482 0.0
C169 C 0.94671 0.67479 0.62761 0.0
C170 C 0.80129 0.67822 0.59653 0.0
C171 C 0.82566 0.6882 0.68276 0.0
C172 C 0.89068 0.67245 0.58909 0.0
C173 C 0.91567 0.68291 0.67495 0.0
C174 C 0.76854 0.68587 0.64358 0.0
C175 C 0.06686 0.68099 0.70296 0.0
N176 N 1.03351 0.66965 0.61839 0.0
C177 C 0.09475 0.67313 0.65533 0.0
C178 C 0.9767 0.68577 0.71287 0.0
Tb179 Tb 0.07199 0.65642 0.53896 0.0
N180 N 0.92501 0.66499 0.54428 0.0
C181 C 0.87436 0.66367 0.50517 0.0
C182 C 0.74821 0.67636 0.55652 0.0
C183 C 0.78531 0.66918 0.51065 0.0
H184 H 0.16452 0.66945 0.64841 0.0
H185 H 0.74524 0.66781 0.47942 0.0
H186 H 0.69982 0.69026 0.65004 0.0
H187 H 0.11502 0.68337 0.73201 0.0
H188 H 0.90123 0.65815 0.46938 0.0
H189 H 0.43511 0.6071 0.54717 0.0
H190 H 0.67916 0.68058 0.56066 0.0
H191 H 1.02243 0.60143 0.37195 0.0
H192 H 0.27546 0.61531 0.5543 0.0
H193 H 0.07852 0.58817 0.2888 0.0
H194 H 0.80022 0.69438 0.71888 0.0
H195 H 0.51007 0.59638 0.46768 0.0
H196 H 0.49679 0.58755 0.37809 0.0
H197 H 0.95547 0.69194 0.7498 0.0
H198 H 0.39948 0.58247 0.3074 0.0
N199 N 0.25922 0.60954 0.47949 0.0
C200 C 0.30654 0.61055 0.51922 0.0
C201 C 0.43961 0.59991 0.47051 0.0
C202 C 0.38936 0.59811 0.42965 0.0
C203 C 0.39744 0.60591 0.5154 0.0
C204 C 0.29796 0.60293 0.43542 0.0
H205 H 0.2427 0.58244 0.27369 0.0
N206 N 0.15421 0.60374 0.4035 0.0
C207 C 0.12577 0.5915 0.31861 0.0
C208 C 0.24361 0.60002 0.39588 0.0
C209 C 0.09418 0.59895 0.36575 0.0
C210 C 0.21857 0.58835 0.31021 0.0
C211 C 0.2785 0.5923 0.34915 0.0
O212 O 1.0286 0.59735 0.45921 0.0
O213 O 1.01044 0.63451 0.51142 0.0
O214 O 1.0298 0.64702 0.5888 0.0
O215 O 0.12178 0.62598 0.56158 0.0
O216 O 0.96675 0.61556 0.45739 0.0
O217 O 0.12014 0.60275 0.51864 0.0
O218 O 0.16435 0.67428 0.55776 0.0
O219 O 0.17197 0.63851 0.50794 0.0
O220 O 0.13933 0.62598 0.42982 0.0
O221 O 0.04846 0.64711 0.46062 0.0
O222 O 0.21225 0.6567 0.56595 0.0
O223 O 0.06281 0.67083 0.50398 0.0
C224 C 0.93986 0.62854 0.4867 0.0
C225 C 0.09515 0.57708 0.47007 0.0
C226 C 0.09625 0.55228 0.47071 0.0
C227 C 0.06903 0.56743 0.49142 0.0
C228 C 0.15186 0.5472 0.42963 0.0
C229 C 0.14954 0.57144 0.42873 0.0
C230 C 0.17826 0.55671 0.40899 0.0
C231 C 0.07084 0.6361 0.59532 0.0
C232 C 0.06426 0.59283 0.48975 0.0
C233 C 0.37097 0.58827 0.34302 0.0
C234 C 0.42635 0.59116 0.38326 0.0
C235 C 0.24028 0.64403 0.53516 0.0
C236 C 0.10856 0.69581 0.55121 0.0
C237 C 0.14294 0.70523 0.53071 0.0
C238 C 0.12626 0.7208 0.55283 0.0
C239 C 0.07553 0.72659 0.59574 0.0
C240 C 0.05824 0.70211 0.59382 0.0
C241 C 1.04174 0.71732 0.61577 0.0
C242 C 0.09248 0.63663 0.4246 0.0
C243 C 0.12751 0.67957 0.5295 0.0
H244 H 1.02611 0.57156 0.52304 0.0
H245 H 0.17525 0.53579 0.41335 0.0
H246 H 0.16919 0.57835 0.41114 0.0
H247 H 0.2206 0.55259 0.37719 0.0
H248 H 0.18206 0.70047 0.4978 0.0
H249 H 0.06332 0.73841 0.61469 0.0
H250 H 1.03279 0.69534 0.61078 0.0
H251 H 1.00342 0.722 0.64894 0.0
Tb252 Tb 0.99898 0.36608 0.47239 0.0
C253 C 0.76924 0.41512 0.53114 0.0
C254 C 0.73375 0.42535 0.47398 0.0
C255 C 0.61669 0.42447 0.52854 0.0
C256 C 0.79554 0.41843 0.49359 0.0
C257 C 0.67987 0.4184 0.54974 0.0
C258 C 0.64358 0.42793 0.49067 0.0
C259 C 0.72299 0.41018 0.61049 0.0
N260 N 0.83195 0.40911 0.55046 0.0
C261 C 0.81042 0.40706 0.59069 0.0
C262 C 0.65703 0.41572 0.58961 0.0
Tb263 Tb 0.97569 0.4054 0.5174 0.0
N264 N 0.88346 0.41594 0.47881 0.0
C265 C 0.91638 0.42213 0.44936 0.0
C266 C 0.76545 0.43014 0.43986 0.0
C267 C 0.85775 0.42881 0.4283 0.0
H268 H 0.85998 0.40331 0.60869 0.0
H269 H 0.88412 0.43315 0.40376 0.0
H270 H 0.59497 0.43305 0.4756 0.0
H271 H 0.70672 0.40837 0.64204 0.0
H272 H 0.98827 0.42167 0.44138 0.0
H273 H 0.30532 0.3643 0.56776 0.0
H274 H 0.72022 0.43551 0.42402 0.0
H275 H 0.93953 0.34469 0.35992 0.0
H276 H 0.14528 0.37023 0.55987 0.0
H277 H 1.01597 0.32908 0.28347 0.0
H278 H 0.5475 0.42684 0.54188 0.0
H279 H 0.39998 0.35166 0.49522 0.0
H280 H 0.41001 0.33942 0.40502 0.0
H281 H 0.58926 0.41809 0.60494 0.0
H282 H 0.33121 0.33011 0.32693 0.0
N283 N 0.14816 0.36135 0.48354 0.0
C284 C 0.18522 0.3648 0.52786 0.0
C285 C 0.32944 0.35424 0.49151 0.0
C286 C 0.29013 0.35015 0.44618 0.0
C287 C 0.27618 0.36135 0.53251 0.0
C288 C 0.198 0.35378 0.44343 0.0
H289 H 0.18343 0.32593 0.28122 0.0
N290 N 0.06319 0.35103 0.39982 0.0
C291 C 0.05579 0.3346 0.31585 0.0
C292 C 0.1541 0.34859 0.39976 0.0
C293 C 1.01273 0.3434 0.35919 0.0
C294 C 0.15037 0.33292 0.31468 0.0
C295 C 0.20046 0.33957 0.35727 0.0
O296 O 0.91378 0.34704 0.44922 0.0
O297 O 0.90161 0.38466 0.49975 0.0
O298 O 1.01917 0.40026 0.57765 0.0
O299 O 0.9783 0.37543 0.55023 0.0
O300 O 0.86723 0.36637 0.43879 0.0
O301 O 1.0012 0.35232 0.50953 0.0
O302 O 0.98318 0.42303 0.58629 0.0
O303 O 0.07278 0.38725 0.50379 0.0
O304 O 1.02754 0.37198 0.41219 0.0
O305 O 0.96971 0.39606 0.43861 0.0
O306 O 0.11208 0.40432 0.48668 0.0
O307 O 1.04107 0.42538 0.52589 0.0
C308 C 0.83865 0.37922 0.46832 0.0
C309 C 0.97154 0.32676 0.46356 0.0
C310 C 0.94692 0.30138 0.45742 0.0
C311 C 0.91795 0.31638 0.47306 0.0
C312 C 1.03027 0.29716 0.43265 0.0
C313 C 0.05399 0.322 0.43894 0.0
C314 C 0.08284 0.30736 0.42347 0.0
C315 C 1.00306 0.38822 0.58499 0.0
C316 C 0.94422 0.34264 0.48091 0.0
C317 C 0.29395 0.33683 0.35926 0.0
C318 C 0.33875 0.3421 0.40372 0.0
C319 C 0.13887 0.39193 0.48649 0.0
C320 C 0.96382 0.44648 0.58259 0.0
C321 C 0.99651 0.45773 0.56943 0.0
C322 C 0.94598 0.47099 0.58058 0.0
C323 C 0.86182 0.47257 0.60419 0.0
C324 C 0.87998 0.44867 0.60677 0.0
C325 C 0.8295 0.46154 0.61714 0.0
C326 C 1.00298 0.3837 0.40486 0.0
C327 C 1.0152 0.43235 0.5702 0.0
H328 H 0.85436 0.31996 0.49239 0.0
H329 H 0.05644 0.28598 0.42122 0.0
H330 H 0.09727 0.32964 0.43231 0.0
H331 H 0.14715 0.30394 0.4048 0.0
H332 H 0.06121 0.45621 0.55102 0.0
H333 H 0.81981 0.48231 0.61217 0.0
H334 H 0.8525 0.44038 0.61749 0.0
H335 H 0.76454 0.46296 0.63522 0.0
Tb336 Tb 0.62733 0.90442 0.01873 0.0
C337 C 0.45098 0.8472 0.90314 0.0
C338 C 0.31536 0.84903 0.94992 0.0
C339 C 0.31093 0.83527 0.86316 0.0
C340 C 0.40743 0.8526 0.94685 0.0
C341 C 0.40436 0.83799 0.86092 0.0
C342 C 0.26646 0.84077 0.90768 0.0
C343 C 0.54867 0.83286 0.81934 0.0
N344 N 0.54177 0.84966 0.90295 0.0
C345 C 0.59197 0.84187 0.86243 0.0
C346 C 0.45413 0.83115 0.81835 0.0
Tb347 Tb 0.60638 0.8651 0.97503 0.0
N348 N 0.45748 0.86039 0.98673 0.0
C349 C 0.42079 0.86406 0.03122 0.0
C350 C 0.27634 0.85339 0.99538 0.0
C351 C 0.32989 0.86068 0.03621 0.0
H352 H 0.66513 0.84319 0.863 0.0
H353 H 0.30102 0.86383 0.07158 0.0
H354 H 0.19523 0.83814 0.90921 0.0
H355 H 0.58827 0.82721 0.78701 0.0
H356 H 0.46093 0.86961 0.06311 0.0
H357 H 0.72211 0.93139 0.90332 0.0
H358 H 0.20584 0.85087 -0.00066 0.0
H359 H 0.74041 0.90347 0.11273 0.0
H360 H 0.61681 0.92034 0.94159 0.0
H361 H 0.89314 0.90858 0.14674 0.0
H362 H 0.27347 0.82841 0.83102 0.0
H363 H 0.88573 0.93379 0.92442 0.0
H364 H 1.00984 0.93166 0.97733 0.0
H365 H 0.42087 0.82401 0.7851 0.0
H366 H 0.05561 0.92597 0.04497 0.0
N367 N 0.72063 0.91481 0.98017 0.0
C368 C 0.68854 0.92079 0.94991 0.0
C369 C 0.83997 0.92859 0.94054 0.0
C370 C 0.87077 0.92408 0.97549 0.0
C371 C 0.74785 0.92724 0.92851 0.0
C372 C 0.80829 0.91738 0.99543 0.0
H373 H 1.01205 0.91779 0.10908 0.0
N374 N 0.77021 0.90856 0.05322 0.0
C375 C 0.87778 0.9101 0.11455 0.0
C376 C 0.83358 0.91437 0.03372 0.0
C377 C 0.79065 0.9069 0.09429 0.0
C378 C 0.94452 0.91536 0.09337 0.0
C379 C 0.92268 0.91772 0.05278 0.0
O380 O 0.61584 0.92216 0.08716 0.0
O381 O 0.5311 0.88616 0.00543 0.0
O382 O 0.57894 0.87058 0.91376 0.0
O383 O 0.63345 0.89486 0.93991 0.0
O384 O 0.49164 0.90294 0.98685 0.0
O385 O 0.56207 0.92426 0.02548 0.0
O386 O 0.69169 0.84607 0.95245 0.0
O387 O 0.7025 0.88383 0.00195 0.0
O388 O 0.58351 0.89937 0.07914 0.0
O389 O 0.62869 0.87477 0.05277 0.0
O390 O 0.73778 0.86548 0.94146 0.0
O391 O 0.6062 0.85174 0.01353 0.0
C392 C 0.4652 0.89062 0.98729 0.0
C393 C 0.63443 0.9457 0.08393 0.0
C394 C 0.65457 0.96997 0.08027 0.0
C395 C 0.60615 0.95641 0.06719 0.0
C396 C 0.73057 0.97258 0.11085 0.0
C397 C 0.71155 0.94874 0.11379 0.0
C398 C 0.75881 0.96205 0.12706 0.0
C399 C 0.6022 0.88231 0.90614 0.0
C400 C 0.58477 0.93134 0.07026 0.0
C401 C 0.98661 0.92355 0.03128 0.0
C402 C 0.96069 0.92672 0.99265 0.0
C403 C 0.76564 0.87842 0.97072 0.0
C404 C 0.63663 0.82612 0.96946 0.0
C405 C 0.69006 0.81624 0.9816 0.0
C406 C 0.65988 0.8015 0.9696 0.0
C407 C 0.57739 0.79679 0.94444 0.0
C408 C 0.55459 0.82096 0.94462 0.0
C409 C 0.52562 0.80642 0.93193 0.0
C410 C 0.60178 0.88748 0.08708 0.0
C411 C 0.66295 0.84198 0.98512 0.0
H412 H 0.54755 0.95409 0.04366 0.0
H413 H 0.76805 0.98292 0.12309 0.0
H414 H 0.73572 0.94086 0.1272 0.0
H415 H 0.81761 0.96426 0.15039 0.0
H416 H 0.75301 0.82011 0.00141 0.0
H417 H 0.55287 0.78556 0.93432 0.0
H418 H 0.51181 0.82821 0.93562 0.0
H419 H 0.46202 0.80264 0.91275 0.0
Tb420 Tb 0.48771 0.15574 0.03375 0.0
C421 C 0.3118 0.09851 0.89847 0.0
C422 C 0.16684 0.09879 0.93587 0.0
C423 C 0.17983 0.08697 0.84894 0.0
C424 C 0.25936 0.10295 0.9391 0.0
C425 C 0.27385 0.08991 0.85296 0.0
C426 C 0.12628 0.09139 0.89046 0.0
C427 C 0.42646 0.0854 0.82074 0.0
N428 N 0.40263 0.10097 0.90446 0.0
C429 C 0.46071 0.09377 0.86688 0.0
C430 C 0.3324 0.08373 0.81353 0.0
Tb431 Tb 0.4532 0.11572 0.98073 0.0
N432 N 0.30221 0.10965 0.98204 0.0
C433 C 0.25818 0.11114 0.02314 0.0
C434 C 0.11969 0.10136 0.9782 0.0
C435 C 0.16628 0.1072 0.0219 0.0
H436 H 0.53355 0.09509 0.87222 0.0
H437 H 0.13128 0.10882 0.05476 0.0
H438 H 0.05483 0.08838 0.88718 0.0
H439 H 0.47264 0.08021 0.79083 0.0
H440 H 0.29242 0.11577 0.05739 0.0
H441 H 0.80638 0.16544 0.96288 0.0
H442 H 0.04858 0.09833 0.97735 0.0
H443 H 0.40626 0.16962 0.14516 0.0
H444 H 0.65094 0.15582 0.95789 0.0
H445 H 0.46307 0.18453 0.22707 0.0
H446 H 0.14893 0.08059 0.81423 0.0
H447 H 0.87901 0.17928 0.042 0.0
H448 H 0.86677 0.19016 0.13198 0.0
H449 H 0.30605 0.07706 0.77792 0.0
H450 H 0.77385 0.19519 0.20394 0.0
N451 N 0.63423 0.16382 0.03377 0.0
C452 C 0.68076 0.16185 0.99286 0.0
C453 C 0.81025 0.1751 0.04014 0.0
C454 C 0.76134 0.17758 0.08191 0.0
C455 C 0.76944 0.16731 0.99544 0.0
C456 C 0.6722 0.17183 0.07745 0.0
H457 H 0.62298 0.19321 0.23975 0.0
N458 N 0.53376 0.16935 0.11155 0.0
C459 C 0.50819 0.18176 0.19665 0.0
C460 C 0.62047 0.1746 0.1178 0.0
C461 C 0.47619 0.17332 0.1501 0.0
C462 C 0.59855 0.18661 0.20367 0.0
C463 C 0.65556 0.18326 0.16394 0.0
O464 O 0.39534 0.17368 0.05514 0.0
O465 O 0.38841 0.13753 0.00305 0.0
O466 O 0.44122 0.12262 0.92156 0.0
O467 O 0.49934 0.14691 0.95534 0.0
O468 O 0.35041 0.15572 0.0626 0.0
O469 O 0.49329 0.17051 -3e-05 0.0
O470 O 0.52975 0.09588 0.95993 0.0
O471 O 0.55007 0.13394 0.00628 0.0
O472 O 0.53544 0.14692 0.08414 0.0
O473 O 0.44257 0.12614 0.06004 0.0
O474 O 0.59724 0.11431 0.95752 0.0
O475 O 0.45095 0.10387 0.0242 0.0
C476 C 0.32142 0.14317 0.0313 0.0
C477 C 0.4489 0.19546 0.049 0.0
C478 C 0.43618 0.22038 0.0495 0.0
C479 C 0.41885 0.20483 0.0273 0.0
C480 C 0.4835 0.22621 0.09351 0.0
C481 C 0.49506 0.20185 0.09301 0.0
C482 C 0.51264 0.21703 0.11485 0.0
C483 C 0.47115 0.13481 0.91837 0.0
C484 C 0.42984 0.17919 0.02693 0.0
C485 C 0.74532 0.18861 0.16878 0.0
C486 C 0.79815 0.18576 0.12781 0.0
C487 C 0.62214 0.12772 0.98371 0.0
C488 C 0.46418 0.07774 0.98236 0.0
C489 C 0.50261 0.06817 0.00133 0.0
C490 C 0.4631 0.05407 0.99065 0.0
C491 C 0.38604 0.0497 0.96081 0.0
C492 C 0.38816 0.07282 0.95204 0.0
C493 C 0.34938 0.05897 0.94146 0.0
C494 C 0.49564 0.13625 0.09231 0.0
C495 C 0.50053 0.09295 0.99508 0.0
H496 H 0.38243 0.20006 0.99347 0.0
H497 H 0.4962 0.23802 0.11238 0.0
H498 H 0.51628 0.19521 0.11126 0.0
H499 H 0.54796 0.22174 0.14899 0.0
H500 H 0.56156 0.07174 0.0247 0.0
H501 H 0.35471 0.03897 0.95199 0.0
H502 H 0.35823 0.07969 0.93657 0.0
H503 H 0.29039 0.05541 0.91816 0.0
Tb504 Tb 0.6225 0.11842 0.48542 0.0
C505 C 0.45511 0.17797 0.61647 0.0
C506 C 0.31234 0.17861 0.57804 0.0
C507 C 0.32697 0.1918 0.66466 0.0
C508 C 0.403 0.17359 0.5755 0.0
C509 C 0.41904 0.18762 0.66133 0.0
C510 C 0.27362 0.1873 0.62301 0.0
C511 C 0.57092 0.19035 0.69429 0.0
N512 N 0.54445 0.17412 0.61132 0.0
C513 C 0.60358 0.18085 0.64889 0.0
C514 C 0.47788 0.19348 0.7008 0.0
Tb515 Tb 0.5925 0.15853 0.53557 0.0
N516 N 0.44356 0.16539 0.53278 0.0
C517 C 0.39864 0.16283 0.49085 0.0
C518 C 0.2646 0.17524 0.53526 0.0
C519 C 0.30848 0.16751 0.49148 0.0
H520 H 0.67562 0.17847 0.64424 0.0
H521 H 0.2728 0.16509 0.45812 0.0
H522 H 0.20367 0.19106 0.62576 0.0
H523 H 0.61756 0.19524 0.7242 0.0
H524 H 0.4306 0.15683 0.4565 0.0
H525 H 0.85165 0.11784 0.62458 0.0
H526 H 0.19482 0.17886 0.53563 0.0
H527 H 0.65081 0.10107 0.36491 0.0
H528 H 0.70823 0.1217 0.59284 0.0
H529 H 0.77657 0.09234 0.30787 0.0
H530 H 0.29754 0.19904 0.6989 0.0
H531 H 0.98635 0.10909 0.57218 0.0
H532 H 0.05522 0.10124 0.4909 0.0
H533 H 0.45291 0.20095 0.73588 0.0
H534 H 1.03648 0.09539 0.40528 0.0
N535 N 0.75695 0.11583 0.52113 0.0
C536 C 0.76453 0.11819 0.56844 0.0
C537 C 0.92253 0.11083 0.55747 0.0
C538 C 0.91485 0.10806 0.5091 0.0
C539 C 0.84683 0.11582 0.58713 0.0
C540 C 0.82998 0.1105 0.49163 0.0
H541 H 0.93343 0.09223 0.33685 0.0
N542 N 0.73551 0.10878 0.42763 0.0
C543 C 0.79036 0.09688 0.34604 0.0
C544 C 0.81968 0.10734 0.44364 0.0
C545 C 0.71918 0.10236 0.379 0.0
C546 C 0.87856 0.09677 0.36249 0.0
C547 C 0.89358 0.10146 0.41162 0.0
O548 O 0.58236 0.09662 0.43937 0.0
O549 O 0.52668 0.13685 0.51147 0.0
O550 O 0.563 0.15241 0.59522 0.0
O551 O 0.57907 0.12648 0.56091 0.0
O552 O 0.4801 0.11719 0.46083 0.0
O553 O 0.59214 0.10316 0.51517 0.0
O554 O 0.68703 0.17618 0.55293 0.0
O555 O 0.69016 0.13997 0.5052 0.0
O556 O 0.60174 0.12367 0.4236 0.0
O557 O 0.58464 0.14949 0.4571 0.0
O558 O 0.72817 0.15833 0.56511 0.0
O559 O 0.58622 0.17247 0.49899 0.0
C560 C 0.45493 0.13056 0.48804 0.0
C561 C 0.62549 0.07791 0.46511 0.0
C562 C 0.63326 0.05423 0.47316 0.0
C563 C 0.58628 0.06749 0.48016 0.0
C564 C 0.7192 0.0516 0.45101 0.0
C565 C 0.7103 0.07464 0.44193 0.0
C566 C 0.75694 0.06168 0.43531 0.0
C567 C 0.56272 0.13939 0.59786 0.0
C568 C 0.57849 0.09212 0.47362 0.0
C569 C 0.97892 0.09969 0.42924 0.0
C570 C 0.98942 0.10293 0.47788 0.0
C571 C 0.75645 0.14569 0.53417 0.0
C572 C 0.63428 0.19743 0.54291 0.0
C573 C 0.68287 0.20666 0.52597 0.0
C574 C 0.6669 0.22221 0.54608 0.0
C575 C 0.60149 0.22825 0.58257 0.0
C576 C 0.56854 0.20392 0.57876 0.0
C577 C 0.55248 0.21916 0.59848 0.0
C578 C 0.58922 0.13638 0.42003 0.0
C579 C 0.65173 0.18115 0.52356 0.0
H580 H 0.52028 0.06974 0.49756 0.0
H581 H 0.75651 0.04153 0.44486 0.0
H582 H 0.74057 0.082 0.42843 0.0
H583 H 0.82252 0.05939 0.41756 0.0
H584 H 0.7334 0.20183 0.49796 0.0
H585 H 0.58719 0.24007 0.59836 0.0
H586 H 0.52912 0.19726 0.59163 0.0
H587 H 0.50156 0.22395 0.62625 0.0
Tb588 Tb 0.46707 0.86257 0.46576 0.0
C589 C 0.24274 0.91401 0.57081 0.0
C590 C 0.13917 0.91424 0.50959 0.0
C591 C 0.08506 0.92193 0.59114 0.0
C592 C 0.22634 0.91138 0.52363 0.0
C593 C 0.1727 0.91977 0.6054 0.0
C594 C 0.06842 0.91923 0.54334 0.0
C595 C 0.28388 0.92341 0.66695 0.0
N596 N 0.32883 0.91212 0.58356 0.0
C597 C 0.35101 0.91803 0.63156 0.0
C598 C 0.19374 0.92393 0.65372 0.0
Tb599 Tb 0.43455 0.90281 0.52178 0.0
N600 N 0.29565 0.90612 0.49154 0.0
C601 C 0.282 0.90422 0.44498 0.0
C602 C 0.12545 0.91205 0.46206 0.0
C603 C 0.19742 0.90713 0.42976 0.0
H604 H 0.42104 0.91896 0.64322 0.0
H605 H 0.18775 0.90548 0.39286 0.0
H606 H 1.00092 0.92124 0.53295 0.0
H607 H 0.30225 0.92754 0.70451 0.0
H608 H 0.33488 0.90051 0.41851 0.0
H609 H 0.79104 0.85345 0.53396 0.0
H610 H 0.05973 0.91415 0.44998 0.0
H611 H 0.37731 0.84574 0.35665 0.0
H612 H 0.63482 0.86267 0.5401 0.0
H613 H 0.42872 0.82954 0.27491 0.0
H614 H 1.03042 0.92614 0.6171 0.0
H615 H 0.86191 0.8398 0.45437 0.0
H616 H 0.8456 0.8284 0.36455 0.0
H617 H 0.14198 0.92837 0.68126 0.0
H618 H 0.74684 0.82193 0.29367 0.0
N619 N 0.61537 0.85483 0.46434 0.0
C620 C 0.66344 0.85676 0.50486 0.0
C621 C 0.79273 0.84387 0.45672 0.0
C622 C 0.74184 0.84118 0.41533 0.0
C623 C 0.75285 0.85152 0.50166 0.0
C624 C 0.65216 0.84678 0.42045 0.0
H625 H 0.59045 0.82197 0.26 0.0
N626 N 0.50928 0.84781 0.38805 0.0
C627 C 0.47699 0.83337 0.30431 0.0
C628 C 0.59719 0.84317 0.38074 0.0
C629 C 0.44812 0.84257 0.35082 0.0
C630 C 0.56839 0.82917 0.29601 0.0
C631 C 0.62948 0.83384 0.3346 0.0
O632 O 0.37565 0.8444 0.44555 0.0
O633 O 0.36858 0.88099 0.49855 0.0
O634 O 0.45939 0.89628 0.58079 0.0
O635 O 0.48255 0.87058 0.54372 0.0
O636 O 0.33071 0.86312 0.43739 0.0
O637 O 0.47039 0.84879 0.50277 0.0
O638 O 0.48164 0.92407 0.5683 0.0
O639 O 0.52973 0.8844 0.49433 0.0
O640 O 0.50551 0.87021 0.41045 0.0
O641 O 0.4692 0.89557 0.44538 0.0
O642 O 0.58102 0.90429 0.54019 0.0
O643 O 0.45459 0.91892 0.49422 0.0
C644 C 0.30216 0.87551 0.46953 0.0
C645 C 0.42903 0.82359 0.45828 0.0
C646 C 0.40679 0.79917 0.45999 0.0
C647 C 0.3816 0.81431 0.47541 0.0
C648 C 0.47832 0.79352 0.42685 0.0
C649 C 0.49962 0.81745 0.4251 0.0
C650 C 0.52387 0.80257 0.40945 0.0
C651 C 0.47666 0.88335 0.58214 0.0
C652 C 0.40807 0.83973 0.4763 0.0
C653 C 0.72034 0.82896 0.32889 0.0
C654 C 0.77651 0.83264 0.36924 0.0
C655 C 0.60434 0.89081 0.51351 0.0
C656 C 0.42965 0.94396 0.55027 0.0
C657 C 0.45929 0.95435 0.5326 0.0
C658 C 0.41633 0.96843 0.54757 0.0
C659 C 0.34377 0.9718 0.58049 0.0
C660 C 0.35696 0.94782 0.58292 0.0
C661 C 0.31435 0.96157 0.59767 0.0
C662 C 0.49559 0.88326 0.40846 0.0
C663 C 0.47607 0.92935 0.53592 0.0
H664 H 0.32715 0.81888 0.50129 0.0
H665 H 0.49864 0.78198 0.41403 0.0
H666 H 0.53679 0.82415 0.41145 0.0
H667 H 0.57872 0.79805 0.38385 0.0
H668 H 0.51532 0.95145 0.50735 0.0
H669 H 0.31057 0.98253 0.59407 0.0
H670 H 0.33369 0.94037 0.5979 0.0
H671 H 0.25887 0.96441 0.6232 0.0
H672 H 0.43248 0.36799 0.90729 0.0
H673 H 0.39601 0.38998 0.06012 0.0
H674 H 0.59552 0.37073 0.91684 0.0
H675 H 0.5598 0.39413 0.07069 0.0
H676 H 0.86874 0.39574 0.08641 0.0
H677 H 0.70558 0.39181 0.07761 0.0
H678 H 0.73167 0.3798 0.92513 0.0
H679 H 0.89591 0.3828 0.93468 0.0
C680 C 0.45954 0.37378 0.94328 0.0
C681 C 0.39941 0.37935 0.98266 0.0
C682 C 0.55485 0.37556 0.949 0.0
C683 C 0.59592 0.38308 0.99468 0.0
C684 C 0.53491 0.38823 0.03447 0.0
C685 C 0.43911 0.38612 0.0286 0.0
C686 C 0.83935 0.392 0.05083 0.0
C687 C 0.89677 0.3891 0.01111 0.0
C688 C 0.74402 0.38988 0.04557 0.0
C689 C 0.70033 0.38528 0.00036 0.0
C690 C 0.75886 0.38288 0.96073 0.0
C691 C 0.85476 0.38464 0.96597 0.0
H692 H 0.24753 0.64057 0.07497 0.0
H693 H 0.27589 0.62733 0.9232 0.0
H694 H 0.41125 0.64398 0.08509 0.0
H695 H 0.43875 0.63154 0.93241 0.0
H696 H 0.74813 0.63324 0.95002 0.0
H697 H 0.58427 0.62956 0.93945 0.0
H698 H 0.5495 0.65201 0.09364 0.0
H699 H 0.71278 0.65439 0.10307 0.0
C700 C 0.28879 0.6388 0.04378 0.0
C701 C 0.24717 0.63409 -0.00155 0.0
C702 C 0.38457 0.64075 0.04933 0.0
C703 C 0.4436 0.63822 0.00978 0.0
C704 C 0.40014 0.63355 0.96444 0.0
C705 C 0.30488 0.63127 0.95891 0.0
C706 C 0.70523 0.63702 0.9816 0.0
C707 C 0.74528 0.64352 0.02754 0.0
C708 C 0.60927 0.63517 0.97575 0.0
C709 C 0.54831 0.64023 0.01557 0.0
C710 C 0.58988 0.64734 0.06135 0.0
C711 C 0.6854 0.64888 0.06705 0.0
H712 H 0.80587 0.62149 0.41971 0.0
H713 H 0.84309 0.64269 0.57264 0.0
H714 H 0.64249 0.62426 0.42957 0.0
H715 H 0.67977 0.64685 0.58356 0.0
H716 H 0.37223 0.64689 0.60079 0.0
H717 H 0.53546 0.64354 0.59072 0.0
H718 H 0.50387 0.63269 0.43924 0.0
H719 H 0.33945 0.63517 0.45 0.0
C720 C 0.77902 0.6272 0.45575 0.0
C721 C 0.83939 0.63238 0.49514 0.0
C722 C 0.68357 0.62892 0.46169 0.0
C723 C 0.64275 0.63602 0.5076 0.0
C724 C 0.70429 0.64116 0.54722 0.0
C725 C 0.80002 0.63912 0.54113 0.0
C726 C 0.40035 0.64356 0.56513 0.0
C727 C 0.3413 0.64086 0.52609 0.0
C728 C 0.49578 0.64178 0.55914 0.0
C729 C 0.53807 0.63776 0.51386 0.0
C730 C 0.47788 0.63544 0.47485 0.0
C731 C 0.38186 0.63688 0.48081 0.0
H732 H 0.722 0.37689 0.53542 0.0
H733 H 0.72342 0.38671 0.41147 0.0
H734 H 0.55544 0.37919 0.53969 0.0
H735 H 0.5574 0.3894 0.41594 0.0
H736 H 0.24923 0.38052 0.4073 0.0
H737 H 0.41517 0.37764 0.40352 0.0
H738 H 0.42541 0.39482 0.55812 0.0
H739 H 0.25888 0.39725 0.56115 0.0
C740 C 0.68687 0.37991 0.5097 0.0
C741 C 0.73723 0.3822 0.47426 0.0
C742 C 0.59061 0.38119 0.51197 0.0
C743 C 0.54043 0.3846 0.47838 0.0
C744 C 0.59148 0.38663 0.44242 0.0
C745 C 0.68758 0.38527 0.4401 0.0
C746 C 0.28684 0.38338 0.44041 0.0
C747 C 0.23949 0.38841 0.48433 0.0
C748 C 0.38291 0.38194 0.43842 0.0
C749 C 0.43626 0.38589 0.48049 0.0
C750 C 0.38842 0.39128 0.5246 0.0
C751 C 0.29219 0.39265 0.52647 0.0
H752 H 0.88198 0.87682 0.03924 0.0
H753 H 0.88058 0.88545 0.91301 0.0
H754 H 0.0486 0.87901 0.04334 0.0
H755 H 0.04659 0.88806 0.9173 0.0
H756 H 0.35381 0.87881 0.90853 0.0
H757 H 0.1878 0.87613 0.90541 0.0
H758 H 0.17978 0.89428 0.06023 0.0
H759 H 0.34641 0.8965 0.06262 0.0
C760 C 0.91714 0.87957 0.01298 0.0
C761 C 0.86683 0.88152 0.97686 0.0
C762 C 1.01343 0.88079 0.01514 0.0
C763 C 0.0636 0.8838 0.98079 0.0
C764 C 1.01252 0.88557 0.94433 0.0
C765 C 0.91644 0.88427 0.94211 0.0
C766 C 0.31666 0.88193 0.94185 0.0
C767 C 0.36461 0.88718 0.98567 0.0
C768 C 0.22056 0.88061 0.94023 0.0
C769 C 0.1678 0.88491 0.98256 0.0
C770 C 0.21629 0.89048 0.02655 0.0
C771 C 0.31256 0.89173 0.02805 0.0
H772 H 0.22173 0.13441 0.9461 0.0
H773 H 0.18911 0.14705 0.09739 0.0
H774 H 0.05699 0.13225 0.93547 0.0
H775 H 1.02575 0.14399 0.08749 0.0
H776 H 0.71862 0.14293 0.06921 0.0
H777 H 0.88165 0.14745 0.07986 0.0
H778 H 0.91887 0.12345 0.92633 0.0
H779 H 0.75551 0.12037 0.91656 0.0
C780 C 0.17927 0.13642 0.97707 0.0
C781 C 0.21991 0.1405 0.02242 0.0
C782 C 0.08316 0.13514 0.97118 0.0
C783 C 1.02309 0.13774 0.01035 0.0
C784 C 0.06541 0.14199 0.05577 0.0
C785 C 0.16089 0.14361 0.06167 0.0
C786 C 0.76148 0.13917 0.03766 0.0
C787 C 0.72206 0.13197 0.99178 0.0
C788 C 0.85709 0.1414 0.04364 0.0
C789 C 0.91851 0.13594 0.00409 0.0
C790 C 0.87773 0.12838 0.95831 0.0
C791 C 0.78235 0.12649 0.95244 0.0
H792 H 0.35895 0.14527 0.57397 0.0
H793 H 0.32104 0.12298 0.42121 0.0
H794 H 0.1952 0.14964 0.58468 0.0
H795 H 0.15758 0.12599 0.43109 0.0
H796 H 0.85795 0.1387 0.45069 0.0
H797 H 1.02295 0.13653 0.441 0.0
H798 H 0.05062 0.14508 0.59087 0.0
H799 H 0.8869 0.14826 0.60022 0.0
C800 C 0.31565 0.14149 0.54248 0.0
C801 C 0.35471 0.13445 0.49651 0.0
C802 C 0.22002 0.14367 0.54848 0.0
C803 C 0.15873 0.13838 0.50882 0.0
C804 C 0.19908 0.13086 0.46303 0.0
C805 C 0.29432 0.12898 0.45715 0.0
C806 C 0.89961 0.13998 0.48136 0.0
C807 C 0.85794 0.14308 0.52584 0.0
C808 C 0.99566 0.13868 0.47598 0.0
C809 C 0.05451 0.14034 0.51484 0.0
C810 C 1.01144 0.1438 0.55956 0.0
C811 C 0.91594 0.14544 0.56502 0.0
H812 H 0.70062 0.87574 0.42818 0.0
H813 H 0.73602 0.89746 0.5812 0.0
H814 H 0.86423 0.87121 0.41811 0.0
H815 H 0.89957 0.89431 0.57202 0.0
H816 H 0.20014 0.88194 0.55267 0.0
H817 H 1.03491 0.88388 0.562 0.0
H818 H 1.00829 0.87623 0.41284 0.0
H819 H 0.17207 0.87329 0.4038 0.0
C820 C 0.74326 0.87929 0.45987 0.0
C821 C 0.7035 0.88625 0.50569 0.0
C822 C 0.83887 0.87706 0.45425 0.0
C823 C 0.89955 0.88224 0.49418 0.0
C824 C 0.85851 0.88956 0.53987 0.0
C825 C 0.76323 0.89149 0.54536 0.0
C826 C 0.15864 0.88082 0.52211 0.0
C827 C 0.2006 0.87805 0.47792 0.0
C828 C 0.06249 0.88197 0.52727 0.0
C829 C 1.00387 0.88047 0.48847 0.0
C830 C 0.04727 0.87735 0.44407 0.0
C831 C 0.14282 0.87587 0.43881 0.0
H832 H 0.09686 0.55705 0.1108 0.0
H833 H 0.08551 0.54186 0.95693 0.0
H834 H 0.07498 0.5317 0.10209 0.0
H835 H 0.06605 0.51636 0.94784 0.0
H836 H 0.94409 0.4741 0.94868 0.0
H837 H 0.96692 0.49929 0.95679 0.0
H838 H 0.1414 0.50826 0.07942 0.0
H839 H 0.11342 0.4833 0.07323 0.0
C840 C 0.0906 0.54826 0.07496 0.0
C841 C 0.09316 0.55158 0.03458 0.0
C842 C 0.07843 0.53363 0.06989 0.0
C843 C 0.0691 0.52175 0.02419 0.0
C844 C 0.07144 0.52511 0.98375 0.0
C845 C 0.08279 0.53979 0.9889 0.0
C846 C 0.98647 0.48145 0.97786 0.0
C847 C 1.02587 0.47652 0.01061 0.0
C848 C 1.00083 0.49595 0.98207 0.0
C849 C 0.05593 0.50605 0.01891 0.0
C850 C 0.09714 0.50102 0.05102 0.0
C851 C 0.08219 0.48653 0.04702 0.0
H852 H 1.03022 0.46866 0.49729 0.0
H853 H 0.93351 0.50114 0.63381 0.0
H854 H 0.06753 0.48862 0.47336 0.0
H855 H 0.96608 0.52097 0.60911 0.0
H856 H 0.10443 0.55496 0.56391 0.0
H857 H 0.07602 0.53554 0.59208 0.0
H858 H 0.99414 0.50548 0.44872 0.0
H859 H 1.02454 0.52469 0.42087 0.0
C860 C 1.01755 0.48004 0.5224 0.0
C861 C 0.97788 0.48318 0.56733 0.0
C862 C 1.03766 0.49154 0.5084 0.0
C863 C 1.01863 0.50653 0.53889 0.0
C864 C 0.98222 0.50967 0.58453 0.0
C865 C 0.96248 0.4982 0.59854 0.0
C866 C 0.07918 0.54425 0.53871 0.0
C867 C 0.06732 0.54137 0.49011 0.0
C868 C 0.06307 0.53306 0.55474 0.0
C869 C 1.03404 0.51873 0.52261 0.0
C870 C 1.01897 0.51614 0.47441 0.0
C871 C 1.03554 0.52724 0.45845 0.0
H872 H 0.76563 0.98824 0.05648 0.0
H873 H 0.48147 0.97847 0.06558 0.0
H874 H 0.72387 1.00918 0.03957 0.0
H875 H 0.43913 0.99882 0.04462 0.0
H876 H 0.38095 0.04463 0.05238 0.0
H877 H 0.42745 0.02438 0.07301 0.0
H878 H 0.66957 0.01801 0.98632 0.0
H879 H 0.62432 0.03886 0.96823 0.0
C880 C 0.69386 0.99048 0.05467 0.0
C881 C 0.62714 0.98168 0.06348 0.0
C882 C 0.66971 1.00248 0.04411 0.0
C883 C 0.57773 1.00601 0.04098 0.0
C884 C 0.51079 0.99682 0.04781 0.0
C885 C 0.53508 0.9849 0.05905 0.0
C886 C 0.44525 0.0391 0.03883 0.0
C887 C 0.49983 0.0435 0.00943 0.0
C888 C 0.47137 0.02726 0.04989 0.0
C889 C 0.55212 0.01922 0.03102 0.0
C890 C 0.60766 0.02392 0.00235 0.0
C891 C 0.58204 0.03594 0.99194 0.0
H892 H 0.469 0.03985 0.44759 0.0
H893 H 0.71227 0.04221 0.52926 0.0
H894 H 0.41736 0.0184 0.46076 0.0
H895 H 0.65965 0.0213 0.54467 0.0
H896 H 0.59134 0.97525 0.53005 0.0
H897 H 0.64027 0.99572 0.51123 0.0
H898 H 0.3596 1.00911 0.51252 0.0
H899 H 0.31091 0.98809 0.52748 0.0
C900 C 0.51027 0.036 0.46943 0.0
C901 C 0.59449 0.04275 0.48749 0.0
C902 C 0.48091 0.02364 0.47702 0.0
C903 C 0.53446 0.01783 0.5035 0.0
C904 C 0.61726 0.02504 0.52299 0.0
C905 C 0.64705 0.03722 0.51477 0.0
C906 C 0.53994 0.98236 0.52527 0.0
C907 C 0.44706 0.98001 0.53103 0.0
C908 C 0.5681 0.99434 0.51528 0.0
C909 C 0.50433 1.00443 0.51109 0.0
C910 C 0.41132 1.0017 0.51514 0.0
C911 C 0.38326 0.98966 0.5245 0.0
H912 H 0.08891 0.28386 0.00182 0.0
H913 H 0.35101 0.29309 0.95723 0.0
H914 H 0.15546 0.26404 0.01863 0.0
H915 H 0.41814 0.2728 0.97225 0.0
H916 H 0.52566 0.24446 0.04762 0.0
H917 H 0.4645 0.26408 0.02843 0.0
H918 H 0.21178 0.23977 0.98351 0.0
H919 H 0.27162 0.22052 0.00582 0.0
C920 C 0.16117 0.28165 -0.00426 0.0
C921 C 0.2147 0.2901 0.97832 0.0
C922 C 0.19935 0.2701 0.00477 0.0
C923 C 0.29237 0.26647 -0.00384 0.0
C924 C 0.3465 0.27523 0.97982 0.0
C925 C 0.30822 0.28693 0.97127 0.0
C926 C 0.45682 0.24327 0.03374 0.0
C927 C 0.40319 0.23094 0.0292 0.0
C928 C 0.42187 0.25453 0.02214 0.0
C929 C 0.33223 0.2538 0.00496 0.0
C930 C 0.28025 0.24104 -0.00218 0.0
C931 C 0.31513 0.2298 0.00984 0.0
H932 H 0.59533 0.78587 0.01794 0.0
H933 H 0.83845 0.79244 0.95064 0.0
H934 H 0.67046 0.7663 0.03283 0.0
H935 H 0.91356 0.77233 0.96349 0.0
H936 H 0.05102 0.74478 0.03329 0.0
H937 H 0.97955 0.7642 0.01676 0.0
H938 H 0.72036 0.74179 -0.00166 0.0
H939 H 0.79148 0.72281 0.01833 0.0
C940 C 0.66529 0.78312 0.0064 0.0
C941 C 0.71103 0.79078 0.98331 0.0
C942 C 0.70827 0.7717 0.01435 0.0
C943 C 0.7983 0.76739 -0.00113 0.0
C944 C 0.84471 0.77532 0.97655 0.0
C945 C 0.80182 0.78691 0.96917 0.0
C946 C 0.97852 0.74399 0.02606 0.0
C947 C 0.92704 0.73226 0.02821 0.0
C948 C 0.93743 0.75513 0.01585 0.0
C949 C 0.84331 0.75487 0.00669 0.0
C950 C 0.79251 0.74271 0.0064 0.0
C951 C 0.83366 0.73161 0.0171 0.0
H952 H 0.29291 0.72039 0.51024 0.0
H953 H 1.04233 0.74538 0.55121 0.0
H954 H 0.35658 0.73923 0.48723 0.0
H955 H 0.10757 0.76462 0.53167 0.0
H956 H 0.22469 0.79244 0.45758 0.0
H957 H 0.15481 0.77281 0.47491 0.0
H958 H 0.41712 0.76312 0.51958 0.0
H959 H 0.48638 0.78225 0.50016 0.0
C960 C 0.25104 0.72983 0.5141 0.0
C961 C 0.16268 0.73135 0.5333 0.0
C962 C 0.28817 0.74083 0.50167 0.0
C963 C 0.23831 0.75376 0.50828 0.0
C964 C 0.14864 0.75493 0.52568 0.0
C965 C 0.11137 0.74389 0.53759 0.0
C966 C 0.26682 0.78623 0.47178 0.0
C967 C 0.36095 0.78893 0.47757 0.0
C968 C 0.22695 0.7749 0.48169 0.0
C969 C 0.28004 0.76608 0.49826 0.0
C970 C 0.37383 0.76926 0.50565 0.0
C971 C 0.41361 0.78041 0.49516 0.0
H972 H 0.85332 0.30486 0.53963 0.0
H973 H 0.92181 0.27184 0.39833 0.0
H974 H 0.7852 0.28553 0.55883 0.0
H975 H 0.85996 0.25248 0.41839 0.0
H976 H 0.67767 0.22117 0.45531 0.0
H977 H 0.73567 0.24046 0.43251 0.0
H978 H 0.82439 0.26602 0.57875 0.0
H979 H 0.76277 0.24703 0.60133 0.0
C980 C 0.85332 0.29352 0.51248 0.0
C981 C 0.89444 0.28999 0.46763 0.0
C982 C 0.81559 0.28232 0.52376 0.0
C983 C 0.8182 0.26723 0.49061 0.0
C984 C 0.85585 0.26385 0.44505 0.0
C985 C 0.89262 0.27503 0.43368 0.0
C986 C 0.71101 0.23081 0.48224 0.0
C987 C 0.71595 0.23254 0.53003 0.0
C988 C 0.74419 0.24196 0.46932 0.0
C989 C 0.78417 0.25507 0.50381 0.0
C990 C 0.79201 0.25641 0.55125 0.0
C991 C 0.75788 0.24538 0.56417 0.0
H992 H 0.14297 0.36151 0.10547 0.0
H993 H 0.09561 0.40879 0.16825 0.0
H994 H 0.11276 0.36088 0.18277 0.0
H995 H 0.0639 0.40824 0.2453 0.0
H996 H 0.96016 0.3625 0.31541 0.0
H997 H 0.99488 0.36283 0.23786 0.0
H998 H 0.12919 0.40526 0.31108 0.0
H999 H 0.09328 0.40485 0.38802 0.0
C1000 C 0.12644 0.37181 0.13587 0.0
C1001 C 0.12352 0.38527 0.13082 0.0
C1002 C 0.10839 0.37144 0.18021 0.0
C1003 C 0.08581 0.38451 0.22065 0.0
C1004 C 0.083 0.39798 0.21544 0.0
C1005 C 0.10179 0.39835 0.17117 0.0
C1006 C 0.99744 0.37182 0.31469 0.0
C1007 C 1.02293 0.38373 0.35765 0.0
C1008 C 1.01762 0.37204 0.27027 0.0
C1009 C 0.06465 0.38413 0.26789 0.0
C1010 C 0.09103 0.39593 0.31122 0.0
C1011 C 0.07023 0.39574 0.35545 0.0
H1012 H 0.15251 0.65046 0.16376 0.0
H1013 H 0.91081 0.62334 0.13804 0.0
H1014 H 0.17329 0.64928 0.24132 0.0
H1015 H 0.93093 0.62247 0.21621 0.0
H1016 H 0.94497 0.64461 0.38674 0.0
H1017 H 0.92821 0.64405 0.30664 0.0
H1018 H 0.20238 0.62733 0.27181 0.0
H1019 H 0.21847 0.6275 0.35191 0.0
C1020 C 0.10364 0.64428 0.17465 0.0
C1021 C 1.02956 0.63707 0.14474 0.0
C1022 C 0.11603 0.64353 0.21894 0.0
C1023 C 0.05374 0.63579 0.2348 0.0
C1024 C 0.9798 0.62856 0.20494 0.0
C1025 C 0.96842 0.62904 0.16018 0.0
C1026 C 1.00188 0.64088 0.36214 0.0
C1027 C 0.08342 0.63627 0.37586 0.0
C1028 C 0.99194 0.64044 0.31613 0.0
C1029 C 0.06404 0.6357 0.28304 0.0
C1030 C 0.14586 0.63111 0.2967 0.0
C1031 C 0.15499 0.63119 0.34243 0.0
H1032 H 0.87477 0.62655 0.85086 0.0
H1033 H 0.14141 0.64645 0.88863 0.0
H1034 H 0.89208 0.62555 0.7699 0.0
H1035 H 0.15928 0.64513 0.80766 0.0
H1036 H 0.1838 0.62324 0.63867 0.0
H1037 H 0.1655 0.62308 0.71804 0.0
H1038 H 0.91224 0.64699 0.73744 0.0
H1039 H 0.93123 0.6475 0.65895 0.0
C1040 C 0.93702 0.63068 0.84188 0.0
C1041 C 1.00622 0.63676 0.87639 0.0
C1042 C 0.94686 0.63012 0.79562 0.0
C1043 C 1.02707 0.63527 0.78252 0.0
C1044 C 0.09691 0.64105 0.8167 0.0
C1045 C 0.08624 0.64192 0.86321 0.0
C1046 C 0.1241 0.62841 0.6598 0.0
C1047 C 0.05913 0.63541 0.6425 0.0
C1048 C 0.11382 0.62836 0.70525 0.0
C1049 C 1.03727 0.63497 0.73381 0.0
C1050 C 0.97151 0.6417 0.71609 0.0
C1051 C 0.98275 0.64205 0.67122 0.0
H1052 H 0.91982 0.37049 0.6208 0.0
H1053 H 0.10677 0.40731 0.66002 0.0
H1054 H 0.93867 0.37042 0.69936 0.0
H1055 H 0.12984 0.40683 0.73829 0.0
H1056 H 0.1022 0.40974 0.88982 0.0
H1057 H 0.07145 0.41137 0.81421 0.0
H1058 H 1.03964 0.36364 0.74431 0.0
H1059 H 0.06448 0.36224 0.82026 0.0
C1060 C 0.96554 0.37854 0.64623 0.0
C1061 C 1.0121 0.38887 0.63407 0.0
C1062 C 0.97704 0.37844 0.69135 0.0
C1063 C 1.0369 0.38848 0.72546 0.0
C1064 C 0.08231 0.39902 0.71347 0.0
C1065 C 0.06949 0.39928 0.66845 0.0
C1066 C 0.08817 0.39957 0.85838 0.0
C1067 C 0.08691 0.38576 0.86135 0.0
C1068 C 0.0712 0.40051 0.81471 0.0
C1069 C 0.05324 0.38765 0.77258 0.0
C1070 C 0.05158 0.37388 0.77579 0.0
C1071 C 0.06722 0.37299 0.81953 0.0
H1072 H 0.69374 0.87111 0.12513 0.0
H1073 H 0.48911 0.90529 0.15984 0.0
H1074 H 0.67471 0.87091 0.20348 0.0
H1075 H 0.46567 0.90458 0.23773 0.0
H1076 H 0.55518 0.86142 0.32317 0.0
H1077 H 0.57985 0.86295 0.24738 0.0
H1078 H 0.5189 0.90995 0.31467 0.0
H1079 H 0.48765 0.90807 0.38968 0.0
C1080 C 0.64414 0.87855 0.14957 0.0
C1081 C 0.59277 0.88819 0.13623 0.0
C1082 C 0.63249 0.87835 0.19454 0.0
C1083 C 0.56759 0.88757 0.22728 0.0
C1084 C 0.51721 0.89743 0.21408 0.0
C1085 C 0.53026 0.89782 0.16927 0.0
C1086 C 0.54558 0.87201 0.32179 0.0
C1087 C 0.51727 0.88447 0.36265 0.0
C1088 C 0.56132 0.873 0.27819 0.0
C1089 C 0.55143 0.88661 0.27426 0.0
C1090 C 0.52545 0.89919 0.31557 0.0
C1091 C 0.50824 0.89812 0.35899 0.0
H1092 H 0.62483 0.15099 0.15963 0.0
H1093 H 0.39966 0.12043 0.13207 0.0
H1094 H 0.64766 0.15074 0.23781 0.0
H1095 H 0.42171 0.12034 0.21085 0.0
H1096 H 0.54316 0.11258 0.33606 0.0
H1097 H 0.52332 0.11218 0.25664 0.0
H1098 H 0.57829 0.15932 0.31535 0.0
H1099 H 0.60239 0.15957 0.39415 0.0
C1100 C 0.57954 0.14431 0.17041 0.0
C1101 C 0.50976 0.13585 0.13968 0.0
C1102 C 0.59257 0.14419 0.2154 0.0
C1103 C 0.53625 0.13559 0.23094 0.0
C1104 C 0.46706 0.12697 0.19993 0.0
C1105 C 0.4541 0.12708 0.1548 0.0
C1106 C 0.55287 0.1228 0.33191 0.0
C1107 C 0.57617 0.13604 0.3715 0.0
C1108 C 0.53997 0.12262 0.28641 0.0
C1109 C 0.54953 0.13571 0.27938 0.0
C1110 C 0.57192 0.14897 0.31912 0.0
C1111 C 0.58504 0.14913 0.36452 0.0
H1112 H 0.52461 0.11267 0.83289 0.0
H1113 H 0.43173 0.15808 0.89645 0.0
H1114 H 0.53868 0.11374 0.75539 0.0
H1115 H 0.44509 0.15927 0.81877 0.0
H1116 H 0.58797 0.1612 0.68838 0.0
H1117 H 0.5588 0.16008 0.76473 0.0
H1118 H 0.45932 0.11515 0.68951 0.0
H1119 H 0.48978 0.11632 0.613 0.0
C1120 C 0.50433 0.12272 0.82997 0.0
C1121 C 0.47504 0.13514 0.87056 0.0
C1122 C 0.51304 0.12341 0.78549 0.0
C1123 C 0.49276 0.13658 0.78051 0.0
C1124 C 0.46252 0.14899 0.82122 0.0
C1125 C 0.45436 0.1483 0.86573 0.0
C1126 C 0.558 0.15123 0.68805 0.0
C1127 C 0.54026 0.13897 0.64449 0.0
C1128 C 0.54142 0.15054 0.73199 0.0
C1129 C 0.50642 0.13753 0.73356 0.0
C1130 C 0.48751 0.12529 0.68985 0.0
C1131 C 0.50458 0.12599 0.64591 0.0
H1132 H 0.53369 0.90627 0.66552 0.0
H1133 H 0.46385 0.85968 0.60592 0.0
H1134 H 0.56438 0.90573 0.74281 0.0
H1135 H 0.49416 0.85913 0.68337 0.0
H1136 H 0.64392 0.86044 0.81751 0.0
H1137 H 0.61397 0.86045 0.73895 0.0
H1138 H 0.48815 0.90369 0.80888 0.0
H1139 H 0.51764 0.90349 0.88677 0.0
C1140 C 0.52322 0.89597 0.66906 0.0
C1141 C 0.49466 0.8831 0.62957 0.0
C1142 C 0.54122 0.89563 0.71346 0.0
C1143 C 0.53134 0.88239 0.71965 0.0
C1144 C 0.50358 0.86948 0.67996 0.0
C1145 C 0.48569 0.86982 0.63552 0.0
C1146 C 0.60927 0.86985 0.81589 0.0
C1147 C 0.58437 0.88205 0.85826 0.0
C1148 C 0.59209 0.8699 0.77091 0.0
C1149 C 0.54923 0.88215 0.76737 0.0
C1150 C 0.52331 0.89424 0.81002 0.0
C1151 C 0.54059 0.89417 0.85479 0.0
loop_
_geom_bond_atom_site_label_1
_geom_bond_atom_site_label_2
_geom_bond_distance
_geom_bond_site_symmetry_2
_ccdc_geom_bond_type
Tb0 N31 2.660 . S
Tb0 N38 2.600 . S
Tb0 O44 2.546 . S
Tb0 O45 2.610 1_454 S
Tb0 O47 2.320 1_554 S
Tb0 O48 2.552 1_455 S
Tb0 O49 2.413 . S
Tb0 O51 2.362 . S
Tb0 O52 2.421 . S
Tb0 C64 2.833 . S
C1 C4 1.432 . S
C1 C5 1.414 . S
C1 N8 1.359 . S
C2 C4 1.417 . S
C2 C6 1.432 . S
C2 C14 1.410 1_556 S
C3 C5 1.444 . S
C3 C6 1.317 . S
C3 H26 0.929 . S
C4 C1 1.432 . S
C4 C2 1.417 . S
C4 N12 1.360 . S
C5 C1 1.414 . S
C5 C3 1.444 . S
C5 C10 1.385 . S
C6 C2 1.432 . S
C6 C3 1.317 . S
C6 H18 0.930 . S
C7 C9 1.392 . S
C7 C10 1.370 . S
C7 H19 0.931 . S
N8 C1 1.359 . S
N8 C9 1.327 . S
N8 Tb11 2.600 1_655 S
C9 C7 1.392 . S
C9 N8 1.327 . S
C9 H16 0.930 1_655 S
C10 C5 1.385 . S
C10 C7 1.370 . S
C10 H29 0.930 . S
Tb11 N8 2.600 1_455 S
Tb11 N12 2.660 1_455 S
Tb11 O45 2.362 1_455 S
Tb11 O46 2.421 . S
Tb11 O50 2.546 . S
Tb11 O51 2.610 1_556 S
Tb11 O53 2.320 1_556 S
Tb11 O54 2.552 . S
Tb11 O55 2.413 . S
Tb11 C75 2.833 . S
N12 C4 1.360 . S
N12 Tb11 2.660 1_655 S
N12 C13 1.305 1_556 S
C13 N12 1.305 1_554 S
C13 C15 1.407 . S
C13 H20 0.930 . S
C14 C2 1.410 1_554 S
C14 C15 1.345 . S
C14 H22 0.930 . S
C15 C13 1.407 . S
C15 C14 1.345 . S
C15 H17 0.930 . S
H16 C9 0.930 1_455 S
H17 C15 0.930 . S
H18 C6 0.930 . S
H19 C7 0.931 . S
H20 C13 0.930 . S
H21 C35 0.930 . S
H22 C14 0.930 . S
H23 C41 0.930 . S
H24 C32 0.930 . S
H25 C39 0.931 . S
H26 C3 0.929 . S
H27 C33 0.930 . S
H28 C66 0.930 . S
H29 C10 0.930 . S
H30 C65 0.929 . S
N31 Tb0 2.660 . S
N31 C32 1.305 1_554 S
N31 C36 1.360 . S
C32 H24 0.930 . S
C32 N31 1.305 1_556 S
C32 C35 1.407 . S
C33 H27 0.930 . S
C33 C34 1.410 1_556 S
C33 C35 1.345 . S
C34 C33 1.410 1_554 S
C34 C36 1.417 . S
C34 C66 1.432 . S
C35 H21 0.930 . S
C35 C32 1.407 . S
C35 C33 1.345 . S
C36 N31 1.360 . S
C36 C34 1.417 . S
C36 C40 1.432 . S
H37 C42 0.930 . S
N38 Tb0 2.600 . S
N38 C40 1.359 . S
N38 C41 1.327 . S
C39 H25 0.931 . S
C39 C41 1.392 . S
C39 C42 1.370 . S
C40 C36 1.432 . S
C40 N38 1.359 . S
C40 C43 1.414 . S
C41 H23 0.930 . S
C41 N38 1.327 . S
C41 C39 1.392 . S
C42 H37 0.930 . S
C42 C39 1.370 . S
C42 C43 1.385 . S
C43 C40 1.414 . S
C43 C42 1.385 . S
C43 C65 1.444 . S
O44 Tb0 2.546 . S
O44 C64 1.251 . S
O45 Tb0 2.610 1_656 S
O45 Tb11 2.362 1_655 S
O45 C56 1.283 1_556 S
O46 Tb11 2.421 . S
O46 C63 1.262 . S
O47 Tb0 2.320 1_556 S
O47 C63 1.260 . S
O48 Tb0 2.552 1_655 S
O48 C56 1.243 . S
O49 Tb0 2.413 . S
O49 C64 1.256 . S
O50 Tb11 2.546 . S
O50 C75 1.251 . S
O51 Tb0 2.362 . S
O51 Tb11 2.610 1_554 S
O51 C67 1.283 . S
O52 Tb0 2.421 . S
O52 C74 1.262 . S
O53 Tb11 2.320 1_554 S
O53 C74 1.260 . S
O54 Tb11 2.552 . S
O54 C67 1.243 1_556 S
O55 Tb11 2.413 . S
O55 C75 1.256 . S
C56 O45 1.283 1_554 S
C56 O48 1.243 . S
C57 C59 1.382 . S
C57 C61 1.393 . S
C57 C64 1.500 1_655 S
C58 C59 1.400 . S
C58 C60 1.384 . S
C59 C57 1.382 . S
C59 C58 1.400 . S
C59 H76 0.930 1_554 S
C60 C58 1.384 . S
C60 C62 1.392 . S
C60 H77 0.931 . S
C61 C57 1.393 . S
C61 C62 1.401 . S
C61 H78 0.930 1_655 S
C62 C60 1.392 . S
C62 C61 1.401 . S
C62 H79 0.930 . S
C63 O46 1.262 . S
C63 O47 1.260 . S
C64 Tb0 2.833 . S
C64 O44 1.251 . S
C64 O49 1.256 . S
C64 C57 1.500 1_455 S
C65 H30 0.929 . S
C65 C43 1.444 . S
C65 C66 1.317 . S
C66 H28 0.930 . S
C66 C34 1.432 . S
C66 C65 1.317 . S
C67 O51 1.283 . S
C67 O54 1.243 1_554 S
C68 C69 1.382 . S
C68 C72 1.393 . S
C68 C75 1.500 . S
C69 C68 1.382 . S
C69 C70 1.400 . S
C69 H80 0.930 1_556 S
C70 C69 1.400 . S
C70 C71 1.384 . S
C71 C70 1.384 . S
C71 C73 1.392 . S
C71 H81 0.931 . S
C72 C68 1.393 . S
C72 C73 1.401 . S
C72 H82 0.930 . S
C73 C71 1.392 . S
C73 C72 1.401 . S
C73 H83 0.930 . S
C74 O52 1.262 . S
C74 O53 1.260 . S
C75 Tb11 2.833 . S
C75 O50 1.251 . S
C75 O55 1.256 . S
C75 C68 1.500 . S
H76 C59 0.930 1_556 S
H77 C60 0.931 . S
H78 C61 0.930 1_455 S
H79 C62 0.930 . S
H80 C69 0.930 1_554 S
H81 C71 0.931 . S
H82 C72 0.930 . S
H83 C73 0.930 . S
Tb84 N115 2.660 1_655 S
Tb84 N122 2.600 1_655 S
Tb84 O128 2.546 . S
Tb84 O129 2.611 . S
Tb84 O131 2.320 1_554 S
Tb84 O132 2.552 . S
Tb84 O133 2.413 . S
Tb84 O135 2.362 1_655 S
Tb84 O136 2.421 . S
Tb84 C148 2.833 . S
C85 C88 1.432 . S
C85 C89 1.414 . S
C85 N92 1.359 . S
C86 C88 1.417 . S
C86 C90 1.432 . S
C86 C98 1.410 1_556 S
C87 C89 1.444 . S
C87 C90 1.317 . S
C87 H110 0.929 . S
C88 C85 1.432 . S
C88 C86 1.417 . S
C88 N96 1.360 1_556 S
C89 C85 1.414 . S
C89 C87 1.444 . S
C89 C94 1.385 . S
C90 C86 1.432 . S
C90 C87 1.317 . S
C90 H102 0.930 . S
C91 C93 1.392 . S
C91 C94 1.370 . S
C91 H103 0.931 . S
N92 C85 1.359 . S
N92 C93 1.327 . S
N92 Tb95 2.600 . S
C93 C91 1.392 . S
C93 N92 1.327 . S
C93 H100 0.930 . S
C94 C89 1.385 . S
C94 C91 1.370 . S
C94 H113 0.930 . S
Tb95 N92 2.600 . S
Tb95 N96 2.660 1_556 S
Tb95 O129 2.364 1_556 S
Tb95 O130 2.421 . S
Tb95 O134 2.546 . S
Tb95 O135 2.610 1_656 S
Tb95 O137 2.320 1_556 S
Tb95 O138 2.552 1_655 S
Tb95 O139 2.414 . S
Tb95 C159 2.833 . S
N96 C88 1.360 1_554 S
N96 Tb95 2.660 1_554 S
N96 C97 1.305 . S
C97 N96 1.305 . S
C97 C99 1.407 . S
C97 H104 0.930 . S
C98 C86 1.410 1_554 S
C98 C99 1.345 . S
C98 H106 0.930 . S
C99 C97 1.407 . S
C99 C98 1.345 . S
C99 H101 0.930 . S
H100 C93 0.930 . S
H101 C99 0.930 . S
H102 C90 0.930 . S
H103 C91 0.931 . S
H104 C97 0.930 . S
H105 C119 0.930 . S
H106 C98 0.930 . S
H107 C125 0.930 1_655 S
H108 C116 0.930 . S
H109 C123 0.931 . S
H110 C87 0.929 . S
H111 C117 0.930 . S
H112 C150 0.930 . S
H113 C94 0.930 . S
H114 C149 0.929 . S
N115 Tb84 2.660 1_455 S
N115 C116 1.305 1_554 S
N115 C120 1.360 . S
C116 H108 0.930 . S
C116 N115 1.305 1_556 S
C116 C119 1.407 . S
C117 H111 0.930 . S
C117 C118 1.410 1_556 S
C117 C119 1.345 . S
C118 C117 1.410 1_554 S
C118 C120 1.417 . S
C118 C150 1.432 . S
C119 H105 0.930 . S
C119 C116 1.407 . S
C119 C117 1.345 . S
C120 N115 1.360 . S
C120 C118 1.417 . S
C120 C124 1.432 . S
H121 C126 0.930 . S
N122 Tb84 2.600 1_455 S
N122 C124 1.359 . S
N122 C125 1.327 . S
C123 H109 0.931 . S
C123 C125 1.392 . S
C123 C126 1.370 . S
C124 C120 1.432 . S
C124 N122 1.359 . S
C124 C127 1.414 . S
C125 H107 0.930 1_455 S
C125 N122 1.327 . S
C125 C123 1.392 . S
C126 H121 0.930 . S
C126 C123 1.370 . S
C126 C127 1.385 . S
C127 C124 1.414 . S
C127 C126 1.385 . S
C127 C149 1.444 . S
O128 Tb84 2.546 . S
O128 C148 1.251 . S
O129 Tb84 2.611 . S
O129 Tb95 2.364 1_554 S
O129 C140 1.281 . S
O130 Tb95 2.421 . S
O130 C147 1.262 . S
O131 Tb84 2.320 1_556 S
O131 C147 1.260 . S
O132 Tb84 2.552 . S
O132 C140 1.243 . S
O133 Tb84 2.413 . S
O133 C148 1.256 . S
O134 Tb95 2.546 . S
O134 C159 1.251 . S
O135 Tb84 2.362 1_455 S
O135 Tb95 2.610 1_454 S
O135 C151 1.283 . S
O136 Tb84 2.421 . S
O136 C158 1.262 . S
O137 Tb95 2.320 1_554 S
O137 C158 1.260 . S
O138 Tb95 2.552 1_455 S
O138 C151 1.243 1_556 S
O139 Tb95 2.414 . S
O139 C159 1.256 . S
C140 O129 1.281 . S
C140 O132 1.243 . S
C141 C143 1.382 . S
C141 C145 1.393 . S
C141 C148 1.500 . S
C142 C143 1.400 . S
C142 C144 1.384 . S
C143 C141 1.382 . S
C143 C142 1.400 . S
C143 H160 0.930 1_554 S
C144 C142 1.384 . S
C144 C146 1.392 . S
C144 H161 0.931 . S
C145 C141 1.393 . S
C145 C146 1.401 . S
C145 H162 0.930 . S
C146 C144 1.392 . S
C146 C145 1.401 . S
C146 H163 0.930 . S
C147 O130 1.262 . S
C147 O131 1.260 . S
C148 Tb84 2.833 . S
C148 O128 1.251 . S
C148 O133 1.256 . S
C148 C141 1.500 . S
C149 H114 0.929 . S
C149 C127 1.444 . S
C149 C150 1.317 . S
C150 H112 0.930 . S
C150 C118 1.432 . S
C150 C149 1.317 . S
C151 O135 1.283 . S
C151 O138 1.243 1_554 S
C152 C153 1.382 . S
C152 C156 1.393 . S
C152 C159 1.500 1_455 S
C153 C152 1.382 . S
C153 C154 1.400 . S
C153 H164 0.930 1_556 S
C154 C153 1.400 . S
C154 C155 1.384 . S
C155 C154 1.384 . S
C155 C157 1.392 . S
C155 H165 0.931 . S
C156 C152 1.393 . S
C156 C157 1.401 . S
C156 H166 0.930 1_455 S
C157 C155 1.392 . S
C157 C156 1.401 . S
C157 H167 0.930 . S
C158 O136 1.262 . S
C158 O137 1.260 . S
C159 Tb95 2.833 . S
C159 O134 1.251 . S
C159 O139 1.256 . S
C159 C152 1.500 1_655 S
H160 C143 0.930 1_556 S
H161 C144 0.931 . S
H162 C145 0.930 . S
H163 C146 0.930 . S
H164 C153 0.930 1_554 S
H165 C155 0.931 . S
H166 C156 0.930 1_655 S
H167 C157 0.930 . S
Tb168 N199 2.660 . S
Tb168 N206 2.600 . S
Tb168 O212 2.546 . S
Tb168 O213 2.610 1_455 S
Tb168 O215 2.320 . S
Tb168 O216 2.552 1_455 S
Tb168 O217 2.413 . S
Tb168 O219 2.362 . S
Tb168 O220 2.421 . S
Tb168 C232 2.833 . S
C169 C172 1.432 . S
C169 C173 1.414 . S
C169 N176 1.359 . S
C170 C172 1.417 . S
C170 C174 1.432 . S
C170 C182 1.410 . S
C171 C173 1.444 . S
C171 C174 1.317 . S
C171 H194 0.929 . S
C172 C169 1.432 . S
C172 C170 1.417 . S
C172 N180 1.360 . S
C173 C169 1.414 . S
C173 C171 1.444 . S
C173 C178 1.385 . S
C174 C170 1.432 . S
C174 C171 1.317 . S
C174 H186 0.930 . S
C175 C177 1.392 . S
C175 C178 1.370 . S
C175 H187 0.931 . S
N176 C169 1.359 . S
N176 C177 1.327 . S
N176 Tb179 2.600 1_655 S
C177 C175 1.392 . S
C177 N176 1.327 . S
C177 H184 0.930 1_655 S
C178 C173 1.385 . S
C178 C175 1.370 . S
C178 H197 0.930 . S
Tb179 N176 2.600 1_455 S
Tb179 N180 2.660 1_455 S
Tb179 O213 2.362 1_455 S
Tb179 O214 2.421 . S
Tb179 O218 2.546 . S
Tb179 O219 2.610 . S
Tb179 O221 2.320 . S
Tb179 O222 2.552 . S
Tb179 O223 2.413 . S
Tb179 C243 2.833 . S
N180 C172 1.360 . S
N180 Tb179 2.660 1_655 S
N180 C181 1.305 . S
C181 N180 1.305 . S
C181 C183 1.407 . S
C181 H188 0.930 . S
C182 C170 1.410 . S
C182 C183 1.345 . S
C182 H190 0.930 . S
C183 C181 1.407 . S
C183 C182 1.345 . S
C183 H185 0.930 . S
H184 C177 0.930 1_455 S
H185 C183 0.930 . S
H186 C174 0.930 . S
H187 C175 0.931 . S
H188 C181 0.930 . S
H189 C203 0.930 . S
H190 C182 0.930 . S
H191 C209 0.930 . S
H192 C200 0.930 . S
H193 C207 0.931 . S
H194 C171 0.929 . S
H195 C201 0.930 . S
H196 C234 0.930 . S
H197 C178 0.930 . S
H198 C233 0.929 . S
N199 Tb168 2.660 . S
N199 C200 1.305 . S
N199 C204 1.360 . S
C200 H192 0.930 . S
C200 N199 1.305 . S
C200 C203 1.407 . S
C201 H195 0.930 . S
C201 C202 1.410 . S
C201 C203 1.345 . S
C202 C201 1.410 . S
C202 C204 1.417 . S
C202 C234 1.432 . S
C203 H189 0.930 . S
C203 C200 1.407 . S
C203 C201 1.345 . S
C204 N199 1.360 . S
C204 C202 1.417 . S
C204 C208 1.432 . S
H205 C210 0.930 . S
N206 Tb168 2.600 . S
N206 C208 1.359 . S
N206 C209 1.327 . S
C207 H193 0.931 . S
C207 C209 1.392 . S
C207 C210 1.370 . S
C208 C204 1.432 . S
C208 N206 1.359 . S
C208 C211 1.414 . S
C209 H191 0.930 . S
C209 N206 1.327 . S
C209 C207 1.392 . S
C210 H205 0.930 . S
C210 C207 1.370 . S
C210 C211 1.385 . S
C211 C208 1.414 . S
C211 C210 1.385 . S
C211 C233 1.444 . S
O212 Tb168 2.546 . S
O212 C232 1.251 . S
O213 Tb168 2.610 1_655 S
O213 Tb179 2.362 1_655 S
O213 C224 1.283 . S
O214 Tb179 2.421 . S
O214 C231 1.262 . S
O215 Tb168 2.320 . S
O215 C231 1.260 . S
O216 Tb168 2.552 1_655 S
O216 C224 1.243 . S
O217 Tb168 2.413 . S
O217 C232 1.256 . S
O218 Tb179 2.546 . S
O218 C243 1.251 . S
O219 Tb168 2.362 . S
O219 Tb179 2.610 . S
O219 C235 1.283 . S
O220 Tb168 2.421 . S
O220 C242 1.262 . S
O221 Tb179 2.320 . S
O221 C242 1.260 . S
O222 Tb179 2.552 . S
O222 C235 1.243 . S
O223 Tb179 2.413 . S
O223 C243 1.256 . S
C224 O213 1.283 . S
C224 O216 1.243 . S
C225 C227 1.382 . S
C225 C229 1.393 . S
C225 C232 1.500 1_655 S
C226 C227 1.400 . S
C226 C228 1.384 . S
C227 C225 1.382 . S
C227 C226 1.400 . S
C227 H244 0.930 . S
C228 C226 1.384 . S
C228 C230 1.392 . S
C228 H245 0.931 . S
C229 C225 1.393 . S
C229 C230 1.401 . S
C229 H246 0.930 1_655 S
C230 C228 1.392 . S
C230 C229 1.401 . S
C230 H247 0.930 . S
C231 O214 1.262 . S
C231 O215 1.260 . S
C232 Tb168 2.833 . S
C232 O212 1.251 . S
C232 O217 1.256 . S
C232 C225 1.500 1_455 S
C233 H198 0.929 . S
C233 C211 1.444 . S
C233 C234 1.317 . S
C234 H196 0.930 . S
C234 C202 1.432 . S
C234 C233 1.317 . S
C235 O219 1.283 . S
C235 O222 1.243 . S
C236 C237 1.382 . S
C236 C240 1.393 . S
C236 C243 1.500 . S
C237 C236 1.382 . S
C237 C238 1.400 . S
C237 H248 0.930 . S
C238 C237 1.400 . S
C238 C239 1.384 . S
C239 C238 1.384 . S
C239 C241 1.392 . S
C239 H249 0.931 . S
C240 C236 1.393 . S
C240 C241 1.401 . S
C240 H250 0.930 . S
C241 C239 1.392 . S
C241 C240 1.401 . S
C241 H251 0.930 . S
C242 O220 1.262 . S
C242 O221 1.260 . S
C243 Tb179 2.833 . S
C243 O218 1.251 . S
C243 O223 1.256 . S
C243 C236 1.500 . S
H244 C227 0.930 . S
H245 C228 0.931 . S
H246 C229 0.930 1_455 S
H247 C230 0.930 . S
H248 C237 0.930 . S
H249 C239 0.931 . S
H250 C240 0.930 . S
H251 C241 0.930 . S
Tb252 N283 2.660 1_655 S
Tb252 N290 2.600 1_655 S
Tb252 O296 2.546 . S
Tb252 O297 2.610 . S
Tb252 O299 2.320 . S
Tb252 O300 2.552 . S
Tb252 O301 2.413 . S
Tb252 O303 2.362 1_655 S
Tb252 O304 2.421 . S
Tb252 C316 2.833 . S
C253 C256 1.432 . S
C253 C257 1.414 . S
C253 N260 1.359 . S
C254 C256 1.417 . S
C254 C258 1.432 . S
C254 C266 1.410 . S
C255 C257 1.444 . S
C255 C258 1.317 . S
C255 H278 0.929 . S
C256 C253 1.432 . S
C256 C254 1.417 . S
C256 N264 1.360 . S
C257 C253 1.414 . S
C257 C255 1.444 . S
C257 C262 1.385 . S
C258 C254 1.432 . S
C258 C255 1.317 . S
C258 H270 0.930 . S
C259 C261 1.392 . S
C259 C262 1.370 . S
C259 H271 0.931 . S
N260 C253 1.359 . S
N260 C261 1.327 . S
N260 Tb263 2.600 . S
C261 C259 1.392 . S
C261 N260 1.327 . S
C261 H268 0.930 . S
C262 C257 1.385 . S
C262 C259 1.370 . S
C262 H281 0.930 . S
Tb263 N260 2.600 . S
Tb263 N264 2.660 . S
Tb263 O297 2.362 . S
Tb263 O298 2.421 . S
Tb263 O302 2.546 . S
Tb263 O303 2.610 1_655 S
Tb263 O305 2.320 . S
Tb263 O306 2.552 1_655 S
Tb263 O307 2.413 . S
Tb263 C327 2.833 . S
N264 C256 1.360 . S
N264 Tb263 2.660 . S
N264 C265 1.305 . S
C265 N264 1.305 . S
C265 C267 1.407 . S
C265 H272 0.930 . S
C266 C254 1.410 . S
C266 C267 1.345 . S
C266 H274 0.930 . S
C267 C265 1.407 . S
C267 C266 1.345 . S
C267 H269 0.930 . S
H268 C261 0.930 . S
H269 C267 0.930 . S
H270 C258 0.930 . S
H271 C259 0.931 . S
H272 C265 0.930 . S
H273 C287 0.930 . S
H274 C266 0.930 . S
H275 C293 0.930 1_655 S
H276 C284 0.930 . S
H277 C291 0.931 . S
H278 C255 0.929 . S
H279 C285 0.930 . S
H280 C318 0.930 . S
H281 C262 0.930 . S
H282 C317 0.929 . S
N283 Tb252 2.660 1_455 S
N283 C284 1.305 . S
N283 C288 1.360 . S
C284 H276 0.930 . S
C284 N283 1.305 . S
C284 C287 1.407 . S
C285 H279 0.930 . S
C285 C286 1.410 . S
C285 C287 1.345 . S
C286 C285 1.410 . S
C286 C288 1.417 . S
C286 C318 1.432 . S
C287 H273 0.930 . S
C287 C284 1.407 . S
C287 C285 1.345 . S
C288 N283 1.360 . S
C288 C286 1.417 . S
C288 C292 1.432 . S
H289 C294 0.930 . S
N290 Tb252 2.600 1_455 S
N290 C292 1.359 . S
N290 C293 1.327 . S
C291 H277 0.931 . S
C291 C293 1.392 . S
C291 C294 1.370 . S
C292 C288 1.432 . S
C292 N290 1.359 . S
C292 C295 1.414 . S
C293 H275 0.930 1_455 S
C293 N290 1.327 . S
C293 C291 1.392 . S
C294 H289 0.930 . S
C294 C291 1.370 . S
C294 C295 1.385 . S
C295 C292 1.414 . S
C295 C294 1.385 . S
C295 C317 1.444 . S
O296 Tb252 2.546 . S
O296 C316 1.251 . S
O297 Tb252 2.610 . S
O297 Tb263 2.362 . S
O297 C308 1.283 . S
O298 Tb263 2.421 . S
O298 C315 1.262 . S
O299 Tb252 2.320 . S
O299 C315 1.260 . S
O300 Tb252 2.552 . S
O300 C308 1.243 . S
O301 Tb252 2.413 . S
O301 C316 1.256 . S
O302 Tb263 2.546 . S
O302 C327 1.251 . S
O303 Tb252 2.362 1_455 S
O303 Tb263 2.610 1_455 S
O303 C319 1.283 . S
O304 Tb252 2.421 . S
O304 C326 1.262 . S
O305 Tb263 2.320 . S
O305 C326 1.260 . S
O306 Tb263 2.552 1_455 S
O306 C319 1.243 . S
O307 Tb263 2.413 . S
O307 C327 1.256 . S
C308 O297 1.283 . S
C308 O300 1.243 . S
C309 C311 1.382 . S
C309 C313 1.393 . S
C309 C316 1.500 . S
C310 C311 1.400 . S
C310 C312 1.384 . S
C311 C309 1.382 . S
C311 C310 1.400 . S
C311 H328 0.930 . S
C312 C310 1.384 . S
C312 C314 1.392 . S
C312 H329 0.931 . S
C313 C309 1.393 . S
C313 C314 1.401 . S
C313 H330 0.930 . S
C314 C312 1.392 . S
C314 C313 1.401 . S
C314 H331 0.930 . S
C315 O298 1.262 . S
C315 O299 1.260 . S
C316 Tb252 2.833 . S
C316 O296 1.251 . S
C316 O301 1.256 . S
C316 C309 1.500 . S
C317 H282 0.929 . S
C317 C295 1.444 . S
C317 C318 1.317 . S
C318 H280 0.930 . S
C318 C286 1.432 . S
C318 C317 1.317 . S
C319 O303 1.283 . S
C319 O306 1.243 . S
C320 C321 1.382 . S
C320 C324 1.393 . S
C320 C327 1.500 1_455 S
C321 C320 1.382 . S
C321 C322 1.400 . S
C321 H332 0.930 . S
C322 C321 1.400 . S
C322 C323 1.384 . S
C323 C322 1.384 . S
C323 C325 1.392 . S
C323 H333 0.931 . S
C324 C320 1.393 . S
C324 C325 1.401 . S
C324 H334 0.930 1_455 S
C325 C323 1.392 . S
C325 C324 1.401 . S
C325 H335 0.930 . S
C326 O304 1.262 . S
C326 O305 1.260 . S
C327 Tb263 2.833 . S
C327 O302 1.251 . S
C327 O307 1.256 . S
C327 C320 1.500 1_655 S
H328 C311 0.930 . S
H329 C312 0.931 . S
H330 C313 0.930 . S
H331 C314 0.930 . S
H332 C321 0.930 . S
H333 C323 0.931 . S
H334 C324 0.930 1_655 S
H335 C325 0.930 . S
Tb336 N367 2.660 . S
Tb336 N374 2.600 . S
Tb336 O380 2.546 . S
Tb336 O381 2.610 1_554 S
Tb336 O383 2.320 1_554 S
Tb336 O384 2.552 . S
Tb336 O385 2.413 . S
Tb336 O387 2.362 . S
Tb336 O388 2.421 . S
Tb336 C400 2.833 . S
C337 C340 1.432 . S
C337 C341 1.414 . S
C337 N344 1.359 . S
C338 C340 1.417 . S
C338 C342 1.432 . S
C338 C350 1.410 1_556 S
C339 C341 1.444 . S
C339 C342 1.317 . S
C339 H362 0.929 . S
C340 C337 1.432 . S
C340 C338 1.417 . S
C340 N348 1.360 . S
C341 C337 1.414 . S
C341 C339 1.444 . S
C341 C346 1.385 . S
C342 C338 1.432 . S
C342 C339 1.317 . S
C342 H354 0.930 . S
C343 C345 1.392 . S
C343 C346 1.370 . S
C343 H355 0.931 . S
N344 C337 1.359 . S
N344 C345 1.327 . S
N344 Tb347 2.600 . S
C345 C343 1.392 . S
C345 N344 1.327 . S
C345 H352 0.930 . S
C346 C341 1.385 . S
C346 C343 1.370 . S
C346 H365 0.930 . S
Tb347 N344 2.600 . S
Tb347 N348 2.660 . S
Tb347 O381 2.362 . S
Tb347 O382 2.421 . S
Tb347 O386 2.546 . S
Tb347 O387 2.610 1_556 S
Tb347 O389 2.320 1_556 S
Tb347 O390 2.552 . S
Tb347 O391 2.413 . S
Tb347 C411 2.833 . S
N348 C340 1.360 . S
N348 Tb347 2.660 . S
N348 C349 1.305 1_556 S
C349 N348 1.305 1_554 S
C349 C351 1.407 . S
C349 H356 0.930 . S
C350 C338 1.410 1_554 S
C350 C351 1.345 . S
C350 H358 0.930 . S
C351 C349 1.407 . S
C351 C350 1.345 . S
C351 H353 0.930 . S
H352 C345 0.930 . S
H353 C351 0.930 . S
H354 C342 0.930 . S
H355 C343 0.931 . S
H356 C349 0.930 . S
H357 C371 0.930 . S
H358 C350 0.930 . S
H359 C377 0.930 . S
H360 C368 0.930 . S
H361 C375 0.931 . S
H362 C339 0.929 . S
H363 C369 0.930 . S
H364 C402 0.930 . S
H365 C346 0.930 . S
H366 C401 0.929 . S
N367 Tb336 2.660 . S
N367 C368 1.305 1_554 S
N367 C372 1.360 . S
C368 H360 0.930 . S
C368 N367 1.305 1_556 S
C368 C371 1.407 . S
C369 H363 0.930 . S
C369 C370 1.410 1_556 S
C369 C371 1.345 . S
C370 C369 1.410 1_554 S
C370 C372 1.417 . S
C370 C402 1.432 . S
C371 H357 0.930 . S
C371 C368 1.407 . S
C371 C369 1.345 . S
C372 N367 1.360 . S
C372 C370 1.417 . S
C372 C376 1.432 . S
H373 C378 0.930 . S
N374 Tb336 2.600 . S
N374 C376 1.359 . S
N374 C377 1.327 . S
C375 H361 0.931 . S
C375 C377 1.392 . S
C375 C378 1.370 . S
C376 C372 1.432 . S
C376 N374 1.359 . S
C376 C379 1.414 . S
C377 H359 0.930 . S
C377 N374 1.327 . S
C377 C375 1.392 . S
C378 H373 0.930 . S
C378 C375 1.370 . S
C378 C379 1.385 . S
C379 C376 1.414 . S
C379 C378 1.385 . S
C379 C401 1.444 . S
O380 Tb336 2.546 . S
O380 C400 1.251 . S
O381 Tb336 2.610 1_556 S
O381 Tb347 2.362 . S
O381 C392 1.283 1_556 S
O382 Tb347 2.421 . S
O382 C399 1.262 . S
O383 Tb336 2.320 1_556 S
O383 C399 1.260 . S
O384 Tb336 2.552 . S
O384 C392 1.243 . S
O385 Tb336 2.413 . S
O385 C400 1.256 . S
O386 Tb347 2.546 . S
O386 C411 1.251 . S
O387 Tb336 2.362 . S
O387 Tb347 2.610 1_554 S
O387 C403 1.283 . S
O388 Tb336 2.421 . S
O388 C410 1.262 . S
O389 Tb347 2.320 1_554 S
O389 C410 1.260 . S
O390 Tb347 2.552 . S
O390 C403 1.243 1_556 S
O391 Tb347 2.413 . S
O391 C411 1.256 . S
C392 O381 1.283 1_554 S
C392 O384 1.243 . S
C393 C395 1.382 . S
C393 C397 1.393 . S
C393 C400 1.500 . S
C394 C395 1.400 . S
C394 C396 1.384 . S
C395 C393 1.382 . S
C395 C394 1.400 . S
C395 H412 0.930 1_554 S
C396 C394 1.384 . S
C396 C398 1.392 . S
C396 H413 0.931 . S
C397 C393 1.393 . S
C397 C398 1.401 . S
C397 H414 0.930 . S
C398 C396 1.392 . S
C398 C397 1.401 . S
C398 H415 0.930 . S
C399 O382 1.262 . S
C399 O383 1.260 . S
C400 Tb336 2.833 . S
C400 O380 1.251 . S
C400 O385 1.256 . S
C400 C393 1.500 . S
C401 H366 0.929 . S
C401 C379 1.444 . S
C401 C402 1.317 . S
C402 H364 0.930 . S
C402 C370 1.432 . S
C402 C401 1.317 . S
C403 O387 1.283 . S
C403 O390 1.243 1_554 S
C404 C405 1.382 . S
C404 C408 1.393 . S
C404 C411 1.500 . S
C405 C404 1.382 . S
C405 C406 1.400 . S
C405 H416 0.930 1_556 S
C406 C405 1.400 . S
C406 C407 1.384 . S
C407 C406 1.384 . S
C407 C409 1.392 . S
C407 H417 0.931 . S
C408 C404 1.393 . S
C408 C409 1.401 . S
C408 H418 0.930 . S
C409 C407 1.392 . S
C409 C408 1.401 . S
C409 H419 0.930 . S
C410 O388 1.262 . S
C410 O389 1.260 . S
C411 Tb347 2.833 . S
C411 O386 1.251 . S
C411 O391 1.256 . S
C411 C404 1.500 . S
H412 C395 0.930 1_556 S
H413 C396 0.931 . S
H414 C397 0.930 . S
H415 C398 0.930 . S
H416 C405 0.930 1_554 S
H417 C407 0.931 . S
H418 C408 0.930 . S
H419 C409 0.930 . S
Tb420 N451 2.660 . S
Tb420 N458 2.600 . S
Tb420 O464 2.546 . S
Tb420 O465 2.611 . S
Tb420 O467 2.320 1_554 S
Tb420 O468 2.552 . S
Tb420 O469 2.413 . S
Tb420 O471 2.362 . S
Tb420 O472 2.421 . S
Tb420 C484 2.833 . S
C421 C424 1.432 . S
C421 C425 1.414 . S
C421 N428 1.359 . S
C422 C424 1.417 . S
C422 C426 1.432 . S
C422 C434 1.410 1_556 S
C423 C425 1.444 . S
C423 C426 1.317 . S
C423 H446 0.929 . S
C424 C421 1.432 . S
C424 C422 1.417 . S
C424 N432 1.360 1_556 S
C425 C421 1.414 . S
C425 C423 1.444 . S
C425 C430 1.385 . S
C426 C422 1.432 . S
C426 C423 1.317 . S
C426 H438 0.930 . S
C427 C429 1.392 . S
C427 C430 1.370 . S
C427 H439 0.931 . S
N428 C421 1.359 . S
N428 C429 1.327 . S
N428 Tb431 2.600 . S
C429 C427 1.392 . S
C429 N428 1.327 . S
C429 H436 0.930 . S
C430 C425 1.385 . S
C430 C427 1.370 . S
C430 H449 0.930 . S
Tb431 N428 2.600 . S
Tb431 N432 2.660 1_556 S
Tb431 O465 2.364 1_556 S
Tb431 O466 2.421 . S
Tb431 O470 2.546 . S
Tb431 O471 2.610 1_556 S
Tb431 O473 2.320 1_556 S
Tb431 O474 2.552 . S
Tb431 O475 2.414 . S
Tb431 C495 2.833 . S
N432 C424 1.360 1_554 S
N432 Tb431 2.660 1_554 S
N432 C433 1.305 . S
C433 N432 1.305 . S
C433 C435 1.407 . S
C433 H440 0.930 . S
C434 C422 1.410 1_554 S
C434 C435 1.345 . S
C434 H442 0.930 . S
C435 C433 1.407 . S
C435 C434 1.345 . S
C435 H437 0.930 . S
H436 C429 0.930 . S
H437 C435 0.930 . S
H438 C426 0.930 . S
H439 C427 0.931 . S
H440 C433 0.930 . S
H441 C455 0.930 . S
H442 C434 0.930 . S
H443 C461 0.930 . S
H444 C452 0.930 . S
H445 C459 0.931 . S
H446 C423 0.929 . S
H447 C453 0.930 . S
H448 C486 0.930 . S
H449 C430 0.930 . S
H450 C485 0.929 . S
N451 Tb420 2.660 . S
N451 C452 1.305 1_554 S
N451 C456 1.360 . S
C452 H444 0.930 . S
C452 N451 1.305 1_556 S
C452 C455 1.407 . S
C453 H447 0.930 . S
C453 C454 1.410 1_556 S
C453 C455 1.345 . S
C454 C453 1.410 1_554 S
C454 C456 1.417 . S
C454 C486 1.432 . S
C455 H441 0.930 . S
C455 C452 1.407 . S
C455 C453 1.345 . S
C456 N451 1.360 . S
C456 C454 1.417 . S
C456 C460 1.432 . S
H457 C462 0.930 . S
N458 Tb420 2.600 . S
N458 C460 1.359 . S
N458 C461 1.327 . S
C459 H445 0.931 . S
C459 C461 1.392 . S
C459 C462 1.370 . S
C460 C456 1.432 . S
C460 N458 1.359 . S
C460 C463 1.414 . S
C461 H443 0.930 . S
C461 N458 1.327 . S
C461 C459 1.392 . S
C462 H457 0.930 . S
C462 C459 1.370 . S
C462 C463 1.385 . S
C463 C460 1.414 . S
C463 C462 1.385 . S
C463 C485 1.444 . S
O464 Tb420 2.546 . S
O464 C484 1.251 . S
O465 Tb420 2.611 . S
O465 Tb431 2.364 1_554 S
O465 C476 1.281 . S
O466 Tb431 2.421 . S
O466 C483 1.262 . S
O467 Tb420 2.320 1_556 S
O467 C483 1.260 . S
O468 Tb420 2.552 . S
O468 C476 1.243 . S
O469 Tb420 2.413 . S
O469 C484 1.256 . S
O470 Tb431 2.546 . S
O470 C495 1.251 . S
O471 Tb420 2.362 . S
O471 Tb431 2.610 1_554 S
O471 C487 1.283 . S
O472 Tb420 2.421 . S
O472 C494 1.262 . S
O473 Tb431 2.320 1_554 S
O473 C494 1.260 . S
O474 Tb431 2.552 . S
O474 C487 1.243 1_556 S
O475 Tb431 2.414 . S
O475 C495 1.256 . S
C476 O465 1.281 . S
C476 O468 1.243 . S
C477 C479 1.382 . S
C477 C481 1.393 . S
C477 C484 1.500 . S
C478 C479 1.400 . S
C478 C480 1.384 . S
C479 C477 1.382 . S
C479 C478 1.400 . S
C479 H496 0.930 1_554 S
C480 C478 1.384 . S
C480 C482 1.392 . S
C480 H497 0.931 . S
C481 C477 1.393 . S
C481 C482 1.401 . S
C481 H498 0.930 . S
C482 C480 1.392 . S
C482 C481 1.401 . S
C482 H499 0.930 . S
C483 O466 1.262 . S
C483 O467 1.260 . S
C484 Tb420 2.833 . S
C484 O464 1.251 . S
C484 O469 1.256 . S
C484 C477 1.500 . S
C485 H450 0.929 . S
C485 C463 1.444 . S
C485 C486 1.317 . S
C486 H448 0.930 . S
C486 C454 1.432 . S
C486 C485 1.317 . S
C487 O471 1.283 . S
C487 O474 1.243 1_554 S
C488 C489 1.382 . S
C488 C492 1.393 . S
C488 C495 1.500 . S
C489 C488 1.382 . S
C489 C490 1.400 . S
C489 H500 0.930 1_556 S
C490 C489 1.400 . S
C490 C491 1.384 . S
C491 C490 1.384 . S
C491 C493 1.392 . S
C491 H501 0.931 . S
C492 C488 1.393 . S
C492 C493 1.401 . S
C492 H502 0.930 . S
C493 C491 1.392 . S
C493 C492 1.401 . S
C493 H503 0.930 . S
C494 O472 1.262 . S
C494 O473 1.260 . S
C495 Tb431 2.833 . S
C495 O470 1.251 . S
C495 O475 1.256 . S
C495 C488 1.500 . S
H496 C479 0.930 1_556 S
H497 C480 0.931 . S
H498 C481 0.930 . S
H499 C482 0.930 . S
H500 C489 0.930 1_554 S
H501 C491 0.931 . S
H502 C492 0.930 . S
H503 C493 0.930 . S
Tb504 N535 2.660 . S
Tb504 N542 2.600 . S
Tb504 O548 2.546 . S
Tb504 O549 2.610 . S
Tb504 O551 2.320 . S
Tb504 O552 2.552 . S
Tb504 O553 2.413 . S
Tb504 O555 2.362 . S
Tb504 O556 2.421 . S
Tb504 C568 2.833 . S
C505 C508 1.432 . S
C505 C509 1.414 . S
C505 N512 1.359 . S
C506 C508 1.417 . S
C506 C510 1.432 . S
C506 C518 1.410 . S
C507 C509 1.444 . S
C507 C510 1.317 . S
C507 H530 0.929 . S
C508 C505 1.432 . S
C508 C506 1.417 . S
C508 N516 1.360 . S
C509 C505 1.414 . S
C509 C507 1.444 . S
C509 C514 1.385 . S
C510 C506 1.432 . S
C510 C507 1.317 . S
C510 H522 0.930 . S
C511 C513 1.392 . S
C511 C514 1.370 . S
C511 H523 0.931 . S
N512 C505 1.359 . S
N512 C513 1.327 . S
N512 Tb515 2.600 . S
C513 C511 1.392 . S
C513 N512 1.327 . S
C513 H520 0.930 . S
C514 C509 1.385 . S
C514 C511 1.370 . S
C514 H533 0.930 . S
Tb515 N512 2.600 . S
Tb515 N516 2.660 . S
Tb515 O549 2.362 . S
Tb515 O550 2.421 . S
Tb515 O554 2.546 . S
Tb515 O555 2.610 . S
Tb515 O557 2.320 . S
Tb515 O558 2.552 . S
Tb515 O559 2.413 . S
Tb515 C579 2.833 . S
N516 C508 1.360 . S
N516 Tb515 2.660 . S
N516 C517 1.305 . S
C517 N516 1.305 . S
C517 C519 1.407 . S
C517 H524 0.930 . S
C518 C506 1.410 . S
C518 C519 1.345 . S
C518 H526 0.930 . S
C519 C517 1.407 . S
C519 C518 1.345 . S
C519 H521 0.930 . S
H520 C513 0.930 . S
H521 C519 0.930 . S
H522 C510 0.930 . S
H523 C511 0.931 . S
H524 C517 0.930 . S
H525 C539 0.930 . S
H526 C518 0.930 . S
H527 C545 0.930 . S
H528 C536 0.930 . S
H529 C543 0.931 . S
H530 C507 0.929 . S
H531 C537 0.930 . S
H532 C570 0.930 . S
H533 C514 0.930 . S
H534 C569 0.929 . S
N535 Tb504 2.660 . S
N535 C536 1.305 . S
N535 C540 1.360 . S
C536 H528 0.930 . S
C536 N535 1.305 . S
C536 C539 1.407 . S
C537 H531 0.930 . S
C537 C538 1.410 . S
C537 C539 1.345 . S
C538 C537 1.410 . S
C538 C540 1.417 . S
C538 C570 1.432 . S
C539 H525 0.930 . S
C539 C536 1.407 . S
C539 C537 1.345 . S
C540 N535 1.360 . S
C540 C538 1.417 . S
C540 C544 1.432 . S
H541 C546 0.930 . S
N542 Tb504 2.600 . S
N542 C544 1.359 . S
N542 C545 1.327 . S
C543 H529 0.931 . S
C543 C545 1.392 . S
C543 C546 1.370 . S
C544 C540 1.432 . S
C544 N542 1.359 . S
C544 C547 1.414 . S
C545 H527 0.930 . S
C545 N542 1.327 . S
C545 C543 1.392 . S
C546 H541 0.930 . S
C546 C543 1.370 . S
C546 C547 1.385 . S
C547 C544 1.414 . S
C547 C546 1.385 . S
C547 C569 1.444 . S
O548 Tb504 2.546 . S
O548 C568 1.251 . S
O549 Tb504 2.610 . S
O549 Tb515 2.362 . S
O549 C560 1.283 . S
O550 Tb515 2.421 . S
O550 C567 1.262 . S
O551 Tb504 2.320 . S
O551 C567 1.260 . S
O552 Tb504 2.552 . S
O552 C560 1.243 . S
O553 Tb504 2.413 . S
O553 C568 1.256 . S
O554 Tb515 2.546 . S
O554 C579 1.251 . S
O555 Tb504 2.362 . S
O555 Tb515 2.610 . S
O555 C571 1.283 . S
O556 Tb504 2.421 . S
O556 C578 1.262 . S
O557 Tb515 2.320 . S
O557 C578 1.260 . S
O558 Tb515 2.552 . S
O558 C571 1.243 . S
O559 Tb515 2.413 . S
O559 C579 1.256 . S
C560 O549 1.283 . S
C560 O552 1.243 . S
C561 C563 1.382 . S
C561 C565 1.393 . S
C561 C568 1.500 . S
C562 C563 1.400 . S
C562 C564 1.384 . S
C563 C561 1.382 . S
C563 C562 1.400 . S
C563 H580 0.930 . S
C564 C562 1.384 . S
C564 C566 1.392 . S
C564 H581 0.931 . S
C565 C561 1.393 . S
C565 C566 1.401 . S
C565 H582 0.930 . S
C566 C564 1.392 . S
C566 C565 1.401 . S
C566 H583 0.930 . S
C567 O550 1.262 . S
C567 O551 1.260 . S
C568 Tb504 2.833 . S
C568 O548 1.251 . S
C568 O553 1.256 . S
C568 C561 1.500 . S
C569 H534 0.929 . S
C569 C547 1.444 . S
C569 C570 1.317 . S
C570 H532 0.930 . S
C570 C538 1.432 . S
C570 C569 1.317 . S
C571 O555 1.283 . S
C571 O558 1.243 . S
C572 C573 1.382 . S
C572 C576 1.393 . S
C572 C579 1.500 . S
C573 C572 1.382 . S
C573 C574 1.400 . S
C573 H584 0.930 . S
C574 C573 1.400 . S
C574 C575 1.384 . S
C575 C574 1.384 . S
C575 C577 1.392 . S
C575 H585 0.931 . S
C576 C572 1.393 . S
C576 C577 1.401 . S
C576 H586 0.930 . S
C577 C575 1.392 . S
C577 C576 1.401 . S
C577 H587 0.930 . S
C578 O556 1.262 . S
C578 O557 1.260 . S
C579 Tb515 2.833 . S
C579 O554 1.251 . S
C579 O559 1.256 . S
C579 C572 1.500 . S
H580 C563 0.930 . S
H581 C564 0.931 . S
H582 C565 0.930 . S
H583 C566 0.930 . S
H584 C573 0.930 . S
H585 C575 0.931 . S
H586 C576 0.930 . S
H587 C577 0.930 . S
Tb588 N619 2.660 . S
Tb588 N626 2.600 . S
Tb588 O632 2.546 . S
Tb588 O633 2.610 . S
Tb588 O635 2.320 . S
Tb588 O636 2.552 . S
Tb588 O637 2.413 . S
Tb588 O639 2.362 . S
Tb588 O640 2.421 . S
Tb588 C652 2.833 . S
C589 C592 1.432 . S
C589 C593 1.414 . S
C589 N596 1.359 . S
C590 C592 1.417 . S
C590 C594 1.432 . S
C590 C602 1.410 . S
C591 C593 1.444 . S
C591 C594 1.317 . S
C591 H614 0.929 . S
C592 C589 1.432 . S
C592 C590 1.417 . S
C592 N600 1.360 . S
C593 C589 1.414 . S
C593 C591 1.444 . S
C593 C598 1.385 . S
C594 C590 1.432 . S
C594 C591 1.317 . S
C594 H606 0.930 . S
C595 C597 1.392 . S
C595 C598 1.370 . S
C595 H607 0.931 . S
N596 C589 1.359 . S
N596 C597 1.327 . S
N596 Tb599 2.600 . S
C597 C595 1.392 . S
C597 N596 1.327 . S
C597 H604 0.930 . S
C598 C593 1.385 . S
C598 C595 1.370 . S
C598 H617 0.930 . S
Tb599 N596 2.600 . S
Tb599 N600 2.660 . S
Tb599 O633 2.362 . S
Tb599 O634 2.421 . S
Tb599 O638 2.546 . S
Tb599 O639 2.610 . S
Tb599 O641 2.320 . S
Tb599 O642 2.552 . S
Tb599 O643 2.413 . S
Tb599 C663 2.833 . S
N600 C592 1.360 . S
N600 Tb599 2.660 . S
N600 C601 1.305 . S
C601 N600 1.305 . S
C601 C603 1.407 . S
C601 H608 0.930 . S
C602 C590 1.410 . S
C602 C603 1.345 . S
C602 H610 0.930 . S
C603 C601 1.407 . S
C603 C602 1.345 . S
C603 H605 0.930 . S
H604 C597 0.930 . S
H605 C603 0.930 . S
H606 C594 0.930 . S
H607 C595 0.931 . S
H608 C601 0.930 . S
H609 C623 0.930 . S
H610 C602 0.930 . S
H611 C629 0.930 . S
H612 C620 0.930 . S
H613 C627 0.931 . S
H614 C591 0.929 . S
H615 C621 0.930 . S
H616 C654 0.930 . S
H617 C598 0.930 . S
H618 C653 0.929 . S
N619 Tb588 2.660 . S
N619 C620 1.305 . S
N619 C624 1.360 . S
C620 H612 0.930 . S
C620 N619 1.305 . S
C620 C623 1.407 . S
C621 H615 0.930 . S
C621 C622 1.410 . S
C621 C623 1.345 . S
C622 C621 1.410 . S
C622 C624 1.417 . S
C622 C654 1.432 . S
C623 H609 0.930 . S
C623 C620 1.407 . S
C623 C621 1.345 . S
C624 N619 1.360 . S
C624 C622 1.417 . S
C624 C628 1.432 . S
H625 C630 0.930 . S
N626 Tb588 2.600 . S
N626 C628 1.359 . S
N626 C629 1.327 . S
C627 H613 0.931 . S
C627 C629 1.392 . S
C627 C630 1.370 . S
C628 C624 1.432 . S
C628 N626 1.359 . S
C628 C631 1.414 . S
C629 H611 0.930 . S
C629 N626 1.327 . S
C629 C627 1.392 . S
C630 H625 0.930 . S
C630 C627 1.370 . S
C630 C631 1.385 . S
C631 C628 1.414 . S
C631 C630 1.385 . S
C631 C653 1.444 . S
O632 Tb588 2.546 . S
O632 C652 1.251 . S
O633 Tb588 2.610 . S
O633 Tb599 2.362 . S
O633 C644 1.283 . S
O634 Tb599 2.421 . S
O634 C651 1.262 . S
O635 Tb588 2.320 . S
O635 C651 1.260 . S
O636 Tb588 2.552 . S
O636 C644 1.243 . S
O637 Tb588 2.413 . S
O637 C652 1.256 . S
O638 Tb599 2.546 . S
O638 C663 1.251 . S
O639 Tb588 2.362 . S
O639 Tb599 2.610 . S
O639 C655 1.283 . S
O640 Tb588 2.421 . S
O640 C662 1.262 . S
O641 Tb599 2.320 . S
O641 C662 1.260 . S
O642 Tb599 2.552 . S
O642 C655 1.243 . S
O643 Tb599 2.413 . S
O643 C663 1.256 . S
C644 O633 1.283 . S
C644 O636 1.243 . S
C645 C647 1.382 . S
C645 C649 1.393 . S
C645 C652 1.500 . S
C646 C647 1.400 . S
C646 C648 1.384 . S
C647 C645 1.382 . S
C647 C646 1.400 . S
C647 H664 0.930 . S
C648 C646 1.384 . S
C648 C650 1.392 . S
C648 H665 0.931 . S
C649 C645 1.393 . S
C649 C650 1.401 . S
C649 H666 0.930 . S
C650 C648 1.392 . S
C650 C649 1.401 . S
C650 H667 0.930 . S
C651 O634 1.262 . S
C651 O635 1.260 . S
C652 Tb588 2.833 . S
C652 O632 1.251 . S
C652 O637 1.256 . S
C652 C645 1.500 . S
C653 H618 0.929 . S
C653 C631 1.444 . S
C653 C654 1.317 . S
C654 H616 0.930 . S
C654 C622 1.432 . S
C654 C653 1.317 . S
C655 O639 1.283 . S
C655 O642 1.243 . S
C656 C657 1.382 . S
C656 C660 1.393 . S
C656 C663 1.500 . S
C657 C656 1.382 . S
C657 C658 1.400 . S
C657 H668 0.930 . S
C658 C657 1.400 . S
C658 C659 1.384 . S
C659 C658 1.384 . S
C659 C661 1.392 . S
C659 H669 0.931 . S
C660 C656 1.393 . S
C660 C661 1.401 . S
C660 H670 0.930 . S
C661 C659 1.392 . S
C661 C660 1.401 . S
C661 H671 0.930 . S
C662 O640 1.262 . S
C662 O641 1.260 . S
C663 Tb599 2.833 . S
C663 O638 1.251 . S
C663 O643 1.256 . S
C663 C656 1.500 . S
H664 C647 0.930 . S
H665 C648 0.931 . S
H666 C649 0.930 . S
H667 C650 0.930 . S
H668 C657 0.930 . S
H669 C659 0.931 . S
H670 C660 0.930 . S
H671 C661 0.930 . S
H672 C680 0.950 . S
H673 C685 0.950 . S
H674 C682 0.950 . S
H675 C684 0.950 . S
H676 C686 0.950 . S
H677 C688 0.950 . S
H678 C690 0.950 . S
H679 C691 0.950 . S
C680 H672 0.950 . S
C680 C681 1.386 1_556 S
C680 C682 1.391 . S
C681 C680 1.386 1_554 S
C681 C685 1.393 . S
C682 H674 0.950 . S
C682 C680 1.391 . S
C682 C683 1.400 1_556 S
C683 C682 1.400 1_554 S
C683 C684 1.398 . S
C683 C689 1.491 . S
C684 H675 0.950 . S
C684 C683 1.398 . S
C684 C685 1.391 . S
C685 H673 0.950 . S
C685 C681 1.393 . S
C685 C684 1.391 . S
C686 H676 0.950 . S
C686 C687 1.386 1_554 S
C686 C688 1.391 . S
C687 C686 1.386 1_556 S
C687 C691 1.393 . S
C688 H677 0.950 . S
C688 C686 1.391 . S
C688 C689 1.400 . S
C689 C683 1.491 . S
C689 C688 1.400 . S
C689 C690 1.398 1_554 S
C690 H678 0.950 . S
C690 C689 1.398 1_556 S
C690 C691 1.391 . S
C691 H679 0.950 . S
C691 C687 1.393 . S
C691 C690 1.391 . S
H692 C700 0.950 . S
H693 C705 0.950 . S
H694 C702 0.950 . S
H695 C704 0.938 1_556 S
H696 C706 0.953 . S
H697 C708 0.947 1_556 S
H698 C710 0.950 . S
H699 C711 0.950 . S
C700 H692 0.950 . S
C700 C701 1.386 . S
C700 C702 1.391 . S
C701 C700 1.386 . S
C701 C705 1.393 . S
C702 H694 0.950 . S
C702 C700 1.391 . S
C702 C703 1.400 . S
C703 C702 1.400 . S
C703 C704 1.398 . S
C703 C709 1.491 . S
C704 H695 0.938 1_554 S
C704 C703 1.398 . S
C704 C705 1.391 . S
C705 H693 0.950 . S
C705 C701 1.393 . S
C705 C704 1.391 . S
C706 H696 0.953 . S
C706 C707 1.383 1_556 S
C706 C708 1.391 1_556 S
C707 C706 1.383 1_554 S
C707 C711 1.393 . S
C708 H697 0.947 1_554 S
C708 C706 1.391 1_554 S
C708 C709 1.400 . S
C709 C703 1.491 . S
C709 C708 1.400 . S
C709 C710 1.398 . S
C710 H698 0.950 . S
C710 C709 1.398 . S
C710 C711 1.391 . S
C711 H699 0.950 . S
C711 C707 1.393 . S
C711 C710 1.391 . S
H712 C720 0.950 . S
H713 C725 0.950 . S
H714 C722 0.950 . S
H715 C724 0.950 . S
H716 C726 0.950 . S
H717 C728 0.950 . S
H718 C730 0.950 . S
H719 C731 0.950 . S
C720 H712 0.950 . S
C720 C721 1.386 . S
C720 C722 1.391 . S
C721 C720 1.386 . S
C721 C725 1.393 . S
C722 H714 0.950 . S
C722 C720 1.391 . S
C722 C723 1.400 . S
C723 C722 1.400 . S
C723 C724 1.398 . S
C723 C729 1.491 . S
C724 H715 0.950 . S
C724 C723 1.398 . S
C724 C725 1.391 . S
C725 H713 0.950 . S
C725 C721 1.393 . S
C725 C724 1.391 . S
C726 H716 0.950 . S
C726 C727 1.386 . S
C726 C728 1.391 . S
C727 C726 1.386 . S
C727 C731 1.393 . S
C728 H717 0.950 . S
C728 C726 1.391 . S
C728 C729 1.400 . S
C729 C723 1.491 . S
C729 C728 1.400 . S
C729 C730 1.398 . S
C730 H718 0.950 . S
C730 C729 1.398 . S
C730 C731 1.391 . S
C731 H719 0.950 . S
C731 C727 1.393 . S
C731 C730 1.391 . S
H732 C740 0.950 . S
H733 C745 0.950 . S
H734 C742 0.950 . S
H735 C744 0.950 . S
H736 C746 0.950 . S
H737 C748 0.950 . S
H738 C750 0.950 . S
H739 C751 0.950 . S
C740 H732 0.950 . S
C740 C741 1.386 . S
C740 C742 1.391 . S
C741 C740 1.386 . S
C741 C745 1.393 . S
C742 H734 0.950 . S
C742 C740 1.391 . S
C742 C743 1.400 . S
C743 C742 1.400 . S
C743 C744 1.398 . S
C743 C749 1.491 . S
C744 H735 0.950 . S
C744 C743 1.398 . S
C744 C745 1.391 . S
C745 H733 0.950 . S
C745 C741 1.393 . S
C745 C744 1.391 . S
C746 H736 0.950 . S
C746 C747 1.386 . S
C746 C748 1.391 . S
C747 C746 1.386 . S
C747 C751 1.393 . S
C748 H737 0.950 . S
C748 C746 1.391 . S
C748 C749 1.400 . S
C749 C743 1.491 . S
C749 C748 1.400 . S
C749 C750 1.398 . S
C750 H738 0.950 . S
C750 C749 1.398 . S
C750 C751 1.391 . S
C751 H739 0.950 . S
C751 C747 1.393 . S
C751 C750 1.391 . S
H752 C760 0.950 . S
H753 C765 0.950 . S
H754 C762 0.950 . S
H755 C764 0.950 1_455 S
H756 C766 0.950 . S
H757 C768 0.950 . S
H758 C770 0.950 . S
H759 C771 0.950 . S
C760 H752 0.950 . S
C760 C761 1.386 . S
C760 C762 1.391 . S
C761 C760 1.386 . S
C761 C765 1.393 1_554 S
C762 H754 0.950 . S
C762 C760 1.391 . S
C762 C763 1.400 1_655 S
C763 C762 1.400 1_455 S
C763 C764 1.398 1_454 S
C763 C769 1.491 . S
C764 H755 0.950 1_655 S
C764 C763 1.398 1_656 S
C764 C765 1.391 . S
C765 H753 0.950 . S
C765 C761 1.393 1_556 S
C765 C764 1.391 . S
C766 H756 0.950 . S
C766 C767 1.386 . S
C766 C768 1.391 . S
C767 C766 1.386 . S
C767 C771 1.393 1_556 S
C768 H757 0.950 . S
C768 C766 1.391 . S
C768 C769 1.400 1_556 S
C769 C763 1.491 . S
C769 C768 1.400 1_554 S
C769 C770 1.398 . S
C770 H758 0.950 . S
C770 C769 1.398 . S
C770 C771 1.391 . S
C771 H759 0.950 . S
C771 C767 1.393 1_554 S
C771 C770 1.391 . S
H772 C780 0.950 . S
H773 C785 0.950 . S
H774 C782 0.950 . S
H775 C784 0.950 1_655 S
H776 C786 0.950 . S
H777 C788 0.950 . S
H778 C790 0.950 . S
H779 C791 0.950 . S
C780 H772 0.950 . S
C780 C781 1.386 1_556 S
C780 C782 1.391 . S
C781 C780 1.386 1_554 S
C781 C785 1.393 . S
C782 H774 0.950 . S
C782 C780 1.391 . S
C782 C783 1.400 1_456 S
C783 C782 1.400 1_654 S
C783 C784 1.398 1_655 S
C783 C789 1.491 . S
C784 H775 0.950 1_455 S
C784 C783 1.398 1_455 S
C784 C785 1.391 . S
C785 H773 0.950 . S
C785 C781 1.393 . S
C785 C784 1.391 . S
C786 H776 0.950 . S
C786 C787 1.386 . S
C786 C788 1.391 . S
C787 C786 1.386 . S
C787 C791 1.393 1_554 S
C788 H777 0.950 . S
C788 C786 1.391 . S
C788 C789 1.400 . S
C789 C783 1.491 . S
C789 C788 1.400 . S
C789 C790 1.398 1_554 S
C790 H778 0.950 . S
C790 C789 1.398 1_556 S
C790 C791 1.391 . S
C791 H779 0.950 . S
C791 C787 1.393 1_556 S
C791 C790 1.391 . S
H792 C800 0.950 . S
H793 C805 0.950 . S
H794 C802 0.950 . S
H795 C804 0.950 . S
H796 C806 0.950 . S
H797 C808 0.950 1_455 S
H798 C810 0.950 . S
H799 C811 0.950 . S
C800 H792 0.950 . S
C800 C801 1.386 . S
C800 C802 1.391 . S
C801 C800 1.386 . S
C801 C805 1.393 . S
C802 H794 0.950 . S
C802 C800 1.391 . S
C802 C803 1.400 . S
C803 C802 1.400 . S
C803 C804 1.398 . S
C803 C809 1.491 . S
C804 H795 0.950 . S
C804 C803 1.398 . S
C804 C805 1.391 . S
C805 H793 0.950 . S
C805 C801 1.393 . S
C805 C804 1.391 . S
C806 H796 0.950 . S
C806 C807 1.386 . S
C806 C808 1.391 . S
C807 C806 1.386 . S
C807 C811 1.393 . S
C808 H797 0.950 1_655 S
C808 C806 1.391 . S
C808 C809 1.400 1_655 S
C809 C803 1.491 . S
C809 C808 1.400 1_455 S
C809 C810 1.398 1_455 S
C810 H798 0.950 . S
C810 C809 1.398 1_655 S
C810 C811 1.391 . S
C811 H799 0.950 . S
C811 C807 1.393 . S
C811 C810 1.391 . S
H812 C820 0.950 . S
H813 C825 0.950 . S
H814 C822 0.950 . S
H815 C824 0.950 . S
H816 C826 0.950 . S
H817 C828 0.950 . S
H818 C830 0.950 1_655 S
H819 C831 0.950 . S
C820 H812 0.950 . S
C820 C821 1.386 . S
C820 C822 1.391 . S
C821 C820 1.386 . S
C821 C825 1.393 . S
C822 H814 0.950 . S
C822 C820 1.391 . S
C822 C823 1.400 . S
C823 C822 1.400 . S
C823 C824 1.398 . S
C823 C829 1.491 . S
C824 H815 0.950 . S
C824 C823 1.398 . S
C824 C825 1.391 . S
C825 H813 0.950 . S
C825 C821 1.393 . S
C825 C824 1.391 . S
C826 H816 0.950 . S
C826 C827 1.386 . S
C826 C828 1.391 . S
C827 C826 1.386 . S
C827 C831 1.393 . S
C828 H817 0.950 . S
C828 C826 1.391 . S
C828 C829 1.400 1_455 S
C829 C823 1.491 . S
C829 C828 1.400 1_655 S
C829 C830 1.398 1_655 S
C830 H818 0.950 1_455 S
C830 C829 1.398 1_455 S
C830 C831 1.391 . S
C831 H819 0.950 . S
C831 C827 1.393 . S
C831 C830 1.391 . S
H832 C840 0.950 . S
H833 C845 0.950 1_655 S
H834 C842 0.950 . S
H835 C844 0.950 . S
H836 C846 0.950 . S
H837 C848 0.950 . S
H838 C850 0.950 . S
H839 C851 0.950 1_455 S
C840 H832 0.950 . S
C840 C841 1.386 . S
C840 C842 1.391 . S
C841 C840 1.386 . S
C841 C845 1.393 1_554 S
C842 H834 0.950 . S
C842 C840 1.391 . S
C842 C843 1.400 . S
C843 C842 1.400 . S
C843 C844 1.398 1_454 S
C843 C849 1.491 1_455 S
C844 H835 0.950 . S
C844 C843 1.398 1_656 S
C844 C845 1.391 1_655 S
C845 H833 0.950 1_455 S
C845 C841 1.393 1_556 S
C845 C844 1.391 1_455 S
C846 H836 0.950 . S
C846 C847 1.386 1_556 S
C846 C848 1.391 . S
C847 C846 1.386 1_554 S
C847 C851 1.393 . S
C848 H837 0.950 . S
C848 C846 1.391 . S
C848 C849 1.400 1_556 S
C849 C843 1.491 1_655 S
C849 C848 1.400 1_554 S
C849 C850 1.398 1_655 S
C850 H838 0.950 . S
C850 C849 1.398 1_455 S
C850 C851 1.391 1_455 S
C851 H839 0.950 1_655 S
C851 C847 1.393 . S
C851 C850 1.391 1_655 S
H852 C860 0.950 . S
H853 C865 0.950 . S
H854 C862 0.950 1_655 S
H855 C864 0.950 . S
H856 C866 0.950 . S
H857 C868 0.950 1_455 S
H858 C870 0.950 . S
H859 C871 0.950 . S
C860 H852 0.950 . S
C860 C861 1.386 . S
C860 C862 1.391 . S
C861 C860 1.386 . S
C861 C865 1.393 . S
C862 H854 0.950 1_455 S
C862 C860 1.391 . S
C862 C863 1.400 . S
C863 C862 1.400 . S
C863 C864 1.398 . S
C863 C869 1.491 1_455 S
C864 H855 0.950 . S
C864 C863 1.398 . S
C864 C865 1.391 . S
C865 H853 0.950 . S
C865 C861 1.393 . S
C865 C864 1.391 . S
C866 H856 0.950 . S
C866 C867 1.386 . S
C866 C868 1.391 . S
C867 C866 1.386 . S
C867 C871 1.393 . S
C868 H857 0.950 1_655 S
C868 C866 1.391 . S
C868 C869 1.400 . S
C869 C863 1.491 1_655 S
C869 C868 1.400 . S
C869 C870 1.398 . S
C870 H858 0.950 . S
C870 C869 1.398 . S
C870 C871 1.391 . S
C871 H859 0.950 . S
C871 C867 1.393 . S
C871 C870 1.391 . S
H872 C880 0.950 . S
H873 C885 0.950 . S
H874 C882 0.950 . S
H875 C884 0.996 . S
H876 C886 0.950 . S
H877 C888 0.950 . S
H878 C890 0.996 . S
H879 C891 0.950 . S
C880 H872 0.950 . S
C880 C881 1.386 1_556 S
C880 C882 1.391 . S
C881 C880 1.386 1_554 S
C881 C885 1.393 . S
C882 H874 0.950 . S
C882 C880 1.391 . S
C882 C883 1.400 1_556 S
C883 C882 1.400 1_554 S
C883 C884 1.398 . S
C883 C889 1.491 1_565 S
C884 H875 0.996 . S
C884 C883 1.398 . S
C884 C885 1.391 . S
C885 H873 0.950 . S
C885 C881 1.393 . S
C885 C884 1.391 . S
C886 H876 0.950 . S
C886 C887 1.386 . S
C886 C888 1.391 . S
C887 C886 1.386 . S
C887 C891 1.393 1_554 S
C888 H877 0.950 . S
C888 C886 1.391 . S
C888 C889 1.400 . S
C889 C883 1.491 1_545 S
C889 C888 1.400 . S
C889 C890 1.398 1_554 S
C890 H878 0.996 . S
C890 C889 1.398 1_556 S
C890 C891 1.391 . S
C891 H879 0.950 . S
C891 C887 1.393 1_556 S
C891 C890 1.391 . S
H892 C900 0.950 . S
H893 C905 0.950 . S
H894 C902 0.950 1_565 S
H895 C904 0.950 . S
H896 C906 0.950 . S
H897 C908 0.950 1_545 S
H898 C910 0.950 . S
H899 C911 0.950 . S
C900 H892 0.950 . S
C900 C901 1.386 . S
C900 C902 1.391 . S
C901 C900 1.386 . S
C901 C905 1.393 . S
C902 H894 0.950 1_545 S
C902 C900 1.391 . S
C902 C903 1.400 . S
C903 C902 1.400 . S
C903 C904 1.398 . S
C903 C909 1.491 1_545 S
C904 H895 0.950 . S
C904 C903 1.398 . S
C904 C905 1.391 . S
C905 H893 0.950 . S
C905 C901 1.393 . S
C905 C904 1.391 . S
C906 H896 0.950 . S
C906 C907 1.386 . S
C906 C908 1.391 . S
C907 C906 1.386 . S
C907 C911 1.393 . S
C908 H897 0.950 1_565 S
C908 C906 1.391 . S
C908 C909 1.400 . S
C909 C903 1.491 1_565 S
C909 C908 1.400 . S
C909 C910 1.398 . S
C910 H898 0.950 . S
C910 C909 1.398 . S
C910 C911 1.391 . S
C911 H899 0.950 . S
C911 C907 1.393 . S
C911 C910 1.391 . S
H912 C920 0.950 . S
H913 C925 0.950 . S
H914 C922 0.950 . S
H915 C924 0.950 . S
H916 C926 0.950 . S
H917 C928 0.950 . S
H918 C930 0.950 . S
H919 C931 0.950 . S
C920 H912 0.950 . S
C920 C921 1.397 . S
C920 C922 1.391 . S
C921 C920 1.397 . S
C921 C925 1.389 1_554 S
C922 H914 0.950 . S
C922 C920 1.391 . S
C922 C923 1.400 . S
C923 C922 1.400 . S
C923 C924 1.398 1_554 S
C923 C929 1.491 . S
C924 H915 0.950 . S
C924 C923 1.398 1_556 S
C924 C925 1.391 . S
C925 H913 0.950 . S
C925 C921 1.389 1_556 S
C925 C924 1.391 . S
C926 H916 0.950 . S
C926 C927 1.386 1_556 S
C926 C928 1.391 . S
C927 C926 1.386 1_554 S
C927 C931 1.393 . S
C928 H917 0.950 . S
C928 C926 1.391 . S
C928 C929 1.400 1_556 S
C929 C923 1.491 . S
C929 C928 1.400 1_554 S
C929 C930 1.398 . S
C930 H918 0.950 . S
C930 C929 1.398 . S
C930 C931 1.391 . S
C931 H919 0.950 . S
C931 C927 1.393 . S
C931 C930 1.391 . S
H932 C940 0.950 . S
H933 C945 0.950 . S
H934 C942 0.950 . S
H935 C944 0.950 . S
H936 C946 0.950 . S
H937 C948 0.950 . S
H938 C950 0.950 . S
H939 C951 0.950 . S
C940 H932 0.950 . S
C940 C941 1.398 . S
C940 C942 1.391 . S
C941 C940 1.398 . S
C941 C945 1.389 1_554 S
C942 H934 0.950 . S
C942 C940 1.391 . S
C942 C943 1.400 . S
C943 C942 1.400 . S
C943 C944 1.398 1_554 S
C943 C949 1.491 . S
C944 H935 0.950 . S
C944 C943 1.398 1_556 S
C944 C945 1.391 . S
C945 H933 0.950 . S
C945 C941 1.389 1_556 S
C945 C944 1.391 . S
C946 H936 0.950 . S
C946 C947 1.386 1_556 S
C946 C948 1.391 . S
C947 C946 1.386 1_554 S
C947 C951 1.393 . S
C948 H937 0.950 . S
C948 C946 1.391 . S
C948 C949 1.400 1_556 S
C949 C943 1.491 . S
C949 C948 1.400 1_554 S
C949 C950 1.398 . S
C950 H938 0.950 . S
C950 C949 1.398 . S
C950 C951 1.391 . S
C951 H939 0.950 . S
C951 C947 1.393 . S
C951 C950 1.391 . S
H952 C960 0.950 . S
H953 C965 0.950 . S
H954 C962 0.950 . S
H955 C964 0.950 . S
H956 C966 0.950 . S
H957 C968 0.950 . S
H958 C970 0.950 . S
H959 C971 0.950 . S
C960 H952 0.950 . S
C960 C961 1.386 . S
C960 C962 1.391 . S
C961 C960 1.386 . S
C961 C965 1.393 . S
C962 H954 0.950 . S
C962 C960 1.391 . S
C962 C963 1.400 . S
C963 C962 1.400 . S
C963 C964 1.398 . S
C963 C969 1.491 . S
C964 H955 0.950 . S
C964 C963 1.398 . S
C964 C965 1.391 . S
C965 H953 0.950 . S
C965 C961 1.393 . S
C965 C964 1.391 . S
C966 H956 0.950 . S
C966 C967 1.386 . S
C966 C968 1.391 . S
C967 C966 1.386 . S
C967 C971 1.393 . S
C968 H957 0.950 . S
C968 C966 1.391 . S
C968 C969 1.400 . S
C969 C963 1.491 . S
C969 C968 1.400 . S
C969 C970 1.398 . S
C970 H958 0.950 . S
C970 C969 1.398 . S
C970 C971 1.391 . S
C971 H959 0.950 . S
C971 C967 1.393 . S
C971 C970 1.391 . S
H972 C980 0.950 . S
H973 C985 0.950 . S
H974 C982 0.950 . S
H975 C984 0.950 . S
H976 C986 0.950 . S
H977 C988 0.950 . S
H978 C990 0.950 . S
H979 C991 0.950 . S
C980 H972 0.950 . S
C980 C981 1.386 . S
C980 C982 1.391 . S
C981 C980 1.386 . S
C981 C985 1.393 . S
C982 H974 0.950 . S
C982 C980 1.391 . S
C982 C983 1.400 . S
C983 C982 1.400 . S
C983 C984 1.398 . S
C983 C989 1.491 . S
C984 H975 0.950 . S
C984 C983 1.398 . S
C984 C985 1.391 . S
C985 H973 0.950 . S
C985 C981 1.393 . S
C985 C984 1.391 . S
C986 H976 0.950 . S
C986 C987 1.386 . S
C986 C988 1.391 . S
C987 C986 1.386 . S
C987 C991 1.393 . S
C988 H977 0.950 . S
C988 C986 1.391 . S
C988 C989 1.400 . S
C989 C983 1.491 . S
C989 C988 1.400 . S
C989 C990 1.398 . S
C990 H978 0.950 . S
C990 C989 1.398 . S
C990 C991 1.391 . S
C991 H979 0.950 . S
C991 C987 1.393 . S
C991 C990 1.391 . S
H992 C1000 0.950 . S
H993 C1005 0.950 . S
H994 C1002 0.950 . S
H995 C1004 0.950 . S
H996 C1006 0.950 . S
H997 C1008 0.950 . S
H998 C1010 0.950 . S
H999 C1011 0.950 . S
C1000 H992 0.950 . S
C1000 C1001 1.386 . S
C1000 C1002 1.391 . S
C1001 C1000 1.386 . S
C1001 C1005 1.393 1_455 S
C1002 H994 0.950 . S
C1002 C1000 1.391 . S
C1002 C1003 1.400 . S
C1003 C1002 1.400 . S
C1003 C1004 1.398 1_455 S
C1003 C1009 1.491 . S
C1004 H995 0.950 . S
C1004 C1003 1.398 1_655 S
C1004 C1005 1.391 . S
C1005 H993 0.950 . S
C1005 C1001 1.393 1_655 S
C1005 C1004 1.391 . S
C1006 H996 0.950 . S
C1006 C1007 1.386 . S
C1006 C1008 1.391 . S
C1007 C1006 1.386 . S
C1007 C1011 1.393 1_655 S
C1008 H997 0.950 . S
C1008 C1006 1.391 . S
C1008 C1009 1.400 1_655 S
C1009 C1003 1.491 . S
C1009 C1008 1.400 1_455 S
C1009 C1010 1.398 . S
C1010 H998 0.950 . S
C1010 C1009 1.398 . S
C1010 C1011 1.391 . S
C1011 H999 0.950 . S
C1011 C1007 1.393 1_455 S
C1011 C1010 1.391 . S
H1012 C1020 0.950 . S
H1013 C1025 0.950 . S
H1014 C1022 0.950 . S
H1015 C1024 0.950 . S
H1016 C1026 0.950 . S
H1017 C1028 0.950 . S
H1018 C1030 0.950 . S
H1019 C1031 0.950 1_655 S
C1020 H1012 0.950 . S
C1020 C1021 1.386 . S
C1020 C1022 1.391 . S
C1021 C1020 1.386 . S
C1021 C1025 1.393 1_655 S
C1022 H1014 0.950 . S
C1022 C1020 1.391 . S
C1022 C1023 1.400 1_655 S
C1023 C1022 1.400 1_455 S
C1023 C1024 1.398 . S
C1023 C1029 1.491 . S
C1024 H1015 0.950 . S
C1024 C1023 1.398 . S
C1024 C1025 1.391 . S
C1025 H1013 0.950 . S
C1025 C1021 1.393 1_455 S
C1025 C1024 1.391 . S
C1026 H1016 0.950 . S
C1026 C1027 1.386 . S
C1026 C1028 1.391 . S
C1027 C1026 1.386 . S
C1027 C1031 1.393 . S
C1028 H1017 0.950 . S
C1028 C1026 1.391 . S
C1028 C1029 1.400 . S
C1029 C1023 1.491 . S
C1029 C1028 1.400 . S
C1029 C1030 1.398 1_455 S
C1030 H1018 0.950 . S
C1030 C1029 1.398 1_655 S
C1030 C1031 1.391 1_655 S
C1031 H1019 0.950 1_455 S
C1031 C1027 1.393 . S
C1031 C1030 1.391 1_455 S
H1032 C1040 0.950 . S
H1033 C1045 0.950 . S
H1034 C1042 0.950 . S
H1035 C1044 0.950 . S
H1036 C1046 0.950 . S
H1037 C1048 0.950 . S
H1038 C1050 0.950 . S
H1039 C1051 0.950 . S
C1040 H1032 0.950 . S
C1040 C1041 1.386 . S
C1040 C1042 1.391 . S
C1041 C1040 1.386 . S
C1041 C1045 1.393 . S
C1042 H1034 0.950 . S
C1042 C1040 1.391 . S
C1042 C1043 1.400 . S
C1043 C1042 1.400 . S
C1043 C1044 1.398 . S
C1043 C1049 1.491 . S
C1044 H1035 0.950 . S
C1044 C1043 1.398 . S
C1044 C1045 1.391 . S
C1045 H1033 0.950 . S
C1045 C1041 1.393 . S
C1045 C1044 1.391 . S
C1046 H1036 0.950 . S
C1046 C1047 1.386 . S
C1046 C1048 1.391 . S
C1047 C1046 1.386 . S
C1047 C1051 1.393 1_455 S
C1048 H1037 0.950 . S
C1048 C1046 1.391 . S
C1048 C1049 1.400 1_455 S
C1049 C1043 1.491 . S
C1049 C1048 1.400 1_655 S
C1049 C1050 1.398 . S
C1050 H1038 0.950 . S
C1050 C1049 1.398 . S
C1050 C1051 1.391 . S
C1051 H1039 0.950 . S
C1051 C1047 1.393 1_655 S
C1051 C1050 1.391 . S
H1052 C1060 0.950 . S
H1053 C1065 0.950 1_455 S
H1054 C1062 0.950 . S
H1055 C1064 0.950 . S
H1056 C1066 0.950 . S
H1057 C1068 0.950 . S
H1058 C1070 0.950 . S
H1059 C1071 0.950 . S
C1060 H1052 0.950 . S
C1060 C1061 1.386 . S
C1060 C1062 1.391 . S
C1061 C1060 1.386 . S
C1061 C1065 1.393 . S
C1062 H1054 0.950 . S
C1062 C1060 1.391 . S
C1062 C1063 1.400 . S
C1063 C1062 1.400 . S
C1063 C1064 1.398 1_655 S
C1063 C1069 1.491 . S
C1064 H1055 0.950 . S
C1064 C1063 1.398 1_455 S
C1064 C1065 1.391 1_455 S
C1065 H1053 0.950 1_655 S
C1065 C1061 1.393 . S
C1065 C1064 1.391 1_655 S
C1066 H1056 0.950 . S
C1066 C1067 1.386 . S
C1066 C1068 1.391 . S
C1067 C1066 1.386 . S
C1067 C1071 1.393 1_455 S
C1068 H1057 0.950 . S
C1068 C1066 1.391 . S
C1068 C1069 1.400 1_455 S
C1069 C1063 1.491 . S
C1069 C1068 1.400 1_655 S
C1069 C1070 1.398 . S
C1070 H1058 0.950 . S
C1070 C1069 1.398 . S
C1070 C1071 1.391 . S
C1071 H1059 0.950 . S
C1071 C1067 1.393 1_655 S
C1071 C1070 1.391 . S
H1072 C1080 0.950 . S
H1073 C1085 0.950 . S
H1074 C1082 0.950 . S
H1075 C1084 0.950 . S
H1076 C1086 0.950 . S
H1077 C1088 0.950 . S
H1078 C1090 0.950 . S
H1079 C1091 0.950 . S
C1080 H1072 0.950 . S
C1080 C1081 1.386 . S
C1080 C1082 1.391 . S
C1081 C1080 1.386 . S
C1081 C1085 1.393 . S
C1082 H1074 0.950 . S
C1082 C1080 1.391 . S
C1082 C1083 1.400 . S
C1083 C1082 1.400 . S
C1083 C1084 1.398 . S
C1083 C1089 1.491 . S
C1084 H1075 0.950 . S
C1084 C1083 1.398 . S
C1084 C1085 1.391 . S
C1085 H1073 0.950 . S
C1085 C1081 1.393 . S
C1085 C1084 1.391 . S
C1086 H1076 0.950 . S
C1086 C1087 1.386 . S
C1086 C1088 1.391 . S
C1087 C1086 1.386 . S
C1087 C1091 1.393 . S
C1088 H1077 0.950 . S
C1088 C1086 1.391 . S
C1088 C1089 1.400 . S
C1089 C1083 1.491 . S
C1089 C1088 1.400 . S
C1089 C1090 1.398 . S
C1090 H1078 0.950 . S
C1090 C1089 1.398 . S
C1090 C1091 1.391 . S
C1091 H1079 0.950 . S
C1091 C1087 1.393 . S
C1091 C1090 1.391 . S
H1092 C1100 0.950 . S
H1093 C1105 0.950 . S
H1094 C1102 0.950 . S
H1095 C1104 0.950 . S
H1096 C1106 0.950 . S
H1097 C1108 0.950 . S
H1098 C1110 0.950 . S
H1099 C1111 0.950 . S
C1100 H1092 0.950 . S
C1100 C1101 1.386 . S
C1100 C1102 1.391 . S
C1101 C1100 1.386 . S
C1101 C1105 1.393 . S
C1102 H1094 0.950 . S
C1102 C1100 1.391 . S
C1102 C1103 1.400 . S
C1103 C1102 1.400 . S
C1103 C1104 1.398 . S
C1103 C1109 1.491 . S
C1104 H1095 0.950 . S
C1104 C1103 1.398 . S
C1104 C1105 1.391 . S
C1105 H1093 0.950 . S
C1105 C1101 1.393 . S
C1105 C1104 1.391 . S
C1106 H1096 0.950 . S
C1106 C1107 1.386 . S
C1106 C1108 1.391 . S
C1107 C1106 1.386 . S
C1107 C1111 1.393 . S
C1108 H1097 0.950 . S
C1108 C1106 1.391 . S
C1108 C1109 1.400 . S
C1109 C1103 1.491 . S
C1109 C1108 1.400 . S
C1109 C1110 1.398 . S
C1110 H1098 0.950 . S
C1110 C1109 1.398 . S
C1110 C1111 1.391 . S
C1111 H1099 0.950 . S
C1111 C1107 1.393 . S
C1111 C1110 1.391 . S
H1112 C1120 0.950 . S
H1113 C1125 0.950 . S
H1114 C1122 0.950 . S
H1115 C1124 0.950 . S
H1116 C1126 0.950 . S
H1117 C1128 0.950 . S
H1118 C1130 0.950 . S
H1119 C1131 0.950 . S
C1120 H1112 0.950 . S
C1120 C1121 1.386 . S
C1120 C1122 1.391 . S
C1121 C1120 1.386 . S
C1121 C1125 1.393 . S
C1122 H1114 0.950 . S
C1122 C1120 1.391 . S
C1122 C1123 1.400 . S
C1123 C1122 1.400 . S
C1123 C1124 1.398 . S
C1123 C1129 1.491 . S
C1124 H1115 0.950 . S
C1124 C1123 1.398 . S
C1124 C1125 1.391 . S
C1125 H1113 0.950 . S
C1125 C1121 1.393 . S
C1125 C1124 1.391 . S
C1126 H1116 0.950 . S
C1126 C1127 1.386 . S
C1126 C1128 1.391 . S
C1127 C1126 1.386 . S
C1127 C1131 1.393 . S
C1128 H1117 0.950 . S
C1128 C1126 1.391 . S
C1128 C1129 1.400 . S
C1129 C1123 1.491 . S
C1129 C1128 1.400 . S
C1129 C1130 1.398 . S
C1130 H1118 0.950 . S
C1130 C1129 1.398 . S
C1130 C1131 1.391 . S
C1131 H1119 0.950 . S
C1131 C1127 1.393 . S
C1131 C1130 1.391 . S
H1132 C1140 0.950 . S
H1133 C1145 0.950 . S
H1134 C1142 0.950 . S
H1135 C1144 0.950 . S
H1136 C1146 0.950 . S
H1137 C1148 0.950 . S
H1138 C1150 0.950 . S
H1139 C1151 0.950 . S
C1140 H1132 0.950 . S
C1140 C1141 1.386 . S
C1140 C1142 1.391 . S
C1141 C1140 1.386 . S
C1141 C1145 1.393 . S
C1142 H1134 0.950 . S
C1142 C1140 1.391 . S
C1142 C1143 1.400 . S
C1143 C1142 1.400 . S
C1143 C1144 1.398 . S
C1143 C1149 1.491 . S
C1144 H1135 0.950 . S
C1144 C1143 1.398 . S
C1144 C1145 1.391 . S
C1145 H1133 0.950 . S
C1145 C1141 1.393 . S
C1145 C1144 1.391 . S
C1146 H1136 0.950 . S
C1146 C1147 1.386 . S
C1146 C1148 1.391 . S
C1147 C1146 1.386 . S
C1147 C1151 1.393 . S
C1148 H1137 0.950 . S
C1148 C1146 1.391 . S
C1148 C1149 1.400 . S
C1149 C1143 1.491 . S
C1149 C1148 1.400 . S
C1149 C1150 1.398 . S
C1150 H1138 0.950 . S
C1150 C1149 1.398 . S
C1150 C1151 1.391 . S
C1151 H1139 0.950 . S
C1151 C1147 1.393 . S
C1151 C1150 1.391 . S
C681 C67 2.086 . S
C687 C56 2.086 1_556 S
C701 C151 2.075 . S
C707 C140 2.075 . S
C721 C224 2.091 . S
C727 C235 2.091 . S
C741 C308 2.077 . S
C747 C319 2.077 . S
C761 C403 2.086 . S
C767 C392 2.086 1_556 S
C781 C476 2.076 . S
C787 C487 2.076 . S
C801 C560 2.083 . S
C807 C571 2.083 . S
C821 C655 2.091 . S
C827 C644 2.091 . S
C841 C154 1.791 1_554 S
C847 C58 1.791 . S
C861 C322 1.773 . S
C867 C226 1.773 . S
C881 C394 1.810 . S
C887 C490 1.810 1_554 S
C901 C562 1.771 . S
C907 C658 1.771 . S
C921 C70 1.357 1_554 S
C927 C478 1.370 . S
C941 C406 1.357 1_554 S
C947 C142 1.370 . S
C961 C238 1.389 . S
C967 C646 1.389 . S
C981 C310 1.410 . S
C987 C574 1.410 . S
C1001 C74 1.504 . S
C1007 C326 1.592 . S
C1021 C158 1.592 . S
C1027 C242 1.519 . S
C1041 C147 1.495 . S
C1047 C231 1.600 . S
C1061 C315 1.500 . S
C1067 C63 1.600 . S
C1081 C410 1.501 . S
C1087 C662 1.593 . S
C1101 C494 1.587 . S
C1107 C578 1.524 . S
C1121 C483 1.526 . S
C1127 C567 1.589 . S
C1141 C651 1.518 . S
C1147 C399 1.594 . S
