# Generated by pormake.
# Topology ecs, (8)-cn, num edge types: 1
# Building blocks:
#     Node 0, Type 0, BuildingBlock: TAGTUT_clean_sbu_1, # of connection points: 8
#     Node 1, Type 0, BuildingBlock: TAGTUT_clean_sbu_1, # of connection points: 8
#     Node 2, Type 0, BuildingBlock: TAGTUT_clean_sbu_1, # of connection points: 8
#     Node 3, Type 0, BuildingBlock: TAGTUT_clean_sbu_1, # of connection points: 8
#     Node 4, Type 0, BuildingBlock: TAGTUT_clean_sbu_1, # of connection points: 8
#     Node 5, Type 0, BuildingBlock: TAGTUT_clean_sbu_1, # of connection points: 8
#     Node 6, Type 0, BuildingBlock: TAGTUT_clean_sbu_1, # of connection points: 8
#     Node 7, Type 0, BuildingBlock: TAGTUT_clean_sbu_1, # of connection points: 8
#     Node 8, Type 0, BuildingBlock: TAGTUT_clean_sbu_1, # of connection points: 8
#     Node 9, Type 0, BuildingBlock: TAGTUT_clean_sbu_1, # of connection points: 8
#     Node 10, Type 0, BuildingBlock: TAGTUT_clean_sbu_1, # of connection points: 8
#     Node 11, Type 0, BuildingBlock: TAGTUT_clean_sbu_1, # of connection points: 8
#     Edge 12, Type (0, 0), BuildingBlock: TEMPAE_clean_linker_10, # of connection points: 2
#     Edge 13, Type (0, 0), BuildingBlock: TEMPAE_clean_linker_10, # of connection points: 2
#     Edge 14, Type (0, 0), BuildingBlock: TEMPAE_clean_linker_10, # of connection points: 2
#     Edge 15, Type (0, 0), BuildingBlock: TEMPAE_clean_linker_10, # of connection points: 2
#     Edge 16, Type (0, 0), BuildingBlock: TEMPAE_clean_linker_10, # of connection points: 2
#     Edge 17, Type (0, 0), BuildingBlock: TEMPAE_clean_linker_10, # of connection points: 2
#     Edge 18, Type (0, 0), BuildingBlock: TEMPAE_clean_linker_10, # of connection points: 2
#     Edge 19, Type (0, 0), BuildingBlock: TEMPAE_clean_linker_10, # of connection points: 2
#     Edge 20, Type (0, 0), BuildingBlock: TEMPAE_clean_linker_10, # of connection points: 2
#     Edge 21, Type (0, 0), BuildingBlock: TEMPAE_clean_linker_10, # of connection points: 2
#     Edge 22, Type (0, 0), BuildingBlock: TEMPAE_clean_linker_10, # of connection points: 2
#     Edge 23, Type (0, 0), BuildingBlock: TEMPAE_clean_linker_10, # of connection points: 2
#     Edge 24, Type (0, 0), BuildingBlock: TEMPAE_clean_linker_10, # of connection points: 2
#     Edge 25, Type (0, 0), BuildingBlock: TEMPAE_clean_linker_10, # of connection points: 2
#     Edge 26, Type (0, 0), BuildingBlock: TEMPAE_clean_linker_10, # of connection points: 2
#     Edge 27, Type (0, 0), BuildingBlock: TEMPAE_clean_linker_10, # of connection points: 2
#     Edge 28, Type (0, 0), BuildingBlock: TEMPAE_clean_linker_10, # of connection points: 2
#     Edge 29, Type (0, 0), BuildingBlock: TEMPAE_clean_linker_10, # of connection points: 2
#     Edge 30, Type (0, 0), BuildingBlock: TEMPAE_clean_linker_10, # of connection points: 2
#     Edge 31, Type (0, 0), BuildingBlock: TEMPAE_clean_linker_10, # of connection points: 2
#     Edge 32, Type (0, 0), BuildingBlock: TEMPAE_clean_linker_10, # of connection points: 2
#     Edge 33, Type (0, 0), BuildingBlock: TEMPAE_clean_linker_10, # of connection points: 2
#     Edge 34, Type (0, 0), BuildingBlock: TEMPAE_clean_linker_10, # of connection points: 2
#     Edge 35, Type (0, 0), BuildingBlock: TEMPAE_clean_linker_10, # of connection points: 2
#     Edge 36, Type (0, 0), BuildingBlock: TEMPAE_clean_linker_10, # of connection points: 2
#     Edge 37, Type (0, 0), BuildingBlock: TEMPAE_clean_linker_10, # of connection points: 2
#     Edge 38, Type (0, 0), BuildingBlock: TEMPAE_clean_linker_10, # of connection points: 2
#     Edge 39, Type (0, 0), BuildingBlock: TEMPAE_clean_linker_10, # of connection points: 2
#     Edge 40, Type (0, 0), BuildingBlock: TEMPAE_clean_linker_10, # of connection points: 2
#     Edge 41, Type (0, 0), BuildingBlock: TEMPAE_clean_linker_10, # of connection points: 2
#     Edge 42, Type (0, 0), BuildingBlock: TEMPAE_clean_linker_10, # of connection points: 2
#     Edge 43, Type (0, 0), BuildingBlock: TEMPAE_clean_linker_10, # of connection points: 2
#     Edge 44, Type (0, 0), BuildingBlock: TEMPAE_clean_linker_10, # of connection points: 2
#     Edge 45, Type (0, 0), BuildingBlock: TEMPAE_clean_linker_10, # of connection points: 2
#     Edge 46, Type (0, 0), BuildingBlock: TEMPAE_clean_linker_10, # of connection points: 2
#     Edge 47, Type (0, 0), BuildingBlock: TEMPAE_clean_linker_10, # of connection points: 2
#     Edge 48, Type (0, 0), BuildingBlock: TEMPAE_clean_linker_10, # of connection points: 2
#     Edge 49, Type (0, 0), BuildingBlock: TEMPAE_clean_linker_10, # of connection points: 2
#     Edge 50, Type (0, 0), BuildingBlock: TEMPAE_clean_linker_10, # of connection points: 2
#     Edge 51, Type (0, 0), BuildingBlock: TEMPAE_clean_linker_10, # of connection points: 2
#     Edge 52, Type (0, 0), BuildingBlock: TEMPAE_clean_linker_10, # of connection points: 2
#     Edge 53, Type (0, 0), BuildingBlock: TEMPAE_clean_linker_10, # of connection points: 2
#     Edge 54, Type (0, 0), BuildingBlock: TEMPAE_clean_linker_10, # of connection points: 2
#     Edge 55, Type (0, 0), BuildingBlock: TEMPAE_clean_linker_10, # of connection points: 2
#     Edge 56, Type (0, 0), BuildingBlock: TEMPAE_clean_linker_10, # of connection points: 2
#     Edge 57, Type (0, 0), BuildingBlock: TEMPAE_clean_linker_10, # of connection points: 2
#     Edge 58, Type (0, 0), BuildingBlock: TEMPAE_clean_linker_10, # of connection points: 2
#     Edge 59, Type (0, 0), BuildingBlock: TEMPAE_clean_linker_10, # of connection points: 2
# Relax obj value: 0.344
# Max RMSD: 0.278
# Mean RMSD: 0.278
data_MOF--net-ecs--node1-TAGTUT_clean_sbu_1--edge1-TEMPAE_clean_linker_10
_symmetry_space_group_name_H-M    P1
_symmetry_Int_Tables_number       1
_symmetry_cell_setting            triclinic
loop_
_symmetry_equiv_pos_as_xyz
'x, y, z'
_cell_length_a     53.646631
_cell_length_b     53.650933
_cell_length_c     27.037254
_cell_angle_alpha  90.020362
_cell_angle_beta   90.011343
_cell_angle_gamma 120.02111
loop_
_atom_site_label
_atom_site_type_symbol
_atom_site_fract_x
_atom_site_fract_y
_atom_site_fract_z
_atom_type_partial_charge
C0 C 0.47193 0.4183 0.11527 0.0
C1 C 0.52382 0.38772 0.07732 0.0
C2 C 0.43633 0.2804 0.10305 0.0
Mg3 Mg 0.50273 0.39498 0.17939 0.0
O4 O 0.46802 0.36055 0.17397 0.0
Mg5 Mg 0.45307 0.34818 0.1043 0.0
Mg6 Mg 0.47127 0.32628 0.19248 0.0
O7 O 0.47587 0.29293 0.20945 0.0
Mg8 Mg 0.44911 0.25436 0.19859 0.0
Mg9 Mg 0.49776 0.30451 0.27283 0.0
C10 C 0.50538 0.36938 0.2852 0.0
C11 C 0.54064 0.34996 0.19229 0.0
O12 O 0.45664 0.39328 0.0954 0.0
O13 O 0.48814 0.42273 0.15292 0.0
O14 O 0.49748 0.37039 0.06622 0.0
O15 O 0.53145 0.39808 0.12067 0.0
O16 O 0.51247 0.39101 0.25647 0.0
O17 O 0.48826 0.34321 0.27142 0.0
C18 C 0.40502 0.31253 0.18985 0.0
O19 O 0.42331 0.30788 0.21329 0.0
O20 O 0.41115 0.32652 0.14878 0.0
O21 O 0.50859 0.26794 0.25881 0.0
O22 O 0.47938 0.23963 0.19806 0.0
O23 O 0.45676 0.27187 0.3156 0.0
C24 C 0.50096 0.24755 0.22694 0.0
O25 O 0.4241 0.23903 0.26437 0.0
O26 O 0.43138 0.25854 0.12953 0.0
C27 C 0.43253 0.24894 0.30784 0.0
O28 O 0.45412 0.3064 0.11667 0.0
O29 O 0.51913 0.34921 0.17043 0.0
O30 O 0.53761 0.33495 0.23062 0.0
C31 C 0.58791 0.05496 0.09947 0.0
C32 C 0.61519 0.14047 0.07458 0.0
C33 C 0.72363 0.16137 0.10264 0.0
Mg34 Mg 0.60587 0.10535 0.17097 0.0
O35 O 0.64217 0.10912 0.16529 0.0
Mg36 Mg 0.6568 0.11076 0.0957 0.0
Mg37 Mg 0.67515 0.14643 0.18854 0.0
O38 O 0.7073 0.18391 0.21038 0.0
Mg39 Mg 0.74629 0.1976 0.20095 0.0
Mg40 Mg 0.69387 0.19153 0.27414 0.0
C41 C 0.62937 0.13229 0.27932 0.0
C42 C 0.64999 0.19069 0.19206 0.0
O43 O 0.61348 0.06867 0.08125 0.0
O44 O 0.58063 0.06353 0.13829 0.0
O45 O 0.63457 0.1345 0.0614 0.0
O46 O 0.60276 0.1327 0.11649 0.0
O47 O 0.60851 0.11749 0.24907 0.0
O48 O 0.65601 0.14281 0.26693 0.0
C49 C 0.6909 0.09557 0.18032 0.0
O50 O 0.69423 0.11723 0.2064 0.0
O51 O 0.67833 0.08938 0.13781 0.0
O52 O 0.72936 0.23991 0.26471 0.0
O53 O 0.75883 0.24191 0.20355 0.0
O54 O 0.72683 0.18349 0.3172 0.0
C55 C 0.74972 0.25409 0.2334 0.0
O56 O 0.76128 0.18722 0.26603 0.0
O57 O 0.7447 0.17771 0.13104 0.0
C58 C 0.75066 0.18394 0.30931 0.0
O59 O 0.69731 0.15303 0.11398 0.0
O60 O 0.65172 0.17105 0.16814 0.0
O61 O 0.66371 0.20118 0.23213 0.0
C62 C 0.93964 0.52348 0.11211 0.0
C63 C 0.8546 0.47184 0.07959 0.0
C64 C 0.84087 0.56384 0.10552 0.0
Mg65 Mg 0.88675 0.49492 0.17912 0.0
O66 O 0.88782 0.52988 0.17262 0.0
Mg67 Mg 0.889 0.5435 0.10245 0.0
Mg68 Mg 0.85164 0.52863 0.19395 0.0
O69 O 0.81494 0.52603 0.21379 0.0
Mg70 Mg 0.80393 0.55334 0.20282 0.0
Mg71 Mg 0.80541 0.50514 0.27807 0.0
C72 C 0.86154 0.49527 0.28666 0.0
C73 C 0.80395 0.45998 0.19829 0.0
O74 O 0.92957 0.53827 0.0915 0.0
O75 O 0.92819 0.50778 0.15038 0.0
O76 O 0.86337 0.49792 0.06666 0.0
O77 O 0.8595 0.46575 0.12274 0.0
O78 O 0.87462 0.48689 0.25695 0.0
O79 O 0.85302 0.51288 0.27333 0.0
C80 C 0.90586 0.59372 0.18633 0.0
O81 O 0.88323 0.57656 0.2116 0.0
O82 O 0.91213 0.58634 0.14485 0.0
O83 O 0.75811 0.49535 0.26652 0.0
O84 O 0.75878 0.52392 0.20493 0.0
O85 O 0.81594 0.54721 0.31952 0.0
C86 C 0.74518 0.50282 0.23474 0.0
O87 O 0.81545 0.57936 0.26749 0.0
O88 O 0.82512 0.56995 0.1329 0.0
C89 C 0.81762 0.57155 0.31106 0.0
O90 O 0.84774 0.54491 0.1181 0.0
O91 O 0.82454 0.48057 0.17446 0.0
O92 O 0.79361 0.46432 0.23752 0.0
C93 C 0.41298 0.46912 0.39408 0.0
C94 C 0.38555 0.52678 0.42155 0.0
C95 C 0.27715 0.43891 0.39253 0.0
Mg96 Mg 0.39471 0.50178 0.32397 0.0
O97 O 0.35854 0.469 0.32942 0.0
Mg98 Mg 0.34403 0.45557 0.39888 0.0
Mg99 Mg 0.32541 0.47315 0.30672 0.0
O100 O 0.29305 0.47831 0.28559 0.0
Mg101 Mg 0.25426 0.45155 0.29375 0.0
Mg102 Mg 0.30628 0.49941 0.22182 0.0
C103 C 0.37109 0.50509 0.21584 0.0
C104 C 0.35014 0.54248 0.30396 0.0
O105 O 0.38745 0.45699 0.4125 0.0
O106 O 0.4201 0.48516 0.35553 0.0
O107 O 0.36625 0.50127 0.43412 0.0
O108 O 0.39784 0.53192 0.37943 0.0
O109 O 0.39204 0.51122 0.24588 0.0
O110 O 0.34448 0.48904 0.22847 0.0
C111 C 0.30991 0.40657 0.31385 0.0
O112 O 0.30647 0.42493 0.28815 0.0
O113 O 0.32257 0.41285 0.35626 0.0
O114 O 0.26995 0.51129 0.2319 0.0
O115 O 0.23991 0.4819 0.29079 0.0
O116 O 0.27407 0.45825 0.17846 0.0
C117 C 0.24889 0.50377 0.26233 0.0
O118 O 0.24051 0.42589 0.22891 0.0
O119 O 0.25607 0.43369 0.36381 0.0
C120 C 0.25107 0.43401 0.1858 0.0
O121 O 0.3034 0.45723 0.38132 0.0
O122 O 0.34868 0.52111 0.32745 0.0
O123 O 0.33613 0.53927 0.26423 0.0
C124 C 0.53386 0.94762 0.38248 0.0
C125 C 0.47856 0.86391 0.41641 0.0
C126 C 0.56555 0.84304 0.38997 0.0
Mg127 Mg 0.50077 0.89435 0.31628 0.0
O128 O 0.53454 0.89259 0.32135 0.0
Mg129 Mg 0.54946 0.89399 0.39063 0.0
Mg130 Mg 0.53057 0.85483 0.30196 0.0
O131 O 0.52558 0.81688 0.2841 0.0
Mg132 Mg 0.55297 0.80569 0.29312 0.0
Mg133 Mg 0.50413 0.80764 0.22047 0.0
C134 C 0.49684 0.86536 0.21027 0.0
C135 C 0.46128 0.80939 0.30202 0.0
O136 O 0.54782 0.936 0.40059 0.0
O137 O 0.51655 0.93678 0.34574 0.0
O138 O 0.5047 0.87224 0.42808 0.0
O139 O 0.47148 0.86782 0.37335 0.0
O140 O 0.49057 0.88059 0.239 0.0
O141 O 0.51357 0.85578 0.22381 0.0
C142 C 0.59721 0.90638 0.30471 0.0
O143 O 0.5785 0.88386 0.28087 0.0
O144 O 0.5915 0.91396 0.34644 0.0
O145 O 0.49342 0.7601 0.23254 0.0
O146 O 0.52329 0.76063 0.29166 0.0
O147 O 0.54535 0.81693 0.17734 0.0
C148 C 0.50144 0.74714 0.26328 0.0
O149 O 0.57845 0.81731 0.22797 0.0
O150 O 0.57069 0.82658 0.36266 0.0
C151 C 0.56995 0.81902 0.18475 0.0
O152 O 0.54751 0.85106 0.37718 0.0
O153 O 0.48277 0.8301 0.32408 0.0
O154 O 0.4643 0.79768 0.26327 0.0
C155 C 0.05686 0.58942 0.39279 0.0
C156 C 0.14205 0.61811 0.42221 0.0
C157 C 0.16124 0.72603 0.39196 0.0
Mg158 Mg 0.10844 0.60841 0.32389 0.0
O159 O 0.11123 0.64433 0.32897 0.0
Mg160 Mg 0.11152 0.65876 0.39814 0.0
Mg161 Mg 0.14843 0.67776 0.30675 0.0
O162 O 0.18592 0.71042 0.28593 0.0
Mg163 Mg 0.19801 0.74919 0.29425 0.0
Mg164 Mg 0.19423 0.69728 0.2224 0.0
C165 C 0.13552 0.63222 0.21609 0.0
C166 C 0.19377 0.65388 0.30497 0.0
O167 O 0.06979 0.61497 0.41125 0.0
O168 O 0.06629 0.58254 0.35462 0.0
O169 O 0.13531 0.63709 0.43433 0.0
O170 O 0.13545 0.60585 0.38 0.0
O171 O 0.1208 0.61118 0.24597 0.0
O172 O 0.14582 0.65877 0.22877 0.0
C173 C 0.09649 0.69211 0.31189 0.0
O174 O 0.11872 0.69599 0.28701 0.0
O175 O 0.08996 0.67954 0.35437 0.0
O176 O 0.24226 0.73389 0.23259 0.0
O177 O 0.24284 0.76375 0.29175 0.0
O178 O 0.1852 0.72923 0.17859 0.0
C179 C 0.25581 0.75498 0.263 0.0
O180 O 0.18664 0.76299 0.2289 0.0
O181 O 0.17745 0.74714 0.36358 0.0
C182 C 0.18425 0.75239 0.18582 0.0
O183 O 0.15371 0.69981 0.38118 0.0
O184 O 0.17362 0.65503 0.32827 0.0
O185 O 0.20449 0.66788 0.26525 0.0
C186 C 0.4924 0.74647 0.76647 0.0
C187 C 0.56525 0.75133 0.68749 0.0
C188 C 0.49833 0.62981 0.7152 0.0
Mg189 Mg 0.54741 0.74639 0.79625 0.0
O190 O 0.52355 0.70704 0.78616 0.0
Mg191 Mg 0.50199 0.69302 0.72295 0.0
Mg192 Mg 0.52968 0.67522 0.80699 0.0
O193 O 0.53452 0.64242 0.82876 0.0
Mg194 Mg 0.50185 0.60612 0.82272 0.0
Mg195 Mg 0.54776 0.65664 0.89827 0.0
C196 C 0.56304 0.72357 0.89277 0.0
C197 C 0.59641 0.69168 0.81303 0.0
O198 O 0.48717 0.72634 0.73529 0.0
O199 O 0.51416 0.75723 0.79544 0.0
O200 O 0.54233 0.72705 0.67967 0.0
O201 O 0.57227 0.76219 0.7307 0.0
O202 O 0.56665 0.74455 0.86511 0.0
O203 O 0.5454 0.69711 0.8816 0.0
C204 C 0.4602 0.64875 0.80534 0.0
O205 O 0.48191 0.65112 0.8289 0.0
O206 O 0.46289 0.66203 0.76507 0.0
O207 O 0.54692 0.61328 0.91083 0.0
O208 O 0.51893 0.58102 0.85318 0.0
O209 O 0.50191 0.63378 0.93338 0.0
C210 C 0.53498 0.58789 0.8917 0.0
O211 O 0.47144 0.60217 0.8784 0.0
O212 O 0.49223 0.60866 0.74469 0.0
C213 C 0.47646 0.61436 0.92066 0.0
O214 O 0.51415 0.6563 0.72855 0.0
O215 O 0.57779 0.69506 0.788 0.0
O216 O 0.59042 0.67879 0.85524 0.0
C217 C 0.23657 0.74511 0.75428 0.0
C218 C 0.24695 0.82203 0.68227 0.0
C219 C 0.36477 0.8527 0.70805 0.0
Mg220 Mg 0.24951 0.80494 0.78929 0.0
O221 O 0.2869 0.81265 0.77828 0.0
Mg222 Mg 0.29685 0.80341 0.71267 0.0
Mg223 Mg 0.32283 0.84717 0.79935 0.0
O224 O 0.35933 0.88168 0.82119 0.0
Mg225 Mg 0.39176 0.87791 0.8151 0.0
Mg226 Mg 0.34747 0.88459 0.89091 0.0
C227 C 0.27817 0.83939 0.88828 0.0
C228 C 0.31587 0.90381 0.80785 0.0
O229 O 0.25671 0.75741 0.72186 0.0
O230 O 0.23063 0.75938 0.78536 0.0
O231 O 0.26855 0.81866 0.67317 0.0
O232 O 0.23683 0.81939 0.72583 0.0
O233 O 0.25609 0.82552 0.86029 0.0
O234 O 0.30342 0.84433 0.87579 0.0
C235 C 0.33741 0.79488 0.79057 0.0
O236 O 0.33986 0.81565 0.81766 0.0
O237 O 0.32243 0.78754 0.75122 0.0
O238 O 0.39416 0.92388 0.90057 0.0
O239 O 0.4225 0.91885 0.84435 0.0
O240 O 0.3659 0.85797 0.92745 0.0
C241 C 0.41893 0.93206 0.88078 0.0
O242 O 0.3914 0.84976 0.87127 0.0
O243 O 0.3861 0.86338 0.73846 0.0
C244 C 0.38162 0.84724 0.91507 0.0
O245 O 0.33967 0.84856 0.71979 0.0
O246 O 0.30959 0.88111 0.78232 0.0
O247 O 0.3295 0.90946 0.84922 0.0
C248 C 0.25426 0.50281 0.76361 0.0
C249 C 0.18186 0.43465 0.68622 0.0
C250 C 0.13401 0.50569 0.7154 0.0
Mg251 Mg 0.19582 0.45135 0.7941 0.0
O252 O 0.18523 0.4793 0.78715 0.0
Mg253 Mg 0.19332 0.50041 0.72328 0.0
Mg254 Mg 0.14739 0.47384 0.80698 0.0
O255 O 0.10978 0.46936 0.8283 0.0
Mg256 Mg 0.10617 0.50202 0.8226 0.0
Mg257 Mg 0.11023 0.45557 0.89768 0.0
C258 C 0.1602 0.43874 0.89262 0.0
C259 C 0.09638 0.40718 0.81199 0.0
O260 O 0.24125 0.51149 0.73417 0.0
O261 O 0.2408 0.48051 0.79097 0.0
O262 O 0.18423 0.45941 0.67942 0.0
O263 O 0.18322 0.42576 0.72923 0.0
O264 O 0.17589 0.43334 0.86384 0.0
O265 O 0.15277 0.45748 0.88175 0.0
C266 C 0.19165 0.54339 0.80487 0.0
O267 O 0.17161 0.52184 0.8279 0.0
O268 O 0.20315 0.54032 0.76588 0.0
O269 O 0.06815 0.45684 0.91016 0.0
O270 O 0.06391 0.48513 0.85319 0.0
O271 O 0.13338 0.50112 0.93342 0.0
C272 C 0.05484 0.469 0.89159 0.0
O273 O 0.13276 0.53202 0.87887 0.0
O274 O 0.11858 0.5115 0.74451 0.0
C275 C 0.13967 0.52668 0.92109 0.0
O276 O 0.14481 0.49004 0.72903 0.0
O277 O 0.11857 0.42577 0.78734 0.0
O278 O 0.08942 0.41308 0.85421 0.0
C279 C 0.7582 0.50341 0.73236 0.0
C280 C 0.75482 0.5719 0.80992 0.0
C281 C 0.63512 0.49329 0.78485 0.0
Mg282 Mg 0.75038 0.55411 0.701 0.0
O283 O 0.71204 0.52719 0.7125 0.0
Mg284 Mg 0.70073 0.50581 0.77629 0.0
Mg285 Mg 0.67757 0.52913 0.69295 0.0
O286 O 0.64208 0.52949 0.6725 0.0
Mg287 Mg 0.60878 0.49376 0.67867 0.0
Mg288 Mg 0.65421 0.54355 0.60241 0.0
C289 C 0.72325 0.56504 0.60469 0.0
C290 C 0.68745 0.59372 0.68648 0.0
O291 O 0.73836 0.49659 0.76495 0.0
O292 O 0.76545 0.52409 0.70171 0.0
O293 O 0.73184 0.54779 0.81823 0.0
O294 O 0.76512 0.57955 0.76646 0.0
O295 O 0.74521 0.57103 0.63179 0.0
O296 O 0.69749 0.54588 0.61711 0.0
C297 C 0.65804 0.46082 0.69503 0.0
O298 O 0.65763 0.48141 0.672 0.0
O299 O 0.67232 0.465 0.73473 0.0
O300 O 0.60785 0.53723 0.59262 0.0
O301 O 0.5792 0.5056 0.65075 0.0
O302 O 0.63499 0.49826 0.56569 0.0
C303 C 0.58306 0.52168 0.61314 0.0
O304 O 0.60741 0.46542 0.62144 0.0
O305 O 0.61346 0.48388 0.75535 0.0
C306 C 0.6182 0.472 0.57822 0.0
O307 O 0.66064 0.51287 0.77215 0.0
O308 O 0.69325 0.57671 0.71141 0.0
O309 O 0.67351 0.58624 0.64526 0.0
C310 C 0.50767 0.25452 0.72735 0.0
C311 C 0.43561 0.18699 0.80685 0.0
C312 C 0.50397 0.13342 0.78244 0.0
Mg313 Mg 0.4534 0.19827 0.69758 0.0
O314 O 0.47754 0.18348 0.70943 0.0
Mg315 Mg 0.49915 0.19231 0.77294 0.0
Mg316 Mg 0.47232 0.14576 0.68936 0.0
O317 O 0.46855 0.10845 0.66833 0.0
Mg318 Mg 0.50204 0.10664 0.6754 0.0
Mg319 Mg 0.45553 0.10841 0.59821 0.0
C320 C 0.43891 0.15946 0.60154 0.0
C321 C 0.40619 0.09399 0.68272 0.0
O322 O 0.51288 0.24049 0.76044 0.0
O323 O 0.48648 0.24229 0.69726 0.0
O324 O 0.45847 0.18565 0.81531 0.0
O325 O 0.42861 0.1903 0.76326 0.0
O326 O 0.43475 0.17669 0.62864 0.0
O327 O 0.45656 0.15086 0.61387 0.0
C328 C 0.5418 0.18981 0.69206 0.0
O329 O 0.52026 0.17014 0.66857 0.0
O330 O 0.5388 0.2008 0.73164 0.0
O331 O 0.4586 0.06665 0.58641 0.0
O332 O 0.48656 0.06464 0.64679 0.0
O333 O 0.50132 0.13244 0.56327 0.0
C334 C 0.47166 0.05478 0.60722 0.0
O335 O 0.53212 0.13277 0.61905 0.0
O336 O 0.51089 0.11892 0.75323 0.0
C337 C 0.52691 0.13922 0.57638 0.0
O338 O 0.48776 0.14351 0.76853 0.0
O339 O 0.42418 0.11648 0.70752 0.0
O340 O 0.41278 0.08705 0.64106 0.0
C341 C 0.7469 0.24498 0.73222 0.0
C342 C 0.81953 0.24969 0.80952 0.0
C343 C 0.86368 0.36894 0.78635 0.0
Mg344 Mg 0.806 0.25376 0.70134 0.0
O345 O 0.81631 0.29202 0.71127 0.0
Mg346 Mg 0.80678 0.30345 0.77556 0.0
Mg347 Mg 0.85345 0.32588 0.69232 0.0
O348 O 0.89014 0.36057 0.67214 0.0
Mg349 Mg 0.89059 0.39517 0.68015 0.0
Mg350 Mg 0.89109 0.34847 0.60163 0.0
C351 C 0.84256 0.28003 0.6037 0.0
C352 C 0.90699 0.31405 0.6848 0.0
O353 O 0.75955 0.26583 0.76335 0.0
O354 O 0.76075 0.23734 0.70327 0.0
O355 O 0.81712 0.27197 0.81739 0.0
O356 O 0.81795 0.23973 0.7661 0.0
O357 O 0.82701 0.25826 0.63138 0.0
O358 O 0.8495 0.30588 0.61619 0.0
C359 C 0.80657 0.34789 0.69594 0.0
O360 O 0.82723 0.34764 0.67279 0.0
O361 O 0.79549 0.3329 0.73464 0.0
O362 O 0.93203 0.39412 0.59116 0.0
O363 O 0.93226 0.42325 0.65162 0.0
O364 O 0.86579 0.36908 0.56715 0.0
C365 C 0.94293 0.4189 0.6124 0.0
O366 O 0.86397 0.39824 0.62398 0.0
O367 O 0.87793 0.39081 0.75792 0.0
C368 C 0.85802 0.38703 0.58098 0.0
O369 O 0.85457 0.34292 0.77167 0.0
O370 O 0.88435 0.30875 0.70991 0.0
O371 O 0.9136 0.32795 0.64354 0.0
C372 C 0.53727 0.2347 0.25638 0.0
C373 C 0.51999 0.23551 0.21835 0.0
C374 C 0.55737 0.22583 0.24689 0.0
C375 C 0.56076 0.21849 0.19796 0.0
C376 C 0.54305 0.21885 0.1596 0.0
C377 C 0.52268 0.22711 0.17038 0.0
C378 C 0.57531 0.22478 0.28906 0.0
C379 C 0.54645 0.21187 0.10677 0.0
C380 C 0.63362 0.22555 0.17477 0.0
C381 C 0.62712 0.19703 0.18056 0.0
C382 C 0.61182 0.23269 0.1773 0.0
C383 C 0.58317 0.2108 0.18712 0.0
C384 C 0.57638 0.18177 0.19053 0.0
C385 C 0.59855 0.17528 0.18751 0.0
C386 C 0.61969 0.26381 0.17233 0.0
C387 C 0.54608 0.15784 0.20072 0.0
H388 H 0.53516 0.24114 0.29345 0.0
H389 H 0.50971 0.2282 0.14061 0.0
H390 H 0.57341 0.20323 0.29084 0.0
H391 H 0.59833 0.24076 0.28272 0.0
H392 H 0.56876 0.2294 0.32535 0.0
H393 H 0.52723 0.20676 0.084 0.0
H394 H 0.56538 0.23075 0.09013 0.0
H395 H 0.55039 0.19349 0.10489 0.0
H396 H 0.6559 0.24238 0.17066 0.0
H397 H 0.5938 0.15346 0.19458 0.0
H398 H 0.61701 0.27192 0.20855 0.0
H399 H 0.6051 0.26584 0.14563 0.0
H400 H 0.64228 0.27771 0.15985 0.0
H401 H 0.54409 0.13624 0.19851 0.0
H402 H 0.53086 0.1587 0.17391 0.0
H403 H 0.53945 0.16061 0.23827 0.0
C404 C 0.76813 0.40851 0.1839 0.0
C405 C 0.79683 0.4303 0.18894 0.0
C406 C 0.76056 0.37946 0.18755 0.0
C407 C 0.78221 0.37242 0.19779 0.0
C408 C 0.81133 0.39442 0.20121 0.0
C409 C 0.81823 0.42312 0.19703 0.0
C410 C 0.72933 0.35643 0.18274 0.0
C411 C 0.83501 0.38776 0.21209 0.0
C412 C 0.75972 0.30214 0.2646 0.0
C413 C 0.75998 0.28493 0.22593 0.0
C414 C 0.76731 0.33089 0.25605 0.0
C415 C 0.77442 0.34221 0.20744 0.0
C416 C 0.77475 0.32491 0.16835 0.0
C417 C 0.76779 0.29656 0.17817 0.0
C418 C 0.76765 0.34912 0.29891 0.0
C419 C 0.7815 0.33597 0.11585 0.0
H420 H 0.75155 0.41425 0.17911 0.0
H421 H 0.84015 0.44001 0.20376 0.0
H422 H 0.72705 0.33983 0.15575 0.0
H423 H 0.72128 0.34553 0.21887 0.0
H424 H 0.71556 0.36534 0.17067 0.0
H425 H 0.8567 0.40734 0.21124 0.0
H426 H 0.83159 0.37772 0.24919 0.0
H427 H 0.83453 0.37211 0.18472 0.0
H428 H 0.75361 0.29313 0.30145 0.0
H429 H 0.76742 0.28312 0.14788 0.0
H430 H 0.75141 0.35583 0.29277 0.0
H431 H 0.78899 0.36901 0.30147 0.0
H432 H 0.76299 0.33752 0.33476 0.0
H433 H 0.76297 0.33723 0.10054 0.0
H434 H 0.78564 0.32173 0.09154 0.0
H435 H 0.80047 0.35797 0.11461 0.0
C436 C 0.7022 0.48291 0.17986 0.0
C437 C 0.71397 0.48372 0.22664 0.0
C438 C 0.67381 0.46211 0.16836 0.0
C439 C 0.65661 0.4419 0.20475 0.0
C440 C 0.66786 0.44345 0.25283 0.0
C441 C 0.69659 0.46413 0.26303 0.0
C442 C 0.66294 0.46088 0.1164 0.0
C443 C 0.64979 0.42281 0.29315 0.0
C444 C 0.57552 0.40175 0.19449 0.0
C445 C 0.5697 0.37394 0.18273 0.0
C446 C 0.6038 0.42441 0.19975 0.0
C447 C 0.62682 0.41907 0.19279 0.0
C448 C 0.62113 0.39136 0.17793 0.0
C449 C 0.59248 0.36888 0.17397 0.0
C450 C 0.60892 0.45351 0.21623 0.0
C451 C 0.64523 0.38515 0.16877 0.0
H452 H 0.71559 0.49767 0.1512 0.0
H453 H 0.70556 0.46468 0.29921 0.0
H454 H 0.66346 0.44314 0.09622 0.0
H455 H 0.64038 0.45636 0.11628 0.0
H456 H 0.67649 0.48122 0.09585 0.0
H457 H 0.66044 0.42916 0.32989 0.0
H458 H 0.62856 0.42158 0.29557 0.0
H459 H 0.64573 0.4009 0.28424 0.0
H460 H 0.55793 0.40537 0.20337 0.0
H461 H 0.58786 0.34716 0.16606 0.0
H462 H 0.62468 0.47065 0.19148 0.0
H463 H 0.61821 0.45817 0.25407 0.0
H464 H 0.58878 0.45461 0.21663 0.0
H465 H 0.66142 0.40149 0.14341 0.0
H466 H 0.63732 0.36343 0.15257 0.0
H467 H 0.65633 0.38647 0.20413 0.0
C468 C 0.17827 0.60245 0.30673 0.0
C469 C 0.19998 0.63082 0.31561 0.0
C470 C 0.18481 0.58043 0.30112 0.0
C471 C 0.21381 0.58709 0.30458 0.0
C472 C 0.23563 0.61544 0.31657 0.0
C473 C 0.22848 0.63717 0.32117 0.0
C474 C 0.16099 0.55054 0.28793 0.0
C475 C 0.26669 0.62315 0.32178 0.0
C476 C 0.22863 0.52556 0.3189 0.0
C477 C 0.23758 0.52343 0.27104 0.0
C478 C 0.22087 0.5462 0.33036 0.0
C479 C 0.22146 0.56476 0.29279 0.0
C480 C 0.22948 0.56209 0.24393 0.0
C481 C 0.23795 0.54172 0.23379 0.0
C482 C 0.21315 0.54885 0.38309 0.0
C483 C 0.22948 0.58101 0.20259 0.0
H484 H 0.15648 0.59787 0.29995 0.0
H485 H 0.24529 0.65933 0.32669 0.0
H486 H 0.16429 0.54521 0.2497 0.0
H487 H 0.1614 0.53438 0.31298 0.0
H488 H 0.13937 0.54852 0.29013 0.0
H489 H 0.28044 0.64532 0.33631 0.0
H490 H 0.26847 0.60776 0.34692 0.0
H491 H 0.27519 0.6216 0.28521 0.0
H492 H 0.22883 0.51184 0.34815 0.0
H493 H 0.2449 0.54013 0.19686 0.0
H494 H 0.1934 0.55054 0.38434 0.0
H495 H 0.23079 0.56886 0.39964 0.0
H496 H 0.20977 0.53032 0.40628 0.0
H497 H 0.20845 0.58028 0.20105 0.0
H498 H 0.2337 0.57447 0.16597 0.0
H499 H 0.24625 0.60368 0.20969 0.0
C500 C 0.40178 0.57776 0.30636 0.0
C501 C 0.37352 0.57161 0.31461 0.0
C502 C 0.42428 0.60618 0.30185 0.0
C503 C 0.41819 0.62888 0.30555 0.0
C504 C 0.3899 0.62283 0.31682 0.0
C505 C 0.36771 0.59409 0.32048 0.0
C506 C 0.45409 0.61174 0.28947 0.0
C507 C 0.3828 0.6466 0.32217 0.0
C508 C 0.48021 0.70508 0.31993 0.0
C509 C 0.48229 0.7161 0.27206 0.0
C510 C 0.45952 0.67666 0.33139 0.0
C511 C 0.4409 0.6587 0.2938 0.0
C512 C 0.44371 0.6693 0.24487 0.0
C513 C 0.46412 0.6981 0.23474 0.0
C514 C 0.45677 0.66634 0.38416 0.0
C515 C 0.42478 0.65038 0.20347 0.0
H516 H 0.40596 0.56031 0.2993 0.0
H517 H 0.34564 0.58914 0.32557 0.0
H518 H 0.4598 0.62035 0.25128 0.0
H519 H 0.47024 0.62816 0.31477 0.0
H520 H 0.45566 0.5919 0.29197 0.0
H521 H 0.3606 0.63849 0.33625 0.0
H522 H 0.39824 0.66346 0.34772 0.0
H523 H 0.38479 0.65693 0.28572 0.0
H524 H 0.49388 0.71907 0.34919 0.0
H525 H 0.46572 0.7066 0.19777 0.0
H526 H 0.45425 0.64455 0.38559 0.0
H527 H 0.43718 0.66483 0.40095 0.0
H528 H 0.47565 0.68116 0.40705 0.0
H529 H 0.42533 0.62999 0.20212 0.0
H530 H 0.43145 0.66109 0.16683 0.0
H531 H 0.40214 0.64466 0.21036 0.0
C532 C 0.30414 0.76421 0.23437 0.0
C533 C 0.28699 0.7668 0.27073 0.0
C534 C 0.33304 0.77272 0.24407 0.0
C535 C 0.34467 0.78323 0.29168 0.0
C536 C 0.32761 0.78642 0.32813 0.0
C537 C 0.29907 0.77838 0.31709 0.0
C538 C 0.35095 0.76995 0.20368 0.0
C539 C 0.33879 0.79678 0.37973 0.0
C540 C 0.40982 0.77606 0.32198 0.0
C541 C 0.43219 0.80396 0.3122 0.0
C542 C 0.381 0.76936 0.31857 0.0
C543 C 0.37472 0.79086 0.30308 0.0
C544 C 0.39737 0.81934 0.29517 0.0
C545 C 0.42586 0.82554 0.3001 0.0
C546 C 0.35732 0.73901 0.32907 0.0
C547 C 0.39158 0.84278 0.27816 0.0
H548 H 0.29491 0.7553 0.19853 0.0
H549 H 0.28583 0.78 0.34577 0.0
H550 H 0.37188 0.79022 0.20014 0.0
H551 H 0.35565 0.75263 0.21334 0.0
H552 H 0.33987 0.76478 0.16726 0.0
H553 H 0.32569 0.8044 0.39951 0.0
H554 H 0.33769 0.77858 0.40098 0.0
H555 H 0.36156 0.81441 0.37943 0.0
H556 H 0.41487 0.7593 0.33029 0.0
H557 H 0.4432 0.84683 0.29066 0.0
H558 H 0.34585 0.72867 0.29425 0.0
H559 H 0.34134 0.73925 0.35483 0.0
H560 H 0.36572 0.72566 0.34542 0.0
H561 H 0.38164 0.83742 0.24082 0.0
H562 H 0.41153 0.86415 0.27641 0.0
H563 H 0.37612 0.84431 0.30345 0.0
C564 C 0.44208 0.72916 0.79013 0.0
C565 C 0.46911 0.75231 0.77747 0.0
C566 C 0.41945 0.73363 0.80351 0.0
C567 C 0.42373 0.76185 0.80202 0.0
C568 C 0.45136 0.78546 0.7908 0.0
C569 C 0.474 0.78041 0.77958 0.0
C570 C 0.39086 0.70782 0.81709 0.0
C571 C 0.45652 0.81578 0.7877 0.0
C572 C 0.36248 0.77067 0.75635 0.0
C573 C 0.35617 0.78231 0.79788 0.0
C574 C 0.38371 0.763 0.75795 0.0
C575 C 0.39858 0.7662 0.80265 0.0
C576 C 0.39039 0.77502 0.84613 0.0
C577 C 0.36949 0.78353 0.84311 0.0
C578 C 0.39071 0.75221 0.71121 0.0
C579 C 0.40384 0.77553 0.89536 0.0
H580 H 0.4387 0.70745 0.79014 0.0
H581 H 0.49519 0.79824 0.77077 0.0
H582 H 0.37719 0.71371 0.83927 0.0
H583 H 0.37908 0.69687 0.78283 0.0
H584 H 0.39423 0.69206 0.83842 0.0
H585 H 0.47959 0.83188 0.78167 0.0
H586 H 0.4438 0.81729 0.75663 0.0
H587 H 0.44918 0.8214 0.82211 0.0
H588 H 0.35192 0.76893 0.7213 0.0
H589 H 0.3637 0.79116 0.87577 0.0
H590 H 0.38467 0.72935 0.71598 0.0
H591 H 0.41416 0.76459 0.70354 0.0
H592 H 0.37904 0.75372 0.67842 0.0
H593 H 0.40386 0.75507 0.90119 0.0
H594 H 0.39223 0.77867 0.92658 0.0
H595 H 0.4266 0.79313 0.89572 0.0
C596 C 0.17267 0.57652 0.8026 0.0
C597 C 0.19572 0.57216 0.81342 0.0
C598 C 0.17698 0.60421 0.79545 0.0
C599 C 0.20506 0.62816 0.79989 0.0
C600 C 0.22821 0.62399 0.8138 0.0
C601 C 0.22334 0.59588 0.81945 0.0
C602 C 0.15191 0.60762 0.77918 0.0
C603 C 0.25834 0.64911 0.82006 0.0
C604 C 0.22605 0.69621 0.72669 0.0
C605 C 0.22401 0.71385 0.76279 0.0
C606 C 0.21901 0.66788 0.73786 0.0
C607 C 0.21048 0.65729 0.7866 0.0
C608 C 0.20744 0.67463 0.82267 0.0
C609 C 0.2139 0.70256 0.81019 0.0
C610 C 0.22196 0.64981 0.69798 0.0
C611 C 0.1989 0.66428 0.87519 0.0
H612 H 0.1516 0.55814 0.7956 0.0
H613 H 0.24125 0.59237 0.82648 0.0
H614 H 0.1504 0.6239 0.8023 0.0
H615 H 0.15533 0.61541 0.74037 0.0
H616 H 0.13109 0.58706 0.78129 0.0
H617 H 0.27307 0.64251 0.83678 0.0
H618 H 0.26708 0.65897 0.78348 0.0
H619 H 0.25812 0.66591 0.84372 0.0
H620 H 0.23391 0.7048 0.69008 0.0
H621 H 0.21262 0.71612 0.83864 0.0
H622 H 0.20395 0.62725 0.69956 0.0
H623 H 0.24224 0.64943 0.70377 0.0
H624 H 0.22261 0.65855 0.66046 0.0
H625 H 0.17981 0.64234 0.87568 0.0
H626 H 0.19402 0.67882 0.89716 0.0
H627 H 0.21674 0.663 0.89355 0.0
C628 C 0.29671 0.52143 0.8192 0.0
C629 C 0.28543 0.52137 0.77227 0.0
C630 C 0.32539 0.54108 0.83098 0.0
C631 C 0.34338 0.56071 0.7946 0.0
C632 C 0.3325 0.56007 0.74653 0.0
C633 C 0.30343 0.54064 0.73612 0.0
C634 C 0.33608 0.54163 0.8829 0.0
C635 C 0.35142 0.58025 0.70641 0.0
C636 C 0.40938 0.63187 0.82622 0.0
C637 C 0.43127 0.62555 0.81714 0.0
C638 C 0.3804 0.61035 0.82223 0.0
C639 C 0.3735 0.58234 0.80701 0.0
C640 C 0.39563 0.57562 0.80027 0.0
C641 C 0.42433 0.59739 0.80561 0.0
C642 C 0.35735 0.61817 0.8309 0.0
C643 C 0.38918 0.54614 0.7834 0.0
H644 H 0.28277 0.50689 0.84764 0.0
H645 H 0.29475 0.54062 0.6999 0.0
H646 H 0.35649 0.54114 0.88205 0.0
H647 H 0.34072 0.56199 0.90136 0.0
H648 H 0.32017 0.52328 0.9056 0.0
H649 H 0.34045 0.57516 0.6699 0.0
H650 H 0.35774 0.60271 0.71635 0.0
H651 H 0.3715 0.57921 0.70292 0.0
H652 H 0.41495 0.65391 0.8338 0.0
H653 H 0.44138 0.59292 0.79649 0.0
H654 H 0.3388 0.6008 0.85113 0.0
H655 H 0.34934 0.62107 0.79475 0.0
H656 H 0.36569 0.63849 0.85225 0.0
H657 H 0.38103 0.5425 0.7448 0.0
H658 H 0.37214 0.52914 0.80669 0.0
H659 H 0.40855 0.5437 0.78464 0.0
C660 C 0.7777 0.48033 0.67677 0.0
C661 C 0.76946 0.48367 0.72449 0.0
C662 C 0.78405 0.45855 0.66634 0.0
C663 C 0.78256 0.44 0.70476 0.0
C664 C 0.77544 0.444 0.75346 0.0
C665 C 0.76862 0.46562 0.76263 0.0
C666 C 0.79105 0.45464 0.6138 0.0
C667 C 0.77443 0.42506 0.79564 0.0
C668 C 0.77268 0.36599 0.68045 0.0
C669 C 0.80082 0.37144 0.68713 0.0
C670 C 0.76654 0.3885 0.68348 0.0
C671 C 0.78903 0.41672 0.69453 0.0
C672 C 0.81759 0.42234 0.69954 0.0
C673 C 0.82303 0.39953 0.69638 0.0
C674 C 0.73587 0.3819 0.67721 0.0
C675 C 0.84215 0.45213 0.71124 0.0
H676 H 0.77785 0.49386 0.64686 0.0
H677 H 0.76221 0.46812 0.79949 0.0
H678 H 0.80862 0.44946 0.61268 0.0
H679 H 0.77177 0.43631 0.59675 0.0
H680 H 0.79738 0.47412 0.59095 0.0
H681 H 0.77087 0.4325 0.83192 0.0
H682 H 0.75677 0.40266 0.78929 0.0
H683 H 0.79482 0.42453 0.79744 0.0
H684 H 0.75543 0.34404 0.67478 0.0
H685 H 0.84442 0.40342 0.70459 0.0
H686 H 0.73492 0.39694 0.65014 0.0
H687 H 0.72766 0.38504 0.71296 0.0
H688 H 0.7214 0.35946 0.66449 0.0
H689 H 0.84263 0.46794 0.68425 0.0
H690 H 0.86336 0.45317 0.71054 0.0
H691 H 0.83895 0.45876 0.74851 0.0
C692 C 0.6075 0.42263 0.69396 0.0
C693 C 0.63621 0.43107 0.68397 0.0
C694 C 0.58659 0.39358 0.69761 0.0
C695 C 0.59456 0.37244 0.68978 0.0
C696 C 0.62331 0.38081 0.67695 0.0
C697 C 0.64405 0.41022 0.67519 0.0
C698 C 0.55654 0.38563 0.7137 0.0
C699 C 0.63246 0.35879 0.66814 0.0
C700 C 0.54939 0.30118 0.75551 0.0
C701 C 0.52912 0.28512 0.71901 0.0
C702 C 0.57125 0.32951 0.7463 0.0
C703 C 0.57312 0.34183 0.69907 0.0
C704 C 0.55316 0.32547 0.66171 0.0
C705 C 0.53118 0.29744 0.67229 0.0
C706 C 0.59248 0.34545 0.7873 0.0
C707 C 0.55554 0.33729 0.61014 0.0
H708 H 0.60178 0.43878 0.70302 0.0
H709 H 0.66649 0.4169 0.66886 0.0
H710 H 0.54046 0.37058 0.68674 0.0
H711 H 0.55174 0.37445 0.74996 0.0
H712 H 0.5538 0.40475 0.71741 0.0
H713 H 0.6543 0.36855 0.65154 0.0
H714 H 0.63268 0.34872 0.70386 0.0
H715 H 0.61691 0.34144 0.6434 0.0
H716 H 0.54828 0.29162 0.79136 0.0
H717 H 0.51614 0.28485 0.64331 0.0
H718 H 0.60499 0.36905 0.7816 0.0
H719 H 0.60787 0.33737 0.78985 0.0
H720 H 0.58117 0.34101 0.82342 0.0
H721 H 0.53703 0.32271 0.58632 0.0
H722 H 0.57566 0.34051 0.59266 0.0
H723 H 0.55697 0.35861 0.61148 0.0
C724 C 0.59326 0.223 0.67299 0.0
C725 C 0.57075 0.19502 0.68159 0.0
C726 C 0.62199 0.22949 0.6766 0.0
C727 C 0.62801 0.20759 0.69062 0.0
C728 C 0.60523 0.17904 0.69718 0.0
C729 C 0.57683 0.17314 0.69262 0.0
C730 C 0.6458 0.26009 0.66836 0.0
C731 C 0.6107 0.15519 0.71297 0.0
C732 C 0.70411 0.22145 0.67697 0.0
C733 C 0.71566 0.23224 0.72398 0.0
C734 C 0.6755 0.21308 0.66564 0.0
C735 C 0.6579 0.215 0.70252 0.0
C736 C 0.66897 0.22452 0.75075 0.0
C737 C 0.69791 0.23344 0.76073 0.0
C738 C 0.6645 0.20334 0.6137 0.0
C739 C 0.65046 0.22596 0.79147 0.0
H740 H 0.58838 0.23999 0.66579 0.0
H741 H 0.55937 0.15182 0.70161 0.0
H742 H 0.65643 0.2697 0.70412 0.0
H743 H 0.66244 0.26054 0.64338 0.0
H744 H 0.63767 0.27371 0.6522 0.0
H745 H 0.6275 0.1549 0.68949 0.0
H746 H 0.61872 0.15902 0.75165 0.0
H747 H 0.59091 0.13369 0.71104 0.0
H748 H 0.71781 0.2208 0.64813 0.0
H749 H 0.70674 0.24168 0.79707 0.0
H750 H 0.66023 0.21945 0.59581 0.0
H751 H 0.64383 0.18266 0.61443 0.0
H752 H 0.68008 0.20064 0.59053 0.0
H753 H 0.64497 0.24285 0.78268 0.0
H754 H 0.6614 0.23095 0.828 0.0
H755 H 0.62992 0.20522 0.79429 0.0
C756 C 0.5227 0.53667 0.90137 0.0
C757 C 0.53296 0.56406 0.92215 0.0
C758 C 0.51309 0.51226 0.93152 0.0
C759 C 0.51324 0.51533 0.98352 0.0
C760 C 0.52483 0.54304 0.00472 0.0
C761 C 0.53496 0.56712 0.97379 0.0
C762 C 0.50148 0.48311 0.90759 0.0
C763 C 0.52494 0.5471 0.06003 0.0
C764 C 0.46195 0.45096 0.06235 0.0
C765 C 0.48111 0.44336 0.08291 0.0
C766 C 0.47206 0.47451 0.0297 0.0
C767 C 0.50164 0.4897 0.0162 0.0
C768 C 0.52063 0.48111 0.03545 0.0
C769 C 0.51021 0.45836 0.06904 0.0
C770 C 0.45104 0.48279 0.00923 0.0
C771 C 0.55196 0.49584 0.0205 0.0
H772 H 0.52096 0.53412 0.86152 0.0
H773 H 0.54243 0.5881 0.9903 0.0
H774 H 0.50957 0.47032 0.92689 0.0
H775 H 0.47766 0.4711 0.91045 0.0
H776 H 0.50744 0.48486 0.86788 0.0
H777 H 0.53483 0.57013 0.07067 0.0
H778 H 0.5025 0.53542 0.07417 0.0
H779 H 0.53692 0.53785 0.0786 0.0
H780 H 0.43934 0.4388 0.07215 0.0
H781 H 0.52483 0.45172 0.08367 0.0
H782 H 0.4451 0.47438 0.97098 0.0
H783 H 0.46079 0.50651 0.00754 0.0
H784 H 0.43104 0.47372 0.03167 0.0
H785 H 0.56311 0.48468 0.03532 0.0
H786 H 0.56324 0.51834 0.03426 0.0
H787 H 0.5539 0.49672 0.9796 0.0
C788 C 0.53773 0.0138 0.08836 0.0
C789 C 0.56462 0.03321 0.06806 0.0
C790 C 0.51384 0.99727 0.05782 0.0
C791 C 0.51681 0.00094 0.00581 0.0
C792 C 0.54397 0.02027 0.98514 0.0
C793 C 0.56763 0.03574 0.01644 0.0
C794 C 0.48533 0.97707 0.08186 0.0
C795 C 0.54773 0.02573 0.93008 0.0
C796 C 0.46469 0.94259 0.9196 0.0
C797 C 0.44485 0.95167 0.90917 0.0
C798 C 0.48776 0.95812 0.95182 0.0
C799 C 0.49185 0.98407 0.9726 0.0
C800 C 0.47223 0.99375 0.96144 0.0
C801 C 0.44844 0.97699 0.93064 0.0
C802 C 0.50733 0.94633 0.96457 0.0
C803 C 0.47609 0.02147 0.98268 0.0
H804 H 0.53513 0.0121 0.12821 0.0
H805 H 0.58814 0.05126 0.00038 0.0
H806 H 0.47406 0.98913 0.0905 0.0
H807 H 0.47114 0.95871 0.05757 0.0
H808 H 0.48852 0.9685 0.11723 0.0
H809 H 0.57002 0.04245 0.92011 0.0
H810 H 0.5424 0.00559 0.9102 0.0
H811 H 0.53267 0.03278 0.91669 0.0
H812 H 0.46138 0.92247 0.90426 0.0
H813 H 0.43277 0.98365 0.92326 0.0
H814 H 0.50964 0.94584 0.0053 0.0
H815 H 0.5291 0.96057 0.94914 0.0
H816 H 0.49919 0.92425 0.94983 0.0
H817 H 0.4709 0.01853 0.02271 0.0
H818 H 0.46189 0.02825 0.96438 0.0
H819 H 0.49878 0.039 0.97892 0.0
C820 C 0.94899 0.48715 0.07518 0.0
C821 C 0.95821 0.5164 0.08243 0.0
C822 C 0.96323 0.4784 0.04245 0.0
C823 C 0.98806 0.49946 0.01772 0.0
C824 C 0.99791 0.52913 0.0255 0.0
C825 C 0.98235 0.5373 0.05702 0.0
C826 C 0.95139 0.44657 0.03397 0.0
C827 C 0.02473 0.55212 0.00047 0.0
C828 C 0.03817 0.47344 0.97462 0.0
C829 C 0.03385 0.47153 0.92325 0.0
C830 C 0.02397 0.48328 0.00546 0.0
C831 C 0.00392 0.49009 0.98476 0.0
C832 C 0.99827 0.48677 0.93323 0.0
C833 C 0.01379 0.47808 0.90289 0.0
C834 C 0.03127 0.48734 0.05995 0.0
C835 C 0.9768 0.49344 0.90951 0.0
H836 H 0.92972 0.47089 0.09366 0.0
H837 H 0.98909 0.55985 0.06206 0.0
H838 H 0.95085 0.44187 0.9939 0.0
H839 H 0.96556 0.43976 0.05207 0.0
H840 H 0.92932 0.43333 0.04923 0.0
H841 H 0.03144 0.57395 0.015 0.0
H842 H 0.04273 0.54775 0.00552 0.0
H843 H 0.02078 0.55188 0.96016 0.0
H844 H 0.0542 0.46915 0.99056 0.0
H845 H 0.01077 0.47712 0.86313 0.0
H846 H 0.05055 0.48555 0.06865 0.0
H847 H 0.01287 0.47081 0.08161 0.0
H848 H 0.03527 0.50873 0.07253 0.0
H849 H 0.95853 0.48858 0.93453 0.0
H850 H 0.96813 0.48115 0.87459 0.0
H851 H 0.98771 0.5167 0.90032 0.0
C852 C 0.43389 0.47218 0.47705 0.0
C853 C 0.43646 0.47126 0.42552 0.0
C854 C 0.45786 0.48147 0.50796 0.0
C855 C 0.48484 0.48881 0.48708 0.0
C856 C 0.48732 0.48646 0.4353 0.0
C857 C 0.46316 0.47822 0.405 0.0
C858 C 0.45446 0.48444 0.56278 0.0
C859 C 0.51558 0.49376 0.41132 0.0
C860 C 0.55357 0.53564 0.55994 0.0
C861 C 0.5572 0.51461 0.584 0.0
C862 C 0.5297 0.52762 0.52879 0.0
C863 C 0.51012 0.498 0.51993 0.0
C864 C 0.5143 0.47682 0.54324 0.0
C865 C 0.53741 0.48539 0.57571 0.0
C866 C 0.52563 0.55077 0.50499 0.0
C867 C 0.49472 0.44509 0.53322 0.0
H868 H 0.4135 0.46751 0.49318 0.0
H869 H 0.46535 0.47798 0.36516 0.0
H870 H 0.45643 0.4676 0.5832 0.0
H871 H 0.47172 0.50563 0.57638 0.0
H872 H 0.43328 0.48229 0.57193 0.0
H873 H 0.51211 0.48213 0.3757 0.0
H874 H 0.52782 0.51718 0.40338 0.0
H875 H 0.52901 0.48857 0.43567 0.0
H876 H 0.5692 0.55819 0.56568 0.0
H877 H 0.54074 0.46906 0.59307 0.0
H878 H 0.50287 0.54549 0.508 0.0
H879 H 0.53093 0.55211 0.46508 0.0
H880 H 0.53965 0.57222 0.52199 0.0
H881 H 0.47338 0.43776 0.5503 0.0
H882 H 0.50351 0.43179 0.54834 0.0
H883 H 0.49128 0.44104 0.49286 0.0
C884 C 0.53174 0.96612 0.46535 0.0
C885 C 0.5307 0.96844 0.41375 0.0
C886 C 0.52099 0.97921 0.49689 0.0
C887 C 0.51002 0.99604 0.4765 0.0
C888 C 0.51046 0.99991 0.42459 0.0
C889 C 0.52035 0.98563 0.39374 0.0
C890 C 0.5202 0.97394 0.55193 0.0
C891 C 0.4993 0.01798 0.40117 0.0
C892 C 0.46014 0.01186 0.55386 0.0
C893 C 0.48005 0.03803 0.57545 0.0
C894 C 0.4696 0.99756 0.52181 0.0
C895 C 0.49931 0.01054 0.50994 0.0
C896 C 0.51922 0.03736 0.53094 0.0
C897 C 0.50937 0.05052 0.56389 0.0
C898 C 0.44798 0.96852 0.50113 0.0
C899 C 0.55098 0.05223 0.51887 0.0
H900 H 0.53903 0.95232 0.48121 0.0
H901 H 0.51907 0.98712 0.35391 0.0
H902 H 0.53468 0.99436 0.57138 0.0
H903 H 0.49814 0.96602 0.56641 0.0
H904 H 0.52694 0.95801 0.56135 0.0
H905 H 0.509 0.0259 0.36411 0.0
H906 H 0.47565 0.00461 0.39634 0.0
H907 H 0.50366 0.03672 0.42457 0.0
H908 H 0.43747 0.0025 0.56252 0.0
H909 H 0.52467 0.0712 0.57982 0.0
H910 H 0.45464 0.95248 0.50995 0.0
H911 H 0.44723 0.9698 0.46026 0.0
H912 H 0.42599 0.96068 0.51602 0.0
H913 H 0.56093 0.04099 0.53769 0.0
H914 H 0.56251 0.07506 0.53112 0.0
H915 H 0.55438 0.05147 0.47854 0.0
C916 C 0.98571 0.44885 0.558 0.0
C917 C 0.96084 0.44452 0.58222 0.0
C918 C 0.00087 0.47272 0.52655 0.0
C919 C 0.98992 0.49155 0.51762 0.0
C920 C 0.96425 0.48652 0.5409 0.0
C921 C 0.95038 0.46343 0.57358 0.0
C922 C 0.02832 0.47755 0.50254 0.0
C923 C 0.95114 0.50525 0.53083 0.0
C924 C 0.03894 0.56823 0.47553 0.0
C925 C 0.03561 0.56573 0.42396 0.0
C926 C 0.0246 0.54412 0.5062 0.0
C927 C 0.00547 0.51703 0.48503 0.0
C928 C 0.00071 0.51461 0.43326 0.0
C929 C 0.01628 0.53894 0.40319 0.0
C930 C 0.03088 0.54744 0.56105 0.0
C931 C 0.98018 0.48623 0.40912 0.0
H932 H 0.99336 0.43383 0.56397 0.0
H933 H 0.93052 0.45947 0.59109 0.0
H934 H 0.02406 0.47111 0.46309 0.0
H935 H 0.0451 0.50065 0.50378 0.0
H936 H 0.03686 0.46476 0.52062 0.0
H937 H 0.92904 0.49591 0.5462 0.0
H938 H 0.96473 0.52679 0.5476 0.0
H939 H 0.95024 0.50841 0.49044 0.0
H940 H 0.05437 0.5887 0.49183 0.0
H941 H 0.01396 0.53682 0.36332 0.0
H942 H 0.03657 0.53125 0.5738 0.0
H943 H 0.01141 0.54355 0.58172 0.0
H944 H 0.04878 0.56923 0.57079 0.0
H945 H 0.99146 0.47393 0.40285 0.0
H946 H 0.97259 0.48944 0.37271 0.0
H947 H 0.96118 0.47298 0.43283 0.0
C948 C 0.53643 0.41144 0.99591 0.0
C949 C 0.54461 0.40114 0.03673 0.0
C950 C 0.55617 0.42735 0.95878 0.0
C951 C 0.58466 0.4323 0.96159 0.0
C952 C 0.59293 0.42139 0.00228 0.0
C953 C 0.57294 0.40654 0.04025 0.0
C954 C 0.54649 0.43906 0.9167 0.0
C955 C 0.62279 0.42545 0.00569 0.0
C956 C 0.61582 0.44835 0.83313 0.0
C957 C 0.63005 0.47846 0.83264 0.0
C958 C 0.60342 0.43292 0.87663 0.0
C959 C 0.60495 0.44805 0.92046 0.0
C960 C 0.62158 0.47855 0.92109 0.0
C961 C 0.63413 0.49348 0.87695 0.0
C962 C 0.58641 0.40045 0.87456 0.0
C963 C 0.62355 0.49559 0.96677 0.0
H964 H 0.51472 0.40799 0.994 0.0
H965 H 0.57932 0.39892 0.07233 0.0
H966 H 0.56004 0.46286 0.9154 0.0
H967 H 0.54912 0.43055 0.88088 0.0
H968 H 0.5236 0.43329 0.92032 0.0
H969 H 0.62475 0.41289 0.03659 0.0
H970 H 0.62852 0.41876 0.97065 0.0
H971 H 0.63865 0.44858 0.01131 0.0
H972 H 0.6129 0.43682 0.79873 0.0
H973 H 0.64496 0.5168 0.87631 0.0
H974 H 0.56331 0.39271 0.88164 0.0
H975 H 0.594 0.39127 0.90373 0.0
H976 H 0.58824 0.39209 0.83805 0.0
H977 H 0.60377 0.49718 0.96962 0.0
H978 H 0.64235 0.51777 0.96514 0.0
H979 H 0.62513 0.48489 0.00075 0.0
C980 C 0.57711 0.15139 0.04748 0.0
C981 C 0.60312 0.15196 0.03751 0.0
C982 C 0.5608 0.15384 0.0092 0.0
C983 C 0.57117 0.15781 0.96008 0.0
C984 C 0.59905 0.16211 0.95082 0.0
C985 C 0.61463 0.1589 0.98961 0.0
C986 C 0.53128 0.14938 0.02059 0.0
C987 C 0.61125 0.16728 0.89911 0.0
C988 C 0.51886 0.11751 0.85671 0.0
C989 C 0.51702 0.13948 0.83213 0.0
C990 C 0.53544 0.12312 0.89956 0.0
C991 C 0.55099 0.15163 0.91802 0.0
C992 C 0.54819 0.17376 0.89469 0.0
C993 C 0.53106 0.16737 0.85189 0.0
C994 C 0.53722 0.09866 0.92379 0.0
C995 C 0.56458 0.20443 0.91292 0.0
H996 H 0.56822 0.14664 0.08454 0.0
H997 H 0.63495 0.15996 0.98165 0.0
H998 H 0.52946 0.16783 0.00654 0.0
H999 H 0.51461 0.12975 0.00153 0.0
H1000 H 0.52651 0.14693 0.06085 0.0
H1001 H 0.63476 0.17525 0.8992 0.0
H1002 H 0.60038 0.14683 0.87789 0.0
H1003 H 0.60727 0.18311 0.87948 0.0
H1004 H 0.50793 0.09592 0.84141 0.0
H1005 H 0.53006 0.1845 0.8325 0.0
H1006 H 0.532 0.0975 0.96373 0.0
H1007 H 0.55948 0.10245 0.92076 0.0
H1008 H 0.52232 0.07751 0.9066 0.0
H1009 H 0.56421 0.20535 0.95388 0.0
H1010 H 0.55575 0.21762 0.8975 0.0
H1011 H 0.58742 0.21424 0.90133 0.0
C1012 C 0.82874 0.36237 0.85378 0.0
C1013 C 0.85708 0.37511 0.83626 0.0
C1014 C 0.82215 0.37319 0.89632 0.0
C1015 C 0.84453 0.39701 0.92177 0.0
C1016 C 0.87337 0.40861 0.90567 0.0
C1017 C 0.87918 0.39771 0.86293 0.0
C1018 C 0.79115 0.36035 0.91197 0.0
C1019 C 0.89807 0.43363 0.93196 0.0
C1020 C 0.83898 0.45476 0.99263 0.0
C1021 C 0.84355 0.44886 0.04127 0.0
C1022 C 0.83613 0.43622 0.95358 0.0
C1023 C 0.83838 0.41146 0.96328 0.0
C1024 C 0.84022 0.40398 0.01279 0.0
C1025 C 0.84234 0.42254 0.05127 0.0
C1026 C 0.83344 0.44462 0.90141 0.0
C1027 C 0.8427 0.3778 0.02468 0.0
H1028 H 0.81155 0.34521 0.8327 0.0
H1029 H 0.9011 0.40761 0.8492 0.0
H1030 H 0.78903 0.35794 0.95274 0.0
H1031 H 0.78316 0.375 0.90076 0.0
H1032 H 0.77721 0.33902 0.89453 0.0
H1033 H 0.91927 0.43726 0.91894 0.0
H1034 H 0.89708 0.45351 0.92521 0.0
H1035 H 0.89665 0.42993 0.97247 0.0
H1036 H 0.8394 0.47476 0.98452 0.0
H1037 H 0.8454 0.41746 0.08879 0.0
H1038 H 0.81775 0.42551 0.88003 0.0
H1039 H 0.85459 0.4537 0.88255 0.0
H1040 H 0.82657 0.46102 0.90063 0.0
H1041 H 0.86206 0.37955 0.00649 0.0
H1042 H 0.8237 0.35818 0.01002 0.0
H1043 H 0.84439 0.37512 0.06505 0.0
C1044 C 0.47014 0.63592 0.6468 0.0
C1045 C 0.48457 0.62233 0.666 0.0
C1046 C 0.45279 0.6251 0.60427 0.0
C1047 C 0.45022 0.6004 0.58039 0.0
C1048 C 0.46608 0.58766 0.59831 0.0
C1049 C 0.48277 0.59861 0.6411 0.0
C1050 C 0.43598 0.63908 0.5868 0.0
C1051 C 0.46458 0.5617 0.57345 0.0
C1052 C 0.38653 0.54456 0.50772 0.0
C1053 C 0.39783 0.54985 0.45961 0.0
C1054 C 0.40225 0.56278 0.54707 0.0
C1055 C 0.43007 0.58655 0.53817 0.0
C1056 C 0.4403 0.5936 0.48904 0.0
C1057 C 0.42386 0.57539 0.45023 0.0
C1058 C 0.39018 0.55503 0.5988 0.0
C1059 C 0.46976 0.61887 0.47801 0.0
H1060 H 0.47104 0.65392 0.66641 0.0
H1061 H 0.49397 0.58812 0.65593 0.0
H1062 H 0.43659 0.64096 0.54591 0.0
H1063 H 0.41311 0.62548 0.59781 0.0
H1064 H 0.44428 0.66082 0.60318 0.0
H1065 H 0.48034 0.5562 0.58924 0.0
H1066 H 0.44265 0.54282 0.57784 0.0
H1067 H 0.46879 0.56563 0.53322 0.0
H1068 H 0.36622 0.5252 0.51529 0.0
H1069 H 0.43261 0.58005 0.41306 0.0
H1070 H 0.39405 0.57454 0.6194 0.0
H1071 H 0.40123 0.54534 0.61912 0.0
H1072 H 0.3667 0.53934 0.59868 0.0
H1073 H 0.47464 0.6214 0.4378 0.0
H1074 H 0.4865 0.61604 0.49709 0.0
H1075 H 0.47134 0.639 0.49228 0.0
C1076 C 0.36446 0.85309 0.61567 0.0
C1077 C 0.3699 0.84319 0.65995 0.0
C1078 C 0.37737 0.85157 0.57127 0.0
C1079 C 0.39568 0.83955 0.57161 0.0
C1080 C 0.39865 0.82687 0.61543 0.0
C1081 C 0.38584 0.829 0.65909 0.0
C1082 C 0.37391 0.86561 0.52546 0.0
C1083 C 0.41759 0.81348 0.61733 0.0
C1084 C 0.42969 0.83184 0.45284 0.0
C1085 C 0.45733 0.85595 0.45634 0.0
C1086 C 0.40918 0.8259 0.49025 0.0
C1087 C 0.41619 0.84539 0.53025 0.0
C1088 C 0.44393 0.87019 0.53279 0.0
C1089 C 0.46427 0.87484 0.49631 0.0
C1090 C 0.38026 0.79878 0.4873 0.0
C1091 C 0.45223 0.89188 0.57418 0.0
H1092 H 0.35232 0.86428 0.61651 0.0
H1093 H 0.38999 0.82134 0.69349 0.0
H1094 H 0.39365 0.88682 0.52001 0.0
H1095 H 0.37114 0.85238 0.49217 0.0
H1096 H 0.35523 0.86912 0.52846 0.0
H1097 H 0.41834 0.80548 0.65481 0.0
H1098 H 0.40957 0.79532 0.59074 0.0
H1099 H 0.43994 0.82944 0.60641 0.0
H1100 H 0.42431 0.81753 0.42136 0.0
H1101 H 0.48546 0.89392 0.49811 0.0
H1102 H 0.36294 0.80431 0.48532 0.0
H1103 H 0.37646 0.78574 0.52124 0.0
H1104 H 0.37857 0.78542 0.45468 0.0
H1105 H 0.43697 0.90015 0.57564 0.0
H1106 H 0.47437 0.91043 0.56971 0.0
H1107 H 0.45103 0.88147 0.61023 0.0
C1108 C 0.11781 0.51962 0.64022 0.0
C1109 C 0.14022 0.51928 0.66615 0.0
C1110 C 0.12322 0.53635 0.59759 0.0
C1111 C 0.15192 0.55374 0.58096 0.0
C1112 C 0.17461 0.55266 0.60592 0.0
C1113 C 0.16843 0.53519 0.64821 0.0
C1114 C 0.09823 0.53627 0.57161 0.0
C1115 C 0.2055 0.57123 0.5899 0.0
C1116 C 0.15402 0.58098 0.45112 0.0
C1117 C 0.15288 0.60616 0.46077 0.0
C1118 C 0.15598 0.56461 0.48984 0.0
C1119 C 0.1577 0.57406 0.53924 0.0
C1120 C 0.15991 0.60108 0.54865 0.0
C1121 C 0.15732 0.61674 0.50935 0.0
C1122 C 0.15372 0.53601 0.47824 0.0
C1123 C 0.16221 0.61223 0.60069 0.0
H1124 H 0.09598 0.50731 0.6542 0.0
H1125 H 0.18584 0.53533 0.66872 0.0
H1126 H 0.09978 0.55756 0.57611 0.0
H1127 H 0.09885 0.53251 0.53139 0.0
H1128 H 0.07712 0.51949 0.58643 0.0
H1129 H 0.22001 0.56495 0.60848 0.0
H1130 H 0.20755 0.57 0.54928 0.0
H1131 H 0.21283 0.59402 0.59921 0.0
H1132 H 0.15116 0.57281 0.41363 0.0
H1133 H 0.1569 0.63635 0.51726 0.0
H1134 H 0.13506 0.51841 0.49795 0.0
H1135 H 0.17333 0.53604 0.49134 0.0
H1136 H 0.15104 0.53107 0.43805 0.0
H1137 H 0.14059 0.60128 0.61812 0.0
H1138 H 0.17048 0.6358 0.60127 0.0
H1139 H 0.17655 0.60754 0.62347 0.0
C1140 C 0.36519 0.53215 0.14507 0.0
C1141 C 0.37902 0.51848 0.16637 0.0
C1142 C 0.37633 0.54905 0.10208 0.0
C1143 C 0.40161 0.55194 0.07996 0.0
C1144 C 0.41469 0.53692 0.1002 0.0
C1145 C 0.40337 0.52063 0.14324 0.0
C1146 C 0.362 0.56502 0.08219 0.0
C1147 C 0.44137 0.53889 0.07752 0.0
C1148 C 0.42792 0.57591 0.94946 0.0
C1149 C 0.45318 0.60229 0.95836 0.0
C1150 C 0.4093 0.56015 0.98831 0.0
C1151 C 0.41563 0.57139 0.03695 0.0
C1152 C 0.43912 0.5995 0.04503 0.0
C1153 C 0.4578 0.61452 0.00573 0.0
C1154 C 0.38444 0.53032 0.97811 0.0
C1155 C 0.44606 0.61268 0.09607 0.0
H1156 H 0.34666 0.53094 0.16333 0.0
H1157 H 0.41406 0.51002 0.15965 0.0
H1158 H 0.37501 0.58807 0.09257 0.0
H1159 H 0.36074 0.5639 0.04123 0.0
H1160 H 0.33996 0.55644 0.09739 0.0
H1161 H 0.44707 0.52358 0.09468 0.0
H1162 H 0.43825 0.53445 0.03725 0.0
H1163 H 0.45985 0.56103 0.08223 0.0
H1164 H 0.42379 0.56642 0.91285 0.0
H1165 H 0.47691 0.63511 0.01287 0.0
H1166 H 0.36408 0.52843 0.99184 0.0
H1167 H 0.38773 0.51414 -0.00181 0.0
H1168 H 0.38205 0.52489 0.93811 0.0
H1169 H 0.42618 0.60892 0.11519 0.0
H1170 H 0.4615 0.63621 0.09485 0.0
H1171 H 0.45574 0.60235 0.11847 0.0
C1172 C 0.42082 0.83934 0.94635 0.0
C1173 C 0.39417 0.83768 0.95453 0.0
C1174 C 0.43721 0.83822 0.98577 0.0
C1175 C 0.42673 0.83536 0.03463 0.0
C1176 C 0.39862 0.83078 0.04266 0.0
C1177 C 0.38272 0.83218 0.00251 0.0
C1178 C 0.46701 0.84315 0.97544 0.0
C1179 C 0.38637 0.82697 0.09414 0.0
C1180 C 0.46829 0.8293 0.14419 0.0
C1181 C 0.4824 0.85772 0.16167 0.0
C1182 C 0.45037 0.82153 0.10219 0.0
C1183 C 0.44694 0.84282 0.07708 0.0
C1184 C 0.4624 0.87178 0.09336 0.0
C1185 C 0.47962 0.87875 0.1357 0.0
C1186 C 0.43405 0.79041 0.08632 0.0
C1187 C 0.45991 0.89536 0.06734 0.0
H1188 H 0.42998 0.84364 0.90948 0.0
H1189 H 0.36209 0.8307 0.00916 0.0
H1190 H 0.48321 0.86548 0.98619 0.0
H1191 H 0.47129 0.8283 -0.00239 0.0
H1192 H 0.47009 0.84022 0.93566 0.0
H1193 H 0.39087 0.81216 0.11595 0.0
H1194 H 0.39679 0.84807 0.11342 0.0
H1195 H 0.36275 0.81842 0.09359 0.0
H1196 H 0.46998 0.81289 0.16468 0.0
H1197 H 0.49052 0.90073 0.14928 0.0
H1198 H 0.4351 0.78849 0.04561 0.0
H1199 H 0.41103 0.78104 0.09641 0.0
H1200 H 0.44244 0.7775 0.10441 0.0
H1201 H 0.4762 0.91704 0.0808 0.0
H1202 H 0.43818 0.89243 0.07382 0.0
H1203 H 0.46264 0.89446 0.02684 0.0
C1204 C 0.15083 0.57553 0.95013 0.0
C1205 C 0.15068 0.54967 0.95934 0.0
C1206 C 0.1533 0.59399 0.98903 0.0
C1207 C 0.1567 0.58693 0.03805 0.0
C1208 C 0.15988 0.56262 0.04675 0.0
C1209 C 0.15663 0.54416 0.00735 0.0
C1210 C 0.15008 0.61985 0.97806 0.0
C1211 C 0.16404 0.55459 0.09838 0.0
C1212 C 0.16886 0.63717 0.14683 0.0
C1213 C 0.14102 0.62448 0.1666 0.0
C1214 C 0.17443 0.62575 0.10403 0.0
C1215 C 0.15152 0.60143 0.08055 0.0
C1216 C 0.12314 0.58971 0.09906 0.0
C1217 C 0.11834 0.60119 0.14207 0.0
C1218 C 0.20492 0.63876 0.08542 0.0
C1219 C 0.09787 0.56434 0.07445 0.0
H1220 H 0.14685 0.58037 0.91302 0.0
H1221 H 0.15703 0.52451 0.01482 0.0
H1222 H 0.1435 0.62005 0.9392 0.0
H1223 H 0.13378 0.6203 0.00273 0.0
H1224 H 0.17087 0.63981 0.98495 0.0
H1225 H 0.17112 0.53835 0.09805 0.0
H1226 H 0.18015 0.57386 0.11892 0.0
H1227 H 0.14339 0.54545 0.11889 0.0
H1228 H 0.18646 0.65493 0.16619 0.0
H1229 H 0.09679 0.59145 0.15739 0.0
H1230 H 0.20582 0.64324 0.04522 0.0
H1231 H 0.2126 0.6232 0.09072 0.0
H1232 H 0.21984 0.65904 0.10505 0.0
H1233 H 0.09728 0.56865 0.03446 0.0
H1234 H 0.07698 0.55941 0.09119 0.0
H1235 H 0.1002 0.54499 0.07771 0.0
C1236 C 0.51973 0.39882 0.361 0.0
C1237 C 0.51886 0.37599 0.33453 0.0
C1238 C 0.53677 0.40985 0.40336 0.0
C1239 C 0.55394 0.39815 0.41924 0.0
C1240 C 0.55223 0.37419 0.39388 0.0
C1241 C 0.5345 0.36323 0.35174 0.0
C1242 C 0.53732 0.43497 0.42969 0.0
C1243 C 0.57034 0.36127 0.40936 0.0
C1244 C 0.61711 0.45545 0.49102 0.0
C1245 C 0.60646 0.44927 0.53952 0.0
C1246 C 0.60154 0.4371 0.45166 0.0
C1247 C 0.57444 0.41234 0.46094 0.0
C1248 C 0.5649 0.40463 0.51027 0.0
C1249 C 0.58129 0.42292 0.54906 0.0
C1250 C 0.61284 0.44573 0.39966 0.0
C1251 C 0.53606 0.37853 0.52167 0.0
H1252 H 0.50767 0.40871 0.3475 0.0
H1253 H 0.53422 0.34589 0.33076 0.0
H1254 H 0.53484 0.43117 0.47017 0.0
H1255 H 0.55837 0.45473 0.42326 0.0
H1256 H 0.51999 0.4389 0.4165 0.0
H1257 H 0.56323 0.34018 0.39118 0.0
H1258 H 0.59311 0.37616 0.39906 0.0
H1259 H 0.56961 0.35833 0.45005 0.0
H1260 H 0.63674 0.47549 0.48328 0.0
H1261 H 0.573 0.41763 0.58647 0.0
H1262 H 0.60102 0.45512 0.38094 0.0
H1263 H 0.60927 0.42668 0.37794 0.0
H1264 H 0.63617 0.46195 0.39922 0.0
H1265 H 0.51865 0.38012 0.50233 0.0
H1266 H 0.53117 0.37612 0.56187 0.0
H1267 H 0.53562 0.35883 0.50799 0.0
C1268 C 0.54612 0.15927 0.49214 0.0
C1269 C 0.55011 0.15018 0.53863 0.0
C1270 C 0.56446 0.16271 0.45239 0.0
C1271 C 0.58678 0.15619 0.45903 0.0
C1272 C 0.59254 0.14968 0.50695 0.0
C1273 C 0.5744 0.14719 0.54634 0.0
C1274 C 0.55835 0.17089 0.40229 0.0
C1275 C 0.61585 0.14222 0.51556 0.0
C1276 C 0.59562 0.11702 0.34996 0.0
C1277 C 0.62131 0.13816 0.32847 0.0
C1278 C 0.58474 0.12254 0.39299 0.0
C1279 C 0.59969 0.15017 0.41506 0.0
C1280 C 0.62611 0.17152 0.39434 0.0
C1281 C 0.63674 0.16518 0.35131 0.0
C1282 C 0.55642 0.09897 0.41313 0.0
C1283 C 0.64229 0.20148 0.41579 0.0
H1284 H 0.52775 0.16215 0.48603 0.0
H1285 H 0.57792 0.14047 0.58223 0.0
H1286 H 0.57869 0.18622 0.38339 0.0
H1287 H 0.54716 0.15136 0.3788 0.0
H1288 H 0.54447 0.18075 0.4051 0.0
H1289 H 0.6189 0.13954 0.55544 0.0
H1290 H 0.61013 0.12179 0.49619 0.0
H1291 H 0.6366 0.15918 0.50003 0.0
H1292 H 0.58357 0.0961 0.33238 0.0
H1293 H 0.65629 0.1818 0.33437 0.0
H1294 H 0.53884 0.10268 0.40063 0.0
H1295 H 0.55627 0.09876 0.4541 0.0
H1296 H 0.5516 0.07745 0.3997 0.0
H1297 H 0.63071 0.21314 0.40638 0.0
H1298 H 0.66453 0.2139 0.40093 0.0
H1299 H 0.64334 0.20082 0.4567 0.0
C1300 C 0.87836 0.48112 0.36043 0.0
C1301 C 0.85617 0.48308 0.33692 0.0
C1302 C 0.87334 0.46501 0.40365 0.0
C1303 C 0.84519 0.45002 0.42367 0.0
C1304 C 0.82287 0.453 0.40145 0.0
C1305 C 0.82867 0.46968 0.35816 0.0
C1306 C 0.898 0.46293 0.42628 0.0
C1307 C 0.7926 0.43729 0.42154 0.0
C1308 C 0.83871 0.38705 0.49645 0.0
C1309 C 0.84651 0.39909 0.54389 0.0
C1310 C 0.83489 0.40223 0.45764 0.0
C1311 C 0.83962 0.43034 0.46631 0.0
C1312 C 0.84485 0.44143 0.51504 0.0
C1313 C 0.84774 0.42546 0.55342 0.0
C1314 C 0.82851 0.38931 0.4064 0.0
C1315 C 0.8504 0.47143 0.52566 0.0
H1316 H 0.89964 0.4915 0.34389 0.0
H1317 H 0.81139 0.47081 0.33953 0.0
H1318 H 0.89876 0.4661 0.46688 0.0
H1319 H 0.89487 0.44115 0.4194 0.0
H1320 H 0.91909 0.47908 0.41046 0.0
H1321 H 0.77911 0.44567 0.40572 0.0
H1322 H 0.78251 0.4141 0.41214 0.0
H1323 H 0.79261 0.43899 0.46243 0.0
H1324 H 0.83723 0.3665 0.48889 0.0
H1325 H 0.8534 0.43487 0.59007 0.0
H1326 H 0.84849 0.39971 0.38393 0.0
H1327 H 0.81239 0.39319 0.38761 0.0
H1328 H 0.82036 0.36576 0.40723 0.0
H1329 H 0.87001 0.48744 0.50569 0.0
H1330 H 0.85359 0.47672 0.56571 0.0
H1331 H 0.83217 0.47378 0.51209 0.0
C1332 C 0.29784 0.35512 0.31494 0.0
C1333 C 0.3074 0.38094 0.28896 0.0
C1334 C 0.30482 0.33445 0.29861 0.0
C1335 C 0.3234 0.34078 0.25747 0.0
C1336 C 0.33098 0.36576 0.22887 0.0
C1337 C 0.32214 0.38509 0.24428 0.0
C1338 C 0.29405 0.307 0.32777 0.0
C1339 C 0.3512 0.3739 0.18524 0.0
C1340 C 0.38451 0.32496 0.26042 0.0
C1341 C 0.37967 0.30953 0.21634 0.0
C1342 C 0.36508 0.33351 0.27663 0.0
C1343 C 0.3394 0.32498 0.24948 0.0
C1344 C 0.33251 0.30571 0.2092 0.0
C1345 C 0.35323 0.29903 0.19194 0.0
C1346 C 0.37379 0.35444 0.31931 0.0
C1347 C 0.30437 0.29394 0.18176 0.0
H1348 H 0.28632 0.35181 0.34949 0.0
H1349 H 0.3298 0.40519 0.22445 0.0
H1350 H 0.29339 0.28946 0.30498 0.0
H1351 H 0.3084 0.31091 0.3599 0.0
H1352 H 0.27214 0.29978 0.34249 0.0
H1353 H 0.35528 0.39428 0.16749 0.0
H1354 H 0.37214 0.37651 0.19743 0.0
H1355 H 0.34216 0.35664 0.157 0.0
H1356 H 0.40512 0.33337 0.27893 0.0
H1357 H 0.34943 0.28703 0.1578 0.0
H1358 H 0.35705 0.34572 0.34846 0.0
H1359 H 0.37588 0.37505 0.30639 0.0
H1360 H 0.39457 0.35909 0.33615 0.0
H1361 H 0.28712 0.29303 0.20568 0.0
H1362 H 0.29738 0.27199 0.16748 0.0
H1363 H 0.30718 0.30783 0.14945 0.0
C1364 C 0.6489 0.94507 0.30241 0.0
C1365 C 0.62248 0.9288 0.27807 0.0
C1366 C 0.66943 0.97247 0.28485 0.0
C1367 C 0.66237 0.98453 0.24431 0.0
C1368 C 0.63679 0.96702 0.21715 0.0
C1369 C 0.61757 0.93905 0.23367 0.0
C1370 C 0.69756 0.98919 0.3122 0.0
C1371 C 0.62795 0.97885 0.17408 0.0
C1372 C 0.67871 0.06163 0.24947 0.0
C1373 C 0.69346 0.0724 0.20486 0.0
C1374 C 0.67012 0.0335 0.26478 0.0
C1375 C 0.67799 0.01632 0.23617 0.0
C1376 C 0.6965 0.02874 0.19498 0.0
C1377 C 0.7032 0.05633 0.17874 0.0
C1378 C 0.64989 0.02123 0.30837 0.0
C1379 C 0.70757 0.01236 0.16571 0.0
H1380 H 0.65281 0.93713 0.33672 0.0
H1381 H 0.59701 0.92658 0.2151 0.0
H1382 H 0.7147 0.00558 0.28817 0.0
H1383 H 0.69463 0.00026 0.34441 0.0
H1384 H 0.70479 0.97446 0.32663 0.0
H1385 H 0.60715 0.96252 0.15751 0.0
H1386 H 0.62583 0.99744 0.18645 0.0
H1387 H 0.64463 0.98664 0.14487 0.0
H1388 H 0.67089 0.07391 0.2694 0.0
H1389 H 0.71471 0.06466 0.14422 0.0
H1390 H 0.65922 0.01345 0.33684 0.0
H1391 H 0.62915 0.00255 0.29627 0.0
H1392 H 0.64535 0.03729 0.32585 0.0
H1393 H 0.70778 0.99507 0.18794 0.0
H1394 H 0.72973 0.0272 0.15218 0.0
H1395 H 0.69376 0.00253 0.13275 0.0
C1396 C 0.0634 0.67888 0.24111 0.0
C1397 C 0.07323 0.69382 0.28585 0.0
C1398 C 0.03528 0.66935 0.22453 0.0
C1399 C 0.0171 0.6764 0.25199 0.0
C1400 C 0.02854 0.69516 0.29313 0.0
C1401 C 0.05618 0.70284 0.31069 0.0
C1402 C 0.0241 0.64903 0.1809 0.0
C1403 C 0.01097 0.70539 0.32096 0.0
C1404 C 0.94535 0.64517 0.18569 0.0
C1405 C 0.92942 0.61907 0.21102 0.0
C1406 C 0.97287 0.66606 0.20239 0.0
C1407 C 0.98538 0.65967 0.2431 0.0
C1408 C 0.96843 0.63411 0.27063 0.0
C1409 C 0.94036 0.61455 0.25496 0.0
C1410 C 0.98905 0.69393 0.17417 0.0
C1411 C 0.98088 0.62575 0.31343 0.0
H1412 H 0.07645 0.67163 0.22213 0.0
H1413 H 0.06377 0.7145 0.34528 0.0
H1414 H 0.00599 0.62787 0.19282 0.0
H1415 H 0.01577 0.65764 0.1521 0.0
H1416 H 0.04095 0.6455 0.16396 0.0
H1417 H 0.02511 0.72691 0.33762 0.0
H1418 H 0.99501 0.70665 0.2965 0.0
H1419 H 0.99922 0.69026 0.35155 0.0
H1420 H 0.93691 0.64869 0.1516 0.0
H1421 H 0.92818 0.59415 0.27409 0.0
H1422 H 0.99953 0.69068 0.14141 0.0
H1423 H 0.00583 0.71137 0.19725 0.0
H1424 H 0.974 0.70093 0.16043 0.0
H1425 H 0.99963 0.62403 0.30065 0.0
H1426 H 0.96495 0.60488 0.33026 0.0
H1427 H 0.98862 0.64249 0.34258 0.0
C1428 C 0.64757 0.70279 0.81286 0.0
C1429 C 0.62186 0.6944 0.78718 0.0
C1430 C 0.66772 0.69548 0.79501 0.0
C1431 C 0.6609 0.67768 0.75263 0.0
C1432 C 0.6363 0.67168 0.72414 0.0
C1433 C 0.61753 0.68088 0.74114 0.0
C1434 C 0.69507 0.70489 0.82383 0.0
C1435 C 0.62786 0.65265 0.67882 0.0
C1436 C 0.70057 0.64549 0.68672 0.0
C1437 C 0.68943 0.61906 0.71131 0.0
C1438 C 0.69455 0.66673 0.70366 0.0
C1439 C 0.67527 0.6604 0.74377 0.0
C1440 C 0.66558 0.63439 0.77051 0.0
C1441 C 0.67353 0.61445 0.7547 0.0
C1442 C 0.70741 0.69498 0.67632 0.0
C1443 C 0.64431 0.62604 0.81259 0.0
H1444 H 0.65113 0.71351 0.84832 0.0
H1445 H 0.5976 0.67427 0.72132 0.0
H1446 H 0.69094 0.68946 0.85428 0.0
H1447 H 0.71243 0.70593 0.80001 0.0
H1448 H 0.70267 0.72636 0.84084 0.0
H1449 H 0.60769 0.64954 0.66158 0.0
H1450 H 0.64522 0.66223 0.65083 0.0
H1451 H 0.62474 0.6312 0.68883 0.0
H1452 H 0.71292 0.64906 0.65307 0.0
H1453 H 0.66461 0.59381 0.77324 0.0
H1454 H 0.70688 0.71212 0.6985 0.0
H1455 H 0.69542 0.69204 0.64137 0.0
H1456 H 0.73009 0.70223 0.66612 0.0
H1457 H 0.65366 0.64203 0.84286 0.0
H1458 H 0.63804 0.60451 0.82804 0.0
H1459 H 0.62453 0.62578 0.79965 0.0
C1460 C 0.30314 0.94275 0.8082 0.0
C1461 C 0.31466 0.92777 0.78376 0.0
C1462 C 0.30919 0.9701 0.79166 0.0
C1463 C 0.32884 0.98342 0.75214 0.0
C1464 C 0.33915 0.9675 0.72578 0.0
C1465 C 0.33121 0.93955 0.74115 0.0
C1466 C 0.29584 0.98511 0.81871 0.0
C1467 C 0.36094 0.9809 0.68453 0.0
C1468 C 0.35541 0.05318 0.68263 0.0
C1469 C 0.38092 0.07098 0.7085 0.0
C1470 C 0.33563 0.0256 0.70054 0.0
C1471 C 0.34267 0.01503 0.74317 0.0
C1472 C 0.36701 0.03406 0.7718 0.0
C1473 C 0.38539 0.0621 0.75471 0.0
C1474 C 0.30848 0.00708 0.67156 0.0
C1475 C 0.37563 0.02388 0.81739 0.0
H1476 H 0.29034 0.93361 0.84129 0.0
H1477 H 0.34044 0.92806 0.72281 0.0
H1478 H 0.30761 0.99425 0.85383 0.0
H1479 H 0.29623 0.0027 0.79649 0.0
H1480 H 0.27317 0.96944 0.82858 0.0
H1481 H 0.36756 0.96587 0.6692 0.0
H1482 H 0.35192 0.98769 0.65398 0.0
H1483 H 0.38046 0.00039 0.69832 0.0
H1484 H 0.35176 0.0601 0.64701 0.0
H1485 H 0.40519 0.07579 0.77463 0.0
H1486 H 0.29095 0.99145 0.69591 0.0
H1487 H 0.31271 0.99487 0.6429 0.0
H1488 H 0.30109 0.02054 0.65237 0.0
H1489 H 0.358 0.01546 0.84494 0.0
H1490 H 0.39537 0.04133 0.83508 0.0
H1491 H 0.3796 0.00607 0.8075 0.0
C1492 C 0.9408 0.32669 0.75422 0.0
C1493 C 0.93025 0.31183 0.70962 0.0
C1494 C 0.9688 0.33519 0.77021 0.0
C1495 C 0.98607 0.32713 0.74231 0.0
C1496 C 0.97388 0.30864 0.70098 0.0
C1497 C 0.94644 0.30206 0.68401 0.0
C1498 C 0.98085 0.35546 0.81382 0.0
C1499 C 0.99032 0.29738 0.67239 0.0
C1500 C 0.06366 0.3869 0.7409 0.0
C1501 C 0.07354 0.38198 0.78572 0.0
C1502 C 0.03568 0.36792 0.72406 0.0
C1503 C 0.01779 0.34252 0.7513 0.0
C1504 C 0.0294 0.33542 0.79245 0.0
C1505 C 0.05683 0.35575 0.81032 0.0
C1506 C 0.02434 0.37684 0.68038 0.0
C1507 C 0.01227 0.30743 0.81997 0.0
H1508 H 0.9284 0.33455 0.77366 0.0
H1509 H 0.93828 0.29051 0.64946 0.0
H1510 H 0.98807 0.34595 0.84289 0.0
H1511 H 0.99986 0.37603 0.80207 0.0
H1512 H 0.96483 0.36034 0.83042 0.0
H1513 H 0.9755 0.27511 0.6593 0.0
H1514 H 0.00012 0.3109 0.63914 0.0
H1515 H 0.00761 0.29737 0.69492 0.0
H1516 H 0.07647 0.4073 0.72208 0.0
H1517 H 0.06448 0.35182 0.84494 0.0
H1518 H 0.00559 0.37891 0.69188 0.0
H1519 H 0.01692 0.36021 0.65107 0.0
H1520 H 0.04084 0.39767 0.6642 0.0
H1521 H 0.00137 0.31073 0.85207 0.0
H1522 H 0.02671 0.29989 0.83462 0.0
H1523 H 0.9957 0.29036 0.79601 0.0
C1524 C 0.40503 0.20609 0.84044 0.0
C1525 C 0.42175 0.19302 0.84907 0.0
C1526 C 0.40014 0.22116 0.87811 0.0
C1527 C 0.41196 0.22286 0.92552 0.0
C1528 C 0.42592 0.20691 0.93583 0.0
C1529 C 0.43061 0.19215 0.89748 0.0
C1530 C 0.38464 0.23732 0.86568 0.0
C1531 C 0.43808 0.20737 0.98646 0.0
C1532 C 0.44312 0.28603 0.01248 0.0
C1533 C 0.42447 0.27376 0.05264 0.0
C1534 C 0.43748 0.27095 0.9676 0.0
C1535 C 0.41261 0.24329 0.96334 0.0
C1536 C 0.39156 0.23327 0.00102 0.0
C1537 C 0.39776 0.24873 0.0454 0.0
C1538 C 0.45999 0.28288 0.9274 0.0
C1539 C 0.36432 0.20442 0.99737 0.0
H1540 H 0.39778 0.20675 0.80329 0.0
H1541 H 0.44316 0.18178 0.90473 0.0
H1542 H 0.37166 0.23765 0.89734 0.0
H1543 H 0.40074 0.25995 0.8566 0.0
H1544 H 0.3703 0.22777 0.83312 0.0
H1545 H 0.44612 0.19194 0.98944 0.0
H1546 H 0.45621 0.22931 0.99443 0.0
H1547 H 0.42147 0.20205 0.01532 0.0
H1548 H 0.46372 0.30545 0.01796 0.0
H1549 H 0.38313 0.23946 0.07643 0.0
H1550 H 0.44975 0.27952 0.8905 0.0
H1551 H 0.47235 0.27136 0.92783 0.0
H1552 H 0.47533 0.30624 0.93259 0.0
H1553 H 0.35555 0.20028 0.95922 0.0
H1554 H 0.34756 0.20296 0.02326 0.0
H1555 H 0.36918 0.18719 0.00704 0.0
C1556 C 0.75619 0.15338 0.04917 0.0
C1557 C 0.73151 0.15595 0.05343 0.0
C1558 C 0.77247 0.16149 0.00561 0.0
C1559 C 0.76372 0.17245 0.96592 0.0
C1560 C 0.73638 0.17057 0.96741 0.0
C1561 C 0.72041 0.16218 0.01146 0.0
C1562 C 0.80084 0.162 0.00485 0.0
C1563 C 0.7258 0.18111 0.92501 0.0
C1564 C 0.8162 0.2407 0.90013 0.0
C1565 C 0.81511 0.23054 0.85202 0.0
C1566 C 0.80139 0.22158 0.93878 0.0
C1567 C 0.78524 0.19162 0.92894 0.0
C1568 C 0.78725 0.18106 0.88213 0.0
C1569 C 0.80238 0.2007 0.84415 0.0
C1570 C 0.80068 0.23374 0.98885 0.0
C1571 C 0.77107 0.14931 0.87039 0.0
H1572 H 0.76447 0.14804 0.08163 0.0
H1573 H 0.70122 0.16398 0.01471 0.0
H1574 H 0.80569 0.15709 0.96741 0.0
H1575 H 0.81834 0.18383 0.01524 0.0
H1576 H 0.80096 0.14637 0.03165 0.0
H1577 H 0.70254 0.17397 0.92858 0.0
H1578 H 0.73808 0.20501 0.92423 0.0
H1579 H 0.7294 0.17331 0.8892 0.0
H1580 H 0.82644 0.26369 0.9067 0.0
H1581 H 0.80165 0.19251 0.80719 0.0
H1582 H 0.80527 0.22233 0.01853 0.0
H1583 H 0.77886 0.23054 0.99565 0.0
H1584 H 0.81652 0.25712 0.99166 0.0
H1585 H 0.76971 0.13614 0.903 0.0
H1586 H 0.78136 0.14417 0.83941 0.0
H1587 H 0.7488 0.14296 0.85901 0.0
C1588 C 0.85081 0.60426 0.0502 0.0
C1589 C 0.84703 0.57658 0.05582 0.0
C1590 C 0.84306 0.61232 0.00612 0.0
C1591 C 0.83137 0.59212 0.96721 0.0
C1592 C 0.83213 0.56608 0.96998 0.0
C1593 C 0.84009 0.55859 0.01458 0.0
C1594 C 0.84369 0.64073 0.00405 0.0
C1595 C 0.82085 0.54442 0.92838 0.0
C1596 C 0.76385 0.57809 0.90057 0.0
C1597 C 0.77416 0.5865 0.85234 0.0
C1598 C 0.78276 0.58207 0.93944 0.0
C1599 C 0.81266 0.59484 0.9297 0.0
C1600 C 0.82349 0.60676 0.88265 0.0
C1601 C 0.80408 0.60266 0.84447 0.0
C1602 C 0.77036 0.56998 0.98976 0.0
C1603 C 0.85521 0.62118 0.87093 0.0
H1604 H 0.85669 0.61839 0.08208 0.0
H1605 H 0.83736 0.53726 0.01885 0.0
H1606 H 0.84881 0.65001 0.96627 0.0
H1607 H 0.82215 0.63731 0.01418 0.0
H1608 H 0.85968 0.65652 0.03042 0.0
H1609 H 0.82725 0.52779 0.93281 0.0
H1610 H 0.79697 0.53347 0.92776 0.0
H1611 H 0.82881 0.55526 0.89219 0.0
H1612 H 0.74083 0.56608 0.90714 0.0
H1613 H 0.81241 0.60962 0.80744 0.0
H1614 H 0.78226 0.58611 0.01904 0.0
H1615 H 0.77264 0.55088 0.9973 0.0
H1616 H 0.74719 0.56335 0.99242 0.0
H1617 H 0.86863 0.63303 0.90331 0.0
H1618 H 0.86088 0.63636 0.83942 0.0
H1619 H 0.8607 0.60451 0.86038 0.0
C1620 C 0.28089 0.44364 0.48363 0.0
C1621 C 0.26924 0.42606 0.44206 0.0
C1622 C 0.26506 0.43689 0.52777 0.0
C1623 C 0.23724 0.41207 0.52966 0.0
C1624 C 0.22778 0.392 0.49045 0.0
C1625 C 0.24404 0.39924 0.44694 0.0
C1626 C 0.27642 0.45825 0.56982 0.0
C1627 C 0.19874 0.36487 0.49152 0.0
C1628 C 0.19838 0.40244 0.651 0.0
C1629 C 0.18655 0.42037 0.6433 0.0
C1630 C 0.21344 0.3977 0.61323 0.0
C1631 C 0.21619 0.41074 0.56667 0.0
C1632 C 0.20104 0.42558 0.55691 0.0
C1633 C 0.1864 0.43024 0.59544 0.0
C1634 C 0.22875 0.38127 0.62501 0.0
C1635 C 0.20251 0.43892 0.507 0.0
H1636 H 0.30051 0.46427 0.47999 0.0
H1637 H 0.23534 0.38537 0.41483 0.0
H1638 H 0.26512 0.47083 0.57006 0.0
H1639 H 0.27226 0.44697 0.60586 0.0
H1640 H 0.2999 0.47351 0.56623 0.0
H1641 H 0.19772 0.34865 0.4648 0.0
H1642 H 0.19363 0.35521 0.52902 0.0
H1643 H 0.18189 0.37017 0.48127 0.0
H1644 H 0.1984 0.39438 0.68775 0.0
H1645 H 0.17691 0.44367 0.589 0.0
H1646 H 0.2512 0.39671 0.63634 0.0
H1647 H 0.22969 0.3692 0.59242 0.0
H1648 H 0.21812 0.36594 0.65599 0.0
H1649 H 0.22464 0.45713 0.5007 0.0
H1650 H 0.18725 0.44715 0.50408 0.0
H1651 H 0.19763 0.42296 0.47709 0.0
C1652 C 0.59692 0.80046 0.6527 0.0
C1653 C 0.57935 0.77067 0.64479 0.0
C1654 C 0.6022 0.82027 0.61463 0.0
C1655 C 0.58995 0.80996 0.56754 0.0
C1656 C 0.5752 0.77995 0.55786 0.0
C1657 C 0.5701 0.76065 0.59664 0.0
C1658 C 0.61854 0.85203 0.62635 0.0
C1659 C 0.56261 0.76805 0.50752 0.0
C1660 C 0.55934 0.84241 0.48069 0.0
C1661 C 0.57761 0.84809 0.4402 0.0
C1662 C 0.56504 0.83313 0.52563 0.0
C1663 C 0.58955 0.82973 0.52953 0.0
C1664 C 0.61034 0.84009 0.49143 0.0
C1665 C 0.60411 0.84926 0.44703 0.0
C1666 C 0.54289 0.82334 0.56636 0.0
C1667 C 0.63721 0.83782 0.49468 0.0
H1668 H 0.60454 0.80857 0.68964 0.0
H1669 H 0.55694 0.73772 0.58994 0.0
H1670 H 0.63139 0.86492 0.59426 0.0
H1671 H 0.60297 0.85919 0.63582 0.0
H1672 H 0.63313 0.85671 0.6585 0.0
H1673 H 0.55408 0.74448 0.50498 0.0
H1674 H 0.54476 0.7723 0.49969 0.0
H1675 H 0.57912 0.77888 0.47834 0.0
H1676 H 0.53893 0.84169 0.47555 0.0
H1677 H 0.6185 0.85417 0.41576 0.0
H1678 H 0.55348 0.83037 0.60298 0.0
H1679 H 0.53008 0.79946 0.56653 0.0
H1680 H 0.52792 0.8318 0.56128 0.0
H1681 H 0.64622 0.84245 0.53268 0.0
H1682 H 0.65398 0.85278 0.46846 0.0
H1683 H 0.63181 0.81554 0.48519 0.0
C1684 C 0.19827 0.80653 0.64797 0.0
C1685 C 0.22811 0.81924 0.64013 0.0
C1686 C 0.17866 0.79145 0.60989 0.0
C1687 C 0.18927 0.78958 0.56306 0.0
C1688 C 0.21918 0.80622 0.5531 0.0
C1689 C 0.23828 0.82098 0.59184 0.0
C1690 C 0.14692 0.77495 0.62168 0.0
C1691 C 0.23139 0.80578 0.50295 0.0
C1692 C 0.16175 0.72382 0.48324 0.0
C1693 C 0.15501 0.73389 0.44054 0.0
C1694 C 0.16962 0.74037 0.52668 0.0
C1695 C 0.17046 0.76725 0.52679 0.0
C1696 C 0.1589 0.77481 0.48641 0.0
C1697 C 0.15131 0.75796 0.44349 0.0
C1698 C 0.18078 0.73099 0.5699 0.0
C1699 C 0.15822 0.80258 0.48572 0.0
H1700 H 0.19006 0.80547 0.68501 0.0
H1701 H 0.26127 0.83133 0.58527 0.0
H1702 H 0.13361 0.77297 0.58891 0.0
H1703 H 0.14097 0.75292 0.63392 0.0
H1704 H 0.14161 0.78541 0.65215 0.0
H1705 H 0.25458 0.8222 0.4999 0.0
H1706 H 0.22896 0.78425 0.49637 0.0
H1707 H 0.21948 0.80971 0.47329 0.0
H1708 H 0.16441 0.7051 0.48101 0.0
H1709 H 0.14557 0.76544 0.41045 0.0
H1710 H 0.17256 0.73454 0.60528 0.0
H1711 H 0.20464 0.74407 0.57083 0.0
H1712 H 0.17454 0.70792 0.56723 0.0
H1713 H 0.15362 0.80798 0.52297 0.0
H1714 H 0.14182 0.80141 0.45927 0.0
H1715 H 0.17956 0.82037 0.47386 0.0
C1716 C 0.60397 0.75678 0.94493 0.0
C1717 C 0.57702 0.73162 0.94141 0.0
C1718 C 0.61219 0.77319 0.98835 0.0
C1719 C 0.59287 0.76404 0.02863 0.0
C1720 C 0.56798 0.73624 0.02788 0.0
C1721 C 0.56032 0.72017 0.98393 0.0
C1722 C 0.6395 0.80207 0.98834 0.0
C1723 C 0.54735 0.72523 0.07096 0.0
C1724 C 0.60275 0.80315 0.14971 0.0
C1725 C 0.58462 0.81474 0.14201 0.0
C1726 C 0.60775 0.78832 0.11183 0.0
C1727 C 0.59463 0.78545 0.06528 0.0
C1728 C 0.57969 0.8005 0.05551 0.0
C1729 C 0.57492 0.81504 0.09406 0.0
C1730 C 0.62453 0.77336 0.12347 0.0
C1731 C 0.56621 0.79888 0.00566 0.0
H1732 H 0.61713 0.76532 0.91201 0.0
H1733 H 0.53959 0.70059 0.98127 0.0
H1734 H 0.63433 0.81899 0.97795 0.0
H1735 H 0.64959 0.80745 0.02553 0.0
H1736 H 0.65531 0.80262 0.96118 0.0
H1737 H 0.53188 0.70177 0.0679 0.0
H1738 H 0.55923 0.72948 0.10639 0.0
H1739 H 0.53494 0.7367 0.07211 0.0
H1740 H 0.61076 0.80312 0.1865 0.0
H1741 H 0.56141 0.82444 0.08757 0.0
H1742 H 0.6362 0.77209 0.09058 0.0
H1743 H 0.60939 0.75106 0.13587 0.0
H1744 H 0.64026 0.78452 0.15375 0.0
H1745 H 0.58214 0.80393 0.97568 0.0
H1746 H 0.55773 0.81395 0.00284 0.0
H1747 H 0.54814 0.77667 -0.00065 0.0
C1748 C 0.24841 0.84906 0.94583 0.0
C1749 C 0.27206 0.84501 0.93875 0.0
C1750 C 0.23276 0.84073 0.99003 0.0
C1751 C 0.24141 0.82853 0.02784 0.0
C1752 C 0.26809 0.82913 0.02389 0.0
C1753 C 0.28324 0.83743 0.979 0.0
C1754 C 0.20496 0.84127 0.99321 0.0
C1755 C 0.27869 0.81747 0.06451 0.0
C1756 C 0.20371 0.80157 0.15073 0.0
C1757 C 0.18965 0.77162 0.14303 0.0
C1758 C 0.21933 0.82084 0.11264 0.0
C1759 C 0.22027 0.80984 0.06567 0.0
C1760 C 0.20299 0.77994 0.05605 0.0
C1761 C 0.18794 0.76114 0.09498 0.0
C1762 C 0.23708 0.85253 0.1244 0.0
C1763 C 0.20247 0.76744 0.00572 0.0
H1764 H 0.24012 0.85553 0.91479 0.0
H1765 H 0.30169 0.83456 0.97372 0.0
H1766 H 0.18678 0.81972 0.98327 0.0
H1767 H 0.20112 0.84631 0.03127 0.0
H1768 H 0.20486 0.85728 0.96728 0.0
H1769 H 0.30172 0.82398 0.05953 0.0
H1770 H 0.27594 0.82503 0.10121 0.0
H1771 H 0.26581 0.79359 0.06439 0.0
H1772 H 0.20502 0.81003 0.18766 0.0
H1773 H 0.17678 0.7381 0.08856 0.0
H1774 H 0.23862 0.86604 0.09223 0.0
H1775 H 0.25924 0.85771 0.13427 0.0
H1776 H 0.22801 0.85841 0.15631 0.0
H1777 H 0.19854 0.77955 0.97645 0.0
H1778 H 0.18564 0.74437 0.00303 0.0
H1779 H 0.2237 0.76934 -0.00177 0.0
C1780 C 0.15327 0.39884 0.9468 0.0
C1781 C 0.15513 0.42577 0.94208 0.0
C1782 C 0.1622 0.39142 0.99024 0.0
C1783 C 0.17296 0.41143 0.02954 0.0
C1784 C 0.17017 0.43636 0.02784 0.0
C1785 C 0.16117 0.44329 0.98378 0.0
C1786 C 0.16383 0.36416 0.99114 0.0
C1787 C 0.18032 0.45765 0.06999 0.0
C1788 C 0.20223 0.40174 0.15079 0.0
C1789 C 0.232 0.41959 0.14299 0.0
C1790 C 0.18238 0.39697 0.11305 0.0
C1791 C 0.19265 0.40992 0.06642 0.0
C1792 C 0.22263 0.42461 0.05654 0.0
C1793 C 0.24198 0.42927 0.09503 0.0
C1794 C 0.15065 0.38063 0.12494 0.0
C1795 C 0.23447 0.43783 0.00655 0.0
H1796 H 0.148 0.38501 0.91461 0.0
H1797 H 0.16235 0.46399 0.98028 0.0
H1798 H 0.18589 0.36927 0.98064 0.0
H1799 H 0.15934 0.3545 0.02865 0.0
H1800 H 0.14844 0.348 0.96451 0.0
H1801 H 0.1723 0.47307 0.0665 0.0
H1802 H 0.17311 0.44633 0.10597 0.0
H1803 H 0.20422 0.47007 0.07028 0.0
H1804 H 0.19417 0.39376 0.18758 0.0
H1805 H 0.2649 0.4426 0.08844 0.0
H1806 H 0.13756 0.36865 0.09235 0.0
H1807 H 0.14376 0.39612 0.13649 0.0
H1808 H 0.14594 0.36524 0.15581 0.0
H1809 H 0.22328 0.42185 0.97672 0.0
H1810 H 0.25795 0.44595 0.00354 0.0
H1811 H 0.23068 0.45611 0.00019 0.0
C1812 C 0.81425 0.57778 0.40156 0.0
C1813 C 0.81286 0.58631 0.35318 0.0
C1814 C 0.79931 0.5821 0.43999 0.0
C1815 C 0.78264 0.59529 0.42964 0.0
C1816 C 0.78421 0.60726 0.38244 0.0
C1817 C 0.79956 0.60284 0.34474 0.0
C1818 C 0.79911 0.56995 0.4905 0.0
C1819 C 0.76738 0.62206 0.37003 0.0
C1820 C 0.71861 0.55985 0.51381 0.0
C1821 C 0.72977 0.57785 0.55503 0.0
C1822 C 0.73416 0.56716 0.46931 0.0
C1823 C 0.76115 0.59299 0.46667 0.0
C1824 C 0.76977 0.61327 0.50545 0.0
C1825 C 0.75384 0.60544 0.54939 0.0
C1826 C 0.72364 0.54544 0.42779 0.0
C1827 C 0.79778 0.64148 0.50347 0.0
H1828 H 0.8249 0.56547 0.40858 0.0
H1829 H 0.79857 0.60988 0.30758 0.0
H1830 H 0.8034 0.58617 0.51964 0.0
H1831 H 0.77753 0.55105 0.49778 0.0
H1832 H 0.81538 0.563 0.49369 0.0
H1833 H 0.77733 0.63727 0.33866 0.0
H1834 H 0.74522 0.60562 0.35892 0.0
H1835 H 0.7657 0.63396 0.40222 0.0
H1836 H 0.69986 0.53861 0.51805 0.0
H1837 H 0.76216 0.61958 0.58125 0.0
H1838 H 0.73622 0.53414 0.42761 0.0
H1839 H 0.72686 0.55628 0.39151 0.0
H1840 H 0.70048 0.5291 0.43197 0.0
H1841 H 0.81568 0.63778 0.51399 0.0
H1842 H 0.79773 0.65743 0.52963 0.0
H1843 H 0.80218 0.6507 0.46564 0.0
C1844 C 0.42773 0.2394 0.39842 0.0
C1845 C 0.41846 0.22942 0.35027 0.0
C1846 C 0.42346 0.22014 0.43681 0.0
C1847 C 0.40947 0.19019 0.42674 0.0
C1848 C 0.39698 0.17982 0.37981 0.0
C1849 C 0.40147 0.1996 0.34207 0.0
C1850 C 0.43632 0.23211 0.48698 0.0
C1851 C 0.3813 0.1481 0.36777 0.0
C1852 C 0.44343 0.1598 0.51056 0.0
C1853 C 0.42583 0.15376 0.55211 0.0
C1854 C 0.43641 0.16845 0.46619 0.0
C1855 C 0.4112 0.17075 0.46394 0.0
C1856 C 0.39116 0.15994 0.50317 0.0
C1857 C 0.39877 0.15156 0.54705 0.0
C1858 C 0.45788 0.17883 0.42433 0.0
C1859 C 0.36355 0.16093 0.5016 0.0
H1860 H 0.44043 0.26236 0.40526 0.0
H1861 H 0.39392 0.19155 0.30509 0.0
H1862 H 0.42017 0.22084 0.51652 0.0
H1863 H 0.45468 0.22852 0.49394 0.0
H1864 H 0.44422 0.25555 0.48988 0.0
H1865 H 0.36611 0.14312 0.33645 0.0
H1866 H 0.39722 0.14166 0.35682 0.0
H1867 H 0.36921 0.13487 0.40014 0.0
H1868 H 0.46429 0.16135 0.51442 0.0
H1869 H 0.38495 0.14643 0.5792 0.0
H1870 H 0.46989 0.20273 0.42384 0.0
H1871 H 0.44675 0.17132 0.38824 0.0
H1872 H 0.47365 0.17127 0.42834 0.0
H1873 H 0.36819 0.18292 0.51149 0.0
H1874 H 0.34751 0.14555 0.52835 0.0
H1875 H 0.35398 0.15598 0.46401 0.0
C1876 C 0.76038 0.18888 0.40003 0.0
C1877 C 0.77027 0.18967 0.3518 0.0
C1878 C 0.77971 0.20404 0.43834 0.0
C1879 C 0.80961 0.2204 0.42802 0.0
C1880 C 0.81994 0.21851 0.38094 0.0
C1881 C 0.80013 0.20289 0.34344 0.0
C1882 C 0.76787 0.20457 0.48877 0.0
C1883 C 0.85159 0.2352 0.36848 0.0
C1884 C 0.84035 0.28445 0.51295 0.0
C1885 C 0.84761 0.27312 0.5534 0.0
C1886 C 0.83102 0.26882 0.46859 0.0
C1887 C 0.82912 0.24152 0.46528 0.0
C1888 C 0.84093 0.23249 0.50318 0.0
C1889 C 0.85023 0.24858 0.54691 0.0
C1890 C 0.81971 0.27975 0.42793 0.0
C1891 C 0.84013 0.204 0.50064 0.0
H1892 H 0.73743 0.17837 0.40707 0.0
H1893 H 0.80816 0.20344 0.30644 0.0
H1894 H 0.7797 0.20024 0.51802 0.0
H1895 H 0.77081 0.22627 0.49581 0.0
H1896 H 0.74458 0.18849 0.49205 0.0
H1897 H 0.85671 0.22556 0.33645 0.0
H1898 H 0.85756 0.25757 0.35851 0.0
H1899 H 0.86511 0.2363 0.40038 0.0
H1900 H 0.83849 0.30353 0.51782 0.0
H1901 H 0.85633 0.24008 0.57814 0.0
H1902 H 0.79582 0.26764 0.42865 0.0
H1903 H 0.82665 0.27627 0.39119 0.0
H1904 H 0.82711 0.30303 0.43234 0.0
H1905 H 0.81831 0.18652 0.51111 0.0
H1906 H 0.85592 0.20338 0.52647 0.0
H1907 H 0.84461 0.1995 0.46263 0.0
loop_
_geom_bond_atom_site_label_1
_geom_bond_atom_site_label_2
_geom_bond_distance
_geom_bond_site_symmetry_2
_ccdc_geom_bond_type
C0 O12 1.241 . S
C0 O13 1.280 . S
C1 O14 1.276 1_554 S
C1 O15 1.255 . S
C2 O26 1.247 . S
C2 O28 1.289 . S
Mg3 O4 1.926 . S
Mg3 O13 1.984 . S
Mg3 O15 1.988 . S
Mg3 O16 2.061 . S
O4 Mg3 1.926 . S
O4 Mg5 1.986 . S
O4 Mg6 1.917 . S
Mg5 O4 1.986 . S
Mg5 O12 2.042 . S
Mg5 O14 2.041 1_554 S
Mg5 O20 2.038 . S
Mg5 O28 2.238 . S
Mg6 O4 1.917 . S
Mg6 O7 1.917 . S
Mg6 O17 2.106 . S
Mg6 O19 2.079 . S
Mg6 O28 2.106 . S
Mg6 O29 2.079 . S
O7 Mg6 1.917 . S
O7 Mg8 1.926 . S
O7 Mg9 1.986 . S
Mg8 O7 1.926 . S
Mg8 O22 1.984 . S
Mg8 O25 1.988 . S
Mg8 O26 2.061 . S
Mg9 O7 1.986 . S
Mg9 O17 2.238 . S
Mg9 O21 2.042 . S
Mg9 O23 2.041 . S
Mg9 O30 2.038 . S
C10 O16 1.247 . S
C10 O17 1.289 . S
C11 O29 1.245 . S
C11 O30 1.274 . S
O12 C0 1.241 . S
O12 Mg5 2.042 . S
O13 C0 1.280 . S
O13 Mg3 1.984 . S
O14 C1 1.276 1_556 S
O14 Mg5 2.041 1_556 S
O15 C1 1.255 . S
O15 Mg3 1.988 . S
O16 Mg3 2.061 . S
O16 C10 1.247 . S
O17 Mg6 2.106 . S
O17 Mg9 2.238 . S
O17 C10 1.289 . S
C18 O19 1.245 . S
C18 O20 1.274 . S
O19 Mg6 2.079 . S
O19 C18 1.245 . S
O20 Mg5 2.038 . S
O20 C18 1.274 . S
O21 Mg9 2.042 . S
O21 C24 1.241 . S
O22 Mg8 1.984 . S
O22 C24 1.280 . S
O23 Mg9 2.041 . S
O23 C27 1.277 . S
C24 O21 1.241 . S
C24 O22 1.280 . S
O25 Mg8 1.988 . S
O25 C27 1.245 . S
O26 C2 1.247 . S
O26 Mg8 2.061 . S
C27 O23 1.277 . S
C27 O25 1.245 . S
O28 C2 1.289 . S
O28 Mg5 2.238 . S
O28 Mg6 2.106 . S
O29 Mg6 2.079 . S
O29 C11 1.245 . S
O30 Mg9 2.038 . S
O30 C11 1.274 . S
C31 O43 1.241 . S
C31 O44 1.280 . S
C32 O45 1.276 1_554 S
C32 O46 1.255 . S
C33 O57 1.247 . S
C33 O59 1.289 . S
Mg34 O35 1.926 . S
Mg34 O44 1.984 . S
Mg34 O46 1.988 . S
Mg34 O47 2.061 . S
O35 Mg34 1.926 . S
O35 Mg36 1.986 . S
O35 Mg37 1.917 . S
Mg36 O35 1.986 . S
Mg36 O43 2.042 . S
Mg36 O45 2.041 1_554 S
Mg36 O51 2.038 . S
Mg36 O59 2.238 . S
Mg37 O35 1.917 . S
Mg37 O38 1.917 . S
Mg37 O48 2.106 . S
Mg37 O50 2.079 . S
Mg37 O59 2.106 . S
Mg37 O60 2.079 . S
O38 Mg37 1.917 . S
O38 Mg39 1.926 . S
O38 Mg40 1.986 . S
Mg39 O38 1.926 . S
Mg39 O53 1.984 . S
Mg39 O56 1.988 . S
Mg39 O57 2.061 . S
Mg40 O38 1.986 . S
Mg40 O48 2.238 . S
Mg40 O52 2.042 . S
Mg40 O54 2.041 . S
Mg40 O61 2.038 . S
C41 O47 1.247 . S
C41 O48 1.289 . S
C42 O60 1.245 . S
C42 O61 1.274 . S
O43 C31 1.241 . S
O43 Mg36 2.042 . S
O44 C31 1.280 . S
O44 Mg34 1.984 . S
O45 C32 1.276 1_556 S
O45 Mg36 2.041 1_556 S
O46 C32 1.255 . S
O46 Mg34 1.988 . S
O47 Mg34 2.061 . S
O47 C41 1.247 . S
O48 Mg37 2.106 . S
O48 Mg40 2.238 . S
O48 C41 1.289 . S
C49 O50 1.245 . S
C49 O51 1.274 . S
O50 Mg37 2.079 . S
O50 C49 1.245 . S
O51 Mg36 2.038 . S
O51 C49 1.274 . S
O52 Mg40 2.042 . S
O52 C55 1.241 . S
O53 Mg39 1.984 . S
O53 C55 1.280 . S
O54 Mg40 2.041 . S
O54 C58 1.277 . S
C55 O52 1.241 . S
C55 O53 1.280 . S
O56 Mg39 1.988 . S
O56 C58 1.245 . S
O57 C33 1.247 . S
O57 Mg39 2.061 . S
C58 O54 1.277 . S
C58 O56 1.245 . S
O59 C33 1.289 . S
O59 Mg36 2.238 . S
O59 Mg37 2.106 . S
O60 Mg37 2.079 . S
O60 C42 1.245 . S
O61 Mg40 2.038 . S
O61 C42 1.274 . S
C62 O74 1.241 . S
C62 O75 1.280 . S
C63 O76 1.276 1_554 S
C63 O77 1.255 . S
C64 O88 1.247 . S
C64 O90 1.289 . S
Mg65 O66 1.926 . S
Mg65 O75 1.984 . S
Mg65 O77 1.988 . S
Mg65 O78 2.061 . S
O66 Mg65 1.926 . S
O66 Mg67 1.986 . S
O66 Mg68 1.917 . S
Mg67 O66 1.986 . S
Mg67 O74 2.042 . S
Mg67 O76 2.041 1_554 S
Mg67 O82 2.038 . S
Mg67 O90 2.238 . S
Mg68 O66 1.917 . S
Mg68 O69 1.917 . S
Mg68 O79 2.106 . S
Mg68 O81 2.079 . S
Mg68 O90 2.106 . S
Mg68 O91 2.079 . S
O69 Mg68 1.917 . S
O69 Mg70 1.926 . S
O69 Mg71 1.986 . S
Mg70 O69 1.926 . S
Mg70 O84 1.984 . S
Mg70 O87 1.988 . S
Mg70 O88 2.061 . S
Mg71 O69 1.986 . S
Mg71 O79 2.238 . S
Mg71 O83 2.042 . S
Mg71 O85 2.041 . S
Mg71 O92 2.038 . S
C72 O78 1.247 . S
C72 O79 1.289 . S
C73 O91 1.245 . S
C73 O92 1.274 . S
O74 C62 1.241 . S
O74 Mg67 2.042 . S
O75 C62 1.280 . S
O75 Mg65 1.984 . S
O76 C63 1.276 1_556 S
O76 Mg67 2.041 1_556 S
O77 C63 1.255 . S
O77 Mg65 1.988 . S
O78 Mg65 2.061 . S
O78 C72 1.247 . S
O79 Mg68 2.106 . S
O79 Mg71 2.238 . S
O79 C72 1.289 . S
C80 O81 1.245 . S
C80 O82 1.274 . S
O81 Mg68 2.079 . S
O81 C80 1.245 . S
O82 Mg67 2.038 . S
O82 C80 1.274 . S
O83 Mg71 2.042 . S
O83 C86 1.241 . S
O84 Mg70 1.984 . S
O84 C86 1.280 . S
O85 Mg71 2.041 . S
O85 C89 1.277 . S
C86 O83 1.241 . S
C86 O84 1.280 . S
O87 Mg70 1.988 . S
O87 C89 1.245 . S
O88 C64 1.247 . S
O88 Mg70 2.061 . S
C89 O85 1.277 . S
C89 O87 1.245 . S
O90 C64 1.289 . S
O90 Mg67 2.238 . S
O90 Mg68 2.106 . S
O91 Mg68 2.079 . S
O91 C73 1.245 . S
O92 Mg71 2.038 . S
O92 C73 1.274 . S
C93 O105 1.241 . S
C93 O106 1.280 . S
C94 O107 1.277 . S
C94 O108 1.245 . S
C95 O119 1.247 . S
C95 O121 1.289 . S
Mg96 O97 1.926 . S
Mg96 O106 1.984 . S
Mg96 O108 1.988 . S
Mg96 O109 2.061 . S
O97 Mg96 1.926 . S
O97 Mg98 1.986 . S
O97 Mg99 1.917 . S
Mg98 O97 1.986 . S
Mg98 O105 2.042 . S
Mg98 O107 2.041 . S
Mg98 O113 2.038 . S
Mg98 O121 2.238 . S
Mg99 O97 1.917 . S
Mg99 O100 1.917 . S
Mg99 O110 2.106 . S
Mg99 O112 2.079 . S
Mg99 O121 2.106 . S
Mg99 O122 2.079 . S
O100 Mg99 1.917 . S
O100 Mg101 1.926 . S
O100 Mg102 1.986 . S
Mg101 O100 1.926 . S
Mg101 O115 1.984 . S
Mg101 O118 1.988 . S
Mg101 O119 2.061 . S
Mg102 O100 1.986 . S
Mg102 O110 2.238 . S
Mg102 O114 2.042 . S
Mg102 O116 2.041 . S
Mg102 O123 2.038 . S
C103 O109 1.247 . S
C103 O110 1.289 . S
C104 O122 1.245 . S
C104 O123 1.274 . S
O105 C93 1.241 . S
O105 Mg98 2.042 . S
O106 C93 1.280 . S
O106 Mg96 1.984 . S
O107 C94 1.277 . S
O107 Mg98 2.041 . S
O108 C94 1.245 . S
O108 Mg96 1.988 . S
O109 Mg96 2.061 . S
O109 C103 1.247 . S
O110 Mg99 2.106 . S
O110 Mg102 2.238 . S
O110 C103 1.289 . S
C111 O112 1.245 . S
C111 O113 1.274 . S
O112 Mg99 2.079 . S
O112 C111 1.245 . S
O113 Mg98 2.038 . S
O113 C111 1.274 . S
O114 Mg102 2.042 . S
O114 C117 1.241 . S
O115 Mg101 1.984 . S
O115 C117 1.280 . S
O116 Mg102 2.041 . S
O116 C120 1.277 . S
C117 O114 1.241 . S
C117 O115 1.280 . S
O118 Mg101 1.988 . S
O118 C120 1.245 . S
O119 C95 1.247 . S
O119 Mg101 2.061 . S
C120 O116 1.277 . S
C120 O118 1.245 . S
O121 C95 1.289 . S
O121 Mg98 2.238 . S
O121 Mg99 2.106 . S
O122 Mg99 2.079 . S
O122 C104 1.245 . S
O123 Mg102 2.038 . S
O123 C104 1.274 . S
C124 O136 1.241 . S
C124 O137 1.280 . S
C125 O138 1.277 . S
C125 O139 1.245 . S
C126 O150 1.247 . S
C126 O152 1.289 . S
Mg127 O128 1.926 . S
Mg127 O137 1.984 . S
Mg127 O139 1.988 . S
Mg127 O140 2.061 . S
O128 Mg127 1.926 . S
O128 Mg129 1.986 . S
O128 Mg130 1.917 . S
Mg129 O128 1.986 . S
Mg129 O136 2.042 . S
Mg129 O138 2.041 . S
Mg129 O144 2.038 . S
Mg129 O152 2.238 . S
Mg130 O128 1.917 . S
Mg130 O131 1.917 . S
Mg130 O141 2.106 . S
Mg130 O143 2.079 . S
Mg130 O152 2.106 . S
Mg130 O153 2.079 . S
O131 Mg130 1.917 . S
O131 Mg132 1.926 . S
O131 Mg133 1.986 . S
Mg132 O131 1.926 . S
Mg132 O146 1.984 . S
Mg132 O149 1.988 . S
Mg132 O150 2.061 . S
Mg133 O131 1.986 . S
Mg133 O141 2.238 . S
Mg133 O145 2.042 . S
Mg133 O147 2.041 . S
Mg133 O154 2.038 . S
C134 O140 1.247 . S
C134 O141 1.289 . S
C135 O153 1.245 . S
C135 O154 1.274 . S
O136 C124 1.241 . S
O136 Mg129 2.042 . S
O137 C124 1.280 . S
O137 Mg127 1.984 . S
O138 C125 1.277 . S
O138 Mg129 2.041 . S
O139 C125 1.245 . S
O139 Mg127 1.988 . S
O140 Mg127 2.061 . S
O140 C134 1.247 . S
O141 Mg130 2.106 . S
O141 Mg133 2.238 . S
O141 C134 1.289 . S
C142 O143 1.245 . S
C142 O144 1.274 . S
O143 Mg130 2.079 . S
O143 C142 1.245 . S
O144 Mg129 2.038 . S
O144 C142 1.274 . S
O145 Mg133 2.042 . S
O145 C148 1.241 . S
O146 Mg132 1.984 . S
O146 C148 1.280 . S
O147 Mg133 2.041 . S
O147 C151 1.277 . S
C148 O145 1.241 . S
C148 O146 1.280 . S
O149 Mg132 1.988 . S
O149 C151 1.245 . S
O150 C126 1.247 . S
O150 Mg132 2.061 . S
C151 O147 1.277 . S
C151 O149 1.245 . S
O152 C126 1.289 . S
O152 Mg129 2.238 . S
O152 Mg130 2.106 . S
O153 Mg130 2.079 . S
O153 C135 1.245 . S
O154 Mg133 2.038 . S
O154 C135 1.274 . S
C155 O167 1.241 . S
C155 O168 1.280 . S
C156 O169 1.277 . S
C156 O170 1.245 . S
C157 O181 1.247 . S
C157 O183 1.289 . S
Mg158 O159 1.926 . S
Mg158 O168 1.984 . S
Mg158 O170 1.988 . S
Mg158 O171 2.061 . S
O159 Mg158 1.926 . S
O159 Mg160 1.986 . S
O159 Mg161 1.917 . S
Mg160 O159 1.986 . S
Mg160 O167 2.042 . S
Mg160 O169 2.041 . S
Mg160 O175 2.038 . S
Mg160 O183 2.238 . S
Mg161 O159 1.917 . S
Mg161 O162 1.917 . S
Mg161 O172 2.106 . S
Mg161 O174 2.079 . S
Mg161 O183 2.106 . S
Mg161 O184 2.079 . S
O162 Mg161 1.917 . S
O162 Mg163 1.926 . S
O162 Mg164 1.986 . S
Mg163 O162 1.926 . S
Mg163 O177 1.984 . S
Mg163 O180 1.988 . S
Mg163 O181 2.061 . S
Mg164 O162 1.986 . S
Mg164 O172 2.238 . S
Mg164 O176 2.042 . S
Mg164 O178 2.041 . S
Mg164 O185 2.038 . S
C165 O171 1.247 . S
C165 O172 1.289 . S
C166 O184 1.245 . S
C166 O185 1.274 . S
O167 C155 1.241 . S
O167 Mg160 2.042 . S
O168 C155 1.280 . S
O168 Mg158 1.984 . S
O169 C156 1.277 . S
O169 Mg160 2.041 . S
O170 C156 1.245 . S
O170 Mg158 1.988 . S
O171 Mg158 2.061 . S
O171 C165 1.247 . S
O172 Mg161 2.106 . S
O172 Mg164 2.238 . S
O172 C165 1.289 . S
C173 O174 1.245 . S
C173 O175 1.274 . S
O174 Mg161 2.079 . S
O174 C173 1.245 . S
O175 Mg160 2.038 . S
O175 C173 1.274 . S
O176 Mg164 2.042 . S
O176 C179 1.241 . S
O177 Mg163 1.984 . S
O177 C179 1.280 . S
O178 Mg164 2.041 . S
O178 C182 1.277 . S
C179 O176 1.241 . S
C179 O177 1.280 . S
O180 Mg163 1.988 . S
O180 C182 1.245 . S
O181 C157 1.247 . S
O181 Mg163 2.061 . S
C182 O178 1.277 . S
C182 O180 1.245 . S
O183 C157 1.289 . S
O183 Mg160 2.238 . S
O183 Mg161 2.106 . S
O184 Mg161 2.079 . S
O184 C166 1.245 . S
O185 Mg164 2.038 . S
O185 C166 1.274 . S
C186 O198 1.241 . S
C186 O199 1.280 . S
C187 O200 1.277 . S
C187 O201 1.245 . S
C188 O212 1.247 . S
C188 O214 1.289 . S
Mg189 O190 1.926 . S
Mg189 O199 1.984 . S
Mg189 O201 1.988 . S
Mg189 O202 2.061 . S
O190 Mg189 1.926 . S
O190 Mg191 1.986 . S
O190 Mg192 1.917 . S
Mg191 O190 1.986 . S
Mg191 O198 2.042 . S
Mg191 O200 2.041 . S
Mg191 O206 2.038 . S
Mg191 O214 2.238 . S
Mg192 O190 1.917 . S
Mg192 O193 1.917 . S
Mg192 O203 2.106 . S
Mg192 O205 2.079 . S
Mg192 O214 2.106 . S
Mg192 O215 2.079 . S
O193 Mg192 1.917 . S
O193 Mg194 1.926 . S
O193 Mg195 1.986 . S
Mg194 O193 1.926 . S
Mg194 O208 1.984 . S
Mg194 O211 1.988 . S
Mg194 O212 2.061 . S
Mg195 O193 1.986 . S
Mg195 O203 2.238 . S
Mg195 O207 2.042 . S
Mg195 O209 2.041 1_556 S
Mg195 O216 2.038 . S
C196 O202 1.247 . S
C196 O203 1.289 . S
C197 O215 1.245 . S
C197 O216 1.274 . S
O198 C186 1.241 . S
O198 Mg191 2.042 . S
O199 C186 1.280 . S
O199 Mg189 1.984 . S
O200 C187 1.277 . S
O200 Mg191 2.041 . S
O201 C187 1.245 . S
O201 Mg189 1.988 . S
O202 Mg189 2.061 . S
O202 C196 1.247 . S
O203 Mg192 2.106 . S
O203 Mg195 2.238 . S
O203 C196 1.289 . S
C204 O205 1.245 . S
C204 O206 1.274 . S
O205 Mg192 2.079 . S
O205 C204 1.245 . S
O206 Mg191 2.038 . S
O206 C204 1.274 . S
O207 Mg195 2.042 . S
O207 C210 1.241 . S
O208 Mg194 1.984 . S
O208 C210 1.280 . S
O209 Mg195 2.041 1_554 S
O209 C213 1.276 1_554 S
C210 O207 1.241 . S
C210 O208 1.280 . S
O211 Mg194 1.988 . S
O211 C213 1.255 . S
O212 C188 1.247 . S
O212 Mg194 2.061 . S
C213 O209 1.276 1_556 S
C213 O211 1.255 . S
O214 C188 1.289 . S
O214 Mg191 2.238 . S
O214 Mg192 2.106 . S
O215 Mg192 2.079 . S
O215 C197 1.245 . S
O216 Mg195 2.038 . S
O216 C197 1.274 . S
C217 O229 1.241 . S
C217 O230 1.280 . S
C218 O231 1.277 . S
C218 O232 1.245 . S
C219 O243 1.247 . S
C219 O245 1.289 . S
Mg220 O221 1.926 . S
Mg220 O230 1.984 . S
Mg220 O232 1.988 . S
Mg220 O233 2.061 . S
O221 Mg220 1.926 . S
O221 Mg222 1.986 . S
O221 Mg223 1.917 . S
Mg222 O221 1.986 . S
Mg222 O229 2.042 . S
Mg222 O231 2.041 . S
Mg222 O237 2.038 . S
Mg222 O245 2.238 . S
Mg223 O221 1.917 . S
Mg223 O224 1.917 . S
Mg223 O234 2.106 . S
Mg223 O236 2.079 . S
Mg223 O245 2.106 . S
Mg223 O246 2.079 . S
O224 Mg223 1.917 . S
O224 Mg225 1.926 . S
O224 Mg226 1.986 . S
Mg225 O224 1.926 . S
Mg225 O239 1.984 . S
Mg225 O242 1.988 . S
Mg225 O243 2.061 . S
Mg226 O224 1.986 . S
Mg226 O234 2.238 . S
Mg226 O238 2.042 . S
Mg226 O240 2.041 1_556 S
Mg226 O247 2.038 . S
C227 O233 1.247 . S
C227 O234 1.289 . S
C228 O246 1.245 . S
C228 O247 1.274 . S
O229 C217 1.241 . S
O229 Mg222 2.042 . S
O230 C217 1.280 . S
O230 Mg220 1.984 . S
O231 C218 1.277 . S
O231 Mg222 2.041 . S
O232 C218 1.245 . S
O232 Mg220 1.988 . S
O233 Mg220 2.061 . S
O233 C227 1.247 . S
O234 Mg223 2.106 . S
O234 Mg226 2.238 . S
O234 C227 1.289 . S
C235 O236 1.245 . S
C235 O237 1.274 . S
O236 Mg223 2.079 . S
O236 C235 1.245 . S
O237 Mg222 2.038 . S
O237 C235 1.274 . S
O238 Mg226 2.042 . S
O238 C241 1.241 . S
O239 Mg225 1.984 . S
O239 C241 1.280 . S
O240 Mg226 2.041 1_554 S
O240 C244 1.276 1_554 S
C241 O238 1.241 . S
C241 O239 1.280 . S
O242 Mg225 1.988 . S
O242 C244 1.255 . S
O243 C219 1.247 . S
O243 Mg225 2.061 . S
C244 O240 1.276 1_556 S
C244 O242 1.255 . S
O245 C219 1.289 . S
O245 Mg222 2.238 . S
O245 Mg223 2.106 . S
O246 Mg223 2.079 . S
O246 C228 1.245 . S
O247 Mg226 2.038 . S
O247 C228 1.274 . S
C248 O260 1.241 . S
C248 O261 1.280 . S
C249 O262 1.277 . S
C249 O263 1.245 . S
C250 O274 1.247 . S
C250 O276 1.289 . S
Mg251 O252 1.926 . S
Mg251 O261 1.984 . S
Mg251 O263 1.988 . S
Mg251 O264 2.061 . S
O252 Mg251 1.926 . S
O252 Mg253 1.986 . S
O252 Mg254 1.917 . S
Mg253 O252 1.986 . S
Mg253 O260 2.042 . S
Mg253 O262 2.041 . S
Mg253 O268 2.038 . S
Mg253 O276 2.238 . S
Mg254 O252 1.917 . S
Mg254 O255 1.917 . S
Mg254 O265 2.106 . S
Mg254 O267 2.079 . S
Mg254 O276 2.106 . S
Mg254 O277 2.079 . S
O255 Mg254 1.917 . S
O255 Mg256 1.926 . S
O255 Mg257 1.986 . S
Mg256 O255 1.926 . S
Mg256 O270 1.984 . S
Mg256 O273 1.988 . S
Mg256 O274 2.061 . S
Mg257 O255 1.986 . S
Mg257 O265 2.238 . S
Mg257 O269 2.042 . S
Mg257 O271 2.041 1_556 S
Mg257 O278 2.038 . S
C258 O264 1.247 . S
C258 O265 1.289 . S
C259 O277 1.245 . S
C259 O278 1.274 . S
O260 C248 1.241 . S
O260 Mg253 2.042 . S
O261 C248 1.280 . S
O261 Mg251 1.984 . S
O262 C249 1.277 . S
O262 Mg253 2.041 . S
O263 C249 1.245 . S
O263 Mg251 1.988 . S
O264 Mg251 2.061 . S
O264 C258 1.247 . S
O265 Mg254 2.106 . S
O265 Mg257 2.238 . S
O265 C258 1.289 . S
C266 O267 1.245 . S
C266 O268 1.274 . S
O267 Mg254 2.079 . S
O267 C266 1.245 . S
O268 Mg253 2.038 . S
O268 C266 1.274 . S
O269 Mg257 2.042 . S
O269 C272 1.241 . S
O270 Mg256 1.984 . S
O270 C272 1.280 . S
O271 Mg257 2.041 1_554 S
O271 C275 1.276 1_554 S
C272 O269 1.241 . S
C272 O270 1.280 . S
O273 Mg256 1.988 . S
O273 C275 1.255 . S
O274 C250 1.247 . S
O274 Mg256 2.061 . S
C275 O271 1.276 1_556 S
C275 O273 1.255 . S
O276 C250 1.289 . S
O276 Mg253 2.238 . S
O276 Mg254 2.106 . S
O277 Mg254 2.079 . S
O277 C259 1.245 . S
O278 Mg257 2.038 . S
O278 C259 1.274 . S
C279 O291 1.241 . S
C279 O292 1.280 . S
C280 O293 1.277 . S
C280 O294 1.245 . S
C281 O305 1.247 . S
C281 O307 1.289 . S
Mg282 O283 1.926 . S
Mg282 O292 1.984 . S
Mg282 O294 1.988 . S
Mg282 O295 2.061 . S
O283 Mg282 1.926 . S
O283 Mg284 1.986 . S
O283 Mg285 1.917 . S
Mg284 O283 1.986 . S
Mg284 O291 2.042 . S
Mg284 O293 2.041 . S
Mg284 O299 2.038 . S
Mg284 O307 2.238 . S
Mg285 O283 1.917 . S
Mg285 O286 1.917 . S
Mg285 O296 2.106 . S
Mg285 O298 2.079 . S
Mg285 O307 2.106 . S
Mg285 O308 2.079 . S
O286 Mg285 1.917 . S
O286 Mg287 1.926 . S
O286 Mg288 1.986 . S
Mg287 O286 1.926 . S
Mg287 O301 1.984 . S
Mg287 O304 1.988 . S
Mg287 O305 2.061 . S
Mg288 O286 1.986 . S
Mg288 O296 2.238 . S
Mg288 O300 2.042 . S
Mg288 O302 2.041 . S
Mg288 O309 2.038 . S
C289 O295 1.247 . S
C289 O296 1.289 . S
C290 O308 1.245 . S
C290 O309 1.274 . S
O291 C279 1.241 . S
O291 Mg284 2.042 . S
O292 C279 1.280 . S
O292 Mg282 1.984 . S
O293 C280 1.277 . S
O293 Mg284 2.041 . S
O294 C280 1.245 . S
O294 Mg282 1.988 . S
O295 Mg282 2.061 . S
O295 C289 1.247 . S
O296 Mg285 2.106 . S
O296 Mg288 2.238 . S
O296 C289 1.289 . S
C297 O298 1.245 . S
C297 O299 1.274 . S
O298 Mg285 2.079 . S
O298 C297 1.245 . S
O299 Mg284 2.038 . S
O299 C297 1.274 . S
O300 Mg288 2.042 . S
O300 C303 1.241 . S
O301 Mg287 1.984 . S
O301 C303 1.280 . S
O302 Mg288 2.041 . S
O302 C306 1.277 . S
C303 O300 1.241 . S
C303 O301 1.280 . S
O304 Mg287 1.988 . S
O304 C306 1.245 . S
O305 C281 1.247 . S
O305 Mg287 2.061 . S
C306 O302 1.277 . S
C306 O304 1.245 . S
O307 C281 1.289 . S
O307 Mg284 2.238 . S
O307 Mg285 2.106 . S
O308 Mg285 2.079 . S
O308 C290 1.245 . S
O309 Mg288 2.038 . S
O309 C290 1.274 . S
C310 O322 1.241 . S
C310 O323 1.280 . S
C311 O324 1.277 . S
C311 O325 1.245 . S
C312 O336 1.247 . S
C312 O338 1.289 . S
Mg313 O314 1.926 . S
Mg313 O323 1.984 . S
Mg313 O325 1.988 . S
Mg313 O326 2.061 . S
O314 Mg313 1.926 . S
O314 Mg315 1.986 . S
O314 Mg316 1.917 . S
Mg315 O314 1.986 . S
Mg315 O322 2.042 . S
Mg315 O324 2.041 . S
Mg315 O330 2.038 . S
Mg315 O338 2.238 . S
Mg316 O314 1.917 . S
Mg316 O317 1.917 . S
Mg316 O327 2.106 . S
Mg316 O329 2.079 . S
Mg316 O338 2.106 . S
Mg316 O339 2.079 . S
O317 Mg316 1.917 . S
O317 Mg318 1.926 . S
O317 Mg319 1.986 . S
Mg318 O317 1.926 . S
Mg318 O332 1.984 . S
Mg318 O335 1.988 . S
Mg318 O336 2.061 . S
Mg319 O317 1.986 . S
Mg319 O327 2.238 . S
Mg319 O331 2.042 . S
Mg319 O333 2.041 . S
Mg319 O340 2.038 . S
C320 O326 1.247 . S
C320 O327 1.289 . S
C321 O339 1.245 . S
C321 O340 1.274 . S
O322 C310 1.241 . S
O322 Mg315 2.042 . S
O323 C310 1.280 . S
O323 Mg313 1.984 . S
O324 C311 1.277 . S
O324 Mg315 2.041 . S
O325 C311 1.245 . S
O325 Mg313 1.988 . S
O326 Mg313 2.061 . S
O326 C320 1.247 . S
O327 Mg316 2.106 . S
O327 Mg319 2.238 . S
O327 C320 1.289 . S
C328 O329 1.245 . S
C328 O330 1.274 . S
O329 Mg316 2.079 . S
O329 C328 1.245 . S
O330 Mg315 2.038 . S
O330 C328 1.274 . S
O331 Mg319 2.042 . S
O331 C334 1.241 . S
O332 Mg318 1.984 . S
O332 C334 1.280 . S
O333 Mg319 2.041 . S
O333 C337 1.277 . S
C334 O331 1.241 . S
C334 O332 1.280 . S
O335 Mg318 1.988 . S
O335 C337 1.245 . S
O336 C312 1.247 . S
O336 Mg318 2.061 . S
C337 O333 1.277 . S
C337 O335 1.245 . S
O338 C312 1.289 . S
O338 Mg315 2.238 . S
O338 Mg316 2.106 . S
O339 Mg316 2.079 . S
O339 C321 1.245 . S
O340 Mg319 2.038 . S
O340 C321 1.274 . S
C341 O353 1.241 . S
C341 O354 1.280 . S
C342 O355 1.277 . S
C342 O356 1.245 . S
C343 O367 1.247 . S
C343 O369 1.289 . S
Mg344 O345 1.926 . S
Mg344 O354 1.984 . S
Mg344 O356 1.988 . S
Mg344 O357 2.061 . S
O345 Mg344 1.926 . S
O345 Mg346 1.986 . S
O345 Mg347 1.917 . S
Mg346 O345 1.986 . S
Mg346 O353 2.042 . S
Mg346 O355 2.041 . S
Mg346 O361 2.038 . S
Mg346 O369 2.238 . S
Mg347 O345 1.917 . S
Mg347 O348 1.917 . S
Mg347 O358 2.106 . S
Mg347 O360 2.079 . S
Mg347 O369 2.106 . S
Mg347 O370 2.079 . S
O348 Mg347 1.917 . S
O348 Mg349 1.926 . S
O348 Mg350 1.986 . S
Mg349 O348 1.926 . S
Mg349 O363 1.984 . S
Mg349 O366 1.988 . S
Mg349 O367 2.061 . S
Mg350 O348 1.986 . S
Mg350 O358 2.238 . S
Mg350 O362 2.042 . S
Mg350 O364 2.041 . S
Mg350 O371 2.038 . S
C351 O357 1.247 . S
C351 O358 1.289 . S
C352 O370 1.245 . S
C352 O371 1.274 . S
O353 C341 1.241 . S
O353 Mg346 2.042 . S
O354 C341 1.280 . S
O354 Mg344 1.984 . S
O355 C342 1.277 . S
O355 Mg346 2.041 . S
O356 C342 1.245 . S
O356 Mg344 1.988 . S
O357 Mg344 2.061 . S
O357 C351 1.247 . S
O358 Mg347 2.106 . S
O358 Mg350 2.238 . S
O358 C351 1.289 . S
C359 O360 1.245 . S
C359 O361 1.274 . S
O360 Mg347 2.079 . S
O360 C359 1.245 . S
O361 Mg346 2.038 . S
O361 C359 1.274 . S
O362 Mg350 2.042 . S
O362 C365 1.241 . S
O363 Mg349 1.984 . S
O363 C365 1.280 . S
O364 Mg350 2.041 . S
O364 C368 1.277 . S
C365 O362 1.241 . S
C365 O363 1.280 . S
O366 Mg349 1.988 . S
O366 C368 1.245 . S
O367 C343 1.247 . S
O367 Mg349 2.061 . S
C368 O364 1.277 . S
C368 O366 1.245 . S
O369 C343 1.289 . S
O369 Mg346 2.238 . S
O369 Mg347 2.106 . S
O370 Mg347 2.079 . S
O370 C352 1.245 . S
O371 Mg350 2.038 . S
O371 C352 1.274 . S
C372 C373 1.391 . S
C372 C374 1.394 . S
C372 H388 0.931 . S
C373 C372 1.391 . S
C373 C377 1.376 . S
C374 C372 1.394 . S
C374 C375 1.369 . S
C374 C378 1.531 . S
C375 C374 1.369 . S
C375 C376 1.410 . S
C375 C383 1.503 . S
C376 C375 1.410 . S
C376 C377 1.392 . S
C376 C379 1.511 . S
C377 C373 1.376 . S
C377 C376 1.392 . S
C377 H389 0.929 . S
C378 C374 1.531 . S
C378 H390 0.960 . S
C378 H391 0.962 . S
C378 H392 0.960 . S
C379 C376 1.511 . S
C379 H393 0.961 . S
C379 H394 0.961 . S
C379 H395 0.961 . S
C380 C381 1.370 . S
C380 C382 1.363 . S
C380 H396 0.931 . S
C381 C380 1.370 . S
C381 C385 1.408 . S
C382 C380 1.363 . S
C382 C383 1.370 . S
C382 C386 1.524 . S
C383 C375 1.503 . S
C383 C382 1.370 . S
C383 C384 1.403 . S
C384 C383 1.403 . S
C384 C385 1.404 . S
C384 C387 1.539 . S
C385 C381 1.408 . S
C385 C384 1.404 . S
C385 H397 0.930 . S
C386 C382 1.524 . S
C386 H398 0.956 . S
C386 H399 0.961 . S
C386 H400 0.961 . S
C387 C384 1.539 . S
C387 H401 0.958 . S
C387 H402 0.961 . S
C387 H403 0.960 . S
H388 C372 0.931 . S
H389 C377 0.929 . S
H390 C378 0.960 . S
H391 C378 0.962 . S
H392 C378 0.960 . S
H393 C379 0.961 . S
H394 C379 0.961 . S
H395 C379 0.961 . S
H396 C380 0.931 . S
H397 C385 0.930 . S
H398 C386 0.956 . S
H399 C386 0.961 . S
H400 C386 0.961 . S
H401 C387 0.958 . S
H402 C387 0.961 . S
H403 C387 0.960 . S
C404 C405 1.391 . S
C404 C406 1.394 . S
C404 H420 0.931 . S
C405 C404 1.391 . S
C405 C409 1.376 . S
C406 C404 1.394 . S
C406 C407 1.369 . S
C406 C410 1.531 . S
C407 C406 1.369 . S
C407 C408 1.410 . S
C407 C415 1.503 . S
C408 C407 1.410 . S
C408 C409 1.392 . S
C408 C411 1.511 . S
C409 C405 1.376 . S
C409 C408 1.392 . S
C409 H421 0.929 . S
C410 C406 1.531 . S
C410 H422 0.960 . S
C410 H423 0.962 . S
C410 H424 0.960 . S
C411 C408 1.511 . S
C411 H425 0.961 . S
C411 H426 0.961 . S
C411 H427 0.961 . S
C412 C413 1.370 . S
C412 C414 1.363 . S
C412 H428 0.931 . S
C413 C412 1.370 . S
C413 C417 1.408 . S
C414 C412 1.363 . S
C414 C415 1.370 . S
C414 C418 1.524 . S
C415 C407 1.503 . S
C415 C414 1.370 . S
C415 C416 1.403 . S
C416 C415 1.403 . S
C416 C417 1.404 . S
C416 C419 1.539 . S
C417 C413 1.408 . S
C417 C416 1.404 . S
C417 H429 0.930 . S
C418 C414 1.524 . S
C418 H430 0.956 . S
C418 H431 0.961 . S
C418 H432 0.961 . S
C419 C416 1.539 . S
C419 H433 0.958 . S
C419 H434 0.961 . S
C419 H435 0.960 . S
H420 C404 0.931 . S
H421 C409 0.929 . S
H422 C410 0.960 . S
H423 C410 0.962 . S
H424 C410 0.960 . S
H425 C411 0.961 . S
H426 C411 0.961 . S
H427 C411 0.961 . S
H428 C412 0.931 . S
H429 C417 0.930 . S
H430 C418 0.956 . S
H431 C418 0.961 . S
H432 C418 0.961 . S
H433 C419 0.958 . S
H434 C419 0.961 . S
H435 C419 0.960 . S
C436 C437 1.391 . S
C436 C438 1.394 . S
C436 H452 0.931 . S
C437 C436 1.391 . S
C437 C441 1.376 . S
C438 C436 1.394 . S
C438 C439 1.369 . S
C438 C442 1.531 . S
C439 C438 1.369 . S
C439 C440 1.410 . S
C439 C447 1.503 . S
C440 C439 1.410 . S
C440 C441 1.392 . S
C440 C443 1.511 . S
C441 C437 1.376 . S
C441 C440 1.392 . S
C441 H453 0.929 . S
C442 C438 1.531 . S
C442 H454 0.960 . S
C442 H455 0.962 . S
C442 H456 0.960 . S
C443 C440 1.511 . S
C443 H457 0.961 . S
C443 H458 0.961 . S
C443 H459 0.961 . S
C444 C445 1.370 . S
C444 C446 1.363 . S
C444 H460 0.931 . S
C445 C444 1.370 . S
C445 C449 1.408 . S
C446 C444 1.363 . S
C446 C447 1.370 . S
C446 C450 1.524 . S
C447 C439 1.503 . S
C447 C446 1.370 . S
C447 C448 1.403 . S
C448 C447 1.403 . S
C448 C449 1.404 . S
C448 C451 1.539 . S
C449 C445 1.408 . S
C449 C448 1.404 . S
C449 H461 0.930 . S
C450 C446 1.524 . S
C450 H462 0.956 . S
C450 H463 0.961 . S
C450 H464 0.961 . S
C451 C448 1.539 . S
C451 H465 0.958 . S
C451 H466 0.961 . S
C451 H467 0.960 . S
H452 C436 0.931 . S
H453 C441 0.929 . S
H454 C442 0.960 . S
H455 C442 0.962 . S
H456 C442 0.960 . S
H457 C443 0.961 . S
H458 C443 0.961 . S
H459 C443 0.961 . S
H460 C444 0.931 . S
H461 C449 0.930 . S
H462 C450 0.956 . S
H463 C450 0.961 . S
H464 C450 0.961 . S
H465 C451 0.958 . S
H466 C451 0.961 . S
H467 C451 0.960 . S
C468 C469 1.391 . S
C468 C470 1.394 . S
C468 H484 0.931 . S
C469 C468 1.391 . S
C469 C473 1.376 . S
C470 C468 1.394 . S
C470 C471 1.369 . S
C470 C474 1.531 . S
C471 C470 1.369 . S
C471 C472 1.410 . S
C471 C479 1.503 . S
C472 C471 1.410 . S
C472 C473 1.392 . S
C472 C475 1.511 . S
C473 C469 1.376 . S
C473 C472 1.392 . S
C473 H485 0.929 . S
C474 C470 1.531 . S
C474 H486 0.960 . S
C474 H487 0.962 . S
C474 H488 0.960 . S
C475 C472 1.511 . S
C475 H489 0.961 . S
C475 H490 0.961 . S
C475 H491 0.961 . S
C476 C477 1.370 . S
C476 C478 1.363 . S
C476 H492 0.931 . S
C477 C476 1.370 . S
C477 C481 1.408 . S
C478 C476 1.363 . S
C478 C479 1.370 . S
C478 C482 1.524 . S
C479 C471 1.503 . S
C479 C478 1.370 . S
C479 C480 1.403 . S
C480 C479 1.403 . S
C480 C481 1.404 . S
C480 C483 1.539 . S
C481 C477 1.408 . S
C481 C480 1.404 . S
C481 H493 0.930 . S
C482 C478 1.524 . S
C482 H494 0.956 . S
C482 H495 0.961 . S
C482 H496 0.961 . S
C483 C480 1.539 . S
C483 H497 0.958 . S
C483 H498 0.961 . S
C483 H499 0.960 . S
H484 C468 0.931 . S
H485 C473 0.929 . S
H486 C474 0.960 . S
H487 C474 0.962 . S
H488 C474 0.960 . S
H489 C475 0.961 . S
H490 C475 0.961 . S
H491 C475 0.961 . S
H492 C476 0.931 . S
H493 C481 0.930 . S
H494 C482 0.956 . S
H495 C482 0.961 . S
H496 C482 0.961 . S
H497 C483 0.958 . S
H498 C483 0.961 . S
H499 C483 0.960 . S
C500 C501 1.391 . S
C500 C502 1.394 . S
C500 H516 0.931 . S
C501 C500 1.391 . S
C501 C505 1.376 . S
C502 C500 1.394 . S
C502 C503 1.369 . S
C502 C506 1.531 . S
C503 C502 1.369 . S
C503 C504 1.410 . S
C503 C511 1.503 . S
C504 C503 1.410 . S
C504 C505 1.392 . S
C504 C507 1.511 . S
C505 C501 1.376 . S
C505 C504 1.392 . S
C505 H517 0.929 . S
C506 C502 1.531 . S
C506 H518 0.960 . S
C506 H519 0.962 . S
C506 H520 0.960 . S
C507 C504 1.511 . S
C507 H521 0.961 . S
C507 H522 0.961 . S
C507 H523 0.961 . S
C508 C509 1.370 . S
C508 C510 1.363 . S
C508 H524 0.931 . S
C509 C508 1.370 . S
C509 C513 1.408 . S
C510 C508 1.363 . S
C510 C511 1.370 . S
C510 C514 1.524 . S
C511 C503 1.503 . S
C511 C510 1.370 . S
C511 C512 1.403 . S
C512 C511 1.403 . S
C512 C513 1.404 . S
C512 C515 1.539 . S
C513 C509 1.408 . S
C513 C512 1.404 . S
C513 H525 0.930 . S
C514 C510 1.524 . S
C514 H526 0.956 . S
C514 H527 0.961 . S
C514 H528 0.961 . S
C515 C512 1.539 . S
C515 H529 0.958 . S
C515 H530 0.961 . S
C515 H531 0.960 . S
H516 C500 0.931 . S
H517 C505 0.929 . S
H518 C506 0.960 . S
H519 C506 0.962 . S
H520 C506 0.960 . S
H521 C507 0.961 . S
H522 C507 0.961 . S
H523 C507 0.961 . S
H524 C508 0.931 . S
H525 C513 0.930 . S
H526 C514 0.956 . S
H527 C514 0.961 . S
H528 C514 0.961 . S
H529 C515 0.958 . S
H530 C515 0.961 . S
H531 C515 0.960 . S
C532 C533 1.391 . S
C532 C534 1.394 . S
C532 H548 0.931 . S
C533 C532 1.391 . S
C533 C537 1.376 . S
C534 C532 1.394 . S
C534 C535 1.369 . S
C534 C538 1.531 . S
C535 C534 1.369 . S
C535 C536 1.410 . S
C535 C543 1.503 . S
C536 C535 1.410 . S
C536 C537 1.392 . S
C536 C539 1.511 . S
C537 C533 1.376 . S
C537 C536 1.392 . S
C537 H549 0.929 . S
C538 C534 1.531 . S
C538 H550 0.960 . S
C538 H551 0.962 . S
C538 H552 0.960 . S
C539 C536 1.511 . S
C539 H553 0.961 . S
C539 H554 0.961 . S
C539 H555 0.961 . S
C540 C541 1.370 . S
C540 C542 1.363 . S
C540 H556 0.931 . S
C541 C540 1.370 . S
C541 C545 1.408 . S
C542 C540 1.363 . S
C542 C543 1.370 . S
C542 C546 1.524 . S
C543 C535 1.503 . S
C543 C542 1.370 . S
C543 C544 1.403 . S
C544 C543 1.403 . S
C544 C545 1.404 . S
C544 C547 1.539 . S
C545 C541 1.408 . S
C545 C544 1.404 . S
C545 H557 0.930 . S
C546 C542 1.524 . S
C546 H558 0.956 . S
C546 H559 0.961 . S
C546 H560 0.961 . S
C547 C544 1.539 . S
C547 H561 0.958 . S
C547 H562 0.961 . S
C547 H563 0.960 . S
H548 C532 0.931 . S
H549 C537 0.929 . S
H550 C538 0.960 . S
H551 C538 0.962 . S
H552 C538 0.960 . S
H553 C539 0.961 . S
H554 C539 0.961 . S
H555 C539 0.961 . S
H556 C540 0.931 . S
H557 C545 0.930 . S
H558 C546 0.956 . S
H559 C546 0.961 . S
H560 C546 0.961 . S
H561 C547 0.958 . S
H562 C547 0.961 . S
H563 C547 0.960 . S
C564 C565 1.391 . S
C564 C566 1.394 . S
C564 H580 0.931 . S
C565 C564 1.391 . S
C565 C569 1.376 . S
C566 C564 1.394 . S
C566 C567 1.369 . S
C566 C570 1.531 . S
C567 C566 1.369 . S
C567 C568 1.410 . S
C567 C575 1.503 . S
C568 C567 1.410 . S
C568 C569 1.392 . S
C568 C571 1.511 . S
C569 C565 1.376 . S
C569 C568 1.392 . S
C569 H581 0.929 . S
C570 C566 1.531 . S
C570 H582 0.960 . S
C570 H583 0.962 . S
C570 H584 0.960 . S
C571 C568 1.511 . S
C571 H585 0.961 . S
C571 H586 0.961 . S
C571 H587 0.961 . S
C572 C573 1.370 . S
C572 C574 1.363 . S
C572 H588 0.931 . S
C573 C572 1.370 . S
C573 C577 1.408 . S
C574 C572 1.363 . S
C574 C575 1.370 . S
C574 C578 1.524 . S
C575 C567 1.503 . S
C575 C574 1.370 . S
C575 C576 1.403 . S
C576 C575 1.403 . S
C576 C577 1.404 . S
C576 C579 1.539 . S
C577 C573 1.408 . S
C577 C576 1.404 . S
C577 H589 0.930 . S
C578 C574 1.524 . S
C578 H590 0.956 . S
C578 H591 0.961 . S
C578 H592 0.961 . S
C579 C576 1.539 . S
C579 H593 0.958 . S
C579 H594 0.961 1_556 S
C579 H595 0.960 . S
H580 C564 0.931 . S
H581 C569 0.929 . S
H582 C570 0.960 . S
H583 C570 0.962 . S
H584 C570 0.960 . S
H585 C571 0.961 . S
H586 C571 0.961 . S
H587 C571 0.961 . S
H588 C572 0.931 . S
H589 C577 0.930 . S
H590 C578 0.956 . S
H591 C578 0.961 . S
H592 C578 0.961 . S
H593 C579 0.958 . S
H594 C579 0.961 1_554 S
H595 C579 0.960 . S
C596 C597 1.391 . S
C596 C598 1.394 . S
C596 H612 0.931 . S
C597 C596 1.391 . S
C597 C601 1.376 . S
C598 C596 1.394 . S
C598 C599 1.369 . S
C598 C602 1.531 . S
C599 C598 1.369 . S
C599 C600 1.410 . S
C599 C607 1.503 . S
C600 C599 1.410 . S
C600 C601 1.392 . S
C600 C603 1.511 . S
C601 C597 1.376 . S
C601 C600 1.392 . S
C601 H613 0.929 . S
C602 C598 1.531 . S
C602 H614 0.960 . S
C602 H615 0.962 . S
C602 H616 0.960 . S
C603 C600 1.511 . S
C603 H617 0.961 . S
C603 H618 0.961 . S
C603 H619 0.961 . S
C604 C605 1.370 . S
C604 C606 1.363 . S
C604 H620 0.931 . S
C605 C604 1.370 . S
C605 C609 1.408 . S
C606 C604 1.363 . S
C606 C607 1.370 . S
C606 C610 1.524 . S
C607 C599 1.503 . S
C607 C606 1.370 . S
C607 C608 1.403 . S
C608 C607 1.403 . S
C608 C609 1.404 . S
C608 C611 1.539 . S
C609 C605 1.408 . S
C609 C608 1.404 . S
C609 H621 0.930 . S
C610 C606 1.524 . S
C610 H622 0.956 . S
C610 H623 0.961 . S
C610 H624 0.961 . S
C611 C608 1.539 . S
C611 H625 0.958 . S
C611 H626 0.961 . S
C611 H627 0.960 . S
H612 C596 0.931 . S
H613 C601 0.929 . S
H614 C602 0.960 . S
H615 C602 0.962 . S
H616 C602 0.960 . S
H617 C603 0.961 . S
H618 C603 0.961 . S
H619 C603 0.961 . S
H620 C604 0.931 . S
H621 C609 0.930 . S
H622 C610 0.956 . S
H623 C610 0.961 . S
H624 C610 0.961 . S
H625 C611 0.958 . S
H626 C611 0.961 . S
H627 C611 0.960 . S
C628 C629 1.391 . S
C628 C630 1.394 . S
C628 H644 0.931 . S
C629 C628 1.391 . S
C629 C633 1.376 . S
C630 C628 1.394 . S
C630 C631 1.369 . S
C630 C634 1.531 . S
C631 C630 1.369 . S
C631 C632 1.410 . S
C631 C639 1.503 . S
C632 C631 1.410 . S
C632 C633 1.392 . S
C632 C635 1.511 . S
C633 C629 1.376 . S
C633 C632 1.392 . S
C633 H645 0.929 . S
C634 C630 1.531 . S
C634 H646 0.960 . S
C634 H647 0.962 . S
C634 H648 0.960 . S
C635 C632 1.511 . S
C635 H649 0.961 . S
C635 H650 0.961 . S
C635 H651 0.961 . S
C636 C637 1.370 . S
C636 C638 1.363 . S
C636 H652 0.931 . S
C637 C636 1.370 . S
C637 C641 1.408 . S
C638 C636 1.363 . S
C638 C639 1.370 . S
C638 C642 1.524 . S
C639 C631 1.503 . S
C639 C638 1.370 . S
C639 C640 1.403 . S
C640 C639 1.403 . S
C640 C641 1.404 . S
C640 C643 1.539 . S
C641 C637 1.408 . S
C641 C640 1.404 . S
C641 H653 0.930 . S
C642 C638 1.524 . S
C642 H654 0.956 . S
C642 H655 0.961 . S
C642 H656 0.961 . S
C643 C640 1.539 . S
C643 H657 0.958 . S
C643 H658 0.961 . S
C643 H659 0.960 . S
H644 C628 0.931 . S
H645 C633 0.929 . S
H646 C634 0.960 . S
H647 C634 0.962 . S
H648 C634 0.960 . S
H649 C635 0.961 . S
H650 C635 0.961 . S
H651 C635 0.961 . S
H652 C636 0.931 . S
H653 C641 0.930 . S
H654 C642 0.956 . S
H655 C642 0.961 . S
H656 C642 0.961 . S
H657 C643 0.958 . S
H658 C643 0.961 . S
H659 C643 0.960 . S
C660 C661 1.391 . S
C660 C662 1.394 . S
C660 H676 0.931 . S
C661 C660 1.391 . S
C661 C665 1.376 . S
C662 C660 1.394 . S
C662 C663 1.369 . S
C662 C666 1.531 . S
C663 C662 1.369 . S
C663 C664 1.410 . S
C663 C671 1.503 . S
C664 C663 1.410 . S
C664 C665 1.392 . S
C664 C667 1.511 . S
C665 C661 1.376 . S
C665 C664 1.392 . S
C665 H677 0.929 . S
C666 C662 1.531 . S
C666 H678 0.960 . S
C666 H679 0.962 . S
C666 H680 0.960 . S
C667 C664 1.511 . S
C667 H681 0.961 . S
C667 H682 0.961 . S
C667 H683 0.961 . S
C668 C669 1.370 . S
C668 C670 1.363 . S
C668 H684 0.931 . S
C669 C668 1.370 . S
C669 C673 1.408 . S
C670 C668 1.363 . S
C670 C671 1.370 . S
C670 C674 1.524 . S
C671 C663 1.503 . S
C671 C670 1.370 . S
C671 C672 1.403 . S
C672 C671 1.403 . S
C672 C673 1.404 . S
C672 C675 1.539 . S
C673 C669 1.408 . S
C673 C672 1.404 . S
C673 H685 0.930 . S
C674 C670 1.524 . S
C674 H686 0.956 . S
C674 H687 0.961 . S
C674 H688 0.961 . S
C675 C672 1.539 . S
C675 H689 0.958 . S
C675 H690 0.961 . S
C675 H691 0.960 . S
H676 C660 0.931 . S
H677 C665 0.929 . S
H678 C666 0.960 . S
H679 C666 0.962 . S
H680 C666 0.960 . S
H681 C667 0.961 . S
H682 C667 0.961 . S
H683 C667 0.961 . S
H684 C668 0.931 . S
H685 C673 0.930 . S
H686 C674 0.956 . S
H687 C674 0.961 . S
H688 C674 0.961 . S
H689 C675 0.958 . S
H690 C675 0.961 . S
H691 C675 0.960 . S
C692 C693 1.391 . S
C692 C694 1.394 . S
C692 H708 0.931 . S
C693 C692 1.391 . S
C693 C697 1.376 . S
C694 C692 1.394 . S
C694 C695 1.369 . S
C694 C698 1.531 . S
C695 C694 1.369 . S
C695 C696 1.410 . S
C695 C703 1.503 . S
C696 C695 1.410 . S
C696 C697 1.392 . S
C696 C699 1.511 . S
C697 C693 1.376 . S
C697 C696 1.392 . S
C697 H709 0.929 . S
C698 C694 1.531 . S
C698 H710 0.960 . S
C698 H711 0.962 . S
C698 H712 0.960 . S
C699 C696 1.511 . S
C699 H713 0.961 . S
C699 H714 0.961 . S
C699 H715 0.961 . S
C700 C701 1.370 . S
C700 C702 1.363 . S
C700 H716 0.931 . S
C701 C700 1.370 . S
C701 C705 1.408 . S
C702 C700 1.363 . S
C702 C703 1.370 . S
C702 C706 1.524 . S
C703 C695 1.503 . S
C703 C702 1.370 . S
C703 C704 1.403 . S
C704 C703 1.403 . S
C704 C705 1.404 . S
C704 C707 1.539 . S
C705 C701 1.408 . S
C705 C704 1.404 . S
C705 H717 0.930 . S
C706 C702 1.524 . S
C706 H718 0.956 . S
C706 H719 0.961 . S
C706 H720 0.961 . S
C707 C704 1.539 . S
C707 H721 0.958 . S
C707 H722 0.961 . S
C707 H723 0.960 . S
H708 C692 0.931 . S
H709 C697 0.929 . S
H710 C698 0.960 . S
H711 C698 0.962 . S
H712 C698 0.960 . S
H713 C699 0.961 . S
H714 C699 0.961 . S
H715 C699 0.961 . S
H716 C700 0.931 . S
H717 C705 0.930 . S
H718 C706 0.956 . S
H719 C706 0.961 . S
H720 C706 0.961 . S
H721 C707 0.958 . S
H722 C707 0.961 . S
H723 C707 0.960 . S
C724 C725 1.391 . S
C724 C726 1.394 . S
C724 H740 0.931 . S
C725 C724 1.391 . S
C725 C729 1.376 . S
C726 C724 1.394 . S
C726 C727 1.369 . S
C726 C730 1.531 . S
C727 C726 1.369 . S
C727 C728 1.410 . S
C727 C735 1.503 . S
C728 C727 1.410 . S
C728 C729 1.392 . S
C728 C731 1.511 . S
C729 C725 1.376 . S
C729 C728 1.392 . S
C729 H741 0.929 . S
C730 C726 1.531 . S
C730 H742 0.960 . S
C730 H743 0.962 . S
C730 H744 0.960 . S
C731 C728 1.511 . S
C731 H745 0.961 . S
C731 H746 0.961 . S
C731 H747 0.961 . S
C732 C733 1.370 . S
C732 C734 1.363 . S
C732 H748 0.931 . S
C733 C732 1.370 . S
C733 C737 1.408 . S
C734 C732 1.363 . S
C734 C735 1.370 . S
C734 C738 1.524 . S
C735 C727 1.503 . S
C735 C734 1.370 . S
C735 C736 1.403 . S
C736 C735 1.403 . S
C736 C737 1.404 . S
C736 C739 1.539 . S
C737 C733 1.408 . S
C737 C736 1.404 . S
C737 H749 0.930 . S
C738 C734 1.524 . S
C738 H750 0.956 . S
C738 H751 0.961 . S
C738 H752 0.961 . S
C739 C736 1.539 . S
C739 H753 0.958 . S
C739 H754 0.961 . S
C739 H755 0.960 . S
H740 C724 0.931 . S
H741 C729 0.929 . S
H742 C730 0.960 . S
H743 C730 0.962 . S
H744 C730 0.960 . S
H745 C731 0.961 . S
H746 C731 0.961 . S
H747 C731 0.961 . S
H748 C732 0.931 . S
H749 C737 0.930 . S
H750 C738 0.956 . S
H751 C738 0.961 . S
H752 C738 0.961 . S
H753 C739 0.958 . S
H754 C739 0.961 . S
H755 C739 0.960 . S
C756 C757 1.391 . S
C756 C758 1.394 . S
C756 H772 0.931 . S
C757 C756 1.391 . S
C757 C761 1.376 . S
C758 C756 1.394 . S
C758 C759 1.369 . S
C758 C762 1.531 . S
C759 C758 1.369 . S
C759 C760 1.410 1_556 S
C759 C767 1.503 1_556 S
C760 C759 1.410 1_554 S
C760 C761 1.392 1_554 S
C760 C763 1.511 . S
C761 C757 1.376 . S
C761 C760 1.392 1_556 S
C761 H773 0.929 . S
C762 C758 1.531 . S
C762 H774 0.960 . S
C762 H775 0.962 . S
C762 H776 0.960 . S
C763 C760 1.511 . S
C763 H777 0.961 . S
C763 H778 0.961 . S
C763 H779 0.961 . S
C764 C765 1.370 . S
C764 C766 1.363 . S
C764 H780 0.931 . S
C765 C764 1.370 . S
C765 C769 1.408 . S
C766 C764 1.363 . S
C766 C767 1.370 . S
C766 C770 1.524 . S
C767 C759 1.503 1_554 S
C767 C766 1.370 . S
C767 C768 1.403 . S
C768 C767 1.403 . S
C768 C769 1.404 . S
C768 C771 1.542 . S
C769 C765 1.408 . S
C769 C768 1.404 . S
C769 H781 0.930 . S
C770 C766 1.524 . S
C770 H782 0.956 1_554 S
C770 H783 0.961 . S
C770 H784 0.961 . S
C771 C768 1.542 . S
C771 H785 0.952 1_554 S
C771 H786 0.966 . S
C771 H787 0.959 1_554 S
H772 C756 0.931 . S
H773 C761 0.929 . S
H774 C762 0.960 . S
H775 C762 0.962 . S
H776 C762 0.960 . S
H777 C763 0.961 . S
H778 C763 0.961 . S
H779 C763 0.961 . S
H780 C764 0.931 . S
H781 C769 0.930 . S
H782 C770 0.956 1_556 S
H783 C770 0.961 . S
H784 C770 0.961 . S
H785 C771 0.952 1_556 S
H786 C771 0.966 . S
H787 C771 0.959 1_556 S
C788 C789 1.391 . S
C788 C790 1.394 . S
C788 H804 0.931 . S
C789 C788 1.391 . S
C789 C793 1.376 . S
C790 C788 1.394 . S
C790 C791 1.369 . S
C790 C794 1.531 . S
C791 C790 1.369 . S
C791 C792 1.410 1_554 S
C791 C799 1.503 1_544 S
C792 C791 1.410 1_556 S
C792 C793 1.392 1_556 S
C792 C795 1.511 . S
C793 C789 1.376 . S
C793 C792 1.392 1_554 S
C793 H805 0.929 . S
C794 C790 1.531 . S
C794 H806 0.960 . S
C794 H807 0.962 1_545 S
C794 H808 0.960 . S
C795 C792 1.511 . S
C795 H809 0.961 . S
C795 H810 0.943 1_545 S
C795 H811 0.961 . S
C796 C797 1.370 . S
C796 C798 1.363 . S
C796 H812 0.931 . S
C797 C796 1.370 . S
C797 C801 1.408 . S
C798 C796 1.363 . S
C798 C799 1.370 . S
C798 C802 1.524 1_556 S
C799 C791 1.503 1_566 S
C799 C798 1.370 . S
C799 C800 1.403 1_565 S
C800 C799 1.403 1_545 S
C800 C801 1.404 1_545 S
C800 C803 1.539 . S
C801 C797 1.408 . S
C801 C800 1.404 1_565 S
C801 H813 0.930 1_565 S
C802 C798 1.524 1_554 S
C802 H814 0.956 . S
C802 H815 0.961 . S
C802 H816 0.961 . S
C803 C800 1.539 . S
C803 H817 0.958 . S
C803 H818 0.961 . S
C803 H819 0.960 . S
H804 C788 0.931 . S
H805 C793 0.929 . S
H806 C794 0.960 . S
H807 C794 0.962 1_565 S
H808 C794 0.960 . S
H809 C795 0.961 . S
H810 C795 0.943 1_565 S
H811 C795 0.961 . S
H812 C796 0.931 . S
H813 C801 0.930 1_545 S
H814 C802 0.956 . S
H815 C802 0.961 . S
H816 C802 0.961 . S
H817 C803 0.958 . S
H818 C803 0.961 . S
H819 C803 0.960 . S
C820 C821 1.391 . S
C820 C822 1.394 . S
C820 H836 0.931 . S
C821 C820 1.391 . S
C821 C825 1.376 . S
C822 C820 1.394 . S
C822 C823 1.369 . S
C822 C826 1.531 . S
C823 C822 1.369 . S
C823 C824 1.410 1_554 S
C823 C831 1.503 1_654 S
C824 C823 1.410 1_556 S
C824 C825 1.392 1_556 S
C824 C827 1.511 1_655 S
C825 C821 1.376 . S
C825 C824 1.392 1_554 S
C825 H837 0.929 . S
C826 C822 1.531 . S
C826 H838 0.960 . S
C826 H839 0.962 . S
C826 H840 0.960 . S
C827 C824 1.511 1_455 S
C827 H841 0.961 . S
C827 H842 0.961 . S
C827 H843 0.961 1_455 S
C828 C829 1.370 . S
C828 C830 1.363 . S
C828 H844 0.931 . S
C829 C828 1.370 . S
C829 C833 1.408 . S
C830 C828 1.363 . S
C830 C831 1.370 . S
C830 C834 1.524 1_556 S
C831 C823 1.503 1_456 S
C831 C830 1.370 . S
C831 C832 1.403 1_455 S
C832 C831 1.403 1_655 S
C832 C833 1.404 1_655 S
C832 C835 1.539 . S
C833 C829 1.408 . S
C833 C832 1.404 1_455 S
C833 H845 0.930 1_455 S
C834 C830 1.524 1_554 S
C834 H846 0.956 . S
C834 H847 0.961 . S
C834 H848 0.961 . S
C835 C832 1.539 . S
C835 H849 0.958 . S
C835 H850 0.961 . S
C835 H851 0.960 . S
H836 C820 0.931 . S
H837 C825 0.929 . S
H838 C826 0.960 . S
H839 C826 0.962 . S
H840 C826 0.960 . S
H841 C827 0.961 . S
H842 C827 0.961 . S
H843 C827 0.961 1_655 S
H844 C828 0.931 . S
H845 C833 0.930 1_655 S
H846 C834 0.956 . S
H847 C834 0.961 . S
H848 C834 0.961 . S
H849 C835 0.958 . S
H850 C835 0.961 . S
H851 C835 0.960 . S
C852 C853 1.391 . S
C852 C854 1.394 . S
C852 H868 0.931 . S
C853 C852 1.391 . S
C853 C857 1.376 . S
C854 C852 1.394 . S
C854 C855 1.369 . S
C854 C858 1.531 . S
C855 C854 1.369 . S
C855 C856 1.410 . S
C855 C863 1.503 . S
C856 C855 1.410 . S
C856 C857 1.392 . S
C856 C859 1.511 . S
C857 C853 1.376 . S
C857 C856 1.392 . S
C857 H869 0.929 . S
C858 C854 1.531 . S
C858 H870 0.960 . S
C858 H871 0.962 . S
C858 H872 0.960 . S
C859 C856 1.511 . S
C859 H873 0.961 . S
C859 H874 0.961 . S
C859 H875 0.961 . S
C860 C861 1.370 . S
C860 C862 1.363 . S
C860 H876 0.931 . S
C861 C860 1.370 . S
C861 C865 1.408 . S
C862 C860 1.363 . S
C862 C863 1.370 . S
C862 C866 1.524 . S
C863 C855 1.503 . S
C863 C862 1.370 . S
C863 C864 1.403 . S
C864 C863 1.403 . S
C864 C865 1.404 . S
C864 C867 1.539 . S
C865 C861 1.408 . S
C865 C864 1.404 . S
C865 H877 0.930 . S
C866 C862 1.524 . S
C866 H878 0.956 . S
C866 H879 0.961 . S
C866 H880 0.961 . S
C867 C864 1.539 . S
C867 H881 0.958 . S
C867 H882 0.961 . S
C867 H883 0.960 . S
H868 C852 0.931 . S
H869 C857 0.929 . S
H870 C858 0.960 . S
H871 C858 0.962 . S
H872 C858 0.960 . S
H873 C859 0.961 . S
H874 C859 0.961 . S
H875 C859 0.961 . S
H876 C860 0.931 . S
H877 C865 0.930 . S
H878 C866 0.956 . S
H879 C866 0.961 . S
H880 C866 0.961 . S
H881 C867 0.958 . S
H882 C867 0.961 . S
H883 C867 0.960 . S
C884 C885 1.391 . S
C884 C886 1.394 . S
C884 H900 0.931 . S
C885 C884 1.391 . S
C885 C889 1.376 . S
C886 C884 1.394 . S
C886 C887 1.369 . S
C886 C890 1.531 . S
C887 C886 1.369 . S
C887 C888 1.410 1_565 S
C887 C895 1.503 1_565 S
C888 C887 1.410 1_545 S
C888 C889 1.392 1_545 S
C888 C891 1.511 . S
C889 C885 1.376 . S
C889 C888 1.392 1_565 S
C889 H901 0.929 . S
C890 C886 1.531 . S
C890 H902 0.960 . S
C890 H903 0.962 . S
C890 H904 0.960 . S
C891 C888 1.511 . S
C891 H905 0.961 . S
C891 H906 0.961 . S
C891 H907 0.961 . S
C892 C893 1.370 . S
C892 C894 1.363 . S
C892 H908 0.931 . S
C893 C892 1.370 . S
C893 C897 1.408 . S
C894 C892 1.363 . S
C894 C895 1.370 . S
C894 C898 1.524 1_545 S
C895 C887 1.503 1_545 S
C895 C894 1.370 . S
C895 C896 1.403 . S
C896 C895 1.403 . S
C896 C897 1.404 . S
C896 C899 1.539 . S
C897 C893 1.408 . S
C897 C896 1.404 . S
C897 H909 0.930 . S
C898 C894 1.524 1_565 S
C898 H910 0.956 . S
C898 H911 0.961 . S
C898 H912 0.961 . S
C899 C896 1.539 . S
C899 H913 0.958 . S
C899 H914 0.961 . S
C899 H915 0.960 . S
H900 C884 0.931 . S
H901 C889 0.929 . S
H902 C890 0.960 . S
H903 C890 0.962 . S
H904 C890 0.960 . S
H905 C891 0.961 . S
H906 C891 0.961 . S
H907 C891 0.961 . S
H908 C892 0.931 . S
H909 C897 0.930 . S
H910 C898 0.956 . S
H911 C898 0.961 . S
H912 C898 0.961 . S
H913 C899 0.958 . S
H914 C899 0.961 . S
H915 C899 0.960 . S
C916 C917 1.391 . S
C916 C918 1.394 . S
C916 H932 0.931 . S
C917 C916 1.391 . S
C917 C921 1.376 . S
C918 C916 1.394 . S
C918 C919 1.369 . S
C918 C922 1.531 1_655 S
C919 C918 1.369 . S
C919 C920 1.410 . S
C919 C927 1.503 1_655 S
C920 C919 1.410 . S
C920 C921 1.392 . S
C920 C923 1.511 . S
C921 C917 1.376 . S
C921 C920 1.392 . S
C921 H933 0.929 . S
C922 C918 1.531 1_455 S
C922 H934 0.960 . S
C922 H935 0.962 . S
C922 H936 0.960 . S
C923 C920 1.511 . S
C923 H937 0.961 . S
C923 H938 0.961 . S
C923 H939 0.961 . S
C924 C925 1.370 . S
C924 C926 1.363 . S
C924 H940 0.931 . S
C925 C924 1.370 . S
C925 C929 1.408 . S
C926 C924 1.363 . S
C926 C927 1.370 . S
C926 C930 1.524 . S
C927 C919 1.503 1_455 S
C927 C926 1.370 . S
C927 C928 1.403 1_455 S
C928 C927 1.403 1_655 S
C928 C929 1.404 1_655 S
C928 C931 1.539 . S
C929 C925 1.408 . S
C929 C928 1.404 1_455 S
C929 H941 0.930 . S
C930 C926 1.524 . S
C930 H942 0.956 . S
C930 H943 0.961 . S
C930 H944 0.961 . S
C931 C928 1.539 . S
C931 H945 0.958 . S
C931 H946 0.961 . S
C931 H947 0.960 . S
H932 C916 0.931 . S
H933 C921 0.929 . S
H934 C922 0.960 . S
H935 C922 0.962 . S
H936 C922 0.960 . S
H937 C923 0.961 . S
H938 C923 0.961 . S
H939 C923 0.961 . S
H940 C924 0.931 . S
H941 C929 0.930 . S
H942 C930 0.956 . S
H943 C930 0.961 . S
H944 C930 0.961 . S
H945 C931 0.958 . S
H946 C931 0.961 . S
H947 C931 0.960 . S
C948 C949 1.391 . S
C948 C950 1.394 . S
C948 H964 0.931 . S
C949 C948 1.391 . S
C949 C953 1.376 . S
C950 C948 1.394 . S
C950 C951 1.369 . S
C950 C954 1.531 . S
C951 C950 1.369 . S
C951 C952 1.410 . S
C951 C959 1.503 . S
C952 C951 1.410 . S
C952 C953 1.392 . S
C952 C955 1.511 . S
C953 C949 1.376 . S
C953 C952 1.392 . S
C953 H965 0.929 . S
C954 C950 1.531 . S
C954 H966 0.960 . S
C954 H967 0.962 . S
C954 H968 0.960 . S
C955 C952 1.511 . S
C955 H969 0.961 . S
C955 H970 0.961 . S
C955 H971 0.961 . S
C956 C957 1.370 . S
C956 C958 1.363 . S
C956 H972 0.931 . S
C957 C956 1.370 . S
C957 C961 1.408 . S
C958 C956 1.363 . S
C958 C959 1.370 . S
C958 C962 1.524 . S
C959 C951 1.503 . S
C959 C958 1.370 . S
C959 C960 1.403 . S
C960 C959 1.403 . S
C960 C961 1.404 . S
C960 C963 1.539 . S
C961 C957 1.408 . S
C961 C960 1.404 . S
C961 H973 0.930 . S
C962 C958 1.524 . S
C962 H974 0.956 . S
C962 H975 0.961 . S
C962 H976 0.961 . S
C963 C960 1.539 . S
C963 H977 0.958 . S
C963 H978 0.961 . S
C963 H979 0.960 . S
H964 C948 0.931 . S
H965 C953 0.929 . S
H966 C954 0.960 . S
H967 C954 0.962 . S
H968 C954 0.960 . S
H969 C955 0.961 . S
H970 C955 0.961 . S
H971 C955 0.961 . S
H972 C956 0.931 . S
H973 C961 0.930 . S
H974 C962 0.956 . S
H975 C962 0.961 . S
H976 C962 0.961 . S
H977 C963 0.958 . S
H978 C963 0.961 . S
H979 C963 0.960 . S
C980 C981 1.391 . S
C980 C982 1.394 . S
C980 H996 0.928 . S
C981 C980 1.391 . S
C981 C985 1.376 . S
C982 C980 1.394 . S
C982 C983 1.369 . S
C982 C986 1.531 . S
C983 C982 1.369 . S
C983 C984 1.410 . S
C983 C991 1.503 . S
C984 C983 1.410 . S
C984 C985 1.392 . S
C984 C987 1.511 . S
C985 C981 1.376 . S
C985 C984 1.392 . S
C985 H997 0.929 . S
C986 C982 1.531 . S
C986 H998 0.960 . S
C986 H999 0.962 . S
C986 H1000 0.960 . S
C987 C984 1.511 . S
C987 H1001 0.961 . S
C987 H1002 0.961 . S
C987 H1003 0.961 . S
C988 C989 1.370 . S
C988 C990 1.363 . S
C988 H1004 0.931 . S
C989 C988 1.370 . S
C989 C993 1.408 . S
C990 C988 1.363 . S
C990 C991 1.370 . S
C990 C994 1.524 . S
C991 C983 1.503 . S
C991 C990 1.370 . S
C991 C992 1.403 . S
C992 C991 1.403 . S
C992 C993 1.404 . S
C992 C995 1.539 . S
C993 C989 1.408 . S
C993 C992 1.404 . S
C993 H1005 0.930 . S
C994 C990 1.524 . S
C994 H1006 0.956 . S
C994 H1007 0.961 . S
C994 H1008 0.961 . S
C995 C992 1.539 . S
C995 H1009 0.958 . S
C995 H1010 0.961 . S
C995 H1011 0.960 . S
H996 C980 0.928 . S
H997 C985 0.929 . S
H998 C986 0.960 . S
H999 C986 0.962 . S
H1000 C986 0.960 . S
H1001 C987 0.961 . S
H1002 C987 0.961 . S
H1003 C987 0.961 . S
H1004 C988 0.931 . S
H1005 C993 0.930 . S
H1006 C994 0.956 . S
H1007 C994 0.961 . S
H1008 C994 0.961 . S
H1009 C995 0.958 . S
H1010 C995 0.961 . S
H1011 C995 0.960 . S
C1012 C1013 1.391 . S
C1012 C1014 1.394 . S
C1012 H1028 0.931 . S
C1013 C1012 1.391 . S
C1013 C1017 1.376 . S
C1014 C1012 1.394 . S
C1014 C1015 1.369 . S
C1014 C1018 1.531 . S
C1015 C1014 1.369 . S
C1015 C1016 1.410 . S
C1015 C1023 1.503 . S
C1016 C1015 1.410 . S
C1016 C1017 1.392 . S
C1016 C1019 1.511 . S
C1017 C1013 1.376 . S
C1017 C1016 1.392 . S
C1017 H1029 0.929 . S
C1018 C1014 1.531 . S
C1018 H1030 0.960 . S
C1018 H1031 0.962 . S
C1018 H1032 0.960 . S
C1019 C1016 1.511 . S
C1019 H1033 0.961 . S
C1019 H1034 0.961 . S
C1019 H1035 0.961 . S
C1020 C1021 1.370 . S
C1020 C1022 1.363 . S
C1020 H1036 0.931 . S
C1021 C1020 1.370 . S
C1021 C1025 1.408 . S
C1022 C1020 1.363 . S
C1022 C1023 1.370 . S
C1022 C1026 1.524 . S
C1023 C1015 1.503 . S
C1023 C1022 1.370 . S
C1023 C1024 1.403 . S
C1024 C1023 1.403 . S
C1024 C1025 1.404 . S
C1024 C1027 1.539 . S
C1025 C1021 1.408 . S
C1025 C1024 1.404 . S
C1025 H1037 0.930 . S
C1026 C1022 1.524 . S
C1026 H1038 0.956 . S
C1026 H1039 0.961 . S
C1026 H1040 0.961 . S
C1027 C1024 1.539 . S
C1027 H1041 0.958 . S
C1027 H1042 0.961 . S
C1027 H1043 0.960 . S
H1028 C1012 0.931 . S
H1029 C1017 0.929 . S
H1030 C1018 0.960 . S
H1031 C1018 0.962 . S
H1032 C1018 0.960 . S
H1033 C1019 0.961 . S
H1034 C1019 0.961 . S
H1035 C1019 0.961 . S
H1036 C1020 0.931 . S
H1037 C1025 0.930 . S
H1038 C1026 0.956 . S
H1039 C1026 0.961 . S
H1040 C1026 0.961 . S
H1041 C1027 0.958 . S
H1042 C1027 0.961 . S
H1043 C1027 0.960 . S
C1044 C1045 1.391 . S
C1044 C1046 1.394 . S
C1044 H1060 0.931 . S
C1045 C1044 1.391 . S
C1045 C1049 1.376 . S
C1046 C1044 1.394 . S
C1046 C1047 1.369 . S
C1046 C1050 1.531 . S
C1047 C1046 1.369 . S
C1047 C1048 1.410 . S
C1047 C1055 1.503 . S
C1048 C1047 1.410 . S
C1048 C1049 1.392 . S
C1048 C1051 1.511 . S
C1049 C1045 1.376 . S
C1049 C1048 1.392 . S
C1049 H1061 0.929 . S
C1050 C1046 1.531 . S
C1050 H1062 0.960 . S
C1050 H1063 0.962 . S
C1050 H1064 0.960 . S
C1051 C1048 1.511 . S
C1051 H1065 0.961 . S
C1051 H1066 0.961 . S
C1051 H1067 0.961 . S
C1052 C1053 1.370 . S
C1052 C1054 1.363 . S
C1052 H1068 0.931 . S
C1053 C1052 1.370 . S
C1053 C1057 1.408 . S
C1054 C1052 1.363 . S
C1054 C1055 1.370 . S
C1054 C1058 1.524 . S
C1055 C1047 1.503 . S
C1055 C1054 1.370 . S
C1055 C1056 1.403 . S
C1056 C1055 1.403 . S
C1056 C1057 1.404 . S
C1056 C1059 1.539 . S
C1057 C1053 1.408 . S
C1057 C1056 1.404 . S
C1057 H1069 0.930 . S
C1058 C1054 1.524 . S
C1058 H1070 0.956 . S
C1058 H1071 0.961 . S
C1058 H1072 0.961 . S
C1059 C1056 1.539 . S
C1059 H1073 0.958 . S
C1059 H1074 0.961 . S
C1059 H1075 0.960 . S
H1060 C1044 0.931 . S
H1061 C1049 0.929 . S
H1062 C1050 0.960 . S
H1063 C1050 0.962 . S
H1064 C1050 0.960 . S
H1065 C1051 0.961 . S
H1066 C1051 0.961 . S
H1067 C1051 0.961 . S
H1068 C1052 0.931 . S
H1069 C1057 0.930 . S
H1070 C1058 0.956 . S
H1071 C1058 0.961 . S
H1072 C1058 0.961 . S
H1073 C1059 0.958 . S
H1074 C1059 0.961 . S
H1075 C1059 0.960 . S
C1076 C1077 1.391 . S
C1076 C1078 1.394 . S
C1076 H1092 0.931 . S
C1077 C1076 1.391 . S
C1077 C1081 1.376 . S
C1078 C1076 1.394 . S
C1078 C1079 1.369 . S
C1078 C1082 1.531 . S
C1079 C1078 1.369 . S
C1079 C1080 1.410 . S
C1079 C1087 1.503 . S
C1080 C1079 1.410 . S
C1080 C1081 1.392 . S
C1080 C1083 1.511 . S
C1081 C1077 1.376 . S
C1081 C1080 1.392 . S
C1081 H1093 0.929 . S
C1082 C1078 1.531 . S
C1082 H1094 0.960 . S
C1082 H1095 0.962 . S
C1082 H1096 0.960 . S
C1083 C1080 1.511 . S
C1083 H1097 0.961 . S
C1083 H1098 0.961 . S
C1083 H1099 0.961 . S
C1084 C1085 1.370 . S
C1084 C1086 1.363 . S
C1084 H1100 0.931 . S
C1085 C1084 1.370 . S
C1085 C1089 1.408 . S
C1086 C1084 1.363 . S
C1086 C1087 1.370 . S
C1086 C1090 1.524 . S
C1087 C1079 1.503 . S
C1087 C1086 1.370 . S
C1087 C1088 1.403 . S
C1088 C1087 1.403 . S
C1088 C1089 1.404 . S
C1088 C1091 1.539 . S
C1089 C1085 1.408 . S
C1089 C1088 1.404 . S
C1089 H1101 0.930 . S
C1090 C1086 1.524 . S
C1090 H1102 0.956 . S
C1090 H1103 0.961 . S
C1090 H1104 0.961 . S
C1091 C1088 1.539 . S
C1091 H1105 0.958 . S
C1091 H1106 0.961 . S
C1091 H1107 0.960 . S
H1092 C1076 0.931 . S
H1093 C1081 0.929 . S
H1094 C1082 0.960 . S
H1095 C1082 0.962 . S
H1096 C1082 0.960 . S
H1097 C1083 0.961 . S
H1098 C1083 0.961 . S
H1099 C1083 0.961 . S
H1100 C1084 0.931 . S
H1101 C1089 0.930 . S
H1102 C1090 0.956 . S
H1103 C1090 0.961 . S
H1104 C1090 0.961 . S
H1105 C1091 0.958 . S
H1106 C1091 0.961 . S
H1107 C1091 0.960 . S
C1108 C1109 1.391 . S
C1108 C1110 1.394 . S
C1108 H1124 0.931 . S
C1109 C1108 1.391 . S
C1109 C1113 1.376 . S
C1110 C1108 1.394 . S
C1110 C1111 1.369 . S
C1110 C1114 1.531 . S
C1111 C1110 1.369 . S
C1111 C1112 1.410 . S
C1111 C1119 1.503 . S
C1112 C1111 1.410 . S
C1112 C1113 1.392 . S
C1112 C1115 1.511 . S
C1113 C1109 1.376 . S
C1113 C1112 1.392 . S
C1113 H1125 0.929 . S
C1114 C1110 1.531 . S
C1114 H1126 0.960 . S
C1114 H1127 0.962 . S
C1114 H1128 0.960 . S
C1115 C1112 1.511 . S
C1115 H1129 0.961 . S
C1115 H1130 0.961 . S
C1115 H1131 0.961 . S
C1116 C1117 1.370 . S
C1116 C1118 1.363 . S
C1116 H1132 0.931 . S
C1117 C1116 1.370 . S
C1117 C1121 1.408 . S
C1118 C1116 1.363 . S
C1118 C1119 1.370 . S
C1118 C1122 1.524 . S
C1119 C1111 1.503 . S
C1119 C1118 1.370 . S
C1119 C1120 1.403 . S
C1120 C1119 1.403 . S
C1120 C1121 1.404 . S
C1120 C1123 1.539 . S
C1121 C1117 1.408 . S
C1121 C1120 1.404 . S
C1121 H1133 0.930 . S
C1122 C1118 1.524 . S
C1122 H1134 0.956 . S
C1122 H1135 0.961 . S
C1122 H1136 0.961 . S
C1123 C1120 1.539 . S
C1123 H1137 0.958 . S
C1123 H1138 0.961 . S
C1123 H1139 0.960 . S
H1124 C1108 0.931 . S
H1125 C1113 0.929 . S
H1126 C1114 0.960 . S
H1127 C1114 0.962 . S
H1128 C1114 0.960 . S
H1129 C1115 0.961 . S
H1130 C1115 0.961 . S
H1131 C1115 0.961 . S
H1132 C1116 0.931 . S
H1133 C1121 0.930 . S
H1134 C1122 0.956 . S
H1135 C1122 0.961 . S
H1136 C1122 0.961 . S
H1137 C1123 0.958 . S
H1138 C1123 0.961 . S
H1139 C1123 0.960 . S
C1140 C1141 1.391 . S
C1140 C1142 1.394 . S
C1140 H1156 0.931 . S
C1141 C1140 1.391 . S
C1141 C1145 1.376 . S
C1142 C1140 1.394 . S
C1142 C1143 1.369 . S
C1142 C1146 1.531 . S
C1143 C1142 1.369 . S
C1143 C1144 1.410 . S
C1143 C1151 1.503 . S
C1144 C1143 1.410 . S
C1144 C1145 1.392 . S
C1144 C1147 1.511 . S
C1145 C1141 1.376 . S
C1145 C1144 1.392 . S
C1145 H1157 0.929 . S
C1146 C1142 1.531 . S
C1146 H1158 0.960 . S
C1146 H1159 0.962 . S
C1146 H1160 0.960 . S
C1147 C1144 1.511 . S
C1147 H1161 0.961 . S
C1147 H1162 0.961 . S
C1147 H1163 0.961 . S
C1148 C1149 1.370 . S
C1148 C1150 1.363 . S
C1148 H1164 0.931 . S
C1149 C1148 1.370 . S
C1149 C1153 1.408 . S
C1150 C1148 1.363 . S
C1150 C1151 1.370 . S
C1150 C1154 1.524 . S
C1151 C1143 1.503 . S
C1151 C1150 1.370 . S
C1151 C1152 1.403 . S
C1152 C1151 1.403 . S
C1152 C1153 1.404 . S
C1152 C1155 1.539 . S
C1153 C1149 1.408 . S
C1153 C1152 1.404 . S
C1153 H1165 0.930 . S
C1154 C1150 1.524 . S
C1154 H1166 0.956 . S
C1154 H1167 0.961 . S
C1154 H1168 0.961 . S
C1155 C1152 1.539 . S
C1155 H1169 0.958 . S
C1155 H1170 0.961 . S
C1155 H1171 0.960 . S
H1156 C1140 0.931 . S
H1157 C1145 0.929 . S
H1158 C1146 0.960 . S
H1159 C1146 0.962 . S
H1160 C1146 0.960 . S
H1161 C1147 0.961 . S
H1162 C1147 0.961 . S
H1163 C1147 0.961 . S
H1164 C1148 0.931 . S
H1165 C1153 0.930 . S
H1166 C1154 0.956 . S
H1167 C1154 0.961 . S
H1168 C1154 0.961 . S
H1169 C1155 0.958 . S
H1170 C1155 0.961 . S
H1171 C1155 0.960 . S
C1172 C1173 1.391 . S
C1172 C1174 1.394 . S
C1172 H1188 0.931 . S
C1173 C1172 1.391 . S
C1173 C1177 1.376 . S
C1174 C1172 1.394 . S
C1174 C1175 1.369 . S
C1174 C1178 1.531 . S
C1175 C1174 1.369 . S
C1175 C1176 1.410 . S
C1175 C1183 1.503 . S
C1176 C1175 1.410 . S
C1176 C1177 1.392 . S
C1176 C1179 1.511 . S
C1177 C1173 1.376 . S
C1177 C1176 1.392 . S
C1177 H1189 0.929 . S
C1178 C1174 1.531 . S
C1178 H1190 0.960 . S
C1178 H1191 0.962 . S
C1178 H1192 0.960 . S
C1179 C1176 1.511 . S
C1179 H1193 0.961 . S
C1179 H1194 0.961 . S
C1179 H1195 0.961 . S
C1180 C1181 1.370 . S
C1180 C1182 1.363 . S
C1180 H1196 0.931 . S
C1181 C1180 1.370 . S
C1181 C1185 1.408 . S
C1182 C1180 1.363 . S
C1182 C1183 1.370 . S
C1182 C1186 1.524 . S
C1183 C1175 1.503 . S
C1183 C1182 1.370 . S
C1183 C1184 1.403 . S
C1184 C1183 1.403 . S
C1184 C1185 1.404 . S
C1184 C1187 1.539 . S
C1185 C1181 1.408 . S
C1185 C1184 1.404 . S
C1185 H1197 0.930 . S
C1186 C1182 1.524 . S
C1186 H1198 0.956 . S
C1186 H1199 0.961 . S
C1186 H1200 0.961 . S
C1187 C1184 1.539 . S
C1187 H1201 0.958 . S
C1187 H1202 0.961 . S
C1187 H1203 0.960 . S
H1188 C1172 0.931 . S
H1189 C1177 0.929 . S
H1190 C1178 0.960 . S
H1191 C1178 0.962 . S
H1192 C1178 0.960 . S
H1193 C1179 0.961 . S
H1194 C1179 0.961 . S
H1195 C1179 0.961 . S
H1196 C1180 0.931 . S
H1197 C1185 0.930 . S
H1198 C1186 0.956 . S
H1199 C1186 0.961 . S
H1200 C1186 0.961 . S
H1201 C1187 0.958 . S
H1202 C1187 0.961 . S
H1203 C1187 0.960 . S
C1204 C1205 1.391 . S
C1204 C1206 1.394 . S
C1204 H1220 0.931 . S
C1205 C1204 1.391 . S
C1205 C1209 1.376 . S
C1206 C1204 1.394 . S
C1206 C1207 1.369 . S
C1206 C1210 1.531 . S
C1207 C1206 1.369 . S
C1207 C1208 1.410 . S
C1207 C1215 1.503 . S
C1208 C1207 1.410 . S
C1208 C1209 1.392 . S
C1208 C1211 1.511 . S
C1209 C1205 1.376 . S
C1209 C1208 1.392 . S
C1209 H1221 0.929 . S
C1210 C1206 1.531 . S
C1210 H1222 0.960 . S
C1210 H1223 0.962 . S
C1210 H1224 0.960 . S
C1211 C1208 1.511 . S
C1211 H1225 0.961 . S
C1211 H1226 0.961 . S
C1211 H1227 0.961 . S
C1212 C1213 1.370 . S
C1212 C1214 1.363 . S
C1212 H1228 0.931 . S
C1213 C1212 1.370 . S
C1213 C1217 1.408 . S
C1214 C1212 1.363 . S
C1214 C1215 1.370 . S
C1214 C1218 1.524 . S
C1215 C1207 1.503 . S
C1215 C1214 1.370 . S
C1215 C1216 1.403 . S
C1216 C1215 1.403 . S
C1216 C1217 1.404 . S
C1216 C1219 1.539 . S
C1217 C1213 1.408 . S
C1217 C1216 1.404 . S
C1217 H1229 0.930 . S
C1218 C1214 1.524 . S
C1218 H1230 0.956 . S
C1218 H1231 0.961 . S
C1218 H1232 0.961 . S
C1219 C1216 1.539 . S
C1219 H1233 0.958 . S
C1219 H1234 0.961 . S
C1219 H1235 0.960 . S
H1220 C1204 0.931 . S
H1221 C1209 0.929 . S
H1222 C1210 0.960 . S
H1223 C1210 0.962 . S
H1224 C1210 0.960 . S
H1225 C1211 0.961 . S
H1226 C1211 0.961 . S
H1227 C1211 0.961 . S
H1228 C1212 0.931 . S
H1229 C1217 0.930 . S
H1230 C1218 0.956 . S
H1231 C1218 0.961 . S
H1232 C1218 0.961 . S
H1233 C1219 0.958 . S
H1234 C1219 0.961 . S
H1235 C1219 0.960 . S
C1236 C1237 1.391 . S
C1236 C1238 1.394 . S
C1236 H1252 0.931 . S
C1237 C1236 1.391 . S
C1237 C1241 1.376 . S
C1238 C1236 1.394 . S
C1238 C1239 1.369 . S
C1238 C1242 1.531 . S
C1239 C1238 1.369 . S
C1239 C1240 1.410 . S
C1239 C1247 1.503 . S
C1240 C1239 1.410 . S
C1240 C1241 1.392 . S
C1240 C1243 1.511 . S
C1241 C1237 1.376 . S
C1241 C1240 1.392 . S
C1241 H1253 0.929 . S
C1242 C1238 1.531 . S
C1242 H1254 0.960 . S
C1242 H1255 0.962 . S
C1242 H1256 0.960 . S
C1243 C1240 1.511 . S
C1243 H1257 0.961 . S
C1243 H1258 0.961 . S
C1243 H1259 0.961 . S
C1244 C1245 1.370 . S
C1244 C1246 1.363 . S
C1244 H1260 0.931 . S
C1245 C1244 1.370 . S
C1245 C1249 1.408 . S
C1246 C1244 1.363 . S
C1246 C1247 1.370 . S
C1246 C1250 1.524 . S
C1247 C1239 1.503 . S
C1247 C1246 1.370 . S
C1247 C1248 1.403 . S
C1248 C1247 1.403 . S
C1248 C1249 1.404 . S
C1248 C1251 1.539 . S
C1249 C1245 1.408 . S
C1249 C1248 1.404 . S
C1249 H1261 0.930 . S
C1250 C1246 1.524 . S
C1250 H1262 0.956 . S
C1250 H1263 0.961 . S
C1250 H1264 0.961 . S
C1251 C1248 1.539 . S
C1251 H1265 0.958 . S
C1251 H1266 0.961 . S
C1251 H1267 0.960 . S
H1252 C1236 0.931 . S
H1253 C1241 0.929 . S
H1254 C1242 0.960 . S
H1255 C1242 0.962 . S
H1256 C1242 0.960 . S
H1257 C1243 0.961 . S
H1258 C1243 0.961 . S
H1259 C1243 0.961 . S
H1260 C1244 0.931 . S
H1261 C1249 0.930 . S
H1262 C1250 0.956 . S
H1263 C1250 0.961 . S
H1264 C1250 0.961 . S
H1265 C1251 0.958 . S
H1266 C1251 0.961 . S
H1267 C1251 0.960 . S
C1268 C1269 1.391 . S
C1268 C1270 1.394 . S
C1268 H1284 0.931 . S
C1269 C1268 1.391 . S
C1269 C1273 1.376 . S
C1270 C1268 1.394 . S
C1270 C1271 1.369 . S
C1270 C1274 1.531 . S
C1271 C1270 1.369 . S
C1271 C1272 1.410 . S
C1271 C1279 1.503 . S
C1272 C1271 1.410 . S
C1272 C1273 1.392 . S
C1272 C1275 1.511 . S
C1273 C1269 1.376 . S
C1273 C1272 1.392 . S
C1273 H1285 0.929 . S
C1274 C1270 1.531 . S
C1274 H1286 0.960 . S
C1274 H1287 0.962 . S
C1274 H1288 0.960 . S
C1275 C1272 1.511 . S
C1275 H1289 0.961 . S
C1275 H1290 0.961 . S
C1275 H1291 0.961 . S
C1276 C1277 1.370 . S
C1276 C1278 1.363 . S
C1276 H1292 0.931 . S
C1277 C1276 1.370 . S
C1277 C1281 1.408 . S
C1278 C1276 1.363 . S
C1278 C1279 1.370 . S
C1278 C1282 1.524 . S
C1279 C1271 1.503 . S
C1279 C1278 1.370 . S
C1279 C1280 1.403 . S
C1280 C1279 1.403 . S
C1280 C1281 1.404 . S
C1280 C1283 1.539 . S
C1281 C1277 1.408 . S
C1281 C1280 1.404 . S
C1281 H1293 0.930 . S
C1282 C1278 1.524 . S
C1282 H1294 0.956 . S
C1282 H1295 0.961 . S
C1282 H1296 0.961 . S
C1283 C1280 1.539 . S
C1283 H1297 0.958 . S
C1283 H1298 0.961 . S
C1283 H1299 0.960 . S
H1284 C1268 0.931 . S
H1285 C1273 0.929 . S
H1286 C1274 0.960 . S
H1287 C1274 0.962 . S
H1288 C1274 0.960 . S
H1289 C1275 0.961 . S
H1290 C1275 0.961 . S
H1291 C1275 0.961 . S
H1292 C1276 0.931 . S
H1293 C1281 0.930 . S
H1294 C1282 0.956 . S
H1295 C1282 0.961 . S
H1296 C1282 0.961 . S
H1297 C1283 0.958 . S
H1298 C1283 0.961 . S
H1299 C1283 0.960 . S
C1300 C1301 1.391 . S
C1300 C1302 1.394 . S
C1300 H1316 0.931 . S
C1301 C1300 1.391 . S
C1301 C1305 1.376 . S
C1302 C1300 1.394 . S
C1302 C1303 1.369 . S
C1302 C1306 1.531 . S
C1303 C1302 1.369 . S
C1303 C1304 1.410 . S
C1303 C1311 1.503 . S
C1304 C1303 1.410 . S
C1304 C1305 1.392 . S
C1304 C1307 1.511 . S
C1305 C1301 1.376 . S
C1305 C1304 1.392 . S
C1305 H1317 0.929 . S
C1306 C1302 1.531 . S
C1306 H1318 0.960 . S
C1306 H1319 0.962 . S
C1306 H1320 0.960 . S
C1307 C1304 1.511 . S
C1307 H1321 0.961 . S
C1307 H1322 0.961 . S
C1307 H1323 0.961 . S
C1308 C1309 1.370 . S
C1308 C1310 1.363 . S
C1308 H1324 0.931 . S
C1309 C1308 1.370 . S
C1309 C1313 1.408 . S
C1310 C1308 1.363 . S
C1310 C1311 1.370 . S
C1310 C1314 1.524 . S
C1311 C1303 1.503 . S
C1311 C1310 1.370 . S
C1311 C1312 1.403 . S
C1312 C1311 1.403 . S
C1312 C1313 1.404 . S
C1312 C1315 1.539 . S
C1313 C1309 1.408 . S
C1313 C1312 1.404 . S
C1313 H1325 0.930 . S
C1314 C1310 1.524 . S
C1314 H1326 0.956 . S
C1314 H1327 0.961 . S
C1314 H1328 0.961 . S
C1315 C1312 1.539 . S
C1315 H1329 0.958 . S
C1315 H1330 0.961 . S
C1315 H1331 0.960 . S
H1316 C1300 0.931 . S
H1317 C1305 0.929 . S
H1318 C1306 0.960 . S
H1319 C1306 0.962 . S
H1320 C1306 0.960 . S
H1321 C1307 0.961 . S
H1322 C1307 0.961 . S
H1323 C1307 0.961 . S
H1324 C1308 0.931 . S
H1325 C1313 0.930 . S
H1326 C1314 0.956 . S
H1327 C1314 0.961 . S
H1328 C1314 0.961 . S
H1329 C1315 0.958 . S
H1330 C1315 0.961 . S
H1331 C1315 0.960 . S
C1332 C1333 1.391 . S
C1332 C1334 1.394 . S
C1332 H1348 0.931 . S
C1333 C1332 1.391 . S
C1333 C1337 1.376 . S
C1334 C1332 1.394 . S
C1334 C1335 1.369 . S
C1334 C1338 1.531 . S
C1335 C1334 1.369 . S
C1335 C1336 1.410 . S
C1335 C1343 1.503 . S
C1336 C1335 1.410 . S
C1336 C1337 1.392 . S
C1336 C1339 1.511 . S
C1337 C1333 1.376 . S
C1337 C1336 1.392 . S
C1337 H1349 0.929 . S
C1338 C1334 1.531 . S
C1338 H1350 0.960 . S
C1338 H1351 0.962 . S
C1338 H1352 0.960 . S
C1339 C1336 1.511 . S
C1339 H1353 0.961 . S
C1339 H1354 0.961 . S
C1339 H1355 0.961 . S
C1340 C1341 1.370 . S
C1340 C1342 1.363 . S
C1340 H1356 0.931 . S
C1341 C1340 1.370 . S
C1341 C1345 1.408 . S
C1342 C1340 1.363 . S
C1342 C1343 1.370 . S
C1342 C1346 1.524 . S
C1343 C1335 1.503 . S
C1343 C1342 1.370 . S
C1343 C1344 1.403 . S
C1344 C1343 1.403 . S
C1344 C1345 1.404 . S
C1344 C1347 1.539 . S
C1345 C1341 1.408 . S
C1345 C1344 1.404 . S
C1345 H1357 0.930 . S
C1346 C1342 1.524 . S
C1346 H1358 0.956 . S
C1346 H1359 0.961 . S
C1346 H1360 0.961 . S
C1347 C1344 1.539 . S
C1347 H1361 0.958 . S
C1347 H1362 0.961 . S
C1347 H1363 0.960 . S
H1348 C1332 0.931 . S
H1349 C1337 0.929 . S
H1350 C1338 0.960 . S
H1351 C1338 0.962 . S
H1352 C1338 0.960 . S
H1353 C1339 0.961 . S
H1354 C1339 0.961 . S
H1355 C1339 0.961 . S
H1356 C1340 0.931 . S
H1357 C1345 0.930 . S
H1358 C1346 0.956 . S
H1359 C1346 0.961 . S
H1360 C1346 0.961 . S
H1361 C1347 0.958 . S
H1362 C1347 0.961 . S
H1363 C1347 0.960 . S
C1364 C1365 1.391 . S
C1364 C1366 1.394 . S
C1364 H1380 0.931 . S
C1365 C1364 1.391 . S
C1365 C1369 1.376 . S
C1366 C1364 1.394 . S
C1366 C1367 1.369 . S
C1366 C1370 1.531 1_565 S
C1367 C1366 1.369 . S
C1367 C1368 1.410 . S
C1367 C1375 1.503 1_565 S
C1368 C1367 1.410 . S
C1368 C1369 1.392 . S
C1368 C1371 1.511 . S
C1369 C1365 1.376 . S
C1369 C1368 1.392 . S
C1369 H1381 0.929 . S
C1370 C1366 1.531 1_545 S
C1370 H1382 0.960 . S
C1370 H1383 0.962 . S
C1370 H1384 0.960 . S
C1371 C1368 1.511 . S
C1371 H1385 0.961 . S
C1371 H1386 0.961 . S
C1371 H1387 0.961 . S
C1372 C1373 1.370 . S
C1372 C1374 1.363 . S
C1372 H1388 0.931 . S
C1373 C1372 1.370 . S
C1373 C1377 1.408 . S
C1374 C1372 1.363 . S
C1374 C1375 1.370 . S
C1374 C1378 1.524 . S
C1375 C1367 1.503 1_545 S
C1375 C1374 1.370 . S
C1375 C1376 1.403 . S
C1376 C1375 1.403 . S
C1376 C1377 1.404 . S
C1376 C1379 1.539 . S
C1377 C1373 1.408 . S
C1377 C1376 1.404 . S
C1377 H1389 0.930 . S
C1378 C1374 1.524 . S
C1378 H1390 0.956 . S
C1378 H1391 0.961 1_545 S
C1378 H1392 0.961 . S
C1379 C1376 1.539 . S
C1379 H1393 0.958 . S
C1379 H1394 0.961 . S
C1379 H1395 0.960 1_545 S
H1380 C1364 0.931 . S
H1381 C1369 0.929 . S
H1382 C1370 0.960 . S
H1383 C1370 0.962 . S
H1384 C1370 0.960 . S
H1385 C1371 0.961 . S
H1386 C1371 0.961 . S
H1387 C1371 0.961 . S
H1388 C1372 0.931 . S
H1389 C1377 0.930 . S
H1390 C1378 0.956 . S
H1391 C1378 0.961 1_565 S
H1392 C1378 0.961 . S
H1393 C1379 0.958 . S
H1394 C1379 0.961 . S
H1395 C1379 0.960 1_565 S
C1396 C1397 1.391 . S
C1396 C1398 1.394 . S
C1396 H1412 0.931 . S
C1397 C1396 1.391 . S
C1397 C1401 1.376 . S
C1398 C1396 1.394 . S
C1398 C1399 1.369 . S
C1398 C1402 1.531 . S
C1399 C1398 1.369 . S
C1399 C1400 1.410 . S
C1399 C1407 1.503 1_455 S
C1400 C1399 1.410 . S
C1400 C1401 1.392 . S
C1400 C1403 1.511 1_455 S
C1401 C1397 1.376 . S
C1401 C1400 1.392 . S
C1401 H1413 0.929 . S
C1402 C1398 1.531 . S
C1402 H1414 0.960 . S
C1402 H1415 0.962 . S
C1402 H1416 0.960 . S
C1403 C1400 1.511 1_655 S
C1403 H1417 0.961 . S
C1403 H1418 0.961 . S
C1403 H1419 0.961 . S
C1404 C1405 1.370 . S
C1404 C1406 1.363 . S
C1404 H1420 0.931 . S
C1405 C1404 1.370 . S
C1405 C1409 1.408 . S
C1406 C1404 1.363 . S
C1406 C1407 1.370 . S
C1406 C1410 1.524 . S
C1407 C1399 1.503 1_655 S
C1407 C1406 1.370 . S
C1407 C1408 1.403 . S
C1408 C1407 1.403 . S
C1408 C1409 1.404 . S
C1408 C1411 1.539 . S
C1409 C1405 1.408 . S
C1409 C1408 1.404 . S
C1409 H1421 0.930 . S
C1410 C1406 1.524 . S
C1410 H1422 0.956 1_655 S
C1410 H1423 0.961 1_655 S
C1410 H1424 0.961 . S
C1411 C1408 1.539 . S
C1411 H1425 0.958 . S
C1411 H1426 0.961 . S
C1411 H1427 0.960 . S
H1412 C1396 0.931 . S
H1413 C1401 0.929 . S
H1414 C1402 0.960 . S
H1415 C1402 0.962 . S
H1416 C1402 0.960 . S
H1417 C1403 0.961 . S
H1418 C1403 0.961 . S
H1419 C1403 0.961 . S
H1420 C1404 0.931 . S
H1421 C1409 0.930 . S
H1422 C1410 0.956 1_455 S
H1423 C1410 0.961 1_455 S
H1424 C1410 0.961 . S
H1425 C1411 0.958 . S
H1426 C1411 0.961 . S
H1427 C1411 0.960 . S
C1428 C1429 1.391 . S
C1428 C1430 1.394 . S
C1428 H1444 0.931 . S
C1429 C1428 1.391 . S
C1429 C1433 1.376 . S
C1430 C1428 1.394 . S
C1430 C1431 1.369 . S
C1430 C1434 1.531 . S
C1431 C1430 1.369 . S
C1431 C1432 1.410 . S
C1431 C1439 1.503 . S
C1432 C1431 1.410 . S
C1432 C1433 1.392 . S
C1432 C1435 1.511 . S
C1433 C1429 1.376 . S
C1433 C1432 1.392 . S
C1433 H1445 0.929 . S
C1434 C1430 1.531 . S
C1434 H1446 0.960 . S
C1434 H1447 0.962 . S
C1434 H1448 0.960 . S
C1435 C1432 1.511 . S
C1435 H1449 0.961 . S
C1435 H1450 0.961 . S
C1435 H1451 0.961 . S
C1436 C1437 1.370 . S
C1436 C1438 1.363 . S
C1436 H1452 0.931 . S
C1437 C1436 1.370 . S
C1437 C1441 1.408 . S
C1438 C1436 1.363 . S
C1438 C1439 1.370 . S
C1438 C1442 1.524 . S
C1439 C1431 1.503 . S
C1439 C1438 1.370 . S
C1439 C1440 1.403 . S
C1440 C1439 1.403 . S
C1440 C1441 1.404 . S
C1440 C1443 1.539 . S
C1441 C1437 1.408 . S
C1441 C1440 1.404 . S
C1441 H1453 0.930 . S
C1442 C1438 1.524 . S
C1442 H1454 0.956 . S
C1442 H1455 0.961 . S
C1442 H1456 0.961 . S
C1443 C1440 1.539 . S
C1443 H1457 0.958 . S
C1443 H1458 0.961 . S
C1443 H1459 0.960 . S
H1444 C1428 0.931 . S
H1445 C1433 0.929 . S
H1446 C1434 0.960 . S
H1447 C1434 0.962 . S
H1448 C1434 0.960 . S
H1449 C1435 0.961 . S
H1450 C1435 0.961 . S
H1451 C1435 0.961 . S
H1452 C1436 0.931 . S
H1453 C1441 0.930 . S
H1454 C1442 0.956 . S
H1455 C1442 0.961 . S
H1456 C1442 0.961 . S
H1457 C1443 0.958 . S
H1458 C1443 0.961 . S
H1459 C1443 0.960 . S
C1460 C1461 1.391 . S
C1460 C1462 1.394 . S
C1460 H1476 0.931 . S
C1461 C1460 1.391 . S
C1461 C1465 1.376 . S
C1462 C1460 1.394 . S
C1462 C1463 1.369 . S
C1462 C1466 1.531 . S
C1463 C1462 1.369 . S
C1463 C1464 1.410 . S
C1463 C1471 1.503 1_565 S
C1464 C1463 1.410 . S
C1464 C1465 1.392 . S
C1464 C1467 1.511 1_565 S
C1465 C1461 1.376 . S
C1465 C1464 1.392 . S
C1465 H1477 0.929 . S
C1466 C1462 1.531 . S
C1466 H1478 0.960 . S
C1466 H1479 0.962 . S
C1466 H1480 0.960 . S
C1467 C1464 1.511 1_545 S
C1467 H1481 0.959 1_545 S
C1467 H1482 0.961 . S
C1467 H1483 0.961 . S
C1468 C1469 1.370 . S
C1468 C1470 1.363 . S
C1468 H1484 0.931 . S
C1469 C1468 1.370 . S
C1469 C1473 1.408 . S
C1470 C1468 1.363 . S
C1470 C1471 1.370 . S
C1470 C1474 1.524 1_545 S
C1471 C1463 1.503 1_545 S
C1471 C1470 1.370 . S
C1471 C1472 1.403 . S
C1472 C1471 1.403 . S
C1472 C1473 1.404 . S
C1472 C1475 1.539 . S
C1473 C1469 1.408 . S
C1473 C1472 1.404 . S
C1473 H1485 0.930 . S
C1474 C1470 1.524 1_565 S
C1474 H1486 0.956 . S
C1474 H1487 0.961 . S
C1474 H1488 0.961 . S
C1475 C1472 1.539 . S
C1475 H1489 0.958 . S
C1475 H1490 0.961 . S
C1475 H1491 0.960 . S
H1476 C1460 0.931 . S
H1477 C1465 0.929 . S
H1478 C1466 0.960 . S
H1479 C1466 0.962 . S
H1480 C1466 0.960 . S
H1481 C1467 0.959 1_565 S
H1482 C1467 0.961 . S
H1483 C1467 0.961 . S
H1484 C1468 0.931 . S
H1485 C1473 0.930 . S
H1486 C1474 0.956 . S
H1487 C1474 0.961 . S
H1488 C1474 0.961 . S
H1489 C1475 0.958 . S
H1490 C1475 0.961 . S
H1491 C1475 0.960 . S
C1492 C1493 1.391 . S
C1492 C1494 1.394 . S
C1492 H1508 0.931 . S
C1493 C1492 1.391 . S
C1493 C1497 1.376 . S
C1494 C1492 1.394 . S
C1494 C1495 1.369 . S
C1494 C1498 1.531 . S
C1495 C1494 1.369 . S
C1495 C1496 1.410 . S
C1495 C1503 1.503 1_655 S
C1496 C1495 1.410 . S
C1496 C1497 1.392 . S
C1496 C1499 1.511 1_655 S
C1497 C1493 1.376 . S
C1497 C1496 1.392 . S
C1497 H1509 0.929 . S
C1498 C1494 1.531 . S
C1498 H1510 0.960 . S
C1498 H1511 0.962 . S
C1498 H1512 0.960 . S
C1499 C1496 1.511 1_455 S
C1499 H1513 0.961 . S
C1499 H1514 0.961 . S
C1499 H1515 0.961 . S
C1500 C1501 1.370 . S
C1500 C1502 1.363 . S
C1500 H1516 0.931 . S
C1501 C1500 1.370 . S
C1501 C1505 1.408 . S
C1502 C1500 1.363 . S
C1502 C1503 1.370 . S
C1502 C1506 1.524 . S
C1503 C1495 1.503 1_455 S
C1503 C1502 1.370 . S
C1503 C1504 1.403 . S
C1504 C1503 1.403 . S
C1504 C1505 1.404 . S
C1504 C1507 1.539 . S
C1505 C1501 1.408 . S
C1505 C1504 1.404 . S
C1505 H1517 0.930 . S
C1506 C1502 1.524 . S
C1506 H1518 0.956 . S
C1506 H1519 0.961 . S
C1506 H1520 0.961 . S
C1507 C1504 1.539 . S
C1507 H1521 0.958 1_455 S
C1507 H1522 0.961 . S
C1507 H1523 0.960 1_455 S
H1508 C1492 0.931 . S
H1509 C1497 0.929 . S
H1510 C1498 0.960 . S
H1511 C1498 0.962 . S
H1512 C1498 0.960 . S
H1513 C1499 0.961 . S
H1514 C1499 0.961 . S
H1515 C1499 0.961 . S
H1516 C1500 0.931 . S
H1517 C1505 0.930 . S
H1518 C1506 0.956 . S
H1519 C1506 0.961 . S
H1520 C1506 0.961 . S
H1521 C1507 0.958 1_655 S
H1522 C1507 0.961 . S
H1523 C1507 0.960 1_655 S
C1524 C1525 1.391 . S
C1524 C1526 1.394 . S
C1524 H1540 0.931 . S
C1525 C1524 1.391 . S
C1525 C1529 1.376 . S
C1526 C1524 1.394 . S
C1526 C1527 1.369 . S
C1526 C1530 1.531 . S
C1527 C1526 1.369 . S
C1527 C1528 1.410 . S
C1527 C1535 1.503 . S
C1528 C1527 1.410 . S
C1528 C1529 1.392 . S
C1528 C1531 1.511 . S
C1529 C1525 1.376 . S
C1529 C1528 1.392 . S
C1529 H1541 0.929 . S
C1530 C1526 1.531 . S
C1530 H1542 0.960 . S
C1530 H1543 0.962 . S
C1530 H1544 0.960 . S
C1531 C1528 1.511 . S
C1531 H1545 0.961 . S
C1531 H1546 0.961 . S
C1531 H1547 0.961 . S
C1532 C1533 1.370 . S
C1532 C1534 1.363 . S
C1532 H1548 0.931 . S
C1533 C1532 1.370 . S
C1533 C1537 1.408 1_556 S
C1534 C1532 1.363 . S
C1534 C1535 1.370 . S
C1534 C1538 1.524 . S
C1535 C1527 1.503 . S
C1535 C1534 1.370 . S
C1535 C1536 1.403 . S
C1536 C1535 1.403 . S
C1536 C1537 1.404 1_556 S
C1536 C1539 1.539 . S
C1537 C1533 1.408 1_554 S
C1537 C1536 1.404 1_554 S
C1537 H1549 0.930 . S
C1538 C1534 1.524 . S
C1538 H1550 0.956 . S
C1538 H1551 0.961 . S
C1538 H1552 0.961 . S
C1539 C1536 1.539 . S
C1539 H1553 0.958 . S
C1539 H1554 0.961 1_556 S
C1539 H1555 0.960 . S
H1540 C1524 0.931 . S
H1541 C1529 0.929 . S
H1542 C1530 0.960 . S
H1543 C1530 0.962 . S
H1544 C1530 0.960 . S
H1545 C1531 0.961 . S
H1546 C1531 0.961 . S
H1547 C1531 0.961 . S
H1548 C1532 0.931 . S
H1549 C1537 0.930 . S
H1550 C1538 0.956 . S
H1551 C1538 0.961 . S
H1552 C1538 0.961 . S
H1553 C1539 0.958 . S
H1554 C1539 0.961 1_554 S
H1555 C1539 0.960 . S
C1556 C1557 1.391 . S
C1556 C1558 1.394 . S
C1556 H1572 0.931 1_556 S
C1557 C1556 1.391 . S
C1557 C1561 1.376 . S
C1558 C1556 1.394 . S
C1558 C1559 1.369 . S
C1558 C1562 1.531 . S
C1559 C1558 1.369 . S
C1559 C1560 1.410 . S
C1559 C1567 1.503 . S
C1560 C1559 1.410 . S
C1560 C1561 1.392 . S
C1560 C1563 1.511 . S
C1561 C1557 1.376 . S
C1561 C1560 1.392 . S
C1561 H1573 0.929 . S
C1562 C1558 1.531 . S
C1562 H1574 0.960 . S
C1562 H1575 0.962 . S
C1562 H1576 0.960 . S
C1563 C1560 1.511 . S
C1563 H1577 0.961 . S
C1563 H1578 0.961 . S
C1563 H1579 0.961 . S
C1564 C1565 1.370 . S
C1564 C1566 1.363 . S
C1564 H1580 0.931 . S
C1565 C1564 1.370 . S
C1565 C1569 1.408 . S
C1566 C1564 1.363 . S
C1566 C1567 1.370 . S
C1566 C1570 1.524 . S
C1567 C1559 1.503 . S
C1567 C1566 1.370 . S
C1567 C1568 1.403 . S
C1568 C1567 1.403 . S
C1568 C1569 1.404 . S
C1568 C1571 1.539 . S
C1569 C1565 1.408 . S
C1569 C1568 1.404 . S
C1569 H1581 0.930 . S
C1570 C1566 1.524 . S
C1570 H1582 0.956 . S
C1570 H1583 0.961 . S
C1570 H1584 0.961 . S
C1571 C1568 1.539 . S
C1571 H1585 0.958 . S
C1571 H1586 0.961 . S
C1571 H1587 0.960 . S
H1572 C1556 0.931 1_554 S
H1573 C1561 0.929 . S
H1574 C1562 0.960 . S
H1575 C1562 0.962 . S
H1576 C1562 0.960 . S
H1577 C1563 0.961 . S
H1578 C1563 0.961 . S
H1579 C1563 0.961 . S
H1580 C1564 0.931 . S
H1581 C1569 0.930 . S
H1582 C1570 0.956 . S
H1583 C1570 0.961 . S
H1584 C1570 0.961 . S
H1585 C1571 0.958 . S
H1586 C1571 0.961 . S
H1587 C1571 0.960 . S
C1588 C1589 1.391 1_554 S
C1588 C1590 1.394 1_554 S
C1588 H1604 0.931 . S
C1589 C1588 1.391 1_556 S
C1589 C1593 1.376 . S
C1590 C1588 1.394 1_556 S
C1590 C1591 1.369 . S
C1590 C1594 1.531 . S
C1591 C1590 1.369 . S
C1591 C1592 1.410 . S
C1591 C1599 1.503 . S
C1592 C1591 1.410 . S
C1592 C1593 1.392 . S
C1592 C1595 1.511 . S
C1593 C1589 1.376 . S
C1593 C1592 1.392 . S
C1593 H1605 0.929 . S
C1594 C1590 1.531 . S
C1594 H1606 0.960 . S
C1594 H1607 0.962 . S
C1594 H1608 0.960 1_556 S
C1595 C1592 1.511 . S
C1595 H1609 0.961 . S
C1595 H1610 0.961 . S
C1595 H1611 0.961 . S
C1596 C1597 1.370 . S
C1596 C1598 1.363 . S
C1596 H1612 0.931 . S
C1597 C1596 1.370 . S
C1597 C1601 1.408 . S
C1598 C1596 1.363 . S
C1598 C1599 1.370 . S
C1598 C1602 1.524 . S
C1599 C1591 1.503 . S
C1599 C1598 1.370 . S
C1599 C1600 1.403 . S
C1600 C1599 1.403 . S
C1600 C1601 1.404 . S
C1600 C1603 1.539 . S
C1601 C1597 1.408 . S
C1601 C1600 1.404 . S
C1601 H1613 0.930 . S
C1602 C1598 1.524 . S
C1602 H1614 0.956 . S
C1602 H1615 0.961 . S
C1602 H1616 0.961 . S
C1603 C1600 1.539 . S
C1603 H1617 0.958 . S
C1603 H1618 0.961 . S
C1603 H1619 0.960 . S
H1604 C1588 0.931 . S
H1605 C1593 0.929 . S
H1606 C1594 0.960 . S
H1607 C1594 0.962 . S
H1608 C1594 0.960 1_554 S
H1609 C1595 0.961 . S
H1610 C1595 0.961 . S
H1611 C1595 0.961 . S
H1612 C1596 0.931 . S
H1613 C1601 0.930 . S
H1614 C1602 0.956 . S
H1615 C1602 0.961 . S
H1616 C1602 0.961 . S
H1617 C1603 0.958 . S
H1618 C1603 0.961 . S
H1619 C1603 0.960 . S
C1620 C1621 1.391 . S
C1620 C1622 1.394 . S
C1620 H1636 0.931 . S
C1621 C1620 1.391 . S
C1621 C1625 1.376 . S
C1622 C1620 1.394 . S
C1622 C1623 1.369 . S
C1622 C1626 1.531 . S
C1623 C1622 1.369 . S
C1623 C1624 1.410 . S
C1623 C1631 1.503 . S
C1624 C1623 1.410 . S
C1624 C1625 1.392 . S
C1624 C1627 1.511 . S
C1625 C1621 1.376 . S
C1625 C1624 1.392 . S
C1625 H1637 0.929 . S
C1626 C1622 1.531 . S
C1626 H1638 0.960 . S
C1626 H1639 0.962 . S
C1626 H1640 0.960 . S
C1627 C1624 1.511 . S
C1627 H1641 0.961 . S
C1627 H1642 0.961 . S
C1627 H1643 0.961 . S
C1628 C1629 1.370 . S
C1628 C1630 1.363 . S
C1628 H1644 0.931 . S
C1629 C1628 1.370 . S
C1629 C1633 1.408 . S
C1630 C1628 1.363 . S
C1630 C1631 1.370 . S
C1630 C1634 1.524 . S
C1631 C1623 1.503 . S
C1631 C1630 1.370 . S
C1631 C1632 1.403 . S
C1632 C1631 1.403 . S
C1632 C1633 1.404 . S
C1632 C1635 1.539 . S
C1633 C1629 1.408 . S
C1633 C1632 1.404 . S
C1633 H1645 0.930 . S
C1634 C1630 1.524 . S
C1634 H1646 0.956 . S
C1634 H1647 0.961 . S
C1634 H1648 0.961 . S
C1635 C1632 1.539 . S
C1635 H1649 0.958 . S
C1635 H1650 0.961 . S
C1635 H1651 0.960 . S
H1636 C1620 0.931 . S
H1637 C1625 0.929 . S
H1638 C1626 0.960 . S
H1639 C1626 0.962 . S
H1640 C1626 0.960 . S
H1641 C1627 0.961 . S
H1642 C1627 0.961 . S
H1643 C1627 0.961 . S
H1644 C1628 0.931 . S
H1645 C1633 0.930 . S
H1646 C1634 0.956 . S
H1647 C1634 0.961 . S
H1648 C1634 0.961 . S
H1649 C1635 0.958 . S
H1650 C1635 0.961 . S
H1651 C1635 0.960 . S
C1652 C1653 1.391 . S
C1652 C1654 1.394 . S
C1652 H1668 0.931 . S
C1653 C1652 1.391 . S
C1653 C1657 1.376 . S
C1654 C1652 1.394 . S
C1654 C1655 1.369 . S
C1654 C1658 1.531 . S
C1655 C1654 1.369 . S
C1655 C1656 1.410 . S
C1655 C1663 1.503 . S
C1656 C1655 1.410 . S
C1656 C1657 1.392 . S
C1656 C1659 1.511 . S
C1657 C1653 1.376 . S
C1657 C1656 1.392 . S
C1657 H1669 0.929 . S
C1658 C1654 1.531 . S
C1658 H1670 0.960 . S
C1658 H1671 0.962 . S
C1658 H1672 0.960 . S
C1659 C1656 1.511 . S
C1659 H1673 0.961 . S
C1659 H1674 0.961 . S
C1659 H1675 0.961 . S
C1660 C1661 1.370 . S
C1660 C1662 1.363 . S
C1660 H1676 0.931 . S
C1661 C1660 1.370 . S
C1661 C1665 1.408 . S
C1662 C1660 1.363 . S
C1662 C1663 1.370 . S
C1662 C1666 1.524 . S
C1663 C1655 1.503 . S
C1663 C1662 1.370 . S
C1663 C1664 1.403 . S
C1664 C1663 1.403 . S
C1664 C1665 1.404 . S
C1664 C1667 1.539 . S
C1665 C1661 1.408 . S
C1665 C1664 1.404 . S
C1665 H1677 0.930 . S
C1666 C1662 1.524 . S
C1666 H1678 0.956 . S
C1666 H1679 0.961 . S
C1666 H1680 0.961 . S
C1667 C1664 1.539 . S
C1667 H1681 0.958 . S
C1667 H1682 0.961 . S
C1667 H1683 0.960 . S
H1668 C1652 0.931 . S
H1669 C1657 0.929 . S
H1670 C1658 0.960 . S
H1671 C1658 0.962 . S
H1672 C1658 0.960 . S
H1673 C1659 0.961 . S
H1674 C1659 0.961 . S
H1675 C1659 0.961 . S
H1676 C1660 0.931 . S
H1677 C1665 0.930 . S
H1678 C1666 0.956 . S
H1679 C1666 0.961 . S
H1680 C1666 0.961 . S
H1681 C1667 0.958 . S
H1682 C1667 0.961 . S
H1683 C1667 0.960 . S
C1684 C1685 1.391 . S
C1684 C1686 1.394 . S
C1684 H1700 0.931 . S
C1685 C1684 1.391 . S
C1685 C1689 1.376 . S
C1686 C1684 1.394 . S
C1686 C1687 1.369 . S
C1686 C1690 1.531 . S
C1687 C1686 1.369 . S
C1687 C1688 1.410 . S
C1687 C1695 1.503 . S
C1688 C1687 1.410 . S
C1688 C1689 1.392 . S
C1688 C1691 1.511 . S
C1689 C1685 1.376 . S
C1689 C1688 1.392 . S
C1689 H1701 0.929 . S
C1690 C1686 1.531 . S
C1690 H1702 0.960 . S
C1690 H1703 0.962 . S
C1690 H1704 0.960 . S
C1691 C1688 1.511 . S
C1691 H1705 0.961 . S
C1691 H1706 0.961 . S
C1691 H1707 0.961 . S
C1692 C1693 1.370 . S
C1692 C1694 1.363 . S
C1692 H1708 0.931 . S
C1693 C1692 1.370 . S
C1693 C1697 1.408 . S
C1694 C1692 1.363 . S
C1694 C1695 1.370 . S
C1694 C1698 1.524 . S
C1695 C1687 1.503 . S
C1695 C1694 1.370 . S
C1695 C1696 1.403 . S
C1696 C1695 1.403 . S
C1696 C1697 1.404 . S
C1696 C1699 1.539 . S
C1697 C1693 1.408 . S
C1697 C1696 1.404 . S
C1697 H1709 0.930 . S
C1698 C1694 1.524 . S
C1698 H1710 0.956 . S
C1698 H1711 0.961 . S
C1698 H1712 0.961 . S
C1699 C1696 1.539 . S
C1699 H1713 0.958 . S
C1699 H1714 0.961 . S
C1699 H1715 0.960 . S
H1700 C1684 0.931 . S
H1701 C1689 0.929 . S
H1702 C1690 0.960 . S
H1703 C1690 0.962 . S
H1704 C1690 0.960 . S
H1705 C1691 0.961 . S
H1706 C1691 0.961 . S
H1707 C1691 0.961 . S
H1708 C1692 0.931 . S
H1709 C1697 0.930 . S
H1710 C1698 0.956 . S
H1711 C1698 0.961 . S
H1712 C1698 0.961 . S
H1713 C1699 0.958 . S
H1714 C1699 0.961 . S
H1715 C1699 0.960 . S
C1716 C1717 1.391 . S
C1716 C1718 1.394 . S
C1716 H1732 0.931 . S
C1717 C1716 1.391 . S
C1717 C1721 1.376 . S
C1718 C1716 1.394 . S
C1718 C1719 1.369 . S
C1718 C1722 1.531 . S
C1719 C1718 1.369 . S
C1719 C1720 1.410 . S
C1719 C1727 1.503 . S
C1720 C1719 1.410 . S
C1720 C1721 1.392 . S
C1720 C1723 1.511 . S
C1721 C1717 1.376 . S
C1721 C1720 1.392 . S
C1721 H1733 0.929 1_554 S
C1722 C1718 1.531 . S
C1722 H1734 0.960 . S
C1722 H1735 0.962 . S
C1722 H1736 0.960 . S
C1723 C1720 1.511 . S
C1723 H1737 0.961 . S
C1723 H1738 0.961 . S
C1723 H1739 0.961 . S
C1724 C1725 1.370 . S
C1724 C1726 1.363 . S
C1724 H1740 0.931 . S
C1725 C1724 1.370 . S
C1725 C1729 1.408 . S
C1726 C1724 1.363 . S
C1726 C1727 1.370 . S
C1726 C1730 1.524 . S
C1727 C1719 1.503 . S
C1727 C1726 1.370 . S
C1727 C1728 1.403 . S
C1728 C1727 1.403 . S
C1728 C1729 1.404 . S
C1728 C1731 1.539 . S
C1729 C1725 1.408 . S
C1729 C1728 1.404 . S
C1729 H1741 0.930 . S
C1730 C1726 1.524 . S
C1730 H1742 0.956 . S
C1730 H1743 0.961 . S
C1730 H1744 0.961 . S
C1731 C1728 1.539 . S
C1731 H1745 0.958 . S
C1731 H1746 0.961 . S
C1731 H1747 0.960 . S
H1732 C1716 0.931 . S
H1733 C1721 0.929 1_556 S
H1734 C1722 0.960 . S
H1735 C1722 0.962 . S
H1736 C1722 0.960 . S
H1737 C1723 0.961 . S
H1738 C1723 0.961 . S
H1739 C1723 0.961 . S
H1740 C1724 0.931 . S
H1741 C1729 0.930 . S
H1742 C1730 0.956 . S
H1743 C1730 0.961 . S
H1744 C1730 0.961 . S
H1745 C1731 0.958 . S
H1746 C1731 0.961 . S
H1747 C1731 0.960 . S
C1748 C1749 1.391 1_556 S
C1748 C1750 1.394 1_556 S
C1748 H1764 0.931 . S
C1749 C1748 1.391 1_554 S
C1749 C1753 1.376 . S
C1750 C1748 1.394 1_554 S
C1750 C1751 1.369 . S
C1750 C1754 1.531 . S
C1751 C1750 1.369 . S
C1751 C1752 1.410 . S
C1751 C1759 1.503 . S
C1752 C1751 1.410 . S
C1752 C1753 1.392 . S
C1752 C1755 1.511 . S
C1753 C1749 1.376 . S
C1753 C1752 1.392 . S
C1753 H1765 0.929 . S
C1754 C1750 1.531 . S
C1754 H1766 0.960 . S
C1754 H1767 0.962 . S
C1754 H1768 0.960 1_554 S
C1755 C1752 1.511 . S
C1755 H1769 0.961 . S
C1755 H1770 0.961 . S
C1755 H1771 0.961 . S
C1756 C1757 1.370 . S
C1756 C1758 1.363 . S
C1756 H1772 0.931 . S
C1757 C1756 1.370 . S
C1757 C1761 1.408 . S
C1758 C1756 1.363 . S
C1758 C1759 1.370 . S
C1758 C1762 1.524 . S
C1759 C1751 1.503 . S
C1759 C1758 1.370 . S
C1759 C1760 1.403 . S
C1760 C1759 1.403 . S
C1760 C1761 1.404 . S
C1760 C1763 1.539 . S
C1761 C1757 1.408 . S
C1761 C1760 1.404 . S
C1761 H1773 0.930 . S
C1762 C1758 1.524 . S
C1762 H1774 0.956 . S
C1762 H1775 0.961 . S
C1762 H1776 0.961 . S
C1763 C1760 1.539 . S
C1763 H1777 0.958 . S
C1763 H1778 0.961 . S
C1763 H1779 0.960 . S
H1764 C1748 0.931 . S
H1765 C1753 0.929 . S
H1766 C1754 0.960 . S
H1767 C1754 0.962 . S
H1768 C1754 0.960 1_556 S
H1769 C1755 0.961 . S
H1770 C1755 0.961 . S
H1771 C1755 0.961 . S
H1772 C1756 0.931 . S
H1773 C1761 0.930 . S
H1774 C1762 0.956 . S
H1775 C1762 0.961 . S
H1776 C1762 0.961 . S
H1777 C1763 0.958 . S
H1778 C1763 0.961 . S
H1779 C1763 0.960 . S
C1780 C1781 1.391 . S
C1780 C1782 1.394 . S
C1780 H1796 0.931 1_554 S
C1781 C1780 1.391 . S
C1781 C1785 1.376 . S
C1782 C1780 1.394 . S
C1782 C1783 1.369 . S
C1782 C1786 1.531 . S
C1783 C1782 1.369 . S
C1783 C1784 1.410 . S
C1783 C1791 1.503 . S
C1784 C1783 1.410 . S
C1784 C1785 1.392 . S
C1784 C1787 1.511 . S
C1785 C1781 1.376 . S
C1785 C1784 1.392 . S
C1785 H1797 0.929 . S
C1786 C1782 1.531 . S
C1786 H1798 0.960 . S
C1786 H1799 0.962 . S
C1786 H1800 0.960 . S
C1787 C1784 1.511 . S
C1787 H1801 0.961 . S
C1787 H1802 0.961 . S
C1787 H1803 0.961 . S
C1788 C1789 1.370 . S
C1788 C1790 1.363 . S
C1788 H1804 0.931 . S
C1789 C1788 1.370 . S
C1789 C1793 1.408 . S
C1790 C1788 1.363 . S
C1790 C1791 1.370 . S
C1790 C1794 1.524 . S
C1791 C1783 1.503 . S
C1791 C1790 1.370 . S
C1791 C1792 1.403 . S
C1792 C1791 1.403 . S
C1792 C1793 1.404 . S
C1792 C1795 1.539 . S
C1793 C1789 1.408 . S
C1793 C1792 1.404 . S
C1793 H1805 0.930 . S
C1794 C1790 1.524 . S
C1794 H1806 0.956 . S
C1794 H1807 0.961 . S
C1794 H1808 0.961 . S
C1795 C1792 1.539 . S
C1795 H1809 0.958 . S
C1795 H1810 0.961 . S
C1795 H1811 0.960 . S
H1796 C1780 0.931 1_556 S
H1797 C1785 0.929 . S
H1798 C1786 0.960 . S
H1799 C1786 0.962 . S
H1800 C1786 0.960 . S
H1801 C1787 0.961 . S
H1802 C1787 0.961 . S
H1803 C1787 0.961 . S
H1804 C1788 0.931 . S
H1805 C1793 0.930 . S
H1806 C1794 0.956 . S
H1807 C1794 0.961 . S
H1808 C1794 0.961 . S
H1809 C1795 0.958 . S
H1810 C1795 0.961 . S
H1811 C1795 0.960 . S
C1812 C1813 1.391 . S
C1812 C1814 1.394 . S
C1812 H1828 0.931 . S
C1813 C1812 1.391 . S
C1813 C1817 1.376 . S
C1814 C1812 1.394 . S
C1814 C1815 1.369 . S
C1814 C1818 1.531 . S
C1815 C1814 1.369 . S
C1815 C1816 1.410 . S
C1815 C1823 1.503 . S
C1816 C1815 1.410 . S
C1816 C1817 1.392 . S
C1816 C1819 1.511 . S
C1817 C1813 1.376 . S
C1817 C1816 1.392 . S
C1817 H1829 0.929 . S
C1818 C1814 1.531 . S
C1818 H1830 0.960 . S
C1818 H1831 0.962 . S
C1818 H1832 0.960 . S
C1819 C1816 1.511 . S
C1819 H1833 0.961 . S
C1819 H1834 0.961 . S
C1819 H1835 0.961 . S
C1820 C1821 1.370 . S
C1820 C1822 1.363 . S
C1820 H1836 0.931 . S
C1821 C1820 1.370 . S
C1821 C1825 1.408 . S
C1822 C1820 1.363 . S
C1822 C1823 1.370 . S
C1822 C1826 1.524 . S
C1823 C1815 1.503 . S
C1823 C1822 1.370 . S
C1823 C1824 1.403 . S
C1824 C1823 1.403 . S
C1824 C1825 1.404 . S
C1824 C1827 1.539 . S
C1825 C1821 1.408 . S
C1825 C1824 1.404 . S
C1825 H1837 0.930 . S
C1826 C1822 1.524 . S
C1826 H1838 0.956 . S
C1826 H1839 0.961 . S
C1826 H1840 0.961 . S
C1827 C1824 1.539 . S
C1827 H1841 0.958 . S
C1827 H1842 0.961 . S
C1827 H1843 0.960 . S
H1828 C1812 0.931 . S
H1829 C1817 0.929 . S
H1830 C1818 0.960 . S
H1831 C1818 0.962 . S
H1832 C1818 0.960 . S
H1833 C1819 0.961 . S
H1834 C1819 0.961 . S
H1835 C1819 0.961 . S
H1836 C1820 0.931 . S
H1837 C1825 0.930 . S
H1838 C1826 0.956 . S
H1839 C1826 0.961 . S
H1840 C1826 0.961 . S
H1841 C1827 0.958 . S
H1842 C1827 0.961 . S
H1843 C1827 0.960 . S
C1844 C1845 1.391 . S
C1844 C1846 1.394 . S
C1844 H1860 0.931 . S
C1845 C1844 1.391 . S
C1845 C1849 1.376 . S
C1846 C1844 1.394 . S
C1846 C1847 1.369 . S
C1846 C1850 1.531 . S
C1847 C1846 1.369 . S
C1847 C1848 1.410 . S
C1847 C1855 1.503 . S
C1848 C1847 1.410 . S
C1848 C1849 1.392 . S
C1848 C1851 1.511 . S
C1849 C1845 1.376 . S
C1849 C1848 1.392 . S
C1849 H1861 0.929 . S
C1850 C1846 1.531 . S
C1850 H1862 0.960 . S
C1850 H1863 0.962 . S
C1850 H1864 0.960 . S
C1851 C1848 1.511 . S
C1851 H1865 0.961 . S
C1851 H1866 0.961 . S
C1851 H1867 0.961 . S
C1852 C1853 1.370 . S
C1852 C1854 1.363 . S
C1852 H1868 0.931 . S
C1853 C1852 1.370 . S
C1853 C1857 1.408 . S
C1854 C1852 1.363 . S
C1854 C1855 1.370 . S
C1854 C1858 1.524 . S
C1855 C1847 1.503 . S
C1855 C1854 1.370 . S
C1855 C1856 1.403 . S
C1856 C1855 1.403 . S
C1856 C1857 1.404 . S
C1856 C1859 1.539 . S
C1857 C1853 1.408 . S
C1857 C1856 1.404 . S
C1857 H1869 0.930 . S
C1858 C1854 1.524 . S
C1858 H1870 0.956 . S
C1858 H1871 0.961 . S
C1858 H1872 0.961 . S
C1859 C1856 1.539 . S
C1859 H1873 0.958 . S
C1859 H1874 0.961 . S
C1859 H1875 0.960 . S
H1860 C1844 0.931 . S
H1861 C1849 0.929 . S
H1862 C1850 0.960 . S
H1863 C1850 0.962 . S
H1864 C1850 0.960 . S
H1865 C1851 0.961 . S
H1866 C1851 0.961 . S
H1867 C1851 0.961 . S
H1868 C1852 0.931 . S
H1869 C1857 0.930 . S
H1870 C1858 0.956 . S
H1871 C1858 0.961 . S
H1872 C1858 0.961 . S
H1873 C1859 0.958 . S
H1874 C1859 0.961 . S
H1875 C1859 0.960 . S
C1876 C1877 1.391 . S
C1876 C1878 1.394 . S
C1876 H1892 0.931 . S
C1877 C1876 1.391 . S
C1877 C1881 1.376 . S
C1878 C1876 1.394 . S
C1878 C1879 1.369 . S
C1878 C1882 1.531 . S
C1879 C1878 1.369 . S
C1879 C1880 1.410 . S
C1879 C1887 1.503 . S
C1880 C1879 1.410 . S
C1880 C1881 1.392 . S
C1880 C1883 1.511 . S
C1881 C1877 1.376 . S
C1881 C1880 1.392 . S
C1881 H1893 0.929 . S
C1882 C1878 1.531 . S
C1882 H1894 0.960 . S
C1882 H1895 0.962 . S
C1882 H1896 0.960 . S
C1883 C1880 1.511 . S
C1883 H1897 0.961 . S
C1883 H1898 0.961 . S
C1883 H1899 0.961 . S
C1884 C1885 1.370 . S
C1884 C1886 1.363 . S
C1884 H1900 0.931 . S
C1885 C1884 1.370 . S
C1885 C1889 1.408 . S
C1886 C1884 1.363 . S
C1886 C1887 1.370 . S
C1886 C1890 1.524 . S
C1887 C1879 1.503 . S
C1887 C1886 1.370 . S
C1887 C1888 1.403 . S
C1888 C1887 1.403 . S
C1888 C1889 1.404 . S
C1888 C1891 1.539 . S
C1889 C1885 1.408 . S
C1889 C1888 1.404 . S
C1889 H1901 0.930 . S
C1890 C1886 1.524 . S
C1890 H1902 0.956 . S
C1890 H1903 0.961 . S
C1890 H1904 0.961 . S
C1891 C1888 1.539 . S
C1891 H1905 0.958 . S
C1891 H1906 0.961 . S
C1891 H1907 0.960 . S
H1892 C1876 0.931 . S
H1893 C1881 0.929 . S
H1894 C1882 0.960 . S
H1895 C1882 0.962 . S
H1896 C1882 0.960 . S
H1897 C1883 0.961 . S
H1898 C1883 0.961 . S
H1899 C1883 0.961 . S
H1900 C1884 0.931 . S
H1901 C1889 0.930 . S
H1902 C1890 0.956 . S
H1903 C1890 0.961 . S
H1904 C1890 0.961 . S
H1905 C1891 0.958 . S
H1906 C1891 0.961 . S
H1907 C1891 0.960 . S
C373 C24 1.298 . S
C381 C42 1.146 . S
C405 C73 1.172 . S
C413 C55 1.293 . S
C437 C86 1.284 . S
C445 C11 1.165 . S
C469 C166 1.083 . S
C477 C117 1.285 . S
C501 C104 1.085 . S
C509 C148 1.284 . S
C533 C179 1.289 . S
C541 C135 1.110 . S
C565 C186 1.286 . S
C573 C235 1.161 . S
C597 C266 1.200 . S
C605 C217 1.286 . S
C629 C248 1.295 . S
C637 C204 1.147 . S
C661 C279 1.300 . S
C669 C359 1.124 . S
C693 C297 1.200 . S
C701 C310 1.286 . S
C725 C328 1.085 . S
C733 C341 1.294 . S
C757 C210 1.258 . S
C765 C0 1.167 . S
C789 C31 1.120 . S
C797 C241 1.223 . S
C821 C62 1.119 . S
C829 C272 1.221 . S
C853 C93 1.223 . S
C861 C303 1.176 . S
C885 C124 1.227 . S
C893 C334 1.175 . S
C917 C365 1.124 . S
C925 C155 1.222 . S
C949 C1 1.031 1_556 S
C957 C281 1.051 . S
C981 C32 1.064 1_556 S
C989 C312 1.030 . S
C1013 C343 1.040 . S
C1021 C63 1.048 1_556 S
C1045 C188 1.068 . S
C1053 C94 1.042 . S
C1077 C219 1.038 . S
C1085 C125 1.046 . S
C1109 C250 0.993 . S
C1117 C156 1.062 . S
C1141 C103 1.000 . S
C1149 C213 1.043 1_554 S
C1173 C244 1.062 1_554 S
C1181 C134 1.020 . S
C1205 C275 1.021 1_554 S
C1213 C165 1.054 . S
C1237 C10 1.066 . S
C1245 C306 1.054 . S
C1269 C337 1.069 . S
C1277 C41 1.041 . S
C1301 C72 1.076 . S
C1309 C368 1.046 . S
C1333 C111 2.279 . S
C1341 C18 2.282 . S
C1365 C142 2.291 . S
C1373 C49 2.277 . S
C1397 C173 2.241 . S
C1405 C80 2.266 . S
C1429 C197 2.241 . S
C1437 C290 2.264 . S
C1461 C228 2.274 . S
C1469 C321 2.280 . S
C1493 C352 2.291 . S
C1501 C259 2.279 . S
C1525 C311 1.514 . S
C1533 C2 1.617 1_556 S
C1557 C33 1.639 1_556 S
C1565 C342 1.479 . S
C1589 C64 1.613 1_556 S
C1597 C280 1.498 . S
C1621 C95 1.597 . S
C1629 C249 1.505 . S
C1653 C187 1.492 . S
C1661 C126 1.629 . S
C1685 C218 1.492 . S
C1693 C157 1.629 . S
C1717 C196 1.596 1_554 S
C1725 C151 1.502 . S
C1749 C227 1.631 1_554 S
C1757 C182 1.467 . S
C1781 C258 1.640 1_554 S
C1789 C120 1.464 . S
C1813 C89 1.502 . S
C1821 C289 1.617 . S
C1845 C27 1.515 . S
C1853 C320 1.616 . S
C1877 C58 1.517 . S
C1885 C351 1.626 . S
