# Generated by pormake.
# Topology smw, (6)-cn, num edge types: 1
# Building blocks:
#     Node 0, Type 0, BuildingBlock: OJICUG_clean_sbu_0, # of connection points: 6
#     Node 1, Type 0, BuildingBlock: OJICUG_clean_sbu_0, # of connection points: 6
#     Node 2, Type 0, BuildingBlock: OJICUG_clean_sbu_0, # of connection points: 6
#     Node 3, Type 0, BuildingBlock: OJICUG_clean_sbu_0, # of connection points: 6
#     Node 4, Type 0, BuildingBlock: OJICUG_clean_sbu_0, # of connection points: 6
#     Node 5, Type 0, BuildingBlock: OJICUG_clean_sbu_0, # of connection points: 6
#     Node 6, Type 0, BuildingBlock: OJICUG_clean_sbu_0, # of connection points: 6
#     Node 7, Type 0, BuildingBlock: OJICUG_clean_sbu_0, # of connection points: 6
#     Node 8, Type 0, BuildingBlock: OJICUG_clean_sbu_0, # of connection points: 6
#     Node 9, Type 0, BuildingBlock: OJICUG_clean_sbu_0, # of connection points: 6
#     Node 10, Type 0, BuildingBlock: OJICUG_clean_sbu_0, # of connection points: 6
#     Node 11, Type 0, BuildingBlock: OJICUG_clean_sbu_0, # of connection points: 6
#     Edge 12, Type (0, 0), BuildingBlock: EYOCIG_clean_linker_4, # of connection points: 2
#     Edge 13, Type (0, 0), BuildingBlock: EYOCIG_clean_linker_4, # of connection points: 2
#     Edge 14, Type (0, 0), BuildingBlock: EYOCIG_clean_linker_4, # of connection points: 2
#     Edge 15, Type (0, 0), BuildingBlock: EYOCIG_clean_linker_4, # of connection points: 2
#     Edge 16, Type (0, 0), BuildingBlock: EYOCIG_clean_linker_4, # of connection points: 2
#     Edge 17, Type (0, 0), BuildingBlock: EYOCIG_clean_linker_4, # of connection points: 2
#     Edge 18, Type (0, 0), BuildingBlock: EYOCIG_clean_linker_4, # of connection points: 2
#     Edge 19, Type (0, 0), BuildingBlock: EYOCIG_clean_linker_4, # of connection points: 2
#     Edge 20, Type (0, 0), BuildingBlock: EYOCIG_clean_linker_4, # of connection points: 2
#     Edge 21, Type (0, 0), BuildingBlock: EYOCIG_clean_linker_4, # of connection points: 2
#     Edge 22, Type (0, 0), BuildingBlock: EYOCIG_clean_linker_4, # of connection points: 2
#     Edge 23, Type (0, 0), BuildingBlock: EYOCIG_clean_linker_4, # of connection points: 2
#     Edge 24, Type (0, 0), BuildingBlock: EYOCIG_clean_linker_4, # of connection points: 2
#     Edge 25, Type (0, 0), BuildingBlock: EYOCIG_clean_linker_4, # of connection points: 2
#     Edge 26, Type (0, 0), BuildingBlock: EYOCIG_clean_linker_4, # of connection points: 2
#     Edge 27, Type (0, 0), BuildingBlock: EYOCIG_clean_linker_4, # of connection points: 2
#     Edge 28, Type (0, 0), BuildingBlock: EYOCIG_clean_linker_4, # of connection points: 2
#     Edge 29, Type (0, 0), BuildingBlock: EYOCIG_clean_linker_4, # of connection points: 2
#     Edge 30, Type (0, 0), BuildingBlock: EYOCIG_clean_linker_4, # of connection points: 2
#     Edge 31, Type (0, 0), BuildingBlock: EYOCIG_clean_linker_4, # of connection points: 2
#     Edge 32, Type (0, 0), BuildingBlock: EYOCIG_clean_linker_4, # of connection points: 2
#     Edge 33, Type (0, 0), BuildingBlock: EYOCIG_clean_linker_4, # of connection points: 2
#     Edge 34, Type (0, 0), BuildingBlock: EYOCIG_clean_linker_4, # of connection points: 2
#     Edge 35, Type (0, 0), BuildingBlock: EYOCIG_clean_linker_4, # of connection points: 2
#     Edge 36, Type (0, 0), BuildingBlock: EYOCIG_clean_linker_4, # of connection points: 2
#     Edge 37, Type (0, 0), BuildingBlock: EYOCIG_clean_linker_4, # of connection points: 2
#     Edge 38, Type (0, 0), BuildingBlock: EYOCIG_clean_linker_4, # of connection points: 2
#     Edge 39, Type (0, 0), BuildingBlock: EYOCIG_clean_linker_4, # of connection points: 2
#     Edge 40, Type (0, 0), BuildingBlock: EYOCIG_clean_linker_4, # of connection points: 2
#     Edge 41, Type (0, 0), BuildingBlock: EYOCIG_clean_linker_4, # of connection points: 2
#     Edge 42, Type (0, 0), BuildingBlock: EYOCIG_clean_linker_4, # of connection points: 2
#     Edge 43, Type (0, 0), BuildingBlock: EYOCIG_clean_linker_4, # of connection points: 2
#     Edge 44, Type (0, 0), BuildingBlock: EYOCIG_clean_linker_4, # of connection points: 2
#     Edge 45, Type (0, 0), BuildingBlock: EYOCIG_clean_linker_4, # of connection points: 2
#     Edge 46, Type (0, 0), BuildingBlock: EYOCIG_clean_linker_4, # of connection points: 2
#     Edge 47, Type (0, 0), BuildingBlock: EYOCIG_clean_linker_4, # of connection points: 2
# Relax obj value: 0.103
# Max RMSD: 0.108
# Mean RMSD: 0.108
data_MOF--net-smw--node1-OJICUG_clean_sbu_0--edge1-EYOCIG_clean_linker_4
_symmetry_space_group_name_H-M    P1
_symmetry_Int_Tables_number       1
_symmetry_cell_setting            triclinic
loop_
_symmetry_equiv_pos_as_xyz
'x, y, z'
_cell_length_a     44.913948
_cell_length_b     44.926136
_cell_length_c     18.409571
_cell_angle_alpha  90.004244
_cell_angle_beta   89.991266
_cell_angle_gamma 120.00604
loop_
_atom_site_label
_atom_site_type_symbol
_atom_site_fract_x
_atom_site_fract_y
_atom_site_fract_z
_atom_type_partial_charge
Sc0 Sc 0.48286 0.16063 -0.01924 0.0
Sc1 Sc 0.39282 0.10382 -0.01895 0.0
Sc2 Sc 0.44982 0.07105 -0.01861 0.0
O3 O 0.44181 0.11184 -0.01894 0.0
C4 C 0.50793 0.12237 0.87196 0.0
C5 C 0.43109 0.16688 0.87156 0.0
C6 C 0.38643 0.04562 0.87258 0.0
C7 C 0.43118 0.16723 0.08963 0.0
C8 C 0.508 0.1227 0.09027 0.0
C9 C 0.38654 0.04598 0.09042 0.0
O10 O 0.50919 0.1494 0.89641 0.0
O11 O 0.40407 0.14118 0.89636 0.0
O12 O 0.41236 0.04481 0.89743 0.0
O13 O 0.4611 0.17728 0.06482 0.0
O14 O 0.48815 0.09277 0.0656 0.0
O15 O 0.37608 0.06555 0.06579 0.0
O16 O 0.50925 0.14966 0.0654 0.0
O17 O 0.40415 0.14146 0.06513 0.0
O18 O 0.41243 0.04507 0.06561 0.0
O19 O 0.46103 0.17701 0.89634 0.0
O20 O 0.4881 0.09251 0.89699 0.0
O21 O 0.376 0.06526 0.8969 0.0
Sc22 Sc 0.31562 0.48601 0.98052 0.0
Sc23 Sc 0.28256 0.39603 -0.01882 0.0
Sc24 Sc 0.37232 0.45314 0.98057 0.0
O25 O 0.32347 0.44504 0.98075 0.0
C26 C 0.37873 0.51105 0.87104 0.0
C27 C 0.25736 0.43404 0.87199 0.0
C28 C 0.33419 0.38962 0.87215 0.0
C29 C 0.25766 0.43442 0.09006 0.0
C30 C 0.37899 0.51141 0.08934 0.0
C31 C 0.33447 0.38999 0.09 0.0
O32 O 0.35297 0.51228 0.89576 0.0
O33 O 0.25617 0.40709 0.89681 0.0
O34 O 0.36097 0.4156 0.89674 0.0
O35 O 0.27742 0.46431 0.06502 0.0
O36 O 0.38907 0.49157 0.0646 0.0
O37 O 0.30437 0.37946 0.06566 0.0
O38 O 0.35318 0.51256 0.06474 0.0
O39 O 0.2564 0.40739 0.06557 0.0
O40 O 0.36119 0.41588 0.06493 0.0
O41 O 0.2772 0.46402 0.89653 0.0
O42 O 0.38887 0.49129 0.89599 0.0
O43 O 0.30415 0.37917 0.89677 0.0
Sc44 Sc 0.82272 0.3186 0.98074 0.0
Sc45 Sc 0.8798 0.28571 -0.01915 0.0
Sc46 Sc 0.91229 0.37542 0.98042 0.0
O47 O 0.87159 0.32654 0.98067 0.0
C48 C 0.86058 0.38173 0.87134 0.0
C49 C 0.81648 0.26048 0.8719 0.0
C50 C 0.93768 0.33742 0.87163 0.0
C51 C 0.81656 0.26065 0.08997 0.0
C52 C 0.86072 0.38192 0.08962 0.0
C53 C 0.93783 0.33766 0.0895 0.0
O54 O 0.83364 0.35595 0.89614 0.0
O55 O 0.84228 0.25932 0.89657 0.0
O56 O 0.93844 0.36416 0.89632 0.0
O57 O 0.80635 0.28038 0.06509 0.0
O58 O 0.89063 0.39207 0.06469 0.0
O59 O 0.91826 0.30756 0.0652 0.0
O60 O 0.83375 0.35609 0.0651 0.0
O61 O 0.84235 0.25946 0.06536 0.0
O62 O 0.93858 0.36434 0.06452 0.0
O63 O 0.8063 0.28025 0.89662 0.0
O64 O 0.89052 0.39191 0.8961 0.0
O65 O 0.91817 0.30738 0.89629 0.0
Sc66 Sc 0.49785 0.82617 -0.01898 0.0
Sc67 Sc 0.58789 0.88296 0.98071 0.0
Sc68 Sc 0.53092 0.91576 0.98056 0.0
O69 O 0.53891 0.87496 -0.01924 0.0
C70 C 0.4727 0.86416 0.87168 0.0
C71 C 0.54949 0.81961 0.87197 0.0
C72 C 0.5942 0.94089 0.87154 0.0
C73 C 0.54963 0.81985 0.09005 0.0
C74 C 0.47281 0.86441 0.08999 0.0
C75 C 0.59429 0.9411 0.08938 0.0
O76 O 0.47144 0.83719 0.8965 0.0
O77 O 0.57654 0.84537 0.89648 0.0
O78 O 0.5683 0.94178 0.89637 0.0
O79 O 0.51968 0.80974 0.06533 0.0
O80 O 0.49264 0.89428 0.06497 0.0
O81 O 0.60472 0.92146 0.06499 0.0
O82 O 0.47155 0.83738 0.06549 0.0
O83 O 0.57664 0.84555 0.06526 0.0
O84 O 0.56837 0.94194 0.06454 0.0
O85 O 0.51958 0.80955 0.89684 0.0
O86 O 0.49257 0.89409 0.89635 0.0
O87 O 0.60464 0.92129 0.89609 0.0
Sc88 Sc 0.66515 0.50079 -0.0187 0.0
Sc89 Sc 0.69815 0.59076 0.98066 0.0
Sc90 Sc 0.6084 0.5336 -0.01898 0.0
O91 O 0.65726 0.54174 -0.019 0.0
C92 C 0.60184 0.47536 0.8723 0.0
C93 C 0.72314 0.55243 0.87189 0.0
C94 C 0.64628 0.59678 0.87169 0.0
C95 C 0.72333 0.55278 0.08994 0.0
C96 C 0.60198 0.4757 0.09059 0.0
C97 C 0.64643 0.5971 0.08952 0.0
O98 O 0.62764 0.47422 0.897 0.0
O99 O 0.72436 0.57944 0.89635 0.0
O100 O 0.61956 0.57087 0.89667 0.0
O101 O 0.70353 0.5228 0.06538 0.0
O102 O 0.59182 0.49543 0.06558 0.0
O103 O 0.67648 0.60757 0.06499 0.0
O104 O 0.62776 0.4745 0.06598 0.0
O105 O 0.72452 0.57972 0.0651 0.0
O106 O 0.61967 0.57112 0.06486 0.0
O107 O 0.70339 0.52253 0.8969 0.0
O108 O 0.59173 0.49519 0.89697 0.0
O109 O 0.67636 0.60733 0.89612 0.0
Sc110 Sc 0.15797 0.66821 -0.019 0.0
Sc111 Sc 0.1009 0.70111 -0.01904 0.0
Sc112 Sc 0.0684 0.6114 -0.01839 0.0
O113 O 0.1091 0.66027 -0.01881 0.0
C114 C 0.11989 0.60482 0.8723 0.0
C115 C 0.16405 0.72607 0.87161 0.0
C116 C 0.04279 0.6491 0.87255 0.0
C117 C 0.16431 0.72641 0.08968 0.0
C118 C 0.12019 0.60515 0.09059 0.0
C119 C 0.0431 0.64948 0.09041 0.0
O120 O 0.14688 0.63066 0.89673 0.0
O121 O 0.13827 0.72728 0.89629 0.0
O122 O 0.04206 0.62242 0.89755 0.0
O123 O 0.17446 0.70662 0.06499 0.0
O124 O 0.09023 0.59496 0.06591 0.0
O125 O 0.0626 0.6795 0.06567 0.0
O126 O 0.14711 0.63091 0.06569 0.0
O127 O 0.1385 0.72757 0.06508 0.0
O128 O 0.04231 0.62272 0.06575 0.0
O129 O 0.17427 0.70637 0.89653 0.0
O130 O 0.09 0.59469 0.89732 0.0
O131 O 0.06237 0.67921 0.89677 0.0
Sc132 Sc 0.91237 0.53351 0.48094 0.0
Sc133 Sc 0.87999 0.59083 0.48116 0.0
Sc134 Sc 0.82282 0.50088 0.48051 0.0
O135 O 0.87172 0.54176 0.48086 0.0
C136 C 0.86081 0.47565 0.37136 0.0
C137 C 0.93805 0.59703 0.37244 0.0
C138 C 0.81684 0.55293 0.37173 0.0
C139 C 0.93776 0.59669 0.5903 0.0
C140 C 0.86054 0.47535 0.58965 0.0
C141 C 0.81657 0.55259 0.5898 0.0
O142 O 0.89072 0.49534 0.39639 0.0
O143 O 0.91852 0.60757 0.39693 0.0
O144 O 0.80659 0.52295 0.39635 0.0
O145 O 0.93852 0.57075 0.5653 0.0
O146 O 0.83363 0.47427 0.5649 0.0
O147 O 0.84241 0.57959 0.56538 0.0
O148 O 0.8905 0.49512 0.56498 0.0
O149 O 0.91829 0.6073 0.56583 0.0
O150 O 0.80637 0.52269 0.5648 0.0
O151 O 0.93873 0.571 0.39711 0.0
O152 O 0.83385 0.47452 0.39593 0.0
O153 O 0.84263 0.57985 0.39659 0.0
Sc154 Sc 0.37228 0.91574 0.48127 0.0
Sc155 Sc 0.28248 0.88287 0.48108 0.0
Sc156 Sc 0.31577 0.82613 0.48071 0.0
O157 O 0.32348 0.8749 0.48102 0.0
C158 C 0.37907 0.86444 0.37178 0.0
C159 C 0.33424 0.9411 0.37257 0.0
C160 C 0.2577 0.81982 0.37161 0.0
C161 C 0.33407 0.94075 0.5904 0.0
C162 C 0.3789 0.86413 0.59009 0.0
C163 C 0.25749 0.81947 0.58967 0.0
O164 O 0.38909 0.8943 0.39681 0.0
O165 O 0.30417 0.92143 0.39694 0.0
O166 O 0.27752 0.80971 0.39635 0.0
O167 O 0.36087 0.94168 0.56555 0.0
O168 O 0.35318 0.83715 0.56527 0.0
O169 O 0.2562 0.84522 0.56518 0.0
O170 O 0.38896 0.89405 0.56542 0.0
O171 O 0.30403 0.92114 0.56582 0.0
O172 O 0.27738 0.80945 0.56484 0.0
O173 O 0.36101 0.94194 0.39736 0.0
O174 O 0.35331 0.8374 0.3963 0.0
O175 O 0.25637 0.84551 0.39642 0.0
Sc176 Sc 0.45008 0.37525 0.48153 0.0
Sc177 Sc 0.39295 0.28551 0.48087 0.0
Sc178 Sc 0.48296 0.31855 0.48103 0.0
O179 O 0.44197 0.3264 0.48115 0.0
C180 C 0.50826 0.38195 0.37235 0.0
C181 C 0.38683 0.33746 0.37234 0.0
C182 C 0.43123 0.26065 0.3716 0.0
C183 C 0.38664 0.33709 0.59019 0.0
C184 C 0.50811 0.38159 0.59067 0.0
C185 C 0.43109 0.26029 0.58967 0.0
O186 O 0.48845 0.39203 0.39733 0.0
O187 O 0.37631 0.30736 0.3966 0.0
O188 O 0.46116 0.28039 0.39652 0.0
O189 O 0.41261 0.36387 0.56555 0.0
O190 O 0.50933 0.35586 0.56578 0.0
O191 O 0.4041 0.2591 0.56505 0.0
O192 O 0.48832 0.39174 0.56594 0.0
O193 O 0.37617 0.30707 0.56549 0.0
O194 O 0.46104 0.28012 0.565 0.0
O195 O 0.41275 0.36416 0.39737 0.0
O196 O 0.50942 0.35613 0.39679 0.0
O197 O 0.40422 0.25938 0.39627 0.0
Sc198 Sc 0.06832 0.45328 0.48091 0.0
Sc199 Sc 0.10074 0.39599 0.48072 0.0
Sc200 Sc 0.15787 0.48594 0.48139 0.0
O201 O 0.10898 0.44505 0.481 0.0
C202 C 0.12014 0.51145 0.37221 0.0
C203 C 0.04293 0.39007 0.37161 0.0
C204 C 0.16417 0.43425 0.3721 0.0
C205 C 0.04268 0.38979 0.58948 0.0
C206 C 0.11984 0.51115 0.59049 0.0
C207 C 0.16387 0.43391 0.59018 0.0
O208 O 0.09017 0.49166 0.39684 0.0
O209 O 0.06242 0.37949 0.39607 0.0
O210 O 0.17436 0.46415 0.39712 0.0
O211 O 0.04199 0.4158 0.56478 0.0
O212 O 0.14682 0.51229 0.56596 0.0
O213 O 0.1381 0.40699 0.56529 0.0
O214 O 0.08995 0.49145 0.56543 0.0
O215 O 0.06222 0.37925 0.56499 0.0
O216 O 0.17411 0.46389 0.56558 0.0
O217 O 0.04217 0.41601 0.39658 0.0
O218 O 0.14705 0.51254 0.39699 0.0
O219 O 0.13832 0.40725 0.39649 0.0
Sc220 Sc 0.60843 0.07106 0.4807 0.0
Sc221 Sc 0.69823 0.10393 0.48069 0.0
Sc222 Sc 0.66494 0.16066 0.48107 0.0
O223 O 0.65723 0.1119 0.48082 0.0
C224 C 0.60173 0.12262 0.37187 0.0
C225 C 0.64658 0.04597 0.37158 0.0
C226 C 0.72311 0.16724 0.37191 0.0
C227 C 0.64655 0.04578 0.58942 0.0
C228 C 0.60171 0.1224 0.59018 0.0
C229 C 0.72311 0.16707 0.58997 0.0
O230 O 0.59169 0.0927 0.39656 0.0
O231 O 0.67662 0.06558 0.39612 0.0
O232 O 0.70326 0.17729 0.3968 0.0
O233 O 0.61976 0.0449 0.56463 0.0
O234 O 0.62746 0.14944 0.56561 0.0
O235 O 0.72442 0.14137 0.56519 0.0
O236 O 0.59167 0.09254 0.56517 0.0
O237 O 0.67661 0.06545 0.565 0.0
O238 O 0.70325 0.17715 0.56528 0.0
O239 O 0.61979 0.04506 0.39644 0.0
O240 O 0.62746 0.1496 0.39663 0.0
O241 O 0.72442 0.14151 0.39643 0.0
Sc242 Sc 0.53071 0.61156 0.48027 0.0
Sc243 Sc 0.58779 0.70131 0.48087 0.0
Sc244 Sc 0.49777 0.6682 0.48061 0.0
O245 O 0.53878 0.66039 0.48059 0.0
C246 C 0.47269 0.60515 0.37104 0.0
C247 C 0.59414 0.64973 0.37161 0.0
C248 C 0.54963 0.72645 0.37195 0.0
C249 C 0.59395 0.6494 0.58946 0.0
C250 C 0.47249 0.60482 0.58936 0.0
C251 C 0.54945 0.72615 0.59003 0.0
O252 O 0.49248 0.59502 0.39584 0.0
O253 O 0.6046 0.67976 0.39628 0.0
O254 O 0.51968 0.70661 0.39661 0.0
O255 O 0.56804 0.62269 0.56445 0.0
O256 O 0.47131 0.63063 0.56486 0.0
O257 O 0.57648 0.72744 0.56541 0.0
O258 O 0.49233 0.59476 0.56445 0.0
O259 O 0.60445 0.6795 0.56519 0.0
O260 O 0.51953 0.70638 0.56509 0.0
O261 O 0.56818 0.62295 0.39627 0.0
O262 O 0.47145 0.63087 0.39587 0.0
O263 O 0.57662 0.72768 0.39663 0.0
C264 C 0.42657 0.20191 0.20052 0.0
C265 C 0.42797 0.18564 0.14992 0.0
C266 C 0.42658 0.22155 0.2603 0.0
C267 C 0.42799 0.23913 0.31109 0.0
C268 C 0.19881 0.42969 0.26105 0.0
C269 C 0.18254 0.43104 0.31172 0.0
C270 C 0.2185 0.42978 0.20126 0.0
C271 C 0.23612 0.43122 0.15051 0.0
C272 C 0.78203 0.22148 0.20112 0.0
C273 C 0.79825 0.23908 0.1504 0.0
C274 C 0.76235 0.20186 0.26089 0.0
C275 C 0.7447 0.18564 0.31155 0.0
C276 C 0.55435 0.76574 0.261 0.0
C277 C 0.55293 0.74809 0.31163 0.0
C278 C 0.55433 0.78538 0.20122 0.0
C279 C 0.55289 0.80155 0.15049 0.0
C280 C 0.76271 0.5577 0.20091 0.0
C281 C 0.74501 0.55618 0.15026 0.0
C282 C 0.78241 0.55778 0.26065 0.0
C283 C 0.79861 0.55634 0.31134 0.0
C284 C 0.21855 0.78538 0.26036 0.0
C285 C 0.23615 0.80154 0.31113 0.0
C286 C 0.1989 0.76575 0.20059 0.0
C287 C 0.18265 0.74807 0.14998 0.0
C288 C 0.55406 0.76529 0.70124 0.0
C289 C 0.55266 0.74769 0.65049 0.0
C290 C 0.55407 0.78495 0.761 0.0
C291 C 0.55268 0.8012 0.81164 0.0
C292 C 0.76232 0.5571 0.76072 0.0
C293 C 0.74469 0.55565 0.81145 0.0
C294 C 0.78199 0.55718 0.70091 0.0
C295 C 0.79823 0.55582 0.65021 0.0
C296 C 0.21818 0.7848 0.70055 0.0
C297 C 0.23587 0.80105 0.64995 0.0
C298 C 0.1985 0.76517 0.76032 0.0
C299 C 0.18231 0.7476 0.8111 0.0
C300 C 0.42636 0.22095 0.70055 0.0
C301 C 0.42779 0.23863 0.64995 0.0
C302 C 0.42638 0.20131 0.76031 0.0
C303 C 0.42782 0.18515 0.81108 0.0
C304 C 0.19828 0.42908 0.70132 0.0
C305 C 0.18209 0.43051 0.6506 0.0
C306 C 0.21797 0.42914 0.76107 0.0
C307 C 0.23568 0.43066 0.8117 0.0
C308 C 0.78197 0.22122 0.76086 0.0
C309 C 0.79818 0.23886 0.81153 0.0
C310 C 0.76232 0.20158 0.70108 0.0
C311 C 0.7447 0.18538 0.65037 0.0
C312 C 0.34505 0.98234 0.26162 0.0
C313 C 0.33842 0.96297 0.31213 0.0
C314 C 0.35631 0.00498 0.20182 0.0
C315 C 0.36892 0.02425 0.15111 0.0
C316 C 0.35669 0.3485 0.26115 0.0
C317 C 0.36929 0.34177 0.31175 0.0
C318 C 0.34541 0.35985 0.20132 0.0
C319 C 0.33874 0.37247 0.15065 0.0
C320 C 0.00178 0.35998 0.26032 0.0
C321 C 0.0211 0.37255 0.31097 0.0
C322 C 0.9791 0.34868 0.20055 0.0
C323 C 0.95973 0.34198 0.15 0.0
C324 C 0.62457 0.98228 0.20049 0.0
C325 C 0.61193 0.96293 0.14992 0.0
C326 C 0.63584 0.00492 0.2603 0.0
C327 C 0.64244 0.0242 0.31096 0.0
C328 C 0.63565 0.62753 0.20053 0.0
C329 C 0.64226 0.61479 0.14999 0.0
C330 C 0.6244 0.63893 0.26033 0.0
C331 C 0.61178 0.64561 0.31099 0.0
C332 C 0.97936 0.62735 0.26149 0.0
C333 C 0.95997 0.61468 0.312 0.0
C334 C 0.00203 0.63868 0.20171 0.0
C335 C 0.02132 0.64532 0.15104 0.0
C336 C 0.63576 0.0046 0.70046 0.0
C337 C 0.64239 0.02394 0.64991 0.0
C338 C 0.62447 0.98195 0.76026 0.0
C339 C 0.61183 0.96266 0.81091 0.0
C340 C 0.63538 0.62698 0.76041 0.0
C341 C 0.64203 0.61434 0.81106 0.0
C342 C 0.62411 0.63836 0.70061 0.0
C343 C 0.61151 0.64511 0.65003 0.0
C344 C 0.97885 0.62673 0.70171 0.0
C345 C 0.95956 0.61417 0.651 0.0
C346 C 0.0015 0.63802 0.76151 0.0
C347 C 0.02088 0.64475 0.81205 0.0
C348 C 0.34479 0.98173 0.70179 0.0
C349 C 0.33818 0.96247 0.65109 0.0
C350 C 0.3561 0.00438 0.76159 0.0
C351 C 0.36878 0.02374 0.81211 0.0
C352 C 0.34497 0.3592 0.76113 0.0
C353 C 0.33833 0.37191 0.81168 0.0
C354 C 0.35629 0.34785 0.70136 0.0
C355 C 0.36896 0.34121 0.65075 0.0
C356 C 0.97879 0.34824 0.76037 0.0
C357 C 0.95949 0.34161 0.81103 0.0
C358 C 0.00144 0.35953 0.70056 0.0
C359 C 0.0208 0.37217 0.64999 0.0
C360 C 0.54731 0.12737 0.20131 0.0
C361 C 0.52966 0.126 0.15064 0.0
C362 C 0.56702 0.12732 0.26099 0.0
C363 C 0.5833 0.12589 0.31159 0.0
C364 C 0.41374 0.55085 0.20014 0.0
C365 C 0.39743 0.53313 0.14959 0.0
C366 C 0.43346 0.57059 0.25985 0.0
C367 C 0.45108 0.58682 0.31058 0.0
C368 C 0.85612 0.43637 0.26026 0.0
C369 C 0.85754 0.45403 0.31095 0.0
C370 C 0.85608 0.41663 0.20055 0.0
C371 C 0.85746 0.40033 0.14994 0.0
C372 C 0.41385 0.85996 0.26075 0.0
C373 C 0.39755 0.86131 0.31141 0.0
C374 C 0.43357 0.85994 0.20104 0.0
C375 C 0.45121 0.86127 0.15038 0.0
C376 C 0.56735 0.43647 0.20176 0.0
C377 C 0.5836 0.4541 0.15104 0.0
C378 C 0.54762 0.41674 0.26147 0.0
C379 C 0.52993 0.40042 0.31206 0.0
C380 C 0.125 0.5509 0.26134 0.0
C381 C 0.12354 0.53318 0.31193 0.0
C382 C 0.12501 0.57063 0.20165 0.0
C383 C 0.12356 0.58685 0.15097 0.0
C384 C 0.43334 0.85947 0.76072 0.0
C385 C 0.45102 0.86088 0.81135 0.0
C386 C 0.41359 0.85945 0.70104 0.0
C387 C 0.3973 0.86085 0.65042 0.0
C388 C 0.56714 0.43589 0.76149 0.0
C389 C 0.58343 0.45362 0.81205 0.0
C390 C 0.54741 0.41615 0.7018 0.0
C391 C 0.52976 0.39991 0.65109 0.0
C392 C 0.12448 0.55038 0.70164 0.0
C393 C 0.12308 0.53275 0.65093 0.0
C394 C 0.12449 0.5701 0.76136 0.0
C395 C 0.12311 0.58639 0.81198 0.0
C396 C 0.56696 0.12688 0.70127 0.0
C397 C 0.58326 0.12554 0.65058 0.0
C398 C 0.54722 0.12686 0.76098 0.0
C399 C 0.52956 0.12551 0.81161 0.0
C400 C 0.43309 0.57001 0.70018 0.0
C401 C 0.4508 0.58635 0.64962 0.0
C402 C 0.41334 0.55028 0.75987 0.0
C403 C 0.39709 0.53265 0.81059 0.0
C404 C 0.85572 0.43594 0.70056 0.0
C405 C 0.85715 0.45364 0.64996 0.0
C406 C 0.85576 0.41625 0.76028 0.0
C407 C 0.85723 0.40004 0.81096 0.0
loop_
_geom_bond_atom_site_label_1
_geom_bond_atom_site_label_2
_geom_bond_distance
_geom_bond_site_symmetry_2
_ccdc_geom_bond_type
Sc0 O3 2.025 . S
Sc0 O10 2.105 1_554 S
Sc0 O13 2.105 . S
Sc0 O16 2.105 . S
Sc0 O19 2.105 1_554 S
Sc1 O3 2.025 . S
Sc1 O11 2.105 1_554 S
Sc1 O15 2.105 . S
Sc1 O17 2.105 . S
Sc1 O21 2.105 1_554 S
Sc2 O3 2.025 . S
Sc2 O12 2.105 1_554 S
Sc2 O14 2.105 . S
Sc2 O18 2.105 . S
Sc2 O20 2.105 1_554 S
O3 Sc0 2.025 . S
O3 Sc1 2.025 . S
O3 Sc2 2.025 . S
C4 O10 1.268 . S
C4 O20 1.268 . S
C5 O11 1.268 . S
C5 O19 1.268 . S
C6 O12 1.268 . S
C6 O21 1.268 . S
C7 O13 1.268 . S
C7 O17 1.268 . S
C8 O14 1.268 . S
C8 O16 1.268 . S
C9 O15 1.268 . S
C9 O18 1.268 . S
O10 Sc0 2.105 1_556 S
O10 C4 1.268 . S
O11 Sc1 2.105 1_556 S
O11 C5 1.268 . S
O12 Sc2 2.105 1_556 S
O12 C6 1.268 . S
O13 Sc0 2.105 . S
O13 C7 1.268 . S
O14 Sc2 2.105 . S
O14 C8 1.268 . S
O15 Sc1 2.105 . S
O15 C9 1.268 . S
O16 Sc0 2.105 . S
O16 C8 1.268 . S
O17 Sc1 2.105 . S
O17 C7 1.268 . S
O18 Sc2 2.105 . S
O18 C9 1.268 . S
O19 Sc0 2.105 1_556 S
O19 C5 1.268 . S
O20 Sc2 2.105 1_556 S
O20 C4 1.268 . S
O21 Sc1 2.105 1_556 S
O21 C6 1.268 . S
Sc22 O25 2.025 . S
Sc22 O32 2.105 1_554 S
Sc22 O35 2.105 . S
Sc22 O38 2.105 . S
Sc22 O41 2.105 1_554 S
Sc23 O25 2.025 . S
Sc23 O33 2.105 1_554 S
Sc23 O37 2.105 . S
Sc23 O39 2.105 . S
Sc23 O43 2.105 1_554 S
Sc24 O25 2.025 . S
Sc24 O34 2.105 1_554 S
Sc24 O36 2.105 . S
Sc24 O40 2.105 . S
Sc24 O42 2.105 1_554 S
O25 Sc22 2.025 . S
O25 Sc23 2.025 . S
O25 Sc24 2.025 . S
C26 O32 1.268 . S
C26 O42 1.268 . S
C27 O33 1.268 . S
C27 O41 1.268 . S
C28 O34 1.268 . S
C28 O43 1.268 . S
C29 O35 1.268 . S
C29 O39 1.268 . S
C30 O36 1.268 . S
C30 O38 1.268 . S
C31 O37 1.268 . S
C31 O40 1.268 . S
O32 Sc22 2.105 1_556 S
O32 C26 1.268 . S
O33 Sc23 2.105 1_556 S
O33 C27 1.268 . S
O34 Sc24 2.105 1_556 S
O34 C28 1.268 . S
O35 Sc22 2.105 . S
O35 C29 1.268 . S
O36 Sc24 2.105 . S
O36 C30 1.268 . S
O37 Sc23 2.105 . S
O37 C31 1.268 . S
O38 Sc22 2.105 . S
O38 C30 1.268 . S
O39 Sc23 2.105 . S
O39 C29 1.268 . S
O40 Sc24 2.105 . S
O40 C31 1.268 . S
O41 Sc22 2.105 1_556 S
O41 C27 1.268 . S
O42 Sc24 2.105 1_556 S
O42 C26 1.268 . S
O43 Sc23 2.105 1_556 S
O43 C28 1.268 . S
Sc44 O47 2.025 . S
Sc44 O54 2.105 1_554 S
Sc44 O57 2.105 . S
Sc44 O60 2.105 . S
Sc44 O63 2.105 1_554 S
Sc45 O47 2.025 . S
Sc45 O55 2.105 1_554 S
Sc45 O59 2.105 . S
Sc45 O61 2.105 . S
Sc45 O65 2.105 1_554 S
Sc46 O47 2.025 . S
Sc46 O56 2.105 1_554 S
Sc46 O58 2.105 . S
Sc46 O62 2.105 . S
Sc46 O64 2.105 1_554 S
O47 Sc44 2.025 . S
O47 Sc45 2.025 . S
O47 Sc46 2.025 . S
C48 O54 1.268 . S
C48 O64 1.268 . S
C49 O55 1.268 . S
C49 O63 1.268 . S
C50 O56 1.268 . S
C50 O65 1.268 . S
C51 O57 1.268 . S
C51 O61 1.268 . S
C52 O58 1.268 . S
C52 O60 1.268 . S
C53 O59 1.268 . S
C53 O62 1.268 . S
O54 Sc44 2.105 1_556 S
O54 C48 1.268 . S
O55 Sc45 2.105 1_556 S
O55 C49 1.268 . S
O56 Sc46 2.105 1_556 S
O56 C50 1.268 . S
O57 Sc44 2.105 . S
O57 C51 1.268 . S
O58 Sc46 2.105 . S
O58 C52 1.268 . S
O59 Sc45 2.105 . S
O59 C53 1.268 . S
O60 Sc44 2.105 . S
O60 C52 1.268 . S
O61 Sc45 2.105 . S
O61 C51 1.268 . S
O62 Sc46 2.105 . S
O62 C53 1.268 . S
O63 Sc44 2.105 1_556 S
O63 C49 1.268 . S
O64 Sc46 2.105 1_556 S
O64 C48 1.268 . S
O65 Sc45 2.105 1_556 S
O65 C50 1.268 . S
Sc66 O69 2.025 . S
Sc66 O76 2.105 1_554 S
Sc66 O79 2.105 . S
Sc66 O82 2.105 . S
Sc66 O85 2.105 1_554 S
Sc67 O69 2.025 . S
Sc67 O77 2.105 1_554 S
Sc67 O81 2.105 . S
Sc67 O83 2.105 . S
Sc67 O87 2.105 1_554 S
Sc68 O69 2.025 . S
Sc68 O78 2.105 1_554 S
Sc68 O80 2.105 . S
Sc68 O84 2.105 . S
Sc68 O86 2.105 1_554 S
O69 Sc66 2.025 . S
O69 Sc67 2.025 . S
O69 Sc68 2.025 . S
C70 O76 1.268 . S
C70 O86 1.268 . S
C71 O77 1.268 . S
C71 O85 1.268 . S
C72 O78 1.268 . S
C72 O87 1.268 . S
C73 O79 1.268 . S
C73 O83 1.268 . S
C74 O80 1.268 . S
C74 O82 1.268 . S
C75 O81 1.268 . S
C75 O84 1.268 . S
O76 Sc66 2.105 1_556 S
O76 C70 1.268 . S
O77 Sc67 2.105 1_556 S
O77 C71 1.268 . S
O78 Sc68 2.105 1_556 S
O78 C72 1.268 . S
O79 Sc66 2.105 . S
O79 C73 1.268 . S
O80 Sc68 2.105 . S
O80 C74 1.268 . S
O81 Sc67 2.105 . S
O81 C75 1.268 . S
O82 Sc66 2.105 . S
O82 C74 1.268 . S
O83 Sc67 2.105 . S
O83 C73 1.268 . S
O84 Sc68 2.105 . S
O84 C75 1.268 . S
O85 Sc66 2.105 1_556 S
O85 C71 1.268 . S
O86 Sc68 2.105 1_556 S
O86 C70 1.268 . S
O87 Sc67 2.105 1_556 S
O87 C72 1.268 . S
Sc88 O91 2.025 . S
Sc88 O98 2.105 1_554 S
Sc88 O101 2.105 . S
Sc88 O104 2.105 . S
Sc88 O107 2.105 1_554 S
Sc89 O91 2.025 . S
Sc89 O99 2.105 1_554 S
Sc89 O103 2.105 . S
Sc89 O105 2.105 . S
Sc89 O109 2.105 1_554 S
Sc90 O91 2.025 . S
Sc90 O100 2.105 1_554 S
Sc90 O102 2.105 . S
Sc90 O106 2.105 . S
Sc90 O108 2.105 1_554 S
O91 Sc88 2.025 . S
O91 Sc89 2.025 . S
O91 Sc90 2.025 . S
C92 O98 1.268 . S
C92 O108 1.268 . S
C93 O99 1.268 . S
C93 O107 1.268 . S
C94 O100 1.268 . S
C94 O109 1.268 . S
C95 O101 1.268 . S
C95 O105 1.268 . S
C96 O102 1.268 . S
C96 O104 1.268 . S
C97 O103 1.268 . S
C97 O106 1.268 . S
O98 Sc88 2.105 1_556 S
O98 C92 1.268 . S
O99 Sc89 2.105 1_556 S
O99 C93 1.268 . S
O100 Sc90 2.105 1_556 S
O100 C94 1.268 . S
O101 Sc88 2.105 . S
O101 C95 1.268 . S
O102 Sc90 2.105 . S
O102 C96 1.268 . S
O103 Sc89 2.105 . S
O103 C97 1.268 . S
O104 Sc88 2.105 . S
O104 C96 1.268 . S
O105 Sc89 2.105 . S
O105 C95 1.268 . S
O106 Sc90 2.105 . S
O106 C97 1.268 . S
O107 Sc88 2.105 1_556 S
O107 C93 1.268 . S
O108 Sc90 2.105 1_556 S
O108 C92 1.268 . S
O109 Sc89 2.105 1_556 S
O109 C94 1.268 . S
Sc110 O113 2.025 . S
Sc110 O120 2.105 1_554 S
Sc110 O123 2.105 . S
Sc110 O126 2.105 . S
Sc110 O129 2.105 1_554 S
Sc111 O113 2.025 . S
Sc111 O121 2.105 1_554 S
Sc111 O125 2.105 . S
Sc111 O127 2.105 . S
Sc111 O131 2.105 1_554 S
Sc112 O113 2.025 . S
Sc112 O122 2.105 1_554 S
Sc112 O124 2.105 . S
Sc112 O128 2.105 . S
Sc112 O130 2.105 1_554 S
O113 Sc110 2.025 . S
O113 Sc111 2.025 . S
O113 Sc112 2.025 . S
C114 O120 1.268 . S
C114 O130 1.268 . S
C115 O121 1.268 . S
C115 O129 1.268 . S
C116 O122 1.268 . S
C116 O131 1.268 . S
C117 O123 1.268 . S
C117 O127 1.268 . S
C118 O124 1.268 . S
C118 O126 1.268 . S
C119 O125 1.268 . S
C119 O128 1.268 . S
O120 Sc110 2.105 1_556 S
O120 C114 1.268 . S
O121 Sc111 2.105 1_556 S
O121 C115 1.268 . S
O122 Sc112 2.105 1_556 S
O122 C116 1.268 . S
O123 Sc110 2.105 . S
O123 C117 1.268 . S
O124 Sc112 2.105 . S
O124 C118 1.268 . S
O125 Sc111 2.105 . S
O125 C119 1.268 . S
O126 Sc110 2.105 . S
O126 C118 1.268 . S
O127 Sc111 2.105 . S
O127 C117 1.268 . S
O128 Sc112 2.105 . S
O128 C119 1.268 . S
O129 Sc110 2.105 1_556 S
O129 C115 1.268 . S
O130 Sc112 2.105 1_556 S
O130 C114 1.268 . S
O131 Sc111 2.105 1_556 S
O131 C116 1.268 . S
Sc132 O135 2.025 . S
Sc132 O142 2.105 . S
Sc132 O145 2.105 . S
Sc132 O148 2.105 . S
Sc132 O151 2.105 . S
Sc133 O135 2.025 . S
Sc133 O143 2.105 . S
Sc133 O147 2.105 . S
Sc133 O149 2.105 . S
Sc133 O153 2.105 . S
Sc134 O135 2.025 . S
Sc134 O144 2.105 . S
Sc134 O146 2.105 . S
Sc134 O150 2.105 . S
Sc134 O152 2.105 . S
O135 Sc132 2.025 . S
O135 Sc133 2.025 . S
O135 Sc134 2.025 . S
C136 O142 1.268 . S
C136 O152 1.268 . S
C137 O143 1.268 . S
C137 O151 1.268 . S
C138 O144 1.268 . S
C138 O153 1.268 . S
C139 O145 1.268 . S
C139 O149 1.268 . S
C140 O146 1.268 . S
C140 O148 1.268 . S
C141 O147 1.268 . S
C141 O150 1.268 . S
O142 Sc132 2.105 . S
O142 C136 1.268 . S
O143 Sc133 2.105 . S
O143 C137 1.268 . S
O144 Sc134 2.105 . S
O144 C138 1.268 . S
O145 Sc132 2.105 . S
O145 C139 1.268 . S
O146 Sc134 2.105 . S
O146 C140 1.268 . S
O147 Sc133 2.105 . S
O147 C141 1.268 . S
O148 Sc132 2.105 . S
O148 C140 1.268 . S
O149 Sc133 2.105 . S
O149 C139 1.268 . S
O150 Sc134 2.105 . S
O150 C141 1.268 . S
O151 Sc132 2.105 . S
O151 C137 1.268 . S
O152 Sc134 2.105 . S
O152 C136 1.268 . S
O153 Sc133 2.105 . S
O153 C138 1.268 . S
Sc154 O157 2.025 . S
Sc154 O164 2.105 . S
Sc154 O167 2.105 . S
Sc154 O170 2.105 . S
Sc154 O173 2.105 . S
Sc155 O157 2.025 . S
Sc155 O165 2.105 . S
Sc155 O169 2.105 . S
Sc155 O171 2.105 . S
Sc155 O175 2.105 . S
Sc156 O157 2.025 . S
Sc156 O166 2.105 . S
Sc156 O168 2.105 . S
Sc156 O172 2.105 . S
Sc156 O174 2.105 . S
O157 Sc154 2.025 . S
O157 Sc155 2.025 . S
O157 Sc156 2.025 . S
C158 O164 1.268 . S
C158 O174 1.268 . S
C159 O165 1.268 . S
C159 O173 1.268 . S
C160 O166 1.268 . S
C160 O175 1.268 . S
C161 O167 1.268 . S
C161 O171 1.268 . S
C162 O168 1.268 . S
C162 O170 1.268 . S
C163 O169 1.268 . S
C163 O172 1.268 . S
O164 Sc154 2.105 . S
O164 C158 1.268 . S
O165 Sc155 2.105 . S
O165 C159 1.268 . S
O166 Sc156 2.105 . S
O166 C160 1.268 . S
O167 Sc154 2.105 . S
O167 C161 1.268 . S
O168 Sc156 2.105 . S
O168 C162 1.268 . S
O169 Sc155 2.105 . S
O169 C163 1.268 . S
O170 Sc154 2.105 . S
O170 C162 1.268 . S
O171 Sc155 2.105 . S
O171 C161 1.268 . S
O172 Sc156 2.105 . S
O172 C163 1.268 . S
O173 Sc154 2.105 . S
O173 C159 1.268 . S
O174 Sc156 2.105 . S
O174 C158 1.268 . S
O175 Sc155 2.105 . S
O175 C160 1.268 . S
Sc176 O179 2.025 . S
Sc176 O186 2.105 . S
Sc176 O189 2.105 . S
Sc176 O192 2.105 . S
Sc176 O195 2.105 . S
Sc177 O179 2.025 . S
Sc177 O187 2.105 . S
Sc177 O191 2.105 . S
Sc177 O193 2.105 . S
Sc177 O197 2.105 . S
Sc178 O179 2.025 . S
Sc178 O188 2.105 . S
Sc178 O190 2.105 . S
Sc178 O194 2.105 . S
Sc178 O196 2.105 . S
O179 Sc176 2.025 . S
O179 Sc177 2.025 . S
O179 Sc178 2.025 . S
C180 O186 1.268 . S
C180 O196 1.268 . S
C181 O187 1.268 . S
C181 O195 1.268 . S
C182 O188 1.268 . S
C182 O197 1.268 . S
C183 O189 1.268 . S
C183 O193 1.268 . S
C184 O190 1.268 . S
C184 O192 1.268 . S
C185 O191 1.268 . S
C185 O194 1.268 . S
O186 Sc176 2.105 . S
O186 C180 1.268 . S
O187 Sc177 2.105 . S
O187 C181 1.268 . S
O188 Sc178 2.105 . S
O188 C182 1.268 . S
O189 Sc176 2.105 . S
O189 C183 1.268 . S
O190 Sc178 2.105 . S
O190 C184 1.268 . S
O191 Sc177 2.105 . S
O191 C185 1.268 . S
O192 Sc176 2.105 . S
O192 C184 1.268 . S
O193 Sc177 2.105 . S
O193 C183 1.268 . S
O194 Sc178 2.105 . S
O194 C185 1.268 . S
O195 Sc176 2.105 . S
O195 C181 1.268 . S
O196 Sc178 2.105 . S
O196 C180 1.268 . S
O197 Sc177 2.105 . S
O197 C182 1.268 . S
Sc198 O201 2.025 . S
Sc198 O208 2.105 . S
Sc198 O211 2.105 . S
Sc198 O214 2.105 . S
Sc198 O217 2.105 . S
Sc199 O201 2.025 . S
Sc199 O209 2.105 . S
Sc199 O213 2.105 . S
Sc199 O215 2.105 . S
Sc199 O219 2.105 . S
Sc200 O201 2.025 . S
Sc200 O210 2.105 . S
Sc200 O212 2.105 . S
Sc200 O216 2.105 . S
Sc200 O218 2.105 . S
O201 Sc198 2.025 . S
O201 Sc199 2.025 . S
O201 Sc200 2.025 . S
C202 O208 1.268 . S
C202 O218 1.268 . S
C203 O209 1.268 . S
C203 O217 1.268 . S
C204 O210 1.268 . S
C204 O219 1.268 . S
C205 O211 1.268 . S
C205 O215 1.268 . S
C206 O212 1.268 . S
C206 O214 1.268 . S
C207 O213 1.268 . S
C207 O216 1.268 . S
O208 Sc198 2.105 . S
O208 C202 1.268 . S
O209 Sc199 2.105 . S
O209 C203 1.268 . S
O210 Sc200 2.105 . S
O210 C204 1.268 . S
O211 Sc198 2.105 . S
O211 C205 1.268 . S
O212 Sc200 2.105 . S
O212 C206 1.268 . S
O213 Sc199 2.105 . S
O213 C207 1.268 . S
O214 Sc198 2.105 . S
O214 C206 1.268 . S
O215 Sc199 2.105 . S
O215 C205 1.268 . S
O216 Sc200 2.105 . S
O216 C207 1.268 . S
O217 Sc198 2.105 . S
O217 C203 1.268 . S
O218 Sc200 2.105 . S
O218 C202 1.268 . S
O219 Sc199 2.105 . S
O219 C204 1.268 . S
Sc220 O223 2.025 . S
Sc220 O230 2.105 . S
Sc220 O233 2.105 . S
Sc220 O236 2.105 . S
Sc220 O239 2.105 . S
Sc221 O223 2.025 . S
Sc221 O231 2.105 . S
Sc221 O235 2.105 . S
Sc221 O237 2.105 . S
Sc221 O241 2.105 . S
Sc222 O223 2.025 . S
Sc222 O232 2.105 . S
Sc222 O234 2.105 . S
Sc222 O238 2.105 . S
Sc222 O240 2.105 . S
O223 Sc220 2.025 . S
O223 Sc221 2.025 . S
O223 Sc222 2.025 . S
C224 O230 1.268 . S
C224 O240 1.268 . S
C225 O231 1.268 . S
C225 O239 1.268 . S
C226 O232 1.268 . S
C226 O241 1.268 . S
C227 O233 1.268 . S
C227 O237 1.268 . S
C228 O234 1.268 . S
C228 O236 1.268 . S
C229 O235 1.268 . S
C229 O238 1.268 . S
O230 Sc220 2.105 . S
O230 C224 1.268 . S
O231 Sc221 2.105 . S
O231 C225 1.268 . S
O232 Sc222 2.105 . S
O232 C226 1.268 . S
O233 Sc220 2.105 . S
O233 C227 1.268 . S
O234 Sc222 2.105 . S
O234 C228 1.268 . S
O235 Sc221 2.105 . S
O235 C229 1.268 . S
O236 Sc220 2.105 . S
O236 C228 1.268 . S
O237 Sc221 2.105 . S
O237 C227 1.268 . S
O238 Sc222 2.105 . S
O238 C229 1.268 . S
O239 Sc220 2.105 . S
O239 C225 1.268 . S
O240 Sc222 2.105 . S
O240 C224 1.268 . S
O241 Sc221 2.105 . S
O241 C226 1.268 . S
Sc242 O245 2.025 . S
Sc242 O252 2.105 . S
Sc242 O255 2.105 . S
Sc242 O258 2.105 . S
Sc242 O261 2.105 . S
Sc243 O245 2.025 . S
Sc243 O253 2.105 . S
Sc243 O257 2.105 . S
Sc243 O259 2.105 . S
Sc243 O263 2.105 . S
Sc244 O245 2.025 . S
Sc244 O254 2.105 . S
Sc244 O256 2.105 . S
Sc244 O260 2.105 . S
Sc244 O262 2.105 . S
O245 Sc242 2.025 . S
O245 Sc243 2.025 . S
O245 Sc244 2.025 . S
C246 O252 1.268 . S
C246 O262 1.268 . S
C247 O253 1.268 . S
C247 O261 1.268 . S
C248 O254 1.268 . S
C248 O263 1.268 . S
C249 O255 1.268 . S
C249 O259 1.268 . S
C250 O256 1.268 . S
C250 O258 1.268 . S
C251 O257 1.268 . S
C251 O260 1.268 . S
O252 Sc242 2.105 . S
O252 C246 1.268 . S
O253 Sc243 2.105 . S
O253 C247 1.268 . S
O254 Sc244 2.105 . S
O254 C248 1.268 . S
O255 Sc242 2.105 . S
O255 C249 1.268 . S
O256 Sc244 2.105 . S
O256 C250 1.268 . S
O257 Sc243 2.105 . S
O257 C251 1.268 . S
O258 Sc242 2.105 . S
O258 C250 1.268 . S
O259 Sc243 2.105 . S
O259 C249 1.268 . S
O260 Sc244 2.105 . S
O260 C251 1.268 . S
O261 Sc242 2.105 . S
O261 C247 1.268 . S
O262 Sc244 2.105 . S
O262 C246 1.268 . S
O263 Sc243 2.105 . S
O263 C248 1.268 . S
C264 C265 1.170 . S
C264 C266 1.380 . S
C265 C264 1.170 . S
C266 C264 1.380 . S
C266 C267 1.170 . S
C267 C266 1.170 . S
C268 C269 1.170 . S
C268 C270 1.380 . S
C269 C268 1.170 . S
C270 C268 1.380 . S
C270 C271 1.170 . S
C271 C270 1.170 . S
C272 C273 1.170 . S
C272 C274 1.380 . S
C273 C272 1.170 . S
C274 C272 1.380 . S
C274 C275 1.170 . S
C275 C274 1.170 . S
C276 C277 1.170 . S
C276 C278 1.380 . S
C277 C276 1.170 . S
C278 C276 1.380 . S
C278 C279 1.170 . S
C279 C278 1.170 . S
C280 C281 1.170 . S
C280 C282 1.380 . S
C281 C280 1.170 . S
C282 C280 1.380 . S
C282 C283 1.170 . S
C283 C282 1.170 . S
C284 C285 1.170 . S
C284 C286 1.380 . S
C285 C284 1.170 . S
C286 C284 1.380 . S
C286 C287 1.170 . S
C287 C286 1.170 . S
C288 C289 1.170 . S
C288 C290 1.380 . S
C289 C288 1.170 . S
C290 C288 1.380 . S
C290 C291 1.170 . S
C291 C290 1.170 . S
C292 C293 1.170 . S
C292 C294 1.380 . S
C293 C292 1.170 . S
C294 C292 1.380 . S
C294 C295 1.170 . S
C295 C294 1.170 . S
C296 C297 1.170 . S
C296 C298 1.380 . S
C297 C296 1.170 . S
C298 C296 1.380 . S
C298 C299 1.170 . S
C299 C298 1.170 . S
C300 C301 1.170 . S
C300 C302 1.380 . S
C301 C300 1.170 . S
C302 C300 1.380 . S
C302 C303 1.170 . S
C303 C302 1.170 . S
C304 C305 1.170 . S
C304 C306 1.380 . S
C305 C304 1.170 . S
C306 C304 1.380 . S
C306 C307 1.170 . S
C307 C306 1.170 . S
C308 C309 1.170 . S
C308 C310 1.380 . S
C309 C308 1.170 . S
C310 C308 1.380 . S
C310 C311 1.170 . S
C311 C310 1.170 . S
C312 C313 1.170 . S
C312 C314 1.380 1_565 S
C313 C312 1.170 . S
C314 C312 1.380 1_545 S
C314 C315 1.170 . S
C315 C314 1.170 . S
C316 C317 1.170 . S
C316 C318 1.380 . S
C317 C316 1.170 . S
C318 C316 1.380 . S
C318 C319 1.170 . S
C319 C318 1.170 . S
C320 C321 1.170 . S
C320 C322 1.380 1_455 S
C321 C320 1.170 . S
C322 C320 1.380 1_655 S
C322 C323 1.170 . S
C323 C322 1.170 . S
C324 C325 1.170 . S
C324 C326 1.380 1_565 S
C325 C324 1.170 . S
C326 C324 1.380 1_545 S
C326 C327 1.170 . S
C327 C326 1.170 . S
C328 C329 1.170 . S
C328 C330 1.380 . S
C329 C328 1.170 . S
C330 C328 1.380 . S
C330 C331 1.170 . S
C331 C330 1.170 . S
C332 C333 1.170 . S
C332 C334 1.380 1_655 S
C333 C332 1.170 . S
C334 C332 1.380 1_455 S
C334 C335 1.170 . S
C335 C334 1.170 . S
C336 C337 1.170 . S
C336 C338 1.380 1_545 S
C337 C336 1.170 . S
C338 C336 1.380 1_565 S
C338 C339 1.170 . S
C339 C338 1.170 . S
C340 C341 1.170 . S
C340 C342 1.380 . S
C341 C340 1.170 . S
C342 C340 1.380 . S
C342 C343 1.170 . S
C343 C342 1.170 . S
C344 C345 1.170 . S
C344 C346 1.380 1_655 S
C345 C344 1.170 . S
C346 C344 1.380 1_455 S
C346 C347 1.170 . S
C347 C346 1.170 . S
C348 C349 1.170 . S
C348 C350 1.380 1_565 S
C349 C348 1.170 . S
C350 C348 1.380 1_545 S
C350 C351 1.170 . S
C351 C350 1.170 . S
C352 C353 1.170 . S
C352 C354 1.380 . S
C353 C352 1.170 . S
C354 C352 1.380 . S
C354 C355 1.170 . S
C355 C354 1.170 . S
C356 C357 1.170 . S
C356 C358 1.380 1_655 S
C357 C356 1.170 . S
C358 C356 1.380 1_455 S
C358 C359 1.170 . S
C359 C358 1.170 . S
C360 C361 1.170 . S
C360 C362 1.380 . S
C361 C360 1.170 . S
C362 C360 1.380 . S
C362 C363 1.170 . S
C363 C362 1.170 . S
C364 C365 1.170 . S
C364 C366 1.380 . S
C365 C364 1.170 . S
C366 C364 1.380 . S
C366 C367 1.170 . S
C367 C366 1.170 . S
C368 C369 1.170 . S
C368 C370 1.380 . S
C369 C368 1.170 . S
C370 C368 1.380 . S
C370 C371 1.170 . S
C371 C370 1.170 . S
C372 C373 1.170 . S
C372 C374 1.380 . S
C373 C372 1.170 . S
C374 C372 1.380 . S
C374 C375 1.170 . S
C375 C374 1.170 . S
C376 C377 1.170 . S
C376 C378 1.380 . S
C377 C376 1.170 . S
C378 C376 1.380 . S
C378 C379 1.170 . S
C379 C378 1.170 . S
C380 C381 1.170 . S
C380 C382 1.380 . S
C381 C380 1.170 . S
C382 C380 1.380 . S
C382 C383 1.170 . S
C383 C382 1.170 . S
C384 C385 1.170 . S
C384 C386 1.380 . S
C385 C384 1.170 . S
C386 C384 1.380 . S
C386 C387 1.170 . S
C387 C386 1.170 . S
C388 C389 1.170 . S
C388 C390 1.380 . S
C389 C388 1.170 . S
C390 C388 1.380 . S
C390 C391 1.170 . S
C391 C390 1.170 . S
C392 C393 1.170 . S
C392 C394 1.380 . S
C393 C392 1.170 . S
C394 C392 1.380 . S
C394 C395 1.170 . S
C395 C394 1.170 . S
C396 C397 1.170 . S
C396 C398 1.380 . S
C397 C396 1.170 . S
C398 C396 1.380 . S
C398 C399 1.170 . S
C399 C398 1.170 . S
C400 C401 1.170 . S
C400 C402 1.380 . S
C401 C400 1.170 . S
C402 C400 1.380 . S
C402 C403 1.170 . S
C403 C402 1.170 . S
C404 C405 1.170 . S
C404 C406 1.380 . S
C405 C404 1.170 . S
C406 C404 1.380 . S
C406 C407 1.170 . S
C407 C406 1.170 . S
C265 C7 1.309 . S
C267 C182 1.297 . S
C269 C204 1.292 . S
C271 C29 1.307 . S
C273 C51 1.288 . S
C275 C226 1.303 . S
C277 C248 1.309 . S
C279 C73 1.291 . S
C281 C95 1.301 . S
C283 C138 1.286 . S
C285 C160 1.295 . S
C287 C117 1.289 . S
C289 C251 1.308 . S
C291 C71 1.291 . S
C293 C93 1.307 . S
C295 C141 1.291 . S
C297 C163 1.302 . S
C299 C115 1.296 . S
C301 C185 1.288 . S
C303 C5 1.311 . S
C305 C207 1.301 . S
C307 C27 1.297 . S
C309 C49 1.297 . S
C311 C229 1.301 . S
C313 C159 1.351 . S
C315 C9 1.376 . S
C317 C181 1.354 . S
C319 C31 1.377 . S
C321 C203 1.359 . S
C323 C53 1.363 . S
C325 C75 1.354 . S
C327 C225 1.377 . S
C329 C97 1.365 . S
C331 C247 1.370 . S
C333 C137 1.352 . S
C335 C119 1.374 . S
C337 C227 1.379 . S
C339 C72 1.369 . S
C341 C94 1.376 . S
C343 C249 1.360 . S
C345 C139 1.366 . S
C347 C116 1.353 . S
C349 C161 1.379 . S
C351 C6 1.371 . S
C353 C28 1.376 . S
C355 C183 1.377 . S
C357 C50 1.378 . S
C359 C205 1.372 . S
C361 C8 1.552 . S
C363 C224 1.530 . S
C365 C30 1.529 . S
C367 C246 1.544 . S
C369 C136 1.552 . S
C371 C52 1.540 . S
C373 C158 1.548 . S
C375 C74 1.528 . S
C377 C96 1.553 . S
C379 C180 1.535 . S
C381 C202 1.547 . S
C383 C118 1.547 . S
C385 C70 1.530 . S
C387 C162 1.554 . S
C389 C92 1.541 . S
C391 C184 1.541 . S
C393 C206 1.552 . S
C395 C114 1.531 . S
C397 C228 1.541 . S
C399 C4 1.544 . S
C401 C250 1.529 . S
C403 C26 1.554 . S
C405 C140 1.544 . S
C407 C48 1.538 . S
