# Generated by pormake.
# Topology afw, (4)-cn, num edge types: 1
# Building blocks:
#     Node 0, Type 0, BuildingBlock: QUQFOY_clean_sbu_1, # of connection points: 4
#     Node 1, Type 0, BuildingBlock: QUQFOY_clean_sbu_1, # of connection points: 4
#     Node 2, Type 0, BuildingBlock: QUQFOY_clean_sbu_1, # of connection points: 4
#     Node 3, Type 0, BuildingBlock: QUQFOY_clean_sbu_1, # of connection points: 4
#     Node 4, Type 0, BuildingBlock: QUQFOY_clean_sbu_1, # of connection points: 4
#     Node 5, Type 0, BuildingBlock: QUQFOY_clean_sbu_1, # of connection points: 4
#     Node 6, Type 0, BuildingBlock: QUQFOY_clean_sbu_1, # of connection points: 4
#     Node 7, Type 0, BuildingBlock: QUQFOY_clean_sbu_1, # of connection points: 4
#     Node 8, Type 0, BuildingBlock: QUQFOY_clean_sbu_1, # of connection points: 4
#     Edge 9, Type (0, 0), BuildingBlock: ZUJKAS_clean_linker_0, # of connection points: 2
#     Edge 10, Type (0, 0), BuildingBlock: ZUJKAS_clean_linker_0, # of connection points: 2
#     Edge 11, Type (0, 0), BuildingBlock: ZUJKAS_clean_linker_0, # of connection points: 2
#     Edge 12, Type (0, 0), BuildingBlock: ZUJKAS_clean_linker_0, # of connection points: 2
#     Edge 13, Type (0, 0), BuildingBlock: ZUJKAS_clean_linker_0, # of connection points: 2
#     Edge 14, Type (0, 0), BuildingBlock: ZUJKAS_clean_linker_0, # of connection points: 2
#     Edge 15, Type (0, 0), BuildingBlock: ZUJKAS_clean_linker_0, # of connection points: 2
#     Edge 16, Type (0, 0), BuildingBlock: ZUJKAS_clean_linker_0, # of connection points: 2
#     Edge 17, Type (0, 0), BuildingBlock: ZUJKAS_clean_linker_0, # of connection points: 2
#     Edge 18, Type (0, 0), BuildingBlock: ZUJKAS_clean_linker_0, # of connection points: 2
#     Edge 19, Type (0, 0), BuildingBlock: ZUJKAS_clean_linker_0, # of connection points: 2
#     Edge 20, Type (0, 0), BuildingBlock: ZUJKAS_clean_linker_0, # of connection points: 2
#     Edge 21, Type (0, 0), BuildingBlock: ZUJKAS_clean_linker_0, # of connection points: 2
#     Edge 22, Type (0, 0), BuildingBlock: ZUJKAS_clean_linker_0, # of connection points: 2
#     Edge 23, Type (0, 0), BuildingBlock: ZUJKAS_clean_linker_0, # of connection points: 2
#     Edge 24, Type (0, 0), BuildingBlock: ZUJKAS_clean_linker_0, # of connection points: 2
#     Edge 25, Type (0, 0), BuildingBlock: ZUJKAS_clean_linker_0, # of connection points: 2
#     Edge 26, Type (0, 0), BuildingBlock: ZUJKAS_clean_linker_0, # of connection points: 2
# Relax obj value: 0.129
# Max RMSD: 0.151
# Mean RMSD: 0.151
data_MOF--net-afw--node1-QUQFOY_clean_sbu_1--edge1-ZUJKAS_clean_linker_0
_symmetry_space_group_name_H-M    P1
_symmetry_Int_Tables_number       1
_symmetry_cell_setting            triclinic
loop_
_symmetry_equiv_pos_as_xyz
'x, y, z'
_cell_length_a     55.2794
_cell_length_b     55.306427
_cell_length_c     48.165196
_cell_angle_alpha  89.994911
_cell_angle_beta   90.01944
_cell_angle_gamma 120.04802
loop_
_atom_site_label
_atom_site_type_symbol
_atom_site_fract_x
_atom_site_fract_y
_atom_site_fract_z
_atom_type_partial_charge
O0 O 0.05044 0.21277 0.98911 0.0
Cd1 Cd 0.01444 0.21493 0.98447 0.0
Cd2 Cd 0.01566 0.21323 0.04136 0.0
O3 O 0.05358 0.21526 0.03478 0.0
O4 O 0.015 0.22478 0.94456 0.0
O5 O 0.01751 0.25254 0.97878 0.0
C6 C 0.01755 0.24821 0.95242 0.0
C7 C 0.01197 0.24186 0.07486 0.0
C8 C 0.06325 0.21364 0.01134 0.0
C9 C 0.96768 0.16456 0.01218 0.0
O10 O 0.9804 0.1748 0.03493 0.0
O11 O 0.977 0.17803 0.98961 0.0
O12 O 0.0149 0.22094 0.08168 0.0
O13 O 0.01174 0.24703 0.04872 0.0
O14 O 0.8547 0.82402 0.03615 0.0
Cd15 Cd 0.81656 0.82165 0.04154 0.0
Cd16 Cd 0.81751 0.82113 0.98415 0.0
O17 O 0.85408 0.82025 0.99053 0.0
O18 O 0.80859 0.81332 0.08187 0.0
O19 O 0.78234 0.78412 0.04895 0.0
C20 C 0.78756 0.78951 0.07508 0.0
C21 C 0.78569 0.79216 0.95034 0.0
C22 C 0.86613 0.82277 0.01372 0.0
C23 C 0.81854 0.87055 0.01225 0.0
O24 O 0.81989 0.85927 0.98975 0.0
O25 O 0.81582 0.8583 0.03536 0.0
O26 O 0.80953 0.81326 0.94375 0.0
O27 O 0.78002 0.78695 0.97642 0.0
O28 O 0.17064 0.98382 0.99057 0.0
Cd29 Cd 0.20921 0.01843 0.9826 0.0
Cd30 Cd 0.21041 0.02075 0.03987 0.0
O31 O 0.17322 0.98342 0.03629 0.0
O32 O 0.21566 0.01545 0.94236 0.0
O33 O 0.24249 0.01354 0.97531 0.0
C34 C 0.23663 0.01262 0.94922 0.0
C35 C 0.2428 0.02543 0.07379 0.0
C36 C 0.16004 0.97269 0.01384 0.0
C37 C 0.20999 0.06801 0.00845 0.0
O38 O 0.2088 0.05657 0.03168 0.0
O39 O 0.21177 0.05686 0.98605 0.0
O40 O 0.21999 0.02507 0.08012 0.0
O41 O 0.24704 0.02226 0.04801 0.0
O42 O 0.64666 0.51062 0.36973 0.0
Cd43 Cd 0.68248 0.54903 0.37406 0.0
Cd44 Cd 0.68098 0.54581 0.31747 0.0
O45 O 0.64322 0.50972 0.32408 0.0
O46 O 0.68219 0.5586 0.41394 0.0
O47 O 0.67899 0.58336 0.37961 0.0
C48 C 0.67928 0.57925 0.40599 0.0
C49 C 0.68473 0.57921 0.28535 0.0
C50 C 0.63377 0.49847 0.34759 0.0
C51 C 0.72929 0.54567 0.34618 0.0
O52 O 0.71635 0.54283 0.32351 0.0
O53 O 0.72008 0.54996 0.36874 0.0
O54 O 0.68165 0.55554 0.2775 0.0
O55 O 0.68493 0.58371 0.31171 0.0
O56 O 0.52572 0.16017 0.36723 0.0
Cd57 Cd 0.48759 0.15674 0.37623 0.0
Cd58 Cd 0.48535 0.15837 0.31881 0.0
O59 O 0.52279 0.15864 0.3215 0.0
O60 O 0.48191 0.14728 0.41651 0.0
O61 O 0.4541 0.11877 0.38392 0.0
C62 C 0.46055 0.12364 0.40991 0.0
C63 C 0.45283 0.13082 0.2849 0.0
C64 C 0.5361 0.16031 0.34363 0.0
C65 C 0.48633 0.20577 0.35131 0.0
O66 O 0.48658 0.19547 0.32781 0.0
O67 O 0.48552 0.19293 0.37349 0.0
O68 O 0.47539 0.15357 0.27865 0.0
O69 O 0.44889 0.12304 0.31058 0.0
O70 O 0.87677 0.3885 0.36792 0.0
Cd71 Cd 0.87869 0.35247 0.37323 0.0
Cd72 Cd 0.88024 0.35451 0.31625 0.0
O73 O 0.88147 0.39213 0.32238 0.0
O74 O 0.88643 0.35209 0.41363 0.0
O75 O 0.91601 0.35543 0.38097 0.0
C76 C 0.91023 0.35477 0.40705 0.0
C77 C 0.91026 0.35093 0.28445 0.0
C78 C 0.87857 0.40147 0.34552 0.0
C79 C 0.83002 0.3061 0.34309 0.0
O80 O 0.84172 0.319 0.32082 0.0
O81 O 0.84195 0.31526 0.3664 0.0
O82 O 0.8899 0.35427 0.2764 0.0
O83 O 0.91426 0.35053 0.31085 0.0
O84 O 0.3858 0.87574 0.66046 0.0
Cd85 Cd 0.3506 0.8784 0.65177 0.0
Cd86 Cd 0.34585 0.87597 0.70843 0.0
O87 O 0.38368 0.87705 0.70611 0.0
O88 O 0.35442 0.88936 0.61191 0.0
O89 O 0.35415 0.91615 0.64583 0.0
C90 C 0.35606 0.91245 0.61961 0.0
C91 C 0.34063 0.90479 0.74047 0.0
C92 C 0.39587 0.87582 0.68422 0.0
C93 C 0.3004 0.8283 0.67596 0.0
O94 O 0.31051 0.8382 0.69973 0.0
O95 O 0.31263 0.84175 0.65409 0.0
O96 O 0.34207 0.88325 0.74825 0.0
O97 O 0.3426 0.91035 0.71423 0.0
O98 O 0.18962 0.49536 0.70365 0.0
Cd99 Cd 0.14988 0.48941 0.70759 0.0
Cd100 Cd 0.15099 0.48475 0.65168 0.0
O101 O 0.18687 0.48286 0.65974 0.0
O102 O 0.1407 0.48154 0.74778 0.0
O103 O 0.1173 0.45081 0.71475 0.0
C104 C 0.1211 0.45691 0.74088 0.0
C105 C 0.11779 0.45415 0.61981 0.0
C106 C 0.20021 0.49035 0.68256 0.0
C107 C 0.15088 0.53549 0.67519 0.0
O108 O 0.15448 0.52379 0.65411 0.0
O109 O 0.14624 0.52388 0.69888 0.0
O110 O 0.14191 0.47395 0.6119 0.0
O111 O 0.11275 0.451 0.64616 0.0
O112 O 0.5055 0.65329 0.65441 0.0
Cd113 Cd 0.54537 0.68694 0.65053 0.0
Cd114 Cd 0.54427 0.68076 0.70633 0.0
O115 O 0.50835 0.64303 0.69813 0.0
O116 O 0.55452 0.68837 0.61032 0.0
O117 O 0.57766 0.68054 0.64322 0.0
C118 C 0.5739 0.68302 0.61712 0.0
C119 C 0.57752 0.68327 0.73807 0.0
C120 C 0.49493 0.63747 0.67537 0.0
C121 C 0.54461 0.73189 0.6833 0.0
O122 O 0.54082 0.71634 0.70422 0.0
O123 O 0.54934 0.72513 0.65955 0.0
O124 O 0.55338 0.67882 0.74605 0.0
O125 O 0.58252 0.68529 0.71171 0.0
H126 H 0.19972 0.09355 0.05182 0.0
H127 H 0.18426 0.12779 0.04916 0.0
H128 H 0.19552 0.13256 0.96036 0.0
H129 H 0.2105 0.0978 0.96267 0.0
H130 H 0.20554 0.18241 0.02769 0.0
H131 H 0.11173 0.10349 0.97008 0.0
H132 H 0.13544 0.09485 0.98719 0.0
H133 H 0.14469 0.11269 0.95436 0.0
C134 C 0.19939 0.10218 0.03173 0.0
C135 C 0.20587 0.09251 0.00738 0.0
C136 C 0.1906 0.12184 0.03028 0.0
C137 C 0.18818 0.13224 1.00452 0.0
C138 C 0.19671 0.12432 0.9804 0.0
H139 H 0.09094 0.21203 0.96495 0.0
H140 H 0.12613 0.19776 0.96208 0.0
C141 C 0.20537 0.10453 0.98179 0.0
C142 C 0.17417 0.1491 1.0028 0.0
H143 H 0.11458 0.1464 0.97947 0.0
C144 C 0.18577 0.17471 0.01695 0.0
C145 C 0.1483 0.13889 0.98891 0.0
C146 C 0.1341 0.11089 0.97445 0.0
C147 C 0.17206 0.19034 0.01768 0.0
C148 C 0.14593 0.17981 1.00425 0.0
C149 C 0.13471 0.15453 0.98959 0.0
C150 C 0.1287 0.19342 0.00645 0.0
C151 C 0.18564 0.21791 0.0328 0.0
C152 C 0.11893 0.19637 0.03241 0.0
C153 C 0.09882 0.20461 0.03416 0.0
C154 C 0.08788 0.20972 0.00992 0.0
C155 C 0.09879 0.20813 0.98403 0.0
C156 C 0.11895 0.2 0.98233 0.0
H157 H 0.20865 0.227 0.03426 0.0
H158 H 0.18121 0.23318 0.02235 0.0
H159 H 0.17723 0.21461 0.05425 0.0
H160 H 0.12568 0.19083 0.05128 0.0
H161 H 0.09084 0.20553 0.05442 0.0
H162 H 0.82765 0.90547 0.0563 0.0
H163 H 0.8439 0.95542 0.0545 0.0
H164 H 0.83696 0.95127 0.96523 0.0
H165 H 0.82122 0.90141 0.96676 0.0
H166 H 0.88843 0.98994 0.98254 0.0
H167 H 0.80977 0.00417 0.04011 0.0
H168 H 0.82192 0.98447 0.05925 0.0
H169 H 0.80278 0.97052 0.02748 0.0
C170 C 0.8289 0.915 0.03631 0.0
C171 C 0.82333 0.89944 0.01165 0.0
C172 C 0.83805 0.9436 0.03533 0.0
C173 C 0.84143 0.95709 0.00974 0.0
C174 C 0.83443 0.94128 0.98521 0.0
H175 H 0.93646 0.13483 0.96723 0.0
H176 H 0.90212 0.08491 0.96539 0.0
C177 C 0.82544 0.91276 0.98614 0.0
C178 C 0.85569 0.98804 0.00829 0.0
H179 H 0.85468 0.04529 0.03351 0.0
C180 C 0.88079 0.00202 0.99331 0.0
C181 C 0.84583 0.00379 0.02255 0.0
C182 C 0.81845 0.98997 0.03804 0.0
C183 C 0.89682 0.03126 0.99296 0.0
C184 C 0.88725 0.04704 0.00761 0.0
C185 C 0.8619 0.03313 0.02222 0.0
C186 C 0.90434 0.0779 0.00928 0.0
C187 C 0.92449 0.04498 0.97788 0.0
C188 C 0.91584 0.09074 0.03479 0.0
C189 C 0.93533 0.1193 0.03597 0.0
C190 C 0.94369 0.13555 0.01161 0.0
C191 C 0.93072 0.12293 0.98635 0.0
C192 C 0.91116 0.09437 0.98522 0.0
H193 H 0.93149 0.02985 0.97277 0.0
H194 H 0.92238 0.05411 0.95815 0.0
H195 H 0.94095 0.0621 0.99054 0.0
H196 H 0.91075 0.07842 0.05362 0.0
H197 H 0.94474 0.12832 0.05581 0.0
H198 H 0.9012 0.83143 0.9699 0.0
H199 H 0.95117 0.84769 0.97203 0.0
H200 H 0.94667 0.84146 0.06133 0.0
H201 H 0.89678 0.82565 0.05947 0.0
H202 H 0.98509 0.89317 0.04325 0.0
H203 H 1.0003 0.81397 0.98796 0.0
H204 H 0.98023 0.82544 0.96844 0.0
H205 H 0.96656 0.80685 1.00051 0.0
C206 C 0.91065 0.83283 0.98997 0.0
C207 C 0.895 0.82747 0.01453 0.0
C208 C 0.93925 0.84198 0.99113 0.0
C209 C 0.95264 0.8456 0.01683 0.0
C210 C 0.93674 0.83874 0.04127 0.0
H211 H 0.13027 0.9433 0.05958 0.0
H212 H 0.08041 0.90877 0.06178 0.0
C213 C 0.9082 0.82972 0.04015 0.0
C214 C 0.98359 0.86006 0.01844 0.0
H215 H 0.04119 0.85902 0.99434 0.0
C216 C 0.99735 0.88546 0.03294 0.0
C217 C 0.99954 0.8501 1.00476 0.0
C218 C 0.98591 0.82246 0.98975 0.0
C219 C 0.02658 0.9017 0.03333 0.0
C220 C 0.04257 0.892 0.01929 0.0
C221 C 0.02887 0.86633 1.00519 0.0
C222 C 0.07344 0.90925 0.01763 0.0
C223 C 0.04003 0.92971 0.04774 0.0
C224 C 0.0863 0.91981 0.99191 0.0
C225 C 0.11483 0.93937 0.99053 0.0
C226 C 0.13103 0.94877 0.01489 0.0
C227 C 0.11839 0.93677 0.04045 0.0
C228 C 0.08987 0.9171 0.04178 0.0
H229 H 0.02475 0.93671 0.05212 0.0
H230 H 0.04897 0.92814 0.06783 0.0
H231 H 0.05725 0.94592 0.03498 0.0
H232 H 0.07401 0.91391 0.97301 0.0
H233 H 0.12387 0.94801 0.97046 0.0
H234 H 0.86991 0.42776 0.30163 0.0
H235 H 0.85386 0.4616 0.30364 0.0
H236 H 0.86049 0.46377 0.39293 0.0
H237 H 0.87602 0.42951 0.39118 0.0
H238 H 0.80916 0.45109 0.37562 0.0
H239 H 0.88786 0.54436 0.3185 0.0
H240 H 0.87578 0.51265 0.29913 0.0
H241 H 0.89484 0.51763 0.33092 0.0
C242 C 0.86865 0.43595 0.32167 0.0
C243 C 0.87404 0.42572 0.34626 0.0
C244 C 0.85962 0.45547 0.32277 0.0
C245 C 0.85618 0.46543 0.34843 0.0
C246 C 0.86307 0.45643 0.37289 0.0
H247 H 0.76079 0.54764 0.39107 0.0
H248 H 0.79536 0.53239 0.39289 0.0
C249 C 0.87193 0.43682 0.37184 0.0
C250 C 0.84192 0.48209 0.34998 0.0
H251 H 0.84285 0.54038 0.32494 0.0
C252 C 0.81679 0.47086 0.36493 0.0
C253 C 0.85177 0.50776 0.33583 0.0
C254 C 0.87919 0.52146 0.32041 0.0
C255 C 0.80071 0.484 0.36532 0.0
C256 C 0.81026 0.50938 0.35073 0.0
C257 C 0.83565 0.52097 0.33618 0.0
C258 C 0.79307 0.52303 0.34904 0.0
C259 C 0.77302 0.46993 0.38035 0.0
C260 C 0.78144 0.52418 0.32354 0.0
C261 C 0.7618 0.53303 0.32237 0.0
C262 C 0.75343 0.5409 0.34672 0.0
C263 C 0.76654 0.54148 0.37196 0.0
C264 C 0.78624 0.53268 0.37307 0.0
H265 H 0.7661 0.44783 0.38552 0.0
H266 H 0.77504 0.48119 0.40005 0.0
H267 H 0.75654 0.47048 0.36763 0.0
H268 H 0.78653 0.51692 0.30473 0.0
H269 H 0.75229 0.53248 0.30254 0.0
H270 H 0.49041 0.23618 0.39783 0.0
H271 H 0.5052 0.28585 0.40003 0.0
H272 H 0.50738 0.29006 0.3106 0.0
H273 H 0.49217 0.24045 0.30814 0.0
H274 H 0.55569 0.325 0.38003 0.0
H275 H 0.47308 0.33792 0.32918 0.0
H276 H 0.46715 0.30449 0.34137 0.0
H277 H 0.48399 0.31811 0.3085 0.0
C278 C 0.49331 0.24748 0.3786 0.0
C279 C 0.49031 0.23433 0.3528 0.0
C280 C 0.50177 0.27589 0.37992 0.0
C281 C 0.50719 0.29165 0.3555 0.0
C282 C 0.50276 0.27825 0.32972 0.0
H283 H 0.60724 0.46181 0.30488 0.0
H284 H 0.57296 0.41201 0.30868 0.0
C285 C 0.49425 0.24985 0.32837 0.0
C286 C 0.52122 0.32257 0.35688 0.0
H287 H 0.51848 0.37925 0.33266 0.0
C288 C 0.5473 0.33686 0.37012 0.0
C289 C 0.51038 0.33801 0.34368 0.0
C290 C 0.48198 0.32384 0.33011 0.0
C291 C 0.56338 0.36608 0.36959 0.0
C292 C 0.55284 0.38154 0.35591 0.0
C293 C 0.52647 0.36734 0.34318 0.0
C294 C 0.56981 0.41235 0.35343 0.0
C295 C 0.59211 0.38008 0.38261 0.0
C296 C 0.57846 0.42924 0.37723 0.0
C297 C 0.59819 0.45765 0.37517 0.0
C298 C 0.60944 0.46975 0.34922 0.0
C299 C 0.59912 0.45317 0.3252 0.0
C300 C 0.5795 0.42469 0.32732 0.0
H301 H 0.59945 0.36505 0.38677 0.0
H302 H 0.6076 0.39694 0.36899 0.0
H303 H 0.59148 0.3896 0.40268 0.0
H304 H 0.57081 0.4202 0.39753 0.0
H305 H 0.60541 0.46987 0.39406 0.0
H306 H 0.56649 0.16502 0.29691 0.0
H307 H 0.61626 0.18019 0.29433 0.0
H308 H 0.62127 0.18304 0.38372 0.0
H309 H 0.57155 0.1675 0.38657 0.0
H310 H 0.65595 0.23091 0.31428 0.0
H311 H 0.66822 0.14763 0.36452 0.0
H312 H 0.63486 0.14203 0.35242 0.0
H313 H 0.6487 0.15888 0.38523 0.0
C314 C 0.578 0.16822 0.31606 0.0
C315 C 0.56501 0.16521 0.34195 0.0
C316 C 0.60646 0.17689 0.31453 0.0
C317 C 0.62244 0.1825 0.33882 0.0
C318 C 0.60927 0.17826 0.3647 0.0
H319 H 0.79419 0.28007 0.38649 0.0
H320 H 0.74407 0.24663 0.38369 0.0
C321 C 0.58082 0.16957 0.36627 0.0
C322 C 0.65334 0.19625 0.33716 0.0
H323 H 0.70987 0.19248 0.36011 0.0
C324 C 0.66773 0.22229 0.32388 0.0
C325 C 0.66866 0.18509 0.34996 0.0
C326 C 0.65432 0.15674 0.36362 0.0
C327 C 0.697 0.23796 0.32391 0.0
C328 C 0.71236 0.22704 0.3371 0.0
C329 C 0.69803 0.20075 0.34995 0.0
C330 C 0.74327 0.2435 0.3389 0.0
C331 C 0.71116 0.26665 0.31086 0.0
C332 C 0.7596 0.25185 0.31472 0.0
C333 C 0.7882 0.27112 0.3162 0.0
C334 C 0.80104 0.28216 0.34196 0.0
C335 C 0.78497 0.2721 0.36631 0.0
C336 C 0.75631 0.25295 0.36477 0.0
H337 H 0.69635 0.2744 0.30729 0.0
H338 H 0.72853 0.28196 0.32415 0.0
H339 H 0.72004 0.26576 0.29048 0.0
H340 H 0.75001 0.24435 0.29459 0.0
H341 H 0.80001 0.27815 0.29706 0.0
H342 H 0.42053 0.87081 0.73153 0.0
H343 H 0.4555 0.85626 0.73498 0.0
H344 H 0.46067 0.85557 0.64569 0.0
H345 H 0.42596 0.87037 0.64197 0.0
H346 H 0.4449 0.80563 0.71321 0.0
H347 H 0.54282 0.89153 0.66878 0.0
H348 H 0.51457 0.89648 0.68059 0.0
H349 H 0.51273 0.88117 0.64716 0.0
C350 C 0.42956 0.86823 0.7126 0.0
C351 C 0.42024 0.87156 0.68646 0.0
C352 C 0.44958 0.85992 0.71464 0.0
C353 C 0.46087 0.85506 0.69061 0.0
C354 C 0.45268 0.85974 0.66452 0.0
H355 H 0.53906 0.76242 0.64164 0.0
H356 H 0.52252 0.79576 0.64598 0.0
C357 C 0.43263 0.86801 0.66244 0.0
C358 C 0.47809 0.84146 0.69267 0.0
H359 H 0.53981 0.84682 0.67242 0.0
C360 C 0.46585 0.81483 0.70473 0.0
C361 C 0.50527 0.85341 0.68133 0.0
C362 C 0.51976 0.88234 0.66895 0.0
C363 C 0.47954 0.79927 0.70476 0.0
C364 C 0.5066 0.811 0.69303 0.0
C365 C 0.51915 0.83794 0.68152 0.0
C366 C 0.52111 0.79464 0.69088 0.0
C367 C 0.46427 0.76987 0.71612 0.0
C368 C 0.52705 0.78395 0.71472 0.0
C369 C 0.53623 0.76464 0.71232 0.0
C370 C 0.54001 0.75598 0.68601 0.0
C371 C 0.53623 0.7685 0.66222 0.0
C372 C 0.5268 0.78761 0.66465 0.0
H373 H 0.44149 0.76185 0.71828 0.0
H374 H 0.46727 0.75538 0.70249 0.0
H375 H 0.47264 0.76961 0.73699 0.0
H376 H 0.52345 0.78964 0.73518 0.0
H377 H 0.53929 0.75567 0.73107 0.0
H378 H 0.27547 0.79893 0.62857 0.0
H379 H 0.24035 0.74943 0.62494 0.0
H380 H 0.23551 0.74306 0.71422 0.0
H381 H 0.27037 0.79255 0.71811 0.0
H382 H 0.25089 0.7092 0.64619 0.0
H383 H 0.15327 0.69708 0.69143 0.0
H384 H 0.18153 0.73035 0.67972 0.0
H385 H 0.18346 0.71663 0.71298 0.0
C386 C 0.26648 0.7872 0.64746 0.0
C387 C 0.27593 0.79971 0.67365 0.0
C388 C 0.24637 0.75889 0.64533 0.0
C389 C 0.23514 0.74261 0.66929 0.0
C390 C 0.24346 0.75533 0.69544 0.0
H391 H 0.15671 0.57138 0.71716 0.0
H392 H 0.17336 0.62131 0.71319 0.0
C393 C 0.26359 0.78364 0.69762 0.0
C394 C 0.21785 0.71179 0.66707 0.0
H395 H 0.15613 0.65534 0.68729 0.0
C396 C 0.22997 0.69742 0.65474 0.0
C397 C 0.19071 0.69651 0.67851 0.0
C398 C 0.17634 0.71092 0.69119 0.0
C399 C 0.21621 0.66816 0.65452 0.0
C400 C 0.1892 0.65279 0.66633 0.0
C401 C 0.17676 0.66715 0.67812 0.0
C402 C 0.17462 0.62188 0.66829 0.0
C403 C 0.23137 0.65405 0.64286 0.0
C404 C 0.16855 0.60539 0.64432 0.0
C405 C 0.15931 0.57686 0.64651 0.0
C406 C 0.15558 0.56425 0.67272 0.0
C407 C 0.15949 0.58042 0.69665 0.0
C408 C 0.16899 0.60899 0.69443 0.0
H409 H 0.25416 0.66881 0.64065 0.0
H410 H 0.22837 0.63645 0.65631 0.0
H411 H 0.22291 0.64557 0.62197 0.0
H412 H 0.17211 0.61482 0.62393 0.0
H413 H 0.15615 0.56494 0.62767 0.0
H414 H 0.2419 0.53051 0.71333 0.0
H415 H 0.29149 0.54595 0.71134 0.0
H416 H 0.27458 0.47931 0.65392 0.0
H417 H 0.22482 0.46521 0.65419 0.0
H418 H 0.32288 0.52706 0.72407 0.0
H419 H 0.33106 0.54118 0.60965 0.0
H420 H 0.29942 0.53231 0.62815 0.0
H421 H 0.30823 0.50579 0.62021 0.0
C422 C 0.24871 0.51903 0.70037 0.0
C423 C 0.22956 0.49682 0.68372 0.0
C424 C 0.27715 0.52786 0.69925 0.0
C425 C 0.28711 0.51429 0.68195 0.0
C426 C 0.26771 0.49088 0.66661 0.0
H427 H 0.4702 0.58739 0.70322 0.0
H428 H 0.42039 0.55181 0.7034 0.0
C429 C 0.23923 0.4826 0.667 0.0
C430 C 0.31786 0.52567 0.67967 0.0
H431 H 0.37216 0.55224 0.63365 0.0
C432 C 0.33365 0.53255 0.70426 0.0
C433 C 0.33204 0.53285 0.65382 0.0
C434 C 0.31688 0.52791 0.62648 0.0
C435 C 0.36299 0.54799 0.70391 0.0
C436 C 0.37718 0.5553 0.67807 0.0
C437 C 0.36138 0.54672 0.65346 0.0
C438 C 0.40793 0.57466 0.67585 0.0
C439 C 0.37817 0.55785 0.73129 0.0
C440 C 0.41795 0.59842 0.65884 0.0
C441 C 0.44641 0.61799 0.65776 0.0
C442 C 0.46553 0.61467 0.67418 0.0
C443 C 0.45581 0.59057 0.6906 0.0
C444 C 0.4273 0.57041 0.69095 0.0
H445 H 0.36401 0.55676 0.74823 0.0
H446 H 0.38676 0.54426 0.73727 0.0
H447 H 0.39567 0.57972 0.72984 0.0
H448 H 0.40363 0.60235 0.64695 0.0
H449 H 0.45326 0.63644 0.64503 0.0
H450 H 0.0139 0.24276 0.89607 0.0
H451 H 0.02649 0.2795 0.86151 0.0
H452 H 0.04437 0.33946 0.92681 0.0
H453 H 0.03186 0.30275 0.96171 0.0
H454 H 0.00638 0.31874 0.85205 0.0
H455 H 0.11864 0.3697 0.88184 0.0
H456 H 0.09356 0.33442 0.89197 0.0
H457 H 0.09429 0.36344 0.90945 0.0
C458 C 0.02022 0.26369 0.90315 0.0
C459 C 0.02212 0.26989 0.93168 0.0
C460 C 0.02734 0.28464 0.88333 0.0
C461 C 0.03668 0.31222 0.89162 0.0
C462 C 0.0375 0.31832 0.92003 0.0
H463 H 0.11965 0.46615 0.79628 0.0
H464 H 0.09625 0.43154 0.83283 0.0
C465 C 0.03025 0.29731 0.93992 0.0
C466 C 0.04704 0.33471 0.87049 0.0
H467 H 0.10676 0.39078 0.84612 0.0
C468 C 0.02829 0.33462 0.85078 0.0
C469 C 0.07564 0.35529 0.86889 0.0
C470 C 0.09684 0.35577 0.88898 0.0
C471 C 0.03739 0.35476 0.82955 0.0
C472 C 0.06611 0.37507 0.82765 0.0
C473 C 0.08475 0.37526 0.8476 0.0
C474 C 0.07762 0.3961 0.80496 0.0
C475 C 0.0161 0.35429 0.80962 0.0
C476 C 0.07472 0.38778 0.77701 0.0
C477 C 0.08793 0.40762 0.75597 0.0
C478 C 0.10464 0.43609 0.76256 0.0
C479 C 0.107 0.44438 0.79049 0.0
C480 C 0.09363 0.42461 0.81144 0.0
H481 H 0.99477 0.34347 0.81873 0.0
H482 H 0.02141 0.37577 0.80357 0.0
H483 H 0.01567 0.34279 0.79058 0.0
H484 H 0.06305 0.36586 0.77152 0.0
H485 H 0.08588 0.40054 0.73468 0.0
H486 H 0.79517 0.79281 0.89476 0.0
H487 H 0.76082 0.7694 0.85796 0.0
H488 H 0.69531 0.73143 0.91914 0.0
H489 H 0.72981 0.7543 0.95629 0.0
H490 H 0.68893 0.69507 0.87643 0.0
H491 H 0.70816 0.79647 0.83402 0.0
H492 H 0.73904 0.79361 0.83574 0.0
H493 H 0.72155 0.79361 0.86725 0.0
C494 C 0.77349 0.7793 0.90045 0.0
C495 C 0.76516 0.77565 0.92844 0.0
C496 C 0.75385 0.76604 0.87935 0.0
C497 C 0.7254 0.74923 0.88574 0.0
C498 C 0.71715 0.7445 0.91373 0.0
H499 H 0.57084 0.67416 0.79392 0.0
H500 H 0.6073 0.6873 0.82894 0.0
C501 C 0.73687 0.75757 0.93493 0.0
C502 C 0.70424 0.73748 0.86319 0.0
H503 H 0.67865 0.75615 0.80768 0.0
C504 C 0.68665 0.7084 0.86141 0.0
C505 C 0.70121 0.75493 0.84364 0.0
C506 C 0.71829 0.78639 0.84534 0.0
C507 C 0.66634 0.69631 0.84041 0.0
C508 C 0.66346 0.71379 0.82085 0.0
C509 C 0.68114 0.7428 0.82253 0.0
C510 C 0.64125 0.7027 0.79936 0.0
C511 C 0.64825 0.66496 0.83913 0.0
C512 C 0.64822 0.70691 0.77105 0.0
C513 C 0.62737 0.69935 0.7509 0.0
C514 C 0.59924 0.68785 0.75879 0.0
C515 C 0.5923 0.68294 0.78713 0.0
C516 C 0.6131 0.69029 0.8072 0.0
H517 H 0.6575 0.65435 0.85102 0.0
H518 H 0.62749 0.65873 0.84822 0.0
H519 H 0.645 0.65751 0.8173 0.0
H520 H 0.66987 0.71666 0.7646 0.0
H521 H 0.63342 0.70353 0.72927 0.0
H522 H 0.32493 0.94389 0.73094 0.0
H523 H 0.31231 0.9681 0.76574 0.0
H524 H 0.3321 0.92771 0.83124 0.0
H525 H 0.34453 0.90336 0.79678 0.0
H526 H 0.26875 0.93682 0.80798 0.0
H527 H 0.3716 0.01257 0.85387 0.0
H528 H 0.36816 0.99798 0.81954 0.0
H529 H 0.36479 0.97738 0.84963 0.0
C530 C 0.32701 0.94051 0.75276 0.0
C531 C 0.33565 0.92165 0.76111 0.0
C532 C 0.31978 0.95433 0.77258 0.0
C533 C 0.32155 0.94987 0.80102 0.0
C534 C 0.33098 0.93174 0.8094 0.0
H535 H 0.27242 0.99226 0.95613 0.0
H536 H 0.29415 0.97865 0.91956 0.0
C537 C 0.33792 0.91772 0.78965 0.0
C538 C 0.31117 0.96208 0.82198 0.0
H539 H 0.3312 0.00643 0.87747 0.0
C540 C 0.28239 0.95227 0.82301 0.0
C541 C 0.32904 0.98188 0.84175 0.0
C542 C 0.36017 0.9933 0.84117 0.0
C543 C 0.27082 0.96122 0.84374 0.0
C544 C 0.28867 0.98123 0.86348 0.0
C545 C 0.31755 0.99119 0.8623 0.0
C546 C 0.27758 0.99168 0.88565 0.0
C547 C 0.23944 0.94833 0.84485 0.0
C548 C 0.26186 0.00438 0.87878 0.0
C549 C 0.24919 0.01182 0.89954 0.0
C550 C 0.25243 0.00724 0.92767 0.0
C551 C 0.26949 0.99599 0.93464 0.0
C552 C 0.28191 0.98821 0.91377 0.0
H553 H 0.22863 0.92802 0.83369 0.0
H554 H 0.23183 0.94488 0.86662 0.0
H555 H 0.23346 0.96258 0.83471 0.0
H556 H 0.25892 0.00804 0.85727 0.0
H557 H 0.2365 0.02082 0.8935 0.0
H558 H 0.44494 0.15149 0.23692 0.0
H559 H 0.40898 0.12717 0.2019 0.0
H560 H 0.37803 0.05018 0.24776 0.0
H561 H 0.4131 0.0751 0.28398 0.0
H562 H 0.39827 0.08808 0.16752 0.0
H563 H 0.30686 0.04941 0.23792 0.0
H564 H 0.34186 0.07347 0.24938 0.0
H565 H 0.33001 0.03671 0.24673 0.0
C566 C 0.43043 0.12938 0.2396 0.0
C567 C 0.43167 0.11522 0.26328 0.0
C568 C 0.40987 0.11543 0.2195 0.0
C569 C 0.39033 0.08685 0.22228 0.0
C570 C 0.39219 0.07239 0.24549 0.0
H571 H 0.28362 0.01094 0.07388 0.0
H572 H 0.31879 0.02122 0.11003 0.0
C573 C 0.41238 0.08657 0.26608 0.0
C574 C 0.36819 0.07276 0.20077 0.0
H575 H 0.2975 0.03589 0.19105 0.0
C576 C 0.37621 0.07664 0.17269 0.0
C577 C 0.33935 0.05788 0.20743 0.0
C578 C 0.32895 0.05432 0.23696 0.0
C579 C 0.3564 0.06731 0.15117 0.0
C580 C 0.32756 0.05232 0.15782 0.0
C581 C 0.31956 0.0473 0.18589 0.0
C582 C 0.30532 0.04404 0.13639 0.0
C583 C 0.36672 0.07512 0.1217 0.0
C584 C 0.2851 0.05212 0.13968 0.0
C585 C 0.26451 0.04542 0.11959 0.0
C586 C 0.2639 0.0309 0.09544 0.0
C587 C 0.28384 0.02245 0.09216 0.0
C588 C 0.30408 0.02854 0.11271 0.0
H589 H 0.38856 0.09285 0.12095 0.0
H590 H 0.36635 0.05701 0.11137 0.0
H591 H 0.35332 0.08102 0.10967 0.0
H592 H 0.2855 0.0641 0.15765 0.0
H593 H 0.24949 0.05231 0.12267 0.0
H594 H 0.99684 0.28178 0.06798 0.0
H595 H 0.98525 0.30525 0.10437 0.0
H596 H 0.00582 0.26273 0.16702 0.0
H597 H 0.01682 0.23881 0.13089 0.0
H598 H 0.95529 0.25736 0.17581 0.0
H599 H 0.0327 0.36884 0.1569 0.0
H600 H 0.01268 0.35105 0.12668 0.0
H601 H 0.03592 0.34073 0.14174 0.0
C602 C 0.99929 0.27776 0.08951 0.0
C603 C 0.00768 0.25837 0.09653 0.0
C604 C 0.99282 0.29133 0.1103 0.0
C605 C 0.99498 0.28602 0.13847 0.0
C606 C 0.00408 0.26723 0.14545 0.0
H607 H 0.94757 0.33288 0.29398 0.0
H608 H 0.97074 0.31905 0.25916 0.0
C609 C 0.01036 0.25357 0.12474 0.0
C610 C 0.9856 0.29813 0.16067 0.0
H611 H 0.99506 0.35946 0.18768 0.0
C612 C 0.96422 0.2797 0.17857 0.0
C613 C 0.99719 0.32729 0.16423 0.0
C614 C 0.02108 0.34815 0.14655 0.0
C615 C 0.95373 0.28956 0.19951 0.0
C616 C 0.96506 0.31864 0.20282 0.0
C617 C 0.98651 0.33716 0.18509 0.0
C618 C 0.95384 0.32993 0.22391 0.0
C619 C 0.93006 0.26881 0.21752 0.0
C620 C 0.93736 0.34132 0.21555 0.0
C621 C 0.92402 0.34909 0.23532 0.0
C622 C 0.92712 0.34583 0.26385 0.0
C623 C 0.94476 0.33565 0.27219 0.0
C624 C 0.95794 0.32767 0.25234 0.0
H625 H 0.92081 0.24711 0.20954 0.0
H626 H 0.93797 0.26941 0.23884 0.0
H627 H 0.91336 0.27434 0.2189 0.0
H628 H 0.93398 0.34323 0.19369 0.0
H629 H 0.91069 0.35698 0.2282 0.0
H630 H 0.67912 0.57331 0.22907 0.0
H631 H 0.69172 0.61003 0.19438 0.0
H632 H 0.71418 0.67099 0.25957 0.0
H633 H 0.70149 0.63432 0.29456 0.0
H634 H 0.67313 0.65326 0.18854 0.0
H635 H 0.78639 0.69536 0.20938 0.0
H636 H 0.76012 0.66026 0.21883 0.0
H637 H 0.76406 0.68935 0.23887 0.0
C638 C 0.68642 0.59446 0.23609 0.0
C639 C 0.68949 0.60094 0.26459 0.0
C640 C 0.69353 0.61538 0.21622 0.0
C641 C 0.70406 0.64318 0.22445 0.0
C642 C 0.70621 0.64963 0.25286 0.0
H643 H 0.79036 0.79759 0.13107 0.0
H644 H 0.76735 0.76251 0.16729 0.0
C645 C 0.6989 0.62865 0.27279 0.0
C646 C 0.71447 0.66558 0.20327 0.0
H647 H 0.77464 0.71854 0.17581 0.0
C648 C 0.6953 0.66765 0.18575 0.0
C649 C 0.74338 0.68419 0.19971 0.0
C650 C 0.76483 0.68225 0.21751 0.0
C651 C 0.70434 0.68816 0.16487 0.0
C652 C 0.73333 0.70658 0.16107 0.0
C653 C 0.75242 0.70449 0.17875 0.0
C654 C 0.74462 0.72812 0.13884 0.0
C655 C 0.68277 0.69022 0.14744 0.0
C656 C 0.73925 0.72056 0.11069 0.0
C657 C 0.75228 0.74069 0.08984 0.0
C658 C 0.77119 0.76865 0.09679 0.0
C659 C 0.77596 0.77623 0.12498 0.0
C660 C 0.76282 0.75619 0.14575 0.0
H661 H 0.66214 0.68051 0.158 0.0
H662 H 0.68941 0.71232 0.14263 0.0
H663 H 0.68006 0.679 0.12756 0.0
H664 H 0.72579 0.69894 0.10481 0.0
H665 H 0.74833 0.73414 0.06833 0.0
H666 H 0.06196 0.41801 0.62849 0.0
H667 H 0.0256 0.39455 0.5931 0.0
H668 H 0.08818 0.42877 0.52883 0.0
H669 H 0.12456 0.45221 0.5639 0.0
H670 H 0.01629 0.42504 0.55032 0.0
H671 H 0.03887 0.34568 0.50625 0.0
H672 H 0.05128 0.36126 0.54002 0.0
H673 H 0.06859 0.38027 0.50913 0.0
C674 C 0.06804 0.42009 0.60686 0.0
C675 C 0.09614 0.43703 0.59901 0.0
C676 C 0.04724 0.40671 0.58668 0.0
C677 C 0.05423 0.4097 0.55837 0.0
C678 C 0.08237 0.42577 0.55056 0.0
H679 H 0.96619 0.37318 0.40128 0.0
H680 H 1.00054 0.38468 0.43854 0.0
C681 C 0.10312 0.4393 0.57067 0.0
C682 C 0.03204 0.39844 0.53686 0.0
H683 H 0.00719 0.35466 0.48092 0.0
C684 C 0.01406 0.40941 0.53533 0.0
C685 C 0.02949 0.37836 0.51712 0.0
C686 C 0.04792 0.36548 0.51823 0.0
C687 C 0.994 0.40138 0.51419 0.0
C688 C 0.99131 0.38119 0.49445 0.0
C689 C 0.0092 0.37005 0.49609 0.0
C690 C 0.97025 0.37176 0.47181 0.0
C691 C 0.9766 0.41541 0.51266 0.0
C692 C 0.94174 0.35978 0.47807 0.0
C693 C 0.92218 0.35348 0.45691 0.0
C694 C 0.93066 0.35858 0.42897 0.0
C695 C 0.95902 0.36907 0.42259 0.0
C696 C 0.97866 0.37565 0.44386 0.0
H697 H 0.98646 0.43552 0.52417 0.0
H698 H 0.97333 0.41949 0.4908 0.0
H699 H 0.95586 0.40156 0.52215 0.0
H700 H 0.93466 0.35587 0.49942 0.0
H701 H 0.90045 0.34508 0.46251 0.0
H702 H 0.66234 0.61746 0.39675 0.0
H703 H 0.64983 0.64154 0.43177 0.0
H704 H 0.67277 0.6033 0.49685 0.0
H705 H 0.68529 0.57925 0.46217 0.0
H706 H 0.60794 0.61211 0.47309 0.0
H707 H 0.71016 0.68621 0.52079 0.0
H708 H 0.70719 0.67088 0.48692 0.0
H709 H 0.70329 0.65093 0.51774 0.0
C710 C 0.66521 0.61459 0.41851 0.0
C711 C 0.67476 0.59641 0.42668 0.0
C712 C 0.65801 0.62832 0.43847 0.0
C713 C 0.66066 0.62443 0.46689 0.0
C714 C 0.67103 0.607 0.47505 0.0
H715 H 0.60824 0.66082 0.62304 0.0
H716 H 0.63051 0.6485 0.58595 0.0
C717 C 0.67802 0.59313 0.45516 0.0
C718 C 0.65014 0.63635 0.48809 0.0
H719 H 0.66944 0.67873 0.54513 0.0
C720 C 0.62141 0.62694 0.48865 0.0
C721 C 0.66774 0.6554 0.50854 0.0
C722 C 0.69886 0.66668 0.50844 0.0
C723 C 0.60963 0.63546 0.50957 0.0
C724 C 0.6272 0.65453 0.5301 0.0
C725 C 0.65602 0.66417 0.52937 0.0
C726 C 0.61583 0.66423 0.55271 0.0
C727 C 0.5783 0.62309 0.51005 0.0
C728 C 0.60098 0.67798 0.54643 0.0
C729 C 0.58806 0.68479 0.5675 0.0
C730 C 0.59009 0.67838 0.59536 0.0
C731 C 0.60623 0.66597 0.60179 0.0
C732 C 0.61897 0.65892 0.58062 0.0
H733 H 0.56743 0.60346 0.4978 0.0
H734 H 0.57016 0.61858 0.53163 0.0
H735 H 0.57298 0.63821 0.50081 0.0
H736 H 0.5989 0.68296 0.52513 0.0
H737 H 0.57606 0.69465 0.56187 0.0
H738 H 0.37252 0.96747 0.6289 0.0
H739 H 0.38542 0.00424 0.59393 0.0
H740 H 0.36442 0.94356 0.5287 0.0
H741 H 0.35174 0.90684 0.56333 0.0
H742 H 0.42863 0.0154 0.55105 0.0
H743 H 0.32573 0.99008 0.5066 0.0
H744 H 0.32935 0.97922 0.54102 0.0
H745 H 0.33185 0.96128 0.51109 0.0
C746 C 0.37025 0.9619 0.60712 0.0
C747 C 0.3612 0.93428 0.59887 0.0
C748 C 0.37763 0.98291 0.5872 0.0
C749 C 0.3756 0.97651 0.55879 0.0
C750 C 0.36576 0.94883 0.55053 0.0
H751 H 0.42382 0.06762 0.40327 0.0
H752 H 0.40219 0.03238 0.43998 0.0
C753 C 0.35867 0.92791 0.57037 0.0
C754 C 0.38611 0.99901 0.53771 0.0
H755 H 0.36611 0.02391 0.48269 0.0
C756 C 0.41498 0.0175 0.53626 0.0
C757 C 0.36823 0.0013 0.51826 0.0
C758 C 0.33701 0.98207 0.51928 0.0
C759 C 0.42661 0.03792 0.51542 0.0
C760 C 0.40874 0.04047 0.49602 0.0
C761 C 0.37978 0.02202 0.49761 0.0
C762 C 0.41989 0.06199 0.4738 0.0
C763 C 0.45803 0.05584 0.51384 0.0
C764 C 0.43623 0.09038 0.48059 0.0
C765 C 0.44885 0.11042 0.45974 0.0
C766 C 0.44492 0.10255 0.43162 0.0
C767 C 0.42728 0.0743 0.42476 0.0
C768 C 0.41492 0.05416 0.4457 0.0
H769 H 0.46862 0.04597 0.5247 0.0
H770 H 0.46531 0.05986 0.49196 0.0
H771 H 0.46462 0.0762 0.52404 0.0
H772 H 0.43968 0.09702 0.50209 0.0
H773 H 0.462 0.13208 0.46571 0.0
loop_
_geom_bond_atom_site_label_1
_geom_bond_atom_site_label_2
_geom_bond_distance
_geom_bond_site_symmetry_2
_ccdc_geom_bond_type
O0 Cd1 2.223 . S
O0 C8 1.315 . S
Cd1 O0 2.223 . S
Cd1 O4 2.297 . S
Cd1 O5 2.439 . S
Cd1 O11 2.240 1_456 S
Cd2 O3 2.240 . S
Cd2 O10 2.223 1_455 S
Cd2 O12 2.297 1_455 S
Cd2 O13 2.439 1_455 S
O3 Cd2 2.240 . S
O3 C8 1.279 1_554 S
O4 Cd1 2.297 . S
O4 C6 1.247 . S
O5 Cd1 2.439 . S
O5 C6 1.208 . S
C6 O4 1.247 . S
C6 O5 1.208 . S
C7 O12 1.247 . S
C7 O13 1.208 . S
C8 O0 1.315 . S
C8 O3 1.279 1_556 S
C9 O10 1.315 . S
C9 O11 1.279 . S
O10 Cd2 2.223 1_655 S
O10 C9 1.315 . S
O11 Cd1 2.240 1_654 S
O11 C9 1.279 . S
O12 Cd2 2.297 1_655 S
O12 C7 1.247 . S
O13 Cd2 2.439 1_655 S
O13 C7 1.208 . S
O14 Cd15 2.223 . S
O14 C22 1.315 . S
Cd15 O14 2.223 . S
Cd15 O18 2.297 . S
Cd15 O19 2.439 . S
Cd15 O25 2.240 . S
Cd16 O17 2.240 1_556 S
Cd16 O24 2.223 . S
Cd16 O26 2.297 . S
Cd16 O27 2.439 . S
O17 Cd16 2.240 1_554 S
O17 C22 1.279 . S
O18 Cd15 2.297 . S
O18 C20 1.247 . S
O19 Cd15 2.439 . S
O19 C20 1.208 . S
C20 O18 1.247 . S
C20 O19 1.208 . S
C21 O26 1.247 . S
C21 O27 1.208 . S
C22 O14 1.315 . S
C22 O17 1.279 . S
C23 O24 1.315 . S
C23 O25 1.279 1_556 S
O24 Cd16 2.223 . S
O24 C23 1.315 . S
O25 Cd15 2.240 . S
O25 C23 1.279 1_554 S
O26 Cd16 2.297 . S
O26 C21 1.247 . S
O27 Cd16 2.439 . S
O27 C21 1.208 . S
O28 Cd29 2.223 1_565 S
O28 C36 1.315 . S
Cd29 O28 2.223 1_545 S
Cd29 O32 2.297 1_545 S
Cd29 O33 2.439 . S
Cd29 O39 2.240 1_556 S
Cd30 O31 2.240 1_545 S
Cd30 O38 2.223 . S
Cd30 O40 2.297 . S
Cd30 O41 2.439 . S
O31 Cd30 2.240 1_565 S
O31 C36 1.279 1_554 S
O32 Cd29 2.297 1_565 S
O32 C34 1.247 . S
O33 Cd29 2.439 . S
O33 C34 1.208 1_545 S
C34 O32 1.247 . S
C34 O33 1.208 1_565 S
C35 O40 1.247 . S
C35 O41 1.208 . S
C36 O28 1.315 . S
C36 O31 1.279 1_556 S
C37 O38 1.315 . S
C37 O39 1.279 . S
O38 Cd30 2.223 . S
O38 C37 1.315 . S
O39 Cd29 2.240 1_554 S
O39 C37 1.279 . S
O40 Cd30 2.297 . S
O40 C35 1.247 . S
O41 Cd30 2.439 . S
O41 C35 1.208 . S
O42 Cd43 2.223 . S
O42 C50 1.315 . S
Cd43 O42 2.223 . S
Cd43 O46 2.297 . S
Cd43 O47 2.439 . S
Cd43 O53 2.240 . S
Cd44 O45 2.240 . S
Cd44 O52 2.223 . S
Cd44 O54 2.297 . S
Cd44 O55 2.439 . S
O45 Cd44 2.240 . S
O45 C50 1.279 . S
O46 Cd43 2.297 . S
O46 C48 1.247 . S
O47 Cd43 2.439 . S
O47 C48 1.208 . S
C48 O46 1.247 . S
C48 O47 1.208 . S
C49 O54 1.247 . S
C49 O55 1.208 . S
C50 O42 1.315 . S
C50 O45 1.279 . S
C51 O52 1.315 . S
C51 O53 1.279 . S
O52 Cd44 2.223 . S
O52 C51 1.315 . S
O53 Cd43 2.240 . S
O53 C51 1.279 . S
O54 Cd44 2.297 . S
O54 C49 1.247 . S
O55 Cd44 2.439 . S
O55 C49 1.208 . S
O56 Cd57 2.223 . S
O56 C64 1.315 . S
Cd57 O56 2.223 . S
Cd57 O60 2.297 . S
Cd57 O61 2.439 . S
Cd57 O67 2.240 . S
Cd58 O59 2.240 . S
Cd58 O66 2.223 . S
Cd58 O68 2.297 . S
Cd58 O69 2.439 . S
O59 Cd58 2.240 . S
O59 C64 1.279 . S
O60 Cd57 2.297 . S
O60 C62 1.247 . S
O61 Cd57 2.439 . S
O61 C62 1.208 . S
C62 O60 1.247 . S
C62 O61 1.208 . S
C63 O68 1.247 . S
C63 O69 1.208 . S
C64 O56 1.315 . S
C64 O59 1.279 . S
C65 O66 1.315 . S
C65 O67 1.279 . S
O66 Cd58 2.223 . S
O66 C65 1.315 . S
O67 Cd57 2.240 . S
O67 C65 1.279 . S
O68 Cd58 2.297 . S
O68 C63 1.247 . S
O69 Cd58 2.439 . S
O69 C63 1.208 . S
O70 Cd71 2.223 . S
O70 C78 1.315 . S
Cd71 O70 2.223 . S
Cd71 O74 2.297 . S
Cd71 O75 2.439 . S
Cd71 O81 2.240 . S
Cd72 O73 2.240 . S
Cd72 O80 2.223 . S
Cd72 O82 2.297 . S
Cd72 O83 2.439 . S
O73 Cd72 2.240 . S
O73 C78 1.279 . S
O74 Cd71 2.297 . S
O74 C76 1.247 . S
O75 Cd71 2.439 . S
O75 C76 1.208 . S
C76 O74 1.247 . S
C76 O75 1.208 . S
C77 O82 1.247 . S
C77 O83 1.208 . S
C78 O70 1.315 . S
C78 O73 1.279 . S
C79 O80 1.315 . S
C79 O81 1.279 . S
O80 Cd72 2.223 . S
O80 C79 1.315 . S
O81 Cd71 2.240 . S
O81 C79 1.279 . S
O82 Cd72 2.297 . S
O82 C77 1.247 . S
O83 Cd72 2.439 . S
O83 C77 1.208 . S
O84 Cd85 2.223 . S
O84 C92 1.315 . S
Cd85 O84 2.223 . S
Cd85 O88 2.297 . S
Cd85 O89 2.439 . S
Cd85 O95 2.240 . S
Cd86 O87 2.240 . S
Cd86 O94 2.223 . S
Cd86 O96 2.297 . S
Cd86 O97 2.439 . S
O87 Cd86 2.240 . S
O87 C92 1.279 . S
O88 Cd85 2.297 . S
O88 C90 1.247 . S
O89 Cd85 2.439 . S
O89 C90 1.208 . S
C90 O88 1.247 . S
C90 O89 1.208 . S
C91 O96 1.247 . S
C91 O97 1.208 . S
C92 O84 1.315 . S
C92 O87 1.279 . S
C93 O94 1.315 . S
C93 O95 1.279 . S
O94 Cd86 2.223 . S
O94 C93 1.315 . S
O95 Cd85 2.240 . S
O95 C93 1.279 . S
O96 Cd86 2.297 . S
O96 C91 1.247 . S
O97 Cd86 2.439 . S
O97 C91 1.208 . S
O98 Cd99 2.223 . S
O98 C106 1.315 . S
Cd99 O98 2.223 . S
Cd99 O102 2.297 . S
Cd99 O103 2.439 . S
Cd99 O109 2.240 . S
Cd100 O101 2.240 . S
Cd100 O108 2.223 . S
Cd100 O110 2.297 . S
Cd100 O111 2.439 . S
O101 Cd100 2.240 . S
O101 C106 1.279 . S
O102 Cd99 2.297 . S
O102 C104 1.247 . S
O103 Cd99 2.439 . S
O103 C104 1.208 . S
C104 O102 1.247 . S
C104 O103 1.208 . S
C105 O110 1.247 . S
C105 O111 1.208 . S
C106 O98 1.315 . S
C106 O101 1.279 . S
C107 O108 1.315 . S
C107 O109 1.279 . S
O108 Cd100 2.223 . S
O108 C107 1.315 . S
O109 Cd99 2.240 . S
O109 C107 1.279 . S
O110 Cd100 2.297 . S
O110 C105 1.247 . S
O111 Cd100 2.439 . S
O111 C105 1.208 . S
O112 Cd113 2.223 . S
O112 C120 1.315 . S
Cd113 O112 2.223 . S
Cd113 O116 2.297 . S
Cd113 O117 2.439 . S
Cd113 O123 2.240 . S
Cd114 O115 2.240 . S
Cd114 O122 2.223 . S
Cd114 O124 2.297 . S
Cd114 O125 2.439 . S
O115 Cd114 2.240 . S
O115 C120 1.279 . S
O116 Cd113 2.297 . S
O116 C118 1.247 . S
O117 Cd113 2.439 . S
O117 C118 1.208 . S
C118 O116 1.247 . S
C118 O117 1.208 . S
C119 O124 1.247 . S
C119 O125 1.208 . S
C120 O112 1.315 . S
C120 O115 1.279 . S
C121 O122 1.315 . S
C121 O123 1.279 . S
O122 Cd114 2.223 . S
O122 C121 1.315 . S
O123 Cd113 2.240 . S
O123 C121 1.279 . S
O124 Cd114 2.297 . S
O124 C119 1.247 . S
O125 Cd114 2.439 . S
O125 C119 1.208 . S
H126 C134 0.929 . S
H127 C136 0.930 . S
H128 C138 0.930 . S
H129 C141 0.929 . S
H130 C144 0.930 . S
H131 C146 0.960 . S
H132 C146 0.960 . S
H133 C146 0.960 1_556 S
C134 H126 0.929 . S
C134 C135 1.377 . S
C134 C136 1.384 . S
C135 C134 1.377 . S
C135 C141 1.390 1_554 S
C136 H127 0.930 . S
C136 C134 1.384 . S
C136 C137 1.372 . S
C137 C136 1.372 . S
C137 C138 1.400 1_554 S
C137 C142 1.490 . S
C138 H128 0.930 . S
C138 C137 1.400 1_556 S
C138 C141 1.386 . S
H139 C155 0.930 . S
H140 C156 0.931 . S
C141 H129 0.929 . S
C141 C135 1.390 1_556 S
C141 C138 1.386 . S
C142 C137 1.490 . S
C142 C144 1.395 . S
C142 C145 1.403 . S
H143 C149 0.930 . S
C144 H130 0.930 . S
C144 C142 1.395 . S
C144 C147 1.403 . S
C145 C142 1.403 . S
C145 C146 1.524 . S
C145 C149 1.400 . S
C146 H131 0.960 . S
C146 H132 0.960 . S
C146 H133 0.960 1_554 S
C146 C145 1.524 . S
C147 C144 1.403 . S
C147 C148 1.392 . S
C147 C151 1.495 . S
C148 C147 1.392 . S
C148 C149 1.385 . S
C148 C150 1.478 . S
C149 H143 0.930 . S
C149 C145 1.400 . S
C149 C148 1.385 . S
C150 C148 1.478 . S
C150 C152 1.381 . S
C150 C156 1.383 1_554 S
C151 C147 1.495 . S
C151 H157 0.959 . S
C151 H158 0.961 1_554 S
C151 H159 0.960 . S
C152 C150 1.381 . S
C152 C153 1.394 . S
C152 H160 0.930 . S
C153 C152 1.394 . S
C153 C154 1.383 . S
C153 H161 0.929 . S
C154 C153 1.383 . S
C154 C155 1.377 1_554 S
C155 H139 0.930 . S
C155 C154 1.377 1_556 S
C155 C156 1.379 . S
C156 H140 0.931 . S
C156 C150 1.383 1_556 S
C156 C155 1.379 . S
H157 C151 0.959 . S
H158 C151 0.961 1_556 S
H159 C151 0.960 . S
H160 C152 0.930 . S
H161 C153 0.929 . S
H162 C170 0.929 . S
H163 C172 0.930 . S
H164 C174 0.932 . S
H165 C177 0.930 1_556 S
H166 C180 0.930 1_565 S
H167 C182 0.960 1_545 S
H168 C182 0.960 . S
H169 C182 0.960 . S
C170 H162 0.929 . S
C170 C171 1.377 . S
C170 C172 1.384 . S
C171 C170 1.377 . S
C171 C177 1.390 . S
C172 H163 0.930 . S
C172 C170 1.384 . S
C172 C173 1.372 . S
C173 C172 1.372 . S
C173 C174 1.400 . S
C173 C178 1.490 . S
C174 H164 0.932 . S
C174 C173 1.400 . S
C174 C177 1.385 . S
H175 C191 0.930 . S
H176 C192 0.931 1_556 S
C177 H165 0.930 1_554 S
C177 C171 1.390 . S
C177 C174 1.385 . S
C178 C173 1.490 . S
C178 C180 1.395 1_564 S
C178 C181 1.403 1_565 S
H179 C185 0.930 . S
C180 H166 0.930 1_545 S
C180 C178 1.395 1_546 S
C180 C183 1.403 . S
C181 C178 1.403 1_545 S
C181 C182 1.524 1_545 S
C181 C185 1.400 . S
C182 H167 0.960 1_565 S
C182 H168 0.960 . S
C182 H169 0.960 . S
C182 C181 1.524 1_565 S
C183 C180 1.403 . S
C183 C184 1.392 1_556 S
C183 C187 1.495 . S
C184 C183 1.392 1_554 S
C184 C185 1.385 . S
C184 C186 1.478 . S
C185 H179 0.930 . S
C185 C181 1.400 . S
C185 C184 1.385 . S
C186 C184 1.478 . S
C186 C188 1.381 . S
C186 C192 1.383 . S
C187 C183 1.495 . S
C187 H193 0.959 . S
C187 H194 0.961 . S
C187 H195 0.960 . S
C188 C186 1.381 . S
C188 C189 1.394 . S
C188 H196 0.930 . S
C189 C188 1.394 . S
C189 C190 1.383 . S
C189 H197 0.929 . S
C190 C189 1.383 . S
C190 C191 1.377 . S
C191 H175 0.930 . S
C191 C190 1.377 . S
C191 C192 1.379 . S
C192 H176 0.931 1_554 S
C192 C186 1.383 . S
C192 C191 1.379 . S
H193 C187 0.959 . S
H194 C187 0.961 . S
H195 C187 0.960 . S
H196 C188 0.930 . S
H197 C189 0.929 . S
H198 C206 0.929 1_556 S
H199 C208 0.930 1_556 S
H200 C210 0.930 . S
H201 C213 0.929 . S
H202 C216 0.967 . S
H203 C218 0.928 1_455 S
H204 C218 0.960 . S
H205 C218 0.960 . S
C206 H198 0.929 1_554 S
C206 C207 1.377 . S
C206 C208 1.384 . S
C207 C206 1.377 . S
C207 C213 1.390 . S
C208 H199 0.930 1_554 S
C208 C206 1.384 . S
C208 C209 1.372 . S
C209 C208 1.372 . S
C209 C210 1.400 . S
C209 C214 1.490 . S
C210 H200 0.930 . S
C210 C209 1.400 . S
C210 C213 1.386 . S
H211 C227 0.930 . S
H212 C228 0.931 . S
C213 H201 0.929 . S
C213 C207 1.390 . S
C213 C210 1.386 . S
C214 C209 1.490 . S
C214 C216 1.399 . S
C214 C217 1.397 1_654 S
H215 C221 0.930 . S
C216 H202 0.967 . S
C216 C214 1.399 . S
C216 C219 1.365 1_655 S
C217 C214 1.397 1_456 S
C217 C218 1.523 1_455 S
C217 C221 1.406 . S
C218 H203 0.928 1_655 S
C218 H204 0.960 . S
C218 H205 0.960 . S
C218 C217 1.523 1_655 S
C219 C216 1.365 1_455 S
C219 C220 1.392 . S
C219 C223 1.495 . S
C220 C219 1.392 . S
C220 C221 1.385 1_554 S
C220 C222 1.478 . S
C221 H215 0.930 . S
C221 C217 1.406 . S
C221 C220 1.385 1_556 S
C222 C220 1.478 . S
C222 C224 1.381 1_554 S
C222 C228 1.383 . S
C223 C219 1.495 . S
C223 H229 0.959 . S
C223 H230 0.961 . S
C223 H231 0.960 . S
C224 C222 1.381 1_556 S
C224 C225 1.394 . S
C224 H232 0.930 . S
C225 C224 1.394 . S
C225 C226 1.383 1_556 S
C225 H233 0.943 . S
C226 C225 1.383 1_554 S
C226 C227 1.377 . S
C227 H211 0.930 . S
C227 C226 1.377 . S
C227 C228 1.379 . S
C228 H212 0.931 . S
C228 C222 1.383 . S
C228 C227 1.379 . S
H229 C223 0.959 . S
H230 C223 0.961 . S
H231 C223 0.960 . S
H232 C224 0.930 . S
H233 C225 0.943 . S
H234 C242 0.929 . S
H235 C244 0.930 . S
H236 C246 0.930 . S
H237 C249 0.929 . S
H238 C252 0.930 . S
H239 C254 0.960 . S
H240 C254 0.960 . S
H241 C254 0.960 . S
C242 H234 0.929 . S
C242 C243 1.377 . S
C242 C244 1.384 . S
C243 C242 1.377 . S
C243 C249 1.390 . S
C244 H235 0.930 . S
C244 C242 1.384 . S
C244 C245 1.372 . S
C245 C244 1.372 . S
C245 C246 1.400 . S
C245 C250 1.490 . S
C246 H236 0.930 . S
C246 C245 1.400 . S
C246 C249 1.386 . S
H247 C263 0.930 . S
H248 C264 0.931 . S
C249 H237 0.929 . S
C249 C243 1.390 . S
C249 C246 1.386 . S
C250 C245 1.490 . S
C250 C252 1.395 . S
C250 C253 1.403 . S
H251 C257 0.930 . S
C252 H238 0.930 . S
C252 C250 1.395 . S
C252 C255 1.403 . S
C253 C250 1.403 . S
C253 C254 1.524 . S
C253 C257 1.400 . S
C254 H239 0.960 . S
C254 H240 0.960 . S
C254 H241 0.960 . S
C254 C253 1.524 . S
C255 C252 1.403 . S
C255 C256 1.392 . S
C255 C259 1.495 . S
C256 C255 1.392 . S
C256 C257 1.385 . S
C256 C258 1.478 . S
C257 H251 0.930 . S
C257 C253 1.400 . S
C257 C256 1.385 . S
C258 C256 1.478 . S
C258 C260 1.381 . S
C258 C264 1.383 . S
C259 C255 1.495 . S
C259 H265 0.959 . S
C259 H266 0.961 . S
C259 H267 0.960 . S
C260 C258 1.381 . S
C260 C261 1.394 . S
C260 H268 0.930 . S
C261 C260 1.394 . S
C261 C262 1.383 . S
C261 H269 0.929 . S
C262 C261 1.383 . S
C262 C263 1.377 . S
C263 H247 0.930 . S
C263 C262 1.377 . S
C263 C264 1.379 . S
C264 H248 0.931 . S
C264 C258 1.383 . S
C264 C263 1.379 . S
H265 C259 0.959 . S
H266 C259 0.961 . S
H267 C259 0.960 . S
H268 C260 0.930 . S
H269 C261 0.929 . S
H270 C278 0.929 . S
H271 C280 0.930 . S
H272 C282 0.930 . S
H273 C285 0.929 . S
H274 C288 0.930 . S
H275 C290 0.960 . S
H276 C290 0.960 . S
H277 C290 0.960 . S
C278 H270 0.929 . S
C278 C279 1.377 . S
C278 C280 1.384 . S
C279 C278 1.377 . S
C279 C285 1.390 . S
C280 H271 0.930 . S
C280 C278 1.384 . S
C280 C281 1.372 . S
C281 C280 1.372 . S
C281 C282 1.400 . S
C281 C286 1.490 . S
C282 H272 0.930 . S
C282 C281 1.400 . S
C282 C285 1.386 . S
H283 C299 0.930 . S
H284 C300 0.931 . S
C285 H273 0.929 . S
C285 C279 1.390 . S
C285 C282 1.386 . S
C286 C281 1.490 . S
C286 C288 1.395 . S
C286 C289 1.403 . S
H287 C293 0.930 . S
C288 H274 0.930 . S
C288 C286 1.395 . S
C288 C291 1.403 . S
C289 C286 1.403 . S
C289 C290 1.524 . S
C289 C293 1.400 . S
C290 H275 0.960 . S
C290 H276 0.960 . S
C290 H277 0.960 . S
C290 C289 1.524 . S
C291 C288 1.403 . S
C291 C292 1.392 . S
C291 C295 1.495 . S
C292 C291 1.392 . S
C292 C293 1.385 . S
C292 C294 1.478 . S
C293 H287 0.930 . S
C293 C289 1.400 . S
C293 C292 1.385 . S
C294 C292 1.478 . S
C294 C296 1.381 . S
C294 C300 1.383 . S
C295 C291 1.495 . S
C295 H301 0.959 . S
C295 H302 0.961 . S
C295 H303 0.960 . S
C296 C294 1.381 . S
C296 C297 1.394 . S
C296 H304 0.930 . S
C297 C296 1.394 . S
C297 C298 1.383 . S
C297 H305 0.929 . S
C298 C297 1.383 . S
C298 C299 1.377 . S
C299 H283 0.930 . S
C299 C298 1.377 . S
C299 C300 1.379 . S
C300 H284 0.931 . S
C300 C294 1.383 . S
C300 C299 1.379 . S
H301 C295 0.959 . S
H302 C295 0.961 . S
H303 C295 0.960 . S
H304 C296 0.930 . S
H305 C297 0.929 . S
H306 C314 0.929 . S
H307 C316 0.930 . S
H308 C318 0.930 . S
H309 C321 0.929 . S
H310 C324 0.930 . S
H311 C326 0.960 . S
H312 C326 0.960 . S
H313 C326 0.960 . S
C314 H306 0.929 . S
C314 C315 1.377 . S
C314 C316 1.384 . S
C315 C314 1.377 . S
C315 C321 1.390 . S
C316 H307 0.930 . S
C316 C314 1.384 . S
C316 C317 1.372 . S
C317 C316 1.372 . S
C317 C318 1.400 . S
C317 C322 1.490 . S
C318 H308 0.930 . S
C318 C317 1.400 . S
C318 C321 1.386 . S
H319 C335 0.930 . S
H320 C336 0.931 . S
C321 H309 0.929 . S
C321 C315 1.390 . S
C321 C318 1.386 . S
C322 C317 1.490 . S
C322 C324 1.395 . S
C322 C325 1.403 . S
H323 C329 0.930 . S
C324 H310 0.930 . S
C324 C322 1.395 . S
C324 C327 1.403 . S
C325 C322 1.403 . S
C325 C326 1.524 . S
C325 C329 1.400 . S
C326 H311 0.960 . S
C326 H312 0.960 . S
C326 H313 0.960 . S
C326 C325 1.524 . S
C327 C324 1.403 . S
C327 C328 1.392 . S
C327 C331 1.495 . S
C328 C327 1.392 . S
C328 C329 1.385 . S
C328 C330 1.478 . S
C329 H323 0.930 . S
C329 C325 1.400 . S
C329 C328 1.385 . S
C330 C328 1.478 . S
C330 C332 1.381 . S
C330 C336 1.383 . S
C331 C327 1.495 . S
C331 H337 0.959 . S
C331 H338 0.961 . S
C331 H339 0.960 . S
C332 C330 1.381 . S
C332 C333 1.394 . S
C332 H340 0.930 . S
C333 C332 1.394 . S
C333 C334 1.383 . S
C333 H341 0.929 . S
C334 C333 1.383 . S
C334 C335 1.377 . S
C335 H319 0.930 . S
C335 C334 1.377 . S
C335 C336 1.379 . S
C336 H320 0.931 . S
C336 C330 1.383 . S
C336 C335 1.379 . S
H337 C331 0.959 . S
H338 C331 0.961 . S
H339 C331 0.960 . S
H340 C332 0.930 . S
H341 C333 0.929 . S
H342 C350 0.929 . S
H343 C352 0.930 . S
H344 C354 0.930 . S
H345 C357 0.929 . S
H346 C360 0.930 . S
H347 C362 0.960 . S
H348 C362 0.960 . S
H349 C362 0.960 . S
C350 H342 0.929 . S
C350 C351 1.377 . S
C350 C352 1.384 . S
C351 C350 1.377 . S
C351 C357 1.390 . S
C352 H343 0.930 . S
C352 C350 1.384 . S
C352 C353 1.372 . S
C353 C352 1.372 . S
C353 C354 1.400 . S
C353 C358 1.490 . S
C354 H344 0.930 . S
C354 C353 1.400 . S
C354 C357 1.386 . S
H355 C371 0.930 . S
H356 C372 0.931 . S
C357 H345 0.929 . S
C357 C351 1.390 . S
C357 C354 1.386 . S
C358 C353 1.490 . S
C358 C360 1.395 . S
C358 C361 1.403 . S
H359 C365 0.930 . S
C360 H346 0.930 . S
C360 C358 1.395 . S
C360 C363 1.403 . S
C361 C358 1.403 . S
C361 C362 1.524 . S
C361 C365 1.400 . S
C362 H347 0.960 . S
C362 H348 0.960 . S
C362 H349 0.960 . S
C362 C361 1.524 . S
C363 C360 1.403 . S
C363 C364 1.392 . S
C363 C367 1.495 . S
C364 C363 1.392 . S
C364 C365 1.385 . S
C364 C366 1.478 . S
C365 H359 0.930 . S
C365 C361 1.400 . S
C365 C364 1.385 . S
C366 C364 1.478 . S
C366 C368 1.381 . S
C366 C372 1.383 . S
C367 C363 1.495 . S
C367 H373 0.959 . S
C367 H374 0.961 . S
C367 H375 0.960 . S
C368 C366 1.381 . S
C368 C369 1.394 . S
C368 H376 0.930 . S
C369 C368 1.394 . S
C369 C370 1.383 . S
C369 H377 0.929 . S
C370 C369 1.383 . S
C370 C371 1.377 . S
C371 H355 0.930 . S
C371 C370 1.377 . S
C371 C372 1.379 . S
C372 H356 0.931 . S
C372 C366 1.383 . S
C372 C371 1.379 . S
H373 C367 0.959 . S
H374 C367 0.961 . S
H375 C367 0.960 . S
H376 C368 0.930 . S
H377 C369 0.929 . S
H378 C386 0.929 . S
H379 C388 0.930 . S
H380 C390 0.930 . S
H381 C393 0.929 . S
H382 C396 0.930 . S
H383 C398 0.960 . S
H384 C398 0.960 . S
H385 C398 0.960 . S
C386 H378 0.929 . S
C386 C387 1.377 . S
C386 C388 1.384 . S
C387 C386 1.377 . S
C387 C393 1.390 . S
C388 H379 0.930 . S
C388 C386 1.384 . S
C388 C389 1.372 . S
C389 C388 1.372 . S
C389 C390 1.400 . S
C389 C394 1.490 . S
C390 H380 0.930 . S
C390 C389 1.400 . S
C390 C393 1.386 . S
H391 C407 0.930 . S
H392 C408 0.931 . S
C393 H381 0.929 . S
C393 C387 1.390 . S
C393 C390 1.386 . S
C394 C389 1.490 . S
C394 C396 1.395 . S
C394 C397 1.403 . S
H395 C401 0.930 . S
C396 H382 0.930 . S
C396 C394 1.395 . S
C396 C399 1.403 . S
C397 C394 1.403 . S
C397 C398 1.524 . S
C397 C401 1.400 . S
C398 H383 0.960 . S
C398 H384 0.960 . S
C398 H385 0.960 . S
C398 C397 1.524 . S
C399 C396 1.403 . S
C399 C400 1.392 . S
C399 C403 1.495 . S
C400 C399 1.392 . S
C400 C401 1.385 . S
C400 C402 1.478 . S
C401 H395 0.930 . S
C401 C397 1.400 . S
C401 C400 1.385 . S
C402 C400 1.478 . S
C402 C404 1.381 . S
C402 C408 1.383 . S
C403 C399 1.495 . S
C403 H409 0.959 . S
C403 H410 0.961 . S
C403 H411 0.960 . S
C404 C402 1.381 . S
C404 C405 1.394 . S
C404 H412 0.930 . S
C405 C404 1.394 . S
C405 C406 1.383 . S
C405 H413 0.929 . S
C406 C405 1.383 . S
C406 C407 1.377 . S
C407 H391 0.930 . S
C407 C406 1.377 . S
C407 C408 1.379 . S
C408 H392 0.931 . S
C408 C402 1.383 . S
C408 C407 1.379 . S
H409 C403 0.959 . S
H410 C403 0.961 . S
H411 C403 0.960 . S
H412 C404 0.930 . S
H413 C405 0.929 . S
H414 C422 0.929 . S
H415 C424 0.930 . S
H416 C426 0.930 . S
H417 C429 0.929 . S
H418 C432 0.930 . S
H419 C434 0.960 . S
H420 C434 0.960 . S
H421 C434 0.960 . S
C422 H414 0.929 . S
C422 C423 1.377 . S
C422 C424 1.384 . S
C423 C422 1.377 . S
C423 C429 1.390 . S
C424 H415 0.930 . S
C424 C422 1.384 . S
C424 C425 1.372 . S
C425 C424 1.372 . S
C425 C426 1.400 . S
C425 C430 1.490 . S
C426 H416 0.930 . S
C426 C425 1.400 . S
C426 C429 1.386 . S
H427 C443 0.930 . S
H428 C444 0.931 . S
C429 H417 0.929 . S
C429 C423 1.390 . S
C429 C426 1.386 . S
C430 C425 1.490 . S
C430 C432 1.395 . S
C430 C433 1.403 . S
H431 C437 0.930 . S
C432 H418 0.930 . S
C432 C430 1.395 . S
C432 C435 1.403 . S
C433 C430 1.403 . S
C433 C434 1.524 . S
C433 C437 1.400 . S
C434 H419 0.960 . S
C434 H420 0.960 . S
C434 H421 0.960 . S
C434 C433 1.524 . S
C435 C432 1.403 . S
C435 C436 1.392 . S
C435 C439 1.495 . S
C436 C435 1.392 . S
C436 C437 1.385 . S
C436 C438 1.478 . S
C437 H431 0.930 . S
C437 C433 1.400 . S
C437 C436 1.385 . S
C438 C436 1.478 . S
C438 C440 1.381 . S
C438 C444 1.383 . S
C439 C435 1.495 . S
C439 H445 0.959 . S
C439 H446 0.961 . S
C439 H447 0.960 . S
C440 C438 1.381 . S
C440 C441 1.394 . S
C440 H448 0.930 . S
C441 C440 1.394 . S
C441 C442 1.383 . S
C441 H449 0.929 . S
C442 C441 1.383 . S
C442 C443 1.377 . S
C443 H427 0.930 . S
C443 C442 1.377 . S
C443 C444 1.379 . S
C444 H428 0.931 . S
C444 C438 1.383 . S
C444 C443 1.379 . S
H445 C439 0.959 . S
H446 C439 0.961 . S
H447 C439 0.960 . S
H448 C440 0.930 . S
H449 C441 0.929 . S
H450 C458 0.929 . S
H451 C460 0.930 . S
H452 C462 0.930 . S
H453 C465 0.929 . S
H454 C468 0.930 . S
H455 C470 0.960 . S
H456 C470 0.960 . S
H457 C470 0.960 . S
C458 H450 0.929 . S
C458 C459 1.377 . S
C458 C460 1.384 . S
C459 C458 1.377 . S
C459 C465 1.390 . S
C460 H451 0.930 . S
C460 C458 1.384 . S
C460 C461 1.372 . S
C461 C460 1.372 . S
C461 C462 1.400 . S
C461 C466 1.490 . S
C462 H452 0.930 . S
C462 C461 1.400 . S
C462 C465 1.386 . S
H463 C479 0.930 . S
H464 C480 0.931 . S
C465 H453 0.929 . S
C465 C459 1.390 . S
C465 C462 1.386 . S
C466 C461 1.490 . S
C466 C468 1.395 . S
C466 C469 1.403 . S
H467 C473 0.930 . S
C468 H454 0.930 . S
C468 C466 1.395 . S
C468 C471 1.403 . S
C469 C466 1.403 . S
C469 C470 1.524 . S
C469 C473 1.400 . S
C470 H455 0.960 . S
C470 H456 0.960 . S
C470 H457 0.960 . S
C470 C469 1.524 . S
C471 C468 1.403 . S
C471 C472 1.392 . S
C471 C475 1.495 . S
C472 C471 1.392 . S
C472 C473 1.385 . S
C472 C474 1.478 . S
C473 H467 0.930 . S
C473 C469 1.400 . S
C473 C472 1.385 . S
C474 C472 1.478 . S
C474 C476 1.381 . S
C474 C480 1.383 . S
C475 C471 1.495 . S
C475 H481 0.959 . S
C475 H482 0.961 . S
C475 H483 0.960 . S
C476 C474 1.381 . S
C476 C477 1.394 . S
C476 H484 0.930 . S
C477 C476 1.394 . S
C477 C478 1.383 . S
C477 H485 0.929 . S
C478 C477 1.383 . S
C478 C479 1.377 . S
C479 H463 0.930 . S
C479 C478 1.377 . S
C479 C480 1.379 . S
C480 H464 0.931 . S
C480 C474 1.383 . S
C480 C479 1.379 . S
H481 C475 0.959 . S
H482 C475 0.961 . S
H483 C475 0.960 . S
H484 C476 0.930 . S
H485 C477 0.929 . S
H486 C494 0.929 . S
H487 C496 0.930 . S
H488 C498 0.930 . S
H489 C501 0.929 . S
H490 C504 0.930 . S
H491 C506 0.960 . S
H492 C506 0.960 . S
H493 C506 0.960 . S
C494 H486 0.929 . S
C494 C495 1.377 . S
C494 C496 1.384 . S
C495 C494 1.377 . S
C495 C501 1.390 . S
C496 H487 0.930 . S
C496 C494 1.384 . S
C496 C497 1.372 . S
C497 C496 1.372 . S
C497 C498 1.400 . S
C497 C502 1.490 . S
C498 H488 0.930 . S
C498 C497 1.400 . S
C498 C501 1.386 . S
H499 C515 0.930 . S
H500 C516 0.931 . S
C501 H489 0.929 . S
C501 C495 1.390 . S
C501 C498 1.386 . S
C502 C497 1.490 . S
C502 C504 1.395 . S
C502 C505 1.403 . S
H503 C509 0.930 . S
C504 H490 0.930 . S
C504 C502 1.395 . S
C504 C507 1.403 . S
C505 C502 1.403 . S
C505 C506 1.524 . S
C505 C509 1.400 . S
C506 H491 0.960 . S
C506 H492 0.960 . S
C506 H493 0.960 . S
C506 C505 1.524 . S
C507 C504 1.403 . S
C507 C508 1.392 . S
C507 C511 1.495 . S
C508 C507 1.392 . S
C508 C509 1.385 . S
C508 C510 1.478 . S
C509 H503 0.930 . S
C509 C505 1.400 . S
C509 C508 1.385 . S
C510 C508 1.478 . S
C510 C512 1.381 . S
C510 C516 1.383 . S
C511 C507 1.495 . S
C511 H517 0.959 . S
C511 H518 0.961 . S
C511 H519 0.960 . S
C512 C510 1.381 . S
C512 C513 1.394 . S
C512 H520 0.930 . S
C513 C512 1.394 . S
C513 C514 1.383 . S
C513 H521 0.929 . S
C514 C513 1.383 . S
C514 C515 1.377 . S
C515 H499 0.930 . S
C515 C514 1.377 . S
C515 C516 1.379 . S
C516 H500 0.931 . S
C516 C510 1.383 . S
C516 C515 1.379 . S
H517 C511 0.959 . S
H518 C511 0.961 . S
H519 C511 0.960 . S
H520 C512 0.930 . S
H521 C513 0.929 . S
H522 C530 0.929 . S
H523 C532 0.930 . S
H524 C534 0.930 . S
H525 C537 0.929 . S
H526 C540 0.930 . S
H527 C542 0.960 . S
H528 C542 0.960 . S
H529 C542 0.960 . S
C530 H522 0.929 . S
C530 C531 1.377 . S
C530 C532 1.384 . S
C531 C530 1.377 . S
C531 C537 1.390 . S
C532 H523 0.930 . S
C532 C530 1.384 . S
C532 C533 1.372 . S
C533 C532 1.372 . S
C533 C534 1.400 . S
C533 C538 1.490 . S
C534 H524 0.930 . S
C534 C533 1.400 . S
C534 C537 1.386 . S
H535 C551 0.930 . S
H536 C552 0.931 . S
C537 H525 0.929 . S
C537 C531 1.390 . S
C537 C534 1.386 . S
C538 C533 1.490 . S
C538 C540 1.395 . S
C538 C541 1.403 . S
H539 C545 0.930 . S
C540 H526 0.930 . S
C540 C538 1.395 . S
C540 C543 1.403 . S
C541 C538 1.403 . S
C541 C542 1.524 . S
C541 C545 1.400 . S
C542 H527 0.960 . S
C542 H528 0.960 . S
C542 H529 0.960 . S
C542 C541 1.524 . S
C543 C540 1.403 . S
C543 C544 1.392 . S
C543 C547 1.495 . S
C544 C543 1.392 . S
C544 C545 1.385 . S
C544 C546 1.478 . S
C545 H539 0.930 . S
C545 C541 1.400 . S
C545 C544 1.385 . S
C546 C544 1.478 . S
C546 C548 1.381 . S
C546 C552 1.383 . S
C547 C543 1.495 . S
C547 H553 0.959 . S
C547 H554 0.961 . S
C547 H555 0.960 . S
C548 C546 1.381 . S
C548 C549 1.394 . S
C548 H556 0.930 . S
C549 C548 1.394 . S
C549 C550 1.383 . S
C549 H557 0.929 1_565 S
C550 C549 1.383 . S
C550 C551 1.377 . S
C551 H535 0.930 . S
C551 C550 1.377 . S
C551 C552 1.379 . S
C552 H536 0.931 . S
C552 C546 1.383 . S
C552 C551 1.379 . S
H553 C547 0.959 . S
H554 C547 0.961 . S
H555 C547 0.960 . S
H556 C548 0.930 . S
H557 C549 0.929 1_545 S
H558 C566 0.929 . S
H559 C568 0.930 . S
H560 C570 0.930 . S
H561 C573 0.929 . S
H562 C576 0.930 . S
H563 C578 0.960 . S
H564 C578 0.960 . S
H565 C578 0.960 . S
C566 H558 0.929 . S
C566 C567 1.377 . S
C566 C568 1.384 . S
C567 C566 1.377 . S
C567 C573 1.390 . S
C568 H559 0.930 . S
C568 C566 1.384 . S
C568 C569 1.372 . S
C569 C568 1.372 . S
C569 C570 1.400 . S
C569 C574 1.490 . S
C570 H560 0.930 . S
C570 C569 1.400 . S
C570 C573 1.386 . S
H571 C587 0.930 . S
H572 C588 0.931 . S
C573 H561 0.929 . S
C573 C567 1.390 . S
C573 C570 1.386 . S
C574 C569 1.490 . S
C574 C576 1.395 . S
C574 C577 1.403 . S
H575 C581 0.930 . S
C576 H562 0.930 . S
C576 C574 1.395 . S
C576 C579 1.403 . S
C577 C574 1.403 . S
C577 C578 1.524 . S
C577 C581 1.400 . S
C578 H563 0.960 . S
C578 H564 0.960 . S
C578 H565 0.960 . S
C578 C577 1.524 . S
C579 C576 1.403 . S
C579 C580 1.392 . S
C579 C583 1.495 . S
C580 C579 1.392 . S
C580 C581 1.385 . S
C580 C582 1.478 . S
C581 H575 0.930 . S
C581 C577 1.400 . S
C581 C580 1.385 . S
C582 C580 1.478 . S
C582 C584 1.381 . S
C582 C588 1.383 . S
C583 C579 1.495 . S
C583 H589 0.959 . S
C583 H590 0.961 . S
C583 H591 0.960 . S
C584 C582 1.381 . S
C584 C585 1.394 . S
C584 H592 0.930 . S
C585 C584 1.394 . S
C585 C586 1.383 . S
C585 H593 0.929 . S
C586 C585 1.383 . S
C586 C587 1.377 . S
C587 H571 0.930 . S
C587 C586 1.377 . S
C587 C588 1.379 . S
C588 H572 0.931 . S
C588 C582 1.383 . S
C588 C587 1.379 . S
H589 C583 0.959 . S
H590 C583 0.961 . S
H591 C583 0.960 . S
H592 C584 0.930 . S
H593 C585 0.929 . S
H594 C602 0.929 . S
H595 C604 0.930 . S
H596 C606 0.930 . S
H597 C609 0.929 1_455 S
H598 C612 0.930 . S
H599 C614 0.960 . S
H600 C614 0.960 . S
H601 C614 0.927 1_455 S
C602 H594 0.929 . S
C602 C603 1.377 . S
C602 C604 1.384 . S
C603 C602 1.377 . S
C603 C609 1.390 . S
C604 H595 0.930 . S
C604 C602 1.384 . S
C604 C605 1.372 . S
C605 C604 1.372 . S
C605 C606 1.400 . S
C605 C610 1.490 . S
C606 H596 0.930 . S
C606 C605 1.400 . S
C606 C609 1.386 . S
H607 C623 0.930 . S
H608 C624 0.931 . S
C609 H597 0.929 1_655 S
C609 C603 1.390 . S
C609 C606 1.386 . S
C610 C605 1.490 . S
C610 C612 1.395 . S
C610 C613 1.403 . S
H611 C617 0.930 . S
C612 H598 0.930 . S
C612 C610 1.395 . S
C612 C615 1.403 . S
C613 C610 1.403 . S
C613 C614 1.524 . S
C613 C617 1.400 . S
C614 H599 0.960 . S
C614 H600 0.960 . S
C614 H601 0.927 1_655 S
C614 C613 1.524 . S
C615 C612 1.403 . S
C615 C616 1.392 . S
C615 C619 1.495 . S
C616 C615 1.392 . S
C616 C617 1.385 . S
C616 C618 1.478 . S
C617 H611 0.930 . S
C617 C613 1.400 . S
C617 C616 1.385 . S
C618 C616 1.478 . S
C618 C620 1.381 . S
C618 C624 1.383 . S
C619 C615 1.495 . S
C619 H625 0.959 . S
C619 H626 0.961 . S
C619 H627 0.960 . S
C620 C618 1.381 . S
C620 C621 1.394 . S
C620 H628 0.930 . S
C621 C620 1.394 . S
C621 C622 1.383 . S
C621 H629 0.929 . S
C622 C621 1.383 . S
C622 C623 1.377 . S
C623 H607 0.930 . S
C623 C622 1.377 . S
C623 C624 1.379 . S
C624 H608 0.931 . S
C624 C618 1.383 . S
C624 C623 1.379 . S
H625 C619 0.959 . S
H626 C619 0.961 . S
H627 C619 0.960 . S
H628 C620 0.930 . S
H629 C621 0.929 . S
H630 C638 0.929 . S
H631 C640 0.930 . S
H632 C642 0.930 . S
H633 C645 0.929 . S
H634 C648 0.930 . S
H635 C650 0.960 . S
H636 C650 0.960 . S
H637 C650 0.960 . S
C638 H630 0.929 . S
C638 C639 1.377 . S
C638 C640 1.384 . S
C639 C638 1.377 . S
C639 C645 1.390 . S
C640 H631 0.930 . S
C640 C638 1.384 . S
C640 C641 1.372 . S
C641 C640 1.372 . S
C641 C642 1.400 . S
C641 C646 1.490 . S
C642 H632 0.930 . S
C642 C641 1.400 . S
C642 C645 1.386 . S
H643 C659 0.930 . S
H644 C660 0.931 . S
C645 H633 0.929 . S
C645 C639 1.390 . S
C645 C642 1.386 . S
C646 C641 1.490 . S
C646 C648 1.395 . S
C646 C649 1.403 . S
H647 C653 0.930 . S
C648 H634 0.930 . S
C648 C646 1.395 . S
C648 C651 1.403 . S
C649 C646 1.403 . S
C649 C650 1.524 . S
C649 C653 1.400 . S
C650 H635 0.960 . S
C650 H636 0.960 . S
C650 H637 0.960 . S
C650 C649 1.524 . S
C651 C648 1.403 . S
C651 C652 1.392 . S
C651 C655 1.495 . S
C652 C651 1.392 . S
C652 C653 1.385 . S
C652 C654 1.478 . S
C653 H647 0.930 . S
C653 C649 1.400 . S
C653 C652 1.385 . S
C654 C652 1.478 . S
C654 C656 1.381 . S
C654 C660 1.383 . S
C655 C651 1.495 . S
C655 H661 0.959 . S
C655 H662 0.961 . S
C655 H663 0.960 . S
C656 C654 1.381 . S
C656 C657 1.394 . S
C656 H664 0.930 . S
C657 C656 1.394 . S
C657 C658 1.383 . S
C657 H665 0.929 . S
C658 C657 1.383 . S
C658 C659 1.377 . S
C659 H643 0.930 . S
C659 C658 1.377 . S
C659 C660 1.379 . S
C660 H644 0.931 . S
C660 C654 1.383 . S
C660 C659 1.379 . S
H661 C655 0.959 . S
H662 C655 0.961 . S
H663 C655 0.960 . S
H664 C656 0.930 . S
H665 C657 0.929 . S
H666 C674 0.929 . S
H667 C676 0.930 . S
H668 C678 0.930 . S
H669 C681 0.929 . S
H670 C684 0.930 1_655 S
H671 C686 0.960 . S
H672 C686 0.960 . S
H673 C686 0.960 . S
C674 H666 0.929 . S
C674 C675 1.377 . S
C674 C676 1.384 . S
C675 C674 1.377 . S
C675 C681 1.390 . S
C676 H667 0.930 . S
C676 C674 1.384 . S
C676 C677 1.372 . S
C677 C676 1.372 . S
C677 C678 1.400 . S
C677 C682 1.490 . S
C678 H668 0.930 . S
C678 C677 1.400 . S
C678 C681 1.386 . S
H679 C695 0.930 . S
H680 C696 0.931 . S
C681 H669 0.929 . S
C681 C675 1.390 . S
C681 C678 1.386 . S
C682 C677 1.490 . S
C682 C684 1.395 . S
C682 C685 1.403 . S
H683 C689 0.930 . S
C684 H670 0.930 1_455 S
C684 C682 1.395 . S
C684 C687 1.403 1_455 S
C685 C682 1.403 . S
C685 C686 1.524 . S
C685 C689 1.400 . S
C686 H671 0.960 . S
C686 H672 0.960 . S
C686 H673 0.960 . S
C686 C685 1.524 . S
C687 C684 1.403 1_655 S
C687 C688 1.392 . S
C687 C691 1.495 . S
C688 C687 1.392 . S
C688 C689 1.385 1_655 S
C688 C690 1.478 . S
C689 H683 0.930 . S
C689 C685 1.400 . S
C689 C688 1.385 1_455 S
C690 C688 1.478 . S
C690 C692 1.381 . S
C690 C696 1.383 . S
C691 C687 1.495 . S
C691 H697 0.959 . S
C691 H698 0.961 . S
C691 H699 0.960 . S
C692 C690 1.381 . S
C692 C693 1.394 . S
C692 H700 0.930 . S
C693 C692 1.394 . S
C693 C694 1.383 . S
C693 H701 0.929 . S
C694 C693 1.383 . S
C694 C695 1.377 . S
C695 H679 0.930 . S
C695 C694 1.377 . S
C695 C696 1.379 . S
C696 H680 0.931 . S
C696 C690 1.383 . S
C696 C695 1.379 . S
H697 C691 0.959 . S
H698 C691 0.961 . S
H699 C691 0.960 . S
H700 C692 0.930 . S
H701 C693 0.929 . S
H702 C710 0.929 . S
H703 C712 0.930 . S
H704 C714 0.930 . S
H705 C717 0.929 . S
H706 C720 0.930 . S
H707 C722 0.960 . S
H708 C722 0.960 . S
H709 C722 0.960 . S
C710 H702 0.929 . S
C710 C711 1.377 . S
C710 C712 1.384 . S
C711 C710 1.377 . S
C711 C717 1.390 . S
C712 H703 0.930 . S
C712 C710 1.384 . S
C712 C713 1.372 . S
C713 C712 1.372 . S
C713 C714 1.400 . S
C713 C718 1.490 . S
C714 H704 0.930 . S
C714 C713 1.400 . S
C714 C717 1.386 . S
H715 C731 0.930 . S
H716 C732 0.931 . S
C717 H705 0.929 . S
C717 C711 1.390 . S
C717 C714 1.386 . S
C718 C713 1.490 . S
C718 C720 1.395 . S
C718 C721 1.403 . S
H719 C725 0.930 . S
C720 H706 0.930 . S
C720 C718 1.395 . S
C720 C723 1.403 . S
C721 C718 1.403 . S
C721 C722 1.524 . S
C721 C725 1.400 . S
C722 H707 0.960 . S
C722 H708 0.960 . S
C722 H709 0.960 . S
C722 C721 1.524 . S
C723 C720 1.403 . S
C723 C724 1.392 . S
C723 C727 1.495 . S
C724 C723 1.392 . S
C724 C725 1.385 . S
C724 C726 1.478 . S
C725 H719 0.930 . S
C725 C721 1.400 . S
C725 C724 1.385 . S
C726 C724 1.478 . S
C726 C728 1.381 . S
C726 C732 1.383 . S
C727 C723 1.495 . S
C727 H733 0.959 . S
C727 H734 0.961 . S
C727 H735 0.960 . S
C728 C726 1.381 . S
C728 C729 1.394 . S
C728 H736 0.930 . S
C729 C728 1.394 . S
C729 C730 1.383 . S
C729 H737 0.929 . S
C730 C729 1.383 . S
C730 C731 1.377 . S
C731 H715 0.930 . S
C731 C730 1.377 . S
C731 C732 1.379 . S
C732 H716 0.931 . S
C732 C726 1.383 . S
C732 C731 1.379 . S
H733 C727 0.959 . S
H734 C727 0.961 . S
H735 C727 0.960 . S
H736 C728 0.930 . S
H737 C729 0.929 . S
H738 C746 0.929 . S
H739 C748 0.930 1_545 S
H740 C750 0.930 . S
H741 C753 0.929 . S
H742 C756 0.930 . S
H743 C758 0.960 . S
H744 C758 0.960 . S
H745 C758 0.960 . S
C746 H738 0.929 . S
C746 C747 1.377 . S
C746 C748 1.384 . S
C747 C746 1.377 . S
C747 C753 1.390 . S
C748 H739 0.930 1_565 S
C748 C746 1.384 . S
C748 C749 1.372 . S
C749 C748 1.372 . S
C749 C750 1.400 . S
C749 C754 1.463 1_565 S
C750 H740 0.930 . S
C750 C749 1.400 . S
C750 C753 1.386 . S
H751 C767 0.930 . S
H752 C768 0.931 . S
C753 H741 0.929 . S
C753 C747 1.390 . S
C753 C750 1.386 . S
C754 C749 1.463 1_545 S
C754 C756 1.423 . S
C754 C757 1.404 1_545 S
H755 C761 0.930 . S
C756 H742 0.930 . S
C756 C754 1.423 . S
C756 C759 1.403 . S
C757 C754 1.404 1_565 S
C757 C758 1.524 . S
C757 C761 1.400 1_565 S
C758 H743 0.960 . S
C758 H744 0.960 . S
C758 H745 0.960 . S
C758 C757 1.524 . S
C759 C756 1.403 . S
C759 C760 1.392 . S
C759 C763 1.495 . S
C760 C759 1.392 . S
C760 C761 1.385 . S
C760 C762 1.478 . S
C761 H755 0.930 . S
C761 C757 1.400 1_545 S
C761 C760 1.385 . S
C762 C760 1.478 . S
C762 C764 1.381 . S
C762 C768 1.383 . S
C763 C759 1.495 . S
C763 H769 0.959 . S
C763 H770 0.961 . S
C763 H771 0.960 . S
C764 C762 1.381 . S
C764 C765 1.394 . S
C764 H772 0.930 . S
C765 C764 1.394 . S
C765 C766 1.383 . S
C765 H773 0.929 . S
C766 C765 1.383 . S
C766 C767 1.377 . S
C767 H751 0.930 . S
C767 C766 1.377 . S
C767 C768 1.379 . S
C768 H752 0.931 . S
C768 C762 1.383 . S
C768 C767 1.379 . S
H769 C763 0.959 . S
H770 C763 0.961 . S
H771 C763 0.960 . S
H772 C764 0.930 . S
H773 C765 0.929 . S
C135 C37 1.110 . S
C154 C8 1.126 1_554 S
C171 C23 1.115 1_554 S
C190 C9 1.117 . S
C207 C22 1.117 . S
C226 C36 1.112 1_554 S
C243 C78 1.117 . S
C262 C51 1.105 . S
C279 C65 1.118 . S
C298 C50 1.096 . S
C315 C64 1.119 . S
C334 C79 1.095 . S
C351 C92 1.118 . S
C370 C121 1.097 . S
C387 C93 1.118 . S
C406 C107 1.090 . S
C423 C106 1.114 . S
C442 C120 1.124 . S
C459 C6 1.481 . S
C478 C104 1.494 . S
C495 C21 1.477 . S
C514 C119 1.462 . S
C531 C91 1.483 . S
C550 C34 1.467 . S
C567 C63 1.486 . S
C586 C35 1.497 . S
C603 C7 1.486 . S
C622 C77 1.486 . S
C639 C49 1.478 . S
C658 C20 1.473 . S
C675 C105 1.480 . S
C694 C76 1.457 . S
C711 C48 1.484 . S
C730 C118 1.470 . S
C747 C90 1.482 . S
C766 C62 1.462 . S
