# Generated by pormake.
# Topology qtz-e, (6)-cn, num edge types: 1
# Building blocks:
#     Node 0, Type 0, BuildingBlock: HISSIN_clean_sbu_0, # of connection points: 6
#     Node 1, Type 0, BuildingBlock: HISSIN_clean_sbu_0, # of connection points: 6
#     Node 2, Type 0, BuildingBlock: HISSIN_clean_sbu_0, # of connection points: 6
#     Node 3, Type 0, BuildingBlock: HISSIN_clean_sbu_0, # of connection points: 6
#     Node 4, Type 0, BuildingBlock: HISSIN_clean_sbu_0, # of connection points: 6
#     Node 5, Type 0, BuildingBlock: HISSIN_clean_sbu_0, # of connection points: 6
#     Edge 6, Type (0, 0), BuildingBlock: AJUNOK_clean_linker_0, # of connection points: 2
#     Edge 7, Type (0, 0), BuildingBlock: AJUNOK_clean_linker_0, # of connection points: 2
#     Edge 8, Type (0, 0), BuildingBlock: AJUNOK_clean_linker_0, # of connection points: 2
#     Edge 9, Type (0, 0), BuildingBlock: AJUNOK_clean_linker_0, # of connection points: 2
#     Edge 10, Type (0, 0), BuildingBlock: AJUNOK_clean_linker_0, # of connection points: 2
#     Edge 11, Type (0, 0), BuildingBlock: AJUNOK_clean_linker_0, # of connection points: 2
#     Edge 12, Type (0, 0), BuildingBlock: AJUNOK_clean_linker_0, # of connection points: 2
#     Edge 13, Type (0, 0), BuildingBlock: AJUNOK_clean_linker_0, # of connection points: 2
#     Edge 14, Type (0, 0), BuildingBlock: AJUNOK_clean_linker_0, # of connection points: 2
#     Edge 15, Type (0, 0), BuildingBlock: AJUNOK_clean_linker_0, # of connection points: 2
#     Edge 16, Type (0, 0), BuildingBlock: AJUNOK_clean_linker_0, # of connection points: 2
#     Edge 17, Type (0, 0), BuildingBlock: AJUNOK_clean_linker_0, # of connection points: 2
#     Edge 18, Type (0, 0), BuildingBlock: AJUNOK_clean_linker_0, # of connection points: 2
#     Edge 19, Type (0, 0), BuildingBlock: AJUNOK_clean_linker_0, # of connection points: 2
#     Edge 20, Type (0, 0), BuildingBlock: AJUNOK_clean_linker_0, # of connection points: 2
#     Edge 21, Type (0, 0), BuildingBlock: AJUNOK_clean_linker_0, # of connection points: 2
#     Edge 22, Type (0, 0), BuildingBlock: AJUNOK_clean_linker_0, # of connection points: 2
#     Edge 23, Type (0, 0), BuildingBlock: AJUNOK_clean_linker_0, # of connection points: 2
# Relax obj value: 0.117
# Max RMSD: 0.203
# Mean RMSD: 0.203
data_MOF--net-qtz-e--node1-HISSIN_clean_sbu_0--edge1-AJUNOK_clean_linker_0
_symmetry_space_group_name_H-M    P1
_symmetry_Int_Tables_number       1
_symmetry_cell_setting            triclinic
loop_
_symmetry_equiv_pos_as_xyz
'x, y, z'
_cell_length_a     19.447502
_cell_length_b     19.903257
_cell_length_c     41.838081
_cell_angle_alpha  90.236609
_cell_angle_beta   89.591868
_cell_angle_gamma 119.25272
loop_
_atom_site_label
_atom_site_type_symbol
_atom_site_fract_x
_atom_site_fract_y
_atom_site_fract_z
_atom_type_partial_charge
Eu0 Eu 0.23884 0.46345 0.09483 0.0
Eu1 Eu 0.15155 0.30821 0.04679 0.0
C2 C 0.10335 0.44263 0.04881 0.0
C3 C 0.28623 0.56957 0.17275 0.0
C4 C 0.33091 0.63578 0.191 0.0
C5 C 0.20107 0.50825 0.21849 0.0
C6 C 0.31 0.63871 0.22277 0.0
C7 C 0.22262 0.50501 0.18687 0.0
C8 C 0.24368 0.57576 0.23638 0.0
C9 C 0.30073 0.57021 0.13836 0.0
O10 O 0.234 0.40622 1.01528 0.0
O11 O 0.31275 0.50527 0.05012 0.0
C12 C 0.29493 0.47426 1.02141 0.0
O13 O 0.27221 0.37258 0.10302 0.0
O14 O 0.07412 0.24997 1.00638 0.0
O15 O 0.12805 0.19339 0.03196 0.0
O16 O 0.27918 0.33976 0.05291 0.0
C17 C 0.31397 0.36433 0.08049 0.0
O18 O 0.12297 0.37926 0.11723 0.0
O19 O 0.11266 0.26698 0.0978 0.0
O20 O 0.07654 0.36746 0.0496 0.0
O21 O 0.33333 0.52983 0.12866 0.0
O22 O 0.24142 0.5596 0.12056 0.0
O23 O 0.17494 0.49109 0.05792 0.0
C24 C 0.11215 0.17329 0.97531 0.0
C25 C 0.18161 0.16847 0.97189 0.0
C26 C 0.08886 0.14832 0.91804 0.0
C27 C 0.20469 0.1545 0.9419 0.0
C28 C 0.06536 0.16161 0.94814 0.0
C29 C 0.15976 0.14624 0.91439 0.0
C30 C 0.08887 0.19264 1.00654 0.0
C31 C 0.0969 0.30499 0.11994 0.0
H32 H 0.37995 0.68606 0.18037 0.0
H33 H 0.14994 0.45908 0.22867 0.0
H34 H 0.3432 0.69146 0.23624 0.0
H35 H 0.18784 0.45328 0.17306 0.0
H36 H 0.21894 0.17663 0.99227 0.0
H37 H 0.05282 0.14226 0.89745 0.0
H38 H 0.25857 0.15122 0.94019 0.0
H39 H 0.0113 0.16453 0.95007 0.0
Eu40 Eu 0.7331 0.22309 0.42258 0.0
Eu41 Eu 0.81751 0.14046 0.37966 0.0
C42 C 0.63055 0.06865 0.38433 0.0
C43 C 0.67089 0.30247 0.49352 0.0
C44 C 0.6418 0.35062 0.50423 0.0
C45 C 0.66194 0.255 0.54752 0.0
C46 C 0.62082 0.34952 0.53633 0.0
C47 C 0.68315 0.25636 0.51547 0.0
C48 C 0.62856 0.29999 0.55805 0.0
C49 C 0.6801 0.29452 0.45915 0.0
O50 O 0.76682 0.18869 0.34441 0.0
O51 O 0.75645 0.28097 0.37426 0.0
C52 C 0.75526 0.24826 0.34671 0.0
O53 O 0.8583 0.26157 0.43378 0.0
O54 O 0.81224 0.06124 0.34221 0.0
O55 O 0.92335 0.13552 0.3654 0.0
O56 O 0.89682 0.26878 0.38349 0.0
C57 C 0.90696 0.30228 0.41129 0.0
O58 O 0.7198 0.12303 0.4521 0.0
O59 O 0.82145 0.1072 0.4313 0.0
O60 O 0.68873 0.05283 0.38651 0.0
O61 O 0.75205 0.32703 0.44792 0.0
O62 O 0.63611 0.22549 0.4476 0.0
O63 O 0.64032 0.13723 0.39069 0.0
C64 C 0.92472 0.11865 0.30895 0.0
C65 C -0.02534 0.1976 0.30326 0.0
C66 C 0.92903 0.09438 0.25195 0.0
C67 C 0.00091 0.22462 0.27229 0.0
C68 C 0.90318 0.06721 0.28306 0.0
C69 C -0.02324 0.17368 0.2461 0.0
C70 C 0.88864 0.09075 0.34092 0.0
C71 C 0.769 0.0955 0.45394 0.0
H72 H 0.6317 0.38626 0.48749 0.0
H73 H 0.66833 0.21627 0.56382 0.0
H74 H 0.59396 0.38369 0.5437 0.0
H75 H 0.70556 0.21877 0.50752 0.0
H76 H -0.0079 0.23892 0.32262 0.0
H77 H 0.90963 0.0536 0.23235 0.0
H78 H 0.03957 0.28576 0.2688 0.0
H79 H 0.86436 0.00615 0.28677 0.0
Eu80 Eu 0.49385 0.71353 0.75779 0.0
Eu81 Eu 0.65179 0.80574 0.712 0.0
C82 C 0.58876 0.63799 0.7382 0.0
C83 C 0.38722 0.6311 0.83405 0.0
C84 C 0.45664 0.63869 0.8475 0.0
C85 C 0.32724 0.60771 0.88649 0.0
C86 C 0.46032 0.62813 0.88024 0.0
C87 C 0.32314 0.617 0.8537 0.0
C88 C 0.3953 0.61195 0.89982 0.0
C89 C 0.38337 0.64271 0.79986 0.0
O90 O 0.54992 0.75901 0.67829 0.0
O91 O 0.45308 0.66129 0.70848 0.0
C92 C 0.48176 0.69548 0.68076 0.0
O93 O 0.46583 0.78904 0.729 0.0
O94 O 0.72929 0.80384 0.67426 0.0
O95 O 0.75552 0.91186 0.69668 0.0
O96 O 0.5926 0.88035 0.71636 0.0
C97 C 0.51639 0.8574 0.71867 0.0
O98 O 0.58761 0.81301 0.78566 0.0
O99 O 0.69562 0.81559 0.76315 0.0
O100 O 0.6117 0.67751 0.71162 0.0
O101 O 0.40919 0.71432 0.79168 0.0
O102 O 0.40895 0.60697 0.78098 0.0
O103 O 0.58137 0.67349 0.76288 0.0
C104 C 0.77446 0.91203 0.64054 0.0
C105 C 0.73223 0.95088 0.63397 0.0
C106 C 0.8156 0.92681 0.58466 0.0
C107 C 0.73179 -0.02248 0.60317 0.0
C108 C 0.8166 0.9007 0.61566 0.0
C109 C 0.77217 0.96457 0.57795 0.0
C110 C 0.77007 0.87871 0.67255 0.0
C111 C 0.65992 0.82482 0.78835 0.0
H112 H 0.50759 0.65207 0.83264 0.0
H113 H 0.2761 0.59405 0.90128 0.0
H114 H 0.5131 0.63126 0.89019 0.0
H115 H 0.26983 0.61246 0.84365 0.0
H116 H 0.6987 0.96 0.65259 0.0
H117 H 0.84745 0.91605 0.5658 0.0
H118 H 0.69969 0.00839 0.59913 0.0
H119 H 0.84913 0.87039 0.6201 0.0
Eu120 Eu 0.73073 0.51127 0.08996 0.0
Eu121 Eu 0.81205 0.67346 0.04678 0.0
C122 C 0.88335 0.55717 0.04789 0.0
C123 C 0.67226 0.38597 0.16385 0.0
C124 C 0.74486 0.4273 0.17958 0.0
C125 C 0.6137 0.31578 0.21277 0.0
C126 C 0.75253 0.4107 0.21131 0.0
C127 C 0.60622 0.33194 0.18092 0.0
C128 C 0.68764 0.35281 0.22781 0.0
C129 C 0.66624 0.39546 0.12934 0.0
O130 O 0.75867 0.57631 1.01204 0.0
O131 O 0.66882 0.47344 0.04226 0.0
C132 C 0.69915 0.50601 1.0145 0.0
O133 O 0.68764 0.59365 0.10066 0.0
O134 O 0.89075 0.74644 1.00879 0.0
O135 O 0.81369 0.78014 0.033 0.0
O136 O 0.6796 0.62241 0.05051 0.0
C137 C 0.64451 0.59786 0.07813 0.0
O138 O 0.83667 0.59787 0.11711 0.0
O139 O 0.84583 0.7105 0.09845 0.0
O140 O 0.90124 0.63033 0.0498 0.0
O141 O 0.63166 0.43451 0.12066 0.0
O142 O 0.7297 0.41302 0.11261 0.0
O143 O 0.81395 0.50131 0.05625 0.0
C144 C 0.83246 0.80291 0.97704 0.0
C145 C 0.75514 0.75259 0.96695 0.0
C146 C 0.85813 0.8701 0.92595 0.0
C147 C 0.72936 0.76138 0.93682 0.0
C148 C 0.88377 0.86158 0.95624 0.0
C149 C 0.78038 0.82044 0.91597 0.0
C150 C 0.86049 0.79224 1.00853 0.0
C151 C 0.85993 0.67165 0.12056 0.0
H152 H 0.79646 0.47007 0.16694 0.0
H153 H 0.56235 0.27216 0.22527 0.0
H154 H 0.81011 0.44016 0.22234 0.0
H155 H 0.54953 0.30035 0.16931 0.0
H156 H 0.71478 0.70602 0.98229 0.0
H157 H 0.89888 0.91596 0.91043 0.0
H158 H 0.66969 0.72112 0.92962 0.0
H159 H 0.94387 0.90063 0.96335 0.0
Eu160 Eu 0.18724 0.69839 0.43087 0.0
Eu161 Eu 0.11873 0.79085 0.3842 0.0
C162 C 0.30306 0.84201 0.38918 0.0
C163 C 0.24187 0.61347 0.50307 0.0
C164 C 0.23852 0.66317 0.52617 0.0
C165 C 0.29506 0.56278 0.54255 0.0
C166 C 0.26553 0.66404 0.55717 0.0
C167 C 0.26766 0.56156 0.51171 0.0
C168 C 0.29644 0.61564 0.56515 0.0
C169 C 0.23011 0.62232 0.46913 0.0
O170 O 0.15346 0.72421 0.35043 0.0
O171 O 0.1646 0.63689 0.3836 0.0
C172 C 0.16075 0.66266 0.35513 0.0
O173 O 0.06168 0.66681 0.4385 0.0
O174 O 0.1399 0.88086 0.34975 0.0
O175 O 0.02044 0.80258 0.36504 0.0
O176 O 0.02832 0.66548 0.38782 0.0
C177 C 0.01467 0.62939 0.41509 0.0
O178 O 0.20786 0.80477 0.45767 0.0
O179 O 0.11039 0.82396 0.43556 0.0
O180 O 0.25058 0.86576 0.3896 0.0
O181 O 0.1579 0.5953 0.45911 0.0
O182 O 0.27853 0.68929 0.45677 0.0
O183 O 0.28497 0.77208 0.39765 0.0
C184 C 0.04119 0.83711 0.31031 0.0
C185 C 0.07591 0.80475 0.29043 0.0
C186 C 0.95703 0.83017 0.26612 0.0
C187 C 0.0515 0.78529 0.2588 0.0
C188 C -0.01806 0.85016 0.29785 0.0
C189 C -0.00872 0.79703 0.24628 0.0
C190 C 0.06513 0.85452 0.34415 0.0
C191 C 0.16096 0.83506 0.45862 0.0
H192 H 0.21936 0.70409 0.51973 0.0
H193 H 0.31936 0.52556 0.54826 0.0
H194 H 0.26723 0.70594 0.57423 0.0
H195 H 0.27103 0.52324 0.49406 0.0
H196 H 0.12152 0.79371 0.29944 0.0
H197 H 0.90935 0.83844 0.25747 0.0
H198 H 0.07934 0.76021 0.24417 0.0
H199 H 0.95397 0.87454 0.31282 0.0
Eu200 Eu 0.44467 0.22385 0.75406 0.0
Eu201 Eu 0.28291 0.1428 0.71018 0.0
C202 C 0.36144 0.31236 0.73709 0.0
C203 C 0.57567 0.31604 0.82619 0.0
C204 C 0.60055 0.39318 0.83382 0.0
C205 C 0.57534 0.28784 0.88278 0.0
C206 C 0.61223 0.41732 0.86553 0.0
C207 C 0.56311 0.26342 0.85095 0.0
C208 C 0.60039 0.36507 0.8902 0.0
C209 C 0.56379 0.29152 0.79247 0.0
O210 O 0.38296 0.17512 0.67574 0.0
O211 O 0.48343 0.27271 0.70412 0.0
C212 C 0.45385 0.23529 0.6772 0.0
O213 O 0.458 0.13738 0.72571 0.0
O214 O 0.21249 0.15172 0.67161 0.0
O215 O 0.16965 0.04437 0.69733 0.0
O216 O 0.32696 0.05604 0.71514 0.0
C217 C 0.40116 0.07148 0.71585 0.0
O218 O 0.34626 0.13439 0.7844 0.0
O219 O 0.24193 0.13872 0.76161 0.0
O220 O 0.3352 0.27329 0.71049 0.0
O221 O 0.52694 0.21737 0.78706 0.0
O222 O 0.54185 0.32904 0.77316 0.0
O223 O 0.36791 0.27583 0.76139 0.0
C224 C 0.1536 0.03792 0.64106 0.0
C225 C 0.18717 -0.01001 0.6367 0.0
C226 C 0.11813 0.02187 0.58471 0.0
C227 C 0.18657 0.95871 0.6067 0.0
C228 C 0.11815 0.05278 0.61491 0.0
C229 C 0.15394 -0.02416 0.58014 0.0
C230 C 0.16244 0.07809 0.67184 0.0
C231 C 0.27582 0.12801 0.78678 0.0
H232 H 0.61157 0.43511 0.81526 0.0
H233 H 0.56738 0.24706 0.90144 0.0
H234 H 0.63203 0.47738 0.8708 0.0
H235 H 0.54449 0.20361 0.8458 0.0
H236 H 0.21549 -0.0221 0.65633 0.0
H237 H 0.09225 0.03586 0.56475 0.0
H238 H 0.21252 0.92162 0.60423 0.0
H239 H 0.09244 0.09004 0.61766 0.0
C240 C 0.24273 0.62153 0.32407 0.0
C241 C 0.17315 0.62616 0.32686 0.0
C242 C 0.26395 0.60174 0.29489 0.0
C243 C 0.21511 0.58418 0.26804 0.0
H244 H 0.28327 0.63792 0.34393 0.0
H245 H 0.32001 0.6027 0.29297 0.0
S246 S 0.02282 0.58027 0.26433 0.0
N247 N 0.05328 0.60722 0.30132 0.0
N248 N 0.09164 0.56715 0.24668 0.0
C249 C 0.14305 0.58395 0.27119 0.0
C250 C 0.12244 0.60582 0.30062 0.0
C251 C 0.49217 0.19524 0.62701 0.0
C252 C 0.50355 0.25479 0.64822 0.0
C253 C 0.53528 0.2106 0.5986 0.0
C254 C 0.59085 0.28627 0.59 0.0
H255 H 0.44925 0.13597 0.63233 0.0
H256 H 0.52306 0.16294 0.58271 0.0
S257 S 0.64432 0.4626 0.63753 0.0
N258 N 0.57599 0.39214 0.65926 0.0
N259 N 0.65667 0.42144 0.60524 0.0
C260 C 0.60387 0.34644 0.61115 0.0
C261 C 0.56051 0.33057 0.64048 0.0
C262 C 0.35294 0.59244 0.98817 0.0
C263 C 0.34171 0.51825 0.99383 0.0
C264 C 0.37697 0.6264 0.95794 0.0
C265 C 0.39245 0.58778 0.93312 0.0
H266 H 0.3365 0.62132 1.0062 0.0
H267 H 0.37874 0.68077 0.95335 0.0
S268 S 0.38227 0.39764 0.93757 0.0
N269 N 0.3541 0.41031 0.97331 0.0
N270 N 0.40326 0.47602 0.91704 0.0
C271 C 0.38865 0.51704 0.93951 0.0
C272 C 0.36213 0.48165 0.96983 0.0
C273 C 0.75703 0.35255 0.31264 0.0
C274 C 0.73417 0.27447 0.31728 0.0
C275 C 0.74054 0.37775 0.28383 0.0
C276 C 0.69937 0.32539 0.2591 0.0
H277 H 0.78968 0.39461 0.33097 0.0
H278 H 0.76062 0.43859 0.28075 0.0
S279 S 0.62376 0.11436 0.26019 0.0
N280 N 0.66565 0.14466 0.29534 0.0
N281 N 0.63569 0.19206 0.24136 0.0
C282 C 0.67475 0.24703 0.26386 0.0
C283 C 0.69191 0.22157 0.29293 0.0
C284 C 0.35115 0.62955 0.65289 0.0
C285 C 0.43407 0.66689 0.6514 0.0
C286 C 0.30602 0.61186 0.62487 0.0
C287 C 0.34257 0.62965 0.59465 0.0
H288 H 0.32113 0.6168 0.6758 0.0
H289 H 0.24247 0.58511 0.6268 0.0
S290 S 0.55687 0.72407 0.57756 0.0
N291 N 0.55025 0.71845 0.61692 0.0
N292 N 0.46528 0.68463 0.56463 0.0
C293 C 0.42492 0.66468 0.59282 0.0
C294 C 0.47075 0.68334 0.62112 0.0
C295 C 0.72279 0.48932 0.95773 0.0
C296 C 0.67131 0.463 0.98426 0.0
C297 C 0.69916 0.4558 0.9278 0.0
C298 C 0.62317 0.39423 0.92299 0.0
H299 H 0.78222 0.53705 0.95986 0.0
H300 H 0.74074 0.47881 0.90809 0.0
S301 S 0.46697 0.29939 0.98454 0.0
N302 N 0.54172 0.36867 1.0041 0.0
N303 N 0.49707 0.30469 0.94711 0.0
C304 C 0.57161 0.36468 0.94932 0.0
C305 C 0.59577 0.39931 0.98015 0.0
C306 C 0.44211 0.44348 0.0517 0.0
C307 C 0.40042 0.41718 0.08072 0.0
C308 C 0.51941 0.50497 0.05082 0.0
C309 C 0.55927 0.54119 0.07909 0.0
H310 H 0.41428 0.41782 1.02931 0.0
H311 H 0.54854 0.5228 1.02779 0.0
S312 S 0.47984 0.4892 0.16167 0.0
N313 N 0.407 0.42873 0.13866 0.0
N314 N 0.55263 0.54385 0.13712 0.0
C315 C 0.51933 0.51382 0.10839 0.0
C316 C 0.4403 0.45157 0.10922 0.0
C317 C 0.97 0.50607 0.38534 0.0
C318 C -0.01976 0.54484 0.41464 0.0
C319 C 0.95032 0.4285 0.38439 0.0
C320 C 0.93916 0.38643 0.4127 0.0
H321 H -0.02083 0.53612 0.36285 0.0
H322 H 0.94225 0.40114 0.36123 0.0
S323 S 0.95595 0.46019 0.49556 0.0
N324 N -0.02481 0.53468 0.47262 0.0
N325 N 0.93891 0.38889 0.47087 0.0
C326 C 0.94844 0.42424 0.44215 0.0
C327 C 0.96825 0.50319 0.44311 0.0
C328 C 0.37543 0.93705 0.71845 0.0
C329 C 0.42354 0.0128 0.70832 0.0
C330 C 0.40536 0.88617 0.72009 0.0
C331 C 0.48449 0.90948 0.71168 0.0
H332 H 0.31649 0.91865 0.72746 0.0
H333 H 0.36691 0.82938 0.72973 0.0
S334 S 0.62743 0.09708 0.67612 0.0
N335 N 0.54864 0.10533 0.68418 0.0
N336 N 0.60529 0.00944 0.68755 0.0
C337 C 0.53045 -0.01714 0.69845 0.0
C338 C 0.49974 0.03458 0.69664 0.0
C339 C 0.50674 0.51409 0.70845 0.0
C340 C 0.53713 0.5534 0.73748 0.0
C341 C 0.44655 0.43678 0.70817 0.0
C342 C 0.41406 0.39671 0.73688 0.0
H343 H 0.5283 0.5435 0.68583 0.0
H344 H 0.42649 0.40801 0.68536 0.0
S345 S 0.47272 0.4737 0.81922 0.0
N346 N 0.5321 0.54497 0.7956 0.0
N347 N 0.41538 0.40306 0.79504 0.0
C348 C 0.44346 0.4359 0.76596 0.0
C349 C 0.50623 0.51305 0.76626 0.0
C350 C 0.07414 0.55187 0.05092 0.0
C351 C 0.05026 0.47478 0.04231 0.0
C352 C 0.02162 0.58107 0.05007 0.0
C353 C 0.94346 0.53436 0.04047 0.0
H354 H 0.13265 0.58911 0.06015 0.0
H355 H 0.04094 0.63863 0.05908 0.0
S356 S 0.85614 0.33473 1.00887 0.0
N357 N 0.9465 0.35665 1.01922 0.0
N358 N 0.84799 0.41173 1.01714 0.0
C359 C 0.92094 0.45979 1.0289 0.0
C360 C -0.02577 0.42987 1.02998 0.0
C361 C 0.44494 0.87883 0.39282 0.0
C362 C 0.38676 0.89669 0.3826 0.0
C363 C 0.52498 0.93317 0.39106 0.0
C364 C 0.54942 0.00706 0.37901 0.0
H365 H 0.42874 0.82387 0.40382 0.0
H366 H 0.56735 0.91874 0.40108 0.0
S367 S 0.42243 0.07735 0.34301 0.0
N368 N 0.36019 -0.01039 0.35564 0.0
N369 N 0.5111 0.09191 0.35221 0.0
C370 C 0.49261 0.02356 0.36622 0.0
C371 C 0.41105 0.96832 0.36808 0.0
C372 C 0.16646 0.08218 0.82814 0.0
C373 C 0.24576 0.13008 0.81934 0.0
C374 C 0.1388 0.08674 0.85896 0.0
C375 C 0.18925 0.14015 0.88188 0.0
H376 H 0.12583 0.04062 0.81124 0.0
H377 H 0.07762 0.048 0.86493 0.0
S378 S 0.3982 0.28707 0.86839 0.0
N379 N 0.37201 0.23722 0.83484 0.0
N380 N 0.31993 0.24717 0.89185 0.0
C381 C 0.26781 0.18987 0.87271 0.0
C382 C 0.29601 0.18456 0.84172 0.0
C383 C 0.03037 0.16908 0.19149 0.0
C384 C 0.00056 0.20368 0.21285 0.0
C385 C 0.05796 0.19989 0.16086 0.0
C386 C 0.05685 0.26653 0.15035 0.0
H387 H 0.03493 0.11932 0.19889 0.0
H388 H 0.08319 0.17296 0.14583 0.0
S389 S -0.02631 0.37218 0.19532 0.0
N390 N 0.96353 0.30318 0.21988 0.0
N391 N 0.01581 0.36138 0.16277 0.0
C392 C 0.02347 0.2993 0.17092 0.0
C393 C -0.00466 0.26791 0.202 0.0
C394 C 0.8386 0.03104 0.52653 0.0
C395 C 0.76917 -0.00893 0.5449 0.0
C396 C 0.83774 0.06182 0.49641 0.0
C397 C 0.76754 0.0543 0.48367 0.0
H398 H 0.89454 0.04097 0.53596 0.0
H399 H 0.89299 0.09446 0.48367 0.0
S400 S 0.56795 0.945 0.51985 0.0
N401 N 0.62684 0.93786 0.54621 0.0
N402 N 0.62566 -0.00255 0.49028 0.0
C403 C 0.69724 0.0115 0.50111 0.0
C404 C 0.69794 -0.0205 0.53152 0.0
C405 C 0.76698 0.83484 0.82525 0.0
C406 C 0.69464 0.83404 0.82107 0.0
C407 C 0.79551 0.83283 0.85591 0.0
C408 C 0.75256 0.82906 0.88374 0.0
H409 H 0.80098 0.83473 0.80466 0.0
H410 H 0.85033 0.83146 0.85779 0.0
S411 S 0.56441 0.83407 0.88673 0.0
N412 N 0.5841 0.83578 0.8482 0.0
N413 N 0.63739 0.83102 0.90532 0.0
C414 C 0.68185 0.83122 0.88006 0.0
C415 C 0.65311 0.83409 0.84894 0.0
C416 C 0.94546 0.69533 0.20393 0.0
C417 C 0.96104 0.76927 0.21341 0.0
C418 C 0.91526 0.66595 0.17368 0.0
C419 C 0.89862 0.70883 0.15132 0.0
H420 H 0.95511 0.65884 0.22033 0.0
H421 H 0.90388 0.60826 0.16811 0.0
S422 S 0.93336 0.90807 0.16361 0.0
N423 N 0.96144 0.88678 0.19748 0.0
N424 N 0.9032 0.83117 0.14062 0.0
C425 C 0.91542 0.78377 0.1602 0.0
C426 C 0.94658 0.81388 0.19121 0.0
C427 C 0.09131 0.9109 0.5282 0.0
C428 C 0.15842 0.94628 0.54782 0.0
C429 C 0.09326 0.87774 0.49868 0.0
C430 C 0.16225 0.87836 0.4878 0.0
H431 H 0.03617 0.90655 0.53617 0.0
H432 H 0.0395 0.84884 0.48492 0.0
S433 S 0.35695 -0.02621 0.52787 0.0
N434 N 0.29816 -0.01232 0.55238 0.0
N435 N 0.30132 0.92401 0.49753 0.0
C436 C 0.23061 0.91662 0.50652 0.0
C437 C 0.22882 0.95087 0.53634 0.0
loop_
_geom_bond_atom_site_label_1
_geom_bond_atom_site_label_2
_geom_bond_distance
_geom_bond_site_symmetry_2
_ccdc_geom_bond_type
Eu0 C9 2.828 . S
Eu0 O11 2.392 . S
Eu0 O13 2.418 . S
Eu0 O18 2.373 . S
Eu0 O21 2.488 . S
Eu0 O22 2.471 . S
Eu0 O23 2.349 . S
Eu1 O10 2.373 1_554 S
Eu1 O14 2.488 1_554 S
Eu1 O15 2.471 1_554 S
Eu1 O16 2.349 . S
Eu1 O19 2.392 . S
Eu1 O20 2.418 . S
Eu1 C30 2.828 1_554 S
C2 O20 1.244 . S
C2 O23 1.265 . S
C3 C4 1.379 . S
C3 C7 1.373 . S
C3 C9 1.505 . S
C4 C3 1.379 . S
C4 C6 1.369 . S
C4 H32 0.930 . S
C5 C7 1.383 . S
C5 C8 1.382 . S
C5 H33 0.930 . S
C6 C4 1.369 . S
C6 C8 1.392 . S
C6 H34 0.930 . S
C7 C3 1.373 . S
C7 C5 1.383 . S
C7 H35 0.931 . S
C8 C5 1.382 . S
C8 C6 1.392 . S
C9 Eu0 2.828 . S
C9 C3 1.505 . S
C9 O21 1.249 . S
C9 O22 1.244 . S
O10 Eu1 2.373 1_556 S
O10 C12 1.258 . S
O11 Eu0 2.392 . S
O11 C12 1.242 1_554 S
C12 O10 1.258 . S
C12 O11 1.242 1_556 S
O13 Eu0 2.418 . S
O13 C17 1.244 . S
O14 Eu1 2.488 1_556 S
O14 C30 1.249 . S
O15 Eu1 2.471 1_556 S
O15 C30 1.244 . S
O16 Eu1 2.349 . S
O16 C17 1.265 . S
C17 O13 1.244 . S
C17 O16 1.265 . S
O18 Eu0 2.373 . S
O18 C31 1.258 . S
O19 Eu1 2.392 . S
O19 C31 1.242 . S
O20 Eu1 2.418 . S
O20 C2 1.244 . S
O21 Eu0 2.488 . S
O21 C9 1.249 . S
O22 Eu0 2.471 . S
O22 C9 1.244 . S
O23 Eu0 2.349 . S
O23 C2 1.265 . S
C24 C25 1.379 . S
C24 C28 1.373 . S
C24 C30 1.505 . S
C25 C24 1.379 . S
C25 C27 1.369 . S
C25 H36 0.930 . S
C26 C28 1.383 . S
C26 C29 1.382 . S
C26 H37 0.930 . S
C27 C25 1.369 . S
C27 C29 1.392 . S
C27 H38 0.930 . S
C28 C24 1.373 . S
C28 C26 1.383 . S
C28 H39 0.931 . S
C29 C26 1.382 . S
C29 C27 1.392 . S
C30 Eu1 2.828 1_556 S
C30 O14 1.249 . S
C30 O15 1.244 . S
C30 C24 1.505 . S
C31 O18 1.258 . S
C31 O19 1.242 . S
H32 C4 0.930 . S
H33 C5 0.930 . S
H34 C6 0.930 . S
H35 C7 0.931 . S
H36 C25 0.930 . S
H37 C26 0.930 . S
H38 C27 0.930 . S
H39 C28 0.931 . S
Eu40 C49 2.828 . S
Eu40 O51 2.392 . S
Eu40 O53 2.418 . S
Eu40 O58 2.373 . S
Eu40 O61 2.488 . S
Eu40 O62 2.471 . S
Eu40 O63 2.349 . S
Eu41 O50 2.373 . S
Eu41 O54 2.488 . S
Eu41 O55 2.471 . S
Eu41 O56 2.349 . S
Eu41 O59 2.392 . S
Eu41 O60 2.418 . S
Eu41 C70 2.828 . S
C42 O60 1.244 . S
C42 O63 1.265 . S
C43 C44 1.379 . S
C43 C47 1.373 . S
C43 C49 1.505 . S
C44 C43 1.379 . S
C44 C46 1.369 . S
C44 H72 0.930 . S
C45 C47 1.383 . S
C45 C48 1.382 . S
C45 H73 0.930 . S
C46 C44 1.369 . S
C46 C48 1.392 . S
C46 H74 0.930 . S
C47 C43 1.373 . S
C47 C45 1.383 . S
C47 H75 0.931 . S
C48 C45 1.382 . S
C48 C46 1.392 . S
C49 Eu40 2.828 . S
C49 C43 1.505 . S
C49 O61 1.249 . S
C49 O62 1.244 . S
O50 Eu41 2.373 . S
O50 C52 1.258 . S
O51 Eu40 2.392 . S
O51 C52 1.242 . S
C52 O50 1.258 . S
C52 O51 1.242 . S
O53 Eu40 2.418 . S
O53 C57 1.244 . S
O54 Eu41 2.488 . S
O54 C70 1.249 . S
O55 Eu41 2.471 . S
O55 C70 1.244 . S
O56 Eu41 2.349 . S
O56 C57 1.265 . S
C57 O53 1.244 . S
C57 O56 1.265 . S
O58 Eu40 2.373 . S
O58 C71 1.258 . S
O59 Eu41 2.392 . S
O59 C71 1.242 . S
O60 Eu41 2.418 . S
O60 C42 1.244 . S
O61 Eu40 2.488 . S
O61 C49 1.249 . S
O62 Eu40 2.471 . S
O62 C49 1.244 . S
O63 Eu40 2.349 . S
O63 C42 1.265 . S
C64 C65 1.379 1_655 S
C64 C68 1.373 . S
C64 C70 1.505 . S
C65 C64 1.379 1_455 S
C65 C67 1.369 . S
C65 H76 0.930 . S
C66 C68 1.383 . S
C66 C69 1.382 1_655 S
C66 H77 0.930 . S
C67 C65 1.369 . S
C67 C69 1.392 . S
C67 H78 0.930 . S
C68 C64 1.373 . S
C68 C66 1.383 . S
C68 H79 0.931 . S
C69 C66 1.382 1_455 S
C69 C67 1.392 . S
C70 Eu41 2.828 . S
C70 O54 1.249 . S
C70 O55 1.244 . S
C70 C64 1.505 . S
C71 O58 1.258 . S
C71 O59 1.242 . S
H72 C44 0.930 . S
H73 C45 0.930 . S
H74 C46 0.930 . S
H75 C47 0.931 . S
H76 C65 0.930 . S
H77 C66 0.930 . S
H78 C67 0.930 . S
H79 C68 0.931 . S
Eu80 C89 2.828 . S
Eu80 O91 2.392 . S
Eu80 O93 2.418 . S
Eu80 O98 2.373 . S
Eu80 O101 2.488 . S
Eu80 O102 2.471 . S
Eu80 O103 2.349 . S
Eu81 O90 2.373 . S
Eu81 O94 2.488 . S
Eu81 O95 2.471 . S
Eu81 O96 2.349 . S
Eu81 O99 2.392 . S
Eu81 O100 2.418 . S
Eu81 C110 2.828 . S
C82 O100 1.244 . S
C82 O103 1.265 . S
C83 C84 1.379 . S
C83 C87 1.373 . S
C83 C89 1.505 . S
C84 C83 1.379 . S
C84 C86 1.369 . S
C84 H112 0.930 . S
C85 C87 1.383 . S
C85 C88 1.382 . S
C85 H113 0.930 . S
C86 C84 1.369 . S
C86 C88 1.392 . S
C86 H114 0.930 . S
C87 C83 1.373 . S
C87 C85 1.383 . S
C87 H115 0.931 . S
C88 C85 1.382 . S
C88 C86 1.392 . S
C89 Eu80 2.828 . S
C89 C83 1.505 . S
C89 O101 1.249 . S
C89 O102 1.244 . S
O90 Eu81 2.373 . S
O90 C92 1.258 . S
O91 Eu80 2.392 . S
O91 C92 1.242 . S
C92 O90 1.258 . S
C92 O91 1.242 . S
O93 Eu80 2.418 . S
O93 C97 1.244 . S
O94 Eu81 2.488 . S
O94 C110 1.249 . S
O95 Eu81 2.471 . S
O95 C110 1.244 . S
O96 Eu81 2.349 . S
O96 C97 1.265 . S
C97 O93 1.244 . S
C97 O96 1.265 . S
O98 Eu80 2.373 . S
O98 C111 1.258 . S
O99 Eu81 2.392 . S
O99 C111 1.242 . S
O100 Eu81 2.418 . S
O100 C82 1.244 . S
O101 Eu80 2.488 . S
O101 C89 1.249 . S
O102 Eu80 2.471 . S
O102 C89 1.244 . S
O103 Eu80 2.349 . S
O103 C82 1.265 . S
C104 C105 1.379 1_565 S
C104 C108 1.373 . S
C104 C110 1.505 . S
C105 C104 1.379 1_545 S
C105 C107 1.369 . S
C105 H116 0.930 . S
C106 C108 1.383 . S
C106 C109 1.382 1_565 S
C106 H117 0.930 . S
C107 C105 1.369 . S
C107 C109 1.392 . S
C107 H118 0.930 . S
C108 C104 1.373 . S
C108 C106 1.383 . S
C108 H119 0.931 . S
C109 C106 1.382 1_545 S
C109 C107 1.392 . S
C110 Eu81 2.828 . S
C110 O94 1.249 . S
C110 O95 1.244 . S
C110 C104 1.505 . S
C111 O98 1.258 . S
C111 O99 1.242 . S
H112 C84 0.930 . S
H113 C85 0.930 . S
H114 C86 0.930 . S
H115 C87 0.931 . S
H116 C105 0.930 . S
H117 C106 0.930 . S
H118 C107 0.930 . S
H119 C108 0.931 . S
Eu120 C129 2.828 . S
Eu120 O131 2.392 . S
Eu120 O133 2.418 . S
Eu120 O138 2.373 . S
Eu120 O141 2.488 . S
Eu120 O142 2.471 . S
Eu120 O143 2.349 . S
Eu121 O130 2.373 1_554 S
Eu121 O134 2.488 1_554 S
Eu121 O135 2.471 1_554 S
Eu121 O136 2.349 . S
Eu121 O139 2.392 . S
Eu121 O140 2.418 . S
Eu121 C150 2.828 1_554 S
C122 O140 1.244 . S
C122 O143 1.265 . S
C123 C124 1.379 . S
C123 C127 1.373 . S
C123 C129 1.505 . S
C124 C123 1.379 . S
C124 C126 1.369 . S
C124 H152 0.930 . S
C125 C127 1.383 . S
C125 C128 1.382 . S
C125 H153 0.930 . S
C126 C124 1.369 . S
C126 C128 1.392 . S
C126 H154 0.930 . S
C127 C123 1.373 . S
C127 C125 1.383 . S
C127 H155 0.931 . S
C128 C125 1.382 . S
C128 C126 1.392 . S
C129 Eu120 2.828 . S
C129 C123 1.505 . S
C129 O141 1.249 . S
C129 O142 1.244 . S
O130 Eu121 2.373 1_556 S
O130 C132 1.258 . S
O131 Eu120 2.392 . S
O131 C132 1.242 1_554 S
C132 O130 1.258 . S
C132 O131 1.242 1_556 S
O133 Eu120 2.418 . S
O133 C137 1.244 . S
O134 Eu121 2.488 1_556 S
O134 C150 1.249 . S
O135 Eu121 2.471 1_556 S
O135 C150 1.244 . S
O136 Eu121 2.349 . S
O136 C137 1.265 . S
C137 O133 1.244 . S
C137 O136 1.265 . S
O138 Eu120 2.373 . S
O138 C151 1.258 . S
O139 Eu121 2.392 . S
O139 C151 1.242 . S
O140 Eu121 2.418 . S
O140 C122 1.244 . S
O141 Eu120 2.488 . S
O141 C129 1.249 . S
O142 Eu120 2.471 . S
O142 C129 1.244 . S
O143 Eu120 2.349 . S
O143 C122 1.265 . S
C144 C145 1.379 . S
C144 C148 1.373 . S
C144 C150 1.505 . S
C145 C144 1.379 . S
C145 C147 1.369 . S
C145 H156 0.930 . S
C146 C148 1.383 . S
C146 C149 1.382 . S
C146 H157 0.930 . S
C147 C145 1.369 . S
C147 C149 1.392 . S
C147 H158 0.930 . S
C148 C144 1.373 . S
C148 C146 1.383 . S
C148 H159 0.931 . S
C149 C146 1.382 . S
C149 C147 1.392 . S
C150 Eu121 2.828 1_556 S
C150 O134 1.249 . S
C150 O135 1.244 . S
C150 C144 1.505 . S
C151 O138 1.258 . S
C151 O139 1.242 . S
H152 C124 0.930 . S
H153 C125 0.930 . S
H154 C126 0.930 . S
H155 C127 0.931 . S
H156 C145 0.930 . S
H157 C146 0.930 . S
H158 C147 0.930 . S
H159 C148 0.931 . S
Eu160 C169 2.828 . S
Eu160 O171 2.392 . S
Eu160 O173 2.418 . S
Eu160 O178 2.373 . S
Eu160 O181 2.488 . S
Eu160 O182 2.471 . S
Eu160 O183 2.349 . S
Eu161 O170 2.373 . S
Eu161 O174 2.488 . S
Eu161 O175 2.471 . S
Eu161 O176 2.349 . S
Eu161 O179 2.392 . S
Eu161 O180 2.418 . S
Eu161 C190 2.828 . S
C162 O180 1.244 . S
C162 O183 1.265 . S
C163 C164 1.379 . S
C163 C167 1.373 . S
C163 C169 1.505 . S
C164 C163 1.379 . S
C164 C166 1.369 . S
C164 H192 0.930 . S
C165 C167 1.383 . S
C165 C168 1.382 . S
C165 H193 0.930 . S
C166 C164 1.369 . S
C166 C168 1.392 . S
C166 H194 0.930 . S
C167 C163 1.373 . S
C167 C165 1.383 . S
C167 H195 0.931 . S
C168 C165 1.382 . S
C168 C166 1.392 . S
C169 Eu160 2.828 . S
C169 C163 1.505 . S
C169 O181 1.249 . S
C169 O182 1.244 . S
O170 Eu161 2.373 . S
O170 C172 1.258 . S
O171 Eu160 2.392 . S
O171 C172 1.242 . S
C172 O170 1.258 . S
C172 O171 1.242 . S
O173 Eu160 2.418 . S
O173 C177 1.244 . S
O174 Eu161 2.488 . S
O174 C190 1.249 . S
O175 Eu161 2.471 . S
O175 C190 1.244 . S
O176 Eu161 2.349 . S
O176 C177 1.265 . S
C177 O173 1.244 . S
C177 O176 1.265 . S
O178 Eu160 2.373 . S
O178 C191 1.258 . S
O179 Eu161 2.392 . S
O179 C191 1.242 . S
O180 Eu161 2.418 . S
O180 C162 1.244 . S
O181 Eu160 2.488 . S
O181 C169 1.249 . S
O182 Eu160 2.471 . S
O182 C169 1.244 . S
O183 Eu160 2.349 . S
O183 C162 1.265 . S
C184 C185 1.379 1_455 S
C184 C188 1.373 . S
C184 C190 1.505 . S
C185 C184 1.379 1_655 S
C185 C187 1.369 . S
C185 H196 0.930 . S
C186 C188 1.383 . S
C186 C189 1.382 1_455 S
C186 H197 0.930 . S
C187 C185 1.369 . S
C187 C189 1.392 . S
C187 H198 0.930 . S
C188 C184 1.373 . S
C188 C186 1.383 . S
C188 H199 0.931 . S
C189 C186 1.382 1_655 S
C189 C187 1.392 . S
C190 Eu161 2.828 . S
C190 O174 1.249 . S
C190 O175 1.244 . S
C190 C184 1.505 . S
C191 O178 1.258 . S
C191 O179 1.242 . S
H192 C164 0.930 . S
H193 C165 0.930 . S
H194 C166 0.930 . S
H195 C167 0.931 . S
H196 C185 0.930 . S
H197 C186 0.930 . S
H198 C187 0.930 . S
H199 C188 0.931 . S
Eu200 C209 2.828 . S
Eu200 O211 2.392 . S
Eu200 O213 2.418 . S
Eu200 O218 2.373 . S
Eu200 O221 2.488 . S
Eu200 O222 2.471 . S
Eu200 O223 2.349 . S
Eu201 O210 2.373 . S
Eu201 O214 2.488 . S
Eu201 O215 2.471 . S
Eu201 O216 2.349 . S
Eu201 O219 2.392 . S
Eu201 O220 2.418 . S
Eu201 C230 2.828 . S
C202 O220 1.244 . S
C202 O223 1.265 . S
C203 C204 1.379 . S
C203 C207 1.373 . S
C203 C209 1.505 . S
C204 C203 1.379 . S
C204 C206 1.369 . S
C204 H232 0.930 . S
C205 C207 1.383 . S
C205 C208 1.382 . S
C205 H233 0.930 . S
C206 C204 1.369 . S
C206 C208 1.392 . S
C206 H234 0.930 . S
C207 C203 1.373 . S
C207 C205 1.383 . S
C207 H235 0.931 . S
C208 C205 1.382 . S
C208 C206 1.392 . S
C209 Eu200 2.828 . S
C209 C203 1.505 . S
C209 O221 1.249 . S
C209 O222 1.244 . S
O210 Eu201 2.373 . S
O210 C212 1.258 . S
O211 Eu200 2.392 . S
O211 C212 1.242 . S
C212 O210 1.258 . S
C212 O211 1.242 . S
O213 Eu200 2.418 . S
O213 C217 1.244 . S
O214 Eu201 2.488 . S
O214 C230 1.249 . S
O215 Eu201 2.471 . S
O215 C230 1.244 . S
O216 Eu201 2.349 . S
O216 C217 1.265 . S
C217 O213 1.244 . S
C217 O216 1.265 . S
O218 Eu200 2.373 . S
O218 C231 1.258 . S
O219 Eu201 2.392 . S
O219 C231 1.242 . S
O220 Eu201 2.418 . S
O220 C202 1.244 . S
O221 Eu200 2.488 . S
O221 C209 1.249 . S
O222 Eu200 2.471 . S
O222 C209 1.244 . S
O223 Eu200 2.349 . S
O223 C202 1.265 . S
C224 C225 1.379 1_545 S
C224 C228 1.373 . S
C224 C230 1.505 . S
C225 C224 1.379 1_565 S
C225 C227 1.369 . S
C225 H236 0.930 . S
C226 C228 1.383 . S
C226 C229 1.382 1_545 S
C226 H237 0.930 . S
C227 C225 1.369 . S
C227 C229 1.392 . S
C227 H238 0.930 . S
C228 C224 1.373 . S
C228 C226 1.383 . S
C228 H239 0.931 . S
C229 C226 1.382 1_565 S
C229 C227 1.392 . S
C230 Eu201 2.828 . S
C230 O214 1.249 . S
C230 O215 1.244 . S
C230 C224 1.505 . S
C231 O218 1.258 . S
C231 O219 1.242 . S
H232 C204 0.930 . S
H233 C205 0.930 . S
H234 C206 0.930 . S
H235 C207 0.931 . S
H236 C225 0.930 . S
H237 C226 0.930 . S
H238 C227 0.930 . S
H239 C228 0.931 . S
C240 C241 1.369 . S
C240 C242 1.419 . S
C240 H244 0.930 . S
C241 C240 1.369 . S
C241 C250 1.429 . S
C242 C240 1.419 . S
C242 C243 1.363 . S
C242 H245 0.929 . S
C243 C242 1.363 . S
C243 C249 1.428 . S
H244 C240 0.930 . S
H245 C242 0.929 . S
S246 N247 1.613 . S
S246 N248 1.610 . S
N247 S246 1.613 . S
N247 C250 1.350 . S
N248 S246 1.610 . S
N248 C249 1.351 . S
C249 C243 1.428 . S
C249 N248 1.351 . S
C249 C250 1.434 . S
C250 C241 1.429 . S
C250 N247 1.350 . S
C250 C249 1.434 . S
C251 C252 1.369 . S
C251 C253 1.419 . S
C251 H255 0.930 . S
C252 C251 1.369 . S
C252 C261 1.429 . S
C253 C251 1.419 . S
C253 C254 1.363 . S
C253 H256 0.929 . S
C254 C253 1.363 . S
C254 C260 1.428 . S
H255 C251 0.930 . S
H256 C253 0.929 . S
S257 N258 1.613 . S
S257 N259 1.610 . S
N258 S257 1.613 . S
N258 C261 1.350 . S
N259 S257 1.610 . S
N259 C260 1.351 . S
C260 C254 1.428 . S
C260 N259 1.351 . S
C260 C261 1.434 . S
C261 C252 1.429 . S
C261 N258 1.350 . S
C261 C260 1.434 . S
C262 C263 1.369 . S
C262 C264 1.419 . S
C262 H266 0.930 . S
C263 C262 1.369 . S
C263 C272 1.429 . S
C264 C262 1.419 . S
C264 C265 1.363 . S
C264 H267 0.929 . S
C265 C264 1.363 . S
C265 C271 1.428 . S
H266 C262 0.930 . S
H267 C264 0.929 . S
S268 N269 1.613 . S
S268 N270 1.610 . S
N269 S268 1.613 . S
N269 C272 1.350 . S
N270 S268 1.610 . S
N270 C271 1.351 . S
C271 C265 1.428 . S
C271 N270 1.351 . S
C271 C272 1.434 . S
C272 C263 1.429 . S
C272 N269 1.350 . S
C272 C271 1.434 . S
C273 C274 1.369 . S
C273 C275 1.419 . S
C273 H277 0.930 . S
C274 C273 1.369 . S
C274 C283 1.429 . S
C275 C273 1.419 . S
C275 C276 1.363 . S
C275 H278 0.929 . S
C276 C275 1.363 . S
C276 C282 1.428 . S
H277 C273 0.930 . S
H278 C275 0.929 . S
S279 N280 1.613 . S
S279 N281 1.610 . S
N280 S279 1.613 . S
N280 C283 1.350 . S
N281 S279 1.610 . S
N281 C282 1.351 . S
C282 C276 1.428 . S
C282 N281 1.351 . S
C282 C283 1.434 . S
C283 C274 1.429 . S
C283 N280 1.350 . S
C283 C282 1.434 . S
C284 C285 1.369 . S
C284 C286 1.419 . S
C284 H288 0.930 . S
C285 C284 1.369 . S
C285 C294 1.429 . S
C286 C284 1.419 . S
C286 C287 1.363 . S
C286 H289 0.929 . S
C287 C286 1.363 . S
C287 C293 1.428 . S
H288 C284 0.930 . S
H289 C286 0.929 . S
S290 N291 1.613 . S
S290 N292 1.610 . S
N291 S290 1.613 . S
N291 C294 1.350 . S
N292 S290 1.610 . S
N292 C293 1.351 . S
C293 C287 1.428 . S
C293 N292 1.351 . S
C293 C294 1.434 . S
C294 C285 1.429 . S
C294 N291 1.350 . S
C294 C293 1.434 . S
C295 C296 1.369 . S
C295 C297 1.419 . S
C295 H299 0.930 . S
C296 C295 1.369 . S
C296 C305 1.429 . S
C297 C295 1.419 . S
C297 C298 1.363 . S
C297 H300 0.929 . S
C298 C297 1.363 . S
C298 C304 1.428 . S
H299 C295 0.930 . S
H300 C297 0.929 . S
S301 N302 1.613 . S
S301 N303 1.610 . S
N302 S301 1.613 . S
N302 C305 1.350 . S
N303 S301 1.610 . S
N303 C304 1.351 . S
C304 C298 1.428 . S
C304 N303 1.351 . S
C304 C305 1.434 . S
C305 C296 1.429 . S
C305 N302 1.350 . S
C305 C304 1.434 . S
C306 C307 1.369 . S
C306 C308 1.419 . S
C306 H310 0.930 . S
C307 C306 1.369 . S
C307 C316 1.429 . S
C308 C306 1.419 . S
C308 C309 1.363 . S
C308 H311 0.929 . S
C309 C308 1.363 . S
C309 C315 1.428 . S
H310 C306 0.930 . S
H311 C308 0.929 . S
S312 N313 1.613 . S
S312 N314 1.610 . S
N313 S312 1.613 . S
N313 C316 1.350 . S
N314 S312 1.610 . S
N314 C315 1.351 . S
C315 C309 1.428 . S
C315 N314 1.351 . S
C315 C316 1.434 . S
C316 C307 1.429 . S
C316 N313 1.350 . S
C316 C315 1.434 . S
C317 C318 1.369 . S
C317 C319 1.419 . S
C317 H321 0.930 . S
C318 C317 1.369 . S
C318 C327 1.429 1_455 S
C319 C317 1.419 . S
C319 C320 1.363 1_455 S
C319 H322 0.929 . S
C320 C319 1.363 1_655 S
C320 C326 1.428 . S
H321 C317 0.930 . S
H322 C319 0.929 . S
S323 N324 1.613 . S
S323 N325 1.610 . S
N324 S323 1.613 . S
N324 C327 1.350 . S
N325 S323 1.610 . S
N325 C326 1.351 . S
C326 C320 1.428 . S
C326 N325 1.351 . S
C326 C327 1.434 . S
C327 C318 1.429 1_655 S
C327 N324 1.350 . S
C327 C326 1.434 . S
C328 C329 1.369 1_565 S
C328 C330 1.419 . S
C328 H332 0.930 . S
C329 C328 1.369 1_545 S
C329 C338 1.429 . S
C330 C328 1.419 . S
C330 C331 1.363 . S
C330 H333 0.929 . S
C331 C330 1.363 . S
C331 C337 1.428 1_565 S
H332 C328 0.930 . S
H333 C330 0.929 . S
S334 N335 1.613 . S
S334 N336 1.610 . S
N335 S334 1.613 . S
N335 C338 1.350 . S
N336 S334 1.610 . S
N336 C337 1.351 . S
C337 C331 1.428 1_545 S
C337 N336 1.351 . S
C337 C338 1.434 . S
C338 C329 1.429 . S
C338 N335 1.350 . S
C338 C337 1.434 . S
C339 C340 1.369 . S
C339 C341 1.419 . S
C339 H343 0.930 . S
C340 C339 1.369 . S
C340 C349 1.429 . S
C341 C339 1.419 . S
C341 C342 1.363 . S
C341 H344 0.929 . S
C342 C341 1.363 . S
C342 C348 1.428 . S
H343 C339 0.930 . S
H344 C341 0.929 . S
S345 N346 1.613 . S
S345 N347 1.610 . S
N346 S345 1.613 . S
N346 C349 1.350 . S
N347 S345 1.610 . S
N347 C348 1.351 . S
C348 C342 1.428 . S
C348 N347 1.351 . S
C348 C349 1.434 . S
C349 C340 1.429 . S
C349 N346 1.350 . S
C349 C348 1.434 . S
C350 C351 1.369 . S
C350 C352 1.419 . S
C350 H354 0.930 . S
C351 C350 1.369 . S
C351 C360 1.429 1_455 S
C352 C350 1.419 . S
C352 C353 1.363 1_455 S
C352 H355 0.929 . S
C353 C352 1.363 1_655 S
C353 C359 1.428 . S
H354 C350 0.930 . S
H355 C352 0.929 . S
S356 N357 1.613 . S
S356 N358 1.610 . S
N357 S356 1.613 . S
N357 C360 1.350 . S
N358 S356 1.610 . S
N358 C359 1.351 . S
C359 C353 1.428 . S
C359 N358 1.351 . S
C359 C360 1.434 . S
C360 C351 1.429 1_655 S
C360 N357 1.350 . S
C360 C359 1.434 . S
C361 C362 1.369 . S
C361 C363 1.419 . S
C361 H365 0.930 . S
C362 C361 1.369 . S
C362 C371 1.429 1_565 S
C363 C361 1.419 . S
C363 C364 1.363 1_565 S
C363 H366 0.929 . S
C364 C363 1.363 1_545 S
C364 C370 1.428 . S
H365 C361 0.930 . S
H366 C363 0.929 . S
S367 N368 1.613 . S
S367 N369 1.610 . S
N368 S367 1.613 . S
N368 C371 1.350 . S
N369 S367 1.610 . S
N369 C370 1.351 . S
C370 C364 1.428 . S
C370 N369 1.351 . S
C370 C371 1.434 . S
C371 C362 1.429 1_545 S
C371 N368 1.350 . S
C371 C370 1.434 . S
C372 C373 1.369 . S
C372 C374 1.419 . S
C372 H376 0.930 . S
C373 C372 1.369 . S
C373 C382 1.429 . S
C374 C372 1.419 . S
C374 C375 1.363 . S
C374 H377 0.929 . S
C375 C374 1.363 . S
C375 C381 1.428 . S
H376 C372 0.930 . S
H377 C374 0.929 . S
S378 N379 1.613 . S
S378 N380 1.610 . S
N379 S378 1.613 . S
N379 C382 1.350 . S
N380 S378 1.610 . S
N380 C381 1.351 . S
C381 C375 1.428 . S
C381 N380 1.351 . S
C381 C382 1.434 . S
C382 C373 1.429 . S
C382 N379 1.350 . S
C382 C381 1.434 . S
C383 C384 1.369 . S
C383 C385 1.419 . S
C383 H387 0.930 . S
C384 C383 1.369 . S
C384 C393 1.429 . S
C385 C383 1.419 . S
C385 C386 1.363 . S
C385 H388 0.929 . S
C386 C385 1.363 . S
C386 C392 1.428 . S
H387 C383 0.930 . S
H388 C385 0.929 . S
S389 N390 1.613 . S
S389 N391 1.610 . S
N390 S389 1.613 . S
N390 C393 1.350 . S
N391 S389 1.610 . S
N391 C392 1.351 . S
C392 C386 1.428 . S
C392 N391 1.351 . S
C392 C393 1.434 . S
C393 C384 1.429 . S
C393 N390 1.350 . S
C393 C392 1.434 . S
C394 C395 1.369 . S
C394 C396 1.419 . S
C394 H398 0.930 . S
C395 C394 1.369 . S
C395 C404 1.429 . S
C396 C394 1.419 . S
C396 C397 1.363 . S
C396 H399 0.929 . S
C397 C396 1.363 . S
C397 C403 1.428 . S
H398 C394 0.930 . S
H399 C396 0.929 . S
S400 N401 1.613 . S
S400 N402 1.610 . S
N401 S400 1.613 . S
N401 C404 1.350 . S
N402 S400 1.610 . S
N402 C403 1.351 . S
C403 C397 1.428 . S
C403 N402 1.351 . S
C403 C404 1.434 . S
C404 C395 1.429 . S
C404 N401 1.350 . S
C404 C403 1.434 . S
C405 C406 1.369 . S
C405 C407 1.419 . S
C405 H409 0.930 . S
C406 C405 1.369 . S
C406 C415 1.429 . S
C407 C405 1.419 . S
C407 C408 1.363 . S
C407 H410 0.929 . S
C408 C407 1.363 . S
C408 C414 1.428 . S
H409 C405 0.930 . S
H410 C407 0.929 . S
S411 N412 1.613 . S
S411 N413 1.610 . S
N412 S411 1.613 . S
N412 C415 1.350 . S
N413 S411 1.610 . S
N413 C414 1.351 . S
C414 C408 1.428 . S
C414 N413 1.351 . S
C414 C415 1.434 . S
C415 C406 1.429 . S
C415 N412 1.350 . S
C415 C414 1.434 . S
C416 C417 1.369 . S
C416 C418 1.419 . S
C416 H420 0.930 . S
C417 C416 1.369 . S
C417 C426 1.429 . S
C418 C416 1.419 . S
C418 C419 1.363 . S
C418 H421 0.929 . S
C419 C418 1.363 . S
C419 C425 1.428 . S
H420 C416 0.930 . S
H421 C418 0.929 . S
S422 N423 1.613 . S
S422 N424 1.610 . S
N423 S422 1.613 . S
N423 C426 1.350 1_455 S
N424 S422 1.610 . S
N424 C425 1.351 1_455 S
C425 C419 1.428 . S
C425 N424 1.351 1_655 S
C425 C426 1.434 . S
C426 C417 1.429 . S
C426 N423 1.350 1_655 S
C426 C425 1.434 . S
C427 C428 1.369 . S
C427 C429 1.419 . S
C427 H431 0.930 . S
C428 C427 1.369 . S
C428 C437 1.429 . S
C429 C427 1.419 . S
C429 C430 1.363 . S
C429 H432 0.929 . S
C430 C429 1.363 . S
C430 C436 1.428 . S
H431 C427 0.930 . S
H432 C429 0.929 . S
S433 N434 1.613 . S
S433 N435 1.610 . S
N434 S433 1.613 . S
N434 C437 1.350 . S
N435 S433 1.610 . S
N435 C436 1.351 . S
C436 C430 1.428 . S
C436 N435 1.351 . S
C436 C437 1.434 . S
C437 C428 1.429 . S
C437 N434 1.350 . S
C437 C436 1.434 . S
C241 C172 1.234 . S
C243 C8 1.235 . S
C252 C212 1.234 . S
C254 C48 1.234 . S
C263 C12 1.234 . S
C265 C88 1.235 . S
C274 C52 1.234 . S
C276 C128 1.234 . S
C285 C92 1.232 . S
C287 C168 1.236 . S
C296 C132 1.237 . S
C298 C208 1.232 . S
C307 C17 1.213 . S
C309 C137 1.231 . S
C318 C177 1.229 . S
C320 C57 1.218 . S
C329 C217 1.224 . S
C331 C97 1.228 . S
C340 C82 1.466 . S
C342 C202 1.467 . S
C351 C2 1.468 . S
C353 C122 1.462 . S
C362 C162 1.466 . S
C364 C42 1.462 . S
C373 C231 1.351 . S
C375 C29 1.322 . S
C384 C69 1.321 . S
C386 C31 1.352 . S
C395 C109 1.321 . S
C397 C71 1.352 . S
C406 C111 1.351 . S
C408 C149 1.327 . S
C417 C189 1.326 . S
C419 C151 1.352 . S
C428 C229 1.321 . S
C430 C191 1.352 . S
