# Generated by pormake.
# Topology uot, (4)-cn, num edge types: 1
# Building blocks:
#     Node 0, Type 0, BuildingBlock: QUQFOY_clean_sbu_3, # of connection points: 4
#     Node 1, Type 0, BuildingBlock: QUQFOY_clean_sbu_3, # of connection points: 4
#     Node 2, Type 0, BuildingBlock: QUQFOY_clean_sbu_3, # of connection points: 4
#     Node 3, Type 0, BuildingBlock: QUQFOY_clean_sbu_3, # of connection points: 4
#     Node 4, Type 0, BuildingBlock: QUQFOY_clean_sbu_3, # of connection points: 4
#     Node 5, Type 0, BuildingBlock: QUQFOY_clean_sbu_3, # of connection points: 4
#     Node 6, Type 0, BuildingBlock: QUQFOY_clean_sbu_3, # of connection points: 4
#     Node 7, Type 0, BuildingBlock: QUQFOY_clean_sbu_3, # of connection points: 4
#     Node 8, Type 0, BuildingBlock: QUQFOY_clean_sbu_3, # of connection points: 4
#     Node 9, Type 0, BuildingBlock: QUQFOY_clean_sbu_3, # of connection points: 4
#     Node 10, Type 0, BuildingBlock: QUQFOY_clean_sbu_3, # of connection points: 4
#     Node 11, Type 0, BuildingBlock: QUQFOY_clean_sbu_3, # of connection points: 4
#     Node 12, Type 0, BuildingBlock: QUQFOY_clean_sbu_3, # of connection points: 4
#     Node 13, Type 0, BuildingBlock: QUQFOY_clean_sbu_3, # of connection points: 4
#     Node 14, Type 0, BuildingBlock: QUQFOY_clean_sbu_3, # of connection points: 4
#     Node 15, Type 0, BuildingBlock: QUQFOY_clean_sbu_3, # of connection points: 4
#     Edge 16, Type (0, 0), BuildingBlock: XIVTED_clean_linker_0, # of connection points: 2
#     Edge 17, Type (0, 0), BuildingBlock: XIVTED_clean_linker_0, # of connection points: 2
#     Edge 18, Type (0, 0), BuildingBlock: XIVTED_clean_linker_0, # of connection points: 2
#     Edge 19, Type (0, 0), BuildingBlock: XIVTED_clean_linker_0, # of connection points: 2
#     Edge 20, Type (0, 0), BuildingBlock: XIVTED_clean_linker_0, # of connection points: 2
#     Edge 21, Type (0, 0), BuildingBlock: XIVTED_clean_linker_0, # of connection points: 2
#     Edge 22, Type (0, 0), BuildingBlock: XIVTED_clean_linker_0, # of connection points: 2
#     Edge 23, Type (0, 0), BuildingBlock: XIVTED_clean_linker_0, # of connection points: 2
#     Edge 24, Type (0, 0), BuildingBlock: XIVTED_clean_linker_0, # of connection points: 2
#     Edge 25, Type (0, 0), BuildingBlock: XIVTED_clean_linker_0, # of connection points: 2
#     Edge 26, Type (0, 0), BuildingBlock: XIVTED_clean_linker_0, # of connection points: 2
#     Edge 27, Type (0, 0), BuildingBlock: XIVTED_clean_linker_0, # of connection points: 2
#     Edge 28, Type (0, 0), BuildingBlock: XIVTED_clean_linker_0, # of connection points: 2
#     Edge 29, Type (0, 0), BuildingBlock: XIVTED_clean_linker_0, # of connection points: 2
#     Edge 30, Type (0, 0), BuildingBlock: XIVTED_clean_linker_0, # of connection points: 2
#     Edge 31, Type (0, 0), BuildingBlock: XIVTED_clean_linker_0, # of connection points: 2
#     Edge 32, Type (0, 0), BuildingBlock: XIVTED_clean_linker_0, # of connection points: 2
#     Edge 33, Type (0, 0), BuildingBlock: XIVTED_clean_linker_0, # of connection points: 2
#     Edge 34, Type (0, 0), BuildingBlock: XIVTED_clean_linker_0, # of connection points: 2
#     Edge 35, Type (0, 0), BuildingBlock: XIVTED_clean_linker_0, # of connection points: 2
#     Edge 36, Type (0, 0), BuildingBlock: XIVTED_clean_linker_0, # of connection points: 2
#     Edge 37, Type (0, 0), BuildingBlock: XIVTED_clean_linker_0, # of connection points: 2
#     Edge 38, Type (0, 0), BuildingBlock: XIVTED_clean_linker_0, # of connection points: 2
#     Edge 39, Type (0, 0), BuildingBlock: XIVTED_clean_linker_0, # of connection points: 2
#     Edge 40, Type (0, 0), BuildingBlock: XIVTED_clean_linker_0, # of connection points: 2
#     Edge 41, Type (0, 0), BuildingBlock: XIVTED_clean_linker_0, # of connection points: 2
#     Edge 42, Type (0, 0), BuildingBlock: XIVTED_clean_linker_0, # of connection points: 2
#     Edge 43, Type (0, 0), BuildingBlock: XIVTED_clean_linker_0, # of connection points: 2
#     Edge 44, Type (0, 0), BuildingBlock: XIVTED_clean_linker_0, # of connection points: 2
#     Edge 45, Type (0, 0), BuildingBlock: XIVTED_clean_linker_0, # of connection points: 2
#     Edge 46, Type (0, 0), BuildingBlock: XIVTED_clean_linker_0, # of connection points: 2
#     Edge 47, Type (0, 0), BuildingBlock: XIVTED_clean_linker_0, # of connection points: 2
# Relax obj value: 0.066
# Max RMSD: 0.086
# Mean RMSD: 0.086
data_MOF--net-uot--node1-QUQFOY_clean_sbu_3--edge1-XIVTED_clean_linker_0
_symmetry_space_group_name_H-M    P1
_symmetry_Int_Tables_number       1
_symmetry_cell_setting            triclinic
loop_
_symmetry_equiv_pos_as_xyz
'x, y, z'
_cell_length_a     48.662913
_cell_length_b     48.45743
_cell_length_c     41.824307
_cell_angle_alpha  90.018593
_cell_angle_beta   89.970699
_cell_angle_gamma 89.924438
loop_
_atom_site_label
_atom_site_type_symbol
_atom_site_fract_x
_atom_site_fract_y
_atom_site_fract_z
_atom_type_partial_charge
C0 C 0.0992 0.36701 0.31596 0.0
O1 O 0.0908 0.38118 0.33956 0.0
Cd2 Cd 0.11891 0.41674 0.36282 0.0
O3 O 0.12385 0.36946 0.30607 0.0
Cd4 Cd 0.16749 0.39321 0.31956 0.0
C5 C 0.13752 0.45109 0.29318 0.0
O6 O 0.16259 0.39841 0.37735 0.0
O7 O 0.19172 0.4255 0.35437 0.0
O8 O 0.18733 0.34767 0.31875 0.0
C9 C 0.1809 0.41689 0.38008 0.0
O10 O 0.12503 0.45065 0.31998 0.0
C11 C 0.20793 0.35341 0.3014 0.0
O12 O 0.15332 0.43135 0.28476 0.0
O13 O 0.20994 0.3782 0.29165 0.0
C14 C 0.36961 0.83669 0.65523 0.0
O15 O 0.38491 0.8453 0.63272 0.0
Cd16 Cd 0.41865 0.81736 0.60595 0.0
O17 O 0.36997 0.81136 0.66356 0.0
Cd18 Cd 0.39104 0.76626 0.64862 0.0
C19 C 0.45181 0.79243 0.67392 0.0
O20 O 0.3955 0.77626 0.59252 0.0
O21 O 0.41617 0.73926 0.60756 0.0
O22 O 0.34453 0.74915 0.65243 0.0
C23 C 0.41034 0.75578 0.58506 0.0
O24 O 0.45167 0.80655 0.64819 0.0
C25 C 0.35019 0.72741 0.66803 0.0
O26 O 0.43153 0.7771 0.68158 0.0
O27 O 0.37526 0.72368 0.67553 0.0
C28 C 0.83298 0.56781 0.31849 0.0
O29 O 0.84127 0.55372 0.3422 0.0
Cd30 Cd 0.8128 0.51835 0.3654 0.0
O31 O 0.80839 0.56532 0.30849 0.0
Cd32 Cd 0.76456 0.54185 0.32139 0.0
C33 C 0.79464 0.48372 0.29574 0.0
O34 O 0.76902 0.53691 0.37922 0.0
O35 O 0.73963 0.51014 0.35618 0.0
O36 O 0.74554 0.5877 0.31969 0.0
C37 C 0.75049 0.51864 0.38191 0.0
O38 O 0.80692 0.48427 0.32267 0.0
C39 C 0.72497 0.58211 0.30225 0.0
O40 O 0.77897 0.50346 0.28704 0.0
O41 O 0.72253 0.55722 0.29295 0.0
C42 C 0.56359 0.09856 0.65526 0.0
O43 O 0.54916 0.09024 0.6319 0.0
Cd44 Cd 0.51411 0.11907 0.60897 0.0
O45 O 0.56158 0.1234 0.66501 0.0
Cd46 Cd 0.53846 0.1676 0.65146 0.0
C47 C 0.48061 0.13873 0.67882 0.0
O48 O 0.53361 0.16219 0.59375 0.0
O49 O 0.50686 0.19218 0.61589 0.0
O50 O 0.58424 0.18638 0.65272 0.0
C51 C 0.51564 0.18096 0.59046 0.0
O52 O 0.48069 0.12597 0.65214 0.0
C53 C 0.57874 0.20753 0.66941 0.0
O54 O 0.50052 0.15438 0.68679 0.0
O55 O 0.55396 0.21037 0.67859 0.0
C56 C 0.0983 0.56695 0.65097 0.0
O57 O 0.09025 0.55295 0.62709 0.0
Cd58 Cd 0.11882 0.51767 0.60382 0.0
O59 O 0.12285 0.56453 0.66116 0.0
Cd60 Cd 0.16688 0.54122 0.64812 0.0
C61 C 0.13697 0.48295 0.67346 0.0
O62 O 0.1625 0.53636 0.59029 0.0
O63 O 0.19178 0.50937 0.61326 0.0
O64 O 0.18611 0.58699 0.6495 0.0
C65 C 0.18098 0.51801 0.58754 0.0
O66 O 0.12476 0.48357 0.64649 0.0
C67 C 0.20662 0.58139 0.66705 0.0
O68 O 0.15256 0.50268 0.68231 0.0
O69 O 0.20886 0.55656 0.67666 0.0
C70 C 0.56217 0.8355 0.31278 0.0
O71 O 0.54676 0.84455 0.33499 0.0
Cd72 Cd 0.51212 0.81718 0.36107 0.0
O73 O 0.56126 0.81018 0.30446 0.0
Cd74 Cd 0.53893 0.76571 0.31872 0.0
C75 C 0.47886 0.79308 0.29284 0.0
O76 O 0.53395 0.77532 0.37499 0.0
O77 O 0.51299 0.73882 0.35889 0.0
O78 O 0.58512 0.74773 0.31576 0.0
C79 C 0.51874 0.75497 0.38178 0.0
O80 O 0.47911 0.80715 0.31861 0.0
C81 C 0.5794 0.72631 0.29962 0.0
O82 O 0.49893 0.77739 0.28527 0.0
O83 O 0.55441 0.72314 0.29145 0.0
C84 C 0.83111 0.36676 0.6522 0.0
O85 O 0.83944 0.38096 0.62862 0.0
Cd86 Cd 0.81127 0.41672 0.60576 0.0
O87 O 0.80652 0.36928 0.66225 0.0
Cd88 Cd 0.76279 0.39318 0.6493 0.0
C89 C 0.79312 0.45076 0.67586 0.0
O90 O 0.76753 0.39849 0.59158 0.0
O91 O 0.73841 0.4256 0.61468 0.0
O92 O 0.74306 0.34766 0.65017 0.0
C93 C 0.74922 0.41702 0.58893 0.0
O94 O 0.80549 0.45039 0.64897 0.0
C95 C 0.72257 0.35338 0.66774 0.0
O96 O 0.77727 0.43109 0.6842 0.0
O97 O 0.72054 0.37817 0.67753 0.0
C98 C 0.36984 0.0995 0.3165 0.0
O99 O 0.38397 0.09132 0.34018 0.0
Cd100 Cd 0.41824 0.12046 0.36405 0.0
O101 O 0.37155 0.12441 0.30694 0.0
Cd102 Cd 0.39359 0.16893 0.32129 0.0
C103 C 0.45213 0.14068 0.29474 0.0
O104 O 0.39793 0.16331 0.37899 0.0
O105 O 0.42443 0.19376 0.35744 0.0
O106 O 0.34758 0.1873 0.31937 0.0
C107 C 0.41562 0.18224 0.38266 0.0
O108 O 0.45199 0.12783 0.32136 0.0
C109 C 0.35304 0.20848 0.30272 0.0
O110 O 0.43211 0.15616 0.28662 0.0
O111 O 0.37789 0.21152 0.29393 0.0
C112 C 0.5964 0.86848 0.81481 0.0
O113 O 0.58781 0.8842 0.83702 0.0
Cd114 Cd 0.61564 0.91882 0.86244 0.0
O115 O 0.62154 0.86897 0.80618 0.0
Cd116 Cd 0.66628 0.89082 0.81982 0.0
C117 C 0.6394 0.95123 0.79342 0.0
O118 O 0.65706 0.89631 0.87607 0.0
O119 O 0.69358 0.91684 0.85962 0.0
O120 O 0.68372 0.84417 0.81692 0.0
C121 C 0.67752 0.91137 0.88264 0.0
O122 O 0.62556 0.95138 0.81933 0.0
C123 C 0.70504 0.84971 0.80067 0.0
O124 O 0.65482 0.93086 0.78603 0.0
O125 O 0.70836 0.87475 0.79241 0.0
C126 C 0.872 0.33718 0.15585 0.0
O127 O 0.8877 0.34561 0.13362 0.0
Cd128 Cd 0.92142 0.31725 0.10756 0.0
O129 O 0.87195 0.31185 0.16419 0.0
Cd130 Cd 0.8927 0.2665 0.14957 0.0
C131 C 0.95337 0.29203 0.17618 0.0
O132 O 0.89763 0.27662 0.09359 0.0
O133 O 0.9179 0.23938 0.10854 0.0
O134 O 0.84595 0.24983 0.15269 0.0
C135 C 0.91223 0.25599 0.08608 0.0
O136 O 0.95372 0.30619 0.15049 0.0
C137 C 0.85127 0.22799 0.16827 0.0
O138 O 0.93287 0.27681 0.18334 0.0
O139 O 0.87623 0.22404 0.1761 0.0
C140 C 0.33254 0.06494 0.81807 0.0
O141 O 0.34044 0.05099 0.84205 0.0
Cd142 Cd 0.31123 0.01668 0.8659 0.0
O143 O 0.30785 0.06309 0.80816 0.0
Cd144 Cd 0.26336 0.0411 0.8219 0.0
C145 C 0.29209 -0.01789 0.79654 0.0
O146 O 0.26822 0.03692 0.87969 0.0
O147 O 0.23812 0.01031 0.85772 0.0
O148 O 0.24513 0.08734 0.81961 0.0
C149 C 0.24934 0.01913 0.8831 0.0
O150 O 0.3045 -0.01748 0.82339 0.0
C151 C 0.22429 0.08187 0.80255 0.0
O152 O 0.27672 0.00211 0.78788 0.0
O153 O 0.22141 0.05692 0.79367 0.0
C154 C 0.05964 0.5997 0.15725 0.0
O155 O 0.04393 0.59113 0.13512 0.0
Cd156 Cd 0.00984 0.61935 0.10946 0.0
O157 O 0.05949 0.62502 0.16563 0.0
Cd158 Cd 0.03836 0.67024 0.1515 0.0
C159 C -0.0219 0.64411 0.1785 0.0
O160 O 0.03311 0.6603 0.09549 0.0
O161 O 0.01288 0.69745 0.11091 0.0
O162 O 0.08504 0.68697 0.15444 0.0
C163 C 0.0184 0.68092 0.08829 0.0
O164 O -0.02228 0.63002 0.15274 0.0
C165 C 0.07975 0.70873 0.1702 0.0
O166 O -0.0015 0.65948 0.18557 0.0
O167 O 0.05481 0.71265 0.17818 0.0
C168 C 0.59829 0.06386 0.15521 0.0
O169 O 0.58937 0.04859 0.1328 0.0
Cd170 Cd 0.61663 0.01414 0.10619 0.0
O171 O 0.62354 0.06312 0.16338 0.0
Cd172 Cd 0.66809 0.04135 0.14846 0.0
C173 C 0.64095 -0.01904 0.1745 0.0
O174 O 0.65798 0.03654 0.09246 0.0
O175 O 0.69457 0.01538 0.10767 0.0
O176 O 0.68578 0.08787 0.15124 0.0
C177 C 0.67815 0.02128 0.08515 0.0
O178 O 0.62683 -0.01883 0.14881 0.0
C179 C 0.70717 0.08218 0.1673 0.0
O180 O 0.65665 0.00108 0.18186 0.0
O181 O 0.71044 0.0571 0.17548 0.0
C182 C 0.05896 0.33603 0.812 0.0
O183 O 0.04321 0.3444 0.83423 0.0
Cd184 Cd 0.00935 0.31608 0.86 0.0
O185 O 0.05898 0.31074 0.80344 0.0
Cd186 Cd 0.03792 0.2655 0.81773 0.0
C187 C -0.02268 0.29138 0.79126 0.0
O188 O 0.03282 0.27517 0.87388 0.0
O189 O 0.01243 0.23824 0.85822 0.0
O190 O 0.08445 0.24811 0.81478 0.0
C191 C 0.0181 0.25456 0.88098 0.0
O192 O -0.02304 0.30541 0.81707 0.0
C193 C 0.07894 0.22653 0.79882 0.0
O194 O -0.00217 0.27616 0.78399 0.0
O195 O 0.05399 0.2231 0.79066 0.0
C196 C 0.3331 0.8685 0.15277 0.0
O197 O 0.34106 0.883 0.12927 0.0
Cd198 Cd 0.31223 0.91839 0.10697 0.0
O199 O 0.30852 0.87055 0.16305 0.0
Cd200 Cd 0.26439 0.89392 0.15042 0.0
C201 C 0.29386 0.95186 0.17738 0.0
O202 O 0.26899 0.89903 0.09269 0.0
O203 O 0.23958 0.92598 0.11552 0.0
O204 O 0.24508 0.84813 0.15146 0.0
C205 C 0.25037 0.91721 0.08984 0.0
O206 O 0.30617 0.95181 0.15045 0.0
C207 C 0.22451 0.85373 0.16893 0.0
O208 O 0.27829 0.93192 0.18556 0.0
O209 O 0.2223 0.87853 0.17865 0.0
C210 C 0.87195 0.59779 0.81333 0.0
O211 O 0.88742 0.58907 0.83562 0.0
Cd212 Cd 0.92125 0.61711 0.86195 0.0
O213 O 0.87226 0.62315 0.80511 0.0
Cd214 Cd 0.89334 0.66817 0.81973 0.0
C215 C 0.95394 0.64195 0.79365 0.0
O216 O 0.89797 0.65818 0.8758 0.0
O217 O 0.91851 0.69519 0.86068 0.0
O218 O 0.84674 0.68522 0.81657 0.0
C219 C 0.91268 0.67871 0.88321 0.0
O220 O 0.954 0.62781 0.81936 0.0
C221 C 0.85214 0.70681 0.80061 0.0
O222 O 0.93361 0.65736 0.78627 0.0
O223 O 0.87712 0.71049 0.79265 0.0
H224 H 0.26027 0.36017 0.27725 0.0
H225 H 0.29791 0.20169 0.30871 0.0
H226 H 0.20335 0.29809 0.31008 0.0
H227 H 0.35864 0.26178 0.28055 0.0
H228 H 0.26222 0.23633 0.3024 0.0
H229 H 0.29572 0.32424 0.27172 0.0
C230 C 0.25514 0.33898 0.2829 0.0
C231 C 0.22892 0.33213 0.29445 0.0
C232 C 0.28329 0.24205 0.29737 0.0
C233 C 0.26917 0.29113 0.28822 0.0
C234 C 0.30373 0.2222 0.30098 0.0
C235 C 0.33134 0.22893 0.29548 0.0
C236 C 0.29039 0.26906 0.28848 0.0
C237 C 0.33759 0.25578 0.28515 0.0
C238 C 0.27537 0.31853 0.27983 0.0
C239 C 0.22336 0.30439 0.30143 0.0
N240 N 0.31727 0.27502 0.28232 0.0
N241 N 0.24331 0.28503 0.29837 0.0
H242 H 0.29491 0.73419 0.66271 0.0
H243 H 0.25875 0.57505 0.69186 0.0
H244 H 0.35613 0.67392 0.68932 0.0
H245 H 0.20145 0.63673 0.65865 0.0
H246 H 0.29369 0.61128 0.69811 0.0
H247 H 0.25946 0.69924 0.66855 0.0
C248 C 0.30088 0.71359 0.67004 0.0
C249 C 0.32856 0.7069 0.67521 0.0
C250 C 0.27337 0.61684 0.68975 0.0
C251 C 0.28792 0.66647 0.68163 0.0
C252 C 0.25343 0.59621 0.68627 0.0
C253 C 0.22725 0.60286 0.67441 0.0
C254 C 0.26693 0.64422 0.68146 0.0
C255 C 0.22143 0.63058 0.66753 0.0
C256 C 0.28059 0.69358 0.67335 0.0
C257 C 0.33502 0.67992 0.68497 0.0
N258 N 0.24111 0.65013 0.671 0.0
N259 N 0.31486 0.66055 0.68754 0.0
H260 H 0.57313 0.67335 0.27675 0.0
H261 H 0.73121 0.63751 0.30825 0.0
H262 H 0.63462 0.73199 0.30672 0.0
H263 H 0.67223 0.576 0.27924 0.0
H264 H 0.69648 0.67306 0.3014 0.0
H265 H 0.60927 0.63818 0.27132 0.0
C266 C 0.59424 0.67891 0.28177 0.0
C267 C 0.60085 0.70555 0.29252 0.0
C268 C 0.69104 0.65185 0.29628 0.0
C269 C 0.64212 0.66557 0.28647 0.0
C270 C 0.71092 0.63149 0.30021 0.0
C271 C 0.70452 0.60371 0.29464 0.0
C272 C 0.6643 0.64448 0.28702 0.0
C273 C 0.67796 0.5972 0.28391 0.0
C274 C 0.61482 0.65884 0.27875 0.0
C275 C 0.6285 0.71166 0.2987 0.0
N276 N 0.65867 0.61743 0.28079 0.0
N277 N 0.64801 0.69182 0.29578 0.0
H278 H 0.63385 0.20106 0.66289 0.0
H279 H 0.67042 0.35998 0.69255 0.0
H280 H 0.57282 0.26096 0.69121 0.0
H281 H 0.72743 0.29807 0.65912 0.0
H282 H 0.63531 0.32388 0.69882 0.0
H283 H 0.66927 0.23599 0.6684 0.0
C284 C 0.62791 0.2216 0.67049 0.0
C285 C 0.60029 0.22818 0.67626 0.0
C286 C 0.65561 0.31825 0.69041 0.0
C287 C 0.64092 0.26864 0.68233 0.0
C288 C 0.67564 0.3388 0.68691 0.0
C289 C 0.70178 0.33204 0.67499 0.0
C290 C 0.66193 0.29085 0.68207 0.0
C291 C 0.70747 0.3043 0.66805 0.0
C292 C 0.64819 0.2416 0.67364 0.0
C293 C 0.59389 0.25507 0.68641 0.0
N294 N 0.68772 0.28485 0.67153 0.0
N295 N 0.61405 0.27447 0.68879 0.0
H296 H 0.69905 0.79423 0.80766 0.0
H297 H 0.85757 0.75947 0.77667 0.0
H298 H 0.75779 0.85572 0.77787 0.0
H299 H 0.797 0.70063 0.80863 0.0
H300 H 0.821 0.79408 0.77078 0.0
H301 H 0.73414 0.75881 0.80172 0.0
C302 C 0.71933 0.80026 0.79961 0.0
C303 C 0.72557 0.82802 0.79356 0.0
C304 C 0.81574 0.7735 0.77877 0.0
C305 C 0.76615 0.78744 0.78698 0.0
C306 C 0.83658 0.75374 0.78206 0.0
C307 C 0.83036 0.72721 0.79345 0.0
C308 C 0.78856 0.76659 0.78687 0.0
C309 C 0.80281 0.72089 0.80008 0.0
C310 C 0.73942 0.78 0.79622 0.0
C311 C 0.75215 0.83455 0.78291 0.0
N312 N 0.78304 0.74044 0.79688 0.0
N313 N 0.7716 0.81443 0.78028 0.0
H314 H 0.75947 0.07599 0.19147 0.0
H315 H 0.79608 0.23481 0.16127 0.0
H316 H 0.70185 0.13762 0.15886 0.0
H317 H 0.85663 0.17471 0.19034 0.0
H318 H 0.76042 0.20001 0.16676 0.0
H319 H 0.79438 0.11219 0.19742 0.0
C320 C 0.75407 0.09714 0.18593 0.0
C321 C 0.72779 0.10376 0.17437 0.0
C322 C 0.78145 0.19437 0.17219 0.0
C323 C 0.76751 0.14515 0.18104 0.0
C324 C 0.80186 0.2143 0.16907 0.0
C325 C 0.82942 0.2076 0.17506 0.0
C326 C 0.78855 0.16735 0.18112 0.0
C327 C 0.83562 0.18071 0.18536 0.0
C328 C 0.774 0.11777 0.18926 0.0
C329 C 0.7219 0.13149 0.16756 0.0
N330 N 0.81536 0.16145 0.18775 0.0
N331 N 0.74161 0.15106 0.17082 0.0
H332 H 0.073 0.17371 0.77547 0.0
H333 H 0.23065 0.13726 0.80921 0.0
H334 H 0.13411 0.2321 0.80714 0.0
H335 H 0.1717 0.07615 0.779 0.0
H336 H 0.19606 0.17298 0.8023 0.0
H337 H 0.10915 0.13853 0.77052 0.0
C338 C 0.09403 0.17923 0.78098 0.0
C339 C 0.10052 0.2058 0.79203 0.0
C340 C 0.19061 0.15182 0.79693 0.0
C341 C 0.14182 0.16576 0.78653 0.0
C342 C 0.21042 0.13137 0.80089 0.0
C343 C 0.20397 0.10364 0.79498 0.0
C344 C 0.16394 0.14461 0.78728 0.0
C345 C 0.17748 0.09729 0.78393 0.0
C346 C 0.11462 0.15913 0.77823 0.0
C347 C 0.12809 0.21183 0.79883 0.0
N348 N 0.15828 0.11762 0.78076 0.0
N349 N 0.14761 0.19196 0.79617 0.0
H350 H 0.17261 0.86018 0.19437 0.0
H351 H 0.13489 0.70166 0.1634 0.0
H352 H 0.22915 0.79845 0.15942 0.0
H353 H 0.07453 0.76206 0.19227 0.0
H354 H 0.17067 0.7363 0.16893 0.0
H355 H 0.13745 0.82416 0.20049 0.0
C356 C 0.17772 0.83904 0.18836 0.0
C357 C 0.20375 0.83233 0.17608 0.0
C358 C 0.14966 0.74205 0.17429 0.0
C359 C 0.16381 0.7912 0.18297 0.0
C360 C 0.12918 0.72222 0.17115 0.0
C361 C 0.10164 0.72905 0.17707 0.0
C362 C 0.14266 0.76912 0.18316 0.0
C363 C 0.09552 0.75597 0.18734 0.0
C364 C 0.15765 0.81853 0.19177 0.0
C365 C 0.20929 0.80465 0.16866 0.0
N366 N 0.11586 0.77516 0.18975 0.0
N367 N 0.18949 0.78521 0.17207 0.0
H368 H 0.14064 0.4519 0.22762 0.0
H369 H 0.08588 0.60725 0.21445 0.0
H370 H 0.12209 0.50332 0.3091 0.0
H371 H 0.07271 0.54652 0.14045 0.0
H372 H 0.1101 0.57243 0.246 0.0
H373 H 0.1264 0.48976 0.19217 0.0
C374 C 0.134 0.47127 0.23801 0.0
C375 C 0.13226 0.47443 0.2713 0.0
C376 C 0.10211 0.56684 0.22271 0.0
C377 C 0.11625 0.51762 0.23111 0.0
C378 C 0.08837 0.58671 0.20462 0.0
C379 C 0.07695 0.5797 0.17491 0.0
C380 C 0.10474 0.53985 0.21088 0.0
C381 C 0.0809 0.55274 0.16341 0.0
C382 C 0.12576 0.49275 0.21782 0.0
C383 C 0.12343 0.49991 0.28356 0.0
N384 N 0.09438 0.53373 0.18149 0.0
N385 N 0.11571 0.5205 0.26348 0.0
H386 H 0.50472 0.80451 0.65845 0.0
H387 H 0.54338 0.85555 0.83143 0.0
H388 H 0.45199 0.78911 0.73942 0.0
H389 H 0.60426 0.84144 0.75807 0.0
H390 H 0.50965 0.83071 0.79899 0.0
H391 H 0.5417 0.8173 0.69492 0.0
C392 C 0.50107 0.80348 0.68398 0.0
C393 C 0.47523 0.79593 0.69597 0.0
C394 C 0.5305 0.83273 0.79024 0.0
C395 C 0.51731 0.81105 0.73787 0.0
C396 C 0.54975 0.847 0.80867 0.0
C397 C 0.57663 0.85086 0.79731 0.0
C398 C 0.53808 0.82265 0.76001 0.0
C399 C 0.58376 0.83912 0.76774 0.0
C400 C 0.5222 0.81073 0.70479 0.0
C401 C 0.47164 0.79479 0.72923 0.0
N402 N 0.56449 0.82591 0.74992 0.0
N403 N 0.49232 0.80278 0.74908 0.0
H404 H 0.85899 0.39026 0.13881 0.0
H405 H 0.80989 0.43156 0.31212 0.0
H406 H 0.84648 0.33018 0.21361 0.0
H407 H 0.79215 0.48261 0.23016 0.0
H408 H 0.82379 0.3943 0.27631 0.0
H409 H 0.83496 0.42466 0.17135 0.0
C410 C 0.85098 0.38422 0.16194 0.0
C411 C 0.85498 0.35735 0.17363 0.0
C412 C 0.81654 0.41351 0.2661 0.0
C413 C 0.82775 0.39668 0.21103 0.0
C414 C 0.80871 0.43483 0.28653 0.0
C415 C 0.80004 0.46026 0.27406 0.0
C416 C 0.81629 0.41781 0.23293 0.0
C417 C 0.7987 0.46331 0.24073 0.0
C418 C 0.83718 0.40385 0.18042 0.0
C419 C 0.84397 0.35065 0.20366 0.0
N420 N 0.80718 0.44244 0.22126 0.0
N421 N 0.83121 0.37029 0.22151 0.0
H422 H 0.48025 0.1431 0.74433 0.0
H423 H 0.32538 0.0895 0.7598 0.0
H424 H 0.42847 0.12312 0.66387 0.0
H425 H 0.38544 0.07866 0.83475 0.0
H426 H 0.36015 0.1126 0.72739 0.0
H427 H 0.44268 0.12988 0.78052 0.0
C428 C 0.46087 0.13634 0.7343 0.0
C429 C 0.45751 0.13395 0.70108 0.0
C430 C 0.36563 0.10537 0.75106 0.0
C431 C 0.41465 0.11907 0.74213 0.0
C432 C 0.34577 0.09227 0.76965 0.0
C433 C 0.35257 0.08181 0.79993 0.0
C434 C 0.39245 0.10831 0.76287 0.0
C435 C 0.37936 0.08613 0.81141 0.0
C436 C 0.43956 0.12869 0.75492 0.0
C437 C 0.43204 0.12498 0.68933 0.0
N438 N 0.3984 0.09894 0.79279 0.0
N439 N 0.41162 0.11784 0.70981 0.0
H440 H 0.12211 0.43079 0.65674 0.0
H441 H 0.07189 0.38902 0.82945 0.0
H442 H 0.13901 0.48167 0.73908 0.0
H443 H 0.0848 0.32921 0.75437 0.0
H444 H 0.09609 0.42349 0.7973 0.0
H445 H 0.10805 0.39344 0.69225 0.0
C446 C 0.12308 0.434 0.68236 0.0
C447 C 0.13156 0.45942 0.69501 0.0
C448 C 0.09393 0.40272 0.78808 0.0
C449 C 0.11511 0.41684 0.73581 0.0
C450 C 0.08003 0.38305 0.80635 0.0
C451 C 0.07609 0.35623 0.79446 0.0
C452 C 0.10353 0.39565 0.7575 0.0
C453 C 0.08726 0.34963 0.76446 0.0
C454 C 0.11515 0.41263 0.70261 0.0
C455 C 0.13262 0.46238 0.72837 0.0
N456 N 0.10012 0.36931 0.74683 0.0
N457 N 0.12405 0.44146 0.74767 0.0
H458 H 0.38574 0.85463 0.13508 0.0
H459 H 0.42613 0.80566 0.30854 0.0
H460 H 0.32598 0.8422 0.21003 0.0
H461 H 0.47841 0.78957 0.2273 0.0
H462 H 0.38894 0.81823 0.27228 0.0
H463 H 0.41987 0.83006 0.16736 0.0
C464 C 0.37969 0.84647 0.15813 0.0
C465 C 0.35301 0.85078 0.17001 0.0
C466 C 0.40839 0.81158 0.26229 0.0
C467 C 0.39202 0.82291 0.20711 0.0
C468 C 0.42965 0.80447 0.28299 0.0
C469 C 0.45541 0.79676 0.27087 0.0
C470 C 0.41305 0.8116 0.22917 0.0
C471 C 0.45881 0.79539 0.23758 0.0
C472 C 0.39916 0.83238 0.17649 0.0
C473 C 0.34631 0.83957 0.19996 0.0
N474 N 0.43799 0.80324 0.21782 0.0
N475 N 0.36578 0.82652 0.21764 0.0
H476 H 0.79012 0.45117 0.74143 0.0
H477 H 0.84604 0.60585 0.75603 0.0
H478 H 0.80901 0.50291 0.6604 0.0
H479 H 0.85867 0.54457 0.82954 0.0
H480 H 0.82171 0.57144 0.72409 0.0
H481 H 0.80475 0.48862 0.7772 0.0
C482 C 0.79693 0.47053 0.7312 0.0
C483 C 0.79863 0.4739 0.69794 0.0
C484 C 0.82961 0.56563 0.74735 0.0
C485 C 0.81509 0.51662 0.73851 0.0
C486 C 0.84341 0.58527 0.76566 0.0
C487 C 0.8547 0.578 0.79537 0.0
C488 C 0.82677 0.53861 0.75894 0.0
C489 C 0.85058 0.55099 0.80661 0.0
C490 C 0.80538 0.49178 0.75158 0.0
C491 C 0.80768 0.49935 0.68591 0.0
N492 N 0.83703 0.53222 0.78832 0.0
N493 N 0.81561 0.51971 0.70618 0.0
H494 H 0.60664 0.08917 0.2129 0.0
H495 H 0.4525 0.14508 0.22932 0.0
H496 H 0.5454 0.07801 0.13935 0.0
H497 H 0.50434 0.12504 0.30973 0.0
H498 H 0.48985 0.13132 0.1931 0.0
H499 H 0.57254 0.11335 0.24548 0.0
C500 C 0.58614 0.09211 0.20339 0.0
C501 C 0.57878 0.08124 0.17349 0.0
C502 C 0.49306 0.13026 0.21869 0.0
C503 C 0.53975 0.10899 0.21065 0.0
C504 C 0.47187 0.13823 0.23933 0.0
C505 C 0.47528 0.13592 0.27254 0.0
C506 C 0.5179 0.1204 0.23144 0.0
C507 C 0.50074 0.12683 0.28427 0.0
C508 C 0.56668 0.10582 0.22207 0.0
C509 C 0.55189 0.08576 0.16242 0.0
N510 N 0.52105 0.11934 0.26376 0.0
N511 N 0.53328 0.09919 0.18107 0.0
H512 H 0.64341 0.95096 0.7279 0.0
H513 H 0.59011 0.10668 0.71215 0.0
H514 H 0.62634 0.00431 0.80812 0.0
H515 H 0.57737 0.04541 0.63864 0.0
H516 H 0.61465 0.07234 0.7439 0.0
H517 H 0.63027 -0.0114 0.69153 0.0
C518 C 0.63742 -0.02927 0.73782 0.0
C519 C 0.63568 -0.0255 0.77103 0.0
C520 C 0.60671 0.06651 0.72067 0.0
C521 C 0.62084 0.0174 0.7298 0.0
C522 C 0.59275 0.08612 0.70246 0.0
C523 C 0.58131 0.07884 0.67283 0.0
C524 C 0.60949 0.03945 0.70914 0.0
C525 C 0.58556 0.05185 0.66151 0.0
C526 C 0.62978 -0.00792 0.71711 0.0
C527 C 0.62766 0.00045 0.78266 0.0
N528 N 0.59917 0.03306 0.67978 0.0
N529 N 0.62046 0.02086 0.7621 0.0
H530 H 0.10769 0.34066 0.25893 0.0
H531 H 0.95279 0.28742 0.24163 0.0
H532 H 0.04631 0.35282 0.33222 0.0
H533 H 0.00641 0.30474 0.16197 0.0
H534 H -0.00991 0.30019 0.2784 0.0
H535 H 0.07376 0.31612 0.22676 0.0
C536 C 0.08719 0.33788 0.26849 0.0
C537 C 0.07976 0.34918 0.29819 0.0
C538 C -0.00629 0.3008 0.25286 0.0
C539 C 0.04083 0.32101 0.26138 0.0
C540 C -0.02745 0.29336 0.23192 0.0
C541 C -0.02351 0.2953 0.19875 0.0
C542 C 0.01901 0.30975 0.24044 0.0
C543 C 0.00243 0.30327 0.18739 0.0
C544 C 0.06782 0.32392 0.25003 0.0
C545 C 0.05287 0.34475 0.30932 0.0
N546 N 0.02265 0.31029 0.20817 0.0
N547 N 0.03429 0.33116 0.2908 0.0
H548 H 0.30725 0.92981 0.81256 0.0
H549 H 0.35596 0.88972 0.63861 0.0
H550 H 0.28924 -0.01877 0.73099 0.0
H551 H 0.34465 0.82926 0.71326 0.0
H552 H 0.33179 0.92374 0.67154 0.0
H553 H 0.32119 0.89277 0.77646 0.0
C554 C 0.30598 0.9332 0.787 0.0
C555 C 0.29725 0.95868 0.77473 0.0
C556 C 0.3343 0.90292 0.6805 0.0
C557 C 0.31357 0.91648 0.73326 0.0
C558 C 0.34818 0.88351 0.66179 0.0
C559 C 0.35256 0.85664 0.67331 0.0
C560 C 0.32515 0.89555 0.71116 0.0
C561 C 0.34185 0.84973 0.70344 0.0
C562 C 0.31386 0.91201 0.7664 0.0
C563 C 0.29583 0.96187 0.74142 0.0
N564 N 0.32899 0.86917 0.72149 0.0
N565 N 0.30435 0.94114 0.72179 0.0
H566 H 0.82432 0.59466 0.26189 0.0
H567 H -0.02092 0.64809 0.244 0.0
H568 H 0.88606 0.58162 0.3345 0.0
H569 H 0.92503 0.63139 0.1646 0.0
H570 H 0.94203 0.63488 0.28094 0.0
H571 H 0.85811 0.61945 0.22981 0.0
C572 C 0.84488 0.59728 0.27132 0.0
C573 C 0.85244 0.58568 0.30079 0.0
C574 C 0.93826 0.6345 0.25542 0.0
C575 C 0.89121 0.61415 0.26407 0.0
C576 C 0.95928 0.6422 0.23439 0.0
C577 C 0.95514 0.64057 0.20124 0.0
C578 C 0.91291 0.62562 0.24311 0.0
C579 C 0.92916 0.63264 0.19 0.0
C580 C 0.86417 0.61139 0.25291 0.0
C581 C 0.8794 0.58994 0.31176 0.0
N582 N 0.90908 0.62538 0.21087 0.0
N583 N 0.8979 0.60368 0.29329 0.0
H584 H 0.64485 -0.01883 0.23998 0.0
H585 H 0.58918 0.82647 0.25631 0.0
H586 H 0.62743 0.92803 0.15974 0.0
H587 H 0.57592 0.88873 0.3286 0.0
H588 H 0.61451 0.8602 0.22448 0.0
H589 H 0.63086 0.94386 0.27631 0.0
C590 C 0.63864 0.96149 0.23005 0.0
C591 C 0.63703 0.9577 0.19685 0.0
C592 C 0.60628 0.86637 0.24746 0.0
C593 C 0.62118 0.91519 0.23804 0.0
C594 C 0.59187 0.84712 0.26571 0.0
C595 C 0.58008 0.85487 0.29501 0.0
C596 C 0.60919 0.8935 0.25869 0.0
C597 C 0.58436 0.88194 0.30597 0.0
C598 C 0.6305 0.94034 0.25075 0.0
C599 C 0.62868 0.93188 0.1852 0.0
N600 N 0.59846 0.90035 0.28772 0.0
N601 N 0.62097 0.91165 0.20576 0.0
H602 H 0.82276 0.34017 0.70906 0.0
H603 H -0.02217 0.28695 0.72579 0.0
H604 H 0.88399 0.35255 0.63568 0.0
H605 H 0.92429 0.30413 0.80562 0.0
H606 H 0.94044 0.29976 0.68915 0.0
H607 H 0.8568 0.31552 0.74102 0.0
C608 C 0.84325 0.33741 0.69943 0.0
C609 C 0.85061 0.34881 0.66979 0.0
C610 C 0.93686 0.30033 0.7147 0.0
C611 C 0.88966 0.32053 0.70635 0.0
C612 C 0.95807 0.29287 0.73557 0.0
C613 C 0.95418 0.29476 0.76875 0.0
C614 C 0.91155 0.30924 0.7272 0.0
C615 C 0.92824 0.3027 0.7802 0.0
C616 C 0.86269 0.32339 0.71777 0.0
C617 C 0.87749 0.3444 0.65856 0.0
N618 N 0.90797 0.30974 0.75947 0.0
N619 N 0.89612 0.33076 0.67696 0.0
H620 H 0.34514 0.10707 0.25842 0.0
H621 H 0.29024 0.95206 0.24295 0.0
H622 H 0.35598 0.04639 0.33298 0.0
H623 H 0.30974 0.00414 0.16241 0.0
H624 H 0.30416 -0.01047 0.27909 0.0
H625 H 0.32165 0.07244 0.22607 0.0
C626 C 0.3423 0.08657 0.26819 0.0
C627 C 0.35285 0.07956 0.29836 0.0
C628 C 0.3051 -0.00725 0.25349 0.0
C629 C 0.3259 0.03984 0.26135 0.0
C630 C 0.29705 -0.02852 0.2329 0.0
C631 C 0.29909 -0.02505 0.19966 0.0
C632 C 0.31477 0.01771 0.24067 0.0
C633 C 0.30813 0.00049 0.18788 0.0
C634 C 0.32896 0.06679 0.24963 0.0
C635 C 0.34844 0.05263 0.30973 0.0
N636 N 0.31567 0.02085 0.20835 0.0
N637 N 0.3354 0.03369 0.29115 0.0
H638 H 0.04552 0.58111 0.63408 0.0
H639 H 0.00689 0.62951 0.80854 0.0
H640 H 0.10591 0.5927 0.70849 0.0
H641 H 0.95379 0.64567 0.72813 0.0
H642 H 0.0437 0.61697 0.77169 0.0
H643 H 0.01175 0.60557 0.66705 0.0
C644 C 0.05179 0.58905 0.65716 0.0
C645 C 0.07854 0.58455 0.66867 0.0
C646 C 0.02416 0.62363 0.76201 0.0
C647 C 0.03993 0.61231 0.70654 0.0
C648 C 0.00311 0.63074 0.78305 0.0
C649 C -0.02277 0.63846 0.77134 0.0
C650 C 0.01915 0.62362 0.72896 0.0
C651 C -0.02652 0.63986 0.73811 0.0
C652 C 0.03251 0.60309 0.67591 0.0
C653 C 0.08551 0.59548 0.69868 0.0
N654 N -0.0059 0.63202 0.71802 0.0
N655 N 0.06624 0.60849 0.71673 0.0
H656 H 0.1984 0.46497 0.57873 0.0
H657 H 0.19823 0.46991 0.38885 0.0
H658 H 0.17311 0.53776 0.52707 0.0
H659 H 0.17299 0.39719 0.44059 0.0
H660 H 0.2014 0.49504 0.43963 0.0
H661 H 0.20149 0.43982 0.52793 0.0
C662 C 0.19388 0.47576 0.55666 0.0
C663 C 0.18538 0.50344 0.557 0.0
C664 C 0.1954 0.47352 0.43977 0.0
C665 C 0.18922 0.47496 0.49915 0.0
C666 C 0.19373 0.45914 0.41093 0.0
C667 C 0.18523 0.43147 0.41062 0.0
C668 C 0.18917 0.45994 0.46846 0.0
C669 C 0.17947 0.41855 0.43986 0.0
C670 C 0.1955 0.46136 0.52782 0.0
C671 C 0.17959 0.51639 0.52778 0.0
N672 N 0.18166 0.43287 0.4677 0.0
N673 N 0.18172 0.50205 0.49993 0.0
H674 H 0.4931 0.7102 0.40836 0.0
H675 H 0.41758 0.79762 0.54238 0.0
H676 H 0.51046 0.79635 0.42488 0.0
H677 H 0.43644 0.71155 0.55756 0.0
H678 H 0.44467 0.79657 0.49317 0.0
H679 H 0.4661 0.7093 0.45807 0.0
C680 C 0.49133 0.72885 0.42252 0.0
C681 C 0.50403 0.75338 0.41259 0.0
C682 C 0.4428 0.77791 0.50726 0.0
C683 C 0.47286 0.7526 0.46867 0.0
C684 C 0.4272 0.77842 0.53519 0.0
C685 C 0.42486 0.75463 0.5541 0.0
C686 C 0.45571 0.75334 0.49781 0.0
C687 C 0.43787 0.73035 0.54369 0.0
C688 C 0.476 0.72829 0.45079 0.0
C689 C 0.50112 0.77697 0.43174 0.0
N690 N 0.45268 0.73026 0.51608 0.0
N691 N 0.48558 0.77608 0.45868 0.0
H692 H 0.73247 0.46585 0.39054 0.0
H693 H 0.73241 0.47029 0.58042 0.0
H694 H 0.75861 0.53815 0.44247 0.0
H695 H 0.75692 0.3974 0.52836 0.0
H696 H 0.7296 0.49563 0.52975 0.0
H697 H 0.729 0.44066 0.44123 0.0
C698 C 0.7371 0.47653 0.41265 0.0
C699 C 0.74595 0.50408 0.41241 0.0
C700 C 0.73535 0.47403 0.52952 0.0
C701 C 0.74167 0.47556 0.47015 0.0
C702 C 0.73681 0.45953 0.55829 0.0
C703 C 0.74501 0.43175 0.55848 0.0
C704 C 0.74148 0.46045 0.50078 0.0
C705 C 0.75067 0.41884 0.52919 0.0
C706 C 0.73526 0.46211 0.44143 0.0
C707 C 0.75186 0.51688 0.44169 0.0
N708 N 0.74869 0.43328 0.50142 0.0
N709 N 0.74951 0.50253 0.46948 0.0
H710 H 0.39462 0.17335 0.44229 0.0
H711 H 0.53661 0.17297 0.53064 0.0
H712 H 0.46804 0.19998 0.39343 0.0
H713 H 0.46303 0.19848 0.58014 0.0
H714 H 0.51197 0.1771 0.47964 0.0
H715 H 0.41919 0.17681 0.4934 0.0
C716 C 0.41583 0.18011 0.44239 0.0
C717 C 0.42935 0.18641 0.41371 0.0
C718 C 0.50138 0.18205 0.5017 0.0
C719 C 0.45757 0.18978 0.47166 0.0
C720 C 0.51535 0.17961 0.53071 0.0
C721 C 0.5018 0.18542 0.55953 0.0
C722 C 0.47352 0.18956 0.50169 0.0
C723 C 0.47424 0.19395 0.55839 0.0
C724 C 0.42976 0.18215 0.47147 0.0
C725 C 0.45685 0.19507 0.41507 0.0
N726 N 0.46083 0.19536 0.52993 0.0
N727 N 0.47023 0.19609 0.44356 0.0
H728 H 0.63638 0.01423 0.04258 0.0
H729 H 0.72241 0.93692 0.90882 0.0
H730 H 0.72188 -0.00556 0.05777 0.0
H731 H 0.63653 0.92031 0.92583 0.0
H732 H 0.72368 0.96429 0.95833 0.0
H733 H 0.63708 -0.01319 -0.00645 0.0
C734 C 0.65538 0.00433 0.03543 0.0
C735 C 0.67911 0.00652 0.05429 0.0
C736 C 0.70466 0.95448 0.95119 0.0
C737 C 0.68002 -0.02472 -0.00181 0.0
C738 C 0.7039 0.93894 0.92304 0.0
C739 C 0.67933 0.92633 0.9133 0.0
C740 C 0.68054 0.95792 0.96915 0.0
C741 C 0.65592 0.92956 0.93254 0.0
C742 C 0.65569 -0.01145 0.0076 0.0
C743 C 0.70313 -0.00685 0.04393 0.0
N744 N 0.65702 0.9453 0.95936 0.0
N745 N 0.70304 -0.02185 0.01641 0.0
H746 H -0.00731 0.20975 0.90799 0.0
H747 H 0.91924 0.29764 0.04315 0.0
H748 H 0.01031 0.2959 0.92416 0.0
H749 H 0.93792 0.21154 0.0584 0.0
H750 H 0.94562 0.2963 -0.00651 0.0
H751 H -0.03364 0.2089 0.95822 0.0
C752 C -0.00889 0.2284 0.92216 0.0
C753 C 0.00369 0.25293 0.91198 0.0
C754 C 0.94388 0.2777 0.00769 0.0
C755 C -0.02669 0.2522 0.96865 0.0
C756 C 0.92868 0.27837 0.0359 0.0
C757 C 0.92649 0.25466 0.05495 0.0
C758 C 0.95655 0.25304 -0.0019 0.0
C759 C 0.93925 0.23029 0.04443 0.0
C760 C -0.02383 0.22787 0.95072 0.0
C761 C 0.00105 0.27653 0.93118 0.0
N762 N 0.95369 0.23004 0.01653 0.0
N763 N -0.0141 0.27565 0.95841 0.0
H764 H 0.25818 0.03981 0.94294 0.0
H765 H 0.2576 0.89652 0.02975 0.0
H766 H 0.23122 0.96658 0.89341 0.0
H767 H 0.23327 -0.02973 0.08023 0.0
H768 H 0.25341 0.92169 0.97905 0.0
H769 H 0.25451 0.01482 -0.00618 0.0
C770 C 0.25129 0.01856 0.94284 0.0
C771 C 0.24498 0.00521 0.91403 0.0
C772 C 0.24872 0.9322 0.00125 0.0
C773 C 0.24136 -0.02349 0.97173 0.0
C774 C 0.25119 0.91793 0.0301 0.0
C775 C 0.24575 0.93137 0.05911 0.0
C776 C 0.24153 0.96026 0.00159 0.0
C777 C 0.23751 0.95914 0.05833 0.0
C778 C 0.24913 0.00439 0.97179 0.0
C779 C 0.23615 -0.02235 0.91514 0.0
N780 N 0.23606 -0.02717 0.03002 0.0
N781 N 0.23501 0.96404 0.94352 0.0
H782 H 0.91943 0.63726 0.92649 0.0
H783 H -0.00698 0.72565 0.06096 0.0
H784 H 0.93834 0.72318 0.91066 0.0
H785 H 0.01034 0.63928 0.04559 0.0
H786 H -0.03339 0.72629 0.01081 0.0
H787 H 0.94566 0.63875 0.97624 0.0
C788 C 0.92889 0.65652 0.93363 0.0
C789 C 0.92681 0.68013 0.91439 0.0
C790 C -0.02364 0.70731 0.01846 0.0
C791 C 0.95669 0.68194 0.97132 0.0
C792 C -0.00865 0.7069 0.04698 0.0
C793 C 0.00388 0.68238 0.05736 0.0
C794 C -0.02659 0.68287 0.00078 0.0
C795 C 0.00112 0.65865 0.03841 0.0
C796 C 0.94399 0.65728 0.96189 0.0
C797 C 0.93959 0.7045 0.92478 0.0
N798 N -0.01406 0.65942 0.01122 0.0
N799 N 0.95394 0.70484 0.95271 0.0
loop_
_geom_bond_atom_site_label_1
_geom_bond_atom_site_label_2
_geom_bond_distance
_geom_bond_site_symmetry_2
_ccdc_geom_bond_type
C0 O1 1.306 . S
C0 O3 1.160 . S
O1 C0 1.306 . S
O1 Cd2 2.228 . S
Cd2 O1 2.228 . S
Cd2 O6 2.273 . S
Cd2 O10 2.277 . S
O3 C0 1.160 . S
O3 Cd4 2.203 . S
Cd4 O3 2.203 . S
Cd4 O6 2.411 . S
Cd4 O7 2.333 . S
Cd4 O8 2.352 . S
Cd4 O12 2.277 . S
Cd4 O13 2.356 . S
C5 O10 1.209 . S
C5 O12 1.226 . S
O6 Cd2 2.273 . S
O6 Cd4 2.411 . S
O6 C9 1.320 . S
O7 Cd4 2.333 . S
O7 C9 1.214 . S
O8 Cd4 2.352 . S
O8 C11 1.258 . S
C9 O6 1.320 . S
C9 O7 1.214 . S
O10 Cd2 2.277 . S
O10 C5 1.209 . S
C11 O8 1.258 . S
C11 O13 1.282 . S
O12 Cd4 2.277 . S
O12 C5 1.226 . S
O13 Cd4 2.356 . S
O13 C11 1.282 . S
C14 O15 1.306 . S
C14 O17 1.160 . S
O15 C14 1.306 . S
O15 Cd16 2.228 . S
Cd16 O15 2.228 . S
Cd16 O20 2.273 . S
Cd16 O24 2.277 . S
O17 C14 1.160 . S
O17 Cd18 2.203 . S
Cd18 O17 2.203 . S
Cd18 O20 2.411 . S
Cd18 O21 2.333 . S
Cd18 O22 2.352 . S
Cd18 O26 2.277 . S
Cd18 O27 2.356 . S
C19 O24 1.209 . S
C19 O26 1.226 . S
O20 Cd16 2.273 . S
O20 Cd18 2.411 . S
O20 C23 1.320 . S
O21 Cd18 2.333 . S
O21 C23 1.214 . S
O22 Cd18 2.352 . S
O22 C25 1.258 . S
C23 O20 1.320 . S
C23 O21 1.214 . S
O24 Cd16 2.277 . S
O24 C19 1.209 . S
C25 O22 1.258 . S
C25 O27 1.282 . S
O26 Cd18 2.277 . S
O26 C19 1.226 . S
O27 Cd18 2.356 . S
O27 C25 1.282 . S
C28 O29 1.306 . S
C28 O31 1.160 . S
O29 C28 1.306 . S
O29 Cd30 2.228 . S
Cd30 O29 2.228 . S
Cd30 O34 2.273 . S
Cd30 O38 2.277 . S
O31 C28 1.160 . S
O31 Cd32 2.203 . S
Cd32 O31 2.203 . S
Cd32 O34 2.411 . S
Cd32 O35 2.333 . S
Cd32 O36 2.352 . S
Cd32 O40 2.277 . S
Cd32 O41 2.356 . S
C33 O38 1.209 . S
C33 O40 1.226 . S
O34 Cd30 2.273 . S
O34 Cd32 2.411 . S
O34 C37 1.320 . S
O35 Cd32 2.333 . S
O35 C37 1.214 . S
O36 Cd32 2.352 . S
O36 C39 1.258 . S
C37 O34 1.320 . S
C37 O35 1.214 . S
O38 Cd30 2.277 . S
O38 C33 1.209 . S
C39 O36 1.258 . S
C39 O41 1.282 . S
O40 Cd32 2.277 . S
O40 C33 1.226 . S
O41 Cd32 2.356 . S
O41 C39 1.282 . S
C42 O43 1.306 . S
C42 O45 1.160 . S
O43 C42 1.306 . S
O43 Cd44 2.228 . S
Cd44 O43 2.228 . S
Cd44 O48 2.273 . S
Cd44 O52 2.277 . S
O45 C42 1.160 . S
O45 Cd46 2.203 . S
Cd46 O45 2.203 . S
Cd46 O48 2.411 . S
Cd46 O49 2.333 . S
Cd46 O50 2.352 . S
Cd46 O54 2.277 . S
Cd46 O55 2.356 . S
C47 O52 1.209 . S
C47 O54 1.226 . S
O48 Cd44 2.273 . S
O48 Cd46 2.411 . S
O48 C51 1.320 . S
O49 Cd46 2.333 . S
O49 C51 1.214 . S
O50 Cd46 2.352 . S
O50 C53 1.258 . S
C51 O48 1.320 . S
C51 O49 1.214 . S
O52 Cd44 2.277 . S
O52 C47 1.209 . S
C53 O50 1.258 . S
C53 O55 1.282 . S
O54 Cd46 2.277 . S
O54 C47 1.226 . S
O55 Cd46 2.356 . S
O55 C53 1.282 . S
C56 O57 1.306 . S
C56 O59 1.160 . S
O57 C56 1.306 . S
O57 Cd58 2.228 . S
Cd58 O57 2.228 . S
Cd58 O62 2.273 . S
Cd58 O66 2.277 . S
O59 C56 1.160 . S
O59 Cd60 2.203 . S
Cd60 O59 2.203 . S
Cd60 O62 2.411 . S
Cd60 O63 2.333 . S
Cd60 O64 2.352 . S
Cd60 O68 2.277 . S
Cd60 O69 2.356 . S
C61 O66 1.209 . S
C61 O68 1.226 . S
O62 Cd58 2.273 . S
O62 Cd60 2.411 . S
O62 C65 1.320 . S
O63 Cd60 2.333 . S
O63 C65 1.214 . S
O64 Cd60 2.352 . S
O64 C67 1.258 . S
C65 O62 1.320 . S
C65 O63 1.214 . S
O66 Cd58 2.277 . S
O66 C61 1.209 . S
C67 O64 1.258 . S
C67 O69 1.282 . S
O68 Cd60 2.277 . S
O68 C61 1.226 . S
O69 Cd60 2.356 . S
O69 C67 1.282 . S
C70 O71 1.306 . S
C70 O73 1.160 . S
O71 C70 1.306 . S
O71 Cd72 2.228 . S
Cd72 O71 2.228 . S
Cd72 O76 2.273 . S
Cd72 O80 2.277 . S
O73 C70 1.160 . S
O73 Cd74 2.203 . S
Cd74 O73 2.203 . S
Cd74 O76 2.411 . S
Cd74 O77 2.333 . S
Cd74 O78 2.352 . S
Cd74 O82 2.277 . S
Cd74 O83 2.356 . S
C75 O80 1.209 . S
C75 O82 1.226 . S
O76 Cd72 2.273 . S
O76 Cd74 2.411 . S
O76 C79 1.320 . S
O77 Cd74 2.333 . S
O77 C79 1.214 . S
O78 Cd74 2.352 . S
O78 C81 1.258 . S
C79 O76 1.320 . S
C79 O77 1.214 . S
O80 Cd72 2.277 . S
O80 C75 1.209 . S
C81 O78 1.258 . S
C81 O83 1.282 . S
O82 Cd74 2.277 . S
O82 C75 1.226 . S
O83 Cd74 2.356 . S
O83 C81 1.282 . S
C84 O85 1.306 . S
C84 O87 1.160 . S
O85 C84 1.306 . S
O85 Cd86 2.228 . S
Cd86 O85 2.228 . S
Cd86 O90 2.273 . S
Cd86 O94 2.277 . S
O87 C84 1.160 . S
O87 Cd88 2.203 . S
Cd88 O87 2.203 . S
Cd88 O90 2.411 . S
Cd88 O91 2.333 . S
Cd88 O92 2.352 . S
Cd88 O96 2.277 . S
Cd88 O97 2.356 . S
C89 O94 1.209 . S
C89 O96 1.226 . S
O90 Cd86 2.273 . S
O90 Cd88 2.411 . S
O90 C93 1.320 . S
O91 Cd88 2.333 . S
O91 C93 1.214 . S
O92 Cd88 2.352 . S
O92 C95 1.258 . S
C93 O90 1.320 . S
C93 O91 1.214 . S
O94 Cd86 2.277 . S
O94 C89 1.209 . S
C95 O92 1.258 . S
C95 O97 1.282 . S
O96 Cd88 2.277 . S
O96 C89 1.226 . S
O97 Cd88 2.356 . S
O97 C95 1.282 . S
C98 O99 1.306 . S
C98 O101 1.160 . S
O99 C98 1.306 . S
O99 Cd100 2.228 . S
Cd100 O99 2.228 . S
Cd100 O104 2.273 . S
Cd100 O108 2.277 . S
O101 C98 1.160 . S
O101 Cd102 2.203 . S
Cd102 O101 2.203 . S
Cd102 O104 2.411 . S
Cd102 O105 2.333 . S
Cd102 O106 2.352 . S
Cd102 O110 2.277 . S
Cd102 O111 2.356 . S
C103 O108 1.209 . S
C103 O110 1.226 . S
O104 Cd100 2.273 . S
O104 Cd102 2.411 . S
O104 C107 1.320 . S
O105 Cd102 2.333 . S
O105 C107 1.214 . S
O106 Cd102 2.352 . S
O106 C109 1.258 . S
C107 O104 1.320 . S
C107 O105 1.214 . S
O108 Cd100 2.277 . S
O108 C103 1.209 . S
C109 O106 1.258 . S
C109 O111 1.282 . S
O110 Cd102 2.277 . S
O110 C103 1.226 . S
O111 Cd102 2.356 . S
O111 C109 1.282 . S
C112 O113 1.306 . S
C112 O115 1.160 . S
O113 C112 1.306 . S
O113 Cd114 2.228 . S
Cd114 O113 2.228 . S
Cd114 O118 2.273 . S
Cd114 O122 2.277 . S
O115 C112 1.160 . S
O115 Cd116 2.203 . S
Cd116 O115 2.203 . S
Cd116 O118 2.411 . S
Cd116 O119 2.333 . S
Cd116 O120 2.352 . S
Cd116 O124 2.277 . S
Cd116 O125 2.356 . S
C117 O122 1.211 . S
C117 O124 1.229 . S
O118 Cd114 2.273 . S
O118 Cd116 2.411 . S
O118 C121 1.320 . S
O119 Cd116 2.333 . S
O119 C121 1.214 . S
O120 Cd116 2.352 . S
O120 C123 1.258 . S
C121 O118 1.320 . S
C121 O119 1.214 . S
O122 Cd114 2.277 . S
O122 C117 1.211 . S
C123 O120 1.258 . S
C123 O125 1.282 . S
O124 Cd116 2.277 . S
O124 C117 1.229 . S
O125 Cd116 2.356 . S
O125 C123 1.282 . S
C126 O127 1.306 . S
C126 O129 1.160 . S
O127 C126 1.306 . S
O127 Cd128 2.228 . S
Cd128 O127 2.228 . S
Cd128 O132 2.273 . S
Cd128 O136 2.277 . S
O129 C126 1.160 . S
O129 Cd130 2.203 . S
Cd130 O129 2.203 . S
Cd130 O132 2.411 . S
Cd130 O133 2.333 . S
Cd130 O134 2.352 . S
Cd130 O138 2.277 . S
Cd130 O139 2.356 . S
C131 O136 1.211 . S
C131 O138 1.229 . S
O132 Cd128 2.273 . S
O132 Cd130 2.411 . S
O132 C135 1.320 . S
O133 Cd130 2.333 . S
O133 C135 1.214 . S
O134 Cd130 2.352 . S
O134 C137 1.258 . S
C135 O132 1.320 . S
C135 O133 1.214 . S
O136 Cd128 2.277 . S
O136 C131 1.211 . S
C137 O134 1.258 . S
C137 O139 1.282 . S
O138 Cd130 2.277 . S
O138 C131 1.229 . S
O139 Cd130 2.356 . S
O139 C137 1.282 . S
C140 O141 1.306 . S
C140 O143 1.160 . S
O141 C140 1.306 . S
O141 Cd142 2.228 . S
Cd142 O141 2.228 . S
Cd142 O146 2.273 . S
Cd142 O150 2.277 . S
O143 C140 1.160 . S
O143 Cd144 2.203 . S
Cd144 O143 2.203 . S
Cd144 O146 2.411 . S
Cd144 O147 2.333 . S
Cd144 O148 2.352 . S
Cd144 O152 2.277 . S
Cd144 O153 2.356 . S
C145 O150 1.211 . S
C145 O152 1.229 . S
O146 Cd142 2.273 . S
O146 Cd144 2.411 . S
O146 C149 1.320 . S
O147 Cd144 2.333 . S
O147 C149 1.214 . S
O148 Cd144 2.352 . S
O148 C151 1.258 . S
C149 O146 1.320 . S
C149 O147 1.214 . S
O150 Cd142 2.277 . S
O150 C145 1.211 . S
C151 O148 1.258 . S
C151 O153 1.282 . S
O152 Cd144 2.277 . S
O152 C145 1.229 . S
O153 Cd144 2.356 . S
O153 C151 1.282 . S
C154 O155 1.306 . S
C154 O157 1.160 . S
O155 C154 1.306 . S
O155 Cd156 2.228 . S
Cd156 O155 2.228 . S
Cd156 O160 2.273 . S
Cd156 O164 2.277 . S
O157 C154 1.160 . S
O157 Cd158 2.203 . S
Cd158 O157 2.203 . S
Cd158 O160 2.411 . S
Cd158 O161 2.333 . S
Cd158 O162 2.352 . S
Cd158 O166 2.277 . S
Cd158 O167 2.356 . S
C159 O164 1.211 . S
C159 O166 1.229 . S
O160 Cd156 2.273 . S
O160 Cd158 2.411 . S
O160 C163 1.320 . S
O161 Cd158 2.333 . S
O161 C163 1.214 . S
O162 Cd158 2.352 . S
O162 C165 1.258 . S
C163 O160 1.320 . S
C163 O161 1.214 . S
O164 Cd156 2.277 . S
O164 C159 1.211 . S
C165 O162 1.258 . S
C165 O167 1.282 . S
O166 Cd158 2.277 . S
O166 C159 1.229 . S
O167 Cd158 2.356 . S
O167 C165 1.282 . S
C168 O169 1.306 . S
C168 O171 1.160 . S
O169 C168 1.306 . S
O169 Cd170 2.228 . S
Cd170 O169 2.228 . S
Cd170 O174 2.273 . S
Cd170 O178 2.277 . S
O171 C168 1.160 . S
O171 Cd172 2.203 . S
Cd172 O171 2.203 . S
Cd172 O174 2.411 . S
Cd172 O175 2.333 . S
Cd172 O176 2.352 . S
Cd172 O180 2.277 . S
Cd172 O181 2.356 . S
C173 O178 1.211 . S
C173 O180 1.229 . S
O174 Cd170 2.273 . S
O174 Cd172 2.411 . S
O174 C177 1.320 . S
O175 Cd172 2.333 . S
O175 C177 1.214 . S
O176 Cd172 2.352 . S
O176 C179 1.258 . S
C177 O174 1.320 . S
C177 O175 1.214 . S
O178 Cd170 2.277 . S
O178 C173 1.211 . S
C179 O176 1.258 . S
C179 O181 1.282 . S
O180 Cd172 2.277 . S
O180 C173 1.229 . S
O181 Cd172 2.356 . S
O181 C179 1.282 . S
C182 O183 1.306 . S
C182 O185 1.160 . S
O183 C182 1.306 . S
O183 Cd184 2.228 . S
Cd184 O183 2.228 . S
Cd184 O188 2.273 . S
Cd184 O192 2.277 . S
O185 C182 1.160 . S
O185 Cd186 2.203 . S
Cd186 O185 2.203 . S
Cd186 O188 2.411 . S
Cd186 O189 2.333 . S
Cd186 O190 2.352 . S
Cd186 O194 2.277 . S
Cd186 O195 2.356 . S
C187 O192 1.211 . S
C187 O194 1.229 . S
O188 Cd184 2.273 . S
O188 Cd186 2.411 . S
O188 C191 1.320 . S
O189 Cd186 2.333 . S
O189 C191 1.214 . S
O190 Cd186 2.352 . S
O190 C193 1.258 . S
C191 O188 1.320 . S
C191 O189 1.214 . S
O192 Cd184 2.277 . S
O192 C187 1.211 . S
C193 O190 1.258 . S
C193 O195 1.282 . S
O194 Cd186 2.277 . S
O194 C187 1.229 . S
O195 Cd186 2.356 . S
O195 C193 1.282 . S
C196 O197 1.306 . S
C196 O199 1.160 . S
O197 C196 1.306 . S
O197 Cd198 2.228 . S
Cd198 O197 2.228 . S
Cd198 O202 2.273 . S
Cd198 O206 2.277 . S
O199 C196 1.160 . S
O199 Cd200 2.203 . S
Cd200 O199 2.203 . S
Cd200 O202 2.411 . S
Cd200 O203 2.333 . S
Cd200 O204 2.352 . S
Cd200 O208 2.277 . S
Cd200 O209 2.356 . S
C201 O206 1.211 . S
C201 O208 1.229 . S
O202 Cd198 2.273 . S
O202 Cd200 2.411 . S
O202 C205 1.320 . S
O203 Cd200 2.333 . S
O203 C205 1.214 . S
O204 Cd200 2.352 . S
O204 C207 1.258 . S
C205 O202 1.320 . S
C205 O203 1.214 . S
O206 Cd198 2.277 . S
O206 C201 1.211 . S
C207 O204 1.258 . S
C207 O209 1.282 . S
O208 Cd200 2.277 . S
O208 C201 1.229 . S
O209 Cd200 2.356 . S
O209 C207 1.282 . S
C210 O211 1.306 . S
C210 O213 1.160 . S
O211 C210 1.306 . S
O211 Cd212 2.228 . S
Cd212 O211 2.228 . S
Cd212 O216 2.273 . S
Cd212 O220 2.277 . S
O213 C210 1.160 . S
O213 Cd214 2.203 . S
Cd214 O213 2.203 . S
Cd214 O216 2.411 . S
Cd214 O217 2.333 . S
Cd214 O218 2.352 . S
Cd214 O222 2.277 . S
Cd214 O223 2.356 . S
C215 O220 1.211 . S
C215 O222 1.229 . S
O216 Cd212 2.273 . S
O216 Cd214 2.411 . S
O216 C219 1.320 . S
O217 Cd214 2.333 . S
O217 C219 1.214 . S
O218 Cd214 2.352 . S
O218 C221 1.258 . S
C219 O216 1.320 . S
C219 O217 1.214 . S
O220 Cd212 2.277 . S
O220 C215 1.211 . S
C221 O218 1.258 . S
C221 O223 1.282 . S
O222 Cd214 2.277 . S
O222 C215 1.229 . S
O223 Cd214 2.356 . S
O223 C221 1.282 . S
H224 C230 0.930 . S
H225 C234 0.930 . S
H226 C239 0.929 . S
H227 C237 0.929 . S
H228 C232 0.929 . S
H229 C238 0.929 . S
C230 H224 0.930 . S
C230 C231 1.367 . S
C230 C238 1.378 . S
C231 C230 1.367 . S
C231 C239 1.433 . S
C232 H228 0.929 . S
C232 C234 1.378 . S
C232 C236 1.350 . S
C233 C236 1.463 . S
C233 C238 1.350 . S
C233 N241 1.427 . S
C234 H225 0.930 . S
C234 C232 1.378 . S
C234 C235 1.367 . S
C235 C234 1.367 . S
C235 C237 1.433 . S
C236 C232 1.350 . S
C236 C233 1.463 . S
C236 N240 1.427 . S
C237 H227 0.929 . S
C237 C235 1.433 . S
C237 N240 1.384 . S
C238 H229 0.929 . S
C238 C230 1.378 . S
C238 C233 1.350 . S
C239 H226 0.929 . S
C239 C231 1.433 . S
C239 N241 1.384 . S
N240 C236 1.427 . S
N240 C237 1.384 . S
N241 C233 1.427 . S
N241 C239 1.384 . S
H242 C248 0.930 . S
H243 C252 0.930 . S
H244 C257 0.929 . S
H245 C255 0.929 . S
H246 C250 0.929 . S
H247 C256 0.929 . S
C248 H242 0.930 . S
C248 C249 1.367 . S
C248 C256 1.378 . S
C249 C248 1.367 . S
C249 C257 1.433 . S
C250 H246 0.929 . S
C250 C252 1.378 . S
C250 C254 1.350 . S
C251 C254 1.463 . S
C251 C256 1.350 . S
C251 N259 1.427 . S
C252 H243 0.930 . S
C252 C250 1.378 . S
C252 C253 1.367 . S
C253 C252 1.367 . S
C253 C255 1.433 . S
C254 C250 1.350 . S
C254 C251 1.463 . S
C254 N258 1.427 . S
C255 H245 0.929 . S
C255 C253 1.433 . S
C255 N258 1.384 . S
C256 H247 0.929 . S
C256 C248 1.378 . S
C256 C251 1.350 . S
C257 H244 0.929 . S
C257 C249 1.433 . S
C257 N259 1.384 . S
N258 C254 1.427 . S
N258 C255 1.384 . S
N259 C251 1.427 . S
N259 C257 1.384 . S
H260 C266 0.930 . S
H261 C270 0.930 . S
H262 C275 0.929 . S
H263 C273 0.929 . S
H264 C268 0.929 . S
H265 C274 0.929 . S
C266 H260 0.930 . S
C266 C267 1.367 . S
C266 C274 1.378 . S
C267 C266 1.367 . S
C267 C275 1.433 . S
C268 H264 0.929 . S
C268 C270 1.378 . S
C268 C272 1.350 . S
C269 C272 1.463 . S
C269 C274 1.350 . S
C269 N277 1.427 . S
C270 H261 0.930 . S
C270 C268 1.378 . S
C270 C271 1.367 . S
C271 C270 1.367 . S
C271 C273 1.433 . S
C272 C268 1.350 . S
C272 C269 1.463 . S
C272 N276 1.427 . S
C273 H263 0.929 . S
C273 C271 1.433 . S
C273 N276 1.384 . S
C274 H265 0.929 . S
C274 C266 1.378 . S
C274 C269 1.350 . S
C275 H262 0.929 . S
C275 C267 1.433 . S
C275 N277 1.384 . S
N276 C272 1.427 . S
N276 C273 1.384 . S
N277 C269 1.427 . S
N277 C275 1.384 . S
H278 C284 0.930 . S
H279 C288 0.930 . S
H280 C293 0.929 . S
H281 C291 0.929 . S
H282 C286 0.929 . S
H283 C292 0.929 . S
C284 H278 0.930 . S
C284 C285 1.367 . S
C284 C292 1.378 . S
C285 C284 1.367 . S
C285 C293 1.433 . S
C286 H282 0.929 . S
C286 C288 1.378 . S
C286 C290 1.350 . S
C287 C290 1.463 . S
C287 C292 1.350 . S
C287 N295 1.427 . S
C288 H279 0.930 . S
C288 C286 1.378 . S
C288 C289 1.367 . S
C289 C288 1.367 . S
C289 C291 1.433 . S
C290 C286 1.350 . S
C290 C287 1.463 . S
C290 N294 1.427 . S
C291 H281 0.929 . S
C291 C289 1.433 . S
C291 N294 1.384 . S
C292 H283 0.929 . S
C292 C284 1.378 . S
C292 C287 1.350 . S
C293 H280 0.929 . S
C293 C285 1.433 . S
C293 N295 1.384 . S
N294 C290 1.427 . S
N294 C291 1.384 . S
N295 C287 1.427 . S
N295 C293 1.384 . S
H296 C302 0.930 . S
H297 C306 0.930 . S
H298 C311 0.929 . S
H299 C309 0.929 . S
H300 C304 0.929 . S
H301 C310 0.929 . S
C302 H296 0.930 . S
C302 C303 1.367 . S
C302 C310 1.378 . S
C303 C302 1.367 . S
C303 C311 1.433 . S
C304 H300 0.929 . S
C304 C306 1.378 . S
C304 C308 1.350 . S
C305 C308 1.463 . S
C305 C310 1.350 . S
C305 N313 1.427 . S
C306 H297 0.930 . S
C306 C304 1.378 . S
C306 C307 1.367 . S
C307 C306 1.367 . S
C307 C309 1.433 . S
C308 C304 1.350 . S
C308 C305 1.463 . S
C308 N312 1.427 . S
C309 H299 0.929 . S
C309 C307 1.433 . S
C309 N312 1.384 . S
C310 H301 0.929 . S
C310 C302 1.378 . S
C310 C305 1.350 . S
C311 H298 0.929 . S
C311 C303 1.433 . S
C311 N313 1.384 . S
N312 C308 1.427 . S
N312 C309 1.384 . S
N313 C305 1.427 . S
N313 C311 1.384 . S
H314 C320 0.930 . S
H315 C324 0.930 . S
H316 C329 0.929 . S
H317 C327 0.929 . S
H318 C322 0.929 . S
H319 C328 0.929 . S
C320 H314 0.930 . S
C320 C321 1.367 . S
C320 C328 1.378 . S
C321 C320 1.367 . S
C321 C329 1.433 . S
C322 H318 0.929 . S
C322 C324 1.378 . S
C322 C326 1.350 . S
C323 C326 1.463 . S
C323 C328 1.350 . S
C323 N331 1.427 . S
C324 H315 0.930 . S
C324 C322 1.378 . S
C324 C325 1.367 . S
C325 C324 1.367 . S
C325 C327 1.433 . S
C326 C322 1.350 . S
C326 C323 1.463 . S
C326 N330 1.427 . S
C327 H317 0.929 . S
C327 C325 1.433 . S
C327 N330 1.384 . S
C328 H319 0.929 . S
C328 C320 1.378 . S
C328 C323 1.350 . S
C329 H316 0.929 . S
C329 C321 1.433 . S
C329 N331 1.384 . S
N330 C326 1.427 . S
N330 C327 1.384 . S
N331 C323 1.427 . S
N331 C329 1.384 . S
H332 C338 0.930 . S
H333 C342 0.930 . S
H334 C347 0.929 . S
H335 C345 0.929 . S
H336 C340 0.929 . S
H337 C346 0.929 . S
C338 H332 0.930 . S
C338 C339 1.367 . S
C338 C346 1.378 . S
C339 C338 1.367 . S
C339 C347 1.433 . S
C340 H336 0.929 . S
C340 C342 1.378 . S
C340 C344 1.350 . S
C341 C344 1.463 . S
C341 C346 1.350 . S
C341 N349 1.427 . S
C342 H333 0.930 . S
C342 C340 1.378 . S
C342 C343 1.367 . S
C343 C342 1.367 . S
C343 C345 1.433 . S
C344 C340 1.350 . S
C344 C341 1.463 . S
C344 N348 1.427 . S
C345 H335 0.929 . S
C345 C343 1.433 . S
C345 N348 1.384 . S
C346 H337 0.929 . S
C346 C338 1.378 . S
C346 C341 1.350 . S
C347 H334 0.929 . S
C347 C339 1.433 . S
C347 N349 1.384 . S
N348 C344 1.427 . S
N348 C345 1.384 . S
N349 C341 1.427 . S
N349 C347 1.384 . S
H350 C356 0.930 . S
H351 C360 0.930 . S
H352 C365 0.929 . S
H353 C363 0.929 . S
H354 C358 0.929 . S
H355 C364 0.929 . S
C356 H350 0.930 . S
C356 C357 1.367 . S
C356 C364 1.378 . S
C357 C356 1.367 . S
C357 C365 1.433 . S
C358 H354 0.929 . S
C358 C360 1.378 . S
C358 C362 1.350 . S
C359 C362 1.463 . S
C359 C364 1.350 . S
C359 N367 1.427 . S
C360 H351 0.930 . S
C360 C358 1.378 . S
C360 C361 1.367 . S
C361 C360 1.367 . S
C361 C363 1.433 . S
C362 C358 1.350 . S
C362 C359 1.463 . S
C362 N366 1.427 . S
C363 H353 0.929 . S
C363 C361 1.433 . S
C363 N366 1.384 . S
C364 H355 0.929 . S
C364 C356 1.378 . S
C364 C359 1.350 . S
C365 H352 0.929 . S
C365 C357 1.433 . S
C365 N367 1.384 . S
N366 C362 1.427 . S
N366 C363 1.384 . S
N367 C359 1.427 . S
N367 C365 1.384 . S
H368 C374 0.930 . S
H369 C378 0.930 . S
H370 C383 0.929 . S
H371 C381 0.929 . S
H372 C376 0.929 . S
H373 C382 0.929 . S
C374 H368 0.930 . S
C374 C375 1.367 . S
C374 C382 1.378 . S
C375 C374 1.367 . S
C375 C383 1.433 . S
C376 H372 0.929 . S
C376 C378 1.378 . S
C376 C380 1.350 . S
C377 C380 1.463 . S
C377 C382 1.350 . S
C377 N385 1.427 . S
C378 H369 0.930 . S
C378 C376 1.378 . S
C378 C379 1.367 . S
C379 C378 1.367 . S
C379 C381 1.433 . S
C380 C376 1.350 . S
C380 C377 1.463 . S
C380 N384 1.427 . S
C381 H371 0.929 . S
C381 C379 1.433 . S
C381 N384 1.384 . S
C382 H373 0.929 . S
C382 C374 1.378 . S
C382 C377 1.350 . S
C383 H370 0.929 . S
C383 C375 1.433 . S
C383 N385 1.384 . S
N384 C380 1.427 . S
N384 C381 1.384 . S
N385 C377 1.427 . S
N385 C383 1.384 . S
H386 C392 0.930 . S
H387 C396 0.930 . S
H388 C401 0.929 . S
H389 C399 0.929 . S
H390 C394 0.929 . S
H391 C400 0.929 . S
C392 H386 0.930 . S
C392 C393 1.367 . S
C392 C400 1.378 . S
C393 C392 1.367 . S
C393 C401 1.433 . S
C394 H390 0.929 . S
C394 C396 1.378 . S
C394 C398 1.350 . S
C395 C398 1.463 . S
C395 C400 1.350 . S
C395 N403 1.427 . S
C396 H387 0.930 . S
C396 C394 1.378 . S
C396 C397 1.367 . S
C397 C396 1.367 . S
C397 C399 1.433 . S
C398 C394 1.350 . S
C398 C395 1.463 . S
C398 N402 1.427 . S
C399 H389 0.929 . S
C399 C397 1.433 . S
C399 N402 1.384 . S
C400 H391 0.929 . S
C400 C392 1.378 . S
C400 C395 1.350 . S
C401 H388 0.929 . S
C401 C393 1.433 . S
C401 N403 1.384 . S
N402 C398 1.427 . S
N402 C399 1.384 . S
N403 C395 1.427 . S
N403 C401 1.384 . S
H404 C410 0.930 . S
H405 C414 0.930 . S
H406 C419 0.929 . S
H407 C417 0.929 . S
H408 C412 0.929 . S
H409 C418 0.929 . S
C410 H404 0.930 . S
C410 C411 1.367 . S
C410 C418 1.378 . S
C411 C410 1.367 . S
C411 C419 1.433 . S
C412 H408 0.929 . S
C412 C414 1.378 . S
C412 C416 1.350 . S
C413 C416 1.463 . S
C413 C418 1.350 . S
C413 N421 1.427 . S
C414 H405 0.930 . S
C414 C412 1.378 . S
C414 C415 1.367 . S
C415 C414 1.367 . S
C415 C417 1.433 . S
C416 C412 1.350 . S
C416 C413 1.463 . S
C416 N420 1.427 . S
C417 H407 0.929 . S
C417 C415 1.433 . S
C417 N420 1.384 . S
C418 H409 0.929 . S
C418 C410 1.378 . S
C418 C413 1.350 . S
C419 H406 0.929 . S
C419 C411 1.433 . S
C419 N421 1.384 . S
N420 C416 1.427 . S
N420 C417 1.384 . S
N421 C413 1.427 . S
N421 C419 1.384 . S
H422 C428 0.930 . S
H423 C432 0.930 . S
H424 C437 0.929 . S
H425 C435 0.929 . S
H426 C430 0.929 . S
H427 C436 0.929 . S
C428 H422 0.930 . S
C428 C429 1.367 . S
C428 C436 1.378 . S
C429 C428 1.367 . S
C429 C437 1.433 . S
C430 H426 0.929 . S
C430 C432 1.378 . S
C430 C434 1.350 . S
C431 C434 1.463 . S
C431 C436 1.350 . S
C431 N439 1.427 . S
C432 H423 0.930 . S
C432 C430 1.378 . S
C432 C433 1.367 . S
C433 C432 1.367 . S
C433 C435 1.433 . S
C434 C430 1.350 . S
C434 C431 1.463 . S
C434 N438 1.427 . S
C435 H425 0.929 . S
C435 C433 1.433 . S
C435 N438 1.384 . S
C436 H427 0.929 . S
C436 C428 1.378 . S
C436 C431 1.350 . S
C437 H424 0.929 . S
C437 C429 1.433 . S
C437 N439 1.384 . S
N438 C434 1.427 . S
N438 C435 1.384 . S
N439 C431 1.427 . S
N439 C437 1.384 . S
H440 C446 0.930 . S
H441 C450 0.930 . S
H442 C455 0.929 . S
H443 C453 0.929 . S
H444 C448 0.929 . S
H445 C454 0.929 . S
C446 H440 0.930 . S
C446 C447 1.367 . S
C446 C454 1.378 . S
C447 C446 1.367 . S
C447 C455 1.433 . S
C448 H444 0.929 . S
C448 C450 1.378 . S
C448 C452 1.350 . S
C449 C452 1.463 . S
C449 C454 1.350 . S
C449 N457 1.427 . S
C450 H441 0.930 . S
C450 C448 1.378 . S
C450 C451 1.367 . S
C451 C450 1.367 . S
C451 C453 1.433 . S
C452 C448 1.350 . S
C452 C449 1.463 . S
C452 N456 1.427 . S
C453 H443 0.929 . S
C453 C451 1.433 . S
C453 N456 1.384 . S
C454 H445 0.929 . S
C454 C446 1.378 . S
C454 C449 1.350 . S
C455 H442 0.929 . S
C455 C447 1.433 . S
C455 N457 1.384 . S
N456 C452 1.427 . S
N456 C453 1.384 . S
N457 C449 1.427 . S
N457 C455 1.384 . S
H458 C464 0.930 . S
H459 C468 0.930 . S
H460 C473 0.929 . S
H461 C471 0.929 . S
H462 C466 0.929 . S
H463 C472 0.929 . S
C464 H458 0.930 . S
C464 C465 1.367 . S
C464 C472 1.378 . S
C465 C464 1.367 . S
C465 C473 1.433 . S
C466 H462 0.929 . S
C466 C468 1.378 . S
C466 C470 1.350 . S
C467 C470 1.463 . S
C467 C472 1.350 . S
C467 N475 1.427 . S
C468 H459 0.930 . S
C468 C466 1.378 . S
C468 C469 1.367 . S
C469 C468 1.367 . S
C469 C471 1.433 . S
C470 C466 1.350 . S
C470 C467 1.463 . S
C470 N474 1.427 . S
C471 H461 0.929 . S
C471 C469 1.433 . S
C471 N474 1.384 . S
C472 H463 0.929 . S
C472 C464 1.378 . S
C472 C467 1.350 . S
C473 H460 0.929 . S
C473 C465 1.433 . S
C473 N475 1.384 . S
N474 C470 1.427 . S
N474 C471 1.384 . S
N475 C467 1.427 . S
N475 C473 1.384 . S
H476 C482 0.930 . S
H477 C486 0.930 . S
H478 C491 0.929 . S
H479 C489 0.929 . S
H480 C484 0.929 . S
H481 C490 0.929 . S
C482 H476 0.930 . S
C482 C483 1.367 . S
C482 C490 1.378 . S
C483 C482 1.367 . S
C483 C491 1.433 . S
C484 H480 0.929 . S
C484 C486 1.378 . S
C484 C488 1.350 . S
C485 C488 1.463 . S
C485 C490 1.350 . S
C485 N493 1.427 . S
C486 H477 0.930 . S
C486 C484 1.378 . S
C486 C487 1.367 . S
C487 C486 1.367 . S
C487 C489 1.433 . S
C488 C484 1.350 . S
C488 C485 1.463 . S
C488 N492 1.427 . S
C489 H479 0.929 . S
C489 C487 1.433 . S
C489 N492 1.384 . S
C490 H481 0.929 . S
C490 C482 1.378 . S
C490 C485 1.350 . S
C491 H478 0.929 . S
C491 C483 1.433 . S
C491 N493 1.384 . S
N492 C488 1.427 . S
N492 C489 1.384 . S
N493 C485 1.427 . S
N493 C491 1.384 . S
H494 C500 0.930 . S
H495 C504 0.930 . S
H496 C509 0.929 . S
H497 C507 0.929 . S
H498 C502 0.929 . S
H499 C508 0.929 . S
C500 H494 0.930 . S
C500 C501 1.367 . S
C500 C508 1.378 . S
C501 C500 1.367 . S
C501 C509 1.433 . S
C502 H498 0.929 . S
C502 C504 1.378 . S
C502 C506 1.350 . S
C503 C506 1.463 . S
C503 C508 1.350 . S
C503 N511 1.427 . S
C504 H495 0.930 . S
C504 C502 1.378 . S
C504 C505 1.367 . S
C505 C504 1.367 . S
C505 C507 1.433 . S
C506 C502 1.350 . S
C506 C503 1.463 . S
C506 N510 1.427 . S
C507 H497 0.929 . S
C507 C505 1.433 . S
C507 N510 1.384 . S
C508 H499 0.929 . S
C508 C500 1.378 . S
C508 C503 1.350 . S
C509 H496 0.929 . S
C509 C501 1.433 . S
C509 N511 1.384 . S
N510 C506 1.427 . S
N510 C507 1.384 . S
N511 C503 1.427 . S
N511 C509 1.384 . S
H512 C518 0.930 . S
H513 C522 0.930 . S
H514 C527 0.929 . S
H515 C525 0.929 . S
H516 C520 0.929 . S
H517 C526 0.929 . S
C518 H512 0.930 . S
C518 C519 1.367 . S
C518 C526 1.378 . S
C519 C518 1.367 . S
C519 C527 1.433 . S
C520 H516 0.929 . S
C520 C522 1.378 . S
C520 C524 1.350 . S
C521 C524 1.463 . S
C521 C526 1.350 . S
C521 N529 1.427 . S
C522 H513 0.930 . S
C522 C520 1.378 . S
C522 C523 1.367 . S
C523 C522 1.367 . S
C523 C525 1.433 . S
C524 C520 1.350 . S
C524 C521 1.463 . S
C524 N528 1.427 . S
C525 H515 0.929 . S
C525 C523 1.433 . S
C525 N528 1.384 . S
C526 H517 0.929 . S
C526 C518 1.378 . S
C526 C521 1.350 . S
C527 H514 0.929 . S
C527 C519 1.433 . S
C527 N529 1.384 . S
N528 C524 1.427 . S
N528 C525 1.384 . S
N529 C521 1.427 . S
N529 C527 1.384 . S
H530 C536 0.930 . S
H531 C540 0.930 . S
H532 C545 0.929 . S
H533 C543 0.929 . S
H534 C538 0.929 . S
H535 C544 0.929 . S
C536 H530 0.930 . S
C536 C537 1.367 . S
C536 C544 1.378 . S
C537 C536 1.367 . S
C537 C545 1.433 . S
C538 H534 0.929 . S
C538 C540 1.378 . S
C538 C542 1.350 . S
C539 C542 1.463 . S
C539 C544 1.350 . S
C539 N547 1.427 . S
C540 H531 0.930 . S
C540 C538 1.378 . S
C540 C541 1.367 . S
C541 C540 1.367 . S
C541 C543 1.433 . S
C542 C538 1.350 . S
C542 C539 1.463 . S
C542 N546 1.427 . S
C543 H533 0.929 . S
C543 C541 1.433 . S
C543 N546 1.384 . S
C544 H535 0.929 . S
C544 C536 1.378 . S
C544 C539 1.350 . S
C545 H532 0.929 . S
C545 C537 1.433 . S
C545 N547 1.384 . S
N546 C542 1.427 . S
N546 C543 1.384 . S
N547 C539 1.427 . S
N547 C545 1.384 . S
H548 C554 0.930 . S
H549 C558 0.930 . S
H550 C563 0.929 . S
H551 C561 0.929 . S
H552 C556 0.929 . S
H553 C562 0.929 . S
C554 H548 0.930 . S
C554 C555 1.367 . S
C554 C562 1.378 . S
C555 C554 1.367 . S
C555 C563 1.433 . S
C556 H552 0.929 . S
C556 C558 1.378 . S
C556 C560 1.350 . S
C557 C560 1.463 . S
C557 C562 1.350 . S
C557 N565 1.427 . S
C558 H549 0.930 . S
C558 C556 1.378 . S
C558 C559 1.367 . S
C559 C558 1.367 . S
C559 C561 1.433 . S
C560 C556 1.350 . S
C560 C557 1.463 . S
C560 N564 1.427 . S
C561 H551 0.929 . S
C561 C559 1.433 . S
C561 N564 1.384 . S
C562 H553 0.929 . S
C562 C554 1.378 . S
C562 C557 1.350 . S
C563 H550 0.929 . S
C563 C555 1.433 . S
C563 N565 1.384 . S
N564 C560 1.427 . S
N564 C561 1.384 . S
N565 C557 1.427 . S
N565 C563 1.384 . S
H566 C572 0.930 . S
H567 C576 0.930 . S
H568 C581 0.929 . S
H569 C579 0.929 . S
H570 C574 0.929 . S
H571 C580 0.929 . S
C572 H566 0.930 . S
C572 C573 1.367 . S
C572 C580 1.378 . S
C573 C572 1.367 . S
C573 C581 1.433 . S
C574 H570 0.929 . S
C574 C576 1.378 . S
C574 C578 1.350 . S
C575 C578 1.463 . S
C575 C580 1.350 . S
C575 N583 1.427 . S
C576 H567 0.930 . S
C576 C574 1.378 . S
C576 C577 1.367 . S
C577 C576 1.367 . S
C577 C579 1.433 . S
C578 C574 1.350 . S
C578 C575 1.463 . S
C578 N582 1.427 . S
C579 H569 0.929 . S
C579 C577 1.433 . S
C579 N582 1.384 . S
C580 H571 0.929 . S
C580 C572 1.378 . S
C580 C575 1.350 . S
C581 H568 0.929 . S
C581 C573 1.433 . S
C581 N583 1.384 . S
N582 C578 1.427 . S
N582 C579 1.384 . S
N583 C575 1.427 . S
N583 C581 1.384 . S
H584 C590 0.957 . S
H585 C594 0.930 . S
H586 C599 0.929 . S
H587 C597 0.929 . S
H588 C592 0.929 . S
H589 C598 0.929 . S
C590 H584 0.957 . S
C590 C591 1.367 . S
C590 C598 1.378 . S
C591 C590 1.367 . S
C591 C599 1.433 . S
C592 H588 0.929 . S
C592 C594 1.378 . S
C592 C596 1.350 . S
C593 C596 1.463 . S
C593 C598 1.350 . S
C593 N601 1.427 . S
C594 H585 0.930 . S
C594 C592 1.378 . S
C594 C595 1.367 . S
C595 C594 1.367 . S
C595 C597 1.433 . S
C596 C592 1.350 . S
C596 C593 1.463 . S
C596 N600 1.427 . S
C597 H587 0.929 . S
C597 C595 1.433 . S
C597 N600 1.384 . S
C598 H589 0.929 . S
C598 C590 1.378 . S
C598 C593 1.350 . S
C599 H586 0.929 . S
C599 C591 1.433 . S
C599 N601 1.384 . S
N600 C596 1.427 . S
N600 C597 1.384 . S
N601 C593 1.427 . S
N601 C599 1.384 . S
H602 C608 0.930 . S
H603 C612 0.930 . S
H604 C617 0.929 . S
H605 C615 0.929 . S
H606 C610 0.929 . S
H607 C616 0.929 . S
C608 H602 0.930 . S
C608 C609 1.367 . S
C608 C616 1.378 . S
C609 C608 1.367 . S
C609 C617 1.433 . S
C610 H606 0.929 . S
C610 C612 1.378 . S
C610 C614 1.350 . S
C611 C614 1.463 . S
C611 C616 1.350 . S
C611 N619 1.427 . S
C612 H603 0.930 . S
C612 C610 1.378 . S
C612 C613 1.367 . S
C613 C612 1.367 . S
C613 C615 1.433 . S
C614 C610 1.350 . S
C614 C611 1.463 . S
C614 N618 1.427 . S
C615 H605 0.929 . S
C615 C613 1.433 . S
C615 N618 1.384 . S
C616 H607 0.929 . S
C616 C608 1.378 . S
C616 C611 1.350 . S
C617 H604 0.929 . S
C617 C609 1.433 . S
C617 N619 1.384 . S
N618 C614 1.427 . S
N618 C615 1.384 . S
N619 C611 1.427 . S
N619 C617 1.384 . S
H620 C626 0.930 . S
H621 C630 0.958 . S
H622 C635 0.929 . S
H623 C633 0.929 . S
H624 C628 0.929 . S
H625 C634 0.929 . S
C626 H620 0.930 . S
C626 C627 1.367 . S
C626 C634 1.378 . S
C627 C626 1.367 . S
C627 C635 1.433 . S
C628 H624 0.929 . S
C628 C630 1.378 . S
C628 C632 1.350 . S
C629 C632 1.463 . S
C629 C634 1.350 . S
C629 N637 1.427 . S
C630 H621 0.958 . S
C630 C628 1.378 . S
C630 C631 1.367 . S
C631 C630 1.367 . S
C631 C633 1.433 . S
C632 C628 1.350 . S
C632 C629 1.463 . S
C632 N636 1.427 . S
C633 H623 0.929 . S
C633 C631 1.433 . S
C633 N636 1.384 . S
C634 H625 0.929 . S
C634 C626 1.378 . S
C634 C629 1.350 . S
C635 H622 0.929 . S
C635 C627 1.433 . S
C635 N637 1.384 . S
N636 C632 1.427 . S
N636 C633 1.384 . S
N637 C629 1.427 . S
N637 C635 1.384 . S
H638 C644 0.930 . S
H639 C648 0.930 . S
H640 C653 0.929 . S
H641 C651 0.929 . S
H642 C646 0.929 . S
H643 C652 0.929 . S
C644 H638 0.930 . S
C644 C645 1.367 . S
C644 C652 1.378 . S
C645 C644 1.367 . S
C645 C653 1.433 . S
C646 H642 0.929 . S
C646 C648 1.378 . S
C646 C650 1.350 . S
C647 C650 1.463 . S
C647 C652 1.350 . S
C647 N655 1.427 . S
C648 H639 0.930 . S
C648 C646 1.378 . S
C648 C649 1.367 . S
C649 C648 1.367 . S
C649 C651 1.433 . S
C650 C646 1.350 . S
C650 C647 1.463 . S
C650 N654 1.427 . S
C651 H641 0.929 . S
C651 C649 1.433 . S
C651 N654 1.384 . S
C652 H643 0.929 . S
C652 C644 1.378 . S
C652 C647 1.350 . S
C653 H640 0.929 . S
C653 C645 1.433 . S
C653 N655 1.384 . S
N654 C650 1.427 . S
N654 C651 1.384 . S
N655 C647 1.427 . S
N655 C653 1.384 . S
H656 C662 0.930 . S
H657 C666 0.930 . S
H658 C671 0.929 . S
H659 C669 0.929 . S
H660 C664 0.929 . S
H661 C670 0.929 . S
C662 H656 0.930 . S
C662 C663 1.367 . S
C662 C670 1.378 . S
C663 C662 1.367 . S
C663 C671 1.433 . S
C664 H660 0.929 . S
C664 C666 1.378 . S
C664 C668 1.350 . S
C665 C668 1.463 . S
C665 C670 1.350 . S
C665 N673 1.427 . S
C666 H657 0.930 . S
C666 C664 1.378 . S
C666 C667 1.367 . S
C667 C666 1.367 . S
C667 C669 1.433 . S
C668 C664 1.350 . S
C668 C665 1.463 . S
C668 N672 1.427 . S
C669 H659 0.929 . S
C669 C667 1.433 . S
C669 N672 1.384 . S
C670 H661 0.929 . S
C670 C662 1.378 . S
C670 C665 1.350 . S
C671 H658 0.929 . S
C671 C663 1.433 . S
C671 N673 1.384 . S
N672 C668 1.427 . S
N672 C669 1.384 . S
N673 C665 1.427 . S
N673 C671 1.384 . S
H674 C680 0.930 . S
H675 C684 0.930 . S
H676 C689 0.929 . S
H677 C687 0.929 . S
H678 C682 0.929 . S
H679 C688 0.929 . S
C680 H674 0.930 . S
C680 C681 1.367 . S
C680 C688 1.378 . S
C681 C680 1.367 . S
C681 C689 1.433 . S
C682 H678 0.929 . S
C682 C684 1.378 . S
C682 C686 1.350 . S
C683 C686 1.463 . S
C683 C688 1.350 . S
C683 N691 1.427 . S
C684 H675 0.930 . S
C684 C682 1.378 . S
C684 C685 1.367 . S
C685 C684 1.367 . S
C685 C687 1.433 . S
C686 C682 1.350 . S
C686 C683 1.463 . S
C686 N690 1.427 . S
C687 H677 0.929 . S
C687 C685 1.433 . S
C687 N690 1.384 . S
C688 H679 0.929 . S
C688 C680 1.378 . S
C688 C683 1.350 . S
C689 H676 0.929 . S
C689 C681 1.433 . S
C689 N691 1.384 . S
N690 C686 1.427 . S
N690 C687 1.384 . S
N691 C683 1.427 . S
N691 C689 1.384 . S
H692 C698 0.930 . S
H693 C702 0.930 . S
H694 C707 0.929 . S
H695 C705 0.929 . S
H696 C700 0.929 . S
H697 C706 0.929 . S
C698 H692 0.930 . S
C698 C699 1.367 . S
C698 C706 1.378 . S
C699 C698 1.367 . S
C699 C707 1.433 . S
C700 H696 0.929 . S
C700 C702 1.378 . S
C700 C704 1.350 . S
C701 C704 1.463 . S
C701 C706 1.350 . S
C701 N709 1.427 . S
C702 H693 0.930 . S
C702 C700 1.378 . S
C702 C703 1.367 . S
C703 C702 1.367 . S
C703 C705 1.433 . S
C704 C700 1.350 . S
C704 C701 1.463 . S
C704 N708 1.427 . S
C705 H695 0.929 . S
C705 C703 1.433 . S
C705 N708 1.384 . S
C706 H697 0.929 . S
C706 C698 1.378 . S
C706 C701 1.350 . S
C707 H694 0.929 . S
C707 C699 1.433 . S
C707 N709 1.384 . S
N708 C704 1.427 . S
N708 C705 1.384 . S
N709 C701 1.427 . S
N709 C707 1.384 . S
H710 C716 0.930 . S
H711 C720 0.930 . S
H712 C725 0.929 . S
H713 C723 0.929 . S
H714 C718 0.929 . S
H715 C724 0.929 . S
C716 H710 0.930 . S
C716 C717 1.367 . S
C716 C724 1.378 . S
C717 C716 1.367 . S
C717 C725 1.433 . S
C718 H714 0.929 . S
C718 C720 1.378 . S
C718 C722 1.350 . S
C719 C722 1.463 . S
C719 C724 1.350 . S
C719 N727 1.427 . S
C720 H711 0.930 . S
C720 C718 1.378 . S
C720 C721 1.367 . S
C721 C720 1.367 . S
C721 C723 1.433 . S
C722 C718 1.350 . S
C722 C719 1.463 . S
C722 N726 1.427 . S
C723 H713 0.929 . S
C723 C721 1.433 . S
C723 N726 1.384 . S
C724 H715 0.929 . S
C724 C716 1.378 . S
C724 C719 1.350 . S
C725 H712 0.929 . S
C725 C717 1.433 . S
C725 N727 1.384 . S
N726 C722 1.427 . S
N726 C723 1.384 . S
N727 C719 1.427 . S
N727 C725 1.384 . S
H728 C734 0.930 1_565 S
H729 C738 0.930 1_545 S
H730 C743 0.929 . S
H731 C741 0.929 . S
H732 C736 0.929 . S
H733 C742 0.929 . S
C734 H728 0.930 1_545 S
C734 C735 1.367 . S
C734 C742 1.378 1_545 S
C735 C734 1.367 . S
C735 C743 1.433 . S
C736 H732 0.929 . S
C736 C738 1.378 1_545 S
C736 C740 1.350 1_545 S
C737 C740 1.463 1_544 S
C737 C742 1.350 1_545 S
C737 N745 1.427 . S
C738 H729 0.930 1_565 S
C738 C736 1.378 1_565 S
C738 C739 1.367 . S
C739 C738 1.367 . S
C739 C741 1.433 . S
C740 C736 1.350 1_565 S
C740 C737 1.463 1_566 S
C740 N744 1.427 . S
C741 H731 0.929 . S
C741 C739 1.433 . S
C741 N744 1.384 . S
C742 H733 0.929 . S
C742 C734 1.378 1_565 S
C742 C737 1.350 1_565 S
C743 H730 0.929 . S
C743 C735 1.433 . S
C743 N745 1.384 . S
N744 C740 1.427 . S
N744 C741 1.384 . S
N745 C737 1.427 . S
N745 C743 1.384 . S
H746 C752 0.930 . S
H747 C756 0.930 . S
H748 C761 0.929 . S
H749 C759 0.929 . S
H750 C754 0.929 . S
H751 C760 0.929 . S
C752 H746 0.930 . S
C752 C753 1.367 . S
C752 C760 1.378 . S
C753 C752 1.367 . S
C753 C761 1.433 . S
C754 H750 0.929 . S
C754 C756 1.378 . S
C754 C758 1.350 . S
C755 C758 1.463 1_456 S
C755 C760 1.350 . S
C755 N763 1.427 1_455 S
C756 H747 0.930 . S
C756 C754 1.378 . S
C756 C757 1.367 . S
C757 C756 1.367 . S
C757 C759 1.433 . S
C758 C754 1.350 . S
C758 C755 1.463 1_654 S
C758 N762 1.427 1_655 S
C759 H749 0.929 . S
C759 C757 1.433 . S
C759 N762 1.384 1_655 S
C760 H751 0.929 . S
C760 C752 1.378 . S
C760 C755 1.350 . S
C761 H748 0.929 . S
C761 C753 1.433 . S
C761 N763 1.384 1_455 S
N762 C758 1.427 1_455 S
N762 C759 1.384 1_455 S
N763 C755 1.427 1_655 S
N763 C761 1.384 1_655 S
H764 C770 0.930 . S
H765 C774 0.930 . S
H766 C779 0.929 . S
H767 C777 0.929 . S
H768 C772 0.929 . S
H769 C778 0.929 . S
C770 H764 0.930 . S
C770 C771 1.367 . S
C770 C778 1.378 . S
C771 C770 1.367 . S
C771 C779 1.433 1_545 S
C772 H768 0.929 . S
C772 C774 1.378 . S
C772 C776 1.350 . S
C773 C776 1.463 1_546 S
C773 C778 1.350 . S
C773 N781 1.427 1_545 S
C774 H765 0.930 . S
C774 C772 1.378 . S
C774 C775 1.367 . S
C775 C774 1.367 . S
C775 C777 1.433 1_565 S
C776 C772 1.350 . S
C776 C773 1.463 1_564 S
C776 N780 1.427 1_565 S
C777 H767 0.929 . S
C777 C775 1.433 1_545 S
C777 N780 1.384 . S
C778 H769 0.929 . S
C778 C770 1.378 . S
C778 C773 1.350 . S
C779 H766 0.929 . S
C779 C771 1.433 1_565 S
C779 N781 1.384 . S
N780 C776 1.427 1_545 S
N780 C777 1.384 . S
N781 C773 1.427 1_565 S
N781 C779 1.384 . S
H782 C788 0.930 . S
H783 C792 0.930 . S
H784 C797 0.929 . S
H785 C795 0.929 . S
H786 C790 0.929 . S
H787 C796 0.929 . S
C788 H782 0.930 . S
C788 C789 1.367 . S
C788 C796 1.378 1_655 S
C789 C788 1.367 . S
C789 C797 1.433 . S
C790 H786 0.929 . S
C790 C792 1.378 1_655 S
C790 C794 1.350 1_655 S
C791 C794 1.463 1_656 S
C791 C796 1.350 1_655 S
C791 N799 1.427 . S
C792 H783 0.930 . S
C792 C790 1.378 1_455 S
C792 C793 1.367 . S
C793 C792 1.367 . S
C793 C795 1.433 . S
C794 C790 1.350 1_455 S
C794 C791 1.463 1_454 S
C794 N798 1.427 . S
C795 H785 0.929 . S
C795 C793 1.433 . S
C795 N798 1.384 . S
C796 H787 0.929 . S
C796 C788 1.378 1_455 S
C796 C791 1.350 1_455 S
C797 H784 0.929 . S
C797 C789 1.433 . S
C797 N799 1.384 . S
N798 C794 1.427 . S
N798 C795 1.384 . S
N799 C791 1.427 . S
N799 C797 1.384 . S
C231 C11 1.256 . S
C235 C109 1.255 . S
C249 C25 1.256 . S
C253 C67 1.255 . S
C267 C81 1.256 . S
C271 C39 1.254 . S
C285 C53 1.255 . S
C289 C95 1.255 . S
C303 C123 1.254 . S
C307 C221 1.256 . S
C321 C179 1.256 . S
C325 C137 1.254 . S
C339 C193 1.255 . S
C343 C151 1.256 . S
C357 C207 1.257 . S
C361 C165 1.254 . S
C375 C5 1.378 . S
C379 C154 1.384 . S
C393 C19 1.378 . S
C397 C112 1.382 . S
C411 C126 1.386 . S
C415 C33 1.369 . S
C429 C47 1.368 . S
C433 C140 1.389 . S
C447 C61 1.375 . S
C451 C182 1.382 . S
C465 C196 1.386 . S
C469 C75 1.369 . S
C483 C89 1.375 . S
C487 C210 1.387 . S
C501 C168 1.387 . S
C505 C103 1.375 . S
C519 C117 1.363 1_545 S
C523 C42 1.389 . S
C537 C0 1.387 . S
C541 C131 1.371 1_455 S
C555 C145 1.362 1_565 S
C559 C14 1.388 . S
C573 C28 1.383 . S
C577 C159 1.373 1_655 S
C591 C173 1.364 1_565 S
C595 C70 1.389 . S
C609 C84 1.388 . S
C613 C187 1.370 1_655 S
C627 C98 1.389 . S
C631 C201 1.364 1_545 S
C645 C56 1.382 . S
C649 C215 1.373 1_455 S
C663 C65 1.627 . S
C667 C9 1.626 . S
C681 C79 1.626 . S
C685 C23 1.627 . S
C699 C37 1.627 . S
C703 C93 1.626 . S
C717 C107 1.626 . S
C721 C51 1.627 . S
C735 C177 1.627 . S
C739 C121 1.626 . S
C753 C191 1.625 . S
C757 C135 1.627 . S
C771 C149 1.626 . S
C775 C205 1.626 . S
C789 C219 1.627 . S
C793 C163 1.626 . S
