# Generated by pormake.
# Topology ukm, (4)-cn, num edge types: 1
# Building blocks:
#     Node 0, Type 0, BuildingBlock: CEKHIL_clean_sbu_0, # of connection points: 4
#     Node 1, Type 0, BuildingBlock: CEKHIL_clean_sbu_0, # of connection points: 4
#     Node 2, Type 0, BuildingBlock: CEKHIL_clean_sbu_0, # of connection points: 4
#     Node 3, Type 0, BuildingBlock: CEKHIL_clean_sbu_0, # of connection points: 4
#     Node 4, Type 0, BuildingBlock: CEKHIL_clean_sbu_0, # of connection points: 4
#     Node 5, Type 0, BuildingBlock: CEKHIL_clean_sbu_0, # of connection points: 4
#     Node 6, Type 0, BuildingBlock: CEKHIL_clean_sbu_0, # of connection points: 4
#     Node 7, Type 0, BuildingBlock: CEKHIL_clean_sbu_0, # of connection points: 4
#     Node 8, Type 0, BuildingBlock: CEKHIL_clean_sbu_0, # of connection points: 4
#     Node 9, Type 0, BuildingBlock: CEKHIL_clean_sbu_0, # of connection points: 4
#     Node 10, Type 0, BuildingBlock: CEKHIL_clean_sbu_0, # of connection points: 4
#     Node 11, Type 0, BuildingBlock: CEKHIL_clean_sbu_0, # of connection points: 4
#     Node 12, Type 0, BuildingBlock: CEKHIL_clean_sbu_0, # of connection points: 4
#     Node 13, Type 0, BuildingBlock: CEKHIL_clean_sbu_0, # of connection points: 4
#     Node 14, Type 0, BuildingBlock: CEKHIL_clean_sbu_0, # of connection points: 4
#     Node 15, Type 0, BuildingBlock: CEKHIL_clean_sbu_0, # of connection points: 4
#     Node 16, Type 0, BuildingBlock: CEKHIL_clean_sbu_0, # of connection points: 4
#     Node 17, Type 0, BuildingBlock: CEKHIL_clean_sbu_0, # of connection points: 4
#     Node 18, Type 0, BuildingBlock: CEKHIL_clean_sbu_0, # of connection points: 4
#     Node 19, Type 0, BuildingBlock: CEKHIL_clean_sbu_0, # of connection points: 4
#     Node 20, Type 0, BuildingBlock: CEKHIL_clean_sbu_0, # of connection points: 4
#     Node 21, Type 0, BuildingBlock: CEKHIL_clean_sbu_0, # of connection points: 4
#     Node 22, Type 0, BuildingBlock: CEKHIL_clean_sbu_0, # of connection points: 4
#     Node 23, Type 0, BuildingBlock: CEKHIL_clean_sbu_0, # of connection points: 4
#     Node 24, Type 0, BuildingBlock: CEKHIL_clean_sbu_0, # of connection points: 4
#     Node 25, Type 0, BuildingBlock: CEKHIL_clean_sbu_0, # of connection points: 4
#     Node 26, Type 0, BuildingBlock: CEKHIL_clean_sbu_0, # of connection points: 4
#     Node 27, Type 0, BuildingBlock: CEKHIL_clean_sbu_0, # of connection points: 4
#     Node 28, Type 0, BuildingBlock: CEKHIL_clean_sbu_0, # of connection points: 4
#     Node 29, Type 0, BuildingBlock: CEKHIL_clean_sbu_0, # of connection points: 4
#     Node 30, Type 0, BuildingBlock: CEKHIL_clean_sbu_0, # of connection points: 4
#     Node 31, Type 0, BuildingBlock: CEKHIL_clean_sbu_0, # of connection points: 4
#     Edge 32, Type (0, 0), BuildingBlock: XIVTED_clean_linker_0, # of connection points: 2
#     Edge 33, Type (0, 0), BuildingBlock: XIVTED_clean_linker_0, # of connection points: 2
#     Edge 34, Type (0, 0), BuildingBlock: XIVTED_clean_linker_0, # of connection points: 2
#     Edge 35, Type (0, 0), BuildingBlock: XIVTED_clean_linker_0, # of connection points: 2
#     Edge 36, Type (0, 0), BuildingBlock: XIVTED_clean_linker_0, # of connection points: 2
#     Edge 37, Type (0, 0), BuildingBlock: XIVTED_clean_linker_0, # of connection points: 2
#     Edge 38, Type (0, 0), BuildingBlock: XIVTED_clean_linker_0, # of connection points: 2
#     Edge 39, Type (0, 0), BuildingBlock: XIVTED_clean_linker_0, # of connection points: 2
#     Edge 40, Type (0, 0), BuildingBlock: XIVTED_clean_linker_0, # of connection points: 2
#     Edge 41, Type (0, 0), BuildingBlock: XIVTED_clean_linker_0, # of connection points: 2
#     Edge 42, Type (0, 0), BuildingBlock: XIVTED_clean_linker_0, # of connection points: 2
#     Edge 43, Type (0, 0), BuildingBlock: XIVTED_clean_linker_0, # of connection points: 2
#     Edge 44, Type (0, 0), BuildingBlock: XIVTED_clean_linker_0, # of connection points: 2
#     Edge 45, Type (0, 0), BuildingBlock: XIVTED_clean_linker_0, # of connection points: 2
#     Edge 46, Type (0, 0), BuildingBlock: XIVTED_clean_linker_0, # of connection points: 2
#     Edge 47, Type (0, 0), BuildingBlock: XIVTED_clean_linker_0, # of connection points: 2
#     Edge 48, Type (0, 0), BuildingBlock: XIVTED_clean_linker_0, # of connection points: 2
#     Edge 49, Type (0, 0), BuildingBlock: XIVTED_clean_linker_0, # of connection points: 2
#     Edge 50, Type (0, 0), BuildingBlock: XIVTED_clean_linker_0, # of connection points: 2
#     Edge 51, Type (0, 0), BuildingBlock: XIVTED_clean_linker_0, # of connection points: 2
#     Edge 52, Type (0, 0), BuildingBlock: XIVTED_clean_linker_0, # of connection points: 2
#     Edge 53, Type (0, 0), BuildingBlock: XIVTED_clean_linker_0, # of connection points: 2
#     Edge 54, Type (0, 0), BuildingBlock: XIVTED_clean_linker_0, # of connection points: 2
#     Edge 55, Type (0, 0), BuildingBlock: XIVTED_clean_linker_0, # of connection points: 2
#     Edge 56, Type (0, 0), BuildingBlock: XIVTED_clean_linker_0, # of connection points: 2
#     Edge 57, Type (0, 0), BuildingBlock: XIVTED_clean_linker_0, # of connection points: 2
#     Edge 58, Type (0, 0), BuildingBlock: XIVTED_clean_linker_0, # of connection points: 2
#     Edge 59, Type (0, 0), BuildingBlock: XIVTED_clean_linker_0, # of connection points: 2
#     Edge 60, Type (0, 0), BuildingBlock: XIVTED_clean_linker_0, # of connection points: 2
#     Edge 61, Type (0, 0), BuildingBlock: XIVTED_clean_linker_0, # of connection points: 2
#     Edge 62, Type (0, 0), BuildingBlock: XIVTED_clean_linker_0, # of connection points: 2
#     Edge 63, Type (0, 0), BuildingBlock: XIVTED_clean_linker_0, # of connection points: 2
#     Edge 64, Type (0, 0), BuildingBlock: XIVTED_clean_linker_0, # of connection points: 2
#     Edge 65, Type (0, 0), BuildingBlock: XIVTED_clean_linker_0, # of connection points: 2
#     Edge 66, Type (0, 0), BuildingBlock: XIVTED_clean_linker_0, # of connection points: 2
#     Edge 67, Type (0, 0), BuildingBlock: XIVTED_clean_linker_0, # of connection points: 2
#     Edge 68, Type (0, 0), BuildingBlock: XIVTED_clean_linker_0, # of connection points: 2
#     Edge 69, Type (0, 0), BuildingBlock: XIVTED_clean_linker_0, # of connection points: 2
#     Edge 70, Type (0, 0), BuildingBlock: XIVTED_clean_linker_0, # of connection points: 2
#     Edge 71, Type (0, 0), BuildingBlock: XIVTED_clean_linker_0, # of connection points: 2
#     Edge 72, Type (0, 0), BuildingBlock: XIVTED_clean_linker_0, # of connection points: 2
#     Edge 73, Type (0, 0), BuildingBlock: XIVTED_clean_linker_0, # of connection points: 2
#     Edge 74, Type (0, 0), BuildingBlock: XIVTED_clean_linker_0, # of connection points: 2
#     Edge 75, Type (0, 0), BuildingBlock: XIVTED_clean_linker_0, # of connection points: 2
#     Edge 76, Type (0, 0), BuildingBlock: XIVTED_clean_linker_0, # of connection points: 2
#     Edge 77, Type (0, 0), BuildingBlock: XIVTED_clean_linker_0, # of connection points: 2
#     Edge 78, Type (0, 0), BuildingBlock: XIVTED_clean_linker_0, # of connection points: 2
#     Edge 79, Type (0, 0), BuildingBlock: XIVTED_clean_linker_0, # of connection points: 2
#     Edge 80, Type (0, 0), BuildingBlock: XIVTED_clean_linker_0, # of connection points: 2
#     Edge 81, Type (0, 0), BuildingBlock: XIVTED_clean_linker_0, # of connection points: 2
#     Edge 82, Type (0, 0), BuildingBlock: XIVTED_clean_linker_0, # of connection points: 2
#     Edge 83, Type (0, 0), BuildingBlock: XIVTED_clean_linker_0, # of connection points: 2
#     Edge 84, Type (0, 0), BuildingBlock: XIVTED_clean_linker_0, # of connection points: 2
#     Edge 85, Type (0, 0), BuildingBlock: XIVTED_clean_linker_0, # of connection points: 2
#     Edge 86, Type (0, 0), BuildingBlock: XIVTED_clean_linker_0, # of connection points: 2
#     Edge 87, Type (0, 0), BuildingBlock: XIVTED_clean_linker_0, # of connection points: 2
#     Edge 88, Type (0, 0), BuildingBlock: XIVTED_clean_linker_0, # of connection points: 2
#     Edge 89, Type (0, 0), BuildingBlock: XIVTED_clean_linker_0, # of connection points: 2
#     Edge 90, Type (0, 0), BuildingBlock: XIVTED_clean_linker_0, # of connection points: 2
#     Edge 91, Type (0, 0), BuildingBlock: XIVTED_clean_linker_0, # of connection points: 2
#     Edge 92, Type (0, 0), BuildingBlock: XIVTED_clean_linker_0, # of connection points: 2
#     Edge 93, Type (0, 0), BuildingBlock: XIVTED_clean_linker_0, # of connection points: 2
#     Edge 94, Type (0, 0), BuildingBlock: XIVTED_clean_linker_0, # of connection points: 2
#     Edge 95, Type (0, 0), BuildingBlock: XIVTED_clean_linker_0, # of connection points: 2
# Relax obj value: 0.248
# Max RMSD: 0.190
# Mean RMSD: 0.187
data_MOF--net-ukm--node1-CEKHIL_clean_sbu_0--edge1-XIVTED_clean_linker_0
_symmetry_space_group_name_H-M    P1
_symmetry_Int_Tables_number       1
_symmetry_cell_setting            triclinic
loop_
_symmetry_equiv_pos_as_xyz
'x, y, z'
_cell_length_a     23.320343
_cell_length_b     103.08022
_cell_length_c     42.788307
_cell_angle_alpha  90.003107
_cell_angle_beta   89.967895
_cell_angle_gamma 90.01774
loop_
_atom_site_label
_atom_site_type_symbol
_atom_site_fract_x
_atom_site_fract_y
_atom_site_fract_z
_atom_type_partial_charge
Co0 Co 0.11914 0.3108 0.27033 0.0
O1 O 0.12608 0.29517 0.24635 0.0
O2 O 0.04428 0.30277 0.26517 0.0
C3 C 0.19467 0.30653 0.30127 0.0
O4 O 0.09626 0.32661 0.29645 0.0
Co5 Co 0.22025 0.33081 0.26961 0.0
O6 O 0.17105 0.34051 0.29888 0.0
C7 C 0.14257 0.3286 0.2156 0.0
C8 C 0.07106 0.29388 0.24916 0.0
C9 C 0.11985 0.33725 0.30562 0.0
O10 O 0.10917 0.32092 0.23074 0.0
O11 O 0.19047 0.33278 0.22613 0.0
O12 O 0.14461 0.30173 0.3081 0.0
O13 O 0.19775 0.31296 0.27556 0.0
Co14 Co 0.10675 0.94195 0.28231 0.0
O15 O 0.10366 0.95619 0.25367 0.0
O16 O 0.17172 0.95358 0.28906 0.0
C17 C 0.01309 0.94317 0.29466 0.0
O18 O 0.12205 0.92813 0.31591 0.0
Co19 Co 0.03291 0.91739 0.26831 0.0
O20 O 0.0519 0.91314 0.31205 0.0
C21 C 0.1369 0.92302 0.23131 0.0
C22 C 0.1507 0.96039 0.26607 0.0
C23 C 0.09484 0.91806 0.32606 0.0
O24 O 0.15169 0.93186 0.25085 0.0
O25 O 0.08949 0.91678 0.23297 0.0
O26 O 0.05014 0.95046 0.30907 0.0
O27 O 0.03341 0.93604 0.27257 0.0
Co28 Co 0.15244 0.93834 0.95264 0.0
O29 O 0.16475 0.95612 0.96439 0.0
O30 O 0.08093 0.94601 0.96649 0.0
C31 C 0.20426 0.93932 0.90857 0.0
O32 O 0.1225 0.92033 0.94114 0.0
Co33 Co 0.25552 0.91921 0.94726 0.0
O34 O 0.19667 0.90667 0.93354 0.0
C35 C 0.21337 0.92693 0.00905 0.0
C36 C 0.11051 0.95655 0.97102 0.0
C37 C 0.14317 0.90912 0.93412 0.0
O38 O 0.17016 0.93268 -0.00346 0.0
O39 O 0.25412 0.92172 -0.0065 0.0
O40 O 0.15135 0.9433 0.90838 0.0
O41 O 0.22471 0.93591 0.93523 0.0
Co42 Co 0.13556 0.31237 0.93622 0.0
O43 O 0.11942 0.29783 0.96287 0.0
O44 O 0.20505 0.30241 0.94348 0.0
C45 C 0.05718 0.30918 0.90666 0.0
O46 O 0.16815 0.32669 0.90822 0.0
Co47 Co 0.04983 0.3354 0.92999 0.0
O48 O 0.09606 0.33957 0.89258 0.0
C49 C 0.11946 0.33194 0.98727 0.0
C50 C 0.17332 0.29491 0.96088 0.0
C51 C 0.14814 0.33595 0.89121 0.0
O52 O 0.15036 0.32325 0.97385 0.0
O53 O 0.07574 0.33729 0.97453 0.0
O54 O 0.10415 0.30286 0.90038 0.0
O55 O 0.05933 0.31682 0.93037 0.0
Co56 Co 0.91412 0.67823 0.70723 0.0
O57 O 0.95808 0.67766 0.74562 0.0
O58 O 0.86458 0.68145 0.74144 0.0
C59 C 0.94804 0.66018 0.68466 0.0
O60 O 0.85177 0.67906 0.6752 0.0
Co61 Co 0.96106 0.68196 0.64087 0.0
O62 O 0.88136 0.67884 0.62563 0.0
C63 C 0.96086 0.70402 0.68461 0.0
C64 C 0.90904 0.68007 0.75917 0.0
C65 C 0.84143 0.6787 0.64592 0.0
O66 O 0.92971 0.69729 0.70327 0.0
O67 O 0.9822 0.69935 0.65941 0.0
O68 O 0.90953 0.65952 0.70655 0.0
O69 O 0.96917 0.6716 0.67903 0.0
Co70 Co 0.83834 0.07406 0.70683 0.0
O71 O 0.79373 0.07612 0.7448 0.0
O72 O 0.88635 0.07126 0.74183 0.0
C73 C 0.80803 0.09191 0.68186 0.0
O74 O 0.90201 0.0719 0.67579 0.0
Co75 Co 0.79521 0.06929 0.64053 0.0
O76 O 0.87549 0.07161 0.62578 0.0
C77 C 0.79363 0.04772 0.68565 0.0
C78 C 0.84209 0.07372 0.75903 0.0
C79 C 0.91416 0.07176 0.6467 0.0
O80 O 0.81885 0.05509 0.70553 0.0
O81 O 0.77817 0.0516 0.65851 0.0
O82 O 0.84667 0.09262 0.70363 0.0
O83 O 0.78513 0.08058 0.67717 0.0
Co84 Co 0.9015 0.06557 0.04145 0.0
O85 O 0.9429 0.07053 0.00405 0.0
O86 O 0.85441 0.06259 0.006 0.0
C87 C 0.92261 0.08335 0.06939 0.0
O88 O 0.84111 0.06003 0.07217 0.0
Co89 Co 0.94872 0.06016 0.10633 0.0
O90 O 0.86903 0.0634 0.12125 0.0
C91 C 0.9617 0.04027 0.05716 0.0
C92 C 0.89605 0.06723 0.98942 0.0
C93 C 0.82987 0.06141 0.10118 0.0
O94 O 0.93283 0.04752 0.03856 0.0
O95 O 0.97426 0.04358 0.0852 0.0
O96 O 0.88191 0.0835 0.0487 0.0
O97 O 0.95186 0.07267 0.07181 0.0
Co98 Co 0.84691 0.68828 0.0406 0.0
O99 O 0.8016 0.68637 0.00305 0.0
O100 O 0.89263 0.69264 0.00542 0.0
C101 C 0.82213 0.66941 0.0631 0.0
O102 O 0.91035 0.69077 0.07152 0.0
Co103 Co 0.80254 0.69073 0.1075 0.0
O104 O 0.8834 0.68762 0.12098 0.0
C105 C 0.79254 0.71309 0.06484 0.0
C106 C 0.84841 0.68979 0.98851 0.0
C107 C 0.9221 0.68939 0.10045 0.0
O108 O 0.82275 0.70683 0.04483 0.0
O109 O 0.77571 0.70808 0.0907 0.0
O110 O 0.86062 0.6698 0.04118 0.0
O111 O 0.7963 0.68026 0.06941 0.0
Co112 Co 0.11006 0.81042 0.78421 0.0
O113 O 0.1286 0.79498 0.76128 0.0
O114 O 0.04404 0.79899 0.78281 0.0
C115 C 0.19097 0.81086 0.8125 0.0
O116 O 0.07653 0.82524 0.81032 0.0
Co117 Co 0.18859 0.83488 0.77607 0.0
O118 O 0.13596 0.84253 0.80704 0.0
C119 C 0.11686 0.82539 0.72461 0.0
C120 C 0.07632 0.79126 0.76637 0.0
C121 C 0.09092 0.83697 0.81728 0.0
O122 O 0.08619 0.81887 0.74404 0.0
O123 O 0.16289 0.8313 0.73243 0.0
O124 O 0.14861 0.80351 0.82139 0.0
O125 O 0.18453 0.81663 0.78611 0.0
Co126 Co 0.13543 0.44664 0.80234 0.0
O127 O 0.11882 0.46249 0.78072 0.0
O128 O 0.20604 0.45444 0.78723 0.0
C129 C 0.07737 0.45065 0.84289 0.0
O130 O 0.16808 0.43042 0.82308 0.0
Co131 Co 0.03607 0.42685 0.81491 0.0
O132 O 0.09496 0.41822 0.84112 0.0
C133 C 0.08675 0.42916 0.75209 0.0
C134 C 0.17344 0.46353 0.77574 0.0
C135 C 0.14836 0.42059 0.83823 0.0
O136 O 0.12639 0.43665 0.7626 0.0
O137 O 0.04394 0.42526 0.76831 0.0
O138 O 0.12884 0.45549 0.84289 0.0
O139 O 0.06205 0.44454 0.81812 0.0
Co140 Co 0.13489 0.43592 0.47162 0.0
O141 O 0.141 0.45146 0.49599 0.0
O142 O 0.06058 0.44438 0.47443 0.0
C143 C 0.21433 0.43993 0.44317 0.0
O144 O 0.11297 0.4203 0.44472 0.0
Co145 Co 0.23288 0.41537 0.47591 0.0
O146 O 0.1841 0.40547 0.44679 0.0
C147 C 0.15149 0.41874 0.52791 0.0
C148 C 0.0866 0.45308 0.49135 0.0
C149 C 0.13486 0.40921 0.43763 0.0
O150 O 0.11902 0.42581 0.51066 0.0
O151 O 0.20103 0.41475 0.51933 0.0
O152 O 0.16545 0.44497 0.43505 0.0
O153 O 0.21394 0.43336 0.46876 0.0
Co154 Co 0.13455 0.80668 0.43559 0.0
O155 O 0.15152 0.78893 0.4448 0.0
O156 O 0.21568 0.80484 0.44511 0.0
C157 C 0.07909 0.8023 0.39429 0.0
O158 O 0.13126 0.82617 0.42643 0.0
Co159 Co 0.0063 0.81551 0.43934 0.0
O160 O 0.03852 0.83244 0.42604 0.0
C161 C 0.07108 0.81056 0.49669 0.0
C162 C 0.20382 0.79262 0.4495 0.0
C163 C 0.09195 0.83488 0.42338 0.0
O164 O 0.11792 0.80998 0.48087 0.0
O165 O 0.02136 0.81122 0.48417 0.0
O166 O 0.13437 0.80296 0.3904 0.0
O167 O 0.0608 0.80334 0.42244 0.0
Co168 Co 0.88828 0.18357 0.20705 0.0
O169 O 0.93257 0.18651 0.24459 0.0
O170 O 0.8379 0.18811 0.24007 0.0
C171 C 0.9291 0.16501 0.19102 0.0
O172 O 0.82574 0.18085 0.17566 0.0
Co173 Co 0.9342 0.18398 0.13983 0.0
O174 O 0.85665 0.17783 0.12679 0.0
C175 C 0.92783 0.20829 0.17565 0.0
C176 C 0.88304 0.18899 0.2575 0.0
C177 C 0.81661 0.17802 0.14703 0.0
O178 O 0.89642 0.20239 0.19576 0.0
O179 O 0.9517 0.20242 0.15269 0.0
O180 O 0.89147 0.16496 0.21345 0.0
O181 O 0.94549 0.17634 0.18131 0.0
Co182 Co 0.85553 0.56765 0.19817 0.0
O183 O 0.80789 0.56558 0.23485 0.0
O184 O 0.90246 0.56312 0.23272 0.0
C185 C 0.81889 0.58635 0.18028 0.0
O186 O 0.92072 0.56947 0.16792 0.0
Co187 Co 0.81379 0.56666 0.13029 0.0
O188 O 0.89309 0.57201 0.11832 0.0
C189 C 0.81536 0.54273 0.16757 0.0
C190 C 0.85587 0.56293 0.24917 0.0
C191 C 0.93192 0.5718 0.13923 0.0
O192 O 0.84552 0.54877 0.18798 0.0
O193 O 0.79348 0.54841 0.14378 0.0
O194 O 0.85504 0.5863 0.20337 0.0
O195 O 0.80123 0.57507 0.1708 0.0
Co196 Co 0.89374 0.56373 0.53138 0.0
O197 O 0.94148 0.56209 0.49462 0.0
O198 O 0.84675 0.55992 0.49634 0.0
C199 C 0.93242 0.58196 0.55092 0.0
O200 O 0.8282 0.56528 0.56158 0.0
Co201 Co 0.93403 0.56204 0.5996 0.0
O202 O 0.85608 0.56848 0.61091 0.0
C203 C 0.93191 0.53846 0.56057 0.0
C204 C 0.89342 0.55988 0.47996 0.0
C205 C 0.81715 0.56804 0.59008 0.0
O206 O 0.90282 0.5447 0.54002 0.0
O207 O 0.95264 0.54389 0.58503 0.0
O208 O 0.89593 0.5825 0.52799 0.0
O209 O 0.9484 0.57044 0.55938 0.0
Co210 Co 0.8457 0.19066 0.53731 0.0
O211 O 0.79622 0.19328 0.50156 0.0
O212 O 0.89138 0.19452 0.5019 0.0
C213 C 0.80545 0.17256 0.55651 0.0
O214 O 0.9125 0.18802 0.56597 0.0
Co215 Co 0.81032 0.19227 0.60617 0.0
O216 O 0.88788 0.18507 0.61587 0.0
C217 C 0.81395 0.21604 0.56823 0.0
C218 C 0.84392 0.19533 0.48637 0.0
C219 C 0.92512 0.18502 0.59409 0.0
O220 O 0.84137 0.20963 0.54734 0.0
O221 O 0.79285 0.21067 0.59268 0.0
O222 O 0.83978 0.17201 0.5326 0.0
O223 O 0.79174 0.18411 0.56604 0.0
Co224 Co 0.61545 0.30813 0.77394 0.0
O225 O 0.62429 0.29369 0.74617 0.0
O226 O 0.54062 0.30157 0.76158 0.0
C227 C 0.68157 0.30101 0.80772 0.0
O228 O 0.59063 0.32302 0.8024 0.0
Co229 Co 0.71969 0.32627 0.7879 0.0
O230 O 0.66929 0.33285 0.82164 0.0
C231 C 0.65633 0.32845 0.72823 0.0
C232 C 0.56889 0.29302 0.74527 0.0
C233 C 0.61518 0.33124 0.82068 0.0
O234 O 0.61783 0.32042 0.73774 0.0
O235 O 0.70199 0.33115 0.74355 0.0
O236 O 0.62919 0.29682 0.8101 0.0
O237 O 0.69235 0.3087 0.78484 0.0
Co238 Co 0.6434 0.93815 0.75759 0.0
O239 O 0.62936 0.95498 0.73993 0.0
O240 O 0.7128 0.94854 0.75933 0.0
C241 C 0.562 0.9378 0.78591 0.0
O242 O 0.67274 0.92171 0.77907 0.0
Co243 Co 0.55913 0.91545 0.74351 0.0
O244 O 0.60903 0.90552 0.77192 0.0
C245 C 0.64341 0.92341 0.6961 0.0
C246 C 0.68236 0.95764 0.74629 0.0
C247 C 0.65577 0.90992 0.78303 0.0
O248 O 0.66652 0.93133 0.71554 0.0
O249 O 0.59811 0.91686 0.70203 0.0
O250 O 0.60742 0.94365 0.7965 0.0
O251 O 0.56608 0.93318 0.75798 0.0
Co252 Co 0.59522 0.94053 0.42395 0.0
O253 O 0.61618 0.95732 0.43978 0.0
O254 O 0.53088 0.94815 0.44575 0.0
C255 C 0.63436 0.94323 0.37664 0.0
O256 O 0.55799 0.92342 0.411 0.0
Co257 Co 0.68921 0.92064 0.40388 0.0
O258 O 0.62317 0.91146 0.38501 0.0
C259 C 0.66887 0.92603 0.47047 0.0
C260 C 0.56485 0.95789 0.45142 0.0
C261 C 0.57208 0.91356 0.39421 0.0
O262 O 0.62376 0.93259 0.46362 0.0
O263 O 0.70266 0.92103 0.45021 0.0
O264 O 0.58341 0.94786 0.38204 0.0
O265 O 0.66053 0.93816 0.40008 0.0
Co266 Co 0.6214 0.31546 0.45919 0.0
O267 O 0.61384 0.30099 0.48705 0.0
O268 O 0.69632 0.30796 0.46771 0.0
C269 C 0.54784 0.30937 0.42871 0.0
O270 O 0.6449 0.33017 0.42982 0.0
Co271 Co 0.52058 0.33505 0.45104 0.0
O272 O 0.56535 0.34064 0.41406 0.0
C273 C 0.59334 0.33575 0.50767 0.0
C274 C 0.669 0.29972 0.4854 0.0
C275 C 0.61908 0.33853 0.41243 0.0
O276 O 0.62829 0.32748 0.4957 0.0
O277 O 0.54617 0.33917 0.49473 0.0
O278 O 0.59862 0.30458 0.42372 0.0
O279 O 0.54314 0.31707 0.45221 0.0
Co280 Co 0.41651 0.68018 0.19489 0.0
O281 O 0.46154 0.68005 0.23282 0.0
O282 O 0.36735 0.68304 0.22948 0.0
C283 C 0.45343 0.66242 0.17252 0.0
O284 O 0.35324 0.68025 0.16333 0.0
Co285 Co 0.46135 0.68461 0.12875 0.0
O286 O 0.38142 0.68172 0.11359 0.0
C287 C 0.45921 0.70641 0.17275 0.0
C288 C 0.41261 0.68208 0.2468 0.0
C289 C 0.34236 0.6804 0.13411 0.0
O290 O 0.42835 0.69938 0.19086 0.0
O291 O 0.48169 0.702 0.14759 0.0
O292 O 0.41522 0.66149 0.1945 0.0
O293 O 0.47249 0.674 0.16645 0.0
Co294 Co 0.34064 0.07215 0.20579 0.0
O295 O 0.29785 0.07297 0.24452 0.0
O296 O 0.3916 0.06964 0.23968 0.0
C297 C 0.30377 0.08974 0.18239 0.0
O298 O 0.4022 0.07131 0.17321 0.0
Co299 Co 0.2926 0.06722 0.1404 0.0
O300 O 0.37195 0.06955 0.12391 0.0
C301 C 0.29426 0.04592 0.18622 0.0
C302 C 0.3475 0.07095 0.25773 0.0
C303 C 0.41196 0.07079 0.14388 0.0
O304 O 0.32659 0.05293 0.20365 0.0
O305 O 0.27194 0.05021 0.1609 0.0
O306 O 0.34321 0.09086 0.20365 0.0
O307 O 0.2838 0.07813 0.17771 0.0
Co308 Co 0.40645 0.06471 0.53983 0.0
O309 O 0.45079 0.06557 0.5017 0.0
O310 O 0.3574 0.06154 0.50531 0.0
C311 C 0.44062 0.08272 0.56241 0.0
O312 O 0.34393 0.06365 0.57166 0.0
Co313 Co 0.45286 0.06075 0.60599 0.0
O314 O 0.37312 0.064 0.62126 0.0
C315 C 0.45318 0.03892 0.56183 0.0
C316 C 0.40209 0.06321 0.48783 0.0
C317 C 0.33336 0.06398 0.6009 0.0
O318 O 0.42188 0.0457 0.54344 0.0
O319 O 0.47518 0.04348 0.58696 0.0
O320 O 0.40157 0.08338 0.54084 0.0
O321 O 0.46162 0.07129 0.5681 0.0
Co322 Co 0.35183 0.6831 0.52977 0.0
O323 O 0.30697 0.68267 0.49177 0.0
O324 O 0.40201 0.68359 0.49499 0.0
C325 C 0.30743 0.6671 0.55558 0.0
O326 O 0.41493 0.68297 0.56149 0.0
Co327 Co 0.30928 0.69074 0.59473 0.0
O328 O 0.38606 0.68549 0.61081 0.0
C329 C 0.32412 0.71104 0.54714 0.0
C330 C 0.35659 0.6831 0.47769 0.0
C331 C 0.4252 0.68327 0.59079 0.0
O332 O 0.34846 0.70253 0.52977 0.0
O333 O 0.30151 0.7082 0.57357 0.0
O334 O 0.34493 0.66456 0.53399 0.0
O335 O 0.29352 0.67923 0.55917 0.0
Co336 Co 0.60395 0.80971 0.29081 0.0
O337 O 0.62033 0.79624 0.26101 0.0
O338 O 0.53872 0.79815 0.28702 0.0
C339 C 0.68982 0.80804 0.31425 0.0
O340 O 0.57141 0.8223 0.32324 0.0
Co341 Co 0.67781 0.83477 0.296 0.0
O342 O 0.64032 0.83631 0.33725 0.0
C343 C 0.59755 0.83087 0.24298 0.0
C344 C 0.56929 0.79182 0.26662 0.0
C345 C 0.59082 0.83137 0.34103 0.0
O346 O 0.57482 0.82095 0.25634 0.0
O347 O 0.64051 0.8371 0.25411 0.0
O348 O 0.64823 0.80033 0.32247 0.0
O349 O 0.67836 0.81613 0.29225 0.0
Co350 Co 0.62156 0.44493 0.28194 0.0
O351 O 0.61269 0.45981 0.25543 0.0
O352 O 0.69597 0.45061 0.2666 0.0
C353 C 0.56275 0.4523 0.31935 0.0
O354 O 0.64644 0.42944 0.30836 0.0
Co355 Co 0.51473 0.42799 0.29907 0.0
O356 O 0.56813 0.42035 0.33011 0.0
C357 C 0.56916 0.42563 0.23697 0.0
C358 C 0.66787 0.4597 0.252 0.0
C359 C 0.62233 0.42132 0.32711 0.0
O360 O 0.61078 0.43307 0.2453 0.0
O361 O 0.52485 0.42339 0.25383 0.0
O362 O 0.61618 0.45589 0.31942 0.0
O363 O 0.54658 0.44518 0.29635 0.0
Co364 Co 0.62443 0.43281 0.96988 0.0
O365 O 0.63341 0.44666 -0.0005 0.0
O366 O 0.55342 0.44254 0.97355 0.0
C367 C 0.70838 0.4369 0.94582 0.0
O368 O 0.59966 0.41934 0.93749 0.0
Co369 Co 0.71274 0.4102 0.9667 0.0
O370 O 0.67472 0.40644 0.92642 0.0
C371 C 0.62782 0.41156 0.01814 0.0
C372 C 0.58063 0.44974 -0.00628 0.0
C373 C 0.62393 0.41039 0.9212 0.0
O374 O 0.60097 0.42082 0.00432 0.0
O375 O 0.67513 0.40678 0.00814 0.0
O376 O 0.66258 0.4433 0.9379 0.0
O377 O 0.70222 0.42874 0.96835 0.0
Co378 Co 0.63178 0.8174 0.95934 0.0
O379 O 0.61237 0.80181 0.98178 0.0
O380 O 0.70065 0.80775 0.96914 0.0
C381 C 0.56362 0.81546 0.9228 0.0
O382 O 0.66806 0.83257 0.93561 0.0
Co383 Co 0.54218 0.84003 0.95462 0.0
O384 O 0.60233 0.84846 0.92948 0.0
C385 C 0.59935 0.83426 0.01407 0.0
C386 C 0.66691 0.79936 0.98254 0.0
C387 C 0.6524 0.84381 0.92557 0.0
O388 O 0.63607 0.82697 0.00011 0.0
O389 O 0.55612 0.83941 0.00056 0.0
O390 O 0.61132 0.80905 0.9197 0.0
O391 O 0.55727 0.82176 0.94851 0.0
Co392 Co 0.41089 0.18236 0.69887 0.0
O393 O 0.45486 0.18565 0.73636 0.0
O394 O 0.36007 0.18676 0.73178 0.0
C395 C 0.45357 0.16397 0.68337 0.0
O396 O 0.34874 0.17916 0.66751 0.0
Co397 Co 0.45699 0.18285 0.63172 0.0
O398 O 0.37957 0.17671 0.61842 0.0
C399 C 0.44646 0.20727 0.66666 0.0
C400 C 0.40508 0.18786 0.74925 0.0
C401 C 0.33974 0.17651 0.63877 0.0
O402 O 0.41669 0.20116 0.68713 0.0
O403 O 0.47125 0.20152 0.6438 0.0
O404 O 0.41594 0.16384 0.70579 0.0
O405 O 0.46894 0.17533 0.67331 0.0
Co406 Co 0.34115 0.57257 0.70774 0.0
O407 O 0.3019 0.57013 0.7471 0.0
O408 O 0.39593 0.56877 0.7392 0.0
C409 C 0.29723 0.5907 0.69148 0.0
O410 O 0.39904 0.57486 0.67355 0.0
Co411 Co 0.28582 0.5706 0.64286 0.0
O412 O 0.36199 0.57571 0.62543 0.0
C413 C 0.29783 0.54722 0.68147 0.0
C414 C 0.35305 0.56798 0.75832 0.0
C415 C 0.40439 0.57646 0.64408 0.0
O416 O 0.33297 0.55355 0.69876 0.0
O417 O 0.2695 0.55259 0.65933 0.0
O418 O 0.33765 0.59124 0.71236 0.0
O419 O 0.28016 0.57917 0.68366 0.0
Co420 Co 0.42566 0.56229 0.03517 0.0
O421 O 0.47282 0.55988 -0.00159 0.0
O422 O 0.37808 0.55781 0.00092 0.0
C423 C 0.46443 0.58087 0.0524 0.0
O424 O 0.36069 0.56462 0.06535 0.0
Co425 Co 0.46682 0.56152 0.10309 0.0
O426 O 0.38893 0.56803 0.11451 0.0
C427 C 0.46142 0.53727 0.06701 0.0
C428 C 0.42443 0.55744 0.9843 0.0
C429 C 0.34996 0.56766 0.0937 0.0
O430 O 0.43367 0.54345 0.04587 0.0
O431 O 0.48309 0.5429 0.09095 0.0
O432 O 0.42801 0.58089 0.02942 0.0
O433 O 0.48085 0.56955 0.06225 0.0
Co434 Co 0.33439 0.18515 0.02868 0.0
O435 O 0.29042 0.18734 0.99071 0.0
O436 O 0.38527 0.18841 -0.00493 0.0
C437 C 0.29138 0.16739 0.04778 0.0
O438 O 0.3965 0.18287 0.06047 0.0
Co439 Co 0.28845 0.18807 0.09544 0.0
O440 O 0.3649 0.18159 0.10965 0.0
C441 C 0.29772 0.21102 0.05515 0.0
C442 C 0.34027 0.18912 0.97749 0.0
C443 C 0.405 0.18079 0.08952 0.0
O444 O 0.32927 0.20427 0.03677 0.0
O445 O 0.27221 0.20608 0.07886 0.0
O446 O 0.32869 0.16648 0.02531 0.0
O447 O 0.27627 0.17907 0.05559 0.0
H448 H 0.08629 0.41182 0.3795 0.0
H449 H 0.0769 0.33502 0.36484 0.0
H450 H 0.1088 0.38491 0.45553 0.0
H451 H 0.09153 0.36137 0.28713 0.0
H452 H 0.05149 0.35339 0.3987 0.0
H453 H 0.05234 0.39382 0.34651 0.0
C454 C 0.0823 0.4022 0.38944 0.0
C455 C 0.1011 0.3997 0.4199 0.0
C456 C 0.05849 0.3551 0.37402 0.0
C457 C 0.06308 0.3792 0.38272 0.0
C458 C 0.07247 0.34461 0.35474 0.0
C459 C 0.08666 0.34681 0.32343 0.0
C460 C 0.0594 0.36779 0.36176 0.0
C461 C 0.08116 0.35939 0.31135 0.0
C462 C 0.06323 0.39193 0.37069 0.0
C463 C 0.09544 0.38711 0.43187 0.0
N464 N 0.06894 0.36946 0.33064 0.0
N465 N 0.07771 0.37729 0.41315 0.0
H466 H 0.19349 0.90405 0.32752 0.0
H467 H 0.03778 0.85623 0.44531 0.0
H468 H 0.04328 0.91335 0.38155 0.0
H469 H 0.18254 0.84476 0.38899 0.0
H470 H 0.05529 0.87876 0.43153 0.0
H471 H 0.20715 0.88446 0.35931 0.0
C472 C 0.16516 0.90231 0.34715 0.0
C473 C 0.11737 0.91032 0.35214 0.0
C474 C 0.08375 0.87139 0.42232 0.0
C475 C 0.13127 0.88777 0.3877 0.0
C476 C 0.07358 0.85849 0.43009 0.0
C477 C 0.10799 0.84858 0.41771 0.0
C478 C 0.12805 0.87451 0.4014 0.0
C479 C 0.15462 0.85211 0.39875 0.0
C480 C 0.17238 0.89102 0.36495 0.0
C481 C 0.08088 0.90745 0.37718 0.0
N482 N 0.16265 0.86479 0.39063 0.0
N483 N 0.08805 0.89632 0.39368 0.0
H484 H 0.05189 0.90948 0.89378 0.0
H485 H 0.07859 0.83322 0.87973 0.0
H486 H 0.14746 0.88441 0.95522 0.0
H487 H 0.03076 0.85873 0.80449 0.0
H488 H 0.0616 0.85088 0.91693 0.0
H489 H 0.00524 0.89027 0.87101 0.0
C490 C 0.06155 0.89997 0.90313 0.0
C491 C 0.10428 0.89841 0.92583 0.0
C492 C 0.05254 0.85248 0.89241 0.0
C493 C 0.05146 0.87657 0.90025 0.0
C494 C 0.06153 0.84234 0.87127 0.0
C495 C 0.05643 0.84464 0.83917 0.0
C496 C 0.03913 0.86493 0.88109 0.0
C497 C 0.03532 0.85668 0.82919 0.0
C498 C 0.03511 0.88903 0.89015 0.0
C499 C 0.11547 0.88593 0.93725 0.0
N500 N 0.02869 0.8665 0.85002 0.0
N501 N 0.08985 0.87547 0.92405 0.0
H502 H 0.21335 0.40656 0.79847 0.0
H503 H 0.23426 0.3486 0.92032 0.0
H504 H 0.16578 0.40961 0.89547 0.0
H505 H 0.14708 0.34569 0.83187 0.0
H506 H 0.2659 0.37053 0.90624 0.0
H507 H 0.24517 0.38417 0.80776 0.0
C508 C 0.21264 0.40276 0.82208 0.0
C509 C 0.18715 0.40988 0.84634 0.0
C510 C 0.24232 0.3648 0.88934 0.0
C511 C 0.22358 0.3845 0.85699 0.0
C512 C 0.22477 0.35225 0.89715 0.0
C513 C 0.18783 0.3454 0.87721 0.0
C514 C 0.22385 0.3703 0.86113 0.0
C515 C 0.17555 0.3507 0.8478 0.0
C516 C 0.23034 0.38998 0.82724 0.0
C517 C 0.18553 0.40442 0.87629 0.0
N518 N 0.19278 0.36296 0.8408 0.0
N519 N 0.20291 0.39197 0.88074 0.0
H520 H 0.92257 0.60725 0.53278 0.0
H521 H 0.94491 0.63498 0.70253 0.0
H522 H 0.97731 0.5833 0.60989 0.0
H523 H 0.9787 0.65939 0.62277 0.0
H524 H 0.95355 0.61586 0.66906 0.0
H525 H 0.93953 0.62658 0.56483 0.0
C526 C 0.93864 0.60607 0.55636 0.0
C527 C 0.94805 0.59367 0.56883 0.0
C528 C 0.95994 0.62538 0.65895 0.0
C529 C 0.96676 0.61566 0.60559 0.0
C530 C 0.95484 0.63629 0.67799 0.0
C531 C 0.96088 0.64874 0.66529 0.0
C532 C 0.96956 0.62697 0.62681 0.0
C533 C 0.97386 0.64993 0.63341 0.0
C534 C 0.94857 0.61709 0.57453 0.0
C535 C 0.96924 0.59268 0.59941 0.0
N536 N 0.97671 0.63916 0.61506 0.0
N537 N 0.97697 0.60353 0.61696 0.0
H538 H 0.77041 0.09305 0.62107 0.0
H539 H 0.76855 0.1707 0.61714 0.0
H540 H 0.81318 0.117 0.70036 0.0
H541 H 0.80951 0.14749 0.53623 0.0
H542 H 0.75686 0.15076 0.64773 0.0
H543 H 0.75738 0.11283 0.58951 0.0
C544 C 0.77608 0.10246 0.63191 0.0
C545 C 0.79338 0.10345 0.66319 0.0
C546 C 0.7677 0.15007 0.62317 0.0
C547 C 0.77793 0.12592 0.62767 0.0
C548 C 0.77418 0.16142 0.6057 0.0
C549 C 0.79073 0.16073 0.57424 0.0
C550 C 0.77692 0.13797 0.60891 0.0
C551 C 0.79738 0.14844 0.56055 0.0
C552 C 0.76891 0.11369 0.61393 0.0
C553 C 0.80044 0.11584 0.67618 0.0
N554 N 0.79066 0.13752 0.578 0.0
N555 N 0.79272 0.12659 0.65838 0.0
H556 H 0.96944 0.16235 0.13125 0.0
H557 H 0.96379 0.08487 0.12941 0.0
H558 H 0.92095 0.14018 0.21262 0.0
H559 H 0.91097 0.10835 0.05113 0.0
H560 H 0.97753 0.10483 0.16036 0.0
H561 H 0.97896 0.14208 0.10172 0.0
C562 C 0.9618 0.15322 0.14305 0.0
C563 C 0.94358 0.15292 0.17427 0.0
C564 C 0.96355 0.10554 0.13628 0.0
C565 C 0.95512 0.1298 0.14085 0.0
C566 C 0.95587 0.09422 0.11868 0.0
C567 C 0.93569 0.09503 0.08789 0.0
C568 C 0.95249 0.11767 0.12255 0.0
C569 C 0.92591 0.10734 0.07497 0.0
C570 C 0.96704 0.14169 0.12618 0.0
C571 C 0.9344 0.14081 0.18844 0.0
N572 N 0.93456 0.11818 0.09232 0.0
N573 N 0.94008 0.1297 0.17159 0.0
H574 H 0.82084 0.61078 0.20418 0.0
H575 H 0.83572 0.64495 0.04096 0.0
H576 H 0.78687 0.58969 0.11912 0.0
H577 H 0.78091 0.66604 0.12272 0.0
H578 H 0.8225 0.62458 0.06936 0.0
H579 H 0.80997 0.63119 0.17552 0.0
C580 C 0.81045 0.61046 0.17951 0.0
C581 C 0.80508 0.59856 0.1639 0.0
C582 C 0.81269 0.63365 0.08098 0.0
C583 C 0.79372 0.62182 0.13097 0.0
C584 C 0.82055 0.64527 0.06488 0.0
C585 C 0.80967 0.65717 0.07963 0.0
C586 C 0.79524 0.63393 0.11234 0.0
C587 C 0.78972 0.65705 0.11055 0.0
C588 C 0.80406 0.6221 0.16324 0.0
C589 C 0.79135 0.59867 0.132 0.0
N590 N 0.78404 0.6456 0.12612 0.0
N591 N 0.78717 0.61014 0.11642 0.0
H592 H 0.63548 0.40598 0.85874 0.0
H593 H 0.60196 0.33606 0.88291 0.0
H594 H 0.53823 0.39465 0.93985 0.0
H595 H 0.55667 0.35022 0.79151 0.0
H596 H 0.5744 0.3571 0.90522 0.0
H597 H 0.60328 0.38623 0.83199 0.0
C598 C 0.6052 0.39961 0.87031 0.0
C599 C 0.58888 0.40194 0.90129 0.0
C600 C 0.56832 0.35543 0.88044 0.0
C601 C 0.55486 0.3791 0.87179 0.0
C602 C 0.58381 0.34343 0.86781 0.0
C603 C 0.58079 0.34144 0.83551 0.0
C604 C 0.55251 0.3656 0.86036 0.0
C605 C 0.55869 0.35139 0.81665 0.0
C606 C 0.58708 0.38833 0.85518 0.0
C607 C 0.55098 0.39323 0.91575 0.0
N608 N 0.54717 0.36323 0.82919 0.0
N609 N 0.53679 0.38193 0.90128 0.0
H610 H 0.70333 0.83857 0.86962 0.0
H611 H 0.70937 0.91428 0.83912 0.0
H612 H 0.68804 0.86791 0.94076 0.0
H613 H 0.67898 0.88482 0.76958 0.0
H614 H 0.74264 0.89737 0.87531 0.0
H615 H 0.73691 0.8552 0.83285 0.0
C616 C 0.70964 0.84841 0.87783 0.0
C617 C 0.69246 0.85199 0.90795 0.0
C618 C 0.7303 0.89467 0.85179 0.0
C619 C 0.72897 0.87102 0.8662 0.0
C620 C 0.71157 0.90432 0.83117 0.0
C621 C 0.69027 0.90083 0.80175 0.0
C622 C 0.72773 0.88155 0.84267 0.0
C623 C 0.69394 0.88782 0.79243 0.0
C624 C 0.72822 0.85792 0.85684 0.0
C625 C 0.70053 0.86487 0.91751 0.0
N626 N 0.71132 0.87862 0.81299 0.0
N627 N 0.71712 0.87399 0.89651 0.0
H628 H 0.48586 0.84006 0.32335 0.0
H629 H 0.52916 0.90358 0.3403 0.0
H630 H 0.60681 0.8414 0.39937 0.0
H631 H 0.53047 0.89825 0.44007 0.0
H632 H 0.49779 0.88112 0.33394 0.0
H633 H 0.44495 0.86065 0.34136 0.0
C634 C 0.50173 0.84431 0.34484 0.0
C635 C 0.55051 0.83921 0.35961 0.0
C636 C 0.50197 0.885 0.35734 0.0
C637 C 0.50486 0.86273 0.37979 0.0
C638 C 0.51987 0.89783 0.36091 0.0
C639 C 0.53197 0.9027 0.39071 0.0
C640 C 0.49873 0.87689 0.38373 0.0
C641 C 0.52095 0.89481 0.41672 0.0
C642 C 0.47885 0.85614 0.35481 0.0
C643 C 0.56971 0.84515 0.38714 0.0
N644 N 0.5071 0.88211 0.41261 0.0
N645 N 0.5476 0.85677 0.39601 0.0
H646 H 0.70596 0.35328 0.43503 0.0
H647 H 0.63469 0.41494 0.38853 0.0
H648 H 0.60474 0.34664 0.35234 0.0
H649 H 0.68112 0.40302 0.29543 0.0
H650 H 0.6634 0.39352 0.40805 0.0
H651 H 0.73459 0.37451 0.41402 0.0
C652 C 0.69209 0.35602 0.41179 0.0
C653 C 0.65281 0.34829 0.39534 0.0
C654 C 0.66966 0.39578 0.38356 0.0
C655 C 0.68491 0.37239 0.37152 0.0
C656 C 0.65333 0.40798 0.37249 0.0
C657 C 0.65639 0.41071 0.34049 0.0
C658 C 0.68669 0.38616 0.36222 0.0
C659 C 0.67913 0.40128 0.32037 0.0
C660 C 0.7079 0.36816 0.40005 0.0
C661 C 0.63505 0.35237 0.36565 0.0
N662 N 0.69153 0.38923 0.33139 0.0
N663 N 0.65078 0.36423 0.35478 0.0
H664 H 0.45757 0.60541 0.02932 0.0
H665 H 0.4592 0.63788 0.19467 0.0
H666 H 0.50439 0.58407 0.11217 0.0
H667 H 0.48786 0.66046 0.11129 0.0
H668 H 0.47688 0.61807 0.16491 0.0
H669 H 0.46979 0.62571 0.05818 0.0
C670 C 0.47111 0.60502 0.05352 0.0
C671 C 0.47941 0.59306 0.06852 0.0
C672 C 0.48025 0.62735 0.15317 0.0
C673 C 0.49267 0.6162 0.10172 0.0
C674 C 0.46993 0.63865 0.17009 0.0
C675 C 0.47175 0.65077 0.15528 0.0
C676 C 0.49099 0.62815 0.12097 0.0
C677 C 0.48614 0.65127 0.1235 0.0
C678 C 0.47832 0.6166 0.06991 0.0
C679 C 0.49734 0.59308 0.09978 0.0
N680 N 0.49417 0.64007 0.10718 0.0
N681 N 0.50238 0.60449 0.11554 0.0
H682 H 0.29432 0.14216 0.02925 0.0
H683 H 0.30626 0.11504 0.19972 0.0
H684 H 0.25455 0.16633 0.10864 0.0
H685 H 0.26307 0.09015 0.12221 0.0
H686 H 0.2883 0.13399 0.16682 0.0
H687 H 0.28318 0.12293 0.06222 0.0
C688 C 0.28245 0.1434 0.05355 0.0
C689 C 0.27586 0.15584 0.06634 0.0
C690 C 0.28188 0.12439 0.15711 0.0
C691 C 0.26413 0.13393 0.10424 0.0
C692 C 0.2924 0.11358 0.17581 0.0
C693 C 0.28645 0.10104 0.16353 0.0
C694 C 0.26676 0.12265 0.12566 0.0
C695 C 0.26809 0.09967 0.13251 0.0
C696 C 0.27592 0.13243 0.0723 0.0
C697 C 0.2602 0.15691 0.09788 0.0
N698 N 0.25989 0.11037 0.1144 0.0
N699 N 0.25595 0.14609 0.11594 0.0
H700 H 0.44034 0.10745 0.5411 0.0
H701 H 0.4483 0.13938 0.70638 0.0
H702 H 0.47959 0.08461 0.62277 0.0
H703 H 0.49337 0.16095 0.62353 0.0
H704 H 0.45978 0.11916 0.67706 0.0
H705 H 0.45902 0.12719 0.57096 0.0
C706 C 0.45346 0.10661 0.56531 0.0
C707 C 0.45809 0.09443 0.57964 0.0
C708 C 0.46815 0.12831 0.66546 0.0
C709 C 0.47863 0.11696 0.61403 0.0
C710 C 0.46141 0.13984 0.68211 0.0
C711 C 0.46928 0.15184 0.66722 0.0
C712 C 0.48149 0.12881 0.63352 0.0
C713 C 0.48661 0.1519 0.63584 0.0
C714 C 0.46443 0.11787 0.58226 0.0
C715 C 0.47559 0.09385 0.61094 0.0
N716 N 0.49105 0.14055 0.61982 0.0
N717 N 0.48421 0.105 0.62735 0.0
H718 H 0.28734 0.64223 0.53894 0.0
H719 H 0.31066 0.61587 0.7095 0.0
H720 H 0.28063 0.66808 0.61805 0.0
H721 H 0.24523 0.59233 0.63417 0.0
H722 H 0.29591 0.63524 0.6775 0.0
H723 H 0.26762 0.62394 0.57357 0.0
C724 C 0.28077 0.64405 0.56363 0.0
C725 C 0.28594 0.65662 0.57579 0.0
C726 C 0.28378 0.62587 0.66818 0.0
C727 C 0.26471 0.63573 0.61566 0.0
C728 C 0.2924 0.6148 0.68636 0.0
C729 C 0.27987 0.60247 0.67426 0.0
C730 C 0.26365 0.62455 0.63745 0.0
C731 C 0.25586 0.60164 0.6443 0.0
C732 C 0.26935 0.63362 0.58336 0.0
C733 C 0.27688 0.6585 0.60785 0.0
N734 N 0.24955 0.61252 0.62666 0.0
N735 N 0.26787 0.6481 0.62687 0.0
H736 H 0.54383 0.30133 0.36755 0.0
H737 H 0.20066 0.29981 0.36319 0.0
H738 H 0.4373 0.3102 0.44722 0.0
H739 H 0.3052 0.30848 0.28258 0.0
H740 H 0.28839 0.29781 0.39467 0.0
H741 H 0.45659 0.29808 0.33611 0.0
C742 C 0.50216 0.30242 0.37843 0.0
C743 C 0.49739 0.3062 0.40973 0.0
C744 C 0.29186 0.30004 0.37 0.0
C745 C 0.39854 0.30237 0.37451 0.0
C746 C 0.24203 0.30117 0.35214 0.0
C747 C 0.24597 0.30449 0.3205 0.0
C748 C 0.34556 0.30203 0.35583 0.0
C749 C 0.30044 0.3061 0.30709 0.0
C750 C 0.45263 0.30061 0.36059 0.0
C751 C 0.44261 0.30749 0.42294 0.0
N752 N 0.34821 0.30487 0.32486 0.0
N753 N 0.39523 0.30559 0.40524 0.0
H754 H 0.92985 0.927 0.27287 0.0
H755 H 0.67988 0.966 0.35825 0.0
H756 H 0.95494 0.96166 0.32781 0.0
H757 H 0.66864 0.92556 0.33393 0.0
H758 H 0.7709 0.96744 0.32985 0.0
H759 H 0.82631 0.92898 0.28068 0.0
C760 C 0.91353 0.93503 0.28657 0.0
C761 C 0.95093 0.94408 0.30016 0.0
C762 C 0.74742 0.95837 0.32973 0.0
C763 C 0.83277 0.94654 0.30846 0.0
C764 C 0.69498 0.95762 0.34534 0.0
C765 C 0.6671 0.94565 0.3482 0.0
C766 C 0.77148 0.94705 0.31702 0.0
C767 C 0.68902 0.93496 0.33198 0.0
C768 C 0.85451 0.9362 0.29079 0.0
C769 C 0.92757 0.95436 0.31738 0.0
N770 N 0.74065 0.93584 0.3175 0.0
N771 N 0.86986 0.9553 0.32114 0.0
H772 H 0.53479 0.95185 0.83773 0.0
H773 H 0.22209 0.92309 0.85919 0.0
H774 H 0.46343 0.92473 0.77145 0.0
H775 H 0.27893 0.95877 0.90135 0.0
H776 H 0.30824 0.92314 0.8259 0.0
H777 H 0.44104 0.95362 0.86264 0.0
C778 C 0.49943 0.94619 0.82857 0.0
C779 C 0.50679 0.93811 0.80258 0.0
C780 C 0.30103 0.93113 0.84185 0.0
C781 C 0.39926 0.94017 0.83075 0.0
C782 C 0.25172 0.93117 0.86046 0.0
C783 C 0.24355 0.94106 0.88239 0.0
C784 C 0.34248 0.9409 0.84602 0.0
C785 C 0.28371 0.95111 0.88422 0.0
C786 C 0.44577 0.94731 0.84258 0.0
C787 C 0.45943 0.93106 0.79151 0.0
N788 N 0.3319 0.95069 0.86656 0.0
N789 N 0.40757 0.9322 0.80578 0.0
H790 H 0.69678 0.30853 0.86792 0.0
H791 H 0.0311 0.29089 0.86183 0.0
H792 H 0.77299 0.28636 0.79338 0.0
H793 H 0.95598 0.32089 0.9192 0.0
H794 H 0.93473 0.28548 0.84242 0.0
H795 H 0.7893 0.30853 0.89517 0.0
C796 C 0.73252 0.3032 0.85805 0.0
C797 C 0.72784 0.29732 0.82875 0.0
C798 C 0.93966 0.29322 0.85932 0.0
C799 C 0.8335 0.29772 0.85868 0.0
C800 C 0.99454 0.29638 0.87011 0.0
C801 C 0.00151 0.3064 0.89193 0.0
C802 C 0.89187 0.30008 0.87074 0.0
C803 C 0.9527 0.31312 0.90227 0.0
C804 C 0.78543 0.30337 0.87323 0.0
C805 C 0.77542 0.29088 0.8162 0.0
N806 N 0.90005 0.30982 0.89163 0.0
N807 N 0.8267 0.29136 0.83108 0.0
H808 H 0.79447 0.67736 0.58669 0.0
H809 H 0.47256 0.68505 0.64973 0.0
H810 H 0.74881 0.67948 0.68451 0.0
H811 H 0.5156 0.67721 0.55328 0.0
H812 H 0.57438 0.68317 0.66304 0.0
H813 H 0.69207 0.67757 0.5736 0.0
C814 C 0.76313 0.67784 0.60535 0.0
C815 C 0.78041 0.67845 0.63667 0.0
C816 C 0.56129 0.68181 0.63899 0.0
C817 C 0.66371 0.67872 0.62201 0.0
C818 C 0.5032 0.68287 0.63144 0.0
C819 C 0.48545 0.68139 0.60038 0.0
C820 C 0.60167 0.67931 0.61526 0.0
C821 C 0.52714 0.67855 0.57756 0.0
C822 C 0.70475 0.67794 0.59792 0.0
C823 C 0.73782 0.67903 0.65997 0.0
N824 N 0.58321 0.67767 0.58544 0.0
N825 N 0.68163 0.6792 0.65215 0.0
H826 H 0.96418 0.06589 0.59004 0.0
H827 H 0.28479 0.07079 0.65755 0.0
H828 H 0.00432 0.07669 0.68512 0.0
H829 H 0.24238 0.05829 0.56397 0.0
H830 H 0.18188 0.07311 0.6685 0.0
H831 H 0.06703 0.06372 0.57956 0.0
C832 C 0.99452 0.06789 0.60858 0.0
C833 C 0.97559 0.07137 0.63849 0.0
C834 C 0.19537 0.06983 0.64561 0.0
C835 C 0.09289 0.06883 0.6269 0.0
C836 C 0.25399 0.06844 0.63948 0.0
C837 C 0.27225 0.06446 0.6098 0.0
C838 C 0.15517 0.06718 0.62188 0.0
C839 C 0.23047 0.06156 0.58713 0.0
C840 C 0.05316 0.06659 0.6027 0.0
C841 C 0.01684 0.07384 0.66174 0.0
N842 N 0.17408 0.06303 0.5936 0.0
N843 N 0.07344 0.07249 0.65548 0.0
H844 H 0.49928 0.08254 0.17433 0.0
H845 H 0.7426 0.04993 0.06962 0.0
H846 H 0.46299 0.05917 0.09302 0.0
H847 H 0.77789 0.07283 0.15186 0.0
H848 H 0.64035 0.05291 0.07822 0.0
H849 H 0.6014 0.07965 0.16529 0.0
C850 C 0.51294 0.07691 0.15427 0.0
C851 C 0.47267 0.07099 0.13447 0.0
C852 C 0.6703 0.05721 0.09454 0.0
C853 C 0.58978 0.06747 0.12431 0.0
C854 C 0.72875 0.05546 0.08979 0.0
C855 C 0.76882 0.06121 0.11003 0.0
C856 C 0.65156 0.06482 0.11966 0.0
C857 C 0.74846 0.06819 0.13582 0.0
C858 C 0.5713 0.07521 0.14926 0.0
C859 C 0.49267 0.06392 0.10874 0.0
N860 N 0.69108 0.06989 0.13976 0.0
N861 N 0.55004 0.06225 0.10455 0.0
H862 H 0.00703 0.70212 0.07023 0.0
H863 H 0.25851 0.66757 0.16492 0.0
H864 H 0.97692 0.67625 0.14783 0.0
H865 H 0.2873 0.69224 0.08498 0.0
H866 H 0.15548 0.67012 0.1582 0.0
H867 H 0.10972 0.69899 0.07628 0.0
C868 C 0.0222 0.69588 0.08888 0.0
C869 C 0.98345 0.68936 0.10852 0.0
C870 C 0.18413 0.67489 0.14192 0.0
C871 C 0.10125 0.68558 0.11519 0.0
C872 C 0.24296 0.67338 0.14559 0.0
C873 C 0.28136 0.67978 0.12553 0.0
C874 C 0.1634 0.68294 0.11812 0.0
C875 C 0.25909 0.6871 0.10082 0.0
C876 C 0.08088 0.69404 0.09214 0.0
C877 C 0.00539 0.6815 0.13235 0.0
N878 N 0.20137 0.6886 0.098 0.0
N879 N 0.06304 0.67974 0.13487 0.0
H880 H 0.52159 0.79402 0.89339 0.0
H881 H 0.26255 0.83149 0.8137 0.0
H882 H 0.49695 0.83526 0.90352 0.0
H883 H 0.24317 0.79249 0.84875 0.0
H884 H 0.35809 0.83248 0.83694 0.0
H885 H 0.42926 0.79267 0.86559 0.0
C886 C 0.49744 0.80281 0.88893 0.0
C887 C 0.51636 0.81477 0.90048 0.0
C888 C 0.33281 0.82373 0.83963 0.0
C889 C 0.41198 0.81331 0.86941 0.0
C890 C 0.27839 0.82317 0.82651 0.0
C891 C 0.24516 0.81192 0.82959 0.0
C892 C 0.35453 0.81286 0.85531 0.0
C893 C 0.26749 0.80138 0.84629 0.0
C894 C 0.4447 0.80201 0.87358 0.0
C895 C 0.48344 0.82587 0.89486 0.0
N896 N 0.32134 0.80205 0.85837 0.0
N897 N 0.43271 0.82488 0.87965 0.0
H898 H 0.80752 0.42403 0.95794 0.0
H899 H 0.99826 0.4695 0.84862 0.0
H900 H 0.74011 0.45654 0.90606 0.0
H901 H 0.05986 0.43442 0.89163 0.0
H902 H 0.90853 0.46744 0.87798 0.0
H903 H 0.90369 0.42962 0.94032 0.0
C904 C 0.81294 0.43233 0.94267 0.0
C905 C 0.76573 0.43978 0.93319 0.0
C906 C 0.9422 0.46037 0.88167 0.0
C907 C 0.876 0.44633 0.91327 0.0
C908 C 0.99365 0.46168 0.86537 0.0
C909 C 0.03632 0.45222 0.86829 0.0
C910 C 0.93344 0.4494 0.90055 0.0
C911 C 0.02804 0.442 0.88929 0.0
C912 C 0.86797 0.43556 0.93279 0.0
C913 C 0.77532 0.45046 0.91362 0.0
N914 N 0.97712 0.44076 0.90439 0.0
N915 N 0.82949 0.45342 0.90423 0.0
H916 H 0.46922 0.46726 0.31434 0.0
H917 H 0.32136 0.43125 0.45776 0.0
H918 H 0.56133 0.44283 0.37865 0.0
H919 H 0.23084 0.4559 0.39288 0.0
H920 H 0.41172 0.43736 0.43304 0.0
H921 H 0.38496 0.46612 0.34812 0.0
C922 C 0.47211 0.46206 0.33631 0.0
C923 C 0.52197 0.45527 0.34415 0.0
C924 C 0.37216 0.44147 0.42426 0.0
C925 C 0.42535 0.45331 0.382 0.0
C926 C 0.32049 0.43792 0.4382 0.0
C927 C 0.26851 0.443 0.42712 0.0
C928 C 0.37186 0.45015 0.39901 0.0
C929 C 0.26992 0.45167 0.40193 0.0
C930 C 0.42389 0.46126 0.35536 0.0
C931 C 0.52368 0.44838 0.37228 0.0
N932 N 0.32081 0.45494 0.38865 0.0
N933 N 0.47552 0.44739 0.39004 0.0
H934 H 0.73794 0.78763 0.34596 0.0
H935 H 0.0476 0.82024 0.35127 0.0
H936 H 0.77747 0.8249 0.30532 0.0
H937 H 0.01212 0.78161 0.38427 0.0
H938 H 0.95216 0.82096 0.32744 0.0
H939 H 0.84017 0.78452 0.35691 0.0
C940 C 0.76803 0.7952 0.33974 0.0
C941 C 0.74935 0.80655 0.32494 0.0
C942 C 0.96582 0.81215 0.33905 0.0
C943 C 0.866 0.80299 0.33663 0.0
C944 C 0.02068 0.81167 0.35203 0.0
C945 C 0.0374 0.8008 0.36925 0.0
C946 C 0.92772 0.80175 0.34394 0.0
C947 C 0.00053 0.7901 0.37074 0.0
C948 C 0.8264 0.79337 0.34555 0.0
C949 C 0.79011 0.816 0.31687 0.0
N950 N 0.94688 0.79091 0.35875 0.0
N951 N 0.84647 0.81402 0.32286 0.0
H952 H 0.72709 0.17337 0.18622 0.0
H953 H 0.49325 0.17431 0.05106 0.0
H954 H 0.76881 0.17663 0.08812 0.0
H955 H 0.45241 0.17985 0.14868 0.0
H956 H 0.59307 0.1711 0.06477 0.0
H957 H 0.62624 0.17163 0.17287 0.0
C958 C 0.71515 0.17366 0.16176 0.0
C959 C 0.75654 0.1754 0.1382 0.0
C960 C 0.56234 0.17296 0.08323 0.0
C961 C 0.64062 0.17336 0.12292 0.0
C962 C 0.50514 0.17482 0.0755 0.0
C963 C 0.46433 0.17761 0.09878 0.0
C964 C 0.57924 0.17385 0.1145 0.0
C965 C 0.48242 0.17785 0.12999 0.0
C966 C 0.6574 0.17265 0.15425 0.0
C967 C 0.73838 0.17541 0.10701 0.0
N968 N 0.53883 0.17611 0.13694 0.0
N969 N 0.68153 0.17454 0.10027 0.0
H970 H 0.30008 0.57123 0.15166 0.0
H971 H 0.98245 0.57248 0.08092 0.0
H972 H 0.26188 0.57093 0.05284 0.0
H973 H 0.02051 0.57582 0.17942 0.0
H974 H 0.0854 0.57364 0.06982 0.0
H975 H 0.19781 0.57455 0.16236 0.0
C976 C 0.27041 0.57194 0.13228 0.0
C977 C 0.28954 0.57059 0.1014 0.0
C978 C 0.07103 0.57422 0.09384 0.0
C979 C 0.17291 0.57437 0.11332 0.0
C980 C 0.01228 0.57358 0.10013 0.0
C981 C 0.99285 0.57383 0.13111 0.0
C982 C 0.11034 0.57509 0.11873 0.0
C983 C 0.03348 0.57534 0.15515 0.0
C984 C 0.21208 0.57384 0.13834 0.0
C985 C 0.24916 0.57169 0.07711 0.0
N986 N 0.09021 0.57579 0.14847 0.0
N987 N 0.19286 0.57341 0.08361 0.0
H988 H 0.77146 0.57652 0.64595 0.0
H989 H 0.44772 0.57154 0.58534 0.0
H990 H 0.72458 0.566 0.55158 0.0
H991 H 0.49539 0.58562 0.67676 0.0
H992 H 0.54947 0.57114 0.57089 0.0
H993 H 0.6703 0.58102 0.65697 0.0
C994 C 0.74006 0.57515 0.62761 0.0
C995 C 0.75662 0.57079 0.59793 0.0
C996 C 0.53749 0.57446 0.594 0.0
C997 C 0.64112 0.57597 0.61019 0.0
C998 C 0.47943 0.57477 0.60212 0.0
C999 C 0.46325 0.5784 0.6324 0.0
C1000 C 0.57924 0.57778 0.6164 0.0
C1001 C 0.50608 0.5825 0.6533 0.0
C1002 C 0.68237 0.57778 0.63381 0.0
C1003 C 0.71402 0.56928 0.57491 0.0
N1004 N 0.56208 0.58193 0.64504 0.0
N1005 N 0.65835 0.57181 0.58158 0.0
H1006 H 0.01076 0.1827 0.55122 0.0
H1007 H 0.25389 0.16828 0.67673 0.0
H1008 H 0.97753 0.17894 0.65021 0.0
H1009 H 0.28859 0.17911 0.5811 0.0
H1010 H 0.15174 0.16806 0.66531 0.0
H1011 H 0.11075 0.17771 0.56032 0.0
C1012 C 0.02433 0.18082 0.57499 0.0
C1013 C 0.98549 0.18144 0.60014 0.0
C1014 C 0.18163 0.17036 0.64673 0.0
C1015 C 0.10086 0.1756 0.61051 0.0
C1016 C 0.24002 0.17047 0.65315 0.0
C1017 C 0.27973 0.17397 0.6299 0.0
C1018 C 0.16264 0.17379 0.61684 0.0
C1019 C 0.25942 0.17645 0.59971 0.0
C1020 C 0.08169 0.17792 0.58007 0.0
C1021 C 0.00594 0.17869 0.63021 0.0
N1022 N 0.20202 0.17648 0.59413 0.0
N1023 N 0.06247 0.17597 0.6346 0.0
H1024 H 0.00583 0.22383 0.14534 0.0
H1025 H 0.96335 0.28413 0.26158 0.0
H1026 H 0.87788 0.22465 0.21834 0.0
H1027 H 0.11221 0.27822 0.20337 0.0
H1028 H 0.92066 0.26434 0.2394 0.0
H1029 H 0.03378 0.24591 0.15944 0.0
C1030 C 0.98304 0.22869 0.16404 0.0
C1031 C 0.93989 0.22227 0.1809 0.0
C1032 C 0.96247 0.26747 0.23136 0.0
C1033 C 0.972 0.24756 0.19731 0.0
C1034 C 0.98672 0.27876 0.24394 0.0
C1035 C 0.04164 0.28271 0.23458 0.0
C1036 C 0.99322 0.26023 0.20906 0.0
C1037 C 0.07007 0.27542 0.2116 0.0
C1038 C 0.99922 0.24129 0.17218 0.0
C1039 C 0.91183 0.22913 0.20488 0.0
N1040 N 0.04567 0.26454 0.19974 0.0
N1041 N 0.92867 0.24136 0.21252 0.0
H1042 H 0.12536 0.9725 0.21167 0.0
H1043 H 0.33129 0.03334 0.23923 0.0
H1044 H 0.23831 0.97526 0.29125 0.0
H1045 H 0.22545 0.02791 0.15745 0.0
H1046 H 0.30207 0.01192 0.25796 0.0
H1047 H 0.16547 0.99245 0.19107 0.0
C1048 C 0.15878 0.97732 0.22488 0.0
C1049 C 0.17813 0.97224 0.25344 0.0
C1050 C 0.28562 0.01539 0.23583 0.0
C1051 C 0.22453 0.99531 0.22977 0.0
C1052 C 0.30227 0.02763 0.22504 0.0
C1053 C 0.28056 0.03253 0.19671 0.0
C1054 C 0.24679 0.00797 0.21826 0.0
C1055 C 0.24319 0.02462 0.17944 0.0
C1056 C 0.18184 0.98874 0.21299 0.0
C1057 C 0.22203 0.97886 0.26922 0.0
N1058 N 0.22732 0.01281 0.19058 0.0
N1059 N 0.24352 0.99014 0.25728 0.0
H1060 H 0.99486 0.03502 -0.0023 0.0
H1061 H 0.02139 0.95898 0.01253 0.0
H1062 H 0.97512 0.01708 0.08818 0.0
H1063 H 0.14178 0.9813 0.95802 0.0
H1064 H 0.98374 0.97936 0.03483 0.0
H1065 H 0.0289 0.01433 0.97667 0.0
C1066 C 0.99748 0.0267 0.01311 0.0
C1067 C 0.98247 0.02775 0.04476 0.0
C1068 C 0.0183 0.97971 0.01792 0.0
C1069 C 0.02011 0.00407 0.02065 0.0
C1070 C 0.0394 0.96816 0.00506 0.0
C1071 C 0.08464 0.96853 0.98346 0.0
C1072 C 0.0416 0.99161 0.00828 0.0
C1073 C 0.10697 0.98063 0.97471 0.0
C1074 C 0.017 0.01495 0.0011 0.0
C1075 C 0.98681 0.01667 0.06371 0.0
N1076 N 0.08484 0.9917 0.98691 0.0
N1077 N 0.00479 0.0052 0.05128 0.0
H1078 H 0.35877 0.22595 0.01401 0.0
H1079 H 0.11995 0.28096 0.00635 0.0
H1080 H 0.213 0.22742 0.07616 0.0
H1081 H 0.2791 0.28324 0.95515 0.0
H1082 H 0.15547 0.26182 0.0335 0.0
H1083 H 0.33342 0.24738 -0.00582 0.0
C1084 C 0.32177 0.23084 0.0238 0.0
C1085 C 0.28764 0.22479 0.04665 0.0
C1086 C 0.1829 0.26653 0.01651 0.0
C1087 C 0.25801 0.24934 0.02363 0.0
C1088 C 0.16254 0.27744 0.00084 0.0
C1089 C 0.19645 0.28365 0.9782 0.0
C1090 C 0.23746 0.26163 0.00933 0.0
C1091 C 0.25147 0.27872 0.97233 0.0
C1092 C 0.30735 0.2431 0.01241 0.0
C1093 C 0.24052 0.23167 0.05854 0.0
N1094 N 0.27008 0.26792 0.98759 0.0
N1095 N 0.2267 0.2435 0.04661 0.0
H1096 H 0.0414 0.72049 0.6595 0.0
H1097 H 0.97479 0.77865 0.7786 0.0
H1098 H 0.90965 0.71857 0.73034 0.0
H1099 H 0.12948 0.77586 0.72359 0.0
H1100 H 0.94262 0.75792 0.7564 0.0
H1101 H 0.06619 0.74228 0.67768 0.0
C1102 C 0.01734 0.72467 0.67867 0.0
C1103 C 0.97366 0.71762 0.69353 0.0
C1104 C 0.98355 0.76189 0.74919 0.0
C1105 C 0.00187 0.74255 0.71448 0.0
C1106 C 0.00186 0.7737 0.76183 0.0
C1107 C 0.05504 0.77892 0.75312 0.0
C1108 C 0.01847 0.75536 0.72748 0.0
C1109 C 0.08837 0.77214 0.7312 0.0
C1110 C 0.03168 0.73709 0.68913 0.0
C1111 C 0.944 0.72357 0.71831 0.0
N1112 N 0.06955 0.76072 0.71915 0.0
N1113 N 0.95872 0.73567 0.72804 0.0
H1114 H 0.78016 0.96398 0.71421 0.0
H1115 H 0.76143 0.03938 0.74327 0.0
H1116 H 0.63508 0.98062 0.76206 0.0
H1117 H 0.79682 0.02554 0.65009 0.0
H1118 H 0.7384 0.01712 0.75923 0.0
H1119 H 0.81079 0.98605 0.69886 0.0
C1120 C 0.7555 0.9723 0.72189 0.0
C1121 C 0.70533 0.97061 0.73948 0.0
C1122 C 0.75156 0.019 0.73537 0.0
C1123 C 0.74012 0.99554 0.72261 0.0
C1124 C 0.76476 0.03163 0.72625 0.0
C1125 C 0.78066 0.03427 0.69528 0.0
C1126 C 0.75603 0.00888 0.71363 0.0
C1127 C 0.78418 0.02389 0.67411 0.0
C1128 C 0.77259 0.98479 0.71295 0.0
C1129 C 0.6741 0.9816 0.74852 0.0
N1130 N 0.7724 0.01158 0.68374 0.0
N1131 N 0.6923 0.99363 0.74026 0.0
H1132 H 0.77505 0.78905 0.97913 0.0
H1133 H 0.70375 0.72785 0.08818 0.0
H1134 H 0.60885 0.78268 0.02079 0.0
H1135 H 0.84546 0.72916 0.02329 0.0
H1136 H 0.67541 0.74968 0.07106 0.0
H1137 H 0.80859 0.76874 0.00258 0.0
C1138 C 0.74575 0.78342 -0.00664 0.0
C1139 C 0.68896 0.78749 -0.00222 0.0
C1140 C 0.71287 0.74518 0.06075 0.0
C1141 C 0.72705 0.76432 0.02481 0.0
C1142 C 0.72919 0.73276 0.07061 0.0
C1143 C 0.77672 0.72662 0.05696 0.0
C1144 C 0.74482 0.75153 0.03744 0.0
C1145 C 0.8081 0.73345 0.03422 0.0
C1146 C 0.76484 0.77183 0.00667 0.0
C1147 C 0.65284 0.77983 0.01652 0.0
N1148 N 0.79159 0.7455 0.02519 0.0
N1149 N 0.67245 0.76861 0.02933 0.0
H1150 H 0.3623 0.53128 0.71876 0.0
H1151 H 0.11372 0.47946 0.73713 0.0
H1152 H 0.20818 0.53176 0.6629 0.0
H1153 H 0.28427 0.47273 0.77262 0.0
H1154 H 0.14865 0.4985 0.70932 0.0
H1155 H 0.33658 0.5097 0.73776 0.0
C1156 C 0.32339 0.52679 0.71015 0.0
C1157 C 0.28705 0.53343 0.68937 0.0
C1158 C 0.17868 0.49282 0.72293 0.0
C1159 C 0.2571 0.50875 0.71143 0.0
C1160 C 0.1587 0.48197 0.73899 0.0
C1161 C 0.19609 0.47457 0.75746 0.0
C1162 C 0.23641 0.49647 0.72569 0.0
C1163 C 0.25401 0.47821 0.75871 0.0
C1164 C 0.30881 0.51445 0.72102 0.0
C1165 C 0.23744 0.52706 0.67893 0.0
N1166 N 0.27232 0.48902 0.74334 0.0
N1167 N 0.22354 0.51516 0.69041 0.0
H1168 H 0.12445 0.46846 0.53846 0.0
H1169 H 0.88674 0.52271 0.51505 0.0
H1170 H 0.98179 0.46351 0.4754 0.0
H1171 H 0.00775 0.52265 0.59144 0.0
H1172 H 0.91783 0.50084 0.50108 0.0
H1173 H 0.08009 0.48808 0.5588 0.0
C1174 C 0.08352 0.47148 0.52896 0.0
C1175 C 0.05695 0.4644 0.505 0.0
C1176 C 0.93705 0.50555 0.52111 0.0
C1177 C 0.0059 0.48699 0.52815 0.0
C1178 C 0.9194 0.51807 0.52913 0.0
C1179 C 0.94505 0.52462 0.55433 0.0
C1180 C 0.98111 0.49959 0.53818 0.0
C1181 C 0.98688 0.51804 0.57177 0.0
C1182 C 0.05808 0.48268 0.54071 0.0
C1183 C 0.00372 0.46871 0.49384 0.0
N1184 N 0.00403 0.50596 0.56313 0.0
N1185 N 0.98018 0.47984 0.50526 0.0
H1186 H 0.28429 0.7331 0.57675 0.0
H1187 H 0.25348 0.77239 0.4197 0.0
H1188 H 0.35485 0.71971 0.48912 0.0
H1189 H 0.24016 0.79099 0.50949 0.0
H1190 H 0.29592 0.75336 0.44491 0.0
H1191 H 0.27091 0.75463 0.55346 0.0
C1192 C 0.29746 0.73469 0.55278 0.0
C1193 C 0.32018 0.72449 0.53485 0.0
C1194 C 0.28529 0.76172 0.45909 0.0
C1195 C 0.30474 0.74907 0.50806 0.0
C1196 C 0.26165 0.77261 0.44463 0.0
C1197 C 0.24473 0.78329 0.46255 0.0
C1198 C 0.29007 0.76137 0.49185 0.0
C1199 C 0.25408 0.783 0.4949 0.0
C1200 C 0.29006 0.747 0.53954 0.0
C1201 C 0.33679 0.72719 0.5039 0.0
N1202 N 0.27522 0.77209 0.50866 0.0
N1203 N 0.32806 0.73914 0.49144 0.0
H1204 H 0.61969 0.47472 0.20697 0.0
H1205 H 0.8718 0.52612 0.20685 0.0
H1206 H 0.77994 0.46804 0.25459 0.0
H1207 H 0.72986 0.52766 0.14223 0.0
H1208 H 0.84245 0.5043 0.22218 0.0
H1209 H 0.66199 0.4934 0.18069 0.0
C1210 C 0.66409 0.47712 0.21166 0.0
C1211 C 0.69622 0.4699 0.23324 0.0
C1212 C 0.81817 0.50932 0.20433 0.0
C1213 C 0.74484 0.49144 0.20346 0.0
C1214 C 0.83481 0.52181 0.19557 0.0
C1215 C 0.80284 0.52882 0.17343 0.0
C1216 C 0.76866 0.50383 0.19123 0.0
C1217 C 0.75568 0.52267 0.15946 0.0
C1218 C 0.68828 0.48779 0.19656 0.0
C1219 C 0.75366 0.47338 0.23818 0.0
N1220 N 0.73952 0.5106 0.16894 0.0
N1221 N 0.77592 0.48404 0.22377 0.0
H1222 H 0.86833 0.23178 0.52607 0.0
H1223 H 0.62604 0.28569 0.53376 0.0
H1224 H 0.73396 0.23204 0.59552 0.0
H1225 H 0.77697 0.28956 0.47616 0.0
H1226 H 0.66852 0.2668 0.55889 0.0
H1227 H 0.84011 0.25358 0.51007 0.0
C1228 C 0.83332 0.23648 0.53828 0.0
C1229 C 0.80305 0.22998 0.562 0.0
C1230 C 0.69277 0.27183 0.54101 0.0
C1231 C 0.77012 0.25495 0.54344 0.0
C1232 C 0.66844 0.28261 0.52654 0.0
C1233 C 0.69782 0.28913 0.50259 0.0
C1234 C 0.74668 0.26736 0.53121 0.0
C1235 C 0.75281 0.28478 0.49445 0.0
C1236 C 0.81729 0.24895 0.5291 0.0
C1237 C 0.75843 0.23663 0.57708 0.0
N1238 N 0.7752 0.27405 0.50846 0.0
N1239 N 0.74281 0.24867 0.56724 0.0
H1240 H 0.45986 0.28318 0.75226 0.0
H1241 H 0.52417 0.22336 0.63775 0.0
H1242 H 0.615 0.2787 0.69836 0.0
H1243 H 0.38859 0.22342 0.70656 0.0
H1244 H 0.54595 0.24586 0.65146 0.0
H1245 H 0.42151 0.26348 0.72748 0.0
C1246 C 0.48536 0.27819 0.73484 0.0
C1247 C 0.54089 0.28246 0.72761 0.0
C1248 C 0.51099 0.24098 0.66329 0.0
C1249 C 0.49763 0.26003 0.69932 0.0
C1250 C 0.49839 0.22814 0.65538 0.0
C1251 C 0.455 0.2214 0.6713 0.0
C1252 C 0.47988 0.24715 0.6872 0.0
C1253 C 0.42297 0.22815 0.69393 0.0
C1254 C 0.46365 0.26693 0.72083 0.0
C1255 C 0.57223 0.27564 0.70492 0.0
N1256 N 0.43637 0.24061 0.70138 0.0
N1257 N 0.55036 0.26473 0.69176 0.0
H1258 H 0.38371 0.02275 0.52892 0.0
H1259 H 0.63412 0.97552 0.48011 0.0
H1260 H 0.55078 0.02464 0.57192 0.0
H1261 H 0.45612 0.96515 0.46847 0.0
H1262 H 0.60511 0.99394 0.51242 0.0
H1263 H 0.40909 0.00185 0.5059 0.0
C1264 C 0.42554 0.01866 0.53384 0.0
C1265 C 0.4654 0.02545 0.55219 0.0
C1266 C 0.57243 0.98758 0.503 0.0
C1267 C 0.49506 0.00167 0.5254 0.0
C1268 C 0.58887 0.97713 0.48434 0.0
C1269 C 0.54735 0.96889 0.47134 0.0
C1270 C 0.51398 0.98994 0.50827 0.0
C1271 C 0.48944 0.97132 0.47792 0.0
C1272 C 0.43993 0.00673 0.52073 0.0
C1273 C 0.51882 0.01969 0.55796 0.0
N1274 N 0.47439 0.98173 0.49565 0.0
N1275 N 0.53252 0.00821 0.54414 0.0
H1276 H 0.46978 0.77829 0.27753 0.0
H1277 H 0.53907 0.72359 0.14944 0.0
H1278 H 0.62033 0.77863 0.21883 0.0
H1279 H 0.40524 0.72021 0.21877 0.0
H1280 H 0.56205 0.74518 0.16987 0.0
H1281 H 0.4384 0.75829 0.25173 0.0
C1282 C 0.49606 0.7742 0.25913 0.0
C1283 C 0.54794 0.78007 0.2505 0.0
C1284 C 0.52742 0.73972 0.18045 0.0
C1285 C 0.51233 0.75724 0.22082 0.0
C1286 C 0.51412 0.72742 0.1687 0.0
C1287 C 0.47046 0.72 0.18253 0.0
C1288 C 0.49665 0.74468 0.20609 0.0
C1289 C 0.43963 0.72549 0.2075 0.0
C1290 C 0.4782 0.76278 0.24442 0.0
C1291 C 0.58023 0.77437 0.22642 0.0
N1292 N 0.45345 0.73745 0.21852 0.0
N1293 N 0.562 0.76326 0.2125 0.0
H1294 H 0.47838 0.46173 0.97985 0.0
H1295 H 0.53753 0.52105 0.09689 0.0
H1296 H 0.62406 0.46401 0.04176 0.0
H1297 H 0.40707 0.52137 0.0253 0.0
H1298 H 0.55993 0.49856 0.08304 0.0
H1299 H 0.44208 0.48206 0.00215 0.0
C1300 C 0.50236 0.46642 -0.00166 0.0
C1301 C 0.55458 0.46125 0.00872 0.0
C1302 C 0.52603 0.50353 0.07058 0.0
C1303 C 0.51352 0.48447 0.03429 0.0
C1304 C 0.51306 0.51636 0.07858 0.0
C1305 C 0.47083 0.52319 0.06201 0.0
C1306 C 0.49643 0.49748 0.04592 0.0
C1307 C 0.44051 0.51657 0.03848 0.0
C1308 C 0.48175 0.47804 0.01101 0.0
C1309 C 0.58389 0.46772 0.03279 0.0
N1310 N 0.45417 0.50415 0.03101 0.0
N1311 N 0.56316 0.47901 0.04461 0.0
H1312 H 0.08081 0.31386 0.17528 0.0
H1313 H 0.08982 0.35332 0.02199 0.0
H1314 H 0.17346 0.35006 0.18209 0.0
H1315 H 0.16892 0.3155 0.02849 0.0
H1316 H 0.08996 0.35463 0.07954 0.0
H1317 H 0.07515 0.31681 0.11866 0.0
C1318 C 0.09849 0.3226 0.16498 0.0
C1319 C 0.12834 0.33166 0.18312 0.0
C1320 C 0.10786 0.34619 0.06801 0.0
C1321 C 0.12151 0.33503 0.11908 0.0
C1322 C 0.10803 0.34544 0.03545 0.0
C1323 C 0.12926 0.33427 0.02062 0.0
C1324 C 0.12736 0.33555 0.08527 0.0
C1325 C 0.15237 0.3243 0.03897 0.0
C1326 C 0.09555 0.3242 0.13283 0.0
C1327 C 0.15082 0.34279 0.16863 0.0
N1328 N 0.14971 0.32506 0.07046 0.0
N1329 N 0.14734 0.34416 0.13715 0.0
H1330 H 0.18267 0.9455 0.05075 0.0
H1331 H 0.14324 0.90206 0.19215 0.0
H1332 H 0.24992 0.90659 0.04436 0.0
H1333 H 0.20695 0.94105 0.20503 0.0
H1334 H 0.17885 0.9025 0.13824 0.0
H1335 H 0.18412 0.94373 0.10783 0.0
C1336 C 0.19791 0.93662 0.06147 0.0
C1337 C 0.21595 0.92615 0.04316 0.0
C1338 C 0.18638 0.91078 0.15328 0.0
C1339 C 0.21722 0.92403 0.10779 0.0
C1340 C 0.16608 0.91055 0.18391 0.0
C1341 C 0.17139 0.9216 0.20279 0.0
C1342 C 0.21038 0.92226 0.14154 0.0
C1343 C 0.20162 0.93234 0.19115 0.0
C1344 C 0.19934 0.93566 0.09386 0.0
C1345 C 0.23576 0.91486 0.05793 0.0
N1346 N 0.21852 0.93256 0.16087 0.0
N1347 N 0.23479 0.91397 0.08958 0.0
H1348 H 0.99257 0.68298 0.80397 0.0
H1349 H 0.76732 0.683 0.94502 0.0
H1350 H 0.80933 0.67987 0.79138 0.0
H1351 H 0.94322 0.69556 0.95447 0.0
H1352 H 0.7827 0.68051 0.8887 0.0
H1353 H 0.97681 0.68591 0.86028 0.0
C1354 C 0.94923 0.68285 0.81308 0.0
C1355 C 0.90224 0.68124 0.79314 0.0
C1356 C 0.81776 0.68389 0.90316 0.0
C1357 C 0.88385 0.68457 0.85692 0.0
C1358 C 0.80888 0.68535 0.9352 0.0
C1359 C 0.85402 0.68945 0.95434 0.0
C1360 C 0.87223 0.68646 0.89044 0.0
C1361 C 0.9072 0.69233 0.94054 0.0
C1362 C 0.94017 0.68459 0.84507 0.0
C1363 C 0.84682 0.68118 0.80597 0.0
N1364 N 0.91495 0.69069 0.90944 0.0
N1365 N 0.83916 0.6828 0.83705 0.0
H1366 H 0.94193 0.07378 0.7911 0.0
H1367 H 0.7962 0.06548 0.95733 0.0
H1368 H 0.75836 0.07433 0.80445 0.0
H1369 H 0.97668 0.07338 0.94498 0.0
H1370 H 0.78153 0.06832 0.90153 0.0
H1371 H 0.95518 0.07332 0.84728 0.0
C1372 C 0.90424 0.07382 0.80591 0.0
C1373 C 0.8488 0.07398 0.79314 0.0
C1374 C 0.82429 0.06949 0.91098 0.0
C1375 C 0.86396 0.07345 0.85764 0.0
C1376 C 0.83289 0.06779 0.94282 0.0
C1377 C 0.88796 0.06909 0.9557 0.0
C1378 C 0.87118 0.07237 0.89178 0.0
C1379 C 0.93364 0.07224 0.93591 0.0
C1380 C 0.91198 0.07362 0.83803 0.0
C1381 C 0.80174 0.07416 0.81343 0.0
N1382 N 0.92428 0.0737 0.90477 0.0
N1383 N 0.8104 0.07379 0.84484 0.0
H1384 H 0.17358 0.83709 0.67657 0.0
H1385 H 0.9853 0.80753 0.5399 0.0
H1386 H 0.02803 0.81238 0.69624 0.0
H1387 H 0.1656 0.81658 0.53114 0.0
H1388 H 0.99143 0.81199 0.59605 0.0
H1389 H 0.15983 0.83325 0.62111 0.0
C1390 C 0.13821 0.83098 0.66928 0.0
C1391 C 0.10232 0.8249 0.69116 0.0
C1392 C 0.02952 0.8129 0.58172 0.0
C1393 C 0.08682 0.82045 0.62764 0.0
C1394 C 0.02618 0.81037 0.54979 0.0
C1395 C 0.07499 0.81176 0.53084 0.0
C1396 C 0.0817 0.81706 0.59445 0.0
C1397 C 0.1269 0.81538 0.54483 0.0
C1398 C 0.13075 0.82873 0.6376 0.0
C1399 C 0.05692 0.8172 0.68018 0.0
N1400 N 0.12874 0.81804 0.57579 0.0
N1401 N 0.05059 0.81511 0.64903 0.0
H1402 H 0.18515 0.424 0.72098 0.0
H1403 H 0.04878 0.42481 0.55566 0.0
H1404 H 0.0011 0.42373 0.71042 0.0
H1405 H 0.21244 0.40664 0.57394 0.0
H1406 H 0.02746 0.42399 0.61153 0.0
H1407 H 0.19507 0.41756 0.66649 0.0
C1408 C 0.14682 0.42253 0.70711 0.0
C1409 C 0.09228 0.42454 0.71987 0.0
C1410 C 0.06745 0.41994 0.60312 0.0
C1411 C 0.10322 0.41723 0.65769 0.0
C1412 C 0.0798 0.42044 0.57128 0.0
C1413 C 0.13311 0.41608 0.56021 0.0
C1414 C 0.10907 0.41523 0.62384 0.0
C1415 C 0.17127 0.41035 0.58146 0.0
C1416 C 0.15245 0.41873 0.67616 0.0
C1417 C 0.04389 0.42232 0.7012 0.0
N1418 N 0.15897 0.41033 0.61238 0.0
N1419 N 0.05047 0.419 0.67069 0.0
H1420 H 0.78354 0.19344 0.28859 0.0
H1421 H 0.93628 0.2032 0.453 0.0
H1422 H 0.96721 0.19258 0.30153 0.0
H1423 H 0.75738 0.19317 0.44313 0.0
H1424 H 0.94511 0.20423 0.39645 0.0
H1425 H 0.77139 0.19794 0.34397 0.0
C1426 C 0.82145 0.19427 0.30307 0.0
C1427 C 0.87659 0.19247 0.29058 0.0
C1428 C 0.90382 0.20191 0.40663 0.0
C1429 C 0.86266 0.19768 0.35392 0.0
C1430 C 0.8986 0.20134 0.4389 0.0
C1431 C 0.84616 0.19785 0.45266 0.0
C1432 C 0.85628 0.19899 0.38799 0.0
C1433 C 0.79864 0.19577 0.43336 0.0
C1434 C 0.81433 0.19684 0.33467 0.0
C1435 C 0.92401 0.19377 0.31034 0.0
N1436 N 0.80498 0.19623 0.40181 0.0
N1437 N 0.91592 0.19624 0.34121 0.0
H1438 H 0.98126 0.55987 0.4372 0.0
H1439 H 0.76804 0.56202 0.29189 0.0
H1440 H 0.79762 0.55561 0.44554 0.0
H1441 H 0.95158 0.55778 0.28292 0.0
H1442 H 0.7776 0.55918 0.34849 0.0
H1443 H 0.97162 0.55859 0.38028 0.0
C1444 C 0.9391 0.55855 0.42707 0.0
C1445 C 0.89019 0.55798 0.44598 0.0
C1446 C 0.81567 0.55876 0.33403 0.0
C1447 C 0.87868 0.55661 0.3813 0.0
C1448 C 0.81016 0.5604 0.3018 0.0
C1449 C 0.85907 0.56027 0.28284 0.0
C1450 C 0.87048 0.5571 0.34716 0.0
C1451 C 0.91272 0.55807 0.29675 0.0
C1452 C 0.93354 0.55781 0.39466 0.0
C1453 C 0.83649 0.55622 0.43177 0.0
N1454 N 0.91705 0.55669 0.32811 0.0
N1455 N 0.83211 0.55572 0.40025 0.0
H1456 H 0.51851 0.34652 0.54942 0.0
H1457 H 0.73875 0.33847 0.68981 0.0
H1458 H 0.69649 0.33591 0.5379 0.0
H1459 H 0.55597 0.33236 0.69697 0.0
H1460 H 0.7257 0.34582 0.63591 0.0
H1461 H 0.5358 0.34993 0.60511 0.0
C1462 C 0.56152 0.34521 0.55842 0.0
C1463 C 0.60583 0.34057 0.53927 0.0
C1464 C 0.68848 0.3431 0.64958 0.0
C1465 C 0.6256 0.34449 0.60258 0.0
C1466 C 0.6958 0.3389 0.68023 0.0
C1467 C 0.64844 0.33452 0.6975 0.0
C1468 C 0.63344 0.34303 0.63643 0.0
C1469 C 0.59373 0.33537 0.68414 0.0
C1470 C 0.57123 0.34714 0.59017 0.0
C1471 C 0.66082 0.33917 0.55208 0.0
N1472 N 0.58775 0.33941 0.65419 0.0
N1473 N 0.66901 0.34093 0.58314 0.0
H1474 H 0.70017 0.90417 0.50228 0.0
H1475 H 0.7074 0.9415 0.66534 0.0
H1476 H 0.67012 0.94521 0.51315 0.0
H1477 H 0.63525 0.90313 0.6553 0.0
H1478 H 0.73287 0.94124 0.60987 0.0
H1479 H 0.71334 0.90238 0.55931 0.0
C1480 C 0.69749 0.9128 0.51668 0.0
C1481 C 0.68325 0.92481 0.50352 0.0
C1482 C 0.71258 0.93279 0.62011 0.0
C1483 C 0.69969 0.92293 0.56756 0.0
C1484 C 0.69812 0.93291 0.65165 0.0
C1485 C 0.66802 0.92244 0.6646 0.0
C1486 C 0.69752 0.92206 0.60172 0.0
C1487 C 0.6573 0.91152 0.64592 0.0
C1488 C 0.70499 0.91178 0.54895 0.0
C1489 C 0.6802 0.93576 0.52276 0.0
N1490 N 0.67154 0.91166 0.61518 0.0
N1491 N 0.68823 0.93456 0.55395 0.0
H1492 H 0.2723 0.68448 0.43298 0.0
H1493 H 0.49621 0.67937 0.29146 0.0
H1494 H 0.45579 0.68166 0.445 0.0
H1495 H 0.31512 0.68665 0.27946 0.0
H1496 H 0.48218 0.6798 0.34819 0.0
H1497 H 0.2866 0.68468 0.37622 0.0
C1498 C 0.31542 0.68388 0.42367 0.0
C1499 C 0.36285 0.68306 0.44358 0.0
C1500 C 0.44561 0.68134 0.33306 0.0
C1501 C 0.37963 0.6833 0.37919 0.0
C1502 C 0.4537 0.68112 0.30077 0.0
C1503 C 0.4068 0.68293 0.28087 0.0
C1504 C 0.39028 0.68335 0.34527 0.0
C1505 C 0.3525 0.68515 0.29401 0.0
C1506 C 0.32366 0.68403 0.39138 0.0
C1507 C 0.41795 0.68234 0.43046 0.0
N1508 N 0.3457 0.68525 0.3254 0.0
N1509 N 0.42481 0.68246 0.39908 0.0
H1510 H 0.30519 0.05806 0.45505 0.0
H1511 H 0.44815 0.07094 0.28916 0.0
H1512 H 0.48347 0.06833 0.44314 0.0
H1513 H 0.26503 0.0686 0.30329 0.0
H1514 H 0.46272 0.06832 0.34497 0.0
H1515 H 0.29128 0.05983 0.39894 0.0
C1516 C 0.3416 0.06062 0.44057 0.0
C1517 C 0.39561 0.06314 0.45373 0.0
C1518 C 0.41934 0.06842 0.33595 0.0
C1519 C 0.37966 0.06523 0.3895 0.0
C1520 C 0.41087 0.0699 0.30407 0.0
C1521 C 0.35517 0.06997 0.29166 0.0
C1522 C 0.37181 0.06692 0.3556 0.0
C1523 C 0.30859 0.06864 0.31202 0.0
C1524 C 0.33345 0.06168 0.40855 0.0
C1525 C 0.44118 0.06634 0.43389 0.0
N1526 N 0.31799 0.06711 0.34313 0.0
N1527 N 0.43211 0.06734 0.40264 0.0
H1528 H 0.63756 0.81618 0.05493 0.0
H1529 H 0.61094 0.85361 0.21065 0.0
H1530 H 0.56607 0.85477 0.05015 0.0
H1531 H 0.5487 0.81431 0.2015 0.0
H1532 H 0.60848 0.85575 0.15349 0.0
H1533 H 0.62627 0.81663 0.11172 0.0
C1534 C 0.62071 0.82485 0.06593 0.0
C1535 C 0.60264 0.83546 0.04808 0.0
C1536 C 0.59421 0.84681 0.16427 0.0
C1537 C 0.58928 0.83595 0.11241 0.0
C1538 C 0.59536 0.84558 0.1967 0.0
C1539 C 0.5807 0.83371 0.21068 0.0
C1540 C 0.57984 0.83598 0.14615 0.0
C1541 C 0.5606 0.82361 0.19168 0.0
C1542 C 0.6135 0.82501 0.09813 0.0
C1543 C 0.58027 0.8464 0.06333 0.0
N1544 N 0.56221 0.82486 0.16022 0.0
N1545 N 0.57437 0.84642 0.09489 0.0
H1546 H 0.52372 0.41669 0.04515 0.0
H1547 H 0.66559 0.418 0.2065 0.0
H1548 H 0.68535 0.39748 0.06222 0.0
H1549 H 0.48113 0.41862 0.19845 0.0
H1550 H 0.67179 0.409 0.15391 0.0
H1551 H 0.5023 0.41543 0.10086 0.0
C1552 C 0.55408 0.41192 0.06047 0.0
C1553 C 0.60725 0.40758 0.04922 0.0
C1554 C 0.62987 0.41087 0.16383 0.0
C1555 C 0.58333 0.40628 0.11276 0.0
C1556 C 0.6264 0.41616 0.19365 0.0
C1557 C 0.57286 0.41926 0.20641 0.0
C1558 C 0.57952 0.40903 0.14643 0.0
C1559 C 0.52325 0.41646 0.18917 0.0
C1560 C 0.54171 0.41117 0.09225 0.0
C1561 C 0.64441 0.40124 0.06999 0.0
N1562 N 0.52779 0.41175 0.15965 0.0
N1563 N 0.63245 0.40111 0.10098 0.0
H1564 H 0.48789 0.18931 0.79472 0.0
H1565 H 0.25742 0.19 0.93189 0.0
H1566 H 0.30575 0.19341 0.77932 0.0
H1567 H 0.43976 0.19393 0.94692 0.0
H1568 H 0.2738 0.19232 0.87559 0.0
H1569 H 0.47149 0.19215 0.85084 0.0
C1570 C 0.44466 0.19094 0.80312 0.0
C1571 C 0.39809 0.19094 0.78252 0.0
C1572 C 0.31009 0.1928 0.89132 0.0
C1573 C 0.37887 0.19408 0.84627 0.0
C1574 C 0.30069 0.19145 0.92336 0.0
C1575 C 0.34731 0.19158 0.94393 0.0
C1576 C 0.36647 0.19418 0.88003 0.0
C1577 C 0.40258 0.19359 0.93181 0.0
C1578 C 0.43523 0.19256 0.83507 0.0
C1579 C 0.34287 0.19316 0.79448 0.0
N1580 N 0.41069 0.19468 0.90062 0.0
N1581 N 0.33471 0.1945 0.82562 0.0
H1582 H 0.50699 0.56122 0.93947 0.0
H1583 H 0.27412 0.56235 0.80391 0.0
H1584 H 0.33095 0.54934 0.95224 0.0
H1585 H 0.45615 0.56569 0.78705 0.0
H1586 H 0.29459 0.55691 0.85848 0.0
H1587 H 0.49099 0.56171 0.8829 0.0
C1588 C 0.4654 0.55849 0.93032 0.0
C1589 C 0.41998 0.55547 0.95043 0.0
C1590 C 0.33002 0.55874 0.84272 0.0
C1591 C 0.40105 0.5562 0.88629 0.0
C1592 C 0.31826 0.56193 0.8117 0.0
C1593 C 0.36342 0.56458 0.79113 0.0
C1594 C 0.38724 0.55835 0.85309 0.0
C1595 C 0.41997 0.56378 0.80223 0.0
C1596 C 0.45614 0.55882 0.89812 0.0
C1597 C 0.36689 0.55196 0.93751 0.0
N1598 N 0.43027 0.56084 0.83254 0.0
N1599 N 0.35864 0.5526 0.90625 0.0
loop_
_geom_bond_atom_site_label_1
_geom_bond_atom_site_label_2
_geom_bond_distance
_geom_bond_site_symmetry_2
_ccdc_geom_bond_type
Co0 O1 2.216 . S
Co0 O2 2.091 . S
Co0 O4 2.004 . S
Co0 O10 2.021 . S
Co0 O12 2.137 . S
Co0 O13 2.244 . S
O1 Co0 2.216 . S
O1 C8 1.247 . S
O2 Co0 2.091 . S
O2 C8 1.261 . S
C3 O12 1.247 . S
C3 O13 1.272 . S
O4 Co0 2.004 . S
O4 C9 1.259 . S
Co5 O6 2.061 . S
Co5 O11 2.052 . S
Co5 O13 2.135 . S
O6 Co5 2.061 . S
O6 C9 1.235 . S
C7 O10 1.238 . S
C7 O11 1.241 . S
C8 O1 1.247 . S
C8 O2 1.261 . S
C9 O4 1.259 . S
C9 O6 1.235 . S
O10 Co0 2.021 . S
O10 C7 1.238 . S
O11 Co5 2.052 . S
O11 C7 1.241 . S
O12 Co0 2.137 . S
O12 C3 1.247 . S
O13 Co0 2.244 . S
O13 C3 1.272 . S
O13 Co5 2.135 . S
Co14 O15 2.216 . S
Co14 O16 2.091 . S
Co14 O18 2.004 . S
Co14 O24 2.021 . S
Co14 O26 2.137 . S
Co14 O27 2.244 . S
O15 Co14 2.216 . S
O15 C22 1.247 . S
O16 Co14 2.091 . S
O16 C22 1.261 . S
C17 O26 1.247 . S
C17 O27 1.272 . S
O18 Co14 2.004 . S
O18 C23 1.259 . S
Co19 O20 2.061 . S
Co19 O25 2.052 . S
Co19 O27 2.135 . S
O20 Co19 2.061 . S
O20 C23 1.235 . S
C21 O24 1.238 . S
C21 O25 1.241 . S
C22 O15 1.247 . S
C22 O16 1.261 . S
C23 O18 1.259 . S
C23 O20 1.235 . S
O24 Co14 2.021 . S
O24 C21 1.238 . S
O25 Co19 2.052 . S
O25 C21 1.241 . S
O26 Co14 2.137 . S
O26 C17 1.247 . S
O27 Co14 2.244 . S
O27 C17 1.272 . S
O27 Co19 2.135 . S
Co28 O29 2.216 . S
Co28 O30 2.091 . S
Co28 O32 2.004 . S
Co28 O38 2.021 . S
Co28 O40 2.137 . S
Co28 O41 2.244 . S
O29 Co28 2.216 . S
O29 C36 1.247 . S
O30 Co28 2.091 . S
O30 C36 1.261 . S
C31 O40 1.247 . S
C31 O41 1.272 . S
O32 Co28 2.004 . S
O32 C37 1.259 . S
Co33 O34 2.061 . S
Co33 O39 2.052 1_556 S
Co33 O41 2.135 . S
O34 Co33 2.061 . S
O34 C37 1.235 . S
C35 O38 1.238 1_554 S
C35 O39 1.241 . S
C36 O29 1.247 . S
C36 O30 1.261 . S
C37 O32 1.259 . S
C37 O34 1.235 . S
O38 Co28 2.021 . S
O38 C35 1.238 1_556 S
O39 Co33 2.052 1_554 S
O39 C35 1.241 . S
O40 Co28 2.137 . S
O40 C31 1.247 . S
O41 Co28 2.244 . S
O41 C31 1.272 . S
O41 Co33 2.135 . S
Co42 O43 2.216 . S
Co42 O44 2.091 . S
Co42 O46 2.004 . S
Co42 O52 2.021 . S
Co42 O54 2.137 . S
Co42 O55 2.244 . S
O43 Co42 2.216 . S
O43 C50 1.247 . S
O44 Co42 2.091 . S
O44 C50 1.261 . S
C45 O54 1.247 . S
C45 O55 1.272 . S
O46 Co42 2.004 . S
O46 C51 1.259 . S
Co47 O48 2.061 . S
Co47 O53 2.052 1_556 S
Co47 O55 2.135 . S
O48 Co47 2.061 . S
O48 C51 1.235 . S
C49 O52 1.238 1_554 S
C49 O53 1.241 . S
C50 O43 1.247 . S
C50 O44 1.261 . S
C51 O46 1.259 . S
C51 O48 1.235 . S
O52 Co42 2.021 . S
O52 C49 1.238 1_556 S
O53 Co47 2.052 1_554 S
O53 C49 1.241 . S
O54 Co42 2.137 . S
O54 C45 1.247 . S
O55 Co42 2.244 . S
O55 C45 1.272 . S
O55 Co47 2.135 . S
Co56 O57 2.216 . S
Co56 O58 2.091 . S
Co56 O60 2.004 . S
Co56 O66 2.021 . S
Co56 O68 2.137 . S
Co56 O69 2.244 . S
O57 Co56 2.216 . S
O57 C64 1.247 . S
O58 Co56 2.091 . S
O58 C64 1.261 . S
C59 O68 1.247 . S
C59 O69 1.272 . S
O60 Co56 2.004 . S
O60 C65 1.259 . S
Co61 O62 2.061 . S
Co61 O67 2.052 . S
Co61 O69 2.135 . S
O62 Co61 2.061 . S
O62 C65 1.235 . S
C63 O66 1.238 . S
C63 O67 1.241 . S
C64 O57 1.247 . S
C64 O58 1.261 . S
C65 O60 1.259 . S
C65 O62 1.235 . S
O66 Co56 2.021 . S
O66 C63 1.238 . S
O67 Co61 2.052 . S
O67 C63 1.241 . S
O68 Co56 2.137 . S
O68 C59 1.247 . S
O69 Co56 2.244 . S
O69 C59 1.272 . S
O69 Co61 2.135 . S
Co70 O71 2.216 . S
Co70 O72 2.091 . S
Co70 O74 2.004 . S
Co70 O80 2.021 . S
Co70 O82 2.137 . S
Co70 O83 2.244 . S
O71 Co70 2.216 . S
O71 C78 1.247 . S
O72 Co70 2.091 . S
O72 C78 1.261 . S
C73 O82 1.247 . S
C73 O83 1.272 . S
O74 Co70 2.004 . S
O74 C79 1.259 . S
Co75 O76 2.061 . S
Co75 O81 2.052 . S
Co75 O83 2.135 . S
O76 Co75 2.061 . S
O76 C79 1.235 . S
C77 O80 1.238 . S
C77 O81 1.241 . S
C78 O71 1.247 . S
C78 O72 1.261 . S
C79 O74 1.259 . S
C79 O76 1.235 . S
O80 Co70 2.021 . S
O80 C77 1.238 . S
O81 Co75 2.052 . S
O81 C77 1.241 . S
O82 Co70 2.137 . S
O82 C73 1.247 . S
O83 Co70 2.244 . S
O83 C73 1.272 . S
O83 Co75 2.135 . S
Co84 O85 2.216 1_554 S
Co84 O86 2.091 1_554 S
Co84 O88 2.004 . S
Co84 O94 2.021 . S
Co84 O96 2.137 . S
Co84 O97 2.244 . S
O85 Co84 2.216 1_556 S
O85 C92 1.247 . S
O86 Co84 2.091 1_556 S
O86 C92 1.261 . S
C87 O96 1.247 . S
C87 O97 1.272 . S
O88 Co84 2.004 . S
O88 C93 1.259 . S
Co89 O90 2.061 . S
Co89 O95 2.052 . S
Co89 O97 2.135 . S
O90 Co89 2.061 . S
O90 C93 1.235 . S
C91 O94 1.238 . S
C91 O95 1.241 . S
C92 O85 1.247 . S
C92 O86 1.261 . S
C93 O88 1.259 . S
C93 O90 1.235 . S
O94 Co84 2.021 . S
O94 C91 1.238 . S
O95 Co89 2.052 . S
O95 C91 1.241 . S
O96 Co84 2.137 . S
O96 C87 1.247 . S
O97 Co84 2.244 . S
O97 C87 1.272 . S
O97 Co89 2.135 . S
Co98 O99 2.216 1_554 S
Co98 O100 2.091 1_554 S
Co98 O102 2.004 . S
Co98 O108 2.021 . S
Co98 O110 2.137 . S
Co98 O111 2.244 . S
O99 Co98 2.216 1_556 S
O99 C106 1.247 . S
O100 Co98 2.091 1_556 S
O100 C106 1.261 . S
C101 O110 1.247 . S
C101 O111 1.272 . S
O102 Co98 2.004 . S
O102 C107 1.259 . S
Co103 O104 2.061 . S
Co103 O109 2.052 . S
Co103 O111 2.135 . S
O104 Co103 2.061 . S
O104 C107 1.235 . S
C105 O108 1.238 . S
C105 O109 1.241 . S
C106 O99 1.247 . S
C106 O100 1.261 . S
C107 O102 1.259 . S
C107 O104 1.235 . S
O108 Co98 2.021 . S
O108 C105 1.238 . S
O109 Co103 2.052 . S
O109 C105 1.241 . S
O110 Co98 2.137 . S
O110 C101 1.247 . S
O111 Co98 2.244 . S
O111 C101 1.272 . S
O111 Co103 2.135 . S
Co112 O113 2.216 . S
Co112 O114 2.091 . S
Co112 O116 2.004 . S
Co112 O122 2.021 . S
Co112 O124 2.137 . S
Co112 O125 2.244 . S
O113 Co112 2.216 . S
O113 C120 1.247 . S
O114 Co112 2.091 . S
O114 C120 1.261 . S
C115 O124 1.247 . S
C115 O125 1.272 . S
O116 Co112 2.004 . S
O116 C121 1.259 . S
Co117 O118 2.061 . S
Co117 O123 2.052 . S
Co117 O125 2.135 . S
O118 Co117 2.061 . S
O118 C121 1.235 . S
C119 O122 1.238 . S
C119 O123 1.241 . S
C120 O113 1.247 . S
C120 O114 1.261 . S
C121 O116 1.259 . S
C121 O118 1.235 . S
O122 Co112 2.021 . S
O122 C119 1.238 . S
O123 Co117 2.052 . S
O123 C119 1.241 . S
O124 Co112 2.137 . S
O124 C115 1.247 . S
O125 Co112 2.244 . S
O125 C115 1.272 . S
O125 Co117 2.135 . S
Co126 O127 2.216 . S
Co126 O128 2.091 . S
Co126 O130 2.004 . S
Co126 O136 2.021 . S
Co126 O138 2.137 . S
Co126 O139 2.244 . S
O127 Co126 2.216 . S
O127 C134 1.247 . S
O128 Co126 2.091 . S
O128 C134 1.261 . S
C129 O138 1.247 . S
C129 O139 1.272 . S
O130 Co126 2.004 . S
O130 C135 1.259 . S
Co131 O132 2.061 . S
Co131 O137 2.052 . S
Co131 O139 2.135 . S
O132 Co131 2.061 . S
O132 C135 1.235 . S
C133 O136 1.238 . S
C133 O137 1.241 . S
C134 O127 1.247 . S
C134 O128 1.261 . S
C135 O130 1.259 . S
C135 O132 1.235 . S
O136 Co126 2.021 . S
O136 C133 1.238 . S
O137 Co131 2.052 . S
O137 C133 1.241 . S
O138 Co126 2.137 . S
O138 C129 1.247 . S
O139 Co126 2.244 . S
O139 C129 1.272 . S
O139 Co131 2.135 . S
Co140 O141 2.216 . S
Co140 O142 2.091 . S
Co140 O144 2.004 . S
Co140 O150 2.021 . S
Co140 O152 2.137 . S
Co140 O153 2.244 . S
O141 Co140 2.216 . S
O141 C148 1.247 . S
O142 Co140 2.091 . S
O142 C148 1.261 . S
C143 O152 1.247 . S
C143 O153 1.272 . S
O144 Co140 2.004 . S
O144 C149 1.259 . S
Co145 O146 2.061 . S
Co145 O151 2.052 . S
Co145 O153 2.135 . S
O146 Co145 2.061 . S
O146 C149 1.235 . S
C147 O150 1.238 . S
C147 O151 1.241 . S
C148 O141 1.247 . S
C148 O142 1.261 . S
C149 O144 1.259 . S
C149 O146 1.235 . S
O150 Co140 2.021 . S
O150 C147 1.238 . S
O151 Co145 2.052 . S
O151 C147 1.241 . S
O152 Co140 2.137 . S
O152 C143 1.247 . S
O153 Co140 2.244 . S
O153 C143 1.272 . S
O153 Co145 2.135 . S
Co154 O155 2.216 . S
Co154 O156 2.091 . S
Co154 O158 2.004 . S
Co154 O164 2.021 . S
Co154 O166 2.137 . S
Co154 O167 2.244 . S
O155 Co154 2.216 . S
O155 C162 1.247 . S
O156 Co154 2.091 . S
O156 C162 1.261 . S
C157 O166 1.247 . S
C157 O167 1.272 . S
O158 Co154 2.004 . S
O158 C163 1.259 . S
Co159 O160 2.061 . S
Co159 O165 2.052 . S
Co159 O167 2.135 . S
O160 Co159 2.061 . S
O160 C163 1.235 . S
C161 O164 1.238 . S
C161 O165 1.241 . S
C162 O155 1.247 . S
C162 O156 1.261 . S
C163 O158 1.259 . S
C163 O160 1.235 . S
O164 Co154 2.021 . S
O164 C161 1.238 . S
O165 Co159 2.052 . S
O165 C161 1.241 . S
O166 Co154 2.137 . S
O166 C157 1.247 . S
O167 Co154 2.244 . S
O167 C157 1.272 . S
O167 Co159 2.135 . S
Co168 O169 2.216 . S
Co168 O170 2.091 . S
Co168 O172 2.004 . S
Co168 O178 2.021 . S
Co168 O180 2.137 . S
Co168 O181 2.244 . S
O169 Co168 2.216 . S
O169 C176 1.247 . S
O170 Co168 2.091 . S
O170 C176 1.261 . S
C171 O180 1.247 . S
C171 O181 1.272 . S
O172 Co168 2.004 . S
O172 C177 1.259 . S
Co173 O174 2.061 . S
Co173 O179 2.052 . S
Co173 O181 2.135 . S
O174 Co173 2.061 . S
O174 C177 1.235 . S
C175 O178 1.238 . S
C175 O179 1.241 . S
C176 O169 1.247 . S
C176 O170 1.261 . S
C177 O172 1.259 . S
C177 O174 1.235 . S
O178 Co168 2.021 . S
O178 C175 1.238 . S
O179 Co173 2.052 . S
O179 C175 1.241 . S
O180 Co168 2.137 . S
O180 C171 1.247 . S
O181 Co168 2.244 . S
O181 C171 1.272 . S
O181 Co173 2.135 . S
Co182 O183 2.216 . S
Co182 O184 2.091 . S
Co182 O186 2.004 . S
Co182 O192 2.021 . S
Co182 O194 2.137 . S
Co182 O195 2.244 . S
O183 Co182 2.216 . S
O183 C190 1.247 . S
O184 Co182 2.091 . S
O184 C190 1.261 . S
C185 O194 1.247 . S
C185 O195 1.272 . S
O186 Co182 2.004 . S
O186 C191 1.259 . S
Co187 O188 2.061 . S
Co187 O193 2.052 . S
Co187 O195 2.135 . S
O188 Co187 2.061 . S
O188 C191 1.235 . S
C189 O192 1.238 . S
C189 O193 1.241 . S
C190 O183 1.247 . S
C190 O184 1.261 . S
C191 O186 1.259 . S
C191 O188 1.235 . S
O192 Co182 2.021 . S
O192 C189 1.238 . S
O193 Co187 2.052 . S
O193 C189 1.241 . S
O194 Co182 2.137 . S
O194 C185 1.247 . S
O195 Co182 2.244 . S
O195 C185 1.272 . S
O195 Co187 2.135 . S
Co196 O197 2.216 . S
Co196 O198 2.091 . S
Co196 O200 2.004 . S
Co196 O206 2.021 . S
Co196 O208 2.137 . S
Co196 O209 2.244 . S
O197 Co196 2.216 . S
O197 C204 1.247 . S
O198 Co196 2.091 . S
O198 C204 1.261 . S
C199 O208 1.247 . S
C199 O209 1.272 . S
O200 Co196 2.004 . S
O200 C205 1.259 . S
Co201 O202 2.061 . S
Co201 O207 2.052 . S
Co201 O209 2.135 . S
O202 Co201 2.061 . S
O202 C205 1.235 . S
C203 O206 1.238 . S
C203 O207 1.241 . S
C204 O197 1.247 . S
C204 O198 1.261 . S
C205 O200 1.259 . S
C205 O202 1.235 . S
O206 Co196 2.021 . S
O206 C203 1.238 . S
O207 Co201 2.052 . S
O207 C203 1.241 . S
O208 Co196 2.137 . S
O208 C199 1.247 . S
O209 Co196 2.244 . S
O209 C199 1.272 . S
O209 Co201 2.135 . S
Co210 O211 2.216 . S
Co210 O212 2.091 . S
Co210 O214 2.004 . S
Co210 O220 2.021 . S
Co210 O222 2.137 . S
Co210 O223 2.244 . S
O211 Co210 2.216 . S
O211 C218 1.247 . S
O212 Co210 2.091 . S
O212 C218 1.261 . S
C213 O222 1.247 . S
C213 O223 1.272 . S
O214 Co210 2.004 . S
O214 C219 1.259 . S
Co215 O216 2.061 . S
Co215 O221 2.052 . S
Co215 O223 2.135 . S
O216 Co215 2.061 . S
O216 C219 1.235 . S
C217 O220 1.238 . S
C217 O221 1.241 . S
C218 O211 1.247 . S
C218 O212 1.261 . S
C219 O214 1.259 . S
C219 O216 1.235 . S
O220 Co210 2.021 . S
O220 C217 1.238 . S
O221 Co215 2.052 . S
O221 C217 1.241 . S
O222 Co210 2.137 . S
O222 C213 1.247 . S
O223 Co210 2.244 . S
O223 C213 1.272 . S
O223 Co215 2.135 . S
Co224 O225 2.216 . S
Co224 O226 2.091 . S
Co224 O228 2.004 . S
Co224 O234 2.021 . S
Co224 O236 2.137 . S
Co224 O237 2.244 . S
O225 Co224 2.216 . S
O225 C232 1.247 . S
O226 Co224 2.091 . S
O226 C232 1.261 . S
C227 O236 1.247 . S
C227 O237 1.272 . S
O228 Co224 2.004 . S
O228 C233 1.259 . S
Co229 O230 2.061 . S
Co229 O235 2.052 . S
Co229 O237 2.135 . S
O230 Co229 2.061 . S
O230 C233 1.235 . S
C231 O234 1.238 . S
C231 O235 1.241 . S
C232 O225 1.247 . S
C232 O226 1.261 . S
C233 O228 1.259 . S
C233 O230 1.235 . S
O234 Co224 2.021 . S
O234 C231 1.238 . S
O235 Co229 2.052 . S
O235 C231 1.241 . S
O236 Co224 2.137 . S
O236 C227 1.247 . S
O237 Co224 2.244 . S
O237 C227 1.272 . S
O237 Co229 2.135 . S
Co238 O239 2.216 . S
Co238 O240 2.091 . S
Co238 O242 2.004 . S
Co238 O248 2.021 . S
Co238 O250 2.137 . S
Co238 O251 2.244 . S
O239 Co238 2.216 . S
O239 C246 1.247 . S
O240 Co238 2.091 . S
O240 C246 1.261 . S
C241 O250 1.247 . S
C241 O251 1.272 . S
O242 Co238 2.004 . S
O242 C247 1.259 . S
Co243 O244 2.061 . S
Co243 O249 2.052 . S
Co243 O251 2.135 . S
O244 Co243 2.061 . S
O244 C247 1.235 . S
C245 O248 1.238 . S
C245 O249 1.241 . S
C246 O239 1.247 . S
C246 O240 1.261 . S
C247 O242 1.259 . S
C247 O244 1.235 . S
O248 Co238 2.021 . S
O248 C245 1.238 . S
O249 Co243 2.052 . S
O249 C245 1.241 . S
O250 Co238 2.137 . S
O250 C241 1.247 . S
O251 Co238 2.244 . S
O251 C241 1.272 . S
O251 Co243 2.135 . S
Co252 O253 2.216 . S
Co252 O254 2.091 . S
Co252 O256 2.004 . S
Co252 O262 2.021 . S
Co252 O264 2.137 . S
Co252 O265 2.244 . S
O253 Co252 2.216 . S
O253 C260 1.247 . S
O254 Co252 2.091 . S
O254 C260 1.261 . S
C255 O264 1.247 . S
C255 O265 1.272 . S
O256 Co252 2.004 . S
O256 C261 1.259 . S
Co257 O258 2.061 . S
Co257 O263 2.052 . S
Co257 O265 2.135 . S
O258 Co257 2.061 . S
O258 C261 1.235 . S
C259 O262 1.238 . S
C259 O263 1.241 . S
C260 O253 1.247 . S
C260 O254 1.261 . S
C261 O256 1.259 . S
C261 O258 1.235 . S
O262 Co252 2.021 . S
O262 C259 1.238 . S
O263 Co257 2.052 . S
O263 C259 1.241 . S
O264 Co252 2.137 . S
O264 C255 1.247 . S
O265 Co252 2.244 . S
O265 C255 1.272 . S
O265 Co257 2.135 . S
Co266 O267 2.216 . S
Co266 O268 2.091 . S
Co266 O270 2.004 . S
Co266 O276 2.021 . S
Co266 O278 2.137 . S
Co266 O279 2.244 . S
O267 Co266 2.216 . S
O267 C274 1.247 . S
O268 Co266 2.091 . S
O268 C274 1.261 . S
C269 O278 1.247 . S
C269 O279 1.272 . S
O270 Co266 2.004 . S
O270 C275 1.259 . S
Co271 O272 2.061 . S
Co271 O277 2.052 . S
Co271 O279 2.135 . S
O272 Co271 2.061 . S
O272 C275 1.235 . S
C273 O276 1.238 . S
C273 O277 1.241 . S
C274 O267 1.247 . S
C274 O268 1.261 . S
C275 O270 1.259 . S
C275 O272 1.235 . S
O276 Co266 2.021 . S
O276 C273 1.238 . S
O277 Co271 2.052 . S
O277 C273 1.241 . S
O278 Co266 2.137 . S
O278 C269 1.247 . S
O279 Co266 2.244 . S
O279 C269 1.272 . S
O279 Co271 2.135 . S
Co280 O281 2.216 . S
Co280 O282 2.091 . S
Co280 O284 2.004 . S
Co280 O290 2.021 . S
Co280 O292 2.137 . S
Co280 O293 2.244 . S
O281 Co280 2.216 . S
O281 C288 1.247 . S
O282 Co280 2.091 . S
O282 C288 1.261 . S
C283 O292 1.247 . S
C283 O293 1.272 . S
O284 Co280 2.004 . S
O284 C289 1.259 . S
Co285 O286 2.061 . S
Co285 O291 2.052 . S
Co285 O293 2.135 . S
O286 Co285 2.061 . S
O286 C289 1.235 . S
C287 O290 1.238 . S
C287 O291 1.241 . S
C288 O281 1.247 . S
C288 O282 1.261 . S
C289 O284 1.259 . S
C289 O286 1.235 . S
O290 Co280 2.021 . S
O290 C287 1.238 . S
O291 Co285 2.052 . S
O291 C287 1.241 . S
O292 Co280 2.137 . S
O292 C283 1.247 . S
O293 Co280 2.244 . S
O293 C283 1.272 . S
O293 Co285 2.135 . S
Co294 O295 2.216 . S
Co294 O296 2.091 . S
Co294 O298 2.004 . S
Co294 O304 2.021 . S
Co294 O306 2.137 . S
Co294 O307 2.244 . S
O295 Co294 2.216 . S
O295 C302 1.247 . S
O296 Co294 2.091 . S
O296 C302 1.261 . S
C297 O306 1.247 . S
C297 O307 1.272 . S
O298 Co294 2.004 . S
O298 C303 1.259 . S
Co299 O300 2.061 . S
Co299 O305 2.052 . S
Co299 O307 2.135 . S
O300 Co299 2.061 . S
O300 C303 1.235 . S
C301 O304 1.238 . S
C301 O305 1.241 . S
C302 O295 1.247 . S
C302 O296 1.261 . S
C303 O298 1.259 . S
C303 O300 1.235 . S
O304 Co294 2.021 . S
O304 C301 1.238 . S
O305 Co299 2.052 . S
O305 C301 1.241 . S
O306 Co294 2.137 . S
O306 C297 1.247 . S
O307 Co294 2.244 . S
O307 C297 1.272 . S
O307 Co299 2.135 . S
Co308 O309 2.216 . S
Co308 O310 2.091 . S
Co308 O312 2.004 . S
Co308 O318 2.021 . S
Co308 O320 2.137 . S
Co308 O321 2.244 . S
O309 Co308 2.216 . S
O309 C316 1.247 . S
O310 Co308 2.091 . S
O310 C316 1.261 . S
C311 O320 1.247 . S
C311 O321 1.272 . S
O312 Co308 2.004 . S
O312 C317 1.259 . S
Co313 O314 2.061 . S
Co313 O319 2.052 . S
Co313 O321 2.135 . S
O314 Co313 2.061 . S
O314 C317 1.235 . S
C315 O318 1.238 . S
C315 O319 1.241 . S
C316 O309 1.247 . S
C316 O310 1.261 . S
C317 O312 1.259 . S
C317 O314 1.235 . S
O318 Co308 2.021 . S
O318 C315 1.238 . S
O319 Co313 2.052 . S
O319 C315 1.241 . S
O320 Co308 2.137 . S
O320 C311 1.247 . S
O321 Co308 2.244 . S
O321 C311 1.272 . S
O321 Co313 2.135 . S
Co322 O323 2.216 . S
Co322 O324 2.091 . S
Co322 O326 2.004 . S
Co322 O332 2.021 . S
Co322 O334 2.137 . S
Co322 O335 2.244 . S
O323 Co322 2.216 . S
O323 C330 1.247 . S
O324 Co322 2.091 . S
O324 C330 1.261 . S
C325 O334 1.247 . S
C325 O335 1.272 . S
O326 Co322 2.004 . S
O326 C331 1.259 . S
Co327 O328 2.061 . S
Co327 O333 2.052 . S
Co327 O335 2.135 . S
O328 Co327 2.061 . S
O328 C331 1.235 . S
C329 O332 1.238 . S
C329 O333 1.241 . S
C330 O323 1.247 . S
C330 O324 1.261 . S
C331 O326 1.259 . S
C331 O328 1.235 . S
O332 Co322 2.021 . S
O332 C329 1.238 . S
O333 Co327 2.052 . S
O333 C329 1.241 . S
O334 Co322 2.137 . S
O334 C325 1.247 . S
O335 Co322 2.244 . S
O335 C325 1.272 . S
O335 Co327 2.135 . S
Co336 O337 2.216 . S
Co336 O338 2.091 . S
Co336 O340 2.004 . S
Co336 O346 2.021 . S
Co336 O348 2.137 . S
Co336 O349 2.244 . S
O337 Co336 2.216 . S
O337 C344 1.247 . S
O338 Co336 2.091 . S
O338 C344 1.261 . S
C339 O348 1.247 . S
C339 O349 1.272 . S
O340 Co336 2.004 . S
O340 C345 1.259 . S
Co341 O342 2.061 . S
Co341 O347 2.052 . S
Co341 O349 2.135 . S
O342 Co341 2.061 . S
O342 C345 1.235 . S
C343 O346 1.238 . S
C343 O347 1.241 . S
C344 O337 1.247 . S
C344 O338 1.261 . S
C345 O340 1.259 . S
C345 O342 1.235 . S
O346 Co336 2.021 . S
O346 C343 1.238 . S
O347 Co341 2.052 . S
O347 C343 1.241 . S
O348 Co336 2.137 . S
O348 C339 1.247 . S
O349 Co336 2.244 . S
O349 C339 1.272 . S
O349 Co341 2.135 . S
Co350 O351 2.216 . S
Co350 O352 2.091 . S
Co350 O354 2.004 . S
Co350 O360 2.021 . S
Co350 O362 2.137 . S
Co350 O363 2.244 . S
O351 Co350 2.216 . S
O351 C358 1.247 . S
O352 Co350 2.091 . S
O352 C358 1.261 . S
C353 O362 1.247 . S
C353 O363 1.272 . S
O354 Co350 2.004 . S
O354 C359 1.259 . S
Co355 O356 2.061 . S
Co355 O361 2.052 . S
Co355 O363 2.135 . S
O356 Co355 2.061 . S
O356 C359 1.235 . S
C357 O360 1.238 . S
C357 O361 1.241 . S
C358 O351 1.247 . S
C358 O352 1.261 . S
C359 O354 1.259 . S
C359 O356 1.235 . S
O360 Co350 2.021 . S
O360 C357 1.238 . S
O361 Co355 2.052 . S
O361 C357 1.241 . S
O362 Co350 2.137 . S
O362 C353 1.247 . S
O363 Co350 2.244 . S
O363 C353 1.272 . S
O363 Co355 2.135 . S
Co364 O365 2.216 . S
Co364 O366 2.091 . S
Co364 O368 2.004 . S
Co364 O374 2.021 . S
Co364 O376 2.137 . S
Co364 O377 2.244 . S
O365 Co364 2.216 . S
O365 C372 1.247 . S
O366 Co364 2.091 . S
O366 C372 1.261 . S
C367 O376 1.247 . S
C367 O377 1.272 . S
O368 Co364 2.004 . S
O368 C373 1.259 . S
Co369 O370 2.061 . S
Co369 O375 2.052 1_556 S
Co369 O377 2.135 . S
O370 Co369 2.061 . S
O370 C373 1.235 . S
C371 O374 1.238 1_554 S
C371 O375 1.241 . S
C372 O365 1.247 . S
C372 O366 1.261 . S
C373 O368 1.259 . S
C373 O370 1.235 . S
O374 Co364 2.021 . S
O374 C371 1.238 1_556 S
O375 Co369 2.052 1_554 S
O375 C371 1.241 . S
O376 Co364 2.137 . S
O376 C367 1.247 . S
O377 Co364 2.244 . S
O377 C367 1.272 . S
O377 Co369 2.135 . S
Co378 O379 2.216 . S
Co378 O380 2.091 . S
Co378 O382 2.004 . S
Co378 O388 2.021 . S
Co378 O390 2.137 . S
Co378 O391 2.244 . S
O379 Co378 2.216 . S
O379 C386 1.247 . S
O380 Co378 2.091 . S
O380 C386 1.261 . S
C381 O390 1.247 . S
C381 O391 1.272 . S
O382 Co378 2.004 . S
O382 C387 1.259 . S
Co383 O384 2.061 . S
Co383 O389 2.052 1_556 S
Co383 O391 2.135 . S
O384 Co383 2.061 . S
O384 C387 1.235 . S
C385 O388 1.238 1_554 S
C385 O389 1.241 . S
C386 O379 1.247 . S
C386 O380 1.261 . S
C387 O382 1.259 . S
C387 O384 1.235 . S
O388 Co378 2.021 . S
O388 C385 1.238 1_556 S
O389 Co383 2.052 1_554 S
O389 C385 1.241 . S
O390 Co378 2.137 . S
O390 C381 1.247 . S
O391 Co378 2.244 . S
O391 C381 1.272 . S
O391 Co383 2.135 . S
Co392 O393 2.216 . S
Co392 O394 2.091 . S
Co392 O396 2.004 . S
Co392 O402 2.021 . S
Co392 O404 2.137 . S
Co392 O405 2.244 . S
O393 Co392 2.216 . S
O393 C400 1.247 . S
O394 Co392 2.091 . S
O394 C400 1.261 . S
C395 O404 1.247 . S
C395 O405 1.272 . S
O396 Co392 2.004 . S
O396 C401 1.259 . S
Co397 O398 2.061 . S
Co397 O403 2.052 . S
Co397 O405 2.135 . S
O398 Co397 2.061 . S
O398 C401 1.235 . S
C399 O402 1.238 . S
C399 O403 1.241 . S
C400 O393 1.247 . S
C400 O394 1.261 . S
C401 O396 1.259 . S
C401 O398 1.235 . S
O402 Co392 2.021 . S
O402 C399 1.238 . S
O403 Co397 2.052 . S
O403 C399 1.241 . S
O404 Co392 2.137 . S
O404 C395 1.247 . S
O405 Co392 2.244 . S
O405 C395 1.272 . S
O405 Co397 2.135 . S
Co406 O407 2.216 . S
Co406 O408 2.091 . S
Co406 O410 2.004 . S
Co406 O416 2.021 . S
Co406 O418 2.137 . S
Co406 O419 2.244 . S
O407 Co406 2.216 . S
O407 C414 1.247 . S
O408 Co406 2.091 . S
O408 C414 1.261 . S
C409 O418 1.247 . S
C409 O419 1.272 . S
O410 Co406 2.004 . S
O410 C415 1.259 . S
Co411 O412 2.061 . S
Co411 O417 2.052 . S
Co411 O419 2.135 . S
O412 Co411 2.061 . S
O412 C415 1.235 . S
C413 O416 1.238 . S
C413 O417 1.241 . S
C414 O407 1.247 . S
C414 O408 1.261 . S
C415 O410 1.259 . S
C415 O412 1.235 . S
O416 Co406 2.021 . S
O416 C413 1.238 . S
O417 Co411 2.052 . S
O417 C413 1.241 . S
O418 Co406 2.137 . S
O418 C409 1.247 . S
O419 Co406 2.244 . S
O419 C409 1.272 . S
O419 Co411 2.135 . S
Co420 O421 2.216 1_554 S
Co420 O422 2.091 1_554 S
Co420 O424 2.004 . S
Co420 O430 2.021 . S
Co420 O432 2.137 . S
Co420 O433 2.244 . S
O421 Co420 2.216 1_556 S
O421 C428 1.247 . S
O422 Co420 2.091 1_556 S
O422 C428 1.261 . S
C423 O432 1.247 . S
C423 O433 1.272 . S
O424 Co420 2.004 . S
O424 C429 1.259 . S
Co425 O426 2.061 . S
Co425 O431 2.052 . S
Co425 O433 2.135 . S
O426 Co425 2.061 . S
O426 C429 1.235 . S
C427 O430 1.238 . S
C427 O431 1.241 . S
C428 O421 1.247 . S
C428 O422 1.261 . S
C429 O424 1.259 . S
C429 O426 1.235 . S
O430 Co420 2.021 . S
O430 C427 1.238 . S
O431 Co425 2.052 . S
O431 C427 1.241 . S
O432 Co420 2.137 . S
O432 C423 1.247 . S
O433 Co420 2.244 . S
O433 C423 1.272 . S
O433 Co425 2.135 . S
Co434 O435 2.216 1_554 S
Co434 O436 2.091 1_554 S
Co434 O438 2.004 . S
Co434 O444 2.021 . S
Co434 O446 2.137 . S
Co434 O447 2.244 . S
O435 Co434 2.216 1_556 S
O435 C442 1.247 . S
O436 Co434 2.091 1_556 S
O436 C442 1.261 . S
C437 O446 1.247 . S
C437 O447 1.272 . S
O438 Co434 2.004 . S
O438 C443 1.259 . S
Co439 O440 2.061 . S
Co439 O445 2.052 . S
Co439 O447 2.135 . S
O440 Co439 2.061 . S
O440 C443 1.235 . S
C441 O444 1.238 . S
C441 O445 1.241 . S
C442 O435 1.247 . S
C442 O436 1.261 . S
C443 O438 1.259 . S
C443 O440 1.235 . S
O444 Co434 2.021 . S
O444 C441 1.238 . S
O445 Co439 2.052 . S
O445 C441 1.241 . S
O446 Co434 2.137 . S
O446 C437 1.247 . S
O447 Co434 2.244 . S
O447 C437 1.272 . S
O447 Co439 2.135 . S
H448 C454 0.930 . S
H449 C458 0.930 . S
H450 C463 0.929 . S
H451 C461 0.929 . S
H452 C456 0.929 . S
H453 C462 0.929 . S
C454 H448 0.930 . S
C454 C455 1.367 . S
C454 C462 1.378 . S
C455 C454 1.367 . S
C455 C463 1.433 . S
C456 H452 0.929 . S
C456 C458 1.378 . S
C456 C460 1.350 . S
C457 C460 1.463 . S
C457 C462 1.350 . S
C457 N465 1.427 . S
C458 H449 0.930 . S
C458 C456 1.378 . S
C458 C459 1.367 . S
C459 C458 1.367 . S
C459 C461 1.433 . S
C460 C456 1.350 . S
C460 C457 1.463 . S
C460 N464 1.427 . S
C461 H451 0.929 . S
C461 C459 1.433 . S
C461 N464 1.384 . S
C462 H453 0.929 . S
C462 C454 1.378 . S
C462 C457 1.350 . S
C463 H450 0.929 . S
C463 C455 1.433 . S
C463 N465 1.384 . S
N464 C460 1.427 . S
N464 C461 1.384 . S
N465 C457 1.427 . S
N465 C463 1.384 . S
H466 C472 0.930 . S
H467 C476 0.930 . S
H468 C481 0.929 . S
H469 C479 0.929 . S
H470 C474 0.929 . S
H471 C480 0.929 . S
C472 H466 0.930 . S
C472 C473 1.367 . S
C472 C480 1.378 . S
C473 C472 1.367 . S
C473 C481 1.433 . S
C474 H470 0.929 . S
C474 C476 1.378 . S
C474 C478 1.350 . S
C475 C478 1.463 . S
C475 C480 1.350 . S
C475 N483 1.427 . S
C476 H467 0.930 . S
C476 C474 1.378 . S
C476 C477 1.367 . S
C477 C476 1.367 . S
C477 C479 1.433 . S
C478 C474 1.350 . S
C478 C475 1.463 . S
C478 N482 1.427 . S
C479 H469 0.929 . S
C479 C477 1.433 . S
C479 N482 1.384 . S
C480 H471 0.929 . S
C480 C472 1.378 . S
C480 C475 1.350 . S
C481 H468 0.929 . S
C481 C473 1.433 . S
C481 N483 1.384 . S
N482 C478 1.427 . S
N482 C479 1.384 . S
N483 C475 1.427 . S
N483 C481 1.384 . S
H484 C490 0.930 . S
H485 C494 0.930 . S
H486 C499 0.929 . S
H487 C497 0.929 . S
H488 C492 0.929 . S
H489 C498 0.929 . S
C490 H484 0.930 . S
C490 C491 1.367 . S
C490 C498 1.378 . S
C491 C490 1.367 . S
C491 C499 1.433 . S
C492 H488 0.929 . S
C492 C494 1.378 . S
C492 C496 1.350 . S
C493 C496 1.463 . S
C493 C498 1.350 . S
C493 N501 1.427 . S
C494 H485 0.930 . S
C494 C492 1.378 . S
C494 C495 1.367 . S
C495 C494 1.367 . S
C495 C497 1.433 . S
C496 C492 1.350 . S
C496 C493 1.463 . S
C496 N500 1.427 . S
C497 H487 0.929 . S
C497 C495 1.433 . S
C497 N500 1.384 . S
C498 H489 0.929 . S
C498 C490 1.378 . S
C498 C493 1.350 . S
C499 H486 0.929 . S
C499 C491 1.433 . S
C499 N501 1.384 . S
N500 C496 1.427 . S
N500 C497 1.384 . S
N501 C493 1.427 . S
N501 C499 1.384 . S
H502 C508 0.930 . S
H503 C512 0.930 . S
H504 C517 0.929 . S
H505 C515 0.929 . S
H506 C510 0.929 . S
H507 C516 0.929 . S
C508 H502 0.930 . S
C508 C509 1.367 . S
C508 C516 1.378 . S
C509 C508 1.367 . S
C509 C517 1.433 . S
C510 H506 0.929 . S
C510 C512 1.378 . S
C510 C514 1.350 . S
C511 C514 1.463 . S
C511 C516 1.350 . S
C511 N519 1.427 . S
C512 H503 0.930 . S
C512 C510 1.378 . S
C512 C513 1.367 . S
C513 C512 1.367 . S
C513 C515 1.433 . S
C514 C510 1.350 . S
C514 C511 1.463 . S
C514 N518 1.427 . S
C515 H505 0.929 . S
C515 C513 1.433 . S
C515 N518 1.384 . S
C516 H507 0.929 . S
C516 C508 1.378 . S
C516 C511 1.350 . S
C517 H504 0.929 . S
C517 C509 1.433 . S
C517 N519 1.384 . S
N518 C514 1.427 . S
N518 C515 1.384 . S
N519 C511 1.427 . S
N519 C517 1.384 . S
H520 C526 0.930 . S
H521 C530 0.930 . S
H522 C535 0.929 . S
H523 C533 0.929 . S
H524 C528 0.929 . S
H525 C534 0.929 . S
C526 H520 0.930 . S
C526 C527 1.367 . S
C526 C534 1.378 . S
C527 C526 1.367 . S
C527 C535 1.433 . S
C528 H524 0.929 . S
C528 C530 1.378 . S
C528 C532 1.350 . S
C529 C532 1.463 . S
C529 C534 1.350 . S
C529 N537 1.427 . S
C530 H521 0.930 . S
C530 C528 1.378 . S
C530 C531 1.367 . S
C531 C530 1.367 . S
C531 C533 1.433 . S
C532 C528 1.350 . S
C532 C529 1.463 . S
C532 N536 1.427 . S
C533 H523 0.929 . S
C533 C531 1.433 . S
C533 N536 1.384 . S
C534 H525 0.929 . S
C534 C526 1.378 . S
C534 C529 1.350 . S
C535 H522 0.929 . S
C535 C527 1.433 . S
C535 N537 1.384 . S
N536 C532 1.427 . S
N536 C533 1.384 . S
N537 C529 1.427 . S
N537 C535 1.384 . S
H538 C544 0.930 . S
H539 C548 0.930 . S
H540 C553 0.929 . S
H541 C551 0.929 . S
H542 C546 0.929 . S
H543 C552 0.929 . S
C544 H538 0.930 . S
C544 C545 1.367 . S
C544 C552 1.378 . S
C545 C544 1.367 . S
C545 C553 1.433 . S
C546 H542 0.929 . S
C546 C548 1.378 . S
C546 C550 1.350 . S
C547 C550 1.463 . S
C547 C552 1.350 . S
C547 N555 1.427 . S
C548 H539 0.930 . S
C548 C546 1.378 . S
C548 C549 1.367 . S
C549 C548 1.367 . S
C549 C551 1.433 . S
C550 C546 1.350 . S
C550 C547 1.463 . S
C550 N554 1.427 . S
C551 H541 0.929 . S
C551 C549 1.433 . S
C551 N554 1.384 . S
C552 H543 0.929 . S
C552 C544 1.378 . S
C552 C547 1.350 . S
C553 H540 0.929 . S
C553 C545 1.433 . S
C553 N555 1.384 . S
N554 C550 1.427 . S
N554 C551 1.384 . S
N555 C547 1.427 . S
N555 C553 1.384 . S
H556 C562 0.930 1_455 S
H557 C566 0.930 . S
H558 C571 0.929 . S
H559 C569 0.929 1_455 S
H560 C564 0.929 . S
H561 C570 0.929 1_455 S
C562 H556 0.930 1_655 S
C562 C563 1.367 . S
C562 C570 1.378 . S
C563 C562 1.367 . S
C563 C571 1.433 . S
C564 H560 0.929 . S
C564 C566 1.378 . S
C564 C568 1.350 . S
C565 C568 1.463 . S
C565 C570 1.350 . S
C565 N573 1.427 . S
C566 H557 0.930 . S
C566 C564 1.378 . S
C566 C567 1.367 . S
C567 C566 1.367 . S
C567 C569 1.433 . S
C568 C564 1.350 . S
C568 C565 1.463 . S
C568 N572 1.427 . S
C569 H559 0.929 1_655 S
C569 C567 1.433 . S
C569 N572 1.384 . S
C570 H561 0.929 1_655 S
C570 C562 1.378 . S
C570 C565 1.350 . S
C571 H558 0.929 . S
C571 C563 1.433 . S
C571 N573 1.384 . S
N572 C568 1.427 . S
N572 C569 1.384 . S
N573 C565 1.427 . S
N573 C571 1.384 . S
H574 C580 0.930 . S
H575 C584 0.930 . S
H576 C589 0.929 . S
H577 C587 0.929 . S
H578 C582 0.929 . S
H579 C588 0.929 . S
C580 H574 0.930 . S
C580 C581 1.367 . S
C580 C588 1.378 . S
C581 C580 1.367 . S
C581 C589 1.433 . S
C582 H578 0.929 . S
C582 C584 1.378 . S
C582 C586 1.350 . S
C583 C586 1.463 . S
C583 C588 1.350 . S
C583 N591 1.427 . S
C584 H575 0.930 . S
C584 C582 1.378 . S
C584 C585 1.367 . S
C585 C584 1.367 . S
C585 C587 1.433 . S
C586 C582 1.350 . S
C586 C583 1.463 . S
C586 N590 1.427 . S
C587 H577 0.929 . S
C587 C585 1.433 . S
C587 N590 1.384 . S
C588 H579 0.929 . S
C588 C580 1.378 . S
C588 C583 1.350 . S
C589 H576 0.929 . S
C589 C581 1.433 . S
C589 N591 1.384 . S
N590 C586 1.427 . S
N590 C587 1.384 . S
N591 C583 1.427 . S
N591 C589 1.384 . S
H592 C598 0.930 . S
H593 C602 0.930 . S
H594 C607 0.929 . S
H595 C605 0.929 . S
H596 C600 0.929 . S
H597 C606 0.929 . S
C598 H592 0.930 . S
C598 C599 1.367 . S
C598 C606 1.378 . S
C599 C598 1.367 . S
C599 C607 1.433 . S
C600 H596 0.929 . S
C600 C602 1.378 . S
C600 C604 1.350 . S
C601 C604 1.463 . S
C601 C606 1.350 . S
C601 N609 1.427 . S
C602 H593 0.930 . S
C602 C600 1.378 . S
C602 C603 1.367 . S
C603 C602 1.367 . S
C603 C605 1.433 . S
C604 C600 1.350 . S
C604 C601 1.463 . S
C604 N608 1.427 . S
C605 H595 0.929 . S
C605 C603 1.433 . S
C605 N608 1.384 . S
C606 H597 0.929 . S
C606 C598 1.378 . S
C606 C601 1.350 . S
C607 H594 0.929 . S
C607 C599 1.433 . S
C607 N609 1.384 . S
N608 C604 1.427 . S
N608 C605 1.384 . S
N609 C601 1.427 . S
N609 C607 1.384 . S
H610 C616 0.930 . S
H611 C620 0.930 . S
H612 C625 0.929 . S
H613 C623 0.929 . S
H614 C618 0.929 . S
H615 C624 0.929 . S
C616 H610 0.930 . S
C616 C617 1.367 . S
C616 C624 1.378 . S
C617 C616 1.367 . S
C617 C625 1.433 . S
C618 H614 0.929 . S
C618 C620 1.378 . S
C618 C622 1.350 . S
C619 C622 1.463 . S
C619 C624 1.350 . S
C619 N627 1.427 . S
C620 H611 0.930 . S
C620 C618 1.378 . S
C620 C621 1.367 . S
C621 C620 1.367 . S
C621 C623 1.433 . S
C622 C618 1.350 . S
C622 C619 1.463 . S
C622 N626 1.427 . S
C623 H613 0.929 . S
C623 C621 1.433 . S
C623 N626 1.384 . S
C624 H615 0.929 . S
C624 C616 1.378 . S
C624 C619 1.350 . S
C625 H612 0.929 . S
C625 C617 1.433 . S
C625 N627 1.384 . S
N626 C622 1.427 . S
N626 C623 1.384 . S
N627 C619 1.427 . S
N627 C625 1.384 . S
H628 C634 0.930 . S
H629 C638 0.930 . S
H630 C643 0.929 . S
H631 C641 0.929 . S
H632 C636 0.929 . S
H633 C642 0.929 . S
C634 H628 0.930 . S
C634 C635 1.367 . S
C634 C642 1.378 . S
C635 C634 1.367 . S
C635 C643 1.433 . S
C636 H632 0.929 . S
C636 C638 1.378 . S
C636 C640 1.350 . S
C637 C640 1.463 . S
C637 C642 1.350 . S
C637 N645 1.427 . S
C638 H629 0.930 . S
C638 C636 1.378 . S
C638 C639 1.367 . S
C639 C638 1.367 . S
C639 C641 1.433 . S
C640 C636 1.350 . S
C640 C637 1.463 . S
C640 N644 1.427 . S
C641 H631 0.929 . S
C641 C639 1.433 . S
C641 N644 1.384 . S
C642 H633 0.929 . S
C642 C634 1.378 . S
C642 C637 1.350 . S
C643 H630 0.929 . S
C643 C635 1.433 . S
C643 N645 1.384 . S
N644 C640 1.427 . S
N644 C641 1.384 . S
N645 C637 1.427 . S
N645 C643 1.384 . S
H646 C652 0.930 . S
H647 C656 0.930 . S
H648 C661 0.929 . S
H649 C659 0.929 . S
H650 C654 0.929 . S
H651 C660 0.929 . S
C652 H646 0.930 . S
C652 C653 1.367 . S
C652 C660 1.378 . S
C653 C652 1.367 . S
C653 C661 1.433 . S
C654 H650 0.929 . S
C654 C656 1.378 . S
C654 C658 1.350 . S
C655 C658 1.463 . S
C655 C660 1.350 . S
C655 N663 1.427 . S
C656 H647 0.930 . S
C656 C654 1.378 . S
C656 C657 1.367 . S
C657 C656 1.367 . S
C657 C659 1.433 . S
C658 C654 1.350 . S
C658 C655 1.463 . S
C658 N662 1.427 . S
C659 H649 0.929 . S
C659 C657 1.433 . S
C659 N662 1.384 . S
C660 H651 0.929 . S
C660 C652 1.378 . S
C660 C655 1.350 . S
C661 H648 0.929 . S
C661 C653 1.433 . S
C661 N663 1.384 . S
N662 C658 1.427 . S
N662 C659 1.384 . S
N663 C655 1.427 . S
N663 C661 1.384 . S
H664 C670 0.930 . S
H665 C674 0.930 . S
H666 C679 0.929 . S
H667 C677 0.929 . S
H668 C672 0.929 . S
H669 C678 0.929 . S
C670 H664 0.930 . S
C670 C671 1.367 . S
C670 C678 1.378 . S
C671 C670 1.367 . S
C671 C679 1.433 . S
C672 H668 0.929 . S
C672 C674 1.378 . S
C672 C676 1.350 . S
C673 C676 1.463 . S
C673 C678 1.350 . S
C673 N681 1.427 . S
C674 H665 0.930 . S
C674 C672 1.378 . S
C674 C675 1.367 . S
C675 C674 1.367 . S
C675 C677 1.433 . S
C676 C672 1.350 . S
C676 C673 1.463 . S
C676 N680 1.427 . S
C677 H667 0.929 . S
C677 C675 1.433 . S
C677 N680 1.384 . S
C678 H669 0.929 . S
C678 C670 1.378 . S
C678 C673 1.350 . S
C679 H666 0.929 . S
C679 C671 1.433 . S
C679 N681 1.384 . S
N680 C676 1.427 . S
N680 C677 1.384 . S
N681 C673 1.427 . S
N681 C679 1.384 . S
H682 C688 0.930 . S
H683 C692 0.930 . S
H684 C697 0.929 . S
H685 C695 0.929 . S
H686 C690 0.929 . S
H687 C696 0.929 . S
C688 H682 0.930 . S
C688 C689 1.367 . S
C688 C696 1.378 . S
C689 C688 1.367 . S
C689 C697 1.433 . S
C690 H686 0.929 . S
C690 C692 1.378 . S
C690 C694 1.350 . S
C691 C694 1.463 . S
C691 C696 1.350 . S
C691 N699 1.427 . S
C692 H683 0.930 . S
C692 C690 1.378 . S
C692 C693 1.367 . S
C693 C692 1.367 . S
C693 C695 1.433 . S
C694 C690 1.350 . S
C694 C691 1.463 . S
C694 N698 1.427 . S
C695 H685 0.929 . S
C695 C693 1.433 . S
C695 N698 1.384 . S
C696 H687 0.929 . S
C696 C688 1.378 . S
C696 C691 1.350 . S
C697 H684 0.929 . S
C697 C689 1.433 . S
C697 N699 1.384 . S
N698 C694 1.427 . S
N698 C695 1.384 . S
N699 C691 1.427 . S
N699 C697 1.384 . S
H700 C706 0.930 . S
H701 C710 0.930 . S
H702 C715 0.929 . S
H703 C713 0.929 . S
H704 C708 0.929 . S
H705 C714 0.929 . S
C706 H700 0.930 . S
C706 C707 1.367 . S
C706 C714 1.378 . S
C707 C706 1.367 . S
C707 C715 1.433 . S
C708 H704 0.929 . S
C708 C710 1.378 . S
C708 C712 1.350 . S
C709 C712 1.463 . S
C709 C714 1.350 . S
C709 N717 1.427 . S
C710 H701 0.930 . S
C710 C708 1.378 . S
C710 C711 1.367 . S
C711 C710 1.367 . S
C711 C713 1.433 . S
C712 C708 1.350 . S
C712 C709 1.463 . S
C712 N716 1.427 . S
C713 H703 0.929 . S
C713 C711 1.433 . S
C713 N716 1.384 . S
C714 H705 0.929 . S
C714 C706 1.378 . S
C714 C709 1.350 . S
C715 H702 0.929 . S
C715 C707 1.433 . S
C715 N717 1.384 . S
N716 C712 1.427 . S
N716 C713 1.384 . S
N717 C709 1.427 . S
N717 C715 1.384 . S
H718 C724 0.930 . S
H719 C728 0.930 . S
H720 C733 0.929 . S
H721 C731 0.929 . S
H722 C726 0.929 . S
H723 C732 0.929 . S
C724 H718 0.930 . S
C724 C725 1.367 . S
C724 C732 1.378 . S
C725 C724 1.367 . S
C725 C733 1.433 . S
C726 H722 0.929 . S
C726 C728 1.378 . S
C726 C730 1.350 . S
C727 C730 1.463 . S
C727 C732 1.350 . S
C727 N735 1.427 . S
C728 H719 0.930 . S
C728 C726 1.378 . S
C728 C729 1.367 . S
C729 C728 1.367 . S
C729 C731 1.433 . S
C730 C726 1.350 . S
C730 C727 1.463 . S
C730 N734 1.427 . S
C731 H721 0.929 . S
C731 C729 1.433 . S
C731 N734 1.384 . S
C732 H723 0.929 . S
C732 C724 1.378 . S
C732 C727 1.350 . S
C733 H720 0.929 . S
C733 C725 1.433 . S
C733 N735 1.384 . S
N734 C730 1.427 . S
N734 C731 1.384 . S
N735 C727 1.427 . S
N735 C733 1.384 . S
H736 C742 0.930 . S
H737 C746 0.930 . S
H738 C751 0.929 . S
H739 C749 0.929 . S
H740 C744 0.929 . S
H741 C750 0.929 . S
C742 H736 0.930 . S
C742 C743 1.367 . S
C742 C750 1.378 . S
C743 C742 1.367 . S
C743 C751 1.433 . S
C744 H740 0.929 . S
C744 C746 1.378 . S
C744 C748 1.350 . S
C745 C748 1.463 . S
C745 C750 1.350 . S
C745 N753 1.427 . S
C746 H737 0.930 . S
C746 C744 1.378 . S
C746 C747 1.367 . S
C747 C746 1.367 . S
C747 C749 1.433 . S
C748 C744 1.350 . S
C748 C745 1.463 . S
C748 N752 1.427 . S
C749 H739 0.929 . S
C749 C747 1.433 . S
C749 N752 1.384 . S
C750 H741 0.929 . S
C750 C742 1.378 . S
C750 C745 1.350 . S
C751 H738 0.929 . S
C751 C743 1.433 . S
C751 N753 1.384 . S
N752 C748 1.427 . S
N752 C749 1.384 . S
N753 C745 1.427 . S
N753 C751 1.384 . S
H754 C760 0.930 . S
H755 C764 0.930 . S
H756 C769 0.929 1_455 S
H757 C767 0.929 . S
H758 C762 0.929 . S
H759 C768 0.929 . S
C760 H754 0.930 . S
C760 C761 1.367 1_655 S
C760 C768 1.378 . S
C761 C760 1.367 1_455 S
C761 C769 1.433 1_455 S
C762 H758 0.929 . S
C762 C764 1.378 . S
C762 C766 1.350 . S
C763 C766 1.463 . S
C763 C768 1.350 . S
C763 N771 1.427 . S
C764 H755 0.930 . S
C764 C762 1.378 . S
C764 C765 1.367 . S
C765 C764 1.367 . S
C765 C767 1.433 . S
C766 C762 1.350 . S
C766 C763 1.463 . S
C766 N770 1.427 . S
C767 H757 0.929 . S
C767 C765 1.433 . S
C767 N770 1.384 . S
C768 H759 0.929 . S
C768 C760 1.378 . S
C768 C763 1.350 . S
C769 H756 0.929 1_655 S
C769 C761 1.433 1_655 S
C769 N771 1.384 . S
N770 C766 1.427 . S
N770 C767 1.384 . S
N771 C763 1.427 . S
N771 C769 1.384 . S
H772 C778 0.930 . S
H773 C782 0.930 . S
H774 C787 0.929 . S
H775 C785 0.929 . S
H776 C780 0.929 . S
H777 C786 0.929 . S
C778 H772 0.930 . S
C778 C779 1.367 . S
C778 C786 1.378 . S
C779 C778 1.367 . S
C779 C787 1.433 . S
C780 H776 0.929 . S
C780 C782 1.378 . S
C780 C784 1.350 . S
C781 C784 1.463 . S
C781 C786 1.350 . S
C781 N789 1.427 . S
C782 H773 0.930 . S
C782 C780 1.378 . S
C782 C783 1.367 . S
C783 C782 1.367 . S
C783 C785 1.433 . S
C784 C780 1.350 . S
C784 C781 1.463 . S
C784 N788 1.427 . S
C785 H775 0.929 . S
C785 C783 1.433 . S
C785 N788 1.384 . S
C786 H777 0.929 . S
C786 C778 1.378 . S
C786 C781 1.350 . S
C787 H774 0.929 . S
C787 C779 1.433 . S
C787 N789 1.384 . S
N788 C784 1.427 . S
N788 C785 1.384 . S
N789 C781 1.427 . S
N789 C787 1.384 . S
H790 C796 0.930 . S
H791 C800 0.930 . S
H792 C805 0.929 . S
H793 C803 0.929 1_455 S
H794 C798 0.929 . S
H795 C804 0.929 . S
C796 H790 0.930 . S
C796 C797 1.367 . S
C796 C804 1.378 . S
C797 C796 1.367 . S
C797 C805 1.433 . S
C798 H794 0.929 . S
C798 C800 1.378 . S
C798 C802 1.350 . S
C799 C802 1.463 . S
C799 C804 1.350 . S
C799 N807 1.427 . S
C800 H791 0.930 . S
C800 C798 1.378 . S
C800 C801 1.367 1_655 S
C801 C800 1.367 1_455 S
C801 C803 1.433 1_455 S
C802 C798 1.350 . S
C802 C799 1.463 . S
C802 N806 1.427 . S
C803 H793 0.929 1_655 S
C803 C801 1.433 1_655 S
C803 N806 1.384 . S
C804 H795 0.929 . S
C804 C796 1.378 . S
C804 C799 1.350 . S
C805 H792 0.929 . S
C805 C797 1.433 . S
C805 N807 1.384 . S
N806 C802 1.427 . S
N806 C803 1.384 . S
N807 C799 1.427 . S
N807 C805 1.384 . S
H808 C814 0.930 . S
H809 C818 0.930 . S
H810 C823 0.929 . S
H811 C821 0.929 . S
H812 C816 0.929 . S
H813 C822 0.929 . S
C814 H808 0.930 . S
C814 C815 1.367 . S
C814 C822 1.378 . S
C815 C814 1.367 . S
C815 C823 1.433 . S
C816 H812 0.929 . S
C816 C818 1.378 . S
C816 C820 1.350 . S
C817 C820 1.463 . S
C817 C822 1.350 . S
C817 N825 1.427 . S
C818 H809 0.930 . S
C818 C816 1.378 . S
C818 C819 1.367 . S
C819 C818 1.367 . S
C819 C821 1.433 . S
C820 C816 1.350 . S
C820 C817 1.463 . S
C820 N824 1.427 . S
C821 H811 0.929 . S
C821 C819 1.433 . S
C821 N824 1.384 . S
C822 H813 0.929 . S
C822 C814 1.378 . S
C822 C817 1.350 . S
C823 H810 0.929 . S
C823 C815 1.433 . S
C823 N825 1.384 . S
N824 C820 1.427 . S
N824 C821 1.384 . S
N825 C817 1.427 . S
N825 C823 1.384 . S
H826 C832 0.930 1_655 S
H827 C836 0.930 . S
H828 C841 0.929 . S
H829 C839 0.929 . S
H830 C834 0.929 . S
H831 C840 0.929 . S
C832 H826 0.930 1_455 S
C832 C833 1.367 1_455 S
C832 C840 1.378 . S
C833 C832 1.367 1_655 S
C833 C841 1.433 1_655 S
C834 H830 0.929 . S
C834 C836 1.378 . S
C834 C838 1.350 . S
C835 C838 1.463 . S
C835 C840 1.350 . S
C835 N843 1.427 . S
C836 H827 0.930 . S
C836 C834 1.378 . S
C836 C837 1.367 . S
C837 C836 1.367 . S
C837 C839 1.433 . S
C838 C834 1.350 . S
C838 C835 1.463 . S
C838 N842 1.427 . S
C839 H829 0.929 . S
C839 C837 1.433 . S
C839 N842 1.384 . S
C840 H831 0.929 . S
C840 C832 1.378 . S
C840 C835 1.350 . S
C841 H828 0.929 . S
C841 C833 1.433 1_455 S
C841 N843 1.384 . S
N842 C838 1.427 . S
N842 C839 1.384 . S
N843 C835 1.427 . S
N843 C841 1.384 . S
H844 C850 0.930 . S
H845 C854 0.930 . S
H846 C859 0.929 . S
H847 C857 0.929 . S
H848 C852 0.929 . S
H849 C858 0.929 . S
C850 H844 0.930 . S
C850 C851 1.367 . S
C850 C858 1.378 . S
C851 C850 1.367 . S
C851 C859 1.433 . S
C852 H848 0.929 . S
C852 C854 1.378 . S
C852 C856 1.350 . S
C853 C856 1.463 . S
C853 C858 1.350 . S
C853 N861 1.427 . S
C854 H845 0.930 . S
C854 C852 1.378 . S
C854 C855 1.367 . S
C855 C854 1.367 . S
C855 C857 1.433 . S
C856 C852 1.350 . S
C856 C853 1.463 . S
C856 N860 1.427 . S
C857 H847 0.929 . S
C857 C855 1.433 . S
C857 N860 1.384 . S
C858 H849 0.929 . S
C858 C850 1.378 . S
C858 C853 1.350 . S
C859 H846 0.929 . S
C859 C851 1.433 . S
C859 N861 1.384 . S
N860 C856 1.427 . S
N860 C857 1.384 . S
N861 C853 1.427 . S
N861 C859 1.384 . S
H862 C868 0.930 . S
H863 C872 0.930 . S
H864 C877 0.929 1_655 S
H865 C875 0.929 . S
H866 C870 0.929 . S
H867 C876 0.929 . S
C868 H862 0.930 . S
C868 C869 1.367 1_455 S
C868 C876 1.378 . S
C869 C868 1.367 1_655 S
C869 C877 1.433 1_655 S
C870 H866 0.929 . S
C870 C872 1.378 . S
C870 C874 1.350 . S
C871 C874 1.463 . S
C871 C876 1.350 . S
C871 N879 1.427 . S
C872 H863 0.930 . S
C872 C870 1.378 . S
C872 C873 1.367 . S
C873 C872 1.367 . S
C873 C875 1.433 . S
C874 C870 1.350 . S
C874 C871 1.463 . S
C874 N878 1.427 . S
C875 H865 0.929 . S
C875 C873 1.433 . S
C875 N878 1.384 . S
C876 H867 0.929 . S
C876 C868 1.378 . S
C876 C871 1.350 . S
C877 H864 0.929 1_455 S
C877 C869 1.433 1_455 S
C877 N879 1.384 . S
N878 C874 1.427 . S
N878 C875 1.384 . S
N879 C871 1.427 . S
N879 C877 1.384 . S
H880 C886 0.930 . S
H881 C890 0.930 . S
H882 C895 0.929 . S
H883 C893 0.929 . S
H884 C888 0.929 . S
H885 C894 0.929 . S
C886 H880 0.930 . S
C886 C887 1.367 . S
C886 C894 1.378 . S
C887 C886 1.367 . S
C887 C895 1.433 . S
C888 H884 0.929 . S
C888 C890 1.378 . S
C888 C892 1.350 . S
C889 C892 1.463 . S
C889 C894 1.350 . S
C889 N897 1.427 . S
C890 H881 0.930 . S
C890 C888 1.378 . S
C890 C891 1.367 . S
C891 C890 1.367 . S
C891 C893 1.433 . S
C892 C888 1.350 . S
C892 C889 1.463 . S
C892 N896 1.427 . S
C893 H883 0.929 . S
C893 C891 1.433 . S
C893 N896 1.384 . S
C894 H885 0.929 . S
C894 C886 1.378 . S
C894 C889 1.350 . S
C895 H882 0.929 . S
C895 C887 1.433 . S
C895 N897 1.384 . S
N896 C892 1.427 . S
N896 C893 1.384 . S
N897 C889 1.427 . S
N897 C895 1.384 . S
H898 C904 0.930 . S
H899 C908 0.930 1_455 S
H900 C913 0.929 . S
H901 C911 0.929 . S
H902 C906 0.929 . S
H903 C912 0.929 . S
C904 H898 0.930 . S
C904 C905 1.367 . S
C904 C912 1.378 . S
C905 C904 1.367 . S
C905 C913 1.433 . S
C906 H902 0.929 . S
C906 C908 1.378 . S
C906 C910 1.350 . S
C907 C910 1.463 . S
C907 C912 1.350 . S
C907 N915 1.427 . S
C908 H899 0.930 1_655 S
C908 C906 1.378 . S
C908 C909 1.367 1_655 S
C909 C908 1.367 1_455 S
C909 C911 1.433 1_455 S
C910 C906 1.350 . S
C910 C907 1.463 . S
C910 N914 1.427 . S
C911 H901 0.929 . S
C911 C909 1.433 1_655 S
C911 N914 1.384 . S
C912 H903 0.929 . S
C912 C904 1.378 . S
C912 C907 1.350 . S
C913 H900 0.929 . S
C913 C905 1.433 . S
C913 N915 1.384 . S
N914 C910 1.427 . S
N914 C911 1.384 . S
N915 C907 1.427 . S
N915 C913 1.384 . S
H916 C922 0.930 . S
H917 C926 0.930 . S
H918 C931 0.929 . S
H919 C929 0.929 . S
H920 C924 0.929 . S
H921 C930 0.929 . S
C922 H916 0.930 . S
C922 C923 1.367 . S
C922 C930 1.378 . S
C923 C922 1.367 . S
C923 C931 1.433 . S
C924 H920 0.929 . S
C924 C926 1.378 . S
C924 C928 1.350 . S
C925 C928 1.463 . S
C925 C930 1.350 . S
C925 N933 1.427 . S
C926 H917 0.930 . S
C926 C924 1.378 . S
C926 C927 1.367 . S
C927 C926 1.367 . S
C927 C929 1.433 . S
C928 C924 1.350 . S
C928 C925 1.463 . S
C928 N932 1.427 . S
C929 H919 0.929 . S
C929 C927 1.433 . S
C929 N932 1.384 . S
C930 H921 0.929 . S
C930 C922 1.378 . S
C930 C925 1.350 . S
C931 H918 0.929 . S
C931 C923 1.433 . S
C931 N933 1.384 . S
N932 C928 1.427 . S
N932 C929 1.384 . S
N933 C925 1.427 . S
N933 C931 1.384 . S
H934 C940 0.930 . S
H935 C944 0.930 . S
H936 C949 0.929 . S
H937 C947 0.929 . S
H938 C942 0.929 . S
H939 C948 0.929 . S
C940 H934 0.930 . S
C940 C941 1.367 . S
C940 C948 1.378 . S
C941 C940 1.367 . S
C941 C949 1.433 . S
C942 H938 0.929 . S
C942 C944 1.378 1_655 S
C942 C946 1.350 . S
C943 C946 1.463 . S
C943 C948 1.350 . S
C943 N951 1.427 . S
C944 H935 0.930 . S
C944 C942 1.378 1_455 S
C944 C945 1.367 . S
C945 C944 1.367 . S
C945 C947 1.433 1_455 S
C946 C942 1.350 . S
C946 C943 1.463 . S
C946 N950 1.427 . S
C947 H937 0.929 . S
C947 C945 1.433 1_655 S
C947 N950 1.384 . S
C948 H939 0.929 . S
C948 C940 1.378 . S
C948 C943 1.350 . S
C949 H936 0.929 . S
C949 C941 1.433 . S
C949 N951 1.384 . S
N950 C946 1.427 . S
N950 C947 1.384 . S
N951 C943 1.427 . S
N951 C949 1.384 . S
H952 C958 0.930 . S
H953 C962 0.930 . S
H954 C967 0.929 . S
H955 C965 0.929 . S
H956 C960 0.929 . S
H957 C966 0.929 . S
C958 H952 0.930 . S
C958 C959 1.367 . S
C958 C966 1.378 . S
C959 C958 1.367 . S
C959 C967 1.433 . S
C960 H956 0.929 . S
C960 C962 1.378 . S
C960 C964 1.350 . S
C961 C964 1.463 . S
C961 C966 1.350 . S
C961 N969 1.427 . S
C962 H953 0.930 . S
C962 C960 1.378 . S
C962 C963 1.367 . S
C963 C962 1.367 . S
C963 C965 1.433 . S
C964 C960 1.350 . S
C964 C961 1.463 . S
C964 N968 1.427 . S
C965 H955 0.929 . S
C965 C963 1.433 . S
C965 N968 1.384 . S
C966 H957 0.929 . S
C966 C958 1.378 . S
C966 C961 1.350 . S
C967 H954 0.929 . S
C967 C959 1.433 . S
C967 N969 1.384 . S
N968 C964 1.427 . S
N968 C965 1.384 . S
N969 C961 1.427 . S
N969 C967 1.384 . S
H970 C976 0.930 . S
H971 C980 0.930 1_655 S
H972 C985 0.929 . S
H973 C983 0.929 . S
H974 C978 0.929 . S
H975 C984 0.929 . S
C976 H970 0.930 . S
C976 C977 1.367 . S
C976 C984 1.378 . S
C977 C976 1.367 . S
C977 C985 1.433 . S
C978 H974 0.929 . S
C978 C980 1.378 . S
C978 C982 1.350 . S
C979 C982 1.463 . S
C979 C984 1.350 . S
C979 N987 1.427 . S
C980 H971 0.930 1_455 S
C980 C978 1.378 . S
C980 C981 1.367 1_455 S
C981 C980 1.367 1_655 S
C981 C983 1.433 1_655 S
C982 C978 1.350 . S
C982 C979 1.463 . S
C982 N986 1.427 . S
C983 H973 0.929 . S
C983 C981 1.433 1_455 S
C983 N986 1.384 . S
C984 H975 0.929 . S
C984 C976 1.378 . S
C984 C979 1.350 . S
C985 H972 0.929 . S
C985 C977 1.433 . S
C985 N987 1.384 . S
N986 C982 1.427 . S
N986 C983 1.384 . S
N987 C979 1.427 . S
N987 C985 1.384 . S
H988 C994 0.930 . S
H989 C998 0.930 . S
H990 C1003 0.929 . S
H991 C1001 0.929 . S
H992 C996 0.929 . S
H993 C1002 0.929 . S
C994 H988 0.930 . S
C994 C995 1.367 . S
C994 C1002 1.378 . S
C995 C994 1.367 . S
C995 C1003 1.433 . S
C996 H992 0.929 . S
C996 C998 1.378 . S
C996 C1000 1.350 . S
C997 C1000 1.463 . S
C997 C1002 1.350 . S
C997 N1005 1.427 . S
C998 H989 0.930 . S
C998 C996 1.378 . S
C998 C999 1.367 . S
C999 C998 1.367 . S
C999 C1001 1.433 . S
C1000 C996 1.350 . S
C1000 C997 1.463 . S
C1000 N1004 1.427 . S
C1001 H991 0.929 . S
C1001 C999 1.433 . S
C1001 N1004 1.384 . S
C1002 H993 0.929 . S
C1002 C994 1.378 . S
C1002 C997 1.350 . S
C1003 H990 0.929 . S
C1003 C995 1.433 . S
C1003 N1005 1.384 . S
N1004 C1000 1.427 . S
N1004 C1001 1.384 . S
N1005 C997 1.427 . S
N1005 C1003 1.384 . S
H1006 C1012 0.923 1_655 S
H1007 C1016 0.930 . S
H1008 C1021 0.929 1_655 S
H1009 C1019 0.929 . S
H1010 C1014 0.929 . S
H1011 C1020 0.929 . S
C1012 H1006 0.923 1_455 S
C1012 C1013 1.367 1_455 S
C1012 C1020 1.378 . S
C1013 C1012 1.367 1_655 S
C1013 C1021 1.433 1_655 S
C1014 H1010 0.929 . S
C1014 C1016 1.378 . S
C1014 C1018 1.350 . S
C1015 C1018 1.463 . S
C1015 C1020 1.350 . S
C1015 N1023 1.427 . S
C1016 H1007 0.930 . S
C1016 C1014 1.378 . S
C1016 C1017 1.367 . S
C1017 C1016 1.367 . S
C1017 C1019 1.433 . S
C1018 C1014 1.350 . S
C1018 C1015 1.463 . S
C1018 N1022 1.427 . S
C1019 H1009 0.929 . S
C1019 C1017 1.433 . S
C1019 N1022 1.384 . S
C1020 H1011 0.929 . S
C1020 C1012 1.378 . S
C1020 C1015 1.350 . S
C1021 H1008 0.929 1_455 S
C1021 C1013 1.433 1_455 S
C1021 N1023 1.384 . S
N1022 C1018 1.427 . S
N1022 C1019 1.384 . S
N1023 C1015 1.427 . S
N1023 C1021 1.384 . S
H1024 C1030 0.930 . S
H1025 C1034 0.930 . S
H1026 C1039 0.929 . S
H1027 C1037 0.929 . S
H1028 C1032 0.929 . S
H1029 C1038 0.929 . S
C1030 H1024 0.930 . S
C1030 C1031 1.367 1_455 S
C1030 C1038 1.378 . S
C1031 C1030 1.367 1_655 S
C1031 C1039 1.433 . S
C1032 H1028 0.929 . S
C1032 C1034 1.378 . S
C1032 C1036 1.350 1_655 S
C1033 C1036 1.463 1_655 S
C1033 C1038 1.350 1_655 S
C1033 N1041 1.427 . S
C1034 H1025 0.930 . S
C1034 C1032 1.378 . S
C1034 C1035 1.367 1_655 S
C1035 C1034 1.367 1_455 S
C1035 C1037 1.433 . S
C1036 C1032 1.350 1_455 S
C1036 C1033 1.463 1_455 S
C1036 N1040 1.427 . S
C1037 H1027 0.929 . S
C1037 C1035 1.433 . S
C1037 N1040 1.384 . S
C1038 H1029 0.929 . S
C1038 C1030 1.378 . S
C1038 C1033 1.350 1_455 S
C1039 H1026 0.929 . S
C1039 C1031 1.433 . S
C1039 N1041 1.384 . S
N1040 C1036 1.427 . S
N1040 C1037 1.384 . S
N1041 C1033 1.427 . S
N1041 C1039 1.384 . S
H1042 C1048 0.930 . S
H1043 C1052 0.930 . S
H1044 C1057 0.929 . S
H1045 C1055 0.929 . S
H1046 C1050 0.929 . S
H1047 C1056 0.929 . S
C1048 H1042 0.930 . S
C1048 C1049 1.367 . S
C1048 C1056 1.378 . S
C1049 C1048 1.367 . S
C1049 C1057 1.433 . S
C1050 H1046 0.929 . S
C1050 C1052 1.378 . S
C1050 C1054 1.350 . S
C1051 C1054 1.463 1_565 S
C1051 C1056 1.350 . S
C1051 N1059 1.427 . S
C1052 H1043 0.930 . S
C1052 C1050 1.378 . S
C1052 C1053 1.367 . S
C1053 C1052 1.367 . S
C1053 C1055 1.433 . S
C1054 C1050 1.350 . S
C1054 C1051 1.463 1_545 S
C1054 N1058 1.427 . S
C1055 H1045 0.929 . S
C1055 C1053 1.433 . S
C1055 N1058 1.384 . S
C1056 H1047 0.929 . S
C1056 C1048 1.378 . S
C1056 C1051 1.350 . S
C1057 H1044 0.929 . S
C1057 C1049 1.433 . S
C1057 N1059 1.384 . S
N1058 C1054 1.427 . S
N1058 C1055 1.384 . S
N1059 C1051 1.427 . S
N1059 C1057 1.384 . S
H1060 C1066 0.930 . S
H1061 C1070 0.933 . S
H1062 C1075 0.929 . S
H1063 C1073 0.929 . S
H1064 C1068 0.929 . S
H1065 C1074 0.929 . S
C1066 H1060 0.930 . S
C1066 C1067 1.367 1_455 S
C1066 C1074 1.378 1_554 S
C1067 C1066 1.367 1_655 S
C1067 C1075 1.433 . S
C1068 H1064 0.929 . S
C1068 C1070 1.378 1_554 S
C1068 C1072 1.350 1_654 S
C1069 C1072 1.463 1_644 S
C1069 C1074 1.350 1_654 S
C1069 N1077 1.427 . S
C1070 H1061 0.933 . S
C1070 C1068 1.378 1_556 S
C1070 C1071 1.367 1_655 S
C1071 C1070 1.367 1_455 S
C1071 C1073 1.433 . S
C1072 C1068 1.350 1_456 S
C1072 C1069 1.463 1_466 S
C1072 N1076 1.427 . S
C1073 H1063 0.929 . S
C1073 C1071 1.433 . S
C1073 N1076 1.384 . S
C1074 H1065 0.929 . S
C1074 C1066 1.378 1_556 S
C1074 C1069 1.350 1_456 S
C1075 H1062 0.929 . S
C1075 C1067 1.433 . S
C1075 N1077 1.384 . S
N1076 C1072 1.427 . S
N1076 C1073 1.384 . S
N1077 C1069 1.427 . S
N1077 C1075 1.384 . S
H1078 C1084 0.930 . S
H1079 C1088 0.930 . S
H1080 C1093 0.929 . S
H1081 C1091 0.929 . S
H1082 C1086 0.929 1_554 S
H1083 C1092 0.929 1_556 S
C1084 H1078 0.930 . S
C1084 C1085 1.367 . S
C1084 C1092 1.378 . S
C1085 C1084 1.367 . S
C1085 C1093 1.433 . S
C1086 H1082 0.929 1_556 S
C1086 C1088 1.378 . S
C1086 C1090 1.350 . S
C1087 C1090 1.463 1_554 S
C1087 C1092 1.350 . S
C1087 N1095 1.427 . S
C1088 H1079 0.930 . S
C1088 C1086 1.378 . S
C1088 C1089 1.367 . S
C1089 C1088 1.367 . S
C1089 C1091 1.433 . S
C1090 C1086 1.350 . S
C1090 C1087 1.463 1_556 S
C1090 N1094 1.427 . S
C1091 H1081 0.929 . S
C1091 C1089 1.433 . S
C1091 N1094 1.384 . S
C1092 H1083 0.929 1_554 S
C1092 C1084 1.378 . S
C1092 C1087 1.350 . S
C1093 H1080 0.929 . S
C1093 C1085 1.433 . S
C1093 N1095 1.384 . S
N1094 C1090 1.427 . S
N1094 C1091 1.384 . S
N1095 C1087 1.427 . S
N1095 C1093 1.384 . S
H1096 C1102 0.930 1_455 S
H1097 C1106 0.930 1_655 S
H1098 C1111 0.929 . S
H1099 C1109 0.929 . S
H1100 C1104 0.929 . S
H1101 C1110 0.929 . S
C1102 H1096 0.930 1_655 S
C1102 C1103 1.367 . S
C1102 C1110 1.378 1_655 S
C1103 C1102 1.367 . S
C1103 C1111 1.433 . S
C1104 H1100 0.929 . S
C1104 C1106 1.378 1_655 S
C1104 C1108 1.350 1_655 S
C1105 C1108 1.463 1_655 S
C1105 C1110 1.350 1_655 S
C1105 N1113 1.427 . S
C1106 H1097 0.930 1_455 S
C1106 C1104 1.378 1_455 S
C1106 C1107 1.367 . S
C1107 C1106 1.367 . S
C1107 C1109 1.433 . S
C1108 C1104 1.350 1_455 S
C1108 C1105 1.463 1_455 S
C1108 N1112 1.427 . S
C1109 H1099 0.929 . S
C1109 C1107 1.433 . S
C1109 N1112 1.384 . S
C1110 H1101 0.929 . S
C1110 C1102 1.378 1_455 S
C1110 C1105 1.350 1_455 S
C1111 H1098 0.929 . S
C1111 C1103 1.433 . S
C1111 N1113 1.384 . S
N1112 C1108 1.427 . S
N1112 C1109 1.384 . S
N1113 C1105 1.427 . S
N1113 C1111 1.384 . S
H1114 C1120 0.930 . S
H1115 C1124 0.930 . S
H1116 C1129 0.929 . S
H1117 C1127 0.929 . S
H1118 C1122 0.929 . S
H1119 C1128 0.929 . S
C1120 H1114 0.930 . S
C1120 C1121 1.367 . S
C1120 C1128 1.378 . S
C1121 C1120 1.367 . S
C1121 C1129 1.433 . S
C1122 H1118 0.929 . S
C1122 C1124 1.378 . S
C1122 C1126 1.350 . S
C1123 C1126 1.463 1_565 S
C1123 C1128 1.350 . S
C1123 N1131 1.427 . S
C1124 H1115 0.930 . S
C1124 C1122 1.378 . S
C1124 C1125 1.367 . S
C1125 C1124 1.367 . S
C1125 C1127 1.433 . S
C1126 C1122 1.350 . S
C1126 C1123 1.463 1_545 S
C1126 N1130 1.427 . S
C1127 H1117 0.929 . S
C1127 C1125 1.433 . S
C1127 N1130 1.384 . S
C1128 H1119 0.929 . S
C1128 C1120 1.378 . S
C1128 C1123 1.350 . S
C1129 H1116 0.929 . S
C1129 C1121 1.433 . S
C1129 N1131 1.384 . S
N1130 C1126 1.427 . S
N1130 C1127 1.384 . S
N1131 C1123 1.427 . S
N1131 C1129 1.384 . S
H1132 C1138 0.930 . S
H1133 C1142 0.930 . S
H1134 C1147 0.934 . S
H1135 C1145 0.929 1_556 S
H1136 C1140 0.929 . S
H1137 C1146 0.929 . S
C1138 H1132 0.930 . S
C1138 C1139 1.367 . S
C1138 C1146 1.378 . S
C1139 C1138 1.367 . S
C1139 C1147 1.425 1_556 S
C1140 H1136 0.929 . S
C1140 C1142 1.378 . S
C1140 C1144 1.350 . S
C1141 C1144 1.463 1_556 S
C1141 C1146 1.350 . S
C1141 N1149 1.427 1_556 S
C1142 H1133 0.930 . S
C1142 C1140 1.378 . S
C1142 C1143 1.367 . S
C1143 C1142 1.367 . S
C1143 C1145 1.433 . S
C1144 C1140 1.350 . S
C1144 C1141 1.463 1_554 S
C1144 N1148 1.427 1_554 S
C1145 H1135 0.929 1_554 S
C1145 C1143 1.433 . S
C1145 N1148 1.384 1_554 S
C1146 H1137 0.929 . S
C1146 C1138 1.378 . S
C1146 C1141 1.350 . S
C1147 H1134 0.934 . S
C1147 C1139 1.425 1_554 S
C1147 N1149 1.387 . S
N1148 C1144 1.427 1_556 S
N1148 C1145 1.384 1_556 S
N1149 C1141 1.427 1_554 S
N1149 C1147 1.387 . S
H1150 C1156 0.930 . S
H1151 C1160 0.930 . S
H1152 C1165 0.929 . S
H1153 C1163 0.929 . S
H1154 C1158 0.929 . S
H1155 C1164 0.929 . S
C1156 H1150 0.930 . S
C1156 C1157 1.367 . S
C1156 C1164 1.378 . S
C1157 C1156 1.367 . S
C1157 C1165 1.433 . S
C1158 H1154 0.929 . S
C1158 C1160 1.378 . S
C1158 C1162 1.350 . S
C1159 C1162 1.463 . S
C1159 C1164 1.350 . S
C1159 N1167 1.427 . S
C1160 H1151 0.930 . S
C1160 C1158 1.378 . S
C1160 C1161 1.367 . S
C1161 C1160 1.367 . S
C1161 C1163 1.433 . S
C1162 C1158 1.350 . S
C1162 C1159 1.463 . S
C1162 N1166 1.427 . S
C1163 H1153 0.929 . S
C1163 C1161 1.433 . S
C1163 N1166 1.384 . S
C1164 H1155 0.929 . S
C1164 C1156 1.378 . S
C1164 C1159 1.350 . S
C1165 H1152 0.929 . S
C1165 C1157 1.433 . S
C1165 N1167 1.384 . S
N1166 C1162 1.427 . S
N1166 C1163 1.384 . S
N1167 C1159 1.427 . S
N1167 C1165 1.384 . S
H1168 C1174 0.930 . S
H1169 C1178 0.930 . S
H1170 C1183 0.929 . S
H1171 C1181 0.929 . S
H1172 C1176 0.929 . S
H1173 C1182 0.929 . S
C1174 H1168 0.930 . S
C1174 C1175 1.367 . S
C1174 C1182 1.378 . S
C1175 C1174 1.367 . S
C1175 C1183 1.433 . S
C1176 H1172 0.929 . S
C1176 C1178 1.378 . S
C1176 C1180 1.350 . S
C1177 C1180 1.463 1_455 S
C1177 C1182 1.350 . S
C1177 N1185 1.427 1_455 S
C1178 H1169 0.930 . S
C1178 C1176 1.378 . S
C1178 C1179 1.367 . S
C1179 C1178 1.367 . S
C1179 C1181 1.433 . S
C1180 C1176 1.350 . S
C1180 C1177 1.463 1_655 S
C1180 N1184 1.424 1_655 S
C1181 H1171 0.929 . S
C1181 C1179 1.433 . S
C1181 N1184 1.380 1_655 S
C1182 H1173 0.929 . S
C1182 C1174 1.378 . S
C1182 C1177 1.350 . S
C1183 H1170 0.929 . S
C1183 C1175 1.433 . S
C1183 N1185 1.384 1_455 S
N1184 C1180 1.424 1_455 S
N1184 C1181 1.380 1_455 S
N1185 C1177 1.427 1_655 S
N1185 C1183 1.384 1_655 S
H1186 C1192 0.930 . S
H1187 C1196 0.930 . S
H1188 C1201 0.929 . S
H1189 C1199 0.929 . S
H1190 C1194 0.929 . S
H1191 C1200 0.929 . S
C1192 H1186 0.930 . S
C1192 C1193 1.367 . S
C1192 C1200 1.378 . S
C1193 C1192 1.367 . S
C1193 C1201 1.433 . S
C1194 H1190 0.929 . S
C1194 C1196 1.378 . S
C1194 C1198 1.350 . S
C1195 C1198 1.463 . S
C1195 C1200 1.350 . S
C1195 N1203 1.427 . S
C1196 H1187 0.930 . S
C1196 C1194 1.378 . S
C1196 C1197 1.367 . S
C1197 C1196 1.367 . S
C1197 C1199 1.433 . S
C1198 C1194 1.350 . S
C1198 C1195 1.463 . S
C1198 N1202 1.427 . S
C1199 H1189 0.929 . S
C1199 C1197 1.433 . S
C1199 N1202 1.384 . S
C1200 H1191 0.929 . S
C1200 C1192 1.378 . S
C1200 C1195 1.350 . S
C1201 H1188 0.929 . S
C1201 C1193 1.433 . S
C1201 N1203 1.384 . S
N1202 C1198 1.427 . S
N1202 C1199 1.384 . S
N1203 C1195 1.427 . S
N1203 C1201 1.384 . S
H1204 C1210 0.930 . S
H1205 C1214 0.930 . S
H1206 C1219 0.929 . S
H1207 C1217 0.929 . S
H1208 C1212 0.929 . S
H1209 C1218 0.929 . S
C1210 H1204 0.930 . S
C1210 C1211 1.367 . S
C1210 C1218 1.378 . S
C1211 C1210 1.367 . S
C1211 C1219 1.433 . S
C1212 H1208 0.929 . S
C1212 C1214 1.378 . S
C1212 C1216 1.350 . S
C1213 C1216 1.463 . S
C1213 C1218 1.350 . S
C1213 N1221 1.427 . S
C1214 H1205 0.930 . S
C1214 C1212 1.378 . S
C1214 C1215 1.367 . S
C1215 C1214 1.367 . S
C1215 C1217 1.433 . S
C1216 C1212 1.350 . S
C1216 C1213 1.463 . S
C1216 N1220 1.427 . S
C1217 H1207 0.929 . S
C1217 C1215 1.433 . S
C1217 N1220 1.384 . S
C1218 H1209 0.929 . S
C1218 C1210 1.378 . S
C1218 C1213 1.350 . S
C1219 H1206 0.929 . S
C1219 C1211 1.433 . S
C1219 N1221 1.384 . S
N1220 C1216 1.427 . S
N1220 C1217 1.384 . S
N1221 C1213 1.427 . S
N1221 C1219 1.384 . S
H1222 C1228 0.930 . S
H1223 C1232 0.930 . S
H1224 C1237 0.929 . S
H1225 C1235 0.929 . S
H1226 C1230 0.929 . S
H1227 C1236 0.929 . S
C1228 H1222 0.930 . S
C1228 C1229 1.367 . S
C1228 C1236 1.378 . S
C1229 C1228 1.367 . S
C1229 C1237 1.433 . S
C1230 H1226 0.929 . S
C1230 C1232 1.378 . S
C1230 C1234 1.350 . S
C1231 C1234 1.463 . S
C1231 C1236 1.350 . S
C1231 N1239 1.427 . S
C1232 H1223 0.930 . S
C1232 C1230 1.378 . S
C1232 C1233 1.367 . S
C1233 C1232 1.367 . S
C1233 C1235 1.433 . S
C1234 C1230 1.350 . S
C1234 C1231 1.463 . S
C1234 N1238 1.427 . S
C1235 H1225 0.929 . S
C1235 C1233 1.433 . S
C1235 N1238 1.384 . S
C1236 H1227 0.929 . S
C1236 C1228 1.378 . S
C1236 C1231 1.350 . S
C1237 H1224 0.929 . S
C1237 C1229 1.433 . S
C1237 N1239 1.384 . S
N1238 C1234 1.427 . S
N1238 C1235 1.384 . S
N1239 C1231 1.427 . S
N1239 C1237 1.384 . S
H1240 C1246 0.930 . S
H1241 C1250 0.930 . S
H1242 C1255 0.929 . S
H1243 C1253 0.929 . S
H1244 C1248 0.929 . S
H1245 C1254 0.929 . S
C1246 H1240 0.930 . S
C1246 C1247 1.367 . S
C1246 C1254 1.378 . S
C1247 C1246 1.367 . S
C1247 C1255 1.433 . S
C1248 H1244 0.929 . S
C1248 C1250 1.378 . S
C1248 C1252 1.350 . S
C1249 C1252 1.463 . S
C1249 C1254 1.350 . S
C1249 N1257 1.427 . S
C1250 H1241 0.930 . S
C1250 C1248 1.378 . S
C1250 C1251 1.367 . S
C1251 C1250 1.367 . S
C1251 C1253 1.433 . S
C1252 C1248 1.350 . S
C1252 C1249 1.463 . S
C1252 N1256 1.427 . S
C1253 H1243 0.929 . S
C1253 C1251 1.433 . S
C1253 N1256 1.384 . S
C1254 H1245 0.929 . S
C1254 C1246 1.378 . S
C1254 C1249 1.350 . S
C1255 H1242 0.929 . S
C1255 C1247 1.433 . S
C1255 N1257 1.384 . S
N1256 C1252 1.427 . S
N1256 C1253 1.384 . S
N1257 C1249 1.427 . S
N1257 C1255 1.384 . S
H1258 C1264 0.930 . S
H1259 C1268 0.930 . S
H1260 C1273 0.929 . S
H1261 C1271 0.929 . S
H1262 C1266 0.929 1_545 S
H1263 C1272 0.929 . S
C1264 H1258 0.930 . S
C1264 C1265 1.367 . S
C1264 C1272 1.378 . S
C1265 C1264 1.367 . S
C1265 C1273 1.433 . S
C1266 H1262 0.929 1_565 S
C1266 C1268 1.378 . S
C1266 C1270 1.350 . S
C1267 C1270 1.463 1_545 S
C1267 C1272 1.350 . S
C1267 N1275 1.427 . S
C1268 H1259 0.930 . S
C1268 C1266 1.378 . S
C1268 C1269 1.367 . S
C1269 C1268 1.367 . S
C1269 C1271 1.433 . S
C1270 C1266 1.350 . S
C1270 C1267 1.463 1_565 S
C1270 N1274 1.427 . S
C1271 H1261 0.929 . S
C1271 C1269 1.433 . S
C1271 N1274 1.384 . S
C1272 H1263 0.929 . S
C1272 C1264 1.378 . S
C1272 C1267 1.350 . S
C1273 H1260 0.929 . S
C1273 C1265 1.433 . S
C1273 N1275 1.384 . S
N1274 C1270 1.427 . S
N1274 C1271 1.384 . S
N1275 C1267 1.427 . S
N1275 C1273 1.384 . S
H1276 C1282 0.930 . S
H1277 C1286 0.930 . S
H1278 C1291 0.929 . S
H1279 C1289 0.929 . S
H1280 C1284 0.929 . S
H1281 C1290 0.929 . S
C1282 H1276 0.930 . S
C1282 C1283 1.367 . S
C1282 C1290 1.378 . S
C1283 C1282 1.367 . S
C1283 C1291 1.433 . S
C1284 H1280 0.929 . S
C1284 C1286 1.378 . S
C1284 C1288 1.350 . S
C1285 C1288 1.463 . S
C1285 C1290 1.350 . S
C1285 N1293 1.427 . S
C1286 H1277 0.930 . S
C1286 C1284 1.378 . S
C1286 C1287 1.367 . S
C1287 C1286 1.367 . S
C1287 C1289 1.433 . S
C1288 C1284 1.350 . S
C1288 C1285 1.463 . S
C1288 N1292 1.427 . S
C1289 H1279 0.929 . S
C1289 C1287 1.433 . S
C1289 N1292 1.384 . S
C1290 H1281 0.929 . S
C1290 C1282 1.378 . S
C1290 C1285 1.350 . S
C1291 H1278 0.929 . S
C1291 C1283 1.433 . S
C1291 N1293 1.384 . S
N1292 C1288 1.427 . S
N1292 C1289 1.384 . S
N1293 C1285 1.427 . S
N1293 C1291 1.384 . S
H1294 C1300 0.930 . S
H1295 C1304 0.930 . S
H1296 C1309 0.929 . S
H1297 C1307 0.929 . S
H1298 C1302 0.929 . S
H1299 C1308 0.929 . S
C1300 H1294 0.930 . S
C1300 C1301 1.367 . S
C1300 C1308 1.378 . S
C1301 C1300 1.367 . S
C1301 C1309 1.433 . S
C1302 H1298 0.929 . S
C1302 C1304 1.378 . S
C1302 C1306 1.350 . S
C1303 C1306 1.463 1_556 S
C1303 C1308 1.350 . S
C1303 N1311 1.427 1_556 S
C1304 H1295 0.930 . S
C1304 C1302 1.378 . S
C1304 C1305 1.367 . S
C1305 C1304 1.367 . S
C1305 C1307 1.433 . S
C1306 C1302 1.350 . S
C1306 C1303 1.463 1_554 S
C1306 N1310 1.427 1_554 S
C1307 H1297 0.929 . S
C1307 C1305 1.433 . S
C1307 N1310 1.384 1_554 S
C1308 H1299 0.929 . S
C1308 C1300 1.378 . S
C1308 C1303 1.350 . S
C1309 H1296 0.929 . S
C1309 C1301 1.433 . S
C1309 N1311 1.384 1_556 S
N1310 C1306 1.427 1_556 S
N1310 C1307 1.384 1_556 S
N1311 C1303 1.427 1_554 S
N1311 C1309 1.384 1_554 S
H1312 C1318 0.930 . S
H1313 C1322 0.930 . S
H1314 C1327 0.929 . S
H1315 C1325 0.929 . S
H1316 C1320 0.929 . S
H1317 C1326 0.929 . S
C1318 H1312 0.930 . S
C1318 C1319 1.367 . S
C1318 C1326 1.378 . S
C1319 C1318 1.367 . S
C1319 C1327 1.433 . S
C1320 H1316 0.929 . S
C1320 C1322 1.378 . S
C1320 C1324 1.350 . S
C1321 C1324 1.463 . S
C1321 C1326 1.350 . S
C1321 N1329 1.427 . S
C1322 H1313 0.930 . S
C1322 C1320 1.378 . S
C1322 C1323 1.367 . S
C1323 C1322 1.367 . S
C1323 C1325 1.433 . S
C1324 C1320 1.350 . S
C1324 C1321 1.463 . S
C1324 N1328 1.427 . S
C1325 H1315 0.929 . S
C1325 C1323 1.433 . S
C1325 N1328 1.384 . S
C1326 H1317 0.929 . S
C1326 C1318 1.378 . S
C1326 C1321 1.350 . S
C1327 H1314 0.929 . S
C1327 C1319 1.433 . S
C1327 N1329 1.384 . S
N1328 C1324 1.427 . S
N1328 C1325 1.384 . S
N1329 C1321 1.427 . S
N1329 C1327 1.384 . S
H1330 C1336 0.930 . S
H1331 C1340 0.930 . S
H1332 C1345 0.929 . S
H1333 C1343 0.929 . S
H1334 C1338 0.929 . S
H1335 C1344 0.929 . S
C1336 H1330 0.930 . S
C1336 C1337 1.367 . S
C1336 C1344 1.378 . S
C1337 C1336 1.367 . S
C1337 C1345 1.433 . S
C1338 H1334 0.929 . S
C1338 C1340 1.378 . S
C1338 C1342 1.350 . S
C1339 C1342 1.463 . S
C1339 C1344 1.350 . S
C1339 N1347 1.427 . S
C1340 H1331 0.930 . S
C1340 C1338 1.378 . S
C1340 C1341 1.367 . S
C1341 C1340 1.367 . S
C1341 C1343 1.433 . S
C1342 C1338 1.350 . S
C1342 C1339 1.463 . S
C1342 N1346 1.427 . S
C1343 H1333 0.929 . S
C1343 C1341 1.433 . S
C1343 N1346 1.384 . S
C1344 H1335 0.929 . S
C1344 C1336 1.378 . S
C1344 C1339 1.350 . S
C1345 H1332 0.929 . S
C1345 C1337 1.433 . S
C1345 N1347 1.384 . S
N1346 C1342 1.427 . S
N1346 C1343 1.384 . S
N1347 C1339 1.427 . S
N1347 C1345 1.384 . S
H1348 C1354 0.930 . S
H1349 C1358 0.930 . S
H1350 C1363 0.929 . S
H1351 C1361 0.929 . S
H1352 C1356 0.929 . S
H1353 C1362 0.929 . S
C1354 H1348 0.930 . S
C1354 C1355 1.367 . S
C1354 C1362 1.378 . S
C1355 C1354 1.367 . S
C1355 C1363 1.433 . S
C1356 H1352 0.929 . S
C1356 C1358 1.378 . S
C1356 C1360 1.350 . S
C1357 C1360 1.463 . S
C1357 C1362 1.350 . S
C1357 N1365 1.427 . S
C1358 H1349 0.930 . S
C1358 C1356 1.378 . S
C1358 C1359 1.367 . S
C1359 C1358 1.367 . S
C1359 C1361 1.433 . S
C1360 C1356 1.350 . S
C1360 C1357 1.463 . S
C1360 N1364 1.427 . S
C1361 H1351 0.929 . S
C1361 C1359 1.433 . S
C1361 N1364 1.384 . S
C1362 H1353 0.929 . S
C1362 C1354 1.378 . S
C1362 C1357 1.350 . S
C1363 H1350 0.929 . S
C1363 C1355 1.433 . S
C1363 N1365 1.384 . S
N1364 C1360 1.427 . S
N1364 C1361 1.384 . S
N1365 C1357 1.427 . S
N1365 C1363 1.384 . S
H1366 C1372 0.930 . S
H1367 C1376 0.930 . S
H1368 C1381 0.929 . S
H1369 C1379 0.929 . S
H1370 C1374 0.929 . S
H1371 C1380 0.929 . S
C1372 H1366 0.930 . S
C1372 C1373 1.367 . S
C1372 C1380 1.378 . S
C1373 C1372 1.367 . S
C1373 C1381 1.433 . S
C1374 H1370 0.929 . S
C1374 C1376 1.378 . S
C1374 C1378 1.350 . S
C1375 C1378 1.463 . S
C1375 C1380 1.350 . S
C1375 N1383 1.427 . S
C1376 H1367 0.930 . S
C1376 C1374 1.378 . S
C1376 C1377 1.367 . S
C1377 C1376 1.367 . S
C1377 C1379 1.433 . S
C1378 C1374 1.350 . S
C1378 C1375 1.463 . S
C1378 N1382 1.427 . S
C1379 H1369 0.929 . S
C1379 C1377 1.433 . S
C1379 N1382 1.384 . S
C1380 H1371 0.929 . S
C1380 C1372 1.378 . S
C1380 C1375 1.350 . S
C1381 H1368 0.929 . S
C1381 C1373 1.433 . S
C1381 N1383 1.384 . S
N1382 C1378 1.427 . S
N1382 C1379 1.384 . S
N1383 C1375 1.427 . S
N1383 C1381 1.384 . S
H1384 C1390 0.930 . S
H1385 C1394 0.930 . S
H1386 C1399 0.929 . S
H1387 C1397 0.929 . S
H1388 C1392 0.929 . S
H1389 C1398 0.929 . S
C1390 H1384 0.930 . S
C1390 C1391 1.367 . S
C1390 C1398 1.378 . S
C1391 C1390 1.367 . S
C1391 C1399 1.433 . S
C1392 H1388 0.929 . S
C1392 C1394 1.378 . S
C1392 C1396 1.350 . S
C1393 C1396 1.463 . S
C1393 C1398 1.350 . S
C1393 N1401 1.427 . S
C1394 H1385 0.930 . S
C1394 C1392 1.378 . S
C1394 C1395 1.367 . S
C1395 C1394 1.367 . S
C1395 C1397 1.433 . S
C1396 C1392 1.350 . S
C1396 C1393 1.463 . S
C1396 N1400 1.427 . S
C1397 H1387 0.929 . S
C1397 C1395 1.433 . S
C1397 N1400 1.384 . S
C1398 H1389 0.929 . S
C1398 C1390 1.378 . S
C1398 C1393 1.350 . S
C1399 H1386 0.929 . S
C1399 C1391 1.433 . S
C1399 N1401 1.384 . S
N1400 C1396 1.427 . S
N1400 C1397 1.384 . S
N1401 C1393 1.427 . S
N1401 C1399 1.384 . S
H1402 C1408 0.930 . S
H1403 C1412 0.930 . S
H1404 C1417 0.929 . S
H1405 C1415 0.929 . S
H1406 C1410 0.929 . S
H1407 C1416 0.929 . S
C1408 H1402 0.930 . S
C1408 C1409 1.367 . S
C1408 C1416 1.378 . S
C1409 C1408 1.367 . S
C1409 C1417 1.433 . S
C1410 H1406 0.929 . S
C1410 C1412 1.378 . S
C1410 C1414 1.350 . S
C1411 C1414 1.463 . S
C1411 C1416 1.350 . S
C1411 N1419 1.427 . S
C1412 H1403 0.930 . S
C1412 C1410 1.378 . S
C1412 C1413 1.367 . S
C1413 C1412 1.367 . S
C1413 C1415 1.433 . S
C1414 C1410 1.350 . S
C1414 C1411 1.463 . S
C1414 N1418 1.427 . S
C1415 H1405 0.929 . S
C1415 C1413 1.433 . S
C1415 N1418 1.384 . S
C1416 H1407 0.929 . S
C1416 C1408 1.378 . S
C1416 C1411 1.350 . S
C1417 H1404 0.929 . S
C1417 C1409 1.433 . S
C1417 N1419 1.384 . S
N1418 C1414 1.427 . S
N1418 C1415 1.384 . S
N1419 C1411 1.427 . S
N1419 C1417 1.384 . S
H1420 C1426 0.930 . S
H1421 C1430 0.930 . S
H1422 C1435 0.929 . S
H1423 C1433 0.929 . S
H1424 C1428 0.929 . S
H1425 C1434 0.929 . S
C1426 H1420 0.930 . S
C1426 C1427 1.367 . S
C1426 C1434 1.378 . S
C1427 C1426 1.367 . S
C1427 C1435 1.433 . S
C1428 H1424 0.929 . S
C1428 C1430 1.378 . S
C1428 C1432 1.350 . S
C1429 C1432 1.463 . S
C1429 C1434 1.350 . S
C1429 N1437 1.427 . S
C1430 H1421 0.930 . S
C1430 C1428 1.378 . S
C1430 C1431 1.367 . S
C1431 C1430 1.367 . S
C1431 C1433 1.433 . S
C1432 C1428 1.350 . S
C1432 C1429 1.463 . S
C1432 N1436 1.427 . S
C1433 H1423 0.929 . S
C1433 C1431 1.433 . S
C1433 N1436 1.384 . S
C1434 H1425 0.929 . S
C1434 C1426 1.378 . S
C1434 C1429 1.350 . S
C1435 H1422 0.929 . S
C1435 C1427 1.433 . S
C1435 N1437 1.384 . S
N1436 C1432 1.427 . S
N1436 C1433 1.384 . S
N1437 C1429 1.427 . S
N1437 C1435 1.384 . S
H1438 C1444 0.930 . S
H1439 C1448 0.930 . S
H1440 C1453 0.929 . S
H1441 C1451 0.929 . S
H1442 C1446 0.929 . S
H1443 C1452 0.929 . S
C1444 H1438 0.930 . S
C1444 C1445 1.367 . S
C1444 C1452 1.378 . S
C1445 C1444 1.367 . S
C1445 C1453 1.433 . S
C1446 H1442 0.929 . S
C1446 C1448 1.378 . S
C1446 C1450 1.350 . S
C1447 C1450 1.463 . S
C1447 C1452 1.350 . S
C1447 N1455 1.427 . S
C1448 H1439 0.930 . S
C1448 C1446 1.378 . S
C1448 C1449 1.367 . S
C1449 C1448 1.367 . S
C1449 C1451 1.433 . S
C1450 C1446 1.350 . S
C1450 C1447 1.463 . S
C1450 N1454 1.427 . S
C1451 H1441 0.929 . S
C1451 C1449 1.433 . S
C1451 N1454 1.384 . S
C1452 H1443 0.929 . S
C1452 C1444 1.378 . S
C1452 C1447 1.350 . S
C1453 H1440 0.929 . S
C1453 C1445 1.433 . S
C1453 N1455 1.384 . S
N1454 C1450 1.427 . S
N1454 C1451 1.384 . S
N1455 C1447 1.427 . S
N1455 C1453 1.384 . S
H1456 C1462 0.930 . S
H1457 C1466 0.930 . S
H1458 C1471 0.929 . S
H1459 C1469 0.929 . S
H1460 C1464 0.929 . S
H1461 C1470 0.929 . S
C1462 H1456 0.930 . S
C1462 C1463 1.367 . S
C1462 C1470 1.378 . S
C1463 C1462 1.367 . S
C1463 C1471 1.433 . S
C1464 H1460 0.929 . S
C1464 C1466 1.378 . S
C1464 C1468 1.350 . S
C1465 C1468 1.463 . S
C1465 C1470 1.350 . S
C1465 N1473 1.427 . S
C1466 H1457 0.930 . S
C1466 C1464 1.378 . S
C1466 C1467 1.367 . S
C1467 C1466 1.367 . S
C1467 C1469 1.433 . S
C1468 C1464 1.350 . S
C1468 C1465 1.463 . S
C1468 N1472 1.427 . S
C1469 H1459 0.929 . S
C1469 C1467 1.433 . S
C1469 N1472 1.384 . S
C1470 H1461 0.929 . S
C1470 C1462 1.378 . S
C1470 C1465 1.350 . S
C1471 H1458 0.929 . S
C1471 C1463 1.433 . S
C1471 N1473 1.384 . S
N1472 C1468 1.427 . S
N1472 C1469 1.384 . S
N1473 C1465 1.427 . S
N1473 C1471 1.384 . S
H1474 C1480 0.930 . S
H1475 C1484 0.930 . S
H1476 C1489 0.929 . S
H1477 C1487 0.929 . S
H1478 C1482 0.929 . S
H1479 C1488 0.929 . S
C1480 H1474 0.930 . S
C1480 C1481 1.367 . S
C1480 C1488 1.378 . S
C1481 C1480 1.367 . S
C1481 C1489 1.433 . S
C1482 H1478 0.929 . S
C1482 C1484 1.378 . S
C1482 C1486 1.350 . S
C1483 C1486 1.463 . S
C1483 C1488 1.350 . S
C1483 N1491 1.427 . S
C1484 H1475 0.930 . S
C1484 C1482 1.378 . S
C1484 C1485 1.367 . S
C1485 C1484 1.367 . S
C1485 C1487 1.433 . S
C1486 C1482 1.350 . S
C1486 C1483 1.463 . S
C1486 N1490 1.427 . S
C1487 H1477 0.929 . S
C1487 C1485 1.433 . S
C1487 N1490 1.384 . S
C1488 H1479 0.929 . S
C1488 C1480 1.378 . S
C1488 C1483 1.350 . S
C1489 H1476 0.929 . S
C1489 C1481 1.433 . S
C1489 N1491 1.384 . S
N1490 C1486 1.427 . S
N1490 C1487 1.384 . S
N1491 C1483 1.427 . S
N1491 C1489 1.384 . S
H1492 C1498 0.930 . S
H1493 C1502 0.930 . S
H1494 C1507 0.929 . S
H1495 C1505 0.929 . S
H1496 C1500 0.929 . S
H1497 C1506 0.929 . S
C1498 H1492 0.930 . S
C1498 C1499 1.367 . S
C1498 C1506 1.378 . S
C1499 C1498 1.367 . S
C1499 C1507 1.433 . S
C1500 H1496 0.929 . S
C1500 C1502 1.378 . S
C1500 C1504 1.350 . S
C1501 C1504 1.463 . S
C1501 C1506 1.350 . S
C1501 N1509 1.427 . S
C1502 H1493 0.930 . S
C1502 C1500 1.378 . S
C1502 C1503 1.367 . S
C1503 C1502 1.367 . S
C1503 C1505 1.433 . S
C1504 C1500 1.350 . S
C1504 C1501 1.463 . S
C1504 N1508 1.427 . S
C1505 H1495 0.929 . S
C1505 C1503 1.433 . S
C1505 N1508 1.384 . S
C1506 H1497 0.929 . S
C1506 C1498 1.378 . S
C1506 C1501 1.350 . S
C1507 H1494 0.929 . S
C1507 C1499 1.433 . S
C1507 N1509 1.384 . S
N1508 C1504 1.427 . S
N1508 C1505 1.384 . S
N1509 C1501 1.427 . S
N1509 C1507 1.384 . S
H1510 C1516 0.930 . S
H1511 C1520 0.930 . S
H1512 C1525 0.929 . S
H1513 C1523 0.929 . S
H1514 C1518 0.929 . S
H1515 C1524 0.929 . S
C1516 H1510 0.930 . S
C1516 C1517 1.367 . S
C1516 C1524 1.378 . S
C1517 C1516 1.367 . S
C1517 C1525 1.433 . S
C1518 H1514 0.929 . S
C1518 C1520 1.378 . S
C1518 C1522 1.350 . S
C1519 C1522 1.463 . S
C1519 C1524 1.350 . S
C1519 N1527 1.427 . S
C1520 H1511 0.930 . S
C1520 C1518 1.378 . S
C1520 C1521 1.367 . S
C1521 C1520 1.367 . S
C1521 C1523 1.433 . S
C1522 C1518 1.350 . S
C1522 C1519 1.463 . S
C1522 N1526 1.427 . S
C1523 H1513 0.929 . S
C1523 C1521 1.433 . S
C1523 N1526 1.384 . S
C1524 H1515 0.929 . S
C1524 C1516 1.378 . S
C1524 C1519 1.350 . S
C1525 H1512 0.929 . S
C1525 C1517 1.433 . S
C1525 N1527 1.384 . S
N1526 C1522 1.427 . S
N1526 C1523 1.384 . S
N1527 C1519 1.427 . S
N1527 C1525 1.384 . S
H1528 C1534 0.930 . S
H1529 C1538 0.930 . S
H1530 C1543 0.929 . S
H1531 C1541 0.929 . S
H1532 C1536 0.929 . S
H1533 C1542 0.929 . S
C1534 H1528 0.930 . S
C1534 C1535 1.367 . S
C1534 C1542 1.378 . S
C1535 C1534 1.367 . S
C1535 C1543 1.433 . S
C1536 H1532 0.929 . S
C1536 C1538 1.378 . S
C1536 C1540 1.350 . S
C1537 C1540 1.463 . S
C1537 C1542 1.350 . S
C1537 N1545 1.427 . S
C1538 H1529 0.930 . S
C1538 C1536 1.378 . S
C1538 C1539 1.367 . S
C1539 C1538 1.367 . S
C1539 C1541 1.433 . S
C1540 C1536 1.350 . S
C1540 C1537 1.463 . S
C1540 N1544 1.427 . S
C1541 H1531 0.929 . S
C1541 C1539 1.433 . S
C1541 N1544 1.384 . S
C1542 H1533 0.929 . S
C1542 C1534 1.378 . S
C1542 C1537 1.350 . S
C1543 H1530 0.929 . S
C1543 C1535 1.433 . S
C1543 N1545 1.384 . S
N1544 C1540 1.427 . S
N1544 C1541 1.384 . S
N1545 C1537 1.427 . S
N1545 C1543 1.384 . S
H1546 C1552 0.930 . S
H1547 C1556 0.930 . S
H1548 C1561 0.929 . S
H1549 C1559 0.929 . S
H1550 C1554 0.929 . S
H1551 C1560 0.929 . S
C1552 H1546 0.930 . S
C1552 C1553 1.367 . S
C1552 C1560 1.378 . S
C1553 C1552 1.367 . S
C1553 C1561 1.433 . S
C1554 H1550 0.929 . S
C1554 C1556 1.378 . S
C1554 C1558 1.350 . S
C1555 C1558 1.463 . S
C1555 C1560 1.350 . S
C1555 N1563 1.427 . S
C1556 H1547 0.930 . S
C1556 C1554 1.378 . S
C1556 C1557 1.367 . S
C1557 C1556 1.367 . S
C1557 C1559 1.433 . S
C1558 C1554 1.350 . S
C1558 C1555 1.463 . S
C1558 N1562 1.427 . S
C1559 H1549 0.929 . S
C1559 C1557 1.433 . S
C1559 N1562 1.384 . S
C1560 H1551 0.929 . S
C1560 C1552 1.378 . S
C1560 C1555 1.350 . S
C1561 H1548 0.929 . S
C1561 C1553 1.433 . S
C1561 N1563 1.384 . S
N1562 C1558 1.427 . S
N1562 C1559 1.384 . S
N1563 C1555 1.427 . S
N1563 C1561 1.384 . S
H1564 C1570 0.930 . S
H1565 C1574 0.930 . S
H1566 C1579 0.929 . S
H1567 C1577 0.929 . S
H1568 C1572 0.929 . S
H1569 C1578 0.929 . S
C1570 H1564 0.930 . S
C1570 C1571 1.367 . S
C1570 C1578 1.378 . S
C1571 C1570 1.367 . S
C1571 C1579 1.433 . S
C1572 H1568 0.929 . S
C1572 C1574 1.378 . S
C1572 C1576 1.350 . S
C1573 C1576 1.463 . S
C1573 C1578 1.350 . S
C1573 N1581 1.427 . S
C1574 H1565 0.930 . S
C1574 C1572 1.378 . S
C1574 C1575 1.367 . S
C1575 C1574 1.367 . S
C1575 C1577 1.433 . S
C1576 C1572 1.350 . S
C1576 C1573 1.463 . S
C1576 N1580 1.427 . S
C1577 H1567 0.929 . S
C1577 C1575 1.433 . S
C1577 N1580 1.384 . S
C1578 H1569 0.929 . S
C1578 C1570 1.378 . S
C1578 C1573 1.350 . S
C1579 H1566 0.929 . S
C1579 C1571 1.433 . S
C1579 N1581 1.384 . S
N1580 C1576 1.427 . S
N1580 C1577 1.384 . S
N1581 C1573 1.427 . S
N1581 C1579 1.384 . S
H1582 C1588 0.930 . S
H1583 C1592 0.930 . S
H1584 C1597 0.929 . S
H1585 C1595 0.929 . S
H1586 C1590 0.929 . S
H1587 C1596 0.929 . S
C1588 H1582 0.930 . S
C1588 C1589 1.367 . S
C1588 C1596 1.378 . S
C1589 C1588 1.367 . S
C1589 C1597 1.433 . S
C1590 H1586 0.929 . S
C1590 C1592 1.378 . S
C1590 C1594 1.350 . S
C1591 C1594 1.463 . S
C1591 C1596 1.350 . S
C1591 N1599 1.427 . S
C1592 H1583 0.930 . S
C1592 C1590 1.378 . S
C1592 C1593 1.367 . S
C1593 C1592 1.367 . S
C1593 C1595 1.433 . S
C1594 C1590 1.350 . S
C1594 C1591 1.463 . S
C1594 N1598 1.427 . S
C1595 H1585 0.929 . S
C1595 C1593 1.433 . S
C1595 N1598 1.384 . S
C1596 H1587 0.929 . S
C1596 C1588 1.378 . S
C1596 C1591 1.350 . S
C1597 H1584 0.929 . S
C1597 C1589 1.433 . S
C1597 N1599 1.384 . S
N1598 C1594 1.427 . S
N1598 C1595 1.384 . S
N1599 C1591 1.427 . S
N1599 C1597 1.384 . S
C455 C149 1.299 . S
C459 C9 1.297 . S
C473 C23 1.306 . S
C477 C163 1.294 . S
C491 C37 1.301 . S
C495 C121 1.295 . S
C509 C135 1.302 . S
C513 C51 1.299 . S
C527 C199 1.226 . S
C531 C59 1.231 . S
C545 C73 1.229 . S
C549 C213 1.225 . S
C563 C171 1.232 . S
C567 C87 1.222 . S
C581 C185 1.233 . S
C585 C101 1.222 . S
C599 C373 1.296 . S
C603 C233 1.301 . S
C617 C387 1.296 . S
C621 C247 1.300 . S
C635 C345 1.308 . S
C639 C261 1.291 . S
C653 C275 1.308 . S
C657 C359 1.291 . S
C671 C423 1.226 . S
C675 C283 1.231 . S
C689 C437 1.228 . S
C693 C297 1.228 . S
C707 C311 1.224 . S
C711 C395 1.232 . S
C725 C325 1.224 . S
C729 C409 1.232 . S
C743 C269 1.416 . S
C747 C3 1.415 . S
C761 C17 1.413 . S
C765 C255 1.416 . S
C779 C241 1.417 . S
C783 C31 1.415 . S
C797 C227 1.413 . S
C801 C45 1.416 . S
C815 C65 1.236 . S
C819 C331 1.237 . S
C833 C79 1.239 . S
C837 C317 1.234 . S
C851 C303 1.237 . S
C855 C93 1.238 . S
C869 C107 1.239 . S
C873 C289 1.235 . S
C887 C381 1.415 . S
C891 C115 1.414 . S
C905 C367 1.414 . S
C909 C129 1.417 . S
C923 C353 1.416 . S
C927 C143 1.413 . S
C941 C339 1.416 . S
C945 C157 1.416 . S
C959 C177 1.234 . S
C963 C443 1.240 . S
C977 C429 1.234 . S
C981 C191 1.239 . S
C995 C205 1.234 . S
C999 C415 1.240 . S
C1013 C219 1.240 . S
C1017 C401 1.234 . S
C1031 C175 1.405 . S
C1035 C8 1.386 . S
C1049 C22 1.375 . S
C1053 C301 1.400 . S
C1067 C91 1.403 . S
C1071 C36 1.379 . S
C1085 C441 1.400 . S
C1089 C50 1.376 . S
C1103 C63 1.405 . S
C1107 C120 1.386 . S
C1121 C246 1.377 . S
C1125 C77 1.403 . S
C1139 C386 1.386 . S
C1143 C105 1.404 . S
C1157 C413 1.401 . S
C1161 C134 1.380 . S
C1175 C148 1.375 . S
C1179 C203 1.401 . S
C1193 C329 1.404 . S
C1197 C162 1.385 . S
C1211 C358 1.375 . S
C1215 C189 1.401 . S
C1229 C217 1.400 . S
C1233 C274 1.378 . S
C1247 C232 1.381 . S
C1251 C399 1.404 . S
C1265 C315 1.402 . S
C1269 C260 1.382 . S
C1283 C344 1.386 . S
C1287 C287 1.405 . S
C1301 C372 1.386 . S
C1305 C427 1.405 . S
C1319 C7 1.139 . S
C1323 C49 1.136 . S
C1337 C35 1.141 . S
C1341 C21 1.138 . S
C1355 C64 0.928 . S
C1359 C106 0.929 . S
C1373 C78 0.916 . S
C1377 C92 0.922 . S
C1391 C119 1.126 . S
C1395 C161 1.126 . S
C1409 C133 1.139 . S
C1413 C147 1.141 . S
C1427 C176 0.911 . S
C1431 C218 0.912 . S
C1445 C204 0.928 . S
C1449 C190 0.923 . S
C1463 C273 1.126 . S
C1467 C231 1.127 . S
C1481 C259 1.128 . S
C1485 C245 1.131 . S
C1499 C330 0.927 . S
C1503 C288 0.929 . S
C1517 C316 0.911 . S
C1521 C302 0.913 . S
C1535 C385 1.140 . S
C1539 C343 1.137 . S
C1553 C371 1.142 . S
C1557 C357 1.140 . S
C1571 C400 0.925 . S
C1575 C442 0.919 . S
C1589 C428 0.925 . S
C1593 C414 0.919 . S
