# Generated by pormake.
# Topology uou, (4)-cn, num edge types: 1
# Building blocks:
#     Node 0, Type 0, BuildingBlock: KUFVIS_clean_sbu_0, # of connection points: 4
#     Node 1, Type 0, BuildingBlock: KUFVIS_clean_sbu_0, # of connection points: 4
#     Node 2, Type 0, BuildingBlock: KUFVIS_clean_sbu_0, # of connection points: 4
#     Node 3, Type 0, BuildingBlock: KUFVIS_clean_sbu_0, # of connection points: 4
#     Node 4, Type 0, BuildingBlock: KUFVIS_clean_sbu_0, # of connection points: 4
#     Node 5, Type 0, BuildingBlock: KUFVIS_clean_sbu_0, # of connection points: 4
#     Node 6, Type 0, BuildingBlock: KUFVIS_clean_sbu_0, # of connection points: 4
#     Node 7, Type 0, BuildingBlock: KUFVIS_clean_sbu_0, # of connection points: 4
#     Node 8, Type 0, BuildingBlock: KUFVIS_clean_sbu_0, # of connection points: 4
#     Node 9, Type 0, BuildingBlock: KUFVIS_clean_sbu_0, # of connection points: 4
#     Node 10, Type 0, BuildingBlock: KUFVIS_clean_sbu_0, # of connection points: 4
#     Node 11, Type 0, BuildingBlock: KUFVIS_clean_sbu_0, # of connection points: 4
#     Node 12, Type 0, BuildingBlock: KUFVIS_clean_sbu_0, # of connection points: 4
#     Node 13, Type 0, BuildingBlock: KUFVIS_clean_sbu_0, # of connection points: 4
#     Node 14, Type 0, BuildingBlock: KUFVIS_clean_sbu_0, # of connection points: 4
#     Node 15, Type 0, BuildingBlock: KUFVIS_clean_sbu_0, # of connection points: 4
#     Edge 16, Type (0, 0), BuildingBlock: CIFDUS_clean_linker_0, # of connection points: 2
#     Edge 17, Type (0, 0), BuildingBlock: CIFDUS_clean_linker_0, # of connection points: 2
#     Edge 18, Type (0, 0), BuildingBlock: CIFDUS_clean_linker_0, # of connection points: 2
#     Edge 19, Type (0, 0), BuildingBlock: CIFDUS_clean_linker_0, # of connection points: 2
#     Edge 20, Type (0, 0), BuildingBlock: CIFDUS_clean_linker_0, # of connection points: 2
#     Edge 21, Type (0, 0), BuildingBlock: CIFDUS_clean_linker_0, # of connection points: 2
#     Edge 22, Type (0, 0), BuildingBlock: CIFDUS_clean_linker_0, # of connection points: 2
#     Edge 23, Type (0, 0), BuildingBlock: CIFDUS_clean_linker_0, # of connection points: 2
#     Edge 24, Type (0, 0), BuildingBlock: CIFDUS_clean_linker_0, # of connection points: 2
#     Edge 25, Type (0, 0), BuildingBlock: CIFDUS_clean_linker_0, # of connection points: 2
#     Edge 26, Type (0, 0), BuildingBlock: CIFDUS_clean_linker_0, # of connection points: 2
#     Edge 27, Type (0, 0), BuildingBlock: CIFDUS_clean_linker_0, # of connection points: 2
#     Edge 28, Type (0, 0), BuildingBlock: CIFDUS_clean_linker_0, # of connection points: 2
#     Edge 29, Type (0, 0), BuildingBlock: CIFDUS_clean_linker_0, # of connection points: 2
#     Edge 30, Type (0, 0), BuildingBlock: CIFDUS_clean_linker_0, # of connection points: 2
#     Edge 31, Type (0, 0), BuildingBlock: CIFDUS_clean_linker_0, # of connection points: 2
#     Edge 32, Type (0, 0), BuildingBlock: CIFDUS_clean_linker_0, # of connection points: 2
#     Edge 33, Type (0, 0), BuildingBlock: CIFDUS_clean_linker_0, # of connection points: 2
#     Edge 34, Type (0, 0), BuildingBlock: CIFDUS_clean_linker_0, # of connection points: 2
#     Edge 35, Type (0, 0), BuildingBlock: CIFDUS_clean_linker_0, # of connection points: 2
#     Edge 36, Type (0, 0), BuildingBlock: CIFDUS_clean_linker_0, # of connection points: 2
#     Edge 37, Type (0, 0), BuildingBlock: CIFDUS_clean_linker_0, # of connection points: 2
#     Edge 38, Type (0, 0), BuildingBlock: CIFDUS_clean_linker_0, # of connection points: 2
#     Edge 39, Type (0, 0), BuildingBlock: CIFDUS_clean_linker_0, # of connection points: 2
#     Edge 40, Type (0, 0), BuildingBlock: CIFDUS_clean_linker_0, # of connection points: 2
#     Edge 41, Type (0, 0), BuildingBlock: CIFDUS_clean_linker_0, # of connection points: 2
#     Edge 42, Type (0, 0), BuildingBlock: CIFDUS_clean_linker_0, # of connection points: 2
#     Edge 43, Type (0, 0), BuildingBlock: CIFDUS_clean_linker_0, # of connection points: 2
#     Edge 44, Type (0, 0), BuildingBlock: CIFDUS_clean_linker_0, # of connection points: 2
#     Edge 45, Type (0, 0), BuildingBlock: CIFDUS_clean_linker_0, # of connection points: 2
#     Edge 46, Type (0, 0), BuildingBlock: CIFDUS_clean_linker_0, # of connection points: 2
#     Edge 47, Type (0, 0), BuildingBlock: CIFDUS_clean_linker_0, # of connection points: 2
# Relax obj value: 0.047
# Max RMSD: 0.084
# Mean RMSD: 0.084
data_MOF--net-uou--node1-KUFVIS_clean_sbu_0--edge1-CIFDUS_clean_linker_0
_symmetry_space_group_name_H-M    P1
_symmetry_Int_Tables_number       1
_symmetry_cell_setting            triclinic
loop_
_symmetry_equiv_pos_as_xyz
'x, y, z'
_cell_length_a     33.35283
_cell_length_b     35.541621
_cell_length_c     45.663281
_cell_angle_alpha  89.887405
_cell_angle_beta   90.027472
_cell_angle_gamma 90.167572
loop_
_atom_site_label
_atom_site_type_symbol
_atom_site_fract_x
_atom_site_fract_y
_atom_site_fract_z
_atom_type_partial_charge
Mn0 Mn 0.07577 0.0914 0.13315 0.0
Mn1 Mn 0.0518 0.99924 0.13847 0.0
C2 C 0.05834 0.06567 0.17856 0.0
C3 C 0.05834 0.15444 0.12499 0.0
C4 C 0.13718 0.0277 0.13108 0.0
O5 O 0.06345 0.07726 0.09064 0.0
O6 O 0.0433 0.01769 0.09835 0.0
C7 C 0.96452 1.00481 0.12761 0.0
N8 N 0.99562 0.99268 0.14444 0.0
C9 C 0.95193 0.95374 0.17343 0.0
C10 C 0.91927 0.96599 0.15659 0.0
C11 C 0.92554 0.992 0.13379 0.0
C12 C 0.98968 0.96904 0.16721 0.0
H13 H 0.96956 0.02373 0.10943 0.0
C14 C 0.04886 0.04607 0.08166 0.0
O15 O 0.09475 0.14257 0.12139 0.0
O16 O 0.03182 0.12956 0.13278 0.0
N17 N 0.05806 0.97601 0.17598 0.0
C18 C 0.09292 0.96646 0.18964 0.0
C19 C 0.09255 0.93857 0.21147 0.0
C20 C 0.0565 0.92018 0.21862 0.0
C21 C 0.02082 0.93098 0.20471 0.0
C22 C 0.02299 0.95923 0.18333 0.0
H23 H 0.12109 0.97897 0.18313 0.0
O24 O 0.07995 0.09601 0.17666 0.0
O25 O 0.04804 0.05079 0.15372 0.0
O26 O 0.12888 0.06266 0.13172 0.0
O27 O 0.11045 1.00204 0.13269 0.0
C28 C 0.98331 0.91436 0.21085 0.0
C29 C 0.94876 0.92618 0.19554 0.0
H30 H 0.88936 0.9553 0.16074 0.0
H31 H 0.90055 1.00142 0.12058 0.0
H32 H 0.12015 0.93061 0.22227 0.0
H33 H 0.05643 0.89835 0.23521 0.0
H34 H 0.98065 0.89269 0.22745 0.0
H35 H 0.92003 0.9135 0.20066 0.0
Mn36 Mn 0.43668 0.93266 0.12273 0.0
Mn37 Mn 0.46086 0.02364 0.1347 0.0
C38 C 0.45204 0.9525 0.16982 0.0
C39 C 0.45509 0.87116 0.11042 0.0
C40 C 0.37524 0.99683 0.12655 0.0
O41 O 0.44903 0.95237 0.08162 0.0
O42 O 0.46646 0.01184 0.09259 0.0
C43 C 0.54706 0.01783 0.12008 0.0
N44 N 0.51762 0.02679 0.13951 0.0
C45 C 0.5661 0.04159 0.17669 0.0
C46 C 0.59697 0.03283 0.15705 0.0
C47 C 0.58739 0.02097 0.12858 0.0
C48 C 0.52647 0.03856 0.16682 0.0
H49 H 0.53988 1.00808 0.09831 0.0
C50 C 0.4614 0.98512 0.07427 0.0
O51 O 0.41852 0.8829 0.10716 0.0
O52 O 0.48109 0.89543 0.11993 0.0
N53 N 0.45742 0.03925 0.17451 0.0
C54 C 0.42408 0.04567 0.191 0.0
C55 C 0.42849 0.05702 0.22024 0.0
C56 C 0.46702 0.06154 0.2321 0.0
C57 C 0.50077 0.05591 0.21435 0.0
C58 C 0.49457 0.04554 0.18524 0.0
H59 H 0.39443 0.0415 0.18209 0.0
O60 O 0.43166 0.92189 0.16554 0.0
O61 O 0.46349 0.9704 0.1463 0.0
O62 O 0.38362 0.962 0.12332 0.0
O63 O 0.4019 0.02223 0.13058 0.0
C64 C 0.5403 0.05839 0.22475 0.0
C65 C 0.57301 0.05177 0.20599 0.0
H66 H 0.62809 0.03466 0.16371 0.0
H67 H 0.61101 0.01389 0.11333 0.0
H68 H 0.4023 0.06143 0.23378 0.0
H69 H 0.47031 0.06869 0.25494 0.0
H70 H 0.54571 0.06348 0.24746 0.0
H71 H 0.60324 0.05341 0.21459 0.0
Mn72 Mn 0.5641 0.93058 0.36879 0.0
Mn73 Mn 0.56093 0.02519 0.3637 0.0
C74 C 0.56078 0.95929 0.3229 0.0
C75 C 0.53367 0.87169 0.37439 0.0
C76 C 0.63734 0.98156 0.37556 0.0
O77 O 0.5489 0.94634 0.41042 0.0
O78 O 0.54352 1.00859 0.40301 0.0
C79 C 0.47319 0.03586 0.36878 0.0
N80 N 0.50825 0.04203 0.35426 0.0
C81 C 0.47773 0.08863 0.32333 0.0
C82 C 0.44115 0.08273 0.33781 0.0
C83 C 0.43877 0.05587 0.3604 0.0
C84 C 0.51044 0.06653 0.3317 0.0
H85 H 0.47172 0.01621 0.38683 0.0
C86 C 0.54026 0.97943 0.41923 0.0
O87 O 0.57098 0.87731 0.38111 0.0
O88 O 0.51355 0.90059 0.36507 0.0
N89 N 0.57661 0.04685 0.32717 0.0
C90 C 0.61399 0.04864 0.31522 0.0
C91 C 0.62203 0.0751 0.2931 0.0
C92 C 0.59193 0.10016 0.28416 0.0
C93 C 0.55349 0.09745 0.29651 0.0
C94 C 0.547 0.06987 0.31789 0.0
H95 H 0.63782 0.03078 0.32308 0.0
O96 O 0.57416 0.92527 0.32603 0.0
O97 O 0.54861 0.9756 0.34677 0.0
O98 O 0.62165 0.94895 0.37448 0.0
O99 O 0.61697 0.01168 0.37289 0.0
C100 C 0.52132 0.12086 0.28828 0.0
C101 C 0.48334 0.11618 0.30147 0.0
H102 H 0.41483 0.09886 0.33194 0.0
H103 H 0.41072 0.05128 0.37178 0.0
H104 H 0.65166 0.07685 0.28354 0.0
H105 H 0.5984 0.12093 0.2674 0.0
H106 H 0.52534 0.14224 0.27159 0.0
H107 H 0.45872 0.13402 0.29472 0.0
Mn108 Mn 0.94066 0.09005 0.38399 0.0
Mn109 Mn 0.95133 0.99963 0.36312 0.0
C110 C 0.95658 0.07585 0.3359 0.0
C111 C 0.96422 0.1477 0.4012 0.0
C112 C 0.87061 0.03523 0.37397 0.0
O113 O 0.95014 0.0628 0.42281 0.0
O114 O 0.95657 1.00331 0.40614 0.0
C115 C 0.03688 0.99144 0.37918 0.0
N116 N 0.00738 0.99037 0.35854 0.0
C117 C 0.05545 0.98016 0.32019 0.0
C118 C 0.08631 0.98086 0.34103 0.0
C119 C 0.07694 0.98634 0.37069 0.0
C120 C 0.01597 0.98444 0.33004 0.0
H121 H 0.02999 0.99654 0.40193 0.0
C122 C 0.95613 0.02759 0.42677 0.0
O123 O 0.92686 0.13801 0.40366 0.0
O124 O 0.98851 0.12291 0.39025 0.0
N125 N 0.9476 0.99251 0.32182 0.0
C126 C 0.9144 0.99337 0.30444 0.0
C127 C 0.91856 0.9881 0.27415 0.0
C128 C 0.95683 0.98267 0.26214 0.0
C129 C 0.99042 0.98134 0.28059 0.0
C130 C 0.98424 0.98512 0.31067 0.0
H131 H 0.88507 0.99854 0.31356 0.0
O132 O 0.93884 0.10726 0.34217 0.0
O133 O 0.9633 0.05346 0.3579 0.0
O134 O 0.88476 0.06735 0.38071 0.0
O135 O 0.89261 1.00732 0.36687 0.0
C136 C 0.02998 0.97884 0.2702 0.0
C137 C 0.06245 0.9774 0.2899 0.0
H138 H 0.11733 0.97779 0.33446 0.0
H139 H 0.1006 0.98722 0.3869 0.0
H140 H 0.89256 0.98938 0.26001 0.0
H141 H 0.9602 0.98093 0.23867 0.0
H142 H 0.03586 0.98051 0.24709 0.0
H143 H 0.09273 0.97569 0.28145 0.0
Mn144 Mn 0.94222 0.93474 0.87569 0.0
Mn145 Mn 0.9475 0.02873 0.86792 0.0
C146 C 0.95279 0.96047 0.8295 0.0
C147 C 0.9726 0.87698 0.88557 0.0
C148 C 0.86963 0.98604 0.87838 0.0
O149 O 0.95248 0.95321 0.91717 0.0
O150 O 0.96323 0.01473 0.90827 0.0
C151 C 0.03508 0.04004 0.87431 0.0
N152 N 1.00062 0.04501 0.85881 0.0
C153 C 0.03334 0.08705 0.82507 0.0
C154 C 0.06931 0.08231 0.84056 0.0
C155 C 0.07027 0.05839 0.86511 0.0
C156 C 0.99971 0.06686 0.8346 0.0
H157 H 0.03555 0.02245 0.89363 0.0
C158 C 0.96286 0.98618 0.92535 0.0
O159 O 0.93447 0.88205 0.88953 0.0
O160 O 0.99322 0.90568 0.87633 0.0
N161 N 0.93347 0.04717 0.82995 0.0
C162 C 0.8969 0.04714 0.81664 0.0
C163 C 0.89055 0.07017 0.79206 0.0
C164 C 0.92147 0.09375 0.78194 0.0
C165 C 0.95888 0.09323 0.79596 0.0
C166 C 0.96378 0.06887 0.8198 0.0
H167 H 0.87249 0.03034 0.82511 0.0
O168 O 0.93765 0.927 0.83267 0.0
O169 O 0.96074 0.97816 0.8537 0.0
O170 O 0.88448 0.95318 0.87718 0.0
O171 O 0.89094 0.01585 0.87666 0.0
C172 C 0.9919 0.1151 0.78668 0.0
C173 C 0.02931 0.11146 0.80089 0.0
H174 H 0.09629 0.09704 0.8339 0.0
H175 H 0.09787 0.05467 0.87723 0.0
H176 H 0.86162 0.07035 0.78132 0.0
H177 H 0.91633 0.11178 0.76316 0.0
H178 H 0.98915 0.13396 0.76814 0.0
H179 H 0.0547 0.12774 0.79315 0.0
Mn180 Mn 0.57011 0.10081 0.86747 0.0
Mn181 Mn 0.55803 1.00661 0.8626 0.0
C182 C 0.5631 0.07229 0.82163 0.0
C183 C 0.54864 0.1631 0.87301 0.0
C184 C 0.63809 0.04381 0.87451 0.0
O185 O 0.55311 0.0865 0.90919 0.0
O186 O 0.54351 0.02461 0.902 0.0
C187 C 0.46977 1.00295 0.86908 0.0
N188 N 0.50368 0.99397 0.85409 0.0
C189 C 0.46817 0.94907 0.82449 0.0
C190 C 0.4327 0.95794 0.83943 0.0
C191 C 0.43342 0.98536 0.86159 0.0
C192 C 0.50297 0.96893 0.83192 0.0
H193 H 0.47065 0.02295 0.88686 0.0
C194 C 0.54247 0.05386 0.91816 0.0
O195 O 0.58454 0.15252 0.87975 0.0
O196 O 0.52417 0.13713 0.86371 0.0
N197 N 0.57048 0.98367 0.826 0.0
C198 C 0.6072 0.97898 0.81348 0.0
C199 C 0.61217 0.95161 0.79167 0.0
C200 C 0.5797 0.92855 0.78367 0.0
C201 C 0.54208 0.93416 0.79669 0.0
C202 C 0.53868 0.96264 0.81762 0.0
H203 H 0.63275 0.99522 0.82072 0.0
O204 O 0.58053 0.10477 0.82455 0.0
O205 O 0.54962 0.05718 0.84567 0.0
O206 O 0.62491 0.07723 0.87354 0.0
O207 O 0.61558 0.01513 0.87112 0.0
C208 C 0.5077 0.91293 0.78942 0.0
C209 C 0.47067 0.92067 0.80308 0.0
H210 H 0.40487 0.94363 0.83428 0.0
H211 H 0.40624 0.9922 0.87334 0.0
H212 H 0.64122 0.94757 0.78163 0.0
H213 H 0.5838 0.90706 0.76716 0.0
H214 H 0.50931 0.89094 0.77308 0.0
H215 H 0.44436 0.9045 0.79706 0.0
Mn216 Mn 0.43584 0.10235 0.62268 0.0
Mn217 Mn 0.45209 1.0099 0.63462 0.0
C218 C 0.44965 0.08137 0.66978 0.0
C219 C 0.45802 0.1629 0.61014 0.0
C220 C 0.36903 0.04235 0.62627 0.0
O221 O 0.4471 0.08218 0.58167 0.0
O222 O 0.45886 0.02143 0.59242 0.0
C223 C 0.53854 1.00951 0.61997 0.0
N224 N 0.50842 1.00291 0.63949 0.0
C225 C 0.55558 0.98609 0.67703 0.0
C226 C 0.58709 0.9924 0.65732 0.0
C227 C 0.5785 1.00404 0.6286 0.0
C228 C 0.51629 0.99121 0.66701 0.0
H229 H 0.5322 0.01917 0.59802 0.0
C230 C 0.45662 0.04874 0.57422 0.0
O231 O 0.42092 0.15266 0.60684 0.0
O232 O 0.48262 0.13758 0.61995 0.0
N233 N 0.4473 0.99478 0.67452 0.0
C234 C 0.41353 0.99092 0.69106 0.0
C235 C 0.417 0.98006 0.72051 0.0
C236 C 0.45508 0.97359 0.73255 0.0
C237 C 0.48921 0.97676 0.71479 0.0
C238 C 0.48387 0.98658 0.68546 0.0
H239 H 0.38428 0.99673 0.68204 0.0
O240 O 0.43146 0.11311 0.66549 0.0
O241 O 0.45958 0.06286 0.64623 0.0
O242 O 0.38078 0.07635 0.62306 0.0
O243 O 0.39317 0.01499 0.63042 0.0
C244 C 0.52846 0.97249 0.72538 0.0
C245 C 0.56164 0.97649 0.70658 0.0
H246 H 0.61798 0.98888 0.66409 0.0
H247 H 0.60264 1.00925 0.61328 0.0
H248 H 0.39051 0.9776 0.73407 0.0
H249 H 0.45777 0.96686 0.75554 0.0
H250 H 0.5334 0.96816 0.74824 0.0
H251 H 0.59166 0.97345 0.71531 0.0
Mn252 Mn 0.06835 0.91688 0.62655 0.0
Mn253 Mn 0.06095 1.00924 0.64283 0.0
C254 C 0.05495 0.93615 0.67428 0.0
C255 C 0.03812 0.85959 0.61298 0.0
C256 C 0.14042 0.97087 0.63098 0.0
O257 O 0.05873 0.94132 0.58638 0.0
O258 O 0.05106 1.00169 0.60076 0.0
C259 C 0.97399 0.01731 0.63174 0.0
N260 N 1.0059 0.02026 0.65024 0.0
C261 C 0.963 0.03655 0.69051 0.0
C262 C 0.92968 0.03399 0.67188 0.0
C263 C 0.93524 0.02448 0.64232 0.0
C264 C 1.00096 0.02985 0.6786 0.0
H265 H 0.97802 1.00913 0.60917 0.0
C266 C 0.05148 0.97609 0.58115 0.0
O267 O 0.07629 0.86543 0.60944 0.0
O268 O 0.01744 0.88749 0.62309 0.0
N269 N 0.06969 0.02017 0.68322 0.0
C270 C 0.10485 0.0205 0.69846 0.0
C271 C 0.10466 0.03047 0.72819 0.0
C272 C 0.06831 0.03944 0.74195 0.0
C273 C 0.03262 0.03891 0.72569 0.0
C274 C 0.03488 0.03048 0.6959 0.0
H275 H 0.13279 0.01315 0.68804 0.0
O276 O 0.07048 0.90335 0.6694 0.0
O277 O 0.04888 0.95656 0.65118 0.0
O278 O 0.12629 0.93763 0.62758 0.0
O279 O 0.11842 0.99947 0.63618 0.0
C280 C 0.99468 0.04414 0.73825 0.0
C281 C 0.95987 0.0435 0.72074 0.0
H282 H 0.89968 0.03874 0.68012 0.0
H283 H 0.90967 0.02214 0.62784 0.0
H284 H 0.13233 0.03062 0.74058 0.0
H285 H 0.06803 0.04598 0.76512 0.0
H286 H 0.99207 0.04607 0.76163 0.0
H287 H 0.93077 0.04695 0.73085 0.0
Mn288 Mn 0.57822 0.60724 0.11911 0.0
Mn289 Mn 0.56572 0.51448 0.13241 0.0
C290 C 0.56749 0.58652 0.16667 0.0
C291 C 0.55408 0.66709 0.10695 0.0
C292 C 0.64668 0.54989 0.11952 0.0
O293 O 0.56473 0.58552 0.07883 0.0
O294 O 0.55214 0.52506 0.09087 0.0
C295 C 0.47772 0.50939 0.12499 0.0
N296 N 0.51096 0.5047 0.14195 0.0
C297 C 0.47094 0.48567 0.18316 0.0
C298 C 0.43628 0.49 0.16612 0.0
C299 C 0.43972 0.50178 0.13685 0.0
C300 C 0.50807 0.49279 0.16996 0.0
H301 H 0.48014 0.51916 0.10265 0.0
C302 C 0.55327 0.55213 0.07233 0.0
O303 O 0.59105 0.65753 0.10239 0.0
O304 O 0.53047 0.6413 0.11754 0.0
N305 N 0.57735 0.50078 0.17195 0.0
C306 C 0.6135 0.49979 0.18589 0.0
C307 C 0.61518 0.48928 0.21551 0.0
C308 C 0.57967 0.48041 0.23051 0.0
C309 C 0.54298 0.48127 0.21552 0.0
C310 C 0.54327 0.49052 0.18578 0.0
H311 H 0.64081 0.50737 0.17464 0.0
O312 O 0.58461 0.61875 0.16176 0.0
O313 O 0.55716 0.5674 0.14355 0.0
O314 O 0.63407 0.58363 0.11802 0.0
O315 O 0.62339 0.52178 0.12359 0.0
C316 C 0.50595 0.47542 0.22934 0.0
C317 C 0.46997 0.4767 0.21316 0.0
H318 H 0.40687 0.48498 0.17541 0.0
H319 H 0.41311 0.5055 0.1236 0.0
H320 H 0.64364 0.48877 0.22689 0.0
H321 H 0.58084 0.47348 0.25361 0.0
H322 H 0.505 0.47256 0.25272 0.0
H323 H 0.44161 0.47278 0.22426 0.0
Mn324 Mn 0.94338 0.42348 0.12689 0.0
Mn325 Mn 0.95699 0.51707 0.13488 0.0
C326 C 0.95628 0.4487 0.1732 0.0
C327 C 0.96551 0.36181 0.11868 0.0
C328 C 0.87551 0.48129 0.12464 0.0
O329 O 0.95699 0.44044 0.08511 0.0
O330 O 0.96882 0.50161 0.09443 0.0
C331 C 0.04478 0.52068 0.12557 0.0
N332 N 0.012 0.5286 0.14219 0.0
C333 C 0.05058 0.56867 0.1739 0.0
C334 C 0.08489 0.56082 0.15726 0.0
C335 C 0.08205 0.53637 0.13318 0.0
C336 C 0.01472 0.55082 0.16605 0.0
H337 H 0.04237 0.50284 0.10652 0.0
C338 C 0.96803 0.47342 0.07713 0.0
O339 O 0.92886 0.37197 0.11369 0.0
O340 O 0.99007 0.38792 0.12746 0.0
N341 N 0.94712 0.53714 0.17299 0.0
C342 C 0.91119 0.54168 0.18671 0.0
C343 C 0.90822 0.56685 0.21027 0.0
C344 C 0.94195 0.58776 0.21903 0.0
C345 C 0.97881 0.58213 0.20491 0.0
C346 C 0.98006 0.55623 0.18187 0.0
H347 H 0.88469 0.52715 0.17912 0.0
O348 O 0.93728 0.41701 0.17017 0.0
O349 O 0.96614 0.46539 0.14892 0.0
O350 O 0.88799 0.44754 0.1243 0.0
O351 O 0.89892 0.50941 0.12783 0.0
C352 C 0.01431 0.60121 0.21279 0.0
C353 C 0.0503 0.59414 0.19751 0.0
H354 H 0.11346 0.57363 0.16263 0.0
H355 H 0.10833 0.5303 0.12015 0.0
H356 H 0.87977 0.57082 0.2212 0.0
H357 H 0.93942 0.60748 0.23699 0.0
H358 H 0.01436 0.62111 0.23072 0.0
H359 H 0.07749 0.60866 0.20396 0.0
Mn360 Mn 0.0804 0.41097 0.37587 0.0
Mn361 Mn 0.06135 0.50233 0.36164 0.0
C362 C 0.05987 0.42907 0.3294 0.0
C363 C 0.06147 0.35122 0.3919 0.0
C364 C 0.14537 0.47114 0.36835 0.0
O365 O 0.0732 0.43382 0.41653 0.0
O366 O 0.05584 0.49302 0.40414 0.0
C367 C 0.97524 0.50293 0.37733 0.0
N368 N 1.00479 0.50848 0.35717 0.0
C369 C 0.95648 0.52135 0.31942 0.0
C370 C 0.92554 0.51609 0.33979 0.0
C371 C 0.93499 0.507 0.36892 0.0
C372 C 0.99608 0.51783 0.32922 0.0
H373 H 0.98226 0.49508 0.39959 0.0
C374 C 0.06134 0.46696 0.42308 0.0
O375 O 0.09856 0.36222 0.39241 0.0
O376 O 0.03501 0.3754 0.38288 0.0
N377 N 0.06491 0.51453 0.32102 0.0
C378 C 0.09822 0.5176 0.3039 0.0
C379 C 0.09396 0.52662 0.27414 0.0
C380 C 0.05553 0.53183 0.26231 0.0
C381 C 0.02179 0.52897 0.28051 0.0
C382 C 0.02796 0.52145 0.31018 0.0
H383 H 0.12777 0.51279 0.31279 0.0
O384 O 0.07934 0.39786 0.33315 0.0
O385 O 0.05351 0.44866 0.35294 0.0
O386 O 0.13432 0.43706 0.37135 0.0
O387 O 0.12065 0.49831 0.36537 0.0
C388 C 0.98223 0.53099 0.27005 0.0
C389 C 0.94956 0.52798 0.28946 0.0
H390 H 0.89443 0.51841 0.33322 0.0
H391 H 0.91129 0.50258 0.38475 0.0
H392 H 0.12011 0.52858 0.26019 0.0
H393 H 0.05223 0.53682 0.23909 0.0
H394 H 0.97668 0.53236 0.24692 0.0
H395 H 0.91929 0.52933 0.28092 0.0
Mn396 Mn 0.44476 0.59479 0.36292 0.0
Mn397 Mn 0.45291 0.50072 0.35646 0.0
C398 C 0.45162 0.56809 0.31668 0.0
C399 C 0.47316 0.65416 0.37054 0.0
C400 C 0.37411 0.54075 0.36824 0.0
O401 O 0.45865 0.5779 0.4045 0.0
O402 O 0.46993 0.51653 0.39617 0.0
C403 C 0.54098 0.49224 0.36114 0.0
N404 N 0.50605 0.48569 0.34657 0.0
C405 C 0.53757 0.44048 0.31506 0.0
C406 C 0.57406 0.44687 0.32954 0.0
C407 C 0.57587 0.47322 0.35245 0.0
C408 C 0.50436 0.46163 0.32375 0.0
H409 H 0.54198 0.5114 0.37947 0.0
C410 C 0.47004 0.54533 0.4129 0.0
O411 O 0.43566 0.6475 0.37606 0.0
O412 O 0.49443 0.62613 0.36113 0.0
N413 N 0.43782 0.48013 0.31944 0.0
C414 C 0.40075 0.47865 0.30695 0.0
C415 C 0.3936 0.45345 0.28386 0.0
C416 C 0.4242 0.42914 0.27459 0.0
C417 C 0.46211 0.4312 0.28778 0.0
C418 C 0.46789 0.45795 0.30986 0.0
H419 H 0.37656 0.4959 0.31498 0.0
O420 O 0.43654 0.60141 0.32008 0.0
O421 O 0.46325 0.55132 0.34056 0.0
O422 O 0.38769 0.57418 0.36685 0.0
O423 O 0.39646 0.51184 0.36607 0.0
C424 C 0.49461 0.40811 0.27968 0.0
C425 C 0.53253 0.41331 0.29288 0.0
H426 H 0.60076 0.4315 0.32343 0.0
H427 H 0.60385 0.47815 0.36384 0.0
H428 H 0.36427 0.45204 0.27378 0.0
H429 H 0.41837 0.40923 0.25715 0.0
H430 H 0.49109 0.38715 0.26268 0.0
H431 H 0.55754 0.39612 0.28595 0.0
Mn432 Mn 0.43773 0.43412 0.86846 0.0
Mn433 Mn 0.45072 0.52807 0.86223 0.0
C434 C 0.45138 0.46111 0.82267 0.0
C435 C 0.45855 0.37187 0.87569 0.0
C436 C 0.36941 0.4914 0.87074 0.0
O437 O 0.45085 0.44967 0.91078 0.0
O438 O 0.46183 0.5113 0.90262 0.0
C439 C 0.53827 0.5319 0.87272 0.0
N440 N 0.50581 0.54014 0.85581 0.0
C441 C 0.54502 0.5808 0.82488 0.0
C442 C 0.57899 0.57264 0.84183 0.0
C443 C 0.57568 0.54775 0.86567 0.0
C444 C 0.50901 0.5628 0.83216 0.0
H445 H 0.53552 0.51364 0.89156 0.0
C446 C 0.46133 0.48252 0.91945 0.0
O447 O 0.4221 0.3825 0.88058 0.0
O448 O 0.48387 0.39786 0.86772 0.0
N449 N 0.44154 0.54931 0.82434 0.0
C450 C 0.40577 0.55451 0.81048 0.0
C451 C 0.40314 0.58059 0.78743 0.0
C452 C 0.43709 0.60158 0.77923 0.0
C453 C 0.47384 0.59502 0.79327 0.0
C454 C 0.47468 0.5685 0.81597 0.0
H455 H 0.3791 0.53988 0.81763 0.0
O456 O 0.43246 0.42925 0.82493 0.0
O457 O 0.46081 0.4769 0.84737 0.0
O458 O 0.38249 0.45792 0.87088 0.0
O459 O 0.39242 0.51993 0.86832 0.0
C460 C 0.50942 0.61445 0.78612 0.0
C461 C 0.54518 0.60682 0.80155 0.0
H462 H 0.60766 0.58559 0.83692 0.0
H463 H 0.6017 0.54143 0.87894 0.0
H464 H 0.37479 0.58518 0.77648 0.0
H465 H 0.43481 0.62205 0.76171 0.0
H466 H 0.50972 0.635 0.76856 0.0
H467 H 0.57247 0.62153 0.79558 0.0
Mn468 Mn 0.06601 0.60437 0.87527 0.0
Mn469 Mn 0.05752 0.5113 0.8629 0.0
C470 C 0.05004 0.58273 0.82877 0.0
C471 C 0.03774 0.66179 0.88868 0.0
C472 C 0.13759 0.55109 0.87069 0.0
O473 O 0.0594 0.58222 0.91638 0.0
O474 O 0.04895 0.52129 0.90498 0.0
C475 C 0.97119 0.50278 0.87645 0.0
N476 N 1.00218 0.49946 0.85719 0.0
C477 C 0.95732 0.4813 0.81849 0.0
C478 C 0.92497 0.48419 0.83793 0.0
C479 C 0.93198 0.49482 0.86709 0.0
C480 C 0.99587 0.48868 0.82924 0.0
H481 H 0.97626 0.51184 0.8987 0.0
C482 C 0.05078 0.54827 0.92344 0.0
O483 O 0.07606 0.65599 0.89075 0.0
O484 O 0.01579 0.63383 0.87987 0.0
N485 N 0.06442 0.49825 0.82271 0.0
C486 C 0.09875 0.49782 0.80653 0.0
C487 C 0.09695 0.48749 0.77691 0.0
C488 C 0.05986 0.47832 0.76423 0.0
C489 C 0.02507 0.47868 0.78148 0.0
C490 C 0.02892 0.48758 0.8111 0.0
H491 H 0.1272 0.50561 0.81606 0.0
O492 O 0.06565 0.6159 0.83221 0.0
O493 O 0.04483 0.56342 0.85264 0.0
O494 O 0.12329 0.58422 0.87278 0.0
O495 O 0.11562 0.52174 0.86786 0.0
C496 C 0.98647 0.47278 0.77008 0.0
C497 C 0.95264 0.47334 0.78852 0.0
H498 H 0.89459 0.47888 0.8306 0.0
H499 H 0.90715 0.49744 0.88219 0.0
H500 H 0.1239 0.48746 0.76372 0.0
H501 H 0.05831 0.47196 0.7411 0.0
H502 H 0.98241 0.4702 0.74691 0.0
H503 H 0.92311 0.46902 0.77922 0.0
Mn504 Mn 0.94214 0.58364 0.62465 0.0
Mn505 Mn 0.95651 0.4904 0.63256 0.0
C506 C 0.95374 0.55829 0.6712 0.0
C507 C 0.96995 0.64359 0.61569 0.0
C508 C 0.87472 0.52547 0.62079 0.0
O509 O 0.95547 0.56643 0.58301 0.0
O510 O 0.97174 0.50633 0.59277 0.0
C511 C 0.04492 0.48748 0.62723 0.0
N512 N 0.0108 0.47919 0.6423 0.0
C513 C 0.04676 0.4396 0.67593 0.0
C514 C 0.08241 0.44781 0.6609 0.0
C515 C 0.08154 0.47218 0.63662 0.0
C516 C 0.01153 0.45693 0.66627 0.0
H517 H 0.04408 0.50535 0.60807 0.0
C518 C 0.96949 0.53446 0.57541 0.0
O519 O 0.93215 0.63677 0.61111 0.0
O520 O 0.99128 0.61569 0.6251 0.0
N521 N 0.94348 0.47018 0.67016 0.0
C522 C 0.90669 0.46625 0.68277 0.0
C523 C 0.90204 0.44204 0.70687 0.0
C524 C 0.93497 0.42132 0.7172 0.0
C525 C 0.97262 0.42602 0.70395 0.0
C526 C 0.97563 0.45131 0.68055 0.0
H527 H 0.88089 0.48073 0.67405 0.0
O528 O 0.93604 0.59051 0.66795 0.0
O529 O 0.96362 0.54173 0.647 0.0
O530 O 0.88558 0.55995 0.62209 0.0
O531 O 0.8994 0.49822 0.62305 0.0
C532 C 0.00748 0.40732 0.71356 0.0
C533 C 0.04461 0.41444 0.69977 0.0
H534 H 0.11055 0.4354 0.66769 0.0
H535 H 0.10888 0.47856 0.62484 0.0
H536 H 0.87295 0.43868 0.71704 0.0
H537 H 0.93118 0.40238 0.7356 0.0
H538 H 0.00618 0.38791 0.73186 0.0
H539 H 0.0713 0.40034 0.70762 0.0
Mn540 Mn 0.57487 0.42943 0.61952 0.0
Mn541 Mn 0.54949 0.52001 0.63046 0.0
C542 C 0.55448 0.44928 0.66568 0.0
C543 C 0.55689 0.36761 0.6073 0.0
C544 C 0.63586 0.49424 0.62403 0.0
O545 O 0.56485 0.44889 0.57796 0.0
O546 O 0.54496 0.50799 0.58819 0.0
C547 C 0.4636 0.51431 0.61467 0.0
N548 N 0.49259 0.52271 0.63468 0.0
C549 C 0.44326 0.53423 0.67194 0.0
C550 C 0.41287 0.52601 0.6517 0.0
C551 C 0.4231 0.51617 0.6229 0.0
C552 C 0.48308 0.53285 0.66229 0.0
H553 H 0.4713 0.50593 0.59267 0.0
C554 C 0.55158 0.48116 0.57016 0.0
O555 O 0.59372 0.37931 0.60513 0.0
O556 O 0.53053 0.39213 0.61548 0.0
N557 N 0.55196 0.5346 0.67062 0.0
C558 C 0.58491 0.54018 0.68774 0.0
C559 C 0.57988 0.54965 0.71732 0.0
C560 C 0.5411 0.55276 0.72895 0.0
C561 C 0.5077 0.54754 0.71073 0.0
C562 C 0.51454 0.53942 0.68125 0.0
H563 H 0.61477 0.53681 0.67905 0.0
O564 O 0.57618 0.41929 0.66284 0.0
O565 O 0.54616 0.46683 0.64144 0.0
O566 O 0.62786 0.45918 0.62159 0.0
O567 O 0.60877 0.51935 0.62703 0.0
C568 C 0.46798 0.54786 0.72102 0.0
C569 C 0.43572 0.54191 0.70164 0.0
H570 H 0.38163 0.52663 0.65815 0.0
H571 H 0.39985 0.50949 0.60719 0.0
H572 H 0.60577 0.55345 0.73131 0.0
H573 H 0.53739 0.55787 0.75207 0.0
H574 H 0.46211 0.55062 0.74404 0.0
H575 H 0.40535 0.54195 0.71003 0.0
H576 H 0.30846 0.95201 0.12414 0.0
H577 H 0.34545 0.06844 0.12878 0.0
H578 H 0.27561 0.08814 0.12998 0.0
H579 H 0.20391 0.07261 0.13064 0.0
H580 H 0.16684 0.95615 0.12684 0.0
H581 H 0.23667 0.9365 0.12435 0.0
C582 C 0.30134 0.98172 0.12528 0.0
C583 C 0.33245 1.00859 0.12634 0.0
C584 C 0.26096 0.993 0.12618 0.0
C585 C 0.32236 0.04699 0.12794 0.0
C586 C 0.28232 0.05837 0.12864 0.0
C587 C 0.21099 0.04291 0.12917 0.0
C588 C 0.17988 0.01602 0.12892 0.0
C589 C 0.25135 0.03164 0.12792 0.0
C590 C 0.18994 0.97763 0.12708 0.0
C591 C 0.22997 0.96627 0.12566 0.0
H592 H 0.68197 0.04571 0.37728 0.0
H593 H 0.69285 0.92466 0.378 0.0
H594 H 0.76582 0.93034 0.37713 0.0
H595 H 0.82681 0.96984 0.37488 0.0
H596 H 0.81466 0.09083 0.37453 0.0
H597 H 0.7421 0.08478 0.37633 0.0
C598 C 0.70016 0.02047 0.37749 0.0
C599 C 0.68169 0.98482 0.3777 0.0
C600 C 0.74207 0.02387 0.37678 0.0
C601 C 0.70606 0.95253 0.37791 0.0
C602 C 0.74789 0.95572 0.37728 0.0
C603 C 0.80828 0.99486 0.37511 0.0
C604 C 0.82636 0.03071 0.37452 0.0
C605 C 0.76625 0.99127 0.37642 0.0
C606 C 0.80177 0.06283 0.37507 0.0
C607 C 0.76015 0.05946 0.3761 0.0
H608 H 0.82667 0.05066 0.88405 0.0
H609 H 0.81269 0.9302 0.87662 0.0
H610 H 0.73994 0.93718 0.87596 0.0
H611 H 0.68021 0.97773 0.8751 0.0
H612 H 0.69505 0.09818 0.88259 0.0
H613 H 0.76734 0.09068 0.88569 0.0
C614 C 0.80782 0.02582 0.88249 0.0
C615 C 0.82537 0.98999 0.88025 0.0
C616 C 0.76598 0.02998 0.882 0.0
C617 C 0.8002 0.9582 0.87836 0.0
C618 C 0.75849 0.96214 0.8779 0.0
C619 C 0.69918 1.00235 0.87764 0.0
C620 C 0.68194 0.03847 0.87843 0.0
C621 C 0.74104 0.99794 0.87935 0.0
C622 C 0.70722 0.06998 0.88178 0.0
C623 C 0.74872 0.06579 0.88354 0.0
H624 H 0.1796 0.03797 0.6279 0.0
H625 H 0.2009 0.91823 0.62986 0.0
H626 H 0.2733 0.92962 0.62833 0.0
H627 H 0.33069 0.97381 0.62733 0.0
H628 H 0.30797 0.09342 0.62458 0.0
H629 H 0.23611 0.0816 0.62553 0.0
C630 C 0.19993 0.01421 0.628 0.0
C631 C 0.18455 0.97724 0.62913 0.0
C632 C 0.24144 0.02093 0.627 0.0
C633 C 0.21167 0.94699 0.62897 0.0
C634 C 0.25316 0.95349 0.62816 0.0
C635 C 0.31007 0.99734 0.62687 0.0
C636 C 0.32509 0.03452 0.62593 0.0
C637 C 0.26842 0.99038 0.6273 0.0
C638 C 0.29763 0.06451 0.62525 0.0
C639 C 0.25636 0.05781 0.62585 0.0
H640 H 0.8365 0.54871 0.12003 0.0
H641 H 0.81527 0.42883 0.12363 0.0
H642 H 0.7432 0.43938 0.12144 0.0
H643 H 0.6859 0.48245 0.12 0.0
H644 H 0.70693 0.60233 0.11595 0.0
H645 H 0.77911 0.59175 0.11665 0.0
C646 C 0.81619 0.52483 0.12023 0.0
C647 C 0.83159 0.48801 0.1221 0.0
C648 C 0.77455 0.53103 0.1189 0.0
C649 C 0.80455 0.45751 0.12221 0.0
C650 C 0.76318 0.46348 0.121 0.0
C651 C 0.70618 0.50633 0.11909 0.0
C652 C 0.69069 0.54316 0.118 0.0
C653 C 0.74782 0.50012 0.11954 0.0
C654 C 0.71772 0.57363 0.11678 0.0
C655 C 0.75914 0.56764 0.11726 0.0
H656 H 0.33437 0.47396 0.36918 0.0
H657 H 0.31439 0.5939 0.3717 0.0
H658 H 0.2419 0.58326 0.37173 0.0
H659 H 0.18397 0.53962 0.36993 0.0
H660 H 0.20586 0.41985 0.36723 0.0
H661 H 0.27763 0.431 0.3682 0.0
C662 C 0.31434 0.49792 0.36995 0.0
C663 C 0.33007 0.53469 0.37046 0.0
C664 C 0.27281 0.49167 0.36971 0.0
C665 C 0.3033 0.56523 0.37136 0.0
C666 C 0.26176 0.55919 0.37127 0.0
C667 C 0.20442 0.51597 0.36952 0.0
C668 C 0.1892 0.47894 0.3685 0.0
C669 C 0.24613 0.52249 0.3702 0.0
C670 C 0.21637 0.44868 0.36808 0.0
C671 C 0.25761 0.45497 0.36865 0.0
H672 H 0.17998 0.48567 0.87363 0.0
H673 H 0.19529 0.60622 0.86907 0.0
H674 H 0.26798 0.59865 0.86924 0.0
H675 H 0.32751 0.55774 0.86986 0.0
H676 H 0.31141 0.43722 0.87505 0.0
H677 H 0.23904 0.4451 0.87553 0.0
C678 C 0.19911 0.51036 0.87269 0.0
C679 C 0.18192 0.54645 0.87127 0.0
C680 C 0.24098 0.50589 0.87293 0.0
C681 C 0.20747 0.57805 0.87021 0.0
C682 C 0.24917 0.57377 0.87028 0.0
C683 C 0.30824 0.53318 0.87126 0.0
C684 C 0.32523 0.49695 0.87238 0.0
C685 C 0.2663 0.53781 0.87155 0.0
C686 C 0.2995 0.46552 0.87414 0.0
C687 C 0.25793 0.46993 0.87438 0.0
H688 H 0.70219 0.45189 0.61224 0.0
H689 H 0.66628 0.56487 0.63448 0.0
H690 H 0.73626 0.58517 0.63405 0.0
H691 H 0.80844 0.57053 0.62868 0.0
H692 H 0.84322 0.45708 0.60666 0.0
H693 H 0.77334 0.43775 0.60556 0.0
C694 C 0.70953 0.48099 0.617 0.0
C695 C 0.67868 0.50664 0.62347 0.0
C696 C 0.74993 0.4926 0.61671 0.0
C697 C 0.68914 0.54432 0.62941 0.0
C698 C 0.7293 0.55604 0.62918 0.0
C699 C 0.80072 0.54169 0.62334 0.0
C700 C 0.83142 0.51543 0.61785 0.0
C701 C 0.76006 0.53041 0.62297 0.0
C702 C 0.82056 0.47806 0.61116 0.0
C703 C 0.78043 0.46683 0.61053 0.0
H704 H 0.93005 0.07301 0.27943 0.0
H705 H 0.03702 0.07509 0.33225 0.0
H706 H 0.07871 0.07175 0.28826 0.0
H707 H 0.0847 0.06669 0.23458 0.0
H708 H 0.97785 0.05607 0.18221 0.0
H709 H 0.93616 0.06285 0.2259 0.0
C710 C 0.96248 0.07253 0.28114 0.0
C711 C 0.98059 0.07347 0.30888 0.0
C712 C 0.98623 0.06857 0.2558 0.0
C713 C 0.02257 0.07358 0.31102 0.0
C714 C 0.04638 0.07174 0.28591 0.0
C715 C 0.0523 0.06496 0.23294 0.0
C716 C 0.03438 0.06011 0.20537 0.0
C717 C 0.02855 0.06853 0.25822 0.0
C718 C 0.99237 0.05857 0.20334 0.0
C719 C 0.9685 0.06333 0.22823 0.0
H720 H 0.52909 0.95897 0.1881 0.0
H721 H 0.40707 0.9621 0.21861 0.0
H722 H 0.43036 0.97192 0.26897 0.0
H723 H 0.48569 0.97487 0.30477 0.0
H724 H 0.60755 0.96563 0.27473 0.0
H725 H 0.58455 0.96455 0.22377 0.0
C726 C 0.50774 0.96259 0.20578 0.0
C727 C 0.46645 0.96133 0.19966 0.0
C728 C 0.52146 0.96742 0.23473 0.0
C729 C 0.43898 0.96403 0.22283 0.0
C730 C 0.4523 0.96964 0.25157 0.0
C731 C 0.50717 0.97408 0.28694 0.0
C732 C 0.54829 0.97121 0.29333 0.0
C733 C 0.49349 0.97121 0.25783 0.0
C734 C 0.57584 0.96867 0.27019 0.0
C735 C 0.56262 0.96735 0.24113 0.0
H736 H 0.08116 0.94796 0.73023 0.0
H737 H 0.97474 0.93648 0.67752 0.0
H738 H 0.93255 0.94571 0.72068 0.0
H739 H 0.92601 0.95614 0.7738 0.0
H740 H 0.03195 0.97626 0.82546 0.0
H741 H 0.07424 0.96609 0.78247 0.0
C742 C 0.04875 0.94768 0.72837 0.0
C743 C 0.0309 0.942 0.7009 0.0
C744 C 0.02465 0.95505 0.75304 0.0
C745 C 0.98894 0.94127 0.69854 0.0
C746 C 0.96485 0.94659 0.72315 0.0
C747 C 0.95829 0.95952 0.77531 0.0
C748 C 0.97585 0.9674 0.80255 0.0
C749 C 0.98235 0.95387 0.75047 0.0
C750 C 0.01771 0.97114 0.8045 0.0
C751 C 0.04195 0.96444 0.78008 0.0
H752 H 0.5268 0.07124 0.68696 0.0
H753 H 0.40579 0.07472 0.71951 0.0
H754 H 0.43011 0.06517 0.76966 0.0
H755 H 0.48636 0.06073 0.80467 0.0
H756 H 0.60761 0.06369 0.77246 0.0
H757 H 0.58302 0.06429 0.72188 0.0
C758 C 0.50583 0.06909 0.70504 0.0
C759 C 0.46446 0.07219 0.69953 0.0
C760 C 0.52021 0.06456 0.73389 0.0
C761 C 0.43767 0.07136 0.72322 0.0
C762 C 0.45159 0.06595 0.75186 0.0
C763 C 0.50729 0.0602 0.7865 0.0
C764 C 0.54875 0.06139 0.79218 0.0
C765 C 0.49284 0.06276 0.75752 0.0
C766 C 0.57561 0.06209 0.76853 0.0
C767 C 0.56153 0.06305 0.73965 0.0
H768 H 0.49069 0.57428 0.18297 0.0
H769 H 0.61074 0.58233 0.21704 0.0
H770 H 0.58575 0.57048 0.26678 0.0
H771 H 0.52901 0.56114 0.30083 0.0
H772 H 0.40853 0.55874 0.26703 0.0
H773 H 0.43414 0.56372 0.21688 0.0
C774 C 0.51132 0.57282 0.20131 0.0
C775 C 0.55262 0.57768 0.19639 0.0
C776 C 0.49656 0.56674 0.22981 0.0
C777 C 0.57896 0.57764 0.22035 0.0
C778 C 0.56465 0.57088 0.24872 0.0
C779 C 0.50858 0.56026 0.28234 0.0
C780 C 0.46702 0.55846 0.28741 0.0
C781 C 0.5235 0.5653 0.25373 0.0
C782 C 0.44065 0.55908 0.26348 0.0
C783 C 0.45526 0.56271 0.2349 0.0
H784 H 0.08529 0.4411 0.27345 0.0
H785 H 0.97933 0.42638 0.32611 0.0
H786 H 0.93694 0.43239 0.28256 0.0
H787 H 0.93013 0.4418 0.22918 0.0
H788 H 0.03558 0.46453 0.17758 0.0
H789 H 0.0779 0.45703 0.22085 0.0
C790 C 0.05291 0.43953 0.27525 0.0
C791 C 0.03527 0.43402 0.30283 0.0
C792 C 0.02864 0.44493 0.25031 0.0
C793 C 0.99338 0.43133 0.30505 0.0
C794 C 0.96918 0.43471 0.28019 0.0
C795 C 0.96228 0.44605 0.22766 0.0
C796 C 0.97962 0.45428 0.20035 0.0
C797 C 0.98644 0.44194 0.25273 0.0
C798 C 0.02137 0.45922 0.1985 0.0
C799 C 0.0457 0.4541 0.22314 0.0
H800 H 0.57948 0.46382 0.72145 0.0
H801 H 0.47414 0.4428 0.66939 0.0
H802 H 0.4319 0.44653 0.71312 0.0
H803 H 0.42514 0.45446 0.76662 0.0
H804 H 0.5297 0.48141 0.81797 0.0
H805 H 0.57165 0.47859 0.77422 0.0
C806 C 0.54723 0.46051 0.71979 0.0
C807 C 0.52975 0.4538 0.69229 0.0
C808 C 0.52292 0.46431 0.74489 0.0
C809 C 0.48806 0.44876 0.69033 0.0
C810 C 0.46394 0.45081 0.71531 0.0
C811 C 0.45696 0.46062 0.76803 0.0
C812 C 0.47412 0.46873 0.79543 0.0
C813 C 0.48099 0.45877 0.74271 0.0
C814 C 0.51548 0.47619 0.79705 0.0
C815 C 0.53969 0.47377 0.7721 0.0
H816 H 0.07808 0.57083 0.77354 0.0
H817 H 0.96973 0.57853 0.82437 0.0
H818 H 0.92923 0.56906 0.78024 0.0
H819 H 0.92484 0.5607 0.72662 0.0
H820 H 0.03317 0.54509 0.67686 0.0
H821 H 0.07348 0.55372 0.72104 0.0
C822 C 0.04562 0.56996 0.77484 0.0
C823 C 0.02677 0.57476 0.80203 0.0
C824 C 0.02259 0.56261 0.7496 0.0
C825 C 0.98474 0.57425 0.8036 0.0
C826 C 0.96163 0.56888 0.77842 0.0
C827 C 0.95721 0.55807 0.72573 0.0
C828 C 0.97599 0.55183 0.69866 0.0
C829 C 0.98021 0.56292 0.75129 0.0
C830 C 0.01797 0.54893 0.69759 0.0
C831 C 0.0411 0.5547 0.72274 0.0
H832 H 0.98418 0.18492 0.11816 0.0
H833 H 0.10932 0.21469 0.1244 0.0
H834 H 0.09217 0.2815 0.12225 0.0
H835 H 0.0411 0.3318 0.1207 0.0
H836 H 0.91627 0.3013 0.11233 0.0
H837 H 0.93382 0.23482 0.11301 0.0
C838 C 0.00771 0.20603 0.11892 0.0
C839 C 0.04793 0.1948 0.12167 0.0
C840 C 0.99768 0.24442 0.11732 0.0
C841 C 0.0781 0.22253 0.12229 0.0
C842 C 0.06831 0.26079 0.12114 0.0
C843 C 0.01781 0.31059 0.11881 0.0
C844 C 0.97741 0.32165 0.11664 0.0
C845 C 0.02813 0.27213 0.11896 0.0
C846 C 0.94763 0.29373 0.11401 0.0
C847 C 0.9576 0.25559 0.1145 0.0
H848 H 0.52961 0.84285 0.10174 0.0
H849 H 0.40551 0.80985 0.109 0.0
H850 H 0.4247 0.74347 0.10723 0.0
H851 H 0.4775 0.69468 0.10713 0.0
H852 H 0.60125 0.72849 0.09788 0.0
H853 H 0.58144 0.7944 0.09669 0.0
C854 C 0.50673 0.82112 0.10264 0.0
C855 C 0.46624 0.83127 0.10576 0.0
C856 C 0.51795 0.78306 0.10139 0.0
C857 C 0.4369 0.8028 0.10658 0.0
C858 C 0.44788 0.76481 0.1057 0.0
C859 C 0.50004 0.71648 0.10454 0.0
C860 C 0.54084 0.70658 0.10286 0.0
C861 C 0.48841 0.75457 0.10364 0.0
C862 C 0.56965 0.73519 0.09926 0.0
C863 C 0.55838 0.773 0.09868 0.0
H864 H 0.43316 0.7206 0.37343 0.0
H865 H 0.55217 0.67337 0.37425 0.0
H866 H 0.58119 0.73649 0.37732 0.0
H867 H 0.57289 0.80511 0.37786 0.0
H868 H 0.45418 0.8527 0.37372 0.0
H869 H 0.42486 0.78948 0.37396 0.0
C870 C 0.46544 0.72413 0.37452 0.0
C871 C 0.4905 0.69234 0.3737 0.0
C872 C 0.48194 0.76058 0.37558 0.0
C873 C 0.53226 0.69738 0.37479 0.0
C874 C 0.54886 0.73346 0.37656 0.0
C875 C 0.54057 0.80166 0.37725 0.0
C876 C 0.51573 0.83356 0.37588 0.0
C877 C 0.52402 0.76527 0.37669 0.0
C878 C 0.47395 0.82861 0.37476 0.0
C879 C 0.45719 0.79246 0.37489 0.0
H880 H 0.9873 0.32319 0.40403 0.0
H881 H 0.11123 0.2908 0.39497 0.0
H882 H 0.09264 0.22461 0.39983 0.0
H883 H 0.04038 0.17565 0.40176 0.0
H884 H 0.91664 0.20819 0.41214 0.0
H885 H 0.93602 0.27438 0.41214 0.0
C886 C 0.01025 0.30165 0.40347 0.0
C887 C 0.05047 0.31185 0.39876 0.0
C888 C 0.9994 0.26359 0.40644 0.0
C889 C 0.07999 0.28369 0.39848 0.0
C890 C 0.06939 0.24578 0.40115 0.0
C891 C 0.01776 0.19721 0.40453 0.0
C892 C 0.97711 0.18696 0.40659 0.0
C893 C 0.02908 0.23535 0.40444 0.0
C894 C 0.94817 0.21524 0.41042 0.0
C895 C 0.95917 0.25318 0.41025 0.0
H896 H 0.07664 0.72907 0.89053 0.0
H897 H 0.95896 0.67895 0.89664 0.0
H898 H 0.92861 0.74137 0.89859 0.0
H899 H 0.93506 0.81003 0.89473 0.0
H900 H 0.05241 0.86015 0.88568 0.0
H901 H 0.0833 0.79801 0.88883 0.0
C902 C 0.04441 0.73183 0.89274 0.0
C903 C 0.02009 0.69943 0.89342 0.0
C904 C 0.02706 0.76784 0.89305 0.0
C905 C 0.97834 0.70346 0.896 0.0
C906 C 0.96094 0.73915 0.89705 0.0
C907 C 0.96742 0.80741 0.89376 0.0
C908 C 0.99137 0.83967 0.88987 0.0
C909 C 0.98493 0.77152 0.89498 0.0
C910 C 0.03326 0.83575 0.88853 0.0
C911 C 0.05096 0.80021 0.89033 0.0
H912 H 0.53333 0.34047 0.87582 0.0
H913 H 0.40752 0.31213 0.87836 0.0
H914 H 0.42368 0.24529 0.87744 0.0
H915 H 0.47365 0.19429 0.8747 0.0
H916 H 0.59946 0.22276 0.8748 0.0
H917 H 0.58326 0.28955 0.8759 0.0
C918 C 0.5095 0.31965 0.87632 0.0
C919 C 0.46932 0.3314 0.87706 0.0
C920 C 0.51898 0.28104 0.87615 0.0
C921 C 0.43878 0.30398 0.87788 0.0
C922 C 0.44795 0.26563 0.87724 0.0
C923 C 0.49744 0.21515 0.875 0.0
C924 C 0.53765 0.20348 0.87453 0.0
C925 C 0.48794 0.25376 0.87616 0.0
C926 C 0.56819 0.23089 0.87522 0.0
C927 C 0.55899 0.2692 0.87579 0.0
H928 H 0.5344 0.19101 0.60796 0.0
H929 H 0.41025 0.2238 0.60114 0.0
H930 H 0.43003 0.28978 0.59782 0.0
H931 H 0.48212 0.3386 0.60035 0.0
H932 H 0.60648 0.30645 0.60585 0.0
H933 H 0.58717 0.23996 0.60584 0.0
C934 C 0.51172 0.21258 0.60547 0.0
C935 C 0.47086 0.20241 0.60508 0.0
C936 C 0.52334 0.25066 0.60341 0.0
C937 C 0.44189 0.23073 0.60157 0.0
C938 C 0.45316 0.26856 0.59975 0.0
C939 C 0.50504 0.31705 0.60122 0.0
C940 C 0.54567 0.32751 0.60334 0.0
C941 C 0.49372 0.2789 0.60116 0.0
C942 C 0.575 0.29921 0.60418 0.0
C943 C 0.56395 0.26115 0.60433 0.0
H944 H 0.07539 0.79161 0.60858 0.0
H945 H 0.95842 0.84297 0.6085 0.0
H946 H 0.92674 0.78089 0.60717 0.0
H947 H 0.93212 0.71156 0.60957 0.0
H948 H 0.04934 0.6607 0.61248 0.0
H949 H 0.0808 0.72259 0.60906 0.0
C950 C 0.04298 0.78924 0.60781 0.0
C951 C 0.01937 0.82198 0.60859 0.0
C952 C 0.02488 0.75333 0.60783 0.0
C953 C 0.97737 0.81829 0.60794 0.0
C954 C 0.95918 0.78273 0.60726 0.0
C955 C 0.96453 0.71403 0.60914 0.0
C956 C 0.98826 0.68143 0.61137 0.0
C957 C 0.98259 0.74998 0.60775 0.0
C958 C 0.03026 0.68524 0.61096 0.0
C959 C 0.04836 0.7207 0.60899 0.0
H960 H 0.99621 0.0495 0.94875 0.0
H961 H 0.96124 0.93555 0.97047 0.0
H962 H 0.98566 0.94443 0.02027 0.0
H963 H 0.01643 0.98382 0.05719 0.0
H964 H 0.0517 0.09797 0.03662 0.0
H965 H 0.0276 0.08941 0.98634 0.0
C966 C 0.9937 0.02659 0.96436 0.0
C967 C 0.9767 0.99187 0.95582 0.0
C968 C 0.00797 0.0318 0.99298 0.0
C969 C 0.97408 0.96252 0.97637 0.0
C970 C 0.98808 0.96756 0.00486 0.0
C971 C 0.01911 1.00703 0.04185 0.0
C972 C 0.03598 0.04158 0.05079 0.0
C973 C 1.00508 1.002 0.01331 0.0
C974 C 0.03896 0.07109 0.03039 0.0
C975 C 0.0251 0.06621 0.00168 0.0
H976 H 0.50727 0.9912 0.94045 0.0
H977 H 0.54336 0.10395 0.96421 0.0
H978 H 0.52006 0.09274 0.01437 0.0
H979 H 0.49149 0.05033 0.05145 0.0
H980 H 0.45627 0.93743 0.02722 0.0
H981 H 0.47741 0.9496 0.97691 0.0
C982 C 0.51024 0.01349 0.9565 0.0
C983 C 0.52747 0.04837 0.94851 0.0
C984 C 0.49696 1.00682 0.98514 0.0
C985 C 0.53039 0.07686 0.96968 0.0
C986 C 0.51711 0.07042 0.99837 0.0
C987 C 0.48817 0.02831 0.03521 0.0
C988 C 0.47228 0.99287 0.04329 0.0
C989 C 0.50061 0.03541 0.00635 0.0
C990 C 0.46835 0.96489 0.02178 0.0
C991 C 0.4805 0.97182 0.99298 0.0
H992 H 0.48315 0.98251 0.55123 0.0
H993 H 0.4565 0.0976 0.52764 0.0
H994 H 0.47952 0.08572 0.4778 0.0
H995 H 0.50877 0.04362 0.44155 0.0
H996 H 0.53606 0.9286 0.46474 0.0
H997 H 0.511 0.93972 0.51436 0.0
C998 C 0.48205 1.00505 0.53521 0.0
C999 C 0.46806 0.04102 0.54336 0.0
C1000 C 0.49564 0.99812 0.50662 0.0
C1001 C 0.46705 0.0697 0.52214 0.0
C1002 C 0.48032 0.06295 0.49361 0.0
C1003 C 0.50944 0.02084 0.45737 0.0
C1004 C 0.5247 0.98531 0.44936 0.0
C1005 C 0.49501 0.02741 0.48573 0.0
C1006 C 0.52468 0.9562 0.47024 0.0
C1007 C 0.51034 0.96257 0.49862 0.0
H1008 H 0.00717 0.93856 0.54033 0.0
H1009 H 0.06995 0.04283 0.55619 0.0
H1010 H 0.04317 0.06934 0.51102 0.0
H1011 H 1.00076 0.06363 0.46746 0.0
H1012 H 0.93878 0.95931 0.45058 0.0
H1013 H 0.96554 0.9324 0.49585 0.0
C1014 C 0.01554 0.96676 0.53351 0.0
C1015 C 0.0406 0.98862 0.55141 0.0
C1016 C 0.99938 0.98219 0.5077 0.0
C1017 C 0.0507 0.02543 0.54267 0.0
C1018 C 0.03519 0.04075 0.51697 0.0
C1019 C 0.99256 0.03528 0.47402 0.0
C1020 C 0.96743 0.01368 0.45604 0.0
C1021 C 0.00898 0.01964 0.49957 0.0
C1022 C 0.95784 0.97659 0.46432 0.0
C1023 C 0.97338 0.96108 0.49004 0.0
H1024 H 0.52108 0.48658 0.05123 0.0
H1025 H 0.55212 0.60006 0.02534 0.0
H1026 H 0.5258 0.58815 0.97644 0.0
H1027 H 0.49396 0.54644 0.94141 0.0
H1028 H 0.46277 0.43262 0.96602 0.0
H1029 H 0.48923 0.44405 0.01536 0.0
C1030 C 0.52233 0.50874 0.0349 0.0
C1031 C 0.53875 0.54427 0.04213 0.0
C1032 C 0.50694 0.50176 0.00672 0.0
C1033 C 0.53981 0.57251 0.02057 0.0
C1034 C 0.52467 0.56575 0.99256 0.0
C1035 C 0.49259 0.52394 0.95745 0.0
C1036 C 0.47602 0.48866 0.94988 0.0
C1037 C 0.50805 0.5306 0.98549 0.0
C1038 C 0.47512 0.46004 0.97115 0.0
C1039 C 0.49034 0.46657 -0.00065 0.0
H1040 H 1.00087 0.53782 0.05607 0.0
H1041 H 0.96818 0.42497 0.03 0.0
H1042 H 0.99267 0.43802 0.98041 0.0
H1043 H 0.02197 0.4818 0.94468 0.0
H1044 H 0.05363 0.59475 0.97126 0.0
H1045 H 0.0309 0.58089 0.02093 0.0
C1046 C 0.99883 0.51589 0.03965 0.0
C1047 C 0.98232 0.48042 0.04682 0.0
C1048 C 0.01293 0.52355 0.01141 0.0
C1049 C 0.98052 0.4525 0.02513 0.0
C1050 C 0.99457 0.45996 0.99681 0.0
C1051 C 0.02425 0.50344 0.96131 0.0
C1052 C 0.0396 0.53938 0.95412 0.0
C1053 C 0.01072 0.49543 0.98973 0.0
C1054 C 0.04203 0.56692 0.97607 0.0
C1055 C 0.02894 0.55904 0.00447 0.0
H1056 H 0.01059 0.47407 0.55554 0.0
H1057 H 0.96544 0.58239 0.52802 0.0
H1058 H 0.99223 0.57168 0.47883 0.0
H1059 H 0.02634 0.53077 0.44367 0.0
H1060 H 0.07024 0.42207 0.47154 0.0
H1061 H 0.04609 0.43419 0.52105 0.0
C1062 C 0.00635 0.49548 0.53888 0.0
C1063 C 0.98557 0.52892 0.54548 0.0
C1064 C 0.02175 0.48915 0.51084 0.0
C1065 C 0.98106 0.55635 0.52356 0.0
C1066 C 0.99642 0.55024 0.49545 0.0
C1067 C 0.03104 0.50974 0.46056 0.0
C1068 C 0.05011 0.47543 0.45376 0.0
C1069 C 0.01659 0.51664 0.48886 0.0
C1070 C 0.0557 0.44865 0.47604 0.0
C1071 C 0.04178 0.45551 0.50435 0.0
H1072 H 0.52111 0.54523 0.54613 0.0
H1073 H 0.55771 0.43233 0.52378 0.0
H1074 H 0.53619 0.4427 0.47326 0.0
H1075 H 0.50537 0.48296 0.43598 0.0
H1076 H 0.46838 0.59569 0.45844 0.0
H1077 H 0.49186 0.586 0.50858 0.0
C1078 C 0.52469 0.52282 0.53027 0.0
C1079 C 0.54105 0.48794 0.53894 0.0
C1080 C 0.51199 0.52886 0.50133 0.0
C1081 C 0.5453 0.45943 0.51787 0.0
C1082 C 0.53289 0.46532 0.48896 0.0
C1083 C 0.5023 0.50551 0.45177 0.0
C1084 C 0.48477 0.53999 0.44335 0.0
C1085 C 0.51586 0.49978 0.48054 0.0
C1086 C 0.48158 0.56886 0.4642 0.0
C1087 C 0.49501 0.56334 0.49291 0.0
loop_
_geom_bond_atom_site_label_1
_geom_bond_atom_site_label_2
_geom_bond_distance
_geom_bond_site_symmetry_2
_ccdc_geom_bond_type
Mn0 O5 2.095 . S
Mn0 O15 2.162 . S
Mn0 O16 2.297 . S
Mn0 O24 2.385 . S
Mn0 O25 2.209 . S
Mn0 O26 2.094 . S
Mn1 O6 2.120 1_565 S
Mn1 N8 2.257 . S
Mn1 N17 2.282 . S
Mn1 O25 2.215 1_565 S
Mn1 O27 2.117 1_565 S
C2 O24 1.234 . S
C2 O25 1.283 . S
C3 O15 1.281 . S
C3 O16 1.236 . S
C4 O26 1.240 . S
C4 O27 1.264 . S
O5 Mn0 2.095 . S
O5 C14 1.250 . S
O6 Mn1 2.120 1_545 S
O6 C14 1.262 . S
C7 N8 1.326 1_655 S
C7 C11 1.460 . S
C7 H13 0.929 . S
N8 Mn1 2.257 . S
N8 C7 1.326 1_455 S
N8 C12 1.362 . S
C9 C10 1.258 . S
C9 C12 1.431 1_655 S
C9 C29 1.449 . S
C10 C9 1.258 . S
C10 C11 1.477 . S
C10 H30 0.931 . S
C11 C7 1.460 . S
C11 C10 1.477 . S
C11 H31 0.930 . S
C12 N8 1.362 . S
C12 C9 1.431 1_455 S
C12 C22 1.476 . S
H13 C7 0.929 . S
C14 O5 1.250 . S
C14 O6 1.262 . S
O15 Mn0 2.162 . S
O15 C3 1.281 . S
O16 Mn0 2.297 . S
O16 C3 1.236 . S
N17 Mn1 2.282 . S
N17 C18 1.328 . S
N17 C22 1.318 . S
C18 N17 1.328 . S
C18 C19 1.457 . S
C18 H23 0.929 . S
C19 C18 1.457 . S
C19 C20 1.291 . S
C19 H32 0.931 . S
C20 C19 1.291 . S
C20 C21 1.373 . S
C20 H33 0.929 . S
C21 C20 1.373 . S
C21 C22 1.396 . S
C21 C28 1.403 . S
C22 C12 1.476 . S
C22 N17 1.318 . S
C22 C21 1.396 . S
H23 C18 0.929 . S
O24 Mn0 2.385 . S
O24 C2 1.234 . S
O25 Mn0 2.209 . S
O25 Mn1 2.215 1_545 S
O25 C2 1.283 . S
O26 Mn0 2.094 . S
O26 C4 1.240 . S
O27 Mn1 2.117 1_545 S
O27 C4 1.264 . S
C28 C21 1.403 . S
C28 C29 1.399 1_455 S
C28 H34 0.929 . S
C29 C9 1.449 . S
C29 C28 1.399 1_655 S
C29 H35 0.930 . S
H30 C10 0.931 . S
H31 C11 0.930 . S
H32 C19 0.931 . S
H33 C20 0.929 . S
H34 C28 0.929 . S
H35 C29 0.930 . S
Mn36 O41 2.095 . S
Mn36 O51 2.162 . S
Mn36 O52 2.297 . S
Mn36 O60 2.385 . S
Mn36 O61 2.209 . S
Mn36 O62 2.094 . S
Mn37 O42 2.120 1_545 S
Mn37 N44 2.257 . S
Mn37 N53 2.282 . S
Mn37 O61 2.215 1_545 S
Mn37 O63 2.117 1_545 S
C38 O60 1.234 . S
C38 O61 1.283 . S
C39 O51 1.281 . S
C39 O52 1.236 . S
C40 O62 1.240 . S
C40 O63 1.264 . S
O41 Mn36 2.095 . S
O41 C50 1.250 . S
O42 Mn37 2.120 1_565 S
O42 C50 1.262 . S
C43 N44 1.326 . S
C43 C47 1.460 . S
C43 H49 0.929 . S
N44 Mn37 2.257 . S
N44 C43 1.326 . S
N44 C48 1.362 . S
C45 C46 1.258 . S
C45 C48 1.431 . S
C45 C65 1.449 . S
C46 C45 1.258 . S
C46 C47 1.477 . S
C46 H66 0.931 . S
C47 C43 1.460 . S
C47 C46 1.477 . S
C47 H67 0.930 . S
C48 N44 1.362 . S
C48 C45 1.431 . S
C48 C58 1.476 . S
H49 C43 0.929 . S
C50 O41 1.250 . S
C50 O42 1.262 . S
O51 Mn36 2.162 . S
O51 C39 1.281 . S
O52 Mn36 2.297 . S
O52 C39 1.236 . S
N53 Mn37 2.282 . S
N53 C54 1.328 . S
N53 C58 1.318 . S
C54 N53 1.328 . S
C54 C55 1.457 . S
C54 H59 0.929 . S
C55 C54 1.457 . S
C55 C56 1.291 . S
C55 H68 0.931 . S
C56 C55 1.291 . S
C56 C57 1.373 . S
C56 H69 0.929 . S
C57 C56 1.373 . S
C57 C58 1.396 . S
C57 C64 1.403 . S
C58 C48 1.476 . S
C58 N53 1.318 . S
C58 C57 1.396 . S
H59 C54 0.929 . S
O60 Mn36 2.385 . S
O60 C38 1.234 . S
O61 Mn36 2.209 . S
O61 Mn37 2.215 1_565 S
O61 C38 1.283 . S
O62 Mn36 2.094 . S
O62 C40 1.240 . S
O63 Mn37 2.117 1_565 S
O63 C40 1.264 . S
C64 C57 1.403 . S
C64 C65 1.399 . S
C64 H70 0.929 . S
C65 C45 1.449 . S
C65 C64 1.399 . S
C65 H71 0.930 . S
H66 C46 0.931 . S
H67 C47 0.930 . S
H68 C55 0.931 . S
H69 C56 0.929 . S
H70 C64 0.929 . S
H71 C65 0.930 . S
Mn72 O77 2.095 . S
Mn72 O87 2.162 . S
Mn72 O88 2.297 . S
Mn72 O96 2.385 . S
Mn72 O97 2.209 . S
Mn72 O98 2.094 . S
Mn73 O78 2.120 1_545 S
Mn73 N80 2.257 . S
Mn73 N89 2.282 . S
Mn73 O97 2.215 1_545 S
Mn73 O99 2.117 1_545 S
C74 O96 1.234 . S
C74 O97 1.283 . S
C75 O87 1.281 . S
C75 O88 1.236 . S
C76 O98 1.240 . S
C76 O99 1.264 . S
O77 Mn72 2.095 . S
O77 C86 1.250 . S
O78 Mn73 2.120 1_565 S
O78 C86 1.262 . S
C79 N80 1.326 . S
C79 C83 1.460 . S
C79 H85 0.929 . S
N80 Mn73 2.257 . S
N80 C79 1.326 . S
N80 C84 1.362 . S
C81 C82 1.258 . S
C81 C84 1.431 . S
C81 C101 1.449 . S
C82 C81 1.258 . S
C82 C83 1.477 . S
C82 H102 0.931 . S
C83 C79 1.460 . S
C83 C82 1.477 . S
C83 H103 0.930 . S
C84 N80 1.362 . S
C84 C81 1.431 . S
C84 C94 1.476 . S
H85 C79 0.929 . S
C86 O77 1.250 . S
C86 O78 1.262 . S
O87 Mn72 2.162 . S
O87 C75 1.281 . S
O88 Mn72 2.297 . S
O88 C75 1.236 . S
N89 Mn73 2.282 . S
N89 C90 1.328 . S
N89 C94 1.318 . S
C90 N89 1.328 . S
C90 C91 1.457 . S
C90 H95 0.929 . S
C91 C90 1.457 . S
C91 C92 1.291 . S
C91 H104 0.931 . S
C92 C91 1.291 . S
C92 C93 1.373 . S
C92 H105 0.929 . S
C93 C92 1.373 . S
C93 C94 1.396 . S
C93 C100 1.403 . S
C94 C84 1.476 . S
C94 N89 1.318 . S
C94 C93 1.396 . S
H95 C90 0.929 . S
O96 Mn72 2.385 . S
O96 C74 1.234 . S
O97 Mn72 2.209 . S
O97 Mn73 2.215 1_565 S
O97 C74 1.283 . S
O98 Mn72 2.094 . S
O98 C76 1.240 . S
O99 Mn73 2.117 1_565 S
O99 C76 1.264 . S
C100 C93 1.403 . S
C100 C101 1.399 . S
C100 H106 0.929 . S
C101 C81 1.449 . S
C101 C100 1.399 . S
C101 H107 0.930 . S
H102 C82 0.931 . S
H103 C83 0.930 . S
H104 C91 0.931 . S
H105 C92 0.929 . S
H106 C100 0.929 . S
H107 C101 0.930 . S
Mn108 O113 2.095 . S
Mn108 O123 2.162 . S
Mn108 O124 2.297 . S
Mn108 O132 2.385 . S
Mn108 O133 2.209 . S
Mn108 O134 2.094 . S
Mn109 O114 2.120 1_565 S
Mn109 N116 2.257 . S
Mn109 N125 2.282 . S
Mn109 O133 2.215 1_565 S
Mn109 O135 2.117 1_565 S
C110 O132 1.234 . S
C110 O133 1.283 . S
C111 O123 1.281 . S
C111 O124 1.236 . S
C112 O134 1.240 . S
C112 O135 1.264 . S
O113 Mn108 2.095 . S
O113 C122 1.250 . S
O114 Mn109 2.120 1_545 S
O114 C122 1.262 . S
C115 N116 1.326 1_455 S
C115 C119 1.460 . S
C115 H121 0.929 . S
N116 Mn109 2.257 . S
N116 C115 1.326 1_655 S
N116 C120 1.362 . S
C117 C118 1.258 . S
C117 C120 1.431 1_455 S
C117 C137 1.449 . S
C118 C117 1.258 . S
C118 C119 1.477 . S
C118 H138 0.931 . S
C119 C115 1.460 . S
C119 C118 1.477 . S
C119 H139 0.930 . S
C120 N116 1.362 . S
C120 C117 1.431 1_655 S
C120 C130 1.476 . S
H121 C115 0.929 . S
C122 O113 1.250 . S
C122 O114 1.262 . S
O123 Mn108 2.162 . S
O123 C111 1.281 . S
O124 Mn108 2.297 . S
O124 C111 1.236 . S
N125 Mn109 2.282 . S
N125 C126 1.328 . S
N125 C130 1.318 . S
C126 N125 1.328 . S
C126 C127 1.457 . S
C126 H131 0.929 . S
C127 C126 1.457 . S
C127 C128 1.291 . S
C127 H140 0.931 . S
C128 C127 1.291 . S
C128 C129 1.373 . S
C128 H141 0.929 . S
C129 C128 1.373 . S
C129 C130 1.396 . S
C129 C136 1.403 . S
C130 C120 1.476 . S
C130 N125 1.318 . S
C130 C129 1.396 . S
H131 C126 0.929 . S
O132 Mn108 2.385 . S
O132 C110 1.234 . S
O133 Mn108 2.209 . S
O133 Mn109 2.215 1_545 S
O133 C110 1.283 . S
O134 Mn108 2.094 . S
O134 C112 1.240 . S
O135 Mn109 2.117 1_545 S
O135 C112 1.264 . S
C136 C129 1.403 . S
C136 C137 1.399 1_655 S
C136 H142 0.929 . S
C137 C117 1.449 . S
C137 C136 1.399 1_455 S
C137 H143 0.930 . S
H138 C118 0.931 . S
H139 C119 0.930 . S
H140 C127 0.931 . S
H141 C128 0.929 . S
H142 C136 0.929 . S
H143 C137 0.930 . S
Mn144 O149 2.095 . S
Mn144 O159 2.162 . S
Mn144 O160 2.297 . S
Mn144 O168 2.385 . S
Mn144 O169 2.209 . S
Mn144 O170 2.094 . S
Mn145 O150 2.120 1_545 S
Mn145 N152 2.257 . S
Mn145 N161 2.282 . S
Mn145 O169 2.215 1_545 S
Mn145 O171 2.117 1_545 S
C146 O168 1.234 . S
C146 O169 1.283 . S
C147 O159 1.281 . S
C147 O160 1.236 . S
C148 O170 1.240 . S
C148 O171 1.264 . S
O149 Mn144 2.095 . S
O149 C158 1.250 . S
O150 Mn145 2.120 1_565 S
O150 C158 1.262 . S
C151 N152 1.326 1_455 S
C151 C155 1.460 . S
C151 H157 0.929 . S
N152 Mn145 2.257 . S
N152 C151 1.326 1_655 S
N152 C156 1.362 . S
C153 C154 1.258 . S
C153 C156 1.431 1_455 S
C153 C173 1.449 . S
C154 C153 1.258 . S
C154 C155 1.477 . S
C154 H174 0.931 . S
C155 C151 1.460 . S
C155 C154 1.477 . S
C155 H175 0.930 . S
C156 N152 1.362 . S
C156 C153 1.431 1_655 S
C156 C166 1.476 . S
H157 C151 0.929 . S
C158 O149 1.250 . S
C158 O150 1.262 . S
O159 Mn144 2.162 . S
O159 C147 1.281 . S
O160 Mn144 2.297 . S
O160 C147 1.236 . S
N161 Mn145 2.282 . S
N161 C162 1.328 . S
N161 C166 1.318 . S
C162 N161 1.328 . S
C162 C163 1.457 . S
C162 H167 0.929 . S
C163 C162 1.457 . S
C163 C164 1.291 . S
C163 H176 0.931 . S
C164 C163 1.291 . S
C164 C165 1.373 . S
C164 H177 0.929 . S
C165 C164 1.373 . S
C165 C166 1.396 . S
C165 C172 1.403 . S
C166 C156 1.476 . S
C166 N161 1.318 . S
C166 C165 1.396 . S
H167 C162 0.929 . S
O168 Mn144 2.385 . S
O168 C146 1.234 . S
O169 Mn144 2.209 . S
O169 Mn145 2.215 1_565 S
O169 C146 1.283 . S
O170 Mn144 2.094 . S
O170 C148 1.240 . S
O171 Mn145 2.117 1_565 S
O171 C148 1.264 . S
C172 C165 1.403 . S
C172 C173 1.399 1_655 S
C172 H178 0.929 . S
C173 C153 1.449 . S
C173 C172 1.399 1_455 S
C173 H179 0.930 . S
H174 C154 0.931 . S
H175 C155 0.930 . S
H176 C163 0.931 . S
H177 C164 0.929 . S
H178 C172 0.929 . S
H179 C173 0.930 . S
Mn180 O185 2.095 . S
Mn180 O195 2.162 . S
Mn180 O196 2.297 . S
Mn180 O204 2.385 . S
Mn180 O205 2.209 . S
Mn180 O206 2.094 . S
Mn181 O186 2.120 1_565 S
Mn181 N188 2.257 . S
Mn181 N197 2.282 . S
Mn181 O205 2.215 1_565 S
Mn181 O207 2.117 1_565 S
C182 O204 1.234 . S
C182 O205 1.283 . S
C183 O195 1.281 . S
C183 O196 1.236 . S
C184 O206 1.240 . S
C184 O207 1.264 . S
O185 Mn180 2.095 . S
O185 C194 1.250 . S
O186 Mn181 2.120 1_545 S
O186 C194 1.262 . S
C187 N188 1.326 . S
C187 C191 1.460 . S
C187 H193 0.929 . S
N188 Mn181 2.257 . S
N188 C187 1.326 . S
N188 C192 1.362 . S
C189 C190 1.258 . S
C189 C192 1.431 . S
C189 C209 1.449 . S
C190 C189 1.258 . S
C190 C191 1.477 . S
C190 H210 0.931 . S
C191 C187 1.460 . S
C191 C190 1.477 . S
C191 H211 0.930 . S
C192 N188 1.362 . S
C192 C189 1.431 . S
C192 C202 1.476 . S
H193 C187 0.929 . S
C194 O185 1.250 . S
C194 O186 1.262 . S
O195 Mn180 2.162 . S
O195 C183 1.281 . S
O196 Mn180 2.297 . S
O196 C183 1.236 . S
N197 Mn181 2.282 . S
N197 C198 1.328 . S
N197 C202 1.318 . S
C198 N197 1.328 . S
C198 C199 1.457 . S
C198 H203 0.929 . S
C199 C198 1.457 . S
C199 C200 1.291 . S
C199 H212 0.931 . S
C200 C199 1.291 . S
C200 C201 1.373 . S
C200 H213 0.929 . S
C201 C200 1.373 . S
C201 C202 1.396 . S
C201 C208 1.403 . S
C202 C192 1.476 . S
C202 N197 1.318 . S
C202 C201 1.396 . S
H203 C198 0.929 . S
O204 Mn180 2.385 . S
O204 C182 1.234 . S
O205 Mn180 2.209 . S
O205 Mn181 2.215 1_545 S
O205 C182 1.283 . S
O206 Mn180 2.094 . S
O206 C184 1.240 . S
O207 Mn181 2.117 1_545 S
O207 C184 1.264 . S
C208 C201 1.403 . S
C208 C209 1.399 . S
C208 H214 0.929 . S
C209 C189 1.449 . S
C209 C208 1.399 . S
C209 H215 0.930 . S
H210 C190 0.931 . S
H211 C191 0.930 . S
H212 C199 0.931 . S
H213 C200 0.929 . S
H214 C208 0.929 . S
H215 C209 0.930 . S
Mn216 O221 2.095 . S
Mn216 O231 2.162 . S
Mn216 O232 2.297 . S
Mn216 O240 2.385 . S
Mn216 O241 2.209 . S
Mn216 O242 2.094 . S
Mn217 O222 2.120 1_565 S
Mn217 N224 2.257 . S
Mn217 N233 2.282 . S
Mn217 O241 2.215 1_565 S
Mn217 O243 2.117 1_565 S
C218 O240 1.234 . S
C218 O241 1.283 . S
C219 O231 1.281 . S
C219 O232 1.236 . S
C220 O242 1.240 . S
C220 O243 1.264 . S
O221 Mn216 2.095 . S
O221 C230 1.250 . S
O222 Mn217 2.120 1_545 S
O222 C230 1.262 . S
C223 N224 1.326 . S
C223 C227 1.460 . S
C223 H229 0.929 . S
N224 Mn217 2.257 . S
N224 C223 1.326 . S
N224 C228 1.362 . S
C225 C226 1.258 . S
C225 C228 1.431 . S
C225 C245 1.449 . S
C226 C225 1.258 . S
C226 C227 1.477 . S
C226 H246 0.931 . S
C227 C223 1.460 . S
C227 C226 1.477 . S
C227 H247 0.930 . S
C228 N224 1.362 . S
C228 C225 1.431 . S
C228 C238 1.476 . S
H229 C223 0.929 . S
C230 O221 1.250 . S
C230 O222 1.262 . S
O231 Mn216 2.162 . S
O231 C219 1.281 . S
O232 Mn216 2.297 . S
O232 C219 1.236 . S
N233 Mn217 2.282 . S
N233 C234 1.328 . S
N233 C238 1.318 . S
C234 N233 1.328 . S
C234 C235 1.457 . S
C234 H239 0.929 . S
C235 C234 1.457 . S
C235 C236 1.291 . S
C235 H248 0.931 . S
C236 C235 1.291 . S
C236 C237 1.373 . S
C236 H249 0.929 . S
C237 C236 1.373 . S
C237 C238 1.396 . S
C237 C244 1.403 . S
C238 C228 1.476 . S
C238 N233 1.318 . S
C238 C237 1.396 . S
H239 C234 0.929 . S
O240 Mn216 2.385 . S
O240 C218 1.234 . S
O241 Mn216 2.209 . S
O241 Mn217 2.215 1_545 S
O241 C218 1.283 . S
O242 Mn216 2.094 . S
O242 C220 1.240 . S
O243 Mn217 2.117 1_545 S
O243 C220 1.264 . S
C244 C237 1.403 . S
C244 C245 1.399 . S
C244 H250 0.929 . S
C245 C225 1.449 . S
C245 C244 1.399 . S
C245 H251 0.930 . S
H246 C226 0.931 . S
H247 C227 0.930 . S
H248 C235 0.931 . S
H249 C236 0.929 . S
H250 C244 0.929 . S
H251 C245 0.930 . S
Mn252 O257 2.095 . S
Mn252 O267 2.162 . S
Mn252 O268 2.297 . S
Mn252 O276 2.385 . S
Mn252 O277 2.209 . S
Mn252 O278 2.094 . S
Mn253 O258 2.120 1_545 S
Mn253 N260 2.257 . S
Mn253 N269 2.282 . S
Mn253 O277 2.215 1_545 S
Mn253 O279 2.117 1_545 S
C254 O276 1.234 . S
C254 O277 1.283 . S
C255 O267 1.281 . S
C255 O268 1.236 . S
C256 O278 1.240 . S
C256 O279 1.264 . S
O257 Mn252 2.095 . S
O257 C266 1.250 . S
O258 Mn253 2.120 1_565 S
O258 C266 1.262 . S
C259 N260 1.326 1_655 S
C259 C263 1.460 . S
C259 H265 0.929 . S
N260 Mn253 2.257 . S
N260 C259 1.326 1_455 S
N260 C264 1.362 . S
C261 C262 1.258 . S
C261 C264 1.431 1_655 S
C261 C281 1.449 . S
C262 C261 1.258 . S
C262 C263 1.477 . S
C262 H282 0.931 . S
C263 C259 1.460 . S
C263 C262 1.477 . S
C263 H283 0.930 . S
C264 N260 1.362 . S
C264 C261 1.431 1_455 S
C264 C274 1.476 . S
H265 C259 0.929 . S
C266 O257 1.250 . S
C266 O258 1.262 . S
O267 Mn252 2.162 . S
O267 C255 1.281 . S
O268 Mn252 2.297 . S
O268 C255 1.236 . S
N269 Mn253 2.282 . S
N269 C270 1.328 . S
N269 C274 1.318 . S
C270 N269 1.328 . S
C270 C271 1.457 . S
C270 H275 0.929 . S
C271 C270 1.457 . S
C271 C272 1.291 . S
C271 H284 0.931 . S
C272 C271 1.291 . S
C272 C273 1.373 . S
C272 H285 0.929 . S
C273 C272 1.373 . S
C273 C274 1.396 . S
C273 C280 1.403 . S
C274 C264 1.476 . S
C274 N269 1.318 . S
C274 C273 1.396 . S
H275 C270 0.929 . S
O276 Mn252 2.385 . S
O276 C254 1.234 . S
O277 Mn252 2.209 . S
O277 Mn253 2.215 1_565 S
O277 C254 1.283 . S
O278 Mn252 2.094 . S
O278 C256 1.240 . S
O279 Mn253 2.117 1_565 S
O279 C256 1.264 . S
C280 C273 1.403 . S
C280 C281 1.399 1_455 S
C280 H286 0.929 . S
C281 C261 1.449 . S
C281 C280 1.399 1_655 S
C281 H287 0.930 . S
H282 C262 0.931 . S
H283 C263 0.930 . S
H284 C271 0.931 . S
H285 C272 0.929 . S
H286 C280 0.929 . S
H287 C281 0.930 . S
Mn288 O293 2.095 . S
Mn288 O303 2.162 . S
Mn288 O304 2.297 . S
Mn288 O312 2.385 . S
Mn288 O313 2.209 . S
Mn288 O314 2.094 . S
Mn289 O294 2.121 . S
Mn289 N296 2.257 . S
Mn289 N305 2.282 . S
Mn289 O313 2.215 . S
Mn289 O315 2.117 . S
C290 O312 1.234 . S
C290 O313 1.283 . S
C291 O303 1.281 . S
C291 O304 1.236 . S
C292 O314 1.240 . S
C292 O315 1.264 . S
O293 Mn288 2.095 . S
O293 C302 1.250 . S
O294 Mn289 2.121 . S
O294 C302 1.258 . S
C295 N296 1.326 . S
C295 C299 1.460 . S
C295 H301 0.929 . S
N296 Mn289 2.257 . S
N296 C295 1.326 . S
N296 C300 1.362 . S
C297 C298 1.258 . S
C297 C300 1.431 . S
C297 C317 1.449 . S
C298 C297 1.258 . S
C298 C299 1.477 . S
C298 H318 0.931 . S
C299 C295 1.460 . S
C299 C298 1.477 . S
C299 H319 0.930 . S
C300 N296 1.362 . S
C300 C297 1.431 . S
C300 C310 1.476 . S
H301 C295 0.929 . S
C302 O293 1.250 . S
C302 O294 1.258 . S
O303 Mn288 2.162 . S
O303 C291 1.281 . S
O304 Mn288 2.297 . S
O304 C291 1.236 . S
N305 Mn289 2.282 . S
N305 C306 1.328 . S
N305 C310 1.318 . S
C306 N305 1.328 . S
C306 C307 1.457 . S
C306 H311 0.929 . S
C307 C306 1.457 . S
C307 C308 1.291 . S
C307 H320 0.931 . S
C308 C307 1.291 . S
C308 C309 1.373 . S
C308 H321 0.929 . S
C309 C308 1.373 . S
C309 C310 1.396 . S
C309 C316 1.403 . S
C310 C300 1.476 . S
C310 N305 1.318 . S
C310 C309 1.396 . S
H311 C306 0.929 . S
O312 Mn288 2.385 . S
O312 C290 1.234 . S
O313 Mn288 2.209 . S
O313 Mn289 2.215 . S
O313 C290 1.283 . S
O314 Mn288 2.094 . S
O314 C292 1.240 . S
O315 Mn289 2.117 . S
O315 C292 1.264 . S
C316 C309 1.403 . S
C316 C317 1.399 . S
C316 H322 0.929 . S
C317 C297 1.449 . S
C317 C316 1.399 . S
C317 H323 0.930 . S
H318 C298 0.931 . S
H319 C299 0.930 . S
H320 C307 0.931 . S
H321 C308 0.929 . S
H322 C316 0.929 . S
H323 C317 0.930 . S
Mn324 O329 2.095 . S
Mn324 O339 2.162 . S
Mn324 O340 2.297 . S
Mn324 O348 2.385 . S
Mn324 O349 2.209 . S
Mn324 O350 2.094 . S
Mn325 O330 2.121 . S
Mn325 N332 2.257 . S
Mn325 N341 2.282 . S
Mn325 O349 2.215 . S
Mn325 O351 2.117 . S
C326 O348 1.234 . S
C326 O349 1.283 . S
C327 O339 1.281 . S
C327 O340 1.236 . S
C328 O350 1.240 . S
C328 O351 1.264 . S
O329 Mn324 2.095 . S
O329 C338 1.250 . S
O330 Mn325 2.121 . S
O330 C338 1.258 . S
C331 N332 1.326 1_455 S
C331 C335 1.460 . S
C331 H337 0.929 . S
N332 Mn325 2.257 . S
N332 C331 1.326 1_655 S
N332 C336 1.362 . S
C333 C334 1.258 . S
C333 C336 1.431 1_455 S
C333 C353 1.449 . S
C334 C333 1.258 . S
C334 C335 1.477 . S
C334 H354 0.931 . S
C335 C331 1.460 . S
C335 C334 1.477 . S
C335 H355 0.930 . S
C336 N332 1.362 . S
C336 C333 1.431 1_655 S
C336 C346 1.476 . S
H337 C331 0.929 . S
C338 O329 1.250 . S
C338 O330 1.258 . S
O339 Mn324 2.162 . S
O339 C327 1.281 . S
O340 Mn324 2.297 . S
O340 C327 1.236 . S
N341 Mn325 2.282 . S
N341 C342 1.328 . S
N341 C346 1.318 . S
C342 N341 1.328 . S
C342 C343 1.457 . S
C342 H347 0.929 . S
C343 C342 1.457 . S
C343 C344 1.291 . S
C343 H356 0.931 . S
C344 C343 1.291 . S
C344 C345 1.373 . S
C344 H357 0.929 . S
C345 C344 1.373 . S
C345 C346 1.396 . S
C345 C352 1.403 . S
C346 C336 1.476 . S
C346 N341 1.318 . S
C346 C345 1.396 . S
H347 C342 0.929 . S
O348 Mn324 2.385 . S
O348 C326 1.234 . S
O349 Mn324 2.209 . S
O349 Mn325 2.215 . S
O349 C326 1.283 . S
O350 Mn324 2.094 . S
O350 C328 1.240 . S
O351 Mn325 2.117 . S
O351 C328 1.264 . S
C352 C345 1.403 . S
C352 C353 1.399 1_655 S
C352 H358 0.929 . S
C353 C333 1.449 . S
C353 C352 1.399 1_455 S
C353 H359 0.930 . S
H354 C334 0.931 . S
H355 C335 0.930 . S
H356 C343 0.931 . S
H357 C344 0.929 . S
H358 C352 0.929 . S
H359 C353 0.930 . S
Mn360 O365 2.095 . S
Mn360 O375 2.162 . S
Mn360 O376 2.297 . S
Mn360 O384 2.385 . S
Mn360 O385 2.209 . S
Mn360 O386 2.094 . S
Mn361 O366 2.121 . S
Mn361 N368 2.257 . S
Mn361 N377 2.282 . S
Mn361 O385 2.215 . S
Mn361 O387 2.117 . S
C362 O384 1.234 . S
C362 O385 1.283 . S
C363 O375 1.281 . S
C363 O376 1.236 . S
C364 O386 1.240 . S
C364 O387 1.264 . S
O365 Mn360 2.095 . S
O365 C374 1.250 . S
O366 Mn361 2.121 . S
O366 C374 1.258 . S
C367 N368 1.326 1_655 S
C367 C371 1.460 . S
C367 H373 0.929 . S
N368 Mn361 2.257 . S
N368 C367 1.326 1_455 S
N368 C372 1.362 . S
C369 C370 1.258 . S
C369 C372 1.431 1_655 S
C369 C389 1.449 . S
C370 C369 1.258 . S
C370 C371 1.477 . S
C370 H390 0.931 . S
C371 C367 1.460 . S
C371 C370 1.477 . S
C371 H391 0.930 . S
C372 N368 1.362 . S
C372 C369 1.431 1_455 S
C372 C382 1.476 . S
H373 C367 0.929 . S
C374 O365 1.250 . S
C374 O366 1.258 . S
O375 Mn360 2.162 . S
O375 C363 1.281 . S
O376 Mn360 2.297 . S
O376 C363 1.236 . S
N377 Mn361 2.282 . S
N377 C378 1.328 . S
N377 C382 1.318 . S
C378 N377 1.328 . S
C378 C379 1.457 . S
C378 H383 0.929 . S
C379 C378 1.457 . S
C379 C380 1.291 . S
C379 H392 0.931 . S
C380 C379 1.291 . S
C380 C381 1.373 . S
C380 H393 0.929 . S
C381 C380 1.373 . S
C381 C382 1.396 . S
C381 C388 1.403 . S
C382 C372 1.476 . S
C382 N377 1.318 . S
C382 C381 1.396 . S
H383 C378 0.929 . S
O384 Mn360 2.385 . S
O384 C362 1.234 . S
O385 Mn360 2.209 . S
O385 Mn361 2.215 . S
O385 C362 1.283 . S
O386 Mn360 2.094 . S
O386 C364 1.240 . S
O387 Mn361 2.117 . S
O387 C364 1.264 . S
C388 C381 1.403 . S
C388 C389 1.399 1_455 S
C388 H394 0.929 . S
C389 C369 1.449 . S
C389 C388 1.399 1_655 S
C389 H395 0.930 . S
H390 C370 0.931 . S
H391 C371 0.930 . S
H392 C379 0.931 . S
H393 C380 0.929 . S
H394 C388 0.929 . S
H395 C389 0.930 . S
Mn396 O401 2.095 . S
Mn396 O411 2.162 . S
Mn396 O412 2.297 . S
Mn396 O420 2.385 . S
Mn396 O421 2.209 . S
Mn396 O422 2.094 . S
Mn397 O402 2.121 . S
Mn397 N404 2.257 . S
Mn397 N413 2.282 . S
Mn397 O421 2.215 . S
Mn397 O423 2.117 . S
C398 O420 1.234 . S
C398 O421 1.283 . S
C399 O411 1.281 . S
C399 O412 1.236 . S
C400 O422 1.240 . S
C400 O423 1.264 . S
O401 Mn396 2.095 . S
O401 C410 1.250 . S
O402 Mn397 2.121 . S
O402 C410 1.258 . S
C403 N404 1.326 . S
C403 C407 1.460 . S
C403 H409 0.929 . S
N404 Mn397 2.257 . S
N404 C403 1.326 . S
N404 C408 1.362 . S
C405 C406 1.258 . S
C405 C408 1.431 . S
C405 C425 1.449 . S
C406 C405 1.258 . S
C406 C407 1.477 . S
C406 H426 0.931 . S
C407 C403 1.460 . S
C407 C406 1.477 . S
C407 H427 0.930 . S
C408 N404 1.362 . S
C408 C405 1.431 . S
C408 C418 1.476 . S
H409 C403 0.929 . S
C410 O401 1.250 . S
C410 O402 1.258 . S
O411 Mn396 2.162 . S
O411 C399 1.281 . S
O412 Mn396 2.297 . S
O412 C399 1.236 . S
N413 Mn397 2.282 . S
N413 C414 1.328 . S
N413 C418 1.318 . S
C414 N413 1.328 . S
C414 C415 1.457 . S
C414 H419 0.929 . S
C415 C414 1.457 . S
C415 C416 1.291 . S
C415 H428 0.931 . S
C416 C415 1.291 . S
C416 C417 1.373 . S
C416 H429 0.929 . S
C417 C416 1.373 . S
C417 C418 1.396 . S
C417 C424 1.403 . S
C418 C408 1.476 . S
C418 N413 1.318 . S
C418 C417 1.396 . S
H419 C414 0.929 . S
O420 Mn396 2.385 . S
O420 C398 1.234 . S
O421 Mn396 2.209 . S
O421 Mn397 2.215 . S
O421 C398 1.283 . S
O422 Mn396 2.094 . S
O422 C400 1.240 . S
O423 Mn397 2.117 . S
O423 C400 1.264 . S
C424 C417 1.403 . S
C424 C425 1.399 . S
C424 H430 0.929 . S
C425 C405 1.449 . S
C425 C424 1.399 . S
C425 H431 0.930 . S
H426 C406 0.931 . S
H427 C407 0.930 . S
H428 C415 0.931 . S
H429 C416 0.929 . S
H430 C424 0.929 . S
H431 C425 0.930 . S
Mn432 O437 2.095 . S
Mn432 O447 2.162 . S
Mn432 O448 2.297 . S
Mn432 O456 2.385 . S
Mn432 O457 2.209 . S
Mn432 O458 2.094 . S
Mn433 O438 2.121 . S
Mn433 N440 2.257 . S
Mn433 N449 2.282 . S
Mn433 O457 2.215 . S
Mn433 O459 2.117 . S
C434 O456 1.234 . S
C434 O457 1.283 . S
C435 O447 1.281 . S
C435 O448 1.236 . S
C436 O458 1.240 . S
C436 O459 1.264 . S
O437 Mn432 2.095 . S
O437 C446 1.250 . S
O438 Mn433 2.121 . S
O438 C446 1.258 . S
C439 N440 1.326 . S
C439 C443 1.460 . S
C439 H445 0.929 . S
N440 Mn433 2.257 . S
N440 C439 1.326 . S
N440 C444 1.362 . S
C441 C442 1.258 . S
C441 C444 1.431 . S
C441 C461 1.449 . S
C442 C441 1.258 . S
C442 C443 1.477 . S
C442 H462 0.931 . S
C443 C439 1.460 . S
C443 C442 1.477 . S
C443 H463 0.930 . S
C444 N440 1.362 . S
C444 C441 1.431 . S
C444 C454 1.476 . S
H445 C439 0.929 . S
C446 O437 1.250 . S
C446 O438 1.258 . S
O447 Mn432 2.162 . S
O447 C435 1.281 . S
O448 Mn432 2.297 . S
O448 C435 1.236 . S
N449 Mn433 2.282 . S
N449 C450 1.328 . S
N449 C454 1.318 . S
C450 N449 1.328 . S
C450 C451 1.457 . S
C450 H455 0.929 . S
C451 C450 1.457 . S
C451 C452 1.291 . S
C451 H464 0.931 . S
C452 C451 1.291 . S
C452 C453 1.373 . S
C452 H465 0.929 . S
C453 C452 1.373 . S
C453 C454 1.396 . S
C453 C460 1.403 . S
C454 C444 1.476 . S
C454 N449 1.318 . S
C454 C453 1.396 . S
H455 C450 0.929 . S
O456 Mn432 2.385 . S
O456 C434 1.234 . S
O457 Mn432 2.209 . S
O457 Mn433 2.215 . S
O457 C434 1.283 . S
O458 Mn432 2.094 . S
O458 C436 1.240 . S
O459 Mn433 2.117 . S
O459 C436 1.264 . S
C460 C453 1.403 . S
C460 C461 1.399 . S
C460 H466 0.929 . S
C461 C441 1.449 . S
C461 C460 1.399 . S
C461 H467 0.930 . S
H462 C442 0.931 . S
H463 C443 0.930 . S
H464 C451 0.931 . S
H465 C452 0.929 . S
H466 C460 0.929 . S
H467 C461 0.930 . S
Mn468 O473 2.095 . S
Mn468 O483 2.162 . S
Mn468 O484 2.297 . S
Mn468 O492 2.385 . S
Mn468 O493 2.209 . S
Mn468 O494 2.094 . S
Mn469 O474 2.121 . S
Mn469 N476 2.257 . S
Mn469 N485 2.282 . S
Mn469 O493 2.215 . S
Mn469 O495 2.117 . S
C470 O492 1.234 . S
C470 O493 1.283 . S
C471 O483 1.281 . S
C471 O484 1.236 . S
C472 O494 1.240 . S
C472 O495 1.264 . S
O473 Mn468 2.095 . S
O473 C482 1.250 . S
O474 Mn469 2.121 . S
O474 C482 1.258 . S
C475 N476 1.326 1_655 S
C475 C479 1.460 . S
C475 H481 0.929 . S
N476 Mn469 2.257 . S
N476 C475 1.326 1_455 S
N476 C480 1.362 . S
C477 C478 1.258 . S
C477 C480 1.431 1_655 S
C477 C497 1.449 . S
C478 C477 1.258 . S
C478 C479 1.477 . S
C478 H498 0.931 . S
C479 C475 1.460 . S
C479 C478 1.477 . S
C479 H499 0.930 . S
C480 N476 1.362 . S
C480 C477 1.431 1_455 S
C480 C490 1.476 . S
H481 C475 0.929 . S
C482 O473 1.250 . S
C482 O474 1.258 . S
O483 Mn468 2.162 . S
O483 C471 1.281 . S
O484 Mn468 2.297 . S
O484 C471 1.236 . S
N485 Mn469 2.282 . S
N485 C486 1.328 . S
N485 C490 1.318 . S
C486 N485 1.328 . S
C486 C487 1.457 . S
C486 H491 0.929 . S
C487 C486 1.457 . S
C487 C488 1.291 . S
C487 H500 0.931 . S
C488 C487 1.291 . S
C488 C489 1.373 . S
C488 H501 0.929 . S
C489 C488 1.373 . S
C489 C490 1.396 . S
C489 C496 1.403 . S
C490 C480 1.476 . S
C490 N485 1.318 . S
C490 C489 1.396 . S
H491 C486 0.929 . S
O492 Mn468 2.385 . S
O492 C470 1.234 . S
O493 Mn468 2.209 . S
O493 Mn469 2.215 . S
O493 C470 1.283 . S
O494 Mn468 2.094 . S
O494 C472 1.240 . S
O495 Mn469 2.117 . S
O495 C472 1.264 . S
C496 C489 1.403 . S
C496 C497 1.399 1_455 S
C496 H502 0.929 . S
C497 C477 1.449 . S
C497 C496 1.399 1_655 S
C497 H503 0.930 . S
H498 C478 0.931 . S
H499 C479 0.930 . S
H500 C487 0.931 . S
H501 C488 0.929 . S
H502 C496 0.929 . S
H503 C497 0.930 . S
Mn504 O509 2.095 . S
Mn504 O519 2.162 . S
Mn504 O520 2.297 . S
Mn504 O528 2.385 . S
Mn504 O529 2.209 . S
Mn504 O530 2.094 . S
Mn505 O510 2.121 . S
Mn505 N512 2.257 . S
Mn505 N521 2.282 . S
Mn505 O529 2.215 . S
Mn505 O531 2.117 . S
C506 O528 1.234 . S
C506 O529 1.283 . S
C507 O519 1.281 . S
C507 O520 1.236 . S
C508 O530 1.240 . S
C508 O531 1.264 . S
O509 Mn504 2.095 . S
O509 C518 1.250 . S
O510 Mn505 2.121 . S
O510 C518 1.258 . S
C511 N512 1.326 1_455 S
C511 C515 1.460 . S
C511 H517 0.929 . S
N512 Mn505 2.257 . S
N512 C511 1.326 1_655 S
N512 C516 1.362 . S
C513 C514 1.258 . S
C513 C516 1.431 1_455 S
C513 C533 1.449 . S
C514 C513 1.258 . S
C514 C515 1.477 . S
C514 H534 0.931 . S
C515 C511 1.460 . S
C515 C514 1.477 . S
C515 H535 0.930 . S
C516 N512 1.362 . S
C516 C513 1.431 1_655 S
C516 C526 1.476 . S
H517 C511 0.929 . S
C518 O509 1.250 . S
C518 O510 1.258 . S
O519 Mn504 2.162 . S
O519 C507 1.281 . S
O520 Mn504 2.297 . S
O520 C507 1.236 . S
N521 Mn505 2.282 . S
N521 C522 1.328 . S
N521 C526 1.318 . S
C522 N521 1.328 . S
C522 C523 1.457 . S
C522 H527 0.929 . S
C523 C522 1.457 . S
C523 C524 1.291 . S
C523 H536 0.931 . S
C524 C523 1.291 . S
C524 C525 1.373 . S
C524 H537 0.929 . S
C525 C524 1.373 . S
C525 C526 1.396 . S
C525 C532 1.403 . S
C526 C516 1.476 . S
C526 N521 1.318 . S
C526 C525 1.396 . S
H527 C522 0.929 . S
O528 Mn504 2.385 . S
O528 C506 1.234 . S
O529 Mn504 2.209 . S
O529 Mn505 2.215 . S
O529 C506 1.283 . S
O530 Mn504 2.094 . S
O530 C508 1.240 . S
O531 Mn505 2.117 . S
O531 C508 1.264 . S
C532 C525 1.403 . S
C532 C533 1.399 1_655 S
C532 H538 0.929 . S
C533 C513 1.449 . S
C533 C532 1.399 1_455 S
C533 H539 0.930 . S
H534 C514 0.931 . S
H535 C515 0.930 . S
H536 C523 0.931 . S
H537 C524 0.929 . S
H538 C532 0.929 . S
H539 C533 0.930 . S
Mn540 O545 2.095 . S
Mn540 O555 2.162 . S
Mn540 O556 2.297 . S
Mn540 O564 2.385 . S
Mn540 O565 2.209 . S
Mn540 O566 2.094 . S
Mn541 O546 2.121 . S
Mn541 N548 2.257 . S
Mn541 N557 2.282 . S
Mn541 O565 2.215 . S
Mn541 O567 2.117 . S
C542 O564 1.234 . S
C542 O565 1.283 . S
C543 O555 1.281 . S
C543 O556 1.236 . S
C544 O566 1.240 . S
C544 O567 1.264 . S
O545 Mn540 2.095 . S
O545 C554 1.250 . S
O546 Mn541 2.121 . S
O546 C554 1.258 . S
C547 N548 1.326 . S
C547 C551 1.460 . S
C547 H553 0.929 . S
N548 Mn541 2.257 . S
N548 C547 1.326 . S
N548 C552 1.362 . S
C549 C550 1.258 . S
C549 C552 1.431 . S
C549 C569 1.449 . S
C550 C549 1.258 . S
C550 C551 1.477 . S
C550 H570 0.931 . S
C551 C547 1.460 . S
C551 C550 1.477 . S
C551 H571 0.930 . S
C552 N548 1.362 . S
C552 C549 1.431 . S
C552 C562 1.476 . S
H553 C547 0.929 . S
C554 O545 1.250 . S
C554 O546 1.258 . S
O555 Mn540 2.162 . S
O555 C543 1.281 . S
O556 Mn540 2.297 . S
O556 C543 1.236 . S
N557 Mn541 2.282 . S
N557 C558 1.328 . S
N557 C562 1.318 . S
C558 N557 1.328 . S
C558 C559 1.457 . S
C558 H563 0.929 . S
C559 C558 1.457 . S
C559 C560 1.291 . S
C559 H572 0.931 . S
C560 C559 1.291 . S
C560 C561 1.373 . S
C560 H573 0.929 . S
C561 C560 1.373 . S
C561 C562 1.396 . S
C561 C568 1.403 . S
C562 C552 1.476 . S
C562 N557 1.318 . S
C562 C561 1.396 . S
H563 C558 0.929 . S
O564 Mn540 2.385 . S
O564 C542 1.234 . S
O565 Mn540 2.209 . S
O565 Mn541 2.215 . S
O565 C542 1.283 . S
O566 Mn540 2.094 . S
O566 C544 1.240 . S
O567 Mn541 2.117 . S
O567 C544 1.264 . S
C568 C561 1.403 . S
C568 C569 1.399 . S
C568 H574 0.929 . S
C569 C549 1.449 . S
C569 C568 1.399 . S
C569 H575 0.930 . S
H570 C550 0.931 . S
H571 C551 0.930 . S
H572 C559 0.931 . S
H573 C560 0.929 . S
H574 C568 0.929 . S
H575 C569 0.930 . S
H576 C582 0.930 . S
H577 C585 0.930 . S
H578 C586 0.930 . S
H579 C587 0.930 . S
H580 C590 0.930 . S
H581 C591 0.930 . S
C582 H576 0.930 . S
C582 C583 1.355 . S
C582 C584 1.415 . S
C583 C582 1.355 . S
C583 C585 1.419 1_565 S
C584 C582 1.415 . S
C584 C589 1.425 1_565 S
C584 C591 1.409 . S
C585 H577 0.930 . S
C585 C583 1.419 1_545 S
C585 C586 1.362 . S
C586 H578 0.930 . S
C586 C585 1.362 . S
C586 C589 1.409 . S
C587 H579 0.930 . S
C587 C588 1.355 . S
C587 C589 1.415 . S
C588 C587 1.355 . S
C588 C590 1.419 1_545 S
C589 C584 1.425 1_545 S
C589 C586 1.409 . S
C589 C587 1.415 . S
C590 H580 0.930 . S
C590 C588 1.419 1_565 S
C590 C591 1.362 . S
C591 H581 0.930 . S
C591 C584 1.409 . S
C591 C590 1.362 . S
H592 C598 0.930 . S
H593 C601 0.930 . S
H594 C602 0.930 . S
H595 C603 0.930 . S
H596 C606 0.930 . S
H597 C607 0.930 . S
C598 H592 0.930 . S
C598 C599 1.355 1_545 S
C598 C600 1.415 . S
C599 C598 1.355 1_565 S
C599 C601 1.419 . S
C600 C598 1.415 . S
C600 C605 1.425 1_545 S
C600 C607 1.409 . S
C601 H593 0.930 . S
C601 C599 1.419 . S
C601 C602 1.362 . S
C602 H594 0.930 . S
C602 C601 1.362 . S
C602 C605 1.409 . S
C603 H595 0.930 . S
C603 C604 1.355 1_565 S
C603 C605 1.415 . S
C604 C603 1.355 1_545 S
C604 C606 1.419 . S
C605 C600 1.425 1_565 S
C605 C602 1.409 . S
C605 C603 1.415 . S
C606 H596 0.930 . S
C606 C604 1.419 . S
C606 C607 1.362 . S
C607 H597 0.930 . S
C607 C600 1.409 . S
C607 C606 1.362 . S
H608 C614 0.922 1_545 S
H609 C617 0.930 . S
H610 C618 0.930 . S
H611 C619 0.922 1_565 S
H612 C622 0.930 . S
H613 C623 0.930 . S
C614 H608 0.922 1_565 S
C614 C615 1.366 . S
C614 C616 1.411 1_565 S
C615 C614 1.366 . S
C615 C617 1.419 . S
C616 C614 1.411 1_545 S
C616 C621 1.425 1_545 S
C616 C623 1.409 . S
C617 H609 0.930 . S
C617 C615 1.419 . S
C617 C618 1.362 . S
C618 H610 0.930 . S
C618 C617 1.362 . S
C618 C621 1.409 . S
C619 H611 0.922 1_545 S
C619 C620 1.367 . S
C619 C621 1.411 1_545 S
C620 C619 1.367 . S
C620 C622 1.419 . S
C621 C616 1.425 1_565 S
C621 C618 1.409 . S
C621 C619 1.411 1_565 S
C622 H612 0.930 . S
C622 C620 1.419 . S
C622 C623 1.362 . S
C623 H613 0.930 . S
C623 C616 1.409 . S
C623 C622 1.362 . S
H624 C630 0.930 . S
H625 C633 0.930 . S
H626 C634 0.930 . S
H627 C635 0.930 . S
H628 C638 0.930 . S
H629 C639 0.930 . S
C630 H624 0.930 . S
C630 C631 1.355 1_545 S
C630 C632 1.415 . S
C631 C630 1.355 1_565 S
C631 C633 1.419 . S
C632 C630 1.415 . S
C632 C637 1.425 1_545 S
C632 C639 1.409 . S
C633 H625 0.930 . S
C633 C631 1.419 . S
C633 C634 1.362 . S
C634 H626 0.930 . S
C634 C633 1.362 . S
C634 C637 1.409 . S
C635 H627 0.930 . S
C635 C636 1.355 1_565 S
C635 C637 1.415 . S
C636 C635 1.355 1_545 S
C636 C638 1.419 . S
C637 C632 1.425 1_565 S
C637 C634 1.409 . S
C637 C635 1.415 . S
C638 H628 0.930 . S
C638 C636 1.419 . S
C638 C639 1.362 . S
C639 H629 0.930 . S
C639 C632 1.409 . S
C639 C638 1.362 . S
H640 C646 0.930 . S
H641 C649 0.930 . S
H642 C650 0.930 . S
H643 C651 0.930 . S
H644 C654 0.930 . S
H645 C655 0.930 . S
C646 H640 0.930 . S
C646 C647 1.355 . S
C646 C648 1.415 . S
C647 C646 1.355 . S
C647 C649 1.419 . S
C648 C646 1.415 . S
C648 C653 1.425 . S
C648 C655 1.409 . S
C649 H641 0.930 . S
C649 C647 1.419 . S
C649 C650 1.362 . S
C650 H642 0.930 . S
C650 C649 1.362 . S
C650 C653 1.409 . S
C651 H643 0.930 . S
C651 C652 1.355 . S
C651 C653 1.415 . S
C652 C651 1.355 . S
C652 C654 1.419 . S
C653 C648 1.425 . S
C653 C650 1.409 . S
C653 C651 1.415 . S
C654 H644 0.930 . S
C654 C652 1.419 . S
C654 C655 1.362 . S
C655 H645 0.930 . S
C655 C648 1.409 . S
C655 C654 1.362 . S
H656 C662 0.930 . S
H657 C665 0.930 . S
H658 C666 0.930 . S
H659 C667 0.930 . S
H660 C670 0.930 . S
H661 C671 0.930 . S
C662 H656 0.930 . S
C662 C663 1.355 . S
C662 C664 1.415 . S
C663 C662 1.355 . S
C663 C665 1.419 . S
C664 C662 1.415 . S
C664 C669 1.425 . S
C664 C671 1.409 . S
C665 H657 0.930 . S
C665 C663 1.419 . S
C665 C666 1.362 . S
C666 H658 0.930 . S
C666 C665 1.362 . S
C666 C669 1.409 . S
C667 H659 0.930 . S
C667 C668 1.355 . S
C667 C669 1.415 . S
C668 C667 1.355 . S
C668 C670 1.419 . S
C669 C664 1.425 . S
C669 C666 1.409 . S
C669 C667 1.415 . S
C670 H660 0.930 . S
C670 C668 1.419 . S
C670 C671 1.362 . S
C671 H661 0.930 . S
C671 C664 1.409 . S
C671 C670 1.362 . S
H672 C678 0.930 . S
H673 C681 0.930 . S
H674 C682 0.930 . S
H675 C683 0.930 . S
H676 C686 0.930 . S
H677 C687 0.930 . S
C678 H672 0.930 . S
C678 C679 1.355 . S
C678 C680 1.415 . S
C679 C678 1.355 . S
C679 C681 1.419 . S
C680 C678 1.415 . S
C680 C685 1.425 . S
C680 C687 1.409 . S
C681 H673 0.930 . S
C681 C679 1.419 . S
C681 C682 1.362 . S
C682 H674 0.930 . S
C682 C681 1.362 . S
C682 C685 1.409 . S
C683 H675 0.930 . S
C683 C684 1.355 . S
C683 C685 1.415 . S
C684 C683 1.355 . S
C684 C686 1.419 . S
C685 C680 1.425 . S
C685 C682 1.409 . S
C685 C683 1.415 . S
C686 H676 0.930 . S
C686 C684 1.419 . S
C686 C687 1.362 . S
C687 H677 0.930 . S
C687 C680 1.409 . S
C687 C686 1.362 . S
H688 C694 0.930 . S
H689 C697 0.930 . S
H690 C698 0.930 . S
H691 C699 0.930 . S
H692 C702 0.930 . S
H693 C703 0.930 . S
C694 H688 0.930 . S
C694 C695 1.355 . S
C694 C696 1.415 . S
C695 C694 1.355 . S
C695 C697 1.419 . S
C696 C694 1.415 . S
C696 C701 1.425 . S
C696 C703 1.409 . S
C697 H689 0.930 . S
C697 C695 1.419 . S
C697 C698 1.362 . S
C698 H690 0.930 . S
C698 C697 1.362 . S
C698 C701 1.409 . S
C699 H691 0.930 . S
C699 C700 1.355 . S
C699 C701 1.415 . S
C700 C699 1.355 . S
C700 C702 1.419 . S
C701 C696 1.425 . S
C701 C698 1.409 . S
C701 C699 1.415 . S
C702 H692 0.930 . S
C702 C700 1.419 . S
C702 C703 1.362 . S
C703 H693 0.930 . S
C703 C696 1.409 . S
C703 C702 1.362 . S
H704 C710 0.930 . S
H705 C713 0.930 . S
H706 C714 0.930 . S
H707 C715 0.930 . S
H708 C718 0.930 . S
H709 C719 0.930 . S
C710 H704 0.930 . S
C710 C711 1.355 . S
C710 C712 1.415 . S
C711 C710 1.355 . S
C711 C713 1.419 1_655 S
C712 C710 1.415 . S
C712 C717 1.425 1_655 S
C712 C719 1.409 . S
C713 H705 0.930 . S
C713 C711 1.419 1_455 S
C713 C714 1.362 . S
C714 H706 0.930 . S
C714 C713 1.362 . S
C714 C717 1.409 . S
C715 H707 0.930 . S
C715 C716 1.355 . S
C715 C717 1.415 . S
C716 C715 1.355 . S
C716 C718 1.419 1_455 S
C717 C712 1.425 1_455 S
C717 C714 1.409 . S
C717 C715 1.415 . S
C718 H708 0.930 . S
C718 C716 1.419 1_655 S
C718 C719 1.362 . S
C719 H709 0.930 . S
C719 C712 1.409 . S
C719 C718 1.362 . S
H720 C726 0.930 . S
H721 C729 0.930 . S
H722 C730 0.930 . S
H723 C731 0.930 . S
H724 C734 0.930 . S
H725 C735 0.930 1_545 S
C726 H720 0.930 . S
C726 C727 1.355 . S
C726 C728 1.415 . S
C727 C726 1.355 . S
C727 C729 1.419 . S
C728 C726 1.415 . S
C728 C733 1.425 . S
C728 C735 1.409 . S
C729 H721 0.930 . S
C729 C727 1.419 . S
C729 C730 1.362 . S
C730 H722 0.930 . S
C730 C729 1.362 . S
C730 C733 1.409 . S
C731 H723 0.930 . S
C731 C732 1.355 . S
C731 C733 1.415 . S
C732 C731 1.355 . S
C732 C734 1.419 . S
C733 C728 1.425 . S
C733 C730 1.409 . S
C733 C731 1.415 . S
C734 H724 0.930 . S
C734 C732 1.419 . S
C734 C735 1.362 . S
C735 H725 0.930 1_565 S
C735 C728 1.409 . S
C735 C734 1.362 . S
H736 C742 0.930 . S
H737 C745 0.930 . S
H738 C746 0.930 . S
H739 C747 0.930 . S
H740 C750 0.930 1_545 S
H741 C751 0.930 1_545 S
C742 H736 0.930 . S
C742 C743 1.355 . S
C742 C744 1.415 . S
C743 C742 1.355 . S
C743 C745 1.419 . S
C744 C742 1.415 . S
C744 C749 1.425 1_455 S
C744 C751 1.409 . S
C745 H737 0.930 . S
C745 C743 1.419 . S
C745 C746 1.362 1_455 S
C746 H738 0.930 . S
C746 C745 1.362 1_655 S
C746 C749 1.409 . S
C747 H739 0.930 . S
C747 C748 1.355 . S
C747 C749 1.415 . S
C748 C747 1.355 . S
C748 C750 1.419 . S
C749 C744 1.425 1_655 S
C749 C746 1.409 . S
C749 C747 1.415 . S
C750 H740 0.930 1_565 S
C750 C748 1.419 . S
C750 C751 1.362 1_655 S
C751 H741 0.930 1_565 S
C751 C744 1.409 . S
C751 C750 1.362 1_455 S
H752 C758 0.930 . S
H753 C761 0.930 . S
H754 C762 0.930 . S
H755 C763 0.930 . S
H756 C766 0.930 1_565 S
H757 C767 0.930 1_565 S
C758 H752 0.930 . S
C758 C759 1.355 . S
C758 C760 1.415 . S
C759 C758 1.355 . S
C759 C761 1.419 . S
C760 C758 1.415 . S
C760 C765 1.425 . S
C760 C767 1.409 . S
C761 H753 0.930 . S
C761 C759 1.419 . S
C761 C762 1.362 . S
C762 H754 0.930 . S
C762 C761 1.362 . S
C762 C765 1.409 . S
C763 H755 0.930 . S
C763 C764 1.355 . S
C763 C765 1.415 . S
C764 C763 1.355 . S
C764 C766 1.419 . S
C765 C760 1.425 . S
C765 C762 1.409 . S
C765 C763 1.415 . S
C766 H756 0.930 1_545 S
C766 C764 1.419 . S
C766 C767 1.362 . S
C767 H757 0.930 1_545 S
C767 C760 1.409 . S
C767 C766 1.362 . S
H768 C774 0.930 . S
H769 C777 0.930 . S
H770 C778 0.930 . S
H771 C779 0.930 . S
H772 C782 0.930 . S
H773 C783 0.930 . S
C774 H768 0.930 . S
C774 C775 1.355 . S
C774 C776 1.415 . S
C775 C774 1.355 . S
C775 C777 1.419 . S
C776 C774 1.415 . S
C776 C781 1.425 . S
C776 C783 1.409 . S
C777 H769 0.930 . S
C777 C775 1.419 . S
C777 C778 1.362 . S
C778 H770 0.930 . S
C778 C777 1.362 . S
C778 C781 1.409 . S
C779 H771 0.930 . S
C779 C780 1.355 . S
C779 C781 1.415 . S
C780 C779 1.355 . S
C780 C782 1.419 . S
C781 C776 1.425 . S
C781 C778 1.409 . S
C781 C779 1.415 . S
C782 H772 0.930 . S
C782 C780 1.419 . S
C782 C783 1.362 . S
C783 H773 0.930 . S
C783 C776 1.409 . S
C783 C782 1.362 . S
H784 C790 0.930 . S
H785 C793 0.930 . S
H786 C794 0.930 . S
H787 C795 0.930 . S
H788 C798 0.930 . S
H789 C799 0.930 . S
C790 H784 0.930 . S
C790 C791 1.355 . S
C790 C792 1.415 . S
C791 C790 1.355 . S
C791 C793 1.419 1_455 S
C792 C790 1.415 . S
C792 C797 1.425 1_455 S
C792 C799 1.409 . S
C793 H785 0.930 . S
C793 C791 1.419 1_655 S
C793 C794 1.362 . S
C794 H786 0.930 . S
C794 C793 1.362 . S
C794 C797 1.409 . S
C795 H787 0.930 . S
C795 C796 1.355 . S
C795 C797 1.415 . S
C796 C795 1.355 . S
C796 C798 1.419 1_655 S
C797 C792 1.425 1_655 S
C797 C794 1.409 . S
C797 C795 1.415 . S
C798 H788 0.930 . S
C798 C796 1.419 1_455 S
C798 C799 1.362 . S
C799 H789 0.930 . S
C799 C792 1.409 . S
C799 C798 1.362 . S
H800 C806 0.930 . S
H801 C809 0.930 . S
H802 C810 0.930 . S
H803 C811 0.930 . S
H804 C814 0.930 . S
H805 C815 0.930 . S
C806 H800 0.930 . S
C806 C807 1.355 . S
C806 C808 1.415 . S
C807 C806 1.355 . S
C807 C809 1.419 . S
C808 C806 1.415 . S
C808 C813 1.425 . S
C808 C815 1.409 . S
C809 H801 0.930 . S
C809 C807 1.419 . S
C809 C810 1.362 . S
C810 H802 0.930 . S
C810 C809 1.362 . S
C810 C813 1.409 . S
C811 H803 0.930 . S
C811 C812 1.355 . S
C811 C813 1.415 . S
C812 C811 1.355 . S
C812 C814 1.419 . S
C813 C808 1.425 . S
C813 C810 1.409 . S
C813 C811 1.415 . S
C814 H804 0.930 . S
C814 C812 1.419 . S
C814 C815 1.362 . S
C815 H805 0.930 . S
C815 C808 1.409 . S
C815 C814 1.362 . S
H816 C822 0.930 . S
H817 C825 0.934 . S
H818 C826 0.930 . S
H819 C827 0.930 . S
H820 C830 0.934 . S
H821 C831 0.930 . S
C822 H816 0.930 . S
C822 C823 1.355 . S
C822 C824 1.415 . S
C823 C822 1.355 . S
C823 C825 1.405 1_455 S
C824 C822 1.415 . S
C824 C829 1.425 1_455 S
C824 C831 1.409 . S
C825 H817 0.934 . S
C825 C823 1.405 1_655 S
C825 C826 1.373 . S
C826 H818 0.930 . S
C826 C825 1.373 . S
C826 C829 1.409 . S
C827 H819 0.930 . S
C827 C828 1.355 . S
C827 C829 1.415 . S
C828 C827 1.355 . S
C828 C830 1.405 1_655 S
C829 C824 1.425 1_655 S
C829 C826 1.409 . S
C829 C827 1.415 . S
C830 H820 0.934 . S
C830 C828 1.405 1_455 S
C830 C831 1.373 . S
C831 H821 0.930 . S
C831 C824 1.409 . S
C831 C830 1.373 . S
H832 C838 0.930 . S
H833 C841 0.930 . S
H834 C842 0.930 . S
H835 C843 0.930 . S
H836 C846 0.930 . S
H837 C847 0.930 . S
C838 H832 0.930 . S
C838 C839 1.355 1_655 S
C838 C840 1.415 . S
C839 C838 1.355 1_455 S
C839 C841 1.419 . S
C840 C838 1.415 . S
C840 C845 1.425 1_655 S
C840 C847 1.409 . S
C841 H833 0.930 . S
C841 C839 1.419 . S
C841 C842 1.362 . S
C842 H834 0.930 . S
C842 C841 1.362 . S
C842 C845 1.409 . S
C843 H835 0.930 . S
C843 C844 1.355 1_455 S
C843 C845 1.415 . S
C844 C843 1.355 1_655 S
C844 C846 1.419 . S
C845 C840 1.425 1_455 S
C845 C842 1.409 . S
C845 C843 1.415 . S
C846 H836 0.930 . S
C846 C844 1.419 . S
C846 C847 1.362 . S
C847 H837 0.930 . S
C847 C840 1.409 . S
C847 C846 1.362 . S
H848 C854 0.930 . S
H849 C857 0.930 . S
H850 C858 0.930 . S
H851 C859 0.930 . S
H852 C862 0.930 . S
H853 C863 0.930 . S
C854 H848 0.930 . S
C854 C855 1.355 . S
C854 C856 1.415 . S
C855 C854 1.355 . S
C855 C857 1.419 . S
C856 C854 1.415 . S
C856 C861 1.425 . S
C856 C863 1.409 . S
C857 H849 0.930 . S
C857 C855 1.419 . S
C857 C858 1.362 . S
C858 H850 0.930 . S
C858 C857 1.362 . S
C858 C861 1.409 . S
C859 H851 0.930 . S
C859 C860 1.355 . S
C859 C861 1.415 . S
C860 C859 1.355 . S
C860 C862 1.419 . S
C861 C856 1.425 . S
C861 C858 1.409 . S
C861 C859 1.415 . S
C862 H852 0.930 . S
C862 C860 1.419 . S
C862 C863 1.362 . S
C863 H853 0.930 . S
C863 C856 1.409 . S
C863 C862 1.362 . S
H864 C870 0.930 . S
H865 C873 0.930 . S
H866 C874 0.930 . S
H867 C875 0.930 . S
H868 C878 0.930 . S
H869 C879 0.930 . S
C870 H864 0.930 . S
C870 C871 1.355 . S
C870 C872 1.415 . S
C871 C870 1.355 . S
C871 C873 1.419 . S
C872 C870 1.415 . S
C872 C877 1.425 . S
C872 C879 1.409 . S
C873 H865 0.930 . S
C873 C871 1.419 . S
C873 C874 1.362 . S
C874 H866 0.930 . S
C874 C873 1.362 . S
C874 C877 1.409 . S
C875 H867 0.930 . S
C875 C876 1.355 . S
C875 C877 1.415 . S
C876 C875 1.355 . S
C876 C878 1.419 . S
C877 C872 1.425 . S
C877 C874 1.409 . S
C877 C875 1.415 . S
C878 H868 0.930 . S
C878 C876 1.419 . S
C878 C879 1.362 . S
C879 H869 0.930 . S
C879 C872 1.409 . S
C879 C878 1.362 . S
H880 C886 0.930 . S
H881 C889 0.930 . S
H882 C890 0.930 . S
H883 C891 0.930 . S
H884 C894 0.930 . S
H885 C895 0.930 . S
C886 H880 0.930 . S
C886 C887 1.355 1_655 S
C886 C888 1.415 . S
C887 C886 1.355 1_455 S
C887 C889 1.419 . S
C888 C886 1.415 . S
C888 C893 1.425 1_655 S
C888 C895 1.409 . S
C889 H881 0.930 . S
C889 C887 1.419 . S
C889 C890 1.362 . S
C890 H882 0.930 . S
C890 C889 1.362 . S
C890 C893 1.409 . S
C891 H883 0.930 . S
C891 C892 1.355 1_455 S
C891 C893 1.415 . S
C892 C891 1.355 1_655 S
C892 C894 1.419 . S
C893 C888 1.425 1_455 S
C893 C890 1.409 . S
C893 C891 1.415 . S
C894 H884 0.930 . S
C894 C892 1.419 . S
C894 C895 1.362 . S
C895 H885 0.930 . S
C895 C888 1.409 . S
C895 C894 1.362 . S
H896 C902 0.930 . S
H897 C905 0.930 . S
H898 C906 0.930 . S
H899 C907 0.930 . S
H900 C910 0.930 . S
H901 C911 0.930 . S
C902 H896 0.930 . S
C902 C903 1.355 . S
C902 C904 1.415 . S
C903 C902 1.355 . S
C903 C905 1.419 1_455 S
C904 C902 1.415 . S
C904 C909 1.425 1_455 S
C904 C911 1.409 . S
C905 H897 0.930 . S
C905 C903 1.419 1_655 S
C905 C906 1.362 . S
C906 H898 0.930 . S
C906 C905 1.362 . S
C906 C909 1.409 . S
C907 H899 0.930 . S
C907 C908 1.355 . S
C907 C909 1.415 . S
C908 C907 1.355 . S
C908 C910 1.419 1_655 S
C909 C904 1.425 1_655 S
C909 C906 1.409 . S
C909 C907 1.415 . S
C910 H900 0.930 . S
C910 C908 1.419 1_455 S
C910 C911 1.362 . S
C911 H901 0.930 . S
C911 C904 1.409 . S
C911 C910 1.362 . S
H912 C918 0.930 . S
H913 C921 0.930 . S
H914 C922 0.930 . S
H915 C923 0.930 . S
H916 C926 0.930 . S
H917 C927 0.930 . S
C918 H912 0.930 . S
C918 C919 1.355 . S
C918 C920 1.415 . S
C919 C918 1.355 . S
C919 C921 1.419 . S
C920 C918 1.415 . S
C920 C925 1.425 . S
C920 C927 1.409 . S
C921 H913 0.930 . S
C921 C919 1.419 . S
C921 C922 1.362 . S
C922 H914 0.930 . S
C922 C921 1.362 . S
C922 C925 1.409 . S
C923 H915 0.930 . S
C923 C924 1.355 . S
C923 C925 1.415 . S
C924 C923 1.355 . S
C924 C926 1.419 . S
C925 C920 1.425 . S
C925 C922 1.409 . S
C925 C923 1.415 . S
C926 H916 0.930 . S
C926 C924 1.419 . S
C926 C927 1.362 . S
C927 H917 0.930 . S
C927 C920 1.409 . S
C927 C926 1.362 . S
H928 C934 0.930 . S
H929 C937 0.930 . S
H930 C938 0.930 . S
H931 C939 0.930 . S
H932 C942 0.930 . S
H933 C943 0.930 . S
C934 H928 0.930 . S
C934 C935 1.355 . S
C934 C936 1.415 . S
C935 C934 1.355 . S
C935 C937 1.419 . S
C936 C934 1.415 . S
C936 C941 1.425 . S
C936 C943 1.409 . S
C937 H929 0.930 . S
C937 C935 1.419 . S
C937 C938 1.362 . S
C938 H930 0.930 . S
C938 C937 1.362 . S
C938 C941 1.409 . S
C939 H931 0.930 . S
C939 C940 1.355 . S
C939 C941 1.415 . S
C940 C939 1.355 . S
C940 C942 1.419 . S
C941 C936 1.425 . S
C941 C938 1.409 . S
C941 C939 1.415 . S
C942 H932 0.930 . S
C942 C940 1.419 . S
C942 C943 1.362 . S
C943 H933 0.930 . S
C943 C936 1.409 . S
C943 C942 1.362 . S
H944 C950 0.930 . S
H945 C953 0.930 . S
H946 C954 0.930 . S
H947 C955 0.930 . S
H948 C958 0.930 . S
H949 C959 0.930 . S
C950 H944 0.930 . S
C950 C951 1.355 . S
C950 C952 1.415 . S
C951 C950 1.355 . S
C951 C953 1.419 1_455 S
C952 C950 1.415 . S
C952 C957 1.425 1_455 S
C952 C959 1.409 . S
C953 H945 0.930 . S
C953 C951 1.419 1_655 S
C953 C954 1.362 . S
C954 H946 0.930 . S
C954 C953 1.362 . S
C954 C957 1.409 . S
C955 H947 0.930 . S
C955 C956 1.355 . S
C955 C957 1.415 . S
C956 C955 1.355 . S
C956 C958 1.419 1_655 S
C957 C952 1.425 1_655 S
C957 C954 1.409 . S
C957 C955 1.415 . S
C958 H948 0.930 . S
C958 C956 1.419 1_455 S
C958 C959 1.362 . S
C959 H949 0.930 . S
C959 C952 1.409 . S
C959 C958 1.362 . S
H960 C966 0.930 . S
H961 C969 0.930 . S
H962 C970 0.930 1_554 S
H963 C971 0.930 . S
H964 C974 0.930 . S
H965 C975 0.930 1_556 S
C966 H960 0.930 . S
C966 C967 1.355 1_545 S
C966 C968 1.415 . S
C967 C966 1.355 1_565 S
C967 C969 1.419 . S
C968 C966 1.415 . S
C968 C973 1.425 1_646 S
C968 C975 1.409 1_556 S
C969 H961 0.930 . S
C969 C967 1.419 . S
C969 C970 1.362 1_655 S
C970 H962 0.930 1_556 S
C970 C969 1.362 1_455 S
C970 C973 1.409 1_556 S
C971 H963 0.930 . S
C971 C972 1.355 1_565 S
C971 C973 1.415 . S
C972 C971 1.355 1_545 S
C972 C974 1.419 . S
C973 C968 1.425 1_464 S
C973 C970 1.409 1_554 S
C973 C971 1.415 . S
C974 H964 0.930 . S
C974 C972 1.419 . S
C974 C975 1.362 1_455 S
C975 H965 0.930 1_554 S
C975 C968 1.409 1_554 S
C975 C974 1.362 1_655 S
H976 C982 0.944 . S
H977 C985 0.930 . S
H978 C986 0.930 . S
H979 C987 0.944 . S
H980 C990 0.930 . S
H981 C991 0.930 . S
C982 H976 0.944 . S
C982 C983 1.334 1_565 S
C982 C984 1.422 . S
C983 C982 1.334 1_545 S
C983 C985 1.419 . S
C984 C982 1.422 . S
C984 C989 1.425 1_566 S
C984 C991 1.409 . S
C985 H977 0.930 . S
C985 C983 1.419 . S
C985 C986 1.362 1_556 S
C986 H978 0.930 . S
C986 C985 1.362 1_554 S
C986 C989 1.409 . S
C987 H979 0.944 . S
C987 C988 1.334 1_545 S
C987 C989 1.422 . S
C988 C987 1.334 1_565 S
C988 C990 1.419 . S
C989 C984 1.425 1_544 S
C989 C986 1.409 . S
C989 C987 1.422 . S
C990 H980 0.930 . S
C990 C988 1.419 . S
C990 C991 1.362 1_554 S
C991 H981 0.930 . S
C991 C984 1.409 . S
C991 C990 1.362 1_556 S
H992 C998 0.930 . S
H993 C1001 0.930 . S
H994 C1002 0.930 . S
H995 C1003 0.930 . S
H996 C1006 0.930 . S
H997 C1007 0.930 . S
C998 H992 0.930 . S
C998 C999 1.355 . S
C998 C1000 1.415 1_545 S
C999 C998 1.355 . S
C999 C1001 1.419 . S
C1000 C998 1.415 1_565 S
C1000 C1005 1.425 1_565 S
C1000 C1007 1.409 . S
C1001 H993 0.930 . S
C1001 C999 1.419 . S
C1001 C1002 1.362 . S
C1002 H994 0.930 . S
C1002 C1001 1.362 . S
C1002 C1005 1.409 . S
C1003 H995 0.930 . S
C1003 C1004 1.355 . S
C1003 C1005 1.415 1_565 S
C1004 C1003 1.355 . S
C1004 C1006 1.419 . S
C1005 C1000 1.425 1_545 S
C1005 C1002 1.409 . S
C1005 C1003 1.415 1_545 S
C1006 H996 0.930 . S
C1006 C1004 1.419 . S
C1006 C1007 1.362 . S
C1007 H997 0.930 . S
C1007 C1000 1.409 . S
C1007 C1006 1.362 . S
H1008 C1014 0.930 . S
H1009 C1017 0.930 . S
H1010 C1018 0.930 . S
H1011 C1019 0.930 . S
H1012 C1022 0.930 . S
H1013 C1023 0.930 . S
C1014 H1008 0.930 . S
C1014 C1015 1.355 . S
C1014 C1016 1.415 . S
C1015 C1014 1.355 . S
C1015 C1017 1.419 1_465 S
C1016 C1014 1.415 . S
C1016 C1021 1.425 1_465 S
C1016 C1023 1.409 . S
C1017 H1009 0.930 . S
C1017 C1015 1.419 1_645 S
C1017 C1018 1.362 . S
C1018 H1010 0.930 . S
C1018 C1017 1.362 . S
C1018 C1021 1.409 . S
C1019 H1011 0.930 . S
C1019 C1020 1.355 . S
C1019 C1021 1.415 . S
C1020 C1019 1.355 . S
C1020 C1022 1.419 1_645 S
C1021 C1016 1.425 1_645 S
C1021 C1018 1.409 . S
C1021 C1019 1.415 . S
C1022 H1012 0.930 . S
C1022 C1020 1.419 1_465 S
C1022 C1023 1.362 . S
C1023 H1013 0.930 . S
C1023 C1016 1.409 . S
C1023 C1022 1.362 . S
H1024 C1030 0.930 . S
H1025 C1033 0.930 . S
H1026 C1034 0.930 . S
H1027 C1035 0.930 . S
H1028 C1038 0.930 . S
H1029 C1039 0.930 . S
C1030 H1024 0.930 . S
C1030 C1031 1.355 . S
C1030 C1032 1.415 . S
C1031 C1030 1.355 . S
C1031 C1033 1.419 . S
C1032 C1030 1.415 . S
C1032 C1037 1.425 1_554 S
C1032 C1039 1.409 1_554 S
C1033 H1025 0.930 . S
C1033 C1031 1.419 . S
C1033 C1034 1.362 . S
C1034 H1026 0.930 . S
C1034 C1033 1.362 . S
C1034 C1037 1.409 1_554 S
C1035 H1027 0.930 . S
C1035 C1036 1.355 . S
C1035 C1037 1.415 . S
C1036 C1035 1.355 . S
C1036 C1038 1.419 . S
C1037 C1032 1.425 1_556 S
C1037 C1034 1.409 1_556 S
C1037 C1035 1.415 . S
C1038 H1028 0.930 . S
C1038 C1036 1.419 . S
C1038 C1039 1.362 . S
C1039 H1029 0.930 . S
C1039 C1032 1.409 1_556 S
C1039 C1038 1.362 . S
H1040 C1046 0.930 . S
H1041 C1049 0.930 . S
H1042 C1050 0.930 . S
H1043 C1051 0.930 . S
H1044 C1054 0.930 . S
H1045 C1055 0.930 . S
C1046 H1040 0.930 . S
C1046 C1047 1.355 . S
C1046 C1048 1.415 1_554 S
C1047 C1046 1.355 . S
C1047 C1049 1.419 1_655 S
C1048 C1046 1.415 1_556 S
C1048 C1053 1.425 1_656 S
C1048 C1055 1.409 . S
C1049 H1041 0.930 . S
C1049 C1047 1.419 1_455 S
C1049 C1050 1.362 . S
C1050 H1042 0.930 . S
C1050 C1049 1.362 . S
C1050 C1053 1.409 . S
C1051 H1043 0.930 . S
C1051 C1052 1.355 . S
C1051 C1053 1.415 1_556 S
C1052 C1051 1.355 . S
C1052 C1054 1.419 1_455 S
C1053 C1048 1.425 1_454 S
C1053 C1050 1.409 . S
C1053 C1051 1.415 1_554 S
C1054 H1044 0.930 . S
C1054 C1052 1.419 1_655 S
C1054 C1055 1.362 . S
C1055 H1045 0.930 . S
C1055 C1048 1.409 . S
C1055 C1054 1.362 . S
H1056 C1062 0.930 . S
H1057 C1065 0.930 . S
H1058 C1066 0.930 . S
H1059 C1067 0.930 . S
H1060 C1070 0.930 . S
H1061 C1071 0.930 . S
C1062 H1056 0.930 . S
C1062 C1063 1.355 1_455 S
C1062 C1064 1.415 . S
C1063 C1062 1.355 1_655 S
C1063 C1065 1.419 . S
C1064 C1062 1.415 . S
C1064 C1069 1.425 1_455 S
C1064 C1071 1.409 . S
C1065 H1057 0.930 . S
C1065 C1063 1.419 . S
C1065 C1066 1.362 . S
C1066 H1058 0.930 . S
C1066 C1065 1.362 . S
C1066 C1069 1.409 . S
C1067 H1059 0.930 . S
C1067 C1068 1.355 1_655 S
C1067 C1069 1.415 . S
C1068 C1067 1.355 1_455 S
C1068 C1070 1.419 . S
C1069 C1064 1.425 1_655 S
C1069 C1066 1.409 . S
C1069 C1067 1.415 . S
C1070 H1060 0.930 . S
C1070 C1068 1.419 . S
C1070 C1071 1.362 . S
C1071 H1061 0.930 . S
C1071 C1064 1.409 . S
C1071 C1070 1.362 . S
H1072 C1078 0.930 . S
H1073 C1081 0.930 . S
H1074 C1082 0.930 . S
H1075 C1083 0.930 . S
H1076 C1086 0.930 . S
H1077 C1087 0.930 . S
C1078 H1072 0.930 . S
C1078 C1079 1.355 . S
C1078 C1080 1.415 . S
C1079 C1078 1.355 . S
C1079 C1081 1.419 . S
C1080 C1078 1.415 . S
C1080 C1085 1.425 . S
C1080 C1087 1.409 . S
C1081 H1073 0.930 . S
C1081 C1079 1.419 . S
C1081 C1082 1.362 . S
C1082 H1074 0.930 . S
C1082 C1081 1.362 . S
C1082 C1085 1.409 . S
C1083 H1075 0.930 . S
C1083 C1084 1.355 . S
C1083 C1085 1.415 . S
C1084 C1083 1.355 . S
C1084 C1086 1.419 . S
C1085 C1080 1.425 . S
C1085 C1082 1.409 . S
C1085 C1083 1.415 . S
C1086 H1076 0.930 . S
C1086 C1084 1.419 . S
C1086 C1087 1.362 . S
C1087 H1077 0.930 . S
C1087 C1080 1.409 . S
C1087 C1086 1.362 . S
C583 C40 1.485 . S
C588 C4 1.485 . S
C599 C76 1.497 . S
C604 C112 1.500 . S
C615 C148 1.497 . S
C620 C184 1.490 . S
C631 C256 1.500 . S
C636 C220 1.495 . S
C647 C328 1.500 . S
C652 C292 1.497 . S
C663 C400 1.496 . S
C668 C364 1.500 . S
C679 C472 1.500 . S
C684 C436 1.497 . S
C695 C544 1.484 . S
C700 C508 1.487 . S
C711 C110 1.347 . S
C716 C2 1.348 . S
C727 C38 1.305 . S
C732 C74 1.351 . S
C743 C254 1.306 . S
C748 C146 1.353 . S
C759 C218 1.303 . S
C764 C182 1.340 . S
C775 C290 1.325 . S
C780 C398 1.309 . S
C791 C362 1.343 . S
C796 C326 1.351 . S
C807 C542 1.307 . S
C812 C434 1.354 . S
C823 C470 1.311 . S
C828 C506 1.358 . S
C839 C3 1.502 . S
C844 C327 1.500 . S
C855 C39 1.502 . S
C860 C291 1.500 . S
C871 C399 1.503 . S
C876 C75 1.505 . S
C887 C363 1.504 . S
C892 C111 1.499 . S
C903 C471 1.505 . S
C908 C147 1.503 . S
C919 C435 1.500 . S
C924 C183 1.505 . S
C935 C219 1.500 . S
C940 C543 1.501 . S
C951 C255 1.504 . S
C956 C507 1.504 . S
C967 C158 1.311 . S
C972 C14 1.311 . S
C983 C194 1.295 . S
C988 C50 1.295 . S
C999 C230 1.292 . S
C1004 C86 1.292 . S
C1015 C266 1.258 . S
C1020 C122 1.258 . S
C1031 C302 1.311 . S
C1036 C446 1.311 . S
C1047 C338 1.287 . S
C1052 C482 1.287 . S
C1063 C518 1.244 . S
C1068 C374 1.244 . S
C1079 C554 1.290 . S
C1084 C410 1.290 . S
