# Generated by pormake.
# Topology vbn, (6)-cn, num edge types: 1
# Building blocks:
#     Node 0, Type 0, BuildingBlock: OJICUG_clean_sbu_0, # of connection points: 6
#     Node 1, Type 0, BuildingBlock: OJICUG_clean_sbu_0, # of connection points: 6
#     Node 2, Type 0, BuildingBlock: OJICUG_clean_sbu_0, # of connection points: 6
#     Node 3, Type 0, BuildingBlock: OJICUG_clean_sbu_0, # of connection points: 6
#     Node 4, Type 0, BuildingBlock: OJICUG_clean_sbu_0, # of connection points: 6
#     Node 5, Type 0, BuildingBlock: OJICUG_clean_sbu_0, # of connection points: 6
#     Node 6, Type 0, BuildingBlock: OJICUG_clean_sbu_0, # of connection points: 6
#     Node 7, Type 0, BuildingBlock: OJICUG_clean_sbu_0, # of connection points: 6
#     Edge 8, Type (0, 0), BuildingBlock: AJUNOK_clean_linker_0, # of connection points: 2
#     Edge 9, Type (0, 0), BuildingBlock: AJUNOK_clean_linker_0, # of connection points: 2
#     Edge 10, Type (0, 0), BuildingBlock: AJUNOK_clean_linker_0, # of connection points: 2
#     Edge 11, Type (0, 0), BuildingBlock: AJUNOK_clean_linker_0, # of connection points: 2
#     Edge 12, Type (0, 0), BuildingBlock: AJUNOK_clean_linker_0, # of connection points: 2
#     Edge 13, Type (0, 0), BuildingBlock: AJUNOK_clean_linker_0, # of connection points: 2
#     Edge 14, Type (0, 0), BuildingBlock: AJUNOK_clean_linker_0, # of connection points: 2
#     Edge 15, Type (0, 0), BuildingBlock: AJUNOK_clean_linker_0, # of connection points: 2
#     Edge 16, Type (0, 0), BuildingBlock: AJUNOK_clean_linker_0, # of connection points: 2
#     Edge 17, Type (0, 0), BuildingBlock: AJUNOK_clean_linker_0, # of connection points: 2
#     Edge 18, Type (0, 0), BuildingBlock: AJUNOK_clean_linker_0, # of connection points: 2
#     Edge 19, Type (0, 0), BuildingBlock: AJUNOK_clean_linker_0, # of connection points: 2
#     Edge 20, Type (0, 0), BuildingBlock: AJUNOK_clean_linker_0, # of connection points: 2
#     Edge 21, Type (0, 0), BuildingBlock: AJUNOK_clean_linker_0, # of connection points: 2
#     Edge 22, Type (0, 0), BuildingBlock: AJUNOK_clean_linker_0, # of connection points: 2
#     Edge 23, Type (0, 0), BuildingBlock: AJUNOK_clean_linker_0, # of connection points: 2
#     Edge 24, Type (0, 0), BuildingBlock: AJUNOK_clean_linker_0, # of connection points: 2
#     Edge 25, Type (0, 0), BuildingBlock: AJUNOK_clean_linker_0, # of connection points: 2
#     Edge 26, Type (0, 0), BuildingBlock: AJUNOK_clean_linker_0, # of connection points: 2
#     Edge 27, Type (0, 0), BuildingBlock: AJUNOK_clean_linker_0, # of connection points: 2
#     Edge 28, Type (0, 0), BuildingBlock: AJUNOK_clean_linker_0, # of connection points: 2
#     Edge 29, Type (0, 0), BuildingBlock: AJUNOK_clean_linker_0, # of connection points: 2
#     Edge 30, Type (0, 0), BuildingBlock: AJUNOK_clean_linker_0, # of connection points: 2
#     Edge 31, Type (0, 0), BuildingBlock: AJUNOK_clean_linker_0, # of connection points: 2
# Relax obj value: 0.292
# Max RMSD: 0.267
# Mean RMSD: 0.267
data_MOF--net-vbn--node1-OJICUG_clean_sbu_0--edge1-AJUNOK_clean_linker_0
_symmetry_space_group_name_H-M    P1
_symmetry_Int_Tables_number       1
_symmetry_cell_setting            triclinic
loop_
_symmetry_equiv_pos_as_xyz
'x, y, z'
_cell_length_a     19.903097
_cell_length_b     22.139395
_cell_length_c     35.964059
_cell_angle_alpha  90.007633
_cell_angle_beta   90.004131
_cell_angle_gamma 89.880976
loop_
_atom_site_label
_atom_site_type_symbol
_atom_site_fract_x
_atom_site_fract_y
_atom_site_fract_z
_atom_type_partial_charge
Sc0 Sc 0.28646 0.28945 0.36808 0.0
Sc1 Sc 0.38092 0.26256 0.4469 0.0
Sc2 Sc 0.42372 0.37419 0.38745 0.0
O3 O 0.36419 0.30624 0.39991 0.0
C4 C 0.4148 0.30972 0.31352 0.0
C5 C 0.32357 0.16036 0.39041 0.0
C6 C 0.5221 0.27945 0.42776 0.0
C7 C 0.22896 0.27365 0.45197 0.0
C8 C 0.28625 0.42811 0.36583 0.0
C9 C 0.41268 0.40202 0.46518 0.0
O10 O 0.35045 0.30573 0.31786 0.0
O11 O 0.34047 0.17722 0.42335 0.0
O12 O 0.50903 0.33413 0.41864 0.0
O13 O 0.2217 0.26874 0.41657 0.0
O14 O 0.34792 0.42449 0.35686 0.0
O15 O 0.42282 0.34634 0.47401 0.0
O16 O 0.25324 0.38109 0.37373 0.0
O17 O 0.28483 0.28447 0.46742 0.0
O18 O 0.38341 0.41399 0.4353 0.0
O19 O 0.31538 0.19773 0.36411 0.0
O20 O 0.45376 0.32857 0.33898 0.0
O21 O 0.47699 0.23957 0.42586 0.0
Sc22 Sc 0.19389 0.21189 0.86461 0.0
Sc23 Sc 0.12327 0.22726 0.95096 0.0
Sc24 Sc 0.05988 0.12661 0.89015 0.0
O25 O 0.12323 0.19215 0.90068 0.0
C26 C 0.05579 0.1938 0.81704 0.0
C27 C 0.16879 0.33553 0.89562 0.0
C28 C 0.97668 0.2221 0.94048 0.0
C29 C 0.27198 0.21347 0.94283 0.0
C30 C 0.19213 0.0734 0.86021 0.0
C31 C 0.08627 0.0892 0.96554 0.0
O32 O 0.12052 0.19816 0.81835 0.0
O33 O 0.16339 0.3135 0.92859 0.0
O34 O 0.98323 0.16831 0.92747 0.0
O35 O 0.26877 0.23067 0.90881 0.0
O36 O 0.12919 0.07768 0.8543 0.0
O37 O 0.08104 0.14378 0.9772 0.0
O38 O 0.22721 0.12007 0.86598 0.0
O39 O 0.22132 0.19372 0.96017 0.0
O40 O 0.10781 0.08008 0.93343 0.0
O41 O 0.16397 0.30337 0.86654 0.0
O42 O 0.02135 0.17593 0.84467 0.0
O43 O 0.0252 0.25891 0.94062 0.0
Sc44 Sc 0.78554 0.21336 0.62122 0.0
Sc45 Sc 0.87186 0.23655 0.53994 0.0
Sc46 Sc 0.92251 0.12795 0.59998 0.0
O47 O 0.86117 0.19486 0.58813 0.0
C48 C 0.91469 0.19066 0.67503 0.0
C49 C 0.81467 0.3393 0.59576 0.0
C50 C 0.01476 0.2266 0.55735 0.0
C51 C 0.72194 0.22087 0.53866 0.0
C52 C 0.78443 0.0743 0.62292 0.0
C53 C 0.9124 0.09974 0.52181 0.0
O54 O 0.85057 0.19682 0.67088 0.0
O55 O 0.82646 0.32087 0.56251 0.0
O56 O 0.00532 0.1724 0.56897 0.0
O57 O 0.71831 0.23427 0.5734 0.0
O58 O 0.84721 0.07553 0.62988 0.0
O59 O 0.91889 0.15565 0.51318 0.0
O60 O 0.7515 0.12224 0.61687 0.0
O61 O 0.77645 0.20577 0.52308 0.0
O62 O 0.8849 0.08587 0.55197 0.0
O63 O 0.81704 0.30424 0.62353 0.0
O64 O 0.95257 0.17269 0.64885 0.0
O65 O 0.96763 0.26507 0.5579 0.0
Sc66 Sc 0.55951 0.37569 0.09879 0.0
Sc67 Sc 0.6247 0.275 0.03827 0.0
Sc68 Sc 0.69399 0.29072 0.1248 0.0
O69 O 0.62387 0.31069 0.08839 0.0
C70 C 0.69176 0.42929 0.12939 0.0
C71 C 0.58765 0.41303 0.02278 0.0
C72 C 0.77297 0.28933 0.04688 0.0
C73 C 0.47759 0.27937 0.04847 0.0
C74 C 0.55605 0.30936 0.17226 0.0
C75 C 0.67108 0.16724 0.09387 0.0
O76 O 0.62851 0.42527 0.13446 0.0
O77 O 0.58231 0.35815 0.01169 0.0
O78 O 0.76953 0.27187 0.08085 0.0
O79 O 0.48349 0.33315 0.0616 0.0
O80 O 0.62068 0.30467 0.17088 0.0
O81 O 0.66619 0.18901 0.06081 0.0
O82 O 0.52149 0.32636 0.14443 0.0
O83 O 0.52666 0.24293 0.04813 0.0
O84 O 0.66333 0.19951 0.1227 0.0
O85 O 0.60588 0.42337 0.05543 0.0
O86 O 0.7271 0.38249 0.12393 0.0
O87 O 0.72232 0.30924 0.02954 0.0
Sc88 Sc 0.55989 0.62659 0.60131 0.0
Sc89 Sc 0.61833 0.73239 0.54198 0.0
Sc90 Sc 0.69489 0.71147 0.62656 0.0
O91 O 0.62308 0.69265 0.59086 0.0
C92 C 0.55925 0.69155 0.67534 0.0
C93 C 0.47272 0.72277 0.55432 0.0
C94 C 0.66662 0.83745 0.59903 0.0
C95 C 0.5824 0.59399 0.52419 0.0
C96 C 0.694 0.57286 0.62869 0.0
C97 C 0.76841 0.72041 0.54684 0.0
O98 O 0.52384 0.67452 0.64791 0.0
O99 O 0.52005 0.7607 0.55558 0.0
O100 O 0.6646 0.80309 0.62724 0.0
O101 O 0.60345 0.58117 0.55609 0.0
O102 O 0.72869 0.61988 0.62323 0.0
O103 O 0.71683 0.70349 0.52915 0.0
O104 O 0.63127 0.57675 0.6353 0.0
O105 O 0.57729 0.64962 0.51441 0.0
O106 O 0.76738 0.73273 0.58171 0.0
O107 O 0.48108 0.66852 0.566 0.0
O108 O 0.62393 0.69529 0.67356 0.0
O109 O 0.65765 0.81771 0.56577 0.0
Sc110 Sc 0.78543 0.79333 0.12422 0.0
Sc111 Sc 0.87362 0.76326 0.0437 0.0
Sc112 Sc 0.92472 0.87403 0.1019 0.0
O113 O 0.86196 0.80777 0.09091 0.0
C114 C 0.78967 0.9322 0.12455 0.0
C115 C 0.72268 0.77978 0.04156 0.0
C116 C 0.91209 0.9002 0.0235 0.0
C117 C 0.8127 0.66416 0.10097 0.0
C118 C 0.91656 0.81225 0.17692 0.0
C119 C 0.01673 0.77461 0.06071 0.0
O120 O 0.75485 0.88554 0.11841 0.0
O121 O 0.77779 0.79047 0.02528 0.0
O122 O 0.88599 0.91513 0.05389 0.0
O123 O 0.81156 0.70083 0.12804 0.0
O124 O 0.95483 0.82903 0.15064 0.0
O125 O 0.96986 0.73626 0.06261 0.0
O126 O 0.85202 0.80924 0.1734 0.0
O127 O 0.82908 0.68024 0.06787 0.0
O128 O 0.00666 0.82953 0.07052 0.0
O129 O 0.71756 0.77321 0.07695 0.0
O130 O 0.85181 0.92781 0.1324 0.0
O131 O 0.91872 0.84391 0.01549 0.0
Sc132 Sc 0.06336 0.87745 0.393 0.0
Sc133 Sc 0.11919 0.76917 0.45156 0.0
Sc134 Sc 0.19476 0.78843 0.36684 0.0
O135 O 0.12404 0.80915 0.40262 0.0
C136 C 0.05972 0.81444 0.31797 0.0
C137 C 0.97427 0.78099 0.43959 0.0
C138 C 0.16669 0.66378 0.39471 0.0
C139 C 0.08703 0.90699 0.47039 0.0
C140 C 0.19969 0.92735 0.36404 0.0
C141 C 0.26893 0.78162 0.44627 0.0
O142 O 0.02538 0.83345 0.34538 0.0
O143 O 0.02084 0.74208 0.43773 0.0
O144 O 0.16087 0.69799 0.36665 0.0
O145 O 0.10961 0.91892 0.43878 0.0
O146 O 0.23181 0.87881 0.36942 0.0
O147 O 0.21725 0.79864 0.46389 0.0
O148 O 0.13608 0.92801 0.36004 0.0
O149 O 0.07816 0.85161 0.47961 0.0
O150 O 0.26743 0.76671 0.41176 0.0
O151 O 0.98344 0.83509 0.42765 0.0
O152 O 0.12385 0.80604 0.32004 0.0
O153 O 0.15954 0.6835 0.42809 0.0
Sc154 Sc 0.42158 0.62788 0.89298 0.0
Sc155 Sc 0.36779 0.73823 0.95083 0.0
Sc156 Sc 0.28483 0.71108 0.86869 0.0
O157 O 0.35965 0.69511 0.90284 0.0
C158 C 0.4168 0.68749 0.81688 0.0
C159 C 0.51143 0.72894 0.93528 0.0
C160 C 0.31001 0.83845 0.89317 0.0
C161 C 0.40932 0.60287 0.97102 0.0
C162 C 0.28564 0.57171 0.86898 0.0
C163 C 0.21809 0.71918 0.95028 0.0
O164 O 0.45363 0.67006 0.84367 0.0
O165 O 0.46409 0.76723 0.93391 0.0
O166 O 0.31399 0.80259 0.86582 0.0
O167 O 0.381 0.58869 0.94119 0.0
O168 O 0.25195 0.61963 0.87351 0.0
O169 O 0.27234 0.70644 0.96686 0.0
O170 O 0.34866 0.57349 0.86294 0.0
O171 O 0.41536 0.65896 0.97918 0.0
O172 O 0.21545 0.73178 0.91542 0.0
O173 O 0.50253 0.67439 0.92417 0.0
O174 O 0.35258 0.69423 0.82022 0.0
O175 O 0.32187 0.8213 0.9267 0.0
C176 C 0.25407 0.00233 0.40571 0.0
C177 C 0.23575 0.9846 0.36953 0.0
C178 C 0.28609 0.05782 0.41233 0.0
C179 C 0.30192 0.09706 0.38282 0.0
H180 H 0.24177 0.9738 0.42922 0.0
H181 H 0.29599 0.07092 0.44082 0.0
S182 S 0.27273 0.06584 0.28222 0.0
N183 N 0.24037 0.00684 0.30378 0.0
N184 N 0.30285 0.10993 0.31526 0.0
C185 C 0.28734 0.07742 0.34616 0.0
C186 C 0.25359 0.02154 0.33972 0.0
C187 C 0.25488 0.40277 0.86831 0.0
C188 C 0.19657 0.39645 0.8901 0.0
C189 C 0.28254 0.45958 0.86098 0.0
C190 C 0.25217 0.51251 0.87453 0.0
H191 H 0.27984 0.36319 0.85711 0.0
H192 H 0.32816 0.46194 0.84462 0.0
S193 S 0.09705 0.51979 0.93224 0.0
N194 N 0.10877 0.4469 0.92489 0.0
N195 N 0.15934 0.55454 0.91075 0.0
C196 C 0.19299 0.50669 0.89607 0.0
C197 C 0.16565 0.44844 0.90405 0.0
C198 C 0.78544 0.50876 0.60089 0.0
C199 C 0.7255 0.5129 0.62193 0.0
C200 C 0.81349 0.45258 0.59115 0.0
C201 C 0.78307 0.39869 0.60258 0.0
H202 H 0.81046 0.54924 0.59125 0.0
H203 H 0.85974 0.45134 0.57529 0.0
S204 S 0.62516 0.38378 0.65681 0.0
N205 N 0.63631 0.45735 0.65285 0.0
N206 N 0.68917 0.35226 0.63497 0.0
C207 C 0.72313 0.40205 0.62333 0.0
C208 C 0.69432 0.45896 0.63292 0.0
C209 C 0.67306 0.05443 0.08672 0.0
C210 C 0.70236 0.10764 0.10009 0.0
C211 C 0.70056 0.99776 0.09581 0.0
C212 C 0.75886 0.99251 0.11812 0.0
H213 H 0.62805 0.05654 0.06982 0.0
H214 H 0.67645 0.95781 0.08472 0.0
S215 S 0.85562 0.11968 0.15845 0.0
N216 N 0.79321 0.15235 0.13584 0.0
N217 N 0.84529 0.04637 0.15244 0.0
C218 C 0.78895 0.04583 0.13107 0.0
C219 C 0.7606 0.10321 0.12216 0.0
C220 C 0.76826 0.96595 0.64005 0.0
C221 C 0.75021 0.01557 0.618 0.0
C222 C 0.7392 0.90919 0.63418 0.0
C223 C 0.69224 0.89938 0.60537 0.0
H224 H 0.80521 0.97096 0.66196 0.0
H225 H 0.7553 0.87219 0.65179 0.0
S226 S 0.62936 0.0143 0.53919 0.0
N227 N 0.68236 0.05152 0.56607 0.0
N228 N 0.62944 0.94399 0.5545 0.0
C229 C 0.67404 0.94849 0.58296 0.0
C230 C 0.70248 0.00678 0.58946 0.0
C231 C 0.81262 0.55087 0.0956 0.0
C232 C 0.78213 0.60436 0.1079 0.0
C233 C 0.78424 0.49438 0.104 0.0
C234 C 0.72365 0.48943 0.12437 0.0
H235 H 0.859 0.55264 0.07988 0.0
H236 H 0.80934 0.4543 0.09364 0.0
S237 S 0.62221 0.61717 0.16066 0.0
N238 N 0.68711 0.6495 0.14025 0.0
N239 N 0.63351 0.54379 0.15542 0.0
C240 C 0.69233 0.54294 0.13621 0.0
C241 C 0.72161 0.6002 0.12811 0.0
C242 C 0.19912 0.49433 0.39585 0.0
C243 C 0.25432 0.48817 0.37136 0.0
C244 C 0.17135 0.55123 0.40419 0.0
C245 C 0.19694 0.60375 0.38771 0.0
H246 H 0.17803 0.455 0.4094 0.0
H247 H 0.12919 0.55404 0.42316 0.0
S248 S 0.34172 0.61306 0.32273 0.0
N249 N 0.33413 0.54027 0.33163 0.0
N250 N 0.28163 0.64663 0.34671 0.0
C251 C 0.25205 0.59829 0.36329 0.0
C252 C 0.28079 0.54071 0.35524 0.0
C253 C 0.27753 0.00789 0.89201 0.0
C254 C 0.22321 0.01337 0.86686 0.0
C255 C 0.30477 0.95124 0.90139 0.0
C256 C 0.27955 0.89822 0.88535 0.0
H257 H 0.29834 0.04763 0.90525 0.0
H258 H 0.34636 0.94905 0.92078 0.0
S259 S 0.13657 0.88737 0.81912 0.0
N260 N 0.14424 0.96042 0.82718 0.0
N261 N 0.19574 0.85432 0.84409 0.0
C262 C 0.22507 0.90305 0.86036 0.0
C263 C 0.19683 0.96046 0.8513 0.0
C264 C 0.49767 0.44199 0.51049 0.0
C265 C 0.45357 0.45233 0.48088 0.0
C266 C 0.5422 0.48692 0.52235 0.0
C267 C 0.54379 0.54499 0.50568 0.0
H268 H 0.49851 0.3986 0.52442 0.0
H269 H 0.57465 0.47611 0.54562 0.0
S270 S 0.44015 0.59537 0.42594 0.0
N271 N 0.41515 0.52574 0.43432 0.0
N272 N 0.49919 0.60919 0.45696 0.0
C273 C 0.50075 0.55584 0.47568 0.0
C274 C 0.45519 0.51015 0.46348 0.0
C275 C 0.95699 0.00565 0.02288 0.0
C276 C 0.95401 0.94784 0.00593 0.0
C277 C 0.00245 0.04982 0.01126 0.0
C278 C 0.04652 0.03885 0.98174 0.0
H279 H 0.92449 0.01714 0.046 0.0
H280 H 0.00188 0.09332 0.02506 0.0
S281 S 0.05672 0.89666 0.92603 0.0
N282 N -0.00277 0.88341 0.9569 0.0
N283 N 0.08384 0.96547 0.93503 0.0
C284 C 0.04404 0.98124 0.96424 0.0
C285 C -0.00277 0.93633 0.97608 0.0
C286 C 0.94527 0.99125 0.51709 0.0
C287 C 0.95606 0.05179 0.50592 0.0
C288 C 0.99065 0.945 0.50831 0.0
C289 C 0.04887 0.95713 0.48782 0.0
H290 H 0.90133 0.97933 0.53325 0.0
H291 H 0.97857 0.89918 0.51645 0.0
S292 S 0.10285 0.10775 0.45282 0.0
N293 N 0.03065 0.12111 0.47387 0.0
N294 N 0.11682 0.03474 0.45781 0.0
C295 C 0.06138 0.01773 0.47724 0.0
C296 C 0.01464 0.06473 0.48585 0.0
C297 C 0.44937 0.49595 0.97258 0.0
C298 C 0.4551 0.55579 0.98622 0.0
C299 C 0.49636 0.45112 0.9814 0.0
C300 C 0.55034 0.46347 0.00508 0.0
H301 H 0.40815 0.48329 0.95452 0.0
H302 H 0.4886 0.40589 0.9708 0.0
S303 S 0.59044 0.61256 0.0477 0.0
N304 N 0.52099 0.62499 0.02378 0.0
N305 N 0.60928 0.54081 0.04083 0.0
C306 C 0.55799 0.52348 0.01823 0.0
C307 C 0.5101 0.56931 0.00908 0.0
C308 C 0.44993 0.31623 0.21007 0.0
C309 C 0.51895 0.30077 0.20794 0.0
C310 C 0.41469 0.31512 0.24387 0.0
C311 C 0.44699 0.29855 0.27695 0.0
H312 H 0.42308 0.33168 0.18566 0.0
H313 H 0.36299 0.3305 0.24436 0.0
S314 S 0.62303 0.244 0.2861 0.0
N315 N 0.61535 0.26123 0.24164 0.0
N316 N 0.54927 0.25883 0.30503 0.0
C317 C 0.51443 0.27887 0.27491 0.0
C318 C 0.55036 0.28009 0.24052 0.0
C319 C 0.05374 0.20092 0.74745 0.0
C320 C 0.01891 0.20246 0.78132 0.0
C321 C 0.01925 0.19977 0.71349 0.0
C322 C 0.94819 0.20006 0.71172 0.0
H323 H 0.10807 0.19804 0.74704 0.0
H324 H 0.04909 0.19684 0.68837 0.0
S325 S 0.83314 0.21317 0.79239 0.0
N326 N 0.90898 0.21147 0.81096 0.0
N327 N 0.84461 0.20842 0.74703 0.0
C328 C 0.91274 0.20555 0.74528 0.0
C329 C 0.94792 0.20688 0.78002 0.0
C330 C 0.52241 0.68997 0.77879 0.0
C331 C 0.45161 0.69609 0.78049 0.0
C332 C 0.55737 0.6918 0.745 0.0
C333 C 0.52326 0.69976 0.71127 0.0
H334 H 0.55155 0.68199 0.80375 0.0
H335 H 0.61117 0.68429 0.74529 0.0
S336 S 0.33969 0.72716 0.70027 0.0
N337 N 0.34986 0.71678 0.74538 0.0
N338 N 0.41532 0.72085 0.68181 0.0
C339 C 0.45303 0.70974 0.7126 0.0
C340 C 0.41734 0.70779 0.74713 0.0
C341 C 0.918 0.81968 0.24649 0.0
C342 C 0.94989 0.80262 0.21339 0.0
C343 C 0.95365 0.82154 0.28014 0.0
C344 C 0.02275 0.80629 0.28217 0.0
H345 H 0.86614 0.83466 0.24615 0.0
H346 H 0.92686 0.83704 0.30456 0.0
S347 S 0.1264 0.74928 0.2039 0.0
N348 N 0.05227 0.76329 0.18517 0.0
N349 N 0.1191 0.76708 0.24829 0.0
C350 C 0.05395 0.78548 0.24956 0.0
C351 C 0.01761 0.78355 0.21529 0.0
C352 C 0.5975 0.30838 0.4805 0.0
C353 C 0.57844 0.26594 0.45331 0.0
C354 C 0.63989 0.29217 0.51014 0.0
C355 C 0.66598 0.23333 0.513 0.0
H356 H 0.5783 0.354 0.47934 0.0
H357 H 0.65433 0.32645 0.53011 0.0
S358 S 0.63672 0.10706 0.44729 0.0
N359 N 0.59112 0.16322 0.43055 0.0
N360 N 0.67368 0.13382 0.48495 0.0
C361 C 0.64922 0.19117 0.48534 0.0
C362 C 0.60494 0.20721 0.45578 0.0
C363 C 0.89526 0.19584 0.99096 0.0
C364 C 0.9201 0.23815 0.96519 0.0
C365 C 0.85163 0.21365 0.01973 0.0
C366 C 0.83097 0.27419 0.02331 0.0
H367 H 0.91088 0.14905 0.98946 0.0
H368 H 0.832 0.17954 0.03839 0.0
S369 S 0.87993 0.40185 0.96255 0.0
N370 N 0.92026 0.34304 0.94514 0.0
N371 N 0.83707 0.37589 -0.00156 0.0
C372 C 0.85489 0.31659 -0.00244 0.0
C373 C 0.8996 0.29873 0.96866 0.0
C374 C 0.06383 0.28299 0.50351 0.0
C375 C 0.07187 0.23954 0.53208 0.0
C376 C 0.11348 0.29233 0.47648 0.0
C377 C 0.17342 0.25937 0.47743 0.0
H378 H 0.01808 0.30933 0.50137 0.0
H379 H 0.10557 0.32639 0.45528 0.0
S380 S 0.21954 0.13958 0.54505 0.0
N381 N 0.14427 0.16224 0.55853 0.0
N382 N 0.23857 0.18114 0.50842 0.0
C383 C 0.18253 0.21609 0.50572 0.0
C384 C 0.13154 0.20578 0.53283 0.0
C385 C 0.39087 0.30657 0.0008 0.0
C386 C 0.42046 0.26297 0.02415 0.0
C387 C 0.34675 0.28965 0.97211 0.0
C388 C 0.32988 0.2287 0.96634 0.0
H389 H 0.4029 0.35387 0.00417 0.0
H390 H 0.32376 0.32463 0.95526 0.0
S391 S 0.38916 0.09773 0.02142 0.0
N392 N 0.42747 0.15636 0.04023 0.0
N393 N 0.34278 0.12525 0.9873 0.0
C394 C 0.35754 0.18501 0.99006 0.0
C395 C 0.40309 0.20195 0.01876 0.0
C396 C 0.38824 0.6927 0.50617 0.0
C397 C 0.41675 0.73777 0.52883 0.0
C398 C 0.34442 0.70774 0.47696 0.0
C399 C 0.32733 0.76821 0.4697 0.0
H400 H 0.40086 0.64563 0.51051 0.0
H401 H 0.32169 0.67175 0.4609 0.0
S402 S 0.38382 0.90264 0.52224 0.0
N403 N 0.42221 0.84534 0.54264 0.0
N404 N 0.33872 0.87289 0.48836 0.0
C405 C 0.35413 0.81342 0.49253 0.0
C406 C 0.399 0.79839 0.52196 0.0
C407 C 0.10014 0.80564 0.01228 0.0
C408 C 0.0725 0.76007 0.0349 0.0
C409 C 0.14347 0.7914 0.98275 0.0
C410 C 0.16105 0.73127 0.97501 0.0
H411 H 0.08719 0.85257 0.01686 0.0
H412 H 0.16544 0.8278 0.96673 0.0
S413 S 0.10966 0.59602 0.02836 0.0
N414 N 0.06989 0.65251 0.04882 0.0
N415 N 0.15331 0.62654 0.99414 0.0
C416 C 0.13618 0.68562 -0.00181 0.0
C417 C 0.09144 0.69981 0.02791 0.0
C418 C 0.91463 0.70824 0.48134 0.0
C419 C 0.91804 0.76665 0.46543 0.0
C420 C 0.8689 0.69445 0.50964 0.0
C421 C 0.82529 0.73856 0.52355 0.0
H422 H 0.94791 0.67252 0.47206 0.0
H423 H 0.86667 0.64863 0.52017 0.0
S424 S 0.80725 0.89592 0.48978 0.0
N425 N 0.86912 0.86761 0.46453 0.0
N426 N 0.78357 0.84122 0.51807 0.0
C427 C 0.82659 0.79655 0.50769 0.0
C428 C 0.87274 0.81069 0.47854 0.0
C429 C 0.61076 0.802 0.01362 0.0
C430 C 0.66675 0.76416 0.01681 0.0
C431 C 0.56243 0.79169 0.98598 0.0
C432 C 0.56809 0.74274 0.96078 0.0
H433 H 0.60514 0.84053 0.03195 0.0
H434 H 0.51965 0.82194 0.98492 0.0
S435 S 0.70651 0.63035 0.95869 0.0
N436 N 0.72642 0.67649 0.99303 0.0
N437 N 0.63489 0.65601 0.94165 0.0
C438 C 0.62423 0.70457 0.96403 0.0
C439 C 0.67369 0.71559 0.99187 0.0
loop_
_geom_bond_atom_site_label_1
_geom_bond_atom_site_label_2
_geom_bond_distance
_geom_bond_site_symmetry_2
_ccdc_geom_bond_type
Sc0 O3 2.025 . S
Sc0 O10 2.105 . S
Sc0 O13 2.105 . S
Sc0 O16 2.105 . S
Sc0 O19 2.105 . S
Sc1 O3 2.025 . S
Sc1 O11 2.105 . S
Sc1 O15 2.105 . S
Sc1 O17 2.105 . S
Sc1 O21 2.105 . S
Sc2 O3 2.025 . S
Sc2 O12 2.105 . S
Sc2 O14 2.105 . S
Sc2 O18 2.105 . S
Sc2 O20 2.105 . S
O3 Sc0 2.025 . S
O3 Sc1 2.025 . S
O3 Sc2 2.025 . S
C4 O10 1.268 . S
C4 O20 1.268 . S
C5 O11 1.268 . S
C5 O19 1.268 . S
C6 O12 1.268 . S
C6 O21 1.268 . S
C7 O13 1.268 . S
C7 O17 1.268 . S
C8 O14 1.268 . S
C8 O16 1.268 . S
C9 O15 1.268 . S
C9 O18 1.268 . S
O10 Sc0 2.105 . S
O10 C4 1.268 . S
O11 Sc1 2.105 . S
O11 C5 1.268 . S
O12 Sc2 2.105 . S
O12 C6 1.268 . S
O13 Sc0 2.105 . S
O13 C7 1.268 . S
O14 Sc2 2.105 . S
O14 C8 1.268 . S
O15 Sc1 2.105 . S
O15 C9 1.268 . S
O16 Sc0 2.105 . S
O16 C8 1.268 . S
O17 Sc1 2.105 . S
O17 C7 1.268 . S
O18 Sc2 2.105 . S
O18 C9 1.268 . S
O19 Sc0 2.105 . S
O19 C5 1.268 . S
O20 Sc2 2.105 . S
O20 C4 1.268 . S
O21 Sc1 2.105 . S
O21 C6 1.268 . S
Sc22 O25 2.025 . S
Sc22 O32 2.105 . S
Sc22 O35 2.105 . S
Sc22 O38 2.105 . S
Sc22 O41 2.105 . S
Sc23 O25 2.025 . S
Sc23 O33 2.105 . S
Sc23 O37 2.105 . S
Sc23 O39 2.105 . S
Sc23 O43 2.105 . S
Sc24 O25 2.025 . S
Sc24 O34 2.105 1_455 S
Sc24 O36 2.105 . S
Sc24 O40 2.105 . S
Sc24 O42 2.105 . S
O25 Sc22 2.025 . S
O25 Sc23 2.025 . S
O25 Sc24 2.025 . S
C26 O32 1.268 . S
C26 O42 1.268 . S
C27 O33 1.268 . S
C27 O41 1.268 . S
C28 O34 1.268 . S
C28 O43 1.268 1_655 S
C29 O35 1.268 . S
C29 O39 1.268 . S
C30 O36 1.268 . S
C30 O38 1.268 . S
C31 O37 1.268 . S
C31 O40 1.268 . S
O32 Sc22 2.105 . S
O32 C26 1.268 . S
O33 Sc23 2.105 . S
O33 C27 1.268 . S
O34 Sc24 2.105 1_655 S
O34 C28 1.268 . S
O35 Sc22 2.105 . S
O35 C29 1.268 . S
O36 Sc24 2.105 . S
O36 C30 1.268 . S
O37 Sc23 2.105 . S
O37 C31 1.268 . S
O38 Sc22 2.105 . S
O38 C30 1.268 . S
O39 Sc23 2.105 . S
O39 C29 1.268 . S
O40 Sc24 2.105 . S
O40 C31 1.268 . S
O41 Sc22 2.105 . S
O41 C27 1.268 . S
O42 Sc24 2.105 . S
O42 C26 1.268 . S
O43 Sc23 2.105 . S
O43 C28 1.268 1_455 S
Sc44 O47 2.025 . S
Sc44 O54 2.105 . S
Sc44 O57 2.105 . S
Sc44 O60 2.105 . S
Sc44 O63 2.105 . S
Sc45 O47 2.025 . S
Sc45 O55 2.105 . S
Sc45 O59 2.105 . S
Sc45 O61 2.105 . S
Sc45 O65 2.105 . S
Sc46 O47 2.025 . S
Sc46 O56 2.105 1_655 S
Sc46 O58 2.105 . S
Sc46 O62 2.105 . S
Sc46 O64 2.105 . S
O47 Sc44 2.025 . S
O47 Sc45 2.025 . S
O47 Sc46 2.025 . S
C48 O54 1.268 . S
C48 O64 1.268 . S
C49 O55 1.268 . S
C49 O63 1.268 . S
C50 O56 1.268 . S
C50 O65 1.268 1_455 S
C51 O57 1.268 . S
C51 O61 1.268 . S
C52 O58 1.268 . S
C52 O60 1.268 . S
C53 O59 1.268 . S
C53 O62 1.268 . S
O54 Sc44 2.105 . S
O54 C48 1.268 . S
O55 Sc45 2.105 . S
O55 C49 1.268 . S
O56 Sc46 2.105 1_455 S
O56 C50 1.268 . S
O57 Sc44 2.105 . S
O57 C51 1.268 . S
O58 Sc46 2.105 . S
O58 C52 1.268 . S
O59 Sc45 2.105 . S
O59 C53 1.268 . S
O60 Sc44 2.105 . S
O60 C52 1.268 . S
O61 Sc45 2.105 . S
O61 C51 1.268 . S
O62 Sc46 2.105 . S
O62 C53 1.268 . S
O63 Sc44 2.105 . S
O63 C49 1.268 . S
O64 Sc46 2.105 . S
O64 C48 1.268 . S
O65 Sc45 2.105 . S
O65 C50 1.268 1_655 S
Sc66 O69 2.025 . S
Sc66 O76 2.105 . S
Sc66 O79 2.105 . S
Sc66 O82 2.105 . S
Sc66 O85 2.105 . S
Sc67 O69 2.025 . S
Sc67 O77 2.105 . S
Sc67 O81 2.105 . S
Sc67 O83 2.105 . S
Sc67 O87 2.105 . S
Sc68 O69 2.025 . S
Sc68 O78 2.105 . S
Sc68 O80 2.105 . S
Sc68 O84 2.105 . S
Sc68 O86 2.105 . S
O69 Sc66 2.025 . S
O69 Sc67 2.025 . S
O69 Sc68 2.025 . S
C70 O76 1.268 . S
C70 O86 1.268 . S
C71 O77 1.268 . S
C71 O85 1.268 . S
C72 O78 1.268 . S
C72 O87 1.268 . S
C73 O79 1.268 . S
C73 O83 1.268 . S
C74 O80 1.268 . S
C74 O82 1.268 . S
C75 O81 1.268 . S
C75 O84 1.268 . S
O76 Sc66 2.105 . S
O76 C70 1.268 . S
O77 Sc67 2.105 . S
O77 C71 1.268 . S
O78 Sc68 2.105 . S
O78 C72 1.268 . S
O79 Sc66 2.105 . S
O79 C73 1.268 . S
O80 Sc68 2.105 . S
O80 C74 1.268 . S
O81 Sc67 2.105 . S
O81 C75 1.268 . S
O82 Sc66 2.105 . S
O82 C74 1.268 . S
O83 Sc67 2.105 . S
O83 C73 1.268 . S
O84 Sc68 2.105 . S
O84 C75 1.268 . S
O85 Sc66 2.105 . S
O85 C71 1.268 . S
O86 Sc68 2.105 . S
O86 C70 1.268 . S
O87 Sc67 2.105 . S
O87 C72 1.268 . S
Sc88 O91 2.025 . S
Sc88 O98 2.105 . S
Sc88 O101 2.105 . S
Sc88 O104 2.105 . S
Sc88 O107 2.105 . S
Sc89 O91 2.025 . S
Sc89 O99 2.105 . S
Sc89 O103 2.105 . S
Sc89 O105 2.105 . S
Sc89 O109 2.105 . S
Sc90 O91 2.025 . S
Sc90 O100 2.105 . S
Sc90 O102 2.105 . S
Sc90 O106 2.105 . S
Sc90 O108 2.105 . S
O91 Sc88 2.025 . S
O91 Sc89 2.025 . S
O91 Sc90 2.025 . S
C92 O98 1.268 . S
C92 O108 1.268 . S
C93 O99 1.268 . S
C93 O107 1.268 . S
C94 O100 1.268 . S
C94 O109 1.268 . S
C95 O101 1.268 . S
C95 O105 1.268 . S
C96 O102 1.268 . S
C96 O104 1.268 . S
C97 O103 1.268 . S
C97 O106 1.268 . S
O98 Sc88 2.105 . S
O98 C92 1.268 . S
O99 Sc89 2.105 . S
O99 C93 1.268 . S
O100 Sc90 2.105 . S
O100 C94 1.268 . S
O101 Sc88 2.105 . S
O101 C95 1.268 . S
O102 Sc90 2.105 . S
O102 C96 1.268 . S
O103 Sc89 2.105 . S
O103 C97 1.268 . S
O104 Sc88 2.105 . S
O104 C96 1.268 . S
O105 Sc89 2.105 . S
O105 C95 1.268 . S
O106 Sc90 2.105 . S
O106 C97 1.268 . S
O107 Sc88 2.105 . S
O107 C93 1.268 . S
O108 Sc90 2.105 . S
O108 C92 1.268 . S
O109 Sc89 2.105 . S
O109 C94 1.268 . S
Sc110 O113 2.025 . S
Sc110 O120 2.105 . S
Sc110 O123 2.105 . S
Sc110 O126 2.105 . S
Sc110 O129 2.105 . S
Sc111 O113 2.025 . S
Sc111 O121 2.105 . S
Sc111 O125 2.105 . S
Sc111 O127 2.105 . S
Sc111 O131 2.105 . S
Sc112 O113 2.025 . S
Sc112 O122 2.105 . S
Sc112 O124 2.105 . S
Sc112 O128 2.105 1_655 S
Sc112 O130 2.105 . S
O113 Sc110 2.025 . S
O113 Sc111 2.025 . S
O113 Sc112 2.025 . S
C114 O120 1.268 . S
C114 O130 1.268 . S
C115 O121 1.268 . S
C115 O129 1.268 . S
C116 O122 1.268 . S
C116 O131 1.268 . S
C117 O123 1.268 . S
C117 O127 1.268 . S
C118 O124 1.268 . S
C118 O126 1.268 . S
C119 O125 1.268 1_455 S
C119 O128 1.268 . S
O120 Sc110 2.105 . S
O120 C114 1.268 . S
O121 Sc111 2.105 . S
O121 C115 1.268 . S
O122 Sc112 2.105 . S
O122 C116 1.268 . S
O123 Sc110 2.105 . S
O123 C117 1.268 . S
O124 Sc112 2.105 . S
O124 C118 1.268 . S
O125 Sc111 2.105 . S
O125 C119 1.268 1_655 S
O126 Sc110 2.105 . S
O126 C118 1.268 . S
O127 Sc111 2.105 . S
O127 C117 1.268 . S
O128 Sc112 2.105 1_455 S
O128 C119 1.268 . S
O129 Sc110 2.105 . S
O129 C115 1.268 . S
O130 Sc112 2.105 . S
O130 C114 1.268 . S
O131 Sc111 2.105 . S
O131 C116 1.268 . S
Sc132 O135 2.025 . S
Sc132 O142 2.105 . S
Sc132 O145 2.105 . S
Sc132 O148 2.105 . S
Sc132 O151 2.105 1_455 S
Sc133 O135 2.025 . S
Sc133 O143 2.105 . S
Sc133 O147 2.105 . S
Sc133 O149 2.105 . S
Sc133 O153 2.105 . S
Sc134 O135 2.025 . S
Sc134 O144 2.105 . S
Sc134 O146 2.105 . S
Sc134 O150 2.105 . S
Sc134 O152 2.105 . S
O135 Sc132 2.025 . S
O135 Sc133 2.025 . S
O135 Sc134 2.025 . S
C136 O142 1.268 . S
C136 O152 1.268 . S
C137 O143 1.268 1_655 S
C137 O151 1.268 . S
C138 O144 1.268 . S
C138 O153 1.268 . S
C139 O145 1.268 . S
C139 O149 1.268 . S
C140 O146 1.268 . S
C140 O148 1.268 . S
C141 O147 1.268 . S
C141 O150 1.268 . S
O142 Sc132 2.105 . S
O142 C136 1.268 . S
O143 Sc133 2.105 . S
O143 C137 1.268 1_455 S
O144 Sc134 2.105 . S
O144 C138 1.268 . S
O145 Sc132 2.105 . S
O145 C139 1.268 . S
O146 Sc134 2.105 . S
O146 C140 1.268 . S
O147 Sc133 2.105 . S
O147 C141 1.268 . S
O148 Sc132 2.105 . S
O148 C140 1.268 . S
O149 Sc133 2.105 . S
O149 C139 1.268 . S
O150 Sc134 2.105 . S
O150 C141 1.268 . S
O151 Sc132 2.105 1_655 S
O151 C137 1.268 . S
O152 Sc134 2.105 . S
O152 C136 1.268 . S
O153 Sc133 2.105 . S
O153 C138 1.268 . S
Sc154 O157 2.025 . S
Sc154 O164 2.105 . S
Sc154 O167 2.105 . S
Sc154 O170 2.105 . S
Sc154 O173 2.105 . S
Sc155 O157 2.025 . S
Sc155 O165 2.105 . S
Sc155 O169 2.105 . S
Sc155 O171 2.105 . S
Sc155 O175 2.105 . S
Sc156 O157 2.025 . S
Sc156 O166 2.105 . S
Sc156 O168 2.105 . S
Sc156 O172 2.105 . S
Sc156 O174 2.105 . S
O157 Sc154 2.025 . S
O157 Sc155 2.025 . S
O157 Sc156 2.025 . S
C158 O164 1.268 . S
C158 O174 1.268 . S
C159 O165 1.268 . S
C159 O173 1.268 . S
C160 O166 1.268 . S
C160 O175 1.268 . S
C161 O167 1.268 . S
C161 O171 1.268 . S
C162 O168 1.268 . S
C162 O170 1.268 . S
C163 O169 1.268 . S
C163 O172 1.268 . S
O164 Sc154 2.105 . S
O164 C158 1.268 . S
O165 Sc155 2.105 . S
O165 C159 1.268 . S
O166 Sc156 2.105 . S
O166 C160 1.268 . S
O167 Sc154 2.105 . S
O167 C161 1.268 . S
O168 Sc156 2.105 . S
O168 C162 1.268 . S
O169 Sc155 2.105 . S
O169 C163 1.268 . S
O170 Sc154 2.105 . S
O170 C162 1.268 . S
O171 Sc155 2.105 . S
O171 C161 1.268 . S
O172 Sc156 2.105 . S
O172 C163 1.268 . S
O173 Sc154 2.105 . S
O173 C159 1.268 . S
O174 Sc156 2.105 . S
O174 C158 1.268 . S
O175 Sc155 2.105 . S
O175 C160 1.268 . S
C176 C177 1.369 1_545 S
C176 C178 1.419 . S
C176 H180 0.931 . S
C177 C176 1.369 1_565 S
C177 C186 1.429 1_565 S
C178 C176 1.419 . S
C178 C179 1.363 . S
C178 H181 0.929 . S
C179 C178 1.363 . S
C179 C185 1.428 . S
H180 C176 0.931 . S
H181 C178 0.929 . S
S182 N183 1.613 . S
S182 N184 1.610 . S
N183 S182 1.613 . S
N183 C186 1.350 . S
N184 S182 1.610 . S
N184 C185 1.351 . S
C185 C179 1.428 . S
C185 N184 1.351 . S
C185 C186 1.434 . S
C186 C177 1.429 1_545 S
C186 N183 1.350 . S
C186 C185 1.434 . S
C187 C188 1.369 . S
C187 C189 1.419 . S
C187 H191 0.930 . S
C188 C187 1.369 . S
C188 C197 1.429 . S
C189 C187 1.419 . S
C189 C190 1.363 . S
C189 H192 0.929 . S
C190 C189 1.363 . S
C190 C196 1.428 . S
H191 C187 0.930 . S
H192 C189 0.929 . S
S193 N194 1.613 . S
S193 N195 1.610 . S
N194 S193 1.613 . S
N194 C197 1.350 . S
N195 S193 1.610 . S
N195 C196 1.351 . S
C196 C190 1.428 . S
C196 N195 1.351 . S
C196 C197 1.434 . S
C197 C188 1.429 . S
C197 N194 1.350 . S
C197 C196 1.434 . S
C198 C199 1.369 . S
C198 C200 1.419 . S
C198 H202 0.930 . S
C199 C198 1.369 . S
C199 C208 1.429 . S
C200 C198 1.419 . S
C200 C201 1.363 . S
C200 H203 0.929 . S
C201 C200 1.363 . S
C201 C207 1.428 . S
H202 C198 0.930 . S
H203 C200 0.929 . S
S204 N205 1.613 . S
S204 N206 1.610 . S
N205 S204 1.613 . S
N205 C208 1.350 . S
N206 S204 1.610 . S
N206 C207 1.351 . S
C207 C201 1.428 . S
C207 N206 1.351 . S
C207 C208 1.434 . S
C208 C199 1.429 . S
C208 N205 1.350 . S
C208 C207 1.434 . S
C209 C210 1.369 . S
C209 C211 1.419 1_545 S
C209 H213 0.930 . S
C210 C209 1.369 . S
C210 C219 1.429 . S
C211 C209 1.419 1_565 S
C211 C212 1.364 . S
C211 H214 0.929 . S
C212 C211 1.364 . S
C212 C218 1.417 1_565 S
H213 C209 0.930 . S
H214 C211 0.929 . S
S215 N216 1.613 . S
S215 N217 1.610 . S
N216 S215 1.613 . S
N216 C219 1.350 . S
N217 S215 1.610 . S
N217 C218 1.351 . S
C218 C212 1.417 1_545 S
C218 N217 1.351 . S
C218 C219 1.434 . S
C219 C210 1.429 . S
C219 N216 1.350 . S
C219 C218 1.434 . S
C220 C221 1.369 1_565 S
C220 C222 1.419 . S
C220 H224 0.930 . S
C221 C220 1.369 1_545 S
C221 C230 1.429 . S
C222 C220 1.419 . S
C222 C223 1.363 . S
C222 H225 0.929 . S
C223 C222 1.363 . S
C223 C229 1.428 . S
H224 C220 0.930 . S
H225 C222 0.929 . S
S226 N227 1.613 . S
S226 N228 1.610 1_545 S
N227 S226 1.613 . S
N227 C230 1.350 . S
N228 S226 1.610 1_565 S
N228 C229 1.351 . S
C229 C223 1.428 . S
C229 N228 1.351 . S
C229 C230 1.434 1_565 S
C230 C221 1.429 . S
C230 N227 1.350 . S
C230 C229 1.434 1_545 S
C231 C232 1.369 . S
C231 C233 1.419 . S
C231 H235 0.930 . S
C232 C231 1.369 . S
C232 C241 1.429 . S
C233 C231 1.419 . S
C233 C234 1.363 . S
C233 H236 0.929 . S
C234 C233 1.363 . S
C234 C240 1.428 . S
H235 C231 0.930 . S
H236 C233 0.929 . S
S237 N238 1.613 . S
S237 N239 1.610 . S
N238 S237 1.613 . S
N238 C241 1.350 . S
N239 S237 1.610 . S
N239 C240 1.351 . S
C240 C234 1.428 . S
C240 N239 1.351 . S
C240 C241 1.434 . S
C241 C232 1.429 . S
C241 N238 1.350 . S
C241 C240 1.434 . S
C242 C243 1.369 . S
C242 C244 1.419 . S
C242 H246 0.930 . S
C243 C242 1.369 . S
C243 C252 1.429 . S
C244 C242 1.419 . S
C244 C245 1.363 . S
C244 H247 0.929 . S
C245 C244 1.363 . S
C245 C251 1.428 . S
H246 C242 0.930 . S
H247 C244 0.929 . S
S248 N249 1.613 . S
S248 N250 1.610 . S
N249 S248 1.613 . S
N249 C252 1.350 . S
N250 S248 1.610 . S
N250 C251 1.351 . S
C251 C245 1.428 . S
C251 N250 1.351 . S
C251 C252 1.434 . S
C252 C243 1.429 . S
C252 N249 1.350 . S
C252 C251 1.434 . S
C253 C254 1.362 1_565 S
C253 C255 1.419 . S
C253 H257 0.930 . S
C254 C253 1.362 1_545 S
C254 C263 1.422 1_545 S
C255 C253 1.419 . S
C255 C256 1.363 . S
C255 H258 0.929 . S
C256 C255 1.363 . S
C256 C262 1.428 . S
H257 C253 0.930 . S
H258 C255 0.929 . S
S259 N260 1.613 . S
S259 N261 1.610 . S
N260 S259 1.613 . S
N260 C263 1.350 . S
N261 S259 1.610 . S
N261 C262 1.351 . S
C262 C256 1.428 . S
C262 N261 1.351 . S
C262 C263 1.434 . S
C263 C254 1.422 1_565 S
C263 N260 1.350 . S
C263 C262 1.434 . S
C264 C265 1.369 . S
C264 C266 1.419 . S
C264 H268 0.930 . S
C265 C264 1.369 . S
C265 C274 1.429 . S
C266 C264 1.419 . S
C266 C267 1.363 . S
C266 H269 0.929 . S
C267 C266 1.363 . S
C267 C273 1.428 . S
H268 C264 0.930 . S
H269 C266 0.929 . S
S270 N271 1.613 . S
S270 N272 1.610 . S
N271 S270 1.613 . S
N271 C274 1.350 . S
N272 S270 1.610 . S
N272 C273 1.351 . S
C273 C267 1.428 . S
C273 N272 1.351 . S
C273 C274 1.434 . S
C274 C265 1.429 . S
C274 N271 1.350 . S
C274 C273 1.434 . S
C275 C276 1.385 . S
C275 C277 1.419 1_665 S
C275 H279 0.930 . S
C276 C275 1.385 . S
C276 C285 1.412 1_554 S
C277 C275 1.419 1_445 S
C277 C278 1.363 1_554 S
C277 H280 0.929 . S
C278 C277 1.363 1_556 S
C278 C284 1.428 . S
H279 C275 0.930 . S
H280 C277 0.929 . S
S281 N282 1.613 1_455 S
S281 N283 1.610 1_565 S
N282 S281 1.613 1_655 S
N282 C285 1.350 . S
N283 S281 1.610 1_545 S
N283 C284 1.351 . S
C284 C278 1.428 . S
C284 N283 1.351 . S
C284 C285 1.434 1_445 S
C285 C276 1.412 1_556 S
C285 N282 1.350 . S
C285 C284 1.434 1_665 S
C286 C287 1.369 1_565 S
C286 C288 1.419 . S
C286 H290 0.930 . S
C287 C286 1.369 1_545 S
C287 C296 1.429 1_655 S
C288 C286 1.419 . S
C288 C289 1.363 1_655 S
C288 H291 0.929 . S
C289 C288 1.363 1_455 S
C289 C295 1.428 1_565 S
H290 C286 0.930 . S
H291 C288 0.929 . S
S292 N293 1.613 . S
S292 N294 1.610 . S
N293 S292 1.613 . S
N293 C296 1.350 . S
N294 S292 1.610 . S
N294 C295 1.351 . S
C295 C289 1.428 1_545 S
C295 N294 1.351 . S
C295 C296 1.434 . S
C296 C287 1.429 1_455 S
C296 N293 1.350 . S
C296 C295 1.434 . S
C297 C298 1.386 . S
C297 C299 1.419 . S
C297 H301 0.930 . S
C298 C297 1.386 . S
C298 C307 1.411 1_556 S
C299 C297 1.419 . S
C299 C300 1.363 1_556 S
C299 H302 0.929 . S
C300 C299 1.363 1_554 S
C300 C306 1.428 . S
H301 C297 0.930 . S
H302 C299 0.929 . S
S303 N304 1.613 . S
S303 N305 1.610 . S
N304 S303 1.613 . S
N304 C307 1.350 . S
N305 S303 1.610 . S
N305 C306 1.351 . S
C306 C300 1.428 . S
C306 N305 1.351 . S
C306 C307 1.434 . S
C307 C298 1.411 1_554 S
C307 N304 1.350 . S
C307 C306 1.434 . S
C308 C309 1.369 . S
C308 C310 1.419 . S
C308 H312 0.930 . S
C309 C308 1.369 . S
C309 C318 1.429 . S
C310 C308 1.419 . S
C310 C311 1.363 . S
C310 H313 0.929 . S
C311 C310 1.363 . S
C311 C317 1.428 . S
H312 C308 0.930 . S
H313 C310 0.929 . S
S314 N315 1.613 . S
S314 N316 1.610 . S
N315 S314 1.613 . S
N315 C318 1.350 . S
N316 S314 1.610 . S
N316 C317 1.351 . S
C317 C311 1.428 . S
C317 N316 1.351 . S
C317 C318 1.434 . S
C318 C309 1.429 . S
C318 N315 1.350 . S
C318 C317 1.434 . S
C319 C320 1.369 . S
C319 C321 1.419 . S
C319 H323 0.930 . S
C320 C319 1.369 . S
C320 C329 1.429 1_455 S
C321 C319 1.419 . S
C321 C322 1.363 1_455 S
C321 H324 0.929 . S
C322 C321 1.363 1_655 S
C322 C328 1.428 . S
H323 C319 0.930 . S
H324 C321 0.929 . S
S325 N326 1.613 . S
S325 N327 1.610 . S
N326 S325 1.613 . S
N326 C329 1.350 . S
N327 S325 1.610 . S
N327 C328 1.351 . S
C328 C322 1.428 . S
C328 N327 1.351 . S
C328 C329 1.434 . S
C329 C320 1.429 1_655 S
C329 N326 1.350 . S
C329 C328 1.434 . S
C330 C331 1.369 . S
C330 C332 1.419 . S
C330 H334 0.930 . S
C331 C330 1.369 . S
C331 C340 1.429 . S
C332 C330 1.419 . S
C332 C333 1.363 . S
C332 H335 0.929 . S
C333 C332 1.363 . S
C333 C339 1.428 . S
H334 C330 0.930 . S
H335 C332 0.929 . S
S336 N337 1.613 . S
S336 N338 1.610 . S
N337 S336 1.613 . S
N337 C340 1.350 . S
N338 S336 1.610 . S
N338 C339 1.351 . S
C339 C333 1.428 . S
C339 N338 1.351 . S
C339 C340 1.434 . S
C340 C331 1.429 . S
C340 N337 1.350 . S
C340 C339 1.434 . S
C341 C342 1.369 . S
C341 C343 1.419 . S
C341 H345 0.930 . S
C342 C341 1.369 . S
C342 C351 1.429 1_655 S
C343 C341 1.419 . S
C343 C344 1.363 1_655 S
C343 H346 0.929 . S
C344 C343 1.363 1_455 S
C344 C350 1.428 . S
H345 C341 0.930 . S
H346 C343 0.929 . S
S347 N348 1.613 . S
S347 N349 1.610 . S
N348 S347 1.613 . S
N348 C351 1.350 . S
N349 S347 1.610 . S
N349 C350 1.351 . S
C350 C344 1.428 . S
C350 N349 1.351 . S
C350 C351 1.434 . S
C351 C342 1.429 1_455 S
C351 N348 1.350 . S
C351 C350 1.434 . S
C352 C353 1.369 . S
C352 C354 1.419 . S
C352 H356 0.930 . S
C353 C352 1.369 . S
C353 C362 1.429 . S
C354 C352 1.419 . S
C354 C355 1.363 . S
C354 H357 0.929 . S
C355 C354 1.363 . S
C355 C361 1.428 . S
H356 C352 0.930 . S
H357 C354 0.929 . S
S358 N359 1.613 . S
S358 N360 1.610 . S
N359 S358 1.613 . S
N359 C362 1.350 . S
N360 S358 1.610 . S
N360 C361 1.351 . S
C361 C355 1.428 . S
C361 N360 1.351 . S
C361 C362 1.434 . S
C362 C353 1.429 . S
C362 N359 1.350 . S
C362 C361 1.434 . S
C363 C364 1.369 . S
C363 C365 1.419 1_556 S
C363 H367 0.930 . S
C364 C363 1.369 . S
C364 C373 1.429 . S
C365 C363 1.419 1_554 S
C365 C366 1.363 . S
C365 H368 0.929 . S
C366 C365 1.363 . S
C366 C372 1.428 1_554 S
H367 C363 0.930 . S
H368 C365 0.929 . S
S369 N370 1.613 . S
S369 N371 1.610 . S
N370 S369 1.613 . S
N370 C373 1.350 . S
N371 S369 1.610 . S
N371 C372 1.351 . S
C372 C366 1.428 1_556 S
C372 N371 1.351 . S
C372 C373 1.434 . S
C373 C364 1.429 . S
C373 N370 1.350 . S
C373 C372 1.434 . S
C374 C375 1.369 . S
C374 C376 1.419 . S
C374 H378 0.930 . S
C375 C374 1.369 . S
C375 C384 1.429 . S
C376 C374 1.419 . S
C376 C377 1.363 . S
C376 H379 0.929 . S
C377 C376 1.363 . S
C377 C383 1.428 . S
H378 C374 0.930 . S
H379 C376 0.929 . S
S380 N381 1.613 . S
S380 N382 1.610 . S
N381 S380 1.613 . S
N381 C384 1.350 . S
N382 S380 1.610 . S
N382 C383 1.351 . S
C383 C377 1.428 . S
C383 N382 1.351 . S
C383 C384 1.434 . S
C384 C375 1.429 . S
C384 N381 1.350 . S
C384 C383 1.434 . S
C385 C386 1.369 . S
C385 C387 1.419 . S
C385 H389 0.930 . S
C386 C385 1.369 . S
C386 C395 1.429 . S
C387 C385 1.419 . S
C387 C388 1.363 1_554 S
C387 H390 0.929 . S
C388 C387 1.363 1_556 S
C388 C394 1.428 . S
H389 C385 0.930 . S
H390 C387 0.929 . S
S391 N392 1.613 1_556 S
S391 N393 1.610 . S
N392 S391 1.613 1_554 S
N392 C395 1.350 . S
N393 S391 1.610 . S
N393 C394 1.351 . S
C394 C388 1.428 . S
C394 N393 1.351 . S
C394 C395 1.434 1_556 S
C395 C386 1.429 . S
C395 N392 1.350 . S
C395 C394 1.434 1_554 S
C396 C397 1.369 . S
C396 C398 1.419 . S
C396 H400 0.930 . S
C397 C396 1.369 . S
C397 C406 1.429 . S
C398 C396 1.419 . S
C398 C399 1.363 . S
C398 H401 0.929 . S
C399 C398 1.363 . S
C399 C405 1.428 . S
H400 C396 0.930 . S
H401 C398 0.929 . S
S402 N403 1.613 . S
S402 N404 1.610 . S
N403 S402 1.613 . S
N403 C406 1.350 . S
N404 S402 1.610 . S
N404 C405 1.351 . S
C405 C399 1.428 . S
C405 N404 1.351 . S
C405 C406 1.434 . S
C406 C397 1.429 . S
C406 N403 1.350 . S
C406 C405 1.434 . S
C407 C408 1.369 . S
C407 C409 1.419 . S
C407 H411 0.930 . S
C408 C407 1.369 . S
C408 C417 1.429 . S
C409 C407 1.419 . S
C409 C410 1.363 1_554 S
C409 H412 0.929 . S
C410 C409 1.363 1_556 S
C410 C416 1.428 . S
H411 C407 0.930 . S
H412 C409 0.929 . S
S413 N414 1.614 1_556 S
S413 N415 1.610 . S
N414 S413 1.614 1_554 S
N414 C417 1.350 . S
N415 S413 1.610 . S
N415 C416 1.351 . S
C416 C410 1.428 . S
C416 N415 1.351 . S
C416 C417 1.434 1_556 S
C417 C408 1.429 . S
C417 N414 1.350 . S
C417 C416 1.434 1_554 S
C418 C419 1.369 . S
C418 C420 1.419 . S
C418 H422 0.930 . S
C419 C418 1.369 . S
C419 C428 1.429 . S
C420 C418 1.419 . S
C420 C421 1.363 . S
C420 H423 0.929 . S
C421 C420 1.363 . S
C421 C427 1.428 . S
H422 C418 0.930 . S
H423 C420 0.929 . S
S424 N425 1.613 . S
S424 N426 1.610 . S
N425 S424 1.613 . S
N425 C428 1.350 . S
N426 S424 1.610 . S
N426 C427 1.351 . S
C427 C421 1.428 . S
C427 N426 1.351 . S
C427 C428 1.434 . S
C428 C419 1.429 . S
C428 N425 1.350 . S
C428 C427 1.434 . S
C429 C430 1.369 . S
C429 C431 1.419 1_554 S
C429 H433 0.930 . S
C430 C429 1.369 . S
C430 C439 1.429 1_554 S
C431 C429 1.419 1_556 S
C431 C432 1.363 . S
C431 H434 0.929 . S
C432 C431 1.363 . S
C432 C438 1.428 . S
H433 C429 0.930 . S
H434 C431 0.929 . S
S435 N436 1.613 . S
S435 N437 1.610 . S
N436 S435 1.613 . S
N436 C439 1.350 . S
N437 S435 1.610 . S
N437 C438 1.351 . S
C438 C432 1.428 . S
C438 N437 1.351 . S
C438 C439 1.434 . S
C439 C430 1.429 1_556 S
C439 N436 1.350 . S
C439 C438 1.434 . S
C177 C140 1.697 . S
C179 C5 1.595 . S
C188 C27 1.598 . S
C190 C162 1.695 . S
C199 C96 1.698 . S
C201 C49 1.592 . S
C210 C75 1.588 . S
C212 C114 1.708 . S
C221 C52 1.695 . S
C223 C94 1.597 . S
C232 C117 1.588 . S
C234 C70 1.698 . S
C243 C8 1.698 . S
C245 C138 1.592 . S
C254 C30 1.712 . S
C256 C160 1.594 . S
C265 C9 1.320 . S
C267 C95 1.334 . S
C276 C116 1.340 . S
C278 C31 1.325 . S
C287 C53 1.330 . S
C289 C139 1.327 . S
C298 C161 1.338 . S
C300 C71 1.328 . S
C309 C74 1.539 . S
C311 C4 1.538 . S
C320 C26 1.534 . S
C322 C48 1.535 . S
C331 C158 1.538 . S
C333 C92 1.537 . S
C342 C118 1.538 . S
C344 C136 1.538 . S
C353 C6 1.422 . S
C355 C51 1.534 . S
C364 C28 1.425 . S
C366 C72 1.532 . S
C375 C50 1.414 . S
C377 C7 1.528 . S
C386 C73 1.412 . S
C388 C29 1.534 . S
C397 C93 1.425 . S
C399 C141 1.532 . S
C408 C119 1.419 . S
C410 C163 1.535 . S
C419 C137 1.413 . S
C421 C97 1.528 . S
C430 C115 1.529 . S
C432 C159 1.423 . S
