# Generated by pormake.
# Topology fcn, (5)-cn, num edge types: 1
# Building blocks:
#     Node 0, Type 0, BuildingBlock: XOMCOT_clean_sbu_1, # of connection points: 5
#     Node 1, Type 0, BuildingBlock: XOMCOT_clean_sbu_1, # of connection points: 5
#     Node 2, Type 0, BuildingBlock: XOMCOT_clean_sbu_1, # of connection points: 5
#     Node 3, Type 0, BuildingBlock: XOMCOT_clean_sbu_1, # of connection points: 5
#     Node 4, Type 0, BuildingBlock: XOMCOT_clean_sbu_1, # of connection points: 5
#     Node 5, Type 0, BuildingBlock: XOMCOT_clean_sbu_1, # of connection points: 5
#     Node 6, Type 0, BuildingBlock: XOMCOT_clean_sbu_1, # of connection points: 5
#     Node 7, Type 0, BuildingBlock: XOMCOT_clean_sbu_1, # of connection points: 5
#     Node 8, Type 0, BuildingBlock: XOMCOT_clean_sbu_1, # of connection points: 5
#     Node 9, Type 0, BuildingBlock: XOMCOT_clean_sbu_1, # of connection points: 5
#     Node 10, Type 0, BuildingBlock: XOMCOT_clean_sbu_1, # of connection points: 5
#     Node 11, Type 0, BuildingBlock: XOMCOT_clean_sbu_1, # of connection points: 5
#     Node 12, Type 0, BuildingBlock: XOMCOT_clean_sbu_1, # of connection points: 5
#     Node 13, Type 0, BuildingBlock: XOMCOT_clean_sbu_1, # of connection points: 5
#     Node 14, Type 0, BuildingBlock: XOMCOT_clean_sbu_1, # of connection points: 5
#     Node 15, Type 0, BuildingBlock: XOMCOT_clean_sbu_1, # of connection points: 5
#     Node 16, Type 0, BuildingBlock: XOMCOT_clean_sbu_1, # of connection points: 5
#     Node 17, Type 0, BuildingBlock: XOMCOT_clean_sbu_1, # of connection points: 5
#     Node 18, Type 0, BuildingBlock: XOMCOT_clean_sbu_1, # of connection points: 5
#     Node 19, Type 0, BuildingBlock: XOMCOT_clean_sbu_1, # of connection points: 5
#     Node 20, Type 0, BuildingBlock: XOMCOT_clean_sbu_1, # of connection points: 5
#     Node 21, Type 0, BuildingBlock: XOMCOT_clean_sbu_1, # of connection points: 5
#     Node 22, Type 0, BuildingBlock: XOMCOT_clean_sbu_1, # of connection points: 5
#     Node 23, Type 0, BuildingBlock: XOMCOT_clean_sbu_1, # of connection points: 5
#     Node 24, Type 0, BuildingBlock: XOMCOT_clean_sbu_1, # of connection points: 5
#     Node 25, Type 0, BuildingBlock: XOMCOT_clean_sbu_1, # of connection points: 5
#     Node 26, Type 0, BuildingBlock: XOMCOT_clean_sbu_1, # of connection points: 5
#     Node 27, Type 0, BuildingBlock: XOMCOT_clean_sbu_1, # of connection points: 5
#     Node 28, Type 0, BuildingBlock: XOMCOT_clean_sbu_1, # of connection points: 5
#     Node 29, Type 0, BuildingBlock: XOMCOT_clean_sbu_1, # of connection points: 5
#     Node 30, Type 0, BuildingBlock: XOMCOT_clean_sbu_1, # of connection points: 5
#     Node 31, Type 0, BuildingBlock: XOMCOT_clean_sbu_1, # of connection points: 5
#     Node 32, Type 0, BuildingBlock: XOMCOT_clean_sbu_1, # of connection points: 5
#     Node 33, Type 0, BuildingBlock: XOMCOT_clean_sbu_1, # of connection points: 5
#     Node 34, Type 0, BuildingBlock: XOMCOT_clean_sbu_1, # of connection points: 5
#     Node 35, Type 0, BuildingBlock: XOMCOT_clean_sbu_1, # of connection points: 5
#     Node 36, Type 0, BuildingBlock: XOMCOT_clean_sbu_1, # of connection points: 5
#     Node 37, Type 0, BuildingBlock: XOMCOT_clean_sbu_1, # of connection points: 5
#     Node 38, Type 0, BuildingBlock: XOMCOT_clean_sbu_1, # of connection points: 5
#     Node 39, Type 0, BuildingBlock: XOMCOT_clean_sbu_1, # of connection points: 5
#     Node 40, Type 0, BuildingBlock: XOMCOT_clean_sbu_1, # of connection points: 5
#     Node 41, Type 0, BuildingBlock: XOMCOT_clean_sbu_1, # of connection points: 5
#     Node 42, Type 0, BuildingBlock: XOMCOT_clean_sbu_1, # of connection points: 5
#     Node 43, Type 0, BuildingBlock: XOMCOT_clean_sbu_1, # of connection points: 5
#     Node 44, Type 0, BuildingBlock: XOMCOT_clean_sbu_1, # of connection points: 5
#     Node 45, Type 0, BuildingBlock: XOMCOT_clean_sbu_1, # of connection points: 5
#     Node 46, Type 0, BuildingBlock: XOMCOT_clean_sbu_1, # of connection points: 5
#     Node 47, Type 0, BuildingBlock: XOMCOT_clean_sbu_1, # of connection points: 5
#     Edge 48, Type (0, 0), BuildingBlock: AJUNOK_clean_linker_0, # of connection points: 2
#     Edge 49, Type (0, 0), BuildingBlock: AJUNOK_clean_linker_0, # of connection points: 2
#     Edge 50, Type (0, 0), BuildingBlock: AJUNOK_clean_linker_0, # of connection points: 2
#     Edge 51, Type (0, 0), BuildingBlock: AJUNOK_clean_linker_0, # of connection points: 2
#     Edge 52, Type (0, 0), BuildingBlock: AJUNOK_clean_linker_0, # of connection points: 2
#     Edge 53, Type (0, 0), BuildingBlock: AJUNOK_clean_linker_0, # of connection points: 2
#     Edge 54, Type (0, 0), BuildingBlock: AJUNOK_clean_linker_0, # of connection points: 2
#     Edge 55, Type (0, 0), BuildingBlock: AJUNOK_clean_linker_0, # of connection points: 2
#     Edge 56, Type (0, 0), BuildingBlock: AJUNOK_clean_linker_0, # of connection points: 2
#     Edge 57, Type (0, 0), BuildingBlock: AJUNOK_clean_linker_0, # of connection points: 2
#     Edge 58, Type (0, 0), BuildingBlock: AJUNOK_clean_linker_0, # of connection points: 2
#     Edge 59, Type (0, 0), BuildingBlock: AJUNOK_clean_linker_0, # of connection points: 2
#     Edge 60, Type (0, 0), BuildingBlock: AJUNOK_clean_linker_0, # of connection points: 2
#     Edge 61, Type (0, 0), BuildingBlock: AJUNOK_clean_linker_0, # of connection points: 2
#     Edge 62, Type (0, 0), BuildingBlock: AJUNOK_clean_linker_0, # of connection points: 2
#     Edge 63, Type (0, 0), BuildingBlock: AJUNOK_clean_linker_0, # of connection points: 2
#     Edge 64, Type (0, 0), BuildingBlock: AJUNOK_clean_linker_0, # of connection points: 2
#     Edge 65, Type (0, 0), BuildingBlock: AJUNOK_clean_linker_0, # of connection points: 2
#     Edge 66, Type (0, 0), BuildingBlock: AJUNOK_clean_linker_0, # of connection points: 2
#     Edge 67, Type (0, 0), BuildingBlock: AJUNOK_clean_linker_0, # of connection points: 2
#     Edge 68, Type (0, 0), BuildingBlock: AJUNOK_clean_linker_0, # of connection points: 2
#     Edge 69, Type (0, 0), BuildingBlock: AJUNOK_clean_linker_0, # of connection points: 2
#     Edge 70, Type (0, 0), BuildingBlock: AJUNOK_clean_linker_0, # of connection points: 2
#     Edge 71, Type (0, 0), BuildingBlock: AJUNOK_clean_linker_0, # of connection points: 2
#     Edge 72, Type (0, 0), BuildingBlock: AJUNOK_clean_linker_0, # of connection points: 2
#     Edge 73, Type (0, 0), BuildingBlock: AJUNOK_clean_linker_0, # of connection points: 2
#     Edge 74, Type (0, 0), BuildingBlock: AJUNOK_clean_linker_0, # of connection points: 2
#     Edge 75, Type (0, 0), BuildingBlock: AJUNOK_clean_linker_0, # of connection points: 2
#     Edge 76, Type (0, 0), BuildingBlock: AJUNOK_clean_linker_0, # of connection points: 2
#     Edge 77, Type (0, 0), BuildingBlock: AJUNOK_clean_linker_0, # of connection points: 2
#     Edge 78, Type (0, 0), BuildingBlock: AJUNOK_clean_linker_0, # of connection points: 2
#     Edge 79, Type (0, 0), BuildingBlock: AJUNOK_clean_linker_0, # of connection points: 2
#     Edge 80, Type (0, 0), BuildingBlock: AJUNOK_clean_linker_0, # of connection points: 2
#     Edge 81, Type (0, 0), BuildingBlock: AJUNOK_clean_linker_0, # of connection points: 2
#     Edge 82, Type (0, 0), BuildingBlock: AJUNOK_clean_linker_0, # of connection points: 2
#     Edge 83, Type (0, 0), BuildingBlock: AJUNOK_clean_linker_0, # of connection points: 2
#     Edge 84, Type (0, 0), BuildingBlock: AJUNOK_clean_linker_0, # of connection points: 2
#     Edge 85, Type (0, 0), BuildingBlock: AJUNOK_clean_linker_0, # of connection points: 2
#     Edge 86, Type (0, 0), BuildingBlock: AJUNOK_clean_linker_0, # of connection points: 2
#     Edge 87, Type (0, 0), BuildingBlock: AJUNOK_clean_linker_0, # of connection points: 2
#     Edge 88, Type (0, 0), BuildingBlock: AJUNOK_clean_linker_0, # of connection points: 2
#     Edge 89, Type (0, 0), BuildingBlock: AJUNOK_clean_linker_0, # of connection points: 2
#     Edge 90, Type (0, 0), BuildingBlock: AJUNOK_clean_linker_0, # of connection points: 2
#     Edge 91, Type (0, 0), BuildingBlock: AJUNOK_clean_linker_0, # of connection points: 2
#     Edge 92, Type (0, 0), BuildingBlock: AJUNOK_clean_linker_0, # of connection points: 2
#     Edge 93, Type (0, 0), BuildingBlock: AJUNOK_clean_linker_0, # of connection points: 2
#     Edge 94, Type (0, 0), BuildingBlock: AJUNOK_clean_linker_0, # of connection points: 2
#     Edge 95, Type (0, 0), BuildingBlock: AJUNOK_clean_linker_0, # of connection points: 2
#     Edge 96, Type (0, 0), BuildingBlock: AJUNOK_clean_linker_0, # of connection points: 2
#     Edge 97, Type (0, 0), BuildingBlock: AJUNOK_clean_linker_0, # of connection points: 2
#     Edge 98, Type (0, 0), BuildingBlock: AJUNOK_clean_linker_0, # of connection points: 2
#     Edge 99, Type (0, 0), BuildingBlock: AJUNOK_clean_linker_0, # of connection points: 2
#     Edge 100, Type (0, 0), BuildingBlock: AJUNOK_clean_linker_0, # of connection points: 2
#     Edge 101, Type (0, 0), BuildingBlock: AJUNOK_clean_linker_0, # of connection points: 2
#     Edge 102, Type (0, 0), BuildingBlock: AJUNOK_clean_linker_0, # of connection points: 2
#     Edge 103, Type (0, 0), BuildingBlock: AJUNOK_clean_linker_0, # of connection points: 2
#     Edge 104, Type (0, 0), BuildingBlock: AJUNOK_clean_linker_0, # of connection points: 2
#     Edge 105, Type (0, 0), BuildingBlock: AJUNOK_clean_linker_0, # of connection points: 2
#     Edge 106, Type (0, 0), BuildingBlock: AJUNOK_clean_linker_0, # of connection points: 2
#     Edge 107, Type (0, 0), BuildingBlock: AJUNOK_clean_linker_0, # of connection points: 2
#     Edge 108, Type (0, 0), BuildingBlock: AJUNOK_clean_linker_0, # of connection points: 2
#     Edge 109, Type (0, 0), BuildingBlock: AJUNOK_clean_linker_0, # of connection points: 2
#     Edge 110, Type (0, 0), BuildingBlock: AJUNOK_clean_linker_0, # of connection points: 2
#     Edge 111, Type (0, 0), BuildingBlock: AJUNOK_clean_linker_0, # of connection points: 2
#     Edge 112, Type (0, 0), BuildingBlock: AJUNOK_clean_linker_0, # of connection points: 2
#     Edge 113, Type (0, 0), BuildingBlock: AJUNOK_clean_linker_0, # of connection points: 2
#     Edge 114, Type (0, 0), BuildingBlock: AJUNOK_clean_linker_0, # of connection points: 2
#     Edge 115, Type (0, 0), BuildingBlock: AJUNOK_clean_linker_0, # of connection points: 2
#     Edge 116, Type (0, 0), BuildingBlock: AJUNOK_clean_linker_0, # of connection points: 2
#     Edge 117, Type (0, 0), BuildingBlock: AJUNOK_clean_linker_0, # of connection points: 2
#     Edge 118, Type (0, 0), BuildingBlock: AJUNOK_clean_linker_0, # of connection points: 2
#     Edge 119, Type (0, 0), BuildingBlock: AJUNOK_clean_linker_0, # of connection points: 2
#     Edge 120, Type (0, 0), BuildingBlock: AJUNOK_clean_linker_0, # of connection points: 2
#     Edge 121, Type (0, 0), BuildingBlock: AJUNOK_clean_linker_0, # of connection points: 2
#     Edge 122, Type (0, 0), BuildingBlock: AJUNOK_clean_linker_0, # of connection points: 2
#     Edge 123, Type (0, 0), BuildingBlock: AJUNOK_clean_linker_0, # of connection points: 2
#     Edge 124, Type (0, 0), BuildingBlock: AJUNOK_clean_linker_0, # of connection points: 2
#     Edge 125, Type (0, 0), BuildingBlock: AJUNOK_clean_linker_0, # of connection points: 2
#     Edge 126, Type (0, 0), BuildingBlock: AJUNOK_clean_linker_0, # of connection points: 2
#     Edge 127, Type (0, 0), BuildingBlock: AJUNOK_clean_linker_0, # of connection points: 2
#     Edge 128, Type (0, 0), BuildingBlock: AJUNOK_clean_linker_0, # of connection points: 2
#     Edge 129, Type (0, 0), BuildingBlock: AJUNOK_clean_linker_0, # of connection points: 2
#     Edge 130, Type (0, 0), BuildingBlock: AJUNOK_clean_linker_0, # of connection points: 2
#     Edge 131, Type (0, 0), BuildingBlock: AJUNOK_clean_linker_0, # of connection points: 2
#     Edge 132, Type (0, 0), BuildingBlock: AJUNOK_clean_linker_0, # of connection points: 2
#     Edge 133, Type (0, 0), BuildingBlock: AJUNOK_clean_linker_0, # of connection points: 2
#     Edge 134, Type (0, 0), BuildingBlock: AJUNOK_clean_linker_0, # of connection points: 2
#     Edge 135, Type (0, 0), BuildingBlock: AJUNOK_clean_linker_0, # of connection points: 2
#     Edge 136, Type (0, 0), BuildingBlock: AJUNOK_clean_linker_0, # of connection points: 2
#     Edge 137, Type (0, 0), BuildingBlock: AJUNOK_clean_linker_0, # of connection points: 2
#     Edge 138, Type (0, 0), BuildingBlock: AJUNOK_clean_linker_0, # of connection points: 2
#     Edge 139, Type (0, 0), BuildingBlock: AJUNOK_clean_linker_0, # of connection points: 2
#     Edge 140, Type (0, 0), BuildingBlock: AJUNOK_clean_linker_0, # of connection points: 2
#     Edge 141, Type (0, 0), BuildingBlock: AJUNOK_clean_linker_0, # of connection points: 2
#     Edge 142, Type (0, 0), BuildingBlock: AJUNOK_clean_linker_0, # of connection points: 2
#     Edge 143, Type (0, 0), BuildingBlock: AJUNOK_clean_linker_0, # of connection points: 2
#     Edge 144, Type (0, 0), BuildingBlock: AJUNOK_clean_linker_0, # of connection points: 2
#     Edge 145, Type (0, 0), BuildingBlock: AJUNOK_clean_linker_0, # of connection points: 2
#     Edge 146, Type (0, 0), BuildingBlock: AJUNOK_clean_linker_0, # of connection points: 2
#     Edge 147, Type (0, 0), BuildingBlock: AJUNOK_clean_linker_0, # of connection points: 2
#     Edge 148, Type (0, 0), BuildingBlock: AJUNOK_clean_linker_0, # of connection points: 2
#     Edge 149, Type (0, 0), BuildingBlock: AJUNOK_clean_linker_0, # of connection points: 2
#     Edge 150, Type (0, 0), BuildingBlock: AJUNOK_clean_linker_0, # of connection points: 2
#     Edge 151, Type (0, 0), BuildingBlock: AJUNOK_clean_linker_0, # of connection points: 2
#     Edge 152, Type (0, 0), BuildingBlock: AJUNOK_clean_linker_0, # of connection points: 2
#     Edge 153, Type (0, 0), BuildingBlock: AJUNOK_clean_linker_0, # of connection points: 2
#     Edge 154, Type (0, 0), BuildingBlock: AJUNOK_clean_linker_0, # of connection points: 2
#     Edge 155, Type (0, 0), BuildingBlock: AJUNOK_clean_linker_0, # of connection points: 2
#     Edge 156, Type (0, 0), BuildingBlock: AJUNOK_clean_linker_0, # of connection points: 2
#     Edge 157, Type (0, 0), BuildingBlock: AJUNOK_clean_linker_0, # of connection points: 2
#     Edge 158, Type (0, 0), BuildingBlock: AJUNOK_clean_linker_0, # of connection points: 2
#     Edge 159, Type (0, 0), BuildingBlock: AJUNOK_clean_linker_0, # of connection points: 2
#     Edge 160, Type (0, 0), BuildingBlock: AJUNOK_clean_linker_0, # of connection points: 2
#     Edge 161, Type (0, 0), BuildingBlock: AJUNOK_clean_linker_0, # of connection points: 2
#     Edge 162, Type (0, 0), BuildingBlock: AJUNOK_clean_linker_0, # of connection points: 2
#     Edge 163, Type (0, 0), BuildingBlock: AJUNOK_clean_linker_0, # of connection points: 2
#     Edge 164, Type (0, 0), BuildingBlock: AJUNOK_clean_linker_0, # of connection points: 2
#     Edge 165, Type (0, 0), BuildingBlock: AJUNOK_clean_linker_0, # of connection points: 2
#     Edge 166, Type (0, 0), BuildingBlock: AJUNOK_clean_linker_0, # of connection points: 2
#     Edge 167, Type (0, 0), BuildingBlock: AJUNOK_clean_linker_0, # of connection points: 2
# Relax obj value: 0.274
# Max RMSD: 0.222
# Mean RMSD: 0.222
data_MOF--net-fcn--node1-XOMCOT_clean_sbu_1--edge1-AJUNOK_clean_linker_0
_symmetry_space_group_name_H-M    P1
_symmetry_Int_Tables_number       1
_symmetry_cell_setting            triclinic
loop_
_symmetry_equiv_pos_as_xyz
'x, y, z'
_cell_length_a     57.613723
_cell_length_b     57.628534
_cell_length_c     57.622263
_cell_angle_alpha  89.984403
_cell_angle_beta   90.002091
_cell_angle_gamma 89.97803
loop_
_atom_site_label
_atom_site_type_symbol
_atom_site_fract_x
_atom_site_fract_y
_atom_site_fract_z
_atom_type_partial_charge
C0 C 0.08585 0.2222 0.29333 0.0
C1 C 0.06734 0.23685 0.29696 0.0
N2 N 0.04948 0.22959 0.28375 0.0
N3 N 0.07963 0.20557 0.27812 0.0
C4 C 0.0574 0.21062 0.27242 0.0
H5 H 0.10264 0.22319 0.30167 0.0
Co6 Co 0.09869 0.18093 0.26933 0.0
C7 C 0.05846 0.14642 0.26391 0.0
O8 O 0.05943 0.13653 0.28438 0.0
N9 N 0.11786 0.15605 0.26003 0.0
C10 C 0.13251 0.1207 0.25454 0.0
C11 C 0.11437 0.13314 0.26369 0.0
C12 C 0.13843 0.15705 0.2488 0.0
N13 N 0.14769 0.13579 0.24531 0.0
O14 O 0.10112 0.19372 0.2391 0.0
H15 H 0.10005 0.12578 0.27318 0.0
H16 H 0.14656 0.17303 0.24337 0.0
O17 O 0.07222 0.16293 0.25849 0.0
C18 C 0.11664 0.20931 0.23738 0.0
O19 O 0.12792 0.21545 0.25622 0.0
N20 N 0.09807 0.16956 0.29983 0.0
C21 C 0.10278 0.15018 0.34369 0.0
C22 C 0.08093 0.15754 0.33578 0.0
C23 C 0.07904 0.16782 0.31385 0.0
C24 C 0.11964 0.16547 0.30866 0.0
C25 C 0.12238 0.15532 0.33033 0.0
H26 H 0.06221 0.17346 0.30775 0.0
H27 H 0.13491 0.16928 0.29845 0.0
H28 H 0.04694 0.20014 0.26088 0.0
H29 H 0.06694 0.25159 0.3086 0.0
H30 H 0.1348 0.10207 0.25536 0.0
H31 H 0.06547 0.15476 0.3461 0.0
H32 H 0.13964 0.15045 0.33599 0.0
C33 C 0.02711 0.82815 0.53763 0.0
C34 C 0.01263 0.81034 0.54404 0.0
N35 N 0.02049 0.79071 0.53412 0.0
N36 N 0.04397 0.81972 0.52381 0.0
C37 C 0.03938 0.79686 0.52174 0.0
H38 H 0.02568 0.84611 0.54288 0.0
Co39 Co 0.06768 0.83792 0.5128 0.0
C40 C 0.10662 0.80659 0.50194 0.0
O41 O 0.12048 0.82082 0.51315 0.0
N42 N 0.09119 0.85724 0.50112 0.0
C43 C 0.11454 0.8739 0.47522 0.0
C44 C 0.10068 0.8551 0.47976 0.0
C45 C 0.09931 0.87777 0.50899 0.0
N46 N 0.11345 0.88825 0.49357 0.0
O47 O 0.05225 0.84016 0.48304 0.0
H48 H 0.09682 0.84126 0.46767 0.0
H49 H 0.09425 0.88558 0.52515 0.0
O50 O 0.08479 0.81081 0.50122 0.0
C51 C 0.03941 0.85771 0.47896 0.0
O52 O 0.03659 0.87307 0.49557 0.0
N53 N 0.08169 0.83622 0.54271 0.0
C54 C 0.10198 0.83739 0.58681 0.0
C55 C 0.10142 0.81675 0.57398 0.0
C56 C 0.09045 0.81632 0.55231 0.0
C57 C 0.07959 0.85555 0.55618 0.0
C58 C 0.09015 0.85677 0.57801 0.0
H59 H 0.08923 0.79996 0.5433 0.0
H60 H 0.06974 0.87023 0.54991 0.0
H61 H 0.04989 0.78484 0.51184 0.0
H62 H 0.99741 0.81172 0.55497 0.0
H63 H 0.12339 0.87753 0.45905 0.0
H64 H 0.10944 0.80109 0.58062 0.0
H65 H 0.08959 0.87294 0.58756 0.0
C66 C 0.41132 0.76449 0.78186 0.0
C67 C 0.43032 0.75042 0.78523 0.0
N68 N 0.44943 0.76272 0.77995 0.0
N69 N 0.41848 0.7854 0.77419 0.0
C70 C 0.44185 0.78382 0.77324 0.0
H71 H 0.39336 0.75973 0.7845 0.0
Co72 Co 0.39852 0.80913 0.76579 0.0
C73 C 0.43653 0.84798 0.76748 0.0
O74 O 0.4314 0.85895 0.78677 0.0
N75 N 0.37781 0.8329 0.7572 0.0
C76 C 0.35907 0.86661 0.75519 0.0
C77 C 0.37868 0.8556 0.76299 0.0
C78 C 0.35718 0.83051 0.74623 0.0
N79 N 0.34562 0.8508 0.74459 0.0
O80 O 0.40161 0.80058 0.73422 0.0
H81 H 0.39185 0.86358 0.77348 0.0
H82 H 0.35036 0.81414 0.74017 0.0
O83 O 0.42457 0.83044 0.76097 0.0
C84 C 0.38755 0.78488 0.72784 0.0
O85 O 0.37386 0.77537 0.7434 0.0
N86 N 0.39398 0.81637 0.7968 0.0
C87 C 0.37895 0.83588 0.83771 0.0
C88 C 0.40282 0.83381 0.83329 0.0
C89 C 0.4101 0.82326 0.81266 0.0
C90 C 0.37123 0.81443 0.80292 0.0
C91 C 0.36321 0.8244 0.8233 0.0
H92 H 0.42839 0.82211 0.80871 0.0
H93 H 0.35891 0.80699 0.79087 0.0
H94 H 0.45313 0.79755 0.7672 0.0
H95 H 0.43017 0.73257 0.79111 0.0
H96 H 0.35449 0.88459 0.75818 0.0
H97 H 0.41548 0.84192 0.84457 0.0
H98 H 0.34471 0.82508 0.82664 0.0
C99 C 0.48917 0.16781 0.03953 0.0
C100 C 0.50397 0.18643 0.03931 0.0
N101 N 0.49433 0.20332 0.02636 0.0
N102 N 0.47008 0.17285 0.02698 0.0
C103 C 0.47369 0.1947 0.01915 0.0
H104 H 0.49214 0.15149 0.04831 0.0
Co105 Co 0.44656 0.15107 0.0227 0.0
C106 C 0.40246 0.17881 0.01486 0.0
O107 O 0.38956 0.16537 0.02786 0.0
N108 N 0.42327 0.12785 0.01877 0.0
C109 C 0.39466 0.10283 0.02634 0.0
C110 C 0.40628 0.12191 0.03398 0.0
C111 C 0.42156 0.11145 0.00198 0.0
N112 N 0.40428 0.09621 0.00629 0.0
O113 O 0.45461 0.14886 0.99045 0.0
H114 H 0.40234 0.1305 0.05007 0.0
H115 H 0.43345 0.10983 0.98756 0.0
O116 O 0.42442 0.17557 0.01349 0.0
C117 C 0.47379 0.13979 0.9843 0.0
O118 O 0.48793 0.13181 1.00031 0.0
N119 N 0.43999 0.15246 0.05448 0.0
C120 C 0.42042 0.13941 0.09629 0.0
C121 C 0.41564 0.16142 0.08684 0.0
C122 C 0.42606 0.16789 0.06582 0.0
C123 C 0.44808 0.1332 0.06558 0.0
C124 C 0.43845 0.12628 0.08664 0.0
H125 H 0.42109 0.18401 0.05768 0.0
H126 H 0.45983 0.12162 0.05662 0.0
H127 H 0.46172 0.20398 0.00813 0.0
H128 H 0.52031 0.18768 0.0485 0.0
H129 H 0.38055 0.09405 0.03512 0.0
H130 H 0.40225 0.17237 0.0942 0.0
H131 H 0.44319 0.10959 0.09389 0.0
C132 C 0.08514 0.78353 0.20567 0.0
C133 C 0.06587 0.76959 0.20411 0.0
N134 N 0.04948 0.77801 0.21851 0.0
N135 N 0.08099 0.80083 0.22083 0.0
C136 C 0.05902 0.79709 0.22835 0.0
H137 H 0.10127 0.78124 0.19634 0.0
Co138 Co 0.10356 0.8228 0.22848 0.0
C139 C 0.07501 0.86567 0.23846 0.0
O140 O 0.08624 0.87882 0.22372 0.0
N141 N 0.12747 0.84485 0.23638 0.0
C142 C 0.15163 0.87525 0.2361 0.0
C143 C 0.13304 0.86494 0.22543 0.0
C144 C 0.14373 0.84327 0.25343 0.0
N145 N 0.15842 0.86156 0.25363 0.0
O146 O 0.10541 0.81012 0.25851 0.0
H147 H 0.12488 0.87158 0.20994 0.0
H148 H 0.14512 0.82899 0.26545 0.0
O149 O 0.07976 0.84406 0.24025 0.0
C150 C 0.11781 0.79204 0.26072 0.0
O151 O 0.12723 0.78282 0.24212 0.0
N152 N 0.10241 0.83386 0.19825 0.0
C153 C 0.10776 0.85356 0.1547 0.0
C154 C 0.08595 0.85352 0.16566 0.0
C155 C 0.08355 0.84328 0.18751 0.0
C156 C 0.12264 0.83072 0.18647 0.0
C157 C 0.12596 0.84104 0.16494 0.0
H158 H 0.06694 0.84378 0.1962 0.0
H159 H 0.13696 0.82187 0.19482 0.0
H160 H 0.05034 0.8078 0.24108 0.0
H161 H 0.06394 0.75461 0.19296 0.0
H162 H 0.16018 0.89111 0.23076 0.0
H163 H 0.07123 0.86235 0.15798 0.0
H164 H 0.14317 0.84067 0.15741 0.0
C165 C 0.48244 0.83387 0.46313 0.0
C166 C 0.49545 0.81388 0.46193 0.0
N167 N 0.48312 0.79638 0.47135 0.0
N168 N 0.46196 0.82919 0.47335 0.0
C169 C 0.46284 0.80619 0.47815 0.0
H170 H 0.48753 0.85082 0.45691 0.0
Co171 Co 0.43956 0.8521 0.47839 0.0
C172 C 0.39661 0.82473 0.49149 0.0
O173 O 0.383 0.83573 0.47696 0.0
N174 N 0.41721 0.87641 0.48342 0.0
C175 C 0.38683 0.9004 0.47999 0.0
C176 C 0.39768 0.88117 0.47114 0.0
C177 C 0.41793 0.89377 0.49937 0.0
N178 N 0.39966 0.90836 0.49766 0.0
O179 O 0.45162 0.85657 0.50902 0.0
H180 H 0.39151 0.87164 0.45624 0.0
H181 H 0.43151 0.896 0.51205 0.0
O182 O 0.41831 0.82935 0.49215 0.0
C183 C 0.46869 0.86973 0.5138 0.0
O184 O 0.47888 0.8813 0.497 0.0
N185 N 0.4287 0.84758 0.44794 0.0
C186 C 0.40637 0.84768 0.40514 0.0
C187 C 0.40646 0.82765 0.41903 0.0
C188 C 0.41818 0.8278 0.44027 0.0
C189 C 0.43167 0.86591 0.43328 0.0
C190 C 0.42023 0.86653 0.4119 0.0
H191 H 0.41767 0.81249 0.45107 0.0
H192 H 0.4411 0.88103 0.43917 0.0
H193 H 0.44901 0.7969 0.48663 0.0
H194 H 0.51257 0.81231 0.45436 0.0
H195 H 0.3711 0.90838 0.4735 0.0
H196 H 0.39654 0.81248 0.41408 0.0
H197 H 0.42072 0.88235 0.40178 0.0
C198 C 0.41226 0.22047 0.71209 0.0
C199 C 0.43068 0.23512 0.70861 0.0
N200 N 0.44903 0.22657 0.72023 0.0
N201 N 0.41894 0.20274 0.72581 0.0
C202 C 0.4415 0.20701 0.73072 0.0
H203 H 0.39515 0.22219 0.70456 0.0
Co204 Co 0.3987 0.17849 0.73177 0.0
C205 C 0.43105 0.13843 0.743 0.0
O206 O 0.42231 0.12444 0.72738 0.0
N207 N 0.37689 0.15449 0.73734 0.0
C208 C 0.35484 0.12279 0.73439 0.0
C209 C 0.37422 0.13389 0.72629 0.0
C210 C 0.35815 0.15572 0.75151 0.0
N211 N 0.34479 0.13655 0.75021 0.0
O212 O 0.39426 0.18984 0.76286 0.0
H213 H 0.3845 0.12781 0.71188 0.0
H214 H 0.35386 0.17064 0.76205 0.0
O215 O 0.42389 0.15938 0.74471 0.0
C216 C 0.38469 0.20911 0.76787 0.0
O217 O 0.37628 0.22206 0.75111 0.0
N218 N 0.40319 0.1682 0.70116 0.0
C219 C 0.40552 0.14944 0.65675 0.0
C220 C 0.42555 0.1512 0.67046 0.0
C221 C 0.42412 0.16119 0.69251 0.0
C222 C 0.38417 0.16901 0.68713 0.0
C223 C 0.38484 0.15937 0.66493 0.0
H224 H 0.43964 0.16245 0.70295 0.0
H225 H 0.36799 0.17583 0.6938 0.0
H226 H 0.45244 0.19559 0.74081 0.0
H227 H 0.43077 0.25063 0.698 0.0
H228 H 0.34784 0.10652 0.72812 0.0
H229 H 0.44194 0.14418 0.66451 0.0
H230 H 0.36897 0.15837 0.65491 0.0
C231 C 0.03599 0.17863 0.96297 0.0
C232 C 0.0204 0.19599 0.95785 0.0
N233 N 0.02738 0.21548 0.96868 0.0
N234 N 0.05258 0.18711 0.9771 0.0
C235 C 0.04677 0.20958 0.98044 0.0
H236 H 0.03556 0.16101 0.9565 0.0
Co237 Co 0.07804 0.17036 0.98757 0.0
C238 C 0.10907 0.21391 0.99055 0.0
O239 O 0.11967 0.21219 0.97049 0.0
N240 N 0.10339 0.15352 0.99835 0.0
C241 C 0.13853 0.14079 0.00769 0.0
C242 C 0.1261 0.15923 0.99919 0.0
C243 C 0.10247 0.13156 0.00624 0.0
N244 N 0.12364 0.12334 0.01208 0.0
O245 O 0.06475 0.1689 0.01856 0.0
H246 H 0.13353 0.17533 0.99334 0.0
H247 H 0.08663 0.12149 0.00638 0.0
O248 O 0.09407 0.19885 0.99692 0.0
C249 C 0.04683 0.15647 0.02251 0.0
O250 O 0.03664 0.14584 0.00512 0.0
N251 N 0.09027 0.16986 0.95686 0.0
C252 C 0.11016 0.16412 0.91305 0.0
C253 C 0.10188 0.1859 0.92003 0.0
C254 C 0.09112 0.1882 0.9418 0.0
C255 C 0.09621 0.14824 0.94917 0.0
C256 C 0.10646 0.14504 0.92751 0.0
H257 H 0.0842 0.2049 0.94682 0.0
H258 H 0.09325 0.13323 0.95998 0.0
H259 H 0.05654 0.22142 0.99123 0.0
H260 H 0.00546 0.1946 0.94654 0.0
H261 H 0.15716 0.14014 0.01 0.0
H262 H 0.10387 0.20092 0.90892 0.0
H263 H 0.11208 0.12784 0.92239 0.0
C264 C 0.29468 0.08386 0.21796 0.0
C265 C 0.29839 0.06713 0.2346 0.0
N266 N 0.28407 0.0492 0.23025 0.0
N267 N 0.27832 0.07638 0.203 0.0
C268 C 0.27193 0.05528 0.21112 0.0
H269 H 0.30353 0.10036 0.21664 0.0
Co270 Co 0.26784 0.09308 0.17728 0.0
C271 C 0.26553 0.05057 0.14491 0.0
O272 O 0.2855 0.05365 0.13444 0.0
N273 N 0.25689 0.10991 0.15139 0.0
C274 C 0.2529 0.12372 0.11549 0.0
C275 C 0.26182 0.10605 0.12875 0.0
C276 C 0.24482 0.13004 0.15134 0.0
N277 N 0.24207 0.13858 0.12973 0.0
O278 O 0.23757 0.09408 0.19043 0.0
H279 H 0.27273 0.09236 0.12227 0.0
H280 H 0.23955 0.13917 0.16686 0.0
O281 O 0.25916 0.06439 0.16109 0.0
C282 C 0.23607 0.11054 0.2051 0.0
O283 O 0.2548 0.12281 0.20938 0.0
N284 N 0.29839 0.09469 0.16576 0.0
C285 C 0.34321 0.10503 0.15047 0.0
C286 C 0.33708 0.08215 0.15649 0.0
C287 C 0.31458 0.07741 0.1646 0.0
C288 C 0.3049 0.11716 0.16211 0.0
C289 C 0.32689 0.12264 0.15398 0.0
H290 H 0.31019 0.05998 0.17 0.0
H291 H 0.29281 0.13112 0.16539 0.0
H292 H 0.25899 0.04439 0.20295 0.0
H293 H 0.31064 0.06805 0.24881 0.0
H294 H 0.25534 0.12621 0.09702 0.0
H295 H 0.34953 0.06815 0.15502 0.0
H296 H 0.33086 0.14058 0.14999 0.0
C297 C 0.16723 0.0479 0.47826 0.0
C298 C 0.18652 0.0532 0.49131 0.0
N299 N 0.20264 0.03668 0.48764 0.0
N300 N 0.17127 0.02826 0.46618 0.0
C301 C 0.19291 0.02167 0.47249 0.0
H302 H 0.15113 0.05753 0.47792 0.0
Co303 Co 0.15023 0.01272 0.44712 0.0
C304 C 0.17545 0.00435 0.40295 0.0
O305 O 0.157 0.01096 0.39125 0.0
N306 N 0.12878 0.99589 0.42837 0.0
C307 C 0.11566 0.9663 0.40728 0.0
C308 C 0.13423 0.97502 0.41917 0.0
C309 C 0.10608 0.99879 0.42262 0.0
N310 N 0.09776 0.98118 0.4094 0.0
O311 O 0.15612 0.98499 0.46335 0.0
H312 H 0.15084 0.96648 0.42105 0.0
H313 H 0.09547 0.01282 0.42888 0.0
O314 O 0.17529 0.00506 0.42519 0.0
C315 C 0.14257 0.98219 0.4805 0.0
O316 O 0.12955 0.99979 0.48689 0.0
N317 N 0.14324 0.04074 0.43222 0.0
C318 C 0.12781 0.08126 0.41124 0.0
C319 C 0.15076 0.07378 0.40816 0.0
C320 C 0.15832 0.05358 0.41922 0.0
C321 C 0.12194 0.04944 0.43767 0.0
C322 C 0.11356 0.06937 0.42687 0.0
H323 H 0.17616 0.04825 0.41715 0.0
H324 H 0.11129 0.04066 0.45038 0.0
H325 H 0.20133 0.00608 0.46624 0.0
H326 H 0.18834 0.06776 0.50304 0.0
H327 H 0.1155 0.95013 0.39776 0.0
H328 H 0.16251 0.08303 0.39676 0.0
H329 H 0.09608 0.07529 0.43047 0.0
C330 C 0.21402 0.91202 0.72182 0.0
C331 C 0.21259 0.93048 0.73685 0.0
N332 N 0.21854 0.94977 0.72526 0.0
N333 N 0.22104 0.91944 0.70069 0.0
C334 C 0.22344 0.94277 0.70333 0.0
H335 H 0.21028 0.89421 0.72621 0.0
Co336 Co 0.22846 0.89944 0.67538 0.0
C337 C 0.24875 0.93048 0.64823 0.0
O338 O 0.22794 0.92858 0.63913 0.0
N339 N 0.23657 0.87921 0.65072 0.0
C340 C 0.23433 0.85797 0.61849 0.0
C341 C 0.22522 0.87667 0.63039 0.0
C342 C 0.25259 0.86195 0.65065 0.0
N343 N 0.25145 0.84868 0.63141 0.0
O344 O 0.24929 0.88308 0.69563 0.0
H345 H 0.21035 0.88689 0.62518 0.0
H346 H 0.2643 0.85833 0.66485 0.0
O347 O 0.25342 0.9193 0.66673 0.0
C348 C 0.25251 0.86847 0.71189 0.0
O349 O 0.23486 0.85752 0.72125 0.0
N350 N 0.20244 0.88074 0.68145 0.0
C351 C 0.16343 0.85845 0.66344 0.0
C352 C 0.16296 0.88226 0.66836 0.0
C353 C 0.18267 0.89306 0.67727 0.0
C354 C 0.20237 0.85709 0.67956 0.0
C355 C 0.18295 0.84559 0.67045 0.0
H356 H 0.18312 0.91181 0.67763 0.0
H357 H 0.21823 0.84736 0.68174 0.0
H358 H 0.22917 0.95433 0.68969 0.0
H359 H 0.20746 0.92984 0.75492 0.0
H360 H 0.22787 0.85086 0.60235 0.0
H361 H 0.14862 0.89304 0.66275 0.0
H362 H 0.18407 0.82718 0.66684 0.0
C363 C 0.33773 0.96042 0.97158 0.0
C364 C 0.31854 0.95699 0.98529 0.0
N365 N 0.30129 0.97055 0.97725 0.0
N366 N 0.33266 0.97604 0.95494 0.0
C367 C 0.31033 0.98215 0.95896 0.0
H368 H 0.35426 0.95168 0.97327 0.0
Co369 Co 0.35369 0.98381 0.93171 0.0
C370 C 0.32852 0.01607 0.902 0.0
O371 O 0.34617 0.03029 0.90439 0.0
N372 N 0.37524 0.99115 0.90857 0.0
C373 C 0.39209 0.99655 0.87429 0.0
C374 C 0.37276 0.98813 0.88543 0.0
C375 C 0.39646 1.00076 0.9111 0.0
N376 N 0.40685 0.00453 0.89051 0.0
O377 O 0.35851 0.0131 0.94564 0.0
H378 H 0.35767 0.98061 0.87718 0.0
H379 H 0.40405 0.00538 0.92762 0.0
O380 O 0.32878 0.99647 0.91241 0.0
C381 C 0.37283 0.01281 0.96239 0.0
O382 O 0.38129 0.99284 0.96944 0.0
N383 N 0.35044 0.95456 0.91919 0.0
C384 C 0.35317 0.91139 0.89829 0.0
C385 C 0.3323 0.92403 0.89782 0.0
C386 C 0.33128 0.94581 0.90844 0.0
C387 C 0.37007 0.94167 0.92158 0.0
C388 C 0.37191 0.92008 0.91106 0.0
H389 H 0.31542 0.95577 0.90755 0.0
H390 H 0.38479 0.9488 0.93079 0.0
H391 H 0.30062 0.9942 0.94833 0.0
H392 H 0.31727 0.94527 0.99992 0.0
H393 H 0.39512 0.99677 0.85575 0.0
H394 H 0.31721 0.91752 0.8887 0.0
H395 H 0.3883 0.9109 0.91188 0.0
C396 C 0.28454 0.92524 0.28569 0.0
C397 C 0.28773 0.9425 0.26959 0.0
N398 N 0.27957 0.96238 0.27857 0.0
N399 N 0.27452 0.9341 0.30499 0.0
C400 C 0.2716 0.95693 0.29995 0.0
H401 H 0.29013 0.9075 0.28359 0.0
Co402 Co 0.26793 0.91771 0.33281 0.0
C403 C 0.24893 0.95394 0.35527 0.0
O404 O 0.2707 0.95505 0.36197 0.0
N405 N 0.26153 0.90165 0.36031 0.0
C406 C 0.26946 0.88486 0.39412 0.0
C407 C 0.27493 0.90292 0.37946 0.0
C408 C 0.24756 0.88316 0.36402 0.0
N409 N 0.25228 0.87247 0.38429 0.0
O410 O 0.24536 0.89891 0.31565 0.0
H411 H 0.2893 0.91481 0.38155 0.0
H412 H 0.23605 0.87595 0.35106 0.0
O413 O 0.2434 0.93886 0.34005 0.0
C414 C 0.24424 0.88314 0.30009 0.0
O415 O 0.26323 0.8746 0.29088 0.0
N416 N 0.29344 0.89771 0.32808 0.0
C417 C 0.33385 0.87415 0.34098 0.0
C418 C 0.33435 0.89797 0.33613 0.0
C419 C 0.31394 0.90941 0.32988 0.0
C420 C 0.29292 0.87418 0.33109 0.0
C421 C 0.31303 0.86204 0.33729 0.0
H422 H 0.31403 0.92816 0.32888 0.0
H423 H 0.27663 0.86495 0.33124 0.0
H424 H 0.2645 0.96953 0.31191 0.0
H425 H 0.29578 0.94071 0.2527 0.0
H426 H 0.27868 0.88003 0.40976 0.0
H427 H 0.34977 0.90819 0.33944 0.0
H428 H 0.31184 0.84368 0.3411 0.0
C429 C 0.33143 0.03355 0.53117 0.0
C430 C 0.31287 0.03748 0.51678 0.0
N431 N 0.29354 0.03046 0.52775 0.0
N432 N 0.32397 0.02409 0.5513 0.0
C433 C 0.30066 0.0223 0.54858 0.0
H434 H 0.34916 0.03814 0.52734 0.0
Co435 Co 0.34256 0.0166 0.57729 0.0
C436 C 0.31037 0.99541 0.60311 0.0
O437 O 0.31176 0.01584 0.61311 0.0
N438 N 0.36091 0.00905 0.60303 0.0
C439 C 0.38127 0.01337 0.63552 0.0
C440 C 0.3631 0.02188 0.6225 0.0
C441 C 0.37748 0.99257 0.60485 0.0
N442 N 0.39047 0.99518 0.62413 0.0
O443 O 0.36036 0.99534 0.55775 0.0
H444 H 0.35324 0.03744 0.6261 0.0
H445 H 0.38095 0.9797 0.59166 0.0
O446 O 0.32235 0.99153 0.58492 0.0
C447 C 0.37575 0.9948 0.54179 0.0
O448 O 0.3844 0.01408 0.53332 0.0
N449 N 0.36172 0.04252 0.5721 0.0
C450 C 0.38495 0.08272 0.58579 0.0
C451 C 0.36098 0.08303 0.58154 0.0
C452 C 0.34973 0.06272 0.57486 0.0
C453 C 0.38535 0.04228 0.57424 0.0
C454 C 0.39734 0.06234 0.58081 0.0
H455 H 0.33096 0.06255 0.57459 0.0
H456 H 0.3948 0.02611 0.57376 0.0
H457 H 0.28902 0.01578 0.56179 0.0
H458 H 0.31348 0.04514 0.49963 0.0
H459 H 0.3883 0.02104 0.65116 0.0
H460 H 0.35052 0.09801 0.58591 0.0
H461 H 0.41581 0.06127 0.58415 0.0
C462 C 0.20997 0.07594 0.7788 0.0
C463 C 0.20681 0.05883 0.76257 0.0
N464 N 0.2152 0.03873 0.77107 0.0
N465 N 0.22071 0.06718 0.79768 0.0
C466 C 0.22367 0.04435 0.79239 0.0
H467 H 0.20509 0.09389 0.77658 0.0
Co468 Co 0.23131 0.08537 0.82334 0.0
C469 C 0.25257 0.04941 0.84466 0.0
O470 O 0.23146 0.04741 0.85305 0.0
N471 N 0.24218 0.1036 0.84826 0.0
C472 C 0.24396 0.12145 0.8825 0.0
C473 C 0.23443 0.1031 0.87034 0.0
C474 C 0.25658 0.12218 0.84754 0.0
N475 N 0.25778 0.13349 0.86799 0.0
O476 O 0.25132 0.10191 0.8024 0.0
H477 H 0.22161 0.091 0.8768 0.0
H478 H 0.26518 0.12827 0.83204 0.0
O479 O 0.2562 0.06437 0.82879 0.0
C480 C 0.25365 0.11592 0.78547 0.0
O481 O 0.23543 0.12553 0.77572 0.0
N482 N 0.206 0.10572 0.82057 0.0
C483 C 0.17006 0.13216 0.83952 0.0
C484 C 0.16794 0.108 0.83725 0.0
C485 C 0.18614 0.09514 0.82778 0.0
C486 C 0.20754 0.12939 0.82046 0.0
C487 C 0.18954 0.14296 0.82956 0.0
H488 H 0.18548 0.0764 0.82874 0.0
H489 H 0.2236 0.13788 0.81599 0.0
H490 H 0.23214 0.03209 0.8038 0.0
H491 H 0.19975 0.06146 0.74539 0.0
H492 H 0.23981 0.12642 0.90014 0.0
H493 H 0.1534 0.09881 0.84482 0.0
H494 H 0.19173 0.1616 0.83051 0.0
C495 C 0.17236 0.96539 0.02264 0.0
C496 C 0.19071 0.95989 0.00841 0.0
N497 N 0.20904 0.97298 0.01467 0.0
N498 N 0.17913 0.98171 0.03797 0.0
C499 C 0.20146 0.98629 0.0324 0.0
H500 H 0.15513 0.95801 0.02185 0.0
Co501 Co 0.16024 0.99483 0.06059 0.0
C502 C 0.19057 0.99785 0.10264 0.0
O503 O 0.17378 0.98945 0.11561 0.0
N504 N 0.14052 0.00904 0.083 0.0
C505 C 0.12726 0.03568 0.10769 0.0
C506 C 0.14644 0.02742 0.09631 0.0
C507 C 0.11719 0.00737 0.08583 0.0
N508 N 0.10873 0.02313 0.10105 0.0
O509 O 0.1644 0.02429 0.04714 0.0
H510 H 0.16343 0.03535 0.09675 0.0
H511 H 0.10623 0.99642 0.07539 0.0
O512 O 0.1875 1.00012 0.08072 0.0
C513 C 0.14665 0.02915 0.03499 0.0
O514 O 0.1308 0.0131 0.03171 0.0
N515 N 0.15447 0.96528 0.07258 0.0
C516 C 0.13887 0.9235 0.09043 0.0
C517 C 0.16223 0.92984 0.09286 0.0
C518 C 0.16988 0.95081 0.0833 0.0
C519 C 0.13271 0.95768 0.06739 0.0
C520 C 0.12424 0.93715 0.07678 0.0
H521 H 0.18794 0.95551 0.08493 0.0
H522 H 0.12175 0.9678 0.05607 0.0
H523 H 0.212 0.99907 0.04119 0.0
H524 H 0.19052 0.94743 0.99436 0.0
H525 H 0.12691 0.05047 0.11926 0.0
H526 H 0.17413 0.91924 0.10283 0.0
H527 H 0.10632 0.93225 0.07386 0.0
C528 C 0.23163 0.28921 0.08908 0.0
C529 C 0.24786 0.29041 0.07159 0.0
N530 N 0.23907 0.28005 0.05251 0.0
N531 N 0.21273 0.27795 0.08126 0.0
C532 C 0.21774 0.27258 0.05898 0.0
H533 H 0.2338 0.29532 0.1067 0.0
Co534 Co 0.18734 0.26916 0.09933 0.0
C535 C 0.15266 0.2735 0.05851 0.0
O536 O 0.14389 0.29404 0.06289 0.0
N537 N 0.16202 0.25979 0.11743 0.0
C538 C 0.12683 0.25476 0.13246 0.0
C539 C 0.13914 0.26387 0.1142 0.0
C540 C 0.16316 0.24829 0.1378 0.0
N541 N 0.14199 0.24516 0.14735 0.0
O542 O 0.19657 0.23756 0.09707 0.0
H543 H 0.13175 0.27369 0.10013 0.0
H544 H 0.17928 0.24274 0.14567 0.0
O545 O 0.16825 0.26464 0.0716 0.0
C546 C 0.21389 0.23173 0.10945 0.0
O547 O 0.22497 0.24766 0.12139 0.0
N548 N 0.17926 0.30041 0.10364 0.0
C549 C 0.16063 0.34327 0.11538 0.0
C550 C 0.16748 0.33864 0.09241 0.0
C551 C 0.17751 0.31715 0.087 0.0
C552 C 0.17621 0.3061 0.12641 0.0
C553 C 0.16634 0.32717 0.13264 0.0
H554 H 0.18245 0.31342 0.06928 0.0
H555 H 0.18008 0.29361 0.13985 0.0
H556 H 0.20611 0.26294 0.04786 0.0
H557 H 0.26519 0.29738 0.07335 0.0
H558 H 0.10827 0.25606 0.13514 0.0
H559 H 0.16405 0.351 0.07866 0.0
H560 H 0.16166 0.32996 0.15062 0.0
C561 C 0.72149 0.21076 0.91613 0.0
C562 C 0.73801 0.20992 0.93333 0.0
N563 N 0.7309 0.22348 0.95101 0.0
N564 N 0.70397 0.22464 0.92296 0.0
C565 C 0.71014 0.23214 0.94433 0.0
H566 H 0.722 0.2016 0.89976 0.0
Co567 Co 0.6781 0.23061 0.90471 0.0
C568 C 0.64493 0.23991 0.9455 0.0
O569 O 0.63312 0.22046 0.94528 0.0
N570 N 0.65232 0.23695 0.88566 0.0
C571 C 0.61697 0.23997 0.87035 0.0
C572 C 0.62957 0.23256 0.88923 0.0
C573 C 0.65307 0.24678 0.86437 0.0
N574 N 0.63182 0.24881 0.85467 0.0
O575 O 0.68945 0.26106 0.89884 0.0
H576 H 0.62247 0.22388 0.90419 0.0
H577 H 0.66893 0.25252 0.85619 0.0
O578 O 0.66136 0.24365 0.93109 0.0
C579 C 0.70567 0.26458 0.88429 0.0
O580 O 0.71506 0.24667 0.87373 0.0
N581 N 0.66773 0.20006 0.90964 0.0
C582 C 0.64988 0.15537 0.91257 0.0
C583 C 0.65648 0.16723 0.93272 0.0
C584 C 0.66627 0.18939 0.93078 0.0
C585 C 0.66344 0.18781 0.88987 0.0
C586 C 0.65428 0.16549 0.89094 0.0
H587 H 0.67169 0.19838 0.94632 0.0
H588 H 0.66642 0.1957 0.8731 0.0
H589 H 0.69969 0.24369 0.95481 0.0
H590 H 0.75367 0.19954 0.93314 0.0
H591 H 0.59837 0.23848 0.86809 0.0
H592 H 0.65367 0.15967 0.94969 0.0
H593 H 0.64959 0.15668 0.875 0.0
C594 C 0.03989 0.47297 0.16896 0.0
C595 C 0.04397 0.4885 0.18659 0.0
N596 N 0.0309 0.4823 0.20495 0.0
N597 N 0.02453 0.45691 0.17626 0.0
C598 C 0.01936 0.46303 0.19828 0.0
H599 H 0.04745 0.4735 0.15179 0.0
Co600 Co 0.01247 0.43344 0.15789 0.0
C601 C 0.00375 0.39402 0.19005 0.0
O602 O 0.01321 0.37968 0.17505 0.0
N603 N 0.9996 0.41026 0.13889 0.0
C604 C 0.97254 0.38737 0.12351 0.0
C605 C 0.97873 0.40018 0.14258 0.0
C606 C 0.00549 0.40356 0.1172 0.0
N607 N 0.9893 0.38973 0.10746 0.0
O608 O 0.98315 0.44859 0.15756 0.0
H609 H 0.96795 0.40311 0.15767 0.0
H610 H 0.02068 0.40953 0.10811 0.0
O611 O 0.00328 0.41578 0.18558 0.0
C612 C 0.98268 0.46235 0.14029 0.0
O613 O 0.00159 0.4648 0.12777 0.0
N614 N 0.04209 0.42021 0.15606 0.0
C615 C 0.08571 0.4031 0.14448 0.0
C616 C 0.07633 0.39904 0.16664 0.0
C617 C 0.05458 0.40834 0.17234 0.0
C618 C 0.05223 0.42644 0.13565 0.0
C619 C 0.07378 0.41774 0.12928 0.0
H620 H 0.04784 0.40574 0.18962 0.0
H621 H 0.04313 0.43793 0.12391 0.0
H622 H 0.00692 0.45397 0.20904 0.0
H623 H 0.05579 0.50308 0.18599 0.0
H624 H 0.95619 0.37847 0.12095 0.0
H625 H 0.08532 0.38821 0.1791 0.0
H626 H 0.08082 0.42199 0.11237 0.0
C627 C 0.78282 0.80007 0.42511 0.0
C628 C 0.7667 0.80489 0.44206 0.0
N629 N 0.76918 0.78927 0.45929 0.0
N630 N 0.7956 0.7816 0.43164 0.0
C631 C 0.78669 0.77518 0.45245 0.0
H632 H 0.78498 0.80929 0.40891 0.0
Co633 Co 0.81876 0.76819 0.41341 0.0
C634 C 0.85603 0.7557 0.44636 0.0
O635 O 0.87119 0.76539 0.43233 0.0
N636 N 0.84154 0.75356 0.39437 0.0
C637 C 0.86274 0.72432 0.38028 0.0
C638 C 0.85003 0.73211 0.39883 0.0
C639 C 0.84888 0.75798 0.37242 0.0
N640 N 0.86188 0.74049 0.36353 0.0
O641 O 0.80118 0.74021 0.41169 0.0
H642 H 0.84597 0.72192 0.41406 0.0
H643 H 0.84392 0.77307 0.36258 0.0
O644 O 0.83441 0.75625 0.44121 0.0
C645 C 0.78843 0.73734 0.39389 0.0
O646 O 0.78631 0.75463 0.37916 0.0
N647 N 0.83538 0.79668 0.41408 0.0
C648 C 0.85977 0.83852 0.41042 0.0
C649 C 0.85713 0.82755 0.432 0.0
C650 C 0.84426 0.80695 0.43357 0.0
C651 C 0.8356 0.80851 0.39362 0.0
C652 C 0.84807 0.82915 0.39124 0.0
H653 H 0.84164 0.79924 0.45045 0.0
H654 H 0.82583 0.80201 0.37903 0.0
H655 H 0.79295 0.76054 0.46243 0.0
H656 H 0.75387 0.8186 0.44156 0.0
H657 H 0.87056 0.70731 0.37859 0.0
H658 H 0.86484 0.83486 0.4475 0.0
H659 H 0.84888 0.83745 0.3744 0.0
C660 C 0.96556 0.03532 0.16592 0.0
C661 C 0.96301 0.01903 0.18314 0.0
N662 N 0.97607 0.02541 0.20133 0.0
N663 N 0.97998 0.05247 0.17305 0.0
C664 C 0.98623 0.04563 0.19486 0.0
H665 H 0.95692 0.03462 0.1493 0.0
Co666 Co 0.98771 0.08046 0.15603 0.0
C667 C 0.00233 0.10064 0.19438 0.0
O668 O 0.97982 0.10425 0.19513 0.0
N669 N 0.99531 0.10775 0.13953 0.0
C670 C 0.99114 0.14285 0.1239 0.0
C671 C 0.98351 0.12791 0.14101 0.0
C672 C 0.01024 0.11101 0.1216 0.0
N673 N 0.00809 0.13221 0.11184 0.0
O674 O 0.01104 0.06357 0.13874 0.0
H675 H 0.9693 0.13101 0.15287 0.0
H676 H 0.02109 0.09756 0.11443 0.0
O677 O 0.01064 0.08813 0.17818 0.0
C678 C 0.01406 0.04431 0.12828 0.0
O679 O 0.99676 0.02968 0.12613 0.0
N680 N 0.96357 0.07568 0.13492 0.0
C681 C 0.92629 0.09301 0.1092 0.0
C682 C 0.92443 0.08965 0.13322 0.0
C683 C 0.94328 0.08121 0.14571 0.0
C684 C 0.96521 0.07654 0.11128 0.0
C685 C 0.94658 0.08512 0.09802 0.0
H686 H 0.94261 0.08161 0.16447 0.0
H687 H 0.98162 0.07314 0.10285 0.0
H688 H 0.99736 0.05553 0.20624 0.0
H689 H 0.95204 0.00379 0.18252 0.0
H690 H 0.98411 0.15984 0.11999 0.0
H691 H 0.90941 0.09572 0.14276 0.0
H692 H 0.94868 0.08709 0.07945 0.0
C693 C 0.28546 0.71577 0.57594 0.0
C694 C 0.27031 0.71152 0.55807 0.0
N695 N 0.28022 0.71898 0.53834 0.0
N696 N 0.30496 0.72573 0.56748 0.0
C697 C 0.3011 0.7276 0.54443 0.0
H698 H 0.28243 0.71163 0.59397 0.0
Co699 Co 0.33097 0.7349 0.58467 0.0
C700 C 0.3548 0.75456 0.55045 0.0
O701 O 0.36473 0.7341 0.55208 0.0
N702 N 0.35676 0.74416 0.60191 0.0
C703 C 0.38842 0.74024 0.62349 0.0
C704 C 0.37635 0.73167 0.60473 0.0
C705 C 0.3578 0.76078 0.61833 0.0
N706 N 0.37638 0.75823 0.63233 0.0
O707 O 0.31097 0.75666 0.60122 0.0
H708 H 0.38029 0.71588 0.59539 0.0
H709 H 0.34417 0.77328 0.62139 0.0
O710 O 0.33727 0.75902 0.56312 0.0
C711 C 0.29493 0.75919 0.61628 0.0
O712 O 0.28685 0.74117 0.62764 0.0
N713 N 0.32713 0.70973 0.60512 0.0
C714 C 0.34281 0.67086 0.62955 0.0
C715 C 0.33893 0.66979 0.60556 0.0
C716 C 0.33126 0.68941 0.59372 0.0
C717 C 0.329 0.71072 0.62873 0.0
C718 C 0.3368 0.69138 0.64131 0.0
H719 H 0.33113 0.68909 0.57496 0.0
H720 H 0.32717 0.72705 0.63763 0.0
H721 H 0.31335 0.73492 0.53223 0.0
H722 H 0.25321 0.70386 0.55946 0.0
H723 H 0.40342 0.73227 0.63154 0.0
H724 H 0.34406 0.65474 0.59556 0.0
H725 H 0.33982 0.69306 0.65979 0.0
C726 C 0.03681 0.53451 0.3307 0.0
C727 C 0.04148 0.51942 0.31278 0.0
N728 N 0.02939 0.52642 0.29405 0.0
N729 N 0.02185 0.55088 0.32324 0.0
C730 C 0.01745 0.54535 0.30094 0.0
H731 H 0.04369 0.53352 0.34813 0.0
Co732 Co 0.00961 0.57424 0.34148 0.0
C733 C 1.0011 0.61436 0.31028 0.0
O734 O 0.01012 0.62796 0.32622 0.0
N735 N 0.99649 0.59734 0.36054 0.0
C736 C 0.96913 0.62003 0.37575 0.0
C737 C 0.97541 0.60702 0.35684 0.0
C738 C 0.00237 0.60444 0.3821 0.0
N739 N 0.98602 0.61816 0.3917 0.0
O740 O 0.98022 0.5589 0.34167 0.0
H741 H 0.96462 0.60375 0.34184 0.0
H742 H 0.01762 0.59878 0.39127 0.0
O743 O 1.00051 0.59236 0.3137 0.0
C744 C 0.97758 0.54726 0.36031 0.0
O745 O 0.9952 0.54602 0.37473 0.0
N746 N 0.03918 0.58783 0.3431 0.0
C747 C 0.08061 0.60965 0.35404 0.0
C748 C 0.07172 0.61101 0.33144 0.0
C749 C 0.05106 0.59936 0.3261 0.0
C750 C 0.04969 0.58336 0.36378 0.0
C751 C 0.07012 0.59465 0.36993 0.0
H752 H 0.04435 0.60031 0.30864 0.0
H753 H 0.04145 0.57182 0.37608 0.0
H754 H 0.00517 0.55449 0.29017 0.0
H755 H 0.05296 0.50455 0.31339 0.0
H756 H 0.95265 0.62871 0.37829 0.0
H757 H 0.07997 0.62184 0.31847 0.0
H758 H 0.07708 0.59251 0.38727 0.0
C759 C 0.4548 0.46804 0.84252 0.0
C760 C 0.45102 0.4833 0.82459 0.0
N761 N 0.46187 0.47512 0.80559 0.0
N762 N 0.46797 0.45027 0.83496 0.0
C763 C 0.47217 0.45512 0.81233 0.0
H764 H 0.44815 0.4696 0.86001 0.0
Co765 Co 0.47586 0.42573 0.85448 0.0
C766 C 0.49059 0.38775 0.82172 0.0
O767 O 0.47826 0.37193 0.83244 0.0
N768 N 0.48375 0.40105 0.87546 0.0
C769 C 0.48178 0.36948 0.89797 0.0
C770 C 0.47211 0.38099 0.87953 0.0
C771 C 0.50065 0.40098 0.89191 0.0
N772 N 0.49975 0.38205 0.90567 0.0
O773 O 0.50574 0.44001 0.85973 0.0
H774 H 0.45694 0.37504 0.87029 0.0
H775 H 0.51268 0.41501 0.89482 0.0
O776 O 0.48999 0.40884 0.8286 0.0
C777 C 0.50834 0.45605 0.87478 0.0
O778 O 0.49018 0.46272 0.88683 0.0
N779 N 0.44597 0.413 0.84964 0.0
C780 C 0.40359 0.38957 0.8487 0.0
C781 C 0.41723 0.39137 0.8286 0.0
C782 C 0.43813 0.40377 0.82926 0.0
C783 C 0.43168 0.41381 0.86849 0.0
C784 C 0.41055 0.40187 0.86854 0.0
H785 H 0.44836 0.40512 0.81362 0.0
H786 H 0.43758 0.42224 0.8842 0.0
H787 H 0.48194 0.444 0.80081 0.0
H788 H 0.44105 0.4992 0.82543 0.0
H789 H 0.4756 0.35349 0.90567 0.0
H790 H 0.41211 0.38269 0.81273 0.0
H791 H 0.40055 0.40104 0.88443 0.0
C792 C 0.5812 0.72614 0.77798 0.0
C793 C 0.56292 0.7413 0.7803 0.0
N794 N 0.54308 0.72893 0.78077 0.0
N795 N 0.57301 0.70426 0.77652 0.0
C796 C 0.54977 0.70655 0.7786 0.0
H797 H 0.59925 0.73095 0.77707 0.0
Co798 Co 0.58947 0.67682 0.77067 0.0
C799 C 0.55213 0.65137 0.75782 0.0
O800 O 0.55456 0.64384 0.7792 0.0
N801 N 0.60549 0.64925 0.76477 0.0
C802 C 0.62305 0.61586 0.77261 0.0
C803 C 0.60606 0.63112 0.77956 0.0
C804 C 0.62184 0.64439 0.74867 0.0
N805 N 0.63306 0.62438 0.7533 0.0
O806 O 0.60402 0.69217 0.74404 0.0
H807 H 0.5962 0.6301 0.79549 0.0
H808 H 0.62728 0.6564 0.73531 0.0
O809 O 0.5658 0.66694 0.75018 0.0
C810 C 0.61937 0.70698 0.73804 0.0
O811 O 0.63278 0.71654 0.75378 0.0
N812 N 0.61222 0.68479 0.79276 0.0
C813 C 0.63774 0.66891 0.83071 0.0
C814 C 0.61497 0.67694 0.83357 0.0
C815 C 0.60252 0.68479 0.81436 0.0
C816 C 0.63535 0.68018 0.79017 0.0
C817 C 0.64845 0.67216 0.80903 0.0
H818 H 0.58404 0.68736 0.8163 0.0
H819 H 0.64297 0.67914 0.7731 0.0
H820 H 0.53789 0.69205 0.77827 0.0
H821 H 0.56426 0.76001 0.78058 0.0
H822 H 0.62889 0.60071 0.78207 0.0
H823 H 0.60575 0.67435 0.84974 0.0
H824 H 0.66602 0.66615 0.80606 0.0
C825 C 0.53933 0.32921 0.04429 0.0
C826 C 0.52464 0.31041 0.04447 0.0
N827 N 0.53208 0.29506 0.02848 0.0
N828 N 0.55598 0.32581 0.02824 0.0
C829 C 0.55102 0.30495 0.01872 0.0
H830 H 0.53822 0.3443 0.0554 0.0
Co831 Co 0.58001 0.3466 0.02228 0.0
C832 C 0.61769 0.31166 0.00989 0.0
O833 O 0.63186 0.3165 0.02702 0.0
N834 N 0.60415 0.36811 0.01615 0.0
C835 C 0.63704 0.38848 0.01764 0.0
C836 C 0.62581 0.36891 0.02526 0.0
C837 C 0.60281 0.3875 0.00291 0.0
N838 N 0.62255 0.40006 0.00358 0.0
O839 O 0.56688 0.35288 0.9924 0.0
H840 H 0.63274 0.35695 0.03786 0.0
H841 H 0.58736 0.39299 0.99378 0.0
O842 O 0.59824 0.32206 0.00771 0.0
C843 C 0.54804 0.36437 0.99144 0.0
O844 O 0.53839 0.37152 0.01082 0.0
N845 N 0.59163 0.34108 0.05232 0.0
C846 C 0.61184 0.33845 0.09611 0.0
C847 C 0.6085 0.3183 0.08287 0.0
C848 C 0.59755 0.3199 0.06121 0.0
C849 C 0.59243 0.36031 0.06604 0.0
C850 C 0.60279 0.35947 0.08786 0.0
H851 H 0.59479 0.30431 0.05116 0.0
H852 H 0.58618 0.37673 0.0594 0.0
H853 H 0.56105 0.29723 0.00486 0.0
H854 H 0.51005 0.30786 0.05603 0.0
H855 H 0.65426 0.39415 0.02257 0.0
H856 H 0.61481 0.30167 0.08894 0.0
H857 H 0.60493 0.37543 0.09757 0.0
C858 C 0.92275 0.27963 0.29645 0.0
C859 C 0.94167 0.26594 0.30163 0.0
N860 N 0.95789 0.26919 0.28511 0.0
N861 N 0.92721 0.29181 0.27696 0.0
C862 C 0.94865 0.28492 0.27038 0.0
H863 H 0.90681 0.28066 0.30628 0.0
Co864 Co 0.90792 0.31286 0.2617 0.0
C865 C 0.9381 0.35466 0.25529 0.0
O866 O 0.92149 0.36825 0.26306 0.0
N867 N 0.88849 0.33374 0.24523 0.0
C868 C 0.87703 0.35672 0.21635 0.0
C869 C 0.89525 0.34465 0.22559 0.0
C870 C 0.8655 0.33859 0.24673 0.0
N871 N 0.85817 0.35289 0.22957 0.0
O872 O 0.9127 0.29696 0.23348 0.0
H873 H 0.91224 0.34321 0.21777 0.0
H874 H 0.85395 0.33057 0.25905 0.0
O875 O 0.93495 0.33267 0.25499 0.0
C876 C 0.89648 0.28245 0.22984 0.0
O877 O 0.8815 0.27862 0.2466 0.0
N878 N 0.90128 0.32733 0.29005 0.0
C879 C 0.88407 0.3475 0.33036 0.0
C880 C 0.90743 0.35051 0.32403 0.0
C881 C 0.91589 0.33978 0.30393 0.0
C882 C 0.87947 0.32211 0.29751 0.0
C883 C 0.87026 0.3325 0.31726 0.0
H884 H 0.93398 0.34176 0.29946 0.0
H885 H 0.86905 0.30989 0.28786 0.0
H886 H 0.95739 0.29151 0.25517 0.0
H887 H 0.94332 0.25433 0.31632 0.0
H888 H 0.87759 0.36704 0.20067 0.0
H889 H 0.91881 0.36159 0.33407 0.0
H890 H 0.85243 0.32902 0.32212 0.0
C891 C 0.96634 0.66644 0.55081 0.0
C892 C 0.98086 0.68454 0.55648 0.0
N893 N 0.97778 0.70149 0.5407 0.0
N894 N 0.95404 0.67219 0.53172 0.0
C895 C 0.96166 0.69348 0.5258 0.0
H896 H 0.96504 0.65006 0.55987 0.0
Co897 Co 0.93253 0.65432 0.51598 0.0
C898 C 0.89218 0.68526 0.50805 0.0
O899 O 0.87817 0.66862 0.51495 0.0
N900 N 0.91111 0.63605 0.49906 0.0
C901 C 0.88998 0.6245 0.46874 0.0
C902 C 0.90322 0.64208 0.47776 0.0
C903 C 0.90266 0.61437 0.50229 0.0
N904 N 0.88979 0.607 0.48412 0.0
O905 O 0.94942 0.65845 0.48828 0.0
H906 H 0.90748 0.65808 0.46892 0.0
H907 H 0.90621 0.60376 0.51727 0.0
O908 O 0.91416 0.68204 0.5087 0.0
C909 C 0.96487 0.64296 0.48563 0.0
O910 O 0.96887 0.62866 0.50294 0.0
N911 N 0.91729 0.64883 0.54395 0.0
C912 C 0.89856 0.63522 0.58616 0.0
C913 C 0.8959 0.65812 0.57833 0.0
C914 C 0.90597 0.66478 0.55732 0.0
C915 C 0.92196 0.62731 0.55251 0.0
C916 C 0.91232 0.61991 0.57334 0.0
H917 H 0.90472 0.68268 0.55198 0.0
H918 H 0.93331 0.61579 0.54298 0.0
H919 H 0.95563 0.7029 0.51074 0.0
H920 H 0.9931 0.68497 0.57073 0.0
H921 H 0.88211 0.62412 0.45168 0.0
H922 H 0.88569 0.67058 0.58801 0.0
H923 H 0.9154 0.60233 0.57926 0.0
C924 C 0.57433 0.27938 0.70817 0.0
C925 C 0.55692 0.26366 0.70383 0.0
N926 N 0.53878 0.26887 0.71762 0.0
N927 N 0.56712 0.29448 0.72449 0.0
C928 C 0.54546 0.2875 0.73015 0.0
H929 H 0.59122 0.27983 0.7 0.0
Co930 Co 0.5853 0.31833 0.73573 0.0
C931 C 0.55352 0.35597 0.74941 0.0
O932 O 0.56677 0.3705 0.73785 0.0
N933 N 0.60445 0.34202 0.74792 0.0
C934 C 0.61935 0.36567 0.77463 0.0
C935 C 0.60184 0.35042 0.76969 0.0
C936 C 0.62436 0.35195 0.74035 0.0
N937 N 0.63348 0.3667 0.75612 0.0
O938 O 0.58917 0.30177 0.76417 0.0
H939 H 0.5885 0.34501 0.78174 0.0
H940 H 0.63288 0.34773 0.72424 0.0
O941 O 0.55812 0.33421 0.74894 0.0
C942 C 0.60776 0.29001 0.76617 0.0
O943 O 0.62215 0.28944 0.74849 0.0
N944 N 0.58228 0.33346 0.70682 0.0
C945 C 0.58236 0.35561 0.66381 0.0
C946 C 0.56174 0.35353 0.67656 0.0
C947 C 0.56194 0.34174 0.69779 0.0
C948 C 0.60163 0.33278 0.69327 0.0
C949 C 0.60225 0.34419 0.67193 0.0
H950 H 0.54578 0.33957 0.70702 0.0
H951 H 0.61678 0.32343 0.69916 0.0
H952 H 0.53466 0.29602 0.74293 0.0
H953 H 0.5576 0.24939 0.69163 0.0
H954 H 0.6224 0.37398 0.79119 0.0
H955 H 0.54572 0.36111 0.67028 0.0
H956 H 0.61835 0.34468 0.66225 0.0
C957 C 0.97187 0.33907 0.94971 0.0
C958 C 0.98708 0.32112 0.94525 0.0
N959 N 0.98285 0.30404 0.96063 0.0
N960 N 0.95813 0.33314 0.9677 0.0
C961 C 0.9653 0.31176 0.97401 0.0
H962 H 0.97114 0.35554 0.94074 0.0
Co963 Co 0.9366 0.3517 0.9827 0.0
C964 C 0.89643 0.32108 0.9916 0.0
O965 O 0.88248 0.33767 0.98447 0.0
N966 N 0.91536 0.37086 0.9992 0.0
C967 C 0.89508 0.38315 0.02985 0.0
C968 C 0.90703 0.36493 0.02036 0.0
C969 C 0.90873 0.39333 0.99674 0.0
N970 N 0.89604 0.40103 0.01493 0.0
O971 O 0.95386 0.34905 0.01039 0.0
H972 H 0.91056 0.34868 0.02907 0.0
H973 H 0.91402 0.40444 0.98268 0.0
O974 O 0.91843 0.32425 0.9914 0.0
C975 C 0.96875 0.36504 0.01323 0.0
O976 O 0.97237 0.37957 0.99603 0.0
N977 N 0.92047 0.35518 0.9546 0.0
C978 C 0.89514 0.36413 0.91449 0.0
C979 C 0.89782 0.34133 0.9226 0.0
C980 C 0.91097 0.33715 0.9425 0.0
C981 C 0.92089 0.37677 0.94505 0.0
C982 C 0.90759 0.38189 0.92551 0.0
H983 H 0.91318 0.31948 0.94833 0.0
H984 H 0.93143 0.39017 0.95276 0.0
H985 H 0.9585 0.30241 0.98878 0.0
H986 H 1.00018 0.32065 0.93179 0.0
H987 H 0.88771 0.38368 0.04712 0.0
H988 H 0.88943 0.32691 0.91394 0.0
H989 H 0.9065 0.39972 0.91972 0.0
C990 C 0.92034 0.73481 0.21216 0.0
C991 C 0.93912 0.74943 0.20953 0.0
N992 N 0.95684 0.74112 0.22235 0.0
N993 N 0.92618 0.71736 0.22659 0.0
C994 C 0.94839 0.72186 0.23275 0.0
H995 H 0.90363 0.73651 0.20378 0.0
Co996 Co 0.90758 0.6923 0.23544 0.0
C997 C 0.94902 0.65792 0.23557 0.0
O998 O 0.94641 0.64864 0.21495 0.0
N999 N 0.8893 0.66679 0.2447 0.0
C1000 C 0.87548 0.63086 0.24788 0.0
C1001 C 0.89353 0.64417 0.24007 0.0
C1002 C 0.86831 0.66673 0.25519 0.0
N1003 N 0.85955 0.64506 0.25719 0.0
O1004 O 0.90754 0.70335 0.26683 0.0
H1005 H 0.90801 0.63761 0.23032 0.0
H1006 H 0.85931 0.6823 0.26056 0.0
O1007 O 0.93519 0.67377 0.24264 0.0
C1008 C 0.89195 0.71874 0.27007 0.0
O1009 O 0.88012 0.72592 0.25194 0.0
N1010 N 0.90482 0.68287 0.20419 0.0
C1011 C 0.89206 0.66677 0.16023 0.0
C1012 C 0.91552 0.67122 0.1656 0.0
C1013 C 0.92151 0.67991 0.18764 0.0
C1014 C 0.88198 0.68117 0.19822 0.0
C1015 C 0.87525 0.67249 0.17679 0.0
H1016 H 0.93943 0.68388 0.1915 0.0
H1017 H 0.86866 0.68582 0.21058 0.0
H1018 H 0.95814 0.71128 0.24478 0.0
H1019 H 0.93991 0.7646 0.19847 0.0
H1020 H 0.87355 0.6123 0.24564 0.0
H1021 H 0.92906 0.66773 0.15305 0.0
H1022 H 0.85698 0.66937 0.17376 0.0
C1023 C 0.52246 0.66552 0.46309 0.0
C1024 C 0.50848 0.68461 0.45972 0.0
N1025 N 0.516 0.70187 0.47361 0.0
N1026 N 0.53895 0.6707 0.47882 0.0
C1027 C 0.53457 0.69297 0.48495 0.0
H1028 H 0.52094 0.64895 0.45442 0.0
Co1029 Co 0.5617 0.65 0.48932 0.0
C1030 C 0.59899 0.68812 0.49347 0.0
O1031 O 0.6092 0.68469 0.47343 0.0
N1032 N 0.58436 0.62907 0.50052 0.0
C1033 C 0.61805 0.61269 0.51003 0.0
C1034 C 0.60768 0.6318 0.50039 0.0
C1035 C 0.58108 0.60777 0.50996 0.0
N1036 N 0.60132 0.59765 0.51604 0.0
O1037 O 0.54769 0.64989 0.51918 0.0
H1038 H 0.6169 0.64628 0.49309 0.0
H1039 H 0.56425 0.59975 0.51215 0.0
O1040 O 0.58152 0.67588 0.49967 0.0
C1041 C 0.53072 0.63592 0.52134 0.0
O1042 O 0.52335 0.62491 0.50279 0.0
N1043 N 0.57441 0.64821 0.45911 0.0
C1044 C 0.59701 0.64052 0.4171 0.0
C1045 C 0.58959 0.66293 0.42322 0.0
C1046 C 0.57769 0.66632 0.44417 0.0
C1047 C 0.57839 0.62608 0.45164 0.0
C1048 C 0.59015 0.62187 0.43101 0.0
H1049 H 0.57233 0.68365 0.44899 0.0
H1050 H 0.57322 0.61146 0.46216 0.0
H1051 H 0.54469 0.70247 0.4976 0.0
H1052 H 0.49432 0.68584 0.44745 0.0
H1053 H 0.63652 0.6097 0.51181 0.0
H1054 H 0.59356 0.67772 0.41232 0.0
H1055 H 0.59483 0.60419 0.42665 0.0
C1056 C 0.78269 0.58807 0.7273 0.0
C1057 C 0.78795 0.56978 0.74169 0.0
N1058 N 0.77758 0.55065 0.73321 0.0
N1059 N 0.76907 0.58049 0.70985 0.0
C1060 C 0.76605 0.55764 0.71407 0.0
H1061 H 0.78863 0.60577 0.72918 0.0
Co1062 Co 0.7589 0.59921 0.68564 0.0
C1063 C 0.75787 0.56037 0.64898 0.0
O1064 O 0.777 0.56597 0.63794 0.0
N1065 N 0.74841 0.61865 0.66173 0.0
C1066 C 0.74093 0.63521 0.62769 0.0
C1067 C 0.7495 0.61586 0.63846 0.0
C1068 C 0.7393 0.64008 0.66461 0.0
N1069 N 0.7345 0.65039 0.64415 0.0
O1070 O 0.72818 0.598 0.69747 0.0
H1071 H 0.75688 0.60136 0.62946 0.0
H1072 H 0.73669 0.64816 0.68136 0.0
O1073 O 0.75118 0.57202 0.66665 0.0
C1074 C 0.72407 0.61004 0.71545 0.0
O1075 O 0.74094 0.62226 0.72471 0.0
N1076 N 0.78947 0.6016 0.67491 0.0
C1077 C 0.83345 0.60934 0.65686 0.0
C1078 C 0.82651 0.58686 0.66306 0.0
C1079 C 0.8045 0.58341 0.67264 0.0
C1080 C 0.79709 0.62374 0.67161 0.0
C1081 C 0.81881 0.628 0.66208 0.0
H1082 H 0.79913 0.56602 0.67718 0.0
H1083 H 0.78596 0.63828 0.67562 0.0
H1084 H 0.75625 0.54615 0.70302 0.0
H1085 H 0.7985 0.57051 0.75722 0.0
H1086 H 0.74035 0.63831 0.60917 0.0
H1087 H 0.83761 0.57205 0.65974 0.0
H1088 H 0.82346 0.64566 0.65766 0.0
C1089 C 0.67058 0.54564 0.96741 0.0
C1090 C 0.6889 0.5475 0.98257 0.0
N1091 N 0.70525 0.53194 0.97646 0.0
N1092 N 0.67528 0.52913 0.95155 0.0
C1093 C 0.69662 0.5211 0.95743 0.0
H1094 H 0.65479 0.55579 0.96778 0.0
Co1095 Co 0.65397 0.52072 0.92839 0.0
C1096 C 0.6896 0.51066 0.89023 0.0
O1097 O 0.6849 0.529 0.87761 0.0
N1098 N 0.63177 0.5119 0.90564 0.0
C1099 C 0.6118 0.50659 0.87291 0.0
C1100 C 0.63151 0.51597 0.88253 0.0
C1101 C 0.61167 0.5003 0.90959 0.0
N1102 N 0.59925 0.4968 0.88996 0.0
O1103 O 0.65039 0.49095 0.94267 0.0
H1104 H 0.64409 0.52606 0.87317 0.0
H1105 H 0.60623 0.4945 0.92659 0.0
O1106 O 0.67886 0.50719 0.90938 0.0
C1107 C 0.64006 0.48928 0.96212 0.0
O1108 O 0.63227 0.50814 0.97227 0.0
N1109 N 0.65668 0.55073 0.91525 0.0
C1110 C 0.65711 0.5945 0.89472 0.0
C1111 C 0.67796 0.58331 0.9002 0.0
C1112 C 0.67736 0.56165 0.91123 0.0
C1113 C 0.63634 0.5624 0.91188 0.0
C1114 C 0.63614 0.58422 0.90135 0.0
H1115 H 0.69353 0.55316 0.91556 0.0
H1116 H 0.62005 0.55446 0.91676 0.0
H1117 H 0.70557 0.50748 0.94809 0.0
H1118 H 0.69031 0.55988 0.99663 0.0
H1119 H 0.60666 0.50764 0.85487 0.0
H1120 H 0.69448 0.59098 0.89555 0.0
H1121 H 0.61971 0.59257 0.89757 0.0
C1122 C 0.71832 0.42498 0.21194 0.0
C1123 C 0.71436 0.44282 0.22715 0.0
N1124 N 0.72612 0.46152 0.21976 0.0
N1125 N 0.73256 0.43207 0.19463 0.0
C1126 C 0.73702 0.45464 0.20007 0.0
H1127 H 0.71069 0.40793 0.21347 0.0
Co1128 Co 0.74183 0.41411 0.16801 0.0
C1129 C 0.75937 0.45127 0.14539 0.0
O1130 O 0.73823 0.45053 0.13689 0.0
N1131 N 0.75069 0.39644 0.14179 0.0
C1132 C 0.74779 0.37976 0.10702 0.0
C1133 C 0.74066 0.39808 0.12069 0.0
C1134 C 0.76397 0.37702 0.14041 0.0
N1135 N 0.7625 0.3666 0.11949 0.0
O1136 O 0.76446 0.39756 0.18669 0.0
H1137 H 0.72766 0.4108 0.11607 0.0
H1138 H 0.7727 0.36923 0.15501 0.0
O1139 O 0.76519 0.43644 0.16074 0.0
C1140 C 0.76668 0.38791 0.20651 0.0
O1141 O 0.7489 0.38655 0.22066 0.0
N1142 N 0.71783 0.39295 0.17284 0.0
C1143 C 0.67969 0.36533 0.16199 0.0
C1144 C 0.67797 0.38958 0.16173 0.0
C1145 C 0.69731 0.403 0.16684 0.0
C1146 C 0.71965 0.3694 0.17481 0.0
C1147 C 0.70066 0.35518 0.16926 0.0
H1148 H 0.6965 0.42157 0.16422 0.0
H1149 H 0.73621 0.36144 0.17854 0.0
H1150 H 0.74736 0.46615 0.18947 0.0
H1151 H 0.70341 0.44218 0.24241 0.0
H1152 H 0.74163 0.37568 0.08974 0.0
H1153 H 0.66247 0.39817 0.15544 0.0
H1154 H 0.70279 0.3365 0.16917 0.0
C1155 C 0.82644 0.45903 0.47045 0.0
C1156 C 0.80926 0.45615 0.48677 0.0
N1157 N 0.79149 0.47038 0.48141 0.0
N1158 N 0.81954 0.47484 0.45467 0.0
C1159 C 0.7981 0.48142 0.46174 0.0
H1160 H 0.843 0.45018 0.47007 0.0
Co1161 Co 0.83812 0.48524 0.43016 0.0
C1162 C 0.79772 0.48944 0.39516 0.0
O1163 O 0.80112 0.47003 0.3838 0.0
N1164 N 0.85703 0.49607 0.40549 0.0
C1165 C 0.87257 0.50126 0.37047 0.0
C1166 C 0.85414 0.49223 0.38253 0.0
C1167 C 0.87756 0.50742 0.40686 0.0
N1168 N 0.88742 0.51068 0.38577 0.0
O1169 O 0.839 0.51535 0.4436 0.0
H1170 H 0.84035 0.48227 0.37489 0.0
H1171 H 0.88535 0.51276 0.42305 0.0
O1172 O 0.8107 0.4948 0.41238 0.0
C1173 C 0.85429 0.51673 0.45951 0.0
O1174 O 0.86525 0.49766 0.46554 0.0
N1175 N 0.83964 0.45501 0.41828 0.0
C1176 C 0.84981 0.41211 0.39863 0.0
C1177 C 0.82672 0.4183 0.40357 0.0
C1178 C 0.82203 0.43971 0.41422 0.0
C1179 C 0.86213 0.448 0.41608 0.0
C1180 C 0.86761 0.42695 0.4058 0.0
H1181 H 0.80434 0.4443 0.4185 0.0
H1182 H 0.87607 0.4593 0.42154 0.0
H1183 H 0.7877 0.49435 0.45292 0.0
H1184 H 0.80968 0.44417 0.50123 0.0
H1185 H 0.87541 0.49993 0.35194 0.0
H1186 H 0.81251 0.40694 0.39886 0.0
H1187 H 0.88568 0.42296 0.40247 0.0
C1188 C 0.79156 0.42249 0.77902 0.0
C1189 C 0.79785 0.4419 0.76658 0.0
N1190 N 0.78148 0.45828 0.76986 0.0
N1191 N 0.77146 0.42677 0.79022 0.0
C1192 C 0.76557 0.44856 0.78398 0.0
H1193 H 0.80098 0.40628 0.7798 0.0
Co1194 Co 0.75509 0.40681 0.80936 0.0
C1195 C 0.74301 0.43448 0.85097 0.0
O1196 O 0.74884 0.41686 0.86425 0.0
N1197 N 0.73748 0.38641 0.82835 0.0
C1198 C 0.70628 0.37303 0.84699 0.0
C1199 C 0.71525 0.39107 0.83436 0.0
C1200 C 0.74132 0.36495 0.83722 0.0
N1201 N 0.72276 0.35666 0.84891 0.0
O1202 O 0.72838 0.41105 0.79082 0.0
H1203 H 0.70589 0.40662 0.82954 0.0
H1204 H 0.75707 0.35512 0.83499 0.0
O1205 O 0.74537 0.43295 0.82893 0.0
C1206 C 0.72576 0.39722 0.77387 0.0
O1207 O 0.74293 0.38315 0.76858 0.0
N1208 N 0.78222 0.40173 0.82655 0.0
C1209 C 0.82278 0.38995 0.84968 0.0
C1210 C 0.814 0.41256 0.85112 0.0
C1211 C 0.79379 0.41825 0.83901 0.0
C1212 C 0.79213 0.38058 0.8229 0.0
C1213 C 0.81202 0.37399 0.83494 0.0
H1214 H 0.78761 0.43593 0.83961 0.0
H1215 H 0.78434 0.36866 0.81069 0.0
H1216 H 0.74989 0.45714 0.78968 0.0
H1217 H 0.81303 0.44367 0.75566 0.0
H1218 H 0.68867 0.37167 0.8534 0.0
H1219 H 0.8224 0.42549 0.86187 0.0
H1220 H 0.81891 0.35662 0.83283 0.0
C1221 C 0.83351 0.54415 0.0192 0.0
C1222 C 0.81446 0.54376 0.00488 0.0
N1223 N 0.79685 0.53327 0.01614 0.0
N1224 N 0.82817 0.534 0.03956 0.0
C1225 C 0.8057 0.5274 0.03719 0.0
H1226 H 0.85032 0.55135 0.01502 0.0
Co1227 Co 0.85027 0.53067 0.06315 0.0
C1228 C 0.82487 0.51783 0.10676 0.0
O1229 O 0.83954 0.52917 0.11992 0.0
N1230 N 0.87381 0.52742 0.08673 0.0
C1231 C 0.89949 0.53555 0.1147 0.0
C1232 C 0.88167 0.54397 0.10158 0.0
C1233 C 0.88751 0.50883 0.09166 0.0
N1234 N 0.90314 0.51348 0.10852 0.0
O1235 O 0.85506 0.4994 0.05366 0.0
H1236 H 0.87494 0.56123 0.10353 0.0
H1237 H 0.88677 0.49241 0.08264 0.0
O1238 O 0.82651 0.51901 0.08463 0.0
C1239 C 0.86966 0.49514 0.03764 0.0
O1240 O 0.88113 0.51252 0.02834 0.0
N1241 N 0.84632 0.56201 0.07087 0.0
C1242 C 0.85639 0.60529 0.08923 0.0
C1243 C 0.8363 0.59335 0.09623 0.0
C1244 C 0.83136 0.57156 0.08655 0.0
C1245 C 0.86356 0.57506 0.06123 0.0
C1246 C 0.86915 0.59672 0.07043 0.0
H1247 H 0.81683 0.56175 0.09312 0.0
H1248 H 0.87491 0.56734 0.04842 0.0
H1249 H 0.79622 0.51807 0.05039 0.0
H1250 H 0.81354 0.55102 0.98757 0.0
H1251 H 0.90936 0.54503 0.12757 0.0
H1252 H 0.82586 0.59968 0.11052 0.0
H1253 H 0.8846 0.6056 0.06444 0.0
C1254 C 0.70574 0.58278 0.27988 0.0
C1255 C 0.70223 0.56493 0.26438 0.0
N1256 N 0.71965 0.5495 0.26673 0.0
N1257 N 0.72507 0.57848 0.29234 0.0
C1258 C 0.73328 0.55815 0.28378 0.0
H1259 H 0.69491 0.59797 0.28185 0.0
Co1260 Co 0.73831 0.59754 0.31514 0.0
C1261 C 0.74612 0.56656 0.35551 0.0
O1262 O 0.73829 0.58291 0.36938 0.0
N1263 N 0.75286 0.61682 0.33776 0.0
C1264 C 0.78138 0.6291 0.3609 0.0
C1265 C 0.77391 0.61153 0.34676 0.0
C1266 C 0.74837 0.63833 0.34627 0.0
N1267 N 0.76527 0.64594 0.36072 0.0
O1268 O 0.76711 0.5962 0.29944 0.0
H1269 H 0.78372 0.59606 0.34264 0.0
H1270 H 0.7336 0.64878 0.34147 0.0
O1271 O 0.74643 0.56996 0.33354 0.0
C1272 C 0.76908 0.61419 0.28677 0.0
O1273 O 0.75096 0.62788 0.28469 0.0
N1274 N 0.70919 0.60095 0.32933 0.0
C1275 C 0.66819 0.61419 0.35103 0.0
C1276 C 0.67608 0.59117 0.35255 0.0
C1277 C 0.69651 0.58472 0.34106 0.0
C1278 C 0.70003 0.62233 0.32518 0.0
C1279 C 0.67977 0.62951 0.33618 0.0
H1280 H 0.70231 0.56693 0.34209 0.0
H1281 H 0.70903 0.6342 0.31376 0.0
H1282 H 0.74887 0.54979 0.29008 0.0
H1283 H 0.68804 0.56349 0.25215 0.0
H1284 H 0.79806 0.63 0.36951 0.0
H1285 H 0.66706 0.57857 0.36319 0.0
H1286 H 0.67356 0.64707 0.33362 0.0
C1287 C 0.66735 0.45981 0.5365 0.0
C1288 C 0.68495 0.45821 0.52049 0.0
N1289 N 0.70349 0.46975 0.5287 0.0
N1290 N 0.67447 0.47244 0.55497 0.0
C1291 C 0.69667 0.47826 0.54952 0.0
H1292 H 0.6504 0.45201 0.53462 0.0
Co1293 Co 0.65686 0.48034 0.58199 0.0
C1294 C 0.69369 0.49696 0.60471 0.0
O1295 O 0.6937 0.47517 0.61136 0.0
N1296 N 0.63943 0.48832 0.6086 0.0
C1297 C 0.62551 0.48968 0.64461 0.0
C1298 C 0.64315 0.48148 0.63066 0.0
C1299 C 0.61937 0.5005 0.60966 0.0
N1300 N 0.61025 0.50144 0.63128 0.0
O1301 O 0.64002 0.50321 0.56417 0.0
H1302 H 0.65743 0.47071 0.63627 0.0
H1303 H 0.61089 0.50761 0.59455 0.0
O1304 O 0.6788 0.50375 0.58986 0.0
C1305 C 0.62793 0.50598 0.54586 0.0
O1306 O 0.62349 0.48822 0.53231 0.0
N1307 N 0.63606 0.45611 0.57666 0.0
C1308 C 0.60932 0.41892 0.5918 0.0
C1309 C 0.6335 0.41692 0.59012 0.0
C1310 C 0.64654 0.43582 0.5827 0.0
C1311 C 0.61242 0.45761 0.57555 0.0
C1312 C 0.59865 0.43901 0.58301 0.0
H1313 H 0.66523 0.43518 0.58432 0.0
H1314 H 0.60404 0.47384 0.57148 0.0
H1315 H 0.7076 0.48892 0.56035 0.0
H1316 H 0.68428 0.44889 0.50419 0.0
H1317 H 0.62431 0.487 0.66312 0.0
H1318 H 0.6425 0.40187 0.59692 0.0
H1319 H 0.57999 0.44111 0.5838 0.0
C1320 C 0.71234 0.79002 0.58267 0.0
C1321 C 0.72756 0.79455 0.56497 0.0
N1322 N 0.71897 0.78532 0.5454 0.0
N1323 N 0.69384 0.77805 0.57453 0.0
C1324 C 0.69865 0.77522 0.55158 0.0
H1325 H 0.71481 0.79535 0.60046 0.0
Co1326 Co 0.6685 0.76764 0.59336 0.0
C1327 C 0.64639 0.75012 0.5568 0.0
O1328 O 0.64 0.772 0.55621 0.0
N1329 N 0.64407 0.7569 0.6124 0.0
C1330 C 0.61121 0.75614 0.63278 0.0
C1331 C 0.62225 0.76531 0.61351 0.0
C1332 C 0.64565 0.74236 0.63083 0.0
N1333 N 0.62616 0.74187 0.64373 0.0
O1334 O 0.68932 0.74694 0.60863 0.0
H1335 H 0.6154 0.77853 0.60208 0.0
H1336 H 0.6613 0.73342 0.63594 0.0
O1337 O 0.66137 0.74373 0.57176 0.0
C1338 C 0.70711 0.74377 0.62128 0.0
O1339 O 0.7189 0.76156 0.62927 0.0
N1340 N 0.67281 0.7922 0.61404 0.0
C1341 C 0.65773 0.82941 0.64084 0.0
C1342 C 0.65918 0.83132 0.61664 0.0
C1343 C 0.66648 0.81242 0.60359 0.0
C1344 C 0.67376 0.7906 0.63768 0.0
C1345 C 0.66612 0.80912 0.65147 0.0
H1346 H 0.66472 0.81308 0.58492 0.0
H1347 H 0.67785 0.77432 0.64596 0.0
H1348 H 0.68752 0.76616 0.5395 0.0
H1349 H 0.74388 0.80376 0.5664 0.0
H1350 H 0.59423 0.76101 0.63921 0.0
H1351 H 0.65223 0.84628 0.60762 0.0
H1352 H 0.66497 0.8069 0.6701 0.0
C1353 C 0.22547 0.70978 0.41397 0.0
C1354 C 0.24003 0.70357 0.43183 0.0
N1355 N 0.23653 0.71846 0.44946 0.0
N1356 N 0.21267 0.72825 0.42056 0.0
C1357 C 0.22006 0.73338 0.44216 0.0
H1358 H 0.22428 0.70139 0.39724 0.0
Co1359 Co 0.19068 0.74309 0.40254 0.0
C1360 C 0.14931 0.74838 0.43244 0.0
O1361 O 0.1363 0.74067 0.41535 0.0
N1362 N 0.16905 0.75896 0.38389 0.0
C1363 C 0.14658 0.78781 0.37117 0.0
C1364 C 0.15885 0.77931 0.38974 0.0
C1365 C 0.16319 0.75595 0.3614 0.0
N1366 N 0.14954 0.77313 0.35333 0.0
O1367 O 0.20575 0.77214 0.40747 0.0
H1368 H 0.16095 0.78799 0.40624 0.0
H1369 H 0.16932 0.74203 0.35065 0.0
O1370 O 0.17138 0.74932 0.42989 0.0
C1371 C 0.22415 0.77751 0.39659 0.0
O1372 O 0.23417 0.76189 0.38334 0.0
N1373 N 0.17634 0.71404 0.39708 0.0
C1374 C 0.15103 0.67474 0.3852 0.0
C1375 C 0.15323 0.68142 0.40852 0.0
C1376 C 0.16634 0.70098 0.41416 0.0
C1377 C 0.17821 0.70507 0.37529 0.0
C1378 C 0.16497 0.68589 0.36867 0.0
H1379 H 0.16782 0.70598 0.43216 0.0
H1380 H 0.18956 0.71318 0.36279 0.0
H1381 H 0.21346 0.74767 0.45238 0.0
H1382 H 0.25242 0.68945 0.4318 0.0
H1383 H 0.13723 0.8041 0.37046 0.0
H1384 H 0.1443 0.67209 0.42218 0.0
H1385 H 0.16494 0.68053 0.35066 0.0
C1386 C 0.53916 0.96208 0.67755 0.0
C1387 C 0.54256 0.97888 0.6941 0.0
N1388 N 0.52696 0.97558 0.71119 0.0
N1389 N 0.52173 0.94803 0.68428 0.0
C1390 C 0.51458 0.95668 0.70488 0.0
H1391 H 0.54862 0.96032 0.66143 0.0
Co1392 Co 0.51012 0.92471 0.6655 0.0
C1393 C 0.49844 0.88603 0.69736 0.0
O1394 O 0.50914 0.87165 0.68322 0.0
N1395 N 0.49767 0.90208 0.6451 0.0
C1396 C 0.47092 0.88017 0.62762 0.0
C1397 C 0.47762 0.89023 0.64816 0.0
C1398 C 0.5021 0.89969 0.62211 0.0
N1399 N 0.4862 0.88637 0.61115 0.0
O1400 O 0.48147 0.94087 0.66321 0.0
H1401 H 0.46717 0.89056 0.66372 0.0
H1402 H 0.5156 0.90896 0.61309 0.0
O1403 O 0.49796 0.90776 0.69264 0.0
C1404 C 0.47908 0.95323 0.64511 0.0
O1405 O 0.4967 0.95498 0.63073 0.0
N1406 N 0.53926 0.90957 0.66721 0.0
C1407 C 0.58325 0.88927 0.6669 0.0
C1408 C 0.5706 0.89089 0.68757 0.0
C1409 C 0.54893 0.90186 0.6875 0.0
C1410 C 0.55229 0.90989 0.64748 0.0
C1411 C 0.57412 0.89945 0.6468 0.0
H1412 H 0.54005 0.90417 0.70383 0.0
H1413 H 0.54609 0.91885 0.63231 0.0
H1414 H 0.50017 0.94976 0.71469 0.0
H1415 H 0.55569 0.9923 0.69373 0.0
H1416 H 0.45496 0.87072 0.62461 0.0
H1417 H 0.57747 0.88389 0.70361 0.0
H1418 H 0.58358 0.89902 0.63056 0.0
C1419 C 0.28144 0.26241 0.92476 0.0
C1420 C 0.26694 0.26557 0.94341 0.0
N1421 N 0.27994 0.26557 0.96273 0.0
N1422 N 0.30354 0.25997 0.93225 0.0
C1423 C 0.30205 0.26233 0.95561 0.0
H1424 H 0.27607 0.26227 0.90686 0.0
Co1425 Co 0.32977 0.25392 0.91354 0.0
C1426 C 0.35608 0.23935 0.94868 0.0
O1427 O 0.36172 0.26136 0.94682 0.0
N1428 N 0.35582 0.2477 0.89499 0.0
C1429 C 0.38743 0.25588 0.87448 0.0
C1430 C 0.37464 0.26156 0.89384 0.0
C1431 C 0.35796 0.23323 0.8766 0.0
N1432 N 0.37673 0.23822 0.86354 0.0
O1433 O 0.312 0.22928 0.89806 0.0
H1434 H 0.3776 0.27635 0.905 0.0
H1435 H 0.34467 0.22117 0.87116 0.0
O1436 O 0.34031 0.23136 0.93536 0.0
C1437 C 0.29657 0.22533 0.88261 0.0
O1438 O 0.28792 0.24251 0.87041 0.0
N1439 N 0.32166 0.27831 0.89305 0.0
C1440 C 0.33557 0.31869 0.86988 0.0
C1441 C 0.32969 0.31924 0.89346 0.0
C1442 C 0.32287 0.29891 0.90467 0.0
C1443 C 0.32473 0.27791 0.86949 0.0
C1444 C 0.33175 0.29797 0.85759 0.0
H1445 H 0.32181 0.29917 0.92339 0.0
H1446 H 0.32493 0.26168 0.86019 0.0
H1447 H 0.31675 0.26141 0.96725 0.0
H1448 H 0.24831 0.26804 0.94285 0.0
H1449 H 0.40232 0.26526 0.86788 0.0
H1450 H 0.33294 0.33452 0.90389 0.0
H1451 H 0.33614 0.29675 0.83935 0.0
C1452 C 0.45132 0.52776 0.6799 0.0
C1453 C 0.44619 0.51352 0.69835 0.0
N1454 N 0.46089 0.51852 0.71581 0.0
N1455 N 0.46904 0.54185 0.68574 0.0
C1456 C 0.47475 0.53562 0.70767 0.0
H1457 H 0.44273 0.52785 0.66321 0.0
Co1458 Co 0.48199 0.56359 0.66569 0.0
C1459 C 0.49093 0.60541 0.69297 0.0
O1460 O 0.48062 0.61714 0.67633 0.0
N1461 N 0.49621 0.58516 0.64496 0.0
C1462 C 0.52502 0.60657 0.6304 0.0
C1463 C 0.51764 0.59391 0.64907 0.0
C1464 C 0.4913 0.59246 0.62313 0.0
N1465 N 0.50853 0.60555 0.61398 0.0
O1466 O 0.51113 0.54716 0.66698 0.0
H1467 H 0.52785 0.59046 0.66444 0.0
H1468 H 0.47595 0.5877 0.61363 0.0
O1469 O 0.4919 0.58319 0.69176 0.0
C1470 C 0.51799 0.53735 0.64839 0.0
O1471 O 0.50456 0.53795 0.62997 0.0
N1472 N 0.4526 0.57869 0.66391 0.0
C1473 C 0.41081 0.60263 0.65833 0.0
C1474 C 0.42121 0.60088 0.68022 0.0
C1475 C 0.44168 0.58808 0.68281 0.0
C1476 C 0.44112 0.57769 0.64325 0.0
C1477 C 0.42047 0.59003 0.63988 0.0
H1478 H 0.44912 0.58638 0.69994 0.0
H1479 H 0.44807 0.56739 0.62923 0.0
H1480 H 0.48862 0.54357 0.71754 0.0
H1481 H 0.43286 0.5003 0.69881 0.0
H1482 H 0.54183 0.61474 0.62849 0.0
H1483 H 0.41375 0.60956 0.69513 0.0
H1484 H 0.4126 0.59031 0.62281 0.0
C1485 C 0.78503 0.21468 0.07525 0.0
C1486 C 0.76909 0.21228 0.05761 0.0
N1487 N 0.77561 0.22607 0.03988 0.0
N1488 N 0.80148 0.22993 0.06869 0.0
C1489 C 0.79515 0.23679 0.04718 0.0
H1490 H 0.78491 0.2056 0.09169 0.0
Co1491 Co 0.82712 0.23824 0.08643 0.0
C1492 C 0.85969 0.24379 0.0444 0.0
O1493 O 0.8712 0.22428 0.04667 0.0
N1494 N 0.85266 0.24687 0.10456 0.0
C1495 C 0.88805 0.25245 0.11896 0.0
C1496 C 0.87561 0.24616 0.09968 0.0
C1497 C 0.85165 0.25361 0.12696 0.0
N1498 N 0.87296 0.25689 0.13615 0.0
O1499 O 0.81481 0.26951 0.08975 0.0
H1500 H 0.88323 0.2405 0.08366 0.0
H1501 H 0.83555 0.25559 0.13644 0.0
O1502 O 0.8435 0.249 0.05868 0.0
C1503 C 0.79614 0.27369 0.10092 0.0
O1504 O 0.78467 0.25631 0.1102 0.0
N1505 N 0.8386 0.20726 0.08445 0.0
C1506 C 0.86009 0.16383 0.08522 0.0
C1507 C 0.85131 0.17287 0.0644 0.0
C1508 C 0.83978 0.19435 0.06456 0.0
C1509 C 0.84476 0.1974 0.10511 0.0
C1510 C 0.85579 0.17586 0.10585 0.0
H1511 H 0.83307 0.20124 0.04844 0.0
H1512 H 0.84184 0.20659 0.12118 0.0
H1513 H 0.80465 0.24945 0.03708 0.0
H1514 H 0.75426 0.20076 0.05753 0.0
H1515 H 0.90678 0.25277 0.12054 0.0
H1516 H 0.85382 0.16372 0.04818 0.0
H1517 H 0.86183 0.16913 0.12234 0.0
C1518 C 0.54075 0.03412 0.83236 0.0
C1519 C 0.54131 0.01766 0.81519 0.0
N1520 N 0.52982 0.026 0.7967 0.0
N1521 N 0.52881 0.05295 0.82497 0.0
C1522 C 0.52247 0.04738 0.803 0.0
H1523 H 0.54869 0.0322 0.84923 0.0
Co1524 Co 0.52145 0.08003 0.84229 0.0
C1525 C 0.50129 0.1045 0.8069 0.0
O1526 O 0.52143 0.11514 0.80757 0.0
N1527 N 0.51416 0.1066 0.8594 0.0
C1528 C 0.52089 0.13942 0.87843 0.0
C1529 C 0.52752 0.1258 0.85997 0.0
C1530 C 0.49913 0.10922 0.87725 0.0
N1531 N 0.50305 0.12892 0.88925 0.0
O1532 O 0.49875 0.06221 0.85915 0.0
H1533 H 0.54254 0.12858 0.84905 0.0
H1534 H 0.48731 0.09585 0.88304 0.0
O1535 O 0.49756 0.08772 0.82078 0.0
C1536 C 0.49678 0.04411 0.87168 0.0
O1537 O 0.51527 0.0323 0.87783 0.0
N1538 N 0.54581 0.07449 0.86297 0.0
C1539 C 0.58458 0.08588 0.88952 0.0
C1540 C 0.58619 0.08385 0.86531 0.0
C1541 C 0.56658 0.07832 0.8524 0.0
C1542 C 0.54411 0.07465 0.88662 0.0
C1543 C 0.56345 0.08017 0.90027 0.0
H1544 H 0.56739 0.07943 0.83368 0.0
H1545 H 0.52741 0.07303 0.89497 0.0
H1546 H 0.5122 0.05851 0.79194 0.0
H1547 H 0.54978 1.00091 0.81612 0.0
H1548 H 0.52968 0.15485 0.88456 0.0
H1549 H 0.60175 0.08896 0.85609 0.0
H1550 H 0.56137 0.08192 0.91887 0.0
C1551 C 0.96111 0.96798 0.32444 0.0
C1552 C 0.95864 0.9838 0.30677 0.0
N1553 N 0.97319 0.97798 0.2895 0.0
N1554 N 0.97713 0.95182 0.31862 0.0
C1555 C 0.98421 0.95859 0.29706 0.0
H1556 H 0.95158 0.96849 0.34058 0.0
Co1557 Co 0.98605 0.92522 0.33694 0.0
C1558 C 0.00629 0.90481 0.3008 0.0
O1559 O 0.98488 0.8971 0.29941 0.0
N1560 N 0.99484 0.89909 0.35508 0.0
C1561 C 0.99882 0.86317 0.36912 0.0
C1562 C 0.99195 0.87633 0.35025 0.0
C1563 C 0.00332 0.89918 0.37703 0.0
N1564 N 0.0057 0.87769 0.38604 0.0
O1565 O 0.00636 0.94429 0.35577 0.0
H1566 H 0.98457 0.86963 0.33438 0.0
H1567 H 0.00708 0.91474 0.38671 0.0
O1568 O 0.01136 0.9194 0.31662 0.0
C1569 C 0.00903 0.96445 0.36448 0.0
O1570 O 0.99302 0.98038 0.36154 0.0
N1571 N 0.96005 0.9284 0.35601 0.0
C1572 C 0.92271 0.91074 0.38106 0.0
C1573 C 0.92264 0.91038 0.35676 0.0
C1574 C 0.94159 0.91907 0.34462 0.0
C1575 C 0.95943 0.93146 0.37951 0.0
C1576 C 0.94084 0.92245 0.39248 0.0
H1577 H 0.94268 0.91621 0.32609 0.0
H1578 H 0.97417 0.93868 0.38854 0.0
H1579 H 0.9967 0.94919 0.2867 0.0
H1580 H 0.94693 0.99849 0.30661 0.0
H1581 H 0.99792 0.84447 0.37063 0.0
H1582 H 0.90915 0.90138 0.34726 0.0
H1583 H 0.94139 0.92325 0.41125 0.0
C1584 C 0.02262 0.12582 0.25143 0.0
C1585 C 0.04424 0.13549 0.2457 0.0
C1586 C 0.00924 0.1144 0.23467 0.0
C1587 C 0.01737 0.11163 0.21183 0.0
H1588 H 0.0159 0.12728 0.26893 0.0
H1589 H 0.99247 0.1075 0.23968 0.0
S1590 S 0.07313 0.13324 0.18815 0.0
N1591 N 0.07331 0.14146 0.21561 0.0
N1592 N 0.04835 0.11937 0.18429 0.0
C1593 C 0.0391 0.1209 0.20594 0.0
C1594 C 0.05249 0.13304 0.22284 0.0
C1595 C 0.1142 0.7648 0.45189 0.0
C1596 C 0.13808 0.7596 0.45269 0.0
C1597 C 0.10376 0.77883 0.46876 0.0
C1598 C 0.11681 0.78822 0.48711 0.0
H1599 H 0.10361 0.759 0.43748 0.0
H1600 H 0.08563 0.78334 0.46664 0.0
S1601 S 0.17891 0.7762 0.49966 0.0
N1602 N 0.17371 0.76228 0.47518 0.0
N1603 N 0.15414 0.78864 0.50693 0.0
C1604 C 0.14026 0.78163 0.48918 0.0
C1605 C 0.15089 0.76733 0.47197 0.0
C1606 C 0.47725 0.85316 0.71599 0.0
C1607 C 0.48451 0.87647 0.71678 0.0
C1608 C 0.46232 0.84399 0.73283 0.0
C1609 C 0.45422 0.85764 0.75138 0.0
H1610 H 0.48249 0.84201 0.70179 0.0
H1611 H 0.45677 0.82612 0.73099 0.0
S1612 S 0.46979 0.91922 0.7626 0.0
N1613 N 0.48367 0.91262 0.73843 0.0
N1614 N 0.45576 0.89544 0.77027 0.0
C1615 C 0.46214 0.88073 0.75297 0.0
C1616 C 0.4772 0.89014 0.73561 0.0
C1617 C 0.369 0.1892 0.98944 0.0
C1618 C 0.39076 0.19516 0.99889 0.0
C1619 C 0.35796 0.20346 0.97311 0.0
C1620 C 0.36806 0.22445 0.9659 0.0
H1621 H 0.36064 0.17307 0.99428 0.0
H1622 H 0.34134 0.19804 0.96618 0.0
S1623 S 0.42451 0.24834 0.98612 0.0
N1624 N 0.4217 0.22362 1.00033 0.0
N1625 N 0.40107 0.25063 0.96978 0.0
C1626 C 0.38968 0.23078 0.97551 0.0
C1627 C 0.40101 0.21608 0.99194 0.0
C1628 C 0.03861 0.86302 0.26182 0.0
C1629 C 0.05751 0.87624 0.25395 0.0
C1630 C 0.02203 0.87259 0.27678 0.0
C1631 C 0.02405 0.89554 0.28488 0.0
H1632 H 0.03646 0.84523 0.2562 0.0
H1633 H 0.00769 0.86178 0.28235 0.0
S1634 S 0.07042 0.93739 0.26972 0.0
N1635 N 0.07729 0.91357 0.25533 0.0
N1636 N 0.04632 0.93129 0.28396 0.0
C1637 C 0.04293 0.90892 0.27733 0.0
C1638 C 0.05959 0.89934 0.2617 0.0
C1639 C 0.35185 0.78715 0.52214 0.0
C1640 C 0.36556 0.77262 0.53602 0.0
C1641 C 0.36212 0.80382 0.5077 0.0
C1642 C 0.38643 0.80691 0.50706 0.0
H1643 H 0.33313 0.78529 0.52207 0.0
H1644 H 0.35083 0.81439 0.49702 0.0
S1645 S 0.42955 0.77452 0.54247 0.0
N1646 N 0.40431 0.7629 0.54943 0.0
N1647 N 0.42362 0.79493 0.52327 0.0
C1648 C 0.40018 0.79293 0.52166 0.0
C1649 C 0.38974 0.7756 0.53589 0.0
C1650 C 0.46623 0.14415 0.76775 0.0
C1651 C 0.44875 0.12945 0.75924 0.0
C1652 C 0.48328 0.1358 0.78297 0.0
C1653 C 0.48312 0.11262 0.7907 0.0
H1654 H 0.46697 0.16213 0.76236 0.0
H1655 H 0.49652 0.14773 0.78896 0.0
S1656 S 0.44048 0.06733 0.77425 0.0
N1657 N 0.43204 0.09068 0.75993 0.0
N1658 N 0.46376 0.07519 0.78899 0.0
C1659 C 0.46551 0.09784 0.78263 0.0
C1660 C 0.44843 0.1062 0.76676 0.0
C1661 C 0.12538 0.22121 0.02977 0.0
C1662 C 0.11874 0.22985 0.00795 0.0
C1663 C 0.13684 0.23539 0.04584 0.0
C1664 C 0.14148 0.25881 0.04083 0.0
H1665 H 0.12229 0.2032 0.0342 0.0
H1666 H 0.14183 0.22803 0.06242 0.0
S1667 S 0.12684 0.28985 0.98642 0.0
N1668 N 0.11745 0.2631 0.98212 0.0
N1669 N 0.13809 0.29015 0.0128 0.0
C1670 C 0.13443 0.26778 0.01929 0.0
C1671 C 0.12332 0.25317 0.00268 0.0
C1672 C 0.22742 0.02967 0.14701 0.0
C1673 C 0.24821 0.03415 0.13496 0.0
C1674 C 0.20935 0.01695 0.13679 0.0
C1675 C 0.21118 0.00839 0.11398 0.0
H1676 H 0.22474 0.03663 0.16427 0.0
H1677 H 0.19343 0.01473 0.14654 0.0
S1678 S 0.26276 0.01292 0.07576 0.0
N1679 N 0.27021 0.02712 0.0995 0.0
N1680 N 0.23615 0.00341 0.08043 0.0
C1681 C 0.23223 0.01171 0.10214 0.0
C1682 C 0.25077 0.02448 0.1126 0.0
C1683 C 0.19126 0.98318 0.36849 0.0
C1684 C 0.19504 0.99331 0.39042 0.0
C1685 C 0.20885 0.97082 0.35704 0.0
C1686 C 0.23104 0.9684 0.36691 0.0
H1687 H 0.17434 0.98416 0.36034 0.0
H1688 H 0.20493 0.9629 0.34045 0.0
S1689 S 0.25025 0.99285 0.42349 0.0
N1690 N 0.22285 1.00089 0.42116 0.0
N1691 N 0.25602 0.97797 0.3997 0.0
C1692 C 0.23526 0.97909 0.38854 0.0
C1693 C 0.21724 0.99144 0.40029 0.0
C1694 C 0.29489 0.97603 0.63846 0.0
C1695 C 0.29621 0.97717 0.61407 0.0
C1696 C 0.28033 0.96001 0.64956 0.0
C1697 C 0.26615 0.94511 0.63658 0.0
H1698 H 0.30506 0.98777 0.64906 0.0
H1699 H 0.27945 0.95997 0.66835 0.0
S1700 S 0.26405 0.94039 0.57237 0.0
N1701 N 0.28313 0.96119 0.57736 0.0
N1702 N 0.2551 0.93156 0.59815 0.0
C1703 C 0.26773 0.94567 0.6122 0.0
C1704 C 0.28297 0.96158 0.60094 0.0
C1705 C 0.2945 0.04829 0.85566 0.0
C1706 C 0.27228 0.0383 0.85696 0.0
C1707 C 0.31257 0.04067 0.87004 0.0
C1708 C 0.30928 0.02255 0.88614 0.0
H1709 H 0.29777 0.06282 0.84418 0.0
H1710 H 0.32918 0.04936 0.86872 0.0
S1711 S 0.25498 0.98902 0.89475 0.0
N1712 N 0.24838 0.00823 0.87452 0.0
N1713 N 0.28246 0.99375 0.90135 0.0
C1714 C 0.28747 0.01162 0.88681 0.0
C1715 C 0.26896 0.01954 0.87229 0.0
C1716 C 0.62997 0.27123 0.00114 0.0
C1717 C 0.6242 0.29356 0.99322 0.0
C1718 C 0.63641 0.25374 0.9855 0.0
C1719 C 0.63806 0.25838 0.96162 0.0
H1720 H 0.62919 0.26721 0.0195 0.0
H1721 H 0.64049 0.23662 0.99212 0.0
S1722 S 0.62481 0.31408 0.93231 0.0
N1723 N 0.62004 0.3193 0.96011 0.0
N1724 N 0.63329 0.28672 0.93075 0.0
C1725 C 0.63255 0.2807 0.95354 0.0
C1726 C 0.62529 0.29825 0.96937 0.0
C1727 C 0.97328 0.39842 0.22078 0.0
C1728 C 0.99017 0.38457 0.20985 0.0
C1729 C 0.95743 0.38886 0.23659 0.0
C1730 C 0.95781 0.36504 0.24217 0.0
H1731 H 0.97144 0.41656 0.21622 0.0
H1732 H 0.94406 0.40009 0.24355 0.0
S1733 S 0.00137 0.32217 0.22165 0.0
N1734 N 0.00831 0.34646 0.20812 0.0
N1735 N 0.97863 0.32857 0.23785 0.0
C1736 C 0.97579 0.35141 0.23277 0.0
C1737 C 0.99191 0.36114 0.21662 0.0
C1738 C 0.85898 0.70564 0.48885 0.0
C1739 C 0.88243 0.70576 0.49583 0.0
C1740 C 0.85014 0.72273 0.47396 0.0
C1741 C 0.86441 0.74061 0.46544 0.0
H1742 H 0.84756 0.69162 0.49394 0.0
H1743 H 0.83233 0.72114 0.46814 0.0
S1744 S 0.92582 0.75127 0.48181 0.0
N1745 N 0.91883 0.72713 0.49555 0.0
N1746 N 0.90228 0.75917 0.46751 0.0
C1747 C 0.88737 0.74194 0.47366 0.0
C1748 C 0.89636 0.72455 0.48886 0.0
C1749 C 0.98534 0.64916 0.28967 0.0
C1750 C 0.98983 0.6251 0.28968 0.0
C1751 C 0.97288 0.65975 0.27168 0.0
C1752 C 0.96469 0.64683 0.2527 0.0
H1753 H 0.9908 0.65991 0.30408 0.0
H1754 H 0.96923 0.67815 0.2729 0.0
S1755 S 0.9728 0.58357 0.24348 0.0
N1756 N 0.98578 0.58888 0.26845 0.0
N1757 N 0.96266 0.6088 0.23447 0.0
C1758 C 0.96983 0.62295 0.25193 0.0
C1759 C 0.98228 0.61208 0.27045 0.0
C1760 C 0.50555 0.35741 0.79447 0.0
C1761 C 0.50541 0.38074 0.80182 0.0
C1762 C 0.52055 0.34973 0.77695 0.0
C1763 C 0.53593 0.36508 0.76587 0.0
H1764 H 0.49434 0.34474 0.80265 0.0
H1765 H 0.52036 0.3315 0.77239 0.0
S1766 S 0.54176 0.42825 0.77779 0.0
N1767 N 0.52163 0.41931 0.79607 0.0
N1768 N 0.54946 0.40505 0.76289 0.0
C1769 C 0.53542 0.38866 0.77243 0.0
C1770 C 0.52028 0.39644 0.79046 0.0
C1771 C 0.51489 0.60573 0.72912 0.0
C1772 C 0.50432 0.61804 0.71087 0.0
C1773 C 0.52975 0.61688 0.74477 0.0
C1774 C 0.53484 0.64062 0.74247 0.0
H1775 H 0.5121 0.58724 0.73107 0.0
H1776 H 0.53798 0.60664 0.75822 0.0
S1777 S 0.50991 0.68136 0.69949 0.0
N1778 N 0.49856 0.65594 0.69279 0.0
N1779 N 0.52692 0.67655 0.72202 0.0
C1780 C 0.5238 0.65335 0.72496 0.0
C1781 C 0.50838 0.64215 0.70923 0.0
C1782 C 0.85519 0.28223 0.02482 0.0
C1783 C 0.86821 0.26183 0.02815 0.0
C1784 C 0.86411 0.30091 0.01211 0.0
C1785 C 0.88649 0.30002 0.00238 0.0
H1786 H 0.8382 0.28411 0.03266 0.0
H1787 H 0.85371 0.31651 0.01075 0.0
S1788 S 0.92661 0.24969 0.00356 0.0
N1789 N 0.90392 0.24114 0.01879 0.0
N1790 N 0.92057 0.27634 0.99497 0.0
C1791 C 0.89922 0.27934 0.00451 0.0
C1792 C 0.89009 0.26021 0.01732 0.0
C1793 C 0.61927 0.72514 0.50253 0.0
C1794 C 0.6103 0.70381 0.51022 0.0
C1795 C 0.63119 0.73991 0.51773 0.0
C1796 C 0.63529 0.73346 0.5409 0.0
H1797 H 0.61684 0.73055 0.48469 0.0
H1798 H 0.6374 0.75644 0.51126 0.0
S1799 S 0.61595 0.67916 0.56942 0.0
N1800 N 0.60637 0.67689 0.54249 0.0
N1801 N 0.62954 0.70437 0.57087 0.0
C1802 C 0.62677 0.71202 0.54873 0.0
C1803 C 0.61404 0.69726 0.53343 0.0
C1804 C 0.72582 0.52584 0.60294 0.0
C1805 C 0.70951 0.51339 0.616 0.0
C1806 C 0.74186 0.54052 0.61388 0.0
C1807 C 0.74168 0.54363 0.63816 0.0
H1808 H 0.72644 0.5239 0.58424 0.0
H1809 H 0.75418 0.54983 0.60316 0.0
S1810 S 0.70151 0.51527 0.67975 0.0
N1811 N 0.69384 0.50493 0.65416 0.0
N1812 N 0.72322 0.53328 0.67469 0.0
C1813 C 0.72508 0.53148 0.65127 0.0
C1814 C 0.70919 0.51613 0.64018 0.0
C1815 C 0.72112 0.45311 0.88346 0.0
C1816 C 0.73163 0.45503 0.86148 0.0
C1817 C 0.70827 0.47145 0.89296 0.0
C1818 C 0.70546 0.49253 0.88092 0.0
H1819 H 0.72211 0.43703 0.89313 0.0
H1820 H 0.69995 0.46877 0.9096 0.0
S1821 S 0.73208 0.50738 0.824 0.0
N1822 N 0.7402 0.48036 0.8289 0.0
N1823 N 0.71614 0.51488 0.84659 0.0
C1824 C 0.71688 0.49507 0.8594 0.0
C1825 C 0.7299 0.47632 0.84972 0.0
C1826 C 0.77254 0.47846 0.11432 0.0
C1827 C 0.77599 0.46875 0.13649 0.0
C1828 C 0.7882 0.49456 0.10499 0.0
C1829 C 0.80774 0.50193 0.1176 0.0
H1830 H 0.75783 0.47325 0.10383 0.0
H1831 H 0.78496 0.50122 0.08772 0.0
S1832 S 0.82411 0.48246 0.17693 0.0
N1833 N 0.80004 0.46807 0.1711 0.0
N1834 N 0.82939 0.49853 0.1538 0.0
C1835 C 0.81112 0.49272 0.14005 0.0
C1836 C 0.7953 0.47607 0.14941 0.0
C1837 C 0.77645 0.52714 0.39866 0.0
C1838 C 0.7819 0.50736 0.38543 0.0
C1839 C 0.76409 0.54574 0.38905 0.0
C1840 C 0.75685 0.54549 0.36571 0.0
H1841 H 0.78229 0.52857 0.41648 0.0
H1842 H 0.76098 0.56081 0.39985 0.0
S1843 S 0.76475 0.49705 0.32405 0.0
N1844 N 0.77755 0.48802 0.34804 0.0
N1845 N 0.75445 0.52309 0.33007 0.0
C1846 C 0.76127 0.52546 0.35253 0.0
C1847 C 0.77371 0.50636 0.36236 0.0
C1848 C 0.11681 0.22162 0.17261 0.0
C1849 C 0.13651 0.23571 0.16977 0.0
C1850 C 0.1105 0.21313 0.19451 0.0
C1851 C 0.12351 0.2187 0.21443 0.0
H1852 H 0.10628 0.21707 0.15773 0.0
H1853 H 0.09524 0.20223 0.19582 0.0
S1854 S 0.17631 0.25575 0.21612 0.0
N1855 N 0.16868 0.25535 0.18853 0.0
N1856 N 0.15707 0.23946 0.22971 0.0
C1857 C 0.14327 0.23288 0.21174 0.0
C1858 C 0.14973 0.24135 0.18941 0.0
C1859 C 0.02831 0.85347 0.41359 0.0
C1860 C 0.01276 0.87184 0.40942 0.0
C1861 C 0.03648 0.84863 0.43614 0.0
C1862 C 0.02927 0.86189 0.45543 0.0
H1863 H 0.03472 0.84321 0.39921 0.0
H1864 H 0.04894 0.83472 0.43836 0.0
S1865 S 0.98618 0.90993 0.45395 0.0
N1866 N 0.98877 0.90186 0.42661 0.0
N1867 N 0.00393 0.89301 0.46876 0.0
C1868 C 0.01293 0.87971 0.45148 0.0
C1869 C 0.00474 0.88462 0.42857 0.0
C1870 C 0.40072 0.77249 0.66455 0.0
C1871 C 0.37868 0.76702 0.65559 0.0
C1872 C 0.40353 0.77891 0.68789 0.0
C1873 C 0.38445 0.7794 0.70309 0.0
H1874 H 0.41585 0.77155 0.65345 0.0
H1875 H 0.4208 0.78282 0.69424 0.0
S1876 S 0.32299 0.76741 0.6882 0.0
N1877 N 0.33736 0.76328 0.6638 0.0
N1878 N 0.34274 0.77501 0.70747 0.0
C1879 C 0.36231 0.77439 0.69428 0.0
C1880 C 0.35938 0.76828 0.67055 0.0
C1881 C 0.50424 0.13852 0.95358 0.0
C1882 C 0.48055 0.13843 0.95954 0.0
C1883 C 0.51141 0.13629 0.93046 0.0
C1884 C 0.49518 0.13347 0.91248 0.0
H1885 H 0.5174 0.14024 0.9669 0.0
H1886 H 0.52982 0.136 0.92666 0.0
S1887 S 0.43124 0.13221 0.91858 0.0
N1888 N 0.44083 0.13584 0.94536 0.0
N1889 N 0.45454 0.13089 0.90191 0.0
C1890 C 0.47149 0.13347 0.91808 0.0
C1891 C 0.46411 0.13622 0.9416 0.0
C1892 C 0.11928 0.78575 0.32598 0.0
C1893 C 0.1414 0.77629 0.32998 0.0
C1894 C 0.1114 0.79001 0.30341 0.0
C1895 C 0.12533 0.7848 0.28406 0.0
H1896 H 0.10808 0.79003 0.34045 0.0
H1897 H 0.0944 0.79773 0.3011 0.0
S1898 S 0.18516 0.76095 0.28527 0.0
N1899 N 0.17753 0.76279 0.3128 0.0
N1900 N 0.1625 0.77015 0.27036 0.0
C1901 C 0.14738 0.77504 0.2878 0.0
C1902 C 0.15549 0.77096 0.31079 0.0
C1903 C 0.4709 0.85667 0.55511 0.0
C1904 C 0.47491 0.874 0.53839 0.0
C1905 C 0.47524 0.8607 0.57872 0.0
C1906 C 0.48362 0.88223 0.58658 0.0
H1907 H 0.46421 0.83988 0.54994 0.0
H1908 H 0.47182 0.8469 0.59102 0.0
S1909 S 0.49503 0.93404 0.55003 0.0
N1910 N 0.48686 0.91386 0.53142 0.0
N1911 N 0.49449 0.92156 0.57582 0.0
C1912 C 0.48762 0.89977 0.57005 0.0
C1913 C 0.48339 0.89561 0.54596 0.0
C1914 C 0.38115 0.20761 0.83389 0.0
C1915 C 0.38001 0.23123 0.83978 0.0
C1916 C 0.38307 0.20055 0.8106 0.0
C1917 C 0.38324 0.2169 0.79239 0.0
H1918 H 0.38055 0.19457 0.84741 0.0
H1919 H 0.38393 0.18216 0.80682 0.0
S1920 S 0.37991 0.28091 0.79891 0.0
N1921 N 0.37888 0.27089 0.82573 0.0
N1922 N 0.38205 0.25783 0.78206 0.0
C1923 C 0.38193 0.24059 0.79816 0.0
C1924 C 0.38042 0.24771 0.82183 0.0
C1925 C 0.0138 0.15415 0.05053 0.0
C1926 C 0.03783 0.15272 0.04636 0.0
C1927 C 0.00435 0.14826 0.07224 0.0
C1928 C 0.01844 0.13994 0.09035 0.0
H1929 H 0.00217 0.15964 0.03681 0.0
H1930 H 0.98578 0.14938 0.07465 0.0
S1931 S 0.08234 0.13274 0.08833 0.0
N1932 N 0.07558 0.14285 0.06234 0.0
N1933 N 0.05763 0.13075 0.10278 0.0
C1934 C 0.04249 0.13849 0.08646 0.0
C1935 C 0.05223 0.14517 0.06457 0.0
C1936 C 0.19343 0.10411 0.21121 0.0
C1937 C 0.21355 0.11719 0.21572 0.0
C1938 C 0.17195 0.11039 0.22081 0.0
C1939 C 0.16974 0.13008 0.23507 0.0
H1940 H 0.19422 0.0889 0.2002 0.0
H1941 H 0.15687 0.09987 0.21692 0.0
S1942 S 0.21701 0.16981 0.25297 0.0
N1943 N 0.22978 0.15067 0.23593 0.0
N1944 N 0.18944 0.16215 0.2539 0.0
C1945 C 0.18964 0.14327 0.23978 0.0
C1946 C 0.21153 0.13688 0.23015 0.0
C1947 C 0.14371 0.91676 0.48398 0.0
C1948 C 0.12221 0.9116 0.49426 0.0
C1949 C 0.15103 0.93974 0.48111 0.0
C1950 C 0.13708 0.95841 0.48843 0.0
H1951 H 0.15454 0.90292 0.47734 0.0
H1952 H 0.16724 0.94287 0.47211 0.0
S1953 S 0.07979 0.95406 0.51771 0.0
N1954 N 0.08744 0.92696 0.51263 0.0
N1955 N 0.10142 0.97007 0.50794 0.0
C1956 C 0.11618 0.95341 0.50008 0.0
C1957 C 0.10866 0.93001 0.5028 0.0
C1958 C 0.3045 0.83935 0.74052 0.0
C1959 C 0.32275 0.8547 0.73538 0.0
C1960 C 0.28176 0.84394 0.73301 0.0
C1961 C 0.27659 0.86388 0.71984 0.0
H1962 H 0.30775 0.82402 0.7509 0.0
H1963 H 0.26818 0.83175 0.73753 0.0
S1964 S 0.3189 0.90875 0.70077 0.0
N1965 N 0.33455 0.88995 0.71568 0.0
N1966 N 0.29208 0.89875 0.7015 0.0
C1967 C 0.29494 0.87908 0.71422 0.0
C1968 C 0.31794 0.87445 0.72202 0.0
C1969 C 0.396 0.05462 0.00689 0.0
C1970 C 0.39856 0.0753 0.99424 0.0
C1971 C 0.38777 0.03446 0.99631 0.0
C1972 C 0.38138 0.03444 0.97281 0.0
H1973 H 0.40015 0.05418 0.02522 0.0
H1974 H 0.38594 0.01892 0.00674 0.0
S1975 S 0.38602 0.08392 0.93187 0.0
N1976 N 0.3951 0.09449 0.95694 0.0
N1977 N 0.37928 0.05649 0.93682 0.0
C1978 C 0.38429 0.0549 0.9598 0.0
C1979 C 0.39306 0.07538 0.97057 0.0
C1980 C 0.20333 0.89264 0.28911 0.0
C1981 C 0.22132 0.87619 0.29064 0.0
C1982 C 0.18245 0.88742 0.2777 0.0
C1983 C 0.17852 0.86539 0.26798 0.0
H1984 H 0.20578 0.91003 0.29581 0.0
H1985 H 0.16942 0.90085 0.27598 0.0
S1986 S 0.21913 0.81556 0.26911 0.0
N1987 N 0.23328 0.83652 0.28261 0.0
N1988 N 0.19373 0.82662 0.26172 0.0
C1989 C 0.19582 0.84841 0.27044 0.0
C1990 C 0.21731 0.85385 0.28161 0.0
C1991 C 0.36687 0.95387 0.53067 0.0
C1992 C 0.38299 0.97216 0.53201 0.0
C1993 C 0.37267 0.93282 0.51993 0.0
C1994 C 0.39497 0.92904 0.51079 0.0
H1995 H 0.34938 0.95611 0.53721 0.0
H1996 H 0.35956 0.91944 0.51846 0.0
S1997 S 0.44396 0.97061 0.51129 0.0
N1998 N 0.42249 0.98475 0.52401 0.0
N1999 N 0.43351 0.94478 0.50457 0.0
C2000 C 0.41153 0.94675 0.51287 0.0
C2001 C 0.40549 0.96843 0.52327 0.0
C2002 C 0.28189 0.14261 0.76581 0.0
C2003 C 0.27735 0.12151 0.77729 0.0
C2004 C 0.30432 0.14804 0.75794 0.0
C2005 C 0.32275 0.13236 0.76096 0.0
H2006 H 0.26805 0.155 0.76288 0.0
H2007 H 0.30714 0.16418 0.74873 0.0
S2008 S 0.32045 0.0753 0.7903 0.0
N2009 N 0.29361 0.08523 0.79181 0.0
N2010 N 0.33545 0.09546 0.77654 0.0
C2011 C 0.31858 0.11148 0.77263 0.0
C2012 C 0.29596 0.10604 0.78094 0.0
C2013 C 0.15687 0.06749 0.01804 0.0
C2014 C 0.141 0.05335 0.0298 0.0
C2015 C 0.15115 0.09045 0.01246 0.0
C2016 C 0.12958 0.10007 0.01894 0.0
H2017 H 0.1735 0.0606 0.01261 0.0
H2018 H 0.16352 0.10051 0.00257 0.0
S2019 S 0.08361 0.07067 0.05317 0.0
N2020 N 0.10377 0.05066 0.04941 0.0
N2021 N 0.09344 0.09412 0.03999 0.0
C2022 C 0.11405 0.08623 0.03168 0.0
C2023 C 0.11969 0.06277 0.03689 0.0
C2024 C 0.25081 0.17823 0.11714 0.0
C2025 C 0.23447 0.16143 0.12373 0.0
C2026 C 0.24388 0.20094 0.11194 0.0
C2027 C 0.22034 0.20726 0.11253 0.0
H2028 H 0.26908 0.17383 0.11656 0.0
H2029 H 0.25702 0.21367 0.10759 0.0
S2030 S 0.17097 0.16932 0.12866 0.0
N2031 N 0.19402 0.15236 0.1308 0.0
N2032 N 0.18069 0.19493 0.12014 0.0
C2033 C 0.20379 0.19042 0.11859 0.0
C2034 C 0.21095 0.16747 0.12446 0.0
C2035 C 0.72534 0.29204 0.85698 0.0
C2036 C 0.71167 0.28852 0.87695 0.0
C2037 C 0.7295 0.31438 0.84832 0.0
C2038 C 0.72013 0.33406 0.85925 0.0
H2039 H 0.73235 0.27741 0.8475 0.0
H2040 H 0.73939 0.3162 0.83245 0.0
S2041 S 0.68571 0.33472 0.91364 0.0
N2042 N 0.69045 0.30693 0.90854 0.0
N2043 N 0.69851 0.34887 0.89226 0.0
C2044 C 0.70732 0.33092 0.87978 0.0
C2045 C 0.70306 0.30818 0.88863 0.0
C2046 C 0.96411 0.4971 0.12323 0.0
C2047 C 0.9616 0.47509 0.13342 0.0
C2048 C 0.9449 0.50931 0.1149 0.0
C2049 C 0.92252 0.49976 0.11595 0.0
H2050 H 0.9811 0.50505 0.12176 0.0
H2051 H 0.94752 0.52635 0.10743 0.0
S2052 S 0.90651 0.44257 0.14037 0.0
N2053 N 0.93494 0.44409 0.14397 0.0
N2054 N 0.89871 0.46711 0.12772 0.0
C2055 C 0.91966 0.4777 0.12582 0.0
C2056 C 0.93925 0.46537 0.13478 0.0
C2057 C 0.76195 0.6886 0.35819 0.0
C2058 C 0.76784 0.66865 0.37091 0.0
C2059 C 0.76768 0.71082 0.36635 0.0
C2060 C 0.77945 0.71397 0.38759 0.0
H2061 H 0.75396 0.68699 0.34127 0.0
H2062 H 0.76362 0.72556 0.35541 0.0
S2063 S 0.79564 0.66725 0.42896 0.0
N2064 N 0.7837 0.65345 0.40688 0.0
N2065 N 0.79462 0.69508 0.42223 0.0
C2066 C 0.78411 0.69416 0.40113 0.0
C2067 C 0.7783 0.67156 0.39278 0.0
C2068 C 0.05502 0.05558 0.11917 0.0
C2069 C 0.03779 0.03827 0.11991 0.0
C2070 C 0.07783 0.05054 0.11261 0.0
C2071 C 0.08474 0.02784 0.10684 0.0
H2072 H 0.05107 0.07328 0.12395 0.0
H2073 H 0.09014 0.0647 0.11204 0.0
S2074 S 0.04682 0.97574 0.10712 0.0
N2075 N 0.02938 0.99723 0.11455 0.0
N2076 N 0.07258 0.9876 0.10305 0.0
C2077 C 0.06778 0.01024 0.10753 0.0
C2078 C 0.0443 0.01547 0.1139 0.0
C2079 C 0.27459 0.78833 0.6416 0.0
C2080 C 0.28456 0.78256 0.62004 0.0
C2081 C 0.26432 0.81015 0.64536 0.0
C2082 C 0.26313 0.82685 0.62755 0.0
H2083 H 0.27481 0.77592 0.65573 0.0
H2084 H 0.25674 0.81382 0.66216 0.0
S2085 S 0.28662 0.82064 0.56804 0.0
N2086 N 0.29283 0.7957 0.58074 0.0
N2087 N 0.273 0.83635 0.58778 0.0
C2088 C 0.27299 0.82137 0.60598 0.0
C2089 C 0.28387 0.79936 0.60225 0.0
C2090 C 0.9131 0.5328 0.3595 0.0
C2091 C 0.90989 0.52028 0.38025 0.0
C2092 C 0.93501 0.54126 0.35303 0.0
C2093 C 0.95466 0.53743 0.36702 0.0
H2094 H 0.89848 0.53619 0.3482 0.0
H2095 H 0.93648 0.55096 0.337 0.0
S2096 S 0.95571 0.50478 0.42274 0.0
N2097 N 0.92833 0.50383 0.41439 0.0
N2098 N 0.96941 0.51982 0.40258 0.0
C2099 C 0.95168 0.52484 0.38784 0.0
C2100 C 0.92934 0.51628 0.39439 0.0
C2101 C 0.55025 0.46203 0.86407 0.0
C2102 C 0.53173 0.46614 0.8795 0.0
C2103 C 0.57227 0.47182 0.8678 0.0
C2104 C 0.57684 0.48584 0.88729 0.0
H2105 H 0.54767 0.45143 0.84876 0.0
H2106 H 0.5859 0.4684 0.85533 0.0
S2107 S 0.53468 0.50184 0.93317 0.0
N2108 N 0.51973 0.48516 0.91531 0.0
N2109 N 0.56108 0.50339 0.92216 0.0
C2110 C 0.55867 0.48981 0.90305 0.0
C2111 C 0.53616 0.48005 0.89917 0.0
C2112 C 0.6409 0.7265 0.70558 0.0
C2113 C 0.6209 0.71483 0.7134 0.0
C2114 C 0.64255 0.73497 0.68279 0.0
C2115 C 0.62415 0.73245 0.66689 0.0
H2116 H 0.65546 0.72918 0.71716 0.0
H2117 H 0.65821 0.74402 0.67769 0.0
S2118 S 0.56813 0.70307 0.67817 0.0
N2119 N 0.58234 0.70091 0.70298 0.0
N2120 N 0.58553 0.71719 0.66029 0.0
C2121 C 0.6041 0.72082 0.67433 0.0
C2122 C 0.60249 0.71186 0.69749 0.0
C2123 C 0.51199 0.36922 0.96823 0.0
C2124 C 0.53638 0.36891 0.96907 0.0
C2125 C 0.50021 0.3734 0.9474 0.0
C2126 C 0.51237 0.37803 0.92679 0.0
H2127 H 0.50189 0.36585 0.98373 0.0
H2128 H 0.48142 0.37329 0.94742 0.0
S2129 S 0.57623 0.38 0.91976 0.0
N2130 N 0.57234 0.37374 0.94748 0.0
N2131 N 0.54999 0.38243 0.90839 0.0
C2132 C 0.53672 0.37818 0.92739 0.0
C2133 C 0.54878 0.37335 0.94852 0.0
C2134 C 0.90344 0.28363 0.18704 0.0
C2135 C 0.89162 0.27395 0.2061 0.0
C2136 C 0.89723 0.27793 0.16425 0.0
C2137 C 0.87892 0.2625 0.15968 0.0
H2138 H 0.91719 0.29618 0.18966 0.0
H2139 H 0.90649 0.28604 0.15005 0.0
S2140 S 0.84414 0.23042 0.20321 0.0
N2141 N 0.86182 0.24673 0.21876 0.0
N2142 N 0.85032 0.23614 0.17583 0.0
C2143 C 0.86745 0.25212 0.17847 0.0
C2144 C 0.8738 0.25779 0.2017 0.0
C2145 C 0.96919 0.65319 0.44374 0.0
C2146 C 0.97421 0.63803 0.46223 0.0
C2147 C 0.97414 0.64701 0.42078 0.0
C2148 C 0.98434 0.62552 0.41547 0.0
H2149 H 0.96051 0.66957 0.44689 0.0
H2150 H 0.9693 0.6588 0.40697 0.0
S2151 S 0.00183 0.57994 0.45749 0.0
N2152 N 0.99117 0.601 0.47368 0.0
N2153 N 0.99985 0.58926 0.4305 0.0
C2154 C 0.99042 0.61063 0.43381 0.0
C2155 C 0.98553 0.61694 0.45721 0.0
C2156 C 0.60564 0.27178 0.82964 0.0
C2157 C 0.62598 0.25853 0.83235 0.0
C2158 C 0.59975 0.28166 0.80817 0.0
C2159 C 0.61392 0.27858 0.78849 0.0
H2160 H 0.5944 0.27487 0.84437 0.0
H2161 H 0.58408 0.292 0.80712 0.0
S2162 S 0.66824 0.24381 0.78609 0.0
N2163 N 0.65963 0.24174 0.81333 0.0
N2164 N 0.64882 0.26034 0.77304 0.0
C2165 C 0.63413 0.26497 0.79091 0.0
C2166 C 0.64011 0.25497 0.8128 0.0
C2167 C 0.97269 0.35487 0.05519 0.0
C2168 C 0.97785 0.37004 0.03673 0.0
C2169 C 0.9775 0.36102 0.07819 0.0
C2170 C 0.98768 0.38248 0.08363 0.0
H2171 H 0.96404 0.3385 0.05198 0.0
H2172 H 0.97258 0.34919 0.09194 0.0
S2173 S 0.00564 0.42799 0.04172 0.0
N2174 N 0.99499 0.407 0.02544 0.0
N2175 N 0.00341 0.41868 0.0687 0.0
C2176 C 0.9939 0.39737 0.06533 0.0
C2177 C 0.98915 0.39109 0.04187 0.0
C2178 C 0.89837 0.71994 0.31327 0.0
C2179 C 0.88506 0.72635 0.29382 0.0
C2180 C 0.89107 0.72538 0.33591 0.0
C2181 C 0.87019 0.73743 0.34005 0.0
H2182 H 0.91436 0.7103 0.31107 0.0
H2183 H 0.90169 0.71979 0.35037 0.0
S2184 S 0.82863 0.75776 0.29527 0.0
N2185 N 0.84984 0.7456 0.28037 0.0
N2186 N 0.83611 0.75522 0.32278 0.0
C2187 C 0.8569 0.74426 0.32079 0.0
C2188 C 0.86433 0.73886 0.29774 0.0
C2189 C 0.52835 0.6426 0.56419 0.0
C2190 C 0.52208 0.62934 0.54469 0.0
C2191 C 0.52284 0.63522 0.5867 0.0
C2192 C 0.51094 0.61426 0.59064 0.0
H2193 H 0.53812 0.65853 0.56213 0.0
H2194 H 0.52847 0.64571 0.60124 0.0
S2195 S 0.49031 0.5732 0.54558 0.0
N2196 N 0.50259 0.59446 0.53084 0.0
N2197 N 0.49286 0.58044 0.57316 0.0
C2198 C 0.5039 0.60118 0.57132 0.0
C2199 C 0.50934 0.60876 0.54835 0.0
C2200 C 0.65867 0.61558 0.72015 0.0
C2201 C 0.65539 0.6181 0.74418 0.0
C2202 C 0.68092 0.61183 0.7109 0.0
C2203 C 0.70057 0.61122 0.72541 0.0
H2204 H 0.64397 0.6169 0.70852 0.0
H2205 H 0.68287 0.6104 0.69225 0.0
S2206 S 0.70107 0.61668 0.78947 0.0
N2207 N 0.67349 0.61924 0.78217 0.0
N2208 N 0.71524 0.61271 0.7649 0.0
C2209 C 0.69741 0.61336 0.74944 0.0
C2210 C 0.67482 0.61669 0.75881 0.0
C2211 C 0.62979 0.44718 0.95912 0.0
C2212 C 0.63599 0.4664 0.97287 0.0
C2213 C 0.62484 0.42557 0.96929 0.0
C2214 C 0.6266 0.42243 0.9934 0.0
H2215 H 0.62832 0.44898 0.94046 0.0
H2216 H 0.61998 0.41113 0.9583 0.0
S2217 S 0.64247 0.46699 0.03689 0.0
N2218 N 0.64349 0.48082 0.01179 0.0
N2219 N 0.63492 0.44004 0.03071 0.0
C2220 C 0.63298 0.44139 0.00725 0.0
C2221 C 0.63748 0.46345 0.99702 0.0
C2222 C 0.82848 0.36578 0.20151 0.0
C2223 C 0.83487 0.3608 0.22455 0.0
C2224 C 0.80658 0.37458 0.19604 0.0
C2225 C 0.78963 0.37819 0.21322 0.0
H2226 H 0.84051 0.36291 0.18738 0.0
H2227 H 0.80309 0.37866 0.17807 0.0
S2228 S 0.7976 0.36893 0.27651 0.0
N2229 N 0.82268 0.36125 0.26499 0.0
N2230 N 0.78091 0.37666 0.25452 0.0
C2231 C 0.79557 0.37311 0.23639 0.0
C2232 C 0.81825 0.36461 0.24208 0.0
C2233 C 0.85891 0.58187 0.4684 0.0
C2234 C 0.88012 0.58428 0.48026 0.0
C2235 C 0.85021 0.55993 0.46247 0.0
C2236 C 0.86243 0.53957 0.46816 0.0
H2237 H 0.84915 0.59713 0.46338 0.0
H2238 H 0.83403 0.55899 0.45294 0.0
S2239 S 0.91917 0.53659 0.49881 0.0
N2240 N 0.91332 0.56456 0.49715 0.0
N2241 N 0.89695 0.52336 0.48654 0.0
C2242 C 0.88346 0.54177 0.48051 0.0
C2243 C 0.89232 0.56411 0.48643 0.0
C2244 C 0.67532 0.36465 0.74762 0.0
C2245 C 0.65611 0.37718 0.75589 0.0
C2246 C 0.69798 0.37231 0.75187 0.0
C2247 C 0.70221 0.39275 0.7646 0.0
H2248 H 0.67288 0.348 0.73927 0.0
H2249 H 0.71221 0.36128 0.74644 0.0
S2250 S 0.65756 0.4342 0.78558 0.0
N2251 N 0.64255 0.41271 0.77399 0.0
N2252 N 0.68514 0.4272 0.78217 0.0
C2253 C 0.68308 0.40653 0.771 0.0
C2254 C 0.66003 0.39869 0.76664 0.0
C2255 C 0.90169 0.44345 0.01212 0.0
C2256 C 0.88823 0.42442 0.01932 0.0
C2257 C 0.89528 0.46624 0.01776 0.0
C2258 C 0.87519 0.47091 0.03089 0.0
H2259 H 0.9177 0.44072 0.00269 0.0
H2260 H 0.90652 0.48024 0.01221 0.0
S2261 S 0.83276 0.42723 0.05196 0.0
N2262 N 0.85293 0.41181 0.03868 0.0
N2263 N 0.84107 0.45455 0.04966 0.0
C2264 C 0.86121 0.45205 0.03763 0.0
C2265 C 0.86769 0.42885 0.03177 0.0
C2266 C 0.81222 0.60969 0.28445 0.0
C2267 C 0.79202 0.62183 0.27803 0.0
C2268 C 0.83423 0.61764 0.27789 0.0
C2269 C 0.83688 0.6381 0.26487 0.0
H2270 H 0.8111 0.59407 0.29487 0.0
H2271 H 0.84936 0.60781 0.28317 0.0
S2272 S 0.78974 0.6755 0.24225 0.0
N2273 N 0.77621 0.65494 0.25689 0.0
N2274 N 0.81767 0.66967 0.2447 0.0
C2275 C 0.81694 0.65026 0.25808 0.0
C2276 C 0.79449 0.64214 0.26458 0.0
C2277 C 0.6043 0.53279 0.52069 0.0
C2278 C 0.61927 0.52957 0.53981 0.0
C2279 C 0.59728 0.55511 0.51373 0.0
C2280 C 0.60518 0.57491 0.52549 0.0
H2281 H 0.59835 0.51805 0.51068 0.0
H2282 H 0.58651 0.55699 0.49844 0.0
S2283 S 0.64258 0.57637 0.57768 0.0
N2284 N 0.64019 0.54853 0.57139 0.0
N2285 N 0.6272 0.59017 0.55783 0.0
C2286 C 0.61929 0.572 0.54506 0.0
C2287 C 0.62626 0.54941 0.55236 0.0
C2288 C 0.73644 0.69257 0.65108 0.0
C2289 C 0.72612 0.67345 0.64005 0.0
C2290 C 0.73026 0.71535 0.64496 0.0
C2291 C 0.71341 0.71966 0.62776 0.0
H2292 H 0.7499 0.68987 0.66391 0.0
H2293 H 0.73887 0.72961 0.65364 0.0
S2294 S 0.68018 0.67485 0.59517 0.0
N2295 N 0.69758 0.65993 0.61233 0.0
N2296 N 0.6858 0.70239 0.6006 0.0
C2297 C 0.70251 0.70044 0.61716 0.0
C2298 C 0.70891 0.67742 0.62337 0.0
C2299 C 0.21589 0.82015 0.39758 0.0
C2300 C 0.23214 0.80191 0.39604 0.0
C2301 C 0.22263 0.84334 0.39422 0.0
C2302 C 0.2459 0.84905 0.38991 0.0
H2303 H 0.19767 0.81644 0.40039 0.0
H2304 H 0.20959 0.85687 0.39461 0.0
S2305 S 0.29526 0.80814 0.38527 0.0
N2306 N 0.2726 0.79137 0.39044 0.0
N2307 N 0.28522 0.83498 0.3848 0.0
C2308 C 0.26239 0.83115 0.38912 0.0
C2309 C 0.25551 0.80755 0.39204 0.0
C2310 C 0.43951 0.96713 0.6568 0.0
C2311 C 0.45645 0.96407 0.63944 0.0
C2312 C 0.41794 0.97729 0.6517 0.0
C2313 C 0.4124 0.98428 0.62901 0.0
H2314 H 0.44299 0.96187 0.67451 0.0
H2315 H 0.4054 0.97955 0.66552 0.0
S2316 S 0.45063 0.98038 0.57735 0.0
N2317 N 0.46611 0.96904 0.5986 0.0
N2318 N 0.42571 0.98806 0.58917 0.0
C2319 C 0.42913 0.98129 0.6115 0.0
C2320 C 0.45112 0.97121 0.61669 0.0
C2321 C 0.27539 0.19577 0.85861 0.0
C2322 C 0.28749 0.20133 0.87912 0.0
C2323 C 0.26606 0.17355 0.85502 0.0
C2324 C 0.2681 0.15601 0.87191 0.0
H2325 H 0.2731 0.20867 0.84514 0.0
H2326 H 0.25673 0.17019 0.83906 0.0
S2327 S 0.29823 0.16122 0.92849 0.0
N2328 N 0.30121 0.18708 0.91649 0.0
N2329 N 0.28337 0.14548 0.9097 0.0
C2330 C 0.28013 0.16122 0.89246 0.0
C2331 C 0.28994 0.18379 0.89604 0.0
C2332 C 0.57774 0.52835 0.62289 0.0
C2333 C 0.58797 0.51156 0.63754 0.0
C2334 C 0.55524 0.53667 0.62679 0.0
C2335 C 0.54216 0.5292 0.64591 0.0
H2336 H 0.58701 0.53507 0.60803 0.0
H2337 H 0.54801 0.54914 0.61469 0.0
S2338 S 0.56046 0.4869 0.69062 0.0
N2339 N 0.58271 0.48829 0.6726 0.0
N2340 N 0.54092 0.5052 0.68037 0.0
C2341 C 0.55227 0.51343 0.66141 0.0
C2342 C 0.57505 0.50434 0.65716 0.0
C2343 C 0.79472 0.33871 0.11364 0.0
C2344 C 0.77082 0.3437 0.11369 0.0
C2345 C 0.80295 0.31621 0.10858 0.0
C2346 C 0.78747 0.29781 0.10412 0.0
H2347 H 0.80707 0.35232 0.11753 0.0
H2348 H 0.82148 0.31304 0.1089 0.0
S2349 S 0.7232 0.30205 0.10241 0.0
N2350 N 0.73188 0.32865 0.1086 0.0
N2351 N 0.74707 0.28636 0.0999 0.0
C2352 C 0.76352 0.3027 0.10417 0.0
C2353 C 0.75526 0.32564 0.10875 0.0
C2354 C 0.44863 0.00809 0.89883 0.0
C2355 C 0.42888 0.01545 0.8866 0.0
C2356 C 0.47052 0.0177 0.89419 0.0
C2357 C 0.47328 0.03532 0.87746 0.0
H2358 H 0.44719 0.99435 0.91158 0.0
H2359 H 0.48538 0.01112 0.90364 0.0
S2360 S 0.42608 0.06196 0.84235 0.0
N2361 N 0.41291 0.0421 0.85824 0.0
N2362 N 0.45377 0.06056 0.84957 0.0
C2363 C 0.45333 0.0434 0.86577 0.0
C2364 C 0.4312 0.03335 0.8703 0.0
C2365 C 0.0459 0.95129 0.38326 0.0
C2366 C 0.03085 0.96961 0.37743 0.0
C2367 C 0.06704 0.95526 0.39445 0.0
C2368 C 0.0747 0.97783 0.39982 0.0
H2369 H 0.04161 0.93356 0.37892 0.0
H2370 H 0.07755 0.9403 0.3987 0.0
S2371 S 0.04181 0.03214 0.38831 0.0
N2372 N 0.02473 0.01135 0.37851 0.0
N2373 N 0.06518 0.019 0.39841 0.0
C2374 C 0.05974 0.99645 0.39434 0.0
C2375 C 0.03776 0.9923 0.38336 0.0
C2376 C 0.13014 0.12181 0.39609 0.0
C2377 C 0.11847 0.10044 0.39704 0.0
C2378 C 0.12364 0.13884 0.38001 0.0
C2379 C 0.10541 0.13494 0.3642 0.0
H2380 H 0.14492 0.12502 0.40727 0.0
H2381 H 0.1337 0.1547 0.37913 0.0
S2382 S 0.06914 0.08197 0.36013 0.0
N2383 N 0.08736 0.07657 0.38158 0.0
N2384 N 0.07538 0.1084 0.35106 0.0
C2385 C 0.09289 0.11408 0.36581 0.0
C2386 C 0.09941 0.09683 0.38229 0.0
C2387 C 0.15432 0.83705 0.62678 0.0
C2388 C 0.14626 0.84872 0.6467 0.0
C2389 C 0.13952 0.83233 0.60804 0.0
C2390 C 0.11608 0.8392 0.60838 0.0
H2391 H 0.17257 0.83287 0.62495 0.0
H2392 H 0.14684 0.82445 0.59262 0.0
S2393 S 0.08541 0.86663 0.65787 0.0
N2394 N 0.11257 0.86431 0.66677 0.0
N2395 N 0.0848 0.85563 0.6314 0.0
C2396 C 0.10741 0.84944 0.62876 0.0
C2397 C 0.12246 0.85413 0.64794 0.0
C2398 C 0.37548 0.85301 0.87751 0.0
C2399 C 0.37024 0.85372 0.85377 0.0
C2400 C 0.36864 0.87116 0.89222 0.0
C2401 C 0.35665 0.89066 0.88352 0.0
H2402 H 0.3852 0.83857 0.88463 0.0
H2403 H 0.37334 0.87026 0.9104 0.0
S2404 S 0.33999 0.90093 0.82214 0.0
N2405 N 0.35276 0.87531 0.82202 0.0
N2406 N 0.34044 0.90963 0.84943 0.0
C2407 C 0.3511 0.89128 0.85978 0.0
C2408 C 0.35784 0.87278 0.84494 0.0
C2409 C 0.39622 0.13992 0.13256 0.0
C2410 C 0.40369 0.12834 0.11247 0.0
C2411 C 0.37773 0.13127 0.14586 0.0
C2412 C 0.36576 0.11093 0.13932 0.0
H2413 H 0.40425 0.15615 0.13761 0.0
H2414 H 0.37212 0.14114 0.16084 0.0
S2415 S 0.37876 0.07406 0.0882 0.0
N2416 N 0.39816 0.09507 0.08704 0.0
N2417 N 0.36316 0.07922 0.11166 0.0
C2418 C 0.37371 0.09869 0.1198 0.0
C2419 C 0.39267 0.10734 0.10643 0.0
C2420 C 0.10445 0.89259 0.13649 0.0
C2421 C 0.1127 0.86963 0.13518 0.0
C2422 C 0.11238 0.90963 0.12119 0.0
C2423 C 0.12903 0.90441 0.10422 0.0
H2424 H 0.09281 0.89787 0.15028 0.0
H2425 H 0.10627 0.92729 0.12339 0.0
S2426 S 0.15357 0.84658 0.09098 0.0
N2427 N 0.13622 0.84206 0.11336 0.0
N2428 N 0.15186 0.87461 0.0852 0.0
C2429 C 0.13656 0.88144 0.10178 0.0
C2430 C 0.12817 0.8639 0.1171 0.0
C2431 C 0.34811 0.85172 0.37517 0.0
C2432 C 0.3532 0.8634 0.35434 0.0
C2433 C 0.36566 0.8453 0.39069 0.0
C2434 C 0.38909 0.85044 0.38614 0.0
H2435 H 0.3303 0.84891 0.38035 0.0
H2436 H 0.36062 0.83762 0.4071 0.0
S2437 S 0.41206 0.87769 0.33254 0.0
N2438 N 0.38363 0.87754 0.32877 0.0
N2439 N 0.41674 0.86563 0.35813 0.0
C2440 C 0.39462 0.86083 0.36474 0.0
C2441 C 0.37668 0.86728 0.34883 0.0
C2442 C 0.4078 0.09504 0.62044 0.0
C2443 C 0.3954 0.10133 0.60032 0.0
C2444 C 0.41263 0.11129 0.63783 0.0
C2445 C 0.40515 0.13442 0.63586 0.0
H2446 H 0.41222 0.07706 0.62371 0.0
H2447 H 0.42074 0.10525 0.65369 0.0
S2448 S 0.37629 0.16083 0.58479 0.0
N2449 N 0.379 0.13313 0.57791 0.0
N2450 N 0.38775 0.16363 0.61093 0.0
C2451 C 0.39452 0.14142 0.61506 0.0
C2452 C 0.38976 0.1249 0.59721 0.0
C2453 C 0.11542 0.14742 0.87333 0.0
C2454 C 0.12408 0.16096 0.89167 0.0
C2455 C 0.13005 0.13972 0.8554 0.0
C2456 C 0.15397 0.14491 0.85538 0.0
H2457 H 0.09747 0.14184 0.87346 0.0
H2458 H 0.12279 0.12863 0.84208 0.0
S2459 S 0.18484 0.18021 0.89969 0.0
N2460 N 0.15755 0.18007 0.90844 0.0
N2461 N 0.18533 0.16504 0.8754 0.0
C2462 C 0.16253 0.15936 0.87321 0.0
C2463 C 0.14752 0.16746 0.89122 0.0
C2464 C 0.12401 0.36469 0.10751 0.0
C2465 C 0.14425 0.36233 0.12094 0.0
C2466 C 0.10557 0.37857 0.11499 0.0
C2467 C 0.1066 0.3906 0.13621 0.0
H2468 H 0.12176 0.3546 0.09181 0.0
H2469 H 0.08991 0.37897 0.10458 0.0
S2470 S 0.15706 0.39322 0.17598 0.0
N2471 N 0.16535 0.3754 0.1551 0.0
N2472 N 0.1304 0.4014 0.16927 0.0
C2473 C 0.12721 0.38954 0.14915 0.0
C2474 C 0.14612 0.37548 0.14146 0.0
C2475 C 0.5965 0.11833 0.91559 0.0
C2476 C 0.60293 0.09893 0.90214 0.0
C2477 C 0.61269 0.13556 0.92125 0.0
C2478 C 0.63576 0.13403 0.91354 0.0
H2479 H 0.57845 0.12142 0.91986 0.0
H2480 H 0.60662 0.15118 0.92978 0.0
S2481 S 0.66258 0.08451 0.88264 0.0
N2482 N 0.63496 0.07722 0.88522 0.0
N2483 N 0.66516 0.11017 0.89515 0.0
C2484 C 0.64297 0.11368 0.90231 0.0
C2485 C 0.62661 0.09595 0.89684 0.0
C2486 C 0.88224 0.89619 0.38759 0.0
C2487 C 0.90592 0.89564 0.39362 0.0
C2488 C 0.86707 0.87838 0.39435 0.0
C2489 C 0.87496 0.85926 0.40739 0.0
H2490 H 0.87568 0.90988 0.37649 0.0
H2491 H 0.84923 0.87908 0.38847 0.0
S2492 S 0.93509 0.85018 0.42869 0.0
N2493 N 0.93627 0.87498 0.4144 0.0
N2494 N 0.90779 0.84154 0.42713 0.0
C2495 C 0.89826 0.85922 0.41475 0.0
C2496 C 0.91372 0.8774 0.40787 0.0
C2497 C 0.86875 0.12315 0.0978 0.0
C2498 C 0.87551 0.14322 0.08574 0.0
C2499 C 0.8849 0.10571 0.10325 0.0
C2500 C 0.90859 0.10793 0.09737 0.0
H2501 H 0.8511 0.12149 0.10409 0.0
H2502 H 0.87907 0.09103 0.11345 0.0
S2503 S 0.93455 0.15696 0.06448 0.0
N2504 N 0.9068 0.16375 0.06659 0.0
N2505 N 0.93746 0.13161 0.07755 0.0
C2506 C 0.91519 0.12738 0.08404 0.0
C2507 C 0.89859 0.14491 0.07815 0.0
C2508 C 0.37676 0.65882 0.65391 0.0
C2509 C 0.35707 0.65245 0.64088 0.0
C2510 C 0.3934 0.64232 0.66057 0.0
C2511 C 0.39111 0.61883 0.65432 0.0
H2512 H 0.38015 0.6769 0.65777 0.0
H2513 H 0.40883 0.64824 0.66953 0.0
S2514 S 0.34103 0.59247 0.62377 0.0
N2515 N 0.33483 0.62044 0.62469 0.0
N2516 N 0.36639 0.58955 0.63683 0.0
C2517 C 0.37085 0.61196 0.64264 0.0
C2518 C 0.35377 0.62872 0.63605 0.0
C2519 C 0.1385 0.6404 0.36116 0.0
C2520 C 0.13332 0.65743 0.37798 0.0
C2521 C 0.12142 0.62489 0.35326 0.0
C2522 C 0.09873 0.62582 0.3621 0.0
H2523 H 0.15586 0.63905 0.35407 0.0
H2524 H 0.12598 0.61204 0.34033 0.0
S2525 S 0.0756 0.66799 0.40475 0.0
N2526 N 0.10323 0.67503 0.4019 0.0
N2527 N 0.07157 0.64543 0.38759 0.0
C2528 C 0.09328 0.64273 0.37872 0.0
C2529 C 0.11047 0.65862 0.38656 0.0
C2530 C 0.3711 0.33233 0.84884 0.0
C2531 C 0.35001 0.33781 0.85993 0.0
C2532 C 0.38766 0.34948 0.84388 0.0
C2533 C 0.38393 0.37282 0.85001 0.0
H2534 H 0.37561 0.31444 0.84538 0.0
H2535 H 0.40415 0.34415 0.83656 0.0
S2536 S 0.33017 0.39699 0.87583 0.0
N2537 N 0.32515 0.36882 0.87414 0.0
N2538 N 0.35651 0.40098 0.86524 0.0
C2539 C 0.36235 0.37882 0.85969 0.0
C2540 C 0.34535 0.36136 0.86454 0.0
C2541 C 0.65999 0.61237 0.85571 0.0
C2542 C 0.65673 0.61524 0.87964 0.0
C2543 C 0.65531 0.63049 0.84022 0.0
C2544 C 0.64758 0.65233 0.84801 0.0
H2545 H 0.66473 0.59554 0.84879 0.0
H2546 H 0.65605 0.62675 0.82191 0.0
S2547 S 0.63901 0.66928 0.90954 0.0
N2548 N 0.64689 0.64173 0.91083 0.0
N2549 N 0.63899 0.67627 0.88171 0.0
C2550 C 0.64567 0.65579 0.87213 0.0
C2551 C 0.65004 0.63714 0.88793 0.0
C2552 C 0.66726 0.33807 0.13079 0.0
C2553 C 0.66129 0.35169 0.15016 0.0
C2554 C 0.65049 0.33162 0.11435 0.0
C2555 C 0.62722 0.33864 0.11675 0.0
H2556 H 0.6853 0.33431 0.12709 0.0
H2557 H 0.65618 0.32299 0.09864 0.0
S2558 S 0.60185 0.36962 0.16705 0.0
N2559 N 0.62988 0.36826 0.17291 0.0
N2560 N 0.59839 0.35633 0.14189 0.0
C2561 C 0.62063 0.34994 0.13732 0.0
C2562 C 0.63766 0.35638 0.15409 0.0
C2563 C 0.8536 0.37444 0.3452 0.0
C2564 C 0.87361 0.36109 0.3495 0.0
C2565 C 0.84483 0.38966 0.362 0.0
C2566 C 0.85569 0.39197 0.38372 0.0
H2567 H 0.84538 0.37403 0.32829 0.0
H2568 H 0.83035 0.40075 0.35738 0.0
S2569 S 0.90598 0.35774 0.40494 0.0
N2570 N 0.90228 0.34896 0.3779 0.0
N2571 N 0.88559 0.37732 0.40972 0.0
C2572 C 0.87464 0.37739 0.38882 0.0
C2573 C 0.88369 0.36205 0.37163 0.0
C2574 C 0.85595 0.6002 0.62132 0.0
C2575 C 0.85386 0.61322 0.64183 0.0
C2576 C 0.87146 0.60681 0.60391 0.0
C2577 C 0.88537 0.62669 0.60639 0.0
H2578 H 0.84441 0.58575 0.61796 0.0
H2579 H 0.87153 0.59709 0.58782 0.0
S2580 S 0.88956 0.66409 0.65851 0.0
N2581 N 0.86925 0.64493 0.66504 0.0
N2582 N 0.89842 0.65749 0.63205 0.0
C2583 C 0.88474 0.63884 0.62749 0.0
C2584 C 0.869 0.63204 0.6453 0.0
C2585 C 0.60123 0.37829 0.60502 0.0
C2586 C 0.59664 0.40222 0.60685 0.0
C2587 C 0.59505 0.36289 0.62283 0.0
C2588 C 0.58392 0.37083 0.64306 0.0
H2589 H 0.61097 0.37166 0.59037 0.0
H2590 H 0.60007 0.34484 0.62129 0.0
S2591 S 0.56637 0.43144 0.65565 0.0
N2592 N 0.57895 0.43282 0.62996 0.0
N2593 N 0.56709 0.40382 0.66319 0.0
C2594 C 0.57766 0.39437 0.64434 0.0
C2595 C 0.58406 0.41009 0.62627 0.0
C2596 C 0.85584 0.35917 0.89702 0.0
C2597 C 0.87796 0.36953 0.89605 0.0
C2598 C 0.83833 0.36548 0.88146 0.0
C2599 C 0.84219 0.38257 0.86456 0.0
H2600 H 0.8517 0.34666 0.91043 0.0
H2601 H 0.82139 0.35748 0.88314 0.0
S2602 S 0.89739 0.41322 0.85284 0.0
N2603 N 0.90326 0.39621 0.87517 0.0
N2604 N 0.86981 0.40867 0.84648 0.0
C2605 C 0.86426 0.39262 0.86284 0.0
C2606 C 0.88228 0.38596 0.87846 0.0
C2607 C 0.88807 0.61887 0.1153 0.0
C2608 C 0.86669 0.62336 0.10437 0.0
C2609 C 0.89699 0.63389 0.13224 0.0
C2610 C 0.88493 0.65409 0.13879 0.0
H2611 H 0.89741 0.60297 0.11161 0.0
H2612 H 0.91273 0.62888 0.14122 0.0
S2613 S 0.83011 0.67553 0.11232 0.0
N2614 N 0.83485 0.65038 0.0994 0.0
N2615 N 0.85196 0.6793 0.1305 0.0
C2616 C 0.86433 0.65959 0.12667 0.0
C2617 C 0.85508 0.64403 0.1097 0.0
C2618 C 0.61044 0.61737 0.38272 0.0
C2619 C 0.61359 0.63638 0.39778 0.0
C2620 C 0.62789 0.61058 0.36715 0.0
C2621 C 0.64903 0.62266 0.36597 0.0
H2622 H 0.59463 0.60723 0.38348 0.0
H2623 H 0.62499 0.59554 0.35625 0.0
S2624 S 0.66612 0.6734 0.40173 0.0
N2625 N 0.63959 0.66708 0.41049 0.0
N2626 N 0.6722 0.65451 0.38108 0.0
C2627 C 0.65214 0.6421 0.3804 0.0
C2628 C 0.63445 0.64895 0.3963 0.0
C2629 C 0.62362 0.83765 0.66613 0.0
C2630 C 0.64281 0.84612 0.65357 0.0
C2631 C 0.6051 0.85227 0.67212 0.0
C2632 C 0.60512 0.87579 0.66565 0.0
H2633 H 0.62191 0.81925 0.66959 0.0
H2634 H 0.58991 0.84471 0.68022 0.0
S2635 S 0.65335 0.90744 0.63722 0.0
N2636 N 0.66237 0.88025 0.63838 0.0
N2637 N 0.6274 0.90768 0.64941 0.0
C2638 C 0.62514 0.88492 0.65516 0.0
C2639 C 0.64405 0.87009 0.64921 0.0
C2640 C 0.99354 0.25587 0.30483 0.0
C2641 C 0.98075 0.25893 0.28425 0.0
C2642 C 0.01594 0.24633 0.30448 0.0
C2643 C 0.02632 0.23912 0.28358 0.0
H2644 H 0.98629 0.26125 0.3213 0.0
H2645 H 0.02517 0.24438 0.32073 0.0
S2646 S 1.0001 0.24293 0.22495 0.0
N2647 N 0.98003 0.25366 0.2424 0.0
N2648 N 0.02215 0.23569 0.24179 0.0
C2649 C 0.01367 0.24184 0.2629 0.0
C2650 C 0.99092 0.25181 0.26321 0.0
C2651 C 0.0076 0.75405 0.51645 0.0
C2652 C 0.01063 0.76794 0.53623 0.0
C2653 C 0.9969 0.73227 0.51804 0.0
C2654 C 0.98935 0.72353 0.53954 0.0
H2655 H 0.01303 0.76034 0.49959 0.0
H2656 H 0.99457 0.72215 0.50239 0.0
S2657 S 0.9941 0.7529 0.59654 0.0
N2658 N 0.00587 0.7713 0.57798 0.0
N2659 N 0.98583 0.73029 0.581 0.0
C2660 C 0.99272 0.73707 0.5595 0.0
C2661 C 0.00332 0.75934 0.55783 0.0
C2662 C 0.50164 0.72512 0.77017 0.0
C2663 C 0.51955 0.73764 0.78118 0.0
C2664 C 0.47875 0.73334 0.76998 0.0
C2665 C 0.47297 0.75457 0.7804 0.0
H2666 H 0.50533 0.709 0.76128 0.0
H2667 H 0.46551 0.72326 0.76125 0.0
S2668 S 0.51247 0.79332 0.81296 0.0
N2669 N 0.52923 0.77177 0.8042 0.0
N2670 N 0.4863 0.78752 0.80282 0.0
C2671 C 0.49047 0.76725 0.79153 0.0
C2672 C 0.51373 0.75873 0.79216 0.0
C2673 C 0.49852 0.26835 0.02659 0.0
C2674 C 0.5226 0.27219 0.02454 0.0
C2675 C 0.48914 0.24587 0.02576 0.0
C2676 C 0.50355 0.22636 0.02315 0.0
H2677 H 0.4869 0.28284 0.02943 0.0
H2678 H 0.47067 0.24363 0.02837 0.0
S2679 S 0.56741 0.22693 0.0148 0.0
N2680 N 0.56042 0.25449 0.01826 0.0
N2681 N 0.54276 0.21239 0.01636 0.0
C2682 C 0.52747 0.23001 0.01986 0.0
C2683 C 0.53701 0.25287 0.02061 0.0
C2684 C 0.98428 0.77429 0.22258 0.0
C2685 C 0.98026 0.75017 0.22328 0.0
C2686 C 0.00696 0.78338 0.22203 0.0
C2687 C 0.02644 0.76867 0.22177 0.0
H2688 H 0.96977 0.78622 0.22228 0.0
H2689 H 0.00927 0.802 0.22095 0.0
S2690 S 0.02556 0.70434 0.2244 0.0
N2691 N 0.9979 0.71184 0.2243 0.0
N2692 N 0.04029 0.7289 0.22354 0.0
C2693 C 0.02268 0.74458 0.22308 0.0
C2694 C 0.99967 0.73534 0.22379 0.0
C2695 C 0.52242 0.74422 0.47715 0.0
C2696 C 0.50712 0.72537 0.47471 0.0
C2697 C 0.51437 0.76723 0.47646 0.0
C2698 C 0.49063 0.77244 0.47347 0.0
H2699 H 0.54088 0.74119 0.47892 0.0
H2700 H 0.52692 0.78109 0.47817 0.0
S2701 S 0.44313 0.72926 0.46798 0.0
N2702 N 0.46685 0.71341 0.47073 0.0
N2703 N 0.45181 0.75654 0.46885 0.0
C2704 C 0.47503 0.75371 0.47173 0.0
C2705 C 0.48325 0.73025 0.47242 0.0
C2706 C 0.50587 0.25207 0.73945 0.0
C2707 C 0.51659 0.25745 0.71816 0.0
C2708 C 0.48408 0.24109 0.74012 0.0
C2709 C 0.47222 0.23567 0.71952 0.0
H2710 H 0.51445 0.25632 0.75561 0.0
H2711 H 0.47614 0.23742 0.75675 0.0
S2712 S 0.49277 0.24607 0.6595 0.0
N2713 N 0.51374 0.25634 0.67612 0.0
N2714 N 0.47281 0.23598 0.67742 0.0
C2715 C 0.48283 0.2408 0.69821 0.0
C2716 C 0.50503 0.25163 0.69751 0.0
C2717 C 0.9923 0.23996 0.96753 0.0
C2718 C 0.01663 0.23798 0.96712 0.0
C2719 C 0.98143 0.26163 0.96552 0.0
C2720 C 0.99446 0.28204 0.96266 0.0
H2721 H 0.98164 0.22463 0.96958 0.0
H2722 H 0.96267 0.26247 0.96581 0.0
S2723 S 0.0586 0.28629 0.96023 0.0
N2724 N 0.05344 0.25828 0.96348 0.0
N2725 N 0.03291 0.29903 0.9597 0.0
C2726 C 0.01877 0.28033 0.96213 0.0
C2727 C 0.02988 0.2583 0.96443 0.0
C2728 C 0.26168 0.01865 0.25057 0.0
C2729 C 0.28304 0.02759 0.24278 0.0
C2730 C 0.26064 0.9977 0.26314 0.0
C2731 C 0.28088 0.98485 0.26777 0.0
H2732 H 0.24577 0.02802 0.24705 0.0
H2733 H 0.24394 0.99115 0.26873 0.0
S2734 S 0.34086 1.00059 0.25086 0.0
N2735 N 0.32475 0.02201 0.24068 0.0
N2736 N 0.3227 0.9825 0.26371 0.0
C2737 C 0.30224 0.99362 0.26003 0.0
C2738 C 0.30335 0.01504 0.24769 0.0
C2739 C 0.23353 0.0143 0.50754 0.0
C2740 C 0.22534 0.03531 0.49808 0.0
C2741 C 0.25554 0.01295 0.51808 0.0
C2742 C 0.27022 0.03242 0.51897 0.0
H2743 H 0.22274 0.99894 0.50694 0.0
H2744 H 0.26141 0.99649 0.52501 0.0
S2745 S 0.25699 0.09127 0.49666 0.0
N2746 N 0.23361 0.0759 0.49045 0.0
N2747 N 0.27497 0.07325 0.50985 0.0
C2748 C 0.26219 0.05345 0.50962 0.0
C2749 C 0.23974 0.05492 0.49929 0.0
C2750 C 0.23505 0.97885 0.75217 0.0
C2751 C 0.21883 0.97285 0.73494 0.0
C2752 C 0.23384 1.00032 0.76386 0.0
C2753 C 0.21605 0.01647 0.7591 0.0
H2754 H 0.24866 0.96671 0.75673 0.0
H2755 H 0.24699 0.00427 0.77667 0.0
S2756 S 0.16778 0.00734 0.71707 0.0
N2757 N 0.18394 0.98383 0.71446 0.0
N2758 N 0.18071 0.02357 0.73683 0.0
C2759 C 0.19941 0.01023 0.74213 0.0
C2760 C 0.20101 0.98858 0.73 0.0
C2761 C 0.26672 0.99232 0.99052 0.0
C2762 C 0.27778 0.9711 0.98572 0.0
C2763 C 0.2443 0.99289 1.00023 0.0
C2764 C 0.23207 0.97226 0.0049 0.0
H2765 H 0.2757 0.0085 0.98725 0.0
H2766 H 0.23638 0.00952 0.00391 0.0
S2767 S 0.2533 0.91233 0.99491 0.0
N2768 N 0.27476 0.92909 0.98597 0.0
N2769 N 0.23276 0.93012 0.00402 0.0
C2770 C 0.24289 0.951 0.99985 0.0
C2771 C 0.26571 0.95043 0.9903 0.0
C2772 C 0.25408 0.25359 0.99449 0.0
C2773 C 0.27139 0.26845 0.98597 0.0
C2774 C 0.24397 0.25725 0.01633 0.0
C2775 C 0.2504 0.27627 0.03034 0.0
H2776 H 0.24831 0.23906 0.98406 0.0
H2777 H 0.231 0.24502 0.02219 0.0
S2778 S 0.29405 0.32117 0.01462 0.0
N2779 N 0.29434 0.30297 0.99249 0.0
N2780 N 0.27475 0.31079 0.03309 0.0
C2781 C 0.26772 0.29137 0.02176 0.0
C2782 C 0.27832 0.28725 0.99969 0.0
C2783 C 0.74029 0.22631 0.01553 0.0
C2784 C 0.76463 0.22751 0.01741 0.0
C2785 C 0.7293 0.22589 0.99378 0.0
C2786 C 0.74227 0.22633 0.97312 0.0
H2787 H 0.72969 0.22544 0.03102 0.0
H2788 H 0.71058 0.22437 0.99313 0.0
S2789 S 0.80635 0.23059 0.96844 0.0
N2790 N 0.80129 0.22983 0.99663 0.0
N2791 N 0.78062 0.22936 0.95586 0.0
C2792 C 0.76656 0.2282 0.97474 0.0
C2793 C 0.77774 0.22875 0.99686 0.0
C2794 C 0.02907 0.48055 0.24768 0.0
C2795 C 0.02972 0.49371 0.22714 0.0
C2796 C 0.02897 0.49134 0.2695 0.0
C2797 C 0.02913 0.51567 0.27151 0.0
H2798 H 0.02913 0.46178 0.24685 0.0
H2799 H 0.02863 0.48062 0.28492 0.0
S2800 S 0.03021 0.55794 0.223 0.0
N2801 N 0.02991 0.53233 0.21017 0.0
N2802 N 0.02995 0.55258 0.25115 0.0
C2803 C 0.02945 0.52902 0.2511 0.0
C2804 C 0.02972 0.51804 0.22892 0.0
C2805 C 0.73432 0.76628 0.50994 0.0
C2806 C 0.72983 0.78652 0.52286 0.0
C2807 C 0.74742 0.76716 0.48927 0.0
C2808 C 0.75603 0.78837 0.48063 0.0
H2809 H 0.72829 0.74965 0.51627 0.0
H2810 H 0.75075 0.75122 0.47989 0.0
S2811 S 0.74851 0.8462 0.50786 0.0
N2812 N 0.73468 0.82824 0.52539 0.0
N2813 N 0.75898 0.82997 0.48669 0.0
C2814 C 0.75123 0.80869 0.49324 0.0
C2815 C 0.73823 0.80774 0.51431 0.0
C2816 C 0.95498 0.00936 0.23496 0.0
C2817 C 0.97614 0.01421 0.22381 0.0
C2818 C 0.95426 0.99751 0.25625 0.0
C2819 C 0.97464 0.98947 0.26713 0.0
H2820 H 0.93882 0.01493 0.22713 0.0
H2821 H 0.93752 0.99434 0.26417 0.0
S2822 S 0.03452 0.99712 0.24471 0.0
N2823 N 0.01801 0.0099 0.22502 0.0
N2824 N 0.01671 0.98714 0.26487 0.0
C2825 C 0.99596 0.99394 0.25601 0.0
C2826 C 0.9967 0.00647 0.23445 0.0
C2827 C 0.26889 0.73875 0.50219 0.0
C2828 C 0.27009 0.71844 0.51563 0.0
C2829 C 0.25765 0.73875 0.48059 0.0
C2830 C 0.24787 0.71829 0.47161 0.0
H2831 H 0.27619 0.75479 0.50872 0.0
H2832 H 0.25676 0.75472 0.47071 0.0
S2833 S 0.24695 0.6606 0.49992 0.0
N2834 N 0.26081 0.67747 0.5185 0.0
N2835 N 0.24016 0.67733 0.47764 0.0
C2836 C 0.24932 0.69785 0.48474 0.0
C2837 C 0.26032 0.69796 0.50685 0.0
C2838 C 0.48214 0.48852 0.77006 0.0
C2839 C 0.4615 0.48541 0.78276 0.0
C2840 C 0.482 0.49984 0.74837 0.0
C2841 C 0.46114 0.50789 0.73848 0.0
H2842 H 0.49849 0.48256 0.77718 0.0
H2843 H 0.4982 0.50199 0.73907 0.0
S2844 S 0.40248 0.50346 0.76453 0.0
N2845 N 0.41975 0.49101 0.78372 0.0
N2846 N 0.41946 0.51194 0.74305 0.0
C2847 C 0.44044 0.50462 0.75094 0.0
C2848 C 0.44063 0.49347 0.77305 0.0
C2849 C 0.75898 0.5134 0.74315 0.0
C2850 C 0.77893 0.52742 0.74227 0.0
C2851 C 0.75991 0.49085 0.75229 0.0
C2852 C 0.78091 0.48139 0.76041 0.0
H2853 H 0.7425 0.52009 0.73706 0.0
H2854 H 0.74415 0.48063 0.7528 0.0
S2855 S 0.83811 0.51083 0.7614 0.0
N2856 N 0.82032 0.53013 0.74986 0.0
N2857 N 0.82205 0.48779 0.76707 0.0
C2858 C 0.801 0.49516 0.7594 0.0
C2859 C 0.80001 0.51817 0.75035 0.0
C2860 C 0.77011 0.52667 0.98304 0.0
C2861 C 0.77359 0.53001 0.00707 0.0
C2862 C 0.74774 0.5262 0.97327 0.0
C2863 C 0.72787 0.52923 0.98709 0.0
H2864 H 0.78487 0.52485 0.97157 0.0
H2865 H 0.74605 0.52445 0.95464 0.0
S2866 S 0.72704 0.53622 0.05115 0.0
N2867 N 0.7549 0.5349 0.04456 0.0
N2868 N 0.71298 0.53353 0.02633 0.0
C2869 C 0.73099 0.53143 0.01126 0.0
C2870 C 0.75378 0.53188 0.02122 0.0
C2871 C 0.7021 0.51417 0.25004 0.0
C2872 C 0.72193 0.52771 0.25445 0.0
C2873 C 0.70365 0.49287 0.23838 0.0
C2874 C 0.72503 0.48431 0.23021 0.0
H2875 H 0.68526 0.5199 0.25609 0.0
H2876 H 0.68792 0.48293 0.23572 0.0
S2877 S 0.78207 0.51337 0.23637 0.0
N2878 N 0.76365 0.53125 0.24918 0.0
N2879 N 0.76646 0.49122 0.22698 0.0
C2880 C 0.74497 0.49783 0.23403 0.0
C2881 C 0.74346 0.51946 0.24628 0.0
C2882 C 0.74864 0.47377 0.48136 0.0
C2883 C 0.76966 0.47234 0.49367 0.0
C2884 C 0.72717 0.47339 0.49295 0.0
C2885 C 0.72583 0.47189 0.51735 0.0
H2886 H 0.74879 0.47437 0.46258 0.0
H2887 H 0.71144 0.47409 0.4827 0.0
S2888 S 0.77597 0.46959 0.55773 0.0
N2889 N 0.78787 0.47088 0.53169 0.0
N2890 N 0.74764 0.46987 0.55341 0.0
C2891 C 0.74677 0.47131 0.5299 0.0
C2892 C 0.76863 0.47156 0.51808 0.0
C2893 C 0.52207 0.97754 0.75366 0.0
C2894 C 0.52499 0.98887 0.73227 0.0
C2895 C 0.523 0.98992 0.7746 0.0
C2896 C 0.52655 0.01412 0.77491 0.0
H2897 H 0.52003 0.95887 0.75424 0.0
H2898 H 0.52131 0.98044 0.79074 0.0
S2899 S 0.53279 0.05214 0.72337 0.0
N2900 N 0.5297 0.02581 0.71249 0.0
N2901 N 0.53164 0.04904 0.75183 0.0
C2902 C 0.52835 0.02577 0.75357 0.0
C2903 C 0.52757 0.01314 0.73226 0.0
loop_
_geom_bond_atom_site_label_1
_geom_bond_atom_site_label_2
_geom_bond_distance
_geom_bond_site_symmetry_2
_ccdc_geom_bond_type
C0 C1 1.351 . S
C0 N3 1.368 . S
C0 H5 0.931 . S
C1 C0 1.351 . S
C1 N2 1.373 . S
C1 H29 0.930 . S
N2 C1 1.373 . S
N2 C4 1.340 . S
N3 C0 1.368 . S
N3 C4 1.321 . S
N3 Co6 2.135 . S
C4 N2 1.340 . S
C4 N3 1.321 . S
C4 H28 0.930 . S
H5 C0 0.931 . S
Co6 N3 2.135 . S
Co6 N9 2.121 . S
Co6 O14 2.055 . S
Co6 O17 2.039 . S
Co6 N20 2.140 . S
C7 O8 1.227 . S
C7 O17 1.265 . S
O8 C7 1.227 . S
N9 Co6 2.121 . S
N9 C11 1.375 . S
N9 C12 1.313 . S
C10 C11 1.338 . S
C10 N13 1.377 . S
C10 H30 0.930 . S
C11 N9 1.375 . S
C11 C10 1.338 . S
C11 H15 0.931 . S
C12 N9 1.313 . S
C12 N13 1.344 . S
C12 H16 0.930 . S
N13 C10 1.377 . S
N13 C12 1.344 . S
O14 Co6 2.055 . S
O14 C18 1.253 . S
H15 C11 0.931 . S
H16 C12 0.930 . S
O17 Co6 2.039 . S
O17 C7 1.265 . S
C18 O14 1.253 . S
C18 O19 1.227 . S
O19 C18 1.227 . S
N20 Co6 2.140 . S
N20 C23 1.346 . S
N20 C24 1.345 . S
C21 C22 1.387 . S
C21 C25 1.391 . S
C22 C21 1.387 . S
C22 C23 1.369 . S
C22 H31 0.929 . S
C23 N20 1.346 . S
C23 C22 1.369 . S
C23 H26 0.928 . S
C24 N20 1.345 . S
C24 C25 1.371 . S
C24 H27 0.931 . S
C25 C21 1.391 . S
C25 C24 1.371 . S
C25 H32 0.930 . S
H26 C23 0.928 . S
H27 C24 0.931 . S
H28 C4 0.930 . S
H29 C1 0.930 . S
H30 C10 0.930 . S
H31 C22 0.929 . S
H32 C25 0.930 . S
C33 C34 1.351 . S
C33 N36 1.368 . S
C33 H38 0.931 . S
C34 C33 1.351 . S
C34 N35 1.373 . S
C34 H62 0.930 1_455 S
N35 C34 1.373 . S
N35 C37 1.340 . S
N36 C33 1.368 . S
N36 C37 1.321 . S
N36 Co39 2.135 . S
C37 N35 1.340 . S
C37 N36 1.321 . S
C37 H61 0.930 . S
H38 C33 0.931 . S
Co39 N36 2.135 . S
Co39 N42 2.121 . S
Co39 O47 2.055 . S
Co39 O50 2.039 . S
Co39 N53 2.140 . S
C40 O41 1.227 . S
C40 O50 1.265 . S
O41 C40 1.227 . S
N42 Co39 2.121 . S
N42 C44 1.375 . S
N42 C45 1.313 . S
C43 C44 1.338 . S
C43 N46 1.377 . S
C43 H63 0.930 . S
C44 N42 1.375 . S
C44 C43 1.338 . S
C44 H48 0.931 . S
C45 N42 1.313 . S
C45 N46 1.344 . S
C45 H49 0.930 . S
N46 C43 1.377 . S
N46 C45 1.344 . S
O47 Co39 2.055 . S
O47 C51 1.253 . S
H48 C44 0.931 . S
H49 C45 0.930 . S
O50 Co39 2.039 . S
O50 C40 1.265 . S
C51 O47 1.253 . S
C51 O52 1.227 . S
O52 C51 1.227 . S
N53 Co39 2.140 . S
N53 C56 1.346 . S
N53 C57 1.345 . S
C54 C55 1.387 . S
C54 C58 1.391 . S
C55 C54 1.387 . S
C55 C56 1.369 . S
C55 H64 0.929 . S
C56 N53 1.346 . S
C56 C55 1.369 . S
C56 H59 0.928 . S
C57 N53 1.345 . S
C57 C58 1.371 . S
C57 H60 0.931 . S
C58 C54 1.391 . S
C58 C57 1.371 . S
C58 H65 0.930 . S
H59 C56 0.928 . S
H60 C57 0.931 . S
H61 C37 0.930 . S
H62 C34 0.930 1_655 S
H63 C43 0.930 . S
H64 C55 0.929 . S
H65 C58 0.930 . S
C66 C67 1.351 . S
C66 N69 1.368 . S
C66 H71 0.931 . S
C67 C66 1.351 . S
C67 N68 1.373 . S
C67 H95 0.930 . S
N68 C67 1.373 . S
N68 C70 1.340 . S
N69 C66 1.368 . S
N69 C70 1.321 . S
N69 Co72 2.135 . S
C70 N68 1.340 . S
C70 N69 1.321 . S
C70 H94 0.930 . S
H71 C66 0.931 . S
Co72 N69 2.135 . S
Co72 N75 2.121 . S
Co72 O80 2.055 . S
Co72 O83 2.039 . S
Co72 N86 2.140 . S
C73 O74 1.227 . S
C73 O83 1.265 . S
O74 C73 1.227 . S
N75 Co72 2.121 . S
N75 C77 1.375 . S
N75 C78 1.313 . S
C76 C77 1.338 . S
C76 N79 1.377 . S
C76 H96 0.930 . S
C77 N75 1.375 . S
C77 C76 1.338 . S
C77 H81 0.931 . S
C78 N75 1.313 . S
C78 N79 1.344 . S
C78 H82 0.930 . S
N79 C76 1.377 . S
N79 C78 1.344 . S
O80 Co72 2.055 . S
O80 C84 1.253 . S
H81 C77 0.931 . S
H82 C78 0.930 . S
O83 Co72 2.039 . S
O83 C73 1.265 . S
C84 O80 1.253 . S
C84 O85 1.227 . S
O85 C84 1.227 . S
N86 Co72 2.140 . S
N86 C89 1.346 . S
N86 C90 1.345 . S
C87 C88 1.387 . S
C87 C91 1.391 . S
C88 C87 1.387 . S
C88 C89 1.369 . S
C88 H97 0.929 . S
C89 N86 1.346 . S
C89 C88 1.369 . S
C89 H92 0.928 . S
C90 N86 1.345 . S
C90 C91 1.371 . S
C90 H93 0.931 . S
C91 C87 1.391 . S
C91 C90 1.371 . S
C91 H98 0.930 . S
H92 C89 0.928 . S
H93 C90 0.931 . S
H94 C70 0.930 . S
H95 C67 0.930 . S
H96 C76 0.930 . S
H97 C88 0.929 . S
H98 C91 0.930 . S
C99 C100 1.351 . S
C99 N102 1.368 . S
C99 H104 0.931 . S
C100 C99 1.351 . S
C100 N101 1.373 . S
C100 H128 0.930 . S
N101 C100 1.373 . S
N101 C103 1.340 . S
N102 C99 1.368 . S
N102 C103 1.321 . S
N102 Co105 2.135 . S
C103 N101 1.340 . S
C103 N102 1.321 . S
C103 H127 0.930 . S
H104 C99 0.931 . S
Co105 N102 2.135 . S
Co105 N108 2.121 . S
Co105 O113 2.055 1_554 S
Co105 O116 2.039 1_554 S
Co105 N119 2.140 . S
C106 O107 1.227 . S
C106 O116 1.265 1_554 S
O107 C106 1.227 . S
N108 Co105 2.121 . S
N108 C110 1.375 . S
N108 C111 1.313 1_554 S
C109 C110 1.342 . S
C109 N112 1.373 1_554 S
C109 H129 0.930 . S
C110 N108 1.375 . S
C110 C109 1.342 . S
C110 H114 0.931 . S
C111 N108 1.313 1_556 S
C111 N112 1.344 . S
C111 H115 0.930 . S
N112 C109 1.373 1_556 S
N112 C111 1.344 . S
O113 Co105 2.055 1_556 S
O113 C117 1.253 1_556 S
H114 C110 0.931 . S
H115 C111 0.930 . S
O116 Co105 2.039 1_556 S
O116 C106 1.265 1_556 S
C117 O113 1.253 1_554 S
C117 O118 1.227 . S
O118 C117 1.227 . S
N119 Co105 2.140 . S
N119 C122 1.346 . S
N119 C123 1.345 . S
C120 C121 1.387 . S
C120 C124 1.391 . S
C121 C120 1.387 . S
C121 C122 1.369 . S
C121 H130 0.929 . S
C122 N119 1.346 . S
C122 C121 1.369 . S
C122 H125 0.928 . S
C123 N119 1.345 . S
C123 C124 1.371 . S
C123 H126 0.931 . S
C124 C120 1.391 . S
C124 C123 1.371 . S
C124 H131 0.930 . S
H125 C122 0.928 . S
H126 C123 0.931 . S
H127 C103 0.930 . S
H128 C100 0.930 . S
H129 C109 0.930 . S
H130 C121 0.929 . S
H131 C124 0.930 . S
C132 C133 1.351 . S
C132 N135 1.368 . S
C132 H137 0.931 . S
C133 C132 1.351 . S
C133 N134 1.373 . S
C133 H161 0.930 . S
N134 C133 1.373 . S
N134 C136 1.340 . S
N135 C132 1.368 . S
N135 C136 1.321 . S
N135 Co138 2.135 . S
C136 N134 1.340 . S
C136 N135 1.321 . S
C136 H160 0.930 . S
H137 C132 0.931 . S
Co138 N135 2.135 . S
Co138 N141 2.121 . S
Co138 O146 2.055 . S
Co138 O149 2.039 . S
Co138 N152 2.140 . S
C139 O140 1.227 . S
C139 O149 1.265 . S
O140 C139 1.227 . S
N141 Co138 2.121 . S
N141 C143 1.375 . S
N141 C144 1.313 . S
C142 C143 1.338 . S
C142 N145 1.377 . S
C142 H162 0.930 . S
C143 N141 1.375 . S
C143 C142 1.338 . S
C143 H147 0.931 . S
C144 N141 1.313 . S
C144 N145 1.344 . S
C144 H148 0.930 . S
N145 C142 1.377 . S
N145 C144 1.344 . S
O146 Co138 2.055 . S
O146 C150 1.253 . S
H147 C143 0.931 . S
H148 C144 0.930 . S
O149 Co138 2.039 . S
O149 C139 1.265 . S
C150 O146 1.253 . S
C150 O151 1.227 . S
O151 C150 1.227 . S
N152 Co138 2.140 . S
N152 C155 1.346 . S
N152 C156 1.345 . S
C153 C154 1.387 . S
C153 C157 1.391 . S
C154 C153 1.387 . S
C154 C155 1.369 . S
C154 H163 0.929 . S
C155 N152 1.346 . S
C155 C154 1.369 . S
C155 H158 0.928 . S
C156 N152 1.345 . S
C156 C157 1.371 . S
C156 H159 0.931 . S
C157 C153 1.391 . S
C157 C156 1.371 . S
C157 H164 0.930 . S
H158 C155 0.928 . S
H159 C156 0.931 . S
H160 C136 0.930 . S
H161 C133 0.930 . S
H162 C142 0.930 . S
H163 C154 0.929 . S
H164 C157 0.930 . S
C165 C166 1.351 . S
C165 N168 1.368 . S
C165 H170 0.931 . S
C166 C165 1.351 . S
C166 N167 1.373 . S
C166 H194 0.930 . S
N167 C166 1.373 . S
N167 C169 1.340 . S
N168 C165 1.368 . S
N168 C169 1.321 . S
N168 Co171 2.135 . S
C169 N167 1.340 . S
C169 N168 1.321 . S
C169 H193 0.930 . S
H170 C165 0.931 . S
Co171 N168 2.135 . S
Co171 N174 2.121 . S
Co171 O179 2.055 . S
Co171 O182 2.039 . S
Co171 N185 2.140 . S
C172 O173 1.227 . S
C172 O182 1.265 . S
O173 C172 1.227 . S
N174 Co171 2.121 . S
N174 C176 1.375 . S
N174 C177 1.313 . S
C175 C176 1.338 . S
C175 N178 1.377 . S
C175 H195 0.930 . S
C176 N174 1.375 . S
C176 C175 1.338 . S
C176 H180 0.931 . S
C177 N174 1.313 . S
C177 N178 1.344 . S
C177 H181 0.930 . S
N178 C175 1.377 . S
N178 C177 1.344 . S
O179 Co171 2.055 . S
O179 C183 1.253 . S
H180 C176 0.931 . S
H181 C177 0.930 . S
O182 Co171 2.039 . S
O182 C172 1.265 . S
C183 O179 1.253 . S
C183 O184 1.227 . S
O184 C183 1.227 . S
N185 Co171 2.140 . S
N185 C188 1.346 . S
N185 C189 1.345 . S
C186 C187 1.387 . S
C186 C190 1.391 . S
C187 C186 1.387 . S
C187 C188 1.369 . S
C187 H196 0.929 . S
C188 N185 1.346 . S
C188 C187 1.369 . S
C188 H191 0.928 . S
C189 N185 1.345 . S
C189 C190 1.371 . S
C189 H192 0.931 . S
C190 C186 1.391 . S
C190 C189 1.371 . S
C190 H197 0.930 . S
H191 C188 0.928 . S
H192 C189 0.931 . S
H193 C169 0.930 . S
H194 C166 0.930 . S
H195 C175 0.930 . S
H196 C187 0.929 . S
H197 C190 0.930 . S
C198 C199 1.351 . S
C198 N201 1.368 . S
C198 H203 0.931 . S
C199 C198 1.351 . S
C199 N200 1.373 . S
C199 H227 0.930 . S
N200 C199 1.373 . S
N200 C202 1.340 . S
N201 C198 1.368 . S
N201 C202 1.321 . S
N201 Co204 2.135 . S
C202 N200 1.340 . S
C202 N201 1.321 . S
C202 H226 0.930 . S
H203 C198 0.931 . S
Co204 N201 2.135 . S
Co204 N207 2.121 . S
Co204 O212 2.055 . S
Co204 O215 2.039 . S
Co204 N218 2.140 . S
C205 O206 1.227 . S
C205 O215 1.265 . S
O206 C205 1.227 . S
N207 Co204 2.121 . S
N207 C209 1.375 . S
N207 C210 1.313 . S
C208 C209 1.338 . S
C208 N211 1.377 . S
C208 H228 0.930 . S
C209 N207 1.375 . S
C209 C208 1.338 . S
C209 H213 0.931 . S
C210 N207 1.313 . S
C210 N211 1.344 . S
C210 H214 0.930 . S
N211 C208 1.377 . S
N211 C210 1.344 . S
O212 Co204 2.055 . S
O212 C216 1.253 . S
H213 C209 0.931 . S
H214 C210 0.930 . S
O215 Co204 2.039 . S
O215 C205 1.265 . S
C216 O212 1.253 . S
C216 O217 1.227 . S
O217 C216 1.227 . S
N218 Co204 2.140 . S
N218 C221 1.346 . S
N218 C222 1.345 . S
C219 C220 1.387 . S
C219 C223 1.391 . S
C220 C219 1.387 . S
C220 C221 1.369 . S
C220 H229 0.929 . S
C221 N218 1.346 . S
C221 C220 1.369 . S
C221 H224 0.928 . S
C222 N218 1.345 . S
C222 C223 1.371 . S
C222 H225 0.931 . S
C223 C219 1.391 . S
C223 C222 1.371 . S
C223 H230 0.930 . S
H224 C221 0.928 . S
H225 C222 0.931 . S
H226 C202 0.930 . S
H227 C199 0.930 . S
H228 C208 0.930 . S
H229 C220 0.929 . S
H230 C223 0.930 . S
C231 C232 1.351 . S
C231 N234 1.368 . S
C231 H236 0.931 . S
C232 C231 1.351 . S
C232 N233 1.373 . S
C232 H260 0.930 1_455 S
N233 C232 1.373 . S
N233 C235 1.340 . S
N234 C231 1.368 . S
N234 C235 1.321 . S
N234 Co237 2.135 . S
C235 N233 1.340 . S
C235 N234 1.321 . S
C235 H259 0.930 . S
H236 C231 0.931 . S
Co237 N234 2.135 . S
Co237 N240 2.121 . S
Co237 O245 2.055 1_556 S
Co237 O248 2.039 1_556 S
Co237 N251 2.140 . S
C238 O239 1.227 . S
C238 O248 1.265 1_556 S
O239 C238 1.227 . S
N240 Co237 2.121 . S
N240 C242 1.375 . S
N240 C243 1.313 1_556 S
C241 C242 1.342 . S
C241 N244 1.373 1_556 S
C241 H261 0.930 . S
C242 N240 1.375 . S
C242 C241 1.342 . S
C242 H246 0.931 . S
C243 N240 1.313 1_554 S
C243 N244 1.344 . S
C243 H247 0.930 . S
N244 C241 1.373 1_554 S
N244 C243 1.344 . S
O245 Co237 2.055 1_554 S
O245 C249 1.253 1_554 S
H246 C242 0.931 . S
H247 C243 0.930 . S
O248 Co237 2.039 1_554 S
O248 C238 1.265 1_554 S
C249 O245 1.253 1_556 S
C249 O250 1.227 . S
O250 C249 1.227 . S
N251 Co237 2.140 . S
N251 C254 1.346 . S
N251 C255 1.345 . S
C252 C253 1.387 . S
C252 C256 1.391 . S
C253 C252 1.387 . S
C253 C254 1.369 . S
C253 H262 0.929 . S
C254 N251 1.346 . S
C254 C253 1.369 . S
C254 H257 0.928 . S
C255 N251 1.345 . S
C255 C256 1.371 . S
C255 H258 0.931 . S
C256 C252 1.391 . S
C256 C255 1.371 . S
C256 H263 0.930 . S
H257 C254 0.928 . S
H258 C255 0.931 . S
H259 C235 0.930 . S
H260 C232 0.930 1_655 S
H261 C241 0.930 . S
H262 C253 0.929 . S
H263 C256 0.930 . S
C264 C265 1.351 . S
C264 N267 1.368 . S
C264 H269 0.931 . S
C265 C264 1.351 . S
C265 N266 1.373 . S
C265 H293 0.930 . S
N266 C265 1.373 . S
N266 C268 1.340 . S
N267 C264 1.368 . S
N267 C268 1.321 . S
N267 Co270 2.135 . S
C268 N266 1.340 . S
C268 N267 1.321 . S
C268 H292 0.930 . S
H269 C264 0.931 . S
Co270 N267 2.135 . S
Co270 N273 2.121 . S
Co270 O278 2.055 . S
Co270 O281 2.039 . S
Co270 N284 2.140 . S
C271 O272 1.227 . S
C271 O281 1.265 . S
O272 C271 1.227 . S
N273 Co270 2.121 . S
N273 C275 1.375 . S
N273 C276 1.313 . S
C274 C275 1.338 . S
C274 N277 1.377 . S
C274 H294 0.930 . S
C275 N273 1.375 . S
C275 C274 1.338 . S
C275 H279 0.931 . S
C276 N273 1.313 . S
C276 N277 1.344 . S
C276 H280 0.930 . S
N277 C274 1.377 . S
N277 C276 1.344 . S
O278 Co270 2.055 . S
O278 C282 1.253 . S
H279 C275 0.931 . S
H280 C276 0.930 . S
O281 Co270 2.039 . S
O281 C271 1.265 . S
C282 O278 1.253 . S
C282 O283 1.227 . S
O283 C282 1.227 . S
N284 Co270 2.140 . S
N284 C287 1.346 . S
N284 C288 1.345 . S
C285 C286 1.387 . S
C285 C289 1.391 . S
C286 C285 1.387 . S
C286 C287 1.369 . S
C286 H295 0.929 . S
C287 N284 1.346 . S
C287 C286 1.369 . S
C287 H290 0.928 . S
C288 N284 1.345 . S
C288 C289 1.371 . S
C288 H291 0.931 . S
C289 C285 1.391 . S
C289 C288 1.371 . S
C289 H296 0.930 . S
H290 C287 0.928 . S
H291 C288 0.931 . S
H292 C268 0.930 . S
H293 C265 0.930 . S
H294 C274 0.930 . S
H295 C286 0.929 . S
H296 C289 0.930 . S
C297 C298 1.351 . S
C297 N300 1.368 . S
C297 H302 0.931 . S
C298 C297 1.351 . S
C298 N299 1.373 . S
C298 H326 0.930 . S
N299 C298 1.373 . S
N299 C301 1.340 . S
N300 C297 1.368 . S
N300 C301 1.321 . S
N300 Co303 2.135 . S
C301 N299 1.340 . S
C301 N300 1.321 . S
C301 H325 0.930 . S
H302 C297 0.931 . S
Co303 N300 2.135 . S
Co303 N306 2.121 . S
Co303 O311 2.055 1_545 S
Co303 O314 2.039 1_545 S
Co303 N317 2.140 . S
C304 O305 1.227 . S
C304 O314 1.265 1_545 S
O305 C304 1.227 . S
N306 Co303 2.121 . S
N306 C308 1.375 . S
N306 C309 1.313 1_545 S
C307 C308 1.342 . S
C307 N310 1.373 1_545 S
C307 H327 0.930 . S
C308 N306 1.375 . S
C308 C307 1.342 . S
C308 H312 0.931 . S
C309 N306 1.313 1_565 S
C309 N310 1.344 . S
C309 H313 0.930 . S
N310 C307 1.373 1_565 S
N310 C309 1.344 . S
O311 Co303 2.055 1_565 S
O311 C315 1.253 1_565 S
H312 C308 0.931 . S
H313 C309 0.930 . S
O314 Co303 2.039 1_565 S
O314 C304 1.265 1_565 S
C315 O311 1.253 1_545 S
C315 O316 1.227 . S
O316 C315 1.227 . S
N317 Co303 2.140 . S
N317 C320 1.346 . S
N317 C321 1.345 . S
C318 C319 1.387 . S
C318 C322 1.391 . S
C319 C318 1.387 . S
C319 C320 1.369 . S
C319 H328 0.929 . S
C320 N317 1.346 . S
C320 C319 1.369 . S
C320 H323 0.928 . S
C321 N317 1.345 . S
C321 C322 1.371 . S
C321 H324 0.931 . S
C322 C318 1.391 . S
C322 C321 1.371 . S
C322 H329 0.930 . S
H323 C320 0.928 . S
H324 C321 0.931 . S
H325 C301 0.930 . S
H326 C298 0.930 . S
H327 C307 0.930 . S
H328 C319 0.929 . S
H329 C322 0.930 . S
C330 C331 1.351 . S
C330 N333 1.368 . S
C330 H335 0.931 . S
C331 C330 1.351 . S
C331 N332 1.373 . S
C331 H359 0.930 . S
N332 C331 1.373 . S
N332 C334 1.340 . S
N333 C330 1.368 . S
N333 C334 1.321 . S
N333 Co336 2.135 . S
C334 N332 1.340 . S
C334 N333 1.321 . S
C334 H358 0.930 . S
H335 C330 0.931 . S
Co336 N333 2.135 . S
Co336 N339 2.121 . S
Co336 O344 2.055 . S
Co336 O347 2.039 . S
Co336 N350 2.140 . S
C337 O338 1.227 . S
C337 O347 1.265 . S
O338 C337 1.227 . S
N339 Co336 2.121 . S
N339 C341 1.375 . S
N339 C342 1.313 . S
C340 C341 1.338 . S
C340 N343 1.377 . S
C340 H360 0.930 . S
C341 N339 1.375 . S
C341 C340 1.338 . S
C341 H345 0.931 . S
C342 N339 1.313 . S
C342 N343 1.344 . S
C342 H346 0.930 . S
N343 C340 1.377 . S
N343 C342 1.344 . S
O344 Co336 2.055 . S
O344 C348 1.253 . S
H345 C341 0.931 . S
H346 C342 0.930 . S
O347 Co336 2.039 . S
O347 C337 1.265 . S
C348 O344 1.253 . S
C348 O349 1.227 . S
O349 C348 1.227 . S
N350 Co336 2.140 . S
N350 C353 1.346 . S
N350 C354 1.345 . S
C351 C352 1.387 . S
C351 C355 1.391 . S
C352 C351 1.387 . S
C352 C353 1.369 . S
C352 H361 0.929 . S
C353 N350 1.346 . S
C353 C352 1.369 . S
C353 H356 0.928 . S
C354 N350 1.345 . S
C354 C355 1.371 . S
C354 H357 0.931 . S
C355 C351 1.391 . S
C355 C354 1.371 . S
C355 H362 0.930 . S
H356 C353 0.928 . S
H357 C354 0.931 . S
H358 C334 0.930 . S
H359 C331 0.930 . S
H360 C340 0.930 . S
H361 C352 0.929 . S
H362 C355 0.930 . S
C363 C364 1.351 . S
C363 N366 1.368 . S
C363 H368 0.931 . S
C364 C363 1.351 . S
C364 N365 1.373 . S
C364 H392 0.930 1_556 S
N365 C364 1.373 . S
N365 C367 1.340 . S
N366 C363 1.368 . S
N366 C367 1.321 . S
N366 Co369 2.135 . S
C367 N365 1.340 . S
C367 N366 1.321 . S
C367 H391 0.930 . S
H368 C363 0.931 . S
Co369 N366 2.135 . S
Co369 N372 2.121 . S
Co369 O377 2.055 1_565 S
Co369 O380 2.039 1_565 S
Co369 N383 2.140 . S
C370 O371 1.227 . S
C370 O380 1.265 1_565 S
O371 C370 1.227 . S
N372 Co369 2.121 . S
N372 C374 1.375 . S
N372 C375 1.313 1_565 S
C373 C374 1.342 . S
C373 N376 1.373 1_565 S
C373 H393 0.930 . S
C374 N372 1.375 . S
C374 C373 1.342 . S
C374 H378 0.931 . S
C375 N372 1.313 1_545 S
C375 N376 1.344 . S
C375 H379 0.930 . S
N376 C373 1.373 1_545 S
N376 C375 1.344 . S
O377 Co369 2.055 1_545 S
O377 C381 1.253 1_545 S
H378 C374 0.931 . S
H379 C375 0.930 . S
O380 Co369 2.039 1_545 S
O380 C370 1.265 1_545 S
C381 O377 1.253 1_565 S
C381 O382 1.227 . S
O382 C381 1.227 . S
N383 Co369 2.140 . S
N383 C386 1.346 . S
N383 C387 1.345 . S
C384 C385 1.387 . S
C384 C388 1.391 . S
C385 C384 1.387 . S
C385 C386 1.369 . S
C385 H394 0.929 . S
C386 N383 1.346 . S
C386 C385 1.369 . S
C386 H389 0.928 . S
C387 N383 1.345 . S
C387 C388 1.371 . S
C387 H390 0.931 . S
C388 C384 1.391 . S
C388 C387 1.371 . S
C388 H395 0.930 . S
H389 C386 0.928 . S
H390 C387 0.931 . S
H391 C367 0.930 . S
H392 C364 0.930 1_554 S
H393 C373 0.930 . S
H394 C385 0.929 . S
H395 C388 0.930 . S
C396 C397 1.351 . S
C396 N399 1.368 . S
C396 H401 0.931 . S
C397 C396 1.351 . S
C397 N398 1.373 . S
C397 H425 0.930 . S
N398 C397 1.373 . S
N398 C400 1.340 . S
N399 C396 1.368 . S
N399 C400 1.321 . S
N399 Co402 2.135 . S
C400 N398 1.340 . S
C400 N399 1.321 . S
C400 H424 0.930 . S
H401 C396 0.931 . S
Co402 N399 2.135 . S
Co402 N405 2.121 . S
Co402 O410 2.055 . S
Co402 O413 2.039 . S
Co402 N416 2.140 . S
C403 O404 1.227 . S
C403 O413 1.265 . S
O404 C403 1.227 . S
N405 Co402 2.121 . S
N405 C407 1.375 . S
N405 C408 1.313 . S
C406 C407 1.338 . S
C406 N409 1.377 . S
C406 H426 0.930 . S
C407 N405 1.375 . S
C407 C406 1.338 . S
C407 H411 0.931 . S
C408 N405 1.313 . S
C408 N409 1.344 . S
C408 H412 0.930 . S
N409 C406 1.377 . S
N409 C408 1.344 . S
O410 Co402 2.055 . S
O410 C414 1.253 . S
H411 C407 0.931 . S
H412 C408 0.930 . S
O413 Co402 2.039 . S
O413 C403 1.265 . S
C414 O410 1.253 . S
C414 O415 1.227 . S
O415 C414 1.227 . S
N416 Co402 2.140 . S
N416 C419 1.346 . S
N416 C420 1.345 . S
C417 C418 1.387 . S
C417 C421 1.391 . S
C418 C417 1.387 . S
C418 C419 1.369 . S
C418 H427 0.929 . S
C419 N416 1.346 . S
C419 C418 1.369 . S
C419 H422 0.928 . S
C420 N416 1.345 . S
C420 C421 1.371 . S
C420 H423 0.931 . S
C421 C417 1.391 . S
C421 C420 1.371 . S
C421 H428 0.930 . S
H422 C419 0.928 . S
H423 C420 0.931 . S
H424 C400 0.930 . S
H425 C397 0.930 . S
H426 C406 0.930 . S
H427 C418 0.929 . S
H428 C421 0.930 . S
C429 C430 1.351 . S
C429 N432 1.368 . S
C429 H434 0.931 . S
C430 C429 1.351 . S
C430 N431 1.373 . S
C430 H458 0.930 . S
N431 C430 1.373 . S
N431 C433 1.340 . S
N432 C429 1.368 . S
N432 C433 1.321 . S
N432 Co435 2.135 . S
C433 N431 1.340 . S
C433 N432 1.321 . S
C433 H457 0.930 . S
H434 C429 0.931 . S
Co435 N432 2.135 . S
Co435 N438 2.121 . S
Co435 O443 2.055 1_545 S
Co435 O446 2.039 1_545 S
Co435 N449 2.140 . S
C436 O437 1.227 . S
C436 O446 1.265 1_545 S
O437 C436 1.227 . S
N438 Co435 2.121 . S
N438 C440 1.375 . S
N438 C441 1.313 1_545 S
C439 C440 1.342 . S
C439 N442 1.373 1_545 S
C439 H459 0.930 . S
C440 N438 1.375 . S
C440 C439 1.342 . S
C440 H444 0.931 . S
C441 N438 1.313 1_565 S
C441 N442 1.344 . S
C441 H445 0.930 . S
N442 C439 1.373 1_565 S
N442 C441 1.344 . S
O443 Co435 2.055 1_565 S
O443 C447 1.253 1_565 S
H444 C440 0.931 . S
H445 C441 0.930 . S
O446 Co435 2.039 1_565 S
O446 C436 1.265 1_565 S
C447 O443 1.253 1_545 S
C447 O448 1.227 . S
O448 C447 1.227 . S
N449 Co435 2.140 . S
N449 C452 1.346 . S
N449 C453 1.345 . S
C450 C451 1.387 . S
C450 C454 1.391 . S
C451 C450 1.387 . S
C451 C452 1.369 . S
C451 H460 0.929 . S
C452 N449 1.346 . S
C452 C451 1.369 . S
C452 H455 0.928 . S
C453 N449 1.345 . S
C453 C454 1.371 . S
C453 H456 0.931 . S
C454 C450 1.391 . S
C454 C453 1.371 . S
C454 H461 0.930 . S
H455 C452 0.928 . S
H456 C453 0.931 . S
H457 C433 0.930 . S
H458 C430 0.930 . S
H459 C439 0.930 . S
H460 C451 0.929 . S
H461 C454 0.930 . S
C462 C463 1.351 . S
C462 N465 1.368 . S
C462 H467 0.931 . S
C463 C462 1.351 . S
C463 N464 1.373 . S
C463 H491 0.930 . S
N464 C463 1.373 . S
N464 C466 1.340 . S
N465 C462 1.368 . S
N465 C466 1.321 . S
N465 Co468 2.135 . S
C466 N464 1.340 . S
C466 N465 1.321 . S
C466 H490 0.930 . S
H467 C462 0.931 . S
Co468 N465 2.135 . S
Co468 N471 2.121 . S
Co468 O476 2.055 . S
Co468 O479 2.039 . S
Co468 N482 2.140 . S
C469 O470 1.227 . S
C469 O479 1.265 . S
O470 C469 1.227 . S
N471 Co468 2.121 . S
N471 C473 1.375 . S
N471 C474 1.313 . S
C472 C473 1.338 . S
C472 N475 1.377 . S
C472 H492 0.930 . S
C473 N471 1.375 . S
C473 C472 1.338 . S
C473 H477 0.931 . S
C474 N471 1.313 . S
C474 N475 1.344 . S
C474 H478 0.930 . S
N475 C472 1.377 . S
N475 C474 1.344 . S
O476 Co468 2.055 . S
O476 C480 1.253 . S
H477 C473 0.931 . S
H478 C474 0.930 . S
O479 Co468 2.039 . S
O479 C469 1.265 . S
C480 O476 1.253 . S
C480 O481 1.227 . S
O481 C480 1.227 . S
N482 Co468 2.140 . S
N482 C485 1.346 . S
N482 C486 1.345 . S
C483 C484 1.387 . S
C483 C487 1.391 . S
C484 C483 1.387 . S
C484 C485 1.369 . S
C484 H493 0.929 . S
C485 N482 1.346 . S
C485 C484 1.369 . S
C485 H488 0.928 . S
C486 N482 1.345 . S
C486 C487 1.371 . S
C486 H489 0.931 . S
C487 C483 1.391 . S
C487 C486 1.371 . S
C487 H494 0.930 . S
H488 C485 0.928 . S
H489 C486 0.931 . S
H490 C466 0.930 . S
H491 C463 0.930 . S
H492 C472 0.930 . S
H493 C484 0.929 . S
H494 C487 0.930 . S
C495 C496 1.351 . S
C495 N498 1.368 . S
C495 H500 0.931 . S
C496 C495 1.351 . S
C496 N497 1.373 . S
C496 H524 0.930 1_554 S
N497 C496 1.373 . S
N497 C499 1.340 . S
N498 C495 1.368 . S
N498 C499 1.321 . S
N498 Co501 2.135 . S
C499 N497 1.340 . S
C499 N498 1.321 . S
C499 H523 0.930 . S
H500 C495 0.931 . S
Co501 N498 2.135 . S
Co501 N504 2.121 . S
Co501 O509 2.055 1_565 S
Co501 O512 2.039 1_565 S
Co501 N515 2.140 . S
C502 O503 1.227 . S
C502 O512 1.265 1_565 S
O503 C502 1.227 . S
N504 Co501 2.121 . S
N504 C506 1.375 . S
N504 C507 1.313 1_565 S
C505 C506 1.342 . S
C505 N508 1.373 1_565 S
C505 H525 0.930 . S
C506 N504 1.375 . S
C506 C505 1.342 . S
C506 H510 0.931 . S
C507 N504 1.313 1_545 S
C507 N508 1.344 . S
C507 H511 0.930 . S
N508 C505 1.373 1_545 S
N508 C507 1.344 . S
O509 Co501 2.055 1_545 S
O509 C513 1.253 1_545 S
H510 C506 0.931 . S
H511 C507 0.930 . S
O512 Co501 2.039 1_545 S
O512 C502 1.265 1_545 S
C513 O509 1.253 1_565 S
C513 O514 1.227 . S
O514 C513 1.227 . S
N515 Co501 2.140 . S
N515 C518 1.346 . S
N515 C519 1.345 . S
C516 C517 1.387 . S
C516 C520 1.391 . S
C517 C516 1.387 . S
C517 C518 1.369 . S
C517 H526 0.929 . S
C518 N515 1.346 . S
C518 C517 1.369 . S
C518 H521 0.928 . S
C519 N515 1.345 . S
C519 C520 1.371 . S
C519 H522 0.931 . S
C520 C516 1.391 . S
C520 C519 1.371 . S
C520 H527 0.930 . S
H521 C518 0.928 . S
H522 C519 0.931 . S
H523 C499 0.930 . S
H524 C496 0.930 1_556 S
H525 C505 0.930 . S
H526 C517 0.929 . S
H527 C520 0.930 . S
C528 C529 1.351 . S
C528 N531 1.368 . S
C528 H533 0.931 . S
C529 C528 1.351 . S
C529 N530 1.373 . S
C529 H557 0.930 . S
N530 C529 1.373 . S
N530 C532 1.340 . S
N531 C528 1.368 . S
N531 C532 1.321 . S
N531 Co534 2.135 . S
C532 N530 1.340 . S
C532 N531 1.321 . S
C532 H556 0.930 . S
H533 C528 0.931 . S
Co534 N531 2.135 . S
Co534 N537 2.121 . S
Co534 O542 2.055 . S
Co534 O545 2.039 . S
Co534 N548 2.140 . S
C535 O536 1.227 . S
C535 O545 1.265 . S
O536 C535 1.227 . S
N537 Co534 2.121 . S
N537 C539 1.375 . S
N537 C540 1.313 . S
C538 C539 1.338 . S
C538 N541 1.377 . S
C538 H558 0.930 . S
C539 N537 1.375 . S
C539 C538 1.338 . S
C539 H543 0.931 . S
C540 N537 1.313 . S
C540 N541 1.344 . S
C540 H544 0.930 . S
N541 C538 1.377 . S
N541 C540 1.344 . S
O542 Co534 2.055 . S
O542 C546 1.253 . S
H543 C539 0.931 . S
H544 C540 0.930 . S
O545 Co534 2.039 . S
O545 C535 1.265 . S
C546 O542 1.253 . S
C546 O547 1.227 . S
O547 C546 1.227 . S
N548 Co534 2.140 . S
N548 C551 1.346 . S
N548 C552 1.345 . S
C549 C550 1.387 . S
C549 C553 1.391 . S
C550 C549 1.387 . S
C550 C551 1.369 . S
C550 H559 0.929 . S
C551 N548 1.346 . S
C551 C550 1.369 . S
C551 H554 0.928 . S
C552 N548 1.345 . S
C552 C553 1.371 . S
C552 H555 0.931 . S
C553 C549 1.391 . S
C553 C552 1.371 . S
C553 H560 0.930 . S
H554 C551 0.928 . S
H555 C552 0.931 . S
H556 C532 0.930 . S
H557 C529 0.930 . S
H558 C538 0.930 . S
H559 C550 0.929 . S
H560 C553 0.930 . S
C561 C562 1.351 . S
C561 N564 1.368 . S
C561 H566 0.931 . S
C562 C561 1.351 . S
C562 N563 1.373 . S
C562 H590 0.930 . S
N563 C562 1.373 . S
N563 C565 1.340 . S
N564 C561 1.368 . S
N564 C565 1.321 . S
N564 Co567 2.135 . S
C565 N563 1.340 . S
C565 N564 1.321 . S
C565 H589 0.930 . S
H566 C561 0.931 . S
Co567 N564 2.135 . S
Co567 N570 2.121 . S
Co567 O575 2.055 . S
Co567 O578 2.039 . S
Co567 N581 2.140 . S
C568 O569 1.227 . S
C568 O578 1.265 . S
O569 C568 1.227 . S
N570 Co567 2.121 . S
N570 C572 1.375 . S
N570 C573 1.313 . S
C571 C572 1.338 . S
C571 N574 1.377 . S
C571 H591 0.930 . S
C572 N570 1.375 . S
C572 C571 1.338 . S
C572 H576 0.931 . S
C573 N570 1.313 . S
C573 N574 1.344 . S
C573 H577 0.930 . S
N574 C571 1.377 . S
N574 C573 1.344 . S
O575 Co567 2.055 . S
O575 C579 1.253 . S
H576 C572 0.931 . S
H577 C573 0.930 . S
O578 Co567 2.039 . S
O578 C568 1.265 . S
C579 O575 1.253 . S
C579 O580 1.227 . S
O580 C579 1.227 . S
N581 Co567 2.140 . S
N581 C584 1.346 . S
N581 C585 1.345 . S
C582 C583 1.387 . S
C582 C586 1.391 . S
C583 C582 1.387 . S
C583 C584 1.369 . S
C583 H592 0.929 . S
C584 N581 1.346 . S
C584 C583 1.369 . S
C584 H587 0.928 . S
C585 N581 1.345 . S
C585 C586 1.371 . S
C585 H588 0.931 . S
C586 C582 1.391 . S
C586 C585 1.371 . S
C586 H593 0.930 . S
H587 C584 0.928 . S
H588 C585 0.931 . S
H589 C565 0.930 . S
H590 C562 0.930 . S
H591 C571 0.930 . S
H592 C583 0.929 . S
H593 C586 0.930 . S
C594 C595 1.351 . S
C594 N597 1.368 . S
C594 H599 0.931 . S
C595 C594 1.351 . S
C595 N596 1.373 . S
C595 H623 0.930 . S
N596 C595 1.373 . S
N596 C598 1.340 . S
N597 C594 1.368 . S
N597 C598 1.321 . S
N597 Co600 2.135 . S
C598 N596 1.340 . S
C598 N597 1.321 . S
C598 H622 0.930 . S
H599 C594 0.931 . S
Co600 N597 2.135 . S
Co600 N603 2.121 . S
Co600 O608 2.055 1_455 S
Co600 O611 2.039 1_455 S
Co600 N614 2.140 . S
C601 O602 1.227 . S
C601 O611 1.265 1_455 S
O602 C601 1.227 . S
N603 Co600 2.121 . S
N603 C605 1.375 . S
N603 C606 1.313 1_455 S
C604 C605 1.342 . S
C604 N607 1.373 1_455 S
C604 H624 0.930 . S
C605 N603 1.375 . S
C605 C604 1.342 . S
C605 H609 0.931 . S
C606 N603 1.313 1_655 S
C606 N607 1.344 . S
C606 H610 0.930 . S
N607 C604 1.373 1_655 S
N607 C606 1.344 . S
O608 Co600 2.055 1_655 S
O608 C612 1.253 1_655 S
H609 C605 0.931 . S
H610 C606 0.930 . S
O611 Co600 2.039 1_655 S
O611 C601 1.265 1_655 S
C612 O608 1.253 1_455 S
C612 O613 1.227 . S
O613 C612 1.227 . S
N614 Co600 2.140 . S
N614 C617 1.346 . S
N614 C618 1.345 . S
C615 C616 1.387 . S
C615 C619 1.391 . S
C616 C615 1.387 . S
C616 C617 1.369 . S
C616 H625 0.929 . S
C617 N614 1.346 . S
C617 C616 1.369 . S
C617 H620 0.928 . S
C618 N614 1.345 . S
C618 C619 1.371 . S
C618 H621 0.931 . S
C619 C615 1.391 . S
C619 C618 1.371 . S
C619 H626 0.930 . S
H620 C617 0.928 . S
H621 C618 0.931 . S
H622 C598 0.930 . S
H623 C595 0.930 . S
H624 C604 0.930 . S
H625 C616 0.929 . S
H626 C619 0.930 . S
C627 C628 1.351 . S
C627 N630 1.368 . S
C627 H632 0.931 . S
C628 C627 1.351 . S
C628 N629 1.373 . S
C628 H656 0.930 . S
N629 C628 1.373 . S
N629 C631 1.340 . S
N630 C627 1.368 . S
N630 C631 1.321 . S
N630 Co633 2.135 . S
C631 N629 1.340 . S
C631 N630 1.321 . S
C631 H655 0.930 . S
H632 C627 0.931 . S
Co633 N630 2.135 . S
Co633 N636 2.121 . S
Co633 O641 2.055 . S
Co633 O644 2.039 . S
Co633 N647 2.140 . S
C634 O635 1.227 . S
C634 O644 1.265 . S
O635 C634 1.227 . S
N636 Co633 2.121 . S
N636 C638 1.375 . S
N636 C639 1.313 . S
C637 C638 1.338 . S
C637 N640 1.377 . S
C637 H657 0.930 . S
C638 N636 1.375 . S
C638 C637 1.338 . S
C638 H642 0.931 . S
C639 N636 1.313 . S
C639 N640 1.344 . S
C639 H643 0.930 . S
N640 C637 1.377 . S
N640 C639 1.344 . S
O641 Co633 2.055 . S
O641 C645 1.253 . S
H642 C638 0.931 . S
H643 C639 0.930 . S
O644 Co633 2.039 . S
O644 C634 1.265 . S
C645 O641 1.253 . S
C645 O646 1.227 . S
O646 C645 1.227 . S
N647 Co633 2.140 . S
N647 C650 1.346 . S
N647 C651 1.345 . S
C648 C649 1.387 . S
C648 C652 1.391 . S
C649 C648 1.387 . S
C649 C650 1.369 . S
C649 H658 0.929 . S
C650 N647 1.346 . S
C650 C649 1.369 . S
C650 H653 0.928 . S
C651 N647 1.345 . S
C651 C652 1.371 . S
C651 H654 0.931 . S
C652 C648 1.391 . S
C652 C651 1.371 . S
C652 H659 0.930 . S
H653 C650 0.928 . S
H654 C651 0.931 . S
H655 C631 0.930 . S
H656 C628 0.930 . S
H657 C637 0.930 . S
H658 C649 0.929 . S
H659 C652 0.930 . S
C660 C661 1.351 . S
C660 N663 1.368 . S
C660 H665 0.931 . S
C661 C660 1.351 . S
C661 N662 1.373 . S
C661 H689 0.930 1_545 S
N662 C661 1.373 . S
N662 C664 1.340 . S
N663 C660 1.368 . S
N663 C664 1.321 . S
N663 Co666 2.135 . S
C664 N662 1.340 . S
C664 N663 1.321 . S
C664 H688 0.930 . S
H665 C660 0.931 . S
Co666 N663 2.135 . S
Co666 N669 2.121 . S
Co666 O674 2.055 1_655 S
Co666 O677 2.039 1_655 S
Co666 N680 2.140 . S
C667 O668 1.227 . S
C667 O677 1.265 1_655 S
O668 C667 1.227 . S
N669 Co666 2.121 . S
N669 C671 1.375 . S
N669 C672 1.313 1_655 S
C670 C671 1.342 . S
C670 N673 1.373 1_655 S
C670 H690 0.930 . S
C671 N669 1.375 . S
C671 C670 1.342 . S
C671 H675 0.931 . S
C672 N669 1.313 1_455 S
C672 N673 1.344 . S
C672 H676 0.930 . S
N673 C670 1.373 1_455 S
N673 C672 1.344 . S
O674 Co666 2.055 1_455 S
O674 C678 1.253 1_455 S
H675 C671 0.931 . S
H676 C672 0.930 . S
O677 Co666 2.039 1_455 S
O677 C667 1.265 1_455 S
C678 O674 1.253 1_655 S
C678 O679 1.227 . S
O679 C678 1.227 . S
N680 Co666 2.140 . S
N680 C683 1.346 . S
N680 C684 1.345 . S
C681 C682 1.387 . S
C681 C685 1.391 . S
C682 C681 1.387 . S
C682 C683 1.369 . S
C682 H691 0.929 . S
C683 N680 1.346 . S
C683 C682 1.369 . S
C683 H686 0.928 . S
C684 N680 1.345 . S
C684 C685 1.371 . S
C684 H687 0.931 . S
C685 C681 1.391 . S
C685 C684 1.371 . S
C685 H692 0.930 . S
H686 C683 0.928 . S
H687 C684 0.931 . S
H688 C664 0.930 . S
H689 C661 0.930 1_565 S
H690 C670 0.930 . S
H691 C682 0.929 . S
H692 C685 0.930 . S
C693 C694 1.351 . S
C693 N696 1.368 . S
C693 H698 0.931 . S
C694 C693 1.351 . S
C694 N695 1.373 . S
C694 H722 0.930 . S
N695 C694 1.373 . S
N695 C697 1.340 . S
N696 C693 1.368 . S
N696 C697 1.321 . S
N696 Co699 2.135 . S
C697 N695 1.340 . S
C697 N696 1.321 . S
C697 H721 0.930 . S
H698 C693 0.931 . S
Co699 N696 2.135 . S
Co699 N702 2.121 . S
Co699 O707 2.055 . S
Co699 O710 2.039 . S
Co699 N713 2.140 . S
C700 O701 1.227 . S
C700 O710 1.265 . S
O701 C700 1.227 . S
N702 Co699 2.121 . S
N702 C704 1.375 . S
N702 C705 1.313 . S
C703 C704 1.338 . S
C703 N706 1.377 . S
C703 H723 0.930 . S
C704 N702 1.375 . S
C704 C703 1.338 . S
C704 H708 0.931 . S
C705 N702 1.313 . S
C705 N706 1.344 . S
C705 H709 0.930 . S
N706 C703 1.377 . S
N706 C705 1.344 . S
O707 Co699 2.055 . S
O707 C711 1.253 . S
H708 C704 0.931 . S
H709 C705 0.930 . S
O710 Co699 2.039 . S
O710 C700 1.265 . S
C711 O707 1.253 . S
C711 O712 1.227 . S
O712 C711 1.227 . S
N713 Co699 2.140 . S
N713 C716 1.346 . S
N713 C717 1.345 . S
C714 C715 1.387 . S
C714 C718 1.391 . S
C715 C714 1.387 . S
C715 C716 1.369 . S
C715 H724 0.929 . S
C716 N713 1.346 . S
C716 C715 1.369 . S
C716 H719 0.928 . S
C717 N713 1.345 . S
C717 C718 1.371 . S
C717 H720 0.931 . S
C718 C714 1.391 . S
C718 C717 1.371 . S
C718 H725 0.930 . S
H719 C716 0.928 . S
H720 C717 0.931 . S
H721 C697 0.930 . S
H722 C694 0.930 . S
H723 C703 0.930 . S
H724 C715 0.929 . S
H725 C718 0.930 . S
C726 C727 1.351 . S
C726 N729 1.368 . S
C726 H731 0.931 . S
C727 C726 1.351 . S
C727 N728 1.373 . S
C727 H755 0.930 . S
N728 C727 1.373 . S
N728 C730 1.340 . S
N729 C726 1.368 . S
N729 C730 1.321 . S
N729 Co732 2.135 . S
C730 N728 1.340 . S
C730 N729 1.321 . S
C730 H754 0.930 . S
H731 C726 0.931 . S
Co732 N729 2.135 . S
Co732 N735 2.121 . S
Co732 O740 2.055 1_455 S
Co732 O743 2.039 1_455 S
Co732 N746 2.140 . S
C733 O734 1.227 . S
C733 O743 1.265 1_455 S
O734 C733 1.227 . S
N735 Co732 2.121 . S
N735 C737 1.375 . S
N735 C738 1.313 1_455 S
C736 C737 1.342 . S
C736 N739 1.373 1_455 S
C736 H756 0.930 . S
C737 N735 1.375 . S
C737 C736 1.342 . S
C737 H741 0.931 . S
C738 N735 1.313 1_655 S
C738 N739 1.344 . S
C738 H742 0.930 . S
N739 C736 1.373 1_655 S
N739 C738 1.344 . S
O740 Co732 2.055 1_655 S
O740 C744 1.253 1_655 S
H741 C737 0.931 . S
H742 C738 0.930 . S
O743 Co732 2.039 1_655 S
O743 C733 1.265 1_655 S
C744 O740 1.253 1_455 S
C744 O745 1.227 . S
O745 C744 1.227 . S
N746 Co732 2.140 . S
N746 C749 1.346 . S
N746 C750 1.345 . S
C747 C748 1.387 . S
C747 C751 1.391 . S
C748 C747 1.387 . S
C748 C749 1.369 . S
C748 H757 0.929 . S
C749 N746 1.346 . S
C749 C748 1.369 . S
C749 H752 0.928 . S
C750 N746 1.345 . S
C750 C751 1.371 . S
C750 H753 0.931 . S
C751 C747 1.391 . S
C751 C750 1.371 . S
C751 H758 0.930 . S
H752 C749 0.928 . S
H753 C750 0.931 . S
H754 C730 0.930 . S
H755 C727 0.930 . S
H756 C736 0.930 . S
H757 C748 0.929 . S
H758 C751 0.930 . S
C759 C760 1.351 . S
C759 N762 1.368 . S
C759 H764 0.931 . S
C760 C759 1.351 . S
C760 N761 1.373 . S
C760 H788 0.930 . S
N761 C760 1.373 . S
N761 C763 1.340 . S
N762 C759 1.368 . S
N762 C763 1.321 . S
N762 Co765 2.135 . S
C763 N761 1.340 . S
C763 N762 1.321 . S
C763 H787 0.930 . S
H764 C759 0.931 . S
Co765 N762 2.135 . S
Co765 N768 2.121 . S
Co765 O773 2.055 . S
Co765 O776 2.039 . S
Co765 N779 2.140 . S
C766 O767 1.227 . S
C766 O776 1.265 . S
O767 C766 1.227 . S
N768 Co765 2.121 . S
N768 C770 1.375 . S
N768 C771 1.313 . S
C769 C770 1.338 . S
C769 N772 1.377 . S
C769 H789 0.930 . S
C770 N768 1.375 . S
C770 C769 1.338 . S
C770 H774 0.931 . S
C771 N768 1.313 . S
C771 N772 1.344 . S
C771 H775 0.930 . S
N772 C769 1.377 . S
N772 C771 1.344 . S
O773 Co765 2.055 . S
O773 C777 1.253 . S
H774 C770 0.931 . S
H775 C771 0.930 . S
O776 Co765 2.039 . S
O776 C766 1.265 . S
C777 O773 1.253 . S
C777 O778 1.227 . S
O778 C777 1.227 . S
N779 Co765 2.140 . S
N779 C782 1.346 . S
N779 C783 1.345 . S
C780 C781 1.387 . S
C780 C784 1.391 . S
C781 C780 1.387 . S
C781 C782 1.369 . S
C781 H790 0.929 . S
C782 N779 1.346 . S
C782 C781 1.369 . S
C782 H785 0.928 . S
C783 N779 1.345 . S
C783 C784 1.371 . S
C783 H786 0.931 . S
C784 C780 1.391 . S
C784 C783 1.371 . S
C784 H791 0.930 . S
H785 C782 0.928 . S
H786 C783 0.931 . S
H787 C763 0.930 . S
H788 C760 0.930 . S
H789 C769 0.930 . S
H790 C781 0.929 . S
H791 C784 0.930 . S
C792 C793 1.351 . S
C792 N795 1.368 . S
C792 H797 0.931 . S
C793 C792 1.351 . S
C793 N794 1.373 . S
C793 H821 0.930 . S
N794 C793 1.373 . S
N794 C796 1.340 . S
N795 C792 1.368 . S
N795 C796 1.321 . S
N795 Co798 2.135 . S
C796 N794 1.340 . S
C796 N795 1.321 . S
C796 H820 0.930 . S
H797 C792 0.931 . S
Co798 N795 2.135 . S
Co798 N801 2.121 . S
Co798 O806 2.055 . S
Co798 O809 2.039 . S
Co798 N812 2.140 . S
C799 O800 1.227 . S
C799 O809 1.265 . S
O800 C799 1.227 . S
N801 Co798 2.121 . S
N801 C803 1.375 . S
N801 C804 1.313 . S
C802 C803 1.338 . S
C802 N805 1.377 . S
C802 H822 0.930 . S
C803 N801 1.375 . S
C803 C802 1.338 . S
C803 H807 0.931 . S
C804 N801 1.313 . S
C804 N805 1.344 . S
C804 H808 0.930 . S
N805 C802 1.377 . S
N805 C804 1.344 . S
O806 Co798 2.055 . S
O806 C810 1.253 . S
H807 C803 0.931 . S
H808 C804 0.930 . S
O809 Co798 2.039 . S
O809 C799 1.265 . S
C810 O806 1.253 . S
C810 O811 1.227 . S
O811 C810 1.227 . S
N812 Co798 2.140 . S
N812 C815 1.346 . S
N812 C816 1.345 . S
C813 C814 1.387 . S
C813 C817 1.391 . S
C814 C813 1.387 . S
C814 C815 1.369 . S
C814 H823 0.929 . S
C815 N812 1.346 . S
C815 C814 1.369 . S
C815 H818 0.928 . S
C816 N812 1.345 . S
C816 C817 1.371 . S
C816 H819 0.931 . S
C817 C813 1.391 . S
C817 C816 1.371 . S
C817 H824 0.930 . S
H818 C815 0.928 . S
H819 C816 0.931 . S
H820 C796 0.930 . S
H821 C793 0.930 . S
H822 C802 0.930 . S
H823 C814 0.929 . S
H824 C817 0.930 . S
C825 C826 1.351 . S
C825 N828 1.368 . S
C825 H830 0.931 . S
C826 C825 1.351 . S
C826 N827 1.373 . S
C826 H854 0.930 . S
N827 C826 1.373 . S
N827 C829 1.340 . S
N828 C825 1.368 . S
N828 C829 1.321 . S
N828 Co831 2.135 . S
C829 N827 1.340 . S
C829 N828 1.321 . S
C829 H853 0.930 . S
H830 C825 0.931 . S
Co831 N828 2.135 . S
Co831 N834 2.121 . S
Co831 O839 2.055 1_554 S
Co831 O842 2.039 1_554 S
Co831 N845 2.140 . S
C832 O833 1.227 . S
C832 O842 1.265 1_554 S
O833 C832 1.227 . S
N834 Co831 2.121 . S
N834 C836 1.375 . S
N834 C837 1.313 1_554 S
C835 C836 1.342 . S
C835 N838 1.373 1_554 S
C835 H855 0.930 . S
C836 N834 1.375 . S
C836 C835 1.342 . S
C836 H840 0.931 . S
C837 N834 1.313 1_556 S
C837 N838 1.344 . S
C837 H841 0.930 . S
N838 C835 1.373 1_556 S
N838 C837 1.344 . S
O839 Co831 2.055 1_556 S
O839 C843 1.253 1_556 S
H840 C836 0.931 . S
H841 C837 0.930 . S
O842 Co831 2.039 1_556 S
O842 C832 1.265 1_556 S
C843 O839 1.253 1_554 S
C843 O844 1.227 . S
O844 C843 1.227 . S
N845 Co831 2.140 . S
N845 C848 1.346 . S
N845 C849 1.345 . S
C846 C847 1.387 . S
C846 C850 1.391 . S
C847 C846 1.387 . S
C847 C848 1.369 . S
C847 H856 0.929 . S
C848 N845 1.346 . S
C848 C847 1.369 . S
C848 H851 0.928 . S
C849 N845 1.345 . S
C849 C850 1.371 . S
C849 H852 0.931 . S
C850 C846 1.391 . S
C850 C849 1.371 . S
C850 H857 0.930 . S
H851 C848 0.928 . S
H852 C849 0.931 . S
H853 C829 0.930 . S
H854 C826 0.930 . S
H855 C835 0.930 . S
H856 C847 0.929 . S
H857 C850 0.930 . S
C858 C859 1.351 . S
C858 N861 1.368 . S
C858 H863 0.931 . S
C859 C858 1.351 . S
C859 N860 1.373 . S
C859 H887 0.930 . S
N860 C859 1.373 . S
N860 C862 1.340 . S
N861 C858 1.368 . S
N861 C862 1.321 . S
N861 Co864 2.135 . S
C862 N860 1.340 . S
C862 N861 1.321 . S
C862 H886 0.930 . S
H863 C858 0.931 . S
Co864 N861 2.135 . S
Co864 N867 2.121 . S
Co864 O872 2.055 . S
Co864 O875 2.039 . S
Co864 N878 2.140 . S
C865 O866 1.227 . S
C865 O875 1.265 . S
O866 C865 1.227 . S
N867 Co864 2.121 . S
N867 C869 1.375 . S
N867 C870 1.313 . S
C868 C869 1.338 . S
C868 N871 1.377 . S
C868 H888 0.930 . S
C869 N867 1.375 . S
C869 C868 1.338 . S
C869 H873 0.931 . S
C870 N867 1.313 . S
C870 N871 1.344 . S
C870 H874 0.930 . S
N871 C868 1.377 . S
N871 C870 1.344 . S
O872 Co864 2.055 . S
O872 C876 1.253 . S
H873 C869 0.931 . S
H874 C870 0.930 . S
O875 Co864 2.039 . S
O875 C865 1.265 . S
C876 O872 1.253 . S
C876 O877 1.227 . S
O877 C876 1.227 . S
N878 Co864 2.140 . S
N878 C881 1.346 . S
N878 C882 1.345 . S
C879 C880 1.387 . S
C879 C883 1.391 . S
C880 C879 1.387 . S
C880 C881 1.369 . S
C880 H889 0.929 . S
C881 N878 1.346 . S
C881 C880 1.369 . S
C881 H884 0.928 . S
C882 N878 1.345 . S
C882 C883 1.371 . S
C882 H885 0.931 . S
C883 C879 1.391 . S
C883 C882 1.371 . S
C883 H890 0.930 . S
H884 C881 0.928 . S
H885 C882 0.931 . S
H886 C862 0.930 . S
H887 C859 0.930 . S
H888 C868 0.930 . S
H889 C880 0.929 . S
H890 C883 0.930 . S
C891 C892 1.351 . S
C891 N894 1.368 . S
C891 H896 0.931 . S
C892 C891 1.351 . S
C892 N893 1.373 . S
C892 H920 0.930 1_655 S
N893 C892 1.373 . S
N893 C895 1.340 . S
N894 C891 1.368 . S
N894 C895 1.321 . S
N894 Co897 2.135 . S
C895 N893 1.340 . S
C895 N894 1.321 . S
C895 H919 0.930 . S
H896 C891 0.931 . S
Co897 N894 2.135 . S
Co897 N900 2.121 . S
Co897 O905 2.055 . S
Co897 O908 2.039 . S
Co897 N911 2.140 . S
C898 O899 1.227 . S
C898 O908 1.265 . S
O899 C898 1.227 . S
N900 Co897 2.121 . S
N900 C902 1.375 . S
N900 C903 1.313 . S
C901 C902 1.338 . S
C901 N904 1.377 . S
C901 H921 0.930 . S
C902 N900 1.375 . S
C902 C901 1.338 . S
C902 H906 0.931 . S
C903 N900 1.313 . S
C903 N904 1.344 . S
C903 H907 0.930 . S
N904 C901 1.377 . S
N904 C903 1.344 . S
O905 Co897 2.055 . S
O905 C909 1.253 . S
H906 C902 0.931 . S
H907 C903 0.930 . S
O908 Co897 2.039 . S
O908 C898 1.265 . S
C909 O905 1.253 . S
C909 O910 1.227 . S
O910 C909 1.227 . S
N911 Co897 2.140 . S
N911 C914 1.346 . S
N911 C915 1.345 . S
C912 C913 1.387 . S
C912 C916 1.391 . S
C913 C912 1.387 . S
C913 C914 1.369 . S
C913 H922 0.929 . S
C914 N911 1.346 . S
C914 C913 1.369 . S
C914 H917 0.928 . S
C915 N911 1.345 . S
C915 C916 1.371 . S
C915 H918 0.931 . S
C916 C912 1.391 . S
C916 C915 1.371 . S
C916 H923 0.930 . S
H917 C914 0.928 . S
H918 C915 0.931 . S
H919 C895 0.930 . S
H920 C892 0.930 1_455 S
H921 C901 0.930 . S
H922 C913 0.929 . S
H923 C916 0.930 . S
C924 C925 1.351 . S
C924 N927 1.368 . S
C924 H929 0.931 . S
C925 C924 1.351 . S
C925 N926 1.373 . S
C925 H953 0.930 . S
N926 C925 1.373 . S
N926 C928 1.340 . S
N927 C924 1.368 . S
N927 C928 1.321 . S
N927 Co930 2.135 . S
C928 N926 1.340 . S
C928 N927 1.321 . S
C928 H952 0.930 . S
H929 C924 0.931 . S
Co930 N927 2.135 . S
Co930 N933 2.121 . S
Co930 O938 2.055 . S
Co930 O941 2.039 . S
Co930 N944 2.140 . S
C931 O932 1.227 . S
C931 O941 1.265 . S
O932 C931 1.227 . S
N933 Co930 2.121 . S
N933 C935 1.375 . S
N933 C936 1.313 . S
C934 C935 1.338 . S
C934 N937 1.377 . S
C934 H954 0.930 . S
C935 N933 1.375 . S
C935 C934 1.338 . S
C935 H939 0.931 . S
C936 N933 1.313 . S
C936 N937 1.344 . S
C936 H940 0.930 . S
N937 C934 1.377 . S
N937 C936 1.344 . S
O938 Co930 2.055 . S
O938 C942 1.253 . S
H939 C935 0.931 . S
H940 C936 0.930 . S
O941 Co930 2.039 . S
O941 C931 1.265 . S
C942 O938 1.253 . S
C942 O943 1.227 . S
O943 C942 1.227 . S
N944 Co930 2.140 . S
N944 C947 1.346 . S
N944 C948 1.345 . S
C945 C946 1.387 . S
C945 C949 1.391 . S
C946 C945 1.387 . S
C946 C947 1.369 . S
C946 H955 0.929 . S
C947 N944 1.346 . S
C947 C946 1.369 . S
C947 H950 0.928 . S
C948 N944 1.345 . S
C948 C949 1.371 . S
C948 H951 0.931 . S
C949 C945 1.391 . S
C949 C948 1.371 . S
C949 H956 0.930 . S
H950 C947 0.928 . S
H951 C948 0.931 . S
H952 C928 0.930 . S
H953 C925 0.930 . S
H954 C934 0.930 . S
H955 C946 0.929 . S
H956 C949 0.930 . S
C957 C958 1.351 . S
C957 N960 1.368 . S
C957 H962 0.931 . S
C958 C957 1.351 . S
C958 N959 1.373 . S
C958 H986 0.930 1_655 S
N959 C958 1.373 . S
N959 C961 1.340 . S
N960 C957 1.368 . S
N960 C961 1.321 . S
N960 Co963 2.135 . S
C961 N959 1.340 . S
C961 N960 1.321 . S
C961 H985 0.930 . S
H962 C957 0.931 . S
Co963 N960 2.135 . S
Co963 N966 2.121 . S
Co963 O971 2.055 1_556 S
Co963 O974 2.039 1_556 S
Co963 N977 2.140 . S
C964 O965 1.227 . S
C964 O974 1.265 1_556 S
O965 C964 1.227 . S
N966 Co963 2.121 . S
N966 C968 1.375 . S
N966 C969 1.313 1_556 S
C967 C968 1.342 . S
C967 N970 1.373 1_556 S
C967 H987 0.930 . S
C968 N966 1.375 . S
C968 C967 1.342 . S
C968 H972 0.931 . S
C969 N966 1.313 1_554 S
C969 N970 1.344 . S
C969 H973 0.930 . S
N970 C967 1.373 1_554 S
N970 C969 1.344 . S
O971 Co963 2.055 1_554 S
O971 C975 1.253 1_554 S
H972 C968 0.931 . S
H973 C969 0.930 . S
O974 Co963 2.039 1_554 S
O974 C964 1.265 1_554 S
C975 O971 1.253 1_556 S
C975 O976 1.227 . S
O976 C975 1.227 . S
N977 Co963 2.140 . S
N977 C980 1.346 . S
N977 C981 1.345 . S
C978 C979 1.387 . S
C978 C982 1.391 . S
C979 C978 1.387 . S
C979 C980 1.369 . S
C979 H988 0.929 . S
C980 N977 1.346 . S
C980 C979 1.369 . S
C980 H983 0.928 . S
C981 N977 1.345 . S
C981 C982 1.371 . S
C981 H984 0.931 . S
C982 C978 1.391 . S
C982 C981 1.371 . S
C982 H989 0.930 . S
H983 C980 0.928 . S
H984 C981 0.931 . S
H985 C961 0.930 . S
H986 C958 0.930 1_455 S
H987 C967 0.930 . S
H988 C979 0.929 . S
H989 C982 0.930 . S
C990 C991 1.351 . S
C990 N993 1.368 . S
C990 H995 0.931 . S
C991 C990 1.351 . S
C991 N992 1.373 . S
C991 H1019 0.930 . S
N992 C991 1.373 . S
N992 C994 1.340 . S
N993 C990 1.368 . S
N993 C994 1.321 . S
N993 Co996 2.135 . S
C994 N992 1.340 . S
C994 N993 1.321 . S
C994 H1018 0.930 . S
H995 C990 0.931 . S
Co996 N993 2.135 . S
Co996 N999 2.121 . S
Co996 O1004 2.055 . S
Co996 O1007 2.039 . S
Co996 N1010 2.140 . S
C997 O998 1.227 . S
C997 O1007 1.265 . S
O998 C997 1.227 . S
N999 Co996 2.121 . S
N999 C1001 1.375 . S
N999 C1002 1.313 . S
C1000 C1001 1.338 . S
C1000 N1003 1.377 . S
C1000 H1020 0.930 . S
C1001 N999 1.375 . S
C1001 C1000 1.338 . S
C1001 H1005 0.931 . S
C1002 N999 1.313 . S
C1002 N1003 1.344 . S
C1002 H1006 0.930 . S
N1003 C1000 1.377 . S
N1003 C1002 1.344 . S
O1004 Co996 2.055 . S
O1004 C1008 1.253 . S
H1005 C1001 0.931 . S
H1006 C1002 0.930 . S
O1007 Co996 2.039 . S
O1007 C997 1.265 . S
C1008 O1004 1.253 . S
C1008 O1009 1.227 . S
O1009 C1008 1.227 . S
N1010 Co996 2.140 . S
N1010 C1013 1.346 . S
N1010 C1014 1.345 . S
C1011 C1012 1.387 . S
C1011 C1015 1.391 . S
C1012 C1011 1.387 . S
C1012 C1013 1.369 . S
C1012 H1021 0.929 . S
C1013 N1010 1.346 . S
C1013 C1012 1.369 . S
C1013 H1016 0.928 . S
C1014 N1010 1.345 . S
C1014 C1015 1.371 . S
C1014 H1017 0.931 . S
C1015 C1011 1.391 . S
C1015 C1014 1.371 . S
C1015 H1022 0.930 . S
H1016 C1013 0.928 . S
H1017 C1014 0.931 . S
H1018 C994 0.930 . S
H1019 C991 0.930 . S
H1020 C1000 0.930 . S
H1021 C1012 0.929 . S
H1022 C1015 0.930 . S
C1023 C1024 1.351 . S
C1023 N1026 1.368 . S
C1023 H1028 0.931 . S
C1024 C1023 1.351 . S
C1024 N1025 1.373 . S
C1024 H1052 0.930 . S
N1025 C1024 1.373 . S
N1025 C1027 1.340 . S
N1026 C1023 1.368 . S
N1026 C1027 1.321 . S
N1026 Co1029 2.135 . S
C1027 N1025 1.340 . S
C1027 N1026 1.321 . S
C1027 H1051 0.930 . S
H1028 C1023 0.931 . S
Co1029 N1026 2.135 . S
Co1029 N1032 2.121 . S
Co1029 O1037 2.055 . S
Co1029 O1040 2.039 . S
Co1029 N1043 2.140 . S
C1030 O1031 1.227 . S
C1030 O1040 1.265 . S
O1031 C1030 1.227 . S
N1032 Co1029 2.121 . S
N1032 C1034 1.375 . S
N1032 C1035 1.313 . S
C1033 C1034 1.338 . S
C1033 N1036 1.377 . S
C1033 H1053 0.930 . S
C1034 N1032 1.375 . S
C1034 C1033 1.338 . S
C1034 H1038 0.931 . S
C1035 N1032 1.313 . S
C1035 N1036 1.344 . S
C1035 H1039 0.930 . S
N1036 C1033 1.377 . S
N1036 C1035 1.344 . S
O1037 Co1029 2.055 . S
O1037 C1041 1.253 . S
H1038 C1034 0.931 . S
H1039 C1035 0.930 . S
O1040 Co1029 2.039 . S
O1040 C1030 1.265 . S
C1041 O1037 1.253 . S
C1041 O1042 1.227 . S
O1042 C1041 1.227 . S
N1043 Co1029 2.140 . S
N1043 C1046 1.346 . S
N1043 C1047 1.345 . S
C1044 C1045 1.387 . S
C1044 C1048 1.391 . S
C1045 C1044 1.387 . S
C1045 C1046 1.369 . S
C1045 H1054 0.929 . S
C1046 N1043 1.346 . S
C1046 C1045 1.369 . S
C1046 H1049 0.928 . S
C1047 N1043 1.345 . S
C1047 C1048 1.371 . S
C1047 H1050 0.931 . S
C1048 C1044 1.391 . S
C1048 C1047 1.371 . S
C1048 H1055 0.930 . S
H1049 C1046 0.928 . S
H1050 C1047 0.931 . S
H1051 C1027 0.930 . S
H1052 C1024 0.930 . S
H1053 C1033 0.930 . S
H1054 C1045 0.929 . S
H1055 C1048 0.930 . S
C1056 C1057 1.351 . S
C1056 N1059 1.368 . S
C1056 H1061 0.931 . S
C1057 C1056 1.351 . S
C1057 N1058 1.373 . S
C1057 H1085 0.930 . S
N1058 C1057 1.373 . S
N1058 C1060 1.340 . S
N1059 C1056 1.368 . S
N1059 C1060 1.321 . S
N1059 Co1062 2.135 . S
C1060 N1058 1.340 . S
C1060 N1059 1.321 . S
C1060 H1084 0.930 . S
H1061 C1056 0.931 . S
Co1062 N1059 2.135 . S
Co1062 N1065 2.121 . S
Co1062 O1070 2.055 . S
Co1062 O1073 2.039 . S
Co1062 N1076 2.140 . S
C1063 O1064 1.227 . S
C1063 O1073 1.265 . S
O1064 C1063 1.227 . S
N1065 Co1062 2.121 . S
N1065 C1067 1.375 . S
N1065 C1068 1.313 . S
C1066 C1067 1.338 . S
C1066 N1069 1.377 . S
C1066 H1086 0.930 . S
C1067 N1065 1.375 . S
C1067 C1066 1.338 . S
C1067 H1071 0.931 . S
C1068 N1065 1.313 . S
C1068 N1069 1.344 . S
C1068 H1072 0.930 . S
N1069 C1066 1.377 . S
N1069 C1068 1.344 . S
O1070 Co1062 2.055 . S
O1070 C1074 1.253 . S
H1071 C1067 0.931 . S
H1072 C1068 0.930 . S
O1073 Co1062 2.039 . S
O1073 C1063 1.265 . S
C1074 O1070 1.253 . S
C1074 O1075 1.227 . S
O1075 C1074 1.227 . S
N1076 Co1062 2.140 . S
N1076 C1079 1.346 . S
N1076 C1080 1.345 . S
C1077 C1078 1.387 . S
C1077 C1081 1.391 . S
C1078 C1077 1.387 . S
C1078 C1079 1.369 . S
C1078 H1087 0.929 . S
C1079 N1076 1.346 . S
C1079 C1078 1.369 . S
C1079 H1082 0.928 . S
C1080 N1076 1.345 . S
C1080 C1081 1.371 . S
C1080 H1083 0.931 . S
C1081 C1077 1.391 . S
C1081 C1080 1.371 . S
C1081 H1088 0.930 . S
H1082 C1079 0.928 . S
H1083 C1080 0.931 . S
H1084 C1060 0.930 . S
H1085 C1057 0.930 . S
H1086 C1066 0.930 . S
H1087 C1078 0.929 . S
H1088 C1081 0.930 . S
C1089 C1090 1.351 . S
C1089 N1092 1.368 . S
C1089 H1094 0.931 . S
C1090 C1089 1.351 . S
C1090 N1091 1.373 . S
C1090 H1118 0.930 1_556 S
N1091 C1090 1.373 . S
N1091 C1093 1.340 . S
N1092 C1089 1.368 . S
N1092 C1093 1.321 . S
N1092 Co1095 2.135 . S
C1093 N1091 1.340 . S
C1093 N1092 1.321 . S
C1093 H1117 0.930 . S
H1094 C1089 0.931 . S
Co1095 N1092 2.135 . S
Co1095 N1098 2.121 . S
Co1095 O1103 2.055 . S
Co1095 O1106 2.039 . S
Co1095 N1109 2.140 . S
C1096 O1097 1.227 . S
C1096 O1106 1.265 . S
O1097 C1096 1.227 . S
N1098 Co1095 2.121 . S
N1098 C1100 1.375 . S
N1098 C1101 1.313 . S
C1099 C1100 1.338 . S
C1099 N1102 1.377 . S
C1099 H1119 0.930 . S
C1100 N1098 1.375 . S
C1100 C1099 1.338 . S
C1100 H1104 0.931 . S
C1101 N1098 1.313 . S
C1101 N1102 1.344 . S
C1101 H1105 0.930 . S
N1102 C1099 1.377 . S
N1102 C1101 1.344 . S
O1103 Co1095 2.055 . S
O1103 C1107 1.253 . S
H1104 C1100 0.931 . S
H1105 C1101 0.930 . S
O1106 Co1095 2.039 . S
O1106 C1096 1.265 . S
C1107 O1103 1.253 . S
C1107 O1108 1.227 . S
O1108 C1107 1.227 . S
N1109 Co1095 2.140 . S
N1109 C1112 1.346 . S
N1109 C1113 1.345 . S
C1110 C1111 1.387 . S
C1110 C1114 1.391 . S
C1111 C1110 1.387 . S
C1111 C1112 1.369 . S
C1111 H1120 0.929 . S
C1112 N1109 1.346 . S
C1112 C1111 1.369 . S
C1112 H1115 0.928 . S
C1113 N1109 1.345 . S
C1113 C1114 1.371 . S
C1113 H1116 0.931 . S
C1114 C1110 1.391 . S
C1114 C1113 1.371 . S
C1114 H1121 0.930 . S
H1115 C1112 0.928 . S
H1116 C1113 0.931 . S
H1117 C1093 0.930 . S
H1118 C1090 0.930 1_554 S
H1119 C1099 0.930 . S
H1120 C1111 0.929 . S
H1121 C1114 0.930 . S
C1122 C1123 1.351 . S
C1122 N1125 1.368 . S
C1122 H1127 0.931 . S
C1123 C1122 1.351 . S
C1123 N1124 1.373 . S
C1123 H1151 0.930 . S
N1124 C1123 1.373 . S
N1124 C1126 1.340 . S
N1125 C1122 1.368 . S
N1125 C1126 1.321 . S
N1125 Co1128 2.135 . S
C1126 N1124 1.340 . S
C1126 N1125 1.321 . S
C1126 H1150 0.930 . S
H1127 C1122 0.931 . S
Co1128 N1125 2.135 . S
Co1128 N1131 2.121 . S
Co1128 O1136 2.055 . S
Co1128 O1139 2.039 . S
Co1128 N1142 2.140 . S
C1129 O1130 1.227 . S
C1129 O1139 1.265 . S
O1130 C1129 1.227 . S
N1131 Co1128 2.121 . S
N1131 C1133 1.375 . S
N1131 C1134 1.313 . S
C1132 C1133 1.338 . S
C1132 N1135 1.377 . S
C1132 H1152 0.930 . S
C1133 N1131 1.375 . S
C1133 C1132 1.338 . S
C1133 H1137 0.931 . S
C1134 N1131 1.313 . S
C1134 N1135 1.344 . S
C1134 H1138 0.930 . S
N1135 C1132 1.377 . S
N1135 C1134 1.344 . S
O1136 Co1128 2.055 . S
O1136 C1140 1.253 . S
H1137 C1133 0.931 . S
H1138 C1134 0.930 . S
O1139 Co1128 2.039 . S
O1139 C1129 1.265 . S
C1140 O1136 1.253 . S
C1140 O1141 1.227 . S
O1141 C1140 1.227 . S
N1142 Co1128 2.140 . S
N1142 C1145 1.346 . S
N1142 C1146 1.345 . S
C1143 C1144 1.387 . S
C1143 C1147 1.391 . S
C1144 C1143 1.387 . S
C1144 C1145 1.369 . S
C1144 H1153 0.929 . S
C1145 N1142 1.346 . S
C1145 C1144 1.369 . S
C1145 H1148 0.928 . S
C1146 N1142 1.345 . S
C1146 C1147 1.371 . S
C1146 H1149 0.931 . S
C1147 C1143 1.391 . S
C1147 C1146 1.371 . S
C1147 H1154 0.930 . S
H1148 C1145 0.928 . S
H1149 C1146 0.931 . S
H1150 C1126 0.930 . S
H1151 C1123 0.930 . S
H1152 C1132 0.930 . S
H1153 C1144 0.929 . S
H1154 C1147 0.930 . S
C1155 C1156 1.351 . S
C1155 N1158 1.368 . S
C1155 H1160 0.931 . S
C1156 C1155 1.351 . S
C1156 N1157 1.373 . S
C1156 H1184 0.930 . S
N1157 C1156 1.373 . S
N1157 C1159 1.340 . S
N1158 C1155 1.368 . S
N1158 C1159 1.321 . S
N1158 Co1161 2.135 . S
C1159 N1157 1.340 . S
C1159 N1158 1.321 . S
C1159 H1183 0.930 . S
H1160 C1155 0.931 . S
Co1161 N1158 2.135 . S
Co1161 N1164 2.121 . S
Co1161 O1169 2.055 . S
Co1161 O1172 2.039 . S
Co1161 N1175 2.140 . S
C1162 O1163 1.227 . S
C1162 O1172 1.265 . S
O1163 C1162 1.227 . S
N1164 Co1161 2.121 . S
N1164 C1166 1.375 . S
N1164 C1167 1.313 . S
C1165 C1166 1.338 . S
C1165 N1168 1.377 . S
C1165 H1185 0.930 . S
C1166 N1164 1.375 . S
C1166 C1165 1.338 . S
C1166 H1170 0.931 . S
C1167 N1164 1.313 . S
C1167 N1168 1.344 . S
C1167 H1171 0.930 . S
N1168 C1165 1.377 . S
N1168 C1167 1.344 . S
O1169 Co1161 2.055 . S
O1169 C1173 1.253 . S
H1170 C1166 0.931 . S
H1171 C1167 0.930 . S
O1172 Co1161 2.039 . S
O1172 C1162 1.265 . S
C1173 O1169 1.253 . S
C1173 O1174 1.227 . S
O1174 C1173 1.227 . S
N1175 Co1161 2.140 . S
N1175 C1178 1.346 . S
N1175 C1179 1.345 . S
C1176 C1177 1.387 . S
C1176 C1180 1.391 . S
C1177 C1176 1.387 . S
C1177 C1178 1.369 . S
C1177 H1186 0.929 . S
C1178 N1175 1.346 . S
C1178 C1177 1.369 . S
C1178 H1181 0.928 . S
C1179 N1175 1.345 . S
C1179 C1180 1.371 . S
C1179 H1182 0.931 . S
C1180 C1176 1.391 . S
C1180 C1179 1.371 . S
C1180 H1187 0.930 . S
H1181 C1178 0.928 . S
H1182 C1179 0.931 . S
H1183 C1159 0.930 . S
H1184 C1156 0.930 . S
H1185 C1165 0.930 . S
H1186 C1177 0.929 . S
H1187 C1180 0.930 . S
C1188 C1189 1.351 . S
C1188 N1191 1.368 . S
C1188 H1193 0.931 . S
C1189 C1188 1.351 . S
C1189 N1190 1.373 . S
C1189 H1217 0.930 . S
N1190 C1189 1.373 . S
N1190 C1192 1.340 . S
N1191 C1188 1.368 . S
N1191 C1192 1.321 . S
N1191 Co1194 2.135 . S
C1192 N1190 1.340 . S
C1192 N1191 1.321 . S
C1192 H1216 0.930 . S
H1193 C1188 0.931 . S
Co1194 N1191 2.135 . S
Co1194 N1197 2.121 . S
Co1194 O1202 2.055 . S
Co1194 O1205 2.039 . S
Co1194 N1208 2.140 . S
C1195 O1196 1.227 . S
C1195 O1205 1.265 . S
O1196 C1195 1.227 . S
N1197 Co1194 2.121 . S
N1197 C1199 1.375 . S
N1197 C1200 1.313 . S
C1198 C1199 1.338 . S
C1198 N1201 1.377 . S
C1198 H1218 0.930 . S
C1199 N1197 1.375 . S
C1199 C1198 1.338 . S
C1199 H1203 0.931 . S
C1200 N1197 1.313 . S
C1200 N1201 1.344 . S
C1200 H1204 0.930 . S
N1201 C1198 1.377 . S
N1201 C1200 1.344 . S
O1202 Co1194 2.055 . S
O1202 C1206 1.253 . S
H1203 C1199 0.931 . S
H1204 C1200 0.930 . S
O1205 Co1194 2.039 . S
O1205 C1195 1.265 . S
C1206 O1202 1.253 . S
C1206 O1207 1.227 . S
O1207 C1206 1.227 . S
N1208 Co1194 2.140 . S
N1208 C1211 1.346 . S
N1208 C1212 1.345 . S
C1209 C1210 1.387 . S
C1209 C1213 1.391 . S
C1210 C1209 1.387 . S
C1210 C1211 1.369 . S
C1210 H1219 0.929 . S
C1211 N1208 1.346 . S
C1211 C1210 1.369 . S
C1211 H1214 0.928 . S
C1212 N1208 1.345 . S
C1212 C1213 1.371 . S
C1212 H1215 0.931 . S
C1213 C1209 1.391 . S
C1213 C1212 1.371 . S
C1213 H1220 0.930 . S
H1214 C1211 0.928 . S
H1215 C1212 0.931 . S
H1216 C1192 0.930 . S
H1217 C1189 0.930 . S
H1218 C1198 0.930 . S
H1219 C1210 0.929 . S
H1220 C1213 0.930 . S
C1221 C1222 1.351 . S
C1221 N1224 1.368 . S
C1221 H1226 0.931 . S
C1222 C1221 1.351 . S
C1222 N1223 1.373 . S
C1222 H1250 0.930 1_554 S
N1223 C1222 1.373 . S
N1223 C1225 1.340 . S
N1224 C1221 1.368 . S
N1224 C1225 1.321 . S
N1224 Co1227 2.135 . S
C1225 N1223 1.340 . S
C1225 N1224 1.321 . S
C1225 H1249 0.930 . S
H1226 C1221 0.931 . S
Co1227 N1224 2.135 . S
Co1227 N1230 2.121 . S
Co1227 O1235 2.055 . S
Co1227 O1238 2.039 . S
Co1227 N1241 2.140 . S
C1228 O1229 1.227 . S
C1228 O1238 1.265 . S
O1229 C1228 1.227 . S
N1230 Co1227 2.121 . S
N1230 C1232 1.375 . S
N1230 C1233 1.313 . S
C1231 C1232 1.338 . S
C1231 N1234 1.377 . S
C1231 H1251 0.930 . S
C1232 N1230 1.375 . S
C1232 C1231 1.338 . S
C1232 H1236 0.931 . S
C1233 N1230 1.313 . S
C1233 N1234 1.344 . S
C1233 H1237 0.930 . S
N1234 C1231 1.377 . S
N1234 C1233 1.344 . S
O1235 Co1227 2.055 . S
O1235 C1239 1.253 . S
H1236 C1232 0.931 . S
H1237 C1233 0.930 . S
O1238 Co1227 2.039 . S
O1238 C1228 1.265 . S
C1239 O1235 1.253 . S
C1239 O1240 1.227 . S
O1240 C1239 1.227 . S
N1241 Co1227 2.140 . S
N1241 C1244 1.346 . S
N1241 C1245 1.345 . S
C1242 C1243 1.387 . S
C1242 C1246 1.391 . S
C1243 C1242 1.387 . S
C1243 C1244 1.369 . S
C1243 H1252 0.929 . S
C1244 N1241 1.346 . S
C1244 C1243 1.369 . S
C1244 H1247 0.928 . S
C1245 N1241 1.345 . S
C1245 C1246 1.371 . S
C1245 H1248 0.931 . S
C1246 C1242 1.391 . S
C1246 C1245 1.371 . S
C1246 H1253 0.930 . S
H1247 C1244 0.928 . S
H1248 C1245 0.931 . S
H1249 C1225 0.930 . S
H1250 C1222 0.930 1_556 S
H1251 C1231 0.930 . S
H1252 C1243 0.929 . S
H1253 C1246 0.930 . S
C1254 C1255 1.351 . S
C1254 N1257 1.368 . S
C1254 H1259 0.931 . S
C1255 C1254 1.351 . S
C1255 N1256 1.373 . S
C1255 H1283 0.930 . S
N1256 C1255 1.373 . S
N1256 C1258 1.340 . S
N1257 C1254 1.368 . S
N1257 C1258 1.321 . S
N1257 Co1260 2.135 . S
C1258 N1256 1.340 . S
C1258 N1257 1.321 . S
C1258 H1282 0.930 . S
H1259 C1254 0.931 . S
Co1260 N1257 2.135 . S
Co1260 N1263 2.121 . S
Co1260 O1268 2.055 . S
Co1260 O1271 2.039 . S
Co1260 N1274 2.140 . S
C1261 O1262 1.227 . S
C1261 O1271 1.265 . S
O1262 C1261 1.227 . S
N1263 Co1260 2.121 . S
N1263 C1265 1.375 . S
N1263 C1266 1.313 . S
C1264 C1265 1.338 . S
C1264 N1267 1.377 . S
C1264 H1284 0.930 . S
C1265 N1263 1.375 . S
C1265 C1264 1.338 . S
C1265 H1269 0.931 . S
C1266 N1263 1.313 . S
C1266 N1267 1.344 . S
C1266 H1270 0.930 . S
N1267 C1264 1.377 . S
N1267 C1266 1.344 . S
O1268 Co1260 2.055 . S
O1268 C1272 1.253 . S
H1269 C1265 0.931 . S
H1270 C1266 0.930 . S
O1271 Co1260 2.039 . S
O1271 C1261 1.265 . S
C1272 O1268 1.253 . S
C1272 O1273 1.227 . S
O1273 C1272 1.227 . S
N1274 Co1260 2.140 . S
N1274 C1277 1.346 . S
N1274 C1278 1.345 . S
C1275 C1276 1.387 . S
C1275 C1279 1.391 . S
C1276 C1275 1.387 . S
C1276 C1277 1.369 . S
C1276 H1285 0.929 . S
C1277 N1274 1.346 . S
C1277 C1276 1.369 . S
C1277 H1280 0.928 . S
C1278 N1274 1.345 . S
C1278 C1279 1.371 . S
C1278 H1281 0.931 . S
C1279 C1275 1.391 . S
C1279 C1278 1.371 . S
C1279 H1286 0.930 . S
H1280 C1277 0.928 . S
H1281 C1278 0.931 . S
H1282 C1258 0.930 . S
H1283 C1255 0.930 . S
H1284 C1264 0.930 . S
H1285 C1276 0.929 . S
H1286 C1279 0.930 . S
C1287 C1288 1.351 . S
C1287 N1290 1.368 . S
C1287 H1292 0.931 . S
C1288 C1287 1.351 . S
C1288 N1289 1.373 . S
C1288 H1316 0.930 . S
N1289 C1288 1.373 . S
N1289 C1291 1.340 . S
N1290 C1287 1.368 . S
N1290 C1291 1.321 . S
N1290 Co1293 2.135 . S
C1291 N1289 1.340 . S
C1291 N1290 1.321 . S
C1291 H1315 0.930 . S
H1292 C1287 0.931 . S
Co1293 N1290 2.135 . S
Co1293 N1296 2.121 . S
Co1293 O1301 2.055 . S
Co1293 O1304 2.039 . S
Co1293 N1307 2.140 . S
C1294 O1295 1.227 . S
C1294 O1304 1.265 . S
O1295 C1294 1.227 . S
N1296 Co1293 2.121 . S
N1296 C1298 1.375 . S
N1296 C1299 1.313 . S
C1297 C1298 1.338 . S
C1297 N1300 1.377 . S
C1297 H1317 0.930 . S
C1298 N1296 1.375 . S
C1298 C1297 1.338 . S
C1298 H1302 0.931 . S
C1299 N1296 1.313 . S
C1299 N1300 1.344 . S
C1299 H1303 0.930 . S
N1300 C1297 1.377 . S
N1300 C1299 1.344 . S
O1301 Co1293 2.055 . S
O1301 C1305 1.253 . S
H1302 C1298 0.931 . S
H1303 C1299 0.930 . S
O1304 Co1293 2.039 . S
O1304 C1294 1.265 . S
C1305 O1301 1.253 . S
C1305 O1306 1.227 . S
O1306 C1305 1.227 . S
N1307 Co1293 2.140 . S
N1307 C1310 1.346 . S
N1307 C1311 1.345 . S
C1308 C1309 1.387 . S
C1308 C1312 1.391 . S
C1309 C1308 1.387 . S
C1309 C1310 1.369 . S
C1309 H1318 0.929 . S
C1310 N1307 1.346 . S
C1310 C1309 1.369 . S
C1310 H1313 0.928 . S
C1311 N1307 1.345 . S
C1311 C1312 1.371 . S
C1311 H1314 0.931 . S
C1312 C1308 1.391 . S
C1312 C1311 1.371 . S
C1312 H1319 0.930 . S
H1313 C1310 0.928 . S
H1314 C1311 0.931 . S
H1315 C1291 0.930 . S
H1316 C1288 0.930 . S
H1317 C1297 0.930 . S
H1318 C1309 0.929 . S
H1319 C1312 0.930 . S
C1320 C1321 1.351 . S
C1320 N1323 1.368 . S
C1320 H1325 0.931 . S
C1321 C1320 1.351 . S
C1321 N1322 1.373 . S
C1321 H1349 0.930 . S
N1322 C1321 1.373 . S
N1322 C1324 1.340 . S
N1323 C1320 1.368 . S
N1323 C1324 1.321 . S
N1323 Co1326 2.135 . S
C1324 N1322 1.340 . S
C1324 N1323 1.321 . S
C1324 H1348 0.930 . S
H1325 C1320 0.931 . S
Co1326 N1323 2.135 . S
Co1326 N1329 2.121 . S
Co1326 O1334 2.055 . S
Co1326 O1337 2.039 . S
Co1326 N1340 2.140 . S
C1327 O1328 1.227 . S
C1327 O1337 1.265 . S
O1328 C1327 1.227 . S
N1329 Co1326 2.121 . S
N1329 C1331 1.375 . S
N1329 C1332 1.313 . S
C1330 C1331 1.338 . S
C1330 N1333 1.377 . S
C1330 H1350 0.930 . S
C1331 N1329 1.375 . S
C1331 C1330 1.338 . S
C1331 H1335 0.931 . S
C1332 N1329 1.313 . S
C1332 N1333 1.344 . S
C1332 H1336 0.930 . S
N1333 C1330 1.377 . S
N1333 C1332 1.344 . S
O1334 Co1326 2.055 . S
O1334 C1338 1.253 . S
H1335 C1331 0.931 . S
H1336 C1332 0.930 . S
O1337 Co1326 2.039 . S
O1337 C1327 1.265 . S
C1338 O1334 1.253 . S
C1338 O1339 1.227 . S
O1339 C1338 1.227 . S
N1340 Co1326 2.140 . S
N1340 C1343 1.346 . S
N1340 C1344 1.345 . S
C1341 C1342 1.387 . S
C1341 C1345 1.391 . S
C1342 C1341 1.387 . S
C1342 C1343 1.369 . S
C1342 H1351 0.929 . S
C1343 N1340 1.346 . S
C1343 C1342 1.369 . S
C1343 H1346 0.928 . S
C1344 N1340 1.345 . S
C1344 C1345 1.371 . S
C1344 H1347 0.931 . S
C1345 C1341 1.391 . S
C1345 C1344 1.371 . S
C1345 H1352 0.930 . S
H1346 C1343 0.928 . S
H1347 C1344 0.931 . S
H1348 C1324 0.930 . S
H1349 C1321 0.930 . S
H1350 C1330 0.930 . S
H1351 C1342 0.929 . S
H1352 C1345 0.930 . S
C1353 C1354 1.351 . S
C1353 N1356 1.368 . S
C1353 H1358 0.931 . S
C1354 C1353 1.351 . S
C1354 N1355 1.373 . S
C1354 H1382 0.930 . S
N1355 C1354 1.373 . S
N1355 C1357 1.340 . S
N1356 C1353 1.368 . S
N1356 C1357 1.321 . S
N1356 Co1359 2.135 . S
C1357 N1355 1.340 . S
C1357 N1356 1.321 . S
C1357 H1381 0.930 . S
H1358 C1353 0.931 . S
Co1359 N1356 2.135 . S
Co1359 N1362 2.121 . S
Co1359 O1367 2.055 . S
Co1359 O1370 2.039 . S
Co1359 N1373 2.140 . S
C1360 O1361 1.227 . S
C1360 O1370 1.265 . S
O1361 C1360 1.227 . S
N1362 Co1359 2.121 . S
N1362 C1364 1.375 . S
N1362 C1365 1.313 . S
C1363 C1364 1.338 . S
C1363 N1366 1.377 . S
C1363 H1383 0.930 . S
C1364 N1362 1.375 . S
C1364 C1363 1.338 . S
C1364 H1368 0.931 . S
C1365 N1362 1.313 . S
C1365 N1366 1.344 . S
C1365 H1369 0.930 . S
N1366 C1363 1.377 . S
N1366 C1365 1.344 . S
O1367 Co1359 2.055 . S
O1367 C1371 1.253 . S
H1368 C1364 0.931 . S
H1369 C1365 0.930 . S
O1370 Co1359 2.039 . S
O1370 C1360 1.265 . S
C1371 O1367 1.253 . S
C1371 O1372 1.227 . S
O1372 C1371 1.227 . S
N1373 Co1359 2.140 . S
N1373 C1376 1.346 . S
N1373 C1377 1.345 . S
C1374 C1375 1.387 . S
C1374 C1378 1.391 . S
C1375 C1374 1.387 . S
C1375 C1376 1.369 . S
C1375 H1384 0.929 . S
C1376 N1373 1.346 . S
C1376 C1375 1.369 . S
C1376 H1379 0.928 . S
C1377 N1373 1.345 . S
C1377 C1378 1.371 . S
C1377 H1380 0.931 . S
C1378 C1374 1.391 . S
C1378 C1377 1.371 . S
C1378 H1385 0.930 . S
H1379 C1376 0.928 . S
H1380 C1377 0.931 . S
H1381 C1357 0.930 . S
H1382 C1354 0.930 . S
H1383 C1363 0.930 . S
H1384 C1375 0.929 . S
H1385 C1378 0.930 . S
C1386 C1387 1.351 . S
C1386 N1389 1.368 . S
C1386 H1391 0.931 . S
C1387 C1386 1.351 . S
C1387 N1388 1.373 . S
C1387 H1415 0.930 1_565 S
N1388 C1387 1.373 . S
N1388 C1390 1.340 . S
N1389 C1386 1.368 . S
N1389 C1390 1.321 . S
N1389 Co1392 2.135 . S
C1390 N1388 1.340 . S
C1390 N1389 1.321 . S
C1390 H1414 0.930 . S
H1391 C1386 0.931 . S
Co1392 N1389 2.135 . S
Co1392 N1395 2.121 . S
Co1392 O1400 2.055 . S
Co1392 O1403 2.039 . S
Co1392 N1406 2.140 . S
C1393 O1394 1.227 . S
C1393 O1403 1.265 . S
O1394 C1393 1.227 . S
N1395 Co1392 2.121 . S
N1395 C1397 1.375 . S
N1395 C1398 1.313 . S
C1396 C1397 1.338 . S
C1396 N1399 1.377 . S
C1396 H1416 0.930 . S
C1397 N1395 1.375 . S
C1397 C1396 1.338 . S
C1397 H1401 0.931 . S
C1398 N1395 1.313 . S
C1398 N1399 1.344 . S
C1398 H1402 0.930 . S
N1399 C1396 1.377 . S
N1399 C1398 1.344 . S
O1400 Co1392 2.055 . S
O1400 C1404 1.253 . S
H1401 C1397 0.931 . S
H1402 C1398 0.930 . S
O1403 Co1392 2.039 . S
O1403 C1393 1.265 . S
C1404 O1400 1.253 . S
C1404 O1405 1.227 . S
O1405 C1404 1.227 . S
N1406 Co1392 2.140 . S
N1406 C1409 1.346 . S
N1406 C1410 1.345 . S
C1407 C1408 1.387 . S
C1407 C1411 1.391 . S
C1408 C1407 1.387 . S
C1408 C1409 1.369 . S
C1408 H1417 0.929 . S
C1409 N1406 1.346 . S
C1409 C1408 1.369 . S
C1409 H1412 0.928 . S
C1410 N1406 1.345 . S
C1410 C1411 1.371 . S
C1410 H1413 0.931 . S
C1411 C1407 1.391 . S
C1411 C1410 1.371 . S
C1411 H1418 0.930 . S
H1412 C1409 0.928 . S
H1413 C1410 0.931 . S
H1414 C1390 0.930 . S
H1415 C1387 0.930 1_545 S
H1416 C1396 0.930 . S
H1417 C1408 0.929 . S
H1418 C1411 0.930 . S
C1419 C1420 1.351 . S
C1419 N1422 1.368 . S
C1419 H1424 0.931 . S
C1420 C1419 1.351 . S
C1420 N1421 1.373 . S
C1420 H1448 0.930 . S
N1421 C1420 1.373 . S
N1421 C1423 1.340 . S
N1422 C1419 1.368 . S
N1422 C1423 1.321 . S
N1422 Co1425 2.135 . S
C1423 N1421 1.340 . S
C1423 N1422 1.321 . S
C1423 H1447 0.930 . S
H1424 C1419 0.931 . S
Co1425 N1422 2.135 . S
Co1425 N1428 2.121 . S
Co1425 O1433 2.055 . S
Co1425 O1436 2.039 . S
Co1425 N1439 2.140 . S
C1426 O1427 1.227 . S
C1426 O1436 1.265 . S
O1427 C1426 1.227 . S
N1428 Co1425 2.121 . S
N1428 C1430 1.375 . S
N1428 C1431 1.313 . S
C1429 C1430 1.338 . S
C1429 N1432 1.377 . S
C1429 H1449 0.930 . S
C1430 N1428 1.375 . S
C1430 C1429 1.338 . S
C1430 H1434 0.931 . S
C1431 N1428 1.313 . S
C1431 N1432 1.344 . S
C1431 H1435 0.930 . S
N1432 C1429 1.377 . S
N1432 C1431 1.344 . S
O1433 Co1425 2.055 . S
O1433 C1437 1.253 . S
H1434 C1430 0.931 . S
H1435 C1431 0.930 . S
O1436 Co1425 2.039 . S
O1436 C1426 1.265 . S
C1437 O1433 1.253 . S
C1437 O1438 1.227 . S
O1438 C1437 1.227 . S
N1439 Co1425 2.140 . S
N1439 C1442 1.346 . S
N1439 C1443 1.345 . S
C1440 C1441 1.387 . S
C1440 C1444 1.391 . S
C1441 C1440 1.387 . S
C1441 C1442 1.369 . S
C1441 H1450 0.929 . S
C1442 N1439 1.346 . S
C1442 C1441 1.369 . S
C1442 H1445 0.928 . S
C1443 N1439 1.345 . S
C1443 C1444 1.371 . S
C1443 H1446 0.931 . S
C1444 C1440 1.391 . S
C1444 C1443 1.371 . S
C1444 H1451 0.930 . S
H1445 C1442 0.928 . S
H1446 C1443 0.931 . S
H1447 C1423 0.930 . S
H1448 C1420 0.930 . S
H1449 C1429 0.930 . S
H1450 C1441 0.929 . S
H1451 C1444 0.930 . S
C1452 C1453 1.351 . S
C1452 N1455 1.368 . S
C1452 H1457 0.931 . S
C1453 C1452 1.351 . S
C1453 N1454 1.373 . S
C1453 H1481 0.930 . S
N1454 C1453 1.373 . S
N1454 C1456 1.340 . S
N1455 C1452 1.368 . S
N1455 C1456 1.321 . S
N1455 Co1458 2.135 . S
C1456 N1454 1.340 . S
C1456 N1455 1.321 . S
C1456 H1480 0.930 . S
H1457 C1452 0.931 . S
Co1458 N1455 2.135 . S
Co1458 N1461 2.121 . S
Co1458 O1466 2.055 . S
Co1458 O1469 2.039 . S
Co1458 N1472 2.140 . S
C1459 O1460 1.227 . S
C1459 O1469 1.265 . S
O1460 C1459 1.227 . S
N1461 Co1458 2.121 . S
N1461 C1463 1.375 . S
N1461 C1464 1.313 . S
C1462 C1463 1.338 . S
C1462 N1465 1.377 . S
C1462 H1482 0.930 . S
C1463 N1461 1.375 . S
C1463 C1462 1.338 . S
C1463 H1467 0.931 . S
C1464 N1461 1.313 . S
C1464 N1465 1.344 . S
C1464 H1468 0.930 . S
N1465 C1462 1.377 . S
N1465 C1464 1.344 . S
O1466 Co1458 2.055 . S
O1466 C1470 1.253 . S
H1467 C1463 0.931 . S
H1468 C1464 0.930 . S
O1469 Co1458 2.039 . S
O1469 C1459 1.265 . S
C1470 O1466 1.253 . S
C1470 O1471 1.227 . S
O1471 C1470 1.227 . S
N1472 Co1458 2.140 . S
N1472 C1475 1.346 . S
N1472 C1476 1.345 . S
C1473 C1474 1.387 . S
C1473 C1477 1.391 . S
C1474 C1473 1.387 . S
C1474 C1475 1.369 . S
C1474 H1483 0.929 . S
C1475 N1472 1.346 . S
C1475 C1474 1.369 . S
C1475 H1478 0.928 . S
C1476 N1472 1.345 . S
C1476 C1477 1.371 . S
C1476 H1479 0.931 . S
C1477 C1473 1.391 . S
C1477 C1476 1.371 . S
C1477 H1484 0.930 . S
H1478 C1475 0.928 . S
H1479 C1476 0.931 . S
H1480 C1456 0.930 . S
H1481 C1453 0.930 . S
H1482 C1462 0.930 . S
H1483 C1474 0.929 . S
H1484 C1477 0.930 . S
C1485 C1486 1.351 . S
C1485 N1488 1.368 . S
C1485 H1490 0.931 . S
C1486 C1485 1.351 . S
C1486 N1487 1.373 . S
C1486 H1514 0.930 . S
N1487 C1486 1.373 . S
N1487 C1489 1.340 . S
N1488 C1485 1.368 . S
N1488 C1489 1.321 . S
N1488 Co1491 2.135 . S
C1489 N1487 1.340 . S
C1489 N1488 1.321 . S
C1489 H1513 0.930 . S
H1490 C1485 0.931 . S
Co1491 N1488 2.135 . S
Co1491 N1494 2.121 . S
Co1491 O1499 2.055 . S
Co1491 O1502 2.039 . S
Co1491 N1505 2.140 . S
C1492 O1493 1.227 . S
C1492 O1502 1.265 . S
O1493 C1492 1.227 . S
N1494 Co1491 2.121 . S
N1494 C1496 1.375 . S
N1494 C1497 1.313 . S
C1495 C1496 1.338 . S
C1495 N1498 1.377 . S
C1495 H1515 0.930 . S
C1496 N1494 1.375 . S
C1496 C1495 1.338 . S
C1496 H1500 0.931 . S
C1497 N1494 1.313 . S
C1497 N1498 1.344 . S
C1497 H1501 0.930 . S
N1498 C1495 1.377 . S
N1498 C1497 1.344 . S
O1499 Co1491 2.055 . S
O1499 C1503 1.253 . S
H1500 C1496 0.931 . S
H1501 C1497 0.930 . S
O1502 Co1491 2.039 . S
O1502 C1492 1.265 . S
C1503 O1499 1.253 . S
C1503 O1504 1.227 . S
O1504 C1503 1.227 . S
N1505 Co1491 2.140 . S
N1505 C1508 1.346 . S
N1505 C1509 1.345 . S
C1506 C1507 1.387 . S
C1506 C1510 1.391 . S
C1507 C1506 1.387 . S
C1507 C1508 1.369 . S
C1507 H1516 0.929 . S
C1508 N1505 1.346 . S
C1508 C1507 1.369 . S
C1508 H1511 0.928 . S
C1509 N1505 1.345 . S
C1509 C1510 1.371 . S
C1509 H1512 0.931 . S
C1510 C1506 1.391 . S
C1510 C1509 1.371 . S
C1510 H1517 0.930 . S
H1511 C1508 0.928 . S
H1512 C1509 0.931 . S
H1513 C1489 0.930 . S
H1514 C1486 0.930 . S
H1515 C1495 0.930 . S
H1516 C1507 0.929 . S
H1517 C1510 0.930 . S
C1518 C1519 1.351 . S
C1518 N1521 1.368 . S
C1518 H1523 0.931 . S
C1519 C1518 1.351 . S
C1519 N1520 1.373 . S
C1519 H1547 0.930 1_545 S
N1520 C1519 1.373 . S
N1520 C1522 1.340 . S
N1521 C1518 1.368 . S
N1521 C1522 1.321 . S
N1521 Co1524 2.135 . S
C1522 N1520 1.340 . S
C1522 N1521 1.321 . S
C1522 H1546 0.930 . S
H1523 C1518 0.931 . S
Co1524 N1521 2.135 . S
Co1524 N1527 2.121 . S
Co1524 O1532 2.055 . S
Co1524 O1535 2.039 . S
Co1524 N1538 2.140 . S
C1525 O1526 1.227 . S
C1525 O1535 1.265 . S
O1526 C1525 1.227 . S
N1527 Co1524 2.121 . S
N1527 C1529 1.375 . S
N1527 C1530 1.313 . S
C1528 C1529 1.338 . S
C1528 N1531 1.377 . S
C1528 H1548 0.930 . S
C1529 N1527 1.375 . S
C1529 C1528 1.338 . S
C1529 H1533 0.931 . S
C1530 N1527 1.313 . S
C1530 N1531 1.344 . S
C1530 H1534 0.930 . S
N1531 C1528 1.377 . S
N1531 C1530 1.344 . S
O1532 Co1524 2.055 . S
O1532 C1536 1.253 . S
H1533 C1529 0.931 . S
H1534 C1530 0.930 . S
O1535 Co1524 2.039 . S
O1535 C1525 1.265 . S
C1536 O1532 1.253 . S
C1536 O1537 1.227 . S
O1537 C1536 1.227 . S
N1538 Co1524 2.140 . S
N1538 C1541 1.346 . S
N1538 C1542 1.345 . S
C1539 C1540 1.387 . S
C1539 C1543 1.391 . S
C1540 C1539 1.387 . S
C1540 C1541 1.369 . S
C1540 H1549 0.929 . S
C1541 N1538 1.346 . S
C1541 C1540 1.369 . S
C1541 H1544 0.928 . S
C1542 N1538 1.345 . S
C1542 C1543 1.371 . S
C1542 H1545 0.931 . S
C1543 C1539 1.391 . S
C1543 C1542 1.371 . S
C1543 H1550 0.930 . S
H1544 C1541 0.928 . S
H1545 C1542 0.931 . S
H1546 C1522 0.930 . S
H1547 C1519 0.930 1_565 S
H1548 C1528 0.930 . S
H1549 C1540 0.929 . S
H1550 C1543 0.930 . S
C1551 C1552 1.351 . S
C1551 N1554 1.368 . S
C1551 H1556 0.931 . S
C1552 C1551 1.351 . S
C1552 N1553 1.373 . S
C1552 H1580 0.930 1_565 S
N1553 C1552 1.373 . S
N1553 C1555 1.340 . S
N1554 C1551 1.368 . S
N1554 C1555 1.321 . S
N1554 Co1557 2.135 . S
C1555 N1553 1.340 . S
C1555 N1554 1.321 . S
C1555 H1579 0.930 . S
H1556 C1551 0.931 . S
Co1557 N1554 2.135 . S
Co1557 N1560 2.121 . S
Co1557 O1565 2.055 1_655 S
Co1557 O1568 2.039 1_655 S
Co1557 N1571 2.140 . S
C1558 O1559 1.227 . S
C1558 O1568 1.265 1_655 S
O1559 C1558 1.227 . S
N1560 Co1557 2.121 . S
N1560 C1562 1.375 . S
N1560 C1563 1.313 1_655 S
C1561 C1562 1.342 . S
C1561 N1564 1.373 1_655 S
C1561 H1581 0.930 . S
C1562 N1560 1.375 . S
C1562 C1561 1.342 . S
C1562 H1566 0.931 . S
C1563 N1560 1.313 1_455 S
C1563 N1564 1.344 . S
C1563 H1567 0.930 . S
N1564 C1561 1.373 1_455 S
N1564 C1563 1.344 . S
O1565 Co1557 2.055 1_455 S
O1565 C1569 1.253 1_455 S
H1566 C1562 0.931 . S
H1567 C1563 0.930 . S
O1568 Co1557 2.039 1_455 S
O1568 C1558 1.265 1_455 S
C1569 O1565 1.253 1_655 S
C1569 O1570 1.227 . S
O1570 C1569 1.227 . S
N1571 Co1557 2.140 . S
N1571 C1574 1.346 . S
N1571 C1575 1.345 . S
C1572 C1573 1.387 . S
C1572 C1576 1.391 . S
C1573 C1572 1.387 . S
C1573 C1574 1.369 . S
C1573 H1582 0.929 . S
C1574 N1571 1.346 . S
C1574 C1573 1.369 . S
C1574 H1577 0.928 . S
C1575 N1571 1.345 . S
C1575 C1576 1.371 . S
C1575 H1578 0.931 . S
C1576 C1572 1.391 . S
C1576 C1575 1.371 . S
C1576 H1583 0.930 . S
H1577 C1574 0.928 . S
H1578 C1575 0.931 . S
H1579 C1555 0.930 . S
H1580 C1552 0.930 1_545 S
H1581 C1561 0.930 . S
H1582 C1573 0.929 . S
H1583 C1576 0.930 . S
C1584 C1585 1.369 . S
C1584 C1586 1.419 . S
C1584 H1588 0.930 . S
C1585 C1584 1.369 . S
C1585 C1594 1.429 . S
C1586 C1584 1.419 . S
C1586 C1587 1.363 . S
C1586 H1589 0.929 . S
C1587 C1586 1.363 . S
C1587 C1593 1.428 . S
H1588 C1584 0.930 . S
H1589 C1586 0.929 . S
S1590 N1591 1.613 . S
S1590 N1592 1.610 . S
N1591 S1590 1.613 . S
N1591 C1594 1.350 . S
N1592 S1590 1.610 . S
N1592 C1593 1.351 . S
C1593 C1587 1.428 . S
C1593 N1592 1.351 . S
C1593 C1594 1.434 . S
C1594 C1585 1.429 . S
C1594 N1591 1.350 . S
C1594 C1593 1.434 . S
C1595 C1596 1.369 . S
C1595 C1597 1.419 . S
C1595 H1599 0.930 . S
C1596 C1595 1.369 . S
C1596 C1605 1.429 . S
C1597 C1595 1.419 . S
C1597 C1598 1.363 . S
C1597 H1600 0.929 . S
C1598 C1597 1.363 . S
C1598 C1604 1.428 . S
H1599 C1595 0.930 . S
H1600 C1597 0.929 . S
S1601 N1602 1.613 . S
S1601 N1603 1.610 . S
N1602 S1601 1.613 . S
N1602 C1605 1.350 . S
N1603 S1601 1.610 . S
N1603 C1604 1.351 . S
C1604 C1598 1.428 . S
C1604 N1603 1.351 . S
C1604 C1605 1.434 . S
C1605 C1596 1.429 . S
C1605 N1602 1.350 . S
C1605 C1604 1.434 . S
C1606 C1607 1.369 . S
C1606 C1608 1.419 . S
C1606 H1610 0.930 . S
C1607 C1606 1.369 . S
C1607 C1616 1.429 . S
C1608 C1606 1.419 . S
C1608 C1609 1.363 . S
C1608 H1611 0.929 . S
C1609 C1608 1.363 . S
C1609 C1615 1.428 . S
H1610 C1606 0.930 . S
H1611 C1608 0.929 . S
S1612 N1613 1.613 . S
S1612 N1614 1.610 . S
N1613 S1612 1.613 . S
N1613 C1616 1.350 . S
N1614 S1612 1.610 . S
N1614 C1615 1.351 . S
C1615 C1609 1.428 . S
C1615 N1614 1.351 . S
C1615 C1616 1.434 . S
C1616 C1607 1.429 . S
C1616 N1613 1.350 . S
C1616 C1615 1.434 . S
C1617 C1618 1.369 . S
C1617 C1619 1.419 . S
C1617 H1621 0.930 1_556 S
C1618 C1617 1.369 . S
C1618 C1627 1.429 . S
C1619 C1617 1.419 . S
C1619 C1620 1.363 . S
C1619 H1622 0.929 . S
C1620 C1619 1.363 . S
C1620 C1626 1.428 . S
H1621 C1617 0.930 1_554 S
H1622 C1619 0.929 . S
S1623 N1624 1.613 . S
S1623 N1625 1.610 . S
N1624 S1623 1.613 . S
N1624 C1627 1.350 . S
N1625 S1623 1.610 . S
N1625 C1626 1.351 . S
C1626 C1620 1.428 . S
C1626 N1625 1.351 . S
C1626 C1627 1.434 . S
C1627 C1618 1.429 . S
C1627 N1624 1.350 . S
C1627 C1626 1.434 . S
C1628 C1629 1.369 . S
C1628 C1630 1.419 . S
C1628 H1632 0.930 . S
C1629 C1628 1.369 . S
C1629 C1638 1.429 . S
C1630 C1628 1.419 . S
C1630 C1631 1.363 . S
C1630 H1633 0.929 1_455 S
C1631 C1630 1.363 . S
C1631 C1637 1.428 . S
H1632 C1628 0.930 . S
H1633 C1630 0.929 1_655 S
S1634 N1635 1.613 . S
S1634 N1636 1.610 . S
N1635 S1634 1.613 . S
N1635 C1638 1.350 . S
N1636 S1634 1.610 . S
N1636 C1637 1.351 . S
C1637 C1631 1.428 . S
C1637 N1636 1.351 . S
C1637 C1638 1.434 . S
C1638 C1629 1.429 . S
C1638 N1635 1.350 . S
C1638 C1637 1.434 . S
C1639 C1640 1.369 . S
C1639 C1641 1.419 . S
C1639 H1643 0.930 . S
C1640 C1639 1.369 . S
C1640 C1649 1.429 . S
C1641 C1639 1.419 . S
C1641 C1642 1.363 . S
C1641 H1644 0.929 . S
C1642 C1641 1.363 . S
C1642 C1648 1.428 . S
H1643 C1639 0.930 . S
H1644 C1641 0.929 . S
S1645 N1646 1.613 . S
S1645 N1647 1.610 . S
N1646 S1645 1.613 . S
N1646 C1649 1.350 . S
N1647 S1645 1.610 . S
N1647 C1648 1.351 . S
C1648 C1642 1.428 . S
C1648 N1647 1.351 . S
C1648 C1649 1.434 . S
C1649 C1640 1.429 . S
C1649 N1646 1.350 . S
C1649 C1648 1.434 . S
C1650 C1651 1.369 . S
C1650 C1652 1.419 . S
C1650 H1654 0.930 . S
C1651 C1650 1.369 . S
C1651 C1660 1.429 . S
C1652 C1650 1.419 . S
C1652 C1653 1.363 . S
C1652 H1655 0.929 . S
C1653 C1652 1.363 . S
C1653 C1659 1.428 . S
H1654 C1650 0.930 . S
H1655 C1652 0.929 . S
S1656 N1657 1.613 . S
S1656 N1658 1.610 . S
N1657 S1656 1.613 . S
N1657 C1660 1.350 . S
N1658 S1656 1.610 . S
N1658 C1659 1.351 . S
C1659 C1653 1.428 . S
C1659 N1658 1.351 . S
C1659 C1660 1.434 . S
C1660 C1651 1.429 . S
C1660 N1657 1.350 . S
C1660 C1659 1.434 . S
C1661 C1662 1.369 . S
C1661 C1663 1.419 . S
C1661 H1665 0.930 . S
C1662 C1661 1.369 . S
C1662 C1671 1.429 . S
C1663 C1661 1.419 . S
C1663 C1664 1.363 . S
C1663 H1666 0.929 . S
C1664 C1663 1.363 . S
C1664 C1670 1.428 . S
H1665 C1661 0.930 . S
H1666 C1663 0.929 . S
S1667 N1668 1.613 . S
S1667 N1669 1.610 1_556 S
N1668 S1667 1.613 . S
N1668 C1671 1.350 1_556 S
N1669 S1667 1.610 1_554 S
N1669 C1670 1.351 . S
C1670 C1664 1.428 . S
C1670 N1669 1.351 . S
C1670 C1671 1.434 . S
C1671 C1662 1.429 . S
C1671 N1668 1.350 1_554 S
C1671 C1670 1.434 . S
C1672 C1673 1.369 . S
C1672 C1674 1.419 . S
C1672 H1676 0.930 . S
C1673 C1672 1.369 . S
C1673 C1682 1.429 . S
C1674 C1672 1.419 . S
C1674 C1675 1.363 . S
C1674 H1677 0.929 . S
C1675 C1674 1.363 . S
C1675 C1681 1.428 . S
H1676 C1672 0.930 . S
H1677 C1674 0.929 . S
S1678 N1679 1.613 . S
S1678 N1680 1.610 . S
N1679 S1678 1.613 . S
N1679 C1682 1.350 . S
N1680 S1678 1.610 . S
N1680 C1681 1.351 . S
C1681 C1675 1.428 . S
C1681 N1680 1.351 . S
C1681 C1682 1.434 . S
C1682 C1673 1.429 . S
C1682 N1679 1.350 . S
C1682 C1681 1.434 . S
C1683 C1684 1.369 . S
C1683 C1685 1.419 . S
C1683 H1687 0.930 . S
C1684 C1683 1.369 . S
C1684 C1693 1.429 . S
C1685 C1683 1.419 . S
C1685 C1686 1.363 . S
C1685 H1688 0.929 . S
C1686 C1685 1.363 . S
C1686 C1692 1.428 . S
H1687 C1683 0.930 . S
H1688 C1685 0.929 . S
S1689 N1690 1.613 . S
S1689 N1691 1.610 . S
N1690 S1689 1.613 . S
N1690 C1693 1.350 . S
N1691 S1689 1.610 . S
N1691 C1692 1.351 . S
C1692 C1686 1.428 . S
C1692 N1691 1.351 . S
C1692 C1693 1.434 . S
C1693 C1684 1.429 . S
C1693 N1690 1.350 . S
C1693 C1692 1.434 . S
C1694 C1695 1.369 . S
C1694 C1696 1.419 . S
C1694 H1698 0.930 . S
C1695 C1694 1.369 . S
C1695 C1704 1.429 . S
C1696 C1694 1.419 . S
C1696 C1697 1.363 . S
C1696 H1699 0.929 . S
C1697 C1696 1.363 . S
C1697 C1703 1.428 . S
H1698 C1694 0.930 . S
H1699 C1696 0.929 . S
S1700 N1701 1.613 . S
S1700 N1702 1.610 . S
N1701 S1700 1.613 . S
N1701 C1704 1.350 . S
N1702 S1700 1.610 . S
N1702 C1703 1.351 . S
C1703 C1697 1.428 . S
C1703 N1702 1.351 . S
C1703 C1704 1.434 . S
C1704 C1695 1.429 . S
C1704 N1701 1.350 . S
C1704 C1703 1.434 . S
C1705 C1706 1.369 . S
C1705 C1707 1.419 . S
C1705 H1709 0.930 . S
C1706 C1705 1.369 . S
C1706 C1715 1.429 . S
C1707 C1705 1.419 . S
C1707 C1708 1.363 . S
C1707 H1710 0.929 . S
C1708 C1707 1.363 . S
C1708 C1714 1.428 . S
H1709 C1705 0.930 . S
H1710 C1707 0.929 . S
S1711 N1712 1.613 . S
S1711 N1713 1.610 . S
N1712 S1711 1.613 . S
N1712 C1715 1.350 . S
N1713 S1711 1.610 . S
N1713 C1714 1.351 . S
C1714 C1708 1.428 . S
C1714 N1713 1.351 . S
C1714 C1715 1.434 . S
C1715 C1706 1.429 . S
C1715 N1712 1.350 . S
C1715 C1714 1.434 . S
C1716 C1717 1.369 . S
C1716 C1718 1.419 . S
C1716 H1720 0.930 1_556 S
C1717 C1716 1.369 . S
C1717 C1726 1.429 . S
C1718 C1716 1.419 . S
C1718 C1719 1.363 . S
C1718 H1721 0.929 . S
C1719 C1718 1.363 . S
C1719 C1725 1.428 . S
H1720 C1716 0.930 1_554 S
H1721 C1718 0.929 . S
S1722 N1723 1.613 . S
S1722 N1724 1.610 . S
N1723 S1722 1.613 . S
N1723 C1726 1.350 . S
N1724 S1722 1.610 . S
N1724 C1725 1.351 . S
C1725 C1719 1.428 . S
C1725 N1724 1.351 . S
C1725 C1726 1.434 . S
C1726 C1717 1.429 . S
C1726 N1723 1.350 . S
C1726 C1725 1.434 . S
C1727 C1728 1.369 . S
C1727 C1729 1.419 . S
C1727 H1731 0.930 . S
C1728 C1727 1.369 . S
C1728 C1737 1.429 . S
C1729 C1727 1.419 . S
C1729 C1730 1.363 . S
C1729 H1732 0.929 . S
C1730 C1729 1.363 . S
C1730 C1736 1.428 . S
H1731 C1727 0.930 . S
H1732 C1729 0.929 . S
S1733 N1734 1.613 . S
S1733 N1735 1.610 1_455 S
N1734 S1733 1.613 . S
N1734 C1737 1.350 1_455 S
N1735 S1733 1.610 1_655 S
N1735 C1736 1.351 . S
C1736 C1730 1.428 . S
C1736 N1735 1.351 . S
C1736 C1737 1.434 . S
C1737 C1728 1.429 . S
C1737 N1734 1.350 1_655 S
C1737 C1736 1.434 . S
C1738 C1739 1.369 . S
C1738 C1740 1.419 . S
C1738 H1742 0.930 . S
C1739 C1738 1.369 . S
C1739 C1748 1.429 . S
C1740 C1738 1.419 . S
C1740 C1741 1.363 . S
C1740 H1743 0.929 . S
C1741 C1740 1.363 . S
C1741 C1747 1.428 . S
H1742 C1738 0.930 . S
H1743 C1740 0.929 . S
S1744 N1745 1.613 . S
S1744 N1746 1.610 . S
N1745 S1744 1.613 . S
N1745 C1748 1.350 . S
N1746 S1744 1.610 . S
N1746 C1747 1.351 . S
C1747 C1741 1.428 . S
C1747 N1746 1.351 . S
C1747 C1748 1.434 . S
C1748 C1739 1.429 . S
C1748 N1745 1.350 . S
C1748 C1747 1.434 . S
C1749 C1750 1.369 . S
C1749 C1751 1.419 . S
C1749 H1753 0.930 . S
C1750 C1749 1.369 . S
C1750 C1759 1.429 . S
C1751 C1749 1.419 . S
C1751 C1752 1.363 . S
C1751 H1754 0.929 . S
C1752 C1751 1.363 . S
C1752 C1758 1.428 . S
H1753 C1749 0.930 . S
H1754 C1751 0.929 . S
S1755 N1756 1.613 . S
S1755 N1757 1.610 . S
N1756 S1755 1.613 . S
N1756 C1759 1.350 . S
N1757 S1755 1.610 . S
N1757 C1758 1.351 . S
C1758 C1752 1.428 . S
C1758 N1757 1.351 . S
C1758 C1759 1.434 . S
C1759 C1750 1.429 . S
C1759 N1756 1.350 . S
C1759 C1758 1.434 . S
C1760 C1761 1.369 . S
C1760 C1762 1.419 . S
C1760 H1764 0.930 . S
C1761 C1760 1.369 . S
C1761 C1770 1.429 . S
C1762 C1760 1.419 . S
C1762 C1763 1.363 . S
C1762 H1765 0.929 . S
C1763 C1762 1.363 . S
C1763 C1769 1.428 . S
H1764 C1760 0.930 . S
H1765 C1762 0.929 . S
S1766 N1767 1.613 . S
S1766 N1768 1.610 . S
N1767 S1766 1.613 . S
N1767 C1770 1.350 . S
N1768 S1766 1.610 . S
N1768 C1769 1.351 . S
C1769 C1763 1.428 . S
C1769 N1768 1.351 . S
C1769 C1770 1.434 . S
C1770 C1761 1.429 . S
C1770 N1767 1.350 . S
C1770 C1769 1.434 . S
C1771 C1772 1.369 . S
C1771 C1773 1.419 . S
C1771 H1775 0.930 . S
C1772 C1771 1.369 . S
C1772 C1781 1.429 . S
C1773 C1771 1.419 . S
C1773 C1774 1.363 . S
C1773 H1776 0.929 . S
C1774 C1773 1.363 . S
C1774 C1780 1.428 . S
H1775 C1771 0.930 . S
H1776 C1773 0.929 . S
S1777 N1778 1.613 . S
S1777 N1779 1.610 . S
N1778 S1777 1.613 . S
N1778 C1781 1.350 . S
N1779 S1777 1.610 . S
N1779 C1780 1.351 . S
C1780 C1774 1.428 . S
C1780 N1779 1.351 . S
C1780 C1781 1.434 . S
C1781 C1772 1.429 . S
C1781 N1778 1.350 . S
C1781 C1780 1.434 . S
C1782 C1783 1.369 . S
C1782 C1784 1.419 . S
C1782 H1786 0.930 . S
C1783 C1782 1.369 . S
C1783 C1792 1.429 . S
C1784 C1782 1.419 . S
C1784 C1785 1.363 . S
C1784 H1787 0.929 . S
C1785 C1784 1.363 . S
C1785 C1791 1.428 . S
H1786 C1782 0.930 . S
H1787 C1784 0.929 . S
S1788 N1789 1.613 . S
S1788 N1790 1.610 . S
N1789 S1788 1.613 . S
N1789 C1792 1.350 . S
N1790 S1788 1.610 . S
N1790 C1791 1.351 . S
C1791 C1785 1.428 . S
C1791 N1790 1.351 . S
C1791 C1792 1.434 . S
C1792 C1783 1.429 . S
C1792 N1789 1.350 . S
C1792 C1791 1.434 . S
C1793 C1794 1.369 . S
C1793 C1795 1.419 . S
C1793 H1797 0.930 . S
C1794 C1793 1.369 . S
C1794 C1803 1.429 . S
C1795 C1793 1.419 . S
C1795 C1796 1.363 . S
C1795 H1798 0.929 . S
C1796 C1795 1.363 . S
C1796 C1802 1.428 . S
H1797 C1793 0.930 . S
H1798 C1795 0.929 . S
S1799 N1800 1.613 . S
S1799 N1801 1.610 . S
N1800 S1799 1.613 . S
N1800 C1803 1.350 . S
N1801 S1799 1.610 . S
N1801 C1802 1.351 . S
C1802 C1796 1.428 . S
C1802 N1801 1.351 . S
C1802 C1803 1.434 . S
C1803 C1794 1.429 . S
C1803 N1800 1.350 . S
C1803 C1802 1.434 . S
C1804 C1805 1.369 . S
C1804 C1806 1.419 . S
C1804 H1808 0.930 . S
C1805 C1804 1.369 . S
C1805 C1814 1.429 . S
C1806 C1804 1.419 . S
C1806 C1807 1.363 . S
C1806 H1809 0.929 . S
C1807 C1806 1.363 . S
C1807 C1813 1.428 . S
H1808 C1804 0.930 . S
H1809 C1806 0.929 . S
S1810 N1811 1.613 . S
S1810 N1812 1.610 . S
N1811 S1810 1.613 . S
N1811 C1814 1.350 . S
N1812 S1810 1.610 . S
N1812 C1813 1.351 . S
C1813 C1807 1.428 . S
C1813 N1812 1.351 . S
C1813 C1814 1.434 . S
C1814 C1805 1.429 . S
C1814 N1811 1.350 . S
C1814 C1813 1.434 . S
C1815 C1816 1.369 . S
C1815 C1817 1.419 . S
C1815 H1819 0.930 . S
C1816 C1815 1.369 . S
C1816 C1825 1.429 . S
C1817 C1815 1.419 . S
C1817 C1818 1.363 . S
C1817 H1820 0.929 . S
C1818 C1817 1.363 . S
C1818 C1824 1.428 . S
H1819 C1815 0.930 . S
H1820 C1817 0.929 . S
S1821 N1822 1.613 . S
S1821 N1823 1.610 . S
N1822 S1821 1.613 . S
N1822 C1825 1.350 . S
N1823 S1821 1.610 . S
N1823 C1824 1.351 . S
C1824 C1818 1.428 . S
C1824 N1823 1.351 . S
C1824 C1825 1.434 . S
C1825 C1816 1.429 . S
C1825 N1822 1.350 . S
C1825 C1824 1.434 . S
C1826 C1827 1.369 . S
C1826 C1828 1.419 . S
C1826 H1830 0.930 . S
C1827 C1826 1.369 . S
C1827 C1836 1.429 . S
C1828 C1826 1.419 . S
C1828 C1829 1.363 . S
C1828 H1831 0.929 . S
C1829 C1828 1.363 . S
C1829 C1835 1.428 . S
H1830 C1826 0.930 . S
H1831 C1828 0.929 . S
S1832 N1833 1.613 . S
S1832 N1834 1.610 . S
N1833 S1832 1.613 . S
N1833 C1836 1.350 . S
N1834 S1832 1.610 . S
N1834 C1835 1.351 . S
C1835 C1829 1.428 . S
C1835 N1834 1.351 . S
C1835 C1836 1.434 . S
C1836 C1827 1.429 . S
C1836 N1833 1.350 . S
C1836 C1835 1.434 . S
C1837 C1838 1.369 . S
C1837 C1839 1.419 . S
C1837 H1841 0.930 . S
C1838 C1837 1.369 . S
C1838 C1847 1.429 . S
C1839 C1837 1.419 . S
C1839 C1840 1.363 . S
C1839 H1842 0.929 . S
C1840 C1839 1.363 . S
C1840 C1846 1.428 . S
H1841 C1837 0.930 . S
H1842 C1839 0.929 . S
S1843 N1844 1.613 . S
S1843 N1845 1.610 . S
N1844 S1843 1.613 . S
N1844 C1847 1.350 . S
N1845 S1843 1.610 . S
N1845 C1846 1.351 . S
C1846 C1840 1.428 . S
C1846 N1845 1.351 . S
C1846 C1847 1.434 . S
C1847 C1838 1.429 . S
C1847 N1844 1.350 . S
C1847 C1846 1.434 . S
C1848 C1849 1.369 . S
C1848 C1850 1.419 . S
C1848 H1852 0.930 . S
C1849 C1848 1.369 . S
C1849 C1858 1.429 . S
C1850 C1848 1.419 . S
C1850 C1851 1.363 . S
C1850 H1853 0.929 . S
C1851 C1850 1.363 . S
C1851 C1857 1.428 . S
H1852 C1848 0.930 . S
H1853 C1850 0.929 . S
S1854 N1855 1.613 . S
S1854 N1856 1.610 . S
N1855 S1854 1.613 . S
N1855 C1858 1.350 . S
N1856 S1854 1.610 . S
N1856 C1857 1.351 . S
C1857 C1851 1.428 . S
C1857 N1856 1.351 . S
C1857 C1858 1.434 . S
C1858 C1849 1.429 . S
C1858 N1855 1.350 . S
C1858 C1857 1.434 . S
C1859 C1860 1.369 . S
C1859 C1861 1.419 . S
C1859 H1863 0.930 1_455 S
C1860 C1859 1.369 . S
C1860 C1869 1.429 . S
C1861 C1859 1.419 . S
C1861 C1862 1.363 . S
C1861 H1864 0.935 . S
C1862 C1861 1.363 . S
C1862 C1868 1.428 . S
H1863 C1859 0.930 1_655 S
H1864 C1861 0.935 . S
S1865 N1866 1.613 . S
S1865 N1867 1.610 . S
N1866 S1865 1.613 . S
N1866 C1869 1.350 . S
N1867 S1865 1.610 . S
N1867 C1868 1.351 . S
C1868 C1862 1.428 . S
C1868 N1867 1.351 . S
C1868 C1869 1.434 . S
C1869 C1860 1.429 . S
C1869 N1866 1.350 . S
C1869 C1868 1.434 . S
C1870 C1871 1.369 . S
C1870 C1872 1.419 . S
C1870 H1874 0.930 . S
C1871 C1870 1.369 . S
C1871 C1880 1.429 . S
C1872 C1870 1.419 . S
C1872 C1873 1.363 . S
C1872 H1875 0.929 . S
C1873 C1872 1.363 . S
C1873 C1879 1.428 . S
H1874 C1870 0.930 . S
H1875 C1872 0.929 . S
S1876 N1877 1.613 . S
S1876 N1878 1.610 . S
N1877 S1876 1.613 . S
N1877 C1880 1.350 . S
N1878 S1876 1.610 . S
N1878 C1879 1.351 . S
C1879 C1873 1.428 . S
C1879 N1878 1.351 . S
C1879 C1880 1.434 . S
C1880 C1871 1.429 . S
C1880 N1877 1.350 . S
C1880 C1879 1.434 . S
C1881 C1882 1.369 . S
C1881 C1883 1.419 . S
C1881 H1885 0.930 . S
C1882 C1881 1.369 . S
C1882 C1891 1.429 . S
C1883 C1881 1.419 . S
C1883 C1884 1.363 . S
C1883 H1886 0.929 . S
C1884 C1883 1.363 . S
C1884 C1890 1.428 . S
H1885 C1881 0.930 . S
H1886 C1883 0.929 . S
S1887 N1888 1.613 . S
S1887 N1889 1.610 . S
N1888 S1887 1.613 . S
N1888 C1891 1.350 . S
N1889 S1887 1.610 . S
N1889 C1890 1.351 . S
C1890 C1884 1.428 . S
C1890 N1889 1.351 . S
C1890 C1891 1.434 . S
C1891 C1882 1.429 . S
C1891 N1888 1.350 . S
C1891 C1890 1.434 . S
C1892 C1893 1.369 . S
C1892 C1894 1.419 . S
C1892 H1896 0.930 . S
C1893 C1892 1.369 . S
C1893 C1902 1.429 . S
C1894 C1892 1.419 . S
C1894 C1895 1.363 . S
C1894 H1897 0.929 . S
C1895 C1894 1.363 . S
C1895 C1901 1.428 . S
H1896 C1892 0.930 . S
H1897 C1894 0.929 . S
S1898 N1899 1.613 . S
S1898 N1900 1.610 . S
N1899 S1898 1.613 . S
N1899 C1902 1.350 . S
N1900 S1898 1.610 . S
N1900 C1901 1.351 . S
C1901 C1895 1.428 . S
C1901 N1900 1.351 . S
C1901 C1902 1.434 . S
C1902 C1893 1.429 . S
C1902 N1899 1.350 . S
C1902 C1901 1.434 . S
C1903 C1904 1.369 . S
C1903 C1905 1.419 . S
C1903 H1907 0.930 . S
C1904 C1903 1.369 . S
C1904 C1913 1.429 . S
C1905 C1903 1.419 . S
C1905 C1906 1.363 . S
C1905 H1908 0.929 . S
C1906 C1905 1.363 . S
C1906 C1912 1.428 . S
H1907 C1903 0.930 . S
H1908 C1905 0.929 . S
S1909 N1910 1.613 . S
S1909 N1911 1.610 . S
N1910 S1909 1.613 . S
N1910 C1913 1.350 . S
N1911 S1909 1.610 . S
N1911 C1912 1.351 . S
C1912 C1906 1.428 . S
C1912 N1911 1.351 . S
C1912 C1913 1.434 . S
C1913 C1904 1.429 . S
C1913 N1910 1.350 . S
C1913 C1912 1.434 . S
C1914 C1915 1.369 . S
C1914 C1916 1.419 . S
C1914 H1918 0.930 . S
C1915 C1914 1.369 . S
C1915 C1924 1.429 . S
C1916 C1914 1.419 . S
C1916 C1917 1.363 . S
C1916 H1919 0.929 . S
C1917 C1916 1.363 . S
C1917 C1923 1.428 . S
H1918 C1914 0.930 . S
H1919 C1916 0.929 . S
S1920 N1921 1.613 . S
S1920 N1922 1.610 . S
N1921 S1920 1.613 . S
N1921 C1924 1.350 . S
N1922 S1920 1.610 . S
N1922 C1923 1.351 . S
C1923 C1917 1.428 . S
C1923 N1922 1.351 . S
C1923 C1924 1.434 . S
C1924 C1915 1.429 . S
C1924 N1921 1.350 . S
C1924 C1923 1.434 . S
C1925 C1926 1.369 1_655 S
C1925 C1927 1.419 . S
C1925 H1929 0.930 . S
C1926 C1925 1.369 1_455 S
C1926 C1935 1.429 . S
C1927 C1925 1.419 . S
C1927 C1928 1.363 1_655 S
C1927 H1930 0.929 . S
C1928 C1927 1.363 1_455 S
C1928 C1934 1.428 . S
H1929 C1925 0.930 . S
H1930 C1927 0.929 . S
S1931 N1932 1.613 . S
S1931 N1933 1.610 . S
N1932 S1931 1.613 . S
N1932 C1935 1.350 . S
N1933 S1931 1.610 . S
N1933 C1934 1.351 . S
C1934 C1928 1.428 . S
C1934 N1933 1.351 . S
C1934 C1935 1.434 . S
C1935 C1926 1.429 . S
C1935 N1932 1.350 . S
C1935 C1934 1.434 . S
C1936 C1937 1.369 . S
C1936 C1938 1.419 . S
C1936 H1940 0.930 . S
C1937 C1936 1.369 . S
C1937 C1946 1.429 . S
C1938 C1936 1.419 . S
C1938 C1939 1.363 . S
C1938 H1941 0.929 . S
C1939 C1938 1.363 . S
C1939 C1945 1.428 . S
H1940 C1936 0.930 . S
H1941 C1938 0.929 . S
S1942 N1943 1.613 . S
S1942 N1944 1.610 . S
N1943 S1942 1.613 . S
N1943 C1946 1.350 . S
N1944 S1942 1.610 . S
N1944 C1945 1.351 . S
C1945 C1939 1.428 . S
C1945 N1944 1.351 . S
C1945 C1946 1.434 . S
C1946 C1937 1.429 . S
C1946 N1943 1.350 . S
C1946 C1945 1.434 . S
C1947 C1948 1.369 . S
C1947 C1949 1.419 . S
C1947 H1951 0.930 . S
C1948 C1947 1.369 . S
C1948 C1957 1.429 . S
C1949 C1947 1.419 . S
C1949 C1950 1.363 . S
C1949 H1952 0.929 . S
C1950 C1949 1.363 . S
C1950 C1956 1.428 . S
H1951 C1947 0.930 . S
H1952 C1949 0.929 . S
S1953 N1954 1.613 . S
S1953 N1955 1.610 . S
N1954 S1953 1.613 . S
N1954 C1957 1.350 . S
N1955 S1953 1.610 . S
N1955 C1956 1.351 . S
C1956 C1950 1.428 . S
C1956 N1955 1.351 . S
C1956 C1957 1.434 . S
C1957 C1948 1.429 . S
C1957 N1954 1.350 . S
C1957 C1956 1.434 . S
C1958 C1959 1.369 . S
C1958 C1960 1.419 . S
C1958 H1962 0.930 . S
C1959 C1958 1.369 . S
C1959 C1968 1.429 . S
C1960 C1958 1.419 . S
C1960 C1961 1.363 . S
C1960 H1963 0.929 . S
C1961 C1960 1.363 . S
C1961 C1967 1.428 . S
H1962 C1958 0.930 . S
H1963 C1960 0.929 . S
S1964 N1965 1.613 . S
S1964 N1966 1.610 . S
N1965 S1964 1.613 . S
N1965 C1968 1.350 . S
N1966 S1964 1.610 . S
N1966 C1967 1.351 . S
C1967 C1961 1.428 . S
C1967 N1966 1.351 . S
C1967 C1968 1.434 . S
C1968 C1959 1.429 . S
C1968 N1965 1.350 . S
C1968 C1967 1.434 . S
C1969 C1970 1.369 1_554 S
C1969 C1971 1.419 . S
C1969 H1973 0.930 . S
C1970 C1969 1.369 1_556 S
C1970 C1979 1.429 . S
C1971 C1969 1.419 . S
C1971 C1972 1.363 1_554 S
C1971 H1974 0.929 . S
C1972 C1971 1.363 1_556 S
C1972 C1978 1.428 . S
H1973 C1969 0.930 . S
H1974 C1971 0.929 . S
S1975 N1976 1.613 . S
S1975 N1977 1.610 . S
N1976 S1975 1.613 . S
N1976 C1979 1.350 . S
N1977 S1975 1.610 . S
N1977 C1978 1.351 . S
C1978 C1972 1.428 . S
C1978 N1977 1.351 . S
C1978 C1979 1.434 . S
C1979 C1970 1.429 . S
C1979 N1976 1.350 . S
C1979 C1978 1.434 . S
C1980 C1981 1.369 . S
C1980 C1982 1.419 . S
C1980 H1984 0.930 . S
C1981 C1980 1.369 . S
C1981 C1990 1.429 . S
C1982 C1980 1.419 . S
C1982 C1983 1.363 . S
C1982 H1985 0.929 . S
C1983 C1982 1.363 . S
C1983 C1989 1.428 . S
H1984 C1980 0.930 . S
H1985 C1982 0.929 . S
S1986 N1987 1.613 . S
S1986 N1988 1.610 . S
N1987 S1986 1.613 . S
N1987 C1990 1.350 . S
N1988 S1986 1.610 . S
N1988 C1989 1.351 . S
C1989 C1983 1.428 . S
C1989 N1988 1.351 . S
C1989 C1990 1.434 . S
C1990 C1981 1.429 . S
C1990 N1987 1.350 . S
C1990 C1989 1.434 . S
C1991 C1992 1.369 . S
C1991 C1993 1.419 . S
C1991 H1995 0.930 . S
C1992 C1991 1.369 . S
C1992 C2001 1.429 . S
C1993 C1991 1.419 . S
C1993 C1994 1.363 . S
C1993 H1996 0.929 . S
C1994 C1993 1.363 . S
C1994 C2000 1.428 . S
H1995 C1991 0.930 . S
H1996 C1993 0.929 . S
S1997 N1998 1.613 . S
S1997 N1999 1.610 . S
N1998 S1997 1.613 . S
N1998 C2001 1.350 . S
N1999 S1997 1.610 . S
N1999 C2000 1.351 . S
C2000 C1994 1.428 . S
C2000 N1999 1.351 . S
C2000 C2001 1.434 . S
C2001 C1992 1.429 . S
C2001 N1998 1.350 . S
C2001 C2000 1.434 . S
C2002 C2003 1.369 . S
C2002 C2004 1.419 . S
C2002 H2006 0.930 . S
C2003 C2002 1.369 . S
C2003 C2012 1.429 . S
C2004 C2002 1.419 . S
C2004 C2005 1.363 . S
C2004 H2007 0.929 . S
C2005 C2004 1.363 . S
C2005 C2011 1.428 . S
H2006 C2002 0.930 . S
H2007 C2004 0.929 . S
S2008 N2009 1.613 . S
S2008 N2010 1.610 . S
N2009 S2008 1.613 . S
N2009 C2012 1.350 . S
N2010 S2008 1.610 . S
N2010 C2011 1.351 . S
C2011 C2005 1.428 . S
C2011 N2010 1.351 . S
C2011 C2012 1.434 . S
C2012 C2003 1.429 . S
C2012 N2009 1.350 . S
C2012 C2011 1.434 . S
C2013 C2014 1.369 1_556 S
C2013 C2015 1.419 . S
C2013 H2017 0.930 . S
C2014 C2013 1.369 1_554 S
C2014 C2023 1.429 . S
C2015 C2013 1.419 . S
C2015 C2016 1.363 1_556 S
C2015 H2018 0.929 . S
C2016 C2015 1.363 1_554 S
C2016 C2022 1.428 . S
H2017 C2013 0.930 . S
H2018 C2015 0.929 . S
S2019 N2020 1.613 . S
S2019 N2021 1.610 . S
N2020 S2019 1.613 . S
N2020 C2023 1.350 . S
N2021 S2019 1.610 . S
N2021 C2022 1.351 . S
C2022 C2016 1.428 . S
C2022 N2021 1.351 . S
C2022 C2023 1.434 . S
C2023 C2014 1.429 . S
C2023 N2020 1.350 . S
C2023 C2022 1.434 . S
C2024 C2025 1.369 . S
C2024 C2026 1.419 . S
C2024 H2028 0.930 . S
C2025 C2024 1.369 . S
C2025 C2034 1.429 . S
C2026 C2024 1.419 . S
C2026 C2027 1.363 . S
C2026 H2029 0.929 . S
C2027 C2026 1.363 . S
C2027 C2033 1.428 . S
H2028 C2024 0.930 . S
H2029 C2026 0.929 . S
S2030 N2031 1.613 . S
S2030 N2032 1.610 . S
N2031 S2030 1.613 . S
N2031 C2034 1.350 . S
N2032 S2030 1.610 . S
N2032 C2033 1.351 . S
C2033 C2027 1.428 . S
C2033 N2032 1.351 . S
C2033 C2034 1.434 . S
C2034 C2025 1.429 . S
C2034 N2031 1.350 . S
C2034 C2033 1.434 . S
C2035 C2036 1.369 . S
C2035 C2037 1.419 . S
C2035 H2039 0.930 . S
C2036 C2035 1.369 . S
C2036 C2045 1.429 . S
C2037 C2035 1.419 . S
C2037 C2038 1.363 . S
C2037 H2040 0.929 . S
C2038 C2037 1.363 . S
C2038 C2044 1.428 . S
H2039 C2035 0.930 . S
H2040 C2037 0.929 . S
S2041 N2042 1.613 . S
S2041 N2043 1.610 . S
N2042 S2041 1.613 . S
N2042 C2045 1.350 . S
N2043 S2041 1.610 . S
N2043 C2044 1.351 . S
C2044 C2038 1.428 . S
C2044 N2043 1.351 . S
C2044 C2045 1.434 . S
C2045 C2036 1.429 . S
C2045 N2042 1.350 . S
C2045 C2044 1.434 . S
C2046 C2047 1.369 . S
C2046 C2048 1.419 . S
C2046 H2050 0.930 . S
C2047 C2046 1.369 . S
C2047 C2056 1.429 . S
C2048 C2046 1.419 . S
C2048 C2049 1.363 . S
C2048 H2051 0.929 . S
C2049 C2048 1.363 . S
C2049 C2055 1.428 . S
H2050 C2046 0.930 . S
H2051 C2048 0.929 . S
S2052 N2053 1.613 . S
S2052 N2054 1.610 . S
N2053 S2052 1.613 . S
N2053 C2056 1.350 . S
N2054 S2052 1.610 . S
N2054 C2055 1.351 . S
C2055 C2049 1.428 . S
C2055 N2054 1.351 . S
C2055 C2056 1.434 . S
C2056 C2047 1.429 . S
C2056 N2053 1.350 . S
C2056 C2055 1.434 . S
C2057 C2058 1.369 . S
C2057 C2059 1.419 . S
C2057 H2061 0.930 . S
C2058 C2057 1.369 . S
C2058 C2067 1.429 . S
C2059 C2057 1.419 . S
C2059 C2060 1.363 . S
C2059 H2062 0.929 . S
C2060 C2059 1.363 . S
C2060 C2066 1.428 . S
H2061 C2057 0.930 . S
H2062 C2059 0.929 . S
S2063 N2064 1.613 . S
S2063 N2065 1.610 . S
N2064 S2063 1.613 . S
N2064 C2067 1.350 . S
N2065 S2063 1.610 . S
N2065 C2066 1.351 . S
C2066 C2060 1.428 . S
C2066 N2065 1.351 . S
C2066 C2067 1.434 . S
C2067 C2058 1.429 . S
C2067 N2064 1.350 . S
C2067 C2066 1.434 . S
C2068 C2069 1.369 . S
C2068 C2070 1.419 . S
C2068 H2072 0.930 . S
C2069 C2068 1.369 . S
C2069 C2078 1.415 1_545 S
C2070 C2068 1.419 . S
C2070 C2071 1.363 . S
C2070 H2073 0.929 . S
C2071 C2070 1.363 . S
C2071 C2077 1.428 1_545 S
H2072 C2068 0.930 . S
H2073 C2070 0.929 . S
S2074 N2075 1.613 . S
S2074 N2076 1.610 . S
N2075 S2074 1.613 . S
N2075 C2078 1.364 . S
N2076 S2074 1.610 . S
N2076 C2077 1.351 . S
C2077 C2071 1.428 1_565 S
C2077 N2076 1.351 . S
C2077 C2078 1.436 . S
C2078 C2069 1.415 1_565 S
C2078 N2075 1.364 . S
C2078 C2077 1.436 . S
C2079 C2080 1.369 . S
C2079 C2081 1.419 . S
C2079 H2083 0.930 . S
C2080 C2079 1.369 . S
C2080 C2089 1.429 . S
C2081 C2079 1.419 . S
C2081 C2082 1.363 . S
C2081 H2084 0.929 . S
C2082 C2081 1.363 . S
C2082 C2088 1.428 . S
H2083 C2079 0.930 . S
H2084 C2081 0.929 . S
S2085 N2086 1.613 . S
S2085 N2087 1.610 . S
N2086 S2085 1.613 . S
N2086 C2089 1.350 . S
N2087 S2085 1.610 . S
N2087 C2088 1.351 . S
C2088 C2082 1.428 . S
C2088 N2087 1.351 . S
C2088 C2089 1.434 . S
C2089 C2080 1.429 . S
C2089 N2086 1.350 . S
C2089 C2088 1.434 . S
C2090 C2091 1.369 . S
C2090 C2092 1.419 . S
C2090 H2094 0.930 . S
C2091 C2090 1.369 . S
C2091 C2100 1.429 . S
C2092 C2090 1.419 . S
C2092 C2093 1.363 . S
C2092 H2095 0.929 . S
C2093 C2092 1.363 . S
C2093 C2099 1.428 . S
H2094 C2090 0.930 . S
H2095 C2092 0.929 . S
S2096 N2097 1.613 . S
S2096 N2098 1.610 . S
N2097 S2096 1.613 . S
N2097 C2100 1.350 . S
N2098 S2096 1.610 . S
N2098 C2099 1.351 . S
C2099 C2093 1.428 . S
C2099 N2098 1.351 . S
C2099 C2100 1.434 . S
C2100 C2091 1.429 . S
C2100 N2097 1.350 . S
C2100 C2099 1.434 . S
C2101 C2102 1.369 . S
C2101 C2103 1.419 . S
C2101 H2105 0.930 . S
C2102 C2101 1.369 . S
C2102 C2111 1.429 . S
C2103 C2101 1.419 . S
C2103 C2104 1.363 . S
C2103 H2106 0.929 . S
C2104 C2103 1.363 . S
C2104 C2110 1.428 . S
H2105 C2101 0.930 . S
H2106 C2103 0.929 . S
S2107 N2108 1.613 . S
S2107 N2109 1.610 . S
N2108 S2107 1.613 . S
N2108 C2111 1.350 . S
N2109 S2107 1.610 . S
N2109 C2110 1.351 . S
C2110 C2104 1.428 . S
C2110 N2109 1.351 . S
C2110 C2111 1.434 . S
C2111 C2102 1.429 . S
C2111 N2108 1.350 . S
C2111 C2110 1.434 . S
C2112 C2113 1.369 . S
C2112 C2114 1.419 . S
C2112 H2116 0.930 . S
C2113 C2112 1.369 . S
C2113 C2122 1.429 . S
C2114 C2112 1.419 . S
C2114 C2115 1.363 . S
C2114 H2117 0.929 . S
C2115 C2114 1.363 . S
C2115 C2121 1.428 . S
H2116 C2112 0.930 . S
H2117 C2114 0.929 . S
S2118 N2119 1.613 . S
S2118 N2120 1.610 . S
N2119 S2118 1.613 . S
N2119 C2122 1.350 . S
N2120 S2118 1.610 . S
N2120 C2121 1.351 . S
C2121 C2115 1.428 . S
C2121 N2120 1.351 . S
C2121 C2122 1.434 . S
C2122 C2113 1.429 . S
C2122 N2119 1.350 . S
C2122 C2121 1.434 . S
C2123 C2124 1.369 . S
C2123 C2125 1.419 . S
C2123 H2127 0.930 . S
C2124 C2123 1.369 . S
C2124 C2133 1.429 . S
C2125 C2123 1.419 . S
C2125 C2126 1.363 . S
C2125 H2128 0.929 . S
C2126 C2125 1.363 . S
C2126 C2132 1.428 . S
H2127 C2123 0.930 . S
H2128 C2125 0.929 . S
S2129 N2130 1.613 . S
S2129 N2131 1.610 . S
N2130 S2129 1.613 . S
N2130 C2133 1.350 . S
N2131 S2129 1.610 . S
N2131 C2132 1.351 . S
C2132 C2126 1.428 . S
C2132 N2131 1.351 . S
C2132 C2133 1.434 . S
C2133 C2124 1.429 . S
C2133 N2130 1.350 . S
C2133 C2132 1.434 . S
C2134 C2135 1.369 . S
C2134 C2136 1.419 . S
C2134 H2138 0.930 . S
C2135 C2134 1.369 . S
C2135 C2144 1.429 . S
C2136 C2134 1.419 . S
C2136 C2137 1.363 . S
C2136 H2139 0.929 . S
C2137 C2136 1.363 . S
C2137 C2143 1.428 . S
H2138 C2134 0.930 . S
H2139 C2136 0.929 . S
S2140 N2141 1.613 . S
S2140 N2142 1.610 . S
N2141 S2140 1.613 . S
N2141 C2144 1.350 . S
N2142 S2140 1.610 . S
N2142 C2143 1.351 . S
C2143 C2137 1.428 . S
C2143 N2142 1.351 . S
C2143 C2144 1.434 . S
C2144 C2135 1.429 . S
C2144 N2141 1.350 . S
C2144 C2143 1.434 . S
C2145 C2146 1.369 . S
C2145 C2147 1.419 . S
C2145 H2149 0.930 . S
C2146 C2145 1.369 . S
C2146 C2155 1.429 . S
C2147 C2145 1.419 . S
C2147 C2148 1.363 . S
C2147 H2150 0.929 . S
C2148 C2147 1.363 . S
C2148 C2154 1.428 . S
H2149 C2145 0.930 . S
H2150 C2147 0.929 . S
S2151 N2152 1.613 . S
S2151 N2153 1.610 . S
N2152 S2151 1.613 . S
N2152 C2155 1.350 . S
N2153 S2151 1.610 . S
N2153 C2154 1.351 . S
C2154 C2148 1.428 . S
C2154 N2153 1.351 . S
C2154 C2155 1.434 . S
C2155 C2146 1.429 . S
C2155 N2152 1.350 . S
C2155 C2154 1.434 . S
C2156 C2157 1.369 . S
C2156 C2158 1.419 . S
C2156 H2160 0.930 . S
C2157 C2156 1.369 . S
C2157 C2166 1.429 . S
C2158 C2156 1.419 . S
C2158 C2159 1.363 . S
C2158 H2161 0.929 . S
C2159 C2158 1.363 . S
C2159 C2165 1.428 . S
H2160 C2156 0.930 . S
H2161 C2158 0.929 . S
S2162 N2163 1.613 . S
S2162 N2164 1.610 . S
N2163 S2162 1.613 . S
N2163 C2166 1.350 . S
N2164 S2162 1.610 . S
N2164 C2165 1.351 . S
C2165 C2159 1.428 . S
C2165 N2164 1.351 . S
C2165 C2166 1.434 . S
C2166 C2157 1.429 . S
C2166 N2163 1.350 . S
C2166 C2165 1.434 . S
C2167 C2168 1.369 . S
C2167 C2169 1.419 . S
C2167 H2171 0.930 1_655 S
C2168 C2167 1.369 . S
C2168 C2177 1.429 . S
C2169 C2167 1.419 . S
C2169 C2170 1.363 . S
C2169 H2172 0.929 1_655 S
C2170 C2169 1.363 . S
C2170 C2176 1.428 . S
H2171 C2167 0.930 1_455 S
H2172 C2169 0.929 1_455 S
S2173 N2174 1.613 . S
S2173 N2175 1.610 . S
N2174 S2173 1.613 . S
N2174 C2177 1.350 . S
N2175 S2173 1.610 . S
N2175 C2176 1.351 . S
C2176 C2170 1.428 . S
C2176 N2175 1.351 . S
C2176 C2177 1.434 . S
C2177 C2168 1.429 . S
C2177 N2174 1.350 . S
C2177 C2176 1.434 . S
C2178 C2179 1.369 . S
C2178 C2180 1.419 . S
C2178 H2182 0.930 . S
C2179 C2178 1.369 . S
C2179 C2188 1.429 . S
C2180 C2178 1.419 . S
C2180 C2181 1.363 . S
C2180 H2183 0.929 . S
C2181 C2180 1.363 . S
C2181 C2187 1.428 . S
H2182 C2178 0.930 . S
H2183 C2180 0.929 . S
S2184 N2185 1.613 . S
S2184 N2186 1.610 . S
N2185 S2184 1.613 . S
N2185 C2188 1.350 . S
N2186 S2184 1.610 . S
N2186 C2187 1.351 . S
C2187 C2181 1.428 . S
C2187 N2186 1.351 . S
C2187 C2188 1.434 . S
C2188 C2179 1.429 . S
C2188 N2185 1.350 . S
C2188 C2187 1.434 . S
C2189 C2190 1.369 . S
C2189 C2191 1.419 . S
C2189 H2193 0.930 . S
C2190 C2189 1.369 . S
C2190 C2199 1.429 . S
C2191 C2189 1.419 . S
C2191 C2192 1.363 . S
C2191 H2194 0.929 . S
C2192 C2191 1.363 . S
C2192 C2198 1.428 . S
H2193 C2189 0.930 . S
H2194 C2191 0.929 . S
S2195 N2196 1.613 . S
S2195 N2197 1.610 . S
N2196 S2195 1.613 . S
N2196 C2199 1.350 . S
N2197 S2195 1.610 . S
N2197 C2198 1.351 . S
C2198 C2192 1.428 . S
C2198 N2197 1.351 . S
C2198 C2199 1.434 . S
C2199 C2190 1.429 . S
C2199 N2196 1.350 . S
C2199 C2198 1.434 . S
C2200 C2201 1.369 . S
C2200 C2202 1.419 . S
C2200 H2204 0.930 . S
C2201 C2200 1.369 . S
C2201 C2210 1.429 . S
C2202 C2200 1.419 . S
C2202 C2203 1.363 . S
C2202 H2205 0.929 . S
C2203 C2202 1.363 . S
C2203 C2209 1.428 . S
H2204 C2200 0.930 . S
H2205 C2202 0.929 . S
S2206 N2207 1.613 . S
S2206 N2208 1.610 . S
N2207 S2206 1.613 . S
N2207 C2210 1.350 . S
N2208 S2206 1.610 . S
N2208 C2209 1.351 . S
C2209 C2203 1.428 . S
C2209 N2208 1.351 . S
C2209 C2210 1.434 . S
C2210 C2201 1.429 . S
C2210 N2207 1.350 . S
C2210 C2209 1.434 . S
C2211 C2212 1.369 . S
C2211 C2213 1.419 . S
C2211 H2215 0.930 . S
C2212 C2211 1.369 . S
C2212 C2221 1.429 1_556 S
C2213 C2211 1.419 . S
C2213 C2214 1.363 . S
C2213 H2216 0.929 . S
C2214 C2213 1.363 . S
C2214 C2220 1.428 1_556 S
H2215 C2211 0.930 . S
H2216 C2213 0.929 . S
S2217 N2218 1.613 . S
S2217 N2219 1.610 . S
N2218 S2217 1.613 . S
N2218 C2221 1.350 . S
N2219 S2217 1.610 . S
N2219 C2220 1.351 . S
C2220 C2214 1.428 1_554 S
C2220 N2219 1.351 . S
C2220 C2221 1.434 . S
C2221 C2212 1.429 1_554 S
C2221 N2218 1.350 . S
C2221 C2220 1.434 . S
C2222 C2223 1.369 . S
C2222 C2224 1.419 . S
C2222 H2226 0.930 . S
C2223 C2222 1.369 . S
C2223 C2232 1.429 . S
C2224 C2222 1.419 . S
C2224 C2225 1.363 . S
C2224 H2227 0.929 . S
C2225 C2224 1.363 . S
C2225 C2231 1.428 . S
H2226 C2222 0.930 . S
H2227 C2224 0.929 . S
S2228 N2229 1.613 . S
S2228 N2230 1.610 . S
N2229 S2228 1.613 . S
N2229 C2232 1.350 . S
N2230 S2228 1.610 . S
N2230 C2231 1.351 . S
C2231 C2225 1.428 . S
C2231 N2230 1.351 . S
C2231 C2232 1.434 . S
C2232 C2223 1.429 . S
C2232 N2229 1.350 . S
C2232 C2231 1.434 . S
C2233 C2234 1.369 . S
C2233 C2235 1.419 . S
C2233 H2237 0.930 . S
C2234 C2233 1.369 . S
C2234 C2243 1.429 . S
C2235 C2233 1.419 . S
C2235 C2236 1.363 . S
C2235 H2238 0.929 . S
C2236 C2235 1.363 . S
C2236 C2242 1.428 . S
H2237 C2233 0.930 . S
H2238 C2235 0.929 . S
S2239 N2240 1.613 . S
S2239 N2241 1.610 . S
N2240 S2239 1.613 . S
N2240 C2243 1.350 . S
N2241 S2239 1.610 . S
N2241 C2242 1.351 . S
C2242 C2236 1.428 . S
C2242 N2241 1.351 . S
C2242 C2243 1.434 . S
C2243 C2234 1.429 . S
C2243 N2240 1.350 . S
C2243 C2242 1.434 . S
C2244 C2245 1.369 . S
C2244 C2246 1.419 . S
C2244 H2248 0.930 . S
C2245 C2244 1.369 . S
C2245 C2254 1.429 . S
C2246 C2244 1.419 . S
C2246 C2247 1.363 . S
C2246 H2249 0.929 . S
C2247 C2246 1.363 . S
C2247 C2253 1.428 . S
H2248 C2244 0.930 . S
H2249 C2246 0.929 . S
S2250 N2251 1.613 . S
S2250 N2252 1.610 . S
N2251 S2250 1.613 . S
N2251 C2254 1.350 . S
N2252 S2250 1.610 . S
N2252 C2253 1.351 . S
C2253 C2247 1.428 . S
C2253 N2252 1.351 . S
C2253 C2254 1.434 . S
C2254 C2245 1.429 . S
C2254 N2251 1.350 . S
C2254 C2253 1.434 . S
C2255 C2256 1.369 . S
C2255 C2257 1.419 . S
C2255 H2259 0.930 . S
C2256 C2255 1.369 . S
C2256 C2265 1.429 1_554 S
C2257 C2255 1.419 . S
C2257 C2258 1.363 . S
C2257 H2260 0.929 . S
C2258 C2257 1.363 . S
C2258 C2264 1.405 1_554 S
H2259 C2255 0.930 . S
H2260 C2257 0.929 . S
S2261 N2262 1.613 . S
S2261 N2263 1.610 . S
N2262 S2261 1.613 . S
N2262 C2265 1.350 . S
N2263 S2261 1.610 . S
N2263 C2264 1.376 . S
C2264 C2258 1.405 1_556 S
C2264 N2263 1.376 . S
C2264 C2265 1.437 . S
C2265 C2256 1.429 1_556 S
C2265 N2262 1.350 . S
C2265 C2264 1.437 . S
C2266 C2267 1.369 . S
C2266 C2268 1.419 . S
C2266 H2270 0.930 . S
C2267 C2266 1.369 . S
C2267 C2276 1.429 . S
C2268 C2266 1.419 . S
C2268 C2269 1.363 . S
C2268 H2271 0.929 . S
C2269 C2268 1.363 . S
C2269 C2275 1.428 . S
H2270 C2266 0.930 . S
H2271 C2268 0.929 . S
S2272 N2273 1.613 . S
S2272 N2274 1.610 . S
N2273 S2272 1.613 . S
N2273 C2276 1.350 . S
N2274 S2272 1.610 . S
N2274 C2275 1.351 . S
C2275 C2269 1.428 . S
C2275 N2274 1.351 . S
C2275 C2276 1.434 . S
C2276 C2267 1.429 . S
C2276 N2273 1.350 . S
C2276 C2275 1.434 . S
C2277 C2278 1.369 . S
C2277 C2279 1.419 . S
C2277 H2281 0.930 . S
C2278 C2277 1.369 . S
C2278 C2287 1.429 . S
C2279 C2277 1.419 . S
C2279 C2280 1.363 . S
C2279 H2282 0.929 . S
C2280 C2279 1.363 . S
C2280 C2286 1.428 . S
H2281 C2277 0.930 . S
H2282 C2279 0.929 . S
S2283 N2284 1.613 . S
S2283 N2285 1.610 . S
N2284 S2283 1.613 . S
N2284 C2287 1.350 . S
N2285 S2283 1.610 . S
N2285 C2286 1.351 . S
C2286 C2280 1.428 . S
C2286 N2285 1.351 . S
C2286 C2287 1.434 . S
C2287 C2278 1.429 . S
C2287 N2284 1.350 . S
C2287 C2286 1.434 . S
C2288 C2289 1.369 . S
C2288 C2290 1.419 . S
C2288 H2292 0.930 . S
C2289 C2288 1.369 . S
C2289 C2298 1.429 . S
C2290 C2288 1.419 . S
C2290 C2291 1.363 . S
C2290 H2293 0.929 . S
C2291 C2290 1.363 . S
C2291 C2297 1.428 . S
H2292 C2288 0.930 . S
H2293 C2290 0.929 . S
S2294 N2295 1.613 . S
S2294 N2296 1.610 . S
N2295 S2294 1.613 . S
N2295 C2298 1.350 . S
N2296 S2294 1.610 . S
N2296 C2297 1.351 . S
C2297 C2291 1.428 . S
C2297 N2296 1.351 . S
C2297 C2298 1.434 . S
C2298 C2289 1.429 . S
C2298 N2295 1.350 . S
C2298 C2297 1.434 . S
C2299 C2300 1.369 . S
C2299 C2301 1.419 . S
C2299 H2303 0.930 . S
C2300 C2299 1.369 . S
C2300 C2309 1.429 . S
C2301 C2299 1.419 . S
C2301 C2302 1.363 . S
C2301 H2304 0.929 . S
C2302 C2301 1.363 . S
C2302 C2308 1.428 . S
H2303 C2299 0.930 . S
H2304 C2301 0.929 . S
S2305 N2306 1.613 . S
S2305 N2307 1.610 . S
N2306 S2305 1.613 . S
N2306 C2309 1.350 . S
N2307 S2305 1.610 . S
N2307 C2308 1.351 . S
C2308 C2302 1.428 . S
C2308 N2307 1.351 . S
C2308 C2309 1.434 . S
C2309 C2300 1.429 . S
C2309 N2306 1.350 . S
C2309 C2308 1.434 . S
C2310 C2311 1.369 . S
C2310 C2312 1.419 . S
C2310 H2314 0.930 . S
C2311 C2310 1.369 . S
C2311 C2320 1.429 . S
C2312 C2310 1.419 . S
C2312 C2313 1.363 . S
C2312 H2315 0.929 . S
C2313 C2312 1.363 . S
C2313 C2319 1.428 . S
H2314 C2310 0.930 . S
H2315 C2312 0.929 . S
S2316 N2317 1.613 . S
S2316 N2318 1.610 . S
N2317 S2316 1.613 . S
N2317 C2320 1.350 . S
N2318 S2316 1.610 . S
N2318 C2319 1.351 . S
C2319 C2313 1.428 . S
C2319 N2318 1.351 . S
C2319 C2320 1.434 . S
C2320 C2311 1.429 . S
C2320 N2317 1.350 . S
C2320 C2319 1.434 . S
C2321 C2322 1.369 . S
C2321 C2323 1.419 . S
C2321 H2325 0.930 . S
C2322 C2321 1.369 . S
C2322 C2331 1.429 . S
C2323 C2321 1.419 . S
C2323 C2324 1.363 . S
C2323 H2326 0.929 . S
C2324 C2323 1.363 . S
C2324 C2330 1.428 . S
H2325 C2321 0.930 . S
H2326 C2323 0.929 . S
S2327 N2328 1.613 . S
S2327 N2329 1.610 . S
N2328 S2327 1.613 . S
N2328 C2331 1.350 . S
N2329 S2327 1.610 . S
N2329 C2330 1.351 . S
C2330 C2324 1.428 . S
C2330 N2329 1.351 . S
C2330 C2331 1.434 . S
C2331 C2322 1.429 . S
C2331 N2328 1.350 . S
C2331 C2330 1.434 . S
C2332 C2333 1.369 . S
C2332 C2334 1.419 . S
C2332 H2336 0.930 . S
C2333 C2332 1.369 . S
C2333 C2342 1.429 . S
C2334 C2332 1.419 . S
C2334 C2335 1.363 . S
C2334 H2337 0.929 . S
C2335 C2334 1.363 . S
C2335 C2341 1.428 . S
H2336 C2332 0.930 . S
H2337 C2334 0.929 . S
S2338 N2339 1.613 . S
S2338 N2340 1.610 . S
N2339 S2338 1.613 . S
N2339 C2342 1.350 . S
N2340 S2338 1.610 . S
N2340 C2341 1.351 . S
C2341 C2335 1.428 . S
C2341 N2340 1.351 . S
C2341 C2342 1.434 . S
C2342 C2333 1.429 . S
C2342 N2339 1.350 . S
C2342 C2341 1.434 . S
C2343 C2344 1.369 . S
C2343 C2345 1.419 . S
C2343 H2347 0.930 . S
C2344 C2343 1.369 . S
C2344 C2353 1.429 . S
C2345 C2343 1.419 . S
C2345 C2346 1.363 . S
C2345 H2348 0.929 . S
C2346 C2345 1.363 . S
C2346 C2352 1.428 . S
H2347 C2343 0.930 . S
H2348 C2345 0.929 . S
S2349 N2350 1.613 . S
S2349 N2351 1.610 . S
N2350 S2349 1.613 . S
N2350 C2353 1.350 . S
N2351 S2349 1.610 . S
N2351 C2352 1.351 . S
C2352 C2346 1.428 . S
C2352 N2351 1.351 . S
C2352 C2353 1.434 . S
C2353 C2344 1.429 . S
C2353 N2350 1.350 . S
C2353 C2352 1.434 . S
C2354 C2355 1.369 1_565 S
C2354 C2356 1.419 . S
C2354 H2358 0.930 . S
C2355 C2354 1.369 1_545 S
C2355 C2364 1.429 . S
C2356 C2354 1.419 . S
C2356 C2357 1.363 1_565 S
C2356 H2359 0.929 . S
C2357 C2356 1.363 1_545 S
C2357 C2363 1.428 . S
H2358 C2354 0.930 . S
H2359 C2356 0.929 . S
S2360 N2361 1.613 . S
S2360 N2362 1.610 . S
N2361 S2360 1.613 . S
N2361 C2364 1.350 . S
N2362 S2360 1.610 . S
N2362 C2363 1.351 . S
C2363 C2357 1.428 . S
C2363 N2362 1.351 . S
C2363 C2364 1.434 . S
C2364 C2355 1.429 . S
C2364 N2361 1.350 . S
C2364 C2363 1.434 . S
C2365 C2366 1.369 . S
C2365 C2367 1.419 . S
C2365 H2369 0.930 . S
C2366 C2365 1.369 . S
C2366 C2375 1.429 1_565 S
C2367 C2365 1.419 . S
C2367 C2368 1.363 . S
C2367 H2370 0.929 . S
C2368 C2367 1.363 . S
C2368 C2374 1.428 1_565 S
H2369 C2365 0.930 . S
H2370 C2367 0.929 . S
S2371 N2372 1.613 . S
S2371 N2373 1.610 . S
N2372 S2371 1.613 . S
N2372 C2375 1.350 . S
N2373 S2371 1.610 . S
N2373 C2374 1.351 . S
C2374 C2368 1.428 1_545 S
C2374 N2373 1.351 . S
C2374 C2375 1.434 . S
C2375 C2366 1.429 1_545 S
C2375 N2372 1.350 . S
C2375 C2374 1.434 . S
C2376 C2377 1.369 . S
C2376 C2378 1.419 . S
C2376 H2380 0.930 . S
C2377 C2376 1.369 . S
C2377 C2386 1.429 . S
C2378 C2376 1.419 . S
C2378 C2379 1.363 . S
C2378 H2381 0.929 . S
C2379 C2378 1.363 . S
C2379 C2385 1.428 . S
H2380 C2376 0.930 . S
H2381 C2378 0.929 . S
S2382 N2383 1.613 . S
S2382 N2384 1.610 . S
N2383 S2382 1.613 . S
N2383 C2386 1.350 . S
N2384 S2382 1.610 . S
N2384 C2385 1.351 . S
C2385 C2379 1.428 . S
C2385 N2384 1.351 . S
C2385 C2386 1.434 . S
C2386 C2377 1.429 . S
C2386 N2383 1.350 . S
C2386 C2385 1.434 . S
C2387 C2388 1.369 . S
C2387 C2389 1.419 . S
C2387 H2391 0.930 . S
C2388 C2387 1.369 . S
C2388 C2397 1.429 . S
C2389 C2387 1.419 . S
C2389 C2390 1.363 . S
C2389 H2392 0.929 . S
C2390 C2389 1.363 . S
C2390 C2396 1.428 . S
H2391 C2387 0.930 . S
H2392 C2389 0.929 . S
S2393 N2394 1.613 . S
S2393 N2395 1.610 . S
N2394 S2393 1.613 . S
N2394 C2397 1.350 . S
N2395 S2393 1.610 . S
N2395 C2396 1.351 . S
C2396 C2390 1.428 . S
C2396 N2395 1.351 . S
C2396 C2397 1.434 . S
C2397 C2388 1.429 . S
C2397 N2394 1.350 . S
C2397 C2396 1.434 . S
C2398 C2399 1.369 . S
C2398 C2400 1.419 . S
C2398 H2402 0.930 . S
C2399 C2398 1.369 . S
C2399 C2408 1.429 . S
C2400 C2398 1.419 . S
C2400 C2401 1.363 . S
C2400 H2403 0.929 . S
C2401 C2400 1.363 . S
C2401 C2407 1.428 . S
H2402 C2398 0.930 . S
H2403 C2400 0.929 . S
S2404 N2405 1.613 . S
S2404 N2406 1.610 . S
N2405 S2404 1.613 . S
N2405 C2408 1.350 . S
N2406 S2404 1.610 . S
N2406 C2407 1.351 . S
C2407 C2401 1.428 . S
C2407 N2406 1.351 . S
C2407 C2408 1.434 . S
C2408 C2399 1.429 . S
C2408 N2405 1.350 . S
C2408 C2407 1.434 . S
C2409 C2410 1.369 . S
C2409 C2411 1.419 . S
C2409 H2413 0.930 . S
C2410 C2409 1.369 . S
C2410 C2419 1.429 . S
C2411 C2409 1.419 . S
C2411 C2412 1.363 . S
C2411 H2414 0.929 . S
C2412 C2411 1.363 . S
C2412 C2418 1.428 . S
H2413 C2409 0.930 . S
H2414 C2411 0.929 . S
S2415 N2416 1.613 . S
S2415 N2417 1.610 . S
N2416 S2415 1.613 . S
N2416 C2419 1.350 . S
N2417 S2415 1.610 . S
N2417 C2418 1.351 . S
C2418 C2412 1.428 . S
C2418 N2417 1.351 . S
C2418 C2419 1.434 . S
C2419 C2410 1.429 . S
C2419 N2416 1.350 . S
C2419 C2418 1.434 . S
C2420 C2421 1.369 . S
C2420 C2422 1.419 . S
C2420 H2424 0.930 . S
C2421 C2420 1.369 . S
C2421 C2430 1.429 . S
C2422 C2420 1.419 . S
C2422 C2423 1.363 . S
C2422 H2425 0.929 . S
C2423 C2422 1.363 . S
C2423 C2429 1.428 . S
H2424 C2420 0.930 . S
H2425 C2422 0.929 . S
S2426 N2427 1.613 . S
S2426 N2428 1.610 . S
N2427 S2426 1.613 . S
N2427 C2430 1.350 . S
N2428 S2426 1.610 . S
N2428 C2429 1.351 . S
C2429 C2423 1.428 . S
C2429 N2428 1.351 . S
C2429 C2430 1.434 . S
C2430 C2421 1.429 . S
C2430 N2427 1.350 . S
C2430 C2429 1.434 . S
C2431 C2432 1.369 . S
C2431 C2433 1.419 . S
C2431 H2435 0.930 . S
C2432 C2431 1.369 . S
C2432 C2441 1.429 . S
C2433 C2431 1.419 . S
C2433 C2434 1.363 . S
C2433 H2436 0.929 . S
C2434 C2433 1.363 . S
C2434 C2440 1.428 . S
H2435 C2431 0.930 . S
H2436 C2433 0.929 . S
S2437 N2438 1.613 . S
S2437 N2439 1.610 . S
N2438 S2437 1.613 . S
N2438 C2441 1.350 . S
N2439 S2437 1.610 . S
N2439 C2440 1.351 . S
C2440 C2434 1.428 . S
C2440 N2439 1.351 . S
C2440 C2441 1.434 . S
C2441 C2432 1.429 . S
C2441 N2438 1.350 . S
C2441 C2440 1.434 . S
C2442 C2443 1.369 . S
C2442 C2444 1.419 . S
C2442 H2446 0.930 . S
C2443 C2442 1.369 . S
C2443 C2452 1.429 . S
C2444 C2442 1.419 . S
C2444 C2445 1.363 . S
C2444 H2447 0.929 . S
C2445 C2444 1.363 . S
C2445 C2451 1.428 . S
H2446 C2442 0.930 . S
H2447 C2444 0.929 . S
S2448 N2449 1.613 . S
S2448 N2450 1.610 . S
N2449 S2448 1.613 . S
N2449 C2452 1.350 . S
N2450 S2448 1.610 . S
N2450 C2451 1.351 . S
C2451 C2445 1.428 . S
C2451 N2450 1.351 . S
C2451 C2452 1.434 . S
C2452 C2443 1.429 . S
C2452 N2449 1.350 . S
C2452 C2451 1.434 . S
C2453 C2454 1.369 . S
C2453 C2455 1.419 . S
C2453 H2457 0.930 . S
C2454 C2453 1.369 . S
C2454 C2463 1.429 . S
C2455 C2453 1.419 . S
C2455 C2456 1.363 . S
C2455 H2458 0.929 . S
C2456 C2455 1.363 . S
C2456 C2462 1.428 . S
H2457 C2453 0.930 . S
H2458 C2455 0.929 . S
S2459 N2460 1.613 . S
S2459 N2461 1.610 . S
N2460 S2459 1.613 . S
N2460 C2463 1.350 . S
N2461 S2459 1.610 . S
N2461 C2462 1.351 . S
C2462 C2456 1.428 . S
C2462 N2461 1.351 . S
C2462 C2463 1.434 . S
C2463 C2454 1.429 . S
C2463 N2460 1.350 . S
C2463 C2462 1.434 . S
C2464 C2465 1.369 . S
C2464 C2466 1.419 . S
C2464 H2468 0.930 . S
C2465 C2464 1.369 . S
C2465 C2474 1.429 . S
C2466 C2464 1.419 . S
C2466 C2467 1.363 . S
C2466 H2469 0.929 . S
C2467 C2466 1.363 . S
C2467 C2473 1.428 . S
H2468 C2464 0.930 . S
H2469 C2466 0.929 . S
S2470 N2471 1.613 . S
S2470 N2472 1.610 . S
N2471 S2470 1.613 . S
N2471 C2474 1.350 . S
N2472 S2470 1.610 . S
N2472 C2473 1.351 . S
C2473 C2467 1.428 . S
C2473 N2472 1.351 . S
C2473 C2474 1.434 . S
C2474 C2465 1.429 . S
C2474 N2471 1.350 . S
C2474 C2473 1.434 . S
C2475 C2476 1.369 . S
C2475 C2477 1.419 . S
C2475 H2479 0.930 . S
C2476 C2475 1.369 . S
C2476 C2485 1.429 . S
C2477 C2475 1.419 . S
C2477 C2478 1.363 . S
C2477 H2480 0.929 . S
C2478 C2477 1.363 . S
C2478 C2484 1.428 . S
H2479 C2475 0.930 . S
H2480 C2477 0.929 . S
S2481 N2482 1.613 . S
S2481 N2483 1.610 . S
N2482 S2481 1.613 . S
N2482 C2485 1.350 . S
N2483 S2481 1.610 . S
N2483 C2484 1.351 . S
C2484 C2478 1.428 . S
C2484 N2483 1.351 . S
C2484 C2485 1.434 . S
C2485 C2476 1.429 . S
C2485 N2482 1.350 . S
C2485 C2484 1.434 . S
C2486 C2487 1.369 . S
C2486 C2488 1.419 . S
C2486 H2490 0.930 . S
C2487 C2486 1.369 . S
C2487 C2496 1.429 . S
C2488 C2486 1.419 . S
C2488 C2489 1.363 . S
C2488 H2491 0.929 . S
C2489 C2488 1.363 . S
C2489 C2495 1.428 . S
H2490 C2486 0.930 . S
H2491 C2488 0.929 . S
S2492 N2493 1.613 . S
S2492 N2494 1.610 . S
N2493 S2492 1.613 . S
N2493 C2496 1.350 . S
N2494 S2492 1.610 . S
N2494 C2495 1.351 . S
C2495 C2489 1.428 . S
C2495 N2494 1.351 . S
C2495 C2496 1.434 . S
C2496 C2487 1.429 . S
C2496 N2493 1.350 . S
C2496 C2495 1.434 . S
C2497 C2498 1.369 . S
C2497 C2499 1.419 . S
C2497 H2501 0.930 . S
C2498 C2497 1.369 . S
C2498 C2507 1.429 . S
C2499 C2497 1.419 . S
C2499 C2500 1.363 . S
C2499 H2502 0.929 . S
C2500 C2499 1.363 . S
C2500 C2506 1.428 . S
H2501 C2497 0.930 . S
H2502 C2499 0.929 . S
S2503 N2504 1.613 . S
S2503 N2505 1.610 . S
N2504 S2503 1.613 . S
N2504 C2507 1.350 . S
N2505 S2503 1.610 . S
N2505 C2506 1.351 . S
C2506 C2500 1.428 . S
C2506 N2505 1.351 . S
C2506 C2507 1.434 . S
C2507 C2498 1.429 . S
C2507 N2504 1.350 . S
C2507 C2506 1.434 . S
C2508 C2509 1.369 . S
C2508 C2510 1.419 . S
C2508 H2512 0.930 . S
C2509 C2508 1.369 . S
C2509 C2518 1.429 . S
C2510 C2508 1.419 . S
C2510 C2511 1.363 . S
C2510 H2513 0.929 . S
C2511 C2510 1.363 . S
C2511 C2517 1.428 . S
H2512 C2508 0.930 . S
H2513 C2510 0.929 . S
S2514 N2515 1.613 . S
S2514 N2516 1.610 . S
N2515 S2514 1.613 . S
N2515 C2518 1.350 . S
N2516 S2514 1.610 . S
N2516 C2517 1.351 . S
C2517 C2511 1.428 . S
C2517 N2516 1.351 . S
C2517 C2518 1.434 . S
C2518 C2509 1.429 . S
C2518 N2515 1.350 . S
C2518 C2517 1.434 . S
C2519 C2520 1.369 . S
C2519 C2521 1.419 . S
C2519 H2523 0.930 . S
C2520 C2519 1.369 . S
C2520 C2529 1.429 . S
C2521 C2519 1.419 . S
C2521 C2522 1.363 . S
C2521 H2524 0.929 . S
C2522 C2521 1.363 . S
C2522 C2528 1.428 . S
H2523 C2519 0.930 . S
H2524 C2521 0.929 . S
S2525 N2526 1.613 . S
S2525 N2527 1.610 . S
N2526 S2525 1.613 . S
N2526 C2529 1.350 . S
N2527 S2525 1.610 . S
N2527 C2528 1.351 . S
C2528 C2522 1.428 . S
C2528 N2527 1.351 . S
C2528 C2529 1.434 . S
C2529 C2520 1.429 . S
C2529 N2526 1.350 . S
C2529 C2528 1.434 . S
C2530 C2531 1.369 . S
C2530 C2532 1.419 . S
C2530 H2534 0.930 . S
C2531 C2530 1.369 . S
C2531 C2540 1.429 . S
C2532 C2530 1.419 . S
C2532 C2533 1.363 . S
C2532 H2535 0.929 . S
C2533 C2532 1.363 . S
C2533 C2539 1.428 . S
H2534 C2530 0.930 . S
H2535 C2532 0.929 . S
S2536 N2537 1.613 . S
S2536 N2538 1.610 . S
N2537 S2536 1.613 . S
N2537 C2540 1.350 . S
N2538 S2536 1.610 . S
N2538 C2539 1.351 . S
C2539 C2533 1.428 . S
C2539 N2538 1.351 . S
C2539 C2540 1.434 . S
C2540 C2531 1.429 . S
C2540 N2537 1.350 . S
C2540 C2539 1.434 . S
C2541 C2542 1.369 . S
C2541 C2543 1.419 . S
C2541 H2545 0.930 . S
C2542 C2541 1.369 . S
C2542 C2551 1.429 . S
C2543 C2541 1.419 . S
C2543 C2544 1.363 . S
C2543 H2546 0.929 . S
C2544 C2543 1.363 . S
C2544 C2550 1.428 . S
H2545 C2541 0.930 . S
H2546 C2543 0.929 . S
S2547 N2548 1.613 . S
S2547 N2549 1.610 . S
N2548 S2547 1.613 . S
N2548 C2551 1.350 . S
N2549 S2547 1.610 . S
N2549 C2550 1.351 . S
C2550 C2544 1.428 . S
C2550 N2549 1.351 . S
C2550 C2551 1.434 . S
C2551 C2542 1.429 . S
C2551 N2548 1.350 . S
C2551 C2550 1.434 . S
C2552 C2553 1.369 . S
C2552 C2554 1.419 . S
C2552 H2556 0.930 . S
C2553 C2552 1.369 . S
C2553 C2562 1.429 . S
C2554 C2552 1.419 . S
C2554 C2555 1.363 . S
C2554 H2557 0.929 . S
C2555 C2554 1.363 . S
C2555 C2561 1.428 . S
H2556 C2552 0.930 . S
H2557 C2554 0.929 . S
S2558 N2559 1.613 . S
S2558 N2560 1.610 . S
N2559 S2558 1.613 . S
N2559 C2562 1.350 . S
N2560 S2558 1.610 . S
N2560 C2561 1.351 . S
C2561 C2555 1.428 . S
C2561 N2560 1.351 . S
C2561 C2562 1.434 . S
C2562 C2553 1.429 . S
C2562 N2559 1.350 . S
C2562 C2561 1.434 . S
C2563 C2564 1.369 . S
C2563 C2565 1.419 . S
C2563 H2567 0.930 . S
C2564 C2563 1.369 . S
C2564 C2573 1.429 . S
C2565 C2563 1.419 . S
C2565 C2566 1.363 . S
C2565 H2568 0.929 . S
C2566 C2565 1.363 . S
C2566 C2572 1.428 . S
H2567 C2563 0.930 . S
H2568 C2565 0.929 . S
S2569 N2570 1.613 . S
S2569 N2571 1.610 . S
N2570 S2569 1.613 . S
N2570 C2573 1.350 . S
N2571 S2569 1.610 . S
N2571 C2572 1.351 . S
C2572 C2566 1.428 . S
C2572 N2571 1.351 . S
C2572 C2573 1.434 . S
C2573 C2564 1.429 . S
C2573 N2570 1.350 . S
C2573 C2572 1.434 . S
C2574 C2575 1.369 . S
C2574 C2576 1.419 . S
C2574 H2578 0.930 . S
C2575 C2574 1.369 . S
C2575 C2584 1.429 . S
C2576 C2574 1.419 . S
C2576 C2577 1.363 . S
C2576 H2579 0.929 . S
C2577 C2576 1.363 . S
C2577 C2583 1.428 . S
H2578 C2574 0.930 . S
H2579 C2576 0.929 . S
S2580 N2581 1.613 . S
S2580 N2582 1.610 . S
N2581 S2580 1.613 . S
N2581 C2584 1.350 . S
N2582 S2580 1.610 . S
N2582 C2583 1.351 . S
C2583 C2577 1.428 . S
C2583 N2582 1.351 . S
C2583 C2584 1.434 . S
C2584 C2575 1.429 . S
C2584 N2581 1.350 . S
C2584 C2583 1.434 . S
C2585 C2586 1.369 . S
C2585 C2587 1.419 . S
C2585 H2589 0.930 . S
C2586 C2585 1.369 . S
C2586 C2595 1.429 . S
C2587 C2585 1.419 . S
C2587 C2588 1.363 . S
C2587 H2590 0.929 . S
C2588 C2587 1.363 . S
C2588 C2594 1.428 . S
H2589 C2585 0.930 . S
H2590 C2587 0.929 . S
S2591 N2592 1.613 . S
S2591 N2593 1.610 . S
N2592 S2591 1.613 . S
N2592 C2595 1.350 . S
N2593 S2591 1.610 . S
N2593 C2594 1.351 . S
C2594 C2588 1.428 . S
C2594 N2593 1.351 . S
C2594 C2595 1.434 . S
C2595 C2586 1.429 . S
C2595 N2592 1.350 . S
C2595 C2594 1.434 . S
C2596 C2597 1.369 . S
C2596 C2598 1.419 . S
C2596 H2600 0.930 . S
C2597 C2596 1.369 . S
C2597 C2606 1.429 . S
C2598 C2596 1.419 . S
C2598 C2599 1.363 . S
C2598 H2601 0.929 . S
C2599 C2598 1.363 . S
C2599 C2605 1.428 . S
H2600 C2596 0.930 . S
H2601 C2598 0.929 . S
S2602 N2603 1.613 . S
S2602 N2604 1.610 . S
N2603 S2602 1.613 . S
N2603 C2606 1.350 . S
N2604 S2602 1.610 . S
N2604 C2605 1.351 . S
C2605 C2599 1.428 . S
C2605 N2604 1.351 . S
C2605 C2606 1.434 . S
C2606 C2597 1.429 . S
C2606 N2603 1.350 . S
C2606 C2605 1.434 . S
C2607 C2608 1.369 . S
C2607 C2609 1.419 . S
C2607 H2611 0.930 . S
C2608 C2607 1.369 . S
C2608 C2617 1.429 . S
C2609 C2607 1.419 . S
C2609 C2610 1.363 . S
C2609 H2612 0.929 . S
C2610 C2609 1.363 . S
C2610 C2616 1.428 . S
H2611 C2607 0.930 . S
H2612 C2609 0.929 . S
S2613 N2614 1.613 . S
S2613 N2615 1.610 . S
N2614 S2613 1.613 . S
N2614 C2617 1.350 . S
N2615 S2613 1.610 . S
N2615 C2616 1.351 . S
C2616 C2610 1.428 . S
C2616 N2615 1.351 . S
C2616 C2617 1.434 . S
C2617 C2608 1.429 . S
C2617 N2614 1.350 . S
C2617 C2616 1.434 . S
C2618 C2619 1.369 . S
C2618 C2620 1.419 . S
C2618 H2622 0.930 . S
C2619 C2618 1.369 . S
C2619 C2628 1.429 . S
C2620 C2618 1.419 . S
C2620 C2621 1.363 . S
C2620 H2623 0.929 . S
C2621 C2620 1.363 . S
C2621 C2627 1.428 . S
H2622 C2618 0.930 . S
H2623 C2620 0.929 . S
S2624 N2625 1.613 . S
S2624 N2626 1.610 . S
N2625 S2624 1.613 . S
N2625 C2628 1.350 . S
N2626 S2624 1.610 . S
N2626 C2627 1.351 . S
C2627 C2621 1.428 . S
C2627 N2626 1.351 . S
C2627 C2628 1.434 . S
C2628 C2619 1.429 . S
C2628 N2625 1.350 . S
C2628 C2627 1.434 . S
C2629 C2630 1.369 . S
C2629 C2631 1.419 . S
C2629 H2633 0.930 . S
C2630 C2629 1.369 . S
C2630 C2639 1.429 . S
C2631 C2629 1.419 . S
C2631 C2632 1.363 . S
C2631 H2634 0.929 . S
C2632 C2631 1.363 . S
C2632 C2638 1.428 . S
H2633 C2629 0.930 . S
H2634 C2631 0.929 . S
S2635 N2636 1.613 . S
S2635 N2637 1.610 . S
N2636 S2635 1.613 . S
N2636 C2639 1.350 . S
N2637 S2635 1.610 . S
N2637 C2638 1.351 . S
C2638 C2632 1.428 . S
C2638 N2637 1.351 . S
C2638 C2639 1.434 . S
C2639 C2630 1.429 . S
C2639 N2636 1.350 . S
C2639 C2638 1.434 . S
C2640 C2641 1.369 . S
C2640 C2642 1.419 1_655 S
C2640 H2644 0.930 . S
C2641 C2640 1.369 . S
C2641 C2650 1.429 . S
C2642 C2640 1.419 1_455 S
C2642 C2643 1.363 . S
C2642 H2645 0.929 . S
C2643 C2642 1.363 . S
C2643 C2649 1.428 . S
H2644 C2640 0.930 . S
H2645 C2642 0.929 . S
S2646 N2647 1.613 . S
S2646 N2648 1.610 1_655 S
N2647 S2646 1.613 . S
N2647 C2650 1.350 . S
N2648 S2646 1.610 1_455 S
N2648 C2649 1.351 . S
C2649 C2643 1.428 . S
C2649 N2648 1.351 . S
C2649 C2650 1.434 1_455 S
C2650 C2641 1.429 . S
C2650 N2647 1.350 . S
C2650 C2649 1.434 1_655 S
C2651 C2652 1.369 1_655 S
C2651 C2653 1.419 . S
C2651 H2655 0.930 . S
C2652 C2651 1.369 1_455 S
C2652 C2661 1.429 . S
C2653 C2651 1.419 . S
C2653 C2654 1.363 . S
C2653 H2656 0.929 . S
C2654 C2653 1.363 . S
C2654 C2660 1.428 1_655 S
H2655 C2651 0.930 . S
H2656 C2653 0.929 . S
S2657 N2658 1.613 . S
S2657 N2659 1.610 . S
N2658 S2657 1.613 . S
N2658 C2661 1.350 . S
N2659 S2657 1.610 . S
N2659 C2660 1.351 . S
C2660 C2654 1.428 1_455 S
C2660 N2659 1.351 . S
C2660 C2661 1.434 . S
C2661 C2652 1.429 . S
C2661 N2658 1.350 . S
C2661 C2660 1.434 . S
C2662 C2663 1.369 . S
C2662 C2664 1.419 . S
C2662 H2666 0.930 . S
C2663 C2662 1.369 . S
C2663 C2672 1.429 . S
C2664 C2662 1.419 . S
C2664 C2665 1.363 . S
C2664 H2667 0.929 . S
C2665 C2664 1.363 . S
C2665 C2671 1.428 . S
H2666 C2662 0.930 . S
H2667 C2664 0.929 . S
S2668 N2669 1.613 . S
S2668 N2670 1.610 . S
N2669 S2668 1.613 . S
N2669 C2672 1.350 . S
N2670 S2668 1.610 . S
N2670 C2671 1.351 . S
C2671 C2665 1.428 . S
C2671 N2670 1.351 . S
C2671 C2672 1.434 . S
C2672 C2663 1.429 . S
C2672 N2669 1.350 . S
C2672 C2671 1.434 . S
C2673 C2674 1.369 . S
C2673 C2675 1.419 . S
C2673 H2677 0.930 . S
C2674 C2673 1.369 . S
C2674 C2683 1.429 . S
C2675 C2673 1.419 . S
C2675 C2676 1.363 . S
C2675 H2678 0.929 . S
C2676 C2675 1.363 . S
C2676 C2682 1.428 . S
H2677 C2673 0.930 . S
H2678 C2675 0.929 . S
S2679 N2680 1.613 . S
S2679 N2681 1.610 . S
N2680 S2679 1.613 . S
N2680 C2683 1.350 . S
N2681 S2679 1.610 . S
N2681 C2682 1.351 . S
C2682 C2676 1.428 . S
C2682 N2681 1.351 . S
C2682 C2683 1.434 . S
C2683 C2674 1.429 . S
C2683 N2680 1.350 . S
C2683 C2682 1.434 . S
C2684 C2685 1.369 . S
C2684 C2686 1.419 1_655 S
C2684 H2688 0.930 . S
C2685 C2684 1.369 . S
C2685 C2694 1.429 . S
C2686 C2684 1.419 1_455 S
C2686 C2687 1.363 . S
C2686 H2689 0.929 . S
C2687 C2686 1.363 . S
C2687 C2693 1.428 . S
H2688 C2684 0.930 . S
H2689 C2686 0.929 . S
S2690 N2691 1.634 . S
S2690 N2692 1.610 . S
N2691 S2690 1.634 . S
N2691 C2694 1.349 1_455 S
N2692 S2690 1.610 . S
N2692 C2693 1.351 . S
C2693 C2687 1.428 . S
C2693 N2692 1.351 . S
C2693 C2694 1.434 1_455 S
C2694 C2685 1.429 . S
C2694 N2691 1.349 1_655 S
C2694 C2693 1.434 1_655 S
C2695 C2696 1.369 . S
C2695 C2697 1.419 . S
C2695 H2699 0.930 . S
C2696 C2695 1.369 . S
C2696 C2705 1.429 . S
C2697 C2695 1.419 . S
C2697 C2698 1.363 . S
C2697 H2700 0.929 . S
C2698 C2697 1.363 . S
C2698 C2704 1.428 . S
H2699 C2695 0.930 . S
H2700 C2697 0.929 . S
S2701 N2702 1.613 . S
S2701 N2703 1.610 . S
N2702 S2701 1.613 . S
N2702 C2705 1.350 . S
N2703 S2701 1.610 . S
N2703 C2704 1.351 . S
C2704 C2698 1.428 . S
C2704 N2703 1.351 . S
C2704 C2705 1.434 . S
C2705 C2696 1.429 . S
C2705 N2702 1.350 . S
C2705 C2704 1.434 . S
C2706 C2707 1.369 . S
C2706 C2708 1.419 . S
C2706 H2710 0.930 . S
C2707 C2706 1.369 . S
C2707 C2716 1.429 . S
C2708 C2706 1.419 . S
C2708 C2709 1.363 . S
C2708 H2711 0.929 . S
C2709 C2708 1.363 . S
C2709 C2715 1.428 . S
H2710 C2706 0.930 . S
H2711 C2708 0.929 . S
S2712 N2713 1.613 . S
S2712 N2714 1.610 . S
N2713 S2712 1.613 . S
N2713 C2716 1.350 . S
N2714 S2712 1.610 . S
N2714 C2715 1.351 . S
C2715 C2709 1.428 . S
C2715 N2714 1.351 . S
C2715 C2716 1.434 . S
C2716 C2707 1.429 . S
C2716 N2713 1.350 . S
C2716 C2715 1.434 . S
C2717 C2718 1.369 1_655 S
C2717 C2719 1.419 . S
C2717 H2721 0.930 . S
C2718 C2717 1.369 1_455 S
C2718 C2727 1.429 . S
C2719 C2717 1.419 . S
C2719 C2720 1.363 . S
C2719 H2722 0.929 . S
C2720 C2719 1.363 . S
C2720 C2726 1.428 1_655 S
H2721 C2717 0.930 . S
H2722 C2719 0.929 . S
S2723 N2724 1.613 . S
S2723 N2725 1.610 . S
N2724 S2723 1.613 . S
N2724 C2727 1.350 . S
N2725 S2723 1.610 . S
N2725 C2726 1.351 . S
C2726 C2720 1.428 1_455 S
C2726 N2725 1.351 . S
C2726 C2727 1.434 . S
C2727 C2718 1.429 . S
C2727 N2724 1.350 . S
C2727 C2726 1.434 . S
C2728 C2729 1.369 . S
C2728 C2730 1.419 1_545 S
C2728 H2732 0.930 . S
C2729 C2728 1.369 . S
C2729 C2738 1.429 . S
C2730 C2728 1.419 1_565 S
C2730 C2731 1.363 . S
C2730 H2733 0.929 . S
C2731 C2730 1.363 . S
C2731 C2737 1.428 . S
H2732 C2728 0.930 . S
H2733 C2730 0.929 . S
S2734 N2735 1.613 1_565 S
S2734 N2736 1.610 . S
N2735 S2734 1.613 1_545 S
N2735 C2738 1.350 . S
N2736 S2734 1.610 . S
N2736 C2737 1.351 . S
C2737 C2731 1.428 . S
C2737 N2736 1.351 . S
C2737 C2738 1.434 1_565 S
C2738 C2729 1.429 . S
C2738 N2735 1.350 . S
C2738 C2737 1.434 1_545 S
C2739 C2740 1.369 . S
C2739 C2741 1.419 . S
C2739 H2743 0.930 . S
C2740 C2739 1.369 . S
C2740 C2749 1.429 . S
C2741 C2739 1.419 . S
C2741 C2742 1.363 . S
C2741 H2744 0.929 . S
C2742 C2741 1.363 . S
C2742 C2748 1.428 . S
H2743 C2739 0.930 . S
H2744 C2741 0.929 . S
S2745 N2746 1.613 . S
S2745 N2747 1.610 . S
N2746 S2745 1.613 . S
N2746 C2749 1.350 . S
N2747 S2745 1.610 . S
N2747 C2748 1.351 . S
C2748 C2742 1.428 . S
C2748 N2747 1.351 . S
C2748 C2749 1.434 . S
C2749 C2740 1.429 . S
C2749 N2746 1.350 . S
C2749 C2748 1.434 . S
C2750 C2751 1.369 . S
C2750 C2752 1.419 1_565 S
C2750 H2754 0.930 . S
C2751 C2750 1.369 . S
C2751 C2760 1.429 . S
C2752 C2750 1.419 1_545 S
C2752 C2753 1.363 . S
C2752 H2755 0.929 . S
C2753 C2752 1.363 . S
C2753 C2759 1.428 . S
H2754 C2750 0.930 . S
H2755 C2752 0.929 . S
S2756 N2757 1.613 1_545 S
S2756 N2758 1.610 . S
N2757 S2756 1.613 1_565 S
N2757 C2760 1.350 . S
N2758 S2756 1.610 . S
N2758 C2759 1.351 . S
C2759 C2753 1.428 . S
C2759 N2758 1.351 . S
C2759 C2760 1.434 1_545 S
C2760 C2751 1.429 . S
C2760 N2757 1.350 . S
C2760 C2759 1.434 1_565 S
C2761 C2762 1.369 1_554 S
C2761 C2763 1.419 . S
C2761 H2765 0.930 . S
C2762 C2761 1.369 1_556 S
C2762 C2771 1.429 . S
C2763 C2761 1.419 . S
C2763 C2764 1.363 . S
C2763 H2766 0.929 . S
C2764 C2763 1.363 . S
C2764 C2770 1.428 1_554 S
H2765 C2761 0.930 . S
H2766 C2763 0.929 . S
S2767 N2768 1.613 . S
S2767 N2769 1.610 . S
N2768 S2767 1.613 . S
N2768 C2771 1.350 . S
N2769 S2767 1.610 . S
N2769 C2770 1.351 . S
C2770 C2764 1.428 1_556 S
C2770 N2769 1.351 . S
C2770 C2771 1.434 . S
C2771 C2762 1.429 . S
C2771 N2768 1.350 . S
C2771 C2770 1.434 . S
C2772 C2773 1.369 . S
C2772 C2774 1.419 1_556 S
C2772 H2776 0.930 . S
C2773 C2772 1.369 . S
C2773 C2782 1.429 . S
C2774 C2772 1.419 1_554 S
C2774 C2775 1.363 . S
C2774 H2777 0.929 . S
C2775 C2774 1.363 . S
C2775 C2781 1.428 . S
H2776 C2772 0.930 . S
H2777 C2774 0.929 . S
S2778 N2779 1.613 1_554 S
S2778 N2780 1.610 . S
N2779 S2778 1.613 1_556 S
N2779 C2782 1.350 . S
N2780 S2778 1.610 . S
N2780 C2781 1.351 . S
C2781 C2775 1.428 . S
C2781 N2780 1.351 . S
C2781 C2782 1.434 1_554 S
C2782 C2773 1.429 . S
C2782 N2779 1.350 . S
C2782 C2781 1.434 1_556 S
C2783 C2784 1.369 . S
C2783 C2785 1.419 1_554 S
C2783 H2787 0.930 . S
C2784 C2783 1.369 . S
C2784 C2793 1.465 . S
C2785 C2783 1.419 1_556 S
C2785 C2786 1.363 . S
C2785 H2788 0.929 . S
C2786 C2785 1.363 . S
C2786 C2792 1.428 . S
H2787 C2783 0.930 . S
H2788 C2785 0.929 . S
S2789 N2790 1.613 . S
S2789 N2791 1.610 . S
N2790 S2789 1.613 . S
N2790 C2793 1.347 1_556 S
N2791 S2789 1.610 . S
N2791 C2792 1.351 . S
C2792 C2786 1.428 . S
C2792 N2791 1.351 . S
C2792 C2793 1.397 1_556 S
C2793 C2784 1.465 . S
C2793 N2790 1.347 1_554 S
C2793 C2792 1.397 1_554 S
C2794 C2795 1.369 . S
C2794 C2796 1.419 . S
C2794 H2798 0.930 . S
C2795 C2794 1.369 . S
C2795 C2804 1.429 . S
C2796 C2794 1.419 . S
C2796 C2797 1.363 . S
C2796 H2799 0.929 . S
C2797 C2796 1.363 . S
C2797 C2803 1.428 . S
H2798 C2794 0.930 . S
H2799 C2796 0.929 . S
S2800 N2801 1.613 . S
S2800 N2802 1.610 . S
N2801 S2800 1.613 . S
N2801 C2804 1.350 . S
N2802 S2800 1.610 . S
N2802 C2803 1.351 . S
C2803 C2797 1.428 . S
C2803 N2802 1.351 . S
C2803 C2804 1.434 . S
C2804 C2795 1.429 . S
C2804 N2801 1.350 . S
C2804 C2803 1.434 . S
C2805 C2806 1.369 . S
C2805 C2807 1.419 . S
C2805 H2809 0.930 . S
C2806 C2805 1.369 . S
C2806 C2815 1.429 . S
C2807 C2805 1.419 . S
C2807 C2808 1.363 . S
C2807 H2810 0.929 . S
C2808 C2807 1.363 . S
C2808 C2814 1.428 . S
H2809 C2805 0.930 . S
H2810 C2807 0.929 . S
S2811 N2812 1.613 . S
S2811 N2813 1.610 . S
N2812 S2811 1.613 . S
N2812 C2815 1.350 . S
N2813 S2811 1.610 . S
N2813 C2814 1.351 . S
C2814 C2808 1.428 . S
C2814 N2813 1.351 . S
C2814 C2815 1.434 . S
C2815 C2806 1.429 . S
C2815 N2812 1.350 . S
C2815 C2814 1.434 . S
C2816 C2817 1.369 . S
C2816 C2818 1.419 . S
C2816 H2820 0.930 . S
C2817 C2816 1.369 . S
C2817 C2826 1.429 1_545 S
C2818 C2816 1.419 . S
C2818 C2819 1.363 1_545 S
C2818 H2821 0.929 . S
C2819 C2818 1.363 1_565 S
C2819 C2825 1.428 . S
H2820 C2816 0.930 . S
H2821 C2818 0.929 . S
S2822 N2823 1.613 . S
S2822 N2824 1.610 . S
N2823 S2822 1.613 . S
N2823 C2826 1.350 . S
N2824 S2822 1.610 . S
N2824 C2825 1.351 . S
C2825 C2819 1.428 . S
C2825 N2824 1.351 . S
C2825 C2826 1.434 . S
C2826 C2817 1.429 1_565 S
C2826 N2823 1.350 . S
C2826 C2825 1.434 . S
C2827 C2828 1.369 . S
C2827 C2829 1.419 . S
C2827 H2831 0.930 . S
C2828 C2827 1.369 . S
C2828 C2837 1.429 . S
C2829 C2827 1.419 . S
C2829 C2830 1.363 . S
C2829 H2832 0.929 . S
C2830 C2829 1.363 . S
C2830 C2836 1.428 . S
H2831 C2827 0.930 . S
H2832 C2829 0.929 . S
S2833 N2834 1.613 . S
S2833 N2835 1.610 . S
N2834 S2833 1.613 . S
N2834 C2837 1.350 . S
N2835 S2833 1.610 . S
N2835 C2836 1.351 . S
C2836 C2830 1.428 . S
C2836 N2835 1.351 . S
C2836 C2837 1.434 . S
C2837 C2828 1.429 . S
C2837 N2834 1.350 . S
C2837 C2836 1.434 . S
C2838 C2839 1.369 . S
C2838 C2840 1.419 . S
C2838 H2842 0.930 . S
C2839 C2838 1.369 . S
C2839 C2848 1.429 . S
C2840 C2838 1.419 . S
C2840 C2841 1.363 . S
C2840 H2843 0.929 . S
C2841 C2840 1.363 . S
C2841 C2847 1.428 . S
H2842 C2838 0.930 . S
H2843 C2840 0.929 . S
S2844 N2845 1.613 . S
S2844 N2846 1.610 . S
N2845 S2844 1.613 . S
N2845 C2848 1.350 . S
N2846 S2844 1.610 . S
N2846 C2847 1.351 . S
C2847 C2841 1.428 . S
C2847 N2846 1.351 . S
C2847 C2848 1.434 . S
C2848 C2839 1.429 . S
C2848 N2845 1.350 . S
C2848 C2847 1.434 . S
C2849 C2850 1.369 . S
C2849 C2851 1.419 . S
C2849 H2853 0.930 . S
C2850 C2849 1.369 . S
C2850 C2859 1.429 . S
C2851 C2849 1.419 . S
C2851 C2852 1.363 . S
C2851 H2854 0.929 . S
C2852 C2851 1.363 . S
C2852 C2858 1.428 . S
H2853 C2849 0.930 . S
H2854 C2851 0.929 . S
S2855 N2856 1.613 . S
S2855 N2857 1.610 . S
N2856 S2855 1.613 . S
N2856 C2859 1.350 . S
N2857 S2855 1.610 . S
N2857 C2858 1.351 . S
C2858 C2852 1.428 . S
C2858 N2857 1.351 . S
C2858 C2859 1.434 . S
C2859 C2850 1.429 . S
C2859 N2856 1.350 . S
C2859 C2858 1.434 . S
C2860 C2861 1.369 1_556 S
C2860 C2862 1.419 . S
C2860 H2864 0.930 . S
C2861 C2860 1.369 1_554 S
C2861 C2870 1.429 . S
C2862 C2860 1.419 . S
C2862 C2863 1.363 . S
C2862 H2865 0.929 . S
C2863 C2862 1.363 . S
C2863 C2869 1.428 1_556 S
H2864 C2860 0.930 . S
H2865 C2862 0.929 . S
S2866 N2867 1.613 . S
S2866 N2868 1.610 . S
N2867 S2866 1.613 . S
N2867 C2870 1.350 . S
N2868 S2866 1.610 . S
N2868 C2869 1.351 . S
C2869 C2863 1.428 1_554 S
C2869 N2868 1.351 . S
C2869 C2870 1.434 . S
C2870 C2861 1.429 . S
C2870 N2867 1.350 . S
C2870 C2869 1.434 . S
C2871 C2872 1.369 . S
C2871 C2873 1.419 . S
C2871 H2875 0.930 . S
C2872 C2871 1.369 . S
C2872 C2881 1.429 . S
C2873 C2871 1.419 . S
C2873 C2874 1.363 . S
C2873 H2876 0.929 . S
C2874 C2873 1.363 . S
C2874 C2880 1.428 . S
H2875 C2871 0.930 . S
H2876 C2873 0.929 . S
S2877 N2878 1.613 . S
S2877 N2879 1.610 . S
N2878 S2877 1.613 . S
N2878 C2881 1.350 . S
N2879 S2877 1.610 . S
N2879 C2880 1.351 . S
C2880 C2874 1.428 . S
C2880 N2879 1.351 . S
C2880 C2881 1.434 . S
C2881 C2872 1.429 . S
C2881 N2878 1.350 . S
C2881 C2880 1.434 . S
C2882 C2883 1.369 . S
C2882 C2884 1.419 . S
C2882 H2886 0.930 . S
C2883 C2882 1.369 . S
C2883 C2892 1.429 . S
C2884 C2882 1.419 . S
C2884 C2885 1.363 . S
C2884 H2887 0.929 . S
C2885 C2884 1.363 . S
C2885 C2891 1.428 . S
H2886 C2882 0.930 . S
H2887 C2884 0.929 . S
S2888 N2889 1.613 . S
S2888 N2890 1.610 . S
N2889 S2888 1.613 . S
N2889 C2892 1.350 . S
N2890 S2888 1.610 . S
N2890 C2891 1.351 . S
C2891 C2885 1.428 . S
C2891 N2890 1.351 . S
C2891 C2892 1.434 . S
C2892 C2883 1.429 . S
C2892 N2889 1.350 . S
C2892 C2891 1.434 . S
C2893 C2894 1.369 . S
C2893 C2895 1.419 . S
C2893 H2897 0.930 . S
C2894 C2893 1.369 . S
C2894 C2903 1.429 1_565 S
C2895 C2893 1.419 . S
C2895 C2896 1.363 1_565 S
C2895 H2898 0.929 . S
C2896 C2895 1.363 1_545 S
C2896 C2902 1.428 . S
H2897 C2893 0.930 . S
H2898 C2895 0.929 . S
S2899 N2900 1.613 . S
S2899 N2901 1.610 . S
N2900 S2899 1.613 . S
N2900 C2903 1.350 . S
N2901 S2899 1.610 . S
N2901 C2902 1.351 . S
C2902 C2896 1.428 . S
C2902 N2901 1.351 . S
C2902 C2903 1.434 . S
C2903 C2894 1.429 1_545 S
C2903 N2900 1.350 . S
C2903 C2902 1.434 . S
C1585 C7 2.114 . S
C1587 C667 2.114 1_455 S
C1596 C1360 2.113 . S
C1598 C40 2.114 . S
C1607 C1393 2.114 . S
C1609 C73 2.114 . S
C1618 C106 2.113 1_556 S
C1620 C1426 2.114 . S
C1629 C139 2.114 . S
C1631 C1558 2.114 1_455 S
C1640 C700 2.114 . S
C1642 C172 2.114 . S
C1651 C205 2.114 . S
C1653 C1525 2.114 . S
C1662 C238 2.114 1_554 S
C1664 C535 2.113 . S
C1673 C271 2.114 . S
C1675 C502 2.114 1_545 S
C1684 C304 2.113 1_565 S
C1686 C403 2.114 . S
C1695 C436 2.113 1_565 S
C1697 C337 2.114 . S
C1706 C469 2.114 . S
C1708 C370 2.113 1_545 S
C1717 C832 2.114 1_556 S
C1719 C568 2.114 . S
C1728 C601 2.114 1_655 S
C1730 C865 2.113 . S
C1739 C898 2.113 . S
C1741 C634 2.114 . S
C1750 C733 2.113 1_655 S
C1752 C997 2.114 . S
C1761 C766 2.113 . S
C1763 C931 2.114 . S
C1772 C1459 2.114 . S
C1774 C799 2.113 . S
C1783 C1492 2.114 . S
C1785 C964 2.114 1_554 S
C1794 C1030 2.114 . S
C1796 C1327 2.114 . S
C1805 C1294 2.114 . S
C1807 C1063 2.114 . S
C1816 C1195 2.114 . S
C1818 C1096 2.114 . S
C1827 C1129 2.113 . S
C1829 C1228 2.114 . S
C1838 C1162 2.114 . S
C1840 C1261 2.114 . S
C1849 N541 1.514 . S
C1851 C18 1.334 . S
C1860 N1564 1.517 . S
C1862 C51 1.326 . S
C1871 N706 1.517 . S
C1873 C84 1.329 . S
C1882 C117 1.330 1_556 S
C1884 N1531 1.516 . S
C1893 N1366 1.517 . S
C1895 C150 1.328 . S
C1904 C183 1.327 . S
C1906 N1399 1.517 . S
C1915 N1432 1.514 . S
C1917 C216 1.334 . S
C1926 C249 1.322 1_554 S
C1928 N673 1.517 . S
C1937 C282 1.330 . S
C1939 N13 1.514 . S
C1948 N46 1.517 . S
C1950 C315 1.324 1_565 S
C1959 N79 1.515 . S
C1961 C348 1.325 . S
C1970 N112 1.517 . S
C1972 C381 1.321 1_545 S
C1981 C414 1.336 . S
C1983 N145 1.515 . S
C1992 C447 1.335 1_565 S
C1994 N178 1.514 . S
C2003 C480 1.319 . S
C2005 N211 1.516 . S
C2014 C513 1.328 1_545 S
C2016 N244 1.517 . S
C2025 N277 1.517 . S
C2027 C546 1.322 . S
C2036 C579 1.324 . S
C2038 N1201 1.515 . S
C2047 C612 1.328 1_655 S
C2049 N1234 1.517 . S
C2058 N1267 1.514 . S
C2060 C645 1.327 . S
C2069 C678 1.336 1_455 S
C2071 N508 1.514 . S
C2080 C711 1.321 . S
C2082 N343 1.516 . S
C2091 N1168 1.514 . S
C2093 C744 1.334 1_655 S
C2102 C777 1.332 . S
C2104 N1102 1.514 . S
C2113 C810 1.319 . S
C2115 N1333 1.516 . S
C2124 C843 1.324 1_556 S
C2126 N772 1.517 . S
C2135 C876 1.331 . S
C2137 N1498 1.514 . S
C2146 C909 1.334 . S
C2148 N739 1.515 . S
C2157 N574 1.514 . S
C2159 C942 1.334 . S
C2168 C975 1.331 1_554 S
C2170 N607 1.516 . S
C2179 C1008 1.329 . S
C2181 N640 1.516 . S
C2190 C1041 1.330 . S
C2192 N1465 1.516 . S
C2201 N805 1.513 . S
C2203 C1074 1.333 . S
C2212 C1107 1.330 . S
C2214 N838 1.514 . S
C2223 N871 1.515 . S
C2225 C1140 1.334 . S
C2234 N904 1.517 . S
C2236 C1173 1.324 . S
C2245 N937 1.514 . S
C2247 C1206 1.329 . S
C2256 N970 1.514 . S
C2258 C1239 1.331 . S
C2267 C1272 1.334 . S
C2269 N1003 1.514 . S
C2278 C1305 1.319 . S
C2280 N1036 1.517 . S
C2289 N1069 1.516 . S
C2291 C1338 1.323 . S
C2300 C1371 1.329 . S
C2302 N409 1.514 . S
C2311 C1404 1.334 . S
C2313 N442 1.515 . S
C2322 C1437 1.321 . S
C2324 N475 1.516 . S
C2333 N1300 1.513 . S
C2335 C1470 1.332 . S
C2344 N1135 1.514 . S
C2346 C1503 1.331 . S
C2355 N376 1.516 . S
C2357 C1536 1.322 . S
C2366 C1569 1.336 1_455 S
C2368 N310 1.514 . S
C2377 C318 1.449 . S
C2379 C21 1.450 . S
C2388 C351 1.456 . S
C2390 C54 1.455 . S
C2399 C87 1.447 . S
C2401 C384 1.449 . S
C2410 C120 1.448 . S
C2412 C285 1.449 . S
C2421 C153 1.453 . S
C2423 C516 1.453 . S
C2432 C417 1.456 . S
C2434 C186 1.455 . S
C2443 C450 1.453 . S
C2445 C219 1.453 . S
C2454 C252 1.449 . S
C2456 C483 1.450 . S
C2465 C549 1.451 . S
C2467 C615 1.451 . S
C2476 C1539 1.455 . S
C2478 C582 1.454 . S
C2487 C1572 1.448 . S
C2489 C648 1.449 . S
C2498 C1506 1.448 . S
C2500 C681 1.449 . S
C2509 C714 1.454 . S
C2511 C1473 1.454 . S
C2520 C1374 1.449 . S
C2522 C747 1.449 . S
C2531 C1440 1.455 . S
C2533 C780 1.454 . S
C2542 C1110 1.456 . S
C2544 C813 1.455 . S
C2553 C1143 1.454 . S
C2555 C846 1.454 . S
C2564 C879 1.454 . S
C2566 C1176 1.453 . S
C2575 C1077 1.454 . S
C2577 C912 1.454 . S
C2586 C1308 1.450 . S
C2588 C945 1.450 . S
C2597 C978 1.454 . S
C2599 C1209 1.454 . S
C2608 C1242 1.456 . S
C2610 C1011 1.455 . S
C2619 C1044 1.450 . S
C2621 C1275 1.450 . S
C2630 C1341 1.454 . S
C2632 C1407 1.453 . S
C2641 N860 1.452 . S
C2643 N2 1.456 . S
C2652 N35 1.460 . S
C2654 N893 1.455 . S
C2663 N794 1.455 . S
C2665 N68 1.459 . S
C2674 N827 1.457 . S
C2676 N101 1.453 . S
C2685 N992 1.457 . S
C2687 N134 1.453 . S
C2696 N1025 1.452 . S
C2698 N167 1.459 . S
C2707 N926 1.460 . S
C2709 N200 1.455 . S
C2718 N233 1.458 . S
C2720 N959 1.453 . S
C2729 N266 1.460 . S
C2731 N398 1.454 . S
C2740 N299 1.460 . S
C2742 N431 1.457 . S
C2751 N332 1.460 . S
C2753 N464 1.454 . S
C2762 N365 1.460 . S
C2764 N497 1.455 . S
C2773 N1421 1.460 . S
C2775 N530 1.454 . S
C2784 N1487 1.459 . S
C2786 N563 1.453 . S
C2795 N596 1.452 . S
C2797 N728 1.458 . S
C2806 N1322 1.459 . S
C2808 N629 1.458 . S
C2817 N662 1.452 . S
C2819 N1553 1.458 . S
C2828 N695 1.458 . S
C2830 N1355 1.459 . S
C2839 N761 1.460 . S
C2841 N1454 1.455 . S
C2850 N1058 1.460 . S
C2852 N1190 1.456 . S
C2861 N1223 1.458 . S
C2863 N1091 1.453 . S
C2872 N1256 1.452 . S
C2874 N1124 1.455 . S
C2883 N1157 1.454 . S
C2885 N1289 1.459 . S
C2894 N1388 1.452 . S
C2896 N1520 1.459 . S
