# Generated by pormake.
# Topology pcb, (4)-cn, num edge types: 1
# Building blocks:
#     Node 0, Type 0, BuildingBlock: QUQFOY_clean_sbu_1, # of connection points: 4
#     Node 1, Type 0, BuildingBlock: QUQFOY_clean_sbu_1, # of connection points: 4
#     Node 2, Type 0, BuildingBlock: QUQFOY_clean_sbu_1, # of connection points: 4
#     Node 3, Type 0, BuildingBlock: QUQFOY_clean_sbu_1, # of connection points: 4
#     Node 4, Type 0, BuildingBlock: QUQFOY_clean_sbu_1, # of connection points: 4
#     Node 5, Type 0, BuildingBlock: QUQFOY_clean_sbu_1, # of connection points: 4
#     Node 6, Type 0, BuildingBlock: QUQFOY_clean_sbu_1, # of connection points: 4
#     Node 7, Type 0, BuildingBlock: QUQFOY_clean_sbu_1, # of connection points: 4
#     Node 8, Type 0, BuildingBlock: QUQFOY_clean_sbu_1, # of connection points: 4
#     Node 9, Type 0, BuildingBlock: QUQFOY_clean_sbu_1, # of connection points: 4
#     Node 10, Type 0, BuildingBlock: QUQFOY_clean_sbu_1, # of connection points: 4
#     Node 11, Type 0, BuildingBlock: QUQFOY_clean_sbu_1, # of connection points: 4
#     Node 12, Type 0, BuildingBlock: QUQFOY_clean_sbu_1, # of connection points: 4
#     Node 13, Type 0, BuildingBlock: QUQFOY_clean_sbu_1, # of connection points: 4
#     Node 14, Type 0, BuildingBlock: QUQFOY_clean_sbu_1, # of connection points: 4
#     Node 15, Type 0, BuildingBlock: QUQFOY_clean_sbu_1, # of connection points: 4
#     Edge 16, Type (0, 0), BuildingBlock: XUDNAN_clean_linker_2, # of connection points: 2
#     Edge 17, Type (0, 0), BuildingBlock: XUDNAN_clean_linker_2, # of connection points: 2
#     Edge 18, Type (0, 0), BuildingBlock: XUDNAN_clean_linker_2, # of connection points: 2
#     Edge 19, Type (0, 0), BuildingBlock: XUDNAN_clean_linker_2, # of connection points: 2
#     Edge 20, Type (0, 0), BuildingBlock: XUDNAN_clean_linker_2, # of connection points: 2
#     Edge 21, Type (0, 0), BuildingBlock: XUDNAN_clean_linker_2, # of connection points: 2
#     Edge 22, Type (0, 0), BuildingBlock: XUDNAN_clean_linker_2, # of connection points: 2
#     Edge 23, Type (0, 0), BuildingBlock: XUDNAN_clean_linker_2, # of connection points: 2
#     Edge 24, Type (0, 0), BuildingBlock: XUDNAN_clean_linker_2, # of connection points: 2
#     Edge 25, Type (0, 0), BuildingBlock: XUDNAN_clean_linker_2, # of connection points: 2
#     Edge 26, Type (0, 0), BuildingBlock: XUDNAN_clean_linker_2, # of connection points: 2
#     Edge 27, Type (0, 0), BuildingBlock: XUDNAN_clean_linker_2, # of connection points: 2
#     Edge 28, Type (0, 0), BuildingBlock: XUDNAN_clean_linker_2, # of connection points: 2
#     Edge 29, Type (0, 0), BuildingBlock: XUDNAN_clean_linker_2, # of connection points: 2
#     Edge 30, Type (0, 0), BuildingBlock: XUDNAN_clean_linker_2, # of connection points: 2
#     Edge 31, Type (0, 0), BuildingBlock: XUDNAN_clean_linker_2, # of connection points: 2
#     Edge 32, Type (0, 0), BuildingBlock: XUDNAN_clean_linker_2, # of connection points: 2
#     Edge 33, Type (0, 0), BuildingBlock: XUDNAN_clean_linker_2, # of connection points: 2
#     Edge 34, Type (0, 0), BuildingBlock: XUDNAN_clean_linker_2, # of connection points: 2
#     Edge 35, Type (0, 0), BuildingBlock: XUDNAN_clean_linker_2, # of connection points: 2
#     Edge 36, Type (0, 0), BuildingBlock: XUDNAN_clean_linker_2, # of connection points: 2
#     Edge 37, Type (0, 0), BuildingBlock: XUDNAN_clean_linker_2, # of connection points: 2
#     Edge 38, Type (0, 0), BuildingBlock: XUDNAN_clean_linker_2, # of connection points: 2
#     Edge 39, Type (0, 0), BuildingBlock: XUDNAN_clean_linker_2, # of connection points: 2
#     Edge 40, Type (0, 0), BuildingBlock: XUDNAN_clean_linker_2, # of connection points: 2
#     Edge 41, Type (0, 0), BuildingBlock: XUDNAN_clean_linker_2, # of connection points: 2
#     Edge 42, Type (0, 0), BuildingBlock: XUDNAN_clean_linker_2, # of connection points: 2
#     Edge 43, Type (0, 0), BuildingBlock: XUDNAN_clean_linker_2, # of connection points: 2
#     Edge 44, Type (0, 0), BuildingBlock: XUDNAN_clean_linker_2, # of connection points: 2
#     Edge 45, Type (0, 0), BuildingBlock: XUDNAN_clean_linker_2, # of connection points: 2
#     Edge 46, Type (0, 0), BuildingBlock: XUDNAN_clean_linker_2, # of connection points: 2
#     Edge 47, Type (0, 0), BuildingBlock: XUDNAN_clean_linker_2, # of connection points: 2
# Relax obj value: 0.297
# Max RMSD: 0.246
# Mean RMSD: 0.192
data_MOF--net-pcb--node1-QUQFOY_clean_sbu_1--edge1-XUDNAN_clean_linker_2
_symmetry_space_group_name_H-M    P1
_symmetry_Int_Tables_number       1
_symmetry_cell_setting            triclinic
loop_
_symmetry_equiv_pos_as_xyz
'x, y, z'
_cell_length_a     45.682356
_cell_length_b     48.96251
_cell_length_c     49.285839
_cell_angle_alpha  94.443274
_cell_angle_beta   93.533353
_cell_angle_gamma 97.287726
loop_
_atom_site_label
_atom_site_type_symbol
_atom_site_fract_x
_atom_site_fract_y
_atom_site_fract_z
_atom_type_partial_charge
O0 O 0.10617 0.13367 0.15473 0.0
Cd1 Cd 0.14966 0.13623 0.1683 0.0
Cd2 Cd 0.15167 0.10738 0.11522 0.0
O3 O 0.10706 0.11146 0.11418 0.0
O4 O 0.151 0.15998 0.20262 0.0
O5 O 0.1759 0.17233 0.16742 0.0
C6 C 0.16886 0.17797 0.19202 0.0
C7 C 0.17177 0.10782 0.07296 0.0
C8 C 0.09304 0.12318 0.13221 0.0
C9 C 0.17466 0.08276 0.16631 0.0
O10 O 0.17041 0.08183 0.14054 0.0
O11 O 0.167 0.10241 0.18137 0.0
O12 O 0.15491 0.0867 0.07965 0.0
O13 O 0.17719 0.1293 0.09031 0.0
O14 O 0.83141 0.14205 0.18635 0.0
Cd15 Cd 0.84528 0.17821 0.16964 0.0
Cd16 Cd 0.8215 0.15092 0.12456 0.0
O17 O 0.7987 0.12775 0.15185 0.0
O18 O 0.84424 0.20986 0.19697 0.0
O19 O 0.81279 0.19998 0.16012 0.0
C20 C 0.82095 0.21474 0.18288 0.0
C21 C 0.80051 0.15695 0.08134 0.0
C22 C 0.80942 0.12526 0.17585 0.0
C23 C 0.88811 0.16177 0.13324 0.0
O24 O 0.86557 0.1465 0.12166 0.0
O25 O 0.88501 0.17999 0.15223 0.0
O26 O 0.80554 0.13308 0.08824 0.0
O27 O 0.8049 0.17741 0.09993 0.0
O28 O 0.89313 0.89674 0.21012 0.0
Cd29 Cd 0.85084 0.89729 0.22086 0.0
Cd30 Cd 0.83452 0.90181 0.16569 0.0
O31 O 0.87952 0.89841 0.16662 0.0
O32 O 0.84004 0.87021 0.24749 0.0
O33 O 0.82271 0.8653 0.20394 0.0
C34 C 0.82396 0.85571 0.22764 0.0
C35 C 0.81167 0.89248 0.12178 0.0
C36 C 0.89939 0.89652 0.18539 0.0
C37 C 0.81883 0.94341 0.21145 0.0
O38 O 0.81569 0.93225 0.18716 0.0
O39 O 0.83502 0.93418 0.22947 0.0
O40 O 0.82837 0.91528 0.12924 0.0
O41 O 0.80792 0.87427 0.13926 0.0
O42 O 0.17981 0.88453 0.21032 0.0
Cd43 Cd 0.15582 0.84605 0.20306 0.0
Cd44 Cd 0.16211 0.85313 0.14894 0.0
O45 O 0.18818 0.88799 0.16711 0.0
O46 O 0.16111 0.82587 0.23593 0.0
O47 O 0.17642 0.81298 0.19558 0.0
C48 C 0.17424 0.80897 0.22106 0.0
C49 C 0.17668 0.83752 0.1061 0.0
C50 C 0.19149 0.89797 0.19186 0.0
C51 C 0.10043 0.84948 0.16986 0.0
O52 O 0.11687 0.85266 0.15015 0.0
O53 O 0.11145 0.84541 0.19326 0.0
O54 O 0.16644 0.86061 0.1102 0.0
O55 O 0.17891 0.8228 0.12655 0.0
O56 O 0.16891 0.78518 0.89446 0.0
Cd57 Cd 0.14953 0.78161 0.85528 0.0
Cd58 Cd 0.14688 0.83624 0.86331 0.0
O59 O 0.16803 0.83024 0.90037 0.0
O60 O 0.16687 0.75619 0.82924 0.0
O61 O 0.17119 0.80172 0.82755 0.0
C62 C 0.17676 0.77792 0.81754 0.0
C63 C 0.15685 0.87881 0.84471 0.0
C64 C 0.17423 0.80783 0.90945 0.0
C65 C 0.08946 0.79622 0.85289 0.0
O66 O 0.10276 0.82072 0.85705 0.0
O67 O 0.10409 0.77587 0.85126 0.0
O68 O 0.14268 0.87629 0.86632 0.0
O69 O 0.1671 0.85738 0.83418 0.0
O70 O 0.13333 0.17584 0.83704 0.0
Cd71 Cd 0.17607 0.16741 0.83949 0.0
Cd72 Cd 0.14918 0.11364 0.82674 0.0
O73 O 0.11421 0.1352 0.8168 0.0
O74 O 0.2004 0.20267 0.83483 0.0
O75 O 0.19713 0.16588 0.80499 0.0
C76 C 0.20733 0.19148 0.81196 0.0
C77 C 0.14781 0.0683 0.8072 0.0
C78 C 0.1115 0.15998 0.825 0.0
C79 C 0.1828 0.1311 0.88273 0.0
O80 O 0.16521 0.11389 0.86693 0.0
O81 O 0.19196 0.15471 0.87539 0.0
O82 O 0.12823 0.07542 0.82297 0.0
O83 O 0.16724 0.08758 0.80037 0.0
O84 O 0.88601 0.1577 0.79404 0.0
Cd85 Cd 0.84117 0.14499 0.792 0.0
Cd86 Cd 0.8496 0.14894 0.84693 0.0
O87 O 0.8897 0.16985 0.83837 0.0
O88 O 0.81912 0.16283 0.76381 0.0
O89 O 0.81625 0.17121 0.80849 0.0
C90 C 0.80858 0.1762 0.78386 0.0
C91 C 0.83138 0.16043 0.88922 0.0
C92 C 0.90112 0.16879 0.81549 0.0
C93 C 0.83302 0.09209 0.81426 0.0
O94 O 0.84218 0.10682 0.83624 0.0
O95 O 0.82821 0.10339 0.7924 0.0
O96 O 0.85401 0.14747 0.88716 0.0
O97 O 0.81936 0.16818 0.86723 0.0
O98 O 0.86114 0.79928 0.88371 0.0
Cd99 Cd 0.81924 0.80936 0.88464 0.0
Cd100 Cd 0.84255 0.86198 0.88051 0.0
O101 O 0.87926 0.84151 0.87549 0.0
O102 O 0.79101 0.7802 0.86403 0.0
O103 O 0.80331 0.82198 0.85005 0.0
C104 C 0.78893 0.7974 0.84559 0.0
C105 C 0.8395 0.90086 0.85634 0.0
C106 C 0.88268 0.81642 0.87812 0.0
C107 C 0.80872 0.84723 0.93035 0.0
O108 O 0.82336 0.86516 0.9174 0.0
O109 O 0.80411 0.82209 0.92102 0.0
O110 O 0.85808 0.90122 0.87712 0.0
O111 O 0.82302 0.8779 0.84844 0.0
O112 O 0.62044 0.65457 0.65729 0.0
Cd113 Cd 0.6643 0.64906 0.65814 0.0
Cd114 Cd 0.64376 0.62526 0.60633 0.0
O115 O 0.60365 0.63696 0.61599 0.0
O116 O 0.67533 0.66415 0.69601 0.0
O117 O 0.69407 0.68371 0.66092 0.0
C118 C 0.69217 0.68392 0.68695 0.0
C119 C 0.66197 0.6373 0.56551 0.0
C120 C 0.59947 0.64914 0.63883 0.0
C121 C 0.67244 0.58956 0.6437 0.0
O122 O 0.65788 0.59068 0.62114 0.0
O123 O 0.67784 0.61073 0.66063 0.0
O124 O 0.64125 0.61697 0.56641 0.0
O125 O 0.67223 0.65142 0.58809 0.0
O126 O 0.32358 0.64519 0.68373 0.0
Cd127 Cd 0.3365 0.68423 0.67248 0.0
Cd128 Cd 0.33296 0.65775 0.62207 0.0
O129 O 0.31191 0.62608 0.6419 0.0
O130 O 0.32728 0.7094 0.70315 0.0
O131 O 0.30467 0.70676 0.6616 0.0
C132 C 0.3074 0.71699 0.68673 0.0
C133 C 0.31857 0.66024 0.57594 0.0
C134 C 0.31272 0.62446 0.66754 0.0
C135 C 0.39339 0.68231 0.6483 0.0
O136 O 0.37822 0.66631 0.62964 0.0
O137 O 0.38065 0.69423 0.66714 0.0
O138 O 0.33144 0.64025 0.58428 0.0
O139 O 0.31244 0.67869 0.5941 0.0
O140 O 0.38417 0.38004 0.71511 0.0
Cd141 Cd 0.33982 0.38271 0.7135 0.0
Cd142 Cd 0.34691 0.3911 0.65751 0.0
O143 O 0.38757 0.38046 0.6707 0.0
O144 O 0.3238 0.36116 0.7426 0.0
O145 O 0.313 0.3487 0.69847 0.0
C146 C 0.31047 0.34348 0.72361 0.0
C147 C 0.33795 0.38655 0.61012 0.0
C148 C 0.39903 0.37774 0.69434 0.0
C149 C 0.32266 0.43454 0.6965 0.0
O150 O 0.33008 0.42563 0.67339 0.0
O151 O 0.32509 0.42059 0.71694 0.0
O152 O 0.35692 0.40579 0.62247 0.0
O153 O 0.32429 0.36883 0.62461 0.0
O154 O 0.68722 0.38509 0.68774 0.0
Cd155 Cd 0.66739 0.34583 0.69253 0.0
Cd156 Cd 0.64913 0.34417 0.6377 0.0
O157 O 0.67062 0.38384 0.64469 0.0
O158 O 0.68405 0.33639 0.72816 0.0
O159 O 0.68911 0.31273 0.68895 0.0
C160 C 0.69388 0.31596 0.7152 0.0
C161 C 0.65503 0.32456 0.59375 0.0
C162 C 0.68465 0.39685 0.66582 0.0
C163 C 0.6019 0.33797 0.67744 0.0
O164 O 0.6078 0.33729 0.65255 0.0
O165 O 0.62257 0.34127 0.6963 0.0
O166 O 0.63908 0.34407 0.59793 0.0
O167 O 0.66706 0.31504 0.6148 0.0
O168 O 0.6604 0.27331 0.38015 0.0
Cd169 Cd 0.64723 0.27139 0.33923 0.0
Cd170 Cd 0.64085 0.32549 0.34707 0.0
O171 O 0.655 0.31751 0.38602 0.0
O172 O 0.66923 0.24841 0.3148 0.0
O173 O 0.67316 0.29426 0.31629 0.0
C174 C 0.68068 0.27132 0.30601 0.0
C175 C 0.65298 0.37076 0.33483 0.0
C176 C 0.66132 0.29543 0.39569 0.0
C177 C 0.58681 0.28395 0.32747 0.0
O178 O 0.59858 0.30885 0.33288 0.0
O179 O 0.60236 0.26435 0.32907 0.0
O180 O 0.63462 0.3649 0.35292 0.0
O181 O 0.6656 0.35092 0.32398 0.0
O182 O 0.62789 0.67288 0.30567 0.0
Cd183 Cd 0.67174 0.67185 0.31741 0.0
Cd184 Cd 0.65064 0.61437 0.32131 0.0
O185 O 0.61197 0.62868 0.30858 0.0
O186 O 0.69057 0.70933 0.31175 0.0
O187 O 0.70128 0.67171 0.28862 0.0
C188 C 0.70551 0.69824 0.2936 0.0
C189 C 0.65356 0.56726 0.31054 0.0
C190 C 0.60711 0.65285 0.3036 0.0
C191 C 0.67958 0.64945 0.37191 0.0
O192 O 0.66727 0.62637 0.36057 0.0
O193 O 0.6837 0.67033 0.35825 0.0
O194 O 0.6349 0.57565 0.32666 0.0
O195 O 0.67022 0.58574 0.29924 0.0
O196 O 0.37653 0.6556 0.27876 0.0
Cd197 Cd 0.33233 0.6404 0.27928 0.0
Cd198 Cd 0.34413 0.63993 0.33367 0.0
O199 O 0.38539 0.65581 0.32335 0.0
O200 O 0.30716 0.65783 0.25326 0.0
O201 O 0.30604 0.66365 0.29836 0.0
C202 C 0.29637 0.66905 0.2744 0.0
C203 C 0.33215 0.65222 0.37835 0.0
C204 C 0.39436 0.65996 0.29993 0.0
C205 C 0.32454 0.58537 0.29893 0.0
O206 O 0.33231 0.59871 0.32191 0.0
O207 O 0.32187 0.59802 0.27756 0.0
O208 O 0.35225 0.63681 0.37332 0.0
O209 O 0.31893 0.66165 0.3579 0.0
O210 O 0.36208 0.29132 0.35751 0.0
Cd211 Cd 0.32273 0.30476 0.36641 0.0
Cd212 Cd 0.34785 0.35544 0.35564 0.0
O213 O 0.38011 0.33168 0.34418 0.0
O214 O 0.28814 0.27826 0.35123 0.0
O215 O 0.30172 0.31876 0.33511 0.0
C216 C 0.28424 0.29573 0.33339 0.0
C217 C 0.34131 0.39371 0.33143 0.0
C218 C 0.38246 0.30646 0.34724 0.0
C219 C 0.32742 0.34637 0.41275 0.0
O220 O 0.33991 0.36204 0.39628 0.0
O221 O 0.31791 0.32131 0.40509 0.0
O222 O 0.36415 0.39342 0.348 0.0
O223 O 0.32241 0.37164 0.32753 0.0
H224 H 0.2355 0.25725 0.33031 0.0
H225 H 0.28465 0.3166 0.28363 0.0
H226 H 0.2542 0.29707 0.24183 0.0
H227 H 0.23254 0.20225 0.28568 0.0
H228 H 0.19551 0.18677 0.29061 0.0
H229 H 0.21633 0.20909 0.31755 0.0
H230 H 0.17467 0.2404 0.31936 0.0
H231 H 0.15339 0.21788 0.29254 0.0
H232 H 0.16175 0.25429 0.28867 0.0
H233 H 0.2267 0.26444 0.2043 0.0
H234 H 0.20067 0.22427 0.1749 0.0
H235 H 0.16767 0.18834 0.24665 0.0
C236 C 0.2391 0.26674 0.31145 0.0
C237 C 0.26232 0.28829 0.31006 0.0
C238 C 0.26672 0.30015 0.28509 0.0
C239 C 0.24954 0.28921 0.26125 0.0
C240 C 0.22765 0.26699 0.26302 0.0
C241 C 0.22187 0.25637 0.28766 0.0
C242 C 0.19924 0.23084 0.28384 0.0
C243 C 0.21168 0.20579 0.29506 0.0
C244 C 0.17055 0.23619 0.29687 0.0
C245 C 0.19473 0.22762 0.2531 0.0
C246 C 0.21096 0.2488 0.24137 0.0
C247 C 0.21313 0.24821 0.21321 0.0
C248 C 0.19848 0.22527 0.1967 0.0
C249 C 0.18197 0.20341 0.20853 0.0
C250 C 0.17962 0.20503 0.23697 0.0
H251 H 0.68201 0.23209 0.26401 0.0
H252 H 0.7279 0.31024 0.30108 0.0
H253 H 0.76672 0.30786 0.26836 0.0
H254 H 0.74268 0.19904 0.25279 0.0
H255 H 0.72869 0.18157 0.22015 0.0
H256 H 0.70335 0.19114 0.24455 0.0
H257 H 0.67807 0.21836 0.20877 0.0
H258 H 0.70354 0.20895 0.18424 0.0
H259 H 0.70003 0.24483 0.19259 0.0
H260 H 0.80462 0.2922 0.23771 0.0
H261 H 0.83619 0.26656 0.2086 0.0
H262 H 0.76261 0.20202 0.18746 0.0
C263 C 0.70001 0.2489 0.26488 0.0
C264 C 0.70224 0.27124 0.28504 0.0
C265 C 0.72589 0.29298 0.28564 0.0
C266 C 0.74795 0.29182 0.26714 0.0
C267 C 0.7454 0.26922 0.24771 0.0
C268 C 0.72166 0.24846 0.24608 0.0
C269 C 0.72465 0.22587 0.2241 0.0
C270 C 0.72487 0.19777 0.23613 0.0
C271 C 0.70011 0.22443 0.20106 0.0
C272 C 0.75452 0.23641 0.21457 0.0
C273 C 0.7662 0.26147 0.2284 0.0
C274 C 0.79532 0.27315 0.22596 0.0
C275 C 0.81308 0.25854 0.20943 0.0
C276 C 0.80135 0.23297 0.19516 0.0
C277 C 0.77155 0.22222 0.19718 0.0
H278 H 0.80665 0.83807 0.2758 0.0
H279 H 0.80419 0.81274 0.1893 0.0
H280 H 0.77725 0.76719 0.19725 0.0
H281 H 0.81488 0.77161 0.3012 0.0
H282 H 0.79077 0.77647 0.32827 0.0
H283 H 0.81203 0.80594 0.31596 0.0
H284 H 0.76396 0.82766 0.30605 0.0
H285 H 0.74264 0.7984 0.31852 0.0
H286 H 0.73389 0.80802 0.28468 0.0
H287 H 0.75 0.72437 0.21516 0.0
H288 H 0.71961 0.69059 0.24047 0.0
H289 H 0.73792 0.74615 0.31411 0.0
C290 C 0.80073 0.82283 0.25857 0.0
C291 C 0.80765 0.8287 0.23201 0.0
C292 C 0.79904 0.80852 0.20985 0.0
C293 C 0.78395 0.78258 0.21419 0.0
C294 C 0.77748 0.77741 0.24074 0.0
C295 C 0.7853 0.79716 0.26247 0.0
C296 C 0.77379 0.78751 0.28863 0.0
C297 C 0.7994 0.78524 0.30976 0.0
C298 C 0.75229 0.80652 0.30013 0.0
C299 C 0.75793 0.75937 0.27824 0.0
C300 C 0.76077 0.75356 0.25071 0.0
C301 C 0.74765 0.72871 0.23673 0.0
C302 C 0.73059 0.70963 0.25121 0.0
C303 C 0.72647 0.71599 0.27908 0.0
C304 C 0.74069 0.74092 0.29274 0.0
H305 H 0.27774 0.69025 0.22755 0.0
H306 H 0.26509 0.69133 0.31421 0.0
H307 H 0.2295 0.72491 0.3092 0.0
H308 H 0.27721 0.76152 0.22288 0.0
H309 H 0.25798 0.75781 0.18948 0.0
H310 H 0.28043 0.7321 0.19941 0.0
H311 H 0.23548 0.69399 0.18865 0.0
H312 H 0.21286 0.71962 0.17865 0.0
H313 H 0.20153 0.69739 0.20465 0.0
H314 H 0.19756 0.76013 0.2953 0.0
H315 H 0.17242 0.79549 0.27377 0.0
H316 H 0.20644 0.77179 0.19626 0.0
C317 C 0.26718 0.69724 0.24542 0.0
C318 C 0.27405 0.68809 0.27125 0.0
C319 C 0.26009 0.69803 0.29421 0.0
C320 C 0.23979 0.71703 0.29156 0.0
C321 C 0.23374 0.72583 0.26583 0.0
C322 C 0.24702 0.71628 0.24317 0.0
C323 C 0.23798 0.73018 0.21816 0.0
C324 C 0.26501 0.74637 0.20683 0.0
C325 C 0.22095 0.70903 0.19624 0.0
C326 C 0.21792 0.7494 0.2304 0.0
C327 C 0.21554 0.74637 0.25785 0.0
C328 C 0.19906 0.76255 0.27377 0.0
C329 C 0.18489 0.7826 0.26134 0.0
C330 C 0.18743 0.78637 0.23332 0.0
C331 C 0.20391 0.76928 0.21766 0.0
H332 H 0.25571 0.69666 0.7046 0.0
H333 H 0.31221 0.77305 0.69669 0.0
H334 H 0.27985 0.7987 0.72503 0.0
H335 H 0.18334 0.7259 0.70888 0.0
H336 H 0.1718 0.70293 0.7342 0.0
H337 H 0.19518 0.69212 0.70836 0.0
H338 H 0.23324 0.68179 0.74613 0.0
H339 H 0.21033 0.69293 0.77205 0.0
H340 H 0.24815 0.70883 0.77206 0.0
H341 H 0.2452 0.81453 0.75903 0.0
H342 H 0.21259 0.81922 0.79688 0.0
H343 H 0.18113 0.73145 0.78453 0.0
C344 C 0.26034 0.71897 0.70786 0.0
C345 C 0.28559 0.73324 0.69792 0.0
C346 C 0.29227 0.76213 0.70359 0.0
C347 C 0.27408 0.77674 0.71966 0.0
C348 C 0.24964 0.76193 0.72995 0.0
C349 C 0.24272 0.73365 0.72416 0.0
C350 C 0.21799 0.72191 0.74063 0.0
C351 C 0.19044 0.71002 0.72189 0.0
C352 C 0.22805 0.7001 0.75879 0.0
C353 C 0.21282 0.74775 0.75744 0.0
C354 C 0.23073 0.77075 0.75056 0.0
C355 C 0.23081 0.79673 0.76433 0.0
C356 C 0.21229 0.79917 0.78582 0.0
C357 C 0.19447 0.77566 0.79364 0.0
C358 C 0.19454 0.74976 0.779 0.0
H359 H 0.24066 0.241 0.82593 0.0
H360 H 0.21291 0.18067 0.75706 0.0
H361 H 0.23719 0.21275 0.72619 0.0
H362 H 0.2278 0.29946 0.79361 0.0
H363 H 0.25952 0.32139 0.81027 0.0
H364 H 0.2423 0.29278 0.82696 0.0
H365 H 0.29232 0.27317 0.83197 0.0
H366 H 0.30985 0.30199 0.81568 0.0
H367 H 0.31238 0.26716 0.80217 0.0
H368 H 0.2612 0.25376 0.70267 0.0
H369 H 0.28629 0.2981 0.68928 0.0
H370 H 0.29767 0.33012 0.77442 0.0
C371 C 0.24003 0.2343 0.80441 0.0
C372 C 0.22492 0.20843 0.79382 0.0
C373 C 0.2246 0.20039 0.76556 0.0
C374 C 0.23818 0.21851 0.7479 0.0
C375 C 0.25217 0.2443 0.75899 0.0
C376 C 0.25352 0.25193 0.78668 0.0
C377 C 0.2691 0.28091 0.79365 0.0
C378 C 0.24844 0.29973 0.80689 0.0
C379 C 0.29761 0.28079 0.81194 0.0
C380 C 0.27586 0.28873 0.76549 0.0
C381 C 0.26601 0.26746 0.74568 0.0
C382 C 0.26924 0.27045 0.71806 0.0
C383 C 0.28333 0.29572 0.71064 0.0
C384 C 0.29395 0.3175 0.73083 0.0
C385 C 0.28992 0.31385 0.7585 0.0
H386 H 0.78831 0.19147 0.73445 0.0
H387 H 0.78517 0.20911 0.82189 0.0
H388 H 0.75483 0.24629 0.81363 0.0
H389 H 0.7949 0.26112 0.71755 0.0
H390 H 0.77181 0.25369 0.68619 0.0
H391 H 0.79231 0.22767 0.69882 0.0
H392 H 0.74383 0.19367 0.69788 0.0
H393 H 0.72318 0.21955 0.68511 0.0
H394 H 0.7132 0.20395 0.71577 0.0
H395 H 0.72687 0.28263 0.79612 0.0
H396 H 0.70127 0.31493 0.77043 0.0
H397 H 0.72196 0.2734 0.69424 0.0
C398 C 0.78104 0.20299 0.75187 0.0
C399 C 0.78908 0.19739 0.77882 0.0
C400 C 0.77923 0.213 0.80106 0.0
C401 C 0.76202 0.23417 0.79659 0.0
C402 C 0.75478 0.23936 0.76978 0.0
C403 C 0.7638 0.22414 0.74778 0.0
C404 C 0.75331 0.23422 0.72102 0.0
C405 C 0.77966 0.2448 0.70496 0.0
C406 C 0.73212 0.21149 0.70395 0.0
C407 C 0.73721 0.25765 0.73145 0.0
C408 C 0.73836 0.26024 0.75963 0.0
C409 C 0.72566 0.28072 0.77404 0.0
C410 C 0.71124 0.29901 0.75924 0.0
C411 C 0.70959 0.29665 0.73033 0.0
C412 C 0.72276 0.27565 0.71632 0.0
H413 H 0.74795 0.75218 0.83432 0.0
H414 H 0.79378 0.82136 0.79729 0.0
H415 H 0.77199 0.80119 0.75176 0.0
H416 H 0.75929 0.70132 0.78566 0.0
H417 H 0.72364 0.68102 0.78659 0.0
H418 H 0.73969 0.70265 0.81628 0.0
H419 H 0.69306 0.72784 0.81751 0.0
H420 H 0.67659 0.70592 0.78805 0.0
H421 H 0.68029 0.74296 0.78749 0.0
H422 H 0.74953 0.76996 0.70972 0.0
H423 H 0.72497 0.73263 0.67581 0.0
H424 H 0.69454 0.68534 0.74198 0.0
C425 C 0.75291 0.76342 0.81672 0.0
C426 C 0.77249 0.78822 0.81921 0.0
C427 C 0.77857 0.80235 0.79574 0.0
C428 C 0.76641 0.79102 0.76983 0.0
C429 C 0.74797 0.76588 0.76799 0.0
C430 C 0.74087 0.75257 0.79093 0.0
C431 C 0.72179 0.72524 0.78367 0.0
C432 C 0.73703 0.70116 0.79364 0.0
C433 C 0.69111 0.72552 0.79484 0.0
C434 C 0.72 0.72475 0.75301 0.0
C435 C 0.73503 0.74832 0.74416 0.0
C436 C 0.73733 0.75159 0.71645 0.0
C437 C 0.72353 0.73028 0.69737 0.0
C438 C 0.70782 0.70619 0.70629 0.0
C439 C 0.7062 0.70357 0.73445 0.0
H440 H 0.19432 0.16538 0.92971 0.0
H441 H 0.18838 0.0797 0.89762 0.0
H442 H 0.19473 0.0657 0.94435 0.0
H443 H 0.24659 0.16082 0.9921 0.0
H444 H 0.22716 0.18349 0.01282 0.0
H445 H 0.22942 0.18773 0.97695 0.0
H446 H 0.17226 0.18355 0.97074 0.0
H447 H 0.16979 0.17914 0.0064 0.0
H448 H 0.15029 0.15346 0.98125 0.0
H449 H 0.19237 0.05987 0.99306 0.0
H450 H 0.18066 0.06235 0.04118 0.0
H451 H 0.18743 0.15166 0.04303 0.0
C452 C 0.19557 0.14384 0.93259 0.0
C453 C 0.19122 0.12361 0.9102 0.0
C454 C 0.19184 0.09548 0.91459 0.0
C455 C 0.19564 0.08737 0.94102 0.0
C456 C 0.19877 0.10765 0.96281 0.0
C457 C 0.19892 0.13535 0.95896 0.0
C458 C 0.19823 0.15238 0.9859 0.0
C459 C 0.22707 0.17228 0.99232 0.0
C460 C 0.17102 0.16803 0.98606 0.0
C461 C 0.19593 0.12973 0.00524 0.0
C462 C 0.19703 0.10419 0.9915 0.0
C463 C 0.19219 0.07977 0.0042 0.0
C464 C 0.18537 0.08138 0.03148 0.0
C465 C 0.18336 0.10721 0.04575 0.0
C466 C 0.18954 0.13174 0.0327 0.0
H467 H 0.82764 0.12401 0.92741 0.0
H468 H 0.8074 0.20547 0.91102 0.0
H469 H 0.79112 0.21231 0.95806 0.0
H470 H 0.76488 0.10704 0.96986 0.0
H471 H 0.78653 0.08823 0.99181 0.0
H472 H 0.79393 0.08948 0.95639 0.0
H473 H 0.84876 0.10873 0.97049 0.0
H474 H 0.84157 0.10744 0.00582 0.0
H475 H 0.85714 0.13951 0.99361 0.0
H476 H 0.78431 0.21192 0.00959 0.0
H477 H 0.78481 0.20337 0.05858 0.0
H478 H 0.80518 0.12044 0.03819 0.0
C479 C 0.81939 0.14316 0.93361 0.0
C480 C 0.81893 0.16433 0.91589 0.0
C481 C 0.80781 0.18902 0.92446 0.0
C482 C 0.79854 0.19302 0.95107 0.0
C483 C 0.79978 0.17177 0.96832 0.0
C484 C 0.80943 0.14712 0.95961 0.0
C485 C 0.80977 0.12774 0.98195 0.0
C486 C 0.78744 0.10158 0.97456 0.0
C487 C 0.84116 0.12046 0.98834 0.0
C488 C 0.79997 0.14565 0.00509 0.0
C489 C 0.79423 0.17099 0.99703 0.0
C490 C 0.788 0.19188 0.01591 0.0
C491 C 0.78829 0.18686 0.04369 0.0
C492 C 0.79456 0.16109 0.05218 0.0
C493 C 0.79957 0.14012 0.03238 0.0
H494 H 0.80233 0.81724 0.97465 0.0
H495 H 0.79272 0.89732 0.94587 0.0
H496 H 0.78142 0.91442 0.99188 0.0
H497 H 0.74633 0.81869 0.029 0.0
H498 H 0.76958 0.8026 0.05211 0.0
H499 H 0.76949 0.79433 0.0158 0.0
H500 H 0.82634 0.80799 0.01847 0.0
H501 H 0.8266 0.81631 0.05461 0.0
H502 H 0.84205 0.84193 0.03326 0.0
H503 H 0.78086 0.92557 0.04095 0.0
H504 H 0.79289 0.93072 0.09061 0.0
H505 H 0.80324 0.84386 0.0892 0.0
C506 C 0.7967 0.83801 0.97791 0.0
C507 C 0.79805 0.85593 0.9568 0.0
C508 C 0.79165 0.88329 0.96185 0.0
C509 C 0.78496 0.89309 0.98783 0.0
C510 C 0.78479 0.87526 0.00854 0.0
C511 C 0.79042 0.84825 0.00393 0.0
C512 C 0.79348 0.83484 0.03051 0.0
C513 C 0.76821 0.81121 0.03193 0.0
C514 C 0.82392 0.8247 0.03443 0.0
C515 C 0.79056 0.85905 0.0508 0.0
C516 C 0.78472 0.88191 0.03757 0.0
C517 C 0.78463 0.90768 0.0516 0.0
C518 C 0.79161 0.91044 0.07976 0.0
C519 C 0.7986 0.88758 0.09357 0.0
C520 C 0.79707 0.86138 0.07911 0.0
H521 H 0.18158 0.86837 0.06273 0.0
H522 H 0.18831 0.7859 0.08677 0.0
H523 H 0.19551 0.77024 0.03886 0.0
H524 H 0.13915 0.84884 0.00295 0.0
H525 H 0.15629 0.87588 0.98408 0.0
H526 H 0.15621 0.88113 0.02054 0.0
H527 H 0.2134 0.89247 0.02436 0.0
H528 H 0.21366 0.88724 0.98778 0.0
H529 H 0.23541 0.86809 0.00926 0.0
H530 H 0.19529 0.76265 0.98715 0.0
H531 H 0.18747 0.7637 0.93717 0.0
H532 H 0.18178 0.85164 0.94818 0.0
C533 C 0.18518 0.84712 0.0581 0.0
C534 C 0.18441 0.82833 0.07846 0.0
C535 C 0.18901 0.80068 0.07149 0.0
C536 C 0.19316 0.79164 0.04436 0.0
C537 C 0.19306 0.81065 0.02463 0.0
C538 C 0.18946 0.83789 0.03133 0.0
C539 C 0.18773 0.85381 0.00633 0.0
C540 C 0.15809 0.86558 0.00331 0.0
C541 C 0.21413 0.87676 0.00698 0.0
C542 C 0.18973 0.83106 0.98428 0.0
C543 C 0.1932 0.80636 0.99514 0.0
C544 C 0.19312 0.78199 0.97847 0.0
C545 C 0.18866 0.7828 0.95008 0.0
C546 C 0.18415 0.80779 0.93867 0.0
C547 C 0.18556 0.83227 0.95611 0.0
H548 H 0.05891 0.15248 0.16398 0.0
H549 H 0.05587 0.10096 0.08777 0.0
H550 H 0.00354 0.10758 0.0783 0.0
H551 H 0.9864 0.12855 0.18185 0.0
H552 H 0.97971 0.162 0.19619 0.0
H553 H 0.01688 0.15343 0.19644 0.0
H554 H 0.03279 0.19685 0.17122 0.0
H555 H 0.99557 0.20542 0.17066 0.0
H556 H 0.01344 0.20148 0.13925 0.0
H557 H 0.95116 0.1187 0.0781 0.0
H558 H 0.9024 0.13251 0.08755 0.0
H559 H 0.94075 0.17779 0.1633 0.0
C560 C 0.04732 0.14249 0.14528 0.0
C561 C 0.06148 0.12612 0.12663 0.0
C562 C 0.04546 0.11356 0.10237 0.0
C563 C 0.01579 0.11727 0.09679 0.0
C564 C 0.00263 0.13374 0.11557 0.0
C565 C 0.0179 0.14612 0.13932 0.0
C566 C -0.00134 0.16247 0.15641 0.0
C567 C 0.99521 0.15091 0.18437 0.0
C568 C 0.01085 0.19339 0.15956 0.0
C569 C 0.96997 0.1571 0.13872 0.0
C570 C 0.97272 0.14056 0.11521 0.0
C571 C 0.9488 0.13183 0.09632 0.0
C572 C 0.92122 0.13978 0.10187 0.0
C573 C 0.91786 0.15636 0.12608 0.0
C574 C 0.94273 0.16549 0.14443 0.0
H575 H 0.8455 0.99182 0.23778 0.0
H576 H 0.76356 0.9525 0.19511 0.0
H577 H 0.74626 -0.0021 0.19226 0.0
H578 H 0.81398 0.05589 0.27169 0.0
H579 H 0.84743 0.0777 0.26578 0.0
H580 H 0.84894 0.04244 0.27342 0.0
H581 H 0.87538 0.03361 0.22921 0.0
H582 H 0.87366 0.06848 0.22127 0.0
H583 H 0.85797 0.04023 0.19695 0.0
H584 H 0.74393 0.04563 0.18212 0.0
H585 H 0.75642 0.09197 0.16639 0.0
H586 H 0.83993 0.10193 0.21519 0.0
C587 C 0.82322 0.99284 0.2294 0.0
C588 C 0.80554 0.96886 0.21716 0.0
C589 C 0.77712 0.97075 0.20499 0.0
C590 C 0.76711 0.99645 0.20337 0.0
C591 C 0.78582 0.02007 0.21399 0.0
C592 C 0.81318 0.01853 0.22717 0.0
C593 C 0.83133 0.04684 0.23192 0.0
C594 C 0.83567 0.05627 0.26253 0.0
C595 C 0.86131 0.04729 0.21905 0.0
C596 C 0.81106 0.06398 0.2172 0.0
C597 C 0.78452 0.04834 0.2078 0.0
C598 C 0.76416 0.05839 0.19014 0.0
C599 C 0.7715 0.08468 0.18116 0.0
C600 C 0.79901 0.10058 0.18978 0.0
C601 C 0.8184 0.09051 0.20888 0.0
H602 H 0.94544 0.88447 0.21897 0.0
H603 H 0.92058 0.89637 0.13461 0.0
H604 H 0.96848 0.88357 0.12121 0.0
H605 H 0.0228 0.91147 0.21814 0.0
H606 H 0.035 0.88661 0.23995 0.0
H607 H -0.00104 0.8973 0.24283 0.0
H608 H 0.9752 0.84608 0.23521 0.0
H609 H 0.01115 0.83527 0.2319 0.0
H610 H 0.9823 0.82542 0.20503 0.0
H611 H 0.01859 0.86871 0.11678 0.0
H612 H 0.06903 0.85597 0.12216 0.0
H613 H 0.0609 0.85326 0.2093 0.0
C614 C 0.95015 0.88469 0.19772 0.0
C615 C 0.92922 0.89148 0.17786 0.0
C616 C 0.93625 0.8913 0.15023 0.0
C617 C 0.96335 0.88395 0.14237 0.0
C618 C 0.98318 0.8768 0.16237 0.0
C619 C 0.97705 0.87733 0.18949 0.0
C620 C 0.00222 0.86879 0.20694 0.0
C621 C 0.01553 0.89245 0.22821 0.0
C622 C 0.9921 0.84232 0.22056 0.0
C623 C 0.0235 0.86348 0.18538 0.0
C624 C 0.01203 0.86809 0.15979 0.0
C625 C 0.02782 0.86502 0.13671 0.0
C626 C 0.05643 0.85769 0.13998 0.0
C627 C 0.06894 0.85354 0.16614 0.0
C628 C 0.05193 0.85603 0.18899 0.0
H629 H 0.20084 0.04237 0.14009 0.0
H630 H 0.17679 0.0713 0.22006 0.0
H631 H 0.19181 0.02938 0.2387 0.0
H632 H 0.17044 0.97741 0.14049 0.0
H633 H 0.19813 0.96142 0.12284 0.0
H634 H 0.19316 0.99642 0.11781 0.0
H635 H 0.24862 0.01215 0.13247 0.0
H636 H 0.25368 0.97695 0.13773 0.0
H637 H 0.26386 0.00387 0.16498 0.0
H638 H 0.19831 0.98067 0.24595 0.0
H639 H 0.19344 0.92981 0.24055 0.0
H640 H 0.21497 0.93299 0.15626 0.0
C641 C 0.19959 0.04032 0.16172 0.0
C642 C 0.18758 0.06001 0.17861 0.0
C643 C 0.18606 0.0565 0.20675 0.0
C644 C 0.19473 0.03283 0.21756 0.0
C645 C 0.20544 0.01321 0.20007 0.0
C646 C 0.20825 0.01694 0.17277 0.0
C647 C 0.21605 0.99128 0.15731 0.0
C648 C 0.19306 0.98104 0.13324 0.0
C649 C 0.24743 0.99638 0.14756 0.0
C650 C 0.21472 0.97174 0.17962 0.0
C651 C 0.20953 0.98495 0.20438 0.0
C652 C 0.2032 0.97025 0.22691 0.0
C653 C 0.20048 0.94129 0.22365 0.0
C654 C 0.20372 0.92741 0.19793 0.0
C655 C 0.21269 0.94299 0.17626 0.0
H656 H 0.93337 0.84782 0.86624 0.0
H657 H 0.89746 0.76381 0.87936 0.0
H658 H 0.94569 0.74834 0.87048 0.0
H659 H 0.97939 0.83026 0.81186 0.0
H660 H 0.00879 0.85754 0.82352 0.0
H661 H 0.97105 0.86161 0.82964 0.0
H662 H 0.98552 0.87133 0.88154 0.0
H663 H 0.02329 0.86754 0.87552 0.0
H664 H 0.00405 0.84671 0.89913 0.0
H665 H -0.00122 0.74255 0.86155 0.0
H666 H 0.05271 0.74764 0.85627 0.0
H667 H 0.05254 0.83542 0.84894 0.0
C668 C 0.93551 0.82613 0.86718 0.0
C669 C 0.91162 0.80704 0.8735 0.0
C670 C 0.91548 0.77885 0.87459 0.0
C671 C 0.94273 0.76983 0.86943 0.0
C672 C 0.96579 0.78924 0.86313 0.0
C673 C 0.96243 0.81681 0.86209 0.0
C674 C 0.99085 0.8338 0.856 0.0
C675 C 0.98729 0.84654 0.82862 0.0
C676 C 0.00155 0.85615 0.87945 0.0
C677 C 0.01094 0.81159 0.85431 0.0
C678 C -0.00389 0.78594 0.85813 0.0
C679 C 0.01058 0.76251 0.85835 0.0
C680 C 0.04116 0.76557 0.85525 0.0
C681 C 0.05682 0.79192 0.85223 0.0
C682 C 0.04124 0.81498 0.85118 0.0
H683 H 0.11879 0.91664 0.84793 0.0
H684 H 0.19961 0.89992 0.81202 0.0
H685 H 0.20317 0.94534 0.79226 0.0
H686 H 0.08989 0.95245 0.79097 0.0
H687 H 0.07404 0.97619 0.81378 0.0
H688 H 0.07707 0.94164 0.82282 0.0
H689 H 0.10647 0.96142 0.86832 0.0
H690 H 0.10325 0.99589 0.85955 0.0
H691 H 0.13927 0.98599 0.8675 0.0
H692 H 0.2004 0.99562 0.78171 0.0
H693 H 0.19155 0.04453 0.7814 0.0
H694 H 0.11041 0.0251 0.82133 0.0
C695 C 0.13717 0.92242 0.83574 0.0
C696 C 0.15914 0.90506 0.83172 0.0
C697 C 0.18261 0.9131 0.81536 0.0
C698 C 0.1847 0.93875 0.80401 0.0
C699 C 0.16269 0.95558 0.80866 0.0
C700 C 0.13918 0.94744 0.82388 0.0
C701 C 0.11896 0.96938 0.82706 0.0
C702 C 0.08817 0.95931 0.8128 0.0
C703 C 0.1169 0.97872 0.8574 0.0
C704 C 0.13537 0.9918 0.81231 0.0
C705 C 0.16042 0.98357 0.80157 0.0
C706 C 0.18048 0.00205 0.78951 0.0
C707 C 0.17524 0.02977 0.78932 0.0
C708 C 0.15017 0.03861 0.80115 0.0
C709 C 0.12956 0.019 0.81175 0.0
H710 H 0.06257 0.13638 0.7924 0.0
H711 H 0.09437 0.20575 0.85159 0.0
H712 H 0.04432 0.21958 0.85082 0.0
H713 H 0.00803 0.17264 0.75367 0.0
H714 H 0.98181 0.14164 0.74793 0.0
H715 H 0.02095 0.13932 0.7504 0.0
H716 H 0.01371 0.10667 0.7891 0.0
H717 H 0.97468 0.10888 0.78676 0.0
H718 H -0.00402 0.1178 0.81895 0.0
H719 H 0.98984 0.22101 0.84974 0.0
H720 H 0.93516 0.21155 0.84591 0.0
H721 H 0.93911 0.14369 0.78491 0.0
C722 C 0.05913 0.15482 0.80476 0.0
C723 C 0.08235 0.16995 0.82208 0.0
C724 C 0.07696 0.19389 0.83804 0.0
C725 C 0.0486 0.20196 0.83772 0.0
C726 C 0.02603 0.18623 0.82089 0.0
C727 C 0.03107 0.16342 0.80435 0.0
C728 C 0.00263 0.14902 0.78949 0.0
C729 C 0.00341 0.15077 0.75853 0.0
C730 C -0.00361 0.11882 0.79651 0.0
C731 C 0.98064 0.16648 0.80129 0.0
C732 C 0.9946 0.18796 0.81925 0.0
C733 C 0.97868 0.20482 0.83512 0.0
C734 C 0.9477 0.19929 0.83289 0.0
C735 C 0.9331 0.17733 0.8147 0.0
C736 C 0.94978 0.16121 0.79826 0.0
H737 H 0.86333 0.95286 0.87552 0.0
H738 H 0.80759 0.90709 0.80836 0.0
H739 H 0.80037 0.9512 0.78885 0.0
H740 H 0.82035 0.00725 0.88442 0.0
H741 H 0.85171 0.03339 0.89312 0.0
H742 H 0.85401 -0.00177 0.90031 0.0
H743 H 0.90033 -0.00232 0.87243 0.0
H744 H 0.89829 0.03294 0.86533 0.0
H745 H 0.8984 0.00667 0.83763 0.0
H746 H 0.79915 0.00148 0.77742 0.0
H747 H 0.80278 0.05241 0.77618 0.0
H748 H 0.8573 0.06315 0.85249 0.0
C749 C 0.8499 0.95196 0.8565 0.0
C750 C 0.83621 0.92657 0.84331 0.0
C751 C 0.81841 0.92639 0.81871 0.0
C752 C 0.8142 0.9513 0.8075 0.0
C753 C 0.8278 0.97607 0.82131 0.0
C754 C 0.84523 0.97645 0.84533 0.0
C755 C 0.85637 0.00553 0.8571 0.0
C756 C 0.84491 0.01143 0.8854 0.0
C757 C 0.89036 0.01102 0.85817 0.0
C758 C 0.8424 0.02162 0.83608 0.0
C759 C 0.82623 0.00445 0.81538 0.0
C760 C 0.81171 0.01507 0.79359 0.0
C761 C 0.81387 0.04396 0.79304 0.0
C762 C 0.83006 0.06171 0.81436 0.0
C763 C 0.84441 0.0502 0.83604 0.0
H764 H 0.66921 0.60951 0.40684 0.0
H765 H 0.70483 0.69576 0.40462 0.0
H766 H 0.71008 0.70097 0.45511 0.0
H767 H 0.62462 0.61955 0.45867 0.0
H768 H 0.62952 0.58812 0.47414 0.0
H769 H 0.6337 0.59 0.43831 0.0
H770 H 0.6865 0.57613 0.44423 0.0
H771 H 0.68241 0.57395 0.48017 0.0
H772 H 0.71332 0.59581 0.46896 0.0
H773 H 0.706 0.69764 0.50613 0.0
H774 H 0.69174 0.68635 0.55215 0.0
H775 H 0.65717 0.60299 0.51923 0.0
C776 C 0.67885 0.62938 0.41684 0.0
C777 C 0.68671 0.6522 0.40176 0.0
C778 C 0.6988 0.67792 0.41576 0.0
C779 C 0.70192 0.68105 0.44443 0.0
C780 C 0.693 0.65825 0.45866 0.0
C781 C 0.68186 0.63287 0.44522 0.0
C782 C 0.67093 0.61228 0.46479 0.0
C783 C 0.63774 0.60191 0.45861 0.0
C784 C 0.6894 0.58812 0.46452 0.0
C785 C 0.67662 0.63026 0.49133 0.0
C786 C 0.68991 0.65655 0.48762 0.0
C787 C 0.69592 0.67702 0.50929 0.0
C788 C 0.68774 0.67047 0.5353 0.0
C789 C 0.67325 0.64387 0.5391 0.0
C790 C 0.66814 0.62353 0.51689 0.0
H791 H 0.33613 0.62728 0.53497 0.0
H792 H 0.29032 0.69877 0.54993 0.0
H793 H 0.28617 0.70379 0.50012 0.0
H794 H 0.37959 0.65438 0.48506 0.0
H795 H 0.37851 0.62177 0.46511 0.0
H796 H 0.37499 0.62251 0.5013 0.0
H797 H 0.32521 0.59007 0.49305 0.0
H798 H 0.32867 0.58905 0.45679 0.0
H799 H 0.29597 0.59958 0.4709 0.0
H800 H 0.28926 0.70134 0.44774 0.0
H801 H 0.30048 0.6925 0.39936 0.0
H802 H 0.34612 0.62408 0.42145 0.0
C803 C 0.32474 0.64378 0.52788 0.0
C804 C 0.31332 0.66251 0.54632 0.0
C805 C 0.29905 0.68405 0.53611 0.0
C806 C 0.29661 0.68705 0.50788 0.0
C807 C 0.30867 0.66839 0.49031 0.0
C808 C 0.32245 0.6472 0.50009 0.0
C809 C 0.33526 0.63076 0.47764 0.0
C810 C 0.36908 0.63248 0.48258 0.0
C811 C 0.32038 0.60058 0.47441 0.0
C812 C 0.32687 0.64609 0.45356 0.0
C813 C 0.31126 0.66756 0.46099 0.0
C814 C 0.30144 0.68454 0.44178 0.0
C815 C 0.30789 0.6794 0.4144 0.0
C816 C 0.32434 0.65775 0.40673 0.0
C817 C 0.33372 0.64095 0.42666 0.0
H818 H 0.31353 0.3177 0.45722 0.0
H819 H 0.33604 0.40053 0.43232 0.0
H820 H 0.33585 0.4197 0.47989 0.0
H821 H 0.26584 0.33708 0.5124 0.0
H822 H 0.27891 0.31276 0.53439 0.0
H823 H 0.27716 0.30548 0.49786 0.0
H824 H 0.33273 0.29932 0.50079 0.0
H825 H 0.33468 0.30666 0.53724 0.0
H826 H 0.35947 0.32686 0.51712 0.0
H827 H 0.33899 0.42967 0.5296 0.0
H828 H 0.34447 0.43013 0.57961 0.0
H829 H 0.31908 0.34127 0.57361 0.0
C830 C 0.3178 0.33991 0.46173 0.0
C831 C 0.32477 0.35762 0.44104 0.0
C832 C 0.3307 0.38653 0.4478 0.0
C833 C 0.3305 0.39766 0.47476 0.0
C834 C 0.32417 0.37965 0.49472 0.0
C835 C 0.31775 0.35142 0.48864 0.0
C836 C 0.31387 0.33664 0.51439 0.0
C837 C 0.28205 0.32214 0.51478 0.0
C838 C 0.33654 0.31617 0.51756 0.0
C839 C 0.32013 0.36095 0.53586 0.0
C840 C 0.32571 0.38554 0.52391 0.0
C841 C 0.3342 0.41065 0.53925 0.0
C842 C 0.33741 0.41066 0.56761 0.0
C843 C 0.33206 0.38576 0.58036 0.0
C844 C 0.32279 0.36063 0.56432 0.0
H845 H 0.65297 0.33584 0.43441 0.0
H846 H 0.68068 0.25429 0.42479 0.0
H847 H 0.68463 0.25316 0.4751 0.0
H848 H 0.69841 0.36145 0.49666 0.0
H849 H 0.66978 0.37956 0.51016 0.0
H850 H 0.67229 0.37464 0.47382 0.0
H851 H 0.61777 0.35134 0.46817 0.0
H852 H 0.61516 0.35594 0.50446 0.0
H853 H 0.60676 0.32192 0.48681 0.0
H854 H 0.68341 0.26096 0.52736 0.0
H855 H 0.67574 0.2763 0.57537 0.0
H856 H 0.6463 0.35121 0.5484 0.0
C857 C 0.66046 0.31789 0.44276 0.0
C858 C 0.6668 0.29525 0.42562 0.0
C859 C 0.67591 0.27198 0.43753 0.0
C860 C 0.6782 0.27116 0.46607 0.0
C861 C 0.67115 0.29371 0.48232 0.0
C862 C 0.66246 0.31661 0.47095 0.0
C863 C 0.65416 0.33745 0.49234 0.0
C864 C 0.67491 0.36489 0.4933 0.0
C865 C 0.62153 0.3419 0.48766 0.0
C866 C 0.65922 0.32269 0.51763 0.0
C867 C 0.66935 0.29764 0.51169 0.0
C868 C 0.67548 0.28056 0.53217 0.0
C869 C 0.67106 0.28938 0.55933 0.0
C870 C 0.66018 0.3148 0.56553 0.0
C871 C 0.65433 0.33152 0.54432 0.0
H872 H 0.54702 0.63711 0.60696 0.0
H873 H 0.58661 0.68228 0.68243 0.0
H874 H 0.53908 0.69878 0.69107 0.0
H875 H 0.49885 0.68738 0.58801 0.0
H876 H 0.4687 0.6614 0.57495 0.0
H877 H 0.50633 0.65415 0.57376 0.0
H878 H 0.49395 0.61096 0.60032 0.0
H879 H 0.45628 0.61795 0.60138 0.0
H880 H 0.47773 0.61467 0.63262 0.0
H881 H 0.48713 0.7094 0.69241 0.0
H882 H 0.43322 0.71069 0.68776 0.0
H883 H 0.42734 0.65843 0.61173 0.0
C884 C 0.54573 0.65058 0.62523 0.0
C885 C 0.57059 0.65842 0.64396 0.0
C886 C 0.56789 0.67591 0.66775 0.0
C887 C 0.54102 0.68556 0.67281 0.0
C888 C 0.51701 0.67753 0.65391 0.0
C889 C 0.51901 0.66031 0.63069 0.0
C890 C 0.48943 0.65372 0.61439 0.0
C891 C 0.49093 0.66483 0.5861 0.0
C892 C 0.47872 0.62248 0.61206 0.0
C893 C 0.47049 0.66961 0.63231 0.0
C894 C 0.48688 0.68346 0.65483 0.0
C895 C 0.47403 0.69878 0.67477 0.0
C896 C 0.44341 0.69944 0.67192 0.0
C897 C 0.42603 0.6847 0.64938 0.0
C898 C 0.43998 0.67007 0.62912 0.0
H899 H 0.29658 0.57464 0.63829 0.0
H900 H 0.31165 0.61295 0.7212 0.0
H901 H 0.30713 0.56677 0.73862 0.0
H902 H 0.24572 0.51139 0.65369 0.0
H903 H 0.2621 0.49004 0.62898 0.0
H904 H 0.25955 0.5257 0.62362 0.0
H905 H 0.3161 0.53401 0.61882 0.0
H906 H 0.3189 0.49862 0.6244 0.0
H907 H 0.34101 0.52596 0.646 0.0
H908 H 0.30978 0.51682 0.74638 0.0
H909 H 0.31967 0.46814 0.74346 0.0
H910 H 0.30369 0.46336 0.65543 0.0
C911 C 0.29786 0.5734 0.66016 0.0
C912 C 0.30437 0.59742 0.67836 0.0
C913 C 0.30651 0.59483 0.70684 0.0
C914 C 0.30388 0.56867 0.71694 0.0
C915 C 0.29881 0.54535 0.69833 0.0
C916 C 0.29549 0.54753 0.67051 0.0
C917 C 0.29412 0.51972 0.65454 0.0
C918 C 0.26354 0.51121 0.63931 0.0
C919 C 0.31902 0.5196 0.63481 0.0
C920 C 0.29886 0.50178 0.67758 0.0
C921 C 0.30079 0.51668 0.70276 0.0
C922 C 0.30768 0.50481 0.72681 0.0
C923 C 0.31331 0.47719 0.72498 0.0
C924 C 0.31251 0.46203 0.69923 0.0
C925 C 0.30439 0.47438 0.67543 0.0
H926 H 0.55357 0.34368 0.64362 0.0
H927 H 0.58069 0.33391 0.72795 0.0
H928 H 0.5309 0.34128 0.74125 0.0
H929 H 0.51307 0.39802 0.65726 0.0
H930 H 0.48417 0.38709 0.63065 0.0
H931 H 0.52065 0.37776 0.62699 0.0
H932 H 0.49913 0.32592 0.61975 0.0
H933 H 0.46247 0.33512 0.62296 0.0
H934 H 0.47621 0.31092 0.64469 0.0
H935 H 0.47978 0.35387 0.74602 0.0
H936 H 0.42993 0.36815 0.74141 0.0
H937 H 0.43673 0.37023 0.65404 0.0
C938 C 0.54886 0.34237 0.66477 0.0
C939 C 0.571 0.3381 0.68472 0.0
C940 C 0.56404 0.33707 0.71228 0.0
C941 C 0.53584 0.34125 0.72006 0.0
C942 C 0.51486 0.34636 0.70002 0.0
C943 C 0.52091 0.34664 0.67291 0.0
C944 C 0.49505 0.35414 0.65563 0.0
C945 C 0.50377 0.38084 0.64183 0.0
C946 C 0.48247 0.33009 0.63451 0.0
C947 C 0.47373 0.35854 0.67736 0.0
C948 C 0.48549 0.35382 0.7028 0.0
C949 C 0.47021 0.35736 0.72615 0.0
C950 C 0.44196 0.36562 0.72335 0.0
C951 C 0.42938 0.37033 0.69738 0.0
C952 C 0.44565 0.36679 0.67419 0.0
H953 H 0.66707 0.54093 0.61135 0.0
H954 H 0.70074 0.57872 0.69166 0.0
H955 H 0.71483 0.53399 0.70396 0.0
H956 H 0.63396 0.47993 0.63242 0.0
H957 H 0.64273 0.45818 0.60365 0.0
H958 H 0.63935 0.49389 0.60004 0.0
H959 H 0.69219 0.50113 0.58309 0.0
H960 H 0.69577 0.46534 0.58681 0.0
H961 H 0.72286 0.49216 0.60384 0.0
H962 H 0.71927 0.48402 0.70943 0.0
H963 H 0.71243 0.43303 0.70784 0.0
H964 H 0.67713 0.42864 0.62355 0.0
C965 C 0.6779 0.53997 0.63136 0.0
C966 C 0.68279 0.56333 0.65052 0.0
C967 C 0.69681 0.56111 0.67659 0.0
C968 C 0.70505 0.53583 0.68373 0.0
C969 C 0.69946 0.51308 0.66447 0.0
C970 C 0.68636 0.515 0.63875 0.0
C971 C 0.68039 0.48711 0.62259 0.0
C972 C 0.64714 0.47933 0.61421 0.0
C973 C 0.69892 0.4864 0.59761 0.0
C974 C 0.69096 0.469 0.64365 0.0
C975 C 0.70234 0.48434 0.66753 0.0
C976 C 0.71095 0.47181 0.69066 0.0
C977 C 0.70698 0.44283 0.68957 0.0
C978 C 0.69434 0.4268 0.66556 0.0
C979 C 0.68722 0.44021 0.64212 0.0
H980 H 0.43068 0.33416 0.3268 0.0
H981 H 0.39588 0.25347 0.35046 0.0
H982 H 0.44301 0.23625 0.34042 0.0
H983 H 0.47628 0.3097 0.27223 0.0
H984 H 0.50529 0.33807 0.28128 0.0
H985 H 0.46733 0.34254 0.28609 0.0
H986 H 0.48139 0.35855 0.33716 0.0
H987 H 0.51926 0.35426 0.33247 0.0
H988 H 0.49997 0.33654 0.35819 0.0
H989 H 0.49612 0.2297 0.33307 0.0
H990 H 0.55062 0.23537 0.33188 0.0
H991 H 0.54963 0.3204 0.3132 0.0
C992 C 0.43263 0.31268 0.32935 0.0
C993 C 0.40955 0.29516 0.33936 0.0
C994 C 0.41325 0.26729 0.34273 0.0
C995 C 0.43987 0.25727 0.33693 0.0
C996 C 0.4624 0.27532 0.32755 0.0
C997 C 0.45894 0.30244 0.32373 0.0
C998 C 0.48729 0.31856 0.31625 0.0
C999 C 0.48383 0.32775 0.28723 0.0
C1000 C 0.49757 0.34342 0.33728 0.0
C1001 C 0.50768 0.29664 0.31762 0.0
C1002 C 0.49289 0.27164 0.32356 0.0
C1003 C 0.50782 0.24904 0.32796 0.0
C1004 C 0.53876 0.25241 0.32716 0.0
C1005 C 0.55431 0.27832 0.32244 0.0
C1006 C 0.53834 0.30029 0.3167 0.0
H1007 H 0.62301 0.4133 0.34969 0.0
H1008 H 0.69399 0.39244 0.30065 0.0
H1009 H 0.70095 0.44036 0.28667 0.0
H1010 H 0.59209 0.45695 0.3034 0.0
H1011 H 0.58289 0.48061 0.33045 0.0
H1012 H 0.58372 0.44478 0.33601 0.0
H1013 H 0.62128 0.45899 0.37792 0.0
H1014 H 0.6204 0.49482 0.37261 0.0
H1015 H 0.65518 0.48106 0.37396 0.0
H1016 H 0.70059 0.49205 0.27964 0.0
H1017 H 0.69324 0.54151 0.28076 0.0
H1018 H 0.62142 0.52581 0.33349 0.0
C1019 C 0.6401 0.41869 0.33603 0.0
C1020 C 0.65807 0.39919 0.32636 0.0
C1021 C 0.68001 0.40712 0.30835 0.0
C1022 C 0.68406 0.43424 0.30027 0.0
C1023 C 0.66579 0.45295 0.31022 0.0
C1024 C 0.64421 0.44534 0.32767 0.0
C1025 C 0.6275 0.46898 0.33586 0.0
C1026 C 0.59461 0.46243 0.32582 0.0
C1027 C 0.63134 0.4764 0.36692 0.0
C1028 C 0.64322 0.49136 0.32062 0.0
C1029 C 0.66522 0.48191 0.30584 0.0
C1030 C 0.68325 0.49954 0.29099 0.0
C1031 C 0.6789 0.52756 0.29168 0.0
C1032 C 0.65669 0.53751 0.3071 0.0
C1033 C 0.63848 0.51892 0.32133 0.0
H1034 H 0.55947 0.63163 0.3286 0.0
H1035 H 0.58608 0.68678 0.26732 0.0
H1036 H 0.53406 0.69597 0.25964 0.0
H1037 H 0.48858 0.6027 0.29767 0.0
H1038 H 0.4713 0.6023 0.32957 0.0
H1039 H 0.51016 0.59956 0.32889 0.0
H1040 H 0.52198 0.64187 0.36469 0.0
H1041 H 0.48315 0.64488 0.36531 0.0
H1042 H 0.50877 0.67398 0.3578 0.0
H1043 H 0.47771 0.69617 0.25711 0.0
H1044 H 0.42366 0.69078 0.26298 0.0
H1045 H 0.43698 0.63995 0.32972 0.0
C1046 C 0.55426 0.64542 0.31336 0.0
C1047 C 0.57642 0.65814 0.29814 0.0
C1048 C 0.56913 0.67669 0.27895 0.0
C1049 C 0.53975 0.682 0.2745 0.0
C1050 C 0.51832 0.66913 0.28998 0.0
C1051 C 0.52542 0.65155 0.30931 0.0
C1052 C 0.49891 0.64126 0.32426 0.0
C1053 C 0.49182 0.60958 0.31982 0.0
C1054 C 0.50349 0.6511 0.35482 0.0
C1055 C 0.47553 0.65534 0.31004 0.0
C1056 C 0.48689 0.67109 0.29008 0.0
C1057 C 0.4687 0.68432 0.27303 0.0
C1058 C 0.43814 0.68119 0.27647 0.0
C1059 C 0.42642 0.66552 0.29719 0.0
C1060 C 0.44549 0.65276 0.31425 0.0
H1061 H 0.36709 0.44538 0.34883 0.0
H1062 H 0.30268 0.40027 0.28784 0.0
H1063 H 0.29206 0.44465 0.27071 0.0
H1064 H 0.32476 0.49831 0.36551 0.0
H1065 H 0.35613 0.52488 0.37145 0.0
H1066 H 0.36051 0.48962 0.37661 0.0
H1067 H 0.40202 0.49092 0.34291 0.0
H1068 H 0.39793 0.5263 0.33781 0.0
H1069 H 0.39475 0.50089 0.30894 0.0
H1070 H 0.28867 0.49546 0.26105 0.0
H1071 H 0.29072 0.54659 0.26202 0.0
H1072 H 0.35461 0.55579 0.33201 0.0
C1073 C 0.35114 0.4447 0.33152 0.0
C1074 C 0.336 0.41944 0.31939 0.0
C1075 C 0.3147 0.4195 0.29725 0.0
C1076 C 0.30856 0.44456 0.28741 0.0
C1077 C 0.32369 0.46922 0.3002 0.0
C1078 C 0.34441 0.46931 0.32191 0.0
C1079 C 0.35626 0.49822 0.33362 0.0
C1080 C 0.34896 0.50303 0.36356 0.0
C1081 C 0.38972 0.50444 0.33062 0.0
C1082 C 0.33894 0.51456 0.31525 0.0
C1083 C 0.32054 0.49773 0.29578 0.0
C1084 C 0.30291 0.50876 0.27633 0.0
C1085 C 0.30417 0.53773 0.277 0.0
C1086 C 0.32243 0.555 0.29734 0.0
C1087 C 0.33997 0.5431 0.31652 0.0
loop_
_geom_bond_atom_site_label_1
_geom_bond_atom_site_label_2
_geom_bond_distance
_geom_bond_site_symmetry_2
_ccdc_geom_bond_type
O0 Cd1 2.223 . S
O0 C8 1.315 . S
Cd1 O0 2.223 . S
Cd1 O4 2.297 . S
Cd1 O5 2.439 . S
Cd1 O11 2.240 . S
Cd2 O3 2.240 . S
Cd2 O10 2.223 . S
Cd2 O12 2.297 . S
Cd2 O13 2.439 . S
O3 Cd2 2.240 . S
O3 C8 1.279 . S
O4 Cd1 2.297 . S
O4 C6 1.247 . S
O5 Cd1 2.439 . S
O5 C6 1.208 . S
C6 O4 1.247 . S
C6 O5 1.208 . S
C7 O12 1.247 . S
C7 O13 1.208 . S
C8 O0 1.315 . S
C8 O3 1.279 . S
C9 O10 1.315 . S
C9 O11 1.279 . S
O10 Cd2 2.223 . S
O10 C9 1.315 . S
O11 Cd1 2.240 . S
O11 C9 1.279 . S
O12 Cd2 2.297 . S
O12 C7 1.247 . S
O13 Cd2 2.439 . S
O13 C7 1.208 . S
O14 Cd15 2.223 . S
O14 C22 1.315 . S
Cd15 O14 2.223 . S
Cd15 O18 2.297 . S
Cd15 O19 2.439 . S
Cd15 O25 2.240 . S
Cd16 O17 2.240 . S
Cd16 O24 2.223 . S
Cd16 O26 2.297 . S
Cd16 O27 2.439 . S
O17 Cd16 2.240 . S
O17 C22 1.279 . S
O18 Cd15 2.297 . S
O18 C20 1.247 . S
O19 Cd15 2.439 . S
O19 C20 1.208 . S
C20 O18 1.247 . S
C20 O19 1.208 . S
C21 O26 1.247 . S
C21 O27 1.208 . S
C22 O14 1.315 . S
C22 O17 1.279 . S
C23 O24 1.315 . S
C23 O25 1.279 . S
O24 Cd16 2.223 . S
O24 C23 1.315 . S
O25 Cd15 2.240 . S
O25 C23 1.279 . S
O26 Cd16 2.297 . S
O26 C21 1.247 . S
O27 Cd16 2.439 . S
O27 C21 1.208 . S
O28 Cd29 2.223 . S
O28 C36 1.315 . S
Cd29 O28 2.223 . S
Cd29 O32 2.297 . S
Cd29 O33 2.439 . S
Cd29 O39 2.240 . S
Cd30 O31 2.240 . S
Cd30 O38 2.223 . S
Cd30 O40 2.297 . S
Cd30 O41 2.439 . S
O31 Cd30 2.240 . S
O31 C36 1.279 . S
O32 Cd29 2.297 . S
O32 C34 1.247 . S
O33 Cd29 2.439 . S
O33 C34 1.208 . S
C34 O32 1.247 . S
C34 O33 1.208 . S
C35 O40 1.247 . S
C35 O41 1.208 . S
C36 O28 1.315 . S
C36 O31 1.279 . S
C37 O38 1.315 . S
C37 O39 1.279 . S
O38 Cd30 2.223 . S
O38 C37 1.315 . S
O39 Cd29 2.240 . S
O39 C37 1.279 . S
O40 Cd30 2.297 . S
O40 C35 1.247 . S
O41 Cd30 2.439 . S
O41 C35 1.208 . S
O42 Cd43 2.223 . S
O42 C50 1.315 . S
Cd43 O42 2.223 . S
Cd43 O46 2.297 . S
Cd43 O47 2.439 . S
Cd43 O53 2.240 . S
Cd44 O45 2.240 . S
Cd44 O52 2.223 . S
Cd44 O54 2.297 . S
Cd44 O55 2.439 . S
O45 Cd44 2.240 . S
O45 C50 1.279 . S
O46 Cd43 2.297 . S
O46 C48 1.247 . S
O47 Cd43 2.439 . S
O47 C48 1.208 . S
C48 O46 1.247 . S
C48 O47 1.208 . S
C49 O54 1.247 . S
C49 O55 1.208 . S
C50 O42 1.315 . S
C50 O45 1.279 . S
C51 O52 1.315 . S
C51 O53 1.279 . S
O52 Cd44 2.223 . S
O52 C51 1.315 . S
O53 Cd43 2.240 . S
O53 C51 1.279 . S
O54 Cd44 2.297 . S
O54 C49 1.247 . S
O55 Cd44 2.439 . S
O55 C49 1.208 . S
O56 Cd57 2.223 . S
O56 C64 1.315 . S
Cd57 O56 2.223 . S
Cd57 O60 2.297 . S
Cd57 O61 2.439 . S
Cd57 O67 2.240 . S
Cd58 O59 2.240 . S
Cd58 O66 2.223 . S
Cd58 O68 2.297 . S
Cd58 O69 2.439 . S
O59 Cd58 2.240 . S
O59 C64 1.279 . S
O60 Cd57 2.297 . S
O60 C62 1.247 . S
O61 Cd57 2.439 . S
O61 C62 1.208 . S
C62 O60 1.247 . S
C62 O61 1.208 . S
C63 O68 1.247 . S
C63 O69 1.208 . S
C64 O56 1.315 . S
C64 O59 1.279 . S
C65 O66 1.315 . S
C65 O67 1.279 . S
O66 Cd58 2.223 . S
O66 C65 1.315 . S
O67 Cd57 2.240 . S
O67 C65 1.279 . S
O68 Cd58 2.297 . S
O68 C63 1.247 . S
O69 Cd58 2.439 . S
O69 C63 1.208 . S
O70 Cd71 2.223 . S
O70 C78 1.315 . S
Cd71 O70 2.223 . S
Cd71 O74 2.297 . S
Cd71 O75 2.439 . S
Cd71 O81 2.240 . S
Cd72 O73 2.240 . S
Cd72 O80 2.223 . S
Cd72 O82 2.297 . S
Cd72 O83 2.439 . S
O73 Cd72 2.240 . S
O73 C78 1.279 . S
O74 Cd71 2.297 . S
O74 C76 1.247 . S
O75 Cd71 2.439 . S
O75 C76 1.208 . S
C76 O74 1.247 . S
C76 O75 1.208 . S
C77 O82 1.247 . S
C77 O83 1.208 . S
C78 O70 1.315 . S
C78 O73 1.279 . S
C79 O80 1.315 . S
C79 O81 1.279 . S
O80 Cd72 2.223 . S
O80 C79 1.315 . S
O81 Cd71 2.240 . S
O81 C79 1.279 . S
O82 Cd72 2.297 . S
O82 C77 1.247 . S
O83 Cd72 2.439 . S
O83 C77 1.208 . S
O84 Cd85 2.223 . S
O84 C92 1.315 . S
Cd85 O84 2.223 . S
Cd85 O88 2.297 . S
Cd85 O89 2.439 . S
Cd85 O95 2.240 . S
Cd86 O87 2.240 . S
Cd86 O94 2.223 . S
Cd86 O96 2.297 . S
Cd86 O97 2.439 . S
O87 Cd86 2.240 . S
O87 C92 1.279 . S
O88 Cd85 2.297 . S
O88 C90 1.247 . S
O89 Cd85 2.439 . S
O89 C90 1.208 . S
C90 O88 1.247 . S
C90 O89 1.208 . S
C91 O96 1.247 . S
C91 O97 1.208 . S
C92 O84 1.315 . S
C92 O87 1.279 . S
C93 O94 1.315 . S
C93 O95 1.279 . S
O94 Cd86 2.223 . S
O94 C93 1.315 . S
O95 Cd85 2.240 . S
O95 C93 1.279 . S
O96 Cd86 2.297 . S
O96 C91 1.247 . S
O97 Cd86 2.439 . S
O97 C91 1.208 . S
O98 Cd99 2.223 . S
O98 C106 1.315 . S
Cd99 O98 2.223 . S
Cd99 O102 2.297 . S
Cd99 O103 2.439 . S
Cd99 O109 2.240 . S
Cd100 O101 2.240 . S
Cd100 O108 2.223 . S
Cd100 O110 2.297 . S
Cd100 O111 2.439 . S
O101 Cd100 2.240 . S
O101 C106 1.279 . S
O102 Cd99 2.297 . S
O102 C104 1.247 . S
O103 Cd99 2.439 . S
O103 C104 1.208 . S
C104 O102 1.247 . S
C104 O103 1.208 . S
C105 O110 1.247 . S
C105 O111 1.208 . S
C106 O98 1.315 . S
C106 O101 1.279 . S
C107 O108 1.315 . S
C107 O109 1.279 . S
O108 Cd100 2.223 . S
O108 C107 1.315 . S
O109 Cd99 2.240 . S
O109 C107 1.279 . S
O110 Cd100 2.297 . S
O110 C105 1.247 . S
O111 Cd100 2.439 . S
O111 C105 1.208 . S
O112 Cd113 2.223 . S
O112 C120 1.315 . S
Cd113 O112 2.223 . S
Cd113 O116 2.297 . S
Cd113 O117 2.439 . S
Cd113 O123 2.240 . S
Cd114 O115 2.240 . S
Cd114 O122 2.223 . S
Cd114 O124 2.297 . S
Cd114 O125 2.439 . S
O115 Cd114 2.240 . S
O115 C120 1.279 . S
O116 Cd113 2.297 . S
O116 C118 1.247 . S
O117 Cd113 2.439 . S
O117 C118 1.208 . S
C118 O116 1.247 . S
C118 O117 1.208 . S
C119 O124 1.247 . S
C119 O125 1.208 . S
C120 O112 1.315 . S
C120 O115 1.279 . S
C121 O122 1.315 . S
C121 O123 1.279 . S
O122 Cd114 2.223 . S
O122 C121 1.315 . S
O123 Cd113 2.240 . S
O123 C121 1.279 . S
O124 Cd114 2.297 . S
O124 C119 1.247 . S
O125 Cd114 2.439 . S
O125 C119 1.208 . S
O126 Cd127 2.223 . S
O126 C134 1.315 . S
Cd127 O126 2.223 . S
Cd127 O130 2.297 . S
Cd127 O131 2.439 . S
Cd127 O137 2.240 . S
Cd128 O129 2.240 . S
Cd128 O136 2.223 . S
Cd128 O138 2.297 . S
Cd128 O139 2.439 . S
O129 Cd128 2.240 . S
O129 C134 1.279 . S
O130 Cd127 2.297 . S
O130 C132 1.247 . S
O131 Cd127 2.439 . S
O131 C132 1.208 . S
C132 O130 1.247 . S
C132 O131 1.208 . S
C133 O138 1.247 . S
C133 O139 1.208 . S
C134 O126 1.315 . S
C134 O129 1.279 . S
C135 O136 1.315 . S
C135 O137 1.279 . S
O136 Cd128 2.223 . S
O136 C135 1.315 . S
O137 Cd127 2.240 . S
O137 C135 1.279 . S
O138 Cd128 2.297 . S
O138 C133 1.247 . S
O139 Cd128 2.439 . S
O139 C133 1.208 . S
O140 Cd141 2.223 . S
O140 C148 1.315 . S
Cd141 O140 2.223 . S
Cd141 O144 2.297 . S
Cd141 O145 2.439 . S
Cd141 O151 2.240 . S
Cd142 O143 2.240 . S
Cd142 O150 2.223 . S
Cd142 O152 2.297 . S
Cd142 O153 2.439 . S
O143 Cd142 2.240 . S
O143 C148 1.279 . S
O144 Cd141 2.297 . S
O144 C146 1.247 . S
O145 Cd141 2.439 . S
O145 C146 1.208 . S
C146 O144 1.247 . S
C146 O145 1.208 . S
C147 O152 1.247 . S
C147 O153 1.208 . S
C148 O140 1.315 . S
C148 O143 1.279 . S
C149 O150 1.315 . S
C149 O151 1.279 . S
O150 Cd142 2.223 . S
O150 C149 1.315 . S
O151 Cd141 2.240 . S
O151 C149 1.279 . S
O152 Cd142 2.297 . S
O152 C147 1.247 . S
O153 Cd142 2.439 . S
O153 C147 1.208 . S
O154 Cd155 2.223 . S
O154 C162 1.315 . S
Cd155 O154 2.223 . S
Cd155 O158 2.297 . S
Cd155 O159 2.439 . S
Cd155 O165 2.240 . S
Cd156 O157 2.240 . S
Cd156 O164 2.223 . S
Cd156 O166 2.297 . S
Cd156 O167 2.439 . S
O157 Cd156 2.240 . S
O157 C162 1.279 . S
O158 Cd155 2.297 . S
O158 C160 1.247 . S
O159 Cd155 2.439 . S
O159 C160 1.208 . S
C160 O158 1.247 . S
C160 O159 1.208 . S
C161 O166 1.247 . S
C161 O167 1.208 . S
C162 O154 1.315 . S
C162 O157 1.279 . S
C163 O164 1.315 . S
C163 O165 1.279 . S
O164 Cd156 2.223 . S
O164 C163 1.315 . S
O165 Cd155 2.240 . S
O165 C163 1.279 . S
O166 Cd156 2.297 . S
O166 C161 1.247 . S
O167 Cd156 2.439 . S
O167 C161 1.208 . S
O168 Cd169 2.223 . S
O168 C176 1.315 . S
Cd169 O168 2.223 . S
Cd169 O172 2.297 . S
Cd169 O173 2.439 . S
Cd169 O179 2.240 . S
Cd170 O171 2.240 . S
Cd170 O178 2.223 . S
Cd170 O180 2.297 . S
Cd170 O181 2.439 . S
O171 Cd170 2.240 . S
O171 C176 1.279 . S
O172 Cd169 2.297 . S
O172 C174 1.247 . S
O173 Cd169 2.439 . S
O173 C174 1.208 . S
C174 O172 1.247 . S
C174 O173 1.208 . S
C175 O180 1.247 . S
C175 O181 1.208 . S
C176 O168 1.315 . S
C176 O171 1.279 . S
C177 O178 1.315 . S
C177 O179 1.279 . S
O178 Cd170 2.223 . S
O178 C177 1.315 . S
O179 Cd169 2.240 . S
O179 C177 1.279 . S
O180 Cd170 2.297 . S
O180 C175 1.247 . S
O181 Cd170 2.439 . S
O181 C175 1.208 . S
O182 Cd183 2.223 . S
O182 C190 1.315 . S
Cd183 O182 2.223 . S
Cd183 O186 2.297 . S
Cd183 O187 2.439 . S
Cd183 O193 2.240 . S
Cd184 O185 2.240 . S
Cd184 O192 2.223 . S
Cd184 O194 2.297 . S
Cd184 O195 2.439 . S
O185 Cd184 2.240 . S
O185 C190 1.279 . S
O186 Cd183 2.297 . S
O186 C188 1.247 . S
O187 Cd183 2.439 . S
O187 C188 1.208 . S
C188 O186 1.247 . S
C188 O187 1.208 . S
C189 O194 1.247 . S
C189 O195 1.208 . S
C190 O182 1.315 . S
C190 O185 1.279 . S
C191 O192 1.315 . S
C191 O193 1.279 . S
O192 Cd184 2.223 . S
O192 C191 1.315 . S
O193 Cd183 2.240 . S
O193 C191 1.279 . S
O194 Cd184 2.297 . S
O194 C189 1.247 . S
O195 Cd184 2.439 . S
O195 C189 1.208 . S
O196 Cd197 2.223 . S
O196 C204 1.315 . S
Cd197 O196 2.223 . S
Cd197 O200 2.297 . S
Cd197 O201 2.439 . S
Cd197 O207 2.240 . S
Cd198 O199 2.240 . S
Cd198 O206 2.223 . S
Cd198 O208 2.297 . S
Cd198 O209 2.439 . S
O199 Cd198 2.240 . S
O199 C204 1.279 . S
O200 Cd197 2.297 . S
O200 C202 1.247 . S
O201 Cd197 2.439 . S
O201 C202 1.208 . S
C202 O200 1.247 . S
C202 O201 1.208 . S
C203 O208 1.247 . S
C203 O209 1.208 . S
C204 O196 1.315 . S
C204 O199 1.279 . S
C205 O206 1.315 . S
C205 O207 1.279 . S
O206 Cd198 2.223 . S
O206 C205 1.315 . S
O207 Cd197 2.240 . S
O207 C205 1.279 . S
O208 Cd198 2.297 . S
O208 C203 1.247 . S
O209 Cd198 2.439 . S
O209 C203 1.208 . S
O210 Cd211 2.223 . S
O210 C218 1.315 . S
Cd211 O210 2.223 . S
Cd211 O214 2.297 . S
Cd211 O215 2.439 . S
Cd211 O221 2.240 . S
Cd212 O213 2.240 . S
Cd212 O220 2.223 . S
Cd212 O222 2.297 . S
Cd212 O223 2.439 . S
O213 Cd212 2.240 . S
O213 C218 1.279 . S
O214 Cd211 2.297 . S
O214 C216 1.247 . S
O215 Cd211 2.439 . S
O215 C216 1.208 . S
C216 O214 1.247 . S
C216 O215 1.208 . S
C217 O222 1.247 . S
C217 O223 1.208 . S
C218 O210 1.315 . S
C218 O213 1.279 . S
C219 O220 1.315 . S
C219 O221 1.279 . S
O220 Cd212 2.223 . S
O220 C219 1.315 . S
O221 Cd211 2.240 . S
O221 C219 1.279 . S
O222 Cd212 2.297 . S
O222 C217 1.247 . S
O223 Cd212 2.439 . S
O223 C217 1.208 . S
H224 C236 0.930 . S
H225 C238 0.930 . S
H226 C239 0.930 . S
H227 C243 0.959 . S
H228 C243 0.959 . S
H229 C243 0.961 . S
H230 C244 0.960 . S
H231 C244 0.961 . S
H232 C244 0.959 . S
H233 C247 0.929 . S
H234 C248 0.931 . S
H235 C250 0.930 . S
C236 H224 0.930 . S
C236 C237 1.399 . S
C236 C241 1.399 . S
C237 C236 1.399 . S
C237 C238 1.376 . S
C238 H225 0.930 . S
C238 C237 1.376 . S
C238 C239 1.388 . S
C239 H226 0.930 . S
C239 C238 1.388 . S
C239 C240 1.390 . S
C240 C239 1.390 . S
C240 C241 1.394 . S
C240 C246 1.465 . S
C241 C236 1.399 . S
C241 C240 1.394 . S
C241 C242 1.516 . S
C242 C241 1.516 . S
C242 C243 1.502 . S
C242 C244 1.561 . S
C242 C245 1.526 . S
C243 H227 0.959 . S
C243 H228 0.959 . S
C243 H229 0.961 . S
C243 C242 1.502 . S
C244 H230 0.960 . S
C244 H231 0.961 . S
C244 H232 0.959 . S
C244 C242 1.561 . S
C245 C242 1.526 . S
C245 C246 1.396 . S
C245 C250 1.390 . S
C246 C240 1.465 . S
C246 C245 1.396 . S
C246 C247 1.399 . S
C247 H233 0.929 . S
C247 C246 1.399 . S
C247 C248 1.385 . S
C248 H234 0.931 . S
C248 C247 1.385 . S
C248 C249 1.389 . S
C249 C248 1.389 . S
C249 C250 1.387 . S
C250 H235 0.930 . S
C250 C245 1.390 . S
C250 C249 1.387 . S
H251 C263 0.930 . S
H252 C265 0.930 . S
H253 C266 0.930 . S
H254 C270 0.959 . S
H255 C270 0.959 . S
H256 C270 0.961 . S
H257 C271 0.960 . S
H258 C271 0.961 . S
H259 C271 0.959 . S
H260 C274 0.929 . S
H261 C275 0.931 . S
H262 C277 0.930 . S
C263 H251 0.930 . S
C263 C264 1.399 . S
C263 C268 1.399 . S
C264 C263 1.399 . S
C264 C265 1.376 . S
C265 H252 0.930 . S
C265 C264 1.376 . S
C265 C266 1.388 . S
C266 H253 0.930 . S
C266 C265 1.388 . S
C266 C267 1.390 . S
C267 C266 1.390 . S
C267 C268 1.394 . S
C267 C273 1.465 . S
C268 C263 1.399 . S
C268 C267 1.394 . S
C268 C269 1.516 . S
C269 C268 1.516 . S
C269 C270 1.502 . S
C269 C271 1.561 . S
C269 C272 1.526 . S
C270 H254 0.959 . S
C270 H255 0.959 . S
C270 H256 0.961 . S
C270 C269 1.502 . S
C271 H257 0.960 . S
C271 H258 0.961 . S
C271 H259 0.959 . S
C271 C269 1.561 . S
C272 C269 1.526 . S
C272 C273 1.396 . S
C272 C277 1.390 . S
C273 C267 1.465 . S
C273 C272 1.396 . S
C273 C274 1.399 . S
C274 H260 0.929 . S
C274 C273 1.399 . S
C274 C275 1.385 . S
C275 H261 0.931 . S
C275 C274 1.385 . S
C275 C276 1.389 . S
C276 C275 1.389 . S
C276 C277 1.387 . S
C277 H262 0.930 . S
C277 C272 1.390 . S
C277 C276 1.387 . S
H278 C290 0.930 . S
H279 C292 0.930 . S
H280 C293 0.930 . S
H281 C297 0.959 . S
H282 C297 0.959 . S
H283 C297 0.961 . S
H284 C298 0.960 . S
H285 C298 0.961 . S
H286 C298 0.959 . S
H287 C301 0.929 . S
H288 C302 0.931 . S
H289 C304 0.930 . S
C290 H278 0.930 . S
C290 C291 1.399 . S
C290 C295 1.399 . S
C291 C290 1.399 . S
C291 C292 1.376 . S
C292 H279 0.930 . S
C292 C291 1.376 . S
C292 C293 1.388 . S
C293 H280 0.930 . S
C293 C292 1.388 . S
C293 C294 1.390 . S
C294 C293 1.390 . S
C294 C295 1.394 . S
C294 C300 1.465 . S
C295 C290 1.399 . S
C295 C294 1.394 . S
C295 C296 1.516 . S
C296 C295 1.516 . S
C296 C297 1.502 . S
C296 C298 1.561 . S
C296 C299 1.526 . S
C297 H281 0.959 . S
C297 H282 0.959 . S
C297 H283 0.961 . S
C297 C296 1.502 . S
C298 H284 0.960 . S
C298 H285 0.961 . S
C298 H286 0.959 . S
C298 C296 1.561 . S
C299 C296 1.526 . S
C299 C300 1.396 . S
C299 C304 1.390 . S
C300 C294 1.465 . S
C300 C299 1.396 . S
C300 C301 1.399 . S
C301 H287 0.929 . S
C301 C300 1.399 . S
C301 C302 1.385 . S
C302 H288 0.931 . S
C302 C301 1.385 . S
C302 C303 1.389 . S
C303 C302 1.389 . S
C303 C304 1.387 . S
C304 H289 0.930 . S
C304 C299 1.390 . S
C304 C303 1.387 . S
H305 C317 0.930 . S
H306 C319 0.930 . S
H307 C320 0.930 . S
H308 C324 0.959 . S
H309 C324 0.959 . S
H310 C324 0.961 . S
H311 C325 0.960 . S
H312 C325 0.961 . S
H313 C325 0.959 . S
H314 C328 0.929 . S
H315 C329 0.931 . S
H316 C331 0.930 . S
C317 H305 0.930 . S
C317 C318 1.399 . S
C317 C322 1.399 . S
C318 C317 1.399 . S
C318 C319 1.376 . S
C319 H306 0.930 . S
C319 C318 1.376 . S
C319 C320 1.388 . S
C320 H307 0.930 . S
C320 C319 1.388 . S
C320 C321 1.390 . S
C321 C320 1.390 . S
C321 C322 1.394 . S
C321 C327 1.465 . S
C322 C317 1.399 . S
C322 C321 1.394 . S
C322 C323 1.516 . S
C323 C322 1.516 . S
C323 C324 1.502 . S
C323 C325 1.561 . S
C323 C326 1.526 . S
C324 H308 0.959 . S
C324 H309 0.959 . S
C324 H310 0.961 . S
C324 C323 1.502 . S
C325 H311 0.960 . S
C325 H312 0.961 . S
C325 H313 0.959 . S
C325 C323 1.561 . S
C326 C323 1.526 . S
C326 C327 1.396 . S
C326 C331 1.390 . S
C327 C321 1.465 . S
C327 C326 1.396 . S
C327 C328 1.399 . S
C328 H314 0.929 . S
C328 C327 1.399 . S
C328 C329 1.385 . S
C329 H315 0.931 . S
C329 C328 1.385 . S
C329 C330 1.389 . S
C330 C329 1.389 . S
C330 C331 1.387 . S
C331 H316 0.930 . S
C331 C326 1.390 . S
C331 C330 1.387 . S
H332 C344 0.930 . S
H333 C346 0.930 . S
H334 C347 0.930 . S
H335 C351 0.959 . S
H336 C351 0.959 . S
H337 C351 0.961 . S
H338 C352 0.960 . S
H339 C352 0.961 . S
H340 C352 0.959 . S
H341 C355 0.929 . S
H342 C356 0.931 . S
H343 C358 0.930 . S
C344 H332 0.930 . S
C344 C345 1.399 . S
C344 C349 1.399 . S
C345 C344 1.399 . S
C345 C346 1.376 . S
C346 H333 0.930 . S
C346 C345 1.376 . S
C346 C347 1.388 . S
C347 H334 0.930 . S
C347 C346 1.388 . S
C347 C348 1.390 . S
C348 C347 1.390 . S
C348 C349 1.394 . S
C348 C354 1.465 . S
C349 C344 1.399 . S
C349 C348 1.394 . S
C349 C350 1.516 . S
C350 C349 1.516 . S
C350 C351 1.502 . S
C350 C352 1.561 . S
C350 C353 1.526 . S
C351 H335 0.959 . S
C351 H336 0.959 . S
C351 H337 0.961 . S
C351 C350 1.502 . S
C352 H338 0.960 . S
C352 H339 0.961 . S
C352 H340 0.959 . S
C352 C350 1.561 . S
C353 C350 1.526 . S
C353 C354 1.396 . S
C353 C358 1.390 . S
C354 C348 1.465 . S
C354 C353 1.396 . S
C354 C355 1.399 . S
C355 H341 0.929 . S
C355 C354 1.399 . S
C355 C356 1.385 . S
C356 H342 0.931 . S
C356 C355 1.385 . S
C356 C357 1.389 . S
C357 C356 1.389 . S
C357 C358 1.387 . S
C358 H343 0.930 . S
C358 C353 1.390 . S
C358 C357 1.387 . S
H359 C371 0.930 . S
H360 C373 0.930 . S
H361 C374 0.930 . S
H362 C378 0.959 . S
H363 C378 0.959 . S
H364 C378 0.961 . S
H365 C379 0.960 . S
H366 C379 0.961 . S
H367 C379 0.959 . S
H368 C382 0.929 . S
H369 C383 0.931 . S
H370 C385 0.930 . S
C371 H359 0.930 . S
C371 C372 1.399 . S
C371 C376 1.399 . S
C372 C371 1.399 . S
C372 C373 1.376 . S
C373 H360 0.930 . S
C373 C372 1.376 . S
C373 C374 1.388 . S
C374 H361 0.930 . S
C374 C373 1.388 . S
C374 C375 1.390 . S
C375 C374 1.390 . S
C375 C376 1.394 . S
C375 C381 1.465 . S
C376 C371 1.399 . S
C376 C375 1.394 . S
C376 C377 1.516 . S
C377 C376 1.516 . S
C377 C378 1.502 . S
C377 C379 1.561 . S
C377 C380 1.526 . S
C378 H362 0.959 . S
C378 H363 0.959 . S
C378 H364 0.961 . S
C378 C377 1.502 . S
C379 H365 0.960 . S
C379 H366 0.961 . S
C379 H367 0.959 . S
C379 C377 1.561 . S
C380 C377 1.526 . S
C380 C381 1.396 . S
C380 C385 1.390 . S
C381 C375 1.465 . S
C381 C380 1.396 . S
C381 C382 1.399 . S
C382 H368 0.929 . S
C382 C381 1.399 . S
C382 C383 1.385 . S
C383 H369 0.931 . S
C383 C382 1.385 . S
C383 C384 1.389 . S
C384 C383 1.389 . S
C384 C385 1.387 . S
C385 H370 0.930 . S
C385 C380 1.390 . S
C385 C384 1.387 . S
H386 C398 0.930 . S
H387 C400 0.930 . S
H388 C401 0.930 . S
H389 C405 0.959 . S
H390 C405 0.959 . S
H391 C405 0.961 . S
H392 C406 0.960 . S
H393 C406 0.961 . S
H394 C406 0.959 . S
H395 C409 0.929 . S
H396 C410 0.931 . S
H397 C412 0.930 . S
C398 H386 0.930 . S
C398 C399 1.399 . S
C398 C403 1.399 . S
C399 C398 1.399 . S
C399 C400 1.376 . S
C400 H387 0.930 . S
C400 C399 1.376 . S
C400 C401 1.388 . S
C401 H388 0.930 . S
C401 C400 1.388 . S
C401 C402 1.390 . S
C402 C401 1.390 . S
C402 C403 1.394 . S
C402 C408 1.465 . S
C403 C398 1.399 . S
C403 C402 1.394 . S
C403 C404 1.516 . S
C404 C403 1.516 . S
C404 C405 1.502 . S
C404 C406 1.561 . S
C404 C407 1.526 . S
C405 H389 0.959 . S
C405 H390 0.959 . S
C405 H391 0.961 . S
C405 C404 1.502 . S
C406 H392 0.960 . S
C406 H393 0.961 . S
C406 H394 0.959 . S
C406 C404 1.561 . S
C407 C404 1.526 . S
C407 C408 1.396 . S
C407 C412 1.390 . S
C408 C402 1.465 . S
C408 C407 1.396 . S
C408 C409 1.399 . S
C409 H395 0.929 . S
C409 C408 1.399 . S
C409 C410 1.385 . S
C410 H396 0.931 . S
C410 C409 1.385 . S
C410 C411 1.389 . S
C411 C410 1.389 . S
C411 C412 1.387 . S
C412 H397 0.930 . S
C412 C407 1.390 . S
C412 C411 1.387 . S
H413 C425 0.930 . S
H414 C427 0.930 . S
H415 C428 0.930 . S
H416 C432 0.959 . S
H417 C432 0.959 . S
H418 C432 0.961 . S
H419 C433 0.960 . S
H420 C433 0.961 . S
H421 C433 0.959 . S
H422 C436 0.929 . S
H423 C437 0.931 . S
H424 C439 0.930 . S
C425 H413 0.930 . S
C425 C426 1.399 . S
C425 C430 1.399 . S
C426 C425 1.399 . S
C426 C427 1.376 . S
C427 H414 0.930 . S
C427 C426 1.376 . S
C427 C428 1.388 . S
C428 H415 0.930 . S
C428 C427 1.388 . S
C428 C429 1.390 . S
C429 C428 1.390 . S
C429 C430 1.394 . S
C429 C435 1.465 . S
C430 C425 1.399 . S
C430 C429 1.394 . S
C430 C431 1.516 . S
C431 C430 1.516 . S
C431 C432 1.502 . S
C431 C433 1.561 . S
C431 C434 1.526 . S
C432 H416 0.959 . S
C432 H417 0.959 . S
C432 H418 0.961 . S
C432 C431 1.502 . S
C433 H419 0.960 . S
C433 H420 0.961 . S
C433 H421 0.959 . S
C433 C431 1.561 . S
C434 C431 1.526 . S
C434 C435 1.396 . S
C434 C439 1.390 . S
C435 C429 1.465 . S
C435 C434 1.396 . S
C435 C436 1.399 . S
C436 H422 0.929 . S
C436 C435 1.399 . S
C436 C437 1.385 . S
C437 H423 0.931 . S
C437 C436 1.385 . S
C437 C438 1.389 . S
C438 C437 1.389 . S
C438 C439 1.387 . S
C439 H424 0.930 . S
C439 C434 1.390 . S
C439 C438 1.387 . S
H440 C452 0.930 . S
H441 C454 0.930 . S
H442 C455 0.930 . S
H443 C459 0.959 . S
H444 C459 0.959 . S
H445 C459 0.961 . S
H446 C460 0.960 . S
H447 C460 0.961 . S
H448 C460 0.959 . S
H449 C463 0.929 . S
H450 C464 0.931 . S
H451 C466 0.930 . S
C452 H440 0.930 . S
C452 C453 1.399 . S
C452 C457 1.399 . S
C453 C452 1.399 . S
C453 C454 1.376 . S
C454 H441 0.930 . S
C454 C453 1.376 . S
C454 C455 1.388 . S
C455 H442 0.930 . S
C455 C454 1.388 . S
C455 C456 1.390 . S
C456 C455 1.390 . S
C456 C457 1.394 . S
C456 C462 1.465 . S
C457 C452 1.399 . S
C457 C456 1.394 . S
C457 C458 1.516 . S
C458 C457 1.516 . S
C458 C459 1.502 . S
C458 C460 1.561 . S
C458 C461 1.526 . S
C459 H443 0.959 . S
C459 H444 0.959 . S
C459 H445 0.961 . S
C459 C458 1.502 . S
C460 H446 0.960 . S
C460 H447 0.961 . S
C460 H448 0.959 . S
C460 C458 1.561 . S
C461 C458 1.526 . S
C461 C462 1.396 . S
C461 C466 1.390 1_556 S
C462 C456 1.465 . S
C462 C461 1.396 . S
C462 C463 1.399 . S
C463 H449 0.929 . S
C463 C462 1.399 . S
C463 C464 1.385 1_556 S
C464 H450 0.931 . S
C464 C463 1.385 1_554 S
C464 C465 1.389 . S
C465 C464 1.389 . S
C465 C466 1.387 . S
C466 H451 0.930 . S
C466 C461 1.390 1_554 S
C466 C465 1.387 . S
H467 C479 0.930 . S
H468 C481 0.930 . S
H469 C482 0.930 . S
H470 C486 0.959 . S
H471 C486 0.959 . S
H472 C486 0.961 . S
H473 C487 0.921 1_556 S
H474 C487 0.961 . S
H475 C487 0.959 . S
H476 C490 0.929 . S
H477 C491 0.931 . S
H478 C493 0.930 . S
C479 H467 0.930 . S
C479 C480 1.399 . S
C479 C484 1.399 1_556 S
C480 C479 1.399 . S
C480 C481 1.376 . S
C481 H468 0.930 . S
C481 C480 1.376 . S
C481 C482 1.388 1_556 S
C482 H469 0.930 . S
C482 C481 1.388 1_554 S
C482 C483 1.390 . S
C483 C482 1.390 . S
C483 C484 1.394 . S
C483 C489 1.465 . S
C484 C479 1.399 1_554 S
C484 C483 1.394 . S
C484 C485 1.516 . S
C485 C484 1.516 . S
C485 C486 1.502 . S
C485 C487 1.561 . S
C485 C488 1.526 . S
C486 H470 0.959 . S
C486 H471 0.959 . S
C486 H472 0.961 . S
C486 C485 1.502 . S
C487 H473 0.921 1_554 S
C487 H474 0.961 . S
C487 H475 0.959 . S
C487 C485 1.561 . S
C488 C485 1.526 . S
C488 C489 1.396 . S
C488 C493 1.390 . S
C489 C483 1.465 . S
C489 C488 1.396 . S
C489 C490 1.399 . S
C490 H476 0.929 . S
C490 C489 1.399 . S
C490 C491 1.385 . S
C491 H477 0.931 . S
C491 C490 1.385 . S
C491 C492 1.389 . S
C492 C491 1.389 . S
C492 C493 1.387 . S
C493 H478 0.930 . S
C493 C488 1.390 . S
C493 C492 1.387 . S
H494 C506 0.930 . S
H495 C508 0.930 . S
H496 C509 0.930 . S
H497 C513 0.959 . S
H498 C513 0.959 . S
H499 C513 0.961 . S
H500 C514 0.960 . S
H501 C514 0.961 1_554 S
H502 C514 0.959 . S
H503 C517 0.929 . S
H504 C518 0.931 . S
H505 C520 0.930 . S
C506 H494 0.930 . S
C506 C507 1.399 . S
C506 C511 1.399 . S
C507 C506 1.399 . S
C507 C508 1.376 . S
C508 H495 0.930 . S
C508 C507 1.376 . S
C508 C509 1.388 . S
C509 H496 0.930 . S
C509 C508 1.388 . S
C509 C510 1.390 . S
C510 C509 1.390 . S
C510 C511 1.394 . S
C510 C516 1.465 1_556 S
C511 C506 1.399 . S
C511 C510 1.394 . S
C511 C512 1.516 . S
C512 C511 1.516 . S
C512 C513 1.502 . S
C512 C514 1.561 . S
C512 C515 1.526 1_556 S
C513 H497 0.959 . S
C513 H498 0.959 . S
C513 H499 0.961 . S
C513 C512 1.502 . S
C514 H500 0.960 . S
C514 H501 0.961 1_556 S
C514 H502 0.959 . S
C514 C512 1.561 . S
C515 C512 1.526 1_554 S
C515 C516 1.396 . S
C515 C520 1.390 . S
C516 C510 1.465 1_554 S
C516 C515 1.396 . S
C516 C517 1.399 . S
C517 H503 0.929 . S
C517 C516 1.399 . S
C517 C518 1.385 . S
C518 H504 0.931 . S
C518 C517 1.385 . S
C518 C519 1.389 . S
C519 C518 1.389 . S
C519 C520 1.387 . S
C520 H505 0.930 . S
C520 C515 1.390 . S
C520 C519 1.387 . S
H521 C533 0.930 . S
H522 C535 0.930 . S
H523 C536 0.930 . S
H524 C540 0.959 . S
H525 C540 0.959 . S
H526 C540 0.961 1_554 S
H527 C541 0.960 1_554 S
H528 C541 0.961 . S
H529 C541 0.959 . S
H530 C544 0.929 . S
H531 C545 0.931 . S
H532 C547 0.930 . S
C533 H521 0.930 . S
C533 C534 1.399 . S
C533 C538 1.399 . S
C534 C533 1.399 . S
C534 C535 1.376 . S
C535 H522 0.930 . S
C535 C534 1.376 . S
C535 C536 1.388 . S
C536 H523 0.930 . S
C536 C535 1.388 . S
C536 C537 1.390 . S
C537 C536 1.390 . S
C537 C538 1.394 . S
C537 C543 1.465 1_554 S
C538 C533 1.399 . S
C538 C537 1.394 . S
C538 C539 1.516 1_554 S
C539 C538 1.516 1_556 S
C539 C540 1.502 . S
C539 C541 1.561 . S
C539 C542 1.526 . S
C540 H524 0.959 . S
C540 H525 0.959 . S
C540 H526 0.961 1_556 S
C540 C539 1.502 . S
C541 H527 0.960 1_556 S
C541 H528 0.961 . S
C541 H529 0.959 . S
C541 C539 1.561 . S
C542 C539 1.526 . S
C542 C543 1.396 . S
C542 C547 1.390 . S
C543 C537 1.465 1_556 S
C543 C542 1.396 . S
C543 C544 1.399 . S
C544 H530 0.929 . S
C544 C543 1.399 . S
C544 C545 1.385 . S
C545 H531 0.931 . S
C545 C544 1.385 . S
C545 C546 1.389 . S
C546 C545 1.389 . S
C546 C547 1.387 . S
C547 H532 0.930 . S
C547 C542 1.390 . S
C547 C546 1.387 . S
H548 C560 0.930 . S
H549 C562 0.930 . S
H550 C563 0.930 . S
H551 C567 0.959 . S
H552 C567 0.959 1_655 S
H553 C567 0.961 . S
H554 C568 0.960 . S
H555 C568 0.961 . S
H556 C568 0.959 . S
H557 C571 0.929 . S
H558 C572 0.931 . S
H559 C574 0.930 . S
C560 H548 0.930 . S
C560 C561 1.399 . S
C560 C565 1.399 . S
C561 C560 1.399 . S
C561 C562 1.376 . S
C562 H549 0.930 . S
C562 C561 1.376 . S
C562 C563 1.388 . S
C563 H550 0.930 . S
C563 C562 1.388 . S
C563 C564 1.390 . S
C564 C563 1.390 . S
C564 C565 1.394 . S
C564 C570 1.465 . S
C565 C560 1.399 . S
C565 C564 1.394 . S
C565 C566 1.516 . S
C566 C565 1.516 . S
C566 C567 1.502 . S
C566 C568 1.561 . S
C566 C569 1.526 . S
C567 H551 0.959 . S
C567 H552 0.959 1_455 S
C567 H553 0.961 . S
C567 C566 1.502 . S
C568 H554 0.960 . S
C568 H555 0.961 . S
C568 H556 0.959 . S
C568 C566 1.561 . S
C569 C566 1.526 . S
C569 C570 1.396 . S
C569 C574 1.390 1_455 S
C570 C564 1.465 . S
C570 C569 1.396 . S
C570 C571 1.399 . S
C571 H557 0.929 . S
C571 C570 1.399 . S
C571 C572 1.385 1_455 S
C572 H558 0.931 . S
C572 C571 1.385 1_655 S
C572 C573 1.389 . S
C573 C572 1.389 . S
C573 C574 1.387 . S
C574 H559 0.930 . S
C574 C569 1.390 1_655 S
C574 C573 1.387 . S
H575 C587 0.930 . S
H576 C589 0.930 . S
H577 C590 0.931 1_545 S
H578 C594 0.959 . S
H579 C594 0.959 . S
H580 C594 0.961 1_565 S
H581 C595 0.960 1_565 S
H582 C595 0.961 . S
H583 C595 0.959 . S
H584 C598 0.929 . S
H585 C599 0.931 . S
H586 C601 0.930 . S
C587 H575 0.930 . S
C587 C588 1.399 . S
C587 C592 1.399 . S
C588 C587 1.399 . S
C588 C589 1.376 . S
C589 H576 0.930 . S
C589 C588 1.376 . S
C589 C590 1.388 . S
C590 H577 0.931 1_565 S
C590 C589 1.388 . S
C590 C591 1.390 1_565 S
C591 C590 1.390 1_545 S
C591 C592 1.394 1_545 S
C591 C597 1.465 . S
C592 C587 1.399 . S
C592 C591 1.394 1_565 S
C592 C593 1.516 1_565 S
C593 C592 1.516 1_545 S
C593 C594 1.502 . S
C593 C595 1.561 . S
C593 C596 1.526 . S
C594 H578 0.959 . S
C594 H579 0.959 . S
C594 H580 0.961 1_545 S
C594 C593 1.502 . S
C595 H581 0.960 1_545 S
C595 H582 0.961 . S
C595 H583 0.959 . S
C595 C593 1.561 . S
C596 C593 1.526 . S
C596 C597 1.396 . S
C596 C601 1.390 . S
C597 C591 1.465 . S
C597 C596 1.396 . S
C597 C598 1.399 . S
C598 H584 0.929 . S
C598 C597 1.399 . S
C598 C599 1.385 . S
C599 H585 0.931 . S
C599 C598 1.385 . S
C599 C600 1.389 . S
C600 C599 1.389 . S
C600 C601 1.387 . S
C601 H586 0.930 . S
C601 C596 1.390 . S
C601 C600 1.387 . S
H602 C614 0.930 . S
H603 C616 0.930 . S
H604 C617 0.930 . S
H605 C621 0.952 1_455 S
H606 C621 0.935 1_455 S
H607 C621 0.985 . S
H608 C622 0.960 . S
H609 C622 0.961 . S
H610 C622 0.959 . S
H611 C625 0.929 . S
H612 C626 0.931 . S
H613 C628 0.930 . S
C614 H602 0.930 . S
C614 C615 1.399 . S
C614 C619 1.399 . S
C615 C614 1.399 . S
C615 C616 1.376 . S
C616 H603 0.930 . S
C616 C615 1.376 . S
C616 C617 1.388 . S
C617 H604 0.930 . S
C617 C616 1.388 . S
C617 C618 1.390 . S
C618 C617 1.390 . S
C618 C619 1.394 . S
C618 C624 1.465 . S
C619 C614 1.399 . S
C619 C618 1.394 . S
C619 C620 1.516 . S
C620 C619 1.516 . S
C620 C621 1.510 . S
C620 C622 1.561 . S
C620 C623 1.526 1_655 S
C621 H605 0.952 1_655 S
C621 H606 0.935 1_655 S
C621 H607 0.985 . S
C621 C620 1.510 . S
C622 H608 0.960 . S
C622 H609 0.961 . S
C622 H610 0.959 . S
C622 C620 1.561 . S
C623 C620 1.526 1_455 S
C623 C624 1.396 1_455 S
C623 C628 1.390 . S
C624 C618 1.465 . S
C624 C623 1.396 1_655 S
C624 C625 1.399 1_655 S
C625 H611 0.929 . S
C625 C624 1.399 1_455 S
C625 C626 1.385 . S
C626 H612 0.931 . S
C626 C625 1.385 . S
C626 C627 1.389 . S
C627 C626 1.389 . S
C627 C628 1.387 . S
C628 H613 0.930 . S
C628 C623 1.390 . S
C628 C627 1.387 . S
H629 C641 0.930 . S
H630 C643 0.930 . S
H631 C644 0.930 . S
H632 C648 0.959 . S
H633 C648 0.959 . S
H634 C648 0.961 . S
H635 C649 0.960 . S
H636 C649 0.961 . S
H637 C649 0.959 . S
H638 C652 0.929 . S
H639 C653 0.931 . S
H640 C655 0.930 . S
C641 H629 0.930 . S
C641 C642 1.399 . S
C641 C646 1.399 1_545 S
C642 C641 1.399 . S
C642 C643 1.376 . S
C643 H630 0.930 . S
C643 C642 1.376 . S
C643 C644 1.388 . S
C644 H631 0.930 . S
C644 C643 1.388 . S
C644 C645 1.390 1_545 S
C645 C644 1.390 1_565 S
C645 C646 1.394 . S
C645 C651 1.465 . S
C646 C641 1.399 1_565 S
C646 C645 1.394 . S
C646 C647 1.516 . S
C647 C646 1.516 . S
C647 C648 1.502 . S
C647 C649 1.561 . S
C647 C650 1.526 . S
C648 H632 0.959 . S
C648 H633 0.959 . S
C648 H634 0.961 . S
C648 C647 1.502 . S
C649 H635 0.960 . S
C649 H636 0.961 . S
C649 H637 0.959 . S
C649 C647 1.561 . S
C650 C647 1.526 . S
C650 C651 1.396 . S
C650 C655 1.390 . S
C651 C645 1.465 . S
C651 C650 1.396 . S
C651 C652 1.399 . S
C652 H638 0.929 . S
C652 C651 1.399 . S
C652 C653 1.385 . S
C653 H639 0.931 . S
C653 C652 1.385 . S
C653 C654 1.389 . S
C654 C653 1.389 . S
C654 C655 1.387 . S
C655 H640 0.930 . S
C655 C650 1.390 . S
C655 C654 1.387 . S
H656 C668 0.930 . S
H657 C670 0.930 . S
H658 C671 0.930 . S
H659 C675 0.959 . S
H660 C675 0.959 . S
H661 C675 0.961 . S
H662 C676 0.960 . S
H663 C676 0.961 . S
H664 C676 0.959 . S
H665 C679 0.929 . S
H666 C680 0.931 . S
H667 C682 0.930 . S
C668 H656 0.930 . S
C668 C669 1.399 . S
C668 C673 1.399 . S
C669 C668 1.399 . S
C669 C670 1.376 . S
C670 H657 0.930 . S
C670 C669 1.376 . S
C670 C671 1.388 . S
C671 H658 0.930 . S
C671 C670 1.388 . S
C671 C672 1.390 . S
C672 C671 1.390 . S
C672 C673 1.394 . S
C672 C678 1.465 . S
C673 C668 1.399 . S
C673 C672 1.394 . S
C673 C674 1.516 . S
C674 C673 1.516 . S
C674 C675 1.502 . S
C674 C676 1.561 . S
C674 C677 1.526 . S
C675 H659 0.959 . S
C675 H660 0.959 . S
C675 H661 0.961 . S
C675 C674 1.502 . S
C676 H662 0.960 . S
C676 H663 0.961 . S
C676 H664 0.959 . S
C676 C674 1.561 . S
C677 C674 1.526 . S
C677 C678 1.396 . S
C677 C682 1.390 1_655 S
C678 C672 1.465 . S
C678 C677 1.396 . S
C678 C679 1.399 1_655 S
C679 H665 0.929 . S
C679 C678 1.399 1_455 S
C679 C680 1.385 . S
C680 H666 0.931 . S
C680 C679 1.385 . S
C680 C681 1.389 . S
C681 C680 1.389 . S
C681 C682 1.387 . S
C682 H667 0.930 . S
C682 C677 1.390 1_455 S
C682 C681 1.387 . S
H683 C695 0.930 . S
H684 C697 0.930 . S
H685 C698 0.930 . S
H686 C702 0.959 . S
H687 C702 0.959 . S
H688 C702 0.961 . S
H689 C703 0.960 . S
H690 C703 0.961 . S
H691 C703 0.959 . S
H692 C706 0.929 . S
H693 C707 0.931 . S
H694 C709 0.930 . S
C695 H683 0.930 . S
C695 C696 1.399 . S
C695 C700 1.399 . S
C696 C695 1.399 . S
C696 C697 1.376 . S
C697 H684 0.930 . S
C697 C696 1.376 . S
C697 C698 1.388 . S
C698 H685 0.930 . S
C698 C697 1.388 . S
C698 C699 1.390 . S
C699 C698 1.390 . S
C699 C700 1.394 . S
C699 C705 1.465 . S
C700 C695 1.399 . S
C700 C699 1.394 . S
C700 C701 1.516 . S
C701 C700 1.516 . S
C701 C702 1.502 . S
C701 C703 1.561 . S
C701 C704 1.526 . S
C702 H686 0.959 . S
C702 H687 0.959 . S
C702 H688 0.961 . S
C702 C701 1.502 . S
C703 H689 0.960 . S
C703 H690 0.961 . S
C703 H691 0.959 . S
C703 C701 1.561 . S
C704 C701 1.526 . S
C704 C705 1.396 . S
C704 C709 1.390 1_565 S
C705 C699 1.465 . S
C705 C704 1.396 . S
C705 C706 1.399 . S
C706 H692 0.929 . S
C706 C705 1.399 . S
C706 C707 1.385 1_565 S
C707 H693 0.931 . S
C707 C706 1.385 1_545 S
C707 C708 1.389 . S
C708 C707 1.389 . S
C708 C709 1.387 . S
C709 H694 0.930 . S
C709 C704 1.390 1_545 S
C709 C708 1.387 . S
H710 C722 0.930 . S
H711 C724 0.930 . S
H712 C725 0.930 . S
H713 C729 0.959 . S
H714 C729 0.959 1_655 S
H715 C729 0.961 . S
H716 C730 0.960 1_455 S
H717 C730 0.961 . S
H718 C730 0.959 . S
H719 C733 0.932 . S
H720 C734 0.931 . S
H721 C736 0.930 . S
C722 H710 0.930 . S
C722 C723 1.399 . S
C722 C727 1.399 . S
C723 C722 1.399 . S
C723 C724 1.376 . S
C724 H711 0.930 . S
C724 C723 1.376 . S
C724 C725 1.388 . S
C725 H712 0.930 . S
C725 C724 1.388 . S
C725 C726 1.390 . S
C726 C725 1.390 . S
C726 C727 1.394 . S
C726 C732 1.465 . S
C727 C722 1.399 . S
C727 C726 1.394 . S
C727 C728 1.516 . S
C728 C727 1.516 . S
C728 C729 1.502 . S
C728 C730 1.561 1_455 S
C728 C731 1.526 1_455 S
C729 H713 0.959 . S
C729 H714 0.959 1_455 S
C729 H715 0.961 . S
C729 C728 1.502 . S
C730 H716 0.960 1_655 S
C730 H717 0.961 . S
C730 H718 0.959 . S
C730 C728 1.561 1_655 S
C731 C728 1.526 1_655 S
C731 C732 1.396 1_655 S
C731 C736 1.390 . S
C732 C726 1.465 . S
C732 C731 1.396 1_455 S
C732 C733 1.399 1_455 S
C733 H719 0.932 . S
C733 C732 1.399 1_655 S
C733 C734 1.385 . S
C734 H720 0.931 . S
C734 C733 1.385 . S
C734 C735 1.389 . S
C735 C734 1.389 . S
C735 C736 1.387 . S
C736 H721 0.930 . S
C736 C731 1.390 . S
C736 C735 1.387 . S
H737 C749 0.930 . S
H738 C751 0.930 . S
H739 C752 0.930 . S
H740 C756 0.959 . S
H741 C756 0.959 . S
H742 C756 0.961 . S
H743 C757 0.960 . S
H744 C757 0.961 . S
H745 C757 0.959 . S
H746 C760 0.929 . S
H747 C761 0.931 . S
H748 C763 0.930 . S
C749 H737 0.930 . S
C749 C750 1.399 1_545 S
C749 C754 1.399 . S
C750 C749 1.399 1_565 S
C750 C751 1.376 . S
C751 H738 0.930 . S
C751 C750 1.376 . S
C751 C752 1.388 1_565 S
C752 H739 0.930 . S
C752 C751 1.388 1_545 S
C752 C753 1.390 . S
C753 C752 1.390 . S
C753 C754 1.394 . S
C753 C759 1.465 . S
C754 C749 1.399 . S
C754 C753 1.394 . S
C754 C755 1.516 . S
C755 C754 1.516 . S
C755 C756 1.502 . S
C755 C757 1.561 . S
C755 C758 1.526 . S
C756 H740 0.959 . S
C756 H741 0.959 . S
C756 H742 0.961 . S
C756 C755 1.502 . S
C757 H743 0.960 . S
C757 H744 0.961 . S
C757 H745 0.959 . S
C757 C755 1.561 . S
C758 C755 1.526 . S
C758 C759 1.396 . S
C758 C763 1.390 . S
C759 C753 1.465 . S
C759 C758 1.396 . S
C759 C760 1.399 . S
C760 H746 0.929 . S
C760 C759 1.399 . S
C760 C761 1.385 . S
C761 H747 0.931 . S
C761 C760 1.385 . S
C761 C762 1.389 . S
C762 C761 1.389 . S
C762 C763 1.387 . S
C763 H748 0.930 . S
C763 C758 1.390 . S
C763 C762 1.387 . S
H764 C776 0.930 . S
H765 C778 0.930 . S
H766 C779 0.930 . S
H767 C783 0.959 . S
H768 C783 0.959 . S
H769 C783 0.961 . S
H770 C784 0.960 . S
H771 C784 0.961 . S
H772 C784 0.959 . S
H773 C787 0.929 . S
H774 C788 0.931 . S
H775 C790 0.930 . S
C776 H764 0.930 . S
C776 C777 1.399 . S
C776 C781 1.399 . S
C777 C776 1.399 . S
C777 C778 1.376 . S
C778 H765 0.930 . S
C778 C777 1.376 . S
C778 C779 1.388 . S
C779 H766 0.930 . S
C779 C778 1.388 . S
C779 C780 1.390 . S
C780 C779 1.390 . S
C780 C781 1.394 . S
C780 C786 1.465 . S
C781 C776 1.399 . S
C781 C780 1.394 . S
C781 C782 1.516 . S
C782 C781 1.516 . S
C782 C783 1.502 . S
C782 C784 1.561 . S
C782 C785 1.526 . S
C783 H767 0.959 . S
C783 H768 0.959 . S
C783 H769 0.961 . S
C783 C782 1.502 . S
C784 H770 0.960 . S
C784 H771 0.961 . S
C784 H772 0.959 . S
C784 C782 1.561 . S
C785 C782 1.526 . S
C785 C786 1.396 . S
C785 C790 1.390 . S
C786 C780 1.465 . S
C786 C785 1.396 . S
C786 C787 1.399 . S
C787 H773 0.929 . S
C787 C786 1.399 . S
C787 C788 1.385 . S
C788 H774 0.931 . S
C788 C787 1.385 . S
C788 C789 1.389 . S
C789 C788 1.389 . S
C789 C790 1.387 . S
C790 H775 0.930 . S
C790 C785 1.390 . S
C790 C789 1.387 . S
H791 C803 0.930 . S
H792 C805 0.930 . S
H793 C806 0.930 . S
H794 C810 0.959 . S
H795 C810 0.959 . S
H796 C810 0.961 . S
H797 C811 0.960 . S
H798 C811 0.961 . S
H799 C811 0.959 . S
H800 C814 0.929 . S
H801 C815 0.931 . S
H802 C817 0.930 . S
C803 H791 0.930 . S
C803 C804 1.399 . S
C803 C808 1.399 . S
C804 C803 1.399 . S
C804 C805 1.376 . S
C805 H792 0.930 . S
C805 C804 1.376 . S
C805 C806 1.388 . S
C806 H793 0.930 . S
C806 C805 1.388 . S
C806 C807 1.390 . S
C807 C806 1.390 . S
C807 C808 1.394 . S
C807 C813 1.465 . S
C808 C803 1.399 . S
C808 C807 1.394 . S
C808 C809 1.516 . S
C809 C808 1.516 . S
C809 C810 1.502 . S
C809 C811 1.561 . S
C809 C812 1.526 . S
C810 H794 0.959 . S
C810 H795 0.959 . S
C810 H796 0.961 . S
C810 C809 1.502 . S
C811 H797 0.960 . S
C811 H798 0.961 . S
C811 H799 0.959 . S
C811 C809 1.561 . S
C812 C809 1.526 . S
C812 C813 1.396 . S
C812 C817 1.390 . S
C813 C807 1.465 . S
C813 C812 1.396 . S
C813 C814 1.399 . S
C814 H800 0.929 . S
C814 C813 1.399 . S
C814 C815 1.385 . S
C815 H801 0.931 . S
C815 C814 1.385 . S
C815 C816 1.389 . S
C816 C815 1.389 . S
C816 C817 1.387 . S
C817 H802 0.930 . S
C817 C812 1.390 . S
C817 C816 1.387 . S
H818 C830 0.930 . S
H819 C832 0.930 . S
H820 C833 0.930 . S
H821 C837 0.959 . S
H822 C837 0.959 . S
H823 C837 0.961 . S
H824 C838 0.960 . S
H825 C838 0.961 . S
H826 C838 0.959 . S
H827 C841 0.929 . S
H828 C842 0.931 . S
H829 C844 0.930 . S
C830 H818 0.930 . S
C830 C831 1.399 . S
C830 C835 1.399 . S
C831 C830 1.399 . S
C831 C832 1.376 . S
C832 H819 0.930 . S
C832 C831 1.376 . S
C832 C833 1.388 . S
C833 H820 0.930 . S
C833 C832 1.388 . S
C833 C834 1.390 . S
C834 C833 1.390 . S
C834 C835 1.394 . S
C834 C840 1.465 . S
C835 C830 1.399 . S
C835 C834 1.394 . S
C835 C836 1.516 . S
C836 C835 1.516 . S
C836 C837 1.502 . S
C836 C838 1.561 . S
C836 C839 1.526 . S
C837 H821 0.959 . S
C837 H822 0.959 . S
C837 H823 0.961 . S
C837 C836 1.502 . S
C838 H824 0.960 . S
C838 H825 0.961 . S
C838 H826 0.959 . S
C838 C836 1.561 . S
C839 C836 1.526 . S
C839 C840 1.396 . S
C839 C844 1.390 . S
C840 C834 1.465 . S
C840 C839 1.396 . S
C840 C841 1.399 . S
C841 H827 0.929 . S
C841 C840 1.399 . S
C841 C842 1.385 . S
C842 H828 0.931 . S
C842 C841 1.385 . S
C842 C843 1.389 . S
C843 C842 1.389 . S
C843 C844 1.387 . S
C844 H829 0.930 . S
C844 C839 1.390 . S
C844 C843 1.387 . S
H845 C857 0.930 . S
H846 C859 0.930 . S
H847 C860 0.930 . S
H848 C864 0.959 . S
H849 C864 0.959 . S
H850 C864 0.961 . S
H851 C865 0.960 . S
H852 C865 0.961 . S
H853 C865 0.959 . S
H854 C868 0.929 . S
H855 C869 0.931 . S
H856 C871 0.930 . S
C857 H845 0.930 . S
C857 C858 1.399 . S
C857 C862 1.399 . S
C858 C857 1.399 . S
C858 C859 1.376 . S
C859 H846 0.930 . S
C859 C858 1.376 . S
C859 C860 1.388 . S
C860 H847 0.930 . S
C860 C859 1.388 . S
C860 C861 1.390 . S
C861 C860 1.390 . S
C861 C862 1.394 . S
C861 C867 1.465 . S
C862 C857 1.399 . S
C862 C861 1.394 . S
C862 C863 1.516 . S
C863 C862 1.516 . S
C863 C864 1.502 . S
C863 C865 1.561 . S
C863 C866 1.526 . S
C864 H848 0.959 . S
C864 H849 0.959 . S
C864 H850 0.961 . S
C864 C863 1.502 . S
C865 H851 0.960 . S
C865 H852 0.961 . S
C865 H853 0.959 . S
C865 C863 1.561 . S
C866 C863 1.526 . S
C866 C867 1.396 . S
C866 C871 1.390 . S
C867 C861 1.465 . S
C867 C866 1.396 . S
C867 C868 1.399 . S
C868 H854 0.929 . S
C868 C867 1.399 . S
C868 C869 1.385 . S
C869 H855 0.931 . S
C869 C868 1.385 . S
C869 C870 1.389 . S
C870 C869 1.389 . S
C870 C871 1.387 . S
C871 H856 0.930 . S
C871 C866 1.390 . S
C871 C870 1.387 . S
H872 C884 0.930 . S
H873 C886 0.930 . S
H874 C887 0.930 . S
H875 C891 0.959 . S
H876 C891 0.959 . S
H877 C891 0.961 . S
H878 C892 0.960 . S
H879 C892 0.961 . S
H880 C892 0.959 . S
H881 C895 0.929 . S
H882 C896 0.931 . S
H883 C898 0.930 . S
C884 H872 0.930 . S
C884 C885 1.399 . S
C884 C889 1.399 . S
C885 C884 1.399 . S
C885 C886 1.376 . S
C886 H873 0.930 . S
C886 C885 1.376 . S
C886 C887 1.388 . S
C887 H874 0.930 . S
C887 C886 1.388 . S
C887 C888 1.390 . S
C888 C887 1.390 . S
C888 C889 1.394 . S
C888 C894 1.465 . S
C889 C884 1.399 . S
C889 C888 1.394 . S
C889 C890 1.516 . S
C890 C889 1.516 . S
C890 C891 1.502 . S
C890 C892 1.561 . S
C890 C893 1.526 . S
C891 H875 0.959 . S
C891 H876 0.959 . S
C891 H877 0.961 . S
C891 C890 1.502 . S
C892 H878 0.960 . S
C892 H879 0.961 . S
C892 H880 0.959 . S
C892 C890 1.561 . S
C893 C890 1.526 . S
C893 C894 1.396 . S
C893 C898 1.390 . S
C894 C888 1.465 . S
C894 C893 1.396 . S
C894 C895 1.399 . S
C895 H881 0.929 . S
C895 C894 1.399 . S
C895 C896 1.385 . S
C896 H882 0.931 . S
C896 C895 1.385 . S
C896 C897 1.389 . S
C897 C896 1.389 . S
C897 C898 1.387 . S
C898 H883 0.930 . S
C898 C893 1.390 . S
C898 C897 1.387 . S
H899 C911 0.930 . S
H900 C913 0.930 . S
H901 C914 0.930 . S
H902 C918 0.959 . S
H903 C918 0.959 . S
H904 C918 0.961 . S
H905 C919 0.960 . S
H906 C919 0.961 . S
H907 C919 0.959 . S
H908 C922 0.929 . S
H909 C923 0.931 . S
H910 C925 0.930 . S
C911 H899 0.930 . S
C911 C912 1.399 . S
C911 C916 1.399 . S
C912 C911 1.399 . S
C912 C913 1.376 . S
C913 H900 0.930 . S
C913 C912 1.376 . S
C913 C914 1.388 . S
C914 H901 0.930 . S
C914 C913 1.388 . S
C914 C915 1.390 . S
C915 C914 1.390 . S
C915 C916 1.394 . S
C915 C921 1.465 . S
C916 C911 1.399 . S
C916 C915 1.394 . S
C916 C917 1.516 . S
C917 C916 1.516 . S
C917 C918 1.502 . S
C917 C919 1.561 . S
C917 C920 1.526 . S
C918 H902 0.959 . S
C918 H903 0.959 . S
C918 H904 0.961 . S
C918 C917 1.502 . S
C919 H905 0.960 . S
C919 H906 0.961 . S
C919 H907 0.959 . S
C919 C917 1.561 . S
C920 C917 1.526 . S
C920 C921 1.396 . S
C920 C925 1.390 . S
C921 C915 1.465 . S
C921 C920 1.396 . S
C921 C922 1.399 . S
C922 H908 0.929 . S
C922 C921 1.399 . S
C922 C923 1.385 . S
C923 H909 0.931 . S
C923 C922 1.385 . S
C923 C924 1.389 . S
C924 C923 1.389 . S
C924 C925 1.387 . S
C925 H910 0.930 . S
C925 C920 1.390 . S
C925 C924 1.387 . S
H926 C938 0.930 . S
H927 C940 0.930 . S
H928 C941 0.930 . S
H929 C945 0.959 . S
H930 C945 0.959 . S
H931 C945 0.961 . S
H932 C946 0.960 . S
H933 C946 0.961 . S
H934 C946 0.959 . S
H935 C949 0.929 . S
H936 C950 0.931 . S
H937 C952 0.930 . S
C938 H926 0.930 . S
C938 C939 1.399 . S
C938 C943 1.399 . S
C939 C938 1.399 . S
C939 C940 1.376 . S
C940 H927 0.930 . S
C940 C939 1.376 . S
C940 C941 1.388 . S
C941 H928 0.930 . S
C941 C940 1.388 . S
C941 C942 1.390 . S
C942 C941 1.390 . S
C942 C943 1.394 . S
C942 C948 1.465 . S
C943 C938 1.399 . S
C943 C942 1.394 . S
C943 C944 1.516 . S
C944 C943 1.516 . S
C944 C945 1.502 . S
C944 C946 1.561 . S
C944 C947 1.526 . S
C945 H929 0.959 . S
C945 H930 0.959 . S
C945 H931 0.961 . S
C945 C944 1.502 . S
C946 H932 0.960 . S
C946 H933 0.961 . S
C946 H934 0.959 . S
C946 C944 1.561 . S
C947 C944 1.526 . S
C947 C948 1.396 . S
C947 C952 1.390 . S
C948 C942 1.465 . S
C948 C947 1.396 . S
C948 C949 1.399 . S
C949 H935 0.929 . S
C949 C948 1.399 . S
C949 C950 1.385 . S
C950 H936 0.931 . S
C950 C949 1.385 . S
C950 C951 1.389 . S
C951 C950 1.389 . S
C951 C952 1.387 . S
C952 H937 0.930 . S
C952 C947 1.390 . S
C952 C951 1.387 . S
H953 C965 0.930 . S
H954 C967 0.930 . S
H955 C968 0.930 . S
H956 C972 0.959 . S
H957 C972 0.959 . S
H958 C972 0.961 . S
H959 C973 0.960 . S
H960 C973 0.961 . S
H961 C973 0.959 . S
H962 C976 0.929 . S
H963 C977 0.931 . S
H964 C979 0.930 . S
C965 H953 0.930 . S
C965 C966 1.399 . S
C965 C970 1.399 . S
C966 C965 1.399 . S
C966 C967 1.376 . S
C967 H954 0.930 . S
C967 C966 1.376 . S
C967 C968 1.388 . S
C968 H955 0.930 . S
C968 C967 1.388 . S
C968 C969 1.390 . S
C969 C968 1.390 . S
C969 C970 1.394 . S
C969 C975 1.465 . S
C970 C965 1.399 . S
C970 C969 1.394 . S
C970 C971 1.516 . S
C971 C970 1.516 . S
C971 C972 1.502 . S
C971 C973 1.561 . S
C971 C974 1.526 . S
C972 H956 0.959 . S
C972 H957 0.959 . S
C972 H958 0.961 . S
C972 C971 1.502 . S
C973 H959 0.960 . S
C973 H960 0.961 . S
C973 H961 0.959 . S
C973 C971 1.561 . S
C974 C971 1.526 . S
C974 C975 1.396 . S
C974 C979 1.390 . S
C975 C969 1.465 . S
C975 C974 1.396 . S
C975 C976 1.399 . S
C976 H962 0.929 . S
C976 C975 1.399 . S
C976 C977 1.385 . S
C977 H963 0.931 . S
C977 C976 1.385 . S
C977 C978 1.389 . S
C978 C977 1.389 . S
C978 C979 1.387 . S
C979 H964 0.930 . S
C979 C974 1.390 . S
C979 C978 1.387 . S
H980 C992 0.930 . S
H981 C994 0.930 . S
H982 C995 0.930 . S
H983 C999 0.959 . S
H984 C999 0.959 . S
H985 C999 0.961 . S
H986 C1000 0.960 . S
H987 C1000 0.961 . S
H988 C1000 0.959 . S
H989 C1003 0.929 . S
H990 C1004 0.931 . S
H991 C1006 0.930 . S
C992 H980 0.930 . S
C992 C993 1.399 . S
C992 C997 1.399 . S
C993 C992 1.399 . S
C993 C994 1.376 . S
C994 H981 0.930 . S
C994 C993 1.376 . S
C994 C995 1.388 . S
C995 H982 0.930 . S
C995 C994 1.388 . S
C995 C996 1.390 . S
C996 C995 1.390 . S
C996 C997 1.394 . S
C996 C1002 1.465 . S
C997 C992 1.399 . S
C997 C996 1.394 . S
C997 C998 1.516 . S
C998 C997 1.516 . S
C998 C999 1.502 . S
C998 C1000 1.561 . S
C998 C1001 1.526 . S
C999 H983 0.959 . S
C999 H984 0.959 . S
C999 H985 0.961 . S
C999 C998 1.502 . S
C1000 H986 0.960 . S
C1000 H987 0.961 . S
C1000 H988 0.959 . S
C1000 C998 1.561 . S
C1001 C998 1.526 . S
C1001 C1002 1.396 . S
C1001 C1006 1.390 . S
C1002 C996 1.465 . S
C1002 C1001 1.396 . S
C1002 C1003 1.399 . S
C1003 H989 0.929 . S
C1003 C1002 1.399 . S
C1003 C1004 1.385 . S
C1004 H990 0.931 . S
C1004 C1003 1.385 . S
C1004 C1005 1.389 . S
C1005 C1004 1.389 . S
C1005 C1006 1.387 . S
C1006 H991 0.930 . S
C1006 C1001 1.390 . S
C1006 C1005 1.387 . S
H1007 C1019 0.930 . S
H1008 C1021 0.930 . S
H1009 C1022 0.930 . S
H1010 C1026 0.959 . S
H1011 C1026 0.959 . S
H1012 C1026 0.961 . S
H1013 C1027 0.960 . S
H1014 C1027 0.961 . S
H1015 C1027 0.959 . S
H1016 C1030 0.929 . S
H1017 C1031 0.931 . S
H1018 C1033 0.930 . S
C1019 H1007 0.930 . S
C1019 C1020 1.399 . S
C1019 C1024 1.399 . S
C1020 C1019 1.399 . S
C1020 C1021 1.376 . S
C1021 H1008 0.930 . S
C1021 C1020 1.376 . S
C1021 C1022 1.388 . S
C1022 H1009 0.930 . S
C1022 C1021 1.388 . S
C1022 C1023 1.390 . S
C1023 C1022 1.390 . S
C1023 C1024 1.394 . S
C1023 C1029 1.465 . S
C1024 C1019 1.399 . S
C1024 C1023 1.394 . S
C1024 C1025 1.516 . S
C1025 C1024 1.516 . S
C1025 C1026 1.502 . S
C1025 C1027 1.561 . S
C1025 C1028 1.526 . S
C1026 H1010 0.959 . S
C1026 H1011 0.959 . S
C1026 H1012 0.961 . S
C1026 C1025 1.502 . S
C1027 H1013 0.960 . S
C1027 H1014 0.961 . S
C1027 H1015 0.959 . S
C1027 C1025 1.561 . S
C1028 C1025 1.526 . S
C1028 C1029 1.396 . S
C1028 C1033 1.390 . S
C1029 C1023 1.465 . S
C1029 C1028 1.396 . S
C1029 C1030 1.399 . S
C1030 H1016 0.929 . S
C1030 C1029 1.399 . S
C1030 C1031 1.385 . S
C1031 H1017 0.931 . S
C1031 C1030 1.385 . S
C1031 C1032 1.389 . S
C1032 C1031 1.389 . S
C1032 C1033 1.387 . S
C1033 H1018 0.930 . S
C1033 C1028 1.390 . S
C1033 C1032 1.387 . S
H1034 C1046 0.930 . S
H1035 C1048 0.930 . S
H1036 C1049 0.930 . S
H1037 C1053 0.959 . S
H1038 C1053 0.959 . S
H1039 C1053 0.961 . S
H1040 C1054 0.960 . S
H1041 C1054 0.961 . S
H1042 C1054 0.959 . S
H1043 C1057 0.929 . S
H1044 C1058 0.931 . S
H1045 C1060 0.930 . S
C1046 H1034 0.930 . S
C1046 C1047 1.399 . S
C1046 C1051 1.399 . S
C1047 C1046 1.399 . S
C1047 C1048 1.376 . S
C1048 H1035 0.930 . S
C1048 C1047 1.376 . S
C1048 C1049 1.388 . S
C1049 H1036 0.930 . S
C1049 C1048 1.388 . S
C1049 C1050 1.390 . S
C1050 C1049 1.390 . S
C1050 C1051 1.394 . S
C1050 C1056 1.465 . S
C1051 C1046 1.399 . S
C1051 C1050 1.394 . S
C1051 C1052 1.516 . S
C1052 C1051 1.516 . S
C1052 C1053 1.502 . S
C1052 C1054 1.561 . S
C1052 C1055 1.526 . S
C1053 H1037 0.959 . S
C1053 H1038 0.959 . S
C1053 H1039 0.961 . S
C1053 C1052 1.502 . S
C1054 H1040 0.960 . S
C1054 H1041 0.961 . S
C1054 H1042 0.959 . S
C1054 C1052 1.561 . S
C1055 C1052 1.526 . S
C1055 C1056 1.396 . S
C1055 C1060 1.390 . S
C1056 C1050 1.465 . S
C1056 C1055 1.396 . S
C1056 C1057 1.399 . S
C1057 H1043 0.929 . S
C1057 C1056 1.399 . S
C1057 C1058 1.385 . S
C1058 H1044 0.931 . S
C1058 C1057 1.385 . S
C1058 C1059 1.389 . S
C1059 C1058 1.389 . S
C1059 C1060 1.387 . S
C1060 H1045 0.930 . S
C1060 C1055 1.390 . S
C1060 C1059 1.387 . S
H1061 C1073 0.930 . S
H1062 C1075 0.930 . S
H1063 C1076 0.930 . S
H1064 C1080 0.959 . S
H1065 C1080 0.959 . S
H1066 C1080 0.961 . S
H1067 C1081 0.960 . S
H1068 C1081 0.961 . S
H1069 C1081 0.959 . S
H1070 C1084 0.929 . S
H1071 C1085 0.931 . S
H1072 C1087 0.930 . S
C1073 H1061 0.930 . S
C1073 C1074 1.399 . S
C1073 C1078 1.399 . S
C1074 C1073 1.399 . S
C1074 C1075 1.376 . S
C1075 H1062 0.930 . S
C1075 C1074 1.376 . S
C1075 C1076 1.388 . S
C1076 H1063 0.930 . S
C1076 C1075 1.388 . S
C1076 C1077 1.390 . S
C1077 C1076 1.390 . S
C1077 C1078 1.394 . S
C1077 C1083 1.465 . S
C1078 C1073 1.399 . S
C1078 C1077 1.394 . S
C1078 C1079 1.516 . S
C1079 C1078 1.516 . S
C1079 C1080 1.502 . S
C1079 C1081 1.561 . S
C1079 C1082 1.526 . S
C1080 H1064 0.959 . S
C1080 H1065 0.959 . S
C1080 H1066 0.961 . S
C1080 C1079 1.502 . S
C1081 H1067 0.960 . S
C1081 H1068 0.961 . S
C1081 H1069 0.959 . S
C1081 C1079 1.561 . S
C1082 C1079 1.526 . S
C1082 C1083 1.396 . S
C1082 C1087 1.390 . S
C1083 C1077 1.465 . S
C1083 C1082 1.396 . S
C1083 C1084 1.399 . S
C1084 H1070 0.929 . S
C1084 C1083 1.399 . S
C1084 C1085 1.385 . S
C1085 H1071 0.931 . S
C1085 C1084 1.385 . S
C1085 C1086 1.389 . S
C1086 C1085 1.389 . S
C1086 C1087 1.387 . S
C1087 H1072 0.930 . S
C1087 C1082 1.390 . S
C1087 C1086 1.387 . S
C237 C216 1.096 . S
C249 C6 1.144 . S
C264 C174 1.213 . S
C276 C20 1.203 . S
C291 C34 1.272 . S
C303 C188 1.231 . S
C318 C202 1.371 . S
C330 C48 1.403 . S
C345 C132 1.187 . S
C357 C62 1.223 . S
C372 C76 1.210 . S
C384 C146 1.280 . S
C399 C90 1.242 . S
C411 C160 1.405 . S
C426 C104 1.177 . S
C438 C118 1.185 . S
C453 C79 2.026 . S
C465 C7 1.852 . S
C480 C91 1.341 . S
C492 C21 1.428 . S
C507 C107 1.426 . S
C519 C35 1.219 . S
C534 C49 1.495 . S
C546 C64 1.620 . S
C561 C8 1.280 . S
C573 C23 1.265 . S
C588 C37 1.386 . S
C600 C22 1.401 . S
C615 C36 1.424 . S
C627 C51 1.434 . S
C642 C9 1.721 . S
C654 C50 1.721 . S
C669 C106 1.592 . S
C681 C65 1.462 . S
C696 C63 1.389 . S
C708 C77 1.346 . S
C723 C78 1.586 . S
C735 C92 1.566 . S
C750 C105 1.587 . S
C762 C93 1.792 . S
C777 C191 2.049 . S
C789 C119 1.891 . S
C804 C133 1.395 . S
C816 C203 1.408 . S
C831 C219 1.423 . S
C843 C147 1.228 . S
C858 C176 1.623 . S
C870 C161 1.528 . S
C885 C120 1.313 . S
C897 C135 1.272 . S
C912 C134 1.413 . S
C924 C149 1.413 . S
C939 C163 1.469 . S
C951 C148 1.442 . S
C966 C121 1.718 . S
C978 C162 1.719 . S
C993 C218 1.587 . S
C1005 C177 1.484 . S
C1020 C175 1.396 . S
C1032 C189 1.337 . S
C1047 C190 1.582 . S
C1059 C204 1.590 . S
C1074 C217 1.591 . S
C1086 C205 1.792 . S
