# Generated by pormake.
# Topology wjh, (4)-cn, num edge types: 1
# Building blocks:
#     Node 0, Type 0, BuildingBlock: UXUYUI_clean_sbu_0, # of connection points: 4
#     Node 1, Type 0, BuildingBlock: UXUYUI_clean_sbu_0, # of connection points: 4
#     Node 2, Type 0, BuildingBlock: UXUYUI_clean_sbu_0, # of connection points: 4
#     Node 3, Type 0, BuildingBlock: UXUYUI_clean_sbu_0, # of connection points: 4
#     Node 4, Type 0, BuildingBlock: UXUYUI_clean_sbu_0, # of connection points: 4
#     Node 5, Type 0, BuildingBlock: UXUYUI_clean_sbu_0, # of connection points: 4
#     Node 6, Type 0, BuildingBlock: UXUYUI_clean_sbu_0, # of connection points: 4
#     Node 7, Type 0, BuildingBlock: UXUYUI_clean_sbu_0, # of connection points: 4
#     Node 8, Type 0, BuildingBlock: UXUYUI_clean_sbu_0, # of connection points: 4
#     Node 9, Type 0, BuildingBlock: UXUYUI_clean_sbu_0, # of connection points: 4
#     Node 10, Type 0, BuildingBlock: UXUYUI_clean_sbu_0, # of connection points: 4
#     Node 11, Type 0, BuildingBlock: UXUYUI_clean_sbu_0, # of connection points: 4
#     Edge 12, Type (0, 0), BuildingBlock: OJICUG_clean_linker_0, # of connection points: 2
#     Edge 13, Type (0, 0), BuildingBlock: OJICUG_clean_linker_0, # of connection points: 2
#     Edge 14, Type (0, 0), BuildingBlock: OJICUG_clean_linker_0, # of connection points: 2
#     Edge 15, Type (0, 0), BuildingBlock: OJICUG_clean_linker_0, # of connection points: 2
#     Edge 16, Type (0, 0), BuildingBlock: OJICUG_clean_linker_0, # of connection points: 2
#     Edge 17, Type (0, 0), BuildingBlock: OJICUG_clean_linker_0, # of connection points: 2
#     Edge 18, Type (0, 0), BuildingBlock: OJICUG_clean_linker_0, # of connection points: 2
#     Edge 19, Type (0, 0), BuildingBlock: OJICUG_clean_linker_0, # of connection points: 2
#     Edge 20, Type (0, 0), BuildingBlock: OJICUG_clean_linker_0, # of connection points: 2
#     Edge 21, Type (0, 0), BuildingBlock: OJICUG_clean_linker_0, # of connection points: 2
#     Edge 22, Type (0, 0), BuildingBlock: OJICUG_clean_linker_0, # of connection points: 2
#     Edge 23, Type (0, 0), BuildingBlock: OJICUG_clean_linker_0, # of connection points: 2
#     Edge 24, Type (0, 0), BuildingBlock: OJICUG_clean_linker_0, # of connection points: 2
#     Edge 25, Type (0, 0), BuildingBlock: OJICUG_clean_linker_0, # of connection points: 2
#     Edge 26, Type (0, 0), BuildingBlock: OJICUG_clean_linker_0, # of connection points: 2
#     Edge 27, Type (0, 0), BuildingBlock: OJICUG_clean_linker_0, # of connection points: 2
#     Edge 28, Type (0, 0), BuildingBlock: OJICUG_clean_linker_0, # of connection points: 2
#     Edge 29, Type (0, 0), BuildingBlock: OJICUG_clean_linker_0, # of connection points: 2
#     Edge 30, Type (0, 0), BuildingBlock: OJICUG_clean_linker_0, # of connection points: 2
#     Edge 31, Type (0, 0), BuildingBlock: OJICUG_clean_linker_0, # of connection points: 2
#     Edge 32, Type (0, 0), BuildingBlock: OJICUG_clean_linker_0, # of connection points: 2
#     Edge 33, Type (0, 0), BuildingBlock: OJICUG_clean_linker_0, # of connection points: 2
#     Edge 34, Type (0, 0), BuildingBlock: OJICUG_clean_linker_0, # of connection points: 2
#     Edge 35, Type (0, 0), BuildingBlock: OJICUG_clean_linker_0, # of connection points: 2
# Relax obj value: 0.245
# Max RMSD: 0.173
# Mean RMSD: 0.173
data_MOF--net-wjh--node1-UXUYUI_clean_sbu_0--edge1-OJICUG_clean_linker_0
_symmetry_space_group_name_H-M    P1
_symmetry_Int_Tables_number       1
_symmetry_cell_setting            triclinic
loop_
_symmetry_equiv_pos_as_xyz
'x, y, z'
_cell_length_a     74.209773
_cell_length_b     74.219095
_cell_length_c     29.496873
_cell_angle_alpha  89.997667
_cell_angle_beta   90.004336
_cell_angle_gamma 119.98845
loop_
_atom_site_label
_atom_site_type_symbol
_atom_site_fract_x
_atom_site_fract_y
_atom_site_fract_z
_atom_type_partial_charge
Li0 Li 0.47352 0.11267 0.05894 0.0
Li1 Li 0.50647 0.13374 0.10672 0.0
Li2 Li 0.48857 0.1495 0.07019 0.0
Li3 Li 0.50687 0.13809 0.02431 0.0
C4 C 0.46733 0.13352 0.14706 0.0
N5 N 0.44767 0.14736 0.20545 0.0
C6 C 0.47591 0.14152 0.18959 0.0
C7 C 0.44853 0.13221 0.13463 0.0
C8 C 0.4658 0.14852 0.21854 0.0
C9 C 0.4389 0.13939 0.16448 0.0
C10 C 0.5143 0.10749 0.04035 0.0
C11 C 0.54932 0.11382 0.03167 0.0
N12 N 0.54258 0.09889 0.99906 0.0
C13 C 0.50771 0.09215 0.00687 0.0
C14 C 0.53526 0.1184 0.05293 0.0
C15 C 0.52226 0.08806 0.98636 0.0
C16 C 0.44767 0.07409 0.01777 0.0
N17 N 0.4498 0.08596 0.05458 0.0
C18 C 0.42105 0.05736 0.09119 0.0
C19 C 0.43661 0.07825 0.09044 0.0
C20 C 0.4194 0.04421 0.05512 0.0
C21 C 0.4326 0.05304 0.01742 0.0
H22 H 0.45835 0.08077 0.98967 0.0
H23 H 0.43871 0.08808 0.11931 0.0
C24 C 0.53067 0.15107 0.18409 0.0
N25 N 0.52126 0.13357 0.15839 0.0
C26 C 0.54112 0.15146 0.22368 0.0
C27 C 0.53267 0.11606 0.20849 0.0
C28 C 0.52204 0.11623 0.16962 0.0
C29 C 0.54226 0.13379 0.23645 0.0
H30 H 0.52964 0.16457 0.17425 0.0
H31 H 0.51442 0.10257 0.14833 0.0
C32 C 0.46432 0.13607 0.9888 0.0
N33 N 0.43489 0.14075 0.94096 0.0
C34 C 0.47024 0.14939 0.95136 0.0
C35 C 0.44335 0.12474 0.00117 0.0
C36 C 0.45515 0.15165 0.92782 0.0
C37 C 0.42873 0.12743 0.97676 0.0
C38 C 0.5307 0.17928 0.05496 0.0
C39 C 0.5241 0.18547 0.0167 0.0
C40 C 0.54942 0.1933 0.07599 0.0
C41 C 0.53639 0.20562 -8e-05 0.0
C42 C 0.56129 0.21333 0.0582 0.0
N43 N 0.55458 0.21902 0.02084 0.0
C44 C 0.49429 0.18278 0.12013 0.0
C45 C 0.47011 0.17631 0.06108 0.0
C46 C 0.49172 0.19886 0.13691 0.0
N47 N 0.48337 0.17169 0.08331 0.0
C48 C 0.46735 0.19263 0.07628 0.0
C49 C 0.47808 0.2039 0.11499 0.0
H50 H 0.50482 0.17884 0.13695 0.0
H51 H 0.46153 0.16734 0.03199 0.0
C52 C 0.51365 0.13144 0.93404 0.0
N53 N 0.52347 0.1423 0.97197 0.0
C54 C 0.52516 0.13198 0.89615 0.0
C55 C 0.55667 0.15537 0.93662 0.0
C56 C 0.54454 0.15428 0.97385 0.0
C57 C 0.54699 0.14387 0.89734 0.0
H58 H 0.49687 0.12188 0.93379 0.0
H59 H 0.55198 0.1624 0.0048 0.0
O60 O 0.47733 0.1271 0.11777 0.0
O61 O 0.50047 0.11231 0.05968 0.0
O62 O 0.47888 0.13353 0.01191 0.0
O63 O 0.51892 0.15965 0.0721 0.0
H64 H 0.49028 0.14243 0.20011 0.0
H65 H 0.44156 0.12596 0.10209 0.0
H66 H 0.47237 0.15489 0.25139 0.0
H67 H 0.42446 0.13866 0.15504 0.0
H68 H 0.56561 0.12225 0.04086 0.0
H69 H 0.4916 0.08362 0.99654 0.0
H70 H 0.54071 0.13058 0.07821 0.0
H71 H 0.5174 0.0763 0.96023 0.0
H72 H 0.41098 0.05144 0.12052 0.0
H73 H 0.43219 0.04362 0.98899 0.0
H74 H 0.54788 0.16536 0.24439 0.0
H75 H 0.53345 0.10221 0.21629 0.0
H76 H 0.4863 0.15782 0.94039 0.0
H77 H 0.43836 0.11389 0.02907 0.0
H78 H 0.45954 0.16201 0.89899 0.0
H79 H 0.41247 0.11886 0.98617 0.0
H80 H 0.50962 0.17484 0.00031 0.0
H81 H 0.55472 0.18873 0.10572 0.0
H82 H 0.53145 0.21061 0.97031 0.0
H83 H 0.57583 0.22434 0.07409 0.0
H84 H 0.5005 0.20743 0.16643 0.0
H85 H 0.45674 0.1962 0.05851 0.0
H86 H 0.51709 0.12304 0.86637 0.0
H87 H 0.57346 0.1645 0.93914 0.0
Li88 Li 0.37415 0.50604 0.26677 0.0
Li89 Li 0.35924 0.47247 0.2238 0.0
Li90 Li 0.37143 0.50712 0.18563 0.0
Li91 Li 0.34074 0.4916 0.23106 0.0
C92 C 0.40643 0.50317 0.24163 0.0
N93 N 0.44332 0.51474 0.28664 0.0
C94 C 0.41035 0.48802 0.25955 0.0
C95 C 0.42132 0.52422 0.24657 0.0
C96 C 0.42909 0.49419 0.28215 0.0
C97 C 0.43985 0.52975 0.26948 0.0
C98 C 0.33299 0.47116 0.30877 0.0
C99 C 0.29792 0.44511 0.32836 0.0
N100 N 0.29885 0.45651 0.36532 0.0
C101 C 0.33365 0.48257 0.34707 0.0
C102 C 0.31504 0.45224 0.29938 0.0
C103 C 0.31621 0.4749 0.37521 0.0
C104 C 0.39224 0.53921 0.32863 0.0
N105 N 0.38917 0.51993 0.31958 0.0
C106 C 0.4065 0.5201 0.38793 0.0
C107 C 0.39577 0.51014 0.34848 0.0
C108 C 0.40989 0.54003 0.39812 0.0
C109 C 0.40258 0.54959 0.36806 0.0
H110 H 0.38645 0.54642 0.30548 0.0
H111 H 0.39258 0.49456 0.34095 0.0
C112 C 0.37114 0.44571 0.18692 0.0
N113 N 0.35948 0.44723 0.22049 0.0
C114 C 0.37577 0.42968 0.18749 0.0
C115 C 0.35493 0.41619 0.2553 0.0
C116 C 0.351 0.43272 0.25383 0.0
C117 C 0.36813 0.41493 0.22278 0.0
H118 H 0.37798 0.45776 0.1614 0.0
H119 H 0.34207 0.43454 0.28053 0.0
C120 C 0.36642 0.53797 0.20805 0.0
N121 N 0.37338 0.57223 0.15761 0.0
C122 C 0.35003 0.53793 0.1846 0.0
C123 C 0.38633 0.55546 0.206 0.0
C124 C 0.35387 0.55541 0.1593 0.0
C125 C 0.38954 0.5726 0.18022 0.0
C126 C 0.32654 0.46788 0.15512 0.0
C127 C 0.31762 0.4772 0.12931 0.0
C128 C 0.31601 0.44627 0.16023 0.0
C129 C 0.29821 0.46471 0.10916 0.0
C130 C 0.29664 0.43431 0.13951 0.0
N131 N 0.28821 0.4437 0.11463 0.0
C132 C 0.40589 0.52969 0.12829 0.0
C133 C 0.37465 0.52661 0.09971 0.0
C134 C 0.41691 0.54139 0.09067 0.0
N135 N 0.38519 0.52269 0.13234 0.0
C136 C 0.38506 0.53821 0.06132 0.0
C137 C 0.40651 0.54577 0.0564 0.0
H138 H 0.4139 0.52617 0.15421 0.0
H139 H 0.35819 0.52077 0.10344 0.0
C140 C 0.31675 0.50481 0.27327 0.0
N141 N 0.31447 0.48953 0.24445 0.0
C142 C 0.29944 0.50487 0.29108 0.0
C143 C 0.27742 0.47364 0.24852 0.0
C144 C 0.29527 0.47395 0.2322 0.0
C145 C 0.27936 0.48921 0.27869 0.0
H146 H 0.33214 0.51661 0.28382 0.0
H147 H 0.29365 0.4614 0.21103 0.0
O148 O 0.38805 0.49747 0.21987 0.0
O149 O 0.34968 0.47871 0.28013 0.0
O150 O 0.36309 0.52087 0.23228 0.0
O151 O 0.34571 0.47977 0.1743 0.0
H152 H 0.39899 0.47168 0.25651 0.0
H153 H 0.41846 0.53618 0.23349 0.0
H154 H 0.43229 0.48262 0.29629 0.0
H155 H 0.45143 0.54597 0.27379 0.0
H156 H 0.28386 0.43059 0.32131 0.0
H157 H 0.3474 0.4973 0.35468 0.0
H158 H 0.31419 0.44336 0.26956 0.0
H159 H 0.31645 0.48362 0.40481 0.0
H160 H 0.41169 0.51217 0.4107 0.0
H161 H 0.40496 0.56498 0.37486 0.0
H162 H 0.38634 0.42974 0.16214 0.0
H163 H 0.3484 0.40505 0.28271 0.0
H164 H 0.33457 0.52446 0.18543 0.0
H165 H 0.39921 0.55569 0.22373 0.0
H166 H 0.34136 0.55557 0.14082 0.0
H167 H 0.40489 0.58619 0.17811 0.0
H168 H 0.32545 0.4939 0.1253 0.0
H169 H 0.3227 0.43879 0.17997 0.0
H170 H 0.29107 0.47171 0.08926 0.0
H171 H 0.2883 0.41757 0.14323 0.0
H172 H 0.43346 0.54708 0.08873 0.0
H173 H 0.37632 0.54094 0.03552 0.0
H174 H 0.30188 0.51684 0.31531 0.0
H175 H 0.26232 0.46126 0.23779 0.0
Li176 Li 0.88789 0.36117 0.40341 0.0
Li177 Li 0.86825 0.37475 0.44828 0.0
Li178 Li 0.85102 0.34097 0.41426 0.0
Li179 Li 0.86351 0.37047 0.36601 0.0
C180 C 0.86492 0.33511 0.49174 0.0
N181 N 0.84691 0.30158 0.55038 0.0
C182 C 0.85502 0.3361 0.53119 0.0
C183 C 0.86589 0.31714 0.48247 0.0
C184 C 0.84596 0.31898 0.56034 0.0
C185 C 0.85662 0.30033 0.51242 0.0
C186 C 0.89503 0.4093 0.39261 0.0
C187 C 0.88667 0.4368 0.39298 0.0
N188 N 0.90597 0.4502 0.37662 0.0
C189 C 0.91478 0.42333 0.37581 0.0
C190 C 0.88085 0.41607 0.40131 0.0
C191 C 0.92002 0.44395 0.36796 0.0
C192 C 0.92731 0.37654 0.36647 0.0
N193 N 0.9143 0.36344 0.39865 0.0
C194 C 0.94136 0.35857 0.42921 0.0
C195 C 0.92075 0.35419 0.42932 0.0
C196 C 0.95556 0.37298 0.39791 0.0
C197 C 0.94812 0.38163 0.36558 0.0
H198 H 0.92172 0.38378 0.34283 0.0
H199 H 0.91009 0.34401 0.45487 0.0
C200 C 0.85131 0.38516 0.52107 0.0
N201 N 0.86938 0.39088 0.4987 0.0
C202 C 0.8513 0.39594 0.55974 0.0
C203 C 0.88838 0.41882 0.55048 0.0
C204 C 0.88774 0.40734 0.51239 0.0
C205 C 0.87002 0.41295 0.57485 0.0
H206 H 0.83699 0.37196 0.50927 0.0
H207 H 0.90186 0.41145 0.4939 0.0
C208 C 0.8635 0.32821 0.33468 0.0
N209 N 0.85738 0.29285 0.29 0.0
C210 C 0.85007 0.32061 0.29746 0.0
C211 C 0.87418 0.31809 0.3485 0.0
C212 C 0.84707 0.30263 0.27553 0.0
C213 C 0.87078 0.30017 0.32565 0.0
C214 C 0.82295 0.35543 0.39527 0.0
C215 C 0.81613 0.34141 0.35914 0.0
C216 C 0.81004 0.36251 0.41241 0.0
C217 C 0.79646 0.33468 0.34059 0.0
C218 C 0.79048 0.35544 0.39293 0.0
N219 N 0.78414 0.34178 0.35772 0.0
C220 C 0.8146 0.31498 0.4583 0.0
C221 C 0.82465 0.29556 0.41144 0.0
C222 C 0.79715 0.29689 0.47312 0.0
N223 N 0.82784 0.31409 0.42772 0.0
C224 C 0.80741 0.27695 0.42578 0.0
C225 C 0.79336 0.27758 0.45674 0.0
H226 H 0.81778 0.32984 0.47171 0.0
H227 H 0.83548 0.29507 0.38788 0.0
C228 C 0.87036 0.38284 0.27491 0.0
N229 N 0.86001 0.38284 0.31288 0.0
C230 C 0.86957 0.39305 0.23583 0.0
C231 C 0.8472 0.40277 0.27555 0.0
C232 C 0.8485 0.39245 0.31386 0.0
C233 C 0.858 0.40336 0.23592 0.0
H234 H 0.8796 0.37528 0.27536 0.0
H235 H 0.84064 0.39248 0.34466 0.0
O236 O 0.87338 0.35153 0.46217 0.0
O237 O 0.88957 0.38899 0.39996 0.0
O238 O 0.86683 0.34597 0.35612 0.0
O239 O 0.84215 0.36226 0.41405 0.0
H240 H 0.85421 0.34988 0.53914 0.0
H241 H 0.8734 0.31601 0.45212 0.0
H242 H 0.83813 0.31951 0.59082 0.0
H243 H 0.85708 0.28626 0.50538 0.0
H244 H 0.87583 0.44223 0.39946 0.0
H245 H 0.92594 0.41834 0.3689 0.0
H246 H 0.86545 0.4054 0.41409 0.0
H247 H 0.93525 0.45498 0.35494 0.0
H248 H 0.94624 0.35124 0.45431 0.0
H249 H 0.95842 0.39311 0.34131 0.0
H250 H 0.83683 0.3911 0.57758 0.0
H251 H 0.9031 0.4318 0.56141 0.0
H252 H 0.84213 0.32857 0.28538 0.0
H253 H 0.88493 0.32394 0.37656 0.0
H254 H 0.83663 0.29651 0.24686 0.0
H255 H 0.87883 0.29209 0.33623 0.0
H256 H 0.82586 0.3357 0.34578 0.0
H257 H 0.81513 0.37341 0.44037 0.0
H258 H 0.79097 0.3238 0.31262 0.0
H259 H 0.78033 0.36081 0.4058 0.0
H260 H 0.78687 0.29798 0.49762 0.0
H261 H 0.80493 0.2623 0.41241 0.0
H262 H 0.87841 0.39335 0.20634 0.0
H263 H 0.83791 0.41028 0.27706 0.0
Li264 Li 0.51981 0.88416 0.56713 0.0
Li265 Li 0.48721 0.86105 0.60983 0.0
Li266 Li 0.50818 0.84843 0.57214 0.0
Li267 Li 0.48895 0.85867 0.52526 0.0
C268 C 0.5313 0.88171 0.65091 0.0
N269 N 0.56266 0.91083 0.7053 0.0
C270 C 0.52649 0.89054 0.68748 0.0
C271 C 0.55203 0.88751 0.64232 0.0
C272 C 0.54258 0.90527 0.71452 0.0
C273 C 0.56767 0.90232 0.6701 0.0
C274 C 0.48461 0.89184 0.53687 0.0
C275 C 0.45528 0.89353 0.50673 0.0
N276 N 0.46828 0.90905 0.47831 0.0
C277 C 0.49769 0.90783 0.50744 0.0
C278 C 0.46324 0.88464 0.53666 0.0
C279 C 0.48913 0.91634 0.4781 0.0
C280 C 0.55832 0.91877 0.53782 0.0
N281 N 0.54218 0.91186 0.56749 0.0
C282 C 0.55631 0.94557 0.6005 0.0
C283 C 0.54082 0.92477 0.59818 0.0
C284 C 0.573 0.95325 0.56998 0.0
C285 C 0.57396 0.93968 0.53822 0.0
H286 H 0.5588 0.90815 0.51339 0.0
H287 H 0.52751 0.91891 0.62049 0.0
C288 C 0.46845 0.84597 0.6944 0.0
N289 N 0.47117 0.85958 0.66073 0.0
C290 C 0.45774 0.84535 0.73375 0.0
C291 C 0.45314 0.87304 0.70323 0.0
C292 C 0.46386 0.87304 0.66437 0.0
C293 C 0.45003 0.85909 0.73858 0.0
H294 H 0.47508 0.83597 0.69119 0.0
H295 H 0.46669 0.88403 0.63747 0.0
C296 C 0.52747 0.85684 0.49402 0.0
N297 N 0.54601 0.83768 0.44907 0.0
C298 C 0.51712 0.84316 0.45827 0.0
C299 C 0.54733 0.86096 0.50662 0.0
C300 C 0.52674 0.8336 0.43601 0.0
C301 C 0.5564 0.85105 0.48359 0.0
C302 C 0.46944 0.81526 0.56684 0.0
C303 C 0.46437 0.80551 0.52446 0.0
C304 C 0.4669 0.80348 0.60578 0.0
C305 C 0.45692 0.78413 0.52177 0.0
C306 C 0.45948 0.78216 0.60165 0.0
N307 N 0.45468 0.773 0.56008 0.0
C308 C 0.5262 0.82971 0.62285 0.0
C309 C 0.51165 0.81202 0.55395 0.0
C310 C 0.52997 0.81398 0.63696 0.0
N311 N 0.51677 0.82828 0.58246 0.0
C312 C 0.51473 0.79568 0.56712 0.0
C313 C 0.5235 0.79626 0.60977 0.0
H314 H 0.53006 0.84264 0.64518 0.0
H315 H 0.50413 0.8111 0.52206 0.0
C316 C 0.48302 0.86705 0.43519 0.0
N317 N 0.47313 0.85514 0.47195 0.0
C318 C 0.47162 0.86669 0.39722 0.0
C319 C 0.44017 0.84132 0.43511 0.0
C320 C 0.45215 0.84237 0.47261 0.0
C321 C 0.4499 0.85381 0.39706 0.0
H322 H 0.49971 0.87726 0.43595 0.0
H323 H 0.44469 0.83343 0.50274 0.0
O324 O 0.51581 0.86746 0.6236 0.0
O325 O 0.49258 0.88279 0.56469 0.0
O326 O 0.51831 0.86633 0.51621 0.0
O327 O 0.4768 0.83619 0.57015 0.0
H328 H 0.51055 0.88624 0.69468 0.0
H329 H 0.556 0.88078 0.61423 0.0
H330 H 0.5391 0.91233 0.74276 0.0
H331 H 0.58379 0.90707 0.66364 0.0
H332 H 0.43876 0.888 0.50593 0.0
H333 H 0.51424 0.91344 0.50682 0.0
H334 H 0.45287 0.87206 0.55878 0.0
H335 H 0.49906 0.92866 0.45498 0.0
H336 H 0.55486 0.95574 0.62475 0.0
H337 H 0.58656 0.94523 0.51388 0.0
H338 H 0.45601 0.83464 0.7606 0.0
H339 H 0.44737 0.88384 0.70561 0.0
H340 H 0.50174 0.83982 0.44809 0.0
H341 H 0.55558 0.8716 0.53405 0.0
H342 H 0.51887 0.82289 0.40845 0.0
H343 H 0.57171 0.85398 0.49314 0.0
H344 H 0.46648 0.81437 0.49388 0.0
H345 H 0.47089 0.81075 0.63877 0.0
H346 H 0.45305 0.77642 0.48918 0.0
H347 H 0.4576 0.77289 0.63148 0.0
H348 H 0.53727 0.81544 0.66956 0.0
H349 H 0.50926 0.78231 0.54506 0.0
H350 H 0.47968 0.87648 0.36841 0.0
H351 H 0.42343 0.83138 0.43645 0.0
Li352 Li 0.63517 0.5209 0.72978 0.0
Li353 Li 0.62071 0.48801 0.77625 0.0
Li354 Li 0.65496 0.50405 0.74399 0.0
Li355 Li 0.62597 0.48687 0.69434 0.0
C356 C 0.65968 0.5249 0.82102 0.0
N357 N 0.69166 0.5417 0.88366 0.0
C358 C 0.65707 0.51573 0.86371 0.0
C359 C 0.67846 0.54282 0.81052 0.0
C360 C 0.67344 0.52441 0.89484 0.0
C361 C 0.69447 0.55101 0.84253 0.0
C362 C 0.58696 0.48011 0.71793 0.0
C363 C 0.55938 0.44429 0.71788 0.0
N364 N 0.54617 0.45025 0.70061 0.0
C365 C 0.57313 0.48588 0.70017 0.0
C366 C 0.58007 0.45915 0.72687 0.0
C367 C 0.55255 0.47055 0.69167 0.0
C368 C 0.62051 0.54507 0.69025 0.0
N369 N 0.63331 0.54514 0.72319 0.0
C370 C 0.63763 0.57686 0.75366 0.0
C371 C 0.64223 0.56078 0.75406 0.0
C372 C 0.62343 0.57658 0.72169 0.0
C373 C 0.6153 0.56068 0.68888 0.0
H374 H 0.61349 0.53225 0.66654 0.0
H375 H 0.65218 0.56028 0.78019 0.0
C376 C 0.61021 0.46189 0.8509 0.0
N377 N 0.60411 0.47341 0.8265 0.0
C378 C 0.59906 0.45109 0.88921 0.0
C379 C 0.57523 0.46384 0.87588 0.0
C380 C 0.58704 0.47464 0.8381 0.0
C381 C 0.58125 0.45192 0.90219 0.0
H382 H 0.62402 0.46144 0.841 0.0
H383 H 0.58261 0.48399 0.81798 0.0
C384 C 0.66861 0.52831 0.66273 0.0
N385 N 0.7044 0.55635 0.61753 0.0
C386 C 0.6758 0.52178 0.62598 0.0
C387 C 0.67934 0.54921 0.67578 0.0
C388 C 0.69401 0.53616 0.60377 0.0
C389 C 0.69748 0.56312 0.6527 0.0
C390 C 0.64068 0.46149 0.72857 0.0
C391 C 0.65468 0.46789 0.69241 0.0
C392 C 0.63406 0.44215 0.7488 0.0
C393 C 0.66184 0.45479 0.67695 0.0
C394 C 0.64155 0.42948 0.73235 0.0
N395 N 0.65517 0.43601 0.69706 0.0
C396 C 0.68004 0.49584 0.79684 0.0
C397 C 0.69993 0.51964 0.73892 0.0
C398 C 0.6977 0.49651 0.81467 0.0
N399 N 0.68141 0.50737 0.75989 0.0
C400 C 0.71806 0.52056 0.7553 0.0
C401 C 0.71708 0.50885 0.79372 0.0
H402 H 0.66511 0.48623 0.81286 0.0
H403 H 0.70076 0.52869 0.7096 0.0
C404 C 0.61346 0.48123 0.60383 0.0
N405 N 0.61401 0.47084 0.64122 0.0
C406 C 0.60334 0.47033 0.56463 0.0
C407 C 0.59484 0.43825 0.60296 0.0
C408 C 0.60505 0.44977 0.6415 0.0
C409 C 0.59367 0.4485 0.56393 0.0
H410 H 0.62047 0.49798 0.60492 0.0
H411 H 0.6054 0.44184 0.67192 0.0
O412 O 0.64394 0.51632 0.78976 0.0
O413 O 0.60723 0.49489 0.72585 0.0
O414 O 0.6507 0.51447 0.68455 0.0
O415 O 0.63351 0.47406 0.74445 0.0
H416 H 0.64259 0.50201 0.87269 0.0
H417 H 0.68079 0.55016 0.77779 0.0
H418 H 0.67166 0.51738 0.92788 0.0
H419 H 0.70915 0.56474 0.83462 0.0
H420 H 0.55385 0.42802 0.72455 0.0
H421 H 0.57823 0.50203 0.69301 0.0
H422 H 0.59059 0.45438 0.74037 0.0
H423 H 0.54167 0.47479 0.67793 0.0
H424 H 0.64451 0.58893 0.77918 0.0
H425 H 0.60403 0.55954 0.66405 0.0
H426 H 0.6046 0.4425 0.90885 0.0
H427 H 0.56148 0.46473 0.88415 0.0
H428 H 0.66739 0.50579 0.61456 0.0
H429 H 0.67371 0.55467 0.70326 0.0
H430 H 0.69983 0.53128 0.57548 0.0
H431 H 0.70601 0.5793 0.66265 0.0
H432 H 0.66002 0.48283 0.67665 0.0
H433 H 0.62319 0.43697 0.77683 0.0
H434 H 0.6727 0.45957 0.64899 0.0
H435 H 0.63654 0.41446 0.74763 0.0
H436 H 0.69615 0.48755 0.84487 0.0
H437 H 0.7326 0.53008 0.73766 0.0
H438 H 0.60254 0.47889 0.53572 0.0
H439 H 0.58781 0.42148 0.60388 0.0
Li440 Li 0.1359 0.62827 0.86789 0.0
Li441 Li 0.14713 0.65787 0.9158 0.0
Li442 Li 0.13034 0.62402 0.94983 0.0
Li443 Li 0.11041 0.63659 0.9033 0.0
C444 C 0.17655 0.64537 0.89944 0.0
N445 N 0.2161 0.66138 0.86402 0.0
C446 C 0.18274 0.65886 0.86234 0.0
C447 C 0.19047 0.64004 0.91861 0.0
C448 C 0.20279 0.66679 0.84491 0.0
C449 C 0.2104 0.64828 0.90019 0.0
C450 C 0.13422 0.66881 0.83254 0.0
C451 C 0.12655 0.69636 0.8194 0.0
N452 N 0.13881 0.70216 0.78183 0.0
C453 C 0.14651 0.67486 0.79343 0.0
C454 C 0.12395 0.67947 0.84535 0.0
C455 C 0.14873 0.69183 0.7684 0.0
C456 C 0.12752 0.6141 0.77913 0.0
N457 N 0.13989 0.61615 0.81497 0.0
C458 C 0.15397 0.59786 0.77545 0.0
C459 C 0.15307 0.60841 0.81384 0.0
C460 C 0.14099 0.59507 0.73827 0.0
C461 C 0.12781 0.60356 0.74024 0.0
H462 H 0.11706 0.62026 0.78126 0.0
H463 H 0.16243 0.60986 0.84318 0.0
C464 C 0.18027 0.68578 0.96686 0.0
N465 N 0.16939 0.68519 0.92926 0.0
C466 C 0.19616 0.70465 0.98331 0.0
C467 C 0.19026 0.72205 0.92058 0.0
C468 C 0.17416 0.7028 0.90576 0.0
C469 C 0.20125 0.72307 0.96014 0.0
H470 H 0.1763 0.6715 0.98453 0.0
H471 H 0.1655 0.70207 0.87585 0.0
C472 C 0.10527 0.58906 0.89513 0.0
N473 N 0.09646 0.54855 0.88302 0.0
C474 C 0.08547 0.57379 0.88101 0.0
C475 C 0.1206 0.58374 0.9031 0.0
C476 C 0.08132 0.55339 0.87509 0.0
C477 C 0.11584 0.56317 0.89678 0.0
C478 C 0.13113 0.6625 0.99327 0.0
C479 C 0.13811 0.66039 0.03589 0.0
C480 C 0.13138 0.68095 0.98234 0.0
C481 C 0.14559 0.67694 0.06655 0.0
C482 C 0.13902 0.69716 0.01387 0.0
N483 N 0.14593 0.69484 0.05496 0.0
C484 C 0.14699 0.61457 0.02479 0.0
C485 C 0.11096 0.5912 0.01345 0.0
C486 C 0.1469 0.6039 0.06377 0.0
N487 N 0.12916 0.60816 0.00087 0.0
C488 C 0.11024 0.57984 0.05182 0.0
C489 C 0.12834 0.58632 0.07764 0.0
H490 H 0.16118 0.62819 0.01391 0.0
H491 H 0.09701 0.58659 0.99385 0.0
C492 C 0.07076 0.61955 0.86657 0.0
N493 N 0.08391 0.6339 0.89676 0.0
C494 C 0.04998 0.61449 0.86469 0.0
C495 C 0.05701 0.64 0.9232 0.0
C496 C 0.07761 0.64434 0.92439 0.0
C497 C 0.0427 0.62444 0.89394 0.0
H498 H 0.07625 0.6114 0.84535 0.0
H499 H 0.08839 0.65556 0.94837 0.0
O500 O 0.157 0.6374 0.9172 0.0
O501 O 0.13175 0.65211 0.85715 0.0
O502 O 0.10963 0.60916 0.90058 0.0
O503 O 0.12418 0.6466 0.96245 0.0
H504 H 0.17221 0.66321 0.84731 0.0
H505 H 0.18589 0.6296 0.94736 0.0
H506 H 0.20779 0.67726 0.8162 0.0
H507 H 0.22133 0.64427 0.91464 0.0
H508 H 0.11879 0.70482 0.82909 0.0
H509 H 0.15421 0.6665 0.78243 0.0
H510 H 0.11407 0.67478 0.87493 0.0
H511 H 0.15828 0.69675 0.73821 0.0
H512 H 0.16415 0.59132 0.77549 0.0
H513 H 0.11771 0.60193 0.71213 0.0
H514 H 0.20455 0.70483 0.01351 0.0
H515 H 0.19388 0.736 0.90179 0.0
H516 H 0.07343 0.57766 0.87469 0.0
H517 H 0.13603 0.59536 0.91392 0.0
H518 H 0.06606 0.5414 0.86417 0.0
H519 H 0.12756 0.55885 0.90276 0.0
H520 H 0.13784 0.64618 0.0452 0.0
H521 H 0.1261 0.68292 0.94957 0.0
H522 H 0.15116 0.67555 0.09953 0.0
H523 H 0.13953 0.7116 0.00561 0.0
H524 H 0.16118 0.60924 0.08273 0.0
H525 H 0.09563 0.56643 0.06176 0.0
H526 H 0.03957 0.60212 0.84217 0.0
H527 H 0.05223 0.6483 0.94589 0.0
Li528 Li 0.84939 0.50549 0.90497 0.0
Li529 Li 0.86479 0.49018 0.94941 0.0
Li530 Li 0.88701 0.52467 0.91091 0.0
Li531 Li 0.86814 0.49095 0.86837 0.0
C532 C 0.85908 0.52944 0.97951 0.0
N533 N 0.8444 0.55357 0.01803 0.0
C534 C 0.84009 0.52003 0.00259 0.0
C535 C 0.87066 0.55112 0.97619 0.0
C536 C 0.83291 0.5325 0.02175 0.0
C537 C 0.86296 0.56304 0.99587 0.0
C538 C 0.82968 0.4588 0.92816 0.0
C539 C 0.8201 0.42437 0.95437 0.0
N540 N 0.80479 0.42413 0.98015 0.0
C541 C 0.81381 0.45819 0.95481 0.0
C542 C 0.83282 0.44173 0.92776 0.0
C543 C 0.8014 0.44052 0.98086 0.0
C544 C 0.80998 0.4912 0.87116 0.0
N545 N 0.82524 0.50789 0.89341 0.0
C546 C 0.80616 0.52592 0.88669 0.0
C547 C 0.82376 0.5252 0.90098 0.0
C548 C 0.79015 0.50882 0.86362 0.0
C549 C 0.79231 0.49133 0.8559 0.0
H550 H 0.81185 0.47796 0.8638 0.0
H551 H 0.83644 0.53872 0.91667 0.0
C552 C 0.87453 0.46508 0.0045 0.0
N553 N 0.86302 0.47467 0.00271 0.0
C554 C 0.87324 0.45304 0.04199 0.0
C555 C 0.84862 0.46132 0.07585 0.0
C556 C 0.85032 0.47314 0.03752 0.0
C557 C 0.86012 0.451 0.07828 0.0
H558 H 0.88477 0.46679 0.97688 0.0
H559 H 0.84134 0.48091 0.03537 0.0
C560 C 0.86105 0.52506 0.8263 0.0
N561 N 0.84042 0.53839 0.76963 0.0
C562 C 0.84821 0.51207 0.79182 0.0
C563 C 0.86351 0.54487 0.83182 0.0
C564 C 0.83788 0.51908 0.76357 0.0
C565 C 0.85293 0.55132 0.80282 0.0
C566 C 0.90397 0.49451 0.89291 0.0
C567 C 0.92325 0.51006 0.87675 0.0
C568 C 0.89808 0.4736 0.88636 0.0
C569 C 0.93628 0.50444 0.85427 0.0
C570 C 0.91153 0.46863 0.86364 0.0
N571 N 0.9302 0.48402 0.84821 0.0
C572 C 0.92511 0.55267 0.94885 0.0
C573 C 0.91891 0.56325 0.87748 0.0
C574 C 0.94581 0.56861 0.94803 0.0
N575 N 0.9124 0.54997 0.91329 0.0
C576 C 0.93943 0.57963 0.87556 0.0
C577 C 0.95343 0.582 0.91032 0.0
H578 H 0.91952 0.54155 0.97638 0.0
H579 H 0.90855 0.56045 0.84926 0.0
C580 C 0.8527 0.45803 0.80584 0.0
N581 N 0.86915 0.47707 0.8154 0.0
C582 C 0.85274 0.44749 0.76676 0.0
C583 C 0.88662 0.47645 0.74796 0.0
C584 C 0.88576 0.48657 0.78706 0.0
C585 C 0.86994 0.4566 0.73731 0.0
H586 H 0.83943 0.45113 0.8283 0.0
H587 H 0.8984 0.50196 0.79503 0.0
O588 O 0.86657 0.51756 0.96114 0.0
O589 O 0.84237 0.47619 0.90339 0.0
O590 O 0.87079 0.51822 0.85511 0.0
O591 O 0.89089 0.4997 0.91471 0.0
H592 H 0.83083 0.5033 0.00515 0.0
H593 H 0.88541 0.55867 0.95856 0.0
H594 H 0.81818 0.52543 0.03947 0.0
H595 H 0.87173 0.57983 0.99349 0.0
H596 H 0.82245 0.41111 0.95463 0.0
H597 H 0.81126 0.47131 0.9558 0.0
H598 H 0.84511 0.44199 0.90755 0.0
H599 H 0.78913 0.43988 0.00182 0.0
H600 H 0.80521 0.53976 0.8934 0.0
H601 H 0.78074 0.47803 0.83708 0.0
H602 H 0.88266 0.44565 0.04283 0.0
H603 H 0.83822 0.46005 0.10299 0.0
H604 H 0.84603 0.49664 0.7873 0.0
H605 H 0.87316 0.555 0.85877 0.0
H606 H 0.82778 0.50915 0.73694 0.0
H607 H 0.85455 0.56654 0.80691 0.0
H608 H 0.9281 0.5263 0.88117 0.0
H609 H 0.8831 0.46133 0.89788 0.0
H610 H 0.95121 0.51633 0.84153 0.0
H611 H 0.90708 0.45252 0.85807 0.0
H612 H 0.95598 0.56946 0.97527 0.0
H613 H 0.94446 0.58972 0.84618 0.0
H614 H 0.83927 0.4325 0.75944 0.0
H615 H 0.9003 0.48405 0.72664 0.0
Li616 Li 0.33908 0.8504 0.06755 0.0
Li617 Li 0.36822 0.86045 0.11539 0.0
Li618 Li 0.36343 0.88608 0.07259 0.0
Li619 Li 0.37287 0.86268 0.03099 0.0
C620 C 0.32786 0.85906 0.14494 0.0
N621 N 0.2899 0.8402 0.18876 0.0
C622 C 0.32428 0.84553 0.18117 0.0
C623 C 0.31225 0.86318 0.13128 0.0
C624 C 0.30495 0.83612 0.20284 0.0
C625 C 0.29312 0.85342 0.15376 0.0
C626 C 0.34425 0.81701 0.07375 0.0
C627 C 0.32135 0.78398 0.03844 0.0
N628 N 0.31643 0.77482 0.07999 0.0
C629 C 0.339 0.80726 0.11611 0.0
C630 C 0.33543 0.80527 0.03456 0.0
C631 C 0.32492 0.78592 0.11855 0.0
C632 C 0.30282 0.83164 0.01531 0.0
N633 N 0.31039 0.83037 0.0564 0.0
C634 C 0.27963 0.79788 0.0713 0.0
C635 C 0.29893 0.81425 0.085 0.0
C636 C 0.2719 0.79828 0.02797 0.0
C637 C 0.28347 0.81587 0.00062 0.0
H638 H 0.31216 0.84445 0.9929 0.0
H639 H 0.3052 0.81344 0.11743 0.0
C640 C 0.38211 0.86856 0.20597 0.0
N641 N 0.38003 0.85664 0.16919 0.0
C642 C 0.3928 0.86785 0.24424 0.0
C643 C 0.39838 0.8421 0.20657 0.0
C644 C 0.38783 0.84352 0.16878 0.0
C645 C 0.40121 0.85458 0.24467 0.0
H646 H 0.37596 0.87905 0.205 0.0
H647 H 0.38631 0.83457 0.13864 0.0
C648 C 0.35008 0.88367 0.98841 0.0
N649 N 0.34863 0.91306 0.93342 0.0
C650 C 0.36423 0.89267 0.95276 0.0
C651 C 0.33504 0.88945 0.99578 0.0
C652 C 0.36327 0.90754 0.9254 0.0
C653 C 0.33462 0.90439 0.96771 0.0
C654 C 0.40589 0.8934 0.10478 0.0
C655 C 0.40865 0.90949 0.13377 0.0
C656 C 0.41992 0.88604 0.10623 0.0
C657 C 0.42543 0.91792 0.16389 0.0
C658 C 0.43647 0.89485 0.13692 0.0
N659 N 0.43885 0.91047 0.16487 0.0
C660 C 0.35893 0.92083 0.09845 0.0
C661 C 0.38382 0.92663 0.04143 0.0
C662 C 0.36395 0.94166 0.09632 0.0
N663 N 0.36892 0.91385 0.07117 0.0
C664 C 0.38896 0.94734 0.03745 0.0
C665 C 0.37908 0.95508 0.06529 0.0
H666 H 0.34728 0.91031 0.12211 0.0
H667 H 0.39178 0.9207 0.02092 0.0
C668 C 0.37642 0.84761 0.9465 0.0
N669 N 0.38748 0.86082 0.98064 0.0
C670 C 0.38649 0.84666 0.90743 0.0
C671 C 0.41912 0.8732 0.93917 0.0
C672 C 0.40842 0.87355 0.97775 0.0
C673 C 0.40811 0.85966 0.90335 0.0
H674 H 0.3597 0.83821 0.94913 0.0
H675 H 0.41673 0.88425 0.00501 0.0
O676 O 0.34667 0.86842 0.12334 0.0
O677 O 0.35797 0.83792 0.07069 0.0
O678 O 0.35096 0.86934 0.0161 0.0
O679 O 0.38915 0.88444 0.0762 0.0
H680 H 0.33621 0.8422 0.19217 0.0
H681 H 0.31484 0.87369 0.10345 0.0
H682 H 0.3019 0.82553 0.23077 0.0
H683 H 0.28084 0.85635 0.14338 0.0
H684 H 0.31428 0.77474 0.0084 0.0
H685 H 0.34543 0.81611 0.14687 0.0
H686 H 0.33918 0.81254 0.00156 0.0
H687 H 0.32063 0.7782 0.15112 0.0
H688 H 0.27148 0.78461 0.09353 0.0
H689 H 0.27798 0.81719 0.96746 0.0
H690 H 0.39459 0.87765 0.27307 0.0
H691 H 0.40488 0.83188 0.20542 0.0
H692 H 0.37599 0.88842 0.94656 0.0
H693 H 0.32395 0.88259 0.02316 0.0
H694 H 0.37421 0.91473 0.89787 0.0
H695 H 0.32316 0.90912 0.97324 0.0
H696 H 0.39782 0.91522 0.13345 0.0
H697 H 0.41782 0.87339 0.08449 0.0
H698 H 0.4277 0.9303 0.18668 0.0
H699 H 0.44735 0.88919 0.13868 0.0
H700 H 0.35618 0.94723 0.11857 0.0
H701 H 0.40102 0.95738 0.01384 0.0
H702 H 0.37739 0.83631 0.8802 0.0
H703 H 0.43581 0.88343 0.93736 0.0
Li704 Li 0.48737 0.34033 0.23301 0.0
Li705 Li 0.50454 0.37102 0.27786 0.0
Li706 Li 0.46998 0.36053 0.24083 0.0
Li707 Li 0.50321 0.37389 0.19705 0.0
C708 C 0.4644 0.32736 0.30979 0.0
N709 N 0.43974 0.28937 0.35122 0.0
C710 C 0.47352 0.31726 0.33194 0.0
C711 C 0.44274 0.31819 0.30887 0.0
C712 C 0.46078 0.29804 0.35261 0.0
C713 C 0.43054 0.29896 0.33 0.0
C714 C 0.53427 0.36466 0.25445 0.0
C715 C 0.56916 0.38746 0.28135 0.0
N716 N 0.56857 0.37129 0.30431 0.0
C717 C 0.53402 0.34824 0.27822 0.0
C718 C 0.55199 0.38442 0.25585 0.0
C719 C 0.55153 0.35191 0.30322 0.0
C720 C 0.49836 0.31353 0.19408 0.0
N721 N 0.48307 0.31311 0.22025 0.0
C722 C 0.46306 0.27603 0.2141 0.0
C723 C 0.46554 0.29485 0.23025 0.0
C724 C 0.47849 0.27619 0.18637 0.0
C725 C 0.49636 0.2952 0.17659 0.0
H726 H 0.51185 0.32825 0.18541 0.0
H727 H 0.45306 0.29484 0.24896 0.0
C728 C 0.52988 0.40512 0.3345 0.0
N729 N 0.52078 0.38411 0.33089 0.0
C730 C 0.54232 0.41548 0.37183 0.0
C731 C 0.53542 0.38235 0.4019 0.0
C732 C 0.5232 0.37264 0.36377 0.0
C733 C 0.54524 0.40408 0.40613 0.0
H734 H 0.52743 0.41388 0.30851 0.0
H735 H 0.5158 0.35597 0.36027 0.0
C736 C 0.46804 0.33403 0.15415 0.0
N737 N 0.45406 0.30087 0.09492 0.0
C738 C 0.48057 0.33471 0.11806 0.0
C739 C 0.44836 0.31652 0.16 0.0
C740 C 0.47323 0.31777 0.08851 0.0
C741 C 0.44158 0.29991 0.1297 0.0
C742 C 0.50212 0.40715 0.2224 0.0
C743 C 0.48732 0.41169 0.20494 0.0
C744 C 0.5233 0.42145 0.21674 0.0
C745 C 0.49396 0.43047 0.18211 0.0
C746 C 0.5293 0.44003 0.19361 0.0
N747 N 0.51463 0.44412 0.17693 0.0
C748 C 0.44435 0.37406 0.27786 0.0
C749 C 0.43029 0.35299 0.21255 0.0
C750 C 0.42842 0.37885 0.27778 0.0
N751 N 0.44527 0.36182 0.24483 0.0
C752 C 0.41382 0.35702 0.21169 0.0
C753 C 0.41311 0.37073 0.24364 0.0
H754 H 0.45674 0.38113 0.30261 0.0
H755 H 0.4316 0.34359 0.18624 0.0
C756 C 0.53627 0.39129 0.13454 0.0
N757 N 0.5172 0.38869 0.14401 0.0
C758 C 0.54665 0.4015 0.09501 0.0
C759 C 0.51758 0.40622 0.07583 0.0
C760 C 0.50762 0.39563 0.11541 0.0
C761 C 0.5373 0.40915 0.06521 0.0
H762 H 0.54331 0.38521 0.15742 0.0
H763 H 0.4922 0.39282 0.12328 0.0
O764 O 0.47657 0.34635 0.29004 0.0
O765 O 0.51711 0.36149 0.2306 0.0
O766 O 0.47522 0.3502 0.18423 0.0
O767 O 0.49593 0.3887 0.24439 0.0
H768 H 0.49023 0.324 0.33259 0.0
H769 H 0.43542 0.32581 0.29203 0.0
H770 H 0.46762 0.28999 0.36962 0.0
H771 H 0.41376 0.29167 0.32949 0.0
H772 H 0.58292 0.4027 0.28299 0.0
H773 H 0.52039 0.33289 0.27782 0.0
H774 H 0.55239 0.39732 0.23791 0.0
H775 H 0.55153 0.33938 0.32195 0.0
H776 H 0.44894 0.26162 0.22179 0.0
H777 H 0.50862 0.29588 0.15543 0.0
H778 H 0.54929 0.43222 0.37417 0.0
H779 H 0.53736 0.37299 0.42749 0.0
H780 H 0.49591 0.34804 0.11323 0.0
H781 H 0.43862 0.31554 0.18828 0.0
H782 H 0.48281 0.31803 0.06061 0.0
H783 H 0.42646 0.28619 0.13407 0.0
H784 H 0.47089 0.40079 0.20848 0.0
H785 H 0.53499 0.41809 0.22933 0.0
H786 H 0.48267 0.43414 0.16832 0.0
H787 H 0.54563 0.45116 0.18874 0.0
H788 H 0.42892 0.38981 0.30264 0.0
H789 H 0.40224 0.35008 0.1852 0.0
H790 H 0.56187 0.40351 0.08791 0.0
H791 H 0.50979 0.41167 0.05329 0.0
Li792 Li 0.1343 0.50847 0.45105 0.0
Li793 Li 0.14908 0.4928 0.4049 0.0
Li794 Li 0.13022 0.50757 0.36999 0.0
Li795 Li 0.11149 0.47393 0.41278 0.0
C796 C 0.17012 0.53921 0.42834 0.0
N797 N 0.19757 0.57334 0.47887 0.0
C798 C 0.18654 0.53911 0.45133 0.0
C799 C 0.1677 0.55669 0.43089 0.0
C800 C 0.20026 0.55653 0.47668 0.0
C801 C 0.18172 0.57378 0.4567 0.0
C802 C 0.13972 0.46905 0.48078 0.0
C803 C 0.13585 0.43541 0.49653 0.0
N804 N 0.15385 0.44476 0.52077 0.0
C805 C 0.15815 0.47833 0.50595 0.0
C806 C 0.12843 0.44742 0.47608 0.0
C807 C 0.16505 0.46577 0.52586 0.0
C808 C 0.12279 0.53109 0.5091 0.0
N809 N 0.1364 0.52399 0.50462 0.0
C810 C 0.15226 0.53933 0.57561 0.0
C811 C 0.15091 0.52778 0.53702 0.0
C812 C 0.13845 0.54697 0.58098 0.0
C813 C 0.12362 0.54273 0.54693 0.0
H814 H 0.11121 0.52767 0.48335 0.0
H815 H 0.16147 0.52187 0.53295 0.0
C816 C 0.18623 0.50576 0.36246 0.0
N817 N 0.17306 0.49043 0.39097 0.0
C818 C 0.20347 0.5056 0.34443 0.0
C819 C 0.19374 0.47404 0.38613 0.0
C820 C 0.17636 0.47458 0.40267 0.0
C821 C 0.20755 0.48965 0.35628 0.0
H822 H 0.18289 0.51779 0.35233 0.0
H823 H 0.16528 0.462 0.42358 0.0
C824 C 0.09518 0.5048 0.39607 0.0
N825 N 0.06967 0.51643 0.35211 0.0
C826 C 0.07602 0.48967 0.37849 0.0
C827 C 0.10133 0.52585 0.39134 0.0
C828 C 0.06335 0.49586 0.35641 0.0
C829 C 0.08823 0.53141 0.36896 0.0
C830 C 0.13601 0.47249 0.3272 0.0
C831 C 0.14686 0.48395 0.28906 0.0
C832 C 0.13471 0.45339 0.33616 0.0
C833 C 0.15643 0.47616 0.26064 0.0
C834 C 0.1445 0.44614 0.30691 0.0
N835 N 0.15508 0.45759 0.27011 0.0
C836 C 0.14517 0.541 0.30886 0.0
C837 C 0.11253 0.51213 0.28893 0.0
C838 C 0.14506 0.55169 0.27009 0.0
N839 N 0.12899 0.52169 0.31763 0.0
C840 C 0.11161 0.52236 0.25007 0.0
C841 C 0.12806 0.54244 0.24012 0.0
H842 H 0.15831 0.548 0.33169 0.0
H843 H 0.10008 0.49655 0.29632 0.0
C844 C 0.07311 0.44711 0.45085 0.0
N845 N 0.08595 0.44879 0.41634 0.0
C846 C 0.05241 0.43117 0.45076 0.0
C847 C 0.05901 0.41811 0.38132 0.0
C848 C 0.07953 0.43453 0.3824 0.0
C849 C 0.0449 0.4167 0.41492 0.0
H850 H 0.07863 0.45896 0.47686 0.0
H851 H 0.09001 0.43648 0.35498 0.0
O852 O 0.15626 0.52216 0.40407 0.0
O853 O 0.13245 0.481 0.46186 0.0
O854 O 0.10795 0.49906 0.41734 0.0
O855 O 0.12706 0.48015 0.35612 0.0
H856 H 0.18853 0.52564 0.4501 0.0
H857 H 0.155 0.55697 0.41353 0.0
H858 H 0.21298 0.55663 0.49482 0.0
H859 H 0.17997 0.58736 0.4592 0.0
H860 H 0.1273 0.41865 0.49311 0.0
H861 H 0.16716 0.49504 0.50964 0.0
H862 H 0.11412 0.43997 0.45683 0.0
H863 H 0.17933 0.47274 0.54524 0.0
H864 H 0.16378 0.54196 0.60123 0.0
H865 H 0.11282 0.5485 0.54921 0.0
H866 H 0.21314 0.51763 0.32046 0.0
H867 H 0.1962 0.46144 0.39646 0.0
H868 H 0.07103 0.47332 0.38142 0.0
H869 H 0.11621 0.53779 0.40417 0.0
H870 H 0.04852 0.48432 0.34255 0.0
H871 H 0.09287 0.54764 0.36481 0.0
H872 H 0.14808 0.49882 0.28178 0.0
H873 H 0.12658 0.44445 0.36586 0.0
H874 H 0.165 0.48492 0.23116 0.0
H875 H 0.14379 0.43147 0.31363 0.0
H876 H 0.15835 0.56688 0.26335 0.0
H877 H 0.09809 0.51466 0.22832 0.0
H878 H 0.04217 0.43109 0.47697 0.0
H879 H 0.05407 0.40719 0.35343 0.0
Li880 Li 0.62725 0.13646 0.6139 0.0
Li881 Li 0.65538 0.14804 0.56354 0.0
Li882 Li 0.62157 0.13325 0.52964 0.0
Li883 Li 0.63376 0.11095 0.57305 0.0
C884 C 0.64676 0.17939 0.56585 0.0
N885 N 0.67143 0.22216 0.56081 0.0
C886 C 0.66034 0.19044 0.60125 0.0
C887 C 0.64542 0.19015 0.5283 0.0
C888 C 0.67278 0.21204 0.59795 0.0
C889 C 0.65809 0.21176 0.52628 0.0
C890 C 0.66679 0.13775 0.64912 0.0
C891 C 0.69605 0.13569 0.67845 0.0
N892 N 0.69943 0.15062 0.70946 0.0
C893 C 0.67031 0.15278 0.68185 0.0
C894 C 0.67953 0.12885 0.64787 0.0
C895 C 0.68699 0.15919 0.71183 0.0
C896 C 0.61138 0.12603 0.70255 0.0
N897 N 0.61631 0.14025 0.66894 0.0
C898 C 0.60182 0.15753 0.71079 0.0
C899 C 0.61203 0.15599 0.6725 0.0
C900 C 0.59587 0.14264 0.74546 0.0
C901 C 0.60103 0.12689 0.74128 0.0
H902 H 0.61493 0.11364 0.69856 0.0
H903 H 0.61591 0.16691 0.64492 0.0
C904 C 0.68319 0.17872 0.50757 0.0
N905 N 0.68278 0.16992 0.54825 0.0
C906 C 0.70145 0.1956 0.49164 0.0
C907 C 0.71907 0.1938 0.55893 0.0
C908 C 0.70029 0.17694 0.57385 0.0
C909 C 0.71962 0.2035 0.51766 0.0
H910 H 0.6691 0.17276 0.48776 0.0
H911 H 0.69974 0.1698 0.60601 0.0
C912 C 0.58887 0.10528 0.60053 0.0
N913 N 0.55352 0.0943 0.65114 0.0
C914 C 0.58 0.08715 0.62665 0.0
C915 C 0.57967 0.11775 0.59988 0.0
C916 C 0.56214 0.08187 0.65204 0.0
C917 C 0.56183 0.11196 0.62578 0.0
C918 C 0.66026 0.12903 0.49 0.0
C919 C 0.66142 0.13355 0.44372 0.0
C920 C 0.67624 0.12722 0.51058 0.0
C921 C 0.67877 0.13655 0.419 0.0
C922 C 0.69333 0.13034 0.48473 0.0
N923 N 0.69425 0.13493 0.43986 0.0
C924 C 0.61705 0.14598 0.44387 0.0
C925 C 0.58508 0.12127 0.47722 0.0
C926 C 0.60688 0.14634 0.40445 0.0
N927 N 0.6061 0.13353 0.47907 0.0
C928 C 0.57419 0.12141 0.43873 0.0
C929 C 0.58512 0.13396 0.40142 0.0
H930 H 0.63378 0.1555 0.44629 0.0
H931 H 0.57675 0.11127 0.50542 0.0
C932 C 0.62322 0.07279 0.61326 0.0
N933 N 0.63085 0.08422 0.57489 0.0
C934 C 0.6175 0.05179 0.61355 0.0
C935 C 0.62934 0.05529 0.53599 0.0
C936 C 0.63437 0.07608 0.53692 0.0
C937 C 0.62002 0.04258 0.5741 0.0
H938 H 0.6206 0.07974 0.64294 0.0
H939 H 0.64031 0.08546 0.50671 0.0
O940 O 0.63481 0.15817 0.56793 0.0
O941 O 0.65043 0.1311 0.61975 0.0
O942 O 0.6068 0.11116 0.57676 0.0
O943 O 0.6436 0.12642 0.51511 0.0
H944 H 0.66145 0.18242 0.63066 0.0
H945 H 0.63477 0.18191 0.50091 0.0
H946 H 0.68352 0.22075 0.62491 0.0
H947 H 0.65733 0.22025 0.49724 0.0
H948 H 0.70613 0.12906 0.67765 0.0
H949 H 0.66017 0.15928 0.68443 0.0
H950 H 0.67664 0.11673 0.62373 0.0
H951 H 0.68997 0.17091 0.73715 0.0
H952 H 0.59794 0.16977 0.71246 0.0
H953 H 0.59691 0.11524 0.76745 0.0
H954 H 0.70132 0.20251 0.45937 0.0
H955 H 0.73281 0.19957 0.58001 0.0
H956 H 0.58686 0.07729 0.62749 0.0
H957 H 0.58648 0.13197 0.58022 0.0
H958 H 0.55516 0.06793 0.67256 0.0
H959 H 0.55467 0.12157 0.62591 0.0
H960 H 0.64908 0.1347 0.42701 0.0
H961 H 0.67551 0.12363 0.54624 0.0
H962 H 0.67992 0.14015 0.38321 0.0
H963 H 0.70588 0.12915 0.50036 0.0
H964 H 0.61609 0.15596 0.37643 0.0
H965 H 0.55741 0.11182 0.4384 0.0
H966 H 0.61014 0.04272 0.64362 0.0
H967 H 0.63205 0.0491 0.50514 0.0
Li968 Li 0.50845 0.65594 0.7206 0.0
Li969 Li 0.49033 0.62664 0.76903 0.0
Li970 Li 0.52363 0.63435 0.73194 0.0
Li971 Li 0.49058 0.62198 0.68695 0.0
C972 C 0.53345 0.66707 0.80194 0.0
N973 N 0.5635 0.7007 0.84987 0.0
C974 C 0.52807 0.67391 0.8411 0.0
C975 C 0.55419 0.67706 0.7877 0.0
C976 C 0.54347 0.69102 0.8647 0.0
C977 C 0.56913 0.69411 0.81224 0.0
C978 C 0.46687 0.64411 0.73892 0.0
C979 C 0.43646 0.64795 0.73917 0.0
N980 N 0.44424 0.66091 0.77548 0.0
C981 C 0.47456 0.65748 0.77617 0.0
C982 C 0.44768 0.63931 0.72018 0.0
C983 C 0.46289 0.66581 0.79418 0.0
C984 C 0.50289 0.68387 0.67048 0.0
N985 N 0.51373 0.68334 0.70713 0.0
C986 C 0.53026 0.72028 0.71497 0.0
C987 C 0.52715 0.70103 0.7297 0.0
C988 C 0.51969 0.72122 0.67641 0.0
C989 C 0.50582 0.70274 0.65412 0.0
H990 H 0.49214 0.66954 0.65351 0.0
H991 H 0.53556 0.70036 0.7588 0.0
C992 C 0.48489 0.61273 0.85826 0.0
N993 N 0.47452 0.61469 0.82239 0.0
C994 C 0.4741 0.60227 0.89727 0.0
C995 C 0.4422 0.59646 0.86209 0.0
C996 C 0.4536 0.60692 0.82359 0.0
C997 C 0.45243 0.59378 0.89932 0.0
H998 H 0.50151 0.61889 0.85605 0.0
H999 H 0.44566 0.60828 0.79421 0.0
C1000 C 0.52815 0.6601 0.64211 0.0
N1001 N 0.54545 0.69237 0.5802 0.0
C1002 C 0.51849 0.65823 0.6003 0.0
C1003 C 0.54681 0.67827 0.65208 0.0
C1004 C 0.52744 0.67474 0.56953 0.0
C1005 C 0.55524 0.69445 0.62046 0.0
C1006 C 0.48146 0.58725 0.74404 0.0
C1007 C 0.48651 0.5729 0.76185 0.0
C1008 C 0.46063 0.58121 0.73583 0.0
C1009 C 0.47061 0.55265 0.77107 0.0
C1010 C 0.44519 0.56083 0.74552 0.0
N1011 N 0.45045 0.54709 0.76279 0.0
C1012 C 0.54718 0.61834 0.7693 0.0
C1013 C 0.56263 0.6399 0.70516 0.0
C1014 C 0.56264 0.61289 0.76998 0.0
N1015 N 0.54724 0.63123 0.73663 0.0
C1016 C 0.57856 0.63507 0.70487 0.0
C1017 C 0.57838 0.62091 0.73679 0.0
H1018 H 0.53457 0.61156 0.79358 0.0
H1019 H 0.56214 0.64997 0.67933 0.0
C1020 C 0.46374 0.6123 0.61316 0.0
N1021 N 0.47528 0.60595 0.63671 0.0
C1022 C 0.4527 0.60138 0.57482 0.0
C1023 C 0.46518 0.57723 0.58658 0.0
C1024 C 0.47623 0.58882 0.62434 0.0
C1025 C 0.45331 0.58356 0.56098 0.0
H1026 H 0.46349 0.62614 0.62373 0.0
H1027 H 0.48559 0.58418 0.6438 0.0
O1028 O 0.51859 0.65022 0.77872 0.0
O1029 O 0.47801 0.63578 0.72056 0.0
O1030 O 0.51932 0.64426 0.67308 0.0
O1031 O 0.4968 0.60724 0.73558 0.0
H1032 H 0.51218 0.66607 0.85324 0.0
H1033 H 0.55873 0.67173 0.75811 0.0
H1034 H 0.5395 0.69656 0.8949 0.0
H1035 H 0.58521 0.70206 0.80143 0.0
H1036 H 0.42158 0.64435 0.72505 0.0
H1037 H 0.4894 0.66142 0.79087 0.0
H1038 H 0.44152 0.62898 0.69131 0.0
H1039 H 0.46868 0.67619 0.82301 0.0
H1040 H 0.54103 0.73429 0.73304 0.0
H1041 H 0.49714 0.70286 0.62471 0.0
H1042 H 0.4826 0.6007 0.9254 0.0
H1043 H 0.42547 0.58991 0.86209 0.0
H1044 H 0.50419 0.64425 0.59175 0.0
H1045 H 0.55453 0.68003 0.68415 0.0
H1046 H 0.52005 0.67354 0.5372 0.0
H1047 H 0.56954 0.70867 0.62799 0.0
H1048 H 0.50255 0.57735 0.76852 0.0
H1049 H 0.45642 0.59218 0.72244 0.0
H1050 H 0.47429 0.54136 0.78485 0.0
H1051 H 0.42901 0.55595 0.73943 0.0
H1052 H 0.56158 0.60165 0.79479 0.0
H1053 H 0.5905 0.64186 0.67906 0.0
H1054 H 0.44413 0.60713 0.55579 0.0
H1055 H 0.46587 0.56343 0.57774 0.0
C1056 C 0.54594 0.11565 0.30493 0.0
C1057 C 0.55322 0.13382 0.27876 0.0
H1058 H 0.55047 0.10123 0.36305 0.0
C1059 C 0.571 0.15207 0.29354 0.0
H1060 H 0.53212 0.10137 0.29517 0.0
C1061 C 0.58112 0.15218 0.33351 0.0
C1062 C 0.57398 0.13395 0.35942 0.0
H1063 H 0.5773 0.16631 0.27406 0.0
H1064 H 0.59448 0.16666 0.34415 0.0
C1065 C 0.55628 0.11567 0.3445 0.0
C1066 C 0.43986 0.55231 0.45175 0.0
C1067 C 0.42078 0.55073 0.4402 0.0
H1068 H 0.46539 0.5644 0.49808 0.0
C1069 C 0.41222 0.5596 0.46885 0.0
H1070 H 0.44684 0.54574 0.42991 0.0
C1071 C 0.42258 0.56992 0.50836 0.0
C1072 C 0.44191 0.57188 0.51973 0.0
H1073 H 0.39738 0.55833 0.46092 0.0
H1074 H 0.41534 0.57623 0.53013 0.0
C1075 C 0.45039 0.5629 0.49094 0.0
C1076 C 0.86134 0.4237 0.6957 0.0
C1077 C 0.87036 0.44549 0.69568 0.0
H1078 H 0.85415 0.3964 0.65738 0.0
C1079 C 0.87958 0.4565 0.65547 0.0
H1080 H 0.85452 0.41473 0.72619 0.0
C1081 C 0.87972 0.44596 0.61634 0.0
C1082 C 0.87038 0.42422 0.61641 0.0
H1083 H 0.88635 0.47322 0.65387 0.0
H1084 H 0.88675 0.45477 0.58572 0.0
C1085 C 0.86121 0.41318 0.65639 0.0
C1086 C 0.4244 0.84043 0.8009 0.0
C1087 C 0.43925 0.85921 0.78074 0.0
H1088 H 0.40297 0.82587 0.85563 0.0
C1089 C 0.44389 0.87811 0.80137 0.0
H1090 H 0.42042 0.82563 0.78557 0.0
C1091 C 0.43391 0.87824 0.84137 0.0
C1092 C 0.41899 0.85948 0.86141 0.0
H1093 H 0.45543 0.89281 0.78685 0.0
H1094 H 0.43767 0.89306 0.85628 0.0
C1095 C 0.41431 0.84057 0.84075 0.0
C1096 C 0.54976 0.43897 0.01102 0.0
C1097 C 0.54798 0.41984 0.02292 0.0
H1098 H 0.56212 0.46439 0.96431 0.0
C1099 C 0.55664 0.41102 0.99443 0.0
H1100 H 0.54334 0.44616 0.03269 0.0
C1101 C 0.56705 0.42123 0.95488 0.0
C1102 C 0.5693 0.44064 0.94326 0.0
H1103 H 0.55519 0.39612 0.00256 0.0
H1104 H 0.57325 0.41381 0.93332 0.0
C1105 C 0.56043 0.44934 0.97173 0.0
C1106 C 0.11904 0.54271 0.15792 0.0
C1107 C 0.12767 0.55361 0.19855 0.0
H1108 H 0.11247 0.54457 0.08783 0.0
C1109 C 0.1362 0.57533 0.199 0.0
H1110 H 0.11266 0.52605 0.156 0.0
C1111 C 0.13644 0.58592 0.1597 0.0
C1112 C 0.12787 0.575 0.11926 0.0
H1113 H 0.14257 0.58421 0.22981 0.0
H1114 H 0.1431 0.60265 0.16105 0.0
C1115 C 0.11901 0.5533 0.11877 0.0
C1116 C 0.47931 0.25532 0.12077 0.0
C1117 C 0.47612 0.25673 0.16729 0.0
H1118 H 0.48207 0.23716 0.06756 0.0
C1119 C 0.47186 0.23993 0.1958 0.0
H1120 H 0.48246 0.26805 0.09812 0.0
C1121 C 0.47184 0.22241 0.17845 0.0
C1122 C 0.47572 0.22129 0.13219 0.0
H1123 H 0.4694 0.24071 0.23178 0.0
H1124 H 0.46921 0.20989 0.2013 0.0
C1125 C 0.47895 0.23765 0.10328 0.0
C1126 C 0.26135 0.50795 0.30775 0.0
C1127 C 0.26074 0.4891 0.29795 0.0
H1128 H 0.24576 0.52293 0.33551 0.0
C1129 C 0.24241 0.47032 0.30773 0.0
H1130 H 0.27497 0.52276 0.30005 0.0
C1131 C 0.22517 0.47043 0.3266 0.0
C1132 C 0.22592 0.48932 0.33685 0.0
H1133 H 0.24139 0.45548 0.30134 0.0
H1134 H 0.21119 0.45567 0.33265 0.0
C1135 C 0.24433 0.50805 0.32746 0.0
C1136 C 0.73748 0.23963 0.48703 0.0
C1137 C 0.7387 0.22235 0.50234 0.0
H1138 H 0.75382 0.27052 0.46034 0.0
C1139 C 0.75805 0.22321 0.50228 0.0
H1140 H 0.72278 0.23943 0.48711 0.0
C1141 C 0.77585 0.24104 0.48671 0.0
C1142 C 0.77458 0.25833 0.47167 0.0
H1143 H 0.75934 0.21003 0.51372 0.0
H1144 H 0.79064 0.24143 0.4871 0.0
C1145 C 0.75524 0.25744 0.472 0.0
C1146 C 0.52067 0.77253 0.67358 0.0
C1147 C 0.52435 0.77789 0.62732 0.0
H1148 H 0.51652 0.75051 0.72529 0.0
C1149 C 0.52766 0.7649 0.59789 0.0
H1150 H 0.51757 0.78182 0.6972 0.0
C1151 C 0.52657 0.74668 0.61403 0.0
C1152 C 0.52249 0.74126 0.66001 0.0
H1153 H 0.53091 0.76867 0.56229 0.0
H1154 H 0.52878 0.73673 0.59053 0.0
C1155 C 0.51993 0.75451 0.68978 0.0
C1156 C 0.75544 0.52744 0.81148 0.0
C1157 C 0.73593 0.5091 0.8117 0.0
H1158 H 0.78789 0.54173 0.82708 0.0
C1159 C 0.73444 0.49087 0.82972 0.0
H1160 H 0.75713 0.54183 0.79837 0.0
C1161 C 0.75191 0.49096 0.84734 0.0
C1162 C 0.77147 0.50919 0.84672 0.0
H1163 H 0.71979 0.47635 0.82984 0.0
H1164 H 0.75002 0.47666 0.86154 0.0
C1165 C 0.77303 0.52747 0.82865 0.0
C1166 C 0.21925 0.74876 0.02246 0.0
C1167 C 0.21839 0.74312 0.97674 0.0
H1168 H 0.23638 0.77098 0.07425 0.0
C1169 C 0.23457 0.7562 0.94749 0.0
H1170 H 0.2068 0.73896 0.04554 0.0
C1171 C 0.2517 0.77426 0.96398 0.0
C1172 C 0.25286 0.77985 0.01 0.0
H1173 H 0.23435 0.75202 0.91221 0.0
H1174 H 0.26435 0.78341 0.94084 0.0
C1175 C 0.23623 0.76703 0.03887 0.0
C1176 C 0.58877 0.16185 0.80661 0.0
C1177 C 0.58361 0.14303 0.78483 0.0
H1178 H 0.5812 0.1769 0.8592 0.0
C1179 C 0.56635 0.12455 0.8003 0.0
H1180 H 0.60206 0.17633 0.79559 0.0
C1181 C 0.55445 0.12487 0.83663 0.0
C1182 C 0.55959 0.14367 0.85846 0.0
H1183 H 0.56184 0.10984 0.78387 0.0
H1184 H 0.54133 0.11033 0.84796 0.0
C1185 C 0.57693 0.16216 0.8432 0.0
C1186 C 0.44488 0.5668 0.95867 0.0
C1187 C 0.44052 0.5815 0.93937 0.0
H1188 H 0.43728 0.54368 0.00972 0.0
C1189 C 0.42464 0.58419 0.95833 0.0
H1190 H 0.45674 0.56408 0.94427 0.0
C1191 C 0.41355 0.57259 0.99619 0.0
C1192 C 0.41801 0.55795 0.01571 0.0
H1193 H 0.42105 0.59553 0.94436 0.0
H1194 H 0.40174 0.57536 0.01063 0.0
C1195 C 0.43372 0.55512 0.99625 0.0
C1196 C 0.85763 0.41907 0.11352 0.0
C1197 C 0.85875 0.43843 0.11861 0.0
H1198 H 0.85605 0.39262 0.14638 0.0
C1199 C 0.85906 0.44592 0.1625 0.0
H1200 H 0.85706 0.41275 0.0801 0.0
C1201 C 0.85863 0.43446 0.20049 0.0
C1202 C 0.85775 0.41519 0.19546 0.0
H1203 H 0.8602 0.46091 0.16751 0.0
H1204 H 0.85951 0.44099 0.23381 0.0
C1205 C 0.85709 0.40756 0.1515 0.0
C1206 C 0.44097 0.87285 0.33937 0.0
C1207 C 0.4374 0.85392 0.358 0.0
H1208 H 0.43222 0.88786 0.28904 0.0
C1209 C 0.42171 0.83517 0.33936 0.0
H1210 H 0.45283 0.88753 0.35337 0.0
C1211 C 0.40997 0.83535 0.30247 0.0
C1212 C 0.41348 0.8543 0.28401 0.0
H1213 H 0.4187 0.82036 0.35299 0.0
H1214 H 0.398 0.82069 0.28865 0.0
C1215 C 0.42905 0.87304 0.3029 0.0
C1216 C 0.58892 0.44413 0.47942 0.0
C1217 C 0.58181 0.43652 0.52335 0.0
H1218 H 0.58308 0.43974 0.40804 0.0
C1219 C 0.5629 0.41771 0.52823 0.0
H1220 H 0.60359 0.45836 0.47434 0.0
C1221 C 0.55125 0.40697 0.49018 0.0
C1222 C 0.55815 0.41486 0.4464 0.0
H1223 H 0.55676 0.41155 0.56152 0.0
H1224 H 0.53651 0.3928 0.49512 0.0
C1225 C 0.5772 0.43345 0.44141 0.0
C1226 C 0.15842 0.57369 0.64126 0.0
C1227 C 0.13927 0.55909 0.62189 0.0
H1228 H 0.174 0.59664 0.693 0.0
C1229 C 0.12078 0.55627 0.64164 0.0
H1230 H 0.17296 0.57644 0.62661 0.0
C1231 C 0.12141 0.56796 0.67928 0.0
C1232 C 0.14053 0.58267 0.69835 0.0
H1233 H 0.10575 0.54485 0.62832 0.0
H1234 H 0.10687 0.56527 0.69386 0.0
C1235 C 0.15903 0.58531 0.67919 0.0
C1236 C 0.39694 0.00895 0.01983 0.0
C1237 C 0.40576 0.02123 0.05877 0.0
H1238 H 0.3815 0.97823 0.99148 0.0
C1239 C 0.40325 0.01118 0.10076 0.0
H1240 H 0.39808 0.01606 0.98712 0.0
C1241 C 0.39327 0.98951 0.10328 0.0
C1242 C 0.38588 0.97747 0.06385 0.0
H1243 H 0.41006 0.01999 0.13144 0.0
H1244 H 0.39252 0.98226 0.13564 0.0
C1245 C 0.38729 0.98729 0.02229 0.0
C1246 C 0.39106 0.38448 0.27679 0.0
C1247 C 0.39811 0.37842 0.23864 0.0
H1248 H 0.37653 0.40102 0.30195 0.0
C1249 C 0.39248 0.38188 0.19529 0.0
H1250 H 0.39458 0.38162 0.31075 0.0
C1251 C 0.38137 0.39236 0.19023 0.0
C1252 C 0.37596 0.40006 0.22827 0.0
H1253 H 0.39763 0.37758 0.16494 0.0
H1254 H 0.37782 0.39519 0.15627 0.0
C1255 C 0.38031 0.39534 0.2717 0.0
C1256 C 0.00937 0.39393 0.44857 0.0
C1257 C 0.02214 0.40202 0.4101 0.0
H1258 H 0.97853 0.37888 0.47518 0.0
C1259 C 0.01268 0.39785 0.36709 0.0
H1260 H 0.01607 0.39637 0.48217 0.0
C1261 C 0.99104 0.38714 0.36292 0.0
C1262 C 0.97828 0.38064 0.40164 0.0
H1263 H 0.02189 0.40386 0.33657 0.0
H1264 H 0.98435 0.38471 0.3293 0.0
C1265 C 0.98773 0.38355 0.44444 0.0
C1266 C 0.59816 0.98621 0.60911 0.0
C1267 C 0.58812 0.97575 0.56917 0.0
H1268 H 0.61704 0.01552 0.64159 0.0
C1269 C 0.59058 0.98723 0.52965 0.0
H1270 H 0.59654 0.97758 0.63993 0.0
C1271 C 0.60175 0.00893 0.53077 0.0
C1272 C 0.61101 0.01961 0.57133 0.0
H1273 H 0.58274 0.97946 0.4986 0.0
H1274 H 0.60202 0.01723 0.50038 0.0
C1275 C 0.60971 0.00792 0.61006 0.0
C1276 C 0.60955 0.59806 0.68643 0.0
C1277 C 0.61527 0.5912 0.7254 0.0
H1278 H 0.59323 0.6125 0.65933 0.0
C1279 C 0.61104 0.5966 0.76821 0.0
H1280 H 0.61292 0.59454 0.65292 0.0
C1281 C 0.60019 0.60741 0.77193 0.0
C1282 C 0.59309 0.61287 0.73298 0.0
H1283 H 0.61506 0.59151 0.79905 0.0
H1284 H 0.59669 0.61079 0.80545 0.0
C1285 C 0.5985 0.60866 0.69016 0.0
C1286 C 0.00731 0.60942 0.85822 0.0
C1287 C 0.02004 0.6171 0.89683 0.0
H1288 H 0.97647 0.59208 0.83211 0.0
C1289 C 0.01061 0.61571 0.93907 0.0
H1290 H 0.01401 0.61066 0.82496 0.0
C1291 C 0.98897 0.60562 0.943 0.0
C1292 C 0.97621 0.59638 0.90496 0.0
H1293 H 0.01981 0.62134 0.96969 0.0
H1294 H 0.98226 0.60433 0.97627 0.0
C1295 C 0.98568 0.59904 0.86226 0.0
loop_
_geom_bond_atom_site_label_1
_geom_bond_atom_site_label_2
_geom_bond_distance
_geom_bond_site_symmetry_2
_ccdc_geom_bond_type
Li0 N17 1.990 . S
Li0 O60 1.956 . S
Li0 O61 1.970 . S
Li0 O62 1.961 . S
Li1 N25 1.990 . S
Li1 O60 1.970 . S
Li1 O61 1.956 . S
Li1 O63 1.961 . S
Li2 N47 1.990 . S
Li2 O60 1.961 . S
Li2 O62 1.956 . S
Li2 O63 1.970 . S
Li3 N53 1.990 1_554 S
Li3 O61 1.961 . S
Li3 O62 1.970 . S
Li3 O63 1.956 . S
C4 C6 1.348 . S
C4 C7 1.356 . S
C4 O60 1.325 . S
N5 C8 1.314 . S
N5 C9 1.279 . S
C6 C4 1.348 . S
C6 C8 1.353 . S
C6 H64 0.929 . S
C7 C4 1.356 . S
C7 C9 1.358 . S
C7 H65 0.930 . S
C8 N5 1.314 . S
C8 C6 1.353 . S
C8 H66 0.930 . S
C9 N5 1.279 . S
C9 C7 1.358 . S
C9 H67 0.930 . S
C10 C13 1.348 . S
C10 C14 1.356 . S
C10 O61 1.325 . S
C11 N12 1.279 . S
C11 C14 1.358 . S
C11 H68 0.930 . S
N12 C11 1.279 . S
N12 C15 1.314 . S
C13 C10 1.348 . S
C13 C15 1.353 . S
C13 H69 0.929 . S
C14 C10 1.356 . S
C14 C11 1.358 . S
C14 H70 0.930 . S
C15 N12 1.314 . S
C15 C13 1.353 . S
C15 H71 0.930 . S
C16 N17 1.314 . S
C16 C21 1.353 . S
C16 H22 0.930 . S
N17 Li0 1.990 . S
N17 C16 1.314 . S
N17 C19 1.279 . S
C18 C19 1.358 . S
C18 C20 1.356 . S
C18 H72 0.930 . S
C19 N17 1.279 . S
C19 C18 1.358 . S
C19 H23 0.930 . S
C20 C18 1.356 . S
C20 C21 1.348 . S
C21 C16 1.353 . S
C21 C20 1.348 . S
C21 H73 0.929 . S
H22 C16 0.930 . S
H23 C19 0.930 . S
C24 N25 1.314 . S
C24 C26 1.353 . S
C24 H30 0.930 . S
N25 Li1 1.990 . S
N25 C24 1.314 . S
N25 C28 1.279 . S
C26 C24 1.353 . S
C26 C29 1.348 . S
C26 H74 0.929 . S
C27 C28 1.358 . S
C27 C29 1.356 . S
C27 H75 0.930 . S
C28 N25 1.279 . S
C28 C27 1.358 . S
C28 H31 0.930 . S
C29 C26 1.348 . S
C29 C27 1.356 . S
H30 C24 0.930 . S
H31 C28 0.930 . S
C32 C34 1.348 . S
C32 C35 1.356 . S
C32 O62 1.325 1_556 S
N33 C36 1.314 . S
N33 C37 1.279 . S
C34 C32 1.348 . S
C34 C36 1.353 . S
C34 H76 0.929 . S
C35 C32 1.356 . S
C35 C37 1.358 . S
C35 H77 0.930 1_556 S
C36 N33 1.314 . S
C36 C34 1.353 . S
C36 H78 0.930 . S
C37 N33 1.279 . S
C37 C35 1.358 . S
C37 H79 0.930 . S
C38 C39 1.348 . S
C38 C40 1.356 . S
C38 O63 1.325 . S
C39 C38 1.348 . S
C39 C41 1.353 . S
C39 H80 0.929 . S
C40 C38 1.356 . S
C40 C42 1.358 . S
C40 H81 0.930 . S
C41 C39 1.353 . S
C41 N43 1.314 . S
C41 H82 0.930 . S
C42 C40 1.358 . S
C42 N43 1.279 . S
C42 H83 0.930 . S
N43 C41 1.314 . S
N43 C42 1.279 . S
C44 C46 1.353 . S
C44 N47 1.314 . S
C44 H50 0.930 . S
C45 N47 1.279 . S
C45 C48 1.358 . S
C45 H51 0.930 . S
C46 C44 1.353 . S
C46 C49 1.348 . S
C46 H84 0.929 . S
N47 Li2 1.990 . S
N47 C44 1.314 . S
N47 C45 1.279 . S
C48 C45 1.358 . S
C48 C49 1.356 . S
C48 H85 0.930 . S
C49 C46 1.348 . S
C49 C48 1.356 . S
H50 C44 0.930 . S
H51 C45 0.930 . S
C52 N53 1.314 . S
C52 C54 1.353 . S
C52 H58 0.930 . S
N53 Li3 1.990 1_556 S
N53 C52 1.314 . S
N53 C56 1.279 . S
C54 C52 1.353 . S
C54 C57 1.348 . S
C54 H86 0.929 . S
C55 C56 1.358 . S
C55 C57 1.356 . S
C55 H87 0.930 . S
C56 N53 1.279 . S
C56 C55 1.358 . S
C56 H59 0.930 . S
C57 C54 1.348 . S
C57 C55 1.356 . S
H58 C52 0.930 . S
H59 C56 0.930 . S
O60 Li0 1.956 . S
O60 Li1 1.970 . S
O60 Li2 1.961 . S
O60 C4 1.325 . S
O61 Li0 1.970 . S
O61 Li1 1.956 . S
O61 Li3 1.961 . S
O61 C10 1.325 . S
O62 Li0 1.961 . S
O62 Li2 1.956 . S
O62 Li3 1.970 . S
O62 C32 1.325 1_554 S
O63 Li1 1.961 . S
O63 Li2 1.970 . S
O63 Li3 1.956 . S
O63 C38 1.325 . S
H64 C6 0.929 . S
H65 C7 0.930 . S
H66 C8 0.930 . S
H67 C9 0.930 . S
H68 C11 0.930 . S
H69 C13 0.929 . S
H70 C14 0.930 . S
H71 C15 0.930 . S
H72 C18 0.930 . S
H73 C21 0.929 . S
H74 C26 0.929 . S
H75 C27 0.930 . S
H76 C34 0.929 . S
H77 C35 0.930 1_554 S
H78 C36 0.930 . S
H79 C37 0.930 . S
H80 C39 0.929 . S
H81 C40 0.930 . S
H82 C41 0.930 . S
H83 C42 0.930 . S
H84 C46 0.929 . S
H85 C48 0.930 . S
H86 C54 0.929 . S
H87 C55 0.930 . S
Li88 N105 1.990 . S
Li88 O148 1.956 . S
Li88 O149 1.970 . S
Li88 O150 1.961 . S
Li89 N113 1.990 . S
Li89 O148 1.970 . S
Li89 O149 1.956 . S
Li89 O151 1.961 . S
Li90 N135 1.990 . S
Li90 O148 1.961 . S
Li90 O150 1.956 . S
Li90 O151 1.970 . S
Li91 N141 1.990 . S
Li91 O149 1.961 . S
Li91 O150 1.970 . S
Li91 O151 1.956 . S
C92 C94 1.348 . S
C92 C95 1.356 . S
C92 O148 1.325 . S
N93 C96 1.314 . S
N93 C97 1.279 . S
C94 C92 1.348 . S
C94 C96 1.353 . S
C94 H152 0.929 . S
C95 C92 1.356 . S
C95 C97 1.358 . S
C95 H153 0.930 . S
C96 N93 1.314 . S
C96 C94 1.353 . S
C96 H154 0.930 . S
C97 N93 1.279 . S
C97 C95 1.358 . S
C97 H155 0.930 . S
C98 C101 1.348 . S
C98 C102 1.356 . S
C98 O149 1.325 . S
C99 N100 1.279 . S
C99 C102 1.358 . S
C99 H156 0.930 . S
N100 C99 1.279 . S
N100 C103 1.314 . S
C101 C98 1.348 . S
C101 C103 1.353 . S
C101 H157 0.929 . S
C102 C98 1.356 . S
C102 C99 1.358 . S
C102 H158 0.930 . S
C103 N100 1.314 . S
C103 C101 1.353 . S
C103 H159 0.930 . S
C104 N105 1.314 . S
C104 C109 1.353 . S
C104 H110 0.930 . S
N105 Li88 1.990 . S
N105 C104 1.314 . S
N105 C107 1.279 . S
C106 C107 1.358 . S
C106 C108 1.356 . S
C106 H160 0.930 . S
C107 N105 1.279 . S
C107 C106 1.358 . S
C107 H111 0.930 . S
C108 C106 1.356 . S
C108 C109 1.348 . S
C109 C104 1.353 . S
C109 C108 1.348 . S
C109 H161 0.929 . S
H110 C104 0.930 . S
H111 C107 0.930 . S
C112 N113 1.314 . S
C112 C114 1.353 . S
C112 H118 0.930 . S
N113 Li89 1.990 . S
N113 C112 1.314 . S
N113 C116 1.279 . S
C114 C112 1.353 . S
C114 C117 1.348 . S
C114 H162 0.929 . S
C115 C116 1.358 . S
C115 C117 1.356 . S
C115 H163 0.930 . S
C116 N113 1.279 . S
C116 C115 1.358 . S
C116 H119 0.930 . S
C117 C114 1.348 . S
C117 C115 1.356 . S
H118 C112 0.930 . S
H119 C116 0.930 . S
C120 C122 1.348 . S
C120 C123 1.356 . S
C120 O150 1.325 . S
N121 C124 1.314 . S
N121 C125 1.279 . S
C122 C120 1.348 . S
C122 C124 1.353 . S
C122 H164 0.929 . S
C123 C120 1.356 . S
C123 C125 1.358 . S
C123 H165 0.930 . S
C124 N121 1.314 . S
C124 C122 1.353 . S
C124 H166 0.930 . S
C125 N121 1.279 . S
C125 C123 1.358 . S
C125 H167 0.930 . S
C126 C127 1.348 . S
C126 C128 1.356 . S
C126 O151 1.325 . S
C127 C126 1.348 . S
C127 C129 1.353 . S
C127 H168 0.929 . S
C128 C126 1.356 . S
C128 C130 1.358 . S
C128 H169 0.930 . S
C129 C127 1.353 . S
C129 N131 1.314 . S
C129 H170 0.930 . S
C130 C128 1.358 . S
C130 N131 1.279 . S
C130 H171 0.930 . S
N131 C129 1.314 . S
N131 C130 1.279 . S
C132 C134 1.353 . S
C132 N135 1.314 . S
C132 H138 0.930 . S
C133 N135 1.279 . S
C133 C136 1.358 . S
C133 H139 0.930 . S
C134 C132 1.353 . S
C134 C137 1.348 . S
C134 H172 0.929 . S
N135 Li90 1.990 . S
N135 C132 1.314 . S
N135 C133 1.279 . S
C136 C133 1.358 . S
C136 C137 1.356 . S
C136 H173 0.930 . S
C137 C134 1.348 . S
C137 C136 1.356 . S
H138 C132 0.930 . S
H139 C133 0.930 . S
C140 N141 1.314 . S
C140 C142 1.353 . S
C140 H146 0.930 . S
N141 Li91 1.990 . S
N141 C140 1.314 . S
N141 C144 1.279 . S
C142 C140 1.353 . S
C142 C145 1.348 . S
C142 H174 0.929 . S
C143 C144 1.358 . S
C143 C145 1.356 . S
C143 H175 0.930 . S
C144 N141 1.279 . S
C144 C143 1.358 . S
C144 H147 0.930 . S
C145 C142 1.348 . S
C145 C143 1.356 . S
H146 C140 0.930 . S
H147 C144 0.930 . S
O148 Li88 1.956 . S
O148 Li89 1.970 . S
O148 Li90 1.961 . S
O148 C92 1.325 . S
O149 Li88 1.970 . S
O149 Li89 1.956 . S
O149 Li91 1.961 . S
O149 C98 1.325 . S
O150 Li88 1.961 . S
O150 Li90 1.956 . S
O150 Li91 1.970 . S
O150 C120 1.325 . S
O151 Li89 1.961 . S
O151 Li90 1.970 . S
O151 Li91 1.956 . S
O151 C126 1.325 . S
H152 C94 0.929 . S
H153 C95 0.930 . S
H154 C96 0.930 . S
H155 C97 0.930 . S
H156 C99 0.930 . S
H157 C101 0.929 . S
H158 C102 0.930 . S
H159 C103 0.930 . S
H160 C106 0.930 . S
H161 C109 0.929 . S
H162 C114 0.929 . S
H163 C115 0.930 . S
H164 C122 0.929 . S
H165 C123 0.930 . S
H166 C124 0.930 . S
H167 C125 0.930 . S
H168 C127 0.929 . S
H169 C128 0.930 . S
H170 C129 0.930 . S
H171 C130 0.930 . S
H172 C134 0.929 . S
H173 C136 0.930 . S
H174 C142 0.929 . S
H175 C143 0.930 . S
Li176 N193 1.990 . S
Li176 O236 1.956 . S
Li176 O237 1.970 . S
Li176 O238 1.961 . S
Li177 N201 1.990 . S
Li177 O236 1.970 . S
Li177 O237 1.956 . S
Li177 O239 1.961 . S
Li178 N223 1.990 . S
Li178 O236 1.961 . S
Li178 O238 1.956 . S
Li178 O239 1.970 . S
Li179 N229 1.990 . S
Li179 O237 1.961 . S
Li179 O238 1.970 . S
Li179 O239 1.956 . S
C180 C182 1.348 . S
C180 C183 1.356 . S
C180 O236 1.325 . S
N181 C184 1.314 . S
N181 C185 1.279 . S
C182 C180 1.348 . S
C182 C184 1.353 . S
C182 H240 0.929 . S
C183 C180 1.356 . S
C183 C185 1.358 . S
C183 H241 0.930 . S
C184 N181 1.314 . S
C184 C182 1.353 . S
C184 H242 0.930 . S
C185 N181 1.279 . S
C185 C183 1.358 . S
C185 H243 0.930 . S
C186 C189 1.348 . S
C186 C190 1.356 . S
C186 O237 1.325 . S
C187 N188 1.279 . S
C187 C190 1.358 . S
C187 H244 0.930 . S
N188 C187 1.279 . S
N188 C191 1.314 . S
C189 C186 1.348 . S
C189 C191 1.353 . S
C189 H245 0.929 . S
C190 C186 1.356 . S
C190 C187 1.358 . S
C190 H246 0.930 . S
C191 N188 1.314 . S
C191 C189 1.353 . S
C191 H247 0.930 . S
C192 N193 1.314 . S
C192 C197 1.353 . S
C192 H198 0.930 . S
N193 Li176 1.990 . S
N193 C192 1.314 . S
N193 C195 1.279 . S
C194 C195 1.358 . S
C194 C196 1.356 . S
C194 H248 0.930 . S
C195 N193 1.279 . S
C195 C194 1.358 . S
C195 H199 0.930 . S
C196 C194 1.356 . S
C196 C197 1.348 . S
C197 C192 1.353 . S
C197 C196 1.348 . S
C197 H249 0.929 . S
H198 C192 0.930 . S
H199 C195 0.930 . S
C200 N201 1.314 . S
C200 C202 1.353 . S
C200 H206 0.930 . S
N201 Li177 1.990 . S
N201 C200 1.314 . S
N201 C204 1.279 . S
C202 C200 1.353 . S
C202 C205 1.348 . S
C202 H250 0.929 . S
C203 C204 1.358 . S
C203 C205 1.356 . S
C203 H251 0.930 . S
C204 N201 1.279 . S
C204 C203 1.358 . S
C204 H207 0.930 . S
C205 C202 1.348 . S
C205 C203 1.356 . S
H206 C200 0.930 . S
H207 C204 0.930 . S
C208 C210 1.348 . S
C208 C211 1.356 . S
C208 O238 1.325 . S
N209 C212 1.314 . S
N209 C213 1.279 . S
C210 C208 1.348 . S
C210 C212 1.353 . S
C210 H252 0.929 . S
C211 C208 1.356 . S
C211 C213 1.358 . S
C211 H253 0.930 . S
C212 N209 1.314 . S
C212 C210 1.353 . S
C212 H254 0.930 . S
C213 N209 1.279 . S
C213 C211 1.358 . S
C213 H255 0.930 . S
C214 C215 1.348 . S
C214 C216 1.356 . S
C214 O239 1.325 . S
C215 C214 1.348 . S
C215 C217 1.353 . S
C215 H256 0.929 . S
C216 C214 1.356 . S
C216 C218 1.358 . S
C216 H257 0.930 . S
C217 C215 1.353 . S
C217 N219 1.314 . S
C217 H258 0.930 . S
C218 C216 1.358 . S
C218 N219 1.279 . S
C218 H259 0.930 . S
N219 C217 1.314 . S
N219 C218 1.279 . S
C220 C222 1.353 . S
C220 N223 1.314 . S
C220 H226 0.930 . S
C221 N223 1.279 . S
C221 C224 1.358 . S
C221 H227 0.930 . S
C222 C220 1.353 . S
C222 C225 1.348 . S
C222 H260 0.929 . S
N223 Li178 1.990 . S
N223 C220 1.314 . S
N223 C221 1.279 . S
C224 C221 1.358 . S
C224 C225 1.356 . S
C224 H261 0.930 . S
C225 C222 1.348 . S
C225 C224 1.356 . S
H226 C220 0.930 . S
H227 C221 0.930 . S
C228 N229 1.314 . S
C228 C230 1.353 . S
C228 H234 0.930 . S
N229 Li179 1.990 . S
N229 C228 1.314 . S
N229 C232 1.279 . S
C230 C228 1.353 . S
C230 C233 1.348 . S
C230 H262 0.929 . S
C231 C232 1.358 . S
C231 C233 1.356 . S
C231 H263 0.930 . S
C232 N229 1.279 . S
C232 C231 1.358 . S
C232 H235 0.930 . S
C233 C230 1.348 . S
C233 C231 1.356 . S
H234 C228 0.930 . S
H235 C232 0.930 . S
O236 Li176 1.956 . S
O236 Li177 1.970 . S
O236 Li178 1.961 . S
O236 C180 1.325 . S
O237 Li176 1.970 . S
O237 Li177 1.956 . S
O237 Li179 1.961 . S
O237 C186 1.325 . S
O238 Li176 1.961 . S
O238 Li178 1.956 . S
O238 Li179 1.970 . S
O238 C208 1.325 . S
O239 Li177 1.961 . S
O239 Li178 1.970 . S
O239 Li179 1.956 . S
O239 C214 1.325 . S
H240 C182 0.929 . S
H241 C183 0.930 . S
H242 C184 0.930 . S
H243 C185 0.930 . S
H244 C187 0.930 . S
H245 C189 0.929 . S
H246 C190 0.930 . S
H247 C191 0.930 . S
H248 C194 0.930 . S
H249 C197 0.929 . S
H250 C202 0.929 . S
H251 C203 0.930 . S
H252 C210 0.929 . S
H253 C211 0.930 . S
H254 C212 0.930 . S
H255 C213 0.930 . S
H256 C215 0.929 . S
H257 C216 0.930 . S
H258 C217 0.930 . S
H259 C218 0.930 . S
H260 C222 0.929 . S
H261 C224 0.930 . S
H262 C230 0.929 . S
H263 C231 0.930 . S
Li264 N281 1.990 . S
Li264 O324 1.956 . S
Li264 O325 1.970 . S
Li264 O326 1.961 . S
Li265 N289 1.990 . S
Li265 O324 1.970 . S
Li265 O325 1.956 . S
Li265 O327 1.961 . S
Li266 N311 1.990 . S
Li266 O324 1.961 . S
Li266 O326 1.956 . S
Li266 O327 1.970 . S
Li267 N317 1.990 . S
Li267 O325 1.961 . S
Li267 O326 1.970 . S
Li267 O327 1.956 . S
C268 C270 1.348 . S
C268 C271 1.356 . S
C268 O324 1.325 . S
N269 C272 1.314 . S
N269 C273 1.279 . S
C270 C268 1.348 . S
C270 C272 1.353 . S
C270 H328 0.929 . S
C271 C268 1.356 . S
C271 C273 1.358 . S
C271 H329 0.930 . S
C272 N269 1.314 . S
C272 C270 1.353 . S
C272 H330 0.930 . S
C273 N269 1.279 . S
C273 C271 1.358 . S
C273 H331 0.930 . S
C274 C277 1.348 . S
C274 C278 1.356 . S
C274 O325 1.325 . S
C275 N276 1.279 . S
C275 C278 1.358 . S
C275 H332 0.930 . S
N276 C275 1.279 . S
N276 C279 1.314 . S
C277 C274 1.348 . S
C277 C279 1.353 . S
C277 H333 0.929 . S
C278 C274 1.356 . S
C278 C275 1.358 . S
C278 H334 0.930 . S
C279 N276 1.314 . S
C279 C277 1.353 . S
C279 H335 0.930 . S
C280 N281 1.314 . S
C280 C285 1.353 . S
C280 H286 0.930 . S
N281 Li264 1.990 . S
N281 C280 1.314 . S
N281 C283 1.279 . S
C282 C283 1.358 . S
C282 C284 1.356 . S
C282 H336 0.930 . S
C283 N281 1.279 . S
C283 C282 1.358 . S
C283 H287 0.930 . S
C284 C282 1.356 . S
C284 C285 1.348 . S
C285 C280 1.353 . S
C285 C284 1.348 . S
C285 H337 0.929 . S
H286 C280 0.930 . S
H287 C283 0.930 . S
C288 N289 1.314 . S
C288 C290 1.353 . S
C288 H294 0.930 . S
N289 Li265 1.990 . S
N289 C288 1.314 . S
N289 C292 1.279 . S
C290 C288 1.353 . S
C290 C293 1.348 . S
C290 H338 0.929 . S
C291 C292 1.358 . S
C291 C293 1.356 . S
C291 H339 0.930 . S
C292 N289 1.279 . S
C292 C291 1.358 . S
C292 H295 0.930 . S
C293 C290 1.348 . S
C293 C291 1.356 . S
H294 C288 0.930 . S
H295 C292 0.930 . S
C296 C298 1.348 . S
C296 C299 1.356 . S
C296 O326 1.325 . S
N297 C300 1.314 . S
N297 C301 1.279 . S
C298 C296 1.348 . S
C298 C300 1.353 . S
C298 H340 0.929 . S
C299 C296 1.356 . S
C299 C301 1.358 . S
C299 H341 0.930 . S
C300 N297 1.314 . S
C300 C298 1.353 . S
C300 H342 0.930 . S
C301 N297 1.279 . S
C301 C299 1.358 . S
C301 H343 0.930 . S
C302 C303 1.348 . S
C302 C304 1.356 . S
C302 O327 1.325 . S
C303 C302 1.348 . S
C303 C305 1.353 . S
C303 H344 0.929 . S
C304 C302 1.356 . S
C304 C306 1.358 . S
C304 H345 0.930 . S
C305 C303 1.353 . S
C305 N307 1.314 . S
C305 H346 0.930 . S
C306 C304 1.358 . S
C306 N307 1.279 . S
C306 H347 0.930 . S
N307 C305 1.314 . S
N307 C306 1.279 . S
C308 C310 1.353 . S
C308 N311 1.314 . S
C308 H314 0.930 . S
C309 N311 1.279 . S
C309 C312 1.358 . S
C309 H315 0.930 . S
C310 C308 1.353 . S
C310 C313 1.348 . S
C310 H348 0.929 . S
N311 Li266 1.990 . S
N311 C308 1.314 . S
N311 C309 1.279 . S
C312 C309 1.358 . S
C312 C313 1.356 . S
C312 H349 0.930 . S
C313 C310 1.348 . S
C313 C312 1.356 . S
H314 C308 0.930 . S
H315 C309 0.930 . S
C316 N317 1.314 . S
C316 C318 1.353 . S
C316 H322 0.930 . S
N317 Li267 1.990 . S
N317 C316 1.314 . S
N317 C320 1.279 . S
C318 C316 1.353 . S
C318 C321 1.348 . S
C318 H350 0.929 . S
C319 C320 1.358 . S
C319 C321 1.356 . S
C319 H351 0.930 . S
C320 N317 1.279 . S
C320 C319 1.358 . S
C320 H323 0.930 . S
C321 C318 1.348 . S
C321 C319 1.356 . S
H322 C316 0.930 . S
H323 C320 0.930 . S
O324 Li264 1.956 . S
O324 Li265 1.970 . S
O324 Li266 1.961 . S
O324 C268 1.325 . S
O325 Li264 1.970 . S
O325 Li265 1.956 . S
O325 Li267 1.961 . S
O325 C274 1.325 . S
O326 Li264 1.961 . S
O326 Li266 1.956 . S
O326 Li267 1.970 . S
O326 C296 1.325 . S
O327 Li265 1.961 . S
O327 Li266 1.970 . S
O327 Li267 1.956 . S
O327 C302 1.325 . S
H328 C270 0.929 . S
H329 C271 0.930 . S
H330 C272 0.930 . S
H331 C273 0.930 . S
H332 C275 0.930 . S
H333 C277 0.929 . S
H334 C278 0.930 . S
H335 C279 0.930 . S
H336 C282 0.930 . S
H337 C285 0.929 . S
H338 C290 0.929 . S
H339 C291 0.930 . S
H340 C298 0.929 . S
H341 C299 0.930 . S
H342 C300 0.930 . S
H343 C301 0.930 . S
H344 C303 0.929 . S
H345 C304 0.930 . S
H346 C305 0.930 . S
H347 C306 0.930 . S
H348 C310 0.929 . S
H349 C312 0.930 . S
H350 C318 0.929 . S
H351 C319 0.930 . S
Li352 N369 1.990 . S
Li352 O412 1.956 . S
Li352 O413 1.970 . S
Li352 O414 1.961 . S
Li353 N377 1.990 . S
Li353 O412 1.970 . S
Li353 O413 1.956 . S
Li353 O415 1.961 . S
Li354 N399 1.990 . S
Li354 O412 1.961 . S
Li354 O414 1.956 . S
Li354 O415 1.970 . S
Li355 N405 1.990 . S
Li355 O413 1.961 . S
Li355 O414 1.970 . S
Li355 O415 1.956 . S
C356 C358 1.348 . S
C356 C359 1.356 . S
C356 O412 1.325 . S
N357 C360 1.314 . S
N357 C361 1.279 . S
C358 C356 1.348 . S
C358 C360 1.353 . S
C358 H416 0.929 . S
C359 C356 1.356 . S
C359 C361 1.358 . S
C359 H417 0.930 . S
C360 N357 1.314 . S
C360 C358 1.353 . S
C360 H418 0.930 . S
C361 N357 1.279 . S
C361 C359 1.358 . S
C361 H419 0.930 . S
C362 C365 1.348 . S
C362 C366 1.356 . S
C362 O413 1.325 . S
C363 N364 1.279 . S
C363 C366 1.358 . S
C363 H420 0.930 . S
N364 C363 1.279 . S
N364 C367 1.314 . S
C365 C362 1.348 . S
C365 C367 1.353 . S
C365 H421 0.929 . S
C366 C362 1.356 . S
C366 C363 1.358 . S
C366 H422 0.930 . S
C367 N364 1.314 . S
C367 C365 1.353 . S
C367 H423 0.930 . S
C368 N369 1.314 . S
C368 C373 1.353 . S
C368 H374 0.930 . S
N369 Li352 1.990 . S
N369 C368 1.314 . S
N369 C371 1.279 . S
C370 C371 1.358 . S
C370 C372 1.356 . S
C370 H424 0.930 . S
C371 N369 1.279 . S
C371 C370 1.358 . S
C371 H375 0.930 . S
C372 C370 1.356 . S
C372 C373 1.348 . S
C373 C368 1.353 . S
C373 C372 1.348 . S
C373 H425 0.929 . S
H374 C368 0.930 . S
H375 C371 0.930 . S
C376 N377 1.314 . S
C376 C378 1.353 . S
C376 H382 0.930 . S
N377 Li353 1.990 . S
N377 C376 1.314 . S
N377 C380 1.279 . S
C378 C376 1.353 . S
C378 C381 1.348 . S
C378 H426 0.929 . S
C379 C380 1.358 . S
C379 C381 1.356 . S
C379 H427 0.930 . S
C380 N377 1.279 . S
C380 C379 1.358 . S
C380 H383 0.930 . S
C381 C378 1.348 . S
C381 C379 1.356 . S
H382 C376 0.930 . S
H383 C380 0.930 . S
C384 C386 1.348 . S
C384 C387 1.356 . S
C384 O414 1.325 . S
N385 C388 1.314 . S
N385 C389 1.279 . S
C386 C384 1.348 . S
C386 C388 1.353 . S
C386 H428 0.929 . S
C387 C384 1.356 . S
C387 C389 1.358 . S
C387 H429 0.930 . S
C388 N385 1.314 . S
C388 C386 1.353 . S
C388 H430 0.930 . S
C389 N385 1.279 . S
C389 C387 1.358 . S
C389 H431 0.930 . S
C390 C391 1.348 . S
C390 C392 1.356 . S
C390 O415 1.325 . S
C391 C390 1.348 . S
C391 C393 1.353 . S
C391 H432 0.929 . S
C392 C390 1.356 . S
C392 C394 1.358 . S
C392 H433 0.930 . S
C393 C391 1.353 . S
C393 N395 1.314 . S
C393 H434 0.930 . S
C394 C392 1.358 . S
C394 N395 1.279 . S
C394 H435 0.930 . S
N395 C393 1.314 . S
N395 C394 1.279 . S
C396 C398 1.353 . S
C396 N399 1.314 . S
C396 H402 0.930 . S
C397 N399 1.279 . S
C397 C400 1.358 . S
C397 H403 0.930 . S
C398 C396 1.353 . S
C398 C401 1.348 . S
C398 H436 0.929 . S
N399 Li354 1.990 . S
N399 C396 1.314 . S
N399 C397 1.279 . S
C400 C397 1.358 . S
C400 C401 1.356 . S
C400 H437 0.930 . S
C401 C398 1.348 . S
C401 C400 1.356 . S
H402 C396 0.930 . S
H403 C397 0.930 . S
C404 N405 1.314 . S
C404 C406 1.353 . S
C404 H410 0.930 . S
N405 Li355 1.990 . S
N405 C404 1.314 . S
N405 C408 1.279 . S
C406 C404 1.353 . S
C406 C409 1.348 . S
C406 H438 0.929 . S
C407 C408 1.358 . S
C407 C409 1.356 . S
C407 H439 0.930 . S
C408 N405 1.279 . S
C408 C407 1.358 . S
C408 H411 0.930 . S
C409 C406 1.348 . S
C409 C407 1.356 . S
H410 C404 0.930 . S
H411 C408 0.930 . S
O412 Li352 1.956 . S
O412 Li353 1.970 . S
O412 Li354 1.961 . S
O412 C356 1.325 . S
O413 Li352 1.970 . S
O413 Li353 1.956 . S
O413 Li355 1.961 . S
O413 C362 1.325 . S
O414 Li352 1.961 . S
O414 Li354 1.956 . S
O414 Li355 1.970 . S
O414 C384 1.325 . S
O415 Li353 1.961 . S
O415 Li354 1.970 . S
O415 Li355 1.956 . S
O415 C390 1.325 . S
H416 C358 0.929 . S
H417 C359 0.930 . S
H418 C360 0.930 . S
H419 C361 0.930 . S
H420 C363 0.930 . S
H421 C365 0.929 . S
H422 C366 0.930 . S
H423 C367 0.930 . S
H424 C370 0.930 . S
H425 C373 0.929 . S
H426 C378 0.929 . S
H427 C379 0.930 . S
H428 C386 0.929 . S
H429 C387 0.930 . S
H430 C388 0.930 . S
H431 C389 0.930 . S
H432 C391 0.929 . S
H433 C392 0.930 . S
H434 C393 0.930 . S
H435 C394 0.930 . S
H436 C398 0.929 . S
H437 C400 0.930 . S
H438 C406 0.929 . S
H439 C407 0.930 . S
Li440 N457 1.990 . S
Li440 O500 1.956 . S
Li440 O501 1.970 . S
Li440 O502 1.961 . S
Li441 N465 1.990 . S
Li441 O500 1.970 . S
Li441 O501 1.956 . S
Li441 O503 1.961 . S
Li442 N487 1.990 1_556 S
Li442 O500 1.961 . S
Li442 O502 1.956 . S
Li442 O503 1.970 . S
Li443 N493 1.990 . S
Li443 O501 1.961 . S
Li443 O502 1.970 . S
Li443 O503 1.956 . S
C444 C446 1.348 . S
C444 C447 1.356 . S
C444 O500 1.325 . S
N445 C448 1.314 . S
N445 C449 1.279 . S
C446 C444 1.348 . S
C446 C448 1.353 . S
C446 H504 0.929 . S
C447 C444 1.356 . S
C447 C449 1.358 . S
C447 H505 0.930 . S
C448 N445 1.314 . S
C448 C446 1.353 . S
C448 H506 0.930 . S
C449 N445 1.279 . S
C449 C447 1.358 . S
C449 H507 0.930 . S
C450 C453 1.348 . S
C450 C454 1.356 . S
C450 O501 1.325 . S
C451 N452 1.279 . S
C451 C454 1.358 . S
C451 H508 0.930 . S
N452 C451 1.279 . S
N452 C455 1.314 . S
C453 C450 1.348 . S
C453 C455 1.353 . S
C453 H509 0.929 . S
C454 C450 1.356 . S
C454 C451 1.358 . S
C454 H510 0.930 . S
C455 N452 1.314 . S
C455 C453 1.353 . S
C455 H511 0.930 . S
C456 N457 1.314 . S
C456 C461 1.353 . S
C456 H462 0.930 . S
N457 Li440 1.990 . S
N457 C456 1.314 . S
N457 C459 1.279 . S
C458 C459 1.358 . S
C458 C460 1.356 . S
C458 H512 0.930 . S
C459 N457 1.279 . S
C459 C458 1.358 . S
C459 H463 0.930 . S
C460 C458 1.356 . S
C460 C461 1.348 . S
C461 C456 1.353 . S
C461 C460 1.348 . S
C461 H513 0.929 . S
H462 C456 0.930 . S
H463 C459 0.930 . S
C464 N465 1.314 . S
C464 C466 1.353 . S
C464 H470 0.930 . S
N465 Li441 1.990 . S
N465 C464 1.314 . S
N465 C468 1.279 . S
C466 C464 1.353 . S
C466 C469 1.348 . S
C466 H514 0.929 . S
C467 C468 1.358 . S
C467 C469 1.356 . S
C467 H515 0.930 . S
C468 N465 1.279 . S
C468 C467 1.358 . S
C468 H471 0.930 . S
C469 C466 1.348 . S
C469 C467 1.356 . S
H470 C464 0.930 . S
H471 C468 0.930 . S
C472 C474 1.348 . S
C472 C475 1.356 . S
C472 O502 1.325 . S
N473 C476 1.314 . S
N473 C477 1.279 . S
C474 C472 1.348 . S
C474 C476 1.353 . S
C474 H516 0.929 . S
C475 C472 1.356 . S
C475 C477 1.358 . S
C475 H517 0.930 . S
C476 N473 1.314 . S
C476 C474 1.353 . S
C476 H518 0.930 . S
C477 N473 1.279 . S
C477 C475 1.358 . S
C477 H519 0.930 . S
C478 C479 1.348 1_556 S
C478 C480 1.356 . S
C478 O503 1.325 . S
C479 C478 1.348 1_554 S
C479 C481 1.353 . S
C479 H520 0.929 . S
C480 C478 1.356 . S
C480 C482 1.358 1_556 S
C480 H521 0.930 . S
C481 C479 1.353 . S
C481 N483 1.314 . S
C481 H522 0.930 . S
C482 C480 1.358 1_554 S
C482 N483 1.279 . S
C482 H523 0.930 . S
N483 C481 1.314 . S
N483 C482 1.279 . S
C484 C486 1.353 . S
C484 N487 1.314 . S
C484 H490 0.930 . S
C485 N487 1.279 . S
C485 C488 1.358 . S
C485 H491 0.930 1_554 S
C486 C484 1.353 . S
C486 C489 1.348 . S
C486 H524 0.929 . S
N487 Li442 1.990 1_554 S
N487 C484 1.314 . S
N487 C485 1.279 . S
C488 C485 1.358 . S
C488 C489 1.356 . S
C488 H525 0.930 . S
C489 C486 1.348 . S
C489 C488 1.356 . S
H490 C484 0.930 . S
H491 C485 0.930 1_556 S
C492 N493 1.314 . S
C492 C494 1.353 . S
C492 H498 0.930 . S
N493 Li443 1.990 . S
N493 C492 1.314 . S
N493 C496 1.279 . S
C494 C492 1.353 . S
C494 C497 1.348 . S
C494 H526 0.929 . S
C495 C496 1.358 . S
C495 C497 1.356 . S
C495 H527 0.930 . S
C496 N493 1.279 . S
C496 C495 1.358 . S
C496 H499 0.930 . S
C497 C494 1.348 . S
C497 C495 1.356 . S
H498 C492 0.930 . S
H499 C496 0.930 . S
O500 Li440 1.956 . S
O500 Li441 1.970 . S
O500 Li442 1.961 . S
O500 C444 1.325 . S
O501 Li440 1.970 . S
O501 Li441 1.956 . S
O501 Li443 1.961 . S
O501 C450 1.325 . S
O502 Li440 1.961 . S
O502 Li442 1.956 . S
O502 Li443 1.970 . S
O502 C472 1.325 . S
O503 Li441 1.961 . S
O503 Li442 1.970 . S
O503 Li443 1.956 . S
O503 C478 1.325 . S
H504 C446 0.929 . S
H505 C447 0.930 . S
H506 C448 0.930 . S
H507 C449 0.930 . S
H508 C451 0.930 . S
H509 C453 0.929 . S
H510 C454 0.930 . S
H511 C455 0.930 . S
H512 C458 0.930 . S
H513 C461 0.929 . S
H514 C466 0.929 . S
H515 C467 0.930 . S
H516 C474 0.929 . S
H517 C475 0.930 . S
H518 C476 0.930 . S
H519 C477 0.930 . S
H520 C479 0.929 . S
H521 C480 0.930 . S
H522 C481 0.930 . S
H523 C482 0.930 . S
H524 C486 0.929 . S
H525 C488 0.930 . S
H526 C494 0.929 . S
H527 C495 0.930 . S
Li528 N545 1.990 . S
Li528 O588 1.956 . S
Li528 O589 1.970 . S
Li528 O590 1.961 . S
Li529 N553 1.990 . S
Li529 O588 1.970 . S
Li529 O589 1.956 . S
Li529 O591 1.961 . S
Li530 N575 1.990 . S
Li530 O588 1.961 . S
Li530 O590 1.956 . S
Li530 O591 1.970 . S
Li531 N581 1.990 . S
Li531 O589 1.961 . S
Li531 O590 1.970 . S
Li531 O591 1.956 . S
C532 C534 1.348 1_556 S
C532 C535 1.356 . S
C532 O588 1.325 . S
N533 C536 1.314 . S
N533 C537 1.279 . S
C534 C532 1.348 1_554 S
C534 C536 1.353 . S
C534 H592 0.929 . S
C535 C532 1.356 . S
C535 C537 1.358 1_556 S
C535 H593 0.930 . S
C536 N533 1.314 . S
C536 C534 1.353 . S
C536 H594 0.930 . S
C537 N533 1.279 . S
C537 C535 1.358 1_554 S
C537 H595 0.930 . S
C538 C541 1.348 . S
C538 C542 1.356 . S
C538 O589 1.325 . S
C539 N540 1.279 . S
C539 C542 1.358 . S
C539 H596 0.930 . S
N540 C539 1.279 . S
N540 C543 1.314 . S
C541 C538 1.348 . S
C541 C543 1.353 . S
C541 H597 0.929 . S
C542 C538 1.356 . S
C542 C539 1.358 . S
C542 H598 0.930 . S
C543 N540 1.314 . S
C543 C541 1.353 . S
C543 H599 0.930 . S
C544 N545 1.314 . S
C544 C549 1.353 . S
C544 H550 0.930 . S
N545 Li528 1.990 . S
N545 C544 1.314 . S
N545 C547 1.279 . S
C546 C547 1.358 . S
C546 C548 1.356 . S
C546 H600 0.930 . S
C547 N545 1.279 . S
C547 C546 1.358 . S
C547 H551 0.930 . S
C548 C546 1.356 . S
C548 C549 1.348 . S
C549 C544 1.353 . S
C549 C548 1.348 . S
C549 H601 0.929 . S
H550 C544 0.930 . S
H551 C547 0.930 . S
C552 N553 1.314 1_554 S
C552 C554 1.353 . S
C552 H558 0.930 . S
N553 Li529 1.990 . S
N553 C552 1.314 1_556 S
N553 C556 1.279 1_556 S
C554 C552 1.353 . S
C554 C557 1.348 . S
C554 H602 0.929 . S
C555 C556 1.358 . S
C555 C557 1.356 . S
C555 H603 0.930 . S
C556 N553 1.279 1_554 S
C556 C555 1.358 . S
C556 H559 0.930 1_554 S
C557 C554 1.348 . S
C557 C555 1.356 . S
H558 C552 0.930 . S
H559 C556 0.930 1_556 S
C560 C562 1.348 . S
C560 C563 1.356 . S
C560 O590 1.325 . S
N561 C564 1.314 . S
N561 C565 1.279 . S
C562 C560 1.348 . S
C562 C564 1.353 . S
C562 H604 0.929 . S
C563 C560 1.356 . S
C563 C565 1.358 . S
C563 H605 0.930 . S
C564 N561 1.314 . S
C564 C562 1.353 . S
C564 H606 0.930 . S
C565 N561 1.279 . S
C565 C563 1.358 . S
C565 H607 0.930 . S
C566 C567 1.348 . S
C566 C568 1.356 . S
C566 O591 1.325 . S
C567 C566 1.348 . S
C567 C569 1.353 . S
C567 H608 0.929 . S
C568 C566 1.356 . S
C568 C570 1.358 . S
C568 H609 0.930 . S
C569 C567 1.353 . S
C569 N571 1.314 . S
C569 H610 0.930 . S
C570 C568 1.358 . S
C570 N571 1.279 . S
C570 H611 0.930 . S
N571 C569 1.314 . S
N571 C570 1.279 . S
C572 C574 1.353 . S
C572 N575 1.314 . S
C572 H578 0.930 . S
C573 N575 1.279 . S
C573 C576 1.358 . S
C573 H579 0.930 . S
C574 C572 1.353 . S
C574 C577 1.348 . S
C574 H612 0.929 . S
N575 Li530 1.990 . S
N575 C572 1.314 . S
N575 C573 1.279 . S
C576 C573 1.358 . S
C576 C577 1.356 . S
C576 H613 0.930 . S
C577 C574 1.348 . S
C577 C576 1.356 . S
H578 C572 0.930 . S
H579 C573 0.930 . S
C580 N581 1.314 . S
C580 C582 1.353 . S
C580 H586 0.930 . S
N581 Li531 1.990 . S
N581 C580 1.314 . S
N581 C584 1.279 . S
C582 C580 1.353 . S
C582 C585 1.348 . S
C582 H614 0.929 . S
C583 C584 1.358 . S
C583 C585 1.356 . S
C583 H615 0.930 . S
C584 N581 1.279 . S
C584 C583 1.358 . S
C584 H587 0.930 . S
C585 C582 1.348 . S
C585 C583 1.356 . S
H586 C580 0.930 . S
H587 C584 0.930 . S
O588 Li528 1.956 . S
O588 Li529 1.970 . S
O588 Li530 1.961 . S
O588 C532 1.325 . S
O589 Li528 1.970 . S
O589 Li529 1.956 . S
O589 Li531 1.961 . S
O589 C538 1.325 . S
O590 Li528 1.961 . S
O590 Li530 1.956 . S
O590 Li531 1.970 . S
O590 C560 1.325 . S
O591 Li529 1.961 . S
O591 Li530 1.970 . S
O591 Li531 1.956 . S
O591 C566 1.325 . S
H592 C534 0.929 . S
H593 C535 0.930 . S
H594 C536 0.930 . S
H595 C537 0.930 . S
H596 C539 0.930 . S
H597 C541 0.929 . S
H598 C542 0.930 . S
H599 C543 0.930 . S
H600 C546 0.930 . S
H601 C549 0.929 . S
H602 C554 0.929 . S
H603 C555 0.930 . S
H604 C562 0.929 . S
H605 C563 0.930 . S
H606 C564 0.930 . S
H607 C565 0.930 . S
H608 C567 0.929 . S
H609 C568 0.930 . S
H610 C569 0.930 . S
H611 C570 0.930 . S
H612 C574 0.929 . S
H613 C576 0.930 . S
H614 C582 0.929 . S
H615 C583 0.930 . S
Li616 N633 1.990 . S
Li616 O676 1.956 . S
Li616 O677 1.970 . S
Li616 O678 1.961 . S
Li617 N641 1.990 . S
Li617 O676 1.970 . S
Li617 O677 1.956 . S
Li617 O679 1.961 . S
Li618 N663 1.990 . S
Li618 O676 1.961 . S
Li618 O678 1.956 . S
Li618 O679 1.970 . S
Li619 N669 1.990 1_554 S
Li619 O677 1.961 . S
Li619 O678 1.970 . S
Li619 O679 1.956 . S
C620 C622 1.348 . S
C620 C623 1.356 . S
C620 O676 1.325 . S
N621 C624 1.314 . S
N621 C625 1.279 . S
C622 C620 1.348 . S
C622 C624 1.353 . S
C622 H680 0.929 . S
C623 C620 1.356 . S
C623 C625 1.358 . S
C623 H681 0.930 . S
C624 N621 1.314 . S
C624 C622 1.353 . S
C624 H682 0.930 . S
C625 N621 1.279 . S
C625 C623 1.358 . S
C625 H683 0.930 . S
C626 C629 1.348 . S
C626 C630 1.356 . S
C626 O677 1.325 . S
C627 N628 1.279 . S
C627 C630 1.358 . S
C627 H684 0.930 . S
N628 C627 1.279 . S
N628 C631 1.314 . S
C629 C626 1.348 . S
C629 C631 1.353 . S
C629 H685 0.929 . S
C630 C626 1.356 . S
C630 C627 1.358 . S
C630 H686 0.930 . S
C631 N628 1.314 . S
C631 C629 1.353 . S
C631 H687 0.930 . S
C632 N633 1.314 . S
C632 C637 1.353 . S
C632 H638 0.930 1_554 S
N633 Li616 1.990 . S
N633 C632 1.314 . S
N633 C635 1.279 . S
C634 C635 1.358 . S
C634 C636 1.356 . S
C634 H688 0.930 . S
C635 N633 1.279 . S
C635 C634 1.358 . S
C635 H639 0.930 . S
C636 C634 1.356 . S
C636 C637 1.348 . S
C637 C632 1.353 . S
C637 C636 1.348 . S
C637 H689 0.929 1_554 S
H638 C632 0.930 1_556 S
H639 C635 0.930 . S
C640 N641 1.314 . S
C640 C642 1.353 . S
C640 H646 0.930 . S
N641 Li617 1.990 . S
N641 C640 1.314 . S
N641 C644 1.279 . S
C642 C640 1.353 . S
C642 C645 1.348 . S
C642 H690 0.929 . S
C643 C644 1.358 . S
C643 C645 1.356 . S
C643 H691 0.930 . S
C644 N641 1.279 . S
C644 C643 1.358 . S
C644 H647 0.930 . S
C645 C642 1.348 . S
C645 C643 1.356 . S
H646 C640 0.930 . S
H647 C644 0.930 . S
C648 C650 1.348 . S
C648 C651 1.356 . S
C648 O678 1.325 1_556 S
N649 C652 1.314 . S
N649 C653 1.279 . S
C650 C648 1.348 . S
C650 C652 1.353 . S
C650 H692 0.929 . S
C651 C648 1.356 . S
C651 C653 1.358 . S
C651 H693 0.942 . S
C652 N649 1.314 . S
C652 C650 1.353 . S
C652 H694 0.930 . S
C653 N649 1.279 . S
C653 C651 1.358 . S
C653 H695 0.930 . S
C654 C655 1.348 . S
C654 C656 1.356 . S
C654 O679 1.325 . S
C655 C654 1.348 . S
C655 C657 1.353 . S
C655 H696 0.929 . S
C656 C654 1.356 . S
C656 C658 1.358 . S
C656 H697 0.930 . S
C657 C655 1.353 . S
C657 N659 1.314 . S
C657 H698 0.930 . S
C658 C656 1.358 . S
C658 N659 1.279 . S
C658 H699 0.930 . S
N659 C657 1.314 . S
N659 C658 1.279 . S
C660 C662 1.353 . S
C660 N663 1.314 . S
C660 H666 0.930 . S
C661 N663 1.279 . S
C661 C664 1.358 . S
C661 H667 0.948 . S
C662 C660 1.353 . S
C662 C665 1.348 . S
C662 H700 0.929 . S
N663 Li618 1.990 . S
N663 C660 1.314 . S
N663 C661 1.279 . S
C664 C661 1.358 . S
C664 C665 1.356 . S
C664 H701 0.930 . S
C665 C662 1.348 . S
C665 C664 1.356 . S
H666 C660 0.930 . S
H667 C661 0.948 . S
C668 N669 1.314 . S
C668 C670 1.353 . S
C668 H674 0.930 . S
N669 Li619 1.990 1_556 S
N669 C668 1.314 . S
N669 C672 1.279 . S
C670 C668 1.353 . S
C670 C673 1.348 . S
C670 H702 0.929 . S
C671 C672 1.358 . S
C671 C673 1.356 . S
C671 H703 0.930 . S
C672 N669 1.279 . S
C672 C671 1.358 . S
C672 H675 0.930 . S
C673 C670 1.348 . S
C673 C671 1.356 . S
H674 C668 0.930 . S
H675 C672 0.930 . S
O676 Li616 1.956 . S
O676 Li617 1.970 . S
O676 Li618 1.961 . S
O676 C620 1.325 . S
O677 Li616 1.970 . S
O677 Li617 1.956 . S
O677 Li619 1.961 . S
O677 C626 1.325 . S
O678 Li616 1.961 . S
O678 Li618 1.956 . S
O678 Li619 1.970 . S
O678 C648 1.325 1_554 S
O679 Li617 1.961 . S
O679 Li618 1.970 . S
O679 Li619 1.956 . S
O679 C654 1.325 . S
H680 C622 0.929 . S
H681 C623 0.930 . S
H682 C624 0.930 . S
H683 C625 0.930 . S
H684 C627 0.930 . S
H685 C629 0.929 . S
H686 C630 0.930 . S
H687 C631 0.930 . S
H688 C634 0.930 . S
H689 C637 0.929 1_556 S
H690 C642 0.929 . S
H691 C643 0.930 . S
H692 C650 0.929 . S
H693 C651 0.942 . S
H694 C652 0.930 . S
H695 C653 0.930 . S
H696 C655 0.929 . S
H697 C656 0.930 . S
H698 C657 0.930 . S
H699 C658 0.930 . S
H700 C662 0.929 . S
H701 C664 0.930 . S
H702 C670 0.929 . S
H703 C671 0.930 . S
Li704 N721 1.990 . S
Li704 O764 1.956 . S
Li704 O765 1.970 . S
Li704 O766 1.961 . S
Li705 N729 1.990 . S
Li705 O764 1.970 . S
Li705 O765 1.956 . S
Li705 O767 1.961 . S
Li706 N751 1.990 . S
Li706 O764 1.961 . S
Li706 O766 1.956 . S
Li706 O767 1.970 . S
Li707 N757 1.990 . S
Li707 O765 1.961 . S
Li707 O766 1.970 . S
Li707 O767 1.956 . S
C708 C710 1.348 . S
C708 C711 1.356 . S
C708 O764 1.325 . S
N709 C712 1.314 . S
N709 C713 1.279 . S
C710 C708 1.348 . S
C710 C712 1.353 . S
C710 H768 0.929 . S
C711 C708 1.356 . S
C711 C713 1.358 . S
C711 H769 0.930 . S
C712 N709 1.314 . S
C712 C710 1.353 . S
C712 H770 0.930 . S
C713 N709 1.279 . S
C713 C711 1.358 . S
C713 H771 0.930 . S
C714 C717 1.348 . S
C714 C718 1.356 . S
C714 O765 1.325 . S
C715 N716 1.279 . S
C715 C718 1.358 . S
C715 H772 0.930 . S
N716 C715 1.279 . S
N716 C719 1.314 . S
C717 C714 1.348 . S
C717 C719 1.353 . S
C717 H773 0.929 . S
C718 C714 1.356 . S
C718 C715 1.358 . S
C718 H774 0.930 . S
C719 N716 1.314 . S
C719 C717 1.353 . S
C719 H775 0.930 . S
C720 N721 1.314 . S
C720 C725 1.353 . S
C720 H726 0.930 . S
N721 Li704 1.990 . S
N721 C720 1.314 . S
N721 C723 1.279 . S
C722 C723 1.358 . S
C722 C724 1.356 . S
C722 H776 0.930 . S
C723 N721 1.279 . S
C723 C722 1.358 . S
C723 H727 0.930 . S
C724 C722 1.356 . S
C724 C725 1.348 . S
C725 C720 1.353 . S
C725 C724 1.348 . S
C725 H777 0.929 . S
H726 C720 0.930 . S
H727 C723 0.930 . S
C728 N729 1.314 . S
C728 C730 1.353 . S
C728 H734 0.930 . S
N729 Li705 1.990 . S
N729 C728 1.314 . S
N729 C732 1.279 . S
C730 C728 1.353 . S
C730 C733 1.348 . S
C730 H778 0.929 . S
C731 C732 1.358 . S
C731 C733 1.356 . S
C731 H779 0.930 . S
C732 N729 1.279 . S
C732 C731 1.358 . S
C732 H735 0.930 . S
C733 C730 1.348 . S
C733 C731 1.356 . S
H734 C728 0.930 . S
H735 C732 0.930 . S
C736 C738 1.348 . S
C736 C739 1.356 . S
C736 O766 1.325 . S
N737 C740 1.314 . S
N737 C741 1.279 . S
C738 C736 1.348 . S
C738 C740 1.353 . S
C738 H780 0.929 . S
C739 C736 1.356 . S
C739 C741 1.358 . S
C739 H781 0.930 . S
C740 N737 1.314 . S
C740 C738 1.353 . S
C740 H782 0.930 . S
C741 N737 1.279 . S
C741 C739 1.358 . S
C741 H783 0.930 . S
C742 C743 1.348 . S
C742 C744 1.356 . S
C742 O767 1.325 . S
C743 C742 1.348 . S
C743 C745 1.353 . S
C743 H784 0.929 . S
C744 C742 1.356 . S
C744 C746 1.358 . S
C744 H785 0.930 . S
C745 C743 1.353 . S
C745 N747 1.314 . S
C745 H786 0.930 . S
C746 C744 1.358 . S
C746 N747 1.279 . S
C746 H787 0.930 . S
N747 C745 1.314 . S
N747 C746 1.279 . S
C748 C750 1.353 . S
C748 N751 1.314 . S
C748 H754 0.930 . S
C749 N751 1.279 . S
C749 C752 1.358 . S
C749 H755 0.930 . S
C750 C748 1.353 . S
C750 C753 1.348 . S
C750 H788 0.929 . S
N751 Li706 1.990 . S
N751 C748 1.314 . S
N751 C749 1.279 . S
C752 C749 1.358 . S
C752 C753 1.356 . S
C752 H789 0.930 . S
C753 C750 1.348 . S
C753 C752 1.356 . S
H754 C748 0.930 . S
H755 C749 0.930 . S
C756 N757 1.314 . S
C756 C758 1.353 . S
C756 H762 0.930 . S
N757 Li707 1.990 . S
N757 C756 1.314 . S
N757 C760 1.279 . S
C758 C756 1.353 . S
C758 C761 1.348 . S
C758 H790 0.929 . S
C759 C760 1.358 . S
C759 C761 1.356 . S
C759 H791 0.930 . S
C760 N757 1.279 . S
C760 C759 1.358 . S
C760 H763 0.930 . S
C761 C758 1.348 . S
C761 C759 1.356 . S
H762 C756 0.930 . S
H763 C760 0.930 . S
O764 Li704 1.956 . S
O764 Li705 1.970 . S
O764 Li706 1.961 . S
O764 C708 1.325 . S
O765 Li704 1.970 . S
O765 Li705 1.956 . S
O765 Li707 1.961 . S
O765 C714 1.325 . S
O766 Li704 1.961 . S
O766 Li706 1.956 . S
O766 Li707 1.970 . S
O766 C736 1.325 . S
O767 Li705 1.961 . S
O767 Li706 1.970 . S
O767 Li707 1.956 . S
O767 C742 1.325 . S
H768 C710 0.929 . S
H769 C711 0.930 . S
H770 C712 0.930 . S
H771 C713 0.930 . S
H772 C715 0.930 . S
H773 C717 0.929 . S
H774 C718 0.930 . S
H775 C719 0.930 . S
H776 C722 0.930 . S
H777 C725 0.929 . S
H778 C730 0.929 . S
H779 C731 0.930 . S
H780 C738 0.929 . S
H781 C739 0.930 . S
H782 C740 0.930 . S
H783 C741 0.930 . S
H784 C743 0.929 . S
H785 C744 0.930 . S
H786 C745 0.930 . S
H787 C746 0.930 . S
H788 C750 0.929 . S
H789 C752 0.930 . S
H790 C758 0.929 . S
H791 C759 0.930 . S
Li792 N809 1.990 . S
Li792 O852 1.956 . S
Li792 O853 1.970 . S
Li792 O854 1.961 . S
Li793 N817 1.990 . S
Li793 O852 1.970 . S
Li793 O853 1.956 . S
Li793 O855 1.961 . S
Li794 N839 1.990 . S
Li794 O852 1.961 . S
Li794 O854 1.956 . S
Li794 O855 1.970 . S
Li795 N845 1.990 . S
Li795 O853 1.961 . S
Li795 O854 1.970 . S
Li795 O855 1.956 . S
C796 C798 1.348 . S
C796 C799 1.356 . S
C796 O852 1.325 . S
N797 C800 1.314 . S
N797 C801 1.279 . S
C798 C796 1.348 . S
C798 C800 1.353 . S
C798 H856 0.929 . S
C799 C796 1.356 . S
C799 C801 1.358 . S
C799 H857 0.930 . S
C800 N797 1.314 . S
C800 C798 1.353 . S
C800 H858 0.930 . S
C801 N797 1.279 . S
C801 C799 1.358 . S
C801 H859 0.930 . S
C802 C805 1.348 . S
C802 C806 1.356 . S
C802 O853 1.325 . S
C803 N804 1.279 . S
C803 C806 1.358 . S
C803 H860 0.930 . S
N804 C803 1.279 . S
N804 C807 1.314 . S
C805 C802 1.348 . S
C805 C807 1.353 . S
C805 H861 0.929 . S
C806 C802 1.356 . S
C806 C803 1.358 . S
C806 H862 0.930 . S
C807 N804 1.314 . S
C807 C805 1.353 . S
C807 H863 0.930 . S
C808 N809 1.314 . S
C808 C813 1.353 . S
C808 H814 0.930 . S
N809 Li792 1.990 . S
N809 C808 1.314 . S
N809 C811 1.279 . S
C810 C811 1.358 . S
C810 C812 1.356 . S
C810 H864 0.930 . S
C811 N809 1.279 . S
C811 C810 1.358 . S
C811 H815 0.930 . S
C812 C810 1.356 . S
C812 C813 1.348 . S
C813 C808 1.353 . S
C813 C812 1.348 . S
C813 H865 0.929 . S
H814 C808 0.930 . S
H815 C811 0.930 . S
C816 N817 1.314 . S
C816 C818 1.353 . S
C816 H822 0.930 . S
N817 Li793 1.990 . S
N817 C816 1.314 . S
N817 C820 1.279 . S
C818 C816 1.353 . S
C818 C821 1.348 . S
C818 H866 0.929 . S
C819 C820 1.358 . S
C819 C821 1.356 . S
C819 H867 0.930 . S
C820 N817 1.279 . S
C820 C819 1.358 . S
C820 H823 0.930 . S
C821 C818 1.348 . S
C821 C819 1.356 . S
H822 C816 0.930 . S
H823 C820 0.930 . S
C824 C826 1.348 . S
C824 C827 1.356 . S
C824 O854 1.325 . S
N825 C828 1.314 . S
N825 C829 1.279 . S
C826 C824 1.348 . S
C826 C828 1.353 . S
C826 H868 0.929 . S
C827 C824 1.356 . S
C827 C829 1.358 . S
C827 H869 0.930 . S
C828 N825 1.314 . S
C828 C826 1.353 . S
C828 H870 0.930 . S
C829 N825 1.279 . S
C829 C827 1.358 . S
C829 H871 0.930 . S
C830 C831 1.348 . S
C830 C832 1.356 . S
C830 O855 1.325 . S
C831 C830 1.348 . S
C831 C833 1.353 . S
C831 H872 0.929 . S
C832 C830 1.356 . S
C832 C834 1.358 . S
C832 H873 0.930 . S
C833 C831 1.353 . S
C833 N835 1.314 . S
C833 H874 0.930 . S
C834 C832 1.358 . S
C834 N835 1.279 . S
C834 H875 0.930 . S
N835 C833 1.314 . S
N835 C834 1.279 . S
C836 C838 1.353 . S
C836 N839 1.314 . S
C836 H842 0.930 . S
C837 N839 1.279 . S
C837 C840 1.358 . S
C837 H843 0.930 . S
C838 C836 1.353 . S
C838 C841 1.348 . S
C838 H876 0.929 . S
N839 Li794 1.990 . S
N839 C836 1.314 . S
N839 C837 1.279 . S
C840 C837 1.358 . S
C840 C841 1.356 . S
C840 H877 0.930 . S
C841 C838 1.348 . S
C841 C840 1.356 . S
H842 C836 0.930 . S
H843 C837 0.930 . S
C844 N845 1.314 . S
C844 C846 1.353 . S
C844 H850 0.930 . S
N845 Li795 1.990 . S
N845 C844 1.314 . S
N845 C848 1.279 . S
C846 C844 1.353 . S
C846 C849 1.348 . S
C846 H878 0.929 . S
C847 C848 1.358 . S
C847 C849 1.356 . S
C847 H879 0.930 . S
C848 N845 1.279 . S
C848 C847 1.358 . S
C848 H851 0.930 . S
C849 C846 1.348 . S
C849 C847 1.356 . S
H850 C844 0.930 . S
H851 C848 0.930 . S
O852 Li792 1.956 . S
O852 Li793 1.970 . S
O852 Li794 1.961 . S
O852 C796 1.325 . S
O853 Li792 1.970 . S
O853 Li793 1.956 . S
O853 Li795 1.961 . S
O853 C802 1.325 . S
O854 Li792 1.961 . S
O854 Li794 1.956 . S
O854 Li795 1.970 . S
O854 C824 1.325 . S
O855 Li793 1.961 . S
O855 Li794 1.970 . S
O855 Li795 1.956 . S
O855 C830 1.325 . S
H856 C798 0.929 . S
H857 C799 0.930 . S
H858 C800 0.930 . S
H859 C801 0.930 . S
H860 C803 0.930 . S
H861 C805 0.929 . S
H862 C806 0.930 . S
H863 C807 0.930 . S
H864 C810 0.930 . S
H865 C813 0.929 . S
H866 C818 0.929 . S
H867 C819 0.930 . S
H868 C826 0.929 . S
H869 C827 0.930 . S
H870 C828 0.930 . S
H871 C829 0.930 . S
H872 C831 0.929 . S
H873 C832 0.930 . S
H874 C833 0.930 . S
H875 C834 0.930 . S
H876 C838 0.929 . S
H877 C840 0.930 . S
H878 C846 0.929 . S
H879 C847 0.930 . S
Li880 N897 1.990 . S
Li880 O940 1.956 . S
Li880 O941 1.970 . S
Li880 O942 1.961 . S
Li881 N905 1.990 . S
Li881 O940 1.970 . S
Li881 O941 1.956 . S
Li881 O943 1.961 . S
Li882 N927 1.990 . S
Li882 O940 1.961 . S
Li882 O942 1.956 . S
Li882 O943 1.970 . S
Li883 N933 1.990 . S
Li883 O941 1.961 . S
Li883 O942 1.970 . S
Li883 O943 1.956 . S
C884 C886 1.348 . S
C884 C887 1.356 . S
C884 O940 1.325 . S
N885 C888 1.314 . S
N885 C889 1.279 . S
C886 C884 1.348 . S
C886 C888 1.353 . S
C886 H944 0.929 . S
C887 C884 1.356 . S
C887 C889 1.358 . S
C887 H945 0.930 . S
C888 N885 1.314 . S
C888 C886 1.353 . S
C888 H946 0.930 . S
C889 N885 1.279 . S
C889 C887 1.358 . S
C889 H947 0.930 . S
C890 C893 1.348 . S
C890 C894 1.356 . S
C890 O941 1.325 . S
C891 N892 1.279 . S
C891 C894 1.358 . S
C891 H948 0.930 . S
N892 C891 1.279 . S
N892 C895 1.314 . S
C893 C890 1.348 . S
C893 C895 1.353 . S
C893 H949 0.929 . S
C894 C890 1.356 . S
C894 C891 1.358 . S
C894 H950 0.930 . S
C895 N892 1.314 . S
C895 C893 1.353 . S
C895 H951 0.930 . S
C896 N897 1.314 . S
C896 C901 1.353 . S
C896 H902 0.930 . S
N897 Li880 1.990 . S
N897 C896 1.314 . S
N897 C899 1.279 . S
C898 C899 1.358 . S
C898 C900 1.356 . S
C898 H952 0.930 . S
C899 N897 1.279 . S
C899 C898 1.358 . S
C899 H903 0.930 . S
C900 C898 1.356 . S
C900 C901 1.348 . S
C901 C896 1.353 . S
C901 C900 1.348 . S
C901 H953 0.929 . S
H902 C896 0.930 . S
H903 C899 0.930 . S
C904 N905 1.314 . S
C904 C906 1.353 . S
C904 H910 0.930 . S
N905 Li881 1.990 . S
N905 C904 1.314 . S
N905 C908 1.279 . S
C906 C904 1.353 . S
C906 C909 1.348 . S
C906 H954 0.929 . S
C907 C908 1.358 . S
C907 C909 1.356 . S
C907 H955 0.930 . S
C908 N905 1.279 . S
C908 C907 1.358 . S
C908 H911 0.930 . S
C909 C906 1.348 . S
C909 C907 1.356 . S
H910 C904 0.930 . S
H911 C908 0.930 . S
C912 C914 1.348 . S
C912 C915 1.356 . S
C912 O942 1.325 . S
N913 C916 1.314 . S
N913 C917 1.279 . S
C914 C912 1.348 . S
C914 C916 1.353 . S
C914 H956 0.929 . S
C915 C912 1.356 . S
C915 C917 1.358 . S
C915 H957 0.930 . S
C916 N913 1.314 . S
C916 C914 1.353 . S
C916 H958 0.930 . S
C917 N913 1.279 . S
C917 C915 1.358 . S
C917 H959 0.930 . S
C918 C919 1.348 . S
C918 C920 1.356 . S
C918 O943 1.325 . S
C919 C918 1.348 . S
C919 C921 1.353 . S
C919 H960 0.929 . S
C920 C918 1.356 . S
C920 C922 1.358 . S
C920 H961 0.930 . S
C921 C919 1.353 . S
C921 N923 1.314 . S
C921 H962 0.930 . S
C922 C920 1.358 . S
C922 N923 1.279 . S
C922 H963 0.930 . S
N923 C921 1.314 . S
N923 C922 1.279 . S
C924 C926 1.353 . S
C924 N927 1.314 . S
C924 H930 0.930 . S
C925 N927 1.279 . S
C925 C928 1.358 . S
C925 H931 0.930 . S
C926 C924 1.353 . S
C926 C929 1.348 . S
C926 H964 0.929 . S
N927 Li882 1.990 . S
N927 C924 1.314 . S
N927 C925 1.279 . S
C928 C925 1.358 . S
C928 C929 1.356 . S
C928 H965 0.930 . S
C929 C926 1.348 . S
C929 C928 1.356 . S
H930 C924 0.930 . S
H931 C925 0.930 . S
C932 N933 1.314 . S
C932 C934 1.353 . S
C932 H938 0.930 . S
N933 Li883 1.990 . S
N933 C932 1.314 . S
N933 C936 1.279 . S
C934 C932 1.353 . S
C934 C937 1.348 . S
C934 H966 0.929 . S
C935 C936 1.358 . S
C935 C937 1.356 . S
C935 H967 0.930 . S
C936 N933 1.279 . S
C936 C935 1.358 . S
C936 H939 0.930 . S
C937 C934 1.348 . S
C937 C935 1.356 . S
H938 C932 0.930 . S
H939 C936 0.930 . S
O940 Li880 1.956 . S
O940 Li881 1.970 . S
O940 Li882 1.961 . S
O940 C884 1.325 . S
O941 Li880 1.970 . S
O941 Li881 1.956 . S
O941 Li883 1.961 . S
O941 C890 1.325 . S
O942 Li880 1.961 . S
O942 Li882 1.956 . S
O942 Li883 1.970 . S
O942 C912 1.325 . S
O943 Li881 1.961 . S
O943 Li882 1.970 . S
O943 Li883 1.956 . S
O943 C918 1.325 . S
H944 C886 0.929 . S
H945 C887 0.930 . S
H946 C888 0.930 . S
H947 C889 0.930 . S
H948 C891 0.930 . S
H949 C893 0.929 . S
H950 C894 0.930 . S
H951 C895 0.930 . S
H952 C898 0.930 . S
H953 C901 0.929 . S
H954 C906 0.929 . S
H955 C907 0.930 . S
H956 C914 0.929 . S
H957 C915 0.930 . S
H958 C916 0.930 . S
H959 C917 0.930 . S
H960 C919 0.929 . S
H961 C920 0.930 . S
H962 C921 0.930 . S
H963 C922 0.930 . S
H964 C926 0.929 . S
H965 C928 0.930 . S
H966 C934 0.929 . S
H967 C935 0.930 . S
Li968 N985 1.990 . S
Li968 O1028 1.956 . S
Li968 O1029 1.970 . S
Li968 O1030 1.961 . S
Li969 N993 1.990 . S
Li969 O1028 1.970 . S
Li969 O1029 1.956 . S
Li969 O1031 1.961 . S
Li970 N1015 1.990 . S
Li970 O1028 1.961 . S
Li970 O1030 1.956 . S
Li970 O1031 1.970 . S
Li971 N1021 1.990 . S
Li971 O1029 1.961 . S
Li971 O1030 1.970 . S
Li971 O1031 1.956 . S
C972 C974 1.348 . S
C972 C975 1.356 . S
C972 O1028 1.325 . S
N973 C976 1.314 . S
N973 C977 1.279 . S
C974 C972 1.348 . S
C974 C976 1.353 . S
C974 H1032 0.929 . S
C975 C972 1.356 . S
C975 C977 1.358 . S
C975 H1033 0.930 . S
C976 N973 1.314 . S
C976 C974 1.353 . S
C976 H1034 0.930 . S
C977 N973 1.279 . S
C977 C975 1.358 . S
C977 H1035 0.930 . S
C978 C981 1.348 . S
C978 C982 1.356 . S
C978 O1029 1.325 . S
C979 N980 1.279 . S
C979 C982 1.358 . S
C979 H1036 0.930 . S
N980 C979 1.279 . S
N980 C983 1.314 . S
C981 C978 1.348 . S
C981 C983 1.353 . S
C981 H1037 0.929 . S
C982 C978 1.356 . S
C982 C979 1.358 . S
C982 H1038 0.930 . S
C983 N980 1.314 . S
C983 C981 1.353 . S
C983 H1039 0.930 . S
C984 N985 1.314 . S
C984 C989 1.353 . S
C984 H990 0.930 . S
N985 Li968 1.990 . S
N985 C984 1.314 . S
N985 C987 1.279 . S
C986 C987 1.358 . S
C986 C988 1.356 . S
C986 H1040 0.930 . S
C987 N985 1.279 . S
C987 C986 1.358 . S
C987 H991 0.930 . S
C988 C986 1.356 . S
C988 C989 1.348 . S
C989 C984 1.353 . S
C989 C988 1.348 . S
C989 H1041 0.929 . S
H990 C984 0.930 . S
H991 C987 0.930 . S
C992 N993 1.314 . S
C992 C994 1.353 . S
C992 H998 0.930 . S
N993 Li969 1.990 . S
N993 C992 1.314 . S
N993 C996 1.279 . S
C994 C992 1.353 . S
C994 C997 1.348 . S
C994 H1042 0.929 . S
C995 C996 1.358 . S
C995 C997 1.356 . S
C995 H1043 0.930 . S
C996 N993 1.279 . S
C996 C995 1.358 . S
C996 H999 0.930 . S
C997 C994 1.348 . S
C997 C995 1.356 . S
H998 C992 0.930 . S
H999 C996 0.930 . S
C1000 C1002 1.348 . S
C1000 C1003 1.356 . S
C1000 O1030 1.325 . S
N1001 C1004 1.314 . S
N1001 C1005 1.279 . S
C1002 C1000 1.348 . S
C1002 C1004 1.353 . S
C1002 H1044 0.929 . S
C1003 C1000 1.356 . S
C1003 C1005 1.358 . S
C1003 H1045 0.930 . S
C1004 N1001 1.314 . S
C1004 C1002 1.353 . S
C1004 H1046 0.930 . S
C1005 N1001 1.279 . S
C1005 C1003 1.358 . S
C1005 H1047 0.930 . S
C1006 C1007 1.348 . S
C1006 C1008 1.356 . S
C1006 O1031 1.325 . S
C1007 C1006 1.348 . S
C1007 C1009 1.353 . S
C1007 H1048 0.929 . S
C1008 C1006 1.356 . S
C1008 C1010 1.358 . S
C1008 H1049 0.930 . S
C1009 C1007 1.353 . S
C1009 N1011 1.314 . S
C1009 H1050 0.930 . S
C1010 C1008 1.358 . S
C1010 N1011 1.279 . S
C1010 H1051 0.930 . S
N1011 C1009 1.314 . S
N1011 C1010 1.279 . S
C1012 C1014 1.353 . S
C1012 N1015 1.314 . S
C1012 H1018 0.930 . S
C1013 N1015 1.279 . S
C1013 C1016 1.358 . S
C1013 H1019 0.930 . S
C1014 C1012 1.353 . S
C1014 C1017 1.348 . S
C1014 H1052 0.929 . S
N1015 Li970 1.990 . S
N1015 C1012 1.314 . S
N1015 C1013 1.279 . S
C1016 C1013 1.358 . S
C1016 C1017 1.356 . S
C1016 H1053 0.930 . S
C1017 C1014 1.348 . S
C1017 C1016 1.356 . S
H1018 C1012 0.930 . S
H1019 C1013 0.930 . S
C1020 N1021 1.314 . S
C1020 C1022 1.353 . S
C1020 H1026 0.930 . S
N1021 Li971 1.990 . S
N1021 C1020 1.314 . S
N1021 C1024 1.279 . S
C1022 C1020 1.353 . S
C1022 C1025 1.348 . S
C1022 H1054 0.929 . S
C1023 C1024 1.358 . S
C1023 C1025 1.356 . S
C1023 H1055 0.930 . S
C1024 N1021 1.279 . S
C1024 C1023 1.358 . S
C1024 H1027 0.930 . S
C1025 C1022 1.348 . S
C1025 C1023 1.356 . S
H1026 C1020 0.930 . S
H1027 C1024 0.930 . S
O1028 Li968 1.956 . S
O1028 Li969 1.970 . S
O1028 Li970 1.961 . S
O1028 C972 1.325 . S
O1029 Li968 1.970 . S
O1029 Li969 1.956 . S
O1029 Li971 1.961 . S
O1029 C978 1.325 . S
O1030 Li968 1.961 . S
O1030 Li970 1.956 . S
O1030 Li971 1.970 . S
O1030 C1000 1.325 . S
O1031 Li969 1.961 . S
O1031 Li970 1.970 . S
O1031 Li971 1.956 . S
O1031 C1006 1.325 . S
H1032 C974 0.929 . S
H1033 C975 0.930 . S
H1034 C976 0.930 . S
H1035 C977 0.930 . S
H1036 C979 0.930 . S
H1037 C981 0.929 . S
H1038 C982 0.930 . S
H1039 C983 0.930 . S
H1040 C986 0.930 . S
H1041 C989 0.929 . S
H1042 C994 0.929 . S
H1043 C995 0.930 . S
H1044 C1002 0.929 . S
H1045 C1003 0.930 . S
H1046 C1004 0.930 . S
H1047 C1005 0.930 . S
H1048 C1007 0.929 . S
H1049 C1008 0.930 . S
H1050 C1009 0.930 . S
H1051 C1010 0.930 . S
H1052 C1014 0.929 . S
H1053 C1016 0.930 . S
H1054 C1022 0.929 . S
H1055 C1023 0.930 . S
C1056 C1057 1.387 . S
C1056 H1060 0.950 . S
C1056 C1065 1.390 . S
C1057 C1056 1.387 . S
C1057 C1059 1.387 . S
H1058 C1065 0.950 . S
C1059 C1057 1.387 . S
C1059 C1061 1.390 . S
C1059 H1063 0.950 . S
H1060 C1056 0.950 . S
C1061 C1059 1.390 . S
C1061 C1062 1.387 . S
C1061 H1064 0.950 . S
C1062 C1061 1.387 . S
C1062 C1065 1.387 . S
H1063 C1059 0.950 . S
H1064 C1061 0.950 . S
C1065 C1056 1.390 . S
C1065 H1058 0.950 . S
C1065 C1062 1.387 . S
C1066 C1067 1.387 . S
C1066 H1070 0.950 . S
C1066 C1075 1.390 . S
C1067 C1066 1.387 . S
C1067 C1069 1.387 . S
H1068 C1075 0.950 . S
C1069 C1067 1.387 . S
C1069 C1071 1.390 . S
C1069 H1073 0.950 . S
H1070 C1066 0.950 . S
C1071 C1069 1.390 . S
C1071 C1072 1.387 . S
C1071 H1074 0.950 . S
C1072 C1071 1.387 . S
C1072 C1075 1.387 . S
H1073 C1069 0.950 . S
H1074 C1071 0.950 . S
C1075 C1066 1.390 . S
C1075 H1068 0.950 . S
C1075 C1072 1.387 . S
C1076 C1077 1.387 . S
C1076 H1080 0.950 . S
C1076 C1085 1.390 . S
C1077 C1076 1.387 . S
C1077 C1079 1.387 . S
H1078 C1085 0.950 . S
C1079 C1077 1.387 . S
C1079 C1081 1.390 . S
C1079 H1083 0.950 . S
H1080 C1076 0.950 . S
C1081 C1079 1.390 . S
C1081 C1082 1.387 . S
C1081 H1084 0.950 . S
C1082 C1081 1.387 . S
C1082 C1085 1.387 . S
H1083 C1079 0.950 . S
H1084 C1081 0.950 . S
C1085 C1076 1.390 . S
C1085 H1078 0.950 . S
C1085 C1082 1.387 . S
C1086 C1087 1.387 . S
C1086 H1090 0.950 . S
C1086 C1095 1.390 . S
C1087 C1086 1.387 . S
C1087 C1089 1.387 . S
H1088 C1095 0.950 . S
C1089 C1087 1.387 . S
C1089 C1091 1.390 . S
C1089 H1093 0.950 . S
H1090 C1086 0.950 . S
C1091 C1089 1.390 . S
C1091 C1092 1.387 . S
C1091 H1094 0.950 . S
C1092 C1091 1.387 . S
C1092 C1095 1.387 . S
H1093 C1089 0.950 . S
H1094 C1091 0.950 . S
C1095 C1086 1.390 . S
C1095 H1088 0.950 . S
C1095 C1092 1.387 . S
C1096 C1097 1.387 . S
C1096 H1100 0.950 . S
C1096 C1105 1.390 1_554 S
C1097 C1096 1.387 . S
C1097 C1099 1.387 1_554 S
H1098 C1105 0.950 . S
C1099 C1097 1.387 1_556 S
C1099 C1101 1.390 . S
C1099 H1103 0.950 . S
H1100 C1096 0.950 . S
C1101 C1099 1.390 . S
C1101 C1102 1.387 . S
C1101 H1104 0.950 . S
C1102 C1101 1.387 . S
C1102 C1105 1.387 . S
H1103 C1099 0.950 . S
H1104 C1101 0.950 . S
C1105 C1096 1.390 1_556 S
C1105 H1098 0.950 . S
C1105 C1102 1.387 . S
C1106 C1107 1.387 . S
C1106 H1110 0.950 . S
C1106 C1115 1.390 . S
C1107 C1106 1.387 . S
C1107 C1109 1.387 . S
H1108 C1115 0.950 . S
C1109 C1107 1.387 . S
C1109 C1111 1.390 . S
C1109 H1113 0.950 . S
H1110 C1106 0.950 . S
C1111 C1109 1.390 . S
C1111 C1112 1.387 . S
C1111 H1114 0.950 . S
C1112 C1111 1.387 . S
C1112 C1115 1.387 . S
H1113 C1109 0.950 . S
H1114 C1111 0.950 . S
C1115 C1106 1.390 . S
C1115 H1108 0.950 . S
C1115 C1112 1.387 . S
C1116 C1117 1.387 . S
C1116 H1120 0.950 . S
C1116 C1125 1.390 . S
C1117 C1116 1.387 . S
C1117 C1119 1.387 . S
H1118 C1125 0.950 . S
C1119 C1117 1.387 . S
C1119 C1121 1.390 . S
C1119 H1123 0.950 . S
H1120 C1116 0.950 . S
C1121 C1119 1.390 . S
C1121 C1122 1.387 . S
C1121 H1124 0.950 . S
C1122 C1121 1.387 . S
C1122 C1125 1.387 . S
H1123 C1119 0.950 . S
H1124 C1121 0.950 . S
C1125 C1116 1.390 . S
C1125 H1118 0.950 . S
C1125 C1122 1.387 . S
C1126 C1127 1.387 . S
C1126 H1130 0.950 . S
C1126 C1135 1.390 . S
C1127 C1126 1.387 . S
C1127 C1129 1.387 . S
H1128 C1135 0.950 . S
C1129 C1127 1.387 . S
C1129 C1131 1.390 . S
C1129 H1133 0.950 . S
H1130 C1126 0.950 . S
C1131 C1129 1.390 . S
C1131 C1132 1.387 . S
C1131 H1134 0.950 . S
C1132 C1131 1.387 . S
C1132 C1135 1.387 . S
H1133 C1129 0.950 . S
H1134 C1131 0.950 . S
C1135 C1126 1.390 . S
C1135 H1128 0.950 . S
C1135 C1132 1.387 . S
C1136 C1137 1.387 . S
C1136 H1140 0.950 . S
C1136 C1145 1.390 . S
C1137 C1136 1.387 . S
C1137 C1139 1.387 . S
H1138 C1145 0.950 . S
C1139 C1137 1.387 . S
C1139 C1141 1.390 . S
C1139 H1143 0.950 . S
H1140 C1136 0.950 . S
C1141 C1139 1.390 . S
C1141 C1142 1.387 . S
C1141 H1144 0.950 . S
C1142 C1141 1.387 . S
C1142 C1145 1.387 . S
H1143 C1139 0.950 . S
H1144 C1141 0.950 . S
C1145 C1136 1.390 . S
C1145 H1138 0.950 . S
C1145 C1142 1.387 . S
C1146 C1147 1.387 . S
C1146 H1150 0.950 . S
C1146 C1155 1.390 . S
C1147 C1146 1.387 . S
C1147 C1149 1.387 . S
H1148 C1155 0.950 . S
C1149 C1147 1.387 . S
C1149 C1151 1.390 . S
C1149 H1153 0.950 . S
H1150 C1146 0.950 . S
C1151 C1149 1.390 . S
C1151 C1152 1.387 . S
C1151 H1154 0.950 . S
C1152 C1151 1.387 . S
C1152 C1155 1.387 . S
H1153 C1149 0.950 . S
H1154 C1151 0.950 . S
C1155 C1146 1.390 . S
C1155 H1148 0.950 . S
C1155 C1152 1.387 . S
C1156 C1157 1.387 . S
C1156 H1160 0.950 . S
C1156 C1165 1.390 . S
C1157 C1156 1.387 . S
C1157 C1159 1.387 . S
H1158 C1165 0.950 . S
C1159 C1157 1.387 . S
C1159 C1161 1.390 . S
C1159 H1163 0.950 . S
H1160 C1156 0.950 . S
C1161 C1159 1.390 . S
C1161 C1162 1.387 . S
C1161 H1164 0.950 . S
C1162 C1161 1.387 . S
C1162 C1165 1.387 . S
H1163 C1159 0.950 . S
H1164 C1161 0.950 . S
C1165 C1156 1.390 . S
C1165 H1158 0.950 . S
C1165 C1162 1.387 . S
C1166 C1167 1.387 . S
C1166 H1170 0.950 . S
C1166 C1175 1.390 1_556 S
C1167 C1166 1.387 . S
C1167 C1169 1.387 . S
H1168 C1175 0.950 . S
C1169 C1167 1.387 . S
C1169 C1171 1.390 . S
C1169 H1173 0.950 . S
H1170 C1166 0.950 . S
C1171 C1169 1.390 . S
C1171 C1172 1.387 1_556 S
C1171 H1174 0.950 . S
C1172 C1171 1.387 1_554 S
C1172 C1175 1.387 . S
H1173 C1169 0.950 . S
H1174 C1171 0.950 . S
C1175 C1166 1.390 1_554 S
C1175 H1168 0.950 . S
C1175 C1172 1.387 . S
C1176 C1177 1.387 . S
C1176 H1180 0.950 . S
C1176 C1185 1.390 . S
C1177 C1176 1.387 . S
C1177 C1179 1.387 . S
H1178 C1185 0.950 . S
C1179 C1177 1.387 . S
C1179 C1181 1.390 . S
C1179 H1183 0.950 . S
H1180 C1176 0.950 . S
C1181 C1179 1.390 . S
C1181 C1182 1.387 . S
C1181 H1184 0.950 . S
C1182 C1181 1.387 . S
C1182 C1185 1.387 . S
H1183 C1179 0.950 . S
H1184 C1181 0.950 . S
C1185 C1176 1.390 . S
C1185 H1178 0.950 . S
C1185 C1182 1.387 . S
C1186 C1187 1.387 . S
C1186 H1190 0.950 . S
C1186 C1195 1.390 . S
C1187 C1186 1.387 . S
C1187 C1189 1.387 . S
H1188 C1195 0.950 1_554 S
C1189 C1187 1.387 . S
C1189 C1191 1.390 1_556 S
C1189 H1193 0.950 . S
H1190 C1186 0.950 . S
C1191 C1189 1.390 1_554 S
C1191 C1192 1.387 . S
C1191 H1194 0.950 . S
C1192 C1191 1.387 . S
C1192 C1195 1.387 1_554 S
H1193 C1189 0.950 . S
H1194 C1191 0.950 . S
C1195 C1186 1.390 . S
C1195 H1188 0.950 1_556 S
C1195 C1192 1.387 1_556 S
C1196 C1197 1.387 . S
C1196 H1200 0.950 . S
C1196 C1205 1.390 . S
C1197 C1196 1.387 . S
C1197 C1199 1.387 . S
H1198 C1205 0.950 . S
C1199 C1197 1.387 . S
C1199 C1201 1.390 . S
C1199 H1203 0.950 . S
H1200 C1196 0.950 . S
C1201 C1199 1.390 . S
C1201 C1202 1.387 . S
C1201 H1204 0.950 . S
C1202 C1201 1.387 . S
C1202 C1205 1.387 . S
H1203 C1199 0.950 . S
H1204 C1201 0.950 . S
C1205 C1196 1.390 . S
C1205 H1198 0.950 . S
C1205 C1202 1.387 . S
C1206 C1207 1.387 . S
C1206 H1210 0.950 . S
C1206 C1215 1.390 . S
C1207 C1206 1.387 . S
C1207 C1209 1.387 . S
H1208 C1215 0.950 . S
C1209 C1207 1.387 . S
C1209 C1211 1.390 . S
C1209 H1213 0.950 . S
H1210 C1206 0.950 . S
C1211 C1209 1.390 . S
C1211 C1212 1.387 . S
C1211 H1214 0.950 . S
C1212 C1211 1.387 . S
C1212 C1215 1.387 . S
H1213 C1209 0.950 . S
H1214 C1211 0.950 . S
C1215 C1206 1.390 . S
C1215 H1208 0.950 . S
C1215 C1212 1.387 . S
C1216 C1217 1.387 . S
C1216 H1220 0.950 . S
C1216 C1225 1.390 . S
C1217 C1216 1.387 . S
C1217 C1219 1.387 . S
H1218 C1225 0.950 . S
C1219 C1217 1.387 . S
C1219 C1221 1.390 . S
C1219 H1223 0.950 . S
H1220 C1216 0.950 . S
C1221 C1219 1.390 . S
C1221 C1222 1.387 . S
C1221 H1224 0.950 . S
C1222 C1221 1.387 . S
C1222 C1225 1.387 . S
H1223 C1219 0.950 . S
H1224 C1221 0.950 . S
C1225 C1216 1.390 . S
C1225 H1218 0.950 . S
C1225 C1222 1.387 . S
C1226 C1227 1.387 . S
C1226 H1230 0.950 . S
C1226 C1235 1.390 . S
C1227 C1226 1.387 . S
C1227 C1229 1.387 . S
H1228 C1235 0.950 . S
C1229 C1227 1.387 . S
C1229 C1231 1.390 . S
C1229 H1233 0.950 . S
H1230 C1226 0.950 . S
C1231 C1229 1.390 . S
C1231 C1232 1.387 . S
C1231 H1234 0.950 . S
C1232 C1231 1.387 . S
C1232 C1235 1.387 . S
H1233 C1229 0.950 . S
H1234 C1231 0.950 . S
C1235 C1226 1.390 . S
C1235 H1228 0.950 . S
C1235 C1232 1.387 . S
C1236 C1237 1.387 . S
C1236 H1240 0.950 . S
C1236 C1245 1.390 1_545 S
C1237 C1236 1.387 . S
C1237 C1239 1.387 . S
H1238 C1245 0.950 . S
C1239 C1237 1.387 . S
C1239 C1241 1.390 1_545 S
C1239 H1243 0.950 . S
H1240 C1236 0.950 . S
C1241 C1239 1.390 1_565 S
C1241 C1242 1.387 . S
C1241 H1244 0.950 . S
C1242 C1241 1.387 . S
C1242 C1245 1.387 . S
H1243 C1239 0.950 . S
H1244 C1241 0.950 . S
C1245 C1236 1.390 1_565 S
C1245 H1238 0.950 . S
C1245 C1242 1.387 . S
C1246 C1247 1.387 . S
C1246 H1250 0.950 . S
C1246 C1255 1.390 . S
C1247 C1246 1.387 . S
C1247 C1249 1.387 . S
H1248 C1255 0.950 . S
C1249 C1247 1.387 . S
C1249 C1251 1.390 . S
C1249 H1253 0.950 . S
H1250 C1246 0.950 . S
C1251 C1249 1.390 . S
C1251 C1252 1.387 . S
C1251 H1254 0.950 . S
C1252 C1251 1.387 . S
C1252 C1255 1.387 . S
H1253 C1249 0.950 . S
H1254 C1251 0.950 . S
C1255 C1246 1.390 . S
C1255 H1248 0.950 . S
C1255 C1252 1.387 . S
C1256 C1257 1.387 . S
C1256 H1260 0.950 . S
C1256 C1265 1.390 1_455 S
C1257 C1256 1.387 . S
C1257 C1259 1.387 . S
H1258 C1265 0.950 . S
C1259 C1257 1.387 . S
C1259 C1261 1.390 1_455 S
C1259 H1263 0.950 . S
H1260 C1256 0.950 . S
C1261 C1259 1.390 1_655 S
C1261 C1262 1.387 . S
C1261 H1264 0.950 . S
C1262 C1261 1.387 . S
C1262 C1265 1.387 . S
H1263 C1259 0.950 . S
H1264 C1261 0.950 . S
C1265 C1256 1.390 1_655 S
C1265 H1258 0.950 . S
C1265 C1262 1.387 . S
C1266 C1267 1.387 . S
C1266 H1270 0.950 . S
C1266 C1275 1.390 1_565 S
C1267 C1266 1.387 . S
C1267 C1269 1.387 . S
H1268 C1275 0.950 . S
C1269 C1267 1.387 . S
C1269 C1271 1.390 1_565 S
C1269 H1273 0.950 . S
H1270 C1266 0.950 . S
C1271 C1269 1.390 1_545 S
C1271 C1272 1.387 . S
C1271 H1274 0.950 . S
C1272 C1271 1.387 . S
C1272 C1275 1.387 . S
H1273 C1269 0.950 . S
H1274 C1271 0.950 . S
C1275 C1266 1.390 1_545 S
C1275 H1268 0.950 . S
C1275 C1272 1.387 . S
C1276 C1277 1.387 . S
C1276 H1280 0.950 . S
C1276 C1285 1.390 . S
C1277 C1276 1.387 . S
C1277 C1279 1.387 . S
H1278 C1285 0.950 . S
C1279 C1277 1.387 . S
C1279 C1281 1.390 . S
C1279 H1283 0.950 . S
H1280 C1276 0.950 . S
C1281 C1279 1.390 . S
C1281 C1282 1.387 . S
C1281 H1284 0.950 . S
C1282 C1281 1.387 . S
C1282 C1285 1.387 . S
H1283 C1279 0.950 . S
H1284 C1281 0.950 . S
C1285 C1276 1.390 . S
C1285 H1278 0.950 . S
C1285 C1282 1.387 . S
C1286 C1287 1.387 . S
C1286 H1290 0.950 . S
C1286 C1295 1.390 1_455 S
C1287 C1286 1.387 . S
C1287 C1289 1.387 . S
H1288 C1295 0.950 . S
C1289 C1287 1.387 . S
C1289 C1291 1.390 1_455 S
C1289 H1293 0.950 . S
H1290 C1286 0.950 . S
C1291 C1289 1.390 1_655 S
C1291 C1292 1.387 . S
C1291 H1294 0.950 . S
C1292 C1291 1.387 . S
C1292 C1295 1.387 . S
H1293 C1289 0.950 . S
H1294 C1291 0.950 . S
C1295 C1286 1.390 1_655 S
C1295 H1288 0.950 . S
C1295 C1292 1.387 . S
C1057 C29 1.260 . S
C1062 C929 1.260 . S
C1067 C108 1.260 . S
C1072 C1025 1.260 . S
C1077 C585 1.260 . S
C1082 C205 1.260 . S
C1087 C293 1.260 . S
C1092 C673 1.260 . S
C1097 C761 1.260 . S
C1102 C381 1.260 . S
C1107 C841 1.260 . S
C1112 C489 1.260 . S
C1117 C724 1.400 . S
C1122 C49 1.399 . S
C1127 C145 1.396 . S
C1132 C821 1.396 . S
C1137 C909 1.397 . S
C1142 C225 1.398 . S
C1147 C313 1.397 . S
C1152 C988 1.397 . S
C1157 C401 1.399 . S
C1162 C548 1.399 . S
C1167 C469 1.401 . S
C1172 C636 1.400 . S
C1177 C900 1.780 . S
C1182 C57 1.780 . S
C1187 C997 1.778 . S
C1192 C137 1.778 . S
C1197 C557 1.779 . S
C1202 C233 1.778 . S
C1207 C321 1.778 . S
C1212 C645 1.778 . S
C1217 C409 1.778 . S
C1222 C733 1.779 . S
C1227 C812 1.779 . S
C1232 C460 1.779 . S
C1237 C20 1.317 . S
C1242 C665 1.314 . S
C1247 C753 1.315 . S
C1252 C117 1.313 . S
C1257 C849 1.316 . S
C1262 C196 1.313 . S
C1267 C284 1.315 . S
C1272 C937 1.316 . S
C1277 C372 1.317 . S
C1282 C1017 1.314 . S
C1287 C497 1.316 . S
C1292 C577 1.314 . S
