# Generated by pormake.
# Topology wft, (7)-cn, num edge types: 1
# Building blocks:
#     Node 0, Type 0, BuildingBlock: HICVOG_clean_sbu_0, # of connection points: 7
#     Node 1, Type 0, BuildingBlock: HICVOG_clean_sbu_0, # of connection points: 7
#     Node 2, Type 0, BuildingBlock: HICVOG_clean_sbu_0, # of connection points: 7
#     Node 3, Type 0, BuildingBlock: HICVOG_clean_sbu_0, # of connection points: 7
#     Node 4, Type 0, BuildingBlock: HICVOG_clean_sbu_0, # of connection points: 7
#     Node 5, Type 0, BuildingBlock: HICVOG_clean_sbu_0, # of connection points: 7
#     Node 6, Type 0, BuildingBlock: HICVOG_clean_sbu_0, # of connection points: 7
#     Node 7, Type 0, BuildingBlock: HICVOG_clean_sbu_0, # of connection points: 7
#     Edge 8, Type (0, 0), BuildingBlock: TEMPAE_clean_linker_10, # of connection points: 2
#     Edge 9, Type (0, 0), BuildingBlock: TEMPAE_clean_linker_10, # of connection points: 2
#     Edge 10, Type (0, 0), BuildingBlock: TEMPAE_clean_linker_10, # of connection points: 2
#     Edge 11, Type (0, 0), BuildingBlock: TEMPAE_clean_linker_10, # of connection points: 2
#     Edge 12, Type (0, 0), BuildingBlock: TEMPAE_clean_linker_10, # of connection points: 2
#     Edge 13, Type (0, 0), BuildingBlock: TEMPAE_clean_linker_10, # of connection points: 2
#     Edge 14, Type (0, 0), BuildingBlock: TEMPAE_clean_linker_10, # of connection points: 2
#     Edge 15, Type (0, 0), BuildingBlock: TEMPAE_clean_linker_10, # of connection points: 2
#     Edge 16, Type (0, 0), BuildingBlock: TEMPAE_clean_linker_10, # of connection points: 2
#     Edge 17, Type (0, 0), BuildingBlock: TEMPAE_clean_linker_10, # of connection points: 2
#     Edge 18, Type (0, 0), BuildingBlock: TEMPAE_clean_linker_10, # of connection points: 2
#     Edge 19, Type (0, 0), BuildingBlock: TEMPAE_clean_linker_10, # of connection points: 2
#     Edge 20, Type (0, 0), BuildingBlock: TEMPAE_clean_linker_10, # of connection points: 2
#     Edge 21, Type (0, 0), BuildingBlock: TEMPAE_clean_linker_10, # of connection points: 2
#     Edge 22, Type (0, 0), BuildingBlock: TEMPAE_clean_linker_10, # of connection points: 2
#     Edge 23, Type (0, 0), BuildingBlock: TEMPAE_clean_linker_10, # of connection points: 2
#     Edge 24, Type (0, 0), BuildingBlock: TEMPAE_clean_linker_10, # of connection points: 2
#     Edge 25, Type (0, 0), BuildingBlock: TEMPAE_clean_linker_10, # of connection points: 2
#     Edge 26, Type (0, 0), BuildingBlock: TEMPAE_clean_linker_10, # of connection points: 2
#     Edge 27, Type (0, 0), BuildingBlock: TEMPAE_clean_linker_10, # of connection points: 2
#     Edge 28, Type (0, 0), BuildingBlock: TEMPAE_clean_linker_10, # of connection points: 2
#     Edge 29, Type (0, 0), BuildingBlock: TEMPAE_clean_linker_10, # of connection points: 2
#     Edge 30, Type (0, 0), BuildingBlock: TEMPAE_clean_linker_10, # of connection points: 2
#     Edge 31, Type (0, 0), BuildingBlock: TEMPAE_clean_linker_10, # of connection points: 2
#     Edge 32, Type (0, 0), BuildingBlock: TEMPAE_clean_linker_10, # of connection points: 2
#     Edge 33, Type (0, 0), BuildingBlock: TEMPAE_clean_linker_10, # of connection points: 2
#     Edge 34, Type (0, 0), BuildingBlock: TEMPAE_clean_linker_10, # of connection points: 2
#     Edge 35, Type (0, 0), BuildingBlock: TEMPAE_clean_linker_10, # of connection points: 2
# Relax obj value: 0.197
# Max RMSD: 0.212
# Mean RMSD: 0.212
data_MOF--net-wft--node1-HICVOG_clean_sbu_0--edge1-TEMPAE_clean_linker_10
_symmetry_space_group_name_H-M    P1
_symmetry_Int_Tables_number       1
_symmetry_cell_setting            triclinic
loop_
_symmetry_equiv_pos_as_xyz
'x, y, z'
_cell_length_a     32.810751
_cell_length_b     32.808497
_cell_length_c     30.500918
_cell_angle_alpha  90.185412
_cell_angle_beta   89.94382
_cell_angle_gamma 89.898944
loop_
_atom_site_label
_atom_site_type_symbol
_atom_site_fract_x
_atom_site_fract_y
_atom_site_fract_z
_atom_type_partial_charge
Zn0 Zn 0.31918 0.30793 0.34772 0.0
C1 C 0.32596 0.2719 0.21938 0.0
N2 N 0.28556 0.27812 0.22029 0.0
C3 C 0.27817 0.288 0.26226 0.0
N4 N 0.31321 0.28843 0.28631 0.0
N5 N 0.34337 0.27761 0.25905 0.0
C6 C 0.48054 0.24792 0.25236 0.0
O7 O 0.47883 0.23332 0.29229 0.0
O8 O 0.29292 0.27148 0.3938 0.0
Zn9 Zn 0.39626 0.25263 0.27549 0.0
N10 N 0.29736 0.36305 0.35365 0.0
C11 C 0.26381 0.42128 0.32432 0.0
C12 C 0.27822 0.38158 0.31956 0.0
C13 C 0.30418 0.38354 0.39194 0.0
N14 N 0.27035 0.44154 0.36249 0.0
C15 C 0.29063 0.42411 0.39656 0.0
O16 O 0.41921 0.2755 0.33176 0.0
C17 C 0.41181 0.29845 0.36438 0.0
O18 O 0.37647 0.31305 0.37082 0.0
H19 H 0.2747 0.36619 0.2886 0.0
H20 H 0.32002 0.36828 0.41833 0.0
C21 C 0.4112 0.16552 0.27407 0.0
C22 C 0.40154 0.12468 0.28282 0.0
C23 C 0.33628 0.14537 0.30799 0.0
C24 C 0.34633 0.1859 0.29999 0.0
N25 N 0.38381 0.19533 0.28388 0.0
N26 N 0.36422 0.1158 0.2998 0.0
H27 H 0.4406 0.17351 0.26088 0.0
C28 C 0.31235 0.24071 0.40843 0.0
O29 O 0.3468 0.23024 0.38954 0.0
O30 O 0.44709 0.25824 0.23351 0.0
H31 H 0.32448 0.20966 0.30707 0.0
H32 H 0.24814 0.43619 0.2976 0.0
H33 H 0.30674 0.13753 0.32126 0.0
Zn34 Zn 0.25454 0.63473 0.72916 0.0
C35 C 0.2763 0.75746 0.7426 0.0
N36 N 0.26376 0.74994 0.78364 0.0
C37 C 0.2593 0.70935 0.78449 0.0
N38 N 0.26879 0.69181 0.74562 0.0
N39 N 0.27977 0.72221 0.71882 0.0
C40 C 0.23456 0.74627 0.60158 0.0
O41 O 0.20849 0.74042 0.63361 0.0
O42 O 0.25274 0.58706 0.77466 0.0
Zn43 Zn 0.30448 0.71596 0.65932 0.0
N44 N 0.20126 0.63687 0.70358 0.0
C45 C 0.16146 0.65276 0.64098 0.0
C46 C 0.19859 0.65321 0.66292 0.0
C47 C 0.16865 0.61895 0.72306 0.0
N48 N 0.12904 0.63419 0.65988 0.0
C49 C 0.13142 0.61661 0.70024 0.0
O50 O 0.31361 0.65809 0.63737 0.0
C51 C 0.30757 0.6209 0.64684 0.0
O52 O 0.28762 0.61104 0.68069 0.0
H53 H 0.22545 0.66565 0.64749 0.0
H54 H 0.17237 0.60596 0.7553 0.0
C55 C 0.38221 0.73321 0.62202 0.0
C56 C 0.42273 0.7473 0.62093 0.0
C57 C 0.41488 0.77227 0.69363 0.0
C58 C 0.37521 0.75728 0.6949 0.0
N59 N 0.35925 0.73881 0.65884 0.0
N60 N 0.43763 0.76694 0.65688 0.0
H61 H 0.36892 0.71788 0.59403 0.0
C62 C 0.28116 0.56034 0.77255 0.0
O63 O 0.31483 0.57009 0.75177 0.0
O64 O 0.27251 0.74075 0.60829 0.0
H65 H 0.35776 0.75981 0.72471 0.0
H66 H 0.15871 0.66587 0.60862 0.0
H67 H 0.42778 0.78744 0.72192 0.0
Zn68 Zn 0.63516 0.78465 0.28709 0.0
C69 C 0.75787 0.76471 0.27255 0.0
N70 N 0.74893 0.77404 0.2308 0.0
C71 C 0.70826 0.77763 0.23091 0.0
N72 N 0.6921 0.77061 0.2709 0.0
N73 N 0.7234 0.76225 0.29762 0.0
C74 C 0.74969 0.81169 0.41536 0.0
O75 O 0.74361 0.83785 0.38355 0.0
O76 O 0.58725 0.78269 0.24169 0.0
Zn77 Zn 0.71905 0.74006 0.35846 0.0
N78 N 0.63666 0.83957 0.30816 0.0
C79 C 0.65563 0.88486 0.36536 0.0
C80 C 0.65615 0.84613 0.34668 0.0
C81 C 0.61569 0.86975 0.28774 0.0
N82 N 0.63395 0.91488 0.34564 0.0
C83 C 0.6133 0.90853 0.30746 0.0
O84 O 0.66164 0.73089 0.38194 0.0
C85 C 0.62419 0.73634 0.37301 0.0
O86 O 0.61341 0.75459 0.3384 0.0
H87 H 0.67107 0.82105 0.363 0.0
H88 H 0.60044 0.86298 0.25722 0.0
C89 C 0.74136 0.66487 0.3987 0.0
C90 C 0.75634 0.62463 0.40066 0.0
C91 C 0.77505 0.62903 0.32555 0.0
C92 C 0.75904 0.66831 0.32352 0.0
N93 N 0.74323 0.68585 0.36025 0.0
N94 N 0.77323 0.60817 0.36382 0.0
H95 H 0.72813 0.67949 0.4272 0.0
C96 C 0.56005 0.75514 0.24663 0.0
O97 O 0.56892 0.72378 0.27153 0.0
O98 O 0.74411 0.77377 0.40843 0.0
H99 H 0.75867 0.6842 0.29267 0.0
H100 H 0.67119 0.89074 0.39599 0.0
H101 H 0.78812 0.61488 0.29669 0.0
Zn102 Zn 0.78331 0.40077 0.73731 0.0
C103 C 0.74415 0.28378 0.74384 0.0
N104 N 0.75317 0.2885 0.78642 0.0
C105 C 0.76126 0.32851 0.78974 0.0
N106 N 0.75747 0.34799 0.75094 0.0
N107 N 0.74625 0.31967 0.72185 0.0
C108 C 0.79353 0.31268 0.60172 0.0
O109 O 0.80846 0.34445 0.6225 0.0
O110 O 0.77924 0.4494 0.78115 0.0
Zn111 Zn 0.7271 0.32805 0.66134 0.0
N112 N 0.84039 0.3889 0.73005 0.0
C113 C 0.89353 0.34197 0.71329 0.0
C114 C 0.85232 0.35036 0.7196 0.0
C115 C 0.86799 0.41941 0.73476 0.0
N116 N 0.9211 0.37249 0.71751 0.0
C117 C 0.90956 0.41114 0.72832 0.0
O118 O 0.72801 0.38588 0.6385 0.0
C119 C 0.7437 0.42043 0.64679 0.0
O120 O 0.76457 0.42637 0.68121 0.0
H121 H 0.83007 0.3264 0.71572 0.0
H122 H 0.85738 0.44991 0.74221 0.0
C123 C 0.65018 0.31203 0.61878 0.0
C124 C 0.60884 0.30054 0.61695 0.0
C125 C 0.6101 0.28763 0.69348 0.0
C126 C 0.65063 0.29991 0.69528 0.0
N127 N 0.67027 0.31101 0.65788 0.0
N128 N 0.59023 0.28823 0.65455 0.0
H129 H 0.66632 0.32156 0.58961 0.0
C130 C 0.75162 0.47635 0.77509 0.0
O131 O 0.72143 0.46748 0.74846 0.0
O132 O 0.76021 0.29726 0.61536 0.0
H133 H 0.66599 0.30092 0.72647 0.0
H134 H 0.90352 0.31153 0.70471 0.0
H135 H 0.59434 0.27823 0.72291 0.0
Zn136 Zn 0.89763 0.286 0.23515 0.0
C137 C 0.78069 0.24704 0.24273 0.0
N138 N 0.78556 0.25624 0.28526 0.0
C139 C 0.8257 0.26361 0.28849 0.0
N140 N 0.84519 0.25929 0.2496 0.0
N141 N 0.81673 0.24811 0.22068 0.0
C142 C 0.80911 0.29579 0.10203 0.0
O143 O 0.84047 0.31088 0.12331 0.0
O144 O 0.94743 0.28244 0.2777 0.0
Zn145 Zn 0.82523 0.2288 0.15997 0.0
N146 N 0.88471 0.34295 0.22852 0.0
C147 C 0.83672 0.39577 0.21462 0.0
C148 C 0.84572 0.3546 0.22003 0.0
C149 C 0.9151 0.3708 0.23196 0.0
N150 N 0.86708 0.42364 0.21793 0.0
C151 C 0.9062 0.41241 0.22671 0.0
O152 O 0.88281 0.23025 0.13663 0.0
C153 C 0.91714 0.24659 0.14425 0.0
O154 O 0.92301 0.26792 0.17839 0.0
H155 H 0.82182 0.33217 0.21706 0.0
H156 H 0.94591 0.36031 0.23773 0.0
C157 C 0.81735 0.15071 0.1175 0.0
C158 C 0.8063 0.10936 0.11408 0.0
C159 C 0.78 0.112 0.18652 0.0
C160 C 0.79168 0.15265 0.19005 0.0
N161 N 0.80921 0.17164 0.15525 0.0
N162 N 0.78744 0.09139 0.14874 0.0
H163 H 0.83199 0.1662 0.09046 0.0
C164 C 0.97506 0.25604 0.26894 0.0
O165 O 0.96595 0.22647 0.24153 0.0
O166 O 0.79421 0.26195 0.1147 0.0
H167 H 0.78718 0.16854 0.22058 0.0
H168 H 0.8059 0.40553 0.20764 0.0
H169 H 0.76554 0.09675 0.2138 0.0
Zn170 Zn 0.28949 0.13905 0.77423 0.0
C171 C 0.25309 0.25725 0.76347 0.0
N172 N 0.26295 0.25072 0.72135 0.0
C173 C 0.27016 0.2105 0.71963 0.0
N174 N 0.26504 0.19238 0.75896 0.0
N175 N 0.25381 0.22187 0.78687 0.0
C176 C 0.30134 0.2248 0.9079 0.0
O177 O 0.31508 0.19244 0.88713 0.0
O178 O 0.28529 0.08901 0.73168 0.0
Zn179 Zn 0.23381 0.21447 0.8477 0.0
N180 N 0.34671 0.14949 0.78276 0.0
C181 C 0.40052 0.1956 0.7986 0.0
C182 C 0.35926 0.18798 0.79222 0.0
C183 C 0.37373 0.1182 0.77934 0.0
N184 N 0.42749 0.16433 0.79573 0.0
C185 C 0.4155 0.1255 0.78643 0.0
O186 O 0.23036 0.15653 0.87044 0.0
C187 C 0.24603 0.12169 0.86321 0.0
O188 O 0.26854 0.11527 0.83009 0.0
H189 H 0.33746 0.21256 0.79496 0.0
H190 H 0.36241 0.0883 0.7709 0.0
C191 C 0.15889 0.23577 0.89155 0.0
C192 C 0.11834 0.2499 0.89437 0.0
C193 C 0.11958 0.26397 0.81801 0.0
C194 C 0.15922 0.24904 0.81526 0.0
N195 N 0.17848 0.23592 0.85208 0.0
N196 N 0.10015 0.26398 0.85725 0.0
H197 H 0.17485 0.22475 0.9202 0.0
C198 C 0.25788 0.06219 0.73924 0.0
O199 O 0.22789 0.07205 0.76582 0.0
O200 O 0.26873 0.24171 0.89434 0.0
H201 H 0.17413 0.24753 0.7838 0.0
H202 H 0.41105 0.22605 0.80613 0.0
H203 H 0.10409 0.27491 0.78904 0.0
Zn204 Zn 0.21648 0.803 0.15688 0.0
C205 C 0.20879 0.77356 0.28634 0.0
N206 N 0.24918 0.77964 0.28574 0.0
C207 C 0.25723 0.78593 0.24312 0.0
N208 N 0.22258 0.78448 0.21847 0.0
N209 N 0.19209 0.77598 0.24603 0.0
C210 C 0.06212 0.78264 0.26496 0.0
O211 O 0.07092 0.81129 0.23651 0.0
O212 O 0.24526 0.76769 0.11124 0.0
Zn213 Zn 0.13943 0.75073 0.23077 0.0
N214 N 0.23655 0.8589 0.15249 0.0
C215 C 0.26365 0.91815 0.18699 0.0
C216 C 0.24958 0.87826 0.1894 0.0
C217 C 0.23554 0.87875 0.11325 0.0
N218 N 0.26293 0.93777 0.14798 0.0
C219 C 0.24886 0.91955 0.11081 0.0
O220 O 0.11625 0.76956 0.17381 0.0
C221 C 0.12371 0.79008 0.13959 0.0
O222 O 0.15894 0.80472 0.1324 0.0
H223 H 0.24863 0.86328 0.22074 0.0
H224 H 0.22453 0.86285 0.08449 0.0
C225 C 0.11994 0.66622 0.22811 0.0
C226 C 0.12794 0.62437 0.22305 0.0
C227 C 0.19767 0.63941 0.21013 0.0
C228 C 0.18958 0.68081 0.2154 0.0
N229 N 0.15089 0.69339 0.22417 0.0
N230 N 0.16676 0.61223 0.21394 0.0
H231 H 0.08941 0.6774 0.23419 0.0
C232 C 0.22847 0.73481 0.09815 0.0
O233 O 0.19646 0.72125 0.11945 0.0
O234 O 0.08943 0.75583 0.27324 0.0
H235 H 0.21394 0.70267 0.21213 0.0
H236 H 0.2745 0.93367 0.21605 0.0
H237 H 0.22823 0.62893 0.20291 0.0
Zn238 Zn 0.7599 0.90392 0.79131 0.0
C239 C 0.77144 0.781 0.77165 0.0
N240 N 0.75987 0.79108 0.73086 0.0
C241 C 0.75845 0.83188 0.73177 0.0
N242 N 0.76882 0.84701 0.77145 0.0
N243 N 0.7774 0.81495 0.79692 0.0
C244 C 0.7308 0.79202 0.91468 0.0
O245 O 0.70489 0.79716 0.88236 0.0
O246 O 0.75504 0.95243 0.74676 0.0
Zn247 Zn 0.80285 0.81821 0.85634 0.0
N248 N 0.71058 0.90404 0.82596 0.0
C249 C 0.67857 0.89107 0.89445 0.0
C250 C 0.71237 0.88823 0.86697 0.0
C251 C 0.67628 0.92275 0.81113 0.0
N252 N 0.64464 0.91052 0.8801 0.0
C253 C 0.64239 0.92667 0.83908 0.0
O254 O 0.81907 0.87492 0.87746 0.0
C255 C 0.82033 0.91223 0.8664 0.0
O256 O 0.80313 0.9245 0.83168 0.0
H257 H 0.74005 0.8741 0.87843 0.0
H258 H 0.67645 0.93635 0.77888 0.0
C259 C 0.87772 0.7925 0.8937 0.0
C260 C 0.91718 0.77553 0.89476 0.0
C261 C 0.90814 0.75238 0.82152 0.0
C262 C 0.86979 0.77062 0.82019 0.0
N263 N 0.85488 0.78957 0.85654 0.0
N264 N 0.93091 0.75541 0.85851 0.0
H265 H 0.86522 0.80836 0.92182 0.0
C266 C 0.75208 0.98609 0.76813 0.0
O267 O 0.74975 0.98439 0.81107 0.0
O268 O 0.76877 0.79725 0.90796 0.0
H269 H 0.85269 0.77035 0.79008 0.0
H270 H 0.67961 0.87879 0.9273 0.0
H271 H 0.92018 0.73679 0.79301 0.0
C272 C 0.36974 0.2832 0.15418 0.0
C273 C 0.34576 0.25675 0.17919 0.0
C274 C 0.37327 0.27779 0.10846 0.0
C275 C 0.35189 0.24552 0.0877 0.0
C276 C 0.33179 0.21611 0.11383 0.0
C277 C 0.32904 0.22213 0.15927 0.0
C278 C 0.39624 0.30903 0.08207 0.0
C279 C 0.3089 0.18093 0.09345 0.0
C280 C 0.29711 0.26198 0.97962 0.0
C281 C 0.31878 0.23612 0.95125 0.0
C282 C 0.30903 0.26702 0.02352 0.0
C283 C 0.34394 0.24624 0.03945 0.0
C284 C 0.36776 0.22265 0.01009 0.0
C285 C 0.35471 0.21756 0.96645 0.0
C286 C 0.28256 0.29246 0.05358 0.0
C287 C 0.40572 0.20086 0.02527 0.0
H288 H 0.3822 0.31033 0.16947 0.0
H289 H 0.31016 0.2019 0.17867 0.0
H290 H 0.41267 0.29446 0.05431 0.0
H291 H 0.37436 0.33133 0.06819 0.0
H292 H 0.41848 0.32593 0.10266 0.0
H293 H 0.29947 0.15808 0.11826 0.0
H294 H 0.28113 0.19264 0.07694 0.0
H295 H 0.3278 0.16546 0.06824 0.0
H296 H 0.26944 0.2766 0.96825 0.0
H297 H 0.37194 0.19781 0.94469 0.0
H298 H 0.3013 0.31534 0.07121 0.0
H299 H 0.26827 0.27258 0.07862 0.0
H300 H 0.258 0.30866 0.03559 0.0
H301 H 0.42371 0.22037 0.04784 0.0
H302 H 0.42536 0.19163 0.99724 0.0
H303 H 0.39699 0.17299 0.04347 0.0
C304 C 0.26274 0.73917 0.02478 0.0
C305 C 0.23883 0.71712 0.05452 0.0
C306 C 0.26605 0.72701 0.98067 0.0
C307 C 0.2455 0.6915 0.96589 0.0
C308 C 0.22411 0.6673 0.99657 0.0
C309 C 0.22072 0.68056 0.0404 0.0
C310 C 0.28921 0.75388 0.94921 0.0
C311 C 0.20266 0.62873 0.98268 0.0
C312 C 0.21353 0.70518 0.84793 0.0
C313 C 0.24714 0.689 0.82547 0.0
C314 C 0.2106 0.70273 0.89372 0.0
C315 C 0.24213 0.68346 0.9177 0.0
C316 C 0.27346 0.66255 0.89464 0.0
C317 C 0.27572 0.66573 0.84857 0.0
C318 C 0.17627 0.72506 0.91655 0.0
C319 C 0.30691 0.64042 0.9187 0.0
H320 H 0.27695 0.76735 0.03527 0.0
H321 H 0.20249 0.66302 0.06319 0.0
H322 H 0.31138 0.73553 0.93003 0.0
H323 H 0.26763 0.76788 0.92561 0.0
H324 H 0.30592 0.77869 0.96631 0.0
H325 H 0.19538 0.60906 0.0112 0.0
H326 H 0.17369 0.63668 0.96602 0.0
H327 H 0.22152 0.61107 0.95909 0.0
H328 H 0.19163 0.72353 0.83006 0.0
H329 H 0.30209 0.6537 0.83137 0.0
H330 H 0.18839 0.75304 0.9324 0.0
H331 H 0.16274 0.70591 0.94265 0.0
H332 H 0.15176 0.7341 0.89341 0.0
H333 H 0.3297 0.66284 0.93053 0.0
H334 H 0.32274 0.61816 0.89704 0.0
H335 H 0.29469 0.62416 0.94771 0.0
C336 C 0.67568 0.79434 0.97229 0.0
C337 C 0.71614 0.78559 0.96033 0.0
C338 C 0.66323 0.7935 0.01656 0.0
C339 C 0.69179 0.78325 0.04957 0.0
C340 C 0.73211 0.77246 0.03731 0.0
C341 C 0.74377 0.77395 0.99305 0.0
C342 C 0.6201 0.80541 0.0281 0.0
C343 C 0.76357 0.76077 0.0712 0.0
C344 C 0.69401 0.82067 0.1668 0.0
C345 C 0.68611 0.78461 0.18966 0.0
C346 C 0.69127 0.82207 0.12085 0.0
C347 C 0.68119 0.7862 0.09724 0.0
C348 C 0.66859 0.75111 0.12061 0.0
C349 C 0.67111 0.75079 0.16672 0.0
C350 C 0.70402 0.86051 0.09756 0.0
C351 C 0.65726 0.7123 0.097 0.0
H352 H 0.65411 0.80351 0.9473 0.0
H353 H 0.77499 0.76681 0.98416 0.0
H354 H 0.60682 0.78359 0.05185 0.0
H355 H 0.62014 0.83586 0.04402 0.0
H356 H 0.60018 0.8068 0.99871 0.0
H357 H 0.79274 0.7507 0.0561 0.0
H358 H 0.76989 0.78722 0.0929 0.0
H359 H 0.75184 0.73579 0.09212 0.0
H360 H 0.70626 0.84664 0.18448 0.0
H361 H 0.66581 0.72259 0.18429 0.0
H362 H 0.68375 0.86673 0.06926 0.0
H363 H 0.73546 0.85668 0.08471 0.0
H364 H 0.70361 0.88736 0.11986 0.0
H365 H 0.63845 0.71882 0.06764 0.0
H366 H 0.64031 0.69111 0.11871 0.0
H367 H 0.68546 0.69673 0.08572 0.0
C368 C 0.74945 0.36891 0.8575 0.0
C369 C 0.77597 0.34578 0.83139 0.0
C370 C 0.75454 0.37054 0.90336 0.0
C371 C 0.78666 0.34822 0.92316 0.0
C372 C 0.81598 0.32866 0.89616 0.0
C373 C 0.81017 0.32763 0.85062 0.0
C374 C 0.7232 0.39267 0.93073 0.0
C375 C 0.85104 0.30489 0.91553 0.0
C376 C 0.81518 0.34978 0.04416 0.0
C377 C 0.79719 0.31349 0.05903 0.0
C378 C 0.80987 0.36317 1.00073 0.0
C379 C 0.78637 0.33952 0.97127 0.0
C380 C 0.76605 0.30428 0.9869 0.0
C381 C 0.77152 0.29186 0.03056 0.0
C382 C 0.83138 0.4013 0.9858 0.0
C383 C 0.74058 0.27812 0.95673 0.0
H384 H 0.72259 0.38236 0.8427 0.0
H385 H 0.83036 0.30931 0.83037 0.0
H386 H 0.70111 0.37031 0.94405 0.0
H387 H 0.73769 0.40838 0.95894 0.0
H388 H 0.70607 0.41541 0.91106 0.0
H389 H 0.8738 0.29593 0.89028 0.0
H390 H 0.86664 0.32299 0.94126 0.0
H391 H 0.8392 0.2768 0.93119 0.0
H392 H 0.83481 0.36698 0.06596 0.0
H393 H 0.75732 0.26392 0.04167 0.0
H394 H 0.8112 0.41999 0.96469 0.0
H395 H 0.85849 0.39277 0.96601 0.0
H396 H 0.84173 0.4202 0.01395 0.0
H397 H 0.71773 0.29706 0.93937 0.0
H398 H 0.72438 0.25353 0.97459 0.0
H399 H 0.76046 0.26388 0.93148 0.0
C400 C 0.82503 0.31283 0.34935 0.0
C401 C 0.84302 0.27841 0.33012 0.0
C402 C 0.82578 0.31878 0.39493 0.0
C403 C 0.84494 0.28942 0.42199 0.0
C404 C 0.86706 0.25701 0.40222 0.0
C405 C 0.8657 0.25177 0.35633 0.0
C406 C 0.80219 0.35411 0.41424 0.0
C407 C 0.88877 0.22559 0.42965 0.0
C408 C 0.84705 0.31848 0.54307 0.0
C409 C 0.81076 0.30072 0.55834 0.0
C410 C 0.86017 0.31299 0.49946 0.0
C411 C 0.83623 0.28957 0.47019 0.0
C412 C 0.80088 0.26962 0.48615 0.0
C413 C 0.78874 0.27524 0.53 0.0
C414 C 0.89841 0.33415 0.48419 0.0
C415 C 0.77437 0.2443 0.45619 0.0
H416 H 0.80701 0.33311 0.32907 0.0
H417 H 0.87898 0.22471 0.34158 0.0
H418 H 0.77396 0.34255 0.42993 0.0
H419 H 0.82029 0.36971 0.43995 0.0
H420 H 0.79347 0.3768 0.38895 0.0
H421 H 0.91127 0.20798 0.40997 0.0
H422 H 0.90467 0.24013 0.4577 0.0
H423 H 0.86611 0.20394 0.4432 0.0
H424 H 0.86454 0.33799 0.56473 0.0
H425 H 0.76076 0.26128 0.54137 0.0
H426 H 0.89004 0.361 0.46408 0.0
H427 H 0.91703 0.31357 0.46327 0.0
H428 H 0.91732 0.34481 0.51215 0.0
H429 H 0.76033 0.2642 0.431 0.0
H430 H 0.74962 0.22848 0.47424 0.0
H431 H 0.79303 0.22114 0.43876 0.0
C432 C 0.2586 0.16716 0.654 0.0
C433 C 0.28492 0.19158 0.67879 0.0
C434 C 0.263 0.16444 0.60809 0.0
C435 C 0.29411 0.18708 0.58696 0.0
C436 C 0.32351 0.20772 0.61272 0.0
C437 C 0.31853 0.20962 0.65834 0.0
C438 C 0.23189 0.14083 0.58207 0.0
C439 C 0.3575 0.23195 0.59193 0.0
C440 C 0.32082 0.18651 0.46557 0.0
C441 C 0.30121 0.22215 0.45117 0.0
C442 C 0.31632 0.17263 0.50892 0.0
C443 C 0.29229 0.19538 0.53884 0.0
C444 C 0.27033 0.22985 0.52364 0.0
C445 C 0.27477 0.24257 0.47994 0.0
C446 C 0.33929 0.1351 0.52324 0.0
C447 C 0.24439 0.25516 0.55434 0.0
H448 H 0.23225 0.15365 0.66973 0.0
H449 H 0.33865 0.22883 0.6776 0.0
H450 H 0.20846 0.16214 0.56935 0.0
H451 H 0.24625 0.1254 0.55352 0.0
H452 H 0.21636 0.11765 0.60261 0.0
H453 H 0.38044 0.24209 0.61641 0.0
H454 H 0.3732 0.21371 0.56632 0.0
H455 H 0.34454 0.25936 0.57583 0.0
H456 H 0.34098 0.17022 0.44342 0.0
H457 H 0.25941 0.27004 0.46915 0.0
H458 H 0.32054 0.11632 0.54572 0.0
H459 H 0.36713 0.14437 0.54128 0.0
H460 H 0.34872 0.11605 0.4948 0.0
H461 H 0.22246 0.23549 0.57207 0.0
H462 H 0.22708 0.27925 0.53683 0.0
H463 H 0.26412 0.26998 0.57925 0.0
C464 C 0.19482 0.72763 0.3482 0.0
C465 C 0.18758 0.76505 0.32775 0.0
C466 C 0.19282 0.72405 0.39406 0.0
C467 C 0.18412 0.759 0.41991 0.0
C468 C 0.17225 0.79562 0.39892 0.0
C469 C 0.17412 0.79818 0.35293 0.0
C470 C 0.20482 0.68412 0.41486 0.0
C471 C 0.16245 0.83357 0.42496 0.0
C472 C 0.17935 0.74658 0.54435 0.0
C473 C 0.22002 0.75413 0.55624 0.0
C474 C 0.16672 0.7489 0.50027 0.0
C475 C 0.19534 0.75936 0.46741 0.0
C476 C 0.23598 0.76869 0.47959 0.0
C477 C 0.24779 0.7658 0.52369 0.0
C478 C 0.12324 0.73855 0.48871 0.0
C479 C 0.26749 0.78055 0.44581 0.0
H480 H 0.20596 0.70222 0.32872 0.0
H481 H 0.16939 0.82738 0.33714 0.0
H482 H 0.2366 0.68629 0.42708 0.0
H483 H 0.18493 0.67721 0.44329 0.0
H484 H 0.20318 0.65843 0.39111 0.0
H485 H 0.1461 0.8565 0.4048 0.0
H486 H 0.14363 0.82625 0.45411 0.0
H487 H 0.19125 0.84745 0.43681 0.0
H488 H 0.15767 0.73736 0.56923 0.0
H489 H 0.27919 0.77193 0.53254 0.0
H490 H 0.12255 0.70924 0.47048 0.0
H491 H 0.11005 0.76214 0.46694 0.0
H492 H 0.10367 0.73563 0.51827 0.0
H493 H 0.27262 0.75482 0.42274 0.0
H494 H 0.29716 0.78884 0.46089 0.0
H495 H 0.25644 0.80683 0.42632 0.0
C496 C 0.7869 0.87006 0.66919 0.0
C497 C 0.7525 0.85475 0.69078 0.0
C498 C 0.78792 0.87275 0.62309 0.0
C499 C 0.75359 0.86011 0.59834 0.0
C500 C 0.7171 0.8498 0.62058 0.0
C501 C 0.71715 0.8469 0.66652 0.0
C502 C 0.82733 0.88437 0.60097 0.0
C503 C 0.67941 0.83697 0.59581 0.0
C504 C 0.74753 0.86654 0.47336 0.0
C505 C 0.75648 0.82616 0.4611 0.0
C506 C 0.74795 0.87873 0.51774 0.0
C507 C 0.75783 0.84997 0.55063 0.0
C508 C 0.76898 0.80979 0.53812 0.0
C509 C 0.76801 0.7984 0.4937 0.0
C510 C 0.73579 0.92177 0.52951 0.0
C511 C 0.78025 0.77812 0.57189 0.0
H512 H 0.81456 0.87531 0.68779 0.0
H513 H 0.69074 0.83443 0.68313 0.0
H514 H 0.84337 0.8563 0.59008 0.0
H515 H 0.82157 0.90325 0.57151 0.0
H516 H 0.84777 0.90136 0.62355 0.0
H517 H 0.65197 0.83689 0.61719 0.0
H518 H 0.67377 0.85751 0.56764 0.0
H519 H 0.68387 0.80572 0.5826 0.0
H520 H 0.7384 0.88823 0.44849 0.0
H521 H 0.77524 0.76723 0.48461 0.0
H522 H 0.75701 0.93481 0.55411 0.0
H523 H 0.70494 0.92159 0.54445 0.0
H524 H 0.73514 0.94196 0.50035 0.0
H525 H 0.79092 0.74919 0.55667 0.0
H526 H 0.75339 0.77134 0.59276 0.0
H527 H 0.80464 0.78988 0.59367 0.0
C528 C 0.4344 0.06121 0.30933 0.0
C529 C 0.43213 0.09189 0.27763 0.0
C530 C 0.46504 0.03153 0.30765 0.0
C531 C 0.49367 0.03207 0.27289 0.0
C532 C 0.49051 0.0619 0.23964 0.0
C533 C 0.45988 0.09174 0.24257 0.0
C534 C 0.4676 1.00043 0.344 0.0
C535 C 0.5198 0.06263 0.20146 0.0
C536 C 0.59299 0.98176 0.3041 0.0
C537 C 0.58631 0.94139 0.29058 0.0
C538 C 0.56418 1.01237 0.29595 0.0
C539 C 0.52795 1.00252 0.27318 0.0
C540 C 0.52246 0.96273 0.25623 0.0
C541 C 0.55142 0.93249 0.26556 0.0
C542 C 0.57114 0.05446 0.31473 0.0
C543 C 0.48459 0.95115 0.23103 0.0
H544 H 0.41306 0.06133 0.3365 0.0
H545 H 0.45768 0.11493 0.21746 0.0
H546 H 0.46611 0.96917 0.33016 0.0
H547 H 0.49724 1.00335 0.36124 0.0
H548 H 0.4427 1.00402 0.36843 0.0
H549 H 0.51122 0.08578 0.17661 0.0
H550 H 0.55098 0.06952 0.21334 0.0
H551 H 0.52094 0.03223 0.18543 0.0
H552 H 0.61999 0.98916 0.32296 0.0
H553 H 0.54511 0.90155 0.2553 0.0
H554 H 0.54934 0.05996 0.34198 0.0
H555 H 0.56549 0.07811 0.28956 0.0
H556 H 0.60258 0.0583 0.32755 0.0
H557 H 0.45931 0.94546 0.2544 0.0
H558 H 0.48938 0.923 0.21135 0.0
H559 H 0.47494 0.97605 0.20879 0.0
C560 C 0.97319 0.44311 0.701 0.0
C561 C 0.94066 0.44362 0.73072 0.0
C562 C 1.00278 0.47378 0.70153 0.0
C563 C 1.00025 0.50534 0.73321 0.0
C564 C 0.96796 0.5056 0.76403 0.0
C565 C 0.93827 0.47484 0.7622 0.0
C566 C 0.0364 0.47273 0.66763 0.0
C567 C 0.96477 0.53832 0.79878 0.0
C568 C 0.10125 0.55952 0.7451 0.0
C569 C 0.09606 0.59257 0.71637 0.0
C570 C 0.06907 0.53263 0.7539 0.0
C571 C 0.03112 0.53836 0.73278 0.0
C572 C 0.02486 0.57298 0.7061 0.0
C573 C 0.0573 0.59977 0.69849 0.0
C574 C 0.07673 0.49643 0.78324 0.0
C575 C 0.98493 0.58002 0.68269 0.0
H576 H 0.97501 0.41912 0.67654 0.0
H577 H 0.91354 0.47493 0.78579 0.0
H578 H 0.03582 0.50115 0.64799 0.0
H579 H 0.06652 0.47114 0.68402 0.0
H580 H 0.03365 0.44631 0.64496 0.0
H581 H 0.93934 0.53265 0.82204 0.0
H582 H 0.99367 0.54023 0.81753 0.0
H583 H 0.95984 0.56841 0.78315 0.0
H584 H 0.1309 0.55284 0.75881 0.0
H585 H 0.05273 0.6254 0.67669 0.0
H586 H 0.08055 0.46863 0.76282 0.0
H587 H 0.05044 0.49128 0.80544 0.0
H588 H 0.10467 0.50038 0.80335 0.0
H589 H 0.98121 0.55674 0.65653 0.0
H590 H 0.98336 0.61069 0.66743 0.0
H591 H 0.95891 0.57671 0.70562 0.0
C592 C 0.97172 0.43982 0.25743 0.0
C593 C 0.93838 0.44393 0.22897 0.0
C594 C 1.00251 0.46939 0.25882 0.0
C595 C 0.99989 0.50377 0.23104 0.0
C596 C 0.96603 0.5084 0.20279 0.0
C597 C 0.93556 0.47853 0.2023 0.0
C598 C 0.038 0.46368 0.28973 0.0
C599 C 0.9624 0.54448 0.17238 0.0
C600 C 0.06231 0.59852 0.25501 0.0
C601 C 0.09522 0.59348 0.22605 0.0
C602 C 0.03127 0.56927 0.25747 0.0
C603 C 0.03322 0.53427 0.23028 0.0
C604 C 0.06656 0.52881 0.20138 0.0
C605 C 0.09728 0.55838 0.19983 0.0
C606 C 0.99636 0.57586 0.28904 0.0
C607 C 0.06946 0.49205 0.17158 0.0
H608 H 0.97361 0.4137 0.27899 0.0
H609 H 0.9099 0.48183 0.18023 0.0
H610 H 0.06678 0.46124 0.27079 0.0
H611 H 0.04083 0.49058 0.31164 0.0
H612 H 0.03477 0.43592 0.31022 0.0
H613 H 0.93373 0.54393 0.15305 0.0
H614 H 0.96346 0.57331 0.19144 0.0
H615 H 0.98857 0.54481 0.14931 0.0
H616 H 0.061 0.62505 0.27622 0.0
H617 H 0.12261 0.55437 0.17737 0.0
H618 H 0.99412 0.54967 0.31185 0.0
H619 H 0.96719 0.57752 0.27078 0.0
H620 H 0.99985 0.60428 0.30858 0.0
H621 H 0.06899 0.46367 0.19124 0.0
H622 H 0.09761 0.4922 0.1513 0.0
H623 H 0.04269 0.49112 0.14939 0.0
C624 C 0.43639 0.05152 0.79319 0.0
C625 C 0.44668 0.09247 0.78542 0.0
C626 C 0.4666 0.02137 0.79661 0.0
C627 C 0.50812 0.03248 0.79319 0.0
C628 C 0.51871 0.07325 0.78355 0.0
C629 C 0.4879 0.10264 0.77959 0.0
C630 C 0.45409 0.97804 0.80631 0.0
C631 C 0.56272 0.08636 0.77978 0.0
C632 C 0.58597 0.9738 0.85932 0.0
C633 C 0.60627 0.95129 0.82681 0.0
C634 C 0.55349 0.99968 0.8488 0.0
C635 C 0.54058 1.0028 0.80468 0.0
C636 C 0.5599 0.97909 0.77182 0.0
C637 C 0.59268 0.95365 0.78325 0.0
C638 C 0.53382 0.02466 0.88478 0.0
C639 C 0.54641 0.98114 0.72458 0.0
H640 H 0.40499 0.04293 0.79864 0.0
H641 H 0.49632 0.13398 0.7731 0.0
H642 H 0.47151 0.95624 0.78564 0.0
H643 H 0.461 0.97091 0.84105 0.0
H644 H 0.421 0.97306 0.80074 0.0
H645 H 0.56575 0.1184 0.76857 0.0
H646 H 0.5778 0.08351 0.81218 0.0
H647 H 0.57939 0.06628 0.75656 0.0
H648 H 0.59636 0.97225 0.89301 0.0
H649 H 0.60758 0.93563 0.75807 0.0
H650 H 0.50055 1.01881 0.88575 0.0
H651 H 0.53806 0.05761 0.87803 0.0
H652 H 0.54678 1.01785 0.91759 0.0
H653 H 0.51316 0.97541 0.72217 0.0
H654 H 0.56272 0.95872 0.70354 0.0
H655 H 0.55202 1.01214 0.71151 0.0
C656 C 0.53682 0.23127 0.19848 0.0
C657 C 0.52191 0.25473 0.23357 0.0
C658 C 0.5792 0.22918 0.1894 0.0
C659 C 0.60733 0.25091 0.21612 0.0
C660 C 0.59183 0.27654 0.2498 0.0
C661 C 0.54965 0.27784 0.25821 0.0
C662 C 0.59397 0.20141 0.15325 0.0
C663 C 0.62004 0.30043 0.27932 0.0
C664 C 0.71332 0.21271 0.24662 0.0
C665 C 0.73904 0.24002 0.22465 0.0
C666 C 0.67073 0.21359 0.24098 0.0
C667 C 0.65274 0.24331 0.21338 0.0
C668 C 0.67879 0.26921 0.18871 0.0
C669 C 0.7216 0.26729 0.19467 0.0
C670 C 0.64482 0.18483 0.26763 0.0
C671 C 0.66139 0.30124 0.15874 0.0
H672 H 0.51576 0.21242 0.18007 0.0
H673 H 0.53843 0.29537 0.28594 0.0
H674 H 0.61869 0.21611 0.13417 0.0
H675 H 0.60667 0.17317 0.16782 0.0
H676 H 0.56894 0.19276 0.13057 0.0
H677 H 0.60324 0.32206 0.30087 0.0
H678 H 0.63746 0.27909 0.30039 0.0
H679 H 0.6424 0.31782 0.25953 0.0
H680 H 0.72646 0.19207 0.27047 0.0
H681 H 0.74099 0.28943 0.17865 0.0
H682 H 0.62094 0.17071 0.24685 0.0
H683 H 0.62918 0.20209 0.29412 0.0
H684 H 0.66321 0.1602 0.28287 0.0
H685 H 0.63559 0.2888 0.13942 0.0
H686 H 0.68478 0.3133 0.13584 0.0
H687 H 0.64949 0.32696 0.17873 0.0
C688 C 0.26316 0.31596 0.817 0.0
C689 C 0.24494 0.29982 0.77919 0.0
C690 C 0.26435 0.35863 0.8246 0.0
C691 C 0.24826 0.386 0.79289 0.0
C692 C 0.22767 0.36952 0.75607 0.0
C693 C 0.22598 0.32699 0.75002 0.0
C694 C 0.28535 0.3744 0.86516 0.0
C695 C 0.21052 0.39681 0.72079 0.0
C696 C 0.23818 0.50273 0.80454 0.0
C697 C 0.27408 0.51632 0.78406 0.0
C698 C 0.23028 0.46054 0.81024 0.0
C699 C 0.2583 0.43099 0.79396 0.0
C700 C 0.29495 0.44474 0.77434 0.0
C701 C 0.30253 0.48679 0.77024 0.0
C702 C 0.19123 0.44774 0.83231 0.0
C703 C 0.32543 0.41498 0.75525 0.0
H704 H 0.27925 0.29575 0.83886 0.0
H705 H 0.21198 0.31495 0.72051 0.0
H706 H 0.31634 0.38517 0.85649 0.0
H707 H 0.26836 0.40066 0.87925 0.0
H708 H 0.28831 0.35036 0.89055 0.0
H709 H 0.19262 0.37954 0.69606 0.0
H710 H 0.19066 0.42062 0.73537 0.0
H711 H 0.23588 0.41256 0.70372 0.0
H712 H 0.21581 0.52496 0.81534 0.0
H713 H 0.33034 0.49644 0.75418 0.0
H714 H 0.19645 0.42112 0.85398 0.0
H715 H 0.16868 0.43862 0.80707 0.0
H716 H 0.17779 0.47296 0.85199 0.0
H717 H 0.3352 0.39284 0.78054 0.0
H718 H 0.35294 0.43039 0.74206 0.0
H719 H 0.31099 0.3974 0.72828 0.0
C720 C 0.50358 0.79569 0.20892 0.0
C721 C 0.51645 0.76142 0.23285 0.0
C722 C 0.46161 0.80334 0.20116 0.0
C723 C 0.43154 0.77675 0.21862 0.0
C724 C 0.44458 0.74157 0.24158 0.0
C725 C 0.48645 0.73418 0.24785 0.0
C726 C 0.44939 0.84053 0.17538 0.0
C727 C 0.41417 0.71266 0.26184 0.0
C728 C 0.3269 0.81289 0.257 0.0
C729 C 0.30027 0.79244 0.22836 0.0
C730 C 0.36952 0.81041 0.25232 0.0
C731 C 0.38665 0.78726 0.21756 0.0
C732 C 0.35989 0.76943 0.18622 0.0
C733 C 0.31708 0.77172 0.19233 0.0
C734 C 0.39612 0.8296 0.28709 0.0
C735 C 0.37638 0.74544 0.14787 0.0
H736 H 0.52619 0.81705 0.19708 0.0
H737 H 0.49555 0.7076 0.26645 0.0
H738 H 0.42655 0.83226 0.15006 0.0
H739 H 0.43492 0.8632 0.19753 0.0
H740 H 0.47592 0.85512 0.15915 0.0
H741 H 0.42908 0.68595 0.27742 0.0
H742 H 0.39604 0.72897 0.28717 0.0
H743 H 0.39259 0.70144 0.23662 0.0
H744 H 0.3143 0.82889 0.2851 0.0
H745 H 0.29715 0.75467 0.17087 0.0
H746 H 0.42073 0.84786 0.27188 0.0
H747 H 0.41086 0.80528 0.30675 0.0
H748 H 0.37849 0.84962 0.30965 0.0
H749 H 0.40363 0.76056 0.13379 0.0
H750 H 0.35312 0.74166 0.12172 0.0
H751 H 0.38578 0.71471 0.1591 0.0
C752 C 0.78713 0.70958 0.74878 0.0
C753 C 0.77799 0.73693 0.78307 0.0
C754 C 0.78659 0.66711 0.75474 0.0
C755 C 0.77672 0.65072 0.7963 0.0
C756 C 0.77007 0.67807 0.83192 0.0
C757 C 0.77079 0.7208 0.82485 0.0
C758 C 0.79422 0.63976 0.71559 0.0
C759 C 0.76012 0.66226 0.87701 0.0
C760 C 0.72444 0.54741 0.78503 0.0
C761 C 0.75692 0.51976 0.78969 0.0
C762 C 0.72998 0.58974 0.79016 0.0
C763 C 0.7691 0.60549 0.8003 0.0
C764 C 0.80151 0.5776 0.80791 0.0
C765 C 0.79509 0.53518 0.80249 0.0
C766 C 0.69437 0.61782 0.78161 0.0
C767 C 0.8437 0.59259 0.81903 0.0
H768 H 0.79342 0.72142 0.71633 0.0
H769 H 0.76369 0.74127 0.85142 0.0
H770 H 0.8176 0.61647 0.72352 0.0
H771 H 0.76577 0.62334 0.70696 0.0
H772 H 0.80455 0.65704 0.68637 0.0
H773 H 0.76187 0.68662 0.90234 0.0
H774 H 0.72878 0.64961 0.87708 0.0
H775 H 0.78122 0.6372 0.88607 0.0
H776 H 0.69475 0.53609 0.77539 0.0
H777 H 0.82056 0.51437 0.80601 0.0
H778 H 0.69967 0.63475 0.75068 0.0
H779 H 0.69142 0.64062 0.80836 0.0
H780 H 0.66515 0.60099 0.77864 0.0
H781 H 0.85855 0.60435 0.78893 0.0
H782 H 0.8631 0.56787 0.83257 0.0
H783 H 0.84228 0.618 0.84308 0.0
C784 C 0.03254 0.29739 0.30352 0.0
C785 C 1.01897 0.26221 0.28148 0.0
C786 C 0.07469 0.3053 0.30928 0.0
C787 C 0.10424 0.27785 0.29197 0.0
C788 C 0.09054 0.24164 0.27126 0.0
C789 C 0.04849 0.23419 0.26669 0.0
C790 C 0.08752 0.34396 0.33227 0.0
C791 C 0.12035 0.21162 0.25146 0.0
C792 C 0.20748 0.31234 0.24819 0.0
C793 C 0.23512 0.29411 0.2774 0.0
C794 C 0.16502 0.30959 0.25417 0.0
C795 C 0.14909 0.28836 0.29076 0.0
C796 C 0.17685 0.27257 0.32228 0.0
C797 C 0.21946 0.2751 0.31491 0.0
C798 C 0.13727 0.3266 0.2192 0.0
C799 C 0.16162 0.25059 0.36238 0.0
H800 H 1.01031 0.31944 0.31504 0.0
H801 H 0.0388 0.20685 0.24964 0.0
H802 H 0.11349 0.33805 0.35467 0.0
H803 H 0.09775 0.36655 0.30764 0.0
H804 H 0.06207 0.35768 0.35135 0.0
H805 H 0.10505 0.18397 0.23837 0.0
H806 H 0.13725 0.2264 0.22429 0.0
H807 H 0.14308 0.20205 0.27628 0.0
H808 H 0.21917 0.32688 0.21889 0.0
H809 H 0.24014 0.25954 0.33673 0.0
H810 H 0.11305 0.34572 0.23415 0.0
H811 H 0.12206 0.30115 0.20164 0.0
H812 H 0.15407 0.34524 0.19481 0.0
H813 H 0.13522 0.26693 0.37698 0.0
H814 H 0.18583 0.24746 0.38761 0.0
H815 H 0.15119 0.21964 0.35296 0.0
C816 C 0.29931 1.0031 0.70767 0.0
C817 C 0.26294 1.01821 0.72607 0.0
C818 C 0.30583 0.96065 0.70196 0.0
C819 C 0.27556 0.93234 0.7154 0.0
C820 C 0.23818 0.94766 0.73208 0.0
C821 C 0.23232 0.99 0.73692 0.0
C822 C 0.34596 0.9461 0.68349 0.0
C823 C 0.20499 0.91917 0.74737 0.0
C824 C 0.27168 0.81742 0.6897 0.0
C825 C 0.28526 0.80057 0.72925 0.0
C826 C 0.27113 0.86021 0.68309 0.0
C827 C 0.28401 0.88701 0.71713 0.0
C828 C 0.30036 0.86985 0.75589 0.0
C829 C 0.30085 0.82724 0.76131 0.0
C830 C 0.25424 0.87671 0.64077 0.0
C831 C 0.31452 0.89654 0.79333 0.0
H832 H 0.32336 0.02429 0.69925 0.0
H833 H 0.204 1.00091 0.75105 0.0
H834 H 0.36521 0.93414 0.71043 0.0
H835 H 0.34117 0.9209 0.65969 0.0
H836 H 0.36284 0.97107 0.66701 0.0
H837 H 0.17669 0.93568 0.75677 0.0
H838 H 0.19748 0.89685 0.72123 0.0
H839 H 0.21585 0.90169 0.77619 0.0
H840 H 0.25885 0.7976 0.66522 0.0
H841 H 0.31158 0.81474 0.79209 0.0
H842 H 0.27323 0.90228 0.62867 0.0
H843 H 0.22307 0.88876 0.64653 0.0
H844 H 0.25256 0.85281 0.61493 0.0
H845 H 0.33598 0.92009 0.78136 0.0
H846 H 0.32979 0.87875 0.81955 0.0
H847 H 0.28795 0.91264 0.8079 0.0
C848 C 0.81904 0.77182 0.32365 0.0
C849 C 0.80135 0.75659 0.28514 0.0
C850 C 0.862 0.77251 0.32914 0.0
C851 C 0.888 0.75811 0.29503 0.0
C852 C 0.86996 0.74012 0.25751 0.0
C853 C 0.82727 0.73949 0.25321 0.0
C854 C 0.87951 0.79104 0.37027 0.0
C855 C 0.89575 0.7243 0.22006 0.0
C856 C 0.99008 0.80862 0.26924 0.0
C857 C 1.01869 0.77832 0.28017 0.0
C858 C 0.94797 0.80319 0.27614 0.0
C859 C 0.93332 0.76659 0.29505 0.0
C860 C 0.96215 0.73677 0.30862 0.0
C861 C 1.00434 0.74285 0.30083 0.0
C862 C 0.91892 0.83583 0.26057 0.0
C863 C 0.94839 0.69748 0.3294 0.0
H864 H 0.79969 0.78566 0.3481 0.0
H865 H 0.81408 0.72736 0.22332 0.0
H866 H 0.90543 0.77249 0.38245 0.0
H867 H 0.89131 0.82194 0.36291 0.0
H868 H 0.85626 0.79377 0.39664 0.0
H869 H 0.87734 0.7081 0.19494 0.0
H870 H 0.91156 0.75016 0.204 0.0
H871 H 0.91952 0.70319 0.23237 0.0
H872 H 1.00044 0.83627 0.25343 0.0
H873 H 0.02585 0.71906 0.30937 0.0
H874 H 0.89746 0.84442 0.28716 0.0
H875 H 0.90051 0.82388 0.23286 0.0
H876 H 0.93504 0.86369 0.24942 0.0
H877 H 0.92341 0.70314 0.35324 0.0
H878 H 0.97383 0.68172 0.34641 0.0
H879 H 0.93646 0.67675 0.30366 0.0
C880 C 0.70701 0.21803 0.74744 0.0
C881 C 0.73564 0.24245 0.72571 0.0
C882 C 0.70729 0.17527 0.74321 0.0
C883 C 0.7376 0.15595 0.71724 0.0
C884 C 0.76423 0.18073 0.69198 0.0
C885 C 0.76301 0.22369 0.69659 0.0
C886 C 0.6777 0.15071 0.77028 0.0
C887 C 0.79664 0.16187 0.66331 0.0
C888 C 0.77526 0.05802 0.77041 0.0
C889 C 0.75381 0.02747 0.74789 0.0
C890 C 0.772 0.09932 0.75894 0.0
C891 C 0.74624 0.11115 0.72392 0.0
C892 C 0.72617 0.08024 0.69926 0.0
C893 C 0.73021 0.03868 0.71149 0.0
C894 C 0.79437 0.13057 0.7863 0.0
C895 C 0.69858 0.09112 0.66158 0.0
H896 H 0.68612 0.23227 0.77045 0.0
H897 H 0.7859 0.24217 0.68052 0.0
H898 H 0.66466 0.12541 0.75063 0.0
H899 H 0.69403 0.13703 0.7985 0.0
H900 H 0.65232 0.16976 0.78317 0.0
H901 H 0.8086 0.184 0.639 0.0
H902 H 0.82237 0.15153 0.68411 0.0
H903 H 0.78463 0.13482 0.64565 0.0
H904 H 0.7937 0.04965 0.79846 0.0
H905 H 0.71312 1.01542 0.69419 0.0
H906 H 0.77206 0.14916 0.80509 0.0
H907 H 0.81179 0.15158 0.76493 0.0
H908 H 0.81584 0.1163 0.80987 0.0
H909 H 0.66917 0.10268 0.67465 0.0
H910 H 0.69222 0.06432 0.64033 0.0
H911 H 0.71217 0.11565 0.64134 0.0
C912 C 0.33462 0.44559 0.46051 0.0
C913 C 0.29808 0.44877 0.43676 0.0
C914 C 0.34262 0.4716 0.49633 0.0
C915 C 0.31319 0.50104 0.50901 0.0
C916 C 0.27603 0.5038 0.48558 0.0
C917 C 0.26913 0.47792 0.44967 0.0
C918 C 0.38275 0.46799 0.52016 0.0
C919 C 0.24353 0.53435 0.49825 0.0
C920 C 0.30577 0.54793 0.62249 0.0
C921 C 0.31766 0.58838 0.61443 0.0
C922 C 0.3068 0.51831 0.58919 0.0
C923 C 0.32049 0.52915 0.54679 0.0
C924 C 0.33597 0.56888 0.53949 0.0
C925 C 0.33422 0.59809 0.57333 0.0
C926 C 0.29004 0.47639 0.59861 0.0
C927 C 0.35177 0.58146 0.49507 0.0
H928 H 0.35755 0.42372 0.4503 0.0
H929 H 0.24082 0.48051 0.43157 0.0
H930 H 0.39841 0.49793 0.52083 0.0
H931 H 0.37731 0.45898 0.55469 0.0
H932 H 0.40335 0.44518 0.50471 0.0
H933 H 0.21595 0.53193 0.47731 0.0
H934 H 0.23439 0.52977 0.53292 0.0
H935 H 0.25576 0.56575 0.49549 0.0
H936 H 0.29335 0.53979 0.65423 0.0
H937 H 0.34394 0.62905 0.56681 0.0
H938 H 0.31029 0.45242 0.58493 0.0
H939 H 0.25987 0.47308 0.58257 0.0
H940 H 0.28618 0.47097 0.63432 0.0
H941 H 0.37216 0.55765 0.48126 0.0
H942 H 0.36867 0.61076 0.49655 0.0
H943 H 0.32577 0.58512 0.47217 0.0
C944 C 0.55174 0.73908 0.39877 0.0
C945 C 0.5923 0.72709 0.40628 0.0
C946 C 0.52244 0.73778 0.43227 0.0
C947 C 0.53363 0.72356 0.47434 0.0
C948 C 0.57364 0.70851 0.48127 0.0
C949 C 0.60259 0.71066 0.44725 0.0
C950 C 0.48028 0.75437 0.42336 0.0
C951 C 0.58656 0.6922 0.52534 0.0
C952 C 0.4789 0.7708 0.57199 0.0
C953 C 0.44981 0.74109 0.58233 0.0
C954 C 0.50619 0.76536 0.53699 0.0
C955 C 0.50497 0.72891 0.51199 0.0
C956 C 0.47587 0.69857 0.52239 0.0
C957 C 0.44846 0.7051 0.55729 0.0
C958 C 0.53625 0.79883 0.52665 0.0
C959 C 0.47401 0.65904 0.49701 0.0
H960 H 0.54318 0.75155 0.36722 0.0
H961 H 0.63367 0.70096 0.45336 0.0
H962 H 0.45665 0.73294 0.43522 0.0
H963 H 0.47611 0.78349 0.44145 0.0
H964 H 0.47509 0.76013 0.38792 0.0
H965 H 0.61666 0.67668 0.5238 0.0
H966 H 0.58864 0.7177 0.54922 0.0
H967 H 0.5636 0.67042 0.53801 0.0
H968 H 0.48012 0.79866 0.59116 0.0
H969 H 0.42672 0.68153 0.56564 0.0
H970 H 0.53202 0.80922 0.49236 0.0
H971 H 0.56785 0.78708 0.52947 0.0
H972 H 0.53288 0.82553 0.54886 0.0
H973 H 0.46819 0.66526 0.46184 0.0
H974 H 0.44983 0.63839 0.5094 0.0
H975 H 0.50379 0.64308 0.49907 0.0
C976 C 0.72083 0.44729 0.57375 0.0
C977 C 0.74014 0.4539 0.6142 0.0
C978 C 0.72081 0.4774 0.54107 0.0
C979 C 0.74065 0.51506 0.54888 0.0
C980 C 0.75866 0.5226 0.59029 0.0
C981 C 0.75817 0.492 0.6224 0.0
C982 C 0.70094 0.46821 0.49751 0.0
C983 C 0.78 0.56235 0.60008 0.0
C984 C 0.78268 0.56874 0.44836 0.0
C985 C 0.75338 0.59913 0.44085 0.0
C986 C 0.77925 0.54186 0.48386 0.0
C987 C 0.74545 0.54507 0.51257 0.0
C988 C 0.71603 0.57605 0.50571 0.0
C989 C 0.72033 0.60274 0.46996 0.0
C990 C 0.8115 0.50947 0.49014 0.0
C991 C 0.67941 0.58027 0.53539 0.0
H992 H 0.70664 0.41812 0.56706 0.0
H993 H 0.77293 0.49765 0.65361 0.0
H994 H 0.68016 0.49339 0.48803 0.0
H995 H 0.72469 0.46572 0.47171 0.0
H996 H 0.68334 0.43931 0.49814 0.0
H997 H 0.78911 0.56494 0.63506 0.0
H998 H 0.80776 0.5648 0.57945 0.0
H999 H 0.76003 0.58852 0.59182 0.0
H1000 H 0.80835 0.56576 0.42617 0.0
H1001 H 0.69697 0.62543 0.46404 0.0
H1002 H 0.79763 0.47879 0.48689 0.0
H1003 H 0.82454 0.51168 0.5236 0.0
H1004 H 0.83667 0.51203 0.46593 0.0
H1005 H 0.66043 0.55239 0.53315 0.0
H1006 H 0.66023 0.60702 0.52681 0.0
H1007 H 0.6893 0.58334 0.57001 0.0
C1008 C 0.43578 0.32675 0.43659 0.0
C1009 C 0.44431 0.30559 0.39754 0.0
C1010 C 0.46491 0.32954 0.47025 0.0
C1011 C 0.50345 0.31058 0.46488 0.0
C1012 C 0.51297 0.29105 0.42472 0.0
C1013 C 0.4834 0.28897 0.39158 0.0
C1014 C 0.45379 0.3513 0.51229 0.0
C1015 C 0.55361 0.27037 0.41752 0.0
C1016 C 0.58891 0.33396 0.54583 0.0
C1017 C 0.58454 0.30199 0.57595 0.0
C1018 C 0.56287 0.33721 0.50935 0.0
C1019 C 0.5321 0.30757 0.50265 0.0
C1020 C 0.52829 0.27476 0.53242 0.0
C1021 C 0.55429 0.27259 0.5688 0.0
C1022 C 0.56753 0.37292 0.47869 0.0
C1023 C 0.49633 0.24214 0.52619 0.0
H1024 H 0.40588 0.3401 0.44153 0.0
H1025 H 0.4907 0.27314 0.36148 0.0
H1026 H 0.45193 0.32898 0.53947 0.0
H1027 H 0.47771 0.37374 0.52106 0.0
H1028 H 0.42407 0.36743 0.50989 0.0
H1029 H 0.55794 0.26055 0.38292 0.0
H1030 H 0.57896 0.291 0.4267 0.0
H1031 H 0.55572 0.2431 0.43884 0.0
H1032 H 0.61166 0.35727 0.5516 0.0
H1033 H 0.55082 0.2478 0.59192 0.0
H1034 H 0.53954 0.39193 0.47972 0.0
H1035 H 0.57125 0.36205 0.44444 0.0
H1036 H 0.59405 0.39236 0.48733 0.0
H1037 H 0.46546 0.25592 0.52787 0.0
H1038 H 0.49841 0.21783 0.55136 0.0
H1039 H 0.4996 0.22795 0.49329 0.0
C1040 C 0.82811 0.98511 0.88952 0.0
C1041 C 0.83409 0.94353 0.8986 0.0
C1042 C 0.82984 1.01463 0.92285 0.0
C1043 C 0.83896 1.00256 0.96625 0.0
C1044 C 0.84964 0.96142 0.97466 0.0
C1045 C 0.84675 0.9323 0.94083 0.0
C1046 C 0.81789 0.05797 0.91223 0.0
C1047 C 0.86105 0.94756 0.02015 0.0
C1048 C 0.85266 0.08528 0.05347 0.0
C1049 C 0.81451 0.08459 0.0743 0.0
C1050 C 0.86143 0.05858 0.01841 0.0
C1051 C 0.83103 0.03125 1.0034 0.0
C1052 C 0.79214 0.03137 0.02369 0.0
C1053 C 0.78462 0.05758 0.05919 0.0
C1054 C 0.90347 0.05883 0.99831 0.0
C1055 C 0.75841 1.0036 0.00805 0.0
H1056 H 0.81917 0.99446 0.85689 0.0
H1057 H 0.85212 0.90043 0.94818 0.0
H1058 H 0.78637 0.06363 0.92403 0.0
H1059 H 0.83813 0.08009 0.92898 0.0
H1060 H 0.81879 0.06395 0.87642 0.0
H1061 H 0.87453 0.91647 0.01999 0.0
H1062 H 0.88311 0.96902 0.03521 0.0
H1063 H 0.83346 0.94721 0.04121 0.0
H1064 H 0.87611 0.10564 0.06561 0.0
H1065 H 0.75511 0.05704 0.07523 0.0
H1066 H 0.90149 0.06248 0.96224 0.0
H1067 H 0.91864 0.02917 1.00458 0.0
H1068 H 0.92284 0.08359 0.01184 0.0
H1069 H 0.75279 1.00842 0.97257 0.0
H1070 H 0.72942 1.00876 0.0261 0.0
H1071 H 0.76758 0.9713 0.01234 0.0
C1072 C 0.94446 0.22081 0.07232 0.0
C1073 C 0.95057 0.2425 0.11152 0.0
C1074 C 0.97461 0.2196 0.03959 0.0
C1075 C 1.0118 0.24069 0.04602 0.0
C1076 C 1.01886 0.26117 0.08623 0.0
C1077 C 0.98823 0.2618 0.11846 0.0
C1078 C 0.96594 0.19706 0.99738 0.0
C1079 C 0.0581 0.2839 0.09454 0.0
C1080 C 0.09916 0.21802 0.96684 0.0
C1081 C 0.09422 0.24913 0.93574 0.0
C1082 C 0.07317 0.21528 1.00349 0.0
C1083 C 0.04157 0.24434 0.0092 0.0
C1084 C 0.03726 0.27641 0.97861 0.0
C1085 C 0.06346 0.2783 0.94231 0.0
C1086 C 0.07863 0.18052 0.03525 0.0
C1087 C 1.00422 0.30824 0.98358 0.0
H1088 H 0.91567 0.20552 0.06667 0.0
H1089 H 0.9935 0.27837 0.14873 0.0
H1090 H 0.9628 0.21924 0.97019 0.0
H1091 H 0.99165 0.17645 0.989 0.0
H1092 H 0.93753 0.17876 0.99927 0.0
H1093 H 0.06064 0.29459 0.12904 0.0
H1094 H 0.08474 0.26425 0.08689 0.0
H1095 H 0.05971 0.31079 0.07264 0.0
H1096 H 0.12223 0.19481 0.96175 0.0
H1097 H 0.05951 0.30254 0.91861 0.0
H1098 H 0.05165 0.16021 0.03381 0.0
H1099 H 0.08078 0.19229 0.06931 0.0
H1100 H 0.10631 0.16213 0.02796 0.0
H1101 H 0.97384 0.29357 0.98133 0.0
H1102 H 1.00615 0.33227 0.95809 0.0
H1103 H 1.00625 0.32293 0.01632 0.0
C1104 C 0.21542 0.93962 0.03949 0.0
C1105 C 0.24736 0.94389 0.06978 0.0
C1106 C 0.212 0.96601 1.00333 0.0
C1107 C 0.24128 0.99721 0.99725 0.0
C1108 C 0.27414 1.00084 0.02703 0.0
C1109 C 0.27663 0.97434 0.06292 0.0
C1110 C 0.17636 0.96136 0.97248 0.0
C1111 C 0.30632 0.03333 0.02156 0.0
C1112 C 0.25823 0.04986 0.88798 0.0
C1113 C 0.24035 0.08823 0.89545 0.0
C1114 C 0.25707 0.01921 0.92 0.0
C1115 C 0.23746 0.02694 0.96054 0.0
C1116 C 0.21755 0.06482 0.96744 0.0
C1117 C 0.2193 0.09502 0.93489 0.0
C1118 C 0.27865 0.97931 0.91119 0.0
C1119 C 0.19593 0.07418 0.01003 0.0
H1120 H 0.19218 0.91676 0.0449 0.0
H1121 H 0.30148 0.97775 0.08604 0.0
H1122 H 0.15661 0.98878 0.97462 0.0
H1123 H 0.18723 0.95901 0.93812 0.0
H1124 H 0.15766 0.93407 0.98009 0.0
H1125 H 0.33083 0.03098 0.04653 0.0
H1126 H 0.32032 0.03103 0.98851 0.0
H1127 H 0.29215 0.06397 0.02424 0.0
H1128 H 0.27429 0.04403 0.85752 0.0
H1129 H 0.20517 0.12439 0.94096 0.0
H1130 H 0.25856 0.95323 0.91926 0.0
H1131 H 0.30595 0.97704 0.93251 0.0
H1132 H 0.28857 0.97636 0.87648 0.0
H1133 H 0.17502 0.04896 0.01885 0.0
H1134 H 0.17814 0.10299 0.00841 0.0
H1135 H 0.21865 0.077 0.03679 0.0
C1136 C 0.97409 0.74978 0.94163 0.0
C1137 C 0.9447 0.7799 0.93331 0.0
C1138 C 1.00214 0.75391 0.97608 0.0
C1139 C 1.00117 0.78926 1.00283 0.0
C1140 C 0.97162 0.81985 0.99473 0.0
C1141 C 0.9437 0.8148 0.96014 0.0
C1142 C 0.03301 0.72046 0.98369 0.0
C1143 C 0.96985 0.85815 0.02224 0.0
C1144 C 0.05199 0.77863 0.11413 0.0
C1145 C 0.09115 0.79419 0.10598 0.0
C1146 C 0.02197 0.77822 0.08136 0.0
C1147 C 0.03114 0.79383 0.03929 0.0
C1148 C 0.06998 0.8112 0.03135 0.0
C1149 C 0.09952 0.81113 0.06474 0.0
C1150 C 0.98098 0.75947 0.0913 0.0
C1151 C 0.08092 0.82844 0.98704 0.0
H1152 H 0.97515 0.72275 0.92111 0.0
H1153 H 0.92193 0.83884 0.95344 0.0
H1154 H 0.06432 0.73275 0.98012 0.0
H1155 H 0.03014 0.7087 0.01761 0.0
H1156 H 0.0293 0.69461 0.96043 0.0
H1157 H 0.94562 0.87944 0.01116 0.0
H1158 H 0.96411 0.85022 0.05703 0.0
H1159 H 0.99959 0.87416 0.02093 0.0
H1160 H 0.04498 0.7657 0.14592 0.0
H1161 H 0.12957 0.82331 0.05805 0.0
H1162 H 0.97712 0.73126 0.07159 0.0
H1163 H 0.95608 0.78064 0.08198 0.0
H1164 H 0.97753 0.75166 0.12653 0.0
H1165 H 0.0829 0.80335 0.96265 0.0
H1166 H 0.11055 0.84477 0.98755 0.0
H1167 H 0.05689 0.84977 0.97571 0.0
loop_
_geom_bond_atom_site_label_1
_geom_bond_atom_site_label_2
_geom_bond_distance
_geom_bond_site_symmetry_2
_ccdc_geom_bond_type
Zn0 N4 2.020 . S
Zn0 O8 2.019 . S
Zn0 N10 2.119 . S
Zn0 O18 1.975 . S
C1 N2 1.334 . S
C1 N5 1.336 . S
N2 C1 1.334 . S
N2 C3 1.334 . S
C3 N2 1.334 . S
C3 N4 1.336 . S
N4 Zn0 2.020 . S
N4 C3 1.336 . S
N4 N5 1.354 . S
N5 C1 1.336 . S
N5 N4 1.354 . S
N5 Zn9 2.020 . S
C6 O7 1.244 . S
C6 O30 1.257 . S
O7 C6 1.244 . S
O8 Zn0 2.019 . S
O8 C28 1.257 . S
Zn9 N5 2.020 . S
Zn9 O16 1.975 . S
Zn9 N25 2.119 . S
Zn9 O30 2.019 . S
N10 Zn0 2.119 . S
N10 C12 1.334 . S
N10 C13 1.328 . S
C11 C12 1.391 . S
C11 N14 1.329 . S
C11 H32 0.930 . S
C12 N10 1.334 . S
C12 C11 1.391 . S
C12 H19 0.930 . S
C13 N10 1.328 . S
C13 C15 1.392 . S
C13 H20 0.930 . S
N14 C11 1.329 . S
N14 C15 1.331 . S
C15 C13 1.392 . S
C15 N14 1.331 . S
O16 Zn9 1.975 . S
O16 C17 1.252 . S
C17 O16 1.252 . S
C17 O18 1.252 . S
O18 Zn0 1.975 . S
O18 C17 1.252 . S
H19 C12 0.930 . S
H20 C13 0.930 . S
C21 C22 1.392 . S
C21 N25 1.328 . S
C21 H27 0.930 . S
C22 C21 1.392 . S
C22 N26 1.331 . S
C23 C24 1.391 . S
C23 N26 1.329 . S
C23 H33 0.930 . S
C24 C23 1.391 . S
C24 N25 1.334 . S
C24 H31 0.930 . S
N25 Zn9 2.119 . S
N25 C21 1.328 . S
N25 C24 1.334 . S
N26 C22 1.331 . S
N26 C23 1.329 . S
H27 C21 0.930 . S
C28 O8 1.257 . S
C28 O29 1.244 . S
O29 C28 1.244 . S
O30 C6 1.257 . S
O30 Zn9 2.019 . S
H31 C24 0.930 . S
H32 C11 0.930 . S
H33 C23 0.930 . S
Zn34 N38 2.020 . S
Zn34 O42 2.019 . S
Zn34 N44 2.119 . S
Zn34 O52 1.975 . S
C35 N36 1.334 . S
C35 N39 1.336 . S
N36 C35 1.334 . S
N36 C37 1.334 . S
C37 N36 1.334 . S
C37 N38 1.336 . S
N38 Zn34 2.020 . S
N38 C37 1.336 . S
N38 N39 1.354 . S
N39 C35 1.336 . S
N39 N38 1.354 . S
N39 Zn43 2.020 . S
C40 O41 1.244 . S
C40 O64 1.257 . S
O41 C40 1.244 . S
O42 Zn34 2.019 . S
O42 C62 1.257 . S
Zn43 N39 2.020 . S
Zn43 O50 1.975 . S
Zn43 N59 2.119 . S
Zn43 O64 2.019 . S
N44 Zn34 2.119 . S
N44 C46 1.334 . S
N44 C47 1.328 . S
C45 C46 1.391 . S
C45 N48 1.329 . S
C45 H66 0.930 . S
C46 N44 1.334 . S
C46 C45 1.391 . S
C46 H53 0.930 . S
C47 N44 1.328 . S
C47 C49 1.392 . S
C47 H54 0.930 . S
N48 C45 1.329 . S
N48 C49 1.331 . S
C49 C47 1.392 . S
C49 N48 1.331 . S
O50 Zn43 1.975 . S
O50 C51 1.252 . S
C51 O50 1.252 . S
C51 O52 1.252 . S
O52 Zn34 1.975 . S
O52 C51 1.252 . S
H53 C46 0.930 . S
H54 C47 0.930 . S
C55 C56 1.392 . S
C55 N59 1.328 . S
C55 H61 0.930 . S
C56 C55 1.392 . S
C56 N60 1.331 . S
C57 C58 1.391 . S
C57 N60 1.329 . S
C57 H67 0.930 . S
C58 C57 1.391 . S
C58 N59 1.334 . S
C58 H65 0.930 . S
N59 Zn43 2.119 . S
N59 C55 1.328 . S
N59 C58 1.334 . S
N60 C56 1.331 . S
N60 C57 1.329 . S
H61 C55 0.930 . S
C62 O42 1.257 . S
C62 O63 1.244 . S
O63 C62 1.244 . S
O64 C40 1.257 . S
O64 Zn43 2.019 . S
H65 C58 0.930 . S
H66 C45 0.930 . S
H67 C57 0.930 . S
Zn68 N72 2.020 . S
Zn68 O76 2.019 . S
Zn68 N78 2.119 . S
Zn68 O86 1.975 . S
C69 N70 1.334 . S
C69 N73 1.336 . S
N70 C69 1.334 . S
N70 C71 1.334 . S
C71 N70 1.334 . S
C71 N72 1.336 . S
N72 Zn68 2.020 . S
N72 C71 1.336 . S
N72 N73 1.354 . S
N73 C69 1.336 . S
N73 N72 1.354 . S
N73 Zn77 2.020 . S
C74 O75 1.244 . S
C74 O98 1.257 . S
O75 C74 1.244 . S
O76 Zn68 2.019 . S
O76 C96 1.257 . S
Zn77 N73 2.020 . S
Zn77 O84 1.975 . S
Zn77 N93 2.119 . S
Zn77 O98 2.019 . S
N78 Zn68 2.119 . S
N78 C80 1.334 . S
N78 C81 1.328 . S
C79 C80 1.391 . S
C79 N82 1.329 . S
C79 H100 0.930 . S
C80 N78 1.334 . S
C80 C79 1.391 . S
C80 H87 0.930 . S
C81 N78 1.328 . S
C81 C83 1.392 . S
C81 H88 0.930 . S
N82 C79 1.329 . S
N82 C83 1.331 . S
C83 C81 1.392 . S
C83 N82 1.331 . S
O84 Zn77 1.975 . S
O84 C85 1.252 . S
C85 O84 1.252 . S
C85 O86 1.252 . S
O86 Zn68 1.975 . S
O86 C85 1.252 . S
H87 C80 0.930 . S
H88 C81 0.930 . S
C89 C90 1.392 . S
C89 N93 1.328 . S
C89 H95 0.930 . S
C90 C89 1.392 . S
C90 N94 1.331 . S
C91 C92 1.391 . S
C91 N94 1.329 . S
C91 H101 0.930 . S
C92 C91 1.391 . S
C92 N93 1.334 . S
C92 H99 0.930 . S
N93 Zn77 2.119 . S
N93 C89 1.328 . S
N93 C92 1.334 . S
N94 C90 1.331 . S
N94 C91 1.329 . S
H95 C89 0.930 . S
C96 O76 1.257 . S
C96 O97 1.244 . S
O97 C96 1.244 . S
O98 C74 1.257 . S
O98 Zn77 2.019 . S
H99 C92 0.930 . S
H100 C79 0.930 . S
H101 C91 0.930 . S
Zn102 N106 2.020 . S
Zn102 O110 2.019 . S
Zn102 N112 2.119 . S
Zn102 O120 1.975 . S
C103 N104 1.334 . S
C103 N107 1.336 . S
N104 C103 1.334 . S
N104 C105 1.334 . S
C105 N104 1.334 . S
C105 N106 1.336 . S
N106 Zn102 2.020 . S
N106 C105 1.336 . S
N106 N107 1.354 . S
N107 C103 1.336 . S
N107 N106 1.354 . S
N107 Zn111 2.020 . S
C108 O109 1.244 . S
C108 O132 1.257 . S
O109 C108 1.244 . S
O110 Zn102 2.019 . S
O110 C130 1.257 . S
Zn111 N107 2.020 . S
Zn111 O118 1.975 . S
Zn111 N127 2.119 . S
Zn111 O132 2.019 . S
N112 Zn102 2.119 . S
N112 C114 1.334 . S
N112 C115 1.328 . S
C113 C114 1.391 . S
C113 N116 1.329 . S
C113 H134 0.930 . S
C114 N112 1.334 . S
C114 C113 1.391 . S
C114 H121 0.930 . S
C115 N112 1.328 . S
C115 C117 1.392 . S
C115 H122 0.930 . S
N116 C113 1.329 . S
N116 C117 1.331 . S
C117 C115 1.392 . S
C117 N116 1.331 . S
O118 Zn111 1.975 . S
O118 C119 1.252 . S
C119 O118 1.252 . S
C119 O120 1.252 . S
O120 Zn102 1.975 . S
O120 C119 1.252 . S
H121 C114 0.930 . S
H122 C115 0.930 . S
C123 C124 1.392 . S
C123 N127 1.328 . S
C123 H129 0.930 . S
C124 C123 1.392 . S
C124 N128 1.331 . S
C125 C126 1.391 . S
C125 N128 1.329 . S
C125 H135 0.930 . S
C126 C125 1.391 . S
C126 N127 1.334 . S
C126 H133 0.930 . S
N127 Zn111 2.119 . S
N127 C123 1.328 . S
N127 C126 1.334 . S
N128 C124 1.331 . S
N128 C125 1.329 . S
H129 C123 0.930 . S
C130 O110 1.257 . S
C130 O131 1.244 . S
O131 C130 1.244 . S
O132 C108 1.257 . S
O132 Zn111 2.019 . S
H133 C126 0.930 . S
H134 C113 0.930 . S
H135 C125 0.930 . S
Zn136 N140 2.020 . S
Zn136 O144 2.019 . S
Zn136 N146 2.119 . S
Zn136 O154 1.975 . S
C137 N138 1.334 . S
C137 N141 1.336 . S
N138 C137 1.334 . S
N138 C139 1.334 . S
C139 N138 1.334 . S
C139 N140 1.336 . S
N140 Zn136 2.020 . S
N140 C139 1.336 . S
N140 N141 1.354 . S
N141 C137 1.336 . S
N141 N140 1.354 . S
N141 Zn145 2.020 . S
C142 O143 1.244 . S
C142 O166 1.257 . S
O143 C142 1.244 . S
O144 Zn136 2.019 . S
O144 C164 1.257 . S
Zn145 N141 2.020 . S
Zn145 O152 1.975 . S
Zn145 N161 2.119 . S
Zn145 O166 2.019 . S
N146 Zn136 2.119 . S
N146 C148 1.334 . S
N146 C149 1.328 . S
C147 C148 1.391 . S
C147 N150 1.329 . S
C147 H168 0.930 . S
C148 N146 1.334 . S
C148 C147 1.391 . S
C148 H155 0.930 . S
C149 N146 1.328 . S
C149 C151 1.392 . S
C149 H156 0.930 . S
N150 C147 1.329 . S
N150 C151 1.331 . S
C151 C149 1.392 . S
C151 N150 1.331 . S
O152 Zn145 1.975 . S
O152 C153 1.252 . S
C153 O152 1.252 . S
C153 O154 1.252 . S
O154 Zn136 1.975 . S
O154 C153 1.252 . S
H155 C148 0.930 . S
H156 C149 0.930 . S
C157 C158 1.392 . S
C157 N161 1.328 . S
C157 H163 0.930 . S
C158 C157 1.392 . S
C158 N162 1.331 . S
C159 C160 1.391 . S
C159 N162 1.329 . S
C159 H169 0.930 . S
C160 C159 1.391 . S
C160 N161 1.334 . S
C160 H167 0.930 . S
N161 Zn145 2.119 . S
N161 C157 1.328 . S
N161 C160 1.334 . S
N162 C158 1.331 . S
N162 C159 1.329 . S
H163 C157 0.930 . S
C164 O144 1.257 . S
C164 O165 1.244 . S
O165 C164 1.244 . S
O166 C142 1.257 . S
O166 Zn145 2.019 . S
H167 C160 0.930 . S
H168 C147 0.930 . S
H169 C159 0.930 . S
Zn170 N174 2.020 . S
Zn170 O178 2.019 . S
Zn170 N180 2.119 . S
Zn170 O188 1.975 . S
C171 N172 1.334 . S
C171 N175 1.336 . S
N172 C171 1.334 . S
N172 C173 1.334 . S
C173 N172 1.334 . S
C173 N174 1.336 . S
N174 Zn170 2.020 . S
N174 C173 1.336 . S
N174 N175 1.354 . S
N175 C171 1.336 . S
N175 N174 1.354 . S
N175 Zn179 2.020 . S
C176 O177 1.244 . S
C176 O200 1.257 . S
O177 C176 1.244 . S
O178 Zn170 2.019 . S
O178 C198 1.257 . S
Zn179 N175 2.020 . S
Zn179 O186 1.975 . S
Zn179 N195 2.119 . S
Zn179 O200 2.019 . S
N180 Zn170 2.119 . S
N180 C182 1.334 . S
N180 C183 1.328 . S
C181 C182 1.391 . S
C181 N184 1.329 . S
C181 H202 0.930 . S
C182 N180 1.334 . S
C182 C181 1.391 . S
C182 H189 0.930 . S
C183 N180 1.328 . S
C183 C185 1.392 . S
C183 H190 0.930 . S
N184 C181 1.329 . S
N184 C185 1.331 . S
C185 C183 1.392 . S
C185 N184 1.331 . S
O186 Zn179 1.975 . S
O186 C187 1.252 . S
C187 O186 1.252 . S
C187 O188 1.252 . S
O188 Zn170 1.975 . S
O188 C187 1.252 . S
H189 C182 0.930 . S
H190 C183 0.930 . S
C191 C192 1.392 . S
C191 N195 1.328 . S
C191 H197 0.930 . S
C192 C191 1.392 . S
C192 N196 1.331 . S
C193 C194 1.391 . S
C193 N196 1.329 . S
C193 H203 0.930 . S
C194 C193 1.391 . S
C194 N195 1.334 . S
C194 H201 0.930 . S
N195 Zn179 2.119 . S
N195 C191 1.328 . S
N195 C194 1.334 . S
N196 C192 1.331 . S
N196 C193 1.329 . S
H197 C191 0.930 . S
C198 O178 1.257 . S
C198 O199 1.244 . S
O199 C198 1.244 . S
O200 C176 1.257 . S
O200 Zn179 2.019 . S
H201 C194 0.930 . S
H202 C181 0.930 . S
H203 C193 0.930 . S
Zn204 N208 2.020 . S
Zn204 O212 2.019 . S
Zn204 N214 2.119 . S
Zn204 O222 1.975 . S
C205 N206 1.334 . S
C205 N209 1.336 . S
N206 C205 1.334 . S
N206 C207 1.334 . S
C207 N206 1.334 . S
C207 N208 1.336 . S
N208 Zn204 2.020 . S
N208 C207 1.336 . S
N208 N209 1.354 . S
N209 C205 1.336 . S
N209 N208 1.354 . S
N209 Zn213 2.020 . S
C210 O211 1.244 . S
C210 O234 1.257 . S
O211 C210 1.244 . S
O212 Zn204 2.019 . S
O212 C232 1.257 . S
Zn213 N209 2.020 . S
Zn213 O220 1.975 . S
Zn213 N229 2.119 . S
Zn213 O234 2.019 . S
N214 Zn204 2.119 . S
N214 C216 1.334 . S
N214 C217 1.328 . S
C215 C216 1.391 . S
C215 N218 1.329 . S
C215 H236 0.930 . S
C216 N214 1.334 . S
C216 C215 1.391 . S
C216 H223 0.930 . S
C217 N214 1.328 . S
C217 C219 1.392 . S
C217 H224 0.930 . S
N218 C215 1.329 . S
N218 C219 1.331 . S
C219 C217 1.392 . S
C219 N218 1.331 . S
O220 Zn213 1.975 . S
O220 C221 1.252 . S
C221 O220 1.252 . S
C221 O222 1.252 . S
O222 Zn204 1.975 . S
O222 C221 1.252 . S
H223 C216 0.930 . S
H224 C217 0.930 . S
C225 C226 1.392 . S
C225 N229 1.328 . S
C225 H231 0.930 . S
C226 C225 1.392 . S
C226 N230 1.331 . S
C227 C228 1.391 . S
C227 N230 1.329 . S
C227 H237 0.930 . S
C228 C227 1.391 . S
C228 N229 1.334 . S
C228 H235 0.930 . S
N229 Zn213 2.119 . S
N229 C225 1.328 . S
N229 C228 1.334 . S
N230 C226 1.331 . S
N230 C227 1.329 . S
H231 C225 0.930 . S
C232 O212 1.257 . S
C232 O233 1.244 . S
O233 C232 1.244 . S
O234 C210 1.257 . S
O234 Zn213 2.019 . S
H235 C228 0.930 . S
H236 C215 0.930 . S
H237 C227 0.930 . S
Zn238 N242 2.020 . S
Zn238 O246 2.019 . S
Zn238 N248 2.119 . S
Zn238 O256 1.975 . S
C239 N240 1.334 . S
C239 N243 1.336 . S
N240 C239 1.334 . S
N240 C241 1.334 . S
C241 N240 1.334 . S
C241 N242 1.336 . S
N242 Zn238 2.020 . S
N242 C241 1.336 . S
N242 N243 1.354 . S
N243 C239 1.336 . S
N243 N242 1.354 . S
N243 Zn247 2.020 . S
C244 O245 1.244 . S
C244 O268 1.257 . S
O245 C244 1.244 . S
O246 Zn238 2.019 . S
O246 C266 1.257 . S
Zn247 N243 2.020 . S
Zn247 O254 1.975 . S
Zn247 N263 2.119 . S
Zn247 O268 2.019 . S
N248 Zn238 2.119 . S
N248 C250 1.334 . S
N248 C251 1.328 . S
C249 C250 1.391 . S
C249 N252 1.329 . S
C249 H270 0.930 . S
C250 N248 1.334 . S
C250 C249 1.391 . S
C250 H257 0.930 . S
C251 N248 1.328 . S
C251 C253 1.392 . S
C251 H258 0.930 . S
N252 C249 1.329 . S
N252 C253 1.331 . S
C253 C251 1.392 . S
C253 N252 1.331 . S
O254 Zn247 1.975 . S
O254 C255 1.252 . S
C255 O254 1.252 . S
C255 O256 1.252 . S
O256 Zn238 1.975 . S
O256 C255 1.252 . S
H257 C250 0.930 . S
H258 C251 0.930 . S
C259 C260 1.392 . S
C259 N263 1.328 . S
C259 H265 0.930 . S
C260 C259 1.392 . S
C260 N264 1.331 . S
C261 C262 1.391 . S
C261 N264 1.329 . S
C261 H271 0.930 . S
C262 C261 1.391 . S
C262 N263 1.334 . S
C262 H269 0.930 . S
N263 Zn247 2.119 . S
N263 C259 1.328 . S
N263 C262 1.334 . S
N264 C260 1.331 . S
N264 C261 1.329 . S
H265 C259 0.930 . S
C266 O246 1.257 . S
C266 O267 1.244 . S
O267 C266 1.244 . S
O268 C244 1.257 . S
O268 Zn247 2.019 . S
H269 C262 0.930 . S
H270 C249 0.930 . S
H271 C261 0.930 . S
C272 C273 1.391 . S
C272 C274 1.394 . S
C272 H288 0.931 . S
C273 C272 1.391 . S
C273 C277 1.376 . S
C274 C272 1.394 . S
C274 C275 1.369 . S
C274 C278 1.531 . S
C275 C274 1.369 . S
C275 C276 1.410 . S
C275 C283 1.503 . S
C276 C275 1.410 . S
C276 C277 1.392 . S
C276 C279 1.511 . S
C277 C273 1.376 . S
C277 C276 1.392 . S
C277 H289 0.929 . S
C278 C274 1.531 . S
C278 H290 0.960 . S
C278 H291 0.962 . S
C278 H292 0.960 . S
C279 C276 1.511 . S
C279 H293 0.961 . S
C279 H294 0.961 . S
C279 H295 0.961 . S
C280 C281 1.370 . S
C280 C282 1.363 . S
C280 H296 0.931 . S
C281 C280 1.370 . S
C281 C285 1.408 . S
C282 C280 1.363 . S
C282 C283 1.370 . S
C282 C286 1.524 . S
C283 C275 1.503 . S
C283 C282 1.370 . S
C283 C284 1.403 . S
C284 C283 1.403 . S
C284 C285 1.404 . S
C284 C287 1.539 . S
C285 C281 1.408 . S
C285 C284 1.404 . S
C285 H297 0.930 . S
C286 C282 1.524 . S
C286 H298 0.956 . S
C286 H299 0.961 . S
C286 H300 0.961 . S
C287 C284 1.539 . S
C287 H301 0.958 . S
C287 H302 0.961 . S
C287 H303 0.960 . S
H288 C272 0.931 . S
H289 C277 0.929 . S
H290 C278 0.960 . S
H291 C278 0.962 . S
H292 C278 0.960 . S
H293 C279 0.961 . S
H294 C279 0.961 . S
H295 C279 0.961 . S
H296 C280 0.931 . S
H297 C285 0.930 . S
H298 C286 0.956 . S
H299 C286 0.961 . S
H300 C286 0.961 . S
H301 C287 0.958 . S
H302 C287 0.961 . S
H303 C287 0.960 . S
C304 C305 1.391 . S
C304 C306 1.394 . S
C304 H320 0.931 . S
C305 C304 1.391 . S
C305 C309 1.376 . S
C306 C304 1.394 . S
C306 C307 1.369 . S
C306 C310 1.531 . S
C307 C306 1.369 . S
C307 C308 1.410 . S
C307 C315 1.503 . S
C308 C307 1.410 . S
C308 C309 1.392 . S
C308 C311 1.511 . S
C309 C305 1.376 . S
C309 C308 1.392 . S
C309 H321 0.929 . S
C310 C306 1.531 . S
C310 H322 0.960 . S
C310 H323 0.962 . S
C310 H324 0.960 . S
C311 C308 1.511 . S
C311 H325 0.961 . S
C311 H326 0.961 . S
C311 H327 0.961 . S
C312 C313 1.370 . S
C312 C314 1.363 . S
C312 H328 0.931 . S
C313 C312 1.370 . S
C313 C317 1.408 . S
C314 C312 1.363 . S
C314 C315 1.370 . S
C314 C318 1.524 . S
C315 C307 1.503 . S
C315 C314 1.370 . S
C315 C316 1.403 . S
C316 C315 1.403 . S
C316 C317 1.404 . S
C316 C319 1.539 . S
C317 C313 1.408 . S
C317 C316 1.404 . S
C317 H329 0.930 . S
C318 C314 1.524 . S
C318 H330 0.956 . S
C318 H331 0.961 . S
C318 H332 0.961 . S
C319 C316 1.539 . S
C319 H333 0.958 . S
C319 H334 0.961 . S
C319 H335 0.960 . S
H320 C304 0.931 . S
H321 C309 0.929 . S
H322 C310 0.960 . S
H323 C310 0.962 . S
H324 C310 0.960 . S
H325 C311 0.961 . S
H326 C311 0.961 . S
H327 C311 0.961 . S
H328 C312 0.931 . S
H329 C317 0.930 . S
H330 C318 0.956 . S
H331 C318 0.961 . S
H332 C318 0.961 . S
H333 C319 0.958 . S
H334 C319 0.961 . S
H335 C319 0.960 . S
C336 C337 1.391 . S
C336 C338 1.394 . S
C336 H352 0.931 1_554 S
C337 C336 1.391 . S
C337 C341 1.376 . S
C338 C336 1.394 . S
C338 C339 1.369 . S
C338 C342 1.531 . S
C339 C338 1.369 . S
C339 C340 1.410 . S
C339 C347 1.503 . S
C340 C339 1.410 . S
C340 C341 1.392 . S
C340 C343 1.511 . S
C341 C337 1.376 . S
C341 C340 1.392 . S
C341 H353 0.929 . S
C342 C338 1.531 . S
C342 H354 0.960 . S
C342 H355 0.962 . S
C342 H356 0.960 . S
C343 C340 1.511 . S
C343 H357 0.961 . S
C343 H358 0.961 . S
C343 H359 0.961 . S
C344 C345 1.370 . S
C344 C346 1.363 . S
C344 H360 0.931 . S
C345 C344 1.370 . S
C345 C349 1.408 . S
C346 C344 1.363 . S
C346 C347 1.370 . S
C346 C350 1.524 . S
C347 C339 1.503 . S
C347 C346 1.370 . S
C347 C348 1.403 . S
C348 C347 1.403 . S
C348 C349 1.404 . S
C348 C351 1.539 . S
C349 C345 1.408 . S
C349 C348 1.404 . S
C349 H361 0.930 . S
C350 C346 1.524 . S
C350 H362 0.956 . S
C350 H363 0.961 . S
C350 H364 0.961 . S
C351 C348 1.539 . S
C351 H365 0.958 . S
C351 H366 0.961 . S
C351 H367 0.960 . S
H352 C336 0.931 1_556 S
H353 C341 0.929 . S
H354 C342 0.960 . S
H355 C342 0.962 . S
H356 C342 0.960 . S
H357 C343 0.961 . S
H358 C343 0.961 . S
H359 C343 0.961 . S
H360 C344 0.931 . S
H361 C349 0.930 . S
H362 C350 0.956 . S
H363 C350 0.961 . S
H364 C350 0.961 . S
H365 C351 0.958 . S
H366 C351 0.961 . S
H367 C351 0.960 . S
C368 C369 1.391 . S
C368 C370 1.394 . S
C368 H384 0.931 . S
C369 C368 1.391 . S
C369 C373 1.376 . S
C370 C368 1.394 . S
C370 C371 1.369 . S
C370 C374 1.531 . S
C371 C370 1.369 . S
C371 C372 1.410 . S
C371 C379 1.503 . S
C372 C371 1.410 . S
C372 C373 1.392 . S
C372 C375 1.511 . S
C373 C369 1.376 . S
C373 C372 1.392 . S
C373 H385 0.929 . S
C374 C370 1.531 . S
C374 H386 0.960 . S
C374 H387 0.962 . S
C374 H388 0.960 . S
C375 C372 1.511 . S
C375 H389 0.961 . S
C375 H390 0.961 . S
C375 H391 0.961 . S
C376 C377 1.370 . S
C376 C378 1.363 . S
C376 H392 0.931 . S
C377 C376 1.370 . S
C377 C381 1.408 . S
C378 C376 1.363 . S
C378 C379 1.370 . S
C378 C382 1.524 . S
C379 C371 1.503 . S
C379 C378 1.370 . S
C379 C380 1.403 . S
C380 C379 1.403 . S
C380 C381 1.404 . S
C380 C383 1.539 . S
C381 C377 1.408 . S
C381 C380 1.404 . S
C381 H393 0.930 . S
C382 C378 1.524 . S
C382 H394 0.956 . S
C382 H395 0.961 . S
C382 H396 0.961 . S
C383 C380 1.539 . S
C383 H397 0.958 . S
C383 H398 0.961 . S
C383 H399 0.960 . S
H384 C368 0.931 . S
H385 C373 0.929 . S
H386 C374 0.960 . S
H387 C374 0.962 . S
H388 C374 0.960 . S
H389 C375 0.961 . S
H390 C375 0.961 . S
H391 C375 0.961 . S
H392 C376 0.931 . S
H393 C381 0.930 . S
H394 C382 0.956 . S
H395 C382 0.961 . S
H396 C382 0.961 . S
H397 C383 0.958 . S
H398 C383 0.961 . S
H399 C383 0.960 . S
C400 C401 1.391 . S
C400 C402 1.394 . S
C400 H416 0.931 . S
C401 C400 1.391 . S
C401 C405 1.376 . S
C402 C400 1.394 . S
C402 C403 1.369 . S
C402 C406 1.531 . S
C403 C402 1.369 . S
C403 C404 1.410 . S
C403 C411 1.503 . S
C404 C403 1.410 . S
C404 C405 1.392 . S
C404 C407 1.511 . S
C405 C401 1.376 . S
C405 C404 1.392 . S
C405 H417 0.929 . S
C406 C402 1.531 . S
C406 H418 0.960 . S
C406 H419 0.962 . S
C406 H420 0.960 . S
C407 C404 1.511 . S
C407 H421 0.961 . S
C407 H422 0.961 . S
C407 H423 0.961 . S
C408 C409 1.370 . S
C408 C410 1.363 . S
C408 H424 0.931 . S
C409 C408 1.370 . S
C409 C413 1.408 . S
C410 C408 1.363 . S
C410 C411 1.370 . S
C410 C414 1.524 . S
C411 C403 1.503 . S
C411 C410 1.370 . S
C411 C412 1.403 . S
C412 C411 1.403 . S
C412 C413 1.404 . S
C412 C415 1.539 . S
C413 C409 1.408 . S
C413 C412 1.404 . S
C413 H425 0.930 . S
C414 C410 1.524 . S
C414 H426 0.956 . S
C414 H427 0.961 . S
C414 H428 0.961 . S
C415 C412 1.539 . S
C415 H429 0.958 . S
C415 H430 0.961 . S
C415 H431 0.960 . S
H416 C400 0.931 . S
H417 C405 0.929 . S
H418 C406 0.960 . S
H419 C406 0.962 . S
H420 C406 0.960 . S
H421 C407 0.961 . S
H422 C407 0.961 . S
H423 C407 0.961 . S
H424 C408 0.931 . S
H425 C413 0.930 . S
H426 C414 0.956 . S
H427 C414 0.961 . S
H428 C414 0.961 . S
H429 C415 0.958 . S
H430 C415 0.961 . S
H431 C415 0.960 . S
C432 C433 1.391 . S
C432 C434 1.394 . S
C432 H448 0.931 . S
C433 C432 1.391 . S
C433 C437 1.376 . S
C434 C432 1.394 . S
C434 C435 1.369 . S
C434 C438 1.531 . S
C435 C434 1.369 . S
C435 C436 1.410 . S
C435 C443 1.503 . S
C436 C435 1.410 . S
C436 C437 1.392 . S
C436 C439 1.511 . S
C437 C433 1.376 . S
C437 C436 1.392 . S
C437 H449 0.929 . S
C438 C434 1.531 . S
C438 H450 0.960 . S
C438 H451 0.962 . S
C438 H452 0.960 . S
C439 C436 1.511 . S
C439 H453 0.961 . S
C439 H454 0.961 . S
C439 H455 0.961 . S
C440 C441 1.370 . S
C440 C442 1.363 . S
C440 H456 0.931 . S
C441 C440 1.370 . S
C441 C445 1.408 . S
C442 C440 1.363 . S
C442 C443 1.370 . S
C442 C446 1.524 . S
C443 C435 1.503 . S
C443 C442 1.370 . S
C443 C444 1.403 . S
C444 C443 1.403 . S
C444 C445 1.404 . S
C444 C447 1.539 . S
C445 C441 1.408 . S
C445 C444 1.404 . S
C445 H457 0.930 . S
C446 C442 1.524 . S
C446 H458 0.956 . S
C446 H459 0.961 . S
C446 H460 0.961 . S
C447 C444 1.539 . S
C447 H461 0.958 . S
C447 H462 0.961 . S
C447 H463 0.960 . S
H448 C432 0.931 . S
H449 C437 0.929 . S
H450 C438 0.960 . S
H451 C438 0.962 . S
H452 C438 0.960 . S
H453 C439 0.961 . S
H454 C439 0.961 . S
H455 C439 0.961 . S
H456 C440 0.931 . S
H457 C445 0.930 . S
H458 C446 0.956 . S
H459 C446 0.961 . S
H460 C446 0.961 . S
H461 C447 0.958 . S
H462 C447 0.961 . S
H463 C447 0.960 . S
C464 C465 1.391 . S
C464 C466 1.394 . S
C464 H480 0.931 . S
C465 C464 1.391 . S
C465 C469 1.376 . S
C466 C464 1.394 . S
C466 C467 1.369 . S
C466 C470 1.531 . S
C467 C466 1.369 . S
C467 C468 1.410 . S
C467 C475 1.503 . S
C468 C467 1.410 . S
C468 C469 1.392 . S
C468 C471 1.511 . S
C469 C465 1.376 . S
C469 C468 1.392 . S
C469 H481 0.929 . S
C470 C466 1.531 . S
C470 H482 0.960 . S
C470 H483 0.962 . S
C470 H484 0.960 . S
C471 C468 1.511 . S
C471 H485 0.961 . S
C471 H486 0.961 . S
C471 H487 0.961 . S
C472 C473 1.370 . S
C472 C474 1.363 . S
C472 H488 0.931 . S
C473 C472 1.370 . S
C473 C477 1.408 . S
C474 C472 1.363 . S
C474 C475 1.370 . S
C474 C478 1.524 . S
C475 C467 1.503 . S
C475 C474 1.370 . S
C475 C476 1.403 . S
C476 C475 1.403 . S
C476 C477 1.404 . S
C476 C479 1.539 . S
C477 C473 1.408 . S
C477 C476 1.404 . S
C477 H489 0.930 . S
C478 C474 1.524 . S
C478 H490 0.956 . S
C478 H491 0.961 . S
C478 H492 0.961 . S
C479 C476 1.539 . S
C479 H493 0.958 . S
C479 H494 0.961 . S
C479 H495 0.960 . S
H480 C464 0.931 . S
H481 C469 0.929 . S
H482 C470 0.960 . S
H483 C470 0.962 . S
H484 C470 0.960 . S
H485 C471 0.961 . S
H486 C471 0.961 . S
H487 C471 0.961 . S
H488 C472 0.931 . S
H489 C477 0.930 . S
H490 C478 0.956 . S
H491 C478 0.961 . S
H492 C478 0.961 . S
H493 C479 0.958 . S
H494 C479 0.961 . S
H495 C479 0.960 . S
C496 C497 1.391 . S
C496 C498 1.394 . S
C496 H512 0.931 . S
C497 C496 1.391 . S
C497 C501 1.376 . S
C498 C496 1.394 . S
C498 C499 1.369 . S
C498 C502 1.531 . S
C499 C498 1.369 . S
C499 C500 1.410 . S
C499 C507 1.503 . S
C500 C499 1.410 . S
C500 C501 1.392 . S
C500 C503 1.511 . S
C501 C497 1.376 . S
C501 C500 1.392 . S
C501 H513 0.929 . S
C502 C498 1.531 . S
C502 H514 0.960 . S
C502 H515 0.962 . S
C502 H516 0.960 . S
C503 C500 1.511 . S
C503 H517 0.961 . S
C503 H518 0.961 . S
C503 H519 0.961 . S
C504 C505 1.370 . S
C504 C506 1.363 . S
C504 H520 0.931 . S
C505 C504 1.370 . S
C505 C509 1.408 . S
C506 C504 1.363 . S
C506 C507 1.370 . S
C506 C510 1.524 . S
C507 C499 1.503 . S
C507 C506 1.370 . S
C507 C508 1.403 . S
C508 C507 1.403 . S
C508 C509 1.404 . S
C508 C511 1.539 . S
C509 C505 1.408 . S
C509 C508 1.404 . S
C509 H521 0.930 . S
C510 C506 1.524 . S
C510 H522 0.956 . S
C510 H523 0.961 . S
C510 H524 0.961 . S
C511 C508 1.539 . S
C511 H525 0.958 . S
C511 H526 0.961 . S
C511 H527 0.960 . S
H512 C496 0.931 . S
H513 C501 0.929 . S
H514 C502 0.960 . S
H515 C502 0.962 . S
H516 C502 0.960 . S
H517 C503 0.961 . S
H518 C503 0.961 . S
H519 C503 0.961 . S
H520 C504 0.931 . S
H521 C509 0.930 . S
H522 C510 0.956 . S
H523 C510 0.961 . S
H524 C510 0.961 . S
H525 C511 0.958 . S
H526 C511 0.961 . S
H527 C511 0.960 . S
C528 C529 1.391 . S
C528 C530 1.394 . S
C528 H544 0.931 . S
C529 C528 1.391 . S
C529 C533 1.376 . S
C530 C528 1.394 . S
C530 C531 1.369 . S
C530 C534 1.531 . S
C531 C530 1.369 . S
C531 C532 1.410 . S
C531 C539 1.503 1_545 S
C532 C531 1.410 . S
C532 C533 1.392 . S
C532 C535 1.511 . S
C533 C529 1.376 . S
C533 C532 1.392 . S
C533 H545 0.929 . S
C534 C530 1.531 . S
C534 H546 0.960 1_545 S
C534 H547 0.962 . S
C534 H548 0.960 . S
C535 C532 1.511 . S
C535 H549 0.961 . S
C535 H550 0.961 . S
C535 H551 0.961 . S
C536 C537 1.370 . S
C536 C538 1.363 . S
C536 H552 0.931 . S
C537 C536 1.370 . S
C537 C541 1.408 . S
C538 C536 1.363 . S
C538 C539 1.370 . S
C538 C542 1.524 1_565 S
C539 C531 1.503 1_565 S
C539 C538 1.370 . S
C539 C540 1.403 . S
C540 C539 1.403 . S
C540 C541 1.404 . S
C540 C543 1.539 . S
C541 C537 1.408 . S
C541 C540 1.404 . S
C541 H553 0.930 . S
C542 C538 1.524 1_545 S
C542 H554 0.956 . S
C542 H555 0.961 . S
C542 H556 0.961 1_545 S
C543 C540 1.539 . S
C543 H557 0.958 . S
C543 H558 0.961 . S
C543 H559 0.960 . S
H544 C528 0.931 . S
H545 C533 0.929 . S
H546 C534 0.960 1_565 S
H547 C534 0.962 . S
H548 C534 0.960 . S
H549 C535 0.961 . S
H550 C535 0.961 . S
H551 C535 0.961 . S
H552 C536 0.931 . S
H553 C541 0.930 . S
H554 C542 0.956 . S
H555 C542 0.961 . S
H556 C542 0.961 1_565 S
H557 C543 0.958 . S
H558 C543 0.961 . S
H559 C543 0.960 . S
C560 C561 1.391 . S
C560 C562 1.394 . S
C560 H576 0.931 . S
C561 C560 1.391 . S
C561 C565 1.376 . S
C562 C560 1.394 . S
C562 C563 1.369 . S
C562 C566 1.531 . S
C563 C562 1.369 . S
C563 C564 1.410 . S
C563 C571 1.503 1_655 S
C564 C563 1.410 . S
C564 C565 1.392 . S
C564 C567 1.511 . S
C565 C561 1.376 . S
C565 C564 1.392 . S
C565 H577 0.929 . S
C566 C562 1.531 . S
C566 H578 0.960 1_655 S
C566 H579 0.962 1_655 S
C566 H580 0.960 . S
C567 C564 1.511 . S
C567 H581 0.961 . S
C567 H582 0.961 . S
C567 H583 0.961 . S
C568 C569 1.370 . S
C568 C570 1.363 . S
C568 H584 0.931 . S
C569 C568 1.370 . S
C569 C573 1.408 . S
C570 C568 1.363 . S
C570 C571 1.370 . S
C570 C574 1.524 . S
C571 C563 1.503 1_455 S
C571 C570 1.370 . S
C571 C572 1.403 . S
C572 C571 1.403 . S
C572 C573 1.404 . S
C572 C575 1.539 1_455 S
C573 C569 1.408 . S
C573 C572 1.404 . S
C573 H585 0.930 . S
C574 C570 1.524 . S
C574 H586 0.956 . S
C574 H587 0.961 . S
C574 H588 0.961 . S
C575 C572 1.539 1_655 S
C575 H589 0.958 . S
C575 H590 0.961 1_655 S
C575 H591 0.960 . S
H576 C560 0.931 . S
H577 C565 0.929 . S
H578 C566 0.960 1_455 S
H579 C566 0.962 1_455 S
H580 C566 0.960 . S
H581 C567 0.961 . S
H582 C567 0.961 . S
H583 C567 0.961 . S
H584 C568 0.931 . S
H585 C573 0.930 . S
H586 C574 0.956 . S
H587 C574 0.961 . S
H588 C574 0.961 . S
H589 C575 0.958 . S
H590 C575 0.961 1_455 S
H591 C575 0.960 . S
C592 C593 1.391 . S
C592 C594 1.394 . S
C592 H608 0.931 . S
C593 C592 1.391 . S
C593 C597 1.376 . S
C594 C592 1.394 . S
C594 C595 1.369 1_655 S
C594 C598 1.531 . S
C595 C594 1.369 1_455 S
C595 C596 1.410 1_455 S
C595 C603 1.503 . S
C596 C595 1.410 1_655 S
C596 C597 1.392 . S
C596 C599 1.511 1_655 S
C597 C593 1.376 . S
C597 C596 1.392 . S
C597 H609 0.929 . S
C598 C594 1.531 . S
C598 H610 0.960 1_655 S
C598 H611 0.962 . S
C598 H612 0.963 . S
C599 C596 1.511 1_455 S
C599 H613 0.961 1_455 S
C599 H614 0.961 . S
C599 H615 0.961 . S
C600 C601 1.370 1_655 S
C600 C602 1.363 . S
C600 H616 0.931 . S
C601 C600 1.370 1_455 S
C601 C605 1.408 . S
C602 C600 1.363 . S
C602 C603 1.370 1_655 S
C602 C606 1.524 . S
C603 C595 1.503 . S
C603 C602 1.370 1_455 S
C603 C604 1.403 . S
C604 C603 1.403 . S
C604 C605 1.404 . S
C604 C607 1.539 . S
C605 C601 1.408 . S
C605 C604 1.404 . S
C605 H617 0.930 . S
C606 C602 1.524 . S
C606 H618 0.956 . S
C606 H619 0.961 . S
C606 H620 0.961 . S
C607 C604 1.539 . S
C607 H621 0.958 . S
C607 H622 0.961 . S
C607 H623 0.960 . S
H608 C592 0.931 . S
H609 C597 0.929 . S
H610 C598 0.960 1_455 S
H611 C598 0.962 . S
H612 C598 0.963 . S
H613 C599 0.961 1_655 S
H614 C599 0.961 . S
H615 C599 0.961 . S
H616 C600 0.931 . S
H617 C605 0.930 . S
H618 C606 0.956 . S
H619 C606 0.961 . S
H620 C606 0.961 . S
H621 C607 0.958 . S
H622 C607 0.961 . S
H623 C607 0.960 . S
C624 C625 1.391 1_565 S
C624 C626 1.394 . S
C624 H640 0.931 . S
C625 C624 1.391 1_545 S
C625 C629 1.376 . S
C626 C624 1.394 . S
C626 C627 1.369 1_565 S
C626 C630 1.531 . S
C627 C626 1.369 1_545 S
C627 C628 1.410 . S
C627 C635 1.503 1_545 S
C628 C627 1.410 . S
C628 C629 1.392 . S
C628 C631 1.511 . S
C629 C625 1.376 . S
C629 C628 1.392 . S
C629 H641 0.929 . S
C630 C626 1.531 . S
C630 H642 0.960 . S
C630 H643 0.962 . S
C630 H644 0.960 . S
C631 C628 1.511 . S
C631 H645 0.961 . S
C631 H646 0.961 . S
C631 H647 0.961 . S
C632 C633 1.370 . S
C632 C634 1.363 . S
C632 H648 0.931 . S
C633 C632 1.370 . S
C633 C637 1.408 . S
C634 C632 1.363 . S
C634 C635 1.370 . S
C634 C638 1.524 . S
C635 C627 1.503 1_565 S
C635 C634 1.370 . S
C635 C636 1.403 . S
C636 C635 1.403 . S
C636 C637 1.404 . S
C636 C639 1.539 1_565 S
C637 C633 1.408 . S
C637 C636 1.404 . S
C637 H649 0.930 . S
C638 C634 1.524 . S
C638 H650 0.956 . S
C638 H651 0.961 . S
C638 H652 0.961 . S
C639 C636 1.539 1_545 S
C639 H653 0.974 . S
C639 H654 0.961 . S
C639 H655 0.960 . S
H640 C624 0.931 . S
H641 C629 0.929 . S
H642 C630 0.960 . S
H643 C630 0.962 . S
H644 C630 0.960 . S
H645 C631 0.961 . S
H646 C631 0.961 . S
H647 C631 0.961 . S
H648 C632 0.931 . S
H649 C637 0.930 . S
H650 C638 0.956 . S
H651 C638 0.961 . S
H652 C638 0.961 . S
H653 C639 0.974 . S
H654 C639 0.961 . S
H655 C639 0.960 . S
C656 C657 1.391 . S
C656 C658 1.394 . S
C656 H672 0.931 . S
C657 C656 1.391 . S
C657 C661 1.376 . S
C658 C656 1.394 . S
C658 C659 1.369 . S
C658 C662 1.531 . S
C659 C658 1.369 . S
C659 C660 1.410 . S
C659 C667 1.503 . S
C660 C659 1.410 . S
C660 C661 1.392 . S
C660 C663 1.511 . S
C661 C657 1.376 . S
C661 C660 1.392 . S
C661 H673 0.929 . S
C662 C658 1.531 . S
C662 H674 0.960 . S
C662 H675 0.962 . S
C662 H676 0.960 . S
C663 C660 1.511 . S
C663 H677 0.961 . S
C663 H678 0.961 . S
C663 H679 0.961 . S
C664 C665 1.370 . S
C664 C666 1.363 . S
C664 H680 0.931 . S
C665 C664 1.370 . S
C665 C669 1.408 . S
C666 C664 1.363 . S
C666 C667 1.370 . S
C666 C670 1.524 . S
C667 C659 1.503 . S
C667 C666 1.370 . S
C667 C668 1.403 . S
C668 C667 1.403 . S
C668 C669 1.404 . S
C668 C671 1.539 . S
C669 C665 1.408 . S
C669 C668 1.404 . S
C669 H681 0.930 . S
C670 C666 1.524 . S
C670 H682 0.956 . S
C670 H683 0.961 . S
C670 H684 0.961 . S
C671 C668 1.539 . S
C671 H685 0.958 . S
C671 H686 0.961 . S
C671 H687 0.960 . S
H672 C656 0.931 . S
H673 C661 0.929 . S
H674 C662 0.960 . S
H675 C662 0.962 . S
H676 C662 0.960 . S
H677 C663 0.961 . S
H678 C663 0.961 . S
H679 C663 0.961 . S
H680 C664 0.931 . S
H681 C669 0.930 . S
H682 C670 0.956 . S
H683 C670 0.961 . S
H684 C670 0.961 . S
H685 C671 0.958 . S
H686 C671 0.961 . S
H687 C671 0.960 . S
C688 C689 1.391 . S
C688 C690 1.394 . S
C688 H704 0.931 . S
C689 C688 1.391 . S
C689 C693 1.376 . S
C690 C688 1.394 . S
C690 C691 1.369 . S
C690 C694 1.531 . S
C691 C690 1.369 . S
C691 C692 1.410 . S
C691 C699 1.503 . S
C692 C691 1.410 . S
C692 C693 1.392 . S
C692 C695 1.511 . S
C693 C689 1.376 . S
C693 C692 1.392 . S
C693 H705 0.929 . S
C694 C690 1.531 . S
C694 H706 0.960 . S
C694 H707 0.962 . S
C694 H708 0.960 . S
C695 C692 1.511 . S
C695 H709 0.961 . S
C695 H710 0.961 . S
C695 H711 0.961 . S
C696 C697 1.370 . S
C696 C698 1.363 . S
C696 H712 0.931 . S
C697 C696 1.370 . S
C697 C701 1.408 . S
C698 C696 1.363 . S
C698 C699 1.370 . S
C698 C702 1.524 . S
C699 C691 1.503 . S
C699 C698 1.370 . S
C699 C700 1.403 . S
C700 C699 1.403 . S
C700 C701 1.404 . S
C700 C703 1.539 . S
C701 C697 1.408 . S
C701 C700 1.404 . S
C701 H713 0.930 . S
C702 C698 1.524 . S
C702 H714 0.956 . S
C702 H715 0.961 . S
C702 H716 0.961 . S
C703 C700 1.539 . S
C703 H717 0.958 . S
C703 H718 0.961 . S
C703 H719 0.960 . S
H704 C688 0.931 . S
H705 C693 0.929 . S
H706 C694 0.960 . S
H707 C694 0.962 . S
H708 C694 0.960 . S
H709 C695 0.961 . S
H710 C695 0.961 . S
H711 C695 0.961 . S
H712 C696 0.931 . S
H713 C701 0.930 . S
H714 C702 0.956 . S
H715 C702 0.961 . S
H716 C702 0.961 . S
H717 C703 0.958 . S
H718 C703 0.961 . S
H719 C703 0.960 . S
C720 C721 1.391 . S
C720 C722 1.394 . S
C720 H736 0.931 . S
C721 C720 1.391 . S
C721 C725 1.376 . S
C722 C720 1.394 . S
C722 C723 1.369 . S
C722 C726 1.531 . S
C723 C722 1.369 . S
C723 C724 1.410 . S
C723 C731 1.503 . S
C724 C723 1.410 . S
C724 C725 1.392 . S
C724 C727 1.511 . S
C725 C721 1.376 . S
C725 C724 1.392 . S
C725 H737 0.929 . S
C726 C722 1.531 . S
C726 H738 0.960 . S
C726 H739 0.962 . S
C726 H740 0.960 . S
C727 C724 1.511 . S
C727 H741 0.961 . S
C727 H742 0.961 . S
C727 H743 0.961 . S
C728 C729 1.370 . S
C728 C730 1.363 . S
C728 H744 0.931 . S
C729 C728 1.370 . S
C729 C733 1.408 . S
C730 C728 1.363 . S
C730 C731 1.370 . S
C730 C734 1.524 . S
C731 C723 1.503 . S
C731 C730 1.370 . S
C731 C732 1.403 . S
C732 C731 1.403 . S
C732 C733 1.404 . S
C732 C735 1.539 . S
C733 C729 1.408 . S
C733 C732 1.404 . S
C733 H745 0.930 . S
C734 C730 1.524 . S
C734 H746 0.956 . S
C734 H747 0.961 . S
C734 H748 0.961 . S
C735 C732 1.539 . S
C735 H749 0.958 . S
C735 H750 0.961 . S
C735 H751 0.960 . S
H736 C720 0.931 . S
H737 C725 0.929 . S
H738 C726 0.960 . S
H739 C726 0.962 . S
H740 C726 0.960 . S
H741 C727 0.961 . S
H742 C727 0.961 . S
H743 C727 0.961 . S
H744 C728 0.931 . S
H745 C733 0.930 . S
H746 C734 0.956 . S
H747 C734 0.961 . S
H748 C734 0.961 . S
H749 C735 0.958 . S
H750 C735 0.961 . S
H751 C735 0.960 . S
C752 C753 1.391 . S
C752 C754 1.394 . S
C752 H768 0.931 . S
C753 C752 1.391 . S
C753 C757 1.376 . S
C754 C752 1.394 . S
C754 C755 1.369 . S
C754 C758 1.531 . S
C755 C754 1.369 . S
C755 C756 1.410 . S
C755 C763 1.503 . S
C756 C755 1.410 . S
C756 C757 1.392 . S
C756 C759 1.511 . S
C757 C753 1.376 . S
C757 C756 1.392 . S
C757 H769 0.929 . S
C758 C754 1.531 . S
C758 H770 0.960 . S
C758 H771 0.962 . S
C758 H772 0.960 . S
C759 C756 1.511 . S
C759 H773 0.961 . S
C759 H774 0.961 . S
C759 H775 0.961 . S
C760 C761 1.370 . S
C760 C762 1.363 . S
C760 H776 0.931 . S
C761 C760 1.370 . S
C761 C765 1.408 . S
C762 C760 1.363 . S
C762 C763 1.370 . S
C762 C766 1.524 . S
C763 C755 1.503 . S
C763 C762 1.370 . S
C763 C764 1.403 . S
C764 C763 1.403 . S
C764 C765 1.404 . S
C764 C767 1.539 . S
C765 C761 1.408 . S
C765 C764 1.404 . S
C765 H777 0.930 . S
C766 C762 1.524 . S
C766 H778 0.956 . S
C766 H779 0.961 . S
C766 H780 0.961 . S
C767 C764 1.539 . S
C767 H781 0.958 . S
C767 H782 0.961 . S
C767 H783 0.960 . S
H768 C752 0.931 . S
H769 C757 0.929 . S
H770 C758 0.960 . S
H771 C758 0.962 . S
H772 C758 0.960 . S
H773 C759 0.961 . S
H774 C759 0.961 . S
H775 C759 0.961 . S
H776 C760 0.931 . S
H777 C765 0.930 . S
H778 C766 0.956 . S
H779 C766 0.961 . S
H780 C766 0.961 . S
H781 C767 0.958 . S
H782 C767 0.961 . S
H783 C767 0.960 . S
C784 C785 1.391 . S
C784 C786 1.394 . S
C784 H800 0.931 . S
C785 C784 1.391 . S
C785 C789 1.376 . S
C786 C784 1.394 . S
C786 C787 1.369 . S
C786 C790 1.531 . S
C787 C786 1.369 . S
C787 C788 1.410 . S
C787 C795 1.503 . S
C788 C787 1.410 . S
C788 C789 1.392 . S
C788 C791 1.511 . S
C789 C785 1.376 . S
C789 C788 1.392 . S
C789 H801 0.929 . S
C790 C786 1.531 . S
C790 H802 0.960 . S
C790 H803 0.962 . S
C790 H804 0.960 . S
C791 C788 1.511 . S
C791 H805 0.961 . S
C791 H806 0.961 . S
C791 H807 0.961 . S
C792 C793 1.370 . S
C792 C794 1.363 . S
C792 H808 0.931 . S
C793 C792 1.370 . S
C793 C797 1.408 . S
C794 C792 1.363 . S
C794 C795 1.370 . S
C794 C798 1.524 . S
C795 C787 1.503 . S
C795 C794 1.370 . S
C795 C796 1.403 . S
C796 C795 1.403 . S
C796 C797 1.404 . S
C796 C799 1.539 . S
C797 C793 1.408 . S
C797 C796 1.404 . S
C797 H809 0.930 . S
C798 C794 1.524 . S
C798 H810 0.956 . S
C798 H811 0.961 . S
C798 H812 0.961 . S
C799 C796 1.539 . S
C799 H813 0.958 . S
C799 H814 0.961 . S
C799 H815 0.960 . S
H800 C784 0.931 . S
H801 C789 0.929 . S
H802 C790 0.960 . S
H803 C790 0.962 . S
H804 C790 0.960 . S
H805 C791 0.961 . S
H806 C791 0.961 . S
H807 C791 0.961 . S
H808 C792 0.931 . S
H809 C797 0.930 . S
H810 C798 0.956 . S
H811 C798 0.961 . S
H812 C798 0.961 . S
H813 C799 0.958 . S
H814 C799 0.961 . S
H815 C799 0.960 . S
C816 C817 1.391 . S
C816 C818 1.394 . S
C816 H832 0.931 . S
C817 C816 1.391 . S
C817 C821 1.376 . S
C818 C816 1.394 . S
C818 C819 1.369 . S
C818 C822 1.531 . S
C819 C818 1.369 . S
C819 C820 1.410 . S
C819 C827 1.503 . S
C820 C819 1.410 . S
C820 C821 1.392 . S
C820 C823 1.511 . S
C821 C817 1.376 . S
C821 C820 1.392 . S
C821 H833 0.929 . S
C822 C818 1.531 . S
C822 H834 0.960 . S
C822 H835 0.962 . S
C822 H836 0.960 . S
C823 C820 1.511 . S
C823 H837 0.961 . S
C823 H838 0.961 . S
C823 H839 0.961 . S
C824 C825 1.370 . S
C824 C826 1.363 . S
C824 H840 0.931 . S
C825 C824 1.370 . S
C825 C829 1.408 . S
C826 C824 1.363 . S
C826 C827 1.370 . S
C826 C830 1.524 . S
C827 C819 1.503 . S
C827 C826 1.370 . S
C827 C828 1.403 . S
C828 C827 1.403 . S
C828 C829 1.404 . S
C828 C831 1.539 . S
C829 C825 1.408 . S
C829 C828 1.404 . S
C829 H841 0.930 . S
C830 C826 1.524 . S
C830 H842 0.956 . S
C830 H843 0.961 . S
C830 H844 0.961 . S
C831 C828 1.539 . S
C831 H845 0.958 . S
C831 H846 0.961 . S
C831 H847 0.960 . S
H832 C816 0.931 . S
H833 C821 0.929 . S
H834 C822 0.960 . S
H835 C822 0.962 . S
H836 C822 0.960 . S
H837 C823 0.961 . S
H838 C823 0.961 . S
H839 C823 0.961 . S
H840 C824 0.931 . S
H841 C829 0.930 . S
H842 C830 0.956 . S
H843 C830 0.961 . S
H844 C830 0.961 . S
H845 C831 0.958 . S
H846 C831 0.961 . S
H847 C831 0.960 . S
C848 C849 1.391 . S
C848 C850 1.394 . S
C848 H864 0.931 . S
C849 C848 1.391 . S
C849 C853 1.376 . S
C850 C848 1.394 . S
C850 C851 1.369 . S
C850 C854 1.531 . S
C851 C850 1.369 . S
C851 C852 1.410 . S
C851 C859 1.503 . S
C852 C851 1.410 . S
C852 C853 1.392 . S
C852 C855 1.511 . S
C853 C849 1.376 . S
C853 C852 1.392 . S
C853 H865 0.929 . S
C854 C850 1.531 . S
C854 H866 0.960 . S
C854 H867 0.962 . S
C854 H868 0.960 . S
C855 C852 1.511 . S
C855 H869 0.961 . S
C855 H870 0.961 . S
C855 H871 0.961 . S
C856 C857 1.370 . S
C856 C858 1.363 . S
C856 H872 0.931 . S
C857 C856 1.370 . S
C857 C861 1.408 . S
C858 C856 1.363 . S
C858 C859 1.370 . S
C858 C862 1.524 . S
C859 C851 1.503 . S
C859 C858 1.370 . S
C859 C860 1.403 . S
C860 C859 1.403 . S
C860 C861 1.404 . S
C860 C863 1.539 . S
C861 C857 1.408 . S
C861 C860 1.404 . S
C861 H873 0.930 . S
C862 C858 1.524 . S
C862 H874 0.956 . S
C862 H875 0.961 . S
C862 H876 0.961 . S
C863 C860 1.539 . S
C863 H877 0.958 . S
C863 H878 0.961 . S
C863 H879 0.960 . S
H864 C848 0.931 . S
H865 C853 0.929 . S
H866 C854 0.960 . S
H867 C854 0.962 . S
H868 C854 0.960 . S
H869 C855 0.961 . S
H870 C855 0.961 . S
H871 C855 0.961 . S
H872 C856 0.931 . S
H873 C861 0.930 . S
H874 C862 0.956 . S
H875 C862 0.961 . S
H876 C862 0.961 . S
H877 C863 0.958 . S
H878 C863 0.961 . S
H879 C863 0.960 . S
C880 C881 1.391 . S
C880 C882 1.394 . S
C880 H896 0.931 . S
C881 C880 1.391 . S
C881 C885 1.376 . S
C882 C880 1.394 . S
C882 C883 1.369 . S
C882 C886 1.531 . S
C883 C882 1.369 . S
C883 C884 1.410 . S
C883 C891 1.503 . S
C884 C883 1.410 . S
C884 C885 1.392 . S
C884 C887 1.511 . S
C885 C881 1.376 . S
C885 C884 1.392 . S
C885 H897 0.929 . S
C886 C882 1.531 . S
C886 H898 0.960 . S
C886 H899 0.962 . S
C886 H900 0.960 . S
C887 C884 1.511 . S
C887 H901 0.961 . S
C887 H902 0.961 . S
C887 H903 0.961 . S
C888 C889 1.370 . S
C888 C890 1.363 . S
C888 H904 0.931 . S
C889 C888 1.370 . S
C889 C893 1.408 . S
C890 C888 1.363 . S
C890 C891 1.370 . S
C890 C894 1.524 . S
C891 C883 1.503 . S
C891 C890 1.370 . S
C891 C892 1.403 . S
C892 C891 1.403 . S
C892 C893 1.404 . S
C892 C895 1.539 . S
C893 C889 1.408 . S
C893 C892 1.404 . S
C893 H905 0.930 . S
C894 C890 1.524 . S
C894 H906 0.956 . S
C894 H907 0.961 . S
C894 H908 0.961 . S
C895 C892 1.539 . S
C895 H909 0.958 . S
C895 H910 0.961 . S
C895 H911 0.960 . S
H896 C880 0.931 . S
H897 C885 0.929 . S
H898 C886 0.960 . S
H899 C886 0.962 . S
H900 C886 0.960 . S
H901 C887 0.961 . S
H902 C887 0.961 . S
H903 C887 0.961 . S
H904 C888 0.931 . S
H905 C893 0.930 . S
H906 C894 0.956 . S
H907 C894 0.961 . S
H908 C894 0.961 . S
H909 C895 0.958 . S
H910 C895 0.961 . S
H911 C895 0.960 . S
C912 C913 1.391 . S
C912 C914 1.394 . S
C912 H928 0.931 . S
C913 C912 1.391 . S
C913 C917 1.376 . S
C914 C912 1.394 . S
C914 C915 1.369 . S
C914 C918 1.531 . S
C915 C914 1.369 . S
C915 C916 1.410 . S
C915 C923 1.503 . S
C916 C915 1.410 . S
C916 C917 1.392 . S
C916 C919 1.511 . S
C917 C913 1.376 . S
C917 C916 1.392 . S
C917 H929 0.929 . S
C918 C914 1.531 . S
C918 H930 0.960 . S
C918 H931 0.962 . S
C918 H932 0.960 . S
C919 C916 1.511 . S
C919 H933 0.961 . S
C919 H934 0.961 . S
C919 H935 0.961 . S
C920 C921 1.370 . S
C920 C922 1.363 . S
C920 H936 0.931 . S
C921 C920 1.370 . S
C921 C925 1.408 . S
C922 C920 1.363 . S
C922 C923 1.370 . S
C922 C926 1.524 . S
C923 C915 1.503 . S
C923 C922 1.370 . S
C923 C924 1.403 . S
C924 C923 1.403 . S
C924 C925 1.404 . S
C924 C927 1.539 . S
C925 C921 1.408 . S
C925 C924 1.404 . S
C925 H937 0.930 . S
C926 C922 1.524 . S
C926 H938 0.956 . S
C926 H939 0.961 . S
C926 H940 0.961 . S
C927 C924 1.539 . S
C927 H941 0.958 . S
C927 H942 0.961 . S
C927 H943 0.960 . S
H928 C912 0.931 . S
H929 C917 0.929 . S
H930 C918 0.960 . S
H931 C918 0.962 . S
H932 C918 0.960 . S
H933 C919 0.961 . S
H934 C919 0.961 . S
H935 C919 0.961 . S
H936 C920 0.931 . S
H937 C925 0.930 . S
H938 C926 0.956 . S
H939 C926 0.961 . S
H940 C926 0.961 . S
H941 C927 0.958 . S
H942 C927 0.961 . S
H943 C927 0.960 . S
C944 C945 1.391 . S
C944 C946 1.394 . S
C944 H960 0.931 . S
C945 C944 1.391 . S
C945 C949 1.376 . S
C946 C944 1.394 . S
C946 C947 1.369 . S
C946 C950 1.531 . S
C947 C946 1.369 . S
C947 C948 1.410 . S
C947 C955 1.503 . S
C948 C947 1.410 . S
C948 C949 1.392 . S
C948 C951 1.511 . S
C949 C945 1.376 . S
C949 C948 1.392 . S
C949 H961 0.929 . S
C950 C946 1.531 . S
C950 H962 0.960 . S
C950 H963 0.962 . S
C950 H964 0.960 . S
C951 C948 1.511 . S
C951 H965 0.961 . S
C951 H966 0.961 . S
C951 H967 0.961 . S
C952 C953 1.370 . S
C952 C954 1.363 . S
C952 H968 0.931 . S
C953 C952 1.370 . S
C953 C957 1.408 . S
C954 C952 1.363 . S
C954 C955 1.370 . S
C954 C958 1.524 . S
C955 C947 1.503 . S
C955 C954 1.370 . S
C955 C956 1.403 . S
C956 C955 1.403 . S
C956 C957 1.404 . S
C956 C959 1.539 . S
C957 C953 1.408 . S
C957 C956 1.404 . S
C957 H969 0.930 . S
C958 C954 1.524 . S
C958 H970 0.956 . S
C958 H971 0.961 . S
C958 H972 0.961 . S
C959 C956 1.539 . S
C959 H973 0.958 . S
C959 H974 0.961 . S
C959 H975 0.960 . S
H960 C944 0.931 . S
H961 C949 0.929 . S
H962 C950 0.960 . S
H963 C950 0.962 . S
H964 C950 0.960 . S
H965 C951 0.961 . S
H966 C951 0.961 . S
H967 C951 0.961 . S
H968 C952 0.931 . S
H969 C957 0.930 . S
H970 C958 0.956 . S
H971 C958 0.961 . S
H972 C958 0.961 . S
H973 C959 0.958 . S
H974 C959 0.961 . S
H975 C959 0.960 . S
C976 C977 1.391 . S
C976 C978 1.394 . S
C976 H992 0.931 . S
C977 C976 1.391 . S
C977 C981 1.376 . S
C978 C976 1.394 . S
C978 C979 1.369 . S
C978 C982 1.531 . S
C979 C978 1.369 . S
C979 C980 1.410 . S
C979 C987 1.503 . S
C980 C979 1.410 . S
C980 C981 1.392 . S
C980 C983 1.511 . S
C981 C977 1.376 . S
C981 C980 1.392 . S
C981 H993 0.929 . S
C982 C978 1.531 . S
C982 H994 0.960 . S
C982 H995 0.962 . S
C982 H996 0.960 . S
C983 C980 1.511 . S
C983 H997 0.961 . S
C983 H998 0.961 . S
C983 H999 0.961 . S
C984 C985 1.370 . S
C984 C986 1.363 . S
C984 H1000 0.931 . S
C985 C984 1.370 . S
C985 C989 1.408 . S
C986 C984 1.363 . S
C986 C987 1.370 . S
C986 C990 1.524 . S
C987 C979 1.503 . S
C987 C986 1.370 . S
C987 C988 1.403 . S
C988 C987 1.403 . S
C988 C989 1.404 . S
C988 C991 1.539 . S
C989 C985 1.408 . S
C989 C988 1.404 . S
C989 H1001 0.930 . S
C990 C986 1.524 . S
C990 H1002 0.956 . S
C990 H1003 0.961 . S
C990 H1004 0.961 . S
C991 C988 1.539 . S
C991 H1005 0.958 . S
C991 H1006 0.961 . S
C991 H1007 0.960 . S
H992 C976 0.931 . S
H993 C981 0.929 . S
H994 C982 0.960 . S
H995 C982 0.962 . S
H996 C982 0.960 . S
H997 C983 0.961 . S
H998 C983 0.961 . S
H999 C983 0.961 . S
H1000 C984 0.931 . S
H1001 C989 0.930 . S
H1002 C990 0.956 . S
H1003 C990 0.961 . S
H1004 C990 0.961 . S
H1005 C991 0.958 . S
H1006 C991 0.961 . S
H1007 C991 0.960 . S
C1008 C1009 1.391 . S
C1008 C1010 1.394 . S
C1008 H1024 0.931 . S
C1009 C1008 1.391 . S
C1009 C1013 1.376 . S
C1010 C1008 1.394 . S
C1010 C1011 1.369 . S
C1010 C1014 1.531 . S
C1011 C1010 1.369 . S
C1011 C1012 1.410 . S
C1011 C1019 1.503 . S
C1012 C1011 1.410 . S
C1012 C1013 1.392 . S
C1012 C1015 1.511 . S
C1013 C1009 1.376 . S
C1013 C1012 1.392 . S
C1013 H1025 0.929 . S
C1014 C1010 1.531 . S
C1014 H1026 0.960 . S
C1014 H1027 0.962 . S
C1014 H1028 0.960 . S
C1015 C1012 1.511 . S
C1015 H1029 0.961 . S
C1015 H1030 0.961 . S
C1015 H1031 0.961 . S
C1016 C1017 1.370 . S
C1016 C1018 1.363 . S
C1016 H1032 0.931 . S
C1017 C1016 1.370 . S
C1017 C1021 1.408 . S
C1018 C1016 1.363 . S
C1018 C1019 1.370 . S
C1018 C1022 1.524 . S
C1019 C1011 1.503 . S
C1019 C1018 1.370 . S
C1019 C1020 1.403 . S
C1020 C1019 1.403 . S
C1020 C1021 1.404 . S
C1020 C1023 1.539 . S
C1021 C1017 1.408 . S
C1021 C1020 1.404 . S
C1021 H1033 0.930 . S
C1022 C1018 1.524 . S
C1022 H1034 0.956 . S
C1022 H1035 0.961 . S
C1022 H1036 0.961 . S
C1023 C1020 1.539 . S
C1023 H1037 0.958 . S
C1023 H1038 0.961 . S
C1023 H1039 0.960 . S
H1024 C1008 0.931 . S
H1025 C1013 0.929 . S
H1026 C1014 0.960 . S
H1027 C1014 0.962 . S
H1028 C1014 0.960 . S
H1029 C1015 0.961 . S
H1030 C1015 0.961 . S
H1031 C1015 0.961 . S
H1032 C1016 0.931 . S
H1033 C1021 0.930 . S
H1034 C1022 0.956 . S
H1035 C1022 0.961 . S
H1036 C1022 0.961 . S
H1037 C1023 0.958 . S
H1038 C1023 0.961 . S
H1039 C1023 0.960 . S
C1040 C1041 1.391 . S
C1040 C1042 1.394 1_565 S
C1040 H1056 0.931 . S
C1041 C1040 1.391 . S
C1041 C1045 1.376 . S
C1042 C1040 1.394 1_545 S
C1042 C1043 1.369 . S
C1042 C1046 1.531 . S
C1043 C1042 1.369 . S
C1043 C1044 1.410 1_545 S
C1043 C1051 1.503 1_556 S
C1044 C1043 1.410 1_565 S
C1044 C1045 1.392 . S
C1044 C1047 1.511 1_556 S
C1045 C1041 1.376 . S
C1045 C1044 1.392 . S
C1045 H1057 0.929 . S
C1046 C1042 1.531 . S
C1046 H1058 0.960 . S
C1046 H1059 0.962 . S
C1046 H1060 0.960 . S
C1047 C1044 1.511 1_554 S
C1047 H1061 0.961 . S
C1047 H1062 0.961 . S
C1047 H1063 0.961 . S
C1048 C1049 1.370 . S
C1048 C1050 1.363 . S
C1048 H1064 0.931 . S
C1049 C1048 1.370 . S
C1049 C1053 1.408 . S
C1050 C1048 1.363 . S
C1050 C1051 1.370 . S
C1050 C1054 1.524 1_545 S
C1051 C1043 1.503 1_554 S
C1051 C1050 1.370 . S
C1051 C1052 1.403 . S
C1052 C1051 1.403 . S
C1052 C1053 1.404 . S
C1052 C1055 1.539 1_554 S
C1053 C1049 1.408 . S
C1053 C1052 1.404 . S
C1053 H1065 0.930 . S
C1054 C1050 1.524 1_565 S
C1054 H1066 0.956 . S
C1054 H1067 0.961 . S
C1054 H1068 0.961 . S
C1055 C1052 1.539 1_556 S
C1055 H1069 0.958 . S
C1055 H1070 0.961 . S
C1055 H1071 0.960 . S
H1056 C1040 0.931 . S
H1057 C1045 0.929 . S
H1058 C1046 0.960 . S
H1059 C1046 0.962 . S
H1060 C1046 0.960 . S
H1061 C1047 0.961 . S
H1062 C1047 0.961 . S
H1063 C1047 0.961 . S
H1064 C1048 0.931 . S
H1065 C1053 0.930 . S
H1066 C1054 0.956 . S
H1067 C1054 0.961 . S
H1068 C1054 0.961 . S
H1069 C1055 0.958 . S
H1070 C1055 0.961 . S
H1071 C1055 0.960 . S
C1072 C1073 1.391 . S
C1072 C1074 1.394 . S
C1072 H1088 0.931 . S
C1073 C1072 1.391 . S
C1073 C1077 1.376 . S
C1074 C1072 1.394 . S
C1074 C1075 1.369 . S
C1074 C1078 1.531 1_554 S
C1075 C1074 1.369 . S
C1075 C1076 1.410 1_655 S
C1075 C1083 1.503 1_654 S
C1076 C1075 1.410 1_455 S
C1076 C1077 1.392 1_455 S
C1076 C1079 1.511 . S
C1077 C1073 1.376 . S
C1077 C1076 1.392 1_655 S
C1077 H1089 0.929 . S
C1078 C1074 1.531 1_556 S
C1078 H1090 0.960 . S
C1078 H1091 0.962 . S
C1078 H1092 0.960 . S
C1079 C1076 1.511 . S
C1079 H1093 0.961 . S
C1079 H1094 0.961 . S
C1079 H1095 0.961 . S
C1080 C1081 1.370 . S
C1080 C1082 1.363 . S
C1080 H1096 0.931 . S
C1081 C1080 1.370 . S
C1081 C1085 1.408 . S
C1082 C1080 1.363 . S
C1082 C1083 1.370 . S
C1082 C1086 1.524 1_556 S
C1083 C1075 1.503 1_456 S
C1083 C1082 1.370 . S
C1083 C1084 1.403 . S
C1084 C1083 1.403 . S
C1084 C1085 1.404 . S
C1084 C1087 1.539 . S
C1085 C1081 1.408 . S
C1085 C1084 1.404 . S
C1085 H1097 0.930 . S
C1086 C1082 1.524 1_554 S
C1086 H1098 0.956 1_455 S
C1086 H1099 0.961 . S
C1086 H1100 0.961 . S
C1087 C1084 1.539 . S
C1087 H1101 0.958 . S
C1087 H1102 0.961 . S
C1087 H1103 0.960 . S
H1088 C1072 0.931 . S
H1089 C1077 0.929 . S
H1090 C1078 0.960 . S
H1091 C1078 0.962 . S
H1092 C1078 0.960 . S
H1093 C1079 0.961 . S
H1094 C1079 0.961 . S
H1095 C1079 0.961 . S
H1096 C1080 0.931 . S
H1097 C1085 0.930 . S
H1098 C1086 0.956 1_655 S
H1099 C1086 0.961 . S
H1100 C1086 0.961 . S
H1101 C1087 0.958 . S
H1102 C1087 0.961 . S
H1103 C1087 0.960 . S
C1104 C1105 1.391 . S
C1104 C1106 1.394 . S
C1104 H1120 0.931 . S
C1105 C1104 1.391 . S
C1105 C1109 1.376 . S
C1106 C1104 1.394 . S
C1106 C1107 1.369 . S
C1106 C1110 1.531 . S
C1107 C1106 1.369 . S
C1107 C1108 1.410 . S
C1107 C1115 1.503 1_564 S
C1108 C1107 1.410 . S
C1108 C1109 1.392 . S
C1108 C1111 1.511 . S
C1109 C1105 1.376 . S
C1109 C1108 1.392 . S
C1109 H1121 0.929 . S
C1110 C1106 1.531 . S
C1110 H1122 0.960 1_565 S
C1110 H1123 0.962 1_554 S
C1110 H1124 0.960 . S
C1111 C1108 1.511 . S
C1111 H1125 0.961 . S
C1111 H1126 0.958 . S
C1111 H1127 0.961 . S
C1112 C1113 1.370 . S
C1112 C1114 1.363 1_545 S
C1112 H1128 0.931 . S
C1113 C1112 1.370 . S
C1113 C1117 1.408 . S
C1114 C1112 1.363 1_565 S
C1114 C1115 1.370 1_565 S
C1114 C1118 1.524 . S
C1115 C1107 1.503 1_546 S
C1115 C1114 1.370 1_545 S
C1115 C1116 1.403 . S
C1116 C1115 1.403 . S
C1116 C1117 1.404 . S
C1116 C1119 1.539 1_556 S
C1117 C1113 1.408 . S
C1117 C1116 1.404 . S
C1117 H1129 0.930 . S
C1118 C1114 1.524 . S
C1118 H1130 0.956 . S
C1118 H1131 0.961 . S
C1118 H1132 0.961 . S
C1119 C1116 1.539 1_554 S
C1119 H1133 0.958 . S
C1119 H1134 0.961 . S
C1119 H1135 0.960 . S
H1120 C1104 0.931 . S
H1121 C1109 0.929 . S
H1122 C1110 0.960 1_545 S
H1123 C1110 0.962 1_556 S
H1124 C1110 0.960 . S
H1125 C1111 0.961 . S
H1126 C1111 0.958 . S
H1127 C1111 0.961 . S
H1128 C1112 0.931 . S
H1129 C1117 0.930 . S
H1130 C1118 0.956 . S
H1131 C1118 0.961 . S
H1132 C1118 0.961 . S
H1133 C1119 0.958 . S
H1134 C1119 0.961 . S
H1135 C1119 0.960 . S
C1136 C1137 1.391 . S
C1136 C1138 1.394 . S
C1136 H1152 0.931 . S
C1137 C1136 1.391 . S
C1137 C1141 1.376 . S
C1138 C1136 1.394 . S
C1138 C1139 1.369 . S
C1138 C1142 1.531 1_556 S
C1139 C1138 1.369 . S
C1139 C1140 1.410 . S
C1139 C1147 1.503 1_656 S
C1140 C1139 1.410 . S
C1140 C1141 1.392 . S
C1140 C1143 1.511 1_655 S
C1141 C1137 1.376 . S
C1141 C1140 1.392 . S
C1141 H1153 0.929 . S
C1142 C1138 1.531 1_554 S
C1142 H1154 0.960 . S
C1142 H1155 0.962 . S
C1142 H1156 0.960 1_554 S
C1143 C1140 1.511 1_455 S
C1143 H1157 0.961 . S
C1143 H1158 0.961 . S
C1143 H1159 0.961 . S
C1144 C1145 1.370 . S
C1144 C1146 1.363 . S
C1144 H1160 0.931 . S
C1145 C1144 1.370 . S
C1145 C1149 1.408 . S
C1146 C1144 1.363 . S
C1146 C1147 1.370 . S
C1146 C1150 1.524 1_455 S
C1147 C1139 1.503 1_454 S
C1147 C1146 1.370 . S
C1147 C1148 1.403 . S
C1148 C1147 1.403 . S
C1148 C1149 1.404 . S
C1148 C1151 1.539 1_554 S
C1149 C1145 1.408 . S
C1149 C1148 1.404 . S
C1149 H1161 0.930 . S
C1150 C1146 1.524 1_655 S
C1150 H1162 0.956 . S
C1150 H1163 0.961 . S
C1150 H1164 0.961 . S
C1151 C1148 1.539 1_556 S
C1151 H1165 0.958 . S
C1151 H1166 0.961 . S
C1151 H1167 0.960 . S
H1152 C1136 0.931 . S
H1153 C1141 0.929 . S
H1154 C1142 0.960 . S
H1155 C1142 0.962 . S
H1156 C1142 0.960 1_556 S
H1157 C1143 0.961 . S
H1158 C1143 0.961 . S
H1159 C1143 0.961 . S
H1160 C1144 0.931 . S
H1161 C1149 0.930 . S
H1162 C1150 0.956 . S
H1163 C1150 0.961 . S
H1164 C1150 0.961 . S
H1165 C1151 0.958 . S
H1166 C1151 0.961 . S
H1167 C1151 0.960 . S
C273 C1 1.519 . S
C281 C176 1.631 1_554 S
C305 C232 1.627 1_556 S
C313 C37 1.514 . S
C337 C244 1.646 1_554 S
C345 C71 1.520 . S
C369 C105 1.515 . S
C377 C142 1.611 1_556 S
C401 C139 1.523 . S
C409 C108 1.613 . S
C433 C173 1.508 . S
C441 C28 1.613 . S
C465 C205 1.514 . S
C473 C40 1.615 . S
C497 C241 1.534 . S
C505 C74 1.609 . S
C529 C22 0.969 . S
C537 C83 1.004 . S
C561 C117 0.994 . S
C569 C49 0.961 . S
C593 C151 1.020 . S
C601 C226 0.964 . S
C625 C185 1.010 . S
C633 C253 1.005 . S
C657 C6 2.268 . S
C665 C137 2.221 . S
C689 C171 2.227 . S
C697 C62 2.287 . S
C721 C96 2.285 . S
C729 C207 2.225 . S
C753 C239 2.226 . S
C761 C130 2.272 . S
C785 C164 2.297 1_455 S
C793 C3 2.235 . S
C817 C198 2.266 1_565 S
C825 C35 2.221 . S
C849 C69 2.243 . S
C857 C210 2.275 1_655 S
C881 C103 2.243 . S
C889 C266 2.289 1_545 S
C913 C15 0.921 . S
C921 C51 0.901 . S
C945 C85 0.893 . S
C953 C56 0.871 . S
C977 C119 0.892 . S
C985 C90 0.871 . S
C1009 C17 0.900 . S
C1017 C124 0.903 . S
C1041 C255 0.904 . S
C1049 C158 0.902 . S
C1073 C153 0.903 . S
C1081 C192 0.905 . S
C1105 C219 0.894 . S
C1113 C187 0.899 . S
C1137 C260 0.913 . S
C1145 C221 0.899 . S
