# Generated by pormake.
# Topology umy, (4)-cn, num edge types: 1
# Building blocks:
#     Node 0, Type 0, BuildingBlock: NAHDIM_clean_sbu_0, # of connection points: 4
#     Node 1, Type 0, BuildingBlock: NAHDIM_clean_sbu_0, # of connection points: 4
#     Node 2, Type 0, BuildingBlock: NAHDIM_clean_sbu_0, # of connection points: 4
#     Node 3, Type 0, BuildingBlock: NAHDIM_clean_sbu_0, # of connection points: 4
#     Node 4, Type 0, BuildingBlock: NAHDIM_clean_sbu_0, # of connection points: 4
#     Node 5, Type 0, BuildingBlock: NAHDIM_clean_sbu_0, # of connection points: 4
#     Node 6, Type 0, BuildingBlock: NAHDIM_clean_sbu_0, # of connection points: 4
#     Node 7, Type 0, BuildingBlock: NAHDIM_clean_sbu_0, # of connection points: 4
#     Node 8, Type 0, BuildingBlock: NAHDIM_clean_sbu_0, # of connection points: 4
#     Node 9, Type 0, BuildingBlock: NAHDIM_clean_sbu_0, # of connection points: 4
#     Node 10, Type 0, BuildingBlock: NAHDIM_clean_sbu_0, # of connection points: 4
#     Node 11, Type 0, BuildingBlock: NAHDIM_clean_sbu_0, # of connection points: 4
#     Edge 12, Type (0, 0), BuildingBlock: XUDNAN_clean_linker_2, # of connection points: 2
#     Edge 13, Type (0, 0), BuildingBlock: XUDNAN_clean_linker_2, # of connection points: 2
#     Edge 14, Type (0, 0), BuildingBlock: XUDNAN_clean_linker_2, # of connection points: 2
#     Edge 15, Type (0, 0), BuildingBlock: XUDNAN_clean_linker_2, # of connection points: 2
#     Edge 16, Type (0, 0), BuildingBlock: XUDNAN_clean_linker_2, # of connection points: 2
#     Edge 17, Type (0, 0), BuildingBlock: XUDNAN_clean_linker_2, # of connection points: 2
#     Edge 18, Type (0, 0), BuildingBlock: XUDNAN_clean_linker_2, # of connection points: 2
#     Edge 19, Type (0, 0), BuildingBlock: XUDNAN_clean_linker_2, # of connection points: 2
#     Edge 20, Type (0, 0), BuildingBlock: XUDNAN_clean_linker_2, # of connection points: 2
#     Edge 21, Type (0, 0), BuildingBlock: XUDNAN_clean_linker_2, # of connection points: 2
#     Edge 22, Type (0, 0), BuildingBlock: XUDNAN_clean_linker_2, # of connection points: 2
#     Edge 23, Type (0, 0), BuildingBlock: XUDNAN_clean_linker_2, # of connection points: 2
#     Edge 24, Type (0, 0), BuildingBlock: XUDNAN_clean_linker_2, # of connection points: 2
#     Edge 25, Type (0, 0), BuildingBlock: XUDNAN_clean_linker_2, # of connection points: 2
#     Edge 26, Type (0, 0), BuildingBlock: XUDNAN_clean_linker_2, # of connection points: 2
#     Edge 27, Type (0, 0), BuildingBlock: XUDNAN_clean_linker_2, # of connection points: 2
#     Edge 28, Type (0, 0), BuildingBlock: XUDNAN_clean_linker_2, # of connection points: 2
#     Edge 29, Type (0, 0), BuildingBlock: XUDNAN_clean_linker_2, # of connection points: 2
#     Edge 30, Type (0, 0), BuildingBlock: XUDNAN_clean_linker_2, # of connection points: 2
#     Edge 31, Type (0, 0), BuildingBlock: XUDNAN_clean_linker_2, # of connection points: 2
#     Edge 32, Type (0, 0), BuildingBlock: XUDNAN_clean_linker_2, # of connection points: 2
#     Edge 33, Type (0, 0), BuildingBlock: XUDNAN_clean_linker_2, # of connection points: 2
#     Edge 34, Type (0, 0), BuildingBlock: XUDNAN_clean_linker_2, # of connection points: 2
#     Edge 35, Type (0, 0), BuildingBlock: XUDNAN_clean_linker_2, # of connection points: 2
# Relax obj value: 0.157
# Max RMSD: 0.142
# Mean RMSD: 0.142
data_MOF--net-umy--node1-NAHDIM_clean_sbu_0--edge1-XUDNAN_clean_linker_2
_symmetry_space_group_name_H-M    P1
_symmetry_Int_Tables_number       1
_symmetry_cell_setting            triclinic
loop_
_symmetry_equiv_pos_as_xyz
'x, y, z'
_cell_length_a     38.825303
_cell_length_b     38.699316
_cell_length_c     48.508049
_cell_angle_alpha  90.014259
_cell_angle_beta   89.915451
_cell_angle_gamma 120.03312
loop_
_atom_site_label
_atom_site_type_symbol
_atom_site_fract_x
_atom_site_fract_y
_atom_site_fract_z
_atom_type_partial_charge
C0 C 0.05845 0.41513 0.09494 0.0
O1 O 0.0361 0.39113 0.07521 0.0
O2 O 0.0012 0.3124 0.12696 0.0
Zn3 Zn 0.05776 0.34435 0.11361 0.0
O4 O 0.0673 0.3267 0.07675 0.0
C5 C 0.10435 0.35542 0.16348 0.0
O6 O 0.0969 0.3843 0.16895 0.0
O7 O 0.07238 0.40194 0.11318 0.0
C8 C 0.06611 0.29328 0.07613 0.0
O9 O 0.05642 0.27159 0.09869 0.0
C10 C 0.97333 0.27881 0.11868 0.0
O11 O 0.9792 0.26113 0.09758 0.0
O12 O 0.09139 0.33579 0.14123 0.0
C13 C 0.61704 0.01795 0.28494 0.0
O14 O 0.62261 0.99022 0.29615 0.0
O15 O 0.70426 0.01165 0.28517 0.0
Zn16 Zn 0.70297 0.06315 0.28657 0.0
O17 O 0.73993 0.10234 0.25854 0.0
C18 C 0.75521 0.09286 0.33175 0.0
O19 O 0.77355 0.07916 0.31633 0.0
O20 O 0.64708 0.05178 0.27938 0.0
C21 C 0.75434 0.09463 0.23745 0.0
O22 O 0.7444 0.0575 0.23207 0.0
C23 C 0.70507 0.97924 0.28413 0.0
O24 O 0.70384 0.96333 0.25997 0.0
O25 O 0.72238 0.08905 0.32369 0.0
C26 C 0.60377 0.66222 0.41291 0.0
O27 O 0.62345 0.69105 0.39504 0.0
O28 O 0.71208 0.71368 0.45459 0.0
Zn29 Zn 0.66319 0.71875 0.45004 0.0
O30 O 0.67363 0.76361 0.42372 0.0
C31 C 0.65725 0.72062 0.50985 0.0
O32 O 0.66927 0.69436 0.50933 0.0
O33 O 0.61586 0.66693 0.4377 0.0
C34 C 0.68584 0.79853 0.43314 0.0
O35 O 0.69216 0.80487 0.45974 0.0
C36 C 0.74668 0.74352 0.45086 0.0
O37 O 0.75027 0.77674 0.44099 0.0
O38 O 0.65134 0.73346 0.48726 0.0
C39 C 0.92466 0.58899 0.57959 0.0
O40 O 0.93137 0.61721 0.56173 0.0
O41 O 0.97389 0.68211 0.62712 0.0
Zn42 Zn 0.91737 0.64279 0.6164 0.0
O43 O 0.89821 0.66338 0.58531 0.0
C44 C 0.8904 0.65904 0.66733 0.0
O45 O 0.92239 0.69404 0.6636 0.0
O46 O 0.91678 0.59281 0.60447 0.0
C47 C 0.90057 0.69731 0.58606 0.0
O48 O 0.9153 0.71996 0.60798 0.0
C49 C -0.00195 0.71465 0.61522 0.0
O50 O 0.98751 0.72604 0.59286 0.0
O51 O 0.88183 0.63162 0.64967 0.0
C52 C 0.36071 0.95958 0.77026 0.0
O53 O 0.3679 0.99438 0.7797 0.0
O54 O 0.27205 0.97258 0.79392 0.0
Zn55 Zn 0.27195 0.92501 0.77728 0.0
O56 O 0.23975 0.90328 0.7431 0.0
C57 C 0.24879 0.88773 0.83078 0.0
O58 O 0.27484 0.92366 0.83945 0.0
O59 O 0.32517 0.93074 0.76892 0.0
C60 C 0.21068 0.90529 0.73302 0.0
O61 O 0.19882 0.92825 0.74462 0.0
C62 C 0.2846 0.00925 0.78908 0.0
O63 O 0.30463 0.02584 0.7664 0.0
O64 O 0.24388 0.8811 0.80504 0.0
C65 C 0.39021 0.34682 0.92553 0.0
O66 O 0.39071 0.32335 0.90616 0.0
O67 O 0.27343 0.26469 0.96217 0.0
Zn68 Zn 0.32716 0.27344 0.95116 0.0
O69 O 0.31937 0.23772 0.91866 0.0
C70 C 0.34696 0.26452 0.00723 0.0
O71 O 0.33395 0.2893 0.01257 0.0
O72 O 0.36554 0.33181 0.94526 0.0
C73 C 0.29446 0.20178 0.92498 0.0
O74 O 0.27825 0.19439 0.94965 0.0
C75 C 0.26017 0.28818 0.95742 0.0
O76 O 0.2827 0.32202 0.94449 0.0
O77 O 0.34751 0.25427 0.98242 0.0
C78 C 0.6048 0.95496 0.72363 0.0
O79 O 0.63611 0.98653 0.73374 0.0
O80 O 0.70342 0.98362 0.69629 0.0
Zn81 Zn 0.66211 0.93045 0.71131 0.0
O82 O 0.67561 0.9204 0.7492 0.0
C83 C 0.65443 0.88848 0.66056 0.0
O84 O 0.65169 0.91835 0.65013 0.0
O85 O 0.609 0.92742 0.71271 0.0
C86 C 0.70546 0.91582 0.75284 0.0
O87 O 0.72871 0.92041 0.73178 0.0
C88 C 0.73078 0.01197 0.71009 0.0
O89 O 0.73338 0.00768 0.73674 0.0
O90 O 0.65871 0.88717 0.68642 0.0
C91 C 0.62912 0.61031 0.9106 0.0
O92 O 0.64471 0.64078 0.92764 0.0
O93 O 0.70122 0.7064 0.87821 0.0
Zn94 Zn 0.7044 0.65641 0.88368 0.0
O95 O 0.73727 0.66165 0.91722 0.0
C96 C 0.75218 0.67133 0.83357 0.0
O97 O 0.76497 0.70898 0.83927 0.0
O98 O 0.64928 0.6105 0.88989 0.0
C99 C 0.77477 0.67698 0.91568 0.0
O100 O 0.79244 0.68942 0.89168 0.0
C101 C 0.73038 0.74143 0.88188 0.0
O102 O 0.76486 0.7465 0.88992 0.0
O103 O 0.72683 0.64438 0.84944 0.0
C104 C 0.06839 0.67304 0.07953 0.0
O105 O 0.0787 0.70192 0.09754 0.0
O106 O 0.01067 0.72129 0.03202 0.0
Zn107 Zn 0.06382 0.72953 0.04301 0.0
O108 O 0.08763 0.77057 0.07298 0.0
C109 C 0.08521 0.72992 0.98702 0.0
O110 O 0.05092 0.69639 0.98747 0.0
O111 O 0.05991 0.67783 0.05504 0.0
C112 C 0.07727 0.79624 0.07825 0.0
O113 O 0.04945 0.797 0.06332 0.0
C114 C 0.97847 0.70503 0.04572 0.0
O115 O 0.97765 0.69091 0.07049 0.0
O116 O 0.09822 0.74981 0.00918 0.0
C117 C 0.37273 0.02219 0.23984 0.0
O118 O 0.33608 -0.00059 0.2486 0.0
O119 O 0.28791 0.02677 0.20673 0.0
Zn120 Zn 0.34277 0.07178 0.21576 0.0
O121 O 0.33915 0.10318 0.24743 0.0
C122 C 0.35596 0.13484 0.17755 0.0
O123 O 0.33808 0.14399 0.19684 0.0
O124 O 0.38135 0.05311 0.22563 0.0
C125 C 0.32084 0.08604 0.26948 0.0
O126 O 0.30389 0.04705 0.27149 0.0
C127 C 0.28216 0.99484 0.19523 0.0
O128 O 0.31267 0.98986 0.1903 0.0
O129 O 0.36229 0.10602 0.18158 0.0
C130 C 0.35114 0.40942 0.39467 0.0
O131 O 0.34648 0.38514 0.41508 0.0
O132 O 0.29752 0.30352 0.36797 0.0
Zn133 Zn 0.278 0.34242 0.37316 0.0
O134 O 0.24207 0.32792 0.40635 0.0
C135 C 0.23472 0.3112 0.32217 0.0
O136 O 0.24087 0.28149 0.32765 0.0
O137 O 0.32526 0.39764 0.37564 0.0
C138 C 0.21427 0.29188 0.40875 0.0
O139 O 0.21016 0.26591 0.38973 0.0
C140 C 0.29841 0.27954 0.38546 0.0
O141 O 0.28766 0.27996 0.41109 0.0
O142 O 0.24716 0.34025 0.33898 0.0
C143 C 0.95169 0.35096 0.56166 0.0
O144 O 0.95175 0.33666 0.58621 0.0
O145 O 0.00384 0.28531 0.53557 0.0
Zn146 Zn 0.95008 0.27915 0.5425 0.0
O147 O 0.92782 0.25149 0.57891 0.0
C148 C 0.90367 0.25362 0.49094 0.0
O149 O 0.91608 0.29162 0.4868 0.0
O150 O 0.95171 0.3318 0.5404 0.0
C151 C 0.89048 0.22779 0.58016 0.0
O152 O 0.86843 0.22433 0.55868 0.0
C153 C 0.00537 0.25326 0.53586 0.0
O154 O 0.97333 0.21982 0.54293 0.0
O155 O 0.91463 0.24298 0.51244 0.0
H156 H 0.04395 0.60536 0.04848 0.0
H157 H 0.09408 0.65778 0.12805 0.0
H158 H 0.09781 0.59788 0.1403 0.0
H159 H 0.98358 0.50404 0.07302 0.0
H160 H 0.99183 0.48226 0.04266 0.0
H161 H 0.9929 0.52923 0.04027 0.0
H162 H 0.06349 0.56169 0.01885 0.0
H163 H 0.06277 0.5149 0.02135 0.0
H164 H 0.10255 0.55906 0.03708 0.0
H165 H 0.09825 0.53349 0.14332 0.0
H166 H 0.09123 0.46685 0.13819 0.0
H167 H 0.03935 0.45561 0.05709 0.0
C168 C 0.05559 0.60421 0.06853 0.0
C169 C 0.06885 0.63633 0.08728 0.0
C170 C 0.08374 0.63356 0.11334 0.0
C171 C 0.08607 0.5997 0.12047 0.0
C172 C 0.07319 0.5688 0.10139 0.0
C173 C 0.05792 0.57055 0.07605 0.0
C174 C 0.04581 0.53308 0.05941 0.0
C175 C 0.00086 0.51084 0.05351 0.0
C176 C 0.07011 0.54278 0.03259 0.0
C177 C 0.0568 0.51005 0.07933 0.0
C178 C 0.07276 0.53131 0.10334 0.0
C179 C 0.08563 0.51646 0.12466 0.0
C180 C 0.08165 0.47864 0.1215 0.0
C181 C 0.06468 0.45597 0.09726 0.0
C182 C 0.05233 0.47213 0.07589 0.0
H183 H 0.59528 0.06835 0.2609 0.0
H184 H 0.54659 0.94929 0.29525 0.0
H185 H 0.47861 0.93635 0.28599 0.0
H186 H 0.52218 0.08838 0.28824 0.0
H187 H 0.52082 0.11525 0.25831 0.0
H188 H 0.5656 0.11451 0.26665 0.0
H189 H 0.56578 0.08681 0.21802 0.0
H190 H 0.521 0.08753 0.2095 0.0
H191 H 0.52244 0.04187 0.20633 0.0
H192 H 0.41574 0.93764 0.27492 0.0
H193 H 0.36305 0.95267 0.26194 0.0
H194 H 0.45329 0.07032 0.23412 0.0
C195 C 0.57038 0.03947 0.26638 0.0
C196 C 0.5763 0.00988 0.27889 0.0
C197 C 0.54283 0.97248 0.28571 0.0
C198 C 0.50408 0.96481 0.2805 0.0
C199 C 0.49932 0.99476 0.26834 0.0
C200 C 0.53157 0.03127 0.26126 0.0
C201 C 0.51841 0.05869 0.2489 0.0
C202 C 0.53259 0.09643 0.26659 0.0
C203 C 0.53276 0.06933 0.21891 0.0
C204 C 0.4737 0.03206 0.25038 0.0
C205 C 0.46323 0.99529 0.26164 0.0
C206 C 0.42359 0.96623 0.2659 0.0
C207 C 0.39389 0.97507 0.25853 0.0
C208 C 0.40404 0.01259 0.24692 0.0
C209 C 0.44452 0.04123 0.24269 0.0
H210 H 0.55792 0.59472 0.44378 0.0
H211 H 0.5652 0.64772 0.3635 0.0
H212 H 0.50138 0.58896 0.3504 0.0
H213 H 0.51491 0.49257 0.41953 0.0
H214 H 0.48345 0.47166 0.44938 0.0
H215 H 0.53013 0.51767 0.45232 0.0
H216 H 0.49328 0.55242 0.47229 0.0
H217 H 0.44647 0.50661 0.46923 0.0
H218 H 0.45314 0.55145 0.453 0.0
H219 H 0.43582 0.52615 0.34658 0.0
H220 H 0.37438 0.46107 0.35112 0.0
H221 H 0.41 0.44769 0.43347 0.0
C222 C 0.54621 0.59389 0.42339 0.0
C223 C 0.56655 0.62591 0.40468 0.0
C224 C 0.55023 0.62359 0.37818 0.0
C225 C 0.51394 0.59037 0.37056 0.0
C226 C 0.49445 0.5596 0.38958 0.0
C227 C 0.51011 0.56082 0.41535 0.0
C228 C 0.4831 0.52364 0.43186 0.0
C229 C 0.50416 0.49999 0.43866 0.0
C230 C 0.46811 0.53418 0.45814 0.0
C231 C 0.44969 0.50148 0.41137 0.0
C232 C 0.45681 0.52288 0.38718 0.0
C233 C 0.42999 0.50899 0.36536 0.0
C234 C 0.39509 0.47202 0.3682 0.0
C235 C 0.38737 0.44919 0.39264 0.0
C236 C 0.41509 0.46432 0.41451 0.0
H237 H 0.92944 0.53458 0.61312 0.0
H238 H 0.92885 0.56536 0.52712 0.0
H239 H 0.9369 0.50841 0.51313 0.0
H240 H 0.00413 0.50598 0.60572 0.0
H241 H 0.98121 0.46591 0.63042 0.0
H242 H 0.97497 0.50882 0.63365 0.0
H243 H 0.89833 0.46282 0.63325 0.0
H244 H 0.90434 0.41977 0.63015 0.0
H245 H 0.87515 0.42836 0.60513 0.0
H246 H 0.94446 0.44785 0.50858 0.0
H247 H 0.95068 0.38778 0.51371 0.0
H248 H 0.94761 0.39753 0.60278 0.0
C249 C 0.93076 0.52924 0.59133 0.0
C250 C 0.92834 0.55429 0.57118 0.0
C251 C 0.93064 0.54654 0.5429 0.0
C252 C 0.93523 0.5143 0.53476 0.0
C253 C 0.93778 0.49034 0.55516 0.0
C254 C 0.93571 0.49746 0.58286 0.0
C255 C 0.93964 0.46752 0.60068 0.0
C256 C 0.97722 0.48831 0.61867 0.0
C257 C 0.90213 0.44317 0.61833 0.0
C258 C 0.9436 0.44201 0.57866 0.0
C259 C 0.94262 0.45577 0.55255 0.0
C260 C 0.94536 0.43685 0.52892 0.0
C261 C 0.94891 0.40275 0.53206 0.0
C262 C 0.94965 0.38793 0.55865 0.0
C263 C 0.94722 0.40811 0.58218 0.0
H264 H 0.58461 0.00736 0.74681 0.0
H265 H 0.53423 0.89191 0.70646 0.0
H266 H 0.46699 0.88215 0.71282 0.0
H267 H 0.50986 0.97917 0.79781 0.0
H268 H 0.50943 0.02552 0.79714 0.0
H269 H 0.55408 0.02483 0.78814 0.0
H270 H 0.55648 0.05754 0.74105 0.0
H271 H 0.5119 0.05852 0.74995 0.0
H272 H 0.5138 0.03448 0.71862 0.0
H273 H 0.40556 0.88284 0.72561 0.0
H274 H 0.35278 0.89464 0.74274 0.0
H275 H 0.44201 0.01024 0.77451 0.0
C276 C 0.55947 0.98019 0.73908 0.0
C277 C 0.56473 0.95036 0.72616 0.0
C278 C 0.53102 0.91519 0.71642 0.0
C279 C 0.49267 0.90936 0.71991 0.0
C280 C 0.48851 0.93906 0.73304 0.0
C281 C 0.52089 0.97391 0.74232 0.0
C282 C 0.50788 0.0006 0.75631 0.0
C283 C 0.5211 0.00794 0.78665 0.0
C284 C 0.52344 0.04013 0.74053 0.0
C285 C 0.46307 0.97491 0.75385 0.0
C286 C 0.45271 0.93963 0.74027 0.0
C287 C 0.41325 0.91046 0.7361 0.0
C288 C 0.38348 0.91746 0.74604 0.0
C289 C 0.39318 0.95342 0.76 0.0
C290 C 0.43361 0.98258 0.76382 0.0
H291 H 0.44925 0.3892 0.8876 0.0
H292 H 0.39974 0.40167 0.96482 0.0
H293 H 0.4532 0.47192 0.96786 0.0
H294 H 0.54933 0.44564 0.90614 0.0
H295 H 0.56673 0.46878 0.8729 0.0
H296 H 0.52251 0.42056 0.87533 0.0
H297 H 0.48248 0.44744 0.84925 0.0
H298 H 0.52671 0.49578 0.84661 0.0
H299 H 0.48231 0.4911 0.86204 0.0
H300 H 0.51489 0.53911 0.9645 0.0
H301 H 0.57977 0.59881 0.95435 0.0
H302 H 0.58875 0.54267 0.87926 0.0
C303 C 0.44927 0.40685 0.90493 0.0
C304 C 0.42027 0.38986 0.92595 0.0
C305 C 0.42155 0.41397 0.9484 0.0
C306 C 0.45179 0.45397 0.95032 0.0
C307 C 0.48033 0.46955 0.92952 0.0
C308 C 0.47916 0.44688 0.90714 0.0
C309 C 0.51439 0.47035 0.88821 0.0
C310 C 0.53973 0.45012 0.88551 0.0
C311 C 0.50064 0.47653 0.85985 0.0
C312 C 0.5362 0.50926 0.90393 0.0
C313 C 0.51586 0.50837 0.92755 0.0
C314 C 0.53089 0.54035 0.9459 0.0
C315 C 0.5678 0.5741 0.93998 0.0
C316 C 0.58933 0.57547 0.916 0.0
C317 C 0.57299 0.54266 0.8977 0.0
H318 H 0.11443 0.34143 0.03483 0.0
H319 H 0.05354 0.21911 0.06415 0.0
H320 H 0.08897 0.20183 0.02955 0.0
H321 H 0.12395 0.31756 0.95934 0.0
H322 H 0.17274 0.36117 0.95693 0.0
H323 H 0.13541 0.36171 0.97882 0.0
H324 H 0.18371 0.38215 0.02025 0.0
H325 H 0.22089 0.38126 0.99871 0.0
H326 H 0.20456 0.35131 0.02958 0.0
H327 H 0.13959 0.20076 -0.0005 0.0
H328 H 0.20136 0.21564 0.97538 0.0
H329 H 0.23073 0.33884 0.96517 0.0
C330 C 0.10735 0.31066 0.03315 0.0
C331 C 0.08111 0.28152 0.05202 0.0
C332 C 0.07345 0.24184 0.04981 0.0
C333 C 0.09328 0.23169 0.03011 0.0
C334 C 0.12046 0.26151 0.01266 0.0
C335 C 0.12722 0.30014 0.01371 0.0
C336 C 0.1619 0.32772 0.9954 0.0
C337 C 0.14764 0.34293 0.97118 0.0
C338 C 0.19468 0.36263 0.01199 0.0
C339 C 0.17536 0.29921 0.98554 0.0
C340 C 0.15035 0.26095 0.99515 0.0
C341 C 0.15885 0.23033 0.99127 0.0
C342 C 0.19419 0.23917 0.97772 0.0
C343 C 0.22077 0.27838 0.96836 0.0
C344 C 0.21062 0.30845 0.97168 0.0
H345 H 0.79231 0.09027 0.19059 0.0
H346 H 0.78295 0.17425 0.24518 0.0
H347 H 0.83383 0.23017 0.21793 0.0
H348 H 0.89625 0.14556 0.18189 0.0
H349 H 0.89587 0.13321 0.14602 0.0
H350 H 0.85633 0.09939 0.16844 0.0
H351 H 0.80456 0.10114 0.13568 0.0
H352 H 0.84405 0.13517 0.11319 0.0
H353 H 0.80899 0.14843 0.12679 0.0
H354 H 0.88884 0.27693 0.18756 0.0
H355 H 0.9455 0.31199 0.15569 0.0
H356 H 0.91899 0.19853 0.11977 0.0
C357 C 0.80059 0.1204 0.19659 0.0
C358 C 0.78348 0.12781 0.21999 0.0
C359 C 0.79543 0.16772 0.22729 0.0
C360 C 0.82428 0.19976 0.2119 0.0
C361 C 0.84072 0.19147 0.18912 0.0
C362 C 0.82931 0.15285 0.18136 0.0
C363 C 0.85316 0.15244 0.1567 0.0
C364 C 0.8768 0.13142 0.1637 0.0
C365 C 0.82607 0.13315 0.1316 0.0
C366 C 0.88045 0.19686 0.15238 0.0
C367 C 0.87245 0.21876 0.17119 0.0
C368 C 0.89509 0.2602 0.17246 0.0
C369 C 0.92724 0.27982 0.15431 0.0
C370 C 0.93645 0.25801 0.13514 0.0
C371 C 0.91222 0.21604 0.13386 0.0
H372 H 0.68139 0.7977 0.37654 0.0
H373 H 0.70605 0.8745 0.44784 0.0
H374 H 0.71565 0.92957 0.41732 0.0
H375 H 0.7535 0.87441 0.33075 0.0
H376 H 0.72195 0.85497 0.30087 0.0
H377 H 0.71809 0.82178 0.32826 0.0
H378 H 0.6428 0.79712 0.33294 0.0
H379 H 0.64638 0.83025 0.30561 0.0
H380 H 0.62672 0.83289 0.33874 0.0
H381 H 0.71764 0.97456 0.37965 0.0
H382 H 0.7162 0.00809 0.33684 0.0
H383 H 0.69406 0.90369 0.28964 0.0
C384 C 0.68902 0.82616 0.38573 0.0
C385 C 0.69283 0.83174 0.41459 0.0
C386 C 0.70292 0.86947 0.42579 0.0
C387 C 0.70845 0.90096 0.40864 0.0
C388 C 0.70409 0.89436 0.38032 0.0
C389 C 0.69494 0.85805 0.36889 0.0
C390 C 0.69153 0.85875 0.33781 0.0
C391 C 0.72316 0.85209 0.32359 0.0
C392 C 0.64935 0.82793 0.32822 0.0
C393 C 0.69979 0.90102 0.33361 0.0
C394 C 0.70676 0.92094 0.35842 0.0
C395 C 0.71295 0.95956 0.36002 0.0
C396 C 0.71217 0.97842 0.33557 0.0
C397 C 0.70586 0.95894 0.3098 0.0
C398 C 0.69964 0.91969 0.30893 0.0
H399 H 0.75211 0.67914 0.46842 0.0
H400 H 0.81904 0.80836 0.46246 0.0
H401 H 0.87097 0.80992 0.49238 0.0
H402 H 0.76569 0.67126 0.53569 0.0
H403 H 0.77204 0.62823 0.53421 0.0
H404 H 0.74414 0.63593 0.50783 0.0
H405 H 0.79013 0.63346 0.4701 0.0
H406 H 0.81787 0.62491 0.49635 0.0
H407 H 0.84321 0.66595 0.47262 0.0
H408 H 0.90691 0.79871 0.53067 0.0
H409 H 0.92973 0.77447 0.56984 0.0
H410 H 0.84248 0.65242 0.54894 0.0
C411 C 0.77839 0.70764 0.47262 0.0
C412 C 0.78145 0.74361 0.46323 0.0
C413 C 0.8161 0.78038 0.46932 0.0
C414 C 0.84579 0.7816 0.48634 0.0
C415 C 0.84087 0.74573 0.49648 0.0
C416 C 0.80862 0.70931 0.48922 0.0
C417 C 0.8088 0.67539 0.50465 0.0
C418 C 0.7704 0.65133 0.5216 0.0
C419 C 0.81541 0.64833 0.48474 0.0
C420 C 0.84458 0.69866 0.52307 0.0
C421 C 0.86289 0.73917 0.51786 0.0
C422 C 0.89366 0.767 0.53438 0.0
C423 C 0.90614 0.75303 0.55671 0.0
C424 C 0.88806 0.71165 0.56212 0.0
C425 C 0.85734 0.68418 0.54483 0.0
H426 H 0.03089 0.79376 0.62692 0.0
H427 H 0.05021 0.69311 0.63397 0.0
H428 H 0.11199 0.73485 0.66021 0.0
H429 H 0.13764 0.87473 0.62458 0.0
H430 H 0.12845 0.90741 0.64593 0.0
H431 H 0.09001 0.87218 0.62336 0.0
H432 H 0.04198 0.84309 0.66499 0.0
H433 H 0.08024 0.87793 0.68767 0.0
H434 H 0.05652 0.82513 0.69453 0.0
H435 H 0.16801 0.78487 0.68773 0.0
H436 H 0.21224 0.83806 0.71936 0.0
H437 H 0.15379 0.9055 0.69883 0.0
C438 C 0.04898 0.78111 0.63329 0.0
C439 C 0.03672 0.74072 0.62803 0.0
C440 C 0.05978 0.72427 0.63757 0.0
C441 C 0.09485 0.74774 0.65234 0.0
C442 C 0.1059 0.78734 0.6577 0.0
C443 C 0.08356 0.80391 0.64874 0.0
C444 C 0.09937 0.84555 0.66037 0.0
C445 C 0.11479 0.87682 0.63718 0.0
C446 C 0.06764 0.84804 0.67794 0.0
C447 C 0.1333 0.84923 0.67795 0.0
C448 C 0.13709 0.8157 0.67536 0.0
C449 C 0.16559 0.81141 0.6898 0.0
C450 C 0.19062 0.84193 0.70772 0.0
C451 C 0.18651 0.87604 0.71158 0.0
C452 C 0.15768 0.87986 0.69625 0.0
H453 H 0.31329 0.09096 0.79083 0.0
H454 H 0.24057 0.98048 0.8358 0.0
H455 H 0.23206 0.01799 0.87324 0.0
H456 H 0.36487 0.15008 0.84768 0.0
H457 H 0.36491 0.19456 0.83658 0.0
H458 H 0.3626 0.15923 0.81146 0.0
H459 H 0.29798 0.15304 0.79133 0.0
H460 H 0.3002 0.18853 0.81638 0.0
H461 H 0.25621 0.14003 0.8138 0.0
H462 H 0.23451 0.06585 0.9071 0.0
H463 H 0.24819 0.12291 0.93644 0.0
H464 H 0.31971 0.20433 0.87112 0.0
C465 C 0.2951 0.07469 0.80836 0.0
C466 C 0.27767 0.03271 0.81027 0.0
C467 C 0.25433 0.01257 0.83372 0.0
C468 C 0.24912 0.03358 0.85515 0.0
C469 C 0.26712 0.07479 0.85289 0.0
C470 C 0.28944 0.09532 0.83013 0.0
C471 C 0.30682 0.14001 0.83383 0.0
C472 C 0.35251 0.16226 0.83231 0.0
C473 C 0.28925 0.15636 0.81257 0.0
C474 C 0.29227 0.14119 0.86271 0.0
C475 C 0.26879 0.10306 0.87294 0.0
C476 C 0.25252 0.09591 0.89928 0.0
C477 C 0.26057 0.12864 0.91582 0.0
C478 C 0.28504 0.16817 0.90612 0.0
C479 C 0.30084 0.17447 0.87908 0.0
H480 H 0.77763 0.79459 0.84344 0.0
H481 H 0.67482 0.76193 0.89512 0.0
H482 H 0.66468 0.81342 0.87226 0.0
H483 H 0.81176 0.90336 0.83389 0.0
H484 H 0.82332 0.90168 0.79808 0.0
H485 H 0.82808 0.86943 0.82271 0.0
H486 H 0.78116 0.8079 0.79311 0.0
H487 H 0.77611 0.8398 0.76853 0.0
H488 H 0.73243 0.79946 0.78435 0.0
H489 H 0.66072 0.86158 0.84019 0.0
H490 H 0.65915 0.8982 0.7991 0.0
H491 H 0.76199 0.89597 0.766 0.0
C492 C 0.75403 0.79958 0.85061 0.0
C493 C 0.72759 0.77545 0.87142 0.0
C494 C 0.6957 0.78094 0.8795 0.0
C495 C 0.6899 0.81013 0.86673 0.0
C496 C 0.7159 0.83291 0.84566 0.0
C497 C 0.7472 0.82775 0.83751 0.0
C498 C 0.76667 0.85097 0.81147 0.0
C499 C 0.81003 0.88329 0.81688 0.0
C500 C 0.7639 0.82286 0.78799 0.0
C501 C 0.74082 0.86921 0.80583 0.0
C502 C 0.71233 0.85919 0.82613 0.0
C503 C 0.68322 0.87009 0.82436 0.0
C504 C 0.68254 0.89083 0.80089 0.0
C505 C 0.71044 0.89992 0.77931 0.0
C506 C 0.74053 0.88984 0.78226 0.0
H507 H 0.85549 0.71937 0.92085 0.0
H508 H 0.74737 0.64247 0.96642 0.0
H509 H 0.78768 0.64571 0.00684 0.0
H510 H 0.91135 0.67796 0.94416 0.0
H511 H 0.95763 0.72458 0.94628 0.0
H512 H 0.92011 0.71916 0.92218 0.0
H513 H 0.92044 0.78082 0.94347 0.0
H514 H 0.95807 0.78643 0.96767 0.0
H515 H 0.91213 0.78186 0.97996 0.0
H516 H 0.84068 0.65287 0.04085 0.0
H517 H 0.90139 0.66365 0.06513 0.0
H518 H 0.97343 0.73662 0.99682 0.0
C519 C 0.8402 0.70352 0.93941 0.0
C520 C 0.79834 0.68056 0.94048 0.0
C521 C 0.77948 0.66033 0.96518 0.0
C522 C 0.8021 0.66205 0.98825 0.0
C523 C 0.84344 0.68456 0.98634 0.0
C524 C 0.86223 0.70521 0.96259 0.0
C525 C 0.90694 0.72583 0.96521 0.0
C526 C 0.92504 0.71097 0.94316 0.0
C527 C 0.92547 0.77144 0.96401 0.0
C528 C 0.91044 0.71223 0.99372 0.0
C529 C 0.87363 0.68891 0.00583 0.0
C530 C 0.86968 0.67149 0.03169 0.0
C531 C 0.90428 0.67772 0.04531 0.0
C532 C 0.94211 0.70087 0.03286 0.0
C533 C 0.94499 0.71878 0.00696 0.0
H534 H 0.25434 0.9168 0.18195 0.0
H535 H 0.22136 0.00858 0.18279 0.0
H536 H 0.15966 0.96372 0.1575 0.0
H537 H 0.22664 0.88419 0.11689 0.0
H538 H 0.20644 0.83168 0.12349 0.0
H539 H 0.24406 0.8679 0.14581 0.0
H540 H 0.1979 0.83617 0.18812 0.0
H541 H 0.16013 0.79942 0.16589 0.0
H542 H 0.14864 0.82985 0.18789 0.0
H543 H 0.1078 0.91334 0.12564 0.0
H544 H 0.06818 0.86009 0.09199 0.0
H545 H 0.13425 0.8007 0.11336 0.0
C546 C 0.23359 0.92703 0.17743 0.0
C547 C 0.24256 0.96608 0.18423 0.0
C548 C 0.21486 0.97859 0.17793 0.0
C549 C 0.17974 0.95333 0.16359 0.0
C550 C 0.1724 0.91539 0.15633 0.0
C551 C 0.19816 0.90197 0.16355 0.0
C552 C 0.1849 0.86107 0.15168 0.0
C553 C 0.21744 0.86127 0.13337 0.0
C554 C 0.17213 0.82978 0.17477 0.0
C555 C 0.14946 0.85491 0.13494 0.0
C556 C 0.14212 0.88609 0.13833 0.0
C557 C 0.1127 0.88832 0.12329 0.0
C558 C 0.09046 0.85803 0.10414 0.0
C559 C 0.09811 0.82624 0.10006 0.0
C560 C 0.12751 0.82447 0.11609 0.0
H561 H 0.34594 0.16578 0.26951 0.0
H562 H 0.28884 0.05982 0.32095 0.0
H563 H 0.28271 0.0996 0.35853 0.0
H564 H 0.4007 0.23715 0.32431 0.0
H565 H 0.39298 0.27536 0.30933 0.0
H566 H 0.39581 0.2392 0.28748 0.0
H567 H 0.32696 0.21957 0.26654 0.0
H568 H 0.32405 0.25579 0.28816 0.0
H569 H 0.28486 0.20434 0.28914 0.0
H570 H 0.28005 0.15083 0.3897 0.0
H571 H 0.27686 0.20773 0.41025 0.0
H572 H 0.33478 0.27888 0.33764 0.0
C573 C 0.33259 0.15096 0.28878 0.0
C574 C 0.31809 0.10976 0.29236 0.0
C575 C 0.30031 0.09142 0.31779 0.0
C576 C 0.29685 0.11379 0.33929 0.0
C577 C 0.31138 0.1544 0.33502 0.0
C578 C 0.32876 0.17272 0.31033 0.0
C579 C 0.33971 0.21608 0.31017 0.0
C580 C 0.38499 0.24357 0.30768 0.0
C581 C 0.31756 0.2244 0.28715 0.0
C582 C 0.32496 0.21915 0.33839 0.0
C583 C 0.30928 0.18352 0.35265 0.0
C584 C 0.29256 0.17898 0.37881 0.0
C585 C 0.29104 0.21148 0.39037 0.0
C586 C 0.30564 0.24768 0.37554 0.0
C587 C 0.3235 0.25161 0.34951 0.0
H588 H 0.19794 0.33899 0.44217 0.0
H589 H 0.16659 0.21603 0.42762 0.0
H590 H 0.116 0.19394 0.46445 0.0
H591 H 0.17889 0.32992 0.51827 0.0
H592 H 0.15814 0.36243 0.51714 0.0
H593 H 0.19651 0.36937 0.49305 0.0
H594 H 0.15083 0.36375 0.45231 0.0
H595 H 0.11252 0.35694 0.47622 0.0
H596 H 0.10194 0.32031 0.4497 0.0
H597 H 0.0646 0.18446 0.4991 0.0
H598 H 0.01261 0.18757 0.5263 0.0
H599 H 0.07556 0.31652 0.51734 0.0
C600 C 0.18112 0.30753 0.44725 0.0
C601 C 0.18634 0.27922 0.43224 0.0
C602 C 0.16309 0.23822 0.43894 0.0
C603 C 0.1345 0.22542 0.45996 0.0
C604 C 0.12953 0.25399 0.47406 0.0
C605 C 0.15211 0.29421 0.46796 0.0
C606 C 0.13777 0.31827 0.48394 0.0
C607 C 0.16973 0.34668 0.50431 0.0
C608 C 0.125 0.34113 0.46437 0.0
C609 C 0.10249 0.28511 0.49898 0.0
C610 C 0.09895 0.2484 0.49358 0.0
C611 C 0.06732 0.21307 0.50377 0.0
C612 C 0.0379 0.21517 0.5192 0.0
C613 C 0.03995 0.25229 0.52391 0.0
C614 C 0.0733 0.28774 0.51427 0.0
H615 H 0.82075 0.15734 0.58143 0.0
H616 H 0.91954 0.23865 0.63302 0.0
H617 H 0.88871 0.19307 0.67283 0.0
H618 H 0.74292 0.12526 0.63176 0.0
H619 H 0.7174 0.0743 0.61987 0.0
H620 H 0.74662 0.11421 0.59613 0.0
H621 H 0.78757 0.08031 0.58325 0.0
H622 H 0.75849 0.04031 0.60695 0.0
H623 H 0.81189 0.06823 0.61008 0.0
H624 H 0.84616 0.13769 0.70692 0.0
H625 H 0.79761 0.07641 0.73162 0.0
H626 H 0.72906 0.03157 0.65628 0.0
C627 C 0.83573 0.16585 0.60117 0.0
C628 C 0.87226 0.20168 0.60431 0.0
C629 C 0.8914 0.21133 0.63029 0.0
C630 C 0.8741 0.18569 0.65296 0.0
C631 C 0.83801 0.15043 0.6491 0.0
C632 C 0.81929 0.14044 0.62375 0.0
C633 C 0.78177 0.10012 0.62448 0.0
C634 C 0.74501 0.10371 0.61767 0.0
C635 C 0.78516 0.0705 0.60504 0.0
C636 C 0.78187 0.0891 0.65432 0.0
C637 C 0.81442 0.11841 0.66829 0.0
C638 C 0.82061 0.11453 0.69615 0.0
C639 C 0.79287 0.07967 0.71001 0.0
C640 C 0.75958 0.04917 0.69588 0.0
C641 C 0.75419 0.05424 0.66771 0.0
H642 H 0.21356 0.36589 0.30531 0.0
H643 H 0.21139 0.25711 0.28008 0.0
H644 H 0.17989 0.258 0.23619 0.0
H645 H 0.11886 0.3413 0.27675 0.0
H646 H 0.13458 0.39166 0.26604 0.0
H647 H 0.15776 0.38293 0.29526 0.0
H648 H 0.22688 0.42534 0.27232 0.0
H649 H 0.20388 0.43403 0.24294 0.0
H650 H 0.23532 0.41254 0.23821 0.0
H651 H 0.14882 0.27057 0.19509 0.0
H652 H 0.11725 0.29221 0.16036 0.0
H653 H 0.13863 0.39232 0.21248 0.0
C654 C 0.20649 0.34226 0.29056 0.0
C655 C 0.21501 0.31146 0.29614 0.0
C656 C 0.20513 0.28102 0.27631 0.0
C657 C 0.18733 0.2813 0.25126 0.0
C658 C 0.17952 0.31217 0.24637 0.0
C659 C 0.18858 0.34199 0.26548 0.0
C660 C 0.17635 0.3713 0.2553 0.0
C661 C 0.14502 0.3718 0.27448 0.0
C662 C 0.21278 0.41328 0.252 0.0
C663 C 0.15868 0.35307 0.22758 0.0
C664 C 0.16113 0.31917 0.22276 0.0
C665 C 0.14671 0.29706 0.19862 0.0
C666 C 0.12886 0.30966 0.179 0.0
C667 C 0.12535 0.34393 0.1837 0.0
C668 C 0.1408 0.366 0.20827 0.0
H669 H 0.87536 0.26496 0.44166 0.0
H670 H 0.87281 0.17305 0.4945 0.0
H671 H 0.83093 0.12183 0.46062 0.0
H672 H 0.77326 0.20628 0.41648 0.0
H673 H 0.78591 0.22641 0.38207 0.0
H674 H 0.81431 0.2561 0.41104 0.0
H675 H 0.87908 0.26599 0.38838 0.0
H676 H 0.85092 0.23643 0.35933 0.0
H677 H 0.88233 0.22288 0.37826 0.0
H678 H 0.79444 0.08125 0.41991 0.0
H679 H 0.76294 0.05329 0.3749 0.0
H680 H 0.78542 0.16991 0.34898 0.0
C681 C 0.8657 0.23403 0.44622 0.0
C682 C 0.87744 0.22307 0.47076 0.0
C683 C 0.8643 0.18226 0.47586 0.0
C684 C 0.8404 0.15287 0.45676 0.0
C685 C 0.82963 0.16466 0.43272 0.0
C686 C 0.84162 0.20418 0.42738 0.0
C687 C 0.82682 0.20876 0.39945 0.0
C688 C 0.79837 0.22536 0.40245 0.0
C689 C 0.86188 0.23507 0.38022 0.0
C690 C 0.805 0.16567 0.38989 0.0
C691 C 0.80718 0.14082 0.40942 0.0
C692 C 0.79187 0.10022 0.40464 0.0
C693 C 0.77409 0.0846 0.37911 0.0
C694 C 0.77124 0.1094 0.359 0.0
C695 C 0.78648 0.15031 0.36448 0.0
H696 H 0.64568 0.88269 0.60439 0.0
H697 H 0.6612 0.82375 0.67552 0.0
H698 H 0.66103 0.7726 0.64494 0.0
H699 H 0.58003 0.79314 0.5663 0.0
H700 H 0.60159 0.81487 0.53338 0.0
H701 H 0.60184 0.84614 0.56099 0.0
H702 H 0.67847 0.89029 0.55666 0.0
H703 H 0.67841 0.85919 0.52903 0.0
H704 H 0.70899 0.86741 0.55898 0.0
H705 H 0.66167 0.72919 0.60613 0.0
H706 H 0.66278 0.69711 0.56228 0.0
H707 H 0.64579 0.78427 0.5171 0.0
C708 C 0.64882 0.85893 0.61361 0.0
C709 C 0.65339 0.85722 0.64237 0.0
C710 C 0.65758 0.82567 0.65354 0.0
C711 C 0.65749 0.79644 0.63634 0.0
C712 C 0.65306 0.79912 0.60806 0.0
C713 C 0.64873 0.82954 0.59679 0.0
C714 C 0.64529 0.82618 0.56572 0.0
C715 C 0.60477 0.81968 0.55604 0.0
C716 C 0.67985 0.86295 0.55179 0.0
C717 C 0.64854 0.78923 0.56123 0.0
C718 C 0.65301 0.77401 0.58586 0.0
C719 C 0.65789 0.74069 0.58673 0.0
C720 C 0.65848 0.72267 0.56173 0.0
C721 C 0.65411 0.73799 0.53626 0.0
C722 C 0.64876 0.77151 0.5362 0.0
H723 H 0.89807 0.71343 0.70643 0.0
H724 H 0.82451 0.58896 0.68332 0.0
H725 H 0.7817 0.57794 0.72398 0.0
H726 H 0.89286 0.69775 0.78004 0.0
H727 H 0.89111 0.74244 0.78764 0.0
H728 H 0.91639 0.74007 0.75715 0.0
H729 H 0.87267 0.75827 0.72701 0.0
H730 H 0.84728 0.7607 0.75739 0.0
H731 H 0.81924 0.72836 0.72929 0.0
H732 H 0.74697 0.58077 0.76746 0.0
H733 H 0.72178 0.59782 0.80915 0.0
H734 H 0.81745 0.72076 0.8026 0.0
C735 C 0.87306 0.68377 0.70991 0.0
C736 C 0.86471 0.65201 0.69171 0.0
C737 C 0.83153 0.61374 0.697 0.0
C738 C 0.80708 0.60718 0.72006 0.0
C739 C 0.81619 0.6392 0.73756 0.0
C740 C 0.84833 0.67676 0.7327 0.0
C741 C 0.85132 0.70636 0.75429 0.0
C742 C 0.89023 0.7226 0.77075 0.0
C743 C 0.84738 0.74042 0.7412 0.0
C744 C 0.81555 0.67972 0.77194 0.0
C745 C 0.79586 0.641 0.76215 0.0
C746 C 0.76213 0.61101 0.77528 0.0
C747 C 0.74808 0.62096 0.79895 0.0
C748 C 0.76753 0.66063 0.80904 0.0
C749 C 0.80174 0.69022 0.7953 0.0
H750 H 0.24906 0.89307 0.88716 0.0
H751 H 0.18897 0.81182 0.81923 0.0
H752 H 0.14235 0.76133 0.85211 0.0
H753 H 0.23907 0.81751 0.93671 0.0
H754 H 0.23085 0.84224 0.96534 0.0
H755 H 0.26091 0.87103 0.93656 0.0
H756 H 0.21561 0.90187 0.93006 0.0
H757 H 0.18536 0.87313 0.95873 0.0
H758 H 0.16281 0.8694 0.92559 0.0
H759 H 0.09997 0.72119 0.8921 0.0
H760 H 0.06556 0.69394 0.93637 0.0
H761 H 0.15368 0.80134 0.97811 0.0
C762 C 0.22646 0.86448 0.87919 0.0
C763 C 0.22279 0.85637 0.85062 0.0
C764 C 0.19252 0.81868 0.84105 0.0
C765 C 0.16586 0.78979 0.85955 0.0
C766 C 0.17001 0.79897 0.88755 0.0
C767 C 0.19966 0.83531 0.89735 0.0
C768 C 0.19686 0.83823 0.92831 0.0
C769 C 0.23414 0.84249 0.94257 0.0
C770 C 0.18973 0.87269 0.93612 0.0
C771 C 0.16066 0.79805 0.93436 0.0
C772 C 0.14569 0.77579 0.91059 0.0
C773 C 0.11162 0.73819 0.91088 0.0
C774 C 0.09228 0.72299 0.93614 0.0
C775 C 0.10702 0.7454 0.96075 0.0
C776 C 0.14183 0.78331 0.95973 0.0
H777 H 0.34728 0.19836 0.16237 0.0
H778 H 0.38348 0.11621 0.13104 0.0
H779 H 0.39122 0.14509 0.08455 0.0
H780 H 0.28897 0.19311 0.1069 0.0
H781 H 0.30289 0.24508 0.10703 0.0
H782 H 0.30492 0.2215 0.13844 0.0
H783 H 0.37918 0.27509 0.1445 0.0
H784 H 0.37734 0.29901 0.11309 0.0
H785 H 0.41391 0.28368 0.11703 0.0
H786 H 0.38806 0.17775 0.04072 0.0
H787 H 0.37545 0.21269 0.00296 0.0
H788 H 0.34206 0.27412 0.0629 0.0
C789 C 0.35758 0.18693 0.14587 0.0
C790 C 0.3648 0.15502 0.15039 0.0
C791 C 0.37793 0.14076 0.12815 0.0
C792 C 0.38247 0.157 0.10164 0.0
C793 C 0.37423 0.18781 0.09778 0.0
C794 C 0.36246 0.20293 0.11932 0.0
C795 C 0.35329 0.23457 0.10938 0.0
C796 C 0.30995 0.22283 0.11582 0.0
C797 C 0.38269 0.27551 0.12173 0.0
C798 C 0.36004 0.2336 0.0787 0.0
C799 C 0.37265 0.20685 0.07248 0.0
C800 C 0.37875 0.19921 0.04537 0.0
C801 C 0.3714 0.21915 0.02406 0.0
C802 C 0.35786 0.24625 0.02995 0.0
C803 C 0.35273 0.25388 0.0577 0.0
loop_
_geom_bond_atom_site_label_1
_geom_bond_atom_site_label_2
_geom_bond_distance
_geom_bond_site_symmetry_2
_ccdc_geom_bond_type
C0 O1 1.160 . S
C0 O7 1.185 . S
O1 C0 1.160 . S
O2 Zn3 1.899 . S
O2 C10 1.284 1_455 S
Zn3 O2 1.899 . S
Zn3 O4 2.032 . S
Zn3 O7 2.086 . S
Zn3 O12 1.977 . S
O4 Zn3 2.032 . S
O4 C8 1.278 . S
C5 O6 1.203 . S
C5 O12 1.267 . S
O6 C5 1.203 . S
O7 C0 1.185 . S
O7 Zn3 2.086 . S
C8 O4 1.278 . S
C8 O9 1.211 . S
O9 C8 1.211 . S
C10 O2 1.284 1_655 S
C10 O11 1.273 1_655 S
O11 C10 1.273 1_455 S
O12 Zn3 1.977 . S
O12 C5 1.267 . S
C13 O14 1.160 . S
C13 O20 1.185 . S
O14 C13 1.160 . S
O15 Zn16 1.899 . S
O15 C23 1.284 1_545 S
Zn16 O15 1.899 . S
Zn16 O17 2.032 . S
Zn16 O20 2.086 . S
Zn16 O25 1.977 . S
O17 Zn16 2.032 . S
O17 C21 1.278 . S
C18 O19 1.203 . S
C18 O25 1.267 . S
O19 C18 1.203 . S
O20 C13 1.185 . S
O20 Zn16 2.086 . S
C21 O17 1.278 . S
C21 O22 1.211 . S
O22 C21 1.211 . S
C23 O15 1.284 1_565 S
C23 O24 1.273 1_565 S
O24 C23 1.273 1_545 S
O25 Zn16 1.977 . S
O25 C18 1.267 . S
C26 O27 1.160 . S
C26 O33 1.185 . S
O27 C26 1.160 . S
O28 Zn29 1.899 . S
O28 C36 1.284 . S
Zn29 O28 1.899 . S
Zn29 O30 2.032 . S
Zn29 O33 2.086 . S
Zn29 O38 1.977 . S
O30 Zn29 2.032 . S
O30 C34 1.278 . S
C31 O32 1.203 . S
C31 O38 1.267 . S
O32 C31 1.203 . S
O33 C26 1.185 . S
O33 Zn29 2.086 . S
C34 O30 1.278 . S
C34 O35 1.211 . S
O35 C34 1.211 . S
C36 O28 1.284 . S
C36 O37 1.273 . S
O37 C36 1.273 . S
O38 Zn29 1.977 . S
O38 C31 1.267 . S
C39 O40 1.160 . S
C39 O46 1.185 . S
O40 C39 1.160 . S
O41 Zn42 1.899 . S
O41 C49 1.284 1_655 S
Zn42 O41 1.899 . S
Zn42 O43 2.032 . S
Zn42 O46 2.086 . S
Zn42 O51 1.977 . S
O43 Zn42 2.032 . S
O43 C47 1.278 . S
C44 O45 1.203 . S
C44 O51 1.267 . S
O45 C44 1.203 . S
O46 C39 1.185 . S
O46 Zn42 2.086 . S
C47 O43 1.278 . S
C47 O48 1.211 . S
O48 C47 1.211 . S
C49 O41 1.284 1_455 S
C49 O50 1.273 1_455 S
O50 C49 1.273 1_655 S
O51 Zn42 1.977 . S
O51 C44 1.267 . S
C52 O53 1.160 . S
C52 O59 1.185 . S
O53 C52 1.160 . S
O54 Zn55 1.899 . S
O54 C62 1.284 1_565 S
Zn55 O54 1.899 . S
Zn55 O56 2.032 . S
Zn55 O59 2.086 . S
Zn55 O64 1.977 . S
O56 Zn55 2.032 . S
O56 C60 1.278 . S
C57 O58 1.203 . S
C57 O64 1.267 . S
O58 C57 1.203 . S
O59 C52 1.185 . S
O59 Zn55 2.086 . S
C60 O56 1.278 . S
C60 O61 1.211 . S
O61 C60 1.211 . S
C62 O54 1.284 1_545 S
C62 O63 1.273 1_545 S
O63 C62 1.273 1_565 S
O64 Zn55 1.977 . S
O64 C57 1.267 . S
C65 O66 1.160 . S
C65 O72 1.185 . S
O66 C65 1.160 . S
O67 Zn68 1.899 . S
O67 C75 1.284 . S
Zn68 O67 1.899 . S
Zn68 O69 2.032 . S
Zn68 O72 2.086 . S
Zn68 O77 1.977 . S
O69 Zn68 2.032 . S
O69 C73 1.278 . S
C70 O71 1.203 . S
C70 O77 1.267 1_554 S
O71 C70 1.203 . S
O72 C65 1.185 . S
O72 Zn68 2.086 . S
C73 O69 1.278 . S
C73 O74 1.211 . S
O74 C73 1.211 . S
C75 O67 1.284 . S
C75 O76 1.273 . S
O76 C75 1.273 . S
O77 Zn68 1.977 . S
O77 C70 1.267 1_556 S
C78 O79 1.160 . S
C78 O85 1.185 . S
O79 C78 1.160 . S
O80 Zn81 1.899 . S
O80 C88 1.284 1_565 S
Zn81 O80 1.899 . S
Zn81 O82 2.032 . S
Zn81 O85 2.086 . S
Zn81 O90 1.977 . S
O82 Zn81 2.032 . S
O82 C86 1.278 . S
C83 O84 1.203 . S
C83 O90 1.267 . S
O84 C83 1.203 . S
O85 C78 1.185 . S
O85 Zn81 2.086 . S
C86 O82 1.278 . S
C86 O87 1.211 . S
O87 C86 1.211 . S
C88 O80 1.284 1_545 S
C88 O89 1.273 1_545 S
O89 C88 1.273 1_565 S
O90 Zn81 1.977 . S
O90 C83 1.267 . S
C91 O92 1.160 . S
C91 O98 1.185 . S
O92 C91 1.160 . S
O93 Zn94 1.899 . S
O93 C101 1.284 . S
Zn94 O93 1.899 . S
Zn94 O95 2.032 . S
Zn94 O98 2.086 . S
Zn94 O103 1.977 . S
O95 Zn94 2.032 . S
O95 C99 1.278 . S
C96 O97 1.203 . S
C96 O103 1.267 . S
O97 C96 1.203 . S
O98 C91 1.185 . S
O98 Zn94 2.086 . S
C99 O95 1.278 . S
C99 O100 1.211 . S
O100 C99 1.211 . S
C101 O93 1.284 . S
C101 O102 1.273 . S
O102 C101 1.273 . S
O103 Zn94 1.977 . S
O103 C96 1.267 . S
C104 O105 1.160 . S
C104 O111 1.185 . S
O105 C104 1.160 . S
O106 Zn107 1.899 . S
O106 C114 1.284 1_455 S
Zn107 O106 1.899 . S
Zn107 O108 2.032 . S
Zn107 O111 2.086 . S
Zn107 O116 1.977 . S
O108 Zn107 2.032 . S
O108 C112 1.278 . S
C109 O110 1.203 . S
C109 O116 1.267 1_556 S
O110 C109 1.203 . S
O111 C104 1.185 . S
O111 Zn107 2.086 . S
C112 O108 1.278 . S
C112 O113 1.211 . S
O113 C112 1.211 . S
C114 O106 1.284 1_655 S
C114 O115 1.273 1_655 S
O115 C114 1.273 1_455 S
O116 Zn107 1.977 . S
O116 C109 1.267 1_554 S
C117 O118 1.160 . S
C117 O124 1.185 . S
O118 C117 1.160 . S
O119 Zn120 1.899 . S
O119 C127 1.284 1_545 S
Zn120 O119 1.899 . S
Zn120 O121 2.032 . S
Zn120 O124 2.086 . S
Zn120 O129 1.977 . S
O121 Zn120 2.032 . S
O121 C125 1.278 . S
C122 O123 1.203 . S
C122 O129 1.267 . S
O123 C122 1.203 . S
O124 C117 1.185 . S
O124 Zn120 2.086 . S
C125 O121 1.278 . S
C125 O126 1.211 . S
O126 C125 1.211 . S
C127 O119 1.284 1_565 S
C127 O128 1.273 1_565 S
O128 C127 1.273 1_545 S
O129 Zn120 1.977 . S
O129 C122 1.267 . S
C130 O131 1.160 . S
C130 O137 1.185 . S
O131 C130 1.160 . S
O132 Zn133 1.899 . S
O132 C140 1.284 . S
Zn133 O132 1.899 . S
Zn133 O134 2.032 . S
Zn133 O137 2.086 . S
Zn133 O142 1.977 . S
O134 Zn133 2.032 . S
O134 C138 1.278 . S
C135 O136 1.203 . S
C135 O142 1.267 . S
O136 C135 1.203 . S
O137 C130 1.185 . S
O137 Zn133 2.086 . S
C138 O134 1.278 . S
C138 O139 1.211 . S
O139 C138 1.211 . S
C140 O132 1.284 . S
C140 O141 1.273 . S
O141 C140 1.273 . S
O142 Zn133 1.977 . S
O142 C135 1.267 . S
C143 O144 1.160 . S
C143 O150 1.185 . S
O144 C143 1.160 . S
O145 Zn146 1.899 . S
O145 C153 1.284 1_655 S
Zn146 O145 1.899 . S
Zn146 O147 2.032 . S
Zn146 O150 2.086 . S
Zn146 O155 1.977 . S
O147 Zn146 2.032 . S
O147 C151 1.278 . S
C148 O149 1.203 . S
C148 O155 1.267 . S
O149 C148 1.203 . S
O150 C143 1.185 . S
O150 Zn146 2.086 . S
C151 O147 1.278 . S
C151 O152 1.211 . S
O152 C151 1.211 . S
C153 O145 1.284 1_455 S
C153 O154 1.273 1_455 S
O154 C153 1.273 1_655 S
O155 Zn146 1.977 . S
O155 C148 1.267 . S
H156 C168 0.930 . S
H157 C170 0.930 . S
H158 C171 0.930 . S
H159 C175 0.959 . S
H160 C175 0.959 . S
H161 C175 0.961 . S
H162 C176 0.960 . S
H163 C176 0.961 . S
H164 C176 0.959 . S
H165 C179 0.929 . S
H166 C180 0.931 . S
H167 C182 0.930 . S
C168 H156 0.930 . S
C168 C169 1.399 . S
C168 C173 1.399 . S
C169 C168 1.399 . S
C169 C170 1.376 . S
C170 H157 0.930 . S
C170 C169 1.376 . S
C170 C171 1.388 . S
C171 H158 0.930 . S
C171 C170 1.388 . S
C171 C172 1.390 . S
C172 C171 1.390 . S
C172 C173 1.394 . S
C172 C178 1.465 . S
C173 C168 1.399 . S
C173 C172 1.394 . S
C173 C174 1.516 . S
C174 C173 1.516 . S
C174 C175 1.502 1_455 S
C174 C176 1.561 . S
C174 C177 1.526 . S
C175 H159 0.959 . S
C175 H160 0.959 . S
C175 H161 0.961 . S
C175 C174 1.502 1_655 S
C176 H162 0.960 . S
C176 H163 0.961 . S
C176 H164 0.959 . S
C176 C174 1.561 . S
C177 C174 1.526 . S
C177 C178 1.396 . S
C177 C182 1.390 . S
C178 C172 1.465 . S
C178 C177 1.396 . S
C178 C179 1.399 . S
C179 H165 0.929 . S
C179 C178 1.399 . S
C179 C180 1.385 . S
C180 H166 0.931 . S
C180 C179 1.385 . S
C180 C181 1.389 . S
C181 C180 1.389 . S
C181 C182 1.387 . S
C182 H167 0.930 . S
C182 C177 1.390 . S
C182 C181 1.387 . S
H183 C195 0.930 . S
H184 C197 0.930 1_565 S
H185 C198 0.930 1_565 S
H186 C202 0.959 . S
H187 C202 0.959 . S
H188 C202 0.961 . S
H189 C203 0.960 . S
H190 C203 0.961 . S
H191 C203 0.959 . S
H192 C206 0.929 1_565 S
H193 C207 0.931 1_565 S
H194 C209 0.930 . S
C195 H183 0.930 . S
C195 C196 1.399 . S
C195 C200 1.399 . S
C196 C195 1.399 . S
C196 C197 1.376 . S
C197 H184 0.930 1_545 S
C197 C196 1.376 . S
C197 C198 1.388 . S
C198 H185 0.930 1_545 S
C198 C197 1.388 . S
C198 C199 1.390 . S
C199 C198 1.390 . S
C199 C200 1.394 . S
C199 C205 1.465 . S
C200 C195 1.399 . S
C200 C199 1.394 . S
C200 C201 1.516 . S
C201 C200 1.516 . S
C201 C202 1.502 . S
C201 C203 1.561 . S
C201 C204 1.526 . S
C202 H186 0.959 . S
C202 H187 0.959 . S
C202 H188 0.961 . S
C202 C201 1.502 . S
C203 H189 0.960 . S
C203 H190 0.961 . S
C203 H191 0.959 . S
C203 C201 1.561 . S
C204 C201 1.526 . S
C204 C205 1.396 . S
C204 C209 1.390 . S
C205 C199 1.465 . S
C205 C204 1.396 . S
C205 C206 1.399 . S
C206 H192 0.929 1_545 S
C206 C205 1.399 . S
C206 C207 1.385 . S
C207 H193 0.931 1_545 S
C207 C206 1.385 . S
C207 C208 1.389 . S
C208 C207 1.389 . S
C208 C209 1.387 . S
C209 H194 0.930 . S
C209 C204 1.390 . S
C209 C208 1.387 . S
H210 C222 0.930 . S
H211 C224 0.930 . S
H212 C225 0.930 . S
H213 C229 0.959 . S
H214 C229 0.959 . S
H215 C229 0.961 . S
H216 C230 0.960 . S
H217 C230 0.961 . S
H218 C230 0.959 . S
H219 C233 0.929 . S
H220 C234 0.931 . S
H221 C236 0.930 . S
C222 H210 0.930 . S
C222 C223 1.399 . S
C222 C227 1.399 . S
C223 C222 1.399 . S
C223 C224 1.376 . S
C224 H211 0.930 . S
C224 C223 1.376 . S
C224 C225 1.388 . S
C225 H212 0.930 . S
C225 C224 1.388 . S
C225 C226 1.390 . S
C226 C225 1.390 . S
C226 C227 1.394 . S
C226 C232 1.465 . S
C227 C222 1.399 . S
C227 C226 1.394 . S
C227 C228 1.516 . S
C228 C227 1.516 . S
C228 C229 1.502 . S
C228 C230 1.561 . S
C228 C231 1.526 . S
C229 H213 0.959 . S
C229 H214 0.959 . S
C229 H215 0.961 . S
C229 C228 1.502 . S
C230 H216 0.960 . S
C230 H217 0.961 . S
C230 H218 0.959 . S
C230 C228 1.561 . S
C231 C228 1.526 . S
C231 C232 1.396 . S
C231 C236 1.390 . S
C232 C226 1.465 . S
C232 C231 1.396 . S
C232 C233 1.399 . S
C233 H219 0.929 . S
C233 C232 1.399 . S
C233 C234 1.385 . S
C234 H220 0.931 . S
C234 C233 1.385 . S
C234 C235 1.389 . S
C235 C234 1.389 . S
C235 C236 1.387 . S
C236 H221 0.930 . S
C236 C231 1.390 . S
C236 C235 1.387 . S
H237 C249 0.930 . S
H238 C251 0.930 . S
H239 C252 0.930 . S
H240 C256 0.959 1_455 S
H241 C256 0.959 . S
H242 C256 0.967 1_455 S
H243 C257 0.960 . S
H244 C257 0.961 . S
H245 C257 0.959 . S
H246 C260 0.929 . S
H247 C261 0.931 . S
H248 C263 0.930 . S
C249 H237 0.930 . S
C249 C250 1.399 . S
C249 C254 1.399 . S
C250 C249 1.399 . S
C250 C251 1.376 . S
C251 H238 0.930 . S
C251 C250 1.376 . S
C251 C252 1.388 . S
C252 H239 0.930 . S
C252 C251 1.388 . S
C252 C253 1.390 . S
C253 C252 1.390 . S
C253 C254 1.394 . S
C253 C259 1.465 . S
C254 C249 1.399 . S
C254 C253 1.394 . S
C254 C255 1.516 . S
C255 C254 1.516 . S
C255 C256 1.502 . S
C255 C257 1.561 . S
C255 C258 1.526 . S
C256 H240 0.959 1_655 S
C256 H241 0.959 . S
C256 H242 0.967 1_655 S
C256 C255 1.502 . S
C257 H243 0.960 . S
C257 H244 0.961 . S
C257 H245 0.959 . S
C257 C255 1.561 . S
C258 C255 1.526 . S
C258 C259 1.396 . S
C258 C263 1.390 . S
C259 C253 1.465 . S
C259 C258 1.396 . S
C259 C260 1.399 . S
C260 H246 0.929 . S
C260 C259 1.399 . S
C260 C261 1.385 . S
C261 H247 0.931 . S
C261 C260 1.385 . S
C261 C262 1.389 . S
C262 C261 1.389 . S
C262 C263 1.387 . S
C263 H248 0.930 . S
C263 C258 1.390 . S
C263 C262 1.387 . S
H264 C276 0.930 . S
H265 C278 0.930 . S
H266 C279 0.930 . S
H267 C283 0.959 1_565 S
H268 C283 0.959 . S
H269 C283 0.961 . S
H270 C284 0.960 . S
H271 C284 0.961 . S
H272 C284 0.959 . S
H273 C287 0.929 . S
H274 C288 0.931 . S
H275 C290 0.930 . S
C276 H264 0.930 . S
C276 C277 1.399 . S
C276 C281 1.399 . S
C277 C276 1.399 . S
C277 C278 1.376 . S
C278 H265 0.930 . S
C278 C277 1.376 . S
C278 C279 1.388 . S
C279 H266 0.930 . S
C279 C278 1.388 . S
C279 C280 1.390 . S
C280 C279 1.390 . S
C280 C281 1.394 . S
C280 C286 1.465 . S
C281 C276 1.399 . S
C281 C280 1.394 . S
C281 C282 1.516 . S
C282 C281 1.516 . S
C282 C283 1.502 1_565 S
C282 C284 1.561 1_565 S
C282 C285 1.526 . S
C283 H267 0.959 1_545 S
C283 H268 0.959 . S
C283 H269 0.961 . S
C283 C282 1.502 1_545 S
C284 H270 0.960 . S
C284 H271 0.961 . S
C284 H272 0.959 . S
C284 C282 1.561 1_545 S
C285 C282 1.526 . S
C285 C286 1.396 . S
C285 C290 1.390 . S
C286 C280 1.465 . S
C286 C285 1.396 . S
C286 C287 1.399 . S
C287 H273 0.929 . S
C287 C286 1.399 . S
C287 C288 1.385 . S
C288 H274 0.931 . S
C288 C287 1.385 . S
C288 C289 1.389 . S
C289 C288 1.389 . S
C289 C290 1.387 . S
C290 H275 0.930 . S
C290 C285 1.390 . S
C290 C289 1.387 . S
H291 C303 0.930 . S
H292 C305 0.930 . S
H293 C306 0.930 . S
H294 C310 0.959 . S
H295 C310 0.959 . S
H296 C310 0.961 . S
H297 C311 0.960 . S
H298 C311 0.961 . S
H299 C311 0.959 . S
H300 C314 0.929 . S
H301 C315 0.931 . S
H302 C317 0.930 . S
C303 H291 0.930 . S
C303 C304 1.399 . S
C303 C308 1.399 . S
C304 C303 1.399 . S
C304 C305 1.376 . S
C305 H292 0.930 . S
C305 C304 1.376 . S
C305 C306 1.388 . S
C306 H293 0.930 . S
C306 C305 1.388 . S
C306 C307 1.390 . S
C307 C306 1.390 . S
C307 C308 1.394 . S
C307 C313 1.465 . S
C308 C303 1.399 . S
C308 C307 1.394 . S
C308 C309 1.516 . S
C309 C308 1.516 . S
C309 C310 1.502 . S
C309 C311 1.561 . S
C309 C312 1.526 . S
C310 H294 0.959 . S
C310 H295 0.959 . S
C310 H296 0.961 . S
C310 C309 1.502 . S
C311 H297 0.960 . S
C311 H298 0.961 . S
C311 H299 0.959 . S
C311 C309 1.561 . S
C312 C309 1.526 . S
C312 C313 1.396 . S
C312 C317 1.390 . S
C313 C307 1.465 . S
C313 C312 1.396 . S
C313 C314 1.399 . S
C314 H300 0.929 . S
C314 C313 1.399 . S
C314 C315 1.385 . S
C315 H301 0.931 . S
C315 C314 1.385 . S
C315 C316 1.389 . S
C316 C315 1.389 . S
C316 C317 1.387 . S
C317 H302 0.930 . S
C317 C312 1.390 . S
C317 C316 1.387 . S
H318 C330 0.930 . S
H319 C332 0.930 . S
H320 C333 0.930 . S
H321 C337 0.959 . S
H322 C337 0.959 . S
H323 C337 0.961 . S
H324 C338 0.960 . S
H325 C338 0.961 . S
H326 C338 0.959 . S
H327 C341 0.929 . S
H328 C342 0.930 1_556 S
H329 C344 0.930 . S
C330 H318 0.930 . S
C330 C331 1.399 . S
C330 C335 1.399 . S
C331 C330 1.399 . S
C331 C332 1.376 . S
C332 H319 0.930 . S
C332 C331 1.376 . S
C332 C333 1.388 . S
C333 H320 0.930 . S
C333 C332 1.388 . S
C333 C334 1.390 . S
C334 C333 1.390 . S
C334 C335 1.394 . S
C334 C340 1.465 . S
C335 C330 1.399 . S
C335 C334 1.394 . S
C335 C336 1.516 . S
C336 C335 1.516 . S
C336 C337 1.502 1_554 S
C336 C338 1.561 . S
C336 C339 1.526 . S
C337 H321 0.959 . S
C337 H322 0.959 . S
C337 H323 0.961 . S
C337 C336 1.502 1_556 S
C338 H324 0.960 . S
C338 H325 0.961 . S
C338 H326 0.959 . S
C338 C336 1.561 . S
C339 C336 1.526 . S
C339 C340 1.396 . S
C339 C344 1.390 1_554 S
C340 C334 1.465 . S
C340 C339 1.396 . S
C340 C341 1.399 . S
C341 H327 0.929 . S
C341 C340 1.399 . S
C341 C342 1.394 . S
C342 H328 0.930 1_554 S
C342 C341 1.394 . S
C342 C343 1.381 1_554 S
C343 C342 1.381 1_556 S
C343 C344 1.387 . S
C344 H329 0.930 . S
C344 C339 1.390 1_556 S
C344 C343 1.387 . S
H345 C357 0.930 . S
H346 C359 0.930 . S
H347 C360 0.930 . S
H348 C364 0.959 . S
H349 C364 0.959 . S
H350 C364 0.961 . S
H351 C365 0.960 . S
H352 C365 0.961 . S
H353 C365 0.959 . S
H354 C368 0.929 . S
H355 C369 0.931 . S
H356 C371 0.930 . S
C357 H345 0.930 . S
C357 C358 1.399 . S
C357 C362 1.399 . S
C358 C357 1.399 . S
C358 C359 1.376 . S
C359 H346 0.930 . S
C359 C358 1.376 . S
C359 C360 1.388 . S
C360 H347 0.930 . S
C360 C359 1.388 . S
C360 C361 1.390 . S
C361 C360 1.390 . S
C361 C362 1.394 . S
C361 C367 1.465 . S
C362 C357 1.399 . S
C362 C361 1.394 . S
C362 C363 1.516 . S
C363 C362 1.516 . S
C363 C364 1.502 . S
C363 C365 1.561 . S
C363 C366 1.526 . S
C364 H348 0.959 . S
C364 H349 0.959 . S
C364 H350 0.961 . S
C364 C363 1.502 . S
C365 H351 0.960 . S
C365 H352 0.961 . S
C365 H353 0.959 . S
C365 C363 1.561 . S
C366 C363 1.526 . S
C366 C367 1.396 . S
C366 C371 1.390 . S
C367 C361 1.465 . S
C367 C366 1.396 . S
C367 C368 1.399 . S
C368 H354 0.929 . S
C368 C367 1.399 . S
C368 C369 1.385 . S
C369 H355 0.931 . S
C369 C368 1.385 . S
C369 C370 1.389 . S
C370 C369 1.389 . S
C370 C371 1.387 . S
C371 H356 0.930 . S
C371 C366 1.390 . S
C371 C370 1.387 . S
H372 C384 0.930 . S
H373 C386 0.930 . S
H374 C387 0.930 . S
H375 C391 0.959 . S
H376 C391 0.959 . S
H377 C391 0.961 . S
H378 C392 0.960 . S
H379 C392 0.961 . S
H380 C392 0.959 . S
H381 C395 0.929 . S
H382 C396 0.931 . S
H383 C398 0.930 . S
C384 H372 0.930 . S
C384 C385 1.399 . S
C384 C389 1.399 . S
C385 C384 1.399 . S
C385 C386 1.376 . S
C386 H373 0.930 . S
C386 C385 1.376 . S
C386 C387 1.388 . S
C387 H374 0.930 . S
C387 C386 1.388 . S
C387 C388 1.390 . S
C388 C387 1.390 . S
C388 C389 1.394 . S
C388 C394 1.465 . S
C389 C384 1.399 . S
C389 C388 1.394 . S
C389 C390 1.516 . S
C390 C389 1.516 . S
C390 C391 1.502 . S
C390 C392 1.561 . S
C390 C393 1.526 . S
C391 H375 0.959 . S
C391 H376 0.959 . S
C391 H377 0.961 . S
C391 C390 1.502 . S
C392 H378 0.960 . S
C392 H379 0.961 . S
C392 H380 0.959 . S
C392 C390 1.561 . S
C393 C390 1.526 . S
C393 C394 1.396 . S
C393 C398 1.390 . S
C394 C388 1.465 . S
C394 C393 1.396 . S
C394 C395 1.399 . S
C395 H381 0.929 . S
C395 C394 1.399 . S
C395 C396 1.385 . S
C396 H382 0.931 . S
C396 C395 1.385 . S
C396 C397 1.389 . S
C397 C396 1.389 . S
C397 C398 1.387 . S
C398 H383 0.930 . S
C398 C393 1.390 . S
C398 C397 1.387 . S
H399 C411 0.930 . S
H400 C413 0.930 . S
H401 C414 0.930 . S
H402 C418 0.959 . S
H403 C418 0.959 . S
H404 C418 0.961 . S
H405 C419 0.960 . S
H406 C419 0.961 . S
H407 C419 0.959 . S
H408 C422 0.929 . S
H409 C423 0.931 . S
H410 C425 0.930 . S
C411 H399 0.930 . S
C411 C412 1.399 . S
C411 C416 1.399 . S
C412 C411 1.399 . S
C412 C413 1.376 . S
C413 H400 0.930 . S
C413 C412 1.376 . S
C413 C414 1.388 . S
C414 H401 0.930 . S
C414 C413 1.388 . S
C414 C415 1.390 . S
C415 C414 1.390 . S
C415 C416 1.394 . S
C415 C421 1.465 . S
C416 C411 1.399 . S
C416 C415 1.394 . S
C416 C417 1.516 . S
C417 C416 1.516 . S
C417 C418 1.502 . S
C417 C419 1.561 . S
C417 C420 1.526 . S
C418 H402 0.959 . S
C418 H403 0.959 . S
C418 H404 0.961 . S
C418 C417 1.502 . S
C419 H405 0.960 . S
C419 H406 0.961 . S
C419 H407 0.959 . S
C419 C417 1.561 . S
C420 C417 1.526 . S
C420 C421 1.396 . S
C420 C425 1.390 . S
C421 C415 1.465 . S
C421 C420 1.396 . S
C421 C422 1.399 . S
C422 H408 0.929 . S
C422 C421 1.399 . S
C422 C423 1.385 . S
C423 H409 0.931 . S
C423 C422 1.385 . S
C423 C424 1.389 . S
C424 C423 1.389 . S
C424 C425 1.387 . S
C425 H410 0.930 . S
C425 C420 1.390 . S
C425 C424 1.387 . S
H426 C438 0.930 . S
H427 C440 0.930 . S
H428 C441 0.930 . S
H429 C445 0.959 . S
H430 C445 0.959 . S
H431 C445 0.961 . S
H432 C446 0.960 . S
H433 C446 0.961 . S
H434 C446 0.959 . S
H435 C449 0.929 . S
H436 C450 0.931 . S
H437 C452 0.930 . S
C438 H426 0.930 . S
C438 C439 1.399 . S
C438 C443 1.399 . S
C439 C438 1.399 . S
C439 C440 1.376 . S
C440 H427 0.930 . S
C440 C439 1.376 . S
C440 C441 1.388 . S
C441 H428 0.930 . S
C441 C440 1.388 . S
C441 C442 1.390 . S
C442 C441 1.390 . S
C442 C443 1.394 . S
C442 C448 1.465 . S
C443 C438 1.399 . S
C443 C442 1.394 . S
C443 C444 1.516 . S
C444 C443 1.516 . S
C444 C445 1.502 . S
C444 C446 1.561 . S
C444 C447 1.526 . S
C445 H429 0.959 . S
C445 H430 0.959 . S
C445 H431 0.961 . S
C445 C444 1.502 . S
C446 H432 0.960 . S
C446 H433 0.961 . S
C446 H434 0.959 . S
C446 C444 1.561 . S
C447 C444 1.526 . S
C447 C448 1.396 . S
C447 C452 1.390 . S
C448 C442 1.465 . S
C448 C447 1.396 . S
C448 C449 1.399 . S
C449 H435 0.929 . S
C449 C448 1.399 . S
C449 C450 1.385 . S
C450 H436 0.931 . S
C450 C449 1.385 . S
C450 C451 1.389 . S
C451 C450 1.389 . S
C451 C452 1.387 . S
C452 H437 0.930 . S
C452 C447 1.390 . S
C452 C451 1.387 . S
H453 C465 0.930 . S
H454 C467 0.930 1_565 S
H455 C468 0.930 . S
H456 C472 0.959 . S
H457 C472 0.959 . S
H458 C472 0.961 . S
H459 C473 0.960 . S
H460 C473 0.961 . S
H461 C473 0.959 . S
H462 C476 0.929 . S
H463 C477 0.931 . S
H464 C479 0.930 . S
C465 H453 0.930 . S
C465 C466 1.399 . S
C465 C470 1.399 . S
C466 C465 1.399 . S
C466 C467 1.376 . S
C467 H454 0.930 1_545 S
C467 C466 1.376 . S
C467 C468 1.388 . S
C468 H455 0.930 . S
C468 C467 1.388 . S
C468 C469 1.390 . S
C469 C468 1.390 . S
C469 C470 1.394 . S
C469 C475 1.465 . S
C470 C465 1.399 . S
C470 C469 1.394 . S
C470 C471 1.516 . S
C471 C470 1.516 . S
C471 C472 1.502 . S
C471 C473 1.561 . S
C471 C474 1.526 . S
C472 H456 0.959 . S
C472 H457 0.959 . S
C472 H458 0.961 . S
C472 C471 1.502 . S
C473 H459 0.960 . S
C473 H460 0.961 . S
C473 H461 0.959 . S
C473 C471 1.561 . S
C474 C471 1.526 . S
C474 C475 1.396 . S
C474 C479 1.390 . S
C475 C469 1.465 . S
C475 C474 1.396 . S
C475 C476 1.399 . S
C476 H462 0.929 . S
C476 C475 1.399 . S
C476 C477 1.385 . S
C477 H463 0.931 . S
C477 C476 1.385 . S
C477 C478 1.389 . S
C478 C477 1.389 . S
C478 C479 1.387 . S
C479 H464 0.930 . S
C479 C474 1.390 . S
C479 C478 1.387 . S
H480 C492 0.930 . S
H481 C494 0.930 . S
H482 C495 0.930 . S
H483 C499 0.959 . S
H484 C499 0.959 . S
H485 C499 0.961 . S
H486 C500 0.960 . S
H487 C500 0.961 . S
H488 C500 0.959 . S
H489 C503 0.929 . S
H490 C504 0.931 . S
H491 C506 0.930 . S
C492 H480 0.930 . S
C492 C493 1.399 . S
C492 C497 1.399 . S
C493 C492 1.399 . S
C493 C494 1.376 . S
C494 H481 0.930 . S
C494 C493 1.376 . S
C494 C495 1.388 . S
C495 H482 0.930 . S
C495 C494 1.388 . S
C495 C496 1.390 . S
C496 C495 1.390 . S
C496 C497 1.394 . S
C496 C502 1.465 . S
C497 C492 1.399 . S
C497 C496 1.394 . S
C497 C498 1.516 . S
C498 C497 1.516 . S
C498 C499 1.502 . S
C498 C500 1.561 . S
C498 C501 1.526 . S
C499 H483 0.959 . S
C499 H484 0.959 . S
C499 H485 0.961 . S
C499 C498 1.502 . S
C500 H486 0.960 . S
C500 H487 0.961 . S
C500 H488 0.959 . S
C500 C498 1.561 . S
C501 C498 1.526 . S
C501 C502 1.396 . S
C501 C506 1.390 . S
C502 C496 1.465 . S
C502 C501 1.396 . S
C502 C503 1.399 . S
C503 H489 0.929 . S
C503 C502 1.399 . S
C503 C504 1.385 . S
C504 H490 0.931 . S
C504 C503 1.385 . S
C504 C505 1.389 . S
C505 C504 1.389 . S
C505 C506 1.387 . S
C506 H491 0.930 . S
C506 C501 1.390 . S
C506 C505 1.387 . S
H507 C519 0.930 . S
H508 C521 0.930 . S
H509 C522 0.930 . S
H510 C526 0.959 . S
H511 C526 0.959 . S
H512 C526 0.961 . S
H513 C527 0.960 . S
H514 C527 0.961 . S
H515 C527 0.959 . S
H516 C530 0.929 . S
H517 C531 0.931 . S
H518 C533 0.930 . S
C519 H507 0.930 . S
C519 C520 1.399 . S
C519 C524 1.399 . S
C520 C519 1.399 . S
C520 C521 1.376 . S
C521 H508 0.930 . S
C521 C520 1.376 . S
C521 C522 1.388 . S
C522 H509 0.930 . S
C522 C521 1.388 . S
C522 C523 1.390 . S
C523 C522 1.390 . S
C523 C524 1.394 . S
C523 C529 1.465 . S
C524 C519 1.399 . S
C524 C523 1.394 . S
C524 C525 1.516 . S
C525 C524 1.516 . S
C525 C526 1.502 . S
C525 C527 1.561 . S
C525 C528 1.526 . S
C526 H510 0.959 . S
C526 H511 0.959 . S
C526 H512 0.961 . S
C526 C525 1.502 . S
C527 H513 0.960 . S
C527 H514 0.961 . S
C527 H515 0.959 . S
C527 C525 1.561 . S
C528 C525 1.526 . S
C528 C529 1.396 . S
C528 C533 1.390 . S
C529 C523 1.465 . S
C529 C528 1.396 . S
C529 C530 1.399 1_556 S
C530 H516 0.929 . S
C530 C529 1.399 1_554 S
C530 C531 1.385 . S
C531 H517 0.931 . S
C531 C530 1.385 . S
C531 C532 1.389 . S
C532 C531 1.389 . S
C532 C533 1.387 1_554 S
C533 H518 0.930 . S
C533 C528 1.390 . S
C533 C532 1.387 1_556 S
H534 C546 0.930 . S
H535 C548 0.930 1_545 S
H536 C549 0.930 . S
H537 C553 0.959 . S
H538 C553 0.959 . S
H539 C553 0.961 . S
H540 C554 0.960 . S
H541 C554 0.961 . S
H542 C554 0.959 . S
H543 C557 0.929 . S
H544 C558 0.931 . S
H545 C560 0.930 . S
C546 H534 0.930 . S
C546 C547 1.399 . S
C546 C551 1.399 . S
C547 C546 1.399 . S
C547 C548 1.376 . S
C548 H535 0.930 1_565 S
C548 C547 1.376 . S
C548 C549 1.388 . S
C549 H536 0.930 . S
C549 C548 1.388 . S
C549 C550 1.390 . S
C550 C549 1.390 . S
C550 C551 1.394 . S
C550 C556 1.465 . S
C551 C546 1.399 . S
C551 C550 1.394 . S
C551 C552 1.516 . S
C552 C551 1.516 . S
C552 C553 1.502 . S
C552 C554 1.561 . S
C552 C555 1.526 . S
C553 H537 0.959 . S
C553 H538 0.959 . S
C553 H539 0.961 . S
C553 C552 1.502 . S
C554 H540 0.960 . S
C554 H541 0.961 . S
C554 H542 0.959 . S
C554 C552 1.561 . S
C555 C552 1.526 . S
C555 C556 1.396 . S
C555 C560 1.390 . S
C556 C550 1.465 . S
C556 C555 1.396 . S
C556 C557 1.399 . S
C557 H543 0.929 . S
C557 C556 1.399 . S
C557 C558 1.385 . S
C558 H544 0.931 . S
C558 C557 1.385 . S
C558 C559 1.389 . S
C559 C558 1.389 . S
C559 C560 1.387 . S
C560 H545 0.930 . S
C560 C555 1.390 . S
C560 C559 1.387 . S
H561 C573 0.930 . S
H562 C575 0.930 . S
H563 C576 0.930 . S
H564 C580 0.959 . S
H565 C580 0.959 . S
H566 C580 0.961 . S
H567 C581 0.960 . S
H568 C581 0.961 . S
H569 C581 0.959 . S
H570 C584 0.929 . S
H571 C585 0.931 . S
H572 C587 0.930 . S
C573 H561 0.930 . S
C573 C574 1.399 . S
C573 C578 1.399 . S
C574 C573 1.399 . S
C574 C575 1.376 . S
C575 H562 0.930 . S
C575 C574 1.376 . S
C575 C576 1.388 . S
C576 H563 0.930 . S
C576 C575 1.388 . S
C576 C577 1.390 . S
C577 C576 1.390 . S
C577 C578 1.394 . S
C577 C583 1.465 . S
C578 C573 1.399 . S
C578 C577 1.394 . S
C578 C579 1.516 . S
C579 C578 1.516 . S
C579 C580 1.502 . S
C579 C581 1.561 . S
C579 C582 1.526 . S
C580 H564 0.959 . S
C580 H565 0.959 . S
C580 H566 0.961 . S
C580 C579 1.502 . S
C581 H567 0.960 . S
C581 H568 0.961 . S
C581 H569 0.959 . S
C581 C579 1.561 . S
C582 C579 1.526 . S
C582 C583 1.396 . S
C582 C587 1.390 . S
C583 C577 1.465 . S
C583 C582 1.396 . S
C583 C584 1.399 . S
C584 H570 0.929 . S
C584 C583 1.399 . S
C584 C585 1.385 . S
C585 H571 0.931 . S
C585 C584 1.385 . S
C585 C586 1.389 . S
C586 C585 1.389 . S
C586 C587 1.387 . S
C587 H572 0.930 . S
C587 C582 1.390 . S
C587 C586 1.387 . S
H588 C600 0.930 . S
H589 C602 0.930 . S
H590 C603 0.930 . S
H591 C607 0.959 . S
H592 C607 0.959 . S
H593 C607 0.961 . S
H594 C608 0.960 . S
H595 C608 0.961 . S
H596 C608 0.959 . S
H597 C611 0.929 . S
H598 C612 0.954 . S
H599 C614 0.930 . S
C600 H588 0.930 . S
C600 C601 1.399 . S
C600 C605 1.399 . S
C601 C600 1.399 . S
C601 C602 1.376 . S
C602 H589 0.930 . S
C602 C601 1.376 . S
C602 C603 1.388 . S
C603 H590 0.930 . S
C603 C602 1.388 . S
C603 C604 1.390 . S
C604 C603 1.390 . S
C604 C605 1.394 . S
C604 C610 1.465 . S
C605 C600 1.399 . S
C605 C604 1.394 . S
C605 C606 1.516 . S
C606 C605 1.516 . S
C606 C607 1.502 . S
C606 C608 1.561 . S
C606 C609 1.526 . S
C607 H591 0.959 . S
C607 H592 0.959 . S
C607 H593 0.961 . S
C607 C606 1.502 . S
C608 H594 0.960 . S
C608 H595 0.961 . S
C608 H596 0.959 . S
C608 C606 1.561 . S
C609 C606 1.526 . S
C609 C610 1.396 . S
C609 C614 1.390 . S
C610 C604 1.465 . S
C610 C609 1.396 . S
C610 C611 1.399 . S
C611 H597 0.929 . S
C611 C610 1.399 . S
C611 C612 1.385 . S
C612 H598 0.954 . S
C612 C611 1.385 . S
C612 C613 1.389 . S
C613 C612 1.389 . S
C613 C614 1.387 . S
C614 H599 0.930 . S
C614 C609 1.390 . S
C614 C613 1.387 . S
H615 C627 0.930 . S
H616 C629 0.930 . S
H617 C630 0.930 . S
H618 C634 0.959 . S
H619 C634 0.959 . S
H620 C634 0.961 . S
H621 C635 0.960 . S
H622 C635 0.961 . S
H623 C635 0.959 . S
H624 C638 0.929 . S
H625 C639 0.931 . S
H626 C641 0.930 . S
C627 H615 0.930 . S
C627 C628 1.399 . S
C627 C632 1.399 . S
C628 C627 1.399 . S
C628 C629 1.376 . S
C629 H616 0.930 . S
C629 C628 1.376 . S
C629 C630 1.388 . S
C630 H617 0.930 . S
C630 C629 1.388 . S
C630 C631 1.390 . S
C631 C630 1.390 . S
C631 C632 1.394 . S
C631 C637 1.465 . S
C632 C627 1.399 . S
C632 C631 1.394 . S
C632 C633 1.516 . S
C633 C632 1.516 . S
C633 C634 1.502 . S
C633 C635 1.561 . S
C633 C636 1.526 . S
C634 H618 0.959 . S
C634 H619 0.959 . S
C634 H620 0.961 . S
C634 C633 1.502 . S
C635 H621 0.960 . S
C635 H622 0.961 . S
C635 H623 0.959 . S
C635 C633 1.561 . S
C636 C633 1.526 . S
C636 C637 1.396 . S
C636 C641 1.390 . S
C637 C631 1.465 . S
C637 C636 1.396 . S
C637 C638 1.399 . S
C638 H624 0.929 . S
C638 C637 1.399 . S
C638 C639 1.385 . S
C639 H625 0.931 . S
C639 C638 1.385 . S
C639 C640 1.389 . S
C640 C639 1.389 . S
C640 C641 1.387 . S
C641 H626 0.930 . S
C641 C636 1.390 . S
C641 C640 1.387 . S
H642 C654 0.930 . S
H643 C656 0.930 . S
H644 C657 0.930 . S
H645 C661 0.959 . S
H646 C661 0.959 . S
H647 C661 0.961 . S
H648 C662 0.960 . S
H649 C662 0.961 . S
H650 C662 0.959 . S
H651 C665 0.929 . S
H652 C666 0.931 . S
H653 C668 0.930 . S
C654 H642 0.930 . S
C654 C655 1.399 . S
C654 C659 1.399 . S
C655 C654 1.399 . S
C655 C656 1.376 . S
C656 H643 0.930 . S
C656 C655 1.376 . S
C656 C657 1.388 . S
C657 H644 0.930 . S
C657 C656 1.388 . S
C657 C658 1.390 . S
C658 C657 1.390 . S
C658 C659 1.394 . S
C658 C664 1.465 . S
C659 C654 1.399 . S
C659 C658 1.394 . S
C659 C660 1.516 . S
C660 C659 1.516 . S
C660 C661 1.502 . S
C660 C662 1.561 . S
C660 C663 1.526 . S
C661 H645 0.959 . S
C661 H646 0.959 . S
C661 H647 0.961 . S
C661 C660 1.502 . S
C662 H648 0.960 . S
C662 H649 0.961 . S
C662 H650 0.959 . S
C662 C660 1.561 . S
C663 C660 1.526 . S
C663 C664 1.396 . S
C663 C668 1.390 . S
C664 C658 1.465 . S
C664 C663 1.396 . S
C664 C665 1.399 . S
C665 H651 0.929 . S
C665 C664 1.399 . S
C665 C666 1.385 . S
C666 H652 0.931 . S
C666 C665 1.385 . S
C666 C667 1.389 . S
C667 C666 1.389 . S
C667 C668 1.387 . S
C668 H653 0.930 . S
C668 C663 1.390 . S
C668 C667 1.387 . S
H669 C681 0.930 . S
H670 C683 0.930 . S
H671 C684 0.930 . S
H672 C688 0.959 . S
H673 C688 0.959 . S
H674 C688 0.961 . S
H675 C689 0.960 . S
H676 C689 0.961 . S
H677 C689 0.959 . S
H678 C692 0.929 . S
H679 C693 0.931 . S
H680 C695 0.930 . S
C681 H669 0.930 . S
C681 C682 1.399 . S
C681 C686 1.399 . S
C682 C681 1.399 . S
C682 C683 1.376 . S
C683 H670 0.930 . S
C683 C682 1.376 . S
C683 C684 1.388 . S
C684 H671 0.930 . S
C684 C683 1.388 . S
C684 C685 1.390 . S
C685 C684 1.390 . S
C685 C686 1.394 . S
C685 C691 1.465 . S
C686 C681 1.399 . S
C686 C685 1.394 . S
C686 C687 1.516 . S
C687 C686 1.516 . S
C687 C688 1.502 . S
C687 C689 1.561 . S
C687 C690 1.526 . S
C688 H672 0.959 . S
C688 H673 0.959 . S
C688 H674 0.961 . S
C688 C687 1.502 . S
C689 H675 0.960 . S
C689 H676 0.961 . S
C689 H677 0.959 . S
C689 C687 1.561 . S
C690 C687 1.526 . S
C690 C691 1.396 . S
C690 C695 1.390 . S
C691 C685 1.465 . S
C691 C690 1.396 . S
C691 C692 1.399 . S
C692 H678 0.929 . S
C692 C691 1.399 . S
C692 C693 1.385 . S
C693 H679 0.931 . S
C693 C692 1.385 . S
C693 C694 1.389 . S
C694 C693 1.389 . S
C694 C695 1.387 . S
C695 H680 0.930 . S
C695 C690 1.390 . S
C695 C694 1.387 . S
H696 C708 0.930 . S
H697 C710 0.930 . S
H698 C711 0.930 . S
H699 C715 0.959 . S
H700 C715 0.959 . S
H701 C715 0.961 . S
H702 C716 0.960 . S
H703 C716 0.961 . S
H704 C716 0.959 . S
H705 C719 0.929 . S
H706 C720 0.931 . S
H707 C722 0.930 . S
C708 H696 0.930 . S
C708 C709 1.399 . S
C708 C713 1.399 . S
C709 C708 1.399 . S
C709 C710 1.376 . S
C710 H697 0.930 . S
C710 C709 1.376 . S
C710 C711 1.388 . S
C711 H698 0.930 . S
C711 C710 1.388 . S
C711 C712 1.390 . S
C712 C711 1.390 . S
C712 C713 1.394 . S
C712 C718 1.465 . S
C713 C708 1.399 . S
C713 C712 1.394 . S
C713 C714 1.516 . S
C714 C713 1.516 . S
C714 C715 1.502 . S
C714 C716 1.561 . S
C714 C717 1.526 . S
C715 H699 0.959 . S
C715 H700 0.959 . S
C715 H701 0.961 . S
C715 C714 1.502 . S
C716 H702 0.960 . S
C716 H703 0.961 . S
C716 H704 0.959 . S
C716 C714 1.561 . S
C717 C714 1.526 . S
C717 C718 1.396 . S
C717 C722 1.390 . S
C718 C712 1.465 . S
C718 C717 1.396 . S
C718 C719 1.399 . S
C719 H705 0.929 . S
C719 C718 1.399 . S
C719 C720 1.385 . S
C720 H706 0.931 . S
C720 C719 1.385 . S
C720 C721 1.389 . S
C721 C720 1.389 . S
C721 C722 1.387 . S
C722 H707 0.930 . S
C722 C717 1.390 . S
C722 C721 1.387 . S
H723 C735 0.930 . S
H724 C737 0.930 . S
H725 C738 0.930 . S
H726 C742 0.959 . S
H727 C742 0.959 . S
H728 C742 0.961 . S
H729 C743 0.960 . S
H730 C743 0.961 . S
H731 C743 0.959 . S
H732 C746 0.929 . S
H733 C747 0.931 . S
H734 C749 0.930 . S
C735 H723 0.930 . S
C735 C736 1.399 . S
C735 C740 1.399 . S
C736 C735 1.399 . S
C736 C737 1.376 . S
C737 H724 0.930 . S
C737 C736 1.376 . S
C737 C738 1.388 . S
C738 H725 0.930 . S
C738 C737 1.388 . S
C738 C739 1.390 . S
C739 C738 1.390 . S
C739 C740 1.394 . S
C739 C745 1.465 . S
C740 C735 1.399 . S
C740 C739 1.394 . S
C740 C741 1.516 . S
C741 C740 1.516 . S
C741 C742 1.502 . S
C741 C743 1.561 . S
C741 C744 1.526 . S
C742 H726 0.959 . S
C742 H727 0.959 . S
C742 H728 0.961 . S
C742 C741 1.502 . S
C743 H729 0.960 . S
C743 H730 0.961 . S
C743 H731 0.959 . S
C743 C741 1.561 . S
C744 C741 1.526 . S
C744 C745 1.396 . S
C744 C749 1.390 . S
C745 C739 1.465 . S
C745 C744 1.396 . S
C745 C746 1.399 . S
C746 H732 0.929 . S
C746 C745 1.399 . S
C746 C747 1.385 . S
C747 H733 0.931 . S
C747 C746 1.385 . S
C747 C748 1.389 . S
C748 C747 1.389 . S
C748 C749 1.387 . S
C749 H734 0.930 . S
C749 C744 1.390 . S
C749 C748 1.387 . S
H750 C762 0.930 . S
H751 C764 0.930 . S
H752 C765 0.930 . S
H753 C769 0.959 . S
H754 C769 0.959 . S
H755 C769 0.961 . S
H756 C770 0.960 . S
H757 C770 0.961 . S
H758 C770 0.959 . S
H759 C773 0.929 . S
H760 C774 0.931 . S
H761 C776 0.930 . S
C762 H750 0.930 . S
C762 C763 1.399 . S
C762 C767 1.399 . S
C763 C762 1.399 . S
C763 C764 1.376 . S
C764 H751 0.930 . S
C764 C763 1.376 . S
C764 C765 1.388 . S
C765 H752 0.930 . S
C765 C764 1.388 . S
C765 C766 1.390 . S
C766 C765 1.390 . S
C766 C767 1.394 . S
C766 C772 1.465 . S
C767 C762 1.399 . S
C767 C766 1.394 . S
C767 C768 1.516 . S
C768 C767 1.516 . S
C768 C769 1.502 . S
C768 C770 1.561 . S
C768 C771 1.526 . S
C769 H753 0.959 . S
C769 H754 0.959 . S
C769 H755 0.961 . S
C769 C768 1.502 . S
C770 H756 0.960 . S
C770 H757 0.961 . S
C770 H758 0.959 . S
C770 C768 1.561 . S
C771 C768 1.526 . S
C771 C772 1.396 . S
C771 C776 1.390 . S
C772 C766 1.465 . S
C772 C771 1.396 . S
C772 C773 1.399 . S
C773 H759 0.929 . S
C773 C772 1.399 . S
C773 C774 1.385 . S
C774 H760 0.931 . S
C774 C773 1.385 . S
C774 C775 1.389 . S
C775 C774 1.389 . S
C775 C776 1.387 . S
C776 H761 0.930 . S
C776 C771 1.390 . S
C776 C775 1.387 . S
H777 C789 0.930 . S
H778 C791 0.930 . S
H779 C792 0.930 . S
H780 C796 0.959 . S
H781 C796 0.959 . S
H782 C796 0.961 . S
H783 C797 0.960 . S
H784 C797 0.961 . S
H785 C797 0.959 . S
H786 C800 0.929 . S
H787 C801 0.931 1_556 S
H788 C803 0.930 . S
C789 H777 0.930 . S
C789 C790 1.399 . S
C789 C794 1.399 . S
C790 C789 1.399 . S
C790 C791 1.376 . S
C791 H778 0.930 . S
C791 C790 1.376 . S
C791 C792 1.388 . S
C792 H779 0.930 . S
C792 C791 1.388 . S
C792 C793 1.390 . S
C793 C792 1.390 . S
C793 C794 1.394 . S
C793 C799 1.465 . S
C794 C789 1.399 . S
C794 C793 1.394 . S
C794 C795 1.516 . S
C795 C794 1.516 . S
C795 C796 1.502 . S
C795 C797 1.561 . S
C795 C798 1.526 . S
C796 H780 0.959 . S
C796 H781 0.959 . S
C796 H782 0.961 . S
C796 C795 1.502 . S
C797 H783 0.960 . S
C797 H784 0.961 . S
C797 H785 0.959 . S
C797 C795 1.561 . S
C798 C795 1.526 . S
C798 C799 1.396 . S
C798 C803 1.390 . S
C799 C793 1.465 . S
C799 C798 1.396 . S
C799 C800 1.399 . S
C800 H786 0.929 . S
C800 C799 1.399 . S
C800 C801 1.385 . S
C801 H787 0.931 1_554 S
C801 C800 1.385 . S
C801 C802 1.389 . S
C802 C801 1.389 . S
C802 C803 1.387 . S
C803 H788 0.930 . S
C803 C798 1.390 . S
C803 C802 1.387 . S
C169 C104 1.445 . S
C181 C0 1.414 . S
C196 C13 1.391 . S
C208 C117 1.391 . S
C223 C26 1.445 . S
C235 C130 1.415 . S
C250 C39 1.445 . S
C262 C143 1.409 . S
C277 C78 1.416 . S
C289 C52 1.445 . S
C304 C65 1.383 . S
C316 C91 1.421 . S
C331 C8 1.284 . S
C343 C75 1.348 . S
C358 C21 1.280 . S
C370 C10 1.373 . S
C385 C34 1.270 . S
C397 C23 1.360 . S
C412 C36 1.355 . S
C424 C47 1.326 . S
C439 C49 1.371 . S
C451 C60 1.279 . S
C466 C62 1.348 . S
C478 C73 1.284 . S
C493 C101 1.398 . S
C505 C86 1.338 . S
C520 C99 1.364 . S
C532 C114 1.398 . S
C547 C127 1.348 . S
C559 C112 1.300 . S
C574 C125 1.346 . S
C586 C140 1.365 . S
C601 C138 1.291 . S
C613 C153 1.348 . S
C628 C151 1.363 . S
C640 C88 1.377 . S
C655 C135 1.153 . S
C667 C5 1.157 . S
C682 C148 1.155 . S
C694 C18 1.153 . S
C709 C83 1.173 . S
C721 C31 1.169 . S
C736 C44 1.220 . S
C748 C96 1.216 . S
C763 C57 1.176 . S
C775 C109 1.171 . S
C790 C122 1.196 . S
C802 C70 1.201 . S
