# Generated by pormake.
# Topology oof, (8)-cn, num edge types: 1
# Building blocks:
#     Node 0, Type 0, BuildingBlock: LIZSOE_clean_sbu_0, # of connection points: 8
#     Node 1, Type 0, BuildingBlock: LIZSOE_clean_sbu_0, # of connection points: 8
#     Node 2, Type 0, BuildingBlock: LIZSOE_clean_sbu_0, # of connection points: 8
#     Node 3, Type 0, BuildingBlock: LIZSOE_clean_sbu_0, # of connection points: 8
#     Edge 4, Type (0, 0), BuildingBlock: UVAHIK_clean_linker_0, # of connection points: 2
#     Edge 5, Type (0, 0), BuildingBlock: UVAHIK_clean_linker_0, # of connection points: 2
#     Edge 6, Type (0, 0), BuildingBlock: UVAHIK_clean_linker_0, # of connection points: 2
#     Edge 7, Type (0, 0), BuildingBlock: UVAHIK_clean_linker_0, # of connection points: 2
#     Edge 8, Type (0, 0), BuildingBlock: UVAHIK_clean_linker_0, # of connection points: 2
#     Edge 9, Type (0, 0), BuildingBlock: UVAHIK_clean_linker_0, # of connection points: 2
#     Edge 10, Type (0, 0), BuildingBlock: UVAHIK_clean_linker_0, # of connection points: 2
#     Edge 11, Type (0, 0), BuildingBlock: UVAHIK_clean_linker_0, # of connection points: 2
#     Edge 12, Type (0, 0), BuildingBlock: UVAHIK_clean_linker_0, # of connection points: 2
#     Edge 13, Type (0, 0), BuildingBlock: UVAHIK_clean_linker_0, # of connection points: 2
#     Edge 14, Type (0, 0), BuildingBlock: UVAHIK_clean_linker_0, # of connection points: 2
#     Edge 15, Type (0, 0), BuildingBlock: UVAHIK_clean_linker_0, # of connection points: 2
#     Edge 16, Type (0, 0), BuildingBlock: UVAHIK_clean_linker_0, # of connection points: 2
#     Edge 17, Type (0, 0), BuildingBlock: UVAHIK_clean_linker_0, # of connection points: 2
#     Edge 18, Type (0, 0), BuildingBlock: UVAHIK_clean_linker_0, # of connection points: 2
#     Edge 19, Type (0, 0), BuildingBlock: UVAHIK_clean_linker_0, # of connection points: 2
# Relax obj value: 0.078
# Max RMSD: 0.204
# Mean RMSD: 0.201
data_MOF--net-oof--node1-LIZSOE_clean_sbu_0--edge1-UVAHIK_clean_linker_0
_symmetry_space_group_name_H-M    P1
_symmetry_Int_Tables_number       1
_symmetry_cell_setting            triclinic
loop_
_symmetry_equiv_pos_as_xyz
'x, y, z'
_cell_length_a     19.945939
_cell_length_b     56.345626
_cell_length_c     28.147604
_cell_angle_alpha  89.401995
_cell_angle_beta   114.15978
_cell_angle_gamma 89.74478
loop_
_atom_site_label
_atom_site_type_symbol
_atom_site_fract_x
_atom_site_fract_y
_atom_site_fract_z
_atom_type_partial_charge
Co0 Co 0.0065 0.14767 0.14992 0.0
N1 N 0.05091 0.14254 0.10512 0.0
C2 C 0.11649 0.13266 0.11311 0.0
N3 N 0.05927 0.13943 0.02848 0.0
C4 C 0.01738 0.14654 0.05341 0.0
C5 C 0.12188 0.13089 0.06612 0.0
Co6 Co 0.94687 0.12878 0.36097 0.0
N7 N 0.91748 0.13883 0.41187 0.0
N8 N 0.90408 0.14209 0.48671 0.0
C9 C 0.86821 0.16036 0.4554 0.0
C10 C 0.87636 0.1583 0.40941 0.0
C11 C 0.93276 0.12913 0.4593 0.0
Co12 Co 0.97482 0.13649 0.25425 0.0
C13 C 0.02994 0.10939 0.36168 0.0
H14 H 0.85533 0.1706 0.37675 0.0
O15 O 0.96296 0.15499 0.1894 0.0
O16 O 0.00018 0.16774 0.29167 0.0
O17 O 0.08356 0.13102 0.27769 0.0
O18 O 0.9545 0.1055 0.2138 0.0
O19 O 0.98355 0.1159 0.1472 0.0
O20 O 0.98274 0.15899 0.36182 0.0
O21 O 0.97923 0.11718 0.31707 0.0
O22 O 0.85585 0.13732 0.30969 0.0
O23 O 0.09599 0.14173 0.20569 0.0
O24 O 0.02471 0.1784 0.15668 0.0
O25 O 0.86565 0.1418 0.2332 0.0
O26 O 0.03715 0.12045 0.40386 0.0
C27 C 0.1231 0.135 0.25271 0.0
C28 C 0.97333 0.10606 0.47788 0.0
H29 H 0.03329 0.10942 0.49581 0.0
H30 H 0.95777 0.09738 0.50743 0.0
H31 H 0.96114 0.094 0.4446 0.0
C32 C 0.00242 0.17342 0.33579 0.0
C33 C 0.96333 0.10064 0.17202 0.0
H34 H 0.15717 0.1265 0.15023 0.0
H35 H 0.90042 0.14408 0.01571 0.0
H36 H 0.93806 0.16878 0.99358 0.0
H37 H 0.93249 0.16948 0.05631 0.0
C38 C 0.94296 0.15805 0.02815 0.0
C39 C 0.98068 0.17646 0.18021 0.0
C40 C 0.82818 0.14189 0.26107 0.0
H41 H 0.16736 0.12319 0.05982 0.0
H42 H 0.84085 0.17469 0.46597 0.0
Co43 Co 0.02052 0.89246 0.64989 0.0
N44 N 0.03979 0.87866 0.59813 0.0
C45 C 0.06978 0.857 0.5995 0.0
N46 N 0.04357 0.87186 0.52131 0.0
C47 C 0.02573 0.88752 0.55037 0.0
C48 C 0.07189 0.85274 0.5522 0.0
Co49 Co 0.97964 0.88603 0.86968 0.0
N50 N 0.94842 0.89678 0.91823 0.0
N51 N 0.93042 0.89846 0.99129 0.0
C52 C 0.9058 0.91894 0.96457 0.0
C53 C 0.91674 0.91785 0.91951 0.0
C54 C 0.95502 0.8852 0.96191 0.0
Co55 Co 0.00444 0.89133 0.76136 0.0
C56 C 0.07302 0.87126 0.8722 0.0
H57 H 0.90409 0.93174 0.89023 0.0
O58 O -0.00227 0.90756 0.69481 0.0
O59 O 0.03467 0.92344 0.7954 0.0
O60 O 0.1114 0.88331 0.77835 0.0
O61 O 0.96966 0.85938 0.72954 0.0
O62 O 0.97778 0.86404 0.65467 0.0
O63 O 0.00893 0.91663 0.86389 0.0
O64 O 0.01563 0.87481 0.828 0.0
O65 O 0.88782 0.89244 0.81847 0.0
O66 O 0.11176 0.88246 0.69867 0.0
O67 O 0.93123 0.90291 0.60925 0.0
O68 O 0.89698 0.89929 0.74284 0.0
O69 O 0.07035 0.87922 0.91459 0.0
C70 C 0.14392 0.87984 0.74783 0.0
C71 C 0.98297 0.86013 0.97405 0.0
H72 H 0.04345 0.86023 0.99649 0.0
H73 H 0.95768 0.85086 0.99752 0.0
H74 H 0.97103 0.85038 0.93743 0.0
C75 C 0.02986 0.93031 0.83708 0.0
C76 C 0.96003 0.85177 0.68505 0.0
H77 H 0.0883 0.845 0.63267 0.0
H78 H 0.93865 0.91302 0.51634 0.0
H79 H 0.01938 0.91929 0.50489 0.0
H80 H 0.01939 0.92424 0.56832 0.0
C81 C -0.0004 0.91251 0.53398 0.0
C82 C 0.94584 0.91544 0.6509 0.0
C83 C 0.85948 0.898 0.77052 0.0
H84 H 0.09103 0.83665 0.54086 0.0
H85 H 0.8844 0.93397 0.97782 0.0
Co86 Co 0.47652 0.64765 0.13475 0.0
N87 N 0.50388 0.63978 0.08155 0.0
C88 C 0.53819 0.61936 0.07962 0.0
N89 N 0.5249 0.63982 1.00913 0.0
C90 C 0.49548 0.65183 0.03768 0.0
C91 C 0.55142 0.6194 0.0356 0.0
Co92 Co 0.48845 0.62985 0.36979 0.0
N93 N 0.475 0.63866 0.42924 0.0
N94 N 0.48521 0.64912 0.50851 0.0
C95 C 0.41874 0.63951 0.48297 0.0
C96 C 0.41257 0.63317 0.43452 0.0
C97 C 0.51883 0.64835 0.47546 0.0
Co98 Co 0.48012 0.63923 0.2522 0.0
C99 C 0.53169 0.61173 0.36649 0.0
H100 H 0.36653 0.62401 0.40577 0.0
O101 O 0.45121 0.65755 0.18395 0.0
O102 O 0.51133 0.67054 0.28829 0.0
O103 O 0.58467 0.63451 0.2627 0.0
O104 O 0.45256 0.60778 0.21417 0.0
O105 O 0.44314 0.61723 0.13426 0.0
O106 O 0.51533 0.66104 0.36532 0.0
O107 O 0.50279 0.61925 0.31718 0.0
O108 O 0.39025 0.63805 0.32784 0.0
O109 O 0.5713 0.63852 0.18114 0.0
O110 O 0.50672 0.67723 0.14047 0.0
O111 O 0.37605 0.64387 0.24507 0.0
O112 O 0.58364 0.62284 0.40381 0.0
C113 C 0.61076 0.63404 0.2285 0.0
C114 C 0.59767 0.65495 0.49055 0.0
H115 H 0.60609 0.66275 0.4572 0.0
H116 H 0.61609 0.6678 0.52291 0.0
H117 H 0.63241 0.63872 0.5039 0.0
C118 C 0.52359 0.67594 0.33473 0.0
C119 C 0.43818 0.60241 0.16676 0.0
H120 H 0.55235 0.6052 0.10839 0.0
H121 H 0.4118 0.67587 0.03848 0.0
H122 H 0.42482 0.67615 0.97835 0.0
H123 H 0.4913 0.68975 0.03603 0.0
C124 C 0.45297 0.67468 0.02141 0.0
C125 C 0.47304 0.67776 0.17151 0.0
C126 C 0.35071 0.64319 0.2803 0.0
H127 H 0.57905 0.60547 0.02406 0.0
H128 H 0.3792 0.63608 0.49943 0.0
Co129 Co 0.51264 0.40151 0.65374 0.0
N130 N 0.54547 0.39139 0.60442 0.0
C131 C 0.56379 0.36877 0.59916 0.0
N132 N 0.57913 0.38943 0.53765 0.0
C133 C 0.55767 0.40367 0.56739 0.0
C134 C 0.58364 0.36748 0.55798 0.0
Co135 Co 0.46715 0.37124 0.87237 0.0
N136 N 0.43804 0.37552 0.92675 0.0
N137 N 0.43558 0.38117 1.00489 0.0
C138 C 0.36753 0.37549 0.97098 0.0
C139 C 0.36931 0.37184 0.92326 0.0
C140 C 0.4774 0.38129 0.97729 0.0
Co141 Co 0.49074 0.388 0.76641 0.0
C142 C 0.55882 0.35863 0.86746 0.0
H143 H 0.32345 0.36631 0.88842 0.0
O144 O 0.48038 0.41103 0.70559 0.0
O145 O 0.5214 0.41635 0.81406 0.0
O146 O 0.59691 0.38114 0.78225 0.0
O147 O 0.4559 0.35976 0.71846 0.0
O148 O 0.46014 0.37335 0.64515 0.0
O149 O 0.49969 0.40261 0.88073 0.0
O150 O 0.50169 0.3654 0.8253 0.0
O151 O 0.37644 0.38194 0.82489 0.0
O152 O 0.59707 0.38811 0.70442 0.0
O153 O 0.48032 0.41158 0.70421 0.0
O154 O 0.38395 0.39462 0.75144 0.0
O155 O 0.55541 0.36092 0.91224 0.0
C156 C 0.62871 0.38098 0.75116 0.0
C157 C 0.5579 0.3872 1.00042 0.0
H158 H 0.57522 0.39546 0.97168 0.0
H159 H 0.5713 0.3995 0.03352 0.0
H160 H 0.59049 0.37062 0.01495 0.0
C161 C 0.51977 0.41901 0.8586 0.0
C162 C 0.44166 0.35766 0.67001 0.0
H163 H 0.56213 0.35399 0.62347 0.0
H164 H 0.50273 0.43562 0.53287 0.0
H165 H 0.60023 0.4366 0.55312 0.0
H166 H 0.56178 0.43786 0.60146 0.0
C167 C 0.55583 0.43008 0.56391 0.0
C168 C 0.45847 0.43266 0.70411 0.0
C169 C 0.34787 0.39096 0.77942 0.0
H170 H 0.59752 0.35149 0.54281 0.0
H171 H 0.32059 0.37328 0.98057 0.0
C172 C 0.09545 0.14591 0.95574 0.0
C173 C 0.04182 0.13956 0.97363 0.0
C174 C 0.07975 0.14549 0.90269 0.0
C175 C 0.94729 0.12108 0.77732 0.0
H176 H 0.03067 0.16928 0.71881 0.0
C177 C 0.85978 0.13911 0.55615 0.0
C178 C 0.91816 0.13962 0.54064 0.0
C179 C 0.87387 0.13799 0.60901 0.0
C180 C 0.00738 0.15567 0.73482 0.0
H181 H 0.93117 0.12645 0.95049 0.0
H182 H 0.9018 0.12712 0.85767 0.0
H183 H 0.05617 0.17009 0.81115 0.0
H184 H 0.0363 0.1399 0.56692 0.0
H185 H 0.06135 0.13837 0.65975 0.0
H186 H 0.89662 0.10726 0.70005 0.0
C187 C 0.95637 0.13224 0.88446 0.0
C188 C 0.02224 0.15601 0.78772 0.0
C189 C 0.97255 0.13235 0.9376 0.0
C190 C 0.99073 0.13911 0.57839 0.0
C191 C 0.00488 0.13843 0.63116 0.0
C192 C 0.93145 0.12101 0.72419 0.0
C193 C 0.00979 0.1388 0.86631 0.0
C194 C 0.99283 0.13862 0.80975 0.0
C195 C 0.94657 0.13796 0.64685 0.0
C196 C 0.96185 0.1382 0.7027 0.0
H197 H 0.14956 0.15124 0.98294 0.0
H198 H 0.12284 0.15014 0.89036 0.0
H199 H 0.92472 0.10717 0.79303 0.0
H200 H 0.80353 0.13967 0.52729 0.0
H201 H 0.82814 0.1378 0.62039 0.0
C202 C 0.08593 0.86732 0.45152 0.0
C203 C 0.03078 0.8739 0.46761 0.0
C204 C 0.07338 0.86912 0.39916 0.0
C205 C 0.92661 0.87211 0.26756 0.0
H206 H 0.07641 0.9012 0.23227 0.0
C207 C 0.88036 0.89883 0.05775 0.0
C208 C 0.93832 0.89379 0.04337 0.0
C209 C 0.88963 0.89555 0.10926 0.0
C210 C 0.03447 0.89279 0.24157 0.0
H211 H 0.91834 0.88619 0.44227 0.0
H212 H 0.89658 0.88996 0.35056 0.0
H213 H 0.09695 0.89674 0.32332 0.0
H214 H 0.05193 0.88236 0.07112 0.0
H215 H 0.0676 0.87575 0.16064 0.0
H216 H 0.86414 0.86815 0.18565 0.0
C217 C 0.94954 0.8835 0.3783 0.0
C218 C 0.04623 0.89025 0.2936 0.0
C219 C 0.96223 0.88171 0.43066 0.0
C220 C 0.00574 0.88557 0.08105 0.0
C221 C 0.01502 0.88221 0.13236 0.0
C222 C 0.91487 0.8746 0.21542 0.0
C223 C 0.00518 0.87735 0.36219 0.0
C224 C 0.99251 0.87985 0.30703 0.0
C225 C 0.95731 0.88738 0.14705 0.0
C226 C 0.96885 0.88489 0.20204 0.0
H227 H 0.13882 0.86101 0.47962 0.0
H228 H 0.11679 0.86396 0.38752 0.0
H229 H 0.88464 0.86382 0.27705 0.0
H230 H 0.82827 0.90545 0.02912 0.0
H231 H 0.84457 0.89995 0.11976 0.0
C232 C 0.52061 0.6287 0.92391 0.0
C233 C 0.52906 0.64628 0.96082 0.0
C234 C 0.53241 0.63385 0.87951 0.0
C235 C 0.52316 0.67845 0.78663 0.0
H236 H 0.6539 0.63597 0.75639 0.0
C237 C 0.52553 0.67624 0.58267 0.0
C238 C 0.51761 0.65314 0.56332 0.0
C239 C 0.54629 0.67983 0.63596 0.0
C240 C 0.61751 0.64807 0.76432 0.0
H241 H 0.55702 0.68311 0.98024 0.0
H242 H 0.57391 0.69251 0.90044 0.0
H243 H 0.64884 0.63405 0.84149 0.0
H244 H 0.52703 0.61581 0.58281 0.0
H245 H 0.56285 0.62175 0.6756 0.0
H246 H 0.48756 0.69126 0.70819 0.0
C247 C 0.55855 0.6747 0.90658 0.0
C248 C 0.61486 0.64701 0.813 0.0
C249 C 0.54795 0.6694 0.95174 0.0
C250 C 0.5337 0.63372 0.5976 0.0
C251 C 0.55459 0.63722 0.6506 0.0
C252 C 0.52512 0.67933 0.73753 0.0
C253 C 0.5522 0.6568 0.87073 0.0
C254 C 0.56565 0.66154 0.82378 0.0
C255 C 0.55944 0.6603 0.67031 0.0
C256 C 0.57007 0.66342 0.7252 0.0
H257 H 0.50574 0.6108 0.92982 0.0
H258 H 0.52606 0.61986 0.8519 0.0
H259 H 0.48472 0.68978 0.79422 0.0
H260 H 0.51271 0.69136 0.55626 0.0
H261 H 0.54995 0.6978 0.65004 0.0
C262 C 0.42056 0.39987 0.07862 0.0
C263 C 0.45895 0.38435 0.05987 0.0
C264 C 0.44383 0.40308 0.13217 0.0
C265 C 0.55302 0.37336 0.25804 0.0
H266 H 0.54002 0.43475 0.31489 0.0
C267 C 0.6382 0.38439 0.47689 0.0
C268 C 0.58336 0.39491 0.489 0.0
C269 C 0.63523 0.3863 0.42655 0.0
C270 C 0.54416 0.41754 0.29947 0.0
H271 H 0.54916 0.35918 0.0817 0.0
H272 H 0.59183 0.36536 0.17495 0.0
H273 H 0.50904 0.4313 0.22175 0.0
H274 H 0.48239 0.41557 0.45802 0.0
H275 H 0.47819 0.41953 0.37082 0.0
H276 H 0.58714 0.35953 0.33544 0.0
C277 C 0.5437 0.37506 0.14869 0.0
C278 C 0.52599 0.41552 0.24619 0.0
C279 C 0.52004 0.37175 0.09532 0.0
C280 C 0.52712 0.40817 0.45051 0.0
C281 C 0.52438 0.41024 0.40036 0.0
C282 C 0.57165 0.37542 0.31123 0.0
C283 C 0.50578 0.3907 0.16782 0.0
C284 C 0.52916 0.39332 0.22477 0.0
C285 C 0.57717 0.39875 0.38749 0.0
C286 C 0.56635 0.39744 0.33236 0.0
H287 H 0.37292 0.40957 0.05173 0.0
H288 H 0.41253 0.41491 0.14562 0.0
H289 H 0.55488 0.35592 0.24279 0.0
H290 H 0.68178 0.37397 0.50596 0.0
H291 H 0.67688 0.37738 0.41769 0.0
C292 C 0.70206 0.12693 0.21374 0.0
C293 C 0.74838 0.14588 0.23792 0.0
C294 C 0.63098 0.12606 0.21217 0.0
C295 C 0.48859 0.16033 0.23691 0.0
H296 H 0.45166 0.0998 0.28821 0.0
C297 C 0.24796 0.15108 0.29693 0.0
C298 C 0.20299 0.13143 0.27616 0.0
C299 C 0.31855 0.1519 0.2977 0.0
C300 C 0.46077 0.11678 0.27355 0.0
H301 H 0.75592 0.17943 0.27628 0.0
H302 H 0.63156 0.17838 0.27222 0.0
H303 H 0.55887 0.10425 0.26812 0.0
H304 H 0.19716 0.09676 0.24266 0.0
H305 H 0.32032 0.09789 0.24454 0.0
H306 H 0.39046 0.17287 0.24206 0.0
C307 C 0.64934 0.16419 0.25427 0.0
C308 C 0.522 0.11929 0.26163 0.0
C309 C 0.72041 0.16495 0.25616 0.0
C310 C 0.23184 0.11178 0.26042 0.0
C311 C 0.30222 0.11259 0.26097 0.0
C312 C 0.42724 0.15781 0.24864 0.0
C313 C 0.60518 0.14417 0.23469 0.0
C314 C 0.53677 0.14112 0.24326 0.0
C315 C 0.345 0.13316 0.27715 0.0
C316 C 0.41264 0.13602 0.26735 0.0
H317 H 0.72315 0.11174 0.2007 0.0
H318 H 0.59784 0.11055 0.19611 0.0
H319 H 0.49807 0.17734 0.22254 0.0
H320 H 0.22609 0.16669 0.308 0.0
H321 H 0.35061 0.16781 0.3115 0.0
C322 C 0.75216 0.9187 0.77323 0.0
C323 C 0.77954 0.90218 0.74845 0.0
C324 C 0.6808 0.91679 0.77038 0.0
C325 C 0.54551 0.86995 0.75505 0.0
H326 H 0.42384 0.92241 0.76232 0.0
C327 C 0.25021 0.85949 0.74185 0.0
C328 C 0.22394 0.87567 0.76804 0.0
C329 C 0.32155 0.86124 0.74463 0.0
C330 C 0.45782 0.90755 0.76128 0.0
H331 H 0.7524 0.87165 0.69842 0.0
H332 H 0.62622 0.86868 0.69166 0.0
H333 H 0.53339 0.93033 0.74693 0.0
H334 H 0.25342 0.90521 0.82092 0.0
H335 H 0.37933 0.90804 0.82691 0.0
H336 H 0.46962 0.84718 0.76914 0.0
C337 C 0.66039 0.88295 0.71408 0.0
C338 C 0.52044 0.9121 0.752 0.0
C339 C 0.73206 0.88494 0.71689 0.0
C340 C 0.27266 0.89227 0.80104 0.0
C341 C 0.34421 0.89417 0.80355 0.0
C342 C 0.48279 0.86541 0.76421 0.0
C343 C 0.63512 0.89818 0.74284 0.0
C344 C 0.56525 0.89337 0.74878 0.0
C345 C 0.36829 0.87936 0.77344 0.0
C346 C 0.43811 0.88415 0.76752 0.0
H347 H 0.78833 0.93181 0.7988 0.0
H348 H 0.66385 0.92877 0.79332 0.0
H349 H 0.57946 0.85508 0.75409 0.0
H350 H 0.21339 0.84673 0.71558 0.0
H351 H 0.3378 0.84957 0.7208 0.0
C352 C 0.712 0.61866 0.20778 0.0
C353 C 0.68982 0.63031 0.24287 0.0
C354 C 0.78454 0.61974 0.21337 0.0
C355 C 0.97377 0.63464 0.30204 0.0
H356 H 0.99252 0.65017 0.1733 0.0
C357 C 0.25261 0.6587 0.30412 0.0
C358 C 0.2723 0.64759 0.26718 0.0
C359 C 0.1802 0.65849 0.29898 0.0
C360 C 0.9883 0.64563 0.20945 0.0
H361 H 0.72677 0.65088 0.31339 0.0
H362 H 0.85486 0.65276 0.32355 0.0
H363 H 0.87105 0.64405 0.17238 0.0
H364 H 0.23144 0.62882 0.19425 0.0
H365 H 0.10384 0.62816 0.18523 0.0
H366 H 0.09096 0.63599 0.3391 0.0
C367 C 0.8158 0.64276 0.29164 0.0
C368 C 0.91876 0.64209 0.20898 0.0
C369 C 0.74275 0.64159 0.28608 0.0
C370 C 0.21736 0.63766 0.22298 0.0
C371 C 0.14451 0.63724 0.21803 0.0
C372 C 0.04334 0.63811 0.3025 0.0
C373 C 0.83661 0.63259 0.25412 0.0
C374 C 0.91077 0.63645 0.25523 0.0
C375 C 0.1258 0.64691 0.25705 0.0
C376 C 0.05144 0.64366 0.25621 0.0
H377 H 0.67251 0.60952 0.1746 0.0
H378 H 0.79933 0.61114 0.18472 0.0
H379 H 0.96941 0.6301 0.33815 0.0
H380 H 0.29403 0.6667 0.33837 0.0
H381 H 0.16732 0.66672 0.32887 0.0
C382 C 0.76028 0.38856 0.80706 0.0
C383 C 0.70699 0.37489 0.76891 0.0
C384 C 0.83208 0.38935 0.80985 0.0
C385 C 0.92385 0.38222 0.72047 0.0
H386 H 0.10275 0.39106 0.84425 0.0
C387 C 0.21733 0.38231 0.72382 0.0
C388 C 0.26945 0.39686 0.7605 0.0
C389 C 0.14555 0.38133 0.72098 0.0
C390 C 0.05302 0.38896 0.80921 0.0
H391 H 0.68767 0.34962 0.70744 0.0
H392 H 0.81316 0.35009 0.71379 0.0
H393 H 0.98827 0.3829 0.85291 0.0
H394 H 0.2872 0.42297 0.82016 0.0
H395 H 0.16162 0.42202 0.8139 0.0
H396 H 0.98873 0.3882 0.67682 0.0
C397 C 0.79962 0.36083 0.74038 0.0
C398 C 0.98749 0.38417 0.81426 0.0
C399 C 0.7281 0.36022 0.73733 0.0
C400 C 0.24738 0.41191 0.79096 0.0
C401 C 0.17594 0.411 0.78807 0.0
C402 C 0.98941 0.38697 0.71544 0.0
C403 C 0.85137 0.37638 0.77465 0.0
C404 C 0.92207 0.38069 0.76996 0.0
C405 C 0.12529 0.39483 0.75498 0.0
C406 C 0.05475 0.39047 0.75973 0.0
H407 H 0.74483 0.40033 0.83115 0.0
H408 H 0.87058 0.4015 0.83678 0.0
H409 H 0.87418 0.3802 0.68538 0.0
H410 H 0.23379 0.3701 0.701 0.0
H411 H 0.10787 0.36865 0.69512 0.0
C412 C 0.40112 0.33251 0.5905 0.0
C413 C 0.40091 0.33683 0.63968 0.0
C414 C 0.35822 0.31471 0.55854 0.0
C415 C 0.18916 0.28144 0.52881 0.0
H416 H 0.2659 0.24121 0.45129 0.0
C417 C 0.02535 0.20304 0.40601 0.0
C418 C 0.0357 0.196 0.36159 0.0
C419 C 0.06646 0.2213 0.43744 0.0
C420 C 0.24301 0.25256 0.4718 0.0
H421 H 0.35473 0.3254 0.69358 0.0
H422 H 0.27825 0.29416 0.63688 0.0
H423 H 0.34705 0.26886 0.51459 0.0
H424 H 0.09498 0.20383 0.31386 0.0
H425 H 0.16594 0.2364 0.36821 0.0
H426 H 0.08483 0.26557 0.48546 0.0
C427 C 0.31266 0.3047 0.6236 0.0
C428 C 0.28985 0.26829 0.50855 0.0
C429 C 0.35688 0.32244 0.65626 0.0
C430 C 0.08544 0.2088 0.34768 0.0
C431 C 0.12684 0.22725 0.37933 0.0
C432 C 0.14211 0.26585 0.49172 0.0
C433 C 0.31261 0.30076 0.57416 0.0
C434 C 0.26358 0.28293 0.53756 0.0
C435 C 0.11921 0.23335 0.42545 0.0
C436 C 0.16833 0.2511 0.4627 0.0
H437 H 0.43323 0.34327 0.57572 0.0
H438 H 0.35888 0.31245 0.52055 0.0
H439 H 0.1668 0.29276 0.54973 0.0
H440 H 0.9875 0.19369 0.41807 0.0
H441 H 0.05913 0.22513 0.47264 0.0
C442 C 0.68691 0.34481 0.90276 0.0
C443 C 0.61365 0.3408 0.86821 0.0
C444 C 0.73059 0.3263 0.9341 0.0
C445 C 0.77598 0.29235 0.02632 0.0
H446 H 0.76588 0.22537 0.99483 0.0
C447 C 0.955 0.21976 0.17202 0.0
C448 C 0.92768 0.19654 0.16793 0.0
C449 C 0.9131 0.23794 0.13836 0.0
C450 C 0.76834 0.24399 1.00454 0.0
H451 H 0.53312 0.31349 0.83367 0.0
H452 H 0.60897 0.28118 0.88708 0.0
H453 H 0.70979 0.25439 0.9244 0.0
H454 H 0.83167 0.17494 0.12874 0.0
H455 H 0.75769 0.20674 0.07117 0.0
H456 H 0.83477 0.28195 0.10639 0.0
C457 C 0.633 0.29863 0.89101 0.0
C458 C 0.73645 0.26071 0.9639 0.0
C459 C 0.58964 0.31718 0.85934 0.0
C460 C 0.85414 0.19267 0.13364 0.0
C461 C 0.81234 0.21081 0.09958 0.0
C462 C 0.80802 0.27565 0.06686 0.0
C463 C 0.70212 0.30326 0.93145 0.0
C464 C 0.73986 0.2852 0.97407 0.0
C465 C 0.84272 0.23335 0.09957 0.0
C466 C 0.80471 0.25119 0.05669 0.0
H467 H 0.70698 0.36281 0.9108 0.0
H468 H 0.78462 0.33049 0.96324 0.0
H469 H 0.77825 0.31091 0.03632 0.0
H470 H 0.01183 0.22324 0.19734 0.0
H471 H 0.93859 0.255 0.13989 0.0
C472 C 0.52797 0.71072 0.3892 0.0
C473 C 0.55608 0.69883 0.35759 0.0
C474 C 0.56902 0.72814 0.42378 0.0
C475 C 0.74004 0.76461 0.46377 0.0
H476 H 0.72525 0.7644 0.59703 0.0
C477 C 0.94995 0.81427 0.63728 0.0
C478 C 0.92167 0.82929 0.66428 0.0
C479 C 0.90572 0.79722 0.60331 0.0
C480 C 0.72973 0.7648 0.55996 0.0
H481 H 0.64855 0.69615 0.33652 0.0
H482 H 0.72134 0.72625 0.39751 0.0
H483 H 0.64603 0.73877 0.52779 0.0
H484 H 0.82593 0.83736 0.67913 0.0
H485 H 0.74815 0.80722 0.61996 0.0
H486 H 0.82497 0.79028 0.49656 0.0
C487 C 0.66659 0.72272 0.39476 0.0
C488 C 0.68386 0.75019 0.51989 0.0
C489 C 0.6247 0.70554 0.35936 0.0
C490 C 0.84959 0.8257 0.6596 0.0
C491 C 0.80493 0.80858 0.6253 0.0
C492 C 0.78635 0.77901 0.50398 0.0
C493 C 0.6403 0.73374 0.42874 0.0
C494 C 0.68819 0.74986 0.47106 0.0
C495 C 0.8317 0.79482 0.59511 0.0
C496 C 0.78204 0.77926 0.55269 0.0
H497 H 0.47557 0.70563 0.38908 0.0
H498 H 0.54563 0.73661 0.44793 0.0
H499 H 0.74455 0.76528 0.42674 0.0
H500 H 0.00535 0.81658 0.64029 0.0
H501 H 0.92881 0.78652 0.58185 0.0
C502 C 0.35272 0.69874 0.13527 0.0
C503 C 0.42908 0.69981 0.16463 0.0
C504 C 0.31411 0.71818 0.10433 0.0
C505 C 0.35367 0.77135 0.03937 0.0
H506 H 0.14446 0.78295 0.99104 0.0
C507 C 0.19793 0.85398 0.91718 0.0
C508 C 0.12491 0.85117 0.88086 0.0
C509 C 0.23853 0.83462 0.94708 0.0
C510 C 0.20281 0.77972 1.00356 0.0
H511 H 0.52283 0.72305 0.18928 0.0
H512 H 0.45505 0.75744 0.13889 0.0
H513 H 0.20442 0.75351 0.05972 0.0
H514 H 0.03961 0.82542 0.84435 0.0
H515 H 0.11061 0.79155 0.89592 0.0
H516 H 0.35194 0.7981 0.98395 0.0
C517 C 0.42519 0.74127 0.13732 0.0
C518 C 0.23746 0.76281 0.04326 0.0
C519 C 0.4639 0.72172 0.16758 0.0
C520 C 0.09624 0.82811 0.87115 0.0
C521 C 0.13638 0.80878 0.90167 0.0
C522 C 0.31914 0.78845 1.00014 0.0
C523 C 0.35068 0.73935 0.10264 0.0
C524 C 0.31358 0.7583 0.06193 0.0
C525 C 0.20664 0.81203 0.94184 0.0
C526 C 0.24317 0.79284 0.98151 0.0
H527 H 0.32442 0.68201 0.13108 0.0
H528 H 0.25697 0.71577 0.07851 0.0
H529 H 0.41186 0.76812 0.05124 0.0
H530 H 0.22092 0.87159 0.92637 0.0
H531 H 0.29243 0.83784 0.97748 0.0
C532 C 0.89809 0.07278 0.10129 0.0
C533 C 0.95512 0.07654 0.15048 0.0
C534 C 0.90606 0.05612 0.06723 0.0
C535 C 0.05558 0.02911 0.0396 0.0
H536 H 0.89813 0.99341 0.93693 0.0
C537 C 0.97954 0.97009 0.83869 0.0
C538 C 0.04133 0.95497 0.85547 0.0
C539 C 0.97205 0.98719 0.87217 0.0
C540 C 0.94252 1.00361 0.9647 0.0
H541 H 0.06376 0.06492 0.20346 0.0
H542 H 0.07684 0.03513 0.14512 0.0
H543 H 0.87569 1.01498 1.00373 0.0
H544 H 0.14604 0.94719 0.91897 0.0
H545 H 0.13476 0.97744 0.97652 0.0
H546 H 0.12243 0.0177 1.0006 0.0
C547 C 0.02605 0.04524 0.13244 0.0
C548 C 0.92971 0.01587 1.00338 0.0
C549 C 0.01782 0.06186 0.16655 0.0
C550 C 0.09895 0.9591 0.90421 0.0
C551 C 0.09175 0.97625 0.93762 0.0
C552 C 0.06839 0.01685 1.00091 0.0
C553 C 0.97174 0.04295 0.08135 0.0
C554 C 0.98606 0.02879 0.04152 0.0
C555 C 0.02638 0.98961 0.92319 0.0
C556 C 0.01204 1.00393 0.96279 0.0
H557 H 0.85038 0.08443 0.08707 0.0
H558 H 0.86314 0.05507 0.02827 0.0
H559 H 0.10001 0.03927 0.06744 0.0
H560 H 0.93319 0.96685 0.8021 0.0
H561 H 0.92157 0.99748 0.85921 0.0
C562 C 0.97048 0.06988 0.35417 0.0
C563 C 0.03537 0.08333 0.37296 0.0
C564 C 0.96208 0.05057 0.38326 0.0
C565 C 0.05906 1.01094 0.50012 0.0
H566 H 0.8729 1.01423 0.51286 0.0
C567 C 0.01151 0.9537 0.65529 0.0
C568 C 0.94486 0.94119 0.63737 0.0
C569 C 0.0215 0.97262 0.62586 0.0
C570 C 0.92503 1.01285 0.50964 0.0
H571 H 0.14542 0.08482 0.4337 0.0
H572 H 0.13186 0.05089 0.48327 0.0
H573 H 0.89466 0.04026 0.451 0.0
H574 H 0.83415 0.94074 0.57729 0.0
H575 H 0.85061 0.97386 0.52702 0.0
H576 H 0.08942 0.98349 0.5587 0.0
C577 C 0.08673 0.05541 0.44662 0.0
C578 C 0.93743 0.02775 0.47373 0.0
C579 C 0.09504 0.07476 0.41763 0.0
C580 C 0.88588 0.9501 0.59273 0.0
C581 C 0.89578 0.96901 0.5634 0.0
C582 C 0.04661 0.99599 0.53598 0.0
C583 C 0.01862 0.04395 0.43155 0.0
C584 C 0.00458 0.02702 0.46821 0.0
C585 C 0.96494 0.97974 0.57797 0.0
C586 C 0.97937 0.99668 0.54143 0.0
H587 H 0.92292 0.07595 0.32036 0.0
H588 H 0.90947 0.04177 0.36948 0.0
H589 H 0.11127 1.00965 0.49698 0.0
H590 H 0.05864 0.94733 0.68902 0.0
H591 H 0.07498 0.98082 0.63933 0.0
C592 C 0.37539 0.57295 0.09896 0.0
C593 C 0.4294 0.57762 0.14888 0.0
C594 C 0.38462 0.5544 0.06952 0.0
C595 C 0.49611 0.50123 0.07029 0.0
H596 H 0.4614 0.52375 0.93132 0.0
C597 C 0.58242 0.44429 0.93554 0.0
C598 C 0.53049 0.44232 0.88387 0.0
C599 C 0.57518 0.46194 0.96783 0.0
C600 C 0.4708 0.51702 0.96973 0.0
H601 H 0.53256 0.56529 0.20867 0.0
H602 H 0.54805 0.53238 0.15777 0.0
H603 H 0.43192 0.5493 0.98948 0.0
H604 H 0.43235 0.45795 0.82463 0.0
H605 H 0.41982 0.48901 0.88039 0.0
H606 H 0.5343 0.46883 0.05036 0.0
C607 C 0.49841 0.5431 0.14132 0.0
C608 C 0.45361 0.53168 1.00314 0.0
C609 C 0.48903 0.56174 0.17091 0.0
C610 C 0.47441 0.4595 0.86385 0.0
C611 C 0.46686 0.47714 0.89619 0.0
C612 C 0.51295 0.48648 0.03672 0.0
C613 C 0.44828 0.54007 0.0892 0.0
C614 C 0.4656 0.52395 0.05377 0.0
C615 C 0.51535 0.47796 0.9493 0.0
C616 C 0.50045 0.49415 0.98586 0.0
H617 H 0.32952 0.58513 0.08068 0.0
H618 H 0.34402 0.55223 0.03002 0.0
H619 H 0.5058 0.49467 0.10888 0.0
H620 H 0.62581 0.43112 0.95204 0.0
H621 H 0.61475 0.46234 1.00801 0.0
C622 C 0.47264 0.47343 0.67381 0.0
C623 C 0.45212 0.44968 0.66154 0.0
C624 C 0.46932 0.48985 0.63492 0.0
C625 C 0.48445 0.49291 0.51078 0.0
H626 H 0.40532 0.55682 0.49664 0.0
C627 C 0.44081 0.58148 0.36945 0.0
C628 C 0.51414 0.58757 0.38088 0.0
C629 C 0.42457 0.56314 0.39729 0.0
C630 C 0.42704 0.53894 0.49981 0.0
H631 H 0.40446 0.42516 0.5979 0.0
H632 H 0.3954 0.4542 0.5296 0.0
H633 H 0.39076 0.52887 0.55941 0.0
H634 H 0.62756 0.57786 0.42777 0.0
H635 H 0.59917 0.54484 0.47334 0.0
H636 H 0.52417 0.5033 0.45333 0.0
C637 C 0.41804 0.45972 0.56982 0.0
C638 C 0.41907 0.52299 0.53595 0.0
C639 C 0.42321 0.4431 0.60889 0.0
C640 C 0.57051 0.57349 0.41748 0.0
C641 C 0.55426 0.55469 0.44398 0.0
C642 C 0.49391 0.50897 0.47564 0.0
C643 C 0.44373 0.48304 0.58254 0.0
C644 C 0.44788 0.49975 0.54201 0.0
C645 C 0.48127 0.5499 0.43576 0.0
C646 C 0.46559 0.53221 0.46981 0.0
H647 H 0.49351 0.47914 0.71389 0.0
H648 H 0.48877 0.50772 0.64607 0.0
H649 H 0.50827 0.47538 0.51479 0.0
H650 H 0.39605 0.59208 0.34207 0.0
H651 H 0.36775 0.55975 0.38985 0.0
loop_
_geom_bond_atom_site_label_1
_geom_bond_atom_site_label_2
_geom_bond_distance
_geom_bond_site_symmetry_2
_ccdc_geom_bond_type
Co0 N1 2.034 . S
Co0 O15 2.262 1_455 S
Co0 O19 1.958 1_455 S
Co0 O23 1.950 . S
Co0 O24 2.057 1_455 S
N1 Co0 2.034 . S
N1 C2 1.366 . S
N1 C4 1.332 . S
C2 N1 1.366 . S
C2 C5 1.377 1_554 S
C2 H34 0.931 1_455 S
N3 C4 1.346 . S
N3 C5 1.337 1_554 S
C4 N1 1.332 . S
C4 N3 1.346 . S
C4 C38 1.361 . S
C5 C2 1.377 1_556 S
C5 N3 1.337 1_556 S
C5 H41 0.930 . S
Co6 N7 2.034 . S
Co6 O20 1.950 1_655 S
Co6 O21 2.262 1_655 S
Co6 O22 1.958 . S
Co6 O26 2.057 1_655 S
N7 Co6 2.034 . S
N7 C10 1.366 . S
N7 C11 1.332 . S
N8 C9 1.337 . S
N8 C11 1.346 . S
C9 N8 1.337 . S
C9 C10 1.377 . S
C9 H42 0.930 . S
C10 N7 1.366 . S
C10 C9 1.377 . S
C10 H14 0.931 . S
C11 N7 1.332 . S
C11 N8 1.346 . S
C11 C28 1.361 1_655 S
Co12 O15 2.097 . S
Co12 O16 2.065 1_655 S
Co12 O17 2.065 1_655 S
Co12 O18 2.042 . S
Co12 O21 2.097 1_655 S
Co12 O25 2.042 . S
C13 O21 1.253 . S
C13 O26 1.263 . S
H14 C10 0.931 . S
O15 Co0 2.262 1_655 S
O15 Co12 2.097 . S
O15 C39 1.253 . S
O16 Co12 2.065 1_455 S
O16 C32 1.221 . S
O17 Co12 2.065 1_455 S
O17 C27 1.221 . S
O18 Co12 2.042 . S
O18 C33 1.237 . S
O19 Co0 1.958 1_655 S
O19 C33 1.278 . S
O20 Co6 1.950 1_455 S
O20 C32 1.277 . S
O21 Co6 2.262 1_455 S
O21 Co12 2.097 1_455 S
O21 C13 1.253 . S
O22 Co6 1.958 . S
O22 C40 1.278 . S
O23 Co0 1.950 . S
O23 C27 1.277 . S
O24 Co0 2.057 1_655 S
O24 C39 1.263 . S
O25 Co12 2.042 . S
O25 C40 1.237 . S
O26 Co6 2.057 1_455 S
O26 C13 1.263 . S
C27 O17 1.221 . S
C27 O23 1.277 . S
C28 C11 1.361 1_455 S
C28 H29 0.960 . S
C28 H30 0.961 . S
C28 H31 0.961 . S
H29 C28 0.960 . S
H30 C28 0.961 . S
H31 C28 0.961 . S
C32 O16 1.221 . S
C32 O20 1.277 . S
C33 O18 1.237 . S
C33 O19 1.278 . S
H34 C2 0.931 1_655 S
H35 C38 0.961 . S
H36 C38 0.961 . S
H37 C38 0.960 . S
C38 C4 1.361 . S
C38 H35 0.961 . S
C38 H36 0.961 . S
C38 H37 0.960 . S
C39 O15 1.253 . S
C39 O24 1.263 . S
C40 O22 1.278 . S
C40 O25 1.237 . S
H41 C5 0.930 . S
H42 C9 0.930 . S
Co43 N44 2.034 . S
Co43 O58 2.262 1_455 S
Co43 O62 1.958 1_455 S
Co43 O66 1.950 . S
Co43 O67 2.057 1_455 S
N44 Co43 2.034 . S
N44 C45 1.366 . S
N44 C47 1.332 . S
C45 N44 1.366 . S
C45 C48 1.377 . S
C45 H77 0.931 1_455 S
N46 C47 1.346 . S
N46 C48 1.337 . S
C47 N44 1.332 . S
C47 N46 1.346 . S
C47 C81 1.361 . S
C48 C45 1.377 . S
C48 N46 1.337 . S
C48 H84 0.930 . S
Co49 N50 2.034 . S
Co49 O63 1.950 1_655 S
Co49 O64 2.262 1_655 S
Co49 O65 1.958 . S
Co49 O69 2.057 1_655 S
N50 Co49 2.034 . S
N50 C53 1.366 . S
N50 C54 1.332 . S
N51 C52 1.337 . S
N51 C54 1.346 . S
C52 N51 1.337 . S
C52 C53 1.377 . S
C52 H85 0.930 . S
C53 N50 1.366 . S
C53 C52 1.377 . S
C53 H57 0.931 . S
C54 N50 1.332 . S
C54 N51 1.346 . S
C54 C71 1.361 1_655 S
Co55 O58 2.097 . S
Co55 O59 2.065 1_655 S
Co55 O60 2.065 1_655 S
Co55 O61 2.042 . S
Co55 O64 2.097 1_655 S
Co55 O68 2.042 . S
C56 O64 1.253 . S
C56 O69 1.263 . S
H57 C53 0.931 . S
O58 Co43 2.262 1_655 S
O58 Co55 2.097 . S
O58 C82 1.253 . S
O59 Co55 2.065 1_455 S
O59 C75 1.221 . S
O60 Co55 2.065 1_455 S
O60 C70 1.221 . S
O61 Co55 2.042 . S
O61 C76 1.237 . S
O62 Co43 1.958 1_655 S
O62 C76 1.278 . S
O63 Co49 1.950 1_455 S
O63 C75 1.277 . S
O64 Co49 2.262 1_455 S
O64 Co55 2.097 1_455 S
O64 C56 1.253 . S
O65 Co49 1.958 . S
O65 C83 1.278 . S
O66 Co43 1.950 . S
O66 C70 1.277 . S
O67 Co43 2.057 1_655 S
O67 C82 1.263 . S
O68 Co55 2.042 . S
O68 C83 1.237 . S
O69 Co49 2.057 1_455 S
O69 C56 1.263 . S
C70 O60 1.221 . S
C70 O66 1.277 . S
C71 C54 1.361 1_455 S
C71 H72 0.960 . S
C71 H73 0.961 1_556 S
C71 H74 0.961 1_556 S
H72 C71 0.960 . S
H73 C71 0.961 1_554 S
H74 C71 0.961 1_554 S
C75 O59 1.221 . S
C75 O63 1.277 . S
C76 O61 1.237 . S
C76 O62 1.278 . S
H77 C45 0.931 1_655 S
H78 C81 0.961 . S
H79 C81 0.961 . S
H80 C81 0.960 . S
C81 C47 1.361 . S
C81 H78 0.961 . S
C81 H79 0.961 . S
C81 H80 0.960 . S
C82 O58 1.253 . S
C82 O67 1.263 . S
C83 O65 1.278 . S
C83 O68 1.237 . S
H84 C48 0.930 . S
H85 C52 0.930 . S
Co86 N87 2.034 . S
Co86 O101 2.262 . S
Co86 O105 1.958 . S
Co86 O109 1.950 . S
Co86 O110 2.057 . S
N87 Co86 2.034 . S
N87 C88 1.366 . S
N87 C90 1.332 . S
C88 N87 1.366 . S
C88 C91 1.377 1_554 S
C88 H120 0.931 . S
N89 C90 1.346 . S
N89 C91 1.337 1_554 S
C90 N87 1.332 . S
C90 N89 1.346 . S
C90 C124 1.361 . S
C91 C88 1.377 1_556 S
C91 N89 1.337 1_556 S
C91 H127 0.930 . S
Co92 N93 2.034 . S
Co92 O106 1.950 . S
Co92 O107 2.262 . S
Co92 O108 1.958 . S
Co92 O112 2.057 . S
N93 Co92 2.034 . S
N93 C96 1.366 . S
N93 C97 1.332 . S
N94 C95 1.337 . S
N94 C97 1.346 . S
C95 N94 1.337 . S
C95 C96 1.377 . S
C95 H128 0.930 . S
C96 N93 1.366 . S
C96 C95 1.377 . S
C96 H100 0.931 . S
C97 N93 1.332 . S
C97 N94 1.346 . S
C97 C114 1.361 . S
Co98 O101 2.097 . S
Co98 O102 2.065 . S
Co98 O103 2.065 . S
Co98 O104 2.042 . S
Co98 O107 2.097 . S
Co98 O111 2.042 . S
C99 O107 1.253 . S
C99 O112 1.263 . S
H100 C96 0.931 . S
O101 Co86 2.262 . S
O101 Co98 2.097 . S
O101 C125 1.253 . S
O102 Co98 2.065 . S
O102 C118 1.221 . S
O103 Co98 2.065 . S
O103 C113 1.221 . S
O104 Co98 2.042 . S
O104 C119 1.237 . S
O105 Co86 1.958 . S
O105 C119 1.278 . S
O106 Co92 1.950 . S
O106 C118 1.277 . S
O107 Co92 2.262 . S
O107 Co98 2.097 . S
O107 C99 1.253 . S
O108 Co92 1.958 . S
O108 C126 1.278 . S
O109 Co86 1.950 . S
O109 C113 1.277 . S
O110 Co86 2.057 . S
O110 C125 1.263 . S
O111 Co98 2.042 . S
O111 C126 1.237 . S
O112 Co92 2.057 . S
O112 C99 1.263 . S
C113 O103 1.221 . S
C113 O109 1.277 . S
C114 C97 1.361 . S
C114 H115 0.960 . S
C114 H116 0.961 . S
C114 H117 0.961 . S
H115 C114 0.960 . S
H116 C114 0.961 . S
H117 C114 0.961 . S
C118 O102 1.221 . S
C118 O106 1.277 . S
C119 O104 1.237 . S
C119 O105 1.278 . S
H120 C88 0.931 . S
H121 C124 0.961 . S
H122 C124 0.961 . S
H123 C124 0.960 . S
C124 C90 1.361 . S
C124 H121 0.961 . S
C124 H122 0.961 . S
C124 H123 0.960 . S
C125 O101 1.253 . S
C125 O110 1.263 . S
C126 O108 1.278 . S
C126 O111 1.237 . S
H127 C91 0.930 . S
H128 C95 0.930 . S
Co129 N130 2.034 . S
Co129 O144 2.262 . S
Co129 O148 1.958 . S
Co129 O152 1.950 . S
Co129 O153 2.057 . S
N130 Co129 2.034 . S
N130 C131 1.366 . S
N130 C133 1.332 . S
C131 N130 1.366 . S
C131 C134 1.377 . S
C131 H163 0.931 . S
N132 C133 1.346 . S
N132 C134 1.337 . S
C133 N130 1.332 . S
C133 N132 1.346 . S
C133 C167 1.361 . S
C134 C131 1.377 . S
C134 N132 1.337 . S
C134 H170 0.930 . S
Co135 N136 2.034 . S
Co135 O149 1.950 . S
Co135 O150 2.262 . S
Co135 O151 1.958 . S
Co135 O155 2.057 . S
N136 Co135 2.034 . S
N136 C139 1.366 . S
N136 C140 1.332 . S
N137 C138 1.337 . S
N137 C140 1.346 . S
C138 N137 1.337 . S
C138 C139 1.377 . S
C138 H171 0.930 . S
C139 N136 1.366 . S
C139 C138 1.377 . S
C139 H143 0.931 . S
C140 N136 1.332 . S
C140 N137 1.346 . S
C140 C157 1.361 . S
Co141 O144 2.097 . S
Co141 O145 2.065 . S
Co141 O146 2.065 . S
Co141 O147 2.042 . S
Co141 O150 2.097 . S
Co141 O154 2.042 . S
C142 O150 1.253 . S
C142 O155 1.263 . S
H143 C139 0.931 . S
O144 Co129 2.262 . S
O144 Co141 2.097 . S
O144 C168 1.253 . S
O145 Co141 2.065 . S
O145 C161 1.221 . S
O146 Co141 2.065 . S
O146 C156 1.221 . S
O147 Co141 2.042 . S
O147 C162 1.237 . S
O148 Co129 1.958 . S
O148 C162 1.278 . S
O149 Co135 1.950 . S
O149 C161 1.277 . S
O150 Co135 2.262 . S
O150 Co141 2.097 . S
O150 C142 1.253 . S
O151 Co135 1.958 . S
O151 C169 1.278 . S
O152 Co129 1.950 . S
O152 C156 1.277 . S
O153 Co129 2.057 . S
O153 C168 1.263 . S
O154 Co141 2.042 . S
O154 C169 1.237 . S
O155 Co135 2.057 . S
O155 C142 1.263 . S
C156 O146 1.221 . S
C156 O152 1.277 . S
C157 C140 1.361 . S
C157 H158 0.960 . S
C157 H159 0.961 1_556 S
C157 H160 0.961 1_556 S
H158 C157 0.960 . S
H159 C157 0.961 1_554 S
H160 C157 0.961 1_554 S
C161 O145 1.221 . S
C161 O149 1.277 . S
C162 O147 1.237 . S
C162 O148 1.278 . S
H163 C131 0.931 . S
H164 C167 0.961 . S
H165 C167 0.961 . S
H166 C167 0.960 . S
C167 C133 1.361 . S
C167 H164 0.961 . S
C167 H165 0.961 . S
C167 H166 0.960 . S
C168 O144 1.253 . S
C168 O153 1.263 . S
C169 O151 1.278 . S
C169 O154 1.237 . S
H170 C134 0.930 . S
H171 C138 0.930 . S
C172 C173 1.349 . S
C172 C174 1.327 . S
C172 H197 0.950 . S
C173 C172 1.349 . S
C173 C189 1.349 . S
C174 C172 1.327 . S
C174 C193 1.429 . S
C174 H198 0.950 . S
C175 C192 1.574 . S
C175 C194 1.368 1_655 S
C175 H199 0.949 . S
H176 C180 0.949 . S
C177 C178 1.349 . S
C177 C179 1.327 . S
C177 H200 0.950 . S
C178 C177 1.349 . S
C178 C190 1.349 1_655 S
C179 C177 1.327 . S
C179 C195 1.429 . S
C179 H201 0.950 . S
C180 H176 0.949 . S
C180 C188 1.574 . S
C180 C196 1.368 . S
H181 C189 0.950 . S
H182 C187 0.950 1_655 S
H183 C188 0.949 . S
H184 C190 0.950 . S
H185 C191 0.950 . S
H186 C192 0.949 . S
C187 H182 0.950 1_455 S
C187 C189 1.327 . S
C187 C193 1.429 . S
C188 C180 1.574 . S
C188 H183 0.949 . S
C188 C194 1.368 . S
C189 C173 1.349 . S
C189 H181 0.950 . S
C189 C187 1.327 . S
C190 C178 1.349 1_455 S
C190 H184 0.950 . S
C190 C191 1.327 . S
C191 H185 0.950 . S
C191 C190 1.327 . S
C191 C195 1.429 1_455 S
C192 C175 1.574 . S
C192 H186 0.949 . S
C192 C196 1.368 1_655 S
C193 C174 1.429 . S
C193 C187 1.429 . S
C193 C194 1.523 . S
C194 C175 1.368 1_455 S
C194 C188 1.368 . S
C194 C193 1.523 . S
C195 C179 1.429 . S
C195 C191 1.429 1_655 S
C195 C196 1.523 1_655 S
C196 C180 1.368 . S
C196 C192 1.368 1_455 S
C196 C195 1.523 1_455 S
H197 C172 0.950 . S
H198 C174 0.950 . S
H199 C175 0.949 . S
H200 C177 0.950 . S
H201 C179 0.950 . S
C202 C203 1.349 . S
C202 C204 1.327 . S
C202 H227 0.950 . S
C203 C202 1.349 . S
C203 C219 1.349 . S
C204 C202 1.327 . S
C204 C223 1.429 . S
C204 H228 0.950 . S
C205 C222 1.574 . S
C205 C224 1.368 1_655 S
C205 H229 0.949 . S
H206 C210 0.949 . S
C207 C208 1.349 . S
C207 C209 1.327 . S
C207 H230 0.950 . S
C208 C207 1.349 . S
C208 C220 1.349 1_655 S
C209 C207 1.327 . S
C209 C225 1.429 . S
C209 H231 0.950 . S
C210 H206 0.949 . S
C210 C218 1.574 . S
C210 C226 1.368 . S
H211 C219 0.950 . S
H212 C217 0.950 1_655 S
H213 C218 0.949 . S
H214 C220 0.950 . S
H215 C221 0.950 . S
H216 C222 0.949 . S
C217 H212 0.950 1_455 S
C217 C219 1.327 . S
C217 C223 1.429 . S
C218 C210 1.574 . S
C218 H213 0.949 . S
C218 C224 1.368 . S
C219 C203 1.349 . S
C219 H211 0.950 . S
C219 C217 1.327 . S
C220 C208 1.349 1_455 S
C220 H214 0.950 . S
C220 C221 1.327 . S
C221 H215 0.950 . S
C221 C220 1.327 . S
C221 C225 1.429 1_455 S
C222 C205 1.574 . S
C222 H216 0.949 . S
C222 C226 1.368 1_655 S
C223 C204 1.429 . S
C223 C217 1.429 . S
C223 C224 1.523 . S
C224 C205 1.368 1_455 S
C224 C218 1.368 . S
C224 C223 1.523 . S
C225 C209 1.429 . S
C225 C221 1.429 1_655 S
C225 C226 1.523 1_655 S
C226 C210 1.368 . S
C226 C222 1.368 1_455 S
C226 C225 1.523 1_455 S
H227 C202 0.950 . S
H228 C204 0.950 . S
H229 C205 0.949 . S
H230 C207 0.950 . S
H231 C209 0.950 . S
C232 C233 1.349 . S
C232 C234 1.327 . S
C232 H257 0.950 . S
C233 C232 1.349 . S
C233 C249 1.349 . S
C234 C232 1.327 . S
C234 C253 1.429 . S
C234 H258 0.950 . S
C235 C252 1.574 . S
C235 C254 1.368 . S
C235 H259 0.949 . S
H236 C240 0.949 . S
C237 C238 1.349 . S
C237 C239 1.327 . S
C237 H260 0.950 . S
C238 C237 1.349 . S
C238 C250 1.349 . S
C239 C237 1.327 . S
C239 C255 1.429 . S
C239 H261 0.950 . S
C240 H236 0.949 . S
C240 C248 1.574 . S
C240 C256 1.368 . S
H241 C249 0.950 . S
H242 C247 0.950 . S
H243 C248 0.949 . S
H244 C250 0.950 . S
H245 C251 0.950 . S
H246 C252 0.949 . S
C247 H242 0.950 . S
C247 C249 1.327 . S
C247 C253 1.429 . S
C248 C240 1.574 . S
C248 H243 0.949 . S
C248 C254 1.368 . S
C249 C233 1.349 . S
C249 H241 0.950 . S
C249 C247 1.327 . S
C250 C238 1.349 . S
C250 H244 0.950 . S
C250 C251 1.327 . S
C251 H245 0.950 . S
C251 C250 1.327 . S
C251 C255 1.429 . S
C252 C235 1.574 . S
C252 H246 0.949 . S
C252 C256 1.368 . S
C253 C234 1.429 . S
C253 C247 1.429 . S
C253 C254 1.523 . S
C254 C235 1.368 . S
C254 C248 1.368 . S
C254 C253 1.523 . S
C255 C239 1.429 . S
C255 C251 1.429 . S
C255 C256 1.523 . S
C256 C240 1.368 . S
C256 C252 1.368 . S
C256 C255 1.523 . S
H257 C232 0.950 . S
H258 C234 0.950 . S
H259 C235 0.949 . S
H260 C237 0.950 . S
H261 C239 0.950 . S
C262 C263 1.349 . S
C262 C264 1.327 . S
C262 H287 0.950 . S
C263 C262 1.349 . S
C263 C279 1.349 . S
C264 C262 1.327 . S
C264 C283 1.429 . S
C264 H288 0.950 . S
C265 C282 1.574 . S
C265 C284 1.368 . S
C265 H289 0.949 . S
H266 C270 0.949 . S
C267 C268 1.349 . S
C267 C269 1.327 . S
C267 H290 0.950 . S
C268 C267 1.349 . S
C268 C280 1.349 . S
C269 C267 1.327 . S
C269 C285 1.429 . S
C269 H291 0.950 . S
C270 H266 0.949 . S
C270 C278 1.574 . S
C270 C286 1.368 . S
H271 C279 0.950 . S
H272 C277 0.950 . S
H273 C278 0.949 . S
H274 C280 0.950 . S
H275 C281 0.950 . S
H276 C282 0.949 . S
C277 H272 0.950 . S
C277 C279 1.327 . S
C277 C283 1.429 . S
C278 C270 1.574 . S
C278 H273 0.949 . S
C278 C284 1.368 . S
C279 C263 1.349 . S
C279 H271 0.950 . S
C279 C277 1.327 . S
C280 C268 1.349 . S
C280 H274 0.950 . S
C280 C281 1.327 . S
C281 H275 0.950 . S
C281 C280 1.327 . S
C281 C285 1.429 . S
C282 C265 1.574 . S
C282 H276 0.949 . S
C282 C286 1.368 . S
C283 C264 1.429 . S
C283 C277 1.429 . S
C283 C284 1.523 . S
C284 C265 1.368 . S
C284 C278 1.368 . S
C284 C283 1.523 . S
C285 C269 1.429 . S
C285 C281 1.429 . S
C285 C286 1.523 . S
C286 C270 1.368 . S
C286 C282 1.368 . S
C286 C285 1.523 . S
H287 C262 0.950 . S
H288 C264 0.950 . S
H289 C265 0.949 . S
H290 C267 0.950 . S
H291 C269 0.950 . S
C292 C293 1.349 . S
C292 C294 1.327 . S
C292 H317 0.950 . S
C293 C292 1.349 . S
C293 C309 1.349 . S
C294 C292 1.327 . S
C294 C313 1.429 . S
C294 H318 0.950 . S
C295 C312 1.574 . S
C295 C314 1.368 . S
C295 H319 0.949 . S
H296 C300 0.949 . S
C297 C298 1.349 . S
C297 C299 1.327 . S
C297 H320 0.950 . S
C298 C297 1.349 . S
C298 C310 1.349 . S
C299 C297 1.327 . S
C299 C315 1.429 . S
C299 H321 0.950 . S
C300 H296 0.949 . S
C300 C308 1.574 . S
C300 C316 1.368 . S
H301 C309 0.950 . S
H302 C307 0.950 . S
H303 C308 0.949 . S
H304 C310 0.950 . S
H305 C311 0.950 . S
H306 C312 0.949 . S
C307 H302 0.950 . S
C307 C309 1.327 . S
C307 C313 1.429 . S
C308 C300 1.574 . S
C308 H303 0.949 . S
C308 C314 1.368 . S
C309 C293 1.349 . S
C309 H301 0.950 . S
C309 C307 1.327 . S
C310 C298 1.349 . S
C310 H304 0.950 . S
C310 C311 1.327 . S
C311 H305 0.950 . S
C311 C310 1.327 . S
C311 C315 1.429 . S
C312 C295 1.574 . S
C312 H306 0.949 . S
C312 C316 1.368 . S
C313 C294 1.429 . S
C313 C307 1.429 . S
C313 C314 1.523 . S
C314 C295 1.368 . S
C314 C308 1.368 . S
C314 C313 1.523 . S
C315 C299 1.429 . S
C315 C311 1.429 . S
C315 C316 1.523 . S
C316 C300 1.368 . S
C316 C312 1.368 . S
C316 C315 1.523 . S
H317 C292 0.950 . S
H318 C294 0.950 . S
H319 C295 0.949 . S
H320 C297 0.950 . S
H321 C299 0.950 . S
C322 C323 1.349 . S
C322 C324 1.327 . S
C322 H347 0.950 . S
C323 C322 1.349 . S
C323 C339 1.349 . S
C324 C322 1.327 . S
C324 C343 1.429 . S
C324 H348 0.950 . S
C325 C342 1.574 . S
C325 C344 1.368 . S
C325 H349 0.949 . S
H326 C330 0.949 . S
C327 C328 1.349 . S
C327 C329 1.327 . S
C327 H350 0.950 . S
C328 C327 1.349 . S
C328 C340 1.349 . S
C329 C327 1.327 . S
C329 C345 1.429 . S
C329 H351 0.950 . S
C330 H326 0.949 . S
C330 C338 1.574 . S
C330 C346 1.368 . S
H331 C339 0.950 . S
H332 C337 0.950 . S
H333 C338 0.949 . S
H334 C340 0.950 . S
H335 C341 0.950 . S
H336 C342 0.949 . S
C337 H332 0.950 . S
C337 C339 1.327 . S
C337 C343 1.429 . S
C338 C330 1.574 . S
C338 H333 0.949 . S
C338 C344 1.368 . S
C339 C323 1.349 . S
C339 H331 0.950 . S
C339 C337 1.327 . S
C340 C328 1.349 . S
C340 H334 0.950 . S
C340 C341 1.327 . S
C341 H335 0.950 . S
C341 C340 1.327 . S
C341 C345 1.429 . S
C342 C325 1.574 . S
C342 H336 0.949 . S
C342 C346 1.368 . S
C343 C324 1.429 . S
C343 C337 1.429 . S
C343 C344 1.523 . S
C344 C325 1.368 . S
C344 C338 1.368 . S
C344 C343 1.523 . S
C345 C329 1.429 . S
C345 C341 1.429 . S
C345 C346 1.523 . S
C346 C330 1.368 . S
C346 C342 1.368 . S
C346 C345 1.523 . S
H347 C322 0.950 . S
H348 C324 0.950 . S
H349 C325 0.949 . S
H350 C327 0.950 . S
H351 C329 0.950 . S
C352 C353 1.349 . S
C352 C354 1.327 . S
C352 H377 0.950 . S
C353 C352 1.349 . S
C353 C369 1.349 . S
C354 C352 1.327 . S
C354 C373 1.429 . S
C354 H378 0.950 . S
C355 C372 1.574 1_655 S
C355 C374 1.368 . S
C355 H379 0.949 . S
H356 C360 0.949 . S
C357 C358 1.349 . S
C357 C359 1.327 . S
C357 H380 0.950 . S
C358 C357 1.349 . S
C358 C370 1.349 . S
C359 C357 1.327 . S
C359 C375 1.429 . S
C359 H381 0.950 . S
C360 H356 0.949 . S
C360 C368 1.574 1_455 S
C360 C376 1.368 . S
H361 C369 0.950 . S
H362 C367 0.950 . S
H363 C368 0.949 . S
H364 C370 0.950 . S
H365 C371 0.950 . S
H366 C372 0.949 . S
C367 H362 0.950 . S
C367 C369 1.327 . S
C367 C373 1.429 . S
C368 C360 1.574 1_655 S
C368 H363 0.949 . S
C368 C374 1.368 . S
C369 C353 1.349 . S
C369 H361 0.950 . S
C369 C367 1.327 . S
C370 C358 1.349 . S
C370 H364 0.950 . S
C370 C371 1.327 . S
C371 H365 0.950 . S
C371 C370 1.327 . S
C371 C375 1.429 . S
C372 C355 1.574 1_455 S
C372 H366 0.949 . S
C372 C376 1.368 . S
C373 C354 1.429 . S
C373 C367 1.429 . S
C373 C374 1.523 . S
C374 C355 1.368 . S
C374 C368 1.368 . S
C374 C373 1.523 . S
C375 C359 1.429 . S
C375 C371 1.429 . S
C375 C376 1.523 . S
C376 C360 1.368 . S
C376 C372 1.368 . S
C376 C375 1.523 . S
H377 C352 0.950 . S
H378 C354 0.950 . S
H379 C355 0.949 . S
H380 C357 0.950 . S
H381 C359 0.950 . S
C382 C383 1.349 . S
C382 C384 1.327 . S
C382 H407 0.950 . S
C383 C382 1.349 . S
C383 C399 1.349 . S
C384 C382 1.327 . S
C384 C403 1.429 . S
C384 H408 0.950 . S
C385 C402 1.574 1_655 S
C385 C404 1.368 . S
C385 H409 0.949 . S
H386 C390 0.949 . S
C387 C388 1.349 . S
C387 C389 1.327 . S
C387 H410 0.950 . S
C388 C387 1.349 . S
C388 C400 1.349 . S
C389 C387 1.327 . S
C389 C405 1.429 . S
C389 H411 0.950 . S
C390 H386 0.949 . S
C390 C398 1.574 1_455 S
C390 C406 1.368 . S
H391 C399 0.950 . S
H392 C397 0.950 . S
H393 C398 0.949 . S
H394 C400 0.950 . S
H395 C401 0.950 . S
H396 C402 0.949 . S
C397 H392 0.950 . S
C397 C399 1.327 . S
C397 C403 1.429 . S
C398 C390 1.574 1_655 S
C398 H393 0.949 . S
C398 C404 1.368 . S
C399 C383 1.349 . S
C399 H391 0.950 . S
C399 C397 1.327 . S
C400 C388 1.349 . S
C400 H394 0.950 . S
C400 C401 1.327 . S
C401 H395 0.950 . S
C401 C400 1.327 . S
C401 C405 1.429 . S
C402 C385 1.574 1_455 S
C402 H396 0.949 . S
C402 C406 1.368 . S
C403 C384 1.429 . S
C403 C397 1.429 . S
C403 C404 1.523 . S
C404 C385 1.368 . S
C404 C398 1.368 . S
C404 C403 1.523 . S
C405 C389 1.429 . S
C405 C401 1.429 . S
C405 C406 1.523 . S
C406 C390 1.368 . S
C406 C402 1.368 . S
C406 C405 1.523 . S
H407 C382 0.950 . S
H408 C384 0.950 . S
H409 C385 0.949 . S
H410 C387 0.950 . S
H411 C389 0.950 . S
C412 C413 1.349 . S
C412 C414 1.327 . S
C412 H437 0.950 . S
C413 C412 1.349 . S
C413 C429 1.349 . S
C414 C412 1.327 . S
C414 C433 1.429 . S
C414 H438 0.950 . S
C415 C432 1.574 . S
C415 C434 1.368 . S
C415 H439 0.949 . S
H416 C420 0.949 . S
C417 C418 1.349 . S
C417 C419 1.327 . S
C417 H440 0.950 . S
C418 C417 1.349 . S
C418 C430 1.349 . S
C419 C417 1.327 . S
C419 C435 1.429 . S
C419 H441 0.950 . S
C420 H416 0.949 . S
C420 C428 1.574 . S
C420 C436 1.368 . S
H421 C429 0.950 . S
H422 C427 0.950 . S
H423 C428 0.949 . S
H424 C430 0.950 . S
H425 C431 0.950 . S
H426 C432 0.949 . S
C427 H422 0.950 . S
C427 C429 1.327 . S
C427 C433 1.429 . S
C428 C420 1.574 . S
C428 H423 0.949 . S
C428 C434 1.368 . S
C429 C413 1.349 . S
C429 H421 0.950 . S
C429 C427 1.327 . S
C430 C418 1.349 . S
C430 H424 0.950 . S
C430 C431 1.327 . S
C431 H425 0.950 . S
C431 C430 1.327 . S
C431 C435 1.429 . S
C432 C415 1.574 . S
C432 H426 0.949 . S
C432 C436 1.368 . S
C433 C414 1.429 . S
C433 C427 1.429 . S
C433 C434 1.523 . S
C434 C415 1.368 . S
C434 C428 1.368 . S
C434 C433 1.523 . S
C435 C419 1.429 . S
C435 C431 1.429 . S
C435 C436 1.523 . S
C436 C420 1.368 . S
C436 C432 1.368 . S
C436 C435 1.523 . S
H437 C412 0.950 . S
H438 C414 0.950 . S
H439 C415 0.949 . S
H440 C417 0.950 . S
H441 C419 0.950 . S
C442 C443 1.349 . S
C442 C444 1.327 . S
C442 H467 0.950 . S
C443 C442 1.349 . S
C443 C459 1.349 . S
C444 C442 1.327 . S
C444 C463 1.429 . S
C444 H468 0.950 . S
C445 C462 1.574 . S
C445 C464 1.368 1_554 S
C445 H469 0.949 . S
H446 C450 0.949 . S
C447 C448 1.349 . S
C447 C449 1.327 . S
C447 H470 0.950 . S
C448 C447 1.349 . S
C448 C460 1.349 . S
C449 C447 1.327 . S
C449 C465 1.429 . S
C449 H471 0.950 . S
C450 H446 0.949 . S
C450 C458 1.574 . S
C450 C466 1.368 1_556 S
H451 C459 0.950 . S
H452 C457 0.950 . S
H453 C458 0.949 . S
H454 C460 0.950 . S
H455 C461 0.950 . S
H456 C462 0.949 . S
C457 H452 0.950 . S
C457 C459 1.327 . S
C457 C463 1.429 . S
C458 C450 1.574 . S
C458 H453 0.949 . S
C458 C464 1.368 . S
C459 C443 1.349 . S
C459 H451 0.950 . S
C459 C457 1.327 . S
C460 C448 1.349 . S
C460 H454 0.950 . S
C460 C461 1.327 . S
C461 H455 0.950 . S
C461 C460 1.327 . S
C461 C465 1.429 . S
C462 C445 1.574 . S
C462 H456 0.949 . S
C462 C466 1.368 . S
C463 C444 1.429 . S
C463 C457 1.429 . S
C463 C464 1.523 . S
C464 C445 1.368 1_556 S
C464 C458 1.368 . S
C464 C463 1.523 . S
C465 C449 1.429 . S
C465 C461 1.429 . S
C465 C466 1.523 . S
C466 C450 1.368 1_554 S
C466 C462 1.368 . S
C466 C465 1.523 . S
H467 C442 0.950 . S
H468 C444 0.950 . S
H469 C445 0.949 . S
H470 C447 0.950 . S
H471 C449 0.950 . S
C472 C473 1.349 . S
C472 C474 1.327 . S
C472 H497 0.950 . S
C473 C472 1.349 . S
C473 C489 1.349 . S
C474 C472 1.327 . S
C474 C493 1.429 . S
C474 H498 0.950 . S
C475 C492 1.574 . S
C475 C494 1.368 . S
C475 H499 0.949 . S
H476 C480 0.949 . S
C477 C478 1.349 . S
C477 C479 1.327 . S
C477 H500 0.950 . S
C478 C477 1.349 . S
C478 C490 1.349 . S
C479 C477 1.327 . S
C479 C495 1.429 . S
C479 H501 0.950 . S
C480 H476 0.949 . S
C480 C488 1.574 . S
C480 C496 1.368 . S
H481 C489 0.950 . S
H482 C487 0.950 . S
H483 C488 0.949 . S
H484 C490 0.950 . S
H485 C491 0.950 . S
H486 C492 0.949 . S
C487 H482 0.950 . S
C487 C489 1.327 . S
C487 C493 1.429 . S
C488 C480 1.574 . S
C488 H483 0.949 . S
C488 C494 1.368 . S
C489 C473 1.349 . S
C489 H481 0.950 . S
C489 C487 1.327 . S
C490 C478 1.349 . S
C490 H484 0.950 . S
C490 C491 1.327 . S
C491 H485 0.950 . S
C491 C490 1.327 . S
C491 C495 1.429 . S
C492 C475 1.574 . S
C492 H486 0.949 . S
C492 C496 1.368 . S
C493 C474 1.429 . S
C493 C487 1.429 . S
C493 C494 1.523 . S
C494 C475 1.368 . S
C494 C488 1.368 . S
C494 C493 1.523 . S
C495 C479 1.429 . S
C495 C491 1.429 . S
C495 C496 1.523 . S
C496 C480 1.368 . S
C496 C492 1.368 . S
C496 C495 1.523 . S
H497 C472 0.950 . S
H498 C474 0.950 . S
H499 C475 0.949 . S
H500 C477 0.950 . S
H501 C479 0.950 . S
C502 C503 1.349 . S
C502 C504 1.327 . S
C502 H527 0.950 . S
C503 C502 1.349 . S
C503 C519 1.349 . S
C504 C502 1.327 . S
C504 C523 1.429 . S
C504 H528 0.950 . S
C505 C522 1.574 . S
C505 C524 1.368 1_556 S
C505 H529 0.949 . S
H506 C510 0.949 . S
C507 C508 1.349 . S
C507 C509 1.327 . S
C507 H530 0.950 . S
C508 C507 1.349 . S
C508 C520 1.349 . S
C509 C507 1.327 . S
C509 C525 1.429 . S
C509 H531 0.950 . S
C510 H506 0.949 . S
C510 C518 1.574 . S
C510 C526 1.368 1_554 S
H511 C519 0.950 . S
H512 C517 0.950 . S
H513 C518 0.949 . S
H514 C520 0.950 . S
H515 C521 0.950 . S
H516 C522 0.949 . S
C517 H512 0.950 . S
C517 C519 1.327 . S
C517 C523 1.429 . S
C518 C510 1.574 . S
C518 H513 0.949 . S
C518 C524 1.368 . S
C519 C503 1.349 . S
C519 H511 0.950 . S
C519 C517 1.327 . S
C520 C508 1.349 . S
C520 H514 0.950 . S
C520 C521 1.327 . S
C521 H515 0.950 . S
C521 C520 1.327 . S
C521 C525 1.429 . S
C522 C505 1.574 . S
C522 H516 0.949 . S
C522 C526 1.368 . S
C523 C504 1.429 . S
C523 C517 1.429 . S
C523 C524 1.523 . S
C524 C505 1.368 1_554 S
C524 C518 1.368 . S
C524 C523 1.523 . S
C525 C509 1.429 . S
C525 C521 1.429 . S
C525 C526 1.523 . S
C526 C510 1.368 1_556 S
C526 C522 1.368 . S
C526 C525 1.523 . S
H527 C502 0.950 . S
H528 C504 0.950 . S
H529 C505 0.949 . S
H530 C507 0.950 . S
H531 C509 0.950 . S
C532 C533 1.349 . S
C532 C534 1.327 . S
C532 H557 0.950 . S
C533 C532 1.349 . S
C533 C549 1.349 . S
C534 C532 1.327 . S
C534 C553 1.429 . S
C534 H558 0.950 . S
C535 C552 1.569 1_554 S
C535 C554 1.373 1_455 S
C535 H559 0.949 . S
H536 C540 0.949 . S
C537 C538 1.349 . S
C537 C539 1.327 . S
C537 H560 0.950 . S
C538 C537 1.349 . S
C538 C550 1.349 . S
C539 C537 1.327 . S
C539 C555 1.429 . S
C539 H561 0.950 . S
C540 H536 0.949 . S
C540 C548 1.574 1_556 S
C540 C556 1.368 1_655 S
H541 C549 0.950 . S
H542 C547 0.950 1_455 S
H543 C548 0.949 . S
H544 C550 0.950 . S
H545 C551 0.950 1_655 S
H546 C552 0.949 . S
C547 H542 0.950 1_655 S
C547 C549 1.327 . S
C547 C553 1.429 . S
C548 C540 1.574 1_554 S
C548 H543 0.949 . S
C548 C554 1.368 1_565 S
C549 C533 1.349 . S
C549 H541 0.950 . S
C549 C547 1.327 . S
C550 C538 1.349 . S
C550 H544 0.950 . S
C550 C551 1.327 . S
C551 H545 0.950 1_455 S
C551 C550 1.327 . S
C551 C555 1.429 . S
C552 C535 1.569 1_556 S
C552 H546 0.949 . S
C552 C556 1.368 1_545 S
C553 C534 1.429 . S
C553 C547 1.429 . S
C553 C554 1.523 . S
C554 C535 1.373 1_655 S
C554 C548 1.368 1_545 S
C554 C553 1.523 . S
C555 C539 1.429 . S
C555 C551 1.429 . S
C555 C556 1.523 . S
C556 C540 1.368 1_455 S
C556 C552 1.368 1_565 S
C556 C555 1.523 . S
H557 C532 0.950 . S
H558 C534 0.950 . S
H559 C535 0.949 . S
H560 C537 0.950 . S
H561 C539 0.950 . S
C562 C563 1.349 1_655 S
C562 C564 1.327 . S
C562 H587 0.950 . S
C563 C562 1.349 1_455 S
C563 C579 1.349 . S
C564 C562 1.327 . S
C564 C583 1.429 1_655 S
C564 H588 0.950 . S
C565 C582 1.574 1_545 S
C565 C584 1.368 . S
C565 H589 0.949 . S
H566 C570 0.949 . S
C567 C568 1.349 1_455 S
C567 C569 1.327 . S
C567 H590 0.950 . S
C568 C567 1.349 1_655 S
C568 C580 1.349 . S
C569 C567 1.327 . S
C569 C585 1.429 1_455 S
C569 H591 0.950 . S
C570 H566 0.949 . S
C570 C578 1.574 1_565 S
C570 C586 1.368 . S
H571 C579 0.950 . S
H572 C577 0.950 . S
H573 C578 0.949 . S
H574 C580 0.950 . S
H575 C581 0.950 . S
H576 C582 0.949 . S
C577 H572 0.950 . S
C577 C579 1.327 . S
C577 C583 1.429 . S
C578 C570 1.574 1_545 S
C578 H573 0.949 . S
C578 C584 1.368 1_655 S
C579 C563 1.349 . S
C579 H571 0.950 . S
C579 C577 1.327 . S
C580 C568 1.349 . S
C580 H574 0.950 . S
C580 C581 1.327 . S
C581 H575 0.950 . S
C581 C580 1.327 . S
C581 C585 1.429 . S
C582 C565 1.574 1_565 S
C582 H576 0.949 . S
C582 C586 1.368 1_455 S
C583 C564 1.429 1_455 S
C583 C577 1.429 . S
C583 C584 1.523 . S
C584 C565 1.368 . S
C584 C578 1.368 1_455 S
C584 C583 1.523 . S
C585 C569 1.429 1_655 S
C585 C581 1.429 . S
C585 C586 1.523 . S
C586 C570 1.368 . S
C586 C582 1.368 1_655 S
C586 C585 1.523 . S
H587 C562 0.950 . S
H588 C564 0.950 . S
H589 C565 0.949 . S
H590 C567 0.950 . S
H591 C569 0.950 . S
C592 C593 1.349 . S
C592 C594 1.327 . S
C592 H617 0.950 . S
C593 C592 1.349 . S
C593 C609 1.349 . S
C594 C592 1.327 . S
C594 C613 1.429 . S
C594 H618 0.950 . S
C595 C612 1.574 . S
C595 C614 1.368 . S
C595 H619 0.949 . S
H596 C600 0.949 . S
C597 C598 1.349 . S
C597 C599 1.327 . S
C597 H620 0.950 . S
C598 C597 1.349 . S
C598 C610 1.349 . S
C599 C597 1.327 . S
C599 C615 1.429 . S
C599 H621 0.950 . S
C600 H596 0.949 . S
C600 C608 1.574 . S
C600 C616 1.368 . S
H601 C609 0.950 . S
H602 C607 0.950 . S
H603 C608 0.949 . S
H604 C610 0.950 . S
H605 C611 0.950 . S
H606 C612 0.949 . S
C607 H602 0.950 . S
C607 C609 1.327 . S
C607 C613 1.429 . S
C608 C600 1.574 . S
C608 H603 0.949 . S
C608 C614 1.368 1_556 S
C609 C593 1.349 . S
C609 H601 0.950 . S
C609 C607 1.327 . S
C610 C598 1.349 . S
C610 H604 0.950 . S
C610 C611 1.327 . S
C611 H605 0.950 . S
C611 C610 1.327 . S
C611 C615 1.429 . S
C612 C595 1.574 . S
C612 H606 0.949 . S
C612 C616 1.368 1_554 S
C613 C594 1.429 . S
C613 C607 1.429 . S
C613 C614 1.523 . S
C614 C595 1.368 . S
C614 C608 1.368 1_554 S
C614 C613 1.523 . S
C615 C599 1.429 . S
C615 C611 1.429 . S
C615 C616 1.523 . S
C616 C600 1.368 . S
C616 C612 1.368 1_556 S
C616 C615 1.523 . S
H617 C592 0.950 . S
H618 C594 0.950 . S
H619 C595 0.949 . S
H620 C597 0.950 . S
H621 C599 0.950 . S
C622 C623 1.349 . S
C622 C624 1.327 . S
C622 H647 0.950 . S
C623 C622 1.349 . S
C623 C639 1.349 . S
C624 C622 1.327 . S
C624 C643 1.429 . S
C624 H648 0.950 . S
C625 C642 1.574 . S
C625 C644 1.368 . S
C625 H649 0.949 . S
H626 C630 0.949 . S
C627 C628 1.349 . S
C627 C629 1.327 . S
C627 H650 0.950 . S
C628 C627 1.349 . S
C628 C640 1.349 . S
C629 C627 1.327 . S
C629 C645 1.429 . S
C629 H651 0.950 . S
C630 H626 0.949 . S
C630 C638 1.574 . S
C630 C646 1.368 . S
H631 C639 0.950 . S
H632 C637 0.950 . S
H633 C638 0.949 . S
H634 C640 0.950 . S
H635 C641 0.950 . S
H636 C642 0.949 . S
C637 H632 0.950 . S
C637 C639 1.327 . S
C637 C643 1.429 . S
C638 C630 1.574 . S
C638 H633 0.949 . S
C638 C644 1.368 . S
C639 C623 1.349 . S
C639 H631 0.950 . S
C639 C637 1.327 . S
C640 C628 1.349 . S
C640 H634 0.950 . S
C640 C641 1.327 . S
C641 H635 0.950 . S
C641 C640 1.327 . S
C641 C645 1.429 . S
C642 C625 1.574 . S
C642 H636 0.949 . S
C642 C646 1.368 . S
C643 C624 1.429 . S
C643 C637 1.429 . S
C643 C644 1.523 . S
C644 C625 1.368 . S
C644 C638 1.368 . S
C644 C643 1.523 . S
C645 C629 1.429 . S
C645 C641 1.429 . S
C645 C646 1.523 . S
C646 C630 1.368 . S
C646 C642 1.368 . S
C646 C645 1.523 . S
H647 C622 0.950 . S
H648 C624 0.950 . S
H649 C625 0.949 . S
H650 C627 0.950 . S
H651 C629 0.950 . S
C173 N3 1.323 1_556 S
C178 N8 1.369 . S
C203 N46 1.331 . S
C208 N51 1.378 1_554 S
C233 N89 1.323 1_556 S
C238 N94 1.369 . S
C263 N137 1.378 1_554 S
C268 N132 1.331 . S
C293 C40 1.085 . S
C298 C27 1.086 . S
C323 C83 1.085 . S
C328 C70 1.086 . S
C353 C113 1.086 . S
C358 C126 1.085 . S
C383 C156 1.086 . S
C388 C169 1.085 . S
C413 C162 1.404 . S
C418 C32 1.411 . S
C443 C142 1.467 . S
C448 C39 1.462 . S
C473 C118 1.411 . S
C478 C76 1.404 . S
C503 C125 1.462 . S
C508 C56 1.467 . S
C533 C33 1.630 . S
C538 C75 1.606 . S
C563 C13 1.704 . S
C568 C82 1.731 . S
C593 C119 1.630 . S
C598 C161 1.606 . S
C623 C168 1.731 . S
C628 C99 1.704 . S
