# Generated by pormake.
# Topology unb, (4)-cn, num edge types: 1
# Building blocks:
#     Node 0, Type 0, BuildingBlock: ICAMEG_clean_sbu_1, # of connection points: 4
#     Node 1, Type 0, BuildingBlock: ICAMEG_clean_sbu_1, # of connection points: 4
#     Node 2, Type 0, BuildingBlock: ICAMEG_clean_sbu_1, # of connection points: 4
#     Node 3, Type 0, BuildingBlock: ICAMEG_clean_sbu_1, # of connection points: 4
#     Node 4, Type 0, BuildingBlock: ICAMEG_clean_sbu_1, # of connection points: 4
#     Node 5, Type 0, BuildingBlock: ICAMEG_clean_sbu_1, # of connection points: 4
#     Node 6, Type 0, BuildingBlock: ICAMEG_clean_sbu_1, # of connection points: 4
#     Node 7, Type 0, BuildingBlock: ICAMEG_clean_sbu_1, # of connection points: 4
#     Node 8, Type 0, BuildingBlock: ICAMEG_clean_sbu_1, # of connection points: 4
#     Node 9, Type 0, BuildingBlock: ICAMEG_clean_sbu_1, # of connection points: 4
#     Node 10, Type 0, BuildingBlock: ICAMEG_clean_sbu_1, # of connection points: 4
#     Node 11, Type 0, BuildingBlock: ICAMEG_clean_sbu_1, # of connection points: 4
#     Node 12, Type 0, BuildingBlock: ICAMEG_clean_sbu_1, # of connection points: 4
#     Node 13, Type 0, BuildingBlock: ICAMEG_clean_sbu_1, # of connection points: 4
#     Node 14, Type 0, BuildingBlock: ICAMEG_clean_sbu_1, # of connection points: 4
#     Node 15, Type 0, BuildingBlock: ICAMEG_clean_sbu_1, # of connection points: 4
#     Node 16, Type 0, BuildingBlock: ICAMEG_clean_sbu_1, # of connection points: 4
#     Node 17, Type 0, BuildingBlock: ICAMEG_clean_sbu_1, # of connection points: 4
#     Edge 18, Type (0, 0), BuildingBlock: XIVTED_clean_linker_0, # of connection points: 2
#     Edge 19, Type (0, 0), BuildingBlock: XIVTED_clean_linker_0, # of connection points: 2
#     Edge 20, Type (0, 0), BuildingBlock: XIVTED_clean_linker_0, # of connection points: 2
#     Edge 21, Type (0, 0), BuildingBlock: XIVTED_clean_linker_0, # of connection points: 2
#     Edge 22, Type (0, 0), BuildingBlock: XIVTED_clean_linker_0, # of connection points: 2
#     Edge 23, Type (0, 0), BuildingBlock: XIVTED_clean_linker_0, # of connection points: 2
#     Edge 24, Type (0, 0), BuildingBlock: XIVTED_clean_linker_0, # of connection points: 2
#     Edge 25, Type (0, 0), BuildingBlock: XIVTED_clean_linker_0, # of connection points: 2
#     Edge 26, Type (0, 0), BuildingBlock: XIVTED_clean_linker_0, # of connection points: 2
#     Edge 27, Type (0, 0), BuildingBlock: XIVTED_clean_linker_0, # of connection points: 2
#     Edge 28, Type (0, 0), BuildingBlock: XIVTED_clean_linker_0, # of connection points: 2
#     Edge 29, Type (0, 0), BuildingBlock: XIVTED_clean_linker_0, # of connection points: 2
#     Edge 30, Type (0, 0), BuildingBlock: XIVTED_clean_linker_0, # of connection points: 2
#     Edge 31, Type (0, 0), BuildingBlock: XIVTED_clean_linker_0, # of connection points: 2
#     Edge 32, Type (0, 0), BuildingBlock: XIVTED_clean_linker_0, # of connection points: 2
#     Edge 33, Type (0, 0), BuildingBlock: XIVTED_clean_linker_0, # of connection points: 2
#     Edge 34, Type (0, 0), BuildingBlock: XIVTED_clean_linker_0, # of connection points: 2
#     Edge 35, Type (0, 0), BuildingBlock: XIVTED_clean_linker_0, # of connection points: 2
#     Edge 36, Type (0, 0), BuildingBlock: XIVTED_clean_linker_0, # of connection points: 2
#     Edge 37, Type (0, 0), BuildingBlock: XIVTED_clean_linker_0, # of connection points: 2
#     Edge 38, Type (0, 0), BuildingBlock: XIVTED_clean_linker_0, # of connection points: 2
#     Edge 39, Type (0, 0), BuildingBlock: XIVTED_clean_linker_0, # of connection points: 2
#     Edge 40, Type (0, 0), BuildingBlock: XIVTED_clean_linker_0, # of connection points: 2
#     Edge 41, Type (0, 0), BuildingBlock: XIVTED_clean_linker_0, # of connection points: 2
#     Edge 42, Type (0, 0), BuildingBlock: XIVTED_clean_linker_0, # of connection points: 2
#     Edge 43, Type (0, 0), BuildingBlock: XIVTED_clean_linker_0, # of connection points: 2
#     Edge 44, Type (0, 0), BuildingBlock: XIVTED_clean_linker_0, # of connection points: 2
#     Edge 45, Type (0, 0), BuildingBlock: XIVTED_clean_linker_0, # of connection points: 2
#     Edge 46, Type (0, 0), BuildingBlock: XIVTED_clean_linker_0, # of connection points: 2
#     Edge 47, Type (0, 0), BuildingBlock: XIVTED_clean_linker_0, # of connection points: 2
#     Edge 48, Type (0, 0), BuildingBlock: XIVTED_clean_linker_0, # of connection points: 2
#     Edge 49, Type (0, 0), BuildingBlock: XIVTED_clean_linker_0, # of connection points: 2
#     Edge 50, Type (0, 0), BuildingBlock: XIVTED_clean_linker_0, # of connection points: 2
#     Edge 51, Type (0, 0), BuildingBlock: XIVTED_clean_linker_0, # of connection points: 2
#     Edge 52, Type (0, 0), BuildingBlock: XIVTED_clean_linker_0, # of connection points: 2
#     Edge 53, Type (0, 0), BuildingBlock: XIVTED_clean_linker_0, # of connection points: 2
# Relax obj value: 0.094
# Max RMSD: 0.094
# Mean RMSD: 0.093
data_MOF--net-unb--node1-ICAMEG_clean_sbu_1--edge1-XIVTED_clean_linker_0
_symmetry_space_group_name_H-M    P1
_symmetry_Int_Tables_number       1
_symmetry_cell_setting            triclinic
loop_
_symmetry_equiv_pos_as_xyz
'x, y, z'
_cell_length_a     63.638558
_cell_length_b     63.603537
_cell_length_c     29.616997
_cell_angle_alpha  90.037015
_cell_angle_beta   90.012634
_cell_angle_gamma 120.01061
loop_
_atom_site_label
_atom_site_type_symbol
_atom_site_fract_x
_atom_site_fract_y
_atom_site_fract_z
_atom_type_partial_charge
Co0 Co 0.17568 0.31474 0.08154 0.0
Co1 Co 0.13071 0.25464 0.06555 0.0
O2 O 0.14493 0.28565 0.09808 0.0
C3 C 0.18421 0.30532 0.17625 0.0
O4 O 0.17424 0.28215 0.16634 0.0
C5 C 0.08994 0.26468 0.05251 0.0
O6 O 0.10547 0.28674 0.03881 0.0
O7 O 0.13648 0.27123 0.00574 0.0
O8 O 0.16553 0.3101 0.01752 0.0
H9 H 0.12819 0.19796 0.94463 0.0
H10 H 0.14417 0.3168 0.15312 0.0
O11 O 0.18634 0.32048 0.14609 0.0
H12 H 0.15179 0.37657 0.03884 0.0
H13 H 0.24383 0.40086 0.10149 0.0
H14 H 0.21076 0.32741 0.00646 0.0
H15 H 0.17289 0.35325 0.02891 0.0
H16 H 0.20537 0.36419 0.12174 0.0
O17 O 0.09751 0.25091 0.06781 0.0
H18 H 0.14561 0.23668 0.98632 0.0
H19 H 0.08565 0.20649 0.07634 0.0
H20 H 0.24917 0.36376 0.98473 0.0
H21 H 0.12297 0.33992 0.16471 0.0
H22 H 0.26595 0.40082 0.03243 0.0
H23 H 0.12665 0.37001 0.10723 0.0
O24 O 0.19265 0.29556 0.07177 0.0
H25 H 0.10293 0.23865 0.22691 0.0
H26 H 0.14005 0.21652 0.10318 0.0
H27 H 0.13419 0.19688 0.17752 0.0
H28 H 0.11547 0.20792 0.24001 0.0
H29 H 0.10937 0.258 0.15207 0.0
H30 H 0.06745 0.16753 0.03533 0.0
H31 H 0.08881 0.16306 0.96906 0.0
O32 O 0.16286 0.25695 0.06204 0.0
C33 C 0.15048 0.29294 0.99231 0.0
C34 C 0.11872 0.19968 0.97349 0.0
C35 C 0.08461 0.18261 0.02435 0.0
N36 N 0.11668 0.22385 0.03377 0.0
C37 C 0.12852 0.22154 0.99728 0.0
C38 C 0.09496 0.20475 0.04733 0.0
C39 C 0.09662 0.18011 0.98719 0.0
C40 C 0.14595 0.32994 0.12807 0.0
N41 N 0.15971 0.33363 0.09032 0.0
C42 C 0.13387 0.34295 0.13477 0.0
C43 C 0.13593 0.35981 0.10249 0.0
C44 C 0.15001 0.36349 0.06409 0.0
C45 C 0.16182 0.35015 0.05854 0.0
C46 C 0.2367 0.38482 0.08043 0.0
C47 C 0.2179 0.3435 0.02729 0.0
C48 C 0.21497 0.36397 0.09182 0.0
N49 N 0.20579 0.34369 0.06525 0.0
C50 C 0.23968 0.36401 0.01486 0.0
C51 C 0.2491 0.38479 0.04166 0.0
C52 C 0.18516 0.27315 0.0641 0.0
C53 C 0.11109 0.23368 0.19994 0.0
C54 C 0.13205 0.22152 0.13029 0.0
C55 C 0.12868 0.21027 0.17226 0.0
C56 C 0.11816 0.21646 0.20728 0.0
N57 N 0.1251 0.23841 0.12338 0.0
C58 C 0.11471 0.24452 0.1575 0.0
Co59 Co 0.74275 0.87884 0.02836 0.0
Co60 Co 0.68754 0.868 0.06691 0.0
O61 O 0.71697 0.86563 0.074 0.0
C62 C 0.73641 0.82908 0.0328 0.0
O63 O 0.71315 0.81976 0.02456 0.0
C64 C 0.70136 0.88472 0.16251 0.0
O65 O 0.72396 0.89927 0.15033 0.0
O66 O 0.70761 0.90407 0.06028 0.0
O67 O 0.73695 0.90635 0.01507 0.0
H68 H 0.63584 0.89783 0.99464 0.0
H69 H 0.75366 0.86813 0.11974 0.0
O70 O 0.74983 0.85185 0.03929 0.0
H71 H 0.80943 0.95579 0.09763 0.0
H72 H 0.82502 0.90177 0.96552 0.0
H73 H 0.74727 0.89869 0.93597 0.0
H74 H 0.78091 0.93106 0.03747 0.0
H75 H 0.79284 0.8862 0.02332 0.0
O76 O 0.68554 0.87135 0.13353 0.0
H77 H 0.67229 0.89398 0.00364 0.0
H78 H 0.64042 0.84743 0.11638 0.0
H79 H 0.77904 0.91462 0.8774 0.0
H80 H 0.78207 0.89215 0.1807 0.0
H81 H 0.81825 0.91622 0.89199 0.0
H82 H 0.81017 0.93632 0.16983 0.0
O83 O 0.71906 0.85923 0.98077 0.0
H84 H 0.66487 0.78777 0.1382 0.0
H85 H 0.64561 0.82836 0.01664 0.0
H86 H 0.62196 0.78378 0.02315 0.0
H87 H 0.63151 0.76318 0.08437 0.0
H88 H 0.68822 0.83234 0.13015 0.0
H89 H 0.60372 0.85097 0.10888 0.0
H90 H 0.60123 0.87625 0.04753 0.0
O91 O 0.68764 0.86394 9e-05 0.0
C92 C 0.72508 0.91553 0.03263 0.0
C93 C 0.6367 0.88675 0.02148 0.0
C94 C 0.61869 0.86047 0.08563 0.0
N95 N 0.65849 0.87047 0.06046 0.0
C96 C 0.65728 0.88447 0.02671 0.0
C97 C 0.63956 0.85862 0.08983 0.0
C98 C 0.61729 0.87464 0.05119 0.0
C99 C 0.76599 0.88731 0.11469 0.0
N100 N 0.76571 0.89816 0.07508 0.0
C101 C 0.78196 0.90083 0.14935 0.0
C102 C 0.7977 0.92562 0.14325 0.0
C103 C 0.79729 0.93656 0.10276 0.0
C104 C 0.78105 0.92247 0.06886 0.0
C105 C 0.80802 0.90119 0.95877 0.0
C106 C 0.76432 0.89944 0.94269 0.0
C107 C 0.7897 0.89232 0.99133 0.0
N108 N 0.76822 0.89162 0.98312 0.0
C109 C 0.78223 0.90843 0.90934 0.0
C110 C 0.80422 0.9093 0.91753 0.0
C111 C 0.69857 0.85737 0.97238 0.0
C112 C 0.66052 0.79654 0.11142 0.0
C113 C 0.64998 0.81955 0.04319 0.0
C114 C 0.63646 0.79429 0.04681 0.0
C115 C 0.64182 0.78275 0.08118 0.0
N116 N 0.66828 0.83296 0.07301 0.0
C117 C 0.67363 0.82176 0.10677 0.0
Co118 Co 0.12592 0.87144 0.04056 0.0
Co119 Co 0.13216 0.82516 0.08405 0.0
O120 O 0.13814 0.85861 0.08762 0.0
C121 C 0.17686 0.91337 0.04205 0.0
O122 O 0.18518 0.89854 0.03402 0.0
C123 C 0.132 0.83579 0.18408 0.0
O124 O 0.13458 0.85719 0.17561 0.0
O125 O 0.09642 0.81243 0.08042 0.0
O126 O 0.09698 0.83861 0.02931 0.0
H127 H 0.09298 0.7407 0.01988 0.0
H128 H 0.1384 0.8964 0.12911 0.0
O129 O 0.1543 0.905 0.04925 0.0
H130 H 0.05136 0.86777 0.10744 0.0
H131 H 0.10737 0.93265 0.97115 0.0
H132 H 0.10548 0.85489 0.9488 0.0
H133 H 0.07453 0.86024 0.04929 0.0
H134 H 0.12155 0.91584 0.03111 0.0
O135 O 0.12989 0.82149 0.15196 0.0
H136 H 0.10167 0.78299 0.02495 0.0
H137 H 0.14888 0.79595 0.13607 0.0
H138 H 0.09088 0.8709 0.88814 0.0
H139 H 0.11596 0.90456 0.18798 0.0
H140 H 0.09179 0.91007 0.89909 0.0
H141 H 0.0721 0.89013 0.17736 0.0
O142 O 0.14427 0.8646 0.99457 0.0
H143 H 0.2175 0.87972 0.1403 0.0
H144 H 0.16627 0.81477 0.03305 0.0
H145 H 0.21039 0.83077 0.03386 0.0
H146 H 0.23635 0.8634 0.08795 0.0
H147 H 0.17345 0.86347 0.13801 0.0
H148 H 0.1405 0.75372 0.13245 0.0
H149 H 0.11245 0.7258 0.07391 0.0
O150 O 0.1345 0.82704 0.01636 0.0
C151 C 0.08615 0.81835 0.04998 0.0
C152 C 0.10528 0.75271 0.04548 0.0
C153 C 0.13191 0.76 0.1087 0.0
N154 N 0.12585 0.79199 0.08062 0.0
C155 C 0.11031 0.7767 0.04846 0.0
C156 C 0.13652 0.78388 0.11068 0.0
C157 C 0.11619 0.74435 0.07583 0.0
C158 C 0.11934 0.89015 0.12422 0.0
N159 N 0.10779 0.87776 0.08596 0.0
C160 C 0.10672 0.89478 0.15768 0.0
C161 C 0.0821 0.88666 0.15172 0.0
C162 C 0.07045 0.87409 0.11252 0.0
C163 C 0.08365 0.86977 0.07981 0.0
C164 C 0.10687 0.91556 0.96598 0.0
C165 C 0.10584 0.87189 0.95394 0.0
C166 C 0.11495 0.90599 -0.00024 0.0
N167 N 0.11429 0.88436 0.99356 0.0
C168 C 0.09759 0.88089 0.91942 0.0
C169 C 0.09812 0.90288 0.92557 0.0
C170 C 0.14284 0.84419 0.98741 0.0
C171 C 0.20635 0.86531 0.11692 0.0
C172 C 0.17736 0.82886 0.05694 0.0
C173 C 0.20237 0.83789 0.05715 0.0
C174 C 0.21692 0.8562 0.08747 0.0
N175 N 0.16701 0.83763 0.0864 0.0
C176 C 0.18126 0.85584 0.11575 0.0
Co177 Co 0.25212 0.12816 0.95309 0.0
Co178 Co 0.30523 0.17796 0.91861 0.0
O179 O 0.27925 0.14391 0.91063 0.0
C180 C 0.2651 0.08888 0.95643 0.0
O181 O 0.2872 0.10466 0.96964 0.0
C182 C 0.29599 0.17048 0.81811 0.0
O183 O 0.27554 0.15028 0.82521 0.0
O184 O 0.28094 0.1892 0.92132 0.0
O185 O 0.25248 0.15936 0.96348 0.0
H186 H 0.34479 0.26045 0.9913 0.0
H187 H 0.24561 0.1045 0.86395 0.0
O188 O 0.25039 0.096 0.94471 0.0
H189 H 0.18126 0.12601 0.87273 0.0
H190 H 0.17158 0.06104 0.0093 0.0
H191 H 0.24182 0.14163 0.04288 0.0
H192 H 0.20983 0.13534 0.93585 0.0
H193 H 0.2052 0.08115 0.95489 0.0
O194 O 0.30871 0.18346 0.85116 0.0
H195 H 0.31286 0.21776 0.98086 0.0
H196 H 0.35244 0.21026 0.87264 0.0
H197 H 0.20847 0.1223 0.09804 0.0
H198 H 0.21713 0.09443 0.80029 0.0
H199 H 0.17303 0.08169 0.08142 0.0
H200 H 0.18474 0.10532 0.80436 0.0
O201 O 0.27526 0.13598 0.00368 0.0
H202 H 0.34191 0.12926 0.85927 0.0
H203 H 0.34815 0.18799 0.97475 0.0
H204 H 0.3777 0.17371 0.97476 0.0
H205 H 0.37477 0.14421 0.9166 0.0
H206 H 0.3126 0.14377 0.86076 0.0
H207 H 0.3847 0.25293 0.88171 0.0
H208 H 0.38104 0.27831 0.9415 0.0
O209 O 0.30352 0.17413 0.98592 0.0
C210 C 0.26241 0.18075 0.94713 0.0
C211 C 0.34662 0.24956 0.96519 0.0
C212 C 0.369 0.24535 0.90364 0.0
N213 N 0.3308 0.21147 0.92631 0.0
C214 C 0.32862 0.22535 0.95917 0.0
C215 C 0.35063 0.22121 0.89858 0.0
C216 C 0.36694 0.25958 0.93721 0.0
C217 C 0.23146 0.10914 0.86609 0.0
N218 N 0.22954 0.12068 0.90344 0.0
C219 C 0.21543 0.10347 0.82988 0.0
C220 C 0.19729 0.10961 0.83216 0.0
C221 C 0.19536 0.12127 0.87047 0.0
C222 C 0.21172 0.12667 0.906 0.0
C223 C 0.18692 0.07874 0.01693 0.0
C224 C 0.22643 0.124 0.0353 0.0
C225 C 0.20606 0.09018 0.98631 0.0
N226 N 0.22545 0.11258 0.99562 0.0
C227 C 0.20761 0.11313 0.06671 0.0
C228 C 0.18774 0.09034 0.05738 0.0
C229 C 0.29361 0.15641 0.01353 0.0
C230 C 0.34349 0.14226 0.88458 0.0
C231 C 0.34675 0.17519 0.94923 0.0
C232 C 0.36355 0.16717 0.94943 0.0
C233 C 0.3619 0.15062 0.9168 0.0
N234 N 0.32886 0.1671 0.91723 0.0
C235 C 0.32701 0.15069 0.88541 0.0
Co236 Co 0.8748 0.12524 0.94929 0.0
Co237 Co 0.82959 0.13686 0.9206 0.0
O238 O 0.86183 0.14082 0.90994 0.0
C239 C 0.91648 0.17576 0.95188 0.0
O240 O 0.90117 0.18342 0.96038 0.0
C241 C 0.82751 0.12689 0.82207 0.0
O242 O 0.83527 0.11158 0.8299 0.0
O243 O 0.81434 0.10077 0.91779 0.0
O244 O 0.84161 0.09646 0.95871 0.0
H245 H 0.74746 0.10011 0.9938 0.0
H246 H 0.89678 0.14265 0.85931 0.0
O247 O 0.90858 0.15347 0.94243 0.0
H248 H 0.8664 0.05452 0.85824 0.0
H249 H 0.93521 0.10012 0.99565 0.0
H250 H 0.85968 0.09919 0.03685 0.0
H251 H 0.86179 0.07443 0.92597 0.0
H252 H 0.91817 0.11891 0.94581 0.0
O253 O 0.82479 0.13842 0.85443 0.0
H254 H 0.78818 0.10567 0.98059 0.0
H255 H 0.80234 0.15953 0.88172 0.0
H256 H 0.87593 0.07995 0.08743 0.0
H257 H 0.90198 0.12351 0.79091 0.0
H258 H 0.91399 0.08036 0.06696 0.0
H259 H 0.88668 0.07912 0.79011 0.0
O260 O 0.87013 0.14114 0.00303 0.0
H261 H 0.88542 0.22238 0.86886 0.0
H262 H 0.82636 0.17131 0.98502 0.0
H263 H 0.84626 0.21588 0.99097 0.0
H264 H 0.87599 0.24174 0.93255 0.0
H265 H 0.86527 0.17772 0.86446 0.0
H266 H 0.76169 0.15439 0.8936 0.0
H267 H 0.73396 0.12457 0.95011 0.0
O268 O 0.83323 0.13557 0.9871 0.0
C269 C 0.82044 0.08807 0.94191 0.0
C270 C 0.75939 0.11319 0.96912 0.0
C271 C 0.76736 0.14363 0.91285 0.0
N272 N 0.79768 0.13295 0.93049 0.0
C273 C 0.78249 0.11645 0.96153 0.0
C274 C 0.79034 0.1464 0.90616 0.0
C275 C 0.75182 0.1269 0.94458 0.0
C276 C 0.89027 0.12336 0.85927 0.0
N277 N 0.87911 0.1097 0.89658 0.0
C278 C 0.89318 0.11261 0.82042 0.0
C279 C 0.88455 0.0877 0.81998 0.0
C280 C 0.87316 0.07388 0.85818 0.0
C281 C 0.87054 0.08524 0.89639 0.0
C282 C 0.9186 0.09979 0.00492 0.0
C283 C 0.87616 0.09932 0.02756 0.0
C284 C 0.9089 0.11047 0.9769 0.0
N285 N 0.88788 0.11005 0.98829 0.0
C286 C 0.88532 0.08845 0.0564 0.0
C287 C 0.90668 0.0887 0.04491 0.0
C288 C 0.85064 0.14071 0.01423 0.0
C289 C 0.87244 0.21131 0.89445 0.0
C290 C 0.83933 0.18243 0.95951 0.0
C291 C 0.8505 0.20766 0.96302 0.0
C292 C 0.86717 0.22216 0.93022 0.0
N293 N 0.84457 0.17192 0.92428 0.0
C294 C 0.86091 0.18601 0.89204 0.0
Co295 Co 0.86703 0.69483 0.92206 0.0
Co296 Co 0.87678 0.75087 0.95196 0.0
O297 O 0.86234 0.72269 0.91149 0.0
C298 C 0.87778 0.7035 0.8236 0.0
O299 O 0.89247 0.72665 0.83186 0.0
C300 C 0.8261 0.7419 0.95295 0.0
O301 O 0.81835 0.71912 0.96351 0.0
O302 O 0.86027 0.72958 0.00458 0.0
O303 O 0.86735 0.69919 0.98871 0.0
H304 H 0.91914 0.79627 0.09309 0.0
H305 H 0.82647 0.68915 0.86438 0.0
O306 O 0.86639 0.68895 0.85568 0.0
H307 H 0.7879 0.63045 0.98843 0.0
H308 H 0.85207 0.61032 0.89367 0.0
H309 H 0.89816 0.68513 0.98331 0.0
H310 H 0.83242 0.65609 0.98456 0.0
H311 H 0.84598 0.64527 0.88186 0.0
O312 O 0.84838 0.756 0.9432 0.0
H313 H 0.90135 0.7613 0.04109 0.0
H314 H 0.88223 0.80026 0.94931 0.0
H315 H 0.90465 0.65053 0.99647 0.0
H316 H 0.78186 0.66369 0.86672 0.0
H317 H 0.88152 0.61278 0.95145 0.0
H318 H 0.7623 0.63412 0.92916 0.0
O319 O 0.90308 0.71646 0.92102 0.0
H320 H 0.88083 0.78117 0.79392 0.0
H321 H 0.92769 0.7896 0.93211 0.0
H322 H 0.94852 0.81499 0.86582 0.0
H323 H 0.92503 0.81089 0.79612 0.0
H324 H 0.86077 0.75598 0.86092 0.0
H325 H 0.89957 0.83557 0.00055 0.0
H326 H 0.91829 0.83375 0.07297 0.0
O327 O 0.90571 0.747 0.96313 0.0
C328 C 0.86127 0.71079 0.01571 0.0
C329 C 0.91107 0.79731 0.0616 0.0
C330 C 0.90006 0.81935 0.0097 0.0
N331 N 0.89084 0.77875 0.9921 0.0
C332 C 0.90102 0.77757 0.03195 0.0
C333 C 0.8902 0.79927 0.98088 0.0
C334 C 0.91058 0.81832 0.05031 0.0
C335 C 0.81809 0.67618 0.89143 0.0
N336 N 0.83204 0.67401 0.92411 0.0
C337 C 0.79283 0.66187 0.89267 0.0
C338 C 0.78186 0.6453 0.92774 0.0
C339 C 0.79621 0.64324 0.96102 0.0
C340 C 0.82142 0.65785 0.95869 0.0
C341 C 0.86226 0.62667 0.91349 0.0
C342 C 0.88796 0.66876 0.96366 0.0
C343 C 0.85896 0.64656 0.90684 0.0
N344 N 0.87168 0.66724 0.9319 0.0
C345 C 0.89174 0.64923 0.97123 0.0
C346 C 0.87878 0.62806 0.94593 0.0
C347 C 0.91494 0.73496 0.94641 0.0
C348 C 0.89125 0.78317 0.82413 0.0
C349 C 0.91736 0.78764 0.90184 0.0
C350 C 0.92925 0.80212 0.86446 0.0
C351 C 0.91605 0.79982 0.82537 0.0
N352 N 0.89302 0.7714 0.90038 0.0
C353 C 0.87997 0.76903 0.86219 0.0
Co354 Co 0.84674 0.64387 0.41138 0.0
Co355 Co 0.80099 0.58898 0.37572 0.0
O356 O 0.81395 0.61589 0.41911 0.0
C357 C 0.84615 0.63336 0.5101 0.0
O358 O 0.8367 0.6101 0.5015 0.0
C359 C 0.75919 0.59782 0.37536 0.0
O360 O 0.77428 0.62094 0.3676 0.0
O361 O 0.80657 0.61192 0.3256 0.0
O362 O 0.84401 0.64116 0.34432 0.0
H363 H 0.80055 0.5483 0.22987 0.0
H364 H 0.81076 0.64839 0.46774 0.0
O365 O 0.8508 0.64838 0.47815 0.0
H366 H 0.83391 0.71022 0.34856 0.0
H367 H 0.91599 0.72759 0.44672 0.0
H368 H 0.88874 0.65441 0.35282 0.0
H369 H 0.85252 0.68432 0.35166 0.0
H370 H 0.87463 0.69264 0.45494 0.0
O371 O 0.76731 0.5835 0.38358 0.0
H372 H 0.81672 0.58152 0.28572 0.0
H373 H 0.75722 0.53946 0.37285 0.0
H374 H 0.93017 0.68903 0.34322 0.0
H375 H 0.79186 0.67408 0.46613 0.0
H376 H 0.94406 0.72597 0.39039 0.0
H377 H 0.80338 0.70522 0.40614 0.0
O378 O 0.86081 0.62193 0.41186 0.0
H379 H 0.77187 0.5536 0.52993 0.0
H380 H 0.81291 0.54969 0.3916 0.0
H381 H 0.80713 0.52219 0.45501 0.0
H382 H 0.78642 0.524 0.52475 0.0
H383 H 0.77825 0.58095 0.46581 0.0
H384 H 0.74025 0.50588 0.31773 0.0
H385 H 0.76202 0.51014 0.2457 0.0
O386 O 0.834 0.59317 0.36539 0.0
C387 C 0.82653 0.63099 0.31637 0.0
C388 C 0.79091 0.5462 0.26116 0.0
C389 C 0.75706 0.52241 0.31044 0.0
N390 N 0.78797 0.56242 0.33258 0.0
C391 C 0.80001 0.56494 0.29297 0.0
C392 C 0.76671 0.54152 0.34146 0.0
C393 C 0.76929 0.52481 0.27005 0.0
C394 C 0.81601 0.66204 0.44176 0.0
N395 N 0.83281 0.66492 0.41001 0.0
C396 C 0.80519 0.67648 0.44093 0.0
C397 C 0.81164 0.69393 0.40723 0.0
C398 C 0.82876 0.69674 0.3749 0.0
C399 C 0.8392 0.68198 0.37679 0.0
C400 C 0.91016 0.7116 0.42598 0.0
C401 C 0.8946 0.67043 0.37341 0.0
C402 C 0.88678 0.69171 0.4306 0.0
N403 N 0.87923 0.67148 0.40436 0.0
C404 C 0.91811 0.68997 0.36785 0.0
C405 C 0.92589 0.71068 0.39435 0.0
C406 C 0.85472 0.60428 0.38453 0.0
C407 C 0.78086 0.5526 0.49967 0.0
C408 C 0.80398 0.55067 0.42192 0.0
C409 C 0.8007 0.535 0.45766 0.0
C410 C 0.78906 0.53601 0.49677 0.0
N411 N 0.79583 0.56684 0.425 0.0
C412 C 0.78444 0.56797 0.46323 0.0
Co413 Co 0.41566 0.20727 0.36929 0.0
Co414 Co 0.36426 0.20228 0.41592 0.0
O415 O 0.39125 0.19554 0.41762 0.0
C416 C 0.406 0.15601 0.36863 0.0
O417 O 0.38297 0.14796 0.35994 0.0
C418 C 0.37628 0.20289 0.51556 0.0
O419 O 0.3939 0.19845 0.50686 0.0
O420 O 0.38778 0.23781 0.41167 0.0
O421 O 0.41245 0.23669 0.3591 0.0
H422 H 0.31971 0.24293 0.35536 0.0
H423 H 0.42857 0.19444 0.45699 0.0
O424 O 0.42027 0.17846 0.37694 0.0
H425 H 0.48838 0.28104 0.43419 0.0
H426 H 0.49395 0.2241 0.29577 0.0
H427 H 0.41886 0.22786 0.27794 0.0
H428 H 0.45685 0.25828 0.37705 0.0
H429 H 0.46377 0.21051 0.35709 0.0
O430 O 0.36411 0.20522 0.48374 0.0
H431 H 0.35269 0.23329 0.35821 0.0
H432 H 0.31933 0.18674 0.47044 0.0
H433 H 0.44866 0.24187 0.21594 0.0
H434 H 0.45998 0.21647 0.51486 0.0
H435 H 0.48653 0.24002 0.22462 0.0
H436 H 0.49013 0.26011 0.50366 0.0
O437 O 0.38973 0.18935 0.3241 0.0
H438 H 0.33235 0.11688 0.47291 0.0
H439 H 0.31872 0.16865 0.36705 0.0
H440 H 0.28976 0.12469 0.36897 0.0
H441 H 0.29638 0.09847 0.42238 0.0
H442 H 0.36095 0.16075 0.46952 0.0
H443 H 0.28612 0.19609 0.46906 0.0
H444 H 0.28611 0.22428 0.41109 0.0
O445 O 0.3627 0.19963 0.34835 0.0
C446 C 0.40368 0.24785 0.38076 0.0
C447 C 0.31947 0.23057 0.38071 0.0
C448 C 0.30064 0.20431 0.44457 0.0
N449 N 0.33789 0.20935 0.41426 0.0
C450 C 0.33808 0.22499 0.38243 0.0
C451 C 0.31955 0.19915 0.44526 0.0
C452 C 0.30064 0.22012 0.41202 0.0
C453 C 0.44169 0.21341 0.45184 0.0
N454 N 0.44081 0.22506 0.4138 0.0
C455 C 0.45941 0.22579 0.48474 0.0
C456 C 0.4763 0.25029 0.47845 0.0
C457 C 0.47531 0.26205 0.43951 0.0
C458 C 0.45733 0.24908 0.40736 0.0
C459 C 0.47752 0.22501 0.29158 0.0
C460 C 0.43533 0.22709 0.28209 0.0
C461 C 0.46032 0.21725 0.32615 0.0
N462 N 0.43958 0.21843 0.32121 0.0
C463 C 0.45212 0.23501 0.24681 0.0
C464 C 0.47336 0.23395 0.25168 0.0
C465 C 0.37094 0.19129 0.31828 0.0
C466 C 0.32911 0.12816 0.44984 0.0
C467 C 0.32172 0.15745 0.39064 0.0
C468 C 0.30525 0.13252 0.39148 0.0
C469 C 0.30897 0.11782 0.42141 0.0
N470 N 0.34128 0.16757 0.41912 0.0
C471 C 0.3452 0.15316 0.44807 0.0
Co472 Co 0.79068 0.20298 0.37419 0.0
Co473 Co 0.80044 0.15748 0.40877 0.0
O474 O 0.805 0.19016 0.41694 0.0
C475 C 0.84128 0.24492 0.37365 0.0
O476 O 0.8493 0.22986 0.36545 0.0
C477 C 0.79065 0.15778 0.50739 0.0
O478 O 0.77676 0.16716 0.49908 0.0
O479 O 0.76444 0.1431 0.40979 0.0
O480 O 0.76189 0.16983 0.36412 0.0
H481 H 0.76251 0.07407 0.34012 0.0
H482 H 0.80586 0.22574 0.46427 0.0
O483 O 0.81885 0.23676 0.38189 0.0
H484 H 0.71809 0.1964 0.45549 0.0
H485 H 0.76777 0.26356 0.31795 0.0
H486 H 0.76697 0.1872 0.2846 0.0
H487 H 0.73952 0.19077 0.39135 0.0
H488 H 0.78481 0.24668 0.37226 0.0
O489 O 0.80113 0.15337 0.47533 0.0
H490 H 0.76898 0.11537 0.35023 0.0
H491 H 0.82189 0.12993 0.45138 0.0
H492 H 0.74949 0.20328 0.22955 0.0
H493 H 0.7852 0.23196 0.52911 0.0
H494 H 0.74986 0.24175 0.24606 0.0
H495 H 0.74098 0.21718 0.52495 0.0
O496 O 0.80782 0.19756 0.32342 0.0
H497 H 0.88561 0.21278 0.46289 0.0
H498 H 0.8351 0.15223 0.3481 0.0
H499 H 0.87962 0.17116 0.34447 0.0
H500 H 0.9052 0.20163 0.40222 0.0
H501 H 0.841 0.19356 0.46501 0.0
H502 H 0.81582 0.0887 0.44265 0.0
H503 H 0.78601 0.06048 0.38655 0.0
O504 O 0.80012 0.16024 0.34187 0.0
C505 C 0.75259 0.14903 0.38294 0.0
C506 C 0.77557 0.08621 0.36464 0.0
C507 C 0.80546 0.09441 0.42222 0.0
N508 N 0.79583 0.1251 0.40131 0.0
C509 C 0.77934 0.10964 0.37048 0.0
C510 C 0.80876 0.11771 0.42714 0.0
C511 C 0.78875 0.07859 0.39072 0.0
C512 C 0.78666 0.21945 0.46214 0.0
N513 N 0.77394 0.20801 0.42407 0.0
C514 C 0.77504 0.22294 0.49898 0.0
C515 C 0.75022 0.21461 0.49665 0.0
C516 C 0.73737 0.20293 0.4577 0.0
C517 C 0.74958 0.19973 0.42154 0.0
C518 C 0.76749 0.24677 0.31038 0.0
C519 C 0.76707 0.20387 0.29216 0.0
C520 C 0.77718 0.23716 0.34095 0.0
N521 N 0.7768 0.21592 0.33171 0.0
C522 C 0.7572 0.21292 0.2608 0.0
C523 C 0.75743 0.23452 0.27006 0.0
C524 C 0.80697 0.17764 0.31393 0.0
C525 C 0.87465 0.19947 0.43761 0.0
C526 C 0.84609 0.16553 0.37329 0.0
C527 C 0.8713 0.17615 0.37111 0.0
C528 C 0.88564 0.19323 0.40353 0.0
N529 N 0.83544 0.17171 0.40689 0.0
C530 C 0.84939 0.18848 0.43874 0.0
Co531 Co 0.92329 0.46354 0.28848 0.0
Co532 Co 0.97845 0.50945 0.25463 0.0
O533 O 0.95049 0.47673 0.24587 0.0
C534 C 0.9313 0.42108 0.28936 0.0
O535 O 0.95409 0.43556 0.30057 0.0
C536 C 0.96853 0.50933 0.15583 0.0
O537 O 0.94524 0.49979 0.16405 0.0
O538 O 0.95659 0.52359 0.25396 0.0
O539 O 0.92755 0.49657 0.29959 0.0
H540 H 0.02328 0.59247 0.32494 0.0
H541 H 0.91586 0.44153 0.1977 0.0
O542 O 0.9177 0.42984 0.27955 0.0
H543 H 0.85722 0.47055 0.20834 0.0
H544 H 0.83984 0.40235 0.34385 0.0
H545 H 0.91515 0.47869 0.37855 0.0
H546 H 0.88424 0.47574 0.27228 0.0
H547 H 0.87382 0.41967 0.28973 0.0
O548 O 0.98341 0.5139 0.18802 0.0
H549 H 0.9887 0.55112 0.31409 0.0
H550 H 0.02747 0.53755 0.21233 0.0
H551 H 0.88152 0.46215 0.43342 0.0
H552 H 0.88899 0.43575 0.13305 0.0
H553 H 0.84353 0.42369 0.41623 0.0
H554 H 0.85945 0.45037 0.13814 0.0
O555 O 0.94583 0.4687 0.33916 0.0
H556 H 0.00887 0.45473 0.19974 0.0
H557 H 0.01842 0.51478 0.31523 0.0
H558 H 0.04424 0.49609 0.31856 0.0
H559 H 0.03959 0.46587 0.26046 0.0
H560 H 0.98325 0.47371 0.19791 0.0
H561 H 0.06239 0.57886 0.2218 0.0
H562 H 0.06047 0.60661 0.27857 0.0
O563 O 0.97523 0.50628 0.32158 0.0
C564 C 0.93884 0.51742 0.281 0.0
C565 C 0.02435 0.58054 0.30012 0.0
C566 C 0.04628 0.57291 0.2422 0.0
N567 N 0.00604 0.54188 0.26267 0.0
C568 C 0.00483 0.55708 0.29387 0.0
C569 C 0.0264 0.54957 0.23687 0.0
C570 C 0.0452 0.58847 0.27407 0.0
C571 C 0.9029 0.44775 0.20024 0.0
N572 N 0.90155 0.45886 0.23872 0.0
C573 C 0.8878 0.44451 0.1635 0.0
C574 C 0.87125 0.45275 0.16636 0.0
C575 C 0.87 0.46409 0.20572 0.0
C576 C 0.88541 0.46704 0.24177 0.0
C577 C 0.85629 0.41913 0.35172 0.0
C578 C 0.89864 0.46202 0.37069 0.0
C579 C 0.87563 0.42899 0.32126 0.0
N580 N 0.89643 0.45023 0.33086 0.0
C581 C 0.87967 0.45271 0.40196 0.0
C582 C 0.85837 0.43112 0.39231 0.0
C583 C 0.96478 0.48864 0.3491 0.0
C584 C 0.01111 0.46793 0.22517 0.0
C585 C 0.01623 0.5016 0.28987 0.0
C586 C 0.03094 0.49112 0.29189 0.0
C587 C 0.02833 0.47417 0.25928 0.0
N588 N 0.99942 0.49543 0.25624 0.0
C589 C 0.99671 0.47879 0.22422 0.0
Co590 Co 0.54357 0.45919 0.28206 0.0
Co591 Co 0.49551 0.46618 0.25216 0.0
O592 O 0.5287 0.47247 0.24149 0.0
C593 C 0.58438 0.51053 0.28397 0.0
O594 O 0.56921 0.51772 0.29675 0.0
C595 C 0.49741 0.45925 0.15233 0.0
O596 O 0.51235 0.45094 0.15871 0.0
O597 O 0.48276 0.43045 0.25139 0.0
O598 O 0.51142 0.4294 0.29369 0.0
H599 H 0.4139 0.42552 0.32789 0.0
H600 H 0.56535 0.47562 0.19151 0.0
O601 O 0.57648 0.48846 0.27279 0.0
H602 H 0.5391 0.38841 0.19715 0.0
H603 H 0.60819 0.44037 0.33107 0.0
H604 H 0.53052 0.43505 0.3716 0.0
H605 H 0.53293 0.40869 0.26258 0.0
H606 H 0.58883 0.45608 0.27953 0.0
O607 O 0.48942 0.46578 0.18565 0.0
H608 H 0.45566 0.4341 0.3143 0.0
H609 H 0.4648 0.48458 0.21158 0.0
H610 H 0.54911 0.41887 0.42391 0.0
H611 H 0.57225 0.45614 0.1255 0.0
H612 H 0.58824 0.4215 0.40379 0.0
H613 H 0.55898 0.41219 0.12803 0.0
O614 O 0.53802 0.4753 0.3343 0.0
H615 H 0.54615 0.55158 0.19524 0.0
H616 H 0.48945 0.49995 0.31388 0.0
H617 H 0.50631 0.54427 0.3168 0.0
H618 H 0.53483 0.5704 0.25711 0.0
H619 H 0.52902 0.50718 0.19384 0.0
H620 H 0.42304 0.47639 0.22384 0.0
H621 H 0.39731 0.44674 0.28247 0.0
O622 O 0.49998 0.46663 0.31913 0.0
C623 C 0.49014 0.41929 0.27684 0.0
C624 C 0.42495 0.43852 0.30231 0.0
C625 C 0.43007 0.46704 0.24387 0.0
N626 N 0.46273 0.45991 0.26233 0.0
C627 C 0.44864 0.44349 0.29451 0.0
C628 C 0.45369 0.47156 0.23701 0.0
C629 C 0.41565 0.45041 0.27679 0.0
C630 C 0.55976 0.45655 0.19299 0.0
N631 N 0.54875 0.44332 0.23081 0.0
C632 C 0.56361 0.44559 0.15546 0.0
C633 C 0.55612 0.42092 0.15687 0.0
C634 C 0.54493 0.40756 0.19561 0.0
C635 C 0.54137 0.41912 0.23248 0.0
C636 C 0.59112 0.43909 0.3402 0.0
C637 C 0.54747 0.43613 0.36245 0.0
C638 C 0.5801 0.44802 0.3112 0.0
N639 N 0.55849 0.44638 0.32241 0.0
C640 C 0.55795 0.42699 0.39228 0.0
C641 C 0.57991 0.4285 0.38098 0.0
C642 C 0.51797 0.47357 0.34582 0.0
C643 C 0.53367 0.54038 0.22135 0.0
C644 C 0.50188 0.51119 0.28781 0.0
C645 C 0.51134 0.53628 0.28962 0.0
C646 C 0.52734 0.55093 0.25611 0.0
N647 N 0.50811 0.50097 0.25351 0.0
C648 C 0.52385 0.51522 0.22064 0.0
Co649 Co 0.53303 0.01819 0.25396 0.0
Co650 Co 0.54331 0.07324 0.29255 0.0
O651 O 0.53023 0.0474 0.24691 0.0
C652 C 0.54931 0.03169 0.15795 0.0
O653 O 0.56395 0.05437 0.16975 0.0
C654 C 0.49338 0.06652 0.28863 0.0
O655 O 0.48424 0.0433 0.29721 0.0
O656 O 0.52397 0.0495 0.34019 0.0
O657 O 0.52923 0.0184 0.32085 0.0
H658 H 0.57911 0.10986 0.44346 0.0
H659 H 0.49687 0.01828 0.19123 0.0
O660 O 0.53611 0.01603 0.18726 0.0
H661 H 0.44939 0.95193 0.29861 0.0
H662 H 0.517 0.93462 0.2121 0.0
H663 H 0.55969 0.00359 0.31691 0.0
H664 H 0.49395 0.97605 0.30457 0.0
H665 H 0.51276 0.97093 0.2048 0.0
O666 O 0.51609 0.08001 0.28175 0.0
H667 H 0.56335 0.07802 0.38489 0.0
H668 H 0.5502 0.12319 0.29767 0.0
H669 H 0.56425 0.96753 0.3257 0.0
H670 H 0.45231 0.99445 0.18373 0.0
H671 H 0.54284 0.93272 0.27301 0.0
H672 H 0.42826 0.96104 0.23776 0.0
O673 O 0.56909 0.03863 0.26026 0.0
H674 H 0.55598 0.11243 0.14028 0.0
H675 H 0.59534 0.1118 0.28333 0.0
H676 H 0.61976 0.14047 0.2232 0.0
H677 H 0.60006 0.14095 0.15109 0.0
H678 H 0.53228 0.08389 0.20121 0.0
H679 H 0.56559 0.15542 0.35548 0.0
H680 H 0.58028 0.14889 0.42895 0.0
O681 O 0.57104 0.06777 0.30572 0.0
C682 C 0.52249 0.02917 0.34862 0.0
C683 C 0.57281 0.11294 0.41155 0.0
C684 C 0.56519 0.1385 0.3622 0.0
N685 N 0.55595 0.09877 0.33779 0.0
C686 C 0.56392 0.095 0.37819 0.0
C687 C 0.55643 0.12015 0.32963 0.0
C688 C 0.57344 0.13483 0.4034 0.0
C689 C 0.48653 0.00367 0.2147 0.0
N690 N 0.49802 0.99856 0.24827 0.0
C691 C 0.46131 0.99028 0.21035 0.0
C692 C 0.44782 0.97156 0.24071 0.0
C693 C 0.45966 0.96645 0.27487 0.0
C694 C 0.4849 0.98023 0.27819 0.0
C695 C 0.52644 0.94967 0.23525 0.0
C696 C 0.55024 0.98849 0.29393 0.0
C697 C 0.52419 0.97033 0.23116 0.0
N698 N 0.53596 0.98938 0.26039 0.0
C699 C 0.55292 0.96813 0.29905 0.0
C700 C 0.54092 0.94861 0.26945 0.0
C701 C 0.58039 0.05608 0.28811 0.0
C702 C 0.56476 0.11244 0.17159 0.0
C703 C 0.58666 0.11182 0.25197 0.0
C704 C 0.60057 0.12815 0.21809 0.0
C705 C 0.5895 0.12842 0.17766 0.0
N706 N 0.56239 0.09627 0.2458 0.0
C707 C 0.55142 0.09639 0.20623 0.0
Co708 Co 0.51463 0.9795 0.74441 0.0
Co709 Co 0.46684 0.9208 0.72821 0.0
O710 O 0.48314 0.95153 0.76167 0.0
C711 C 0.52226 0.96963 0.83942 0.0
O712 O 0.51115 0.94634 0.82995 0.0
C713 C 0.4265 0.93191 0.72071 0.0
O714 O 0.44171 0.95337 0.704 0.0
O715 O 0.47141 0.93815 0.66979 0.0
O716 O 0.50408 0.97528 0.68036 0.0
H717 H 0.45765 0.86423 0.60143 0.0
H718 H 0.4842 0.98348 0.81606 0.0
O719 O 0.52559 0.98497 0.80877 0.0
H720 H 0.49606 0.04528 0.70284 0.0
H721 H 0.58639 0.06378 0.763 0.0
H722 H 0.54887 0.98995 0.66869 0.0
H723 H 0.51487 0.01983 0.69262 0.0
H724 H 0.54688 0.02867 0.78399 0.0
O725 O 0.43431 0.91833 0.73597 0.0
H726 H 0.47776 0.90263 0.64427 0.0
H727 H 0.42122 0.87342 0.74163 0.0
H728 H 0.5883 0.02473 0.64624 0.0
H729 H 0.46527 0.00871 0.82794 0.0
H730 H 0.60733 0.06199 0.69357 0.0
H731 H 0.47108 0.03982 0.77098 0.0
O732 O 0.52972 0.9586 0.73438 0.0
H733 H 0.44365 0.90357 0.89166 0.0
H734 H 0.47624 0.88167 0.7601 0.0
H735 H 0.47192 0.86108 0.83289 0.0
H736 H 0.4555 0.87199 0.89931 0.0
H737 H 0.44847 0.92385 0.81825 0.0
H738 H 0.40035 0.8348 0.69959 0.0
H739 H 0.41863 0.82998 0.62903 0.0
O740 O 0.49814 0.92182 0.71883 0.0
C741 C 0.48708 0.95928 0.65602 0.0
C742 C 0.44951 0.8661 0.63215 0.0
C743 C 0.41734 0.84959 0.68721 0.0
N744 N 0.4507 0.89027 0.69545 0.0
C745 C 0.46083 0.88779 0.65659 0.0
C746 C 0.4292 0.87154 0.71078 0.0
C747 C 0.42761 0.84689 0.64764 0.0
C748 C 0.48687 0.99702 0.79119 0.0
N749 N 0.5005 1.00007 0.75352 0.0
C750 C 0.47609 0.01124 0.79808 0.0
C751 C 0.47934 0.02868 0.7661 0.0
C752 C 0.49333 0.03174 0.72784 0.0
C753 C 0.50383 0.01719 0.7221 0.0
C754 C 0.57828 0.04766 0.7421 0.0
C755 C 0.55698 0.00614 0.68935 0.0
C756 C 0.55595 0.02768 0.75391 0.0
N757 N 0.54553 0.0073 0.72751 0.0
C758 C 0.57933 0.02576 0.67652 0.0
C759 C 0.59001 0.04664 0.70311 0.0
C760 C 0.52083 0.93648 0.72221 0.0
C761 C 0.45077 0.89862 0.86294 0.0
C762 C 0.46918 0.88659 0.78887 0.0
C763 C 0.4667 0.87481 0.82998 0.0
C764 C 0.45746 0.88093 0.86722 0.0
N765 N 0.46256 0.9039 0.78494 0.0
C766 C 0.45346 0.90997 0.82127 0.0
Co767 Co 0.08555 0.53957 0.7122 0.0
Co768 Co 0.03007 0.53025 0.7444 0.0
O769 O 0.05777 0.52515 0.7535 0.0
C770 C 0.07633 0.48876 0.70969 0.0
O771 O 0.05351 0.4811 0.69972 0.0
C772 C 0.03919 0.54051 0.84305 0.0
O773 O 0.06228 0.55542 0.83475 0.0
O774 O 0.05203 0.56625 0.74633 0.0
O775 O 0.08187 0.56873 0.70238 0.0
H776 H 0.98612 0.56928 0.67405 0.0
H777 H 0.09131 0.52321 0.80243 0.0
O778 O 0.09054 0.51101 0.71967 0.0
H779 H 0.15081 0.61087 0.79779 0.0
H780 H 0.16958 0.56199 0.66023 0.0
H781 H 0.09524 0.56443 0.62351 0.0
H782 H 0.12477 0.59033 0.73198 0.0
H783 H 0.13481 0.54471 0.71261 0.0
O784 O 0.02462 0.52916 0.81095 0.0
H785 H 0.02049 0.56224 0.68534 0.0
H786 H 0.9808 0.50928 0.78558 0.0
H787 H 0.12967 0.58217 0.57041 0.0
H788 H 0.11716 0.54298 0.86895 0.0
H789 H 0.16717 0.58099 0.58861 0.0
H790 H 0.14714 0.58713 0.86688 0.0
O791 O 0.0637 0.52329 0.66005 0.0
H792 H 0.9985 0.4445 0.79674 0.0
H793 H 0.99073 0.49634 0.68195 0.0
H794 H 0.96471 0.45187 0.67698 0.0
H795 H 0.96846 0.42563 0.73472 0.0
H796 H 0.02434 0.48907 0.8002 0.0
H797 H 0.94609 0.51592 0.77565 0.0
H798 H 0.94858 0.54604 0.71941 0.0
O799 O 0.03395 0.531 0.67759 0.0
C800 C 0.0703 0.5781 0.72051 0.0
C801 C 0.98481 0.55609 0.69862 0.0
C802 C 0.96235 0.52617 0.75569 0.0
N803 N 1.00267 0.53533 0.73603 0.0
C804 C 0.0042 0.55199 0.70513 0.0
C805 C 0.98211 0.52255 0.76128 0.0
C806 C 0.96375 0.54306 0.72411 0.0
C807 C 0.10446 0.54239 0.80121 0.0
N808 N 0.10662 0.55557 0.76335 0.0
C809 C 0.11898 0.5535 0.839 0.0
C810 C 0.13577 0.57828 0.83783 0.0
C811 C 0.13784 0.59161 0.79909 0.0
C812 C 0.123 0.5799 0.76197 0.0
C813 C 0.15334 0.56262 0.65192 0.0
C814 C 0.11153 0.56394 0.6318 0.0
C815 C 0.13356 0.55279 0.68138 0.0
N816 N 0.11302 0.5536 0.67121 0.0
C817 C 0.13096 0.57397 0.60154 0.0
C818 C 0.15198 0.57329 0.61176 0.0
C819 C 0.045 0.52465 0.64982 0.0
C820 C 0.99665 0.45575 0.77146 0.0
C821 C 0.99253 0.48505 0.70716 0.0
C822 C 0.9777 0.45988 0.70421 0.0
C823 C 0.97982 0.44517 0.73662 0.0
N824 N 0.00896 0.4953 0.7415 0.0
C825 C 0.01117 0.48099 0.77334 0.0
Co826 Co 0.46177 0.54342 0.69396 0.0
Co827 Co 0.47265 0.502 0.74651 0.0
O828 O 0.47525 0.53406 0.74446 0.0
C829 C 0.51173 0.58652 0.6951 0.0
O830 O 0.5207 0.57188 0.69563 0.0
C831 C 0.4549 0.4859 0.83967 0.0
O832 O 0.43536 0.46768 0.82189 0.0
O833 O 0.43655 0.486 0.74098 0.0
O834 O 0.43408 0.50939 0.68713 0.0
H835 H 0.44054 0.4155 0.69778 0.0
H836 H 0.47305 0.571 0.77949 0.0
O837 O 0.48888 0.57796 0.69802 0.0
H838 H 0.38543 0.53821 0.7551 0.0
H839 H 0.43827 0.5978 0.61131 0.0
H840 H 0.44158 0.52205 0.60425 0.0
H841 H 0.40968 0.53013 0.70021 0.0
H842 H 0.45424 0.58532 0.67546 0.0
O843 O 0.47077 0.50242 0.81429 0.0
H844 H 0.44468 0.45615 0.69509 0.0
H845 H 0.49489 0.47952 0.8039 0.0
H846 H 0.42524 0.53371 0.53952 0.0
H847 H 0.44952 0.57974 0.8351 0.0
H848 H 0.42353 0.57185 0.54278 0.0
H849 H 0.40538 0.56326 0.82305 0.0
O850 O 0.48114 0.53623 0.65079 0.0
H851 H 0.55441 0.56344 0.80747 0.0
H852 H 0.51103 0.49628 0.69927 0.0
H853 H 0.55568 0.51717 0.7032 0.0
H854 H 0.57767 0.55096 0.7577 0.0
H855 H 0.50977 0.54223 0.80209 0.0
H856 H 0.4912 0.43909 0.8079 0.0
H857 H 0.46388 0.40674 0.75453 0.0
O858 O 0.47518 0.501 0.67923 0.0
C859 C 0.42494 0.48977 0.70991 0.0
C860 C 0.4525 0.42944 0.72122 0.0
C861 C 0.48093 0.44268 0.78302 0.0
N862 N 0.47 0.47022 0.74929 0.0
C863 C 0.45493 0.45251 0.71985 0.0
C864 C 0.48292 0.46553 0.78062 0.0
C865 C 0.4656 0.42454 0.75307 0.0
C866 C 0.45388 0.5639 0.77395 0.0
N867 N 0.44278 0.55019 0.73661 0.0
C868 C 0.44064 0.56885 0.80557 0.0
C869 C 0.41586 0.55958 0.79881 0.0
C870 C 0.40466 0.54551 0.76071 0.0
C871 C 0.41847 0.54093 0.72982 0.0
C872 C 0.4389 0.58113 0.60949 0.0
C873 C 0.44078 0.53861 0.60604 0.0
C874 C 0.448 0.57401 0.64567 0.0
N875 N 0.44876 0.55292 0.64371 0.0
C876 C 0.43156 0.54514 0.56923 0.0
C877 C 0.43062 0.56656 0.57106 0.0
C878 C 0.48183 0.51662 0.64757 0.0
C879 C 0.54503 0.54868 0.78369 0.0
C880 C 0.52045 0.51103 0.72296 0.0
C881 C 0.54575 0.52275 0.72511 0.0
C882 C 0.55807 0.5417 0.75571 0.0
N883 N 0.50777 0.51792 0.75065 0.0
C884 C 0.51974 0.53655 0.78061 0.0
Co885 Co 0.59196 0.80109 0.59045 0.0
Co886 Co 0.65097 0.84873 0.57629 0.0
O887 O 0.6231 0.8173 0.55847 0.0
C888 C 0.60358 0.7612 0.60231 0.0
O889 O 0.62463 0.77665 0.6202 0.0
C890 C 0.64107 0.85678 0.48175 0.0
O891 O 0.61783 0.84564 0.49143 0.0
O892 O 0.63006 0.86379 0.58655 0.0
O893 O 0.59238 0.83236 0.59659 0.0
H894 H 0.69617 0.92187 0.67607 0.0
H895 H 0.5973 0.78258 0.5021 0.0
O896 O 0.59009 0.7687 0.58536 0.0
H897 H 0.53233 0.8024 0.48016 0.0
H898 H 0.50626 0.73379 0.61802 0.0
H899 H 0.57229 0.81301 0.67106 0.0
H900 H 0.55189 0.8079 0.55452 0.0
H901 H 0.5453 0.75458 0.57749 0.0
O902 O 0.6565 0.85996 0.51214 0.0
H903 H 0.66136 0.88259 0.6528 0.0
H904 H 0.70014 0.88116 0.53722 0.0
H905 H 0.53342 0.79298 0.7123 0.0
H906 H 0.57809 0.77654 0.42719 0.0
H907 H 0.50009 0.75306 0.68585 0.0
H908 H 0.54543 0.78658 0.41584 0.0
O909 O 0.60852 0.80663 0.6502 0.0
H910 H 0.68065 0.80009 0.49161 0.0
H911 H 0.69086 0.84839 0.62859 0.0
H912 H 0.71638 0.82969 0.618 0.0
H913 H 0.71139 0.80538 0.54901 0.0
H914 H 0.65533 0.81888 0.50386 0.0
H915 H 0.73527 0.92052 0.55902 0.0
H916 H 0.73346 0.9411 0.629 0.0
O917 O 0.64652 0.83789 0.63996 0.0
C918 C 0.60752 0.85503 0.59499 0.0
C919 C 0.6972 0.91306 0.64554 0.0
C920 C 0.71912 0.91233 0.5798 0.0
N921 N 0.67873 0.87956 0.59377 0.0
C922 C 0.67757 0.8908 0.63224 0.0
C923 C 0.69913 0.89008 0.56754 0.0
C924 C 0.7181 0.92385 0.61909 0.0
C925 C 0.583 0.78686 0.49743 0.0
N926 N 0.5758 0.79572 0.53254 0.0
C927 C 0.57223 0.78346 0.45494 0.0
C928 C 0.55393 0.78912 0.44858 0.0
C929 C 0.5466 0.79803 0.48464 0.0
C930 C 0.55782 0.80124 0.52661 0.0
C931 C 0.52064 0.75118 0.62988 0.0
C932 C 0.55782 0.7957 0.65919 0.0
C933 C 0.54283 0.763 0.60716 0.0
N934 N 0.56105 0.78502 0.62182 0.0
C935 C 0.53588 0.78442 0.68274 0.0
C936 C 0.51719 0.76201 0.66791 0.0
C937 C 0.62984 0.8216 0.6643 0.0
C938 C 0.68299 0.81063 0.52182 0.0
C939 C 0.68843 0.83764 0.59872 0.0
C940 C 0.70301 0.8272 0.59279 0.0
C941 C 0.70022 0.81359 0.55406 0.0
N942 N 0.67154 0.83463 0.56701 0.0
C943 C 0.66873 0.82134 0.52891 0.0
Co944 Co 0.21022 0.78942 0.62958 0.0
Co945 Co 0.164 0.79597 0.58643 0.0
O946 O 0.19753 0.80215 0.58308 0.0
C947 C 0.25156 0.8406 0.62979 0.0
O948 O 0.23621 0.84847 0.6357 0.0
C949 C 0.17477 0.79673 0.48613 0.0
O950 O 0.19658 0.80025 0.49408 0.0
O951 O 0.15136 0.76024 0.58874 0.0
O952 O 0.17744 0.76016 0.63931 0.0
H953 H 0.07931 0.7559 0.64928 0.0
H954 H 0.23566 0.80342 0.5417 0.0
O955 O 0.24377 0.81811 0.62271 0.0
H956 H 0.20749 0.71615 0.55823 0.0
H957 H 0.27105 0.7699 0.69752 0.0
H958 H 0.19331 0.76785 0.72043 0.0
H959 H 0.19945 0.73826 0.61785 0.0
H960 H 0.25451 0.78486 0.63842 0.0
O961 O 0.16048 0.79413 0.51854 0.0
H962 H 0.12165 0.76479 0.64446 0.0
H963 H 0.13488 0.81302 0.53505 0.0
H964 H 0.20904 0.75248 0.78022 0.0
H965 H 0.24434 0.78206 0.48138 0.0
H966 H 0.24821 0.75347 0.76899 0.0
H967 H 0.23015 0.73808 0.48943 0.0
O968 O 0.20292 0.80698 0.67664 0.0
H969 H 0.21836 0.88195 0.53305 0.0
H970 H 0.15327 0.82947 0.63876 0.0
H971 H 0.16904 0.87358 0.63953 0.0
H972 H 0.20174 0.90017 0.58623 0.0
H973 H 0.20234 0.83792 0.53379 0.0
H974 H 0.0926 0.80445 0.53843 0.0
H975 H 0.06452 0.77578 0.59598 0.0
O976 O 0.16559 0.79766 0.65411 0.0
C977 C 0.1572 0.7496 0.61851 0.0
C978 C 0.09139 0.76847 0.62412 0.0
C979 C 0.09884 0.79568 0.56186 0.0
N980 N 0.13079 0.7895 0.58968 0.0
C981 C 0.11541 0.77362 0.62129 0.0
C982 C 0.12274 0.8004 0.56002 0.0
C983 C 0.08309 0.77961 0.59418 0.0
C984 C 0.22953 0.78431 0.54547 0.0
N985 N 0.217 0.77211 0.58313 0.0
C986 C 0.23445 0.7723 0.5112 0.0
C987 C 0.22646 0.74762 0.51572 0.0
C988 C 0.21373 0.7353 0.55428 0.0
C989 C 0.20912 0.7479 0.58784 0.0
C990 C 0.25396 0.76937 0.70282 0.0
C991 C 0.2103 0.76826 0.71517 0.0
C992 C 0.24455 0.77789 0.66953 0.0
N993 N 0.22293 0.7772 0.67588 0.0
C994 C 0.21915 0.75956 0.74921 0.0
C995 C 0.24113 0.76014 0.7429 0.0
C996 C 0.18245 0.80541 0.68363 0.0
C997 C 0.20391 0.87053 0.5561 0.0
C998 C 0.1674 0.84084 0.6152 0.0
C999 C 0.17629 0.86584 0.61589 0.0
C1000 C 0.19463 0.88075 0.58601 0.0
N1001 N 0.17632 0.83084 0.58529 0.0
C1002 C 0.19457 0.84544 0.55637 0.0
Co1003 Co 0.20444 0.35244 0.59177 0.0
Co1004 Co 0.21362 0.40723 0.6294 0.0
O1005 O 0.20091 0.38121 0.58417 0.0
C1006 C 0.21941 0.36617 0.49544 0.0
O1007 O 0.23267 0.38911 0.50695 0.0
C1008 C 0.16336 0.39967 0.62535 0.0
O1009 O 0.15452 0.37655 0.63449 0.0
O1010 O 0.19447 0.38348 0.67709 0.0
O1011 O 0.20066 0.35285 0.65873 0.0
H1012 H 0.24887 0.44465 0.78012 0.0
H1013 H 0.1677 0.35138 0.52903 0.0
O1014 O 0.20751 0.35013 0.5251 0.0
H1015 H 0.1215 0.28517 0.63741 0.0
H1016 H 0.1901 0.26932 0.5512 0.0
H1017 H 0.23173 0.33885 0.65516 0.0
H1018 H 0.16601 0.3101 0.64303 0.0
H1019 H 0.18511 0.30515 0.54309 0.0
O1020 O 0.18602 0.41336 0.61818 0.0
H1021 H 0.23362 0.41263 0.7219 0.0
H1022 H 0.2196 0.45683 0.63373 0.0
H1023 H 0.23704 0.30327 0.66476 0.0
H1024 H 0.12318 0.32672 0.52187 0.0
H1025 H 0.21616 0.26818 0.61252 0.0
H1026 H 0.09977 0.29338 0.5764 0.0
O1027 O 0.24044 0.37355 0.59767 0.0
H1028 H 0.22568 0.44592 0.47676 0.0
H1029 H 0.26543 0.44635 0.62 0.0
H1030 H 0.28955 0.47501 0.55964 0.0
H1031 H 0.26965 0.47496 0.48744 0.0
H1032 H 0.20229 0.41737 0.5379 0.0
H1033 H 0.23445 0.48923 0.69116 0.0
H1034 H 0.24932 0.48328 0.76493 0.0
O1035 O 0.24174 0.40244 0.64296 0.0
C1036 C 0.19333 0.36334 0.68592 0.0
C1037 C 0.24249 0.44748 0.74807 0.0
C1038 C 0.23437 0.47249 0.69817 0.0
N1039 N 0.22584 0.43289 0.67435 0.0
C1040 C 0.23389 0.42944 0.71492 0.0
C1041 C 0.22591 0.45405 0.66582 0.0
C1042 C 0.24272 0.46914 0.73954 0.0
C1043 C 0.15765 0.3368 0.55271 0.0
N1044 N 0.16947 0.33218 0.58636 0.0
C1045 C 0.13244 0.32294 0.54856 0.0
C1046 C 0.11932 0.30425 0.57919 0.0
C1047 C 0.13149 0.29965 0.61344 0.0
C1048 C 0.15671 0.31389 0.61656 0.0
C1049 C 0.19931 0.2845 0.57417 0.0
C1050 C 0.22252 0.32362 0.63238 0.0
C1051 C 0.19662 0.30489 0.56963 0.0
N1052 N 0.20809 0.32408 0.59866 0.0
C1053 C 0.22562 0.30354 0.63794 0.0
C1054 C 0.21391 0.28386 0.6086 0.0
C1055 C 0.25152 0.39116 0.62527 0.0
C1056 C 0.23454 0.44616 0.50812 0.0
C1057 C 0.25666 0.44612 0.5886 0.0
C1058 C 0.2704 0.46245 0.55459 0.0
C1059 C 0.25922 0.46242 0.51411 0.0
N1060 N 0.23246 0.43026 0.58248 0.0
C1061 C 0.22137 0.43011 0.54288 0.0
H1062 H 0.23463 0.39426 0.41831 0.0
H1063 H 0.1779 0.27852 0.253 0.0
H1064 H 0.19909 0.31981 0.46372 0.0
H1065 H 0.20792 0.35233 0.20624 0.0
H1066 H 0.18878 0.29375 0.33031 0.0
H1067 H 0.22823 0.3797 0.33994 0.0
C1068 C 0.22565 0.37492 0.41188 0.0
C1069 C 0.21725 0.35827 0.44771 0.0
C1070 C 0.19309 0.30663 0.30308 0.0
C1071 C 0.20985 0.34148 0.35833 0.0
C1072 C 0.18692 0.29792 0.2589 0.0
C1073 C 0.19189 0.31412 0.22304 0.0
C1074 C 0.20434 0.33174 0.31152 0.0
C1075 C 0.2036 0.33911 0.23281 0.0
C1076 C 0.22194 0.3666 0.36716 0.0
C1077 C 0.2057 0.33337 0.43731 0.0
N1078 N 0.20934 0.34713 0.27606 0.0
N1079 N 0.20231 0.32578 0.39373 0.0
H1080 H 0.61388 0.84665 0.40437 0.0
H1081 H 0.72936 0.9046 0.23892 0.0
H1082 H 0.68797 0.88281 0.45192 0.0
H1083 H 0.65501 0.86165 0.19448 0.0
H1084 H 0.71483 0.90026 0.3171 0.0
H1085 H 0.6289 0.85572 0.32676 0.0
C1086 C 0.63329 0.85669 0.39855 0.0
C1087 C 0.64965 0.86386 0.43474 0.0
C1088 C 0.70175 0.89188 0.29009 0.0
C1089 C 0.66703 0.87418 0.34592 0.0
C1090 C 0.71004 0.89438 0.2455 0.0
C1091 C 0.69344 0.88336 0.21003 0.0
C1092 C 0.67669 0.87837 0.29911 0.0
C1093 C 0.66857 0.87033 0.2206 0.0
C1094 C 0.64188 0.8618 0.3542 0.0
C1095 C 0.67465 0.87679 0.42508 0.0
N1096 N 0.661 0.86818 0.26402 0.0
N1097 N 0.68256 0.88143 0.38165 0.0
H1098 H 0.12973 0.77374 0.44738 0.0
H1099 H 0.16199 0.86702 0.24869 0.0
H1100 H 0.20409 0.82812 0.42111 0.0
H1101 H 0.11254 0.791 0.22368 0.0
H1102 H 0.17255 0.8564 0.32166 0.0
H1103 H 0.11819 0.7826 0.37348 0.0
C1104 C 0.14363 0.78736 0.42585 0.0
C1105 C 0.16794 0.80003 0.44003 0.0
C1106 C 0.15925 0.84212 0.30025 0.0
C1107 C 0.15473 0.81084 0.35682 0.0
C1108 C 0.15302 0.84815 0.25894 0.0
C1109 C 0.13626 0.82985 0.23028 0.0
C1110 C 0.14816 0.8177 0.31352 0.0
C1111 C 0.12549 0.80563 0.2449 0.0
C1112 C 0.13703 0.7924 0.3839 0.0
C1113 C 0.18522 0.81769 0.41113 0.0
N1114 N 0.13146 0.80024 0.28575 0.0
N1115 N 0.17824 0.82285 0.37115 0.0
H1116 H 0.3582 0.22935 0.55499 0.0
H1117 H 0.29146 0.13831 0.75267 0.0
H1118 H 0.37266 0.17109 0.58106 0.0
H1119 H 0.32587 0.21507 0.78048 0.0
H1120 H 0.31293 0.14755 0.6801 0.0
H1121 H 0.33888 0.22251 0.6297 0.0
C1122 C 0.35755 0.21534 0.5767 0.0
C1123 C 0.36726 0.20094 0.56222 0.0
C1124 C 0.31559 0.16231 0.70207 0.0
C1125 C 0.34444 0.19245 0.64628 0.0
C1126 C 0.3032 0.15711 0.74315 0.0
C1127 C 0.30681 0.17598 0.77242 0.0
C1128 C 0.33114 0.18655 0.68964 0.0
C1129 C 0.32256 0.20002 0.75874 0.0
C1130 C 0.34654 0.21145 0.61909 0.0
C1131 C 0.36571 0.18281 0.5913 0.0
N1132 N 0.33399 0.20466 0.71803 0.0
N1133 N 0.35413 0.17879 0.6317 0.0
H1134 H 0.81248 0.13216 0.53298 0.0
H1135 H 0.80747 0.15434 0.79688 0.0
H1136 H 0.77829 0.1705 0.58808 0.0
H1137 H 0.83336 0.10856 0.74176 0.0
H1138 H 0.79733 0.16104 0.72101 0.0
H1139 H 0.82069 0.12394 0.60905 0.0
C1140 C 0.80664 0.13887 0.5611 0.0
C1141 C 0.79473 0.15217 0.554 0.0
C1142 C 0.80517 0.14948 0.72544 0.0
C1143 C 0.8042 0.14274 0.64173 0.0
C1144 C 0.81105 0.14566 0.76883 0.0
C1145 C 0.82135 0.13085 0.77581 0.0
C1146 C 0.80971 0.13856 0.68849 0.0
C1147 C 0.82546 0.1201 0.73803 0.0
C1148 C 0.81132 0.13408 0.60465 0.0
C1149 C 0.78751 0.16019 0.59193 0.0
N1150 N 0.81969 0.12423 0.69598 0.0
N1151 N 0.79247 0.15544 0.63422 0.0
H1152 H 0.89559 0.72831 0.74373 0.0
H1153 H 0.83417 0.60788 0.5903 0.0
H1154 H 0.85169 0.65598 0.79736 0.0
H1155 H 0.87044 0.68079 0.53678 0.0
H1156 H 0.84264 0.62493 0.6669 0.0
H1157 H 0.88872 0.711 0.6676 0.0
C1158 C 0.88456 0.70883 0.73957 0.0
C1159 C 0.87418 0.69364 0.77706 0.0
C1160 C 0.84875 0.63715 0.63829 0.0
C1161 C 0.86627 0.67365 0.69008 0.0
C1162 C 0.84396 0.62742 0.59459 0.0
C1163 C 0.8515 0.64287 0.55697 0.0
C1164 C 0.86128 0.66251 0.64436 0.0
C1165 C 0.86413 0.66809 0.56462 0.0
C1166 C 0.88061 0.69893 0.69609 0.0
C1167 C 0.86003 0.66847 0.76954 0.0
N1168 N 0.8686 0.67707 0.6073 0.0
N1169 N 0.85651 0.6593 0.72702 0.0
H1170 H 0.94331 0.49691 0.07536 0.0
H1171 H 0.06391 0.55887 0.92297 0.0
H1172 H 0.01601 0.53408 0.1298 0.0
H1173 H 0.9918 0.5137 0.86923 0.0
H1174 H 0.04651 0.55214 -0.00099 0.0
H1175 H 0.96055 0.50521 -0.001 0.0
C1176 C 0.96284 0.50687 0.07132 0.0
C1177 C 0.97818 0.5147 0.10912 0.0
C1178 C 0.03452 0.54372 0.97049 0.0
C1179 C 0.99805 0.52427 0.02199 0.0
C1180 C 0.04446 0.54758 0.92709 0.0
C1181 C 0.02935 0.53683 0.88958 0.0
C1182 C 0.00927 0.5291 0.97641 0.0
C1183 C 0.00423 0.52235 0.89704 0.0
C1184 C 0.97269 0.51156 0.02775 0.0
C1185 C 0.00341 0.52754 0.10178 0.0
N1186 N 0.99501 0.51894 0.93947 0.0
N1187 N 0.01251 0.53189 0.05921 0.0
H1188 H 0.456 0.45866 0.12673 0.0
H1189 H 0.50002 0.50669 0.87804 0.0
H1190 H 0.52295 0.46729 0.0734 0.0
H1191 H 0.42406 0.46095 0.90932 0.0
H1192 H 0.51027 0.49974 0.95419 0.0
H1193 H 0.44535 0.46603 0.05118 0.0
C1194 C 0.46843 0.46205 0.09906 0.0
C1195 C 0.49036 0.46228 0.10624 0.0
C1196 C 0.49138 0.49137 0.94438 0.0
C1197 C 0.47851 0.47126 0.02014 0.0
C1198 C 0.48546 0.49551 0.90114 0.0
C1199 C 0.4611 0.4844 0.88732 0.0
C1200 C 0.4728 0.47644 0.97439 0.0
C1201 C 0.44305 0.46986 0.91859 0.0
C1202 C 0.46231 0.46621 0.05604 0.0
C1203 C 0.50579 0.46676 0.06921 0.0
N1204 N 0.44926 0.46639 0.96078 0.0
N1205 N 0.49969 0.47135 0.02777 0.0
H1206 H 0.56971 0.05918 0.08122 0.0
H1207 H 0.51126 0.94277 0.9174 0.0
H1208 H 0.5253 0.98517 0.12648 0.0
H1209 H 0.54852 0.01665 0.86875 0.0
H1210 H 0.51985 0.95819 0.99487 0.0
H1211 H 0.56541 0.04418 0.00335 0.0
C1212 C 0.55917 0.03984 0.0749 0.0
C1213 C 0.54777 0.02348 0.11053 0.0
C1214 C 0.52627 0.97103 0.96722 0.0
C1215 C 0.54285 0.00618 0.02177 0.0
C1216 C 0.52144 0.96221 0.92295 0.0
C1217 C 0.52907 0.9784 0.88647 0.0
C1218 C 0.53884 0.99624 0.97512 0.0
C1219 C 0.54215 0.00346 0.8958 0.0
C1220 C 0.55669 0.03127 0.03048 0.0
C1221 C 0.53431 0.99856 0.10026 0.0
N1222 N 0.54653 0.01159 0.93914 0.0
N1223 N 0.53223 0.99073 0.05701 0.0
H1224 H 0.14802 0.26719 0.91644 0.0
H1225 H 0.17549 0.37892 0.75461 0.0
H1226 H 0.1512 0.33322 0.96125 0.0
H1227 H 0.18785 0.32033 0.71683 0.0
H1228 H 0.1592 0.35875 0.8268 0.0
H1229 H 0.15433 0.2824 0.83845 0.0
C1230 C 0.14956 0.28465 0.90964 0.0
C1231 C 0.14957 0.29924 0.94503 0.0
C1232 C 0.16535 0.35027 0.80252 0.0
C1233 C 0.15689 0.31673 0.8569 0.0
C1234 C 0.17473 0.36182 0.76137 0.0
C1235 C 0.18322 0.35142 0.72967 0.0
C1236 C 0.16442 0.32817 0.81199 0.0
C1237 C 0.1816 0.3291 0.74022 0.0
C1238 C 0.15334 0.2934 0.86538 0.0
C1239 C 0.15167 0.32173 0.93483 0.0
N1240 N 0.17247 0.31827 0.78054 0.0
N1241 N 0.15544 0.32988 0.89172 0.0
H1242 H 0.6032 0.81493 0.74102 0.0
H1243 H 0.71573 0.84275 0.90098 0.0
H1244 H 0.67143 0.82444 0.69341 0.0
H1245 H 0.65447 0.8497 0.94332 0.0
H1246 H 0.69621 0.82806 0.82761 0.0
H1247 H 0.61802 0.81896 0.81903 0.0
C1248 C 0.62111 0.81747 0.74713 0.0
C1249 C 0.63639 0.81993 0.71108 0.0
C1250 C 0.687 0.83264 0.85318 0.0
C1251 C 0.65338 0.82455 0.79923 0.0
C1252 C 0.69816 0.84108 0.89502 0.0
C1253 C 0.68685 0.84767 0.92829 0.0
C1254 C 0.66438 0.83074 0.84466 0.0
C1255 C 0.66397 0.84495 0.91871 0.0
C1256 C 0.62962 0.81991 0.79142 0.0
C1257 C 0.65941 0.82314 0.72041 0.0
N1258 N 0.65356 0.8368 0.87771 0.0
N1259 N 0.66729 0.82554 0.76357 0.0
H1260 H 0.17712 0.87662 0.92911 0.0
H1261 H 0.13879 0.78451 0.72586 0.0
H1262 H 0.12382 0.80073 0.94436 0.0
H1263 H 0.21388 0.8396 0.74339 0.0
H1264 H 0.12972 0.79446 0.80043 0.0
H1265 H 0.18792 0.86749 0.85473 0.0
C1266 C 0.16767 0.85811 0.91671 0.0
C1267 C 0.14959 0.83937 0.94272 0.0
C1268 C 0.14817 0.80432 0.78791 0.0
C1269 C 0.16152 0.82903 0.85828 0.0
C1270 C 0.15334 0.79877 0.74541 0.0
C1271 C 0.17712 0.81126 0.72869 0.0
C1272 C 0.16678 0.82287 0.81336 0.0
C1273 C 0.19535 0.82948 0.75541 0.0
C1274 C 0.17393 0.85293 0.87462 0.0
C1275 C 0.13796 0.81566 0.92542 0.0
N1276 N 0.18976 0.83495 0.79647 0.0
N1277 N 0.14395 0.8112 0.88402 0.0
H1278 H 0.34679 0.21163 0.27915 0.0
H1279 H 0.29491 0.12294 0.06984 0.0
H1280 H 0.36792 0.15769 0.25657 0.0
H1281 H 0.31577 0.19866 0.06087 0.0
H1282 H 0.31383 0.13067 0.14507 0.0
H1283 H 0.32715 0.2022 0.20522 0.0
C1284 C 0.34717 0.19769 0.25869 0.0
C1285 C 0.35903 0.18543 0.2738 0.0
C1286 C 0.31418 0.14549 0.12643 0.0
C1287 C 0.33635 0.17443 0.18972 0.0
C1288 C 0.30329 0.1411 0.08387 0.0
C1289 C 0.30385 0.16022 0.05931 0.0
C1290 C 0.32502 0.16898 0.14469 0.0
C1291 C 0.31507 0.18346 0.07868 0.0
C1292 C 0.33607 0.19243 0.21654 0.0
C1293 C 0.3591 0.16764 0.24586 0.0
N1294 N 0.32505 0.18715 0.12044 0.0
N1295 N 0.34772 0.16249 0.20508 0.0
H1296 H 0.81166 0.11227 0.0647 0.0
H1297 H 0.84033 0.2111 0.25508 0.0
H1298 H 0.88008 0.17933 0.06812 0.0
H1299 H 0.78896 0.13468 0.27076 0.0
H1300 H 0.85328 0.20205 0.18269 0.0
H1301 H 0.80141 0.122 0.13804 0.0
C1302 C 0.82467 0.1289 0.08153 0.0
C1303 C 0.84676 0.14497 0.06106 0.0
C1304 C 0.83919 0.18737 0.20221 0.0
C1305 C 0.83501 0.1566 0.14409 0.0
C1306 C 0.83163 0.19254 0.243 0.0
C1307 C 0.81358 0.17359 0.26864 0.0
C1308 C 0.82825 0.16321 0.18714 0.0
C1309 C 0.80303 0.1498 0.25208 0.0
C1310 C 0.81883 0.13451 0.12318 0.0
C1311 C 0.86301 0.16641 0.08357 0.0
N1312 N 0.81048 0.14532 0.21236 0.0
N1313 N 0.85668 0.17182 0.12399 0.0
H1314 H 0.89034 0.70123 0.06654 0.0
H1315 H 0.79258 0.62926 0.25666 0.0
H1316 H 0.82227 0.70055 0.06938 0.0
H1317 H 0.86959 0.65838 0.27447 0.0
H1318 H 0.80096 0.65101 0.18417 0.0
H1319 H 0.88123 0.68176 0.14035 0.0
C1320 C 0.87359 0.69722 0.08328 0.0
C1321 C 0.85706 0.70254 0.06252 0.0
C1322 C 0.81592 0.65257 0.20421 0.0
C1323 C 0.8462 0.67979 0.14615 0.0
C1324 C 0.81115 0.64001 0.24512 0.0
C1325 C 0.83043 0.64203 0.27137 0.0
C1326 C 0.84003 0.66678 0.18958 0.0
C1327 C 0.85419 0.65638 0.25536 0.0
C1328 C 0.86836 0.68609 0.12523 0.0
C1329 C 0.83552 0.69692 0.08501 0.0
N1330 N 0.85829 0.66811 0.21547 0.0
N1331 N 0.83049 0.68549 0.12572 0.0
H1332 H 0.96503 0.45497 0.40692 0.0
H1333 H 0.03133 0.55165 0.60203 0.0
H1334 H 0.98891 0.53126 0.39375 0.0
H1335 H 0.03729 0.48713 0.59372 0.0
H1336 H 0.0112 0.54196 0.52887 0.0
H1337 H 0.98646 0.46361 0.47993 0.0
C1338 C 0.97453 0.47341 0.41966 0.0
C1339 C 0.97526 0.49245 0.39455 0.0
C1340 C 0.01709 0.52999 0.5427 0.0
C1341 C 0.99959 0.50235 0.47684 0.0
C1342 C 0.02858 0.53554 0.58433 0.0
C1343 C 0.03599 0.52018 0.6034 0.0
C1344 C 0.01257 0.50869 0.52031 0.0
C1345 C 0.03201 0.49949 0.5795 0.0
C1346 C 0.98692 0.47834 0.46082 0.0
C1347 C 0.988 0.51608 0.412 0.0
N1348 N 0.02025 0.49412 0.53908 0.0
N1349 N 0.99958 0.52033 0.4521 0.0
H1350 H 0.51177 0.54812 0.58276 0.0
H1351 H 0.47822 0.44807 0.39776 0.0
H1352 H 0.46879 0.47182 0.61462 0.0
H1353 H 0.5498 0.51132 0.39895 0.0
H1354 H 0.47111 0.45858 0.4735 0.0
H1355 H 0.52299 0.53731 0.51051 0.0
C1356 C 0.50473 0.52915 0.57454 0.0
C1357 C 0.48928 0.51081 0.60449 0.0
C1358 C 0.48844 0.47003 0.45732 0.0
C1359 C 0.50176 0.49851 0.52249 0.0
C1360 C 0.49246 0.46411 0.41424 0.0
C1361 C 0.51462 0.47887 0.39254 0.0
C1362 C 0.50645 0.49122 0.47819 0.0
C1363 C 0.53256 0.49944 0.41505 0.0
C1364 C 0.51126 0.52306 0.53366 0.0
C1365 C 0.48078 0.48652 0.59251 0.0
N1366 N 0.52796 0.50528 0.45666 0.0
N1367 N 0.48689 0.48106 0.55214 0.0
H1368 H 0.47981 0.93297 0.57866 0.0
H1369 H 0.50815 0.04628 0.42056 0.0
H1370 H 0.49097 1.00156 0.62811 0.0
H1371 H 0.51526 0.9852 0.37742 0.0
H1372 H 0.49382 0.02671 0.494 0.0
H1373 H 0.48401 0.94826 0.50105 0.0
C1374 C 0.48276 0.95108 0.57305 0.0
C1375 C 0.4856 0.9663 0.6095 0.0
C1376 C 0.49836 0.01756 0.46822 0.0
C1377 C 0.49041 0.98382 0.52176 0.0
C1378 C 0.50658 0.02874 0.42635 0.0
C1379 C 0.51307 0.01747 0.3928 0.0
C1380 C 0.49655 0.99496 0.47647 0.0
C1381 C 0.51054 0.99465 0.4022 0.0
C1382 C 0.4853 0.95985 0.52897 0.0
C1383 C 0.48936 0.98958 0.6008 0.0
N1384 N 0.50256 0.98419 0.44319 0.0
N1385 N 0.49183 0.99772 0.5578 0.0
H1386 H 0.22508 0.29346 0.00787 0.0
H1387 H 0.22205 0.16698 0.99807 0.0
H1388 H 0.18378 0.23286 0.09667 0.0
H1389 H 0.28012 0.2302 0.93313 0.0
H1390 H 0.20729 0.19194 0.03008 0.0
H1391 H 0.24633 0.27267 0.97875 0.0
C1392 C 0.22102 0.27616 0.02215 0.0
C1393 C 0.20257 0.26474 0.05454 0.0
C1394 C 0.22331 0.20055 0.00895 0.0
C1395 C 0.22613 0.24076 0.02078 0.0
C1396 C 0.23176 0.18618 0.99019 0.0
C1397 C 0.25253 0.19638 0.9627 0.0
C1398 C 0.23543 0.22558 0.0003 0.0
C1399 C 0.26402 0.22149 0.95399 0.0
C1400 C 0.23294 0.26421 0.00521 0.0
C1401 C 0.19768 0.24217 0.07138 0.0
N1402 N 0.25529 0.23529 0.97271 0.0
N1403 N 0.20916 0.23089 0.05404 0.0
H1404 H 0.81441 0.06828 0.02503 0.0
H1405 H 0.73395 0.93349 0.94763 0.0
H1406 H 0.78441 0.0517 0.89061 0.0
H1407 H 0.73376 0.95436 0.08601 0.0
H1408 H 0.75283 0.97616 0.92509 0.0
H1409 H 0.78609 0.02653 0.04782 0.0
C1410 C 0.80175 0.05579 0.00033 0.0
C1411 C 0.80189 0.0633 0.95572 0.0
C1412 C 0.74823 0.9714 0.96024 0.0
C1413 C 0.76955 0.01543 0.98156 0.0
C1414 C 0.7375 0.9471 0.97313 0.0
C1415 C 0.73229 0.9405 0.01871 0.0
C1416 C 0.75447 0.98933 0.99336 0.0
C1417 C 0.73733 0.95875 0.0505 0.0
C1418 C 0.78547 0.03205 0.01349 0.0
C1419 C 0.78488 0.04655 0.92527 0.0
N1420 N 0.74861 0.98245 0.03734 0.0
N1421 N 0.76965 0.0232 0.93853 0.0
H1422 H 0.93187 0.74553 0.03187 0.0
H1423 H 0.06936 0.81048 0.96405 0.0
H1424 H 0.95383 0.73986 0.89687 0.0
H1425 H 0.04644 0.78678 0.10067 0.0
H1426 H 0.02747 0.78539 0.93845 0.0
H1427 H 0.97352 0.76111 0.05792 0.0
C1428 C 0.94551 0.74742 0.00777 0.0
C1429 C 0.93953 0.74164 0.96207 0.0
C1430 C 0.0316 0.78537 0.97392 0.0
C1431 C 0.98731 0.75975 0.99159 0.0
C1432 C 0.05547 0.79979 0.98863 0.0
C1433 C 0.06129 0.80084 0.03464 0.0
C1434 C 0.01322 0.77231 0.00554 0.0
C1435 C 0.04268 0.78645 0.06495 0.0
C1436 C 0.96923 0.75617 0.02273 0.0
C1437 C 0.95776 0.74414 0.93234 0.0
N1438 N 0.01935 0.77309 0.04998 0.0
N1439 N 0.981 0.75345 0.94747 0.0
H1440 H 0.77772 0.7191 0.9775 0.0
H1441 H 0.78471 0.8441 0.03928 0.0
H1442 H 0.83881 0.78964 0.94645 0.0
H1443 H 0.71551 0.78036 0.01126 0.0
H1444 H 0.80495 0.82174 0.01815 0.0
H1445 H 0.75441 0.73888 -0.00073 0.0
C1446 C 0.78616 0.73865 0.97477 0.0
C1447 C 0.81038 0.7527 0.96034 0.0
C1448 C 0.78532 0.81259 0.01675 0.0
C1449 C 0.78406 0.77532 0.98623 0.0
C1450 C 0.77367 0.82531 0.02911 0.0
C1451 C 0.74829 0.81424 0.02659 0.0
C1452 C 0.77161 0.78841 0.00222 0.0
C1453 C 0.73511 0.78968 0.01351 0.0
C1454 C 0.77287 0.74988 0.98734 0.0
C1455 C 0.82033 0.77798 0.95758 0.0
N1456 N 0.74693 0.77756 0.00169 0.0
N1457 N 0.80726 0.78842 0.97088 0.0
H1458 H 0.16354 0.94795 0.04688 0.0
H1459 H 0.28808 0.06514 0.99086 0.0
H1460 H 0.22566 0.93955 0.01991 0.0
H1461 H 0.21916 0.05213 0.93892 0.0
H1462 H 0.26851 0.02212 0.01354 0.0
H1463 H 0.18687 0.99011 0.0234 0.0
C1464 C 0.18218 0.95495 0.03646 0.0
C1465 C 0.19247 0.93992 0.03477 0.0
C1466 C 0.25789 0.02881 0.99675 0.0
C1467 C 0.21942 0.98859 0.00803 0.0
C1468 C 0.269 0.05328 0.98365 0.0
C1469 C 0.25521 0.06244 0.96345 0.0
C1470 C 0.23282 0.01372 0.99039 0.0
C1471 C 0.23054 0.04615 0.95497 0.0
C1472 C 0.19544 0.97907 0.02282 0.0
C1473 C 0.21692 0.9504 0.02146 0.0
N1474 N 0.22011 0.02279 0.96912 0.0
N1475 N 0.22963 0.97417 0.00849 0.0
H1476 H 0.94187 0.22492 0.97088 0.0
H1477 H 0.05406 0.21814 0.06868 0.0
H1478 H 0.95101 0.16238 0.95678 0.0
H1479 H 0.0656 0.28594 0.01336 0.0
H1480 H 0.01236 0.19832 0.04211 0.0
H1481 H 0.98424 0.24865 0.99716 0.0
C1482 C 0.95277 0.21624 0.97279 0.0
C1483 C 0.94274 0.19153 0.96176 0.0
C1484 C 0.02398 0.21757 0.03596 0.0
C1485 C 0.9907 0.21831 0.99286 0.0
C1486 C 0.04783 0.229 0.05136 0.0
C1487 C 0.06361 0.25377 0.04275 0.0
C1488 C 0.0155 0.23092 0.01228 0.0
C1489 C 0.05415 0.26679 0.02051 0.0
C1490 C 0.97687 0.22978 0.98786 0.0
C1491 C 0.95776 0.18127 0.96497 0.0
N1492 N 0.03065 0.25519 0.00589 0.0
N1493 N 0.98078 0.19458 0.98075 0.0
H1494 H 0.88672 0.59768 0.43691 0.0
H1495 H 0.93453 0.55125 0.22987 0.0
H1496 H 0.86303 0.59474 0.2995 0.0
H1497 H 0.92756 0.52428 0.36577 0.0
H1498 H 0.91841 0.57733 0.25559 0.0
H1499 H 0.9121 0.58068 0.41154 0.0
C1500 C 0.88724 0.59388 0.40139 0.0
C1501 C 0.87263 0.5973 0.37029 0.0
C1502 C 0.92073 0.56589 0.27977 0.0
C1503 C 0.90159 0.57831 0.34108 0.0
C1504 C 0.92998 0.55114 0.26514 0.0
C1505 C 0.93202 0.53543 0.29564 0.0
C1506 C 0.91407 0.56523 0.32531 0.0
C1507 C 0.92587 0.53589 0.34105 0.0
C1508 C 0.90156 0.58411 0.38697 0.0
C1509 C 0.87382 0.59202 0.3246 0.0
N1510 N 0.91716 0.55049 0.35451 0.0
N1511 N 0.88798 0.58276 0.31137 0.0
H1512 H 0.45542 0.38108 0.2271 0.0
H1513 H 0.41202 0.28694 0.43338 0.0
H1514 H 0.48603 0.40086 0.36079 0.0
H1515 H 0.41333 0.26575 0.29553 0.0
H1516 H 0.42948 0.32935 0.40812 0.0
H1517 H 0.43008 0.3388 0.25305 0.0
C1518 C 0.45655 0.37656 0.26194 0.0
C1519 C 0.47302 0.39428 0.29171 0.0
C1520 C 0.42565 0.31529 0.38346 0.0
C1521 C 0.44401 0.3465 0.32166 0.0
C1522 C 0.41563 0.29118 0.39782 0.0
C1523 C 0.41156 0.27298 0.36655 0.0
C1524 C 0.43102 0.32099 0.33748 0.0
C1525 C 0.41657 0.27936 0.32079 0.0
C1526 C 0.44221 0.35254 0.27667 0.0
C1527 C 0.47383 0.38759 0.33659 0.0
N1528 N 0.42604 0.30283 0.30761 0.0
N1529 N 0.45954 0.36425 0.35023 0.0
H1530 H 0.59794 0.06545 0.37342 0.0
H1531 H 0.73365 0.14247 0.29884 0.0
H1532 H 0.61938 0.0639 0.236 0.0
H1533 H 0.71526 0.11409 0.43415 0.0
H1534 H 0.69189 0.11482 0.27522 0.0
H1535 H 0.64036 0.08367 0.39709 0.0
C1536 C 0.61162 0.06861 0.34835 0.0
C1537 C 0.60525 0.06321 0.3027 0.0
C1538 C 0.69701 0.11439 0.30995 0.0
C1539 C 0.65383 0.08459 0.32939 0.0
C1540 C 0.72078 0.13029 0.32357 0.0
C1541 C 0.7278 0.13072 0.36865 0.0
C1542 C 0.67989 0.09914 0.34184 0.0
C1543 C 0.71052 0.11433 0.39913 0.0
C1544 C 0.63578 0.07895 0.36191 0.0
C1545 C 0.62358 0.06767 0.27154 0.0
N1546 N 0.68718 0.09948 0.38535 0.0
N1547 N 0.64717 0.07856 0.28533 0.0
H1548 H 0.5081 0.11476 0.28171 0.0
H1549 H 0.38318 0.10756 0.3439 0.0
H1550 H 0.44475 0.04545 0.3107 0.0
H1551 H 0.45367 0.16862 0.37554 0.0
H1552 H 0.40297 0.08424 0.32212 0.0
H1553 H 0.48564 0.13488 0.30289 0.0
C1554 C 0.48937 0.10367 0.29211 0.0
C1555 C 0.47845 0.0783 0.29488 0.0
C1556 C 0.41396 0.1027 0.33416 0.0
C1557 C 0.4525 0.10149 0.3193 0.0
C1558 C 0.40272 0.116 0.34674 0.0
C1559 C 0.41676 0.14023 0.36124 0.0
C1560 C 0.43938 0.1139 0.33536 0.0
C1561 C 0.44202 0.15016 0.36417 0.0
C1562 C 0.47659 0.11526 0.30449 0.0
C1563 C 0.45396 0.06504 0.30825 0.0
N1564 N 0.45247 0.1371 0.35086 0.0
N1565 N 0.44178 0.0768 0.32008 0.0
H1566 H 0.89027 0.27061 0.35338 0.0
H1567 H 0.88379 0.38679 0.27615 0.0
H1568 H 0.82808 0.27967 0.37406 0.0
H1569 H 0.95221 0.3944 0.3185 0.0
H1570 H 0.86352 0.34432 0.2982 0.0
H1571 H 0.91391 0.31354 0.33042 0.0
C1572 C 0.88164 0.28159 0.35357 0.0
C1573 C 0.85704 0.27138 0.36545 0.0
C1574 C 0.88299 0.35524 0.30251 0.0
C1575 C 0.88375 0.32006 0.33819 0.0
C1576 C 0.89467 0.37954 0.28967 0.0
C1577 C 0.91979 0.39442 0.29599 0.0
C1578 C 0.89643 0.34543 0.32135 0.0
C1579 C 0.93281 0.38367 0.31325 0.0
C1580 C 0.89513 0.30602 0.34035 0.0
C1581 C 0.84686 0.28653 0.36499 0.0
N1582 N 0.92096 0.35978 0.32549 0.0
N1583 N 0.86014 0.30992 0.35108 0.0
H1584 H 0.62004 0.49967 0.26694 0.0
H1585 H 0.73351 0.62114 0.35506 0.0
H1586 H 0.6094 0.55735 0.31778 0.0
H1587 H 0.72466 0.54981 0.37355 0.0
H1588 H 0.69089 0.60189 0.32999 0.0
H1589 H 0.66223 0.52237 0.29064 0.0
C1590 C 0.62657 0.51725 0.28262 0.0
C1591 C 0.61091 0.52638 0.29097 0.0
C1592 C 0.69841 0.59061 0.33992 0.0
C1593 C 0.65955 0.55258 0.31813 0.0
C1594 C 0.72264 0.60152 0.35434 0.0
C1595 C 0.73283 0.58711 0.3662 0.0
C1596 C 0.68459 0.56522 0.33644 0.0
C1597 C 0.71783 0.56176 0.36453 0.0
C1598 C 0.6507 0.53013 0.29638 0.0
C1599 C 0.62075 0.54951 0.31093 0.0
N1600 N 0.69467 0.5517 0.34938 0.0
N1601 N 0.6445 0.56184 0.32404 0.0
H1602 H 0.56173 0.84632 0.58165 0.0
H1603 H 0.57081 0.96141 0.70683 0.0
H1604 H 0.63085 0.90058 0.63548 0.0
H1605 H 0.50753 0.88966 0.70258 0.0
H1606 H 0.59468 0.94453 0.67244 0.0
H1607 H 0.5431 0.86823 0.61294 0.0
C1608 C 0.57311 0.86303 0.59971 0.0
C1609 C 0.59785 0.87135 0.60644 0.0
C1610 C 0.5756 0.93264 0.67955 0.0
C1611 C 0.57634 0.89667 0.64327 0.0
C1612 C 0.56199 0.94218 0.69935 0.0
C1613 C 0.53699 0.92704 0.7075 0.0
C1614 C 0.56394 0.90796 0.66735 0.0
C1615 C 0.52659 0.90227 0.69681 0.0
C1616 C 0.56239 0.87553 0.61785 0.0
C1617 C 0.61168 0.89348 0.62956 0.0
N1618 N 0.53999 0.89369 0.67706 0.0
N1619 N 0.60068 0.90533 0.64768 0.0
H1620 H 0.12392 0.71127 0.56686 0.0
H1621 H 0.077 0.61668 0.77315 0.0
H1622 H 0.15039 0.73115 0.7032 0.0
H1623 H 0.08006 0.59606 0.63569 0.0
H1624 H 0.09424 0.65915 0.7481 0.0
H1625 H 0.09801 0.669 0.59214 0.0
C1626 C 0.12401 0.7068 0.60212 0.0
C1627 C 0.13954 0.72457 0.63285 0.0
C1628 C 0.0908 0.6452 0.72344 0.0
C1629 C 0.10986 0.67669 0.66203 0.0
C1630 C 0.08089 0.62106 0.73769 0.0
C1631 C 0.07742 0.60305 0.70647 0.0
C1632 C 0.09671 0.6511 0.67762 0.0
C1633 C 0.08281 0.60957 0.66086 0.0
C1634 C 0.10934 0.68275 0.61649 0.0
C1635 C 0.13898 0.71787 0.67824 0.0
N1636 N 0.09222 0.63305 0.6478 0.0
N1637 N 0.12443 0.69449 0.69145 0.0
H1638 H 0.40484 0.47978 0.62622 0.0
H1639 H 0.27046 0.40336 0.70946 0.0
H1640 H 0.38868 0.45617 0.76469 0.0
H1641 H 0.28996 0.39824 0.5722 0.0
H1642 H 0.31328 0.423 0.73094 0.0
H1643 H 0.36292 0.45083 0.60564 0.0
C1644 C 0.39246 0.46836 0.6523 0.0
C1645 C 0.40017 0.47053 0.69736 0.0
C1646 C 0.3082 0.4172 0.6963 0.0
C1647 C 0.35202 0.43748 0.67397 0.0
C1648 C 0.2838 0.40605 0.68398 0.0
C1649 C 0.27675 0.39923 0.63897 0.0
C1650 C 0.32581 0.4222 0.66314 0.0
C1651 C 0.29469 0.40311 0.60728 0.0
C1652 C 0.36857 0.45172 0.64042 0.0
C1653 C 0.38344 0.45508 0.72961 0.0
N1654 N 0.3185 0.41479 0.6198 0.0
N1655 N 0.35999 0.43948 0.71744 0.0
H1656 H 0.17737 0.44763 0.61613 0.0
H1657 H 0.05327 0.44032 0.685 0.0
H1658 H 0.11503 0.3784 0.64978 0.0
H1659 H 0.12409 0.50148 0.71425 0.0
H1660 H 0.07284 0.417 0.66176 0.0
H1661 H 0.15492 0.46765 0.6381 0.0
C1662 C 0.15886 0.43653 0.6277 0.0
C1663 C 0.14824 0.41123 0.63164 0.0
C1664 C 0.08394 0.43548 0.67362 0.0
C1665 C 0.12232 0.4343 0.65691 0.0
C1666 C 0.07284 0.44878 0.68702 0.0
C1667 C 0.08703 0.47302 0.70137 0.0
C1668 C 0.10937 0.44671 0.67378 0.0
C1669 C 0.11232 0.48299 0.7032 0.0
C1670 C 0.14609 0.44806 0.64051 0.0
C1671 C 0.12401 0.39794 0.64642 0.0
N1672 N 0.12262 0.46993 0.68907 0.0
N1673 N 0.11183 0.40965 0.65868 0.0
H1674 H 0.56186 0.61392 0.69262 0.0
H1675 H 0.56009 0.72473 0.5714 0.0
H1676 H 0.49729 0.61869 0.67078 0.0
H1677 H 0.62237 0.73697 0.65008 0.0
H1678 H 0.5393 0.68233 0.59415 0.0
H1679 H 0.5865 0.65631 0.66683 0.0
C1680 C 0.55287 0.62384 0.68274 0.0
C1681 C 0.52742 0.61264 0.68391 0.0
C1682 C 0.55759 0.69424 0.60623 0.0
C1683 C 0.55536 0.66064 0.6534 0.0
C1684 C 0.56957 0.7185 0.59307 0.0
C1685 C 0.59294 0.73466 0.60939 0.0
C1686 C 0.56902 0.68579 0.6356 0.0
C1687 C 0.60431 0.72523 0.63689 0.0
C1688 C 0.56693 0.64795 0.66799 0.0
C1689 C 0.51677 0.62641 0.67061 0.0
N1690 N 0.59218 0.70138 0.6494 0.0
N1691 N 0.53074 0.64948 0.65557 0.0
H1692 H 0.27699 0.89026 0.64468 0.0
H1693 H 0.3906 0.88653 0.74467 0.0
H1694 H 0.2862 0.82752 0.63781 0.0
H1695 H 0.40156 0.95213 0.68008 0.0
H1696 H 0.3483 0.86611 0.72133 0.0
H1697 H 0.31958 0.91474 0.66958 0.0
C1698 C 0.28792 0.88166 0.64798 0.0
C1699 C 0.27785 0.85669 0.63932 0.0
C1700 C 0.35993 0.88504 0.71253 0.0
C1701 C 0.32605 0.88435 0.66892 0.0
C1702 C 0.38413 0.89681 0.72604 0.0
C1703 C 0.39992 0.92106 0.71374 0.0
C1704 C 0.35113 0.89757 0.68707 0.0
C1705 C 0.39012 0.93338 0.69005 0.0
C1706 C 0.31214 0.89563 0.66227 0.0
C1707 C 0.29293 0.84658 0.64424 0.0
N1708 N 0.36631 0.92147 0.67727 0.0
N1709 N 0.31606 0.86033 0.65922 0.0
loop_
_geom_bond_atom_site_label_1
_geom_bond_atom_site_label_2
_geom_bond_distance
_geom_bond_site_symmetry_2
_ccdc_geom_bond_type
Co0 O2 2.143 . S
Co0 O8 2.074 1_554 S
Co0 O11 2.093 . S
Co0 O24 2.097 . S
Co0 N41 2.151 . S
Co0 N49 2.214 . S
Co1 O2 2.160 . S
Co1 O7 2.058 1_554 S
Co1 O17 2.057 . S
Co1 O32 2.037 . S
Co1 N36 2.145 1_554 S
Co1 N57 2.257 . S
O2 Co0 2.143 . S
O2 Co1 2.160 . S
C3 O4 1.278 . S
C3 O11 1.224 . S
O4 C3 1.278 . S
C5 O6 1.245 . S
C5 O17 1.232 . S
O6 C5 1.245 . S
O7 Co1 2.058 1_556 S
O7 C33 1.269 . S
O8 Co0 2.074 1_556 S
O8 C33 1.257 . S
H9 C34 0.930 . S
H10 C40 0.930 . S
O11 Co0 2.093 . S
O11 C3 1.224 . S
H12 C44 0.929 . S
H13 C46 0.930 . S
H14 C47 0.930 . S
H15 C45 0.929 . S
H16 C48 0.928 . S
O17 Co1 2.057 . S
O17 C5 1.232 . S
H18 C37 0.929 . S
H19 C38 0.929 . S
H20 C50 0.935 . S
H21 C42 0.929 . S
H22 C51 0.930 . S
H23 C43 0.931 . S
O24 Co0 2.097 . S
O24 C52 1.214 . S
H25 C53 0.929 . S
H26 C54 0.929 . S
H27 C55 0.930 . S
H28 C56 0.929 . S
H29 C58 0.930 . S
H30 C35 0.930 . S
H31 C39 0.930 . S
O32 Co1 2.037 . S
O32 C52 1.234 . S
C33 O7 1.269 . S
C33 O8 1.257 . S
C34 H9 0.930 . S
C34 C37 1.388 . S
C34 C39 1.418 . S
C35 H30 0.930 . S
C35 C38 1.404 . S
C35 C39 1.353 . S
N36 Co1 2.145 1_556 S
N36 C37 1.397 . S
N36 C38 1.334 . S
C37 H18 0.929 . S
C37 C34 1.388 . S
C37 N36 1.397 . S
C38 H19 0.929 . S
C38 C35 1.404 . S
C38 N36 1.334 . S
C39 H31 0.930 . S
C39 C34 1.418 . S
C39 C35 1.353 . S
C40 H10 0.930 . S
C40 N41 1.330 . S
C40 C42 1.446 . S
N41 Co0 2.151 . S
N41 C40 1.330 . S
N41 C45 1.418 . S
C42 H21 0.929 . S
C42 C40 1.446 . S
C42 C43 1.332 . S
C43 H23 0.931 . S
C43 C42 1.332 . S
C43 C44 1.267 . S
C44 H12 0.929 . S
C44 C43 1.267 . S
C44 C45 1.251 . S
C45 H15 0.929 . S
C45 N41 1.418 . S
C45 C44 1.251 . S
C46 H13 0.930 . S
C46 C48 1.406 . S
C46 C51 1.261 . S
C47 H14 0.930 . S
C47 N49 1.325 . S
C47 C50 1.357 . S
C48 H16 0.928 . S
C48 C46 1.406 . S
C48 N49 1.261 . S
N49 Co0 2.214 . S
N49 C47 1.325 . S
N49 C48 1.261 . S
C50 H20 0.935 . S
C50 C47 1.357 . S
C50 C51 1.312 . S
C51 H22 0.930 . S
C51 C46 1.261 . S
C51 C50 1.312 . S
C52 O24 1.214 . S
C52 O32 1.234 . S
C53 H25 0.929 . S
C53 C56 1.391 . S
C53 C58 1.391 . S
C54 H26 0.929 . S
C54 C55 1.390 . S
C54 N57 1.391 . S
C55 H27 0.930 . S
C55 C54 1.390 . S
C55 C56 1.392 . S
C56 H28 0.929 . S
C56 C53 1.391 . S
C56 C55 1.392 . S
N57 Co1 2.257 . S
N57 C54 1.391 . S
N57 C58 1.388 . S
C58 H29 0.930 . S
C58 C53 1.391 . S
C58 N57 1.388 . S
Co59 O61 2.143 . S
Co59 O67 2.074 . S
Co59 O70 2.093 . S
Co59 O83 2.097 1_554 S
Co59 N100 2.151 . S
Co59 N108 2.214 1_554 S
Co60 O61 2.160 . S
Co60 O66 2.058 . S
Co60 O76 2.057 . S
Co60 O91 2.037 1_554 S
Co60 N95 2.145 . S
Co60 N116 2.257 . S
O61 Co59 2.143 . S
O61 Co60 2.160 . S
C62 O63 1.278 . S
C62 O70 1.224 . S
O63 C62 1.278 . S
C64 O65 1.245 . S
C64 O76 1.232 . S
O65 C64 1.245 . S
O66 Co60 2.058 . S
O66 C92 1.269 . S
O67 Co59 2.074 . S
O67 C92 1.257 . S
H68 C93 0.930 . S
H69 C99 0.930 . S
O70 Co59 2.093 . S
O70 C62 1.224 . S
H71 C103 0.929 . S
H72 C105 0.930 . S
H73 C106 0.930 . S
H74 C104 0.929 . S
H75 C107 0.928 . S
O76 Co60 2.057 . S
O76 C64 1.232 . S
H77 C96 0.929 . S
H78 C97 0.929 . S
H79 C109 0.931 . S
H80 C101 0.929 . S
H81 C110 0.930 . S
H82 C102 0.931 . S
O83 Co59 2.097 1_556 S
O83 C111 1.214 . S
H84 C112 0.929 . S
H85 C113 0.929 . S
H86 C114 0.930 . S
H87 C115 0.929 . S
H88 C117 0.930 . S
H89 C94 0.930 . S
H90 C98 0.930 . S
O91 Co60 2.037 1_556 S
O91 C111 1.234 . S
C92 O66 1.269 . S
C92 O67 1.257 . S
C93 H68 0.930 . S
C93 C96 1.388 . S
C93 C98 1.418 . S
C94 H89 0.930 . S
C94 C97 1.404 . S
C94 C98 1.353 . S
N95 Co60 2.145 . S
N95 C96 1.397 . S
N95 C97 1.334 . S
C96 H77 0.929 . S
C96 C93 1.388 . S
C96 N95 1.397 . S
C97 H78 0.929 . S
C97 C94 1.404 . S
C97 N95 1.334 . S
C98 H90 0.930 . S
C98 C93 1.418 . S
C98 C94 1.353 . S
C99 H69 0.930 . S
C99 N100 1.330 . S
C99 C101 1.446 . S
N100 Co59 2.151 . S
N100 C99 1.330 . S
N100 C104 1.418 . S
C101 H80 0.929 . S
C101 C99 1.446 . S
C101 C102 1.332 . S
C102 H82 0.931 . S
C102 C101 1.332 . S
C102 C103 1.267 . S
C103 H71 0.929 . S
C103 C102 1.267 . S
C103 C104 1.251 . S
C104 H74 0.929 . S
C104 N100 1.418 . S
C104 C103 1.251 . S
C105 H72 0.930 . S
C105 C107 1.406 . S
C105 C110 1.261 . S
C106 H73 0.930 . S
C106 N108 1.325 . S
C106 C109 1.357 . S
C107 H75 0.928 . S
C107 C105 1.406 . S
C107 N108 1.261 . S
N108 Co59 2.214 1_556 S
N108 C106 1.325 . S
N108 C107 1.261 . S
C109 H79 0.931 . S
C109 C106 1.357 . S
C109 C110 1.312 . S
C110 H81 0.930 . S
C110 C105 1.261 . S
C110 C109 1.312 . S
C111 O83 1.214 . S
C111 O91 1.234 . S
C112 H84 0.929 . S
C112 C115 1.391 . S
C112 C117 1.391 . S
C113 H85 0.929 . S
C113 C114 1.390 . S
C113 N116 1.391 . S
C114 H86 0.930 . S
C114 C113 1.390 . S
C114 C115 1.392 . S
C115 H87 0.929 . S
C115 C112 1.391 . S
C115 C114 1.392 . S
N116 Co60 2.257 . S
N116 C113 1.391 . S
N116 C117 1.388 . S
C117 H88 0.930 . S
C117 C112 1.391 . S
C117 N116 1.388 . S
Co118 O120 2.143 . S
Co118 O126 2.074 . S
Co118 O129 2.093 . S
Co118 O142 2.097 1_554 S
Co118 N159 2.151 . S
Co118 N167 2.214 1_554 S
Co119 O120 2.160 . S
Co119 O125 2.058 . S
Co119 O135 2.057 . S
Co119 O150 2.037 1_554 S
Co119 N154 2.145 . S
Co119 N175 2.257 . S
O120 Co118 2.143 . S
O120 Co119 2.160 . S
C121 O122 1.278 . S
C121 O129 1.224 . S
O122 C121 1.278 . S
C123 O124 1.245 . S
C123 O135 1.232 . S
O124 C123 1.245 . S
O125 Co119 2.058 . S
O125 C151 1.269 . S
O126 Co118 2.074 . S
O126 C151 1.257 . S
H127 C152 0.930 . S
H128 C158 0.930 . S
O129 Co118 2.093 . S
O129 C121 1.224 . S
H130 C162 0.929 . S
H131 C164 0.930 . S
H132 C165 0.930 . S
H133 C163 0.929 . S
H134 C166 0.928 . S
O135 Co119 2.057 . S
O135 C123 1.232 . S
H136 C155 0.929 . S
H137 C156 0.929 . S
H138 C168 0.931 . S
H139 C160 0.929 . S
H140 C169 0.930 . S
H141 C161 0.931 . S
O142 Co118 2.097 1_556 S
O142 C170 1.214 . S
H143 C171 0.929 . S
H144 C172 0.929 . S
H145 C173 0.930 . S
H146 C174 0.929 . S
H147 C176 0.930 . S
H148 C153 0.930 . S
H149 C157 0.930 . S
O150 Co119 2.037 1_556 S
O150 C170 1.234 . S
C151 O125 1.269 . S
C151 O126 1.257 . S
C152 H127 0.930 . S
C152 C155 1.388 . S
C152 C157 1.418 . S
C153 H148 0.930 . S
C153 C156 1.404 . S
C153 C157 1.353 . S
N154 Co119 2.145 . S
N154 C155 1.397 . S
N154 C156 1.334 . S
C155 H136 0.929 . S
C155 C152 1.388 . S
C155 N154 1.397 . S
C156 H137 0.929 . S
C156 C153 1.404 . S
C156 N154 1.334 . S
C157 H149 0.930 . S
C157 C152 1.418 . S
C157 C153 1.353 . S
C158 H128 0.930 . S
C158 N159 1.330 . S
C158 C160 1.446 . S
N159 Co118 2.151 . S
N159 C158 1.330 . S
N159 C163 1.418 . S
C160 H139 0.929 . S
C160 C158 1.446 . S
C160 C161 1.332 . S
C161 H141 0.931 . S
C161 C160 1.332 . S
C161 C162 1.267 . S
C162 H130 0.929 . S
C162 C161 1.267 . S
C162 C163 1.251 . S
C163 H133 0.929 . S
C163 N159 1.418 . S
C163 C162 1.251 . S
C164 H131 0.930 . S
C164 C166 1.406 . S
C164 C169 1.261 . S
C165 H132 0.930 . S
C165 N167 1.325 . S
C165 C168 1.357 . S
C166 H134 0.928 . S
C166 C164 1.406 . S
C166 N167 1.261 . S
N167 Co118 2.214 1_556 S
N167 C165 1.325 . S
N167 C166 1.261 . S
C168 H138 0.931 . S
C168 C165 1.357 . S
C168 C169 1.312 . S
C169 H140 0.930 . S
C169 C164 1.261 . S
C169 C168 1.312 . S
C170 O142 1.214 . S
C170 O150 1.234 . S
C171 H143 0.929 . S
C171 C174 1.391 . S
C171 C176 1.391 . S
C172 H144 0.929 . S
C172 C173 1.390 . S
C172 N175 1.391 . S
C173 H145 0.930 . S
C173 C172 1.390 . S
C173 C174 1.392 . S
C174 H146 0.929 . S
C174 C171 1.391 . S
C174 C173 1.392 . S
N175 Co119 2.257 . S
N175 C172 1.391 . S
N175 C176 1.388 . S
C176 H147 0.930 . S
C176 C171 1.391 . S
C176 N175 1.388 . S
Co177 O179 2.143 . S
Co177 O185 2.074 . S
Co177 O188 2.093 . S
Co177 O201 2.097 1_556 S
Co177 N218 2.151 . S
Co177 N226 2.214 1_556 S
Co178 O179 2.160 . S
Co178 O184 2.058 . S
Co178 O194 2.057 . S
Co178 O209 2.037 1_556 S
Co178 N213 2.145 . S
Co178 N234 2.257 . S
O179 Co177 2.143 . S
O179 Co178 2.160 . S
C180 O181 1.278 . S
C180 O188 1.224 . S
O181 C180 1.278 . S
C182 O183 1.245 . S
C182 O194 1.232 . S
O183 C182 1.245 . S
O184 Co178 2.058 . S
O184 C210 1.269 . S
O185 Co177 2.074 . S
O185 C210 1.257 . S
H186 C211 0.930 . S
H187 C217 0.930 . S
O188 Co177 2.093 . S
O188 C180 1.224 . S
H189 C221 0.929 . S
H190 C223 0.930 . S
H191 C224 0.930 . S
H192 C222 0.929 . S
H193 C225 0.928 . S
O194 Co178 2.057 . S
O194 C182 1.232 . S
H195 C214 0.929 . S
H196 C215 0.929 . S
H197 C227 0.931 . S
H198 C219 0.929 . S
H199 C228 0.930 . S
H200 C220 0.931 . S
O201 Co177 2.097 1_554 S
O201 C229 1.214 . S
H202 C230 0.929 . S
H203 C231 0.929 . S
H204 C232 0.930 . S
H205 C233 0.929 . S
H206 C235 0.930 . S
H207 C212 0.930 . S
H208 C216 0.930 . S
O209 Co178 2.037 1_554 S
O209 C229 1.234 . S
C210 O184 1.269 . S
C210 O185 1.257 . S
C211 H186 0.930 . S
C211 C214 1.388 . S
C211 C216 1.418 . S
C212 H207 0.930 . S
C212 C215 1.404 . S
C212 C216 1.353 . S
N213 Co178 2.145 . S
N213 C214 1.397 . S
N213 C215 1.334 . S
C214 H195 0.929 . S
C214 C211 1.388 . S
C214 N213 1.397 . S
C215 H196 0.929 . S
C215 C212 1.404 . S
C215 N213 1.334 . S
C216 H208 0.930 . S
C216 C211 1.418 . S
C216 C212 1.353 . S
C217 H187 0.930 . S
C217 N218 1.330 . S
C217 C219 1.446 . S
N218 Co177 2.151 . S
N218 C217 1.330 . S
N218 C222 1.418 . S
C219 H198 0.929 . S
C219 C217 1.446 . S
C219 C220 1.332 . S
C220 H200 0.931 . S
C220 C219 1.332 . S
C220 C221 1.267 . S
C221 H189 0.929 . S
C221 C220 1.267 . S
C221 C222 1.251 . S
C222 H192 0.929 . S
C222 N218 1.418 . S
C222 C221 1.251 . S
C223 H190 0.930 . S
C223 C225 1.406 . S
C223 C228 1.261 . S
C224 H191 0.930 . S
C224 N226 1.325 . S
C224 C227 1.357 . S
C225 H193 0.928 . S
C225 C223 1.406 . S
C225 N226 1.261 . S
N226 Co177 2.214 1_554 S
N226 C224 1.325 . S
N226 C225 1.261 . S
C227 H197 0.931 . S
C227 C224 1.357 . S
C227 C228 1.312 . S
C228 H199 0.930 . S
C228 C223 1.261 . S
C228 C227 1.312 . S
C229 O201 1.214 . S
C229 O209 1.234 . S
C230 H202 0.929 . S
C230 C233 1.391 . S
C230 C235 1.391 . S
C231 H203 0.929 . S
C231 C232 1.390 . S
C231 N234 1.391 . S
C232 H204 0.930 . S
C232 C231 1.390 . S
C232 C233 1.392 . S
C233 H205 0.929 . S
C233 C230 1.391 . S
C233 C232 1.392 . S
N234 Co178 2.257 . S
N234 C231 1.391 . S
N234 C235 1.388 . S
C235 H206 0.930 . S
C235 C230 1.391 . S
C235 N234 1.388 . S
Co236 O238 2.143 . S
Co236 O244 2.074 . S
Co236 O247 2.093 . S
Co236 O260 2.097 1_556 S
Co236 N277 2.151 . S
Co236 N285 2.214 1_556 S
Co237 O238 2.160 . S
Co237 O243 2.058 . S
Co237 O253 2.057 . S
Co237 O268 2.037 1_556 S
Co237 N272 2.145 . S
Co237 N293 2.257 . S
O238 Co236 2.143 . S
O238 Co237 2.160 . S
C239 O240 1.278 . S
C239 O247 1.224 . S
O240 C239 1.278 . S
C241 O242 1.245 . S
C241 O253 1.232 . S
O242 C241 1.245 . S
O243 Co237 2.058 . S
O243 C269 1.269 . S
O244 Co236 2.074 . S
O244 C269 1.257 . S
H245 C270 0.930 . S
H246 C276 0.930 . S
O247 Co236 2.093 . S
O247 C239 1.224 . S
H248 C280 0.929 . S
H249 C282 0.930 . S
H250 C283 0.930 . S
H251 C281 0.929 . S
H252 C284 0.928 . S
O253 Co237 2.057 . S
O253 C241 1.232 . S
H254 C273 0.929 . S
H255 C274 0.929 . S
H256 C286 0.931 . S
H257 C278 0.929 . S
H258 C287 0.930 . S
H259 C279 0.931 . S
O260 Co236 2.097 1_554 S
O260 C288 1.214 . S
H261 C289 0.929 . S
H262 C290 0.929 . S
H263 C291 0.930 . S
H264 C292 0.929 . S
H265 C294 0.930 . S
H266 C271 0.930 . S
H267 C275 0.930 . S
O268 Co237 2.037 1_554 S
O268 C288 1.234 . S
C269 O243 1.269 . S
C269 O244 1.257 . S
C270 H245 0.930 . S
C270 C273 1.388 . S
C270 C275 1.418 . S
C271 H266 0.930 . S
C271 C274 1.404 . S
C271 C275 1.353 . S
N272 Co237 2.145 . S
N272 C273 1.397 . S
N272 C274 1.334 . S
C273 H254 0.929 . S
C273 C270 1.388 . S
C273 N272 1.397 . S
C274 H255 0.929 . S
C274 C271 1.404 . S
C274 N272 1.334 . S
C275 H267 0.930 . S
C275 C270 1.418 . S
C275 C271 1.353 . S
C276 H246 0.930 . S
C276 N277 1.330 . S
C276 C278 1.446 . S
N277 Co236 2.151 . S
N277 C276 1.330 . S
N277 C281 1.418 . S
C278 H257 0.929 . S
C278 C276 1.446 . S
C278 C279 1.332 . S
C279 H259 0.931 . S
C279 C278 1.332 . S
C279 C280 1.267 . S
C280 H248 0.929 . S
C280 C279 1.267 . S
C280 C281 1.251 . S
C281 H251 0.929 . S
C281 N277 1.418 . S
C281 C280 1.251 . S
C282 H249 0.930 . S
C282 C284 1.406 . S
C282 C287 1.261 . S
C283 H250 0.930 . S
C283 N285 1.325 . S
C283 C286 1.357 . S
C284 H252 0.928 . S
C284 C282 1.406 . S
C284 N285 1.261 . S
N285 Co236 2.214 1_554 S
N285 C283 1.325 . S
N285 C284 1.261 . S
C286 H256 0.931 . S
C286 C283 1.357 . S
C286 C287 1.312 . S
C287 H258 0.930 . S
C287 C282 1.261 . S
C287 C286 1.312 . S
C288 O260 1.214 . S
C288 O268 1.234 . S
C289 H261 0.929 . S
C289 C292 1.391 . S
C289 C294 1.391 . S
C290 H262 0.929 . S
C290 C291 1.390 . S
C290 N293 1.391 . S
C291 H263 0.930 . S
C291 C290 1.390 . S
C291 C292 1.392 . S
C292 H264 0.929 . S
C292 C289 1.391 . S
C292 C291 1.392 . S
N293 Co237 2.257 . S
N293 C290 1.391 . S
N293 C294 1.388 . S
C294 H265 0.930 . S
C294 C289 1.391 . S
C294 N293 1.388 . S
Co295 O297 2.143 . S
Co295 O303 2.074 1_556 S
Co295 O306 2.093 . S
Co295 O319 2.097 . S
Co295 N336 2.151 . S
Co295 N344 2.214 . S
Co296 O297 2.160 . S
Co296 O302 2.058 1_556 S
Co296 O312 2.057 . S
Co296 O327 2.037 . S
Co296 N331 2.145 1_556 S
Co296 N352 2.257 . S
O297 Co295 2.143 . S
O297 Co296 2.160 . S
C298 O299 1.278 . S
C298 O306 1.224 . S
O299 C298 1.278 . S
C300 O301 1.245 . S
C300 O312 1.232 . S
O301 C300 1.245 . S
O302 Co296 2.058 1_554 S
O302 C328 1.269 . S
O303 Co295 2.074 1_554 S
O303 C328 1.257 . S
H304 C329 0.930 . S
H305 C335 0.930 . S
O306 Co295 2.093 . S
O306 C298 1.224 . S
H307 C339 0.929 . S
H308 C341 0.930 . S
H309 C342 0.930 . S
H310 C340 0.929 . S
H311 C343 0.928 . S
O312 Co296 2.057 . S
O312 C300 1.232 . S
H313 C332 0.929 . S
H314 C333 0.929 . S
H315 C345 0.935 . S
H316 C337 0.929 . S
H317 C346 0.930 . S
H318 C338 0.931 . S
O319 Co295 2.097 . S
O319 C347 1.214 . S
H320 C348 0.929 . S
H321 C349 0.929 . S
H322 C350 0.930 . S
H323 C351 0.929 . S
H324 C353 0.930 . S
H325 C330 0.930 . S
H326 C334 0.930 . S
O327 Co296 2.037 . S
O327 C347 1.234 . S
C328 O302 1.269 . S
C328 O303 1.257 . S
C329 H304 0.930 . S
C329 C332 1.388 . S
C329 C334 1.418 . S
C330 H325 0.930 . S
C330 C333 1.404 . S
C330 C334 1.353 . S
N331 Co296 2.145 1_554 S
N331 C332 1.397 . S
N331 C333 1.334 . S
C332 H313 0.929 . S
C332 C329 1.388 . S
C332 N331 1.397 . S
C333 H314 0.929 . S
C333 C330 1.404 . S
C333 N331 1.334 . S
C334 H326 0.930 . S
C334 C329 1.418 . S
C334 C330 1.353 . S
C335 H305 0.930 . S
C335 N336 1.330 . S
C335 C337 1.446 . S
N336 Co295 2.151 . S
N336 C335 1.330 . S
N336 C340 1.418 . S
C337 H316 0.929 . S
C337 C335 1.446 . S
C337 C338 1.332 . S
C338 H318 0.931 . S
C338 C337 1.332 . S
C338 C339 1.267 . S
C339 H307 0.929 . S
C339 C338 1.267 . S
C339 C340 1.251 . S
C340 H310 0.929 . S
C340 N336 1.418 . S
C340 C339 1.251 . S
C341 H308 0.930 . S
C341 C343 1.406 . S
C341 C346 1.261 . S
C342 H309 0.930 . S
C342 N344 1.325 . S
C342 C345 1.357 . S
C343 H311 0.928 . S
C343 C341 1.406 . S
C343 N344 1.261 . S
N344 Co295 2.214 . S
N344 C342 1.325 . S
N344 C343 1.261 . S
C345 H315 0.935 . S
C345 C342 1.357 . S
C345 C346 1.312 . S
C346 H317 0.930 . S
C346 C341 1.261 . S
C346 C345 1.312 . S
C347 O319 1.214 . S
C347 O327 1.234 . S
C348 H320 0.929 . S
C348 C351 1.391 . S
C348 C353 1.391 . S
C349 H321 0.929 . S
C349 C350 1.390 . S
C349 N352 1.391 . S
C350 H322 0.930 . S
C350 C349 1.390 . S
C350 C351 1.392 . S
C351 H323 0.929 . S
C351 C348 1.391 . S
C351 C350 1.392 . S
N352 Co296 2.257 . S
N352 C349 1.391 . S
N352 C353 1.388 . S
C353 H324 0.930 . S
C353 C348 1.391 . S
C353 N352 1.388 . S
Co354 O356 2.143 . S
Co354 O362 2.074 . S
Co354 O365 2.093 . S
Co354 O378 2.097 . S
Co354 N395 2.151 . S
Co354 N403 2.214 . S
Co355 O356 2.160 . S
Co355 O361 2.058 . S
Co355 O371 2.057 . S
Co355 O386 2.037 . S
Co355 N390 2.145 . S
Co355 N411 2.257 . S
O356 Co354 2.143 . S
O356 Co355 2.160 . S
C357 O358 1.278 . S
C357 O365 1.224 . S
O358 C357 1.278 . S
C359 O360 1.245 . S
C359 O371 1.232 . S
O360 C359 1.245 . S
O361 Co355 2.058 . S
O361 C387 1.269 . S
O362 Co354 2.074 . S
O362 C387 1.257 . S
H363 C388 0.930 . S
H364 C394 0.930 . S
O365 Co354 2.093 . S
O365 C357 1.224 . S
H366 C398 0.929 . S
H367 C400 0.930 . S
H368 C401 0.930 . S
H369 C399 0.929 . S
H370 C402 0.928 . S
O371 Co355 2.057 . S
O371 C359 1.232 . S
H372 C391 0.929 . S
H373 C392 0.929 . S
H374 C404 0.931 . S
H375 C396 0.929 . S
H376 C405 0.930 . S
H377 C397 0.931 . S
O378 Co354 2.097 . S
O378 C406 1.214 . S
H379 C407 0.929 . S
H380 C408 0.929 . S
H381 C409 0.930 . S
H382 C410 0.929 . S
H383 C412 0.930 . S
H384 C389 0.930 . S
H385 C393 0.930 . S
O386 Co355 2.037 . S
O386 C406 1.234 . S
C387 O361 1.269 . S
C387 O362 1.257 . S
C388 H363 0.930 . S
C388 C391 1.388 . S
C388 C393 1.418 . S
C389 H384 0.930 . S
C389 C392 1.404 . S
C389 C393 1.353 . S
N390 Co355 2.145 . S
N390 C391 1.397 . S
N390 C392 1.334 . S
C391 H372 0.929 . S
C391 C388 1.388 . S
C391 N390 1.397 . S
C392 H373 0.929 . S
C392 C389 1.404 . S
C392 N390 1.334 . S
C393 H385 0.930 . S
C393 C388 1.418 . S
C393 C389 1.353 . S
C394 H364 0.930 . S
C394 N395 1.330 . S
C394 C396 1.446 . S
N395 Co354 2.151 . S
N395 C394 1.330 . S
N395 C399 1.418 . S
C396 H375 0.929 . S
C396 C394 1.446 . S
C396 C397 1.332 . S
C397 H377 0.931 . S
C397 C396 1.332 . S
C397 C398 1.267 . S
C398 H366 0.929 . S
C398 C397 1.267 . S
C398 C399 1.251 . S
C399 H369 0.929 . S
C399 N395 1.418 . S
C399 C398 1.251 . S
C400 H367 0.930 . S
C400 C402 1.406 . S
C400 C405 1.261 . S
C401 H368 0.930 . S
C401 N403 1.325 . S
C401 C404 1.357 . S
C402 H370 0.928 . S
C402 C400 1.406 . S
C402 N403 1.261 . S
N403 Co354 2.214 . S
N403 C401 1.325 . S
N403 C402 1.261 . S
C404 H374 0.931 . S
C404 C401 1.357 . S
C404 C405 1.312 . S
C405 H376 0.930 . S
C405 C400 1.261 . S
C405 C404 1.312 . S
C406 O378 1.214 . S
C406 O386 1.234 . S
C407 H379 0.929 . S
C407 C410 1.391 . S
C407 C412 1.391 . S
C408 H380 0.929 . S
C408 C409 1.390 . S
C408 N411 1.391 . S
C409 H381 0.930 . S
C409 C408 1.390 . S
C409 C410 1.392 . S
C410 H382 0.929 . S
C410 C407 1.391 . S
C410 C409 1.392 . S
N411 Co355 2.257 . S
N411 C408 1.391 . S
N411 C412 1.388 . S
C412 H383 0.930 . S
C412 C407 1.391 . S
C412 N411 1.388 . S
Co413 O415 2.143 . S
Co413 O421 2.074 . S
Co413 O424 2.093 . S
Co413 O437 2.097 . S
Co413 N454 2.151 . S
Co413 N462 2.214 . S
Co414 O415 2.160 . S
Co414 O420 2.058 . S
Co414 O430 2.057 . S
Co414 O445 2.037 . S
Co414 N449 2.145 . S
Co414 N470 2.257 . S
O415 Co413 2.143 . S
O415 Co414 2.160 . S
C416 O417 1.278 . S
C416 O424 1.224 . S
O417 C416 1.278 . S
C418 O419 1.245 . S
C418 O430 1.232 . S
O419 C418 1.245 . S
O420 Co414 2.058 . S
O420 C446 1.269 . S
O421 Co413 2.074 . S
O421 C446 1.257 . S
H422 C447 0.930 . S
H423 C453 0.930 . S
O424 Co413 2.093 . S
O424 C416 1.224 . S
H425 C457 0.929 . S
H426 C459 0.930 . S
H427 C460 0.930 . S
H428 C458 0.929 . S
H429 C461 0.928 . S
O430 Co414 2.057 . S
O430 C418 1.232 . S
H431 C450 0.929 . S
H432 C451 0.929 . S
H433 C463 0.931 . S
H434 C455 0.929 . S
H435 C464 0.930 . S
H436 C456 0.931 . S
O437 Co413 2.097 . S
O437 C465 1.214 . S
H438 C466 0.929 . S
H439 C467 0.929 . S
H440 C468 0.930 . S
H441 C469 0.929 . S
H442 C471 0.930 . S
H443 C448 0.930 . S
H444 C452 0.930 . S
O445 Co414 2.037 . S
O445 C465 1.234 . S
C446 O420 1.269 . S
C446 O421 1.257 . S
C447 H422 0.930 . S
C447 C450 1.388 . S
C447 C452 1.418 . S
C448 H443 0.930 . S
C448 C451 1.404 . S
C448 C452 1.353 . S
N449 Co414 2.145 . S
N449 C450 1.397 . S
N449 C451 1.334 . S
C450 H431 0.929 . S
C450 C447 1.388 . S
C450 N449 1.397 . S
C451 H432 0.929 . S
C451 C448 1.404 . S
C451 N449 1.334 . S
C452 H444 0.930 . S
C452 C447 1.418 . S
C452 C448 1.353 . S
C453 H423 0.930 . S
C453 N454 1.330 . S
C453 C455 1.446 . S
N454 Co413 2.151 . S
N454 C453 1.330 . S
N454 C458 1.418 . S
C455 H434 0.929 . S
C455 C453 1.446 . S
C455 C456 1.332 . S
C456 H436 0.931 . S
C456 C455 1.332 . S
C456 C457 1.267 . S
C457 H425 0.929 . S
C457 C456 1.267 . S
C457 C458 1.251 . S
C458 H428 0.929 . S
C458 N454 1.418 . S
C458 C457 1.251 . S
C459 H426 0.930 . S
C459 C461 1.406 . S
C459 C464 1.261 . S
C460 H427 0.930 . S
C460 N462 1.325 . S
C460 C463 1.357 . S
C461 H429 0.928 . S
C461 C459 1.406 . S
C461 N462 1.261 . S
N462 Co413 2.214 . S
N462 C460 1.325 . S
N462 C461 1.261 . S
C463 H433 0.931 . S
C463 C460 1.357 . S
C463 C464 1.312 . S
C464 H435 0.930 . S
C464 C459 1.261 . S
C464 C463 1.312 . S
C465 O437 1.214 . S
C465 O445 1.234 . S
C466 H438 0.929 . S
C466 C469 1.391 . S
C466 C471 1.391 . S
C467 H439 0.929 . S
C467 C468 1.390 . S
C467 N470 1.391 . S
C468 H440 0.930 . S
C468 C467 1.390 . S
C468 C469 1.392 . S
C469 H441 0.929 . S
C469 C466 1.391 . S
C469 C468 1.392 . S
N470 Co414 2.257 . S
N470 C467 1.391 . S
N470 C471 1.388 . S
C471 H442 0.930 . S
C471 C466 1.391 . S
C471 N470 1.388 . S
Co472 O474 2.143 . S
Co472 O480 2.074 . S
Co472 O483 2.093 . S
Co472 O496 2.097 . S
Co472 N513 2.151 . S
Co472 N521 2.214 . S
Co473 O474 2.160 . S
Co473 O479 2.058 . S
Co473 O489 2.057 . S
Co473 O504 2.037 . S
Co473 N508 2.145 . S
Co473 N529 2.257 . S
O474 Co472 2.143 . S
O474 Co473 2.160 . S
C475 O476 1.278 . S
C475 O483 1.224 . S
O476 C475 1.278 . S
C477 O478 1.245 . S
C477 O489 1.232 . S
O478 C477 1.245 . S
O479 Co473 2.058 . S
O479 C505 1.269 . S
O480 Co472 2.074 . S
O480 C505 1.257 . S
H481 C506 0.930 . S
H482 C512 0.930 . S
O483 Co472 2.093 . S
O483 C475 1.224 . S
H484 C516 0.929 . S
H485 C518 0.930 . S
H486 C519 0.930 . S
H487 C517 0.929 . S
H488 C520 0.928 . S
O489 Co473 2.057 . S
O489 C477 1.232 . S
H490 C509 0.929 . S
H491 C510 0.929 . S
H492 C522 0.931 . S
H493 C514 0.929 . S
H494 C523 0.930 . S
H495 C515 0.931 . S
O496 Co472 2.097 . S
O496 C524 1.214 . S
H497 C525 0.929 . S
H498 C526 0.929 . S
H499 C527 0.930 . S
H500 C528 0.929 . S
H501 C530 0.930 . S
H502 C507 0.930 . S
H503 C511 0.930 . S
O504 Co473 2.037 . S
O504 C524 1.234 . S
C505 O479 1.269 . S
C505 O480 1.257 . S
C506 H481 0.930 . S
C506 C509 1.388 . S
C506 C511 1.418 . S
C507 H502 0.930 . S
C507 C510 1.404 . S
C507 C511 1.353 . S
N508 Co473 2.145 . S
N508 C509 1.397 . S
N508 C510 1.334 . S
C509 H490 0.929 . S
C509 C506 1.388 . S
C509 N508 1.397 . S
C510 H491 0.929 . S
C510 C507 1.404 . S
C510 N508 1.334 . S
C511 H503 0.930 . S
C511 C506 1.418 . S
C511 C507 1.353 . S
C512 H482 0.930 . S
C512 N513 1.330 . S
C512 C514 1.446 . S
N513 Co472 2.151 . S
N513 C512 1.330 . S
N513 C517 1.418 . S
C514 H493 0.929 . S
C514 C512 1.446 . S
C514 C515 1.332 . S
C515 H495 0.931 . S
C515 C514 1.332 . S
C515 C516 1.267 . S
C516 H484 0.929 . S
C516 C515 1.267 . S
C516 C517 1.251 . S
C517 H487 0.929 . S
C517 N513 1.418 . S
C517 C516 1.251 . S
C518 H485 0.930 . S
C518 C520 1.406 . S
C518 C523 1.261 . S
C519 H486 0.930 . S
C519 N521 1.325 . S
C519 C522 1.357 . S
C520 H488 0.928 . S
C520 C518 1.406 . S
C520 N521 1.261 . S
N521 Co472 2.214 . S
N521 C519 1.325 . S
N521 C520 1.261 . S
C522 H492 0.931 . S
C522 C519 1.357 . S
C522 C523 1.312 . S
C523 H494 0.930 . S
C523 C518 1.261 . S
C523 C522 1.312 . S
C524 O496 1.214 . S
C524 O504 1.234 . S
C525 H497 0.929 . S
C525 C528 1.391 . S
C525 C530 1.391 . S
C526 H498 0.929 . S
C526 C527 1.390 . S
C526 N529 1.391 . S
C527 H499 0.930 . S
C527 C526 1.390 . S
C527 C528 1.392 . S
C528 H500 0.929 . S
C528 C525 1.391 . S
C528 C527 1.392 . S
N529 Co473 2.257 . S
N529 C526 1.391 . S
N529 C530 1.388 . S
C530 H501 0.930 . S
C530 C525 1.391 . S
C530 N529 1.388 . S
Co531 O533 2.143 . S
Co531 O539 2.074 . S
Co531 O542 2.093 . S
Co531 O555 2.097 . S
Co531 N572 2.151 . S
Co531 N580 2.214 . S
Co532 O533 2.160 . S
Co532 O538 2.058 . S
Co532 O548 2.057 . S
Co532 O563 2.037 . S
Co532 N567 2.145 1_655 S
Co532 N588 2.257 1_655 S
O533 Co531 2.143 . S
O533 Co532 2.160 . S
C534 O535 1.278 . S
C534 O542 1.224 . S
O535 C534 1.278 . S
C536 O537 1.245 . S
C536 O548 1.232 . S
O537 C536 1.245 . S
O538 Co532 2.058 . S
O538 C564 1.269 . S
O539 Co531 2.074 . S
O539 C564 1.257 . S
H540 C565 0.930 . S
H541 C571 0.930 . S
O542 Co531 2.093 . S
O542 C534 1.224 . S
H543 C575 0.929 . S
H544 C577 0.930 . S
H545 C578 0.930 . S
H546 C576 0.929 . S
H547 C579 0.928 . S
O548 Co532 2.057 . S
O548 C536 1.232 . S
H549 C568 0.929 . S
H550 C569 0.929 . S
H551 C581 0.931 . S
H552 C573 0.929 . S
H553 C582 0.930 . S
H554 C574 0.931 . S
O555 Co531 2.097 . S
O555 C583 1.214 . S
H556 C584 0.929 . S
H557 C585 0.929 . S
H558 C586 0.930 . S
H559 C587 0.929 . S
H560 C589 0.930 1_655 S
H561 C566 0.930 . S
H562 C570 0.930 . S
O563 Co532 2.037 . S
O563 C583 1.234 . S
C564 O538 1.269 . S
C564 O539 1.257 . S
C565 H540 0.930 . S
C565 C568 1.388 . S
C565 C570 1.418 . S
C566 H561 0.930 . S
C566 C569 1.404 . S
C566 C570 1.353 . S
N567 Co532 2.145 1_455 S
N567 C568 1.397 . S
N567 C569 1.334 . S
C568 H549 0.929 . S
C568 C565 1.388 . S
C568 N567 1.397 . S
C569 H550 0.929 . S
C569 C566 1.404 . S
C569 N567 1.334 . S
C570 H562 0.930 . S
C570 C565 1.418 . S
C570 C566 1.353 . S
C571 H541 0.930 . S
C571 N572 1.330 . S
C571 C573 1.446 . S
N572 Co531 2.151 . S
N572 C571 1.330 . S
N572 C576 1.418 . S
C573 H552 0.929 . S
C573 C571 1.446 . S
C573 C574 1.332 . S
C574 H554 0.931 . S
C574 C573 1.332 . S
C574 C575 1.267 . S
C575 H543 0.929 . S
C575 C574 1.267 . S
C575 C576 1.251 . S
C576 H546 0.929 . S
C576 N572 1.418 . S
C576 C575 1.251 . S
C577 H544 0.930 . S
C577 C579 1.406 . S
C577 C582 1.261 . S
C578 H545 0.930 . S
C578 N580 1.325 . S
C578 C581 1.357 . S
C579 H547 0.928 . S
C579 C577 1.406 . S
C579 N580 1.261 . S
N580 Co531 2.214 . S
N580 C578 1.325 . S
N580 C579 1.261 . S
C581 H551 0.931 . S
C581 C578 1.357 . S
C581 C582 1.312 . S
C582 H553 0.930 . S
C582 C577 1.261 . S
C582 C581 1.312 . S
C583 O555 1.214 . S
C583 O563 1.234 . S
C584 H556 0.929 . S
C584 C587 1.391 . S
C584 C589 1.391 . S
C585 H557 0.929 . S
C585 C586 1.390 . S
C585 N588 1.391 . S
C586 H558 0.930 . S
C586 C585 1.390 . S
C586 C587 1.392 . S
C587 H559 0.929 . S
C587 C584 1.391 . S
C587 C586 1.392 . S
N588 Co532 2.257 1_455 S
N588 C585 1.391 . S
N588 C589 1.388 . S
C589 H560 0.930 1_455 S
C589 C584 1.391 . S
C589 N588 1.388 . S
Co590 O592 2.143 . S
Co590 O598 2.074 . S
Co590 O601 2.093 . S
Co590 O614 2.097 . S
Co590 N631 2.151 . S
Co590 N639 2.214 . S
Co591 O592 2.160 . S
Co591 O597 2.058 . S
Co591 O607 2.057 . S
Co591 O622 2.037 . S
Co591 N626 2.145 . S
Co591 N647 2.257 . S
O592 Co590 2.143 . S
O592 Co591 2.160 . S
C593 O594 1.278 . S
C593 O601 1.224 . S
O594 C593 1.278 . S
C595 O596 1.245 . S
C595 O607 1.232 . S
O596 C595 1.245 . S
O597 Co591 2.058 . S
O597 C623 1.269 . S
O598 Co590 2.074 . S
O598 C623 1.257 . S
H599 C624 0.930 . S
H600 C630 0.930 . S
O601 Co590 2.093 . S
O601 C593 1.224 . S
H602 C634 0.929 . S
H603 C636 0.930 . S
H604 C637 0.930 . S
H605 C635 0.929 . S
H606 C638 0.928 . S
O607 Co591 2.057 . S
O607 C595 1.232 . S
H608 C627 0.929 . S
H609 C628 0.929 . S
H610 C640 0.931 . S
H611 C632 0.929 . S
H612 C641 0.930 . S
H613 C633 0.931 . S
O614 Co590 2.097 . S
O614 C642 1.214 . S
H615 C643 0.929 . S
H616 C644 0.929 . S
H617 C645 0.930 . S
H618 C646 0.929 . S
H619 C648 0.930 . S
H620 C625 0.930 . S
H621 C629 0.930 . S
O622 Co591 2.037 . S
O622 C642 1.234 . S
C623 O597 1.269 . S
C623 O598 1.257 . S
C624 H599 0.930 . S
C624 C627 1.388 . S
C624 C629 1.418 . S
C625 H620 0.930 . S
C625 C628 1.404 . S
C625 C629 1.353 . S
N626 Co591 2.145 . S
N626 C627 1.397 . S
N626 C628 1.334 . S
C627 H608 0.929 . S
C627 C624 1.388 . S
C627 N626 1.397 . S
C628 H609 0.929 . S
C628 C625 1.404 . S
C628 N626 1.334 . S
C629 H621 0.930 . S
C629 C624 1.418 . S
C629 C625 1.353 . S
C630 H600 0.930 . S
C630 N631 1.330 . S
C630 C632 1.446 . S
N631 Co590 2.151 . S
N631 C630 1.330 . S
N631 C635 1.418 . S
C632 H611 0.929 . S
C632 C630 1.446 . S
C632 C633 1.332 . S
C633 H613 0.931 . S
C633 C632 1.332 . S
C633 C634 1.267 . S
C634 H602 0.929 . S
C634 C633 1.267 . S
C634 C635 1.251 . S
C635 H605 0.929 . S
C635 N631 1.418 . S
C635 C634 1.251 . S
C636 H603 0.930 . S
C636 C638 1.406 . S
C636 C641 1.261 . S
C637 H604 0.930 . S
C637 N639 1.325 . S
C637 C640 1.357 . S
C638 H606 0.928 . S
C638 C636 1.406 . S
C638 N639 1.261 . S
N639 Co590 2.214 . S
N639 C637 1.325 . S
N639 C638 1.261 . S
C640 H610 0.931 . S
C640 C637 1.357 . S
C640 C641 1.312 . S
C641 H612 0.930 . S
C641 C636 1.261 . S
C641 C640 1.312 . S
C642 O614 1.214 . S
C642 O622 1.234 . S
C643 H615 0.929 . S
C643 C646 1.391 . S
C643 C648 1.391 . S
C644 H616 0.929 . S
C644 C645 1.390 . S
C644 N647 1.391 . S
C645 H617 0.930 . S
C645 C644 1.390 . S
C645 C646 1.392 . S
C646 H618 0.929 . S
C646 C643 1.391 . S
C646 C645 1.392 . S
N647 Co591 2.257 . S
N647 C644 1.391 . S
N647 C648 1.388 . S
C648 H619 0.930 . S
C648 C643 1.391 . S
C648 N647 1.388 . S
Co649 O651 2.143 . S
Co649 O657 2.074 . S
Co649 O660 2.093 . S
Co649 O673 2.097 . S
Co649 N690 2.151 1_545 S
Co649 N698 2.214 1_545 S
Co650 O651 2.160 . S
Co650 O656 2.058 . S
Co650 O666 2.057 . S
Co650 O681 2.037 . S
Co650 N685 2.145 . S
Co650 N706 2.257 . S
O651 Co649 2.143 . S
O651 Co650 2.160 . S
C652 O653 1.278 . S
C652 O660 1.224 . S
O653 C652 1.278 . S
C654 O655 1.245 . S
C654 O666 1.232 . S
O655 C654 1.245 . S
O656 Co650 2.058 . S
O656 C682 1.269 . S
O657 Co649 2.074 . S
O657 C682 1.257 . S
H658 C683 0.930 . S
H659 C689 0.930 . S
O660 Co649 2.093 . S
O660 C652 1.224 . S
H661 C693 0.929 . S
H662 C695 0.930 . S
H663 C696 0.930 . S
H664 C694 0.929 . S
H665 C697 0.928 . S
O666 Co650 2.057 . S
O666 C654 1.232 . S
H667 C686 0.929 . S
H668 C687 0.929 . S
H669 C699 0.931 . S
H670 C691 0.929 . S
H671 C700 0.930 . S
H672 C692 0.931 . S
O673 Co649 2.097 . S
O673 C701 1.214 . S
H674 C702 0.929 . S
H675 C703 0.929 . S
H676 C704 0.930 . S
H677 C705 0.929 . S
H678 C707 0.930 . S
H679 C684 0.930 . S
H680 C688 0.930 . S
O681 Co650 2.037 . S
O681 C701 1.234 . S
C682 O656 1.269 . S
C682 O657 1.257 . S
C683 H658 0.930 . S
C683 C686 1.388 . S
C683 C688 1.418 . S
C684 H679 0.930 . S
C684 C687 1.404 . S
C684 C688 1.353 . S
N685 Co650 2.145 . S
N685 C686 1.397 . S
N685 C687 1.334 . S
C686 H667 0.929 . S
C686 C683 1.388 . S
C686 N685 1.397 . S
C687 H668 0.929 . S
C687 C684 1.404 . S
C687 N685 1.334 . S
C688 H680 0.930 . S
C688 C683 1.418 . S
C688 C684 1.353 . S
C689 H659 0.930 . S
C689 N690 1.330 . S
C689 C691 1.446 . S
N690 Co649 2.151 1_565 S
N690 C689 1.330 . S
N690 C694 1.418 . S
C691 H670 0.929 . S
C691 C689 1.446 . S
C691 C692 1.332 . S
C692 H672 0.931 . S
C692 C691 1.332 . S
C692 C693 1.267 . S
C693 H661 0.929 . S
C693 C692 1.267 . S
C693 C694 1.251 . S
C694 H664 0.929 . S
C694 N690 1.418 . S
C694 C693 1.251 . S
C695 H662 0.930 . S
C695 C697 1.406 . S
C695 C700 1.261 . S
C696 H663 0.930 . S
C696 N698 1.325 . S
C696 C699 1.357 . S
C697 H665 0.928 . S
C697 C695 1.406 . S
C697 N698 1.261 . S
N698 Co649 2.214 1_565 S
N698 C696 1.325 . S
N698 C697 1.261 . S
C699 H669 0.931 . S
C699 C696 1.357 . S
C699 C700 1.312 . S
C700 H671 0.930 . S
C700 C695 1.261 . S
C700 C699 1.312 . S
C701 O673 1.214 . S
C701 O681 1.234 . S
C702 H674 0.929 . S
C702 C705 1.391 . S
C702 C707 1.391 . S
C703 H675 0.929 . S
C703 C704 1.390 . S
C703 N706 1.391 . S
C704 H676 0.930 . S
C704 C703 1.390 . S
C704 C705 1.392 . S
C705 H677 0.929 . S
C705 C702 1.391 . S
C705 C704 1.392 . S
N706 Co650 2.257 . S
N706 C703 1.391 . S
N706 C707 1.388 . S
C707 H678 0.930 . S
C707 C702 1.391 . S
C707 N706 1.388 . S
Co708 O710 2.143 . S
Co708 O716 2.074 . S
Co708 O719 2.093 . S
Co708 O732 2.097 . S
Co708 N749 2.151 1_565 S
Co708 N757 2.214 1_565 S
Co709 O710 2.160 . S
Co709 O715 2.058 . S
Co709 O725 2.057 . S
Co709 O740 2.037 . S
Co709 N744 2.145 . S
Co709 N765 2.257 . S
O710 Co708 2.143 . S
O710 Co709 2.160 . S
C711 O712 1.278 . S
C711 O719 1.224 . S
O712 C711 1.278 . S
C713 O714 1.245 . S
C713 O725 1.232 . S
O714 C713 1.245 . S
O715 Co709 2.058 . S
O715 C741 1.269 . S
O716 Co708 2.074 . S
O716 C741 1.257 . S
H717 C742 0.930 . S
H718 C748 0.930 . S
O719 Co708 2.093 . S
O719 C711 1.224 . S
H720 C752 0.929 . S
H721 C754 0.930 . S
H722 C755 0.930 . S
H723 C753 0.929 . S
H724 C756 0.928 . S
O725 Co709 2.057 . S
O725 C713 1.232 . S
H726 C745 0.929 . S
H727 C746 0.929 . S
H728 C758 0.931 . S
H729 C750 0.929 . S
H730 C759 0.930 . S
H731 C751 0.931 . S
O732 Co708 2.097 . S
O732 C760 1.214 . S
H733 C761 0.929 . S
H734 C762 0.929 . S
H735 C763 0.930 . S
H736 C764 0.929 . S
H737 C766 0.930 . S
H738 C743 0.930 . S
H739 C747 0.930 . S
O740 Co709 2.037 . S
O740 C760 1.234 . S
C741 O715 1.269 . S
C741 O716 1.257 . S
C742 H717 0.930 . S
C742 C745 1.388 . S
C742 C747 1.418 . S
C743 H738 0.930 . S
C743 C746 1.404 . S
C743 C747 1.353 . S
N744 Co709 2.145 . S
N744 C745 1.397 . S
N744 C746 1.334 . S
C745 H726 0.929 . S
C745 C742 1.388 . S
C745 N744 1.397 . S
C746 H727 0.929 . S
C746 C743 1.404 . S
C746 N744 1.334 . S
C747 H739 0.930 . S
C747 C742 1.418 . S
C747 C743 1.353 . S
C748 H718 0.930 . S
C748 N749 1.330 . S
C748 C750 1.446 . S
N749 Co708 2.151 1_545 S
N749 C748 1.330 . S
N749 C753 1.418 . S
C750 H729 0.929 . S
C750 C748 1.446 . S
C750 C751 1.332 . S
C751 H731 0.931 . S
C751 C750 1.332 . S
C751 C752 1.267 . S
C752 H720 0.929 . S
C752 C751 1.267 . S
C752 C753 1.251 . S
C753 H723 0.929 . S
C753 N749 1.418 . S
C753 C752 1.251 . S
C754 H721 0.930 . S
C754 C756 1.406 . S
C754 C759 1.261 . S
C755 H722 0.930 . S
C755 N757 1.325 . S
C755 C758 1.357 . S
C756 H724 0.928 . S
C756 C754 1.406 . S
C756 N757 1.261 . S
N757 Co708 2.214 1_545 S
N757 C755 1.325 . S
N757 C756 1.261 . S
C758 H728 0.931 . S
C758 C755 1.357 . S
C758 C759 1.312 . S
C759 H730 0.930 . S
C759 C754 1.261 . S
C759 C758 1.312 . S
C760 O732 1.214 . S
C760 O740 1.234 . S
C761 H733 0.929 . S
C761 C764 1.391 . S
C761 C766 1.391 . S
C762 H734 0.929 . S
C762 C763 1.390 . S
C762 N765 1.391 . S
C763 H735 0.930 . S
C763 C762 1.390 . S
C763 C764 1.392 . S
C764 H736 0.929 . S
C764 C761 1.391 . S
C764 C763 1.392 . S
N765 Co709 2.257 . S
N765 C762 1.391 . S
N765 C766 1.388 . S
C766 H737 0.930 . S
C766 C761 1.391 . S
C766 N765 1.388 . S
Co767 O769 2.143 . S
Co767 O775 2.074 . S
Co767 O778 2.093 . S
Co767 O791 2.097 . S
Co767 N808 2.151 . S
Co767 N816 2.214 . S
Co768 O769 2.160 . S
Co768 O774 2.058 . S
Co768 O784 2.057 . S
Co768 O799 2.037 . S
Co768 N803 2.145 1_455 S
Co768 N824 2.257 1_455 S
O769 Co767 2.143 . S
O769 Co768 2.160 . S
C770 O771 1.278 . S
C770 O778 1.224 . S
O771 C770 1.278 . S
C772 O773 1.245 . S
C772 O784 1.232 . S
O773 C772 1.245 . S
O774 Co768 2.058 . S
O774 C800 1.269 . S
O775 Co767 2.074 . S
O775 C800 1.257 . S
H776 C801 0.930 . S
H777 C807 0.930 . S
O778 Co767 2.093 . S
O778 C770 1.224 . S
H779 C811 0.929 . S
H780 C813 0.930 . S
H781 C814 0.930 . S
H782 C812 0.929 . S
H783 C815 0.928 . S
O784 Co768 2.057 . S
O784 C772 1.232 . S
H785 C804 0.929 . S
H786 C805 0.929 . S
H787 C817 0.931 . S
H788 C809 0.929 . S
H789 C818 0.930 . S
H790 C810 0.931 . S
O791 Co767 2.097 . S
O791 C819 1.214 . S
H792 C820 0.929 . S
H793 C821 0.929 . S
H794 C822 0.930 . S
H795 C823 0.929 . S
H796 C825 0.943 . S
H797 C802 0.930 . S
H798 C806 0.930 . S
O799 Co768 2.037 . S
O799 C819 1.234 . S
C800 O774 1.269 . S
C800 O775 1.257 . S
C801 H776 0.930 . S
C801 C804 1.388 . S
C801 C806 1.418 . S
C802 H797 0.930 . S
C802 C805 1.404 . S
C802 C806 1.353 . S
N803 Co768 2.145 1_655 S
N803 C804 1.397 . S
N803 C805 1.334 . S
C804 H785 0.929 . S
C804 C801 1.388 . S
C804 N803 1.397 . S
C805 H786 0.929 . S
C805 C802 1.404 . S
C805 N803 1.334 . S
C806 H798 0.930 . S
C806 C801 1.418 . S
C806 C802 1.353 . S
C807 H777 0.930 . S
C807 N808 1.330 . S
C807 C809 1.446 . S
N808 Co767 2.151 . S
N808 C807 1.330 . S
N808 C812 1.418 . S
C809 H788 0.929 . S
C809 C807 1.446 . S
C809 C810 1.332 . S
C810 H790 0.931 . S
C810 C809 1.332 . S
C810 C811 1.267 . S
C811 H779 0.929 . S
C811 C810 1.267 . S
C811 C812 1.251 . S
C812 H782 0.929 . S
C812 N808 1.418 . S
C812 C811 1.251 . S
C813 H780 0.930 . S
C813 C815 1.406 . S
C813 C818 1.261 . S
C814 H781 0.930 . S
C814 N816 1.325 . S
C814 C817 1.357 . S
C815 H783 0.928 . S
C815 C813 1.406 . S
C815 N816 1.261 . S
N816 Co767 2.214 . S
N816 C814 1.325 . S
N816 C815 1.261 . S
C817 H787 0.931 . S
C817 C814 1.357 . S
C817 C818 1.312 . S
C818 H789 0.930 . S
C818 C813 1.261 . S
C818 C817 1.312 . S
C819 O791 1.214 . S
C819 O799 1.234 . S
C820 H792 0.929 . S
C820 C823 1.391 . S
C820 C825 1.391 . S
C821 H793 0.929 . S
C821 C822 1.390 . S
C821 N824 1.391 . S
C822 H794 0.930 . S
C822 C821 1.390 . S
C822 C823 1.392 . S
C823 H795 0.929 . S
C823 C820 1.391 . S
C823 C822 1.392 . S
N824 Co768 2.257 1_655 S
N824 C821 1.391 . S
N824 C825 1.388 . S
C825 H796 0.943 . S
C825 C820 1.391 . S
C825 N824 1.388 . S
Co826 O828 2.143 . S
Co826 O834 2.074 . S
Co826 O837 2.093 . S
Co826 O850 2.097 . S
Co826 N867 2.151 . S
Co826 N875 2.214 . S
Co827 O828 2.160 . S
Co827 O833 2.058 . S
Co827 O843 2.057 . S
Co827 O858 2.037 . S
Co827 N862 2.145 . S
Co827 N883 2.257 . S
O828 Co826 2.143 . S
O828 Co827 2.160 . S
C829 O830 1.278 . S
C829 O837 1.224 . S
O830 C829 1.278 . S
C831 O832 1.245 . S
C831 O843 1.232 . S
O832 C831 1.245 . S
O833 Co827 2.058 . S
O833 C859 1.269 . S
O834 Co826 2.074 . S
O834 C859 1.257 . S
H835 C860 0.930 . S
H836 C866 0.930 . S
O837 Co826 2.093 . S
O837 C829 1.224 . S
H838 C870 0.929 . S
H839 C872 0.930 . S
H840 C873 0.930 . S
H841 C871 0.929 . S
H842 C874 0.928 . S
O843 Co827 2.057 . S
O843 C831 1.232 . S
H844 C863 0.929 . S
H845 C864 0.929 . S
H846 C876 0.931 . S
H847 C868 0.929 . S
H848 C877 0.930 . S
H849 C869 0.931 . S
O850 Co826 2.097 . S
O850 C878 1.214 . S
H851 C879 0.929 . S
H852 C880 0.929 . S
H853 C881 0.930 . S
H854 C882 0.929 . S
H855 C884 0.930 . S
H856 C861 0.930 . S
H857 C865 0.930 . S
O858 Co827 2.037 . S
O858 C878 1.234 . S
C859 O833 1.269 . S
C859 O834 1.257 . S
C860 H835 0.930 . S
C860 C863 1.388 . S
C860 C865 1.418 . S
C861 H856 0.930 . S
C861 C864 1.404 . S
C861 C865 1.353 . S
N862 Co827 2.145 . S
N862 C863 1.397 . S
N862 C864 1.334 . S
C863 H844 0.929 . S
C863 C860 1.388 . S
C863 N862 1.397 . S
C864 H845 0.929 . S
C864 C861 1.404 . S
C864 N862 1.334 . S
C865 H857 0.930 . S
C865 C860 1.418 . S
C865 C861 1.353 . S
C866 H836 0.930 . S
C866 N867 1.330 . S
C866 C868 1.446 . S
N867 Co826 2.151 . S
N867 C866 1.330 . S
N867 C871 1.418 . S
C868 H847 0.929 . S
C868 C866 1.446 . S
C868 C869 1.332 . S
C869 H849 0.931 . S
C869 C868 1.332 . S
C869 C870 1.267 . S
C870 H838 0.929 . S
C870 C869 1.267 . S
C870 C871 1.251 . S
C871 H841 0.929 . S
C871 N867 1.418 . S
C871 C870 1.251 . S
C872 H839 0.930 . S
C872 C874 1.406 . S
C872 C877 1.261 . S
C873 H840 0.930 . S
C873 N875 1.325 . S
C873 C876 1.357 . S
C874 H842 0.928 . S
C874 C872 1.406 . S
C874 N875 1.261 . S
N875 Co826 2.214 . S
N875 C873 1.325 . S
N875 C874 1.261 . S
C876 H846 0.931 . S
C876 C873 1.357 . S
C876 C877 1.312 . S
C877 H848 0.930 . S
C877 C872 1.261 . S
C877 C876 1.312 . S
C878 O850 1.214 . S
C878 O858 1.234 . S
C879 H851 0.929 . S
C879 C882 1.391 . S
C879 C884 1.391 . S
C880 H852 0.929 . S
C880 C881 1.390 . S
C880 N883 1.391 . S
C881 H853 0.930 . S
C881 C880 1.390 . S
C881 C882 1.392 . S
C882 H854 0.929 . S
C882 C879 1.391 . S
C882 C881 1.392 . S
N883 Co827 2.257 . S
N883 C880 1.391 . S
N883 C884 1.388 . S
C884 H855 0.930 . S
C884 C879 1.391 . S
C884 N883 1.388 . S
Co885 O887 2.143 . S
Co885 O893 2.074 . S
Co885 O896 2.093 . S
Co885 O909 2.097 . S
Co885 N926 2.151 . S
Co885 N934 2.214 . S
Co886 O887 2.160 . S
Co886 O892 2.058 . S
Co886 O902 2.057 . S
Co886 O917 2.037 . S
Co886 N921 2.145 . S
Co886 N942 2.257 . S
O887 Co885 2.143 . S
O887 Co886 2.160 . S
C888 O889 1.278 . S
C888 O896 1.224 . S
O889 C888 1.278 . S
C890 O891 1.245 . S
C890 O902 1.232 . S
O891 C890 1.245 . S
O892 Co886 2.058 . S
O892 C918 1.269 . S
O893 Co885 2.074 . S
O893 C918 1.257 . S
H894 C919 0.930 . S
H895 C925 0.930 . S
O896 Co885 2.093 . S
O896 C888 1.224 . S
H897 C929 0.929 . S
H898 C931 0.930 . S
H899 C932 0.930 . S
H900 C930 0.929 . S
H901 C933 0.928 . S
O902 Co886 2.057 . S
O902 C890 1.232 . S
H903 C922 0.929 . S
H904 C923 0.929 . S
H905 C935 0.931 . S
H906 C927 0.929 . S
H907 C936 0.930 . S
H908 C928 0.931 . S
O909 Co885 2.097 . S
O909 C937 1.214 . S
H910 C938 0.929 . S
H911 C939 0.929 . S
H912 C940 0.930 . S
H913 C941 0.929 . S
H914 C943 0.930 . S
H915 C920 0.930 . S
H916 C924 0.930 . S
O917 Co886 2.037 . S
O917 C937 1.234 . S
C918 O892 1.269 . S
C918 O893 1.257 . S
C919 H894 0.930 . S
C919 C922 1.388 . S
C919 C924 1.418 . S
C920 H915 0.930 . S
C920 C923 1.404 . S
C920 C924 1.353 . S
N921 Co886 2.145 . S
N921 C922 1.397 . S
N921 C923 1.334 . S
C922 H903 0.929 . S
C922 C919 1.388 . S
C922 N921 1.397 . S
C923 H904 0.929 . S
C923 C920 1.404 . S
C923 N921 1.334 . S
C924 H916 0.930 . S
C924 C919 1.418 . S
C924 C920 1.353 . S
C925 H895 0.930 . S
C925 N926 1.330 . S
C925 C927 1.446 . S
N926 Co885 2.151 . S
N926 C925 1.330 . S
N926 C930 1.418 . S
C927 H906 0.929 . S
C927 C925 1.446 . S
C927 C928 1.332 . S
C928 H908 0.931 . S
C928 C927 1.332 . S
C928 C929 1.267 . S
C929 H897 0.929 . S
C929 C928 1.267 . S
C929 C930 1.251 . S
C930 H900 0.929 . S
C930 N926 1.418 . S
C930 C929 1.251 . S
C931 H898 0.930 . S
C931 C933 1.406 . S
C931 C936 1.261 . S
C932 H899 0.930 . S
C932 N934 1.325 . S
C932 C935 1.357 . S
C933 H901 0.928 . S
C933 C931 1.406 . S
C933 N934 1.261 . S
N934 Co885 2.214 . S
N934 C932 1.325 . S
N934 C933 1.261 . S
C935 H905 0.931 . S
C935 C932 1.357 . S
C935 C936 1.312 . S
C936 H907 0.930 . S
C936 C931 1.261 . S
C936 C935 1.312 . S
C937 O909 1.214 . S
C937 O917 1.234 . S
C938 H910 0.929 . S
C938 C941 1.391 . S
C938 C943 1.391 . S
C939 H911 0.929 . S
C939 C940 1.390 . S
C939 N942 1.391 . S
C940 H912 0.930 . S
C940 C939 1.390 . S
C940 C941 1.392 . S
C941 H913 0.929 . S
C941 C938 1.391 . S
C941 C940 1.392 . S
N942 Co886 2.257 . S
N942 C939 1.391 . S
N942 C943 1.388 . S
C943 H914 0.930 . S
C943 C938 1.391 . S
C943 N942 1.388 . S
Co944 O946 2.143 . S
Co944 O952 2.074 . S
Co944 O955 2.093 . S
Co944 O968 2.097 . S
Co944 N985 2.151 . S
Co944 N993 2.214 . S
Co945 O946 2.160 . S
Co945 O951 2.058 . S
Co945 O961 2.057 . S
Co945 O976 2.037 . S
Co945 N980 2.145 . S
Co945 N1001 2.257 . S
O946 Co944 2.143 . S
O946 Co945 2.160 . S
C947 O948 1.278 . S
C947 O955 1.224 . S
O948 C947 1.278 . S
C949 O950 1.245 . S
C949 O961 1.232 . S
O950 C949 1.245 . S
O951 Co945 2.058 . S
O951 C977 1.269 . S
O952 Co944 2.074 . S
O952 C977 1.257 . S
H953 C978 0.930 . S
H954 C984 0.930 . S
O955 Co944 2.093 . S
O955 C947 1.224 . S
H956 C988 0.929 . S
H957 C990 0.930 . S
H958 C991 0.930 . S
H959 C989 0.929 . S
H960 C992 0.928 . S
O961 Co945 2.057 . S
O961 C949 1.232 . S
H962 C981 0.929 . S
H963 C982 0.929 . S
H964 C994 0.931 . S
H965 C986 0.929 . S
H966 C995 0.930 . S
H967 C987 0.931 . S
O968 Co944 2.097 . S
O968 C996 1.214 . S
H969 C997 0.929 . S
H970 C998 0.929 . S
H971 C999 0.930 . S
H972 C1000 0.929 . S
H973 C1002 0.930 . S
H974 C979 0.930 . S
H975 C983 0.930 . S
O976 Co945 2.037 . S
O976 C996 1.234 . S
C977 O951 1.269 . S
C977 O952 1.257 . S
C978 H953 0.930 . S
C978 C981 1.388 . S
C978 C983 1.418 . S
C979 H974 0.930 . S
C979 C982 1.404 . S
C979 C983 1.353 . S
N980 Co945 2.145 . S
N980 C981 1.397 . S
N980 C982 1.334 . S
C981 H962 0.929 . S
C981 C978 1.388 . S
C981 N980 1.397 . S
C982 H963 0.929 . S
C982 C979 1.404 . S
C982 N980 1.334 . S
C983 H975 0.930 . S
C983 C978 1.418 . S
C983 C979 1.353 . S
C984 H954 0.930 . S
C984 N985 1.330 . S
C984 C986 1.446 . S
N985 Co944 2.151 . S
N985 C984 1.330 . S
N985 C989 1.418 . S
C986 H965 0.929 . S
C986 C984 1.446 . S
C986 C987 1.332 . S
C987 H967 0.931 . S
C987 C986 1.332 . S
C987 C988 1.267 . S
C988 H956 0.929 . S
C988 C987 1.267 . S
C988 C989 1.251 . S
C989 H959 0.929 . S
C989 N985 1.418 . S
C989 C988 1.251 . S
C990 H957 0.930 . S
C990 C992 1.406 . S
C990 C995 1.261 . S
C991 H958 0.930 . S
C991 N993 1.325 . S
C991 C994 1.357 . S
C992 H960 0.928 . S
C992 C990 1.406 . S
C992 N993 1.261 . S
N993 Co944 2.214 . S
N993 C991 1.325 . S
N993 C992 1.261 . S
C994 H964 0.931 . S
C994 C991 1.357 . S
C994 C995 1.312 . S
C995 H966 0.930 . S
C995 C990 1.261 . S
C995 C994 1.312 . S
C996 O968 1.214 . S
C996 O976 1.234 . S
C997 H969 0.929 . S
C997 C1000 1.391 . S
C997 C1002 1.391 . S
C998 H970 0.929 . S
C998 C999 1.390 . S
C998 N1001 1.391 . S
C999 H971 0.930 . S
C999 C998 1.390 . S
C999 C1000 1.392 . S
C1000 H972 0.929 . S
C1000 C997 1.391 . S
C1000 C999 1.392 . S
N1001 Co945 2.257 . S
N1001 C998 1.391 . S
N1001 C1002 1.388 . S
C1002 H973 0.930 . S
C1002 C997 1.391 . S
C1002 N1001 1.388 . S
Co1003 O1005 2.143 . S
Co1003 O1011 2.074 . S
Co1003 O1014 2.093 . S
Co1003 O1027 2.097 . S
Co1003 N1044 2.151 . S
Co1003 N1052 2.214 . S
Co1004 O1005 2.160 . S
Co1004 O1010 2.058 . S
Co1004 O1020 2.057 . S
Co1004 O1035 2.037 . S
Co1004 N1039 2.145 . S
Co1004 N1060 2.257 . S
O1005 Co1003 2.143 . S
O1005 Co1004 2.160 . S
C1006 O1007 1.278 . S
C1006 O1014 1.224 . S
O1007 C1006 1.278 . S
C1008 O1009 1.245 . S
C1008 O1020 1.232 . S
O1009 C1008 1.245 . S
O1010 Co1004 2.058 . S
O1010 C1036 1.269 . S
O1011 Co1003 2.074 . S
O1011 C1036 1.257 . S
H1012 C1037 0.930 . S
H1013 C1043 0.930 . S
O1014 Co1003 2.093 . S
O1014 C1006 1.224 . S
H1015 C1047 0.929 . S
H1016 C1049 0.930 . S
H1017 C1050 0.930 . S
H1018 C1048 0.929 . S
H1019 C1051 0.928 . S
O1020 Co1004 2.057 . S
O1020 C1008 1.232 . S
H1021 C1040 0.929 . S
H1022 C1041 0.929 . S
H1023 C1053 0.931 . S
H1024 C1045 0.929 . S
H1025 C1054 0.930 . S
H1026 C1046 0.931 . S
O1027 Co1003 2.097 . S
O1027 C1055 1.214 . S
H1028 C1056 0.929 . S
H1029 C1057 0.929 . S
H1030 C1058 0.930 . S
H1031 C1059 0.929 . S
H1032 C1061 0.930 . S
H1033 C1038 0.930 . S
H1034 C1042 0.930 . S
O1035 Co1004 2.037 . S
O1035 C1055 1.234 . S
C1036 O1010 1.269 . S
C1036 O1011 1.257 . S
C1037 H1012 0.930 . S
C1037 C1040 1.388 . S
C1037 C1042 1.418 . S
C1038 H1033 0.930 . S
C1038 C1041 1.404 . S
C1038 C1042 1.353 . S
N1039 Co1004 2.145 . S
N1039 C1040 1.397 . S
N1039 C1041 1.334 . S
C1040 H1021 0.929 . S
C1040 C1037 1.388 . S
C1040 N1039 1.397 . S
C1041 H1022 0.929 . S
C1041 C1038 1.404 . S
C1041 N1039 1.334 . S
C1042 H1034 0.930 . S
C1042 C1037 1.418 . S
C1042 C1038 1.353 . S
C1043 H1013 0.930 . S
C1043 N1044 1.330 . S
C1043 C1045 1.446 . S
N1044 Co1003 2.151 . S
N1044 C1043 1.330 . S
N1044 C1048 1.418 . S
C1045 H1024 0.929 . S
C1045 C1043 1.446 . S
C1045 C1046 1.332 . S
C1046 H1026 0.931 . S
C1046 C1045 1.332 . S
C1046 C1047 1.267 . S
C1047 H1015 0.929 . S
C1047 C1046 1.267 . S
C1047 C1048 1.251 . S
C1048 H1018 0.929 . S
C1048 N1044 1.418 . S
C1048 C1047 1.251 . S
C1049 H1016 0.930 . S
C1049 C1051 1.406 . S
C1049 C1054 1.261 . S
C1050 H1017 0.930 . S
C1050 N1052 1.325 . S
C1050 C1053 1.357 . S
C1051 H1019 0.928 . S
C1051 C1049 1.406 . S
C1051 N1052 1.261 . S
N1052 Co1003 2.214 . S
N1052 C1050 1.325 . S
N1052 C1051 1.261 . S
C1053 H1023 0.931 . S
C1053 C1050 1.357 . S
C1053 C1054 1.312 . S
C1054 H1025 0.930 . S
C1054 C1049 1.261 . S
C1054 C1053 1.312 . S
C1055 O1027 1.214 . S
C1055 O1035 1.234 . S
C1056 H1028 0.929 . S
C1056 C1059 1.391 . S
C1056 C1061 1.391 . S
C1057 H1029 0.929 . S
C1057 C1058 1.390 . S
C1057 N1060 1.391 . S
C1058 H1030 0.930 . S
C1058 C1057 1.390 . S
C1058 C1059 1.392 . S
C1059 H1031 0.929 . S
C1059 C1056 1.391 . S
C1059 C1058 1.392 . S
N1060 Co1004 2.257 . S
N1060 C1057 1.391 . S
N1060 C1061 1.388 . S
C1061 H1032 0.930 . S
C1061 C1056 1.391 . S
C1061 N1060 1.388 . S
H1062 C1068 0.930 . S
H1063 C1072 0.930 . S
H1064 C1077 0.929 . S
H1065 C1075 0.929 . S
H1066 C1070 0.929 . S
H1067 C1076 0.929 . S
C1068 H1062 0.930 . S
C1068 C1069 1.367 . S
C1068 C1076 1.378 . S
C1069 C1068 1.367 . S
C1069 C1077 1.433 . S
C1070 H1066 0.929 . S
C1070 C1072 1.378 . S
C1070 C1074 1.350 . S
C1071 C1074 1.463 . S
C1071 C1076 1.350 . S
C1071 N1079 1.427 . S
C1072 H1063 0.930 . S
C1072 C1070 1.378 . S
C1072 C1073 1.367 . S
C1073 C1072 1.367 . S
C1073 C1075 1.433 . S
C1074 C1070 1.350 . S
C1074 C1071 1.463 . S
C1074 N1078 1.427 . S
C1075 H1065 0.929 . S
C1075 C1073 1.433 . S
C1075 N1078 1.384 . S
C1076 H1067 0.929 . S
C1076 C1068 1.378 . S
C1076 C1071 1.350 . S
C1077 H1064 0.929 . S
C1077 C1069 1.433 . S
C1077 N1079 1.384 . S
N1078 C1074 1.427 . S
N1078 C1075 1.384 . S
N1079 C1071 1.427 . S
N1079 C1077 1.384 . S
H1080 C1086 0.930 . S
H1081 C1090 0.930 . S
H1082 C1095 0.929 . S
H1083 C1093 0.929 . S
H1084 C1088 0.929 . S
H1085 C1094 0.929 . S
C1086 H1080 0.930 . S
C1086 C1087 1.367 . S
C1086 C1094 1.378 . S
C1087 C1086 1.367 . S
C1087 C1095 1.433 . S
C1088 H1084 0.929 . S
C1088 C1090 1.378 . S
C1088 C1092 1.350 . S
C1089 C1092 1.463 . S
C1089 C1094 1.350 . S
C1089 N1097 1.427 . S
C1090 H1081 0.930 . S
C1090 C1088 1.378 . S
C1090 C1091 1.367 . S
C1091 C1090 1.367 . S
C1091 C1093 1.433 . S
C1092 C1088 1.350 . S
C1092 C1089 1.463 . S
C1092 N1096 1.427 . S
C1093 H1083 0.929 . S
C1093 C1091 1.433 . S
C1093 N1096 1.384 . S
C1094 H1085 0.929 . S
C1094 C1086 1.378 . S
C1094 C1089 1.350 . S
C1095 H1082 0.929 . S
C1095 C1087 1.433 . S
C1095 N1097 1.384 . S
N1096 C1092 1.427 . S
N1096 C1093 1.384 . S
N1097 C1089 1.427 . S
N1097 C1095 1.384 . S
H1098 C1104 0.930 . S
H1099 C1108 0.930 . S
H1100 C1113 0.929 . S
H1101 C1111 0.929 . S
H1102 C1106 0.929 . S
H1103 C1112 0.929 . S
C1104 H1098 0.930 . S
C1104 C1105 1.367 . S
C1104 C1112 1.378 . S
C1105 C1104 1.367 . S
C1105 C1113 1.433 . S
C1106 H1102 0.929 . S
C1106 C1108 1.378 . S
C1106 C1110 1.350 . S
C1107 C1110 1.463 . S
C1107 C1112 1.350 . S
C1107 N1115 1.427 . S
C1108 H1099 0.930 . S
C1108 C1106 1.378 . S
C1108 C1109 1.367 . S
C1109 C1108 1.367 . S
C1109 C1111 1.433 . S
C1110 C1106 1.350 . S
C1110 C1107 1.463 . S
C1110 N1114 1.427 . S
C1111 H1101 0.929 . S
C1111 C1109 1.433 . S
C1111 N1114 1.384 . S
C1112 H1103 0.929 . S
C1112 C1104 1.378 . S
C1112 C1107 1.350 . S
C1113 H1100 0.929 . S
C1113 C1105 1.433 . S
C1113 N1115 1.384 . S
N1114 C1110 1.427 . S
N1114 C1111 1.384 . S
N1115 C1107 1.427 . S
N1115 C1113 1.384 . S
H1116 C1122 0.930 . S
H1117 C1126 0.930 . S
H1118 C1131 0.929 . S
H1119 C1129 0.929 . S
H1120 C1124 0.929 . S
H1121 C1130 0.929 . S
C1122 H1116 0.930 . S
C1122 C1123 1.367 . S
C1122 C1130 1.378 . S
C1123 C1122 1.367 . S
C1123 C1131 1.433 . S
C1124 H1120 0.929 . S
C1124 C1126 1.378 . S
C1124 C1128 1.350 . S
C1125 C1128 1.463 . S
C1125 C1130 1.350 . S
C1125 N1133 1.427 . S
C1126 H1117 0.930 . S
C1126 C1124 1.378 . S
C1126 C1127 1.367 . S
C1127 C1126 1.367 . S
C1127 C1129 1.433 . S
C1128 C1124 1.350 . S
C1128 C1125 1.463 . S
C1128 N1132 1.427 . S
C1129 H1119 0.929 . S
C1129 C1127 1.433 . S
C1129 N1132 1.384 . S
C1130 H1121 0.929 . S
C1130 C1122 1.378 . S
C1130 C1125 1.350 . S
C1131 H1118 0.929 . S
C1131 C1123 1.433 . S
C1131 N1133 1.384 . S
N1132 C1128 1.427 . S
N1132 C1129 1.384 . S
N1133 C1125 1.427 . S
N1133 C1131 1.384 . S
H1134 C1140 0.930 . S
H1135 C1144 0.930 . S
H1136 C1149 0.929 . S
H1137 C1147 0.929 . S
H1138 C1142 0.929 . S
H1139 C1148 0.929 . S
C1140 H1134 0.930 . S
C1140 C1141 1.367 . S
C1140 C1148 1.378 . S
C1141 C1140 1.367 . S
C1141 C1149 1.433 . S
C1142 H1138 0.929 . S
C1142 C1144 1.378 . S
C1142 C1146 1.350 . S
C1143 C1146 1.463 . S
C1143 C1148 1.350 . S
C1143 N1151 1.427 . S
C1144 H1135 0.930 . S
C1144 C1142 1.378 . S
C1144 C1145 1.367 . S
C1145 C1144 1.367 . S
C1145 C1147 1.433 . S
C1146 C1142 1.350 . S
C1146 C1143 1.463 . S
C1146 N1150 1.427 . S
C1147 H1137 0.929 . S
C1147 C1145 1.433 . S
C1147 N1150 1.384 . S
C1148 H1139 0.929 . S
C1148 C1140 1.378 . S
C1148 C1143 1.350 . S
C1149 H1136 0.929 . S
C1149 C1141 1.433 . S
C1149 N1151 1.384 . S
N1150 C1146 1.427 . S
N1150 C1147 1.384 . S
N1151 C1143 1.427 . S
N1151 C1149 1.384 . S
H1152 C1158 0.930 . S
H1153 C1162 0.930 . S
H1154 C1167 0.929 . S
H1155 C1165 0.929 . S
H1156 C1160 0.929 . S
H1157 C1166 0.929 . S
C1158 H1152 0.930 . S
C1158 C1159 1.367 . S
C1158 C1166 1.378 . S
C1159 C1158 1.367 . S
C1159 C1167 1.433 . S
C1160 H1156 0.929 . S
C1160 C1162 1.378 . S
C1160 C1164 1.350 . S
C1161 C1164 1.463 . S
C1161 C1166 1.350 . S
C1161 N1169 1.427 . S
C1162 H1153 0.930 . S
C1162 C1160 1.378 . S
C1162 C1163 1.367 . S
C1163 C1162 1.367 . S
C1163 C1165 1.433 . S
C1164 C1160 1.350 . S
C1164 C1161 1.463 . S
C1164 N1168 1.427 . S
C1165 H1155 0.929 . S
C1165 C1163 1.433 . S
C1165 N1168 1.384 . S
C1166 H1157 0.929 . S
C1166 C1158 1.378 . S
C1166 C1161 1.350 . S
C1167 H1154 0.929 . S
C1167 C1159 1.433 . S
C1167 N1169 1.384 . S
N1168 C1164 1.427 . S
N1168 C1165 1.384 . S
N1169 C1161 1.427 . S
N1169 C1167 1.384 . S
H1170 C1176 0.930 . S
H1171 C1180 0.930 . S
H1172 C1185 0.929 . S
H1173 C1183 0.929 . S
H1174 C1178 0.929 . S
H1175 C1184 0.929 . S
C1176 H1170 0.930 . S
C1176 C1177 1.367 . S
C1176 C1184 1.378 . S
C1177 C1176 1.367 . S
C1177 C1185 1.433 1_655 S
C1178 H1174 0.929 . S
C1178 C1180 1.378 . S
C1178 C1182 1.350 . S
C1179 C1182 1.463 1_654 S
C1179 C1184 1.350 . S
C1179 N1187 1.427 1_655 S
C1180 H1171 0.930 . S
C1180 C1178 1.378 . S
C1180 C1181 1.367 . S
C1181 C1180 1.367 . S
C1181 C1183 1.433 1_455 S
C1182 C1178 1.350 . S
C1182 C1179 1.463 1_456 S
C1182 N1186 1.427 1_455 S
C1183 H1173 0.929 . S
C1183 C1181 1.433 1_655 S
C1183 N1186 1.384 . S
C1184 H1175 0.929 . S
C1184 C1176 1.378 . S
C1184 C1179 1.350 . S
C1185 H1172 0.929 . S
C1185 C1177 1.433 1_455 S
C1185 N1187 1.384 . S
N1186 C1182 1.427 1_655 S
N1186 C1183 1.384 . S
N1187 C1179 1.427 1_455 S
N1187 C1185 1.384 . S
H1188 C1194 0.930 . S
H1189 C1198 0.930 . S
H1190 C1203 0.929 . S
H1191 C1201 0.929 . S
H1192 C1196 0.929 . S
H1193 C1202 0.929 . S
C1194 H1188 0.930 . S
C1194 C1195 1.367 . S
C1194 C1202 1.378 . S
C1195 C1194 1.367 . S
C1195 C1203 1.433 . S
C1196 H1192 0.929 . S
C1196 C1198 1.378 . S
C1196 C1200 1.350 . S
C1197 C1200 1.463 1_554 S
C1197 C1202 1.350 . S
C1197 N1205 1.427 . S
C1198 H1189 0.930 . S
C1198 C1196 1.378 . S
C1198 C1199 1.367 . S
C1199 C1198 1.367 . S
C1199 C1201 1.433 . S
C1200 C1196 1.350 . S
C1200 C1197 1.463 1_556 S
C1200 N1204 1.427 . S
C1201 H1191 0.929 . S
C1201 C1199 1.433 . S
C1201 N1204 1.384 . S
C1202 H1193 0.929 . S
C1202 C1194 1.378 . S
C1202 C1197 1.350 . S
C1203 H1190 0.929 . S
C1203 C1195 1.433 . S
C1203 N1205 1.384 . S
N1204 C1200 1.427 . S
N1204 C1201 1.384 . S
N1205 C1197 1.427 . S
N1205 C1203 1.384 . S
H1206 C1212 0.930 . S
H1207 C1216 0.930 . S
H1208 C1221 0.929 . S
H1209 C1219 0.929 . S
H1210 C1214 0.929 . S
H1211 C1220 0.929 . S
C1212 H1206 0.930 . S
C1212 C1213 1.367 . S
C1212 C1220 1.378 . S
C1213 C1212 1.367 . S
C1213 C1221 1.433 1_545 S
C1214 H1210 0.929 . S
C1214 C1216 1.378 . S
C1214 C1218 1.350 . S
C1215 C1218 1.463 1_544 S
C1215 C1220 1.350 . S
C1215 N1223 1.427 1_545 S
C1216 H1207 0.930 . S
C1216 C1214 1.378 . S
C1216 C1217 1.367 . S
C1217 C1216 1.367 . S
C1217 C1219 1.433 1_565 S
C1218 C1214 1.350 . S
C1218 C1215 1.463 1_566 S
C1218 N1222 1.427 1_565 S
C1219 H1209 0.929 . S
C1219 C1217 1.433 1_545 S
C1219 N1222 1.384 . S
C1220 H1211 0.929 . S
C1220 C1212 1.378 . S
C1220 C1215 1.350 . S
C1221 H1208 0.929 . S
C1221 C1213 1.433 1_565 S
C1221 N1223 1.384 . S
N1222 C1218 1.427 1_545 S
N1222 C1219 1.384 . S
N1223 C1215 1.427 1_565 S
N1223 C1221 1.384 . S
H1224 C1230 0.930 . S
H1225 C1234 0.930 . S
H1226 C1239 0.929 . S
H1227 C1237 0.929 . S
H1228 C1232 0.929 . S
H1229 C1238 0.929 . S
C1230 H1224 0.930 . S
C1230 C1231 1.367 . S
C1230 C1238 1.378 . S
C1231 C1230 1.367 . S
C1231 C1239 1.433 . S
C1232 H1228 0.929 . S
C1232 C1234 1.378 . S
C1232 C1236 1.350 . S
C1233 C1236 1.463 . S
C1233 C1238 1.350 . S
C1233 N1241 1.427 . S
C1234 H1225 0.930 . S
C1234 C1232 1.378 . S
C1234 C1235 1.367 . S
C1235 C1234 1.367 . S
C1235 C1237 1.433 . S
C1236 C1232 1.350 . S
C1236 C1233 1.463 . S
C1236 N1240 1.427 . S
C1237 H1227 0.929 . S
C1237 C1235 1.433 . S
C1237 N1240 1.384 . S
C1238 H1229 0.929 . S
C1238 C1230 1.378 . S
C1238 C1233 1.350 . S
C1239 H1226 0.929 . S
C1239 C1231 1.433 . S
C1239 N1241 1.384 . S
N1240 C1236 1.427 . S
N1240 C1237 1.384 . S
N1241 C1233 1.427 . S
N1241 C1239 1.384 . S
H1242 C1248 0.930 . S
H1243 C1252 0.930 . S
H1244 C1257 0.929 . S
H1245 C1255 0.929 . S
H1246 C1250 0.929 . S
H1247 C1256 0.929 . S
C1248 H1242 0.930 . S
C1248 C1249 1.367 . S
C1248 C1256 1.378 . S
C1249 C1248 1.367 . S
C1249 C1257 1.433 . S
C1250 H1246 0.929 . S
C1250 C1252 1.378 . S
C1250 C1254 1.350 . S
C1251 C1254 1.463 . S
C1251 C1256 1.350 . S
C1251 N1259 1.427 . S
C1252 H1243 0.930 . S
C1252 C1250 1.378 . S
C1252 C1253 1.367 . S
C1253 C1252 1.367 . S
C1253 C1255 1.433 . S
C1254 C1250 1.350 . S
C1254 C1251 1.463 . S
C1254 N1258 1.427 . S
C1255 H1245 0.929 . S
C1255 C1253 1.433 . S
C1255 N1258 1.384 . S
C1256 H1247 0.929 . S
C1256 C1248 1.378 . S
C1256 C1251 1.350 . S
C1257 H1244 0.929 . S
C1257 C1249 1.433 . S
C1257 N1259 1.384 . S
N1258 C1254 1.427 . S
N1258 C1255 1.384 . S
N1259 C1251 1.427 . S
N1259 C1257 1.384 . S
H1260 C1266 0.930 . S
H1261 C1270 0.930 . S
H1262 C1275 0.929 . S
H1263 C1273 0.929 . S
H1264 C1268 0.929 . S
H1265 C1274 0.929 . S
C1266 H1260 0.930 . S
C1266 C1267 1.367 . S
C1266 C1274 1.378 . S
C1267 C1266 1.367 . S
C1267 C1275 1.433 . S
C1268 H1264 0.929 . S
C1268 C1270 1.378 . S
C1268 C1272 1.350 . S
C1269 C1272 1.463 . S
C1269 C1274 1.350 . S
C1269 N1277 1.427 . S
C1270 H1261 0.930 . S
C1270 C1268 1.378 . S
C1270 C1271 1.367 . S
C1271 C1270 1.367 . S
C1271 C1273 1.433 . S
C1272 C1268 1.350 . S
C1272 C1269 1.463 . S
C1272 N1276 1.427 . S
C1273 H1263 0.929 . S
C1273 C1271 1.433 . S
C1273 N1276 1.384 . S
C1274 H1265 0.929 . S
C1274 C1266 1.378 . S
C1274 C1269 1.350 . S
C1275 H1262 0.929 . S
C1275 C1267 1.433 . S
C1275 N1277 1.384 . S
N1276 C1272 1.427 . S
N1276 C1273 1.384 . S
N1277 C1269 1.427 . S
N1277 C1275 1.384 . S
H1278 C1284 0.930 . S
H1279 C1288 0.930 . S
H1280 C1293 0.929 . S
H1281 C1291 0.929 . S
H1282 C1286 0.929 . S
H1283 C1292 0.929 . S
C1284 H1278 0.930 . S
C1284 C1285 1.367 . S
C1284 C1292 1.378 . S
C1285 C1284 1.367 . S
C1285 C1293 1.433 . S
C1286 H1282 0.929 . S
C1286 C1288 1.378 . S
C1286 C1290 1.350 . S
C1287 C1290 1.463 . S
C1287 C1292 1.350 . S
C1287 N1295 1.427 . S
C1288 H1279 0.930 . S
C1288 C1286 1.378 . S
C1288 C1289 1.367 . S
C1289 C1288 1.367 . S
C1289 C1291 1.433 . S
C1290 C1286 1.350 . S
C1290 C1287 1.463 . S
C1290 N1294 1.427 . S
C1291 H1281 0.929 . S
C1291 C1289 1.433 . S
C1291 N1294 1.384 . S
C1292 H1283 0.929 . S
C1292 C1284 1.378 . S
C1292 C1287 1.350 . S
C1293 H1280 0.929 . S
C1293 C1285 1.433 . S
C1293 N1295 1.384 . S
N1294 C1290 1.427 . S
N1294 C1291 1.384 . S
N1295 C1287 1.427 . S
N1295 C1293 1.384 . S
H1296 C1302 0.930 . S
H1297 C1306 0.930 . S
H1298 C1311 0.929 . S
H1299 C1309 0.929 . S
H1300 C1304 0.929 . S
H1301 C1310 0.929 . S
C1302 H1296 0.930 . S
C1302 C1303 1.367 . S
C1302 C1310 1.378 . S
C1303 C1302 1.367 . S
C1303 C1311 1.433 . S
C1304 H1300 0.929 . S
C1304 C1306 1.378 . S
C1304 C1308 1.350 . S
C1305 C1308 1.463 . S
C1305 C1310 1.350 . S
C1305 N1313 1.427 . S
C1306 H1297 0.930 . S
C1306 C1304 1.378 . S
C1306 C1307 1.367 . S
C1307 C1306 1.367 . S
C1307 C1309 1.433 . S
C1308 C1304 1.350 . S
C1308 C1305 1.463 . S
C1308 N1312 1.427 . S
C1309 H1299 0.929 . S
C1309 C1307 1.433 . S
C1309 N1312 1.384 . S
C1310 H1301 0.929 . S
C1310 C1302 1.378 . S
C1310 C1305 1.350 . S
C1311 H1298 0.929 . S
C1311 C1303 1.433 . S
C1311 N1313 1.384 . S
N1312 C1308 1.427 . S
N1312 C1309 1.384 . S
N1313 C1305 1.427 . S
N1313 C1311 1.384 . S
H1314 C1320 0.930 . S
H1315 C1324 0.930 . S
H1316 C1329 0.929 . S
H1317 C1327 0.929 . S
H1318 C1322 0.929 . S
H1319 C1328 0.929 . S
C1320 H1314 0.930 . S
C1320 C1321 1.367 . S
C1320 C1328 1.378 . S
C1321 C1320 1.367 . S
C1321 C1329 1.433 . S
C1322 H1318 0.929 . S
C1322 C1324 1.378 . S
C1322 C1326 1.350 . S
C1323 C1326 1.463 . S
C1323 C1328 1.350 . S
C1323 N1331 1.427 . S
C1324 H1315 0.930 . S
C1324 C1322 1.378 . S
C1324 C1325 1.367 . S
C1325 C1324 1.367 . S
C1325 C1327 1.433 . S
C1326 C1322 1.350 . S
C1326 C1323 1.463 . S
C1326 N1330 1.427 . S
C1327 H1317 0.929 . S
C1327 C1325 1.433 . S
C1327 N1330 1.384 . S
C1328 H1319 0.929 . S
C1328 C1320 1.378 . S
C1328 C1323 1.350 . S
C1329 H1316 0.929 . S
C1329 C1321 1.433 . S
C1329 N1331 1.384 . S
N1330 C1326 1.427 . S
N1330 C1327 1.384 . S
N1331 C1323 1.427 . S
N1331 C1329 1.384 . S
H1332 C1338 0.930 . S
H1333 C1342 0.930 . S
H1334 C1347 0.929 1_455 S
H1335 C1345 0.931 1_655 S
H1336 C1340 0.929 . S
H1337 C1346 0.929 . S
C1338 H1332 0.930 . S
C1338 C1339 1.367 . S
C1338 C1346 1.378 . S
C1339 C1338 1.367 . S
C1339 C1347 1.433 . S
C1340 H1336 0.929 . S
C1340 C1342 1.378 . S
C1340 C1344 1.350 . S
C1341 C1344 1.463 1_655 S
C1341 C1346 1.350 . S
C1341 N1349 1.427 1_655 S
C1342 H1333 0.930 . S
C1342 C1340 1.378 . S
C1342 C1343 1.367 . S
C1343 C1342 1.367 . S
C1343 C1345 1.434 . S
C1344 C1340 1.350 . S
C1344 C1341 1.463 1_455 S
C1344 N1348 1.427 1_455 S
C1345 H1335 0.931 1_455 S
C1345 C1343 1.434 . S
C1345 N1348 1.381 1_455 S
C1346 H1337 0.929 . S
C1346 C1338 1.378 . S
C1346 C1341 1.350 . S
C1347 H1334 0.929 1_655 S
C1347 C1339 1.433 . S
C1347 N1349 1.384 1_655 S
N1348 C1344 1.427 1_655 S
N1348 C1345 1.381 1_655 S
N1349 C1341 1.427 1_455 S
N1349 C1347 1.384 1_455 S
H1350 C1356 0.930 . S
H1351 C1360 0.930 . S
H1352 C1365 0.929 . S
H1353 C1363 0.929 . S
H1354 C1358 0.929 . S
H1355 C1364 0.929 . S
C1356 H1350 0.930 . S
C1356 C1357 1.367 . S
C1356 C1364 1.378 . S
C1357 C1356 1.367 . S
C1357 C1365 1.433 . S
C1358 H1354 0.929 . S
C1358 C1360 1.378 . S
C1358 C1362 1.350 . S
C1359 C1362 1.463 . S
C1359 C1364 1.350 . S
C1359 N1367 1.427 . S
C1360 H1351 0.930 . S
C1360 C1358 1.378 . S
C1360 C1361 1.367 . S
C1361 C1360 1.367 . S
C1361 C1363 1.433 . S
C1362 C1358 1.350 . S
C1362 C1359 1.463 . S
C1362 N1366 1.427 . S
C1363 H1353 0.929 . S
C1363 C1361 1.433 . S
C1363 N1366 1.384 . S
C1364 H1355 0.929 . S
C1364 C1356 1.378 . S
C1364 C1359 1.350 . S
C1365 H1352 0.929 . S
C1365 C1357 1.433 . S
C1365 N1367 1.384 . S
N1366 C1362 1.427 . S
N1366 C1363 1.384 . S
N1367 C1359 1.427 . S
N1367 C1365 1.384 . S
H1368 C1374 0.930 . S
H1369 C1378 0.930 . S
H1370 C1383 0.929 . S
H1371 C1381 0.929 . S
H1372 C1376 0.929 . S
H1373 C1382 0.929 . S
C1374 H1368 0.930 . S
C1374 C1375 1.367 1_545 S
C1374 C1382 1.378 . S
C1375 C1374 1.367 1_565 S
C1375 C1383 1.433 . S
C1376 H1372 0.929 . S
C1376 C1378 1.378 . S
C1376 C1380 1.350 1_565 S
C1377 C1380 1.463 1_565 S
C1377 C1382 1.350 1_565 S
C1377 N1385 1.427 . S
C1378 H1369 0.930 . S
C1378 C1376 1.378 . S
C1378 C1379 1.367 1_565 S
C1379 C1378 1.367 1_545 S
C1379 C1381 1.433 . S
C1380 C1376 1.350 1_545 S
C1380 C1377 1.463 1_545 S
C1380 N1384 1.427 . S
C1381 H1371 0.929 . S
C1381 C1379 1.433 . S
C1381 N1384 1.384 . S
C1382 H1373 0.929 . S
C1382 C1374 1.378 . S
C1382 C1377 1.350 1_545 S
C1383 H1370 0.929 . S
C1383 C1375 1.433 . S
C1383 N1385 1.384 . S
N1384 C1380 1.427 . S
N1384 C1381 1.384 . S
N1385 C1377 1.427 . S
N1385 C1383 1.384 . S
H1386 C1392 0.930 . S
H1387 C1396 0.930 . S
H1388 C1401 0.929 . S
H1389 C1399 0.929 . S
H1390 C1394 0.929 . S
H1391 C1400 0.929 . S
C1392 H1386 0.930 . S
C1392 C1393 1.367 1_556 S
C1392 C1400 1.378 . S
C1393 C1392 1.367 1_554 S
C1393 C1401 1.433 . S
C1394 H1390 0.929 . S
C1394 C1396 1.378 . S
C1394 C1398 1.350 1_554 S
C1395 C1398 1.463 1_554 S
C1395 C1400 1.350 1_554 S
C1395 N1403 1.427 . S
C1396 H1387 0.930 . S
C1396 C1394 1.378 . S
C1396 C1397 1.367 1_554 S
C1397 C1396 1.367 1_556 S
C1397 C1399 1.433 . S
C1398 C1394 1.350 1_556 S
C1398 C1395 1.463 1_556 S
C1398 N1402 1.427 . S
C1399 H1389 0.929 . S
C1399 C1397 1.433 . S
C1399 N1402 1.384 . S
C1400 H1391 0.929 . S
C1400 C1392 1.378 . S
C1400 C1395 1.350 1_556 S
C1401 H1388 0.929 . S
C1401 C1393 1.433 . S
C1401 N1403 1.384 . S
N1402 C1398 1.427 . S
N1402 C1399 1.384 . S
N1403 C1395 1.427 . S
N1403 C1401 1.384 . S
H1404 C1410 0.939 . S
H1405 C1414 0.939 . S
H1406 C1419 0.929 . S
H1407 C1417 0.929 . S
H1408 C1412 0.929 . S
H1409 C1418 0.929 . S
C1410 H1404 0.939 . S
C1410 C1411 1.352 1_554 S
C1410 C1418 1.384 . S
C1411 C1410 1.352 1_556 S
C1411 C1419 1.433 . S
C1412 H1408 0.929 . S
C1412 C1414 1.384 . S
C1412 C1416 1.350 1_556 S
C1413 C1416 1.463 1_546 S
C1413 C1418 1.350 1_556 S
C1413 N1421 1.427 . S
C1414 H1405 0.939 . S
C1414 C1412 1.384 . S
C1414 C1415 1.352 1_556 S
C1415 C1414 1.352 1_554 S
C1415 C1417 1.433 . S
C1416 C1412 1.350 1_554 S
C1416 C1413 1.463 1_564 S
C1416 N1420 1.427 . S
C1417 H1407 0.929 . S
C1417 C1415 1.433 . S
C1417 N1420 1.384 . S
C1418 H1409 0.929 . S
C1418 C1410 1.384 . S
C1418 C1413 1.350 1_554 S
C1419 H1406 0.929 . S
C1419 C1411 1.433 . S
C1419 N1421 1.384 . S
N1420 C1416 1.427 . S
N1420 C1417 1.384 . S
N1421 C1413 1.427 . S
N1421 C1419 1.384 . S
H1422 C1428 0.930 . S
H1423 C1432 0.930 . S
H1424 C1437 0.929 . S
H1425 C1435 0.929 . S
H1426 C1430 0.929 . S
H1427 C1436 0.929 . S
C1428 H1422 0.930 . S
C1428 C1429 1.367 1_554 S
C1428 C1436 1.378 . S
C1429 C1428 1.367 1_556 S
C1429 C1437 1.433 . S
C1430 H1426 0.929 . S
C1430 C1432 1.378 . S
C1430 C1434 1.350 1_556 S
C1431 C1434 1.463 1_656 S
C1431 C1436 1.350 1_556 S
C1431 N1439 1.427 . S
C1432 H1423 0.930 . S
C1432 C1430 1.378 . S
C1432 C1433 1.367 1_556 S
C1433 C1432 1.367 1_554 S
C1433 C1435 1.433 . S
C1434 C1430 1.350 1_554 S
C1434 C1431 1.463 1_454 S
C1434 N1438 1.427 . S
C1435 H1425 0.929 . S
C1435 C1433 1.433 . S
C1435 N1438 1.384 . S
C1436 H1427 0.929 . S
C1436 C1428 1.378 . S
C1436 C1431 1.350 1_554 S
C1437 H1424 0.929 . S
C1437 C1429 1.433 . S
C1437 N1439 1.384 . S
N1438 C1434 1.427 . S
N1438 C1435 1.384 . S
N1439 C1431 1.427 . S
N1439 C1437 1.384 . S
H1440 C1446 0.930 . S
H1441 C1450 0.930 . S
H1442 C1455 0.929 . S
H1443 C1453 0.929 . S
H1444 C1448 0.929 . S
H1445 C1454 0.929 . S
C1446 H1440 0.930 . S
C1446 C1447 1.367 1_554 S
C1446 C1454 1.378 . S
C1447 C1446 1.367 1_556 S
C1447 C1455 1.433 . S
C1448 H1444 0.929 . S
C1448 C1450 1.378 . S
C1448 C1452 1.350 1_556 S
C1449 C1452 1.463 1_556 S
C1449 C1454 1.350 1_556 S
C1449 N1457 1.427 . S
C1450 H1441 0.930 . S
C1450 C1448 1.378 . S
C1450 C1451 1.367 1_556 S
C1451 C1450 1.367 1_554 S
C1451 C1453 1.433 . S
C1452 C1448 1.350 1_554 S
C1452 C1449 1.463 1_554 S
C1452 N1456 1.427 . S
C1453 H1443 0.929 . S
C1453 C1451 1.433 . S
C1453 N1456 1.384 . S
C1454 H1445 0.929 . S
C1454 C1446 1.378 . S
C1454 C1449 1.350 1_554 S
C1455 H1442 0.929 . S
C1455 C1447 1.433 . S
C1455 N1457 1.384 . S
N1456 C1452 1.427 . S
N1456 C1453 1.384 . S
N1457 C1449 1.427 . S
N1457 C1455 1.384 . S
H1458 C1464 0.930 . S
H1459 C1468 0.930 . S
H1460 C1473 0.929 . S
H1461 C1471 0.929 . S
H1462 C1466 0.929 . S
H1463 C1472 0.929 . S
C1464 H1458 0.930 . S
C1464 C1465 1.367 1_556 S
C1464 C1472 1.378 . S
C1465 C1464 1.367 1_554 S
C1465 C1473 1.433 . S
C1466 H1462 0.929 . S
C1466 C1468 1.378 . S
C1466 C1470 1.350 1_554 S
C1467 C1470 1.463 1_564 S
C1467 C1472 1.350 1_554 S
C1467 N1475 1.427 . S
C1468 H1459 0.930 . S
C1468 C1466 1.378 . S
C1468 C1469 1.367 1_554 S
C1469 C1468 1.367 1_556 S
C1469 C1471 1.433 . S
C1470 C1466 1.350 1_556 S
C1470 C1467 1.463 1_546 S
C1470 N1474 1.427 . S
C1471 H1461 0.929 . S
C1471 C1469 1.433 . S
C1471 N1474 1.384 . S
C1472 H1463 0.929 . S
C1472 C1464 1.378 . S
C1472 C1467 1.350 1_556 S
C1473 H1460 0.929 . S
C1473 C1465 1.433 . S
C1473 N1475 1.384 . S
N1474 C1470 1.427 . S
N1474 C1471 1.384 . S
N1475 C1467 1.427 . S
N1475 C1473 1.384 . S
H1476 C1482 0.930 1_554 S
H1477 C1486 0.930 1_556 S
H1478 C1491 0.929 . S
H1479 C1489 0.929 . S
H1480 C1484 0.929 . S
H1481 C1490 0.929 . S
C1482 H1476 0.930 1_556 S
C1482 C1483 1.367 . S
C1482 C1490 1.378 1_556 S
C1483 C1482 1.367 . S
C1483 C1491 1.433 . S
C1484 H1480 0.929 . S
C1484 C1486 1.378 1_556 S
C1484 C1488 1.350 1_556 S
C1485 C1488 1.463 1_656 S
C1485 C1490 1.350 1_556 S
C1485 N1493 1.427 . S
C1486 H1477 0.930 1_554 S
C1486 C1484 1.378 1_554 S
C1486 C1487 1.367 . S
C1487 C1486 1.367 . S
C1487 C1489 1.433 . S
C1488 C1484 1.350 1_554 S
C1488 C1485 1.463 1_454 S
C1488 N1492 1.427 . S
C1489 H1479 0.929 . S
C1489 C1487 1.433 . S
C1489 N1492 1.384 . S
C1490 H1481 0.929 . S
C1490 C1482 1.378 1_554 S
C1490 C1485 1.350 1_554 S
C1491 H1478 0.929 . S
C1491 C1483 1.433 . S
C1491 N1493 1.384 . S
N1492 C1488 1.427 . S
N1492 C1489 1.384 . S
N1493 C1485 1.427 . S
N1493 C1491 1.384 . S
H1494 C1500 0.930 . S
H1495 C1504 0.930 . S
H1496 C1509 0.929 . S
H1497 C1507 0.929 . S
H1498 C1502 0.929 . S
H1499 C1508 0.929 . S
C1500 H1494 0.930 . S
C1500 C1501 1.367 . S
C1500 C1508 1.378 . S
C1501 C1500 1.367 . S
C1501 C1509 1.433 . S
C1502 H1498 0.929 . S
C1502 C1504 1.378 . S
C1502 C1506 1.350 . S
C1503 C1506 1.463 . S
C1503 C1508 1.350 . S
C1503 N1511 1.427 . S
C1504 H1495 0.930 . S
C1504 C1502 1.378 . S
C1504 C1505 1.367 . S
C1505 C1504 1.367 . S
C1505 C1507 1.433 . S
C1506 C1502 1.350 . S
C1506 C1503 1.463 . S
C1506 N1510 1.427 . S
C1507 H1497 0.929 . S
C1507 C1505 1.433 . S
C1507 N1510 1.384 . S
C1508 H1499 0.929 . S
C1508 C1500 1.378 . S
C1508 C1503 1.350 . S
C1509 H1496 0.929 . S
C1509 C1501 1.433 . S
C1509 N1511 1.384 . S
N1510 C1506 1.427 . S
N1510 C1507 1.384 . S
N1511 C1503 1.427 . S
N1511 C1509 1.384 . S
H1512 C1518 0.930 . S
H1513 C1522 0.930 . S
H1514 C1527 0.929 . S
H1515 C1525 0.929 . S
H1516 C1520 0.929 . S
H1517 C1526 0.929 . S
C1518 H1512 0.930 . S
C1518 C1519 1.367 . S
C1518 C1526 1.378 . S
C1519 C1518 1.367 . S
C1519 C1527 1.433 . S
C1520 H1516 0.929 . S
C1520 C1522 1.378 . S
C1520 C1524 1.350 . S
C1521 C1524 1.463 . S
C1521 C1526 1.350 . S
C1521 N1529 1.427 . S
C1522 H1513 0.930 . S
C1522 C1520 1.378 . S
C1522 C1523 1.367 . S
C1523 C1522 1.367 . S
C1523 C1525 1.433 . S
C1524 C1520 1.350 . S
C1524 C1521 1.463 . S
C1524 N1528 1.427 . S
C1525 H1515 0.929 . S
C1525 C1523 1.433 . S
C1525 N1528 1.384 . S
C1526 H1517 0.929 . S
C1526 C1518 1.378 . S
C1526 C1521 1.350 . S
C1527 H1514 0.929 . S
C1527 C1519 1.433 . S
C1527 N1529 1.384 . S
N1528 C1524 1.427 . S
N1528 C1525 1.384 . S
N1529 C1521 1.427 . S
N1529 C1527 1.384 . S
H1530 C1536 0.930 . S
H1531 C1540 0.930 . S
H1532 C1545 0.929 . S
H1533 C1543 0.929 . S
H1534 C1538 0.929 . S
H1535 C1544 0.929 . S
C1536 H1530 0.930 . S
C1536 C1537 1.367 . S
C1536 C1544 1.378 . S
C1537 C1536 1.367 . S
C1537 C1545 1.433 . S
C1538 H1534 0.929 . S
C1538 C1540 1.378 . S
C1538 C1542 1.350 . S
C1539 C1542 1.463 . S
C1539 C1544 1.350 . S
C1539 N1547 1.427 . S
C1540 H1531 0.930 . S
C1540 C1538 1.378 . S
C1540 C1541 1.367 . S
C1541 C1540 1.367 . S
C1541 C1543 1.433 . S
C1542 C1538 1.350 . S
C1542 C1539 1.463 . S
C1542 N1546 1.427 . S
C1543 H1533 0.929 . S
C1543 C1541 1.433 . S
C1543 N1546 1.384 . S
C1544 H1535 0.929 . S
C1544 C1536 1.378 . S
C1544 C1539 1.350 . S
C1545 H1532 0.929 . S
C1545 C1537 1.433 . S
C1545 N1547 1.384 . S
N1546 C1542 1.427 . S
N1546 C1543 1.384 . S
N1547 C1539 1.427 . S
N1547 C1545 1.384 . S
H1548 C1554 0.930 . S
H1549 C1558 0.930 . S
H1550 C1563 0.929 . S
H1551 C1561 0.929 . S
H1552 C1556 0.929 . S
H1553 C1562 0.929 . S
C1554 H1548 0.930 . S
C1554 C1555 1.367 . S
C1554 C1562 1.378 . S
C1555 C1554 1.367 . S
C1555 C1563 1.433 . S
C1556 H1552 0.929 . S
C1556 C1558 1.378 . S
C1556 C1560 1.350 . S
C1557 C1560 1.463 . S
C1557 C1562 1.350 . S
C1557 N1565 1.427 . S
C1558 H1549 0.930 . S
C1558 C1556 1.378 . S
C1558 C1559 1.367 . S
C1559 C1558 1.367 . S
C1559 C1561 1.433 . S
C1560 C1556 1.350 . S
C1560 C1557 1.463 . S
C1560 N1564 1.427 . S
C1561 H1551 0.929 . S
C1561 C1559 1.433 . S
C1561 N1564 1.384 . S
C1562 H1553 0.929 . S
C1562 C1554 1.378 . S
C1562 C1557 1.350 . S
C1563 H1550 0.929 . S
C1563 C1555 1.433 . S
C1563 N1565 1.384 . S
N1564 C1560 1.427 . S
N1564 C1561 1.384 . S
N1565 C1557 1.427 . S
N1565 C1563 1.384 . S
H1566 C1572 0.930 . S
H1567 C1576 0.930 . S
H1568 C1581 0.929 . S
H1569 C1579 0.929 . S
H1570 C1574 0.929 . S
H1571 C1580 0.929 . S
C1572 H1566 0.930 . S
C1572 C1573 1.367 . S
C1572 C1580 1.378 . S
C1573 C1572 1.367 . S
C1573 C1581 1.433 . S
C1574 H1570 0.929 . S
C1574 C1576 1.378 . S
C1574 C1578 1.350 . S
C1575 C1578 1.463 . S
C1575 C1580 1.350 . S
C1575 N1583 1.427 . S
C1576 H1567 0.930 . S
C1576 C1574 1.378 . S
C1576 C1577 1.367 . S
C1577 C1576 1.367 . S
C1577 C1579 1.433 . S
C1578 C1574 1.350 . S
C1578 C1575 1.463 . S
C1578 N1582 1.427 . S
C1579 H1569 0.929 . S
C1579 C1577 1.433 . S
C1579 N1582 1.384 . S
C1580 H1571 0.929 . S
C1580 C1572 1.378 . S
C1580 C1575 1.350 . S
C1581 H1568 0.929 . S
C1581 C1573 1.433 . S
C1581 N1583 1.384 . S
N1582 C1578 1.427 . S
N1582 C1579 1.384 . S
N1583 C1575 1.427 . S
N1583 C1581 1.384 . S
H1584 C1590 0.930 . S
H1585 C1594 0.930 . S
H1586 C1599 0.929 . S
H1587 C1597 0.929 . S
H1588 C1592 0.929 . S
H1589 C1598 0.929 . S
C1590 H1584 0.930 . S
C1590 C1591 1.367 . S
C1590 C1598 1.378 . S
C1591 C1590 1.367 . S
C1591 C1599 1.433 . S
C1592 H1588 0.929 . S
C1592 C1594 1.378 . S
C1592 C1596 1.350 . S
C1593 C1596 1.463 . S
C1593 C1598 1.350 . S
C1593 N1601 1.427 . S
C1594 H1585 0.930 . S
C1594 C1592 1.378 . S
C1594 C1595 1.367 . S
C1595 C1594 1.367 . S
C1595 C1597 1.433 . S
C1596 C1592 1.350 . S
C1596 C1593 1.463 . S
C1596 N1600 1.427 . S
C1597 H1587 0.929 . S
C1597 C1595 1.433 . S
C1597 N1600 1.384 . S
C1598 H1589 0.929 . S
C1598 C1590 1.378 . S
C1598 C1593 1.350 . S
C1599 H1586 0.929 . S
C1599 C1591 1.433 . S
C1599 N1601 1.384 . S
N1600 C1596 1.427 . S
N1600 C1597 1.384 . S
N1601 C1593 1.427 . S
N1601 C1599 1.384 . S
H1602 C1608 0.930 . S
H1603 C1612 0.930 . S
H1604 C1617 0.929 . S
H1605 C1615 0.929 . S
H1606 C1610 0.929 . S
H1607 C1616 0.929 . S
C1608 H1602 0.930 . S
C1608 C1609 1.367 . S
C1608 C1616 1.378 . S
C1609 C1608 1.367 . S
C1609 C1617 1.433 . S
C1610 H1606 0.929 . S
C1610 C1612 1.378 . S
C1610 C1614 1.350 . S
C1611 C1614 1.463 . S
C1611 C1616 1.350 . S
C1611 N1619 1.427 . S
C1612 H1603 0.930 . S
C1612 C1610 1.378 . S
C1612 C1613 1.367 . S
C1613 C1612 1.367 . S
C1613 C1615 1.433 . S
C1614 C1610 1.350 . S
C1614 C1611 1.463 . S
C1614 N1618 1.427 . S
C1615 H1605 0.929 . S
C1615 C1613 1.433 . S
C1615 N1618 1.384 . S
C1616 H1607 0.929 . S
C1616 C1608 1.378 . S
C1616 C1611 1.350 . S
C1617 H1604 0.929 . S
C1617 C1609 1.433 . S
C1617 N1619 1.384 . S
N1618 C1614 1.427 . S
N1618 C1615 1.384 . S
N1619 C1611 1.427 . S
N1619 C1617 1.384 . S
H1620 C1626 0.930 . S
H1621 C1630 0.930 . S
H1622 C1635 0.929 . S
H1623 C1633 0.929 . S
H1624 C1628 0.929 . S
H1625 C1634 0.929 . S
C1626 H1620 0.930 . S
C1626 C1627 1.367 . S
C1626 C1634 1.378 . S
C1627 C1626 1.367 . S
C1627 C1635 1.433 . S
C1628 H1624 0.929 . S
C1628 C1630 1.378 . S
C1628 C1632 1.350 . S
C1629 C1632 1.463 . S
C1629 C1634 1.350 . S
C1629 N1637 1.427 . S
C1630 H1621 0.930 . S
C1630 C1628 1.378 . S
C1630 C1631 1.367 . S
C1631 C1630 1.367 . S
C1631 C1633 1.433 . S
C1632 C1628 1.350 . S
C1632 C1629 1.463 . S
C1632 N1636 1.427 . S
C1633 H1623 0.929 . S
C1633 C1631 1.433 . S
C1633 N1636 1.384 . S
C1634 H1625 0.929 . S
C1634 C1626 1.378 . S
C1634 C1629 1.350 . S
C1635 H1622 0.929 . S
C1635 C1627 1.433 . S
C1635 N1637 1.384 . S
N1636 C1632 1.427 . S
N1636 C1633 1.384 . S
N1637 C1629 1.427 . S
N1637 C1635 1.384 . S
H1638 C1644 0.930 . S
H1639 C1648 0.930 . S
H1640 C1653 0.929 . S
H1641 C1651 0.929 . S
H1642 C1646 0.929 . S
H1643 C1652 0.929 . S
C1644 H1638 0.930 . S
C1644 C1645 1.367 . S
C1644 C1652 1.378 . S
C1645 C1644 1.367 . S
C1645 C1653 1.433 . S
C1646 H1642 0.929 . S
C1646 C1648 1.378 . S
C1646 C1650 1.350 . S
C1647 C1650 1.463 . S
C1647 C1652 1.350 . S
C1647 N1655 1.427 . S
C1648 H1639 0.930 . S
C1648 C1646 1.378 . S
C1648 C1649 1.367 . S
C1649 C1648 1.367 . S
C1649 C1651 1.433 . S
C1650 C1646 1.350 . S
C1650 C1647 1.463 . S
C1650 N1654 1.427 . S
C1651 H1641 0.929 . S
C1651 C1649 1.433 . S
C1651 N1654 1.384 . S
C1652 H1643 0.929 . S
C1652 C1644 1.378 . S
C1652 C1647 1.350 . S
C1653 H1640 0.929 . S
C1653 C1645 1.433 . S
C1653 N1655 1.384 . S
N1654 C1650 1.427 . S
N1654 C1651 1.384 . S
N1655 C1647 1.427 . S
N1655 C1653 1.384 . S
H1656 C1662 0.930 . S
H1657 C1666 0.930 . S
H1658 C1671 0.929 . S
H1659 C1669 0.929 . S
H1660 C1664 0.929 . S
H1661 C1670 0.929 . S
C1662 H1656 0.930 . S
C1662 C1663 1.367 . S
C1662 C1670 1.378 . S
C1663 C1662 1.367 . S
C1663 C1671 1.433 . S
C1664 H1660 0.929 . S
C1664 C1666 1.378 . S
C1664 C1668 1.350 . S
C1665 C1668 1.463 . S
C1665 C1670 1.350 . S
C1665 N1673 1.427 . S
C1666 H1657 0.930 . S
C1666 C1664 1.378 . S
C1666 C1667 1.367 . S
C1667 C1666 1.367 . S
C1667 C1669 1.433 . S
C1668 C1664 1.350 . S
C1668 C1665 1.463 . S
C1668 N1672 1.427 . S
C1669 H1659 0.929 . S
C1669 C1667 1.433 . S
C1669 N1672 1.384 . S
C1670 H1661 0.929 . S
C1670 C1662 1.378 . S
C1670 C1665 1.350 . S
C1671 H1658 0.929 . S
C1671 C1663 1.433 . S
C1671 N1673 1.384 . S
N1672 C1668 1.427 . S
N1672 C1669 1.384 . S
N1673 C1665 1.427 . S
N1673 C1671 1.384 . S
H1674 C1680 0.930 . S
H1675 C1684 0.930 . S
H1676 C1689 0.929 . S
H1677 C1687 0.929 . S
H1678 C1682 0.929 . S
H1679 C1688 0.929 . S
C1680 H1674 0.930 . S
C1680 C1681 1.367 . S
C1680 C1688 1.378 . S
C1681 C1680 1.367 . S
C1681 C1689 1.433 . S
C1682 H1678 0.929 . S
C1682 C1684 1.378 . S
C1682 C1686 1.350 . S
C1683 C1686 1.463 . S
C1683 C1688 1.350 . S
C1683 N1691 1.427 . S
C1684 H1675 0.930 . S
C1684 C1682 1.378 . S
C1684 C1685 1.367 . S
C1685 C1684 1.367 . S
C1685 C1687 1.433 . S
C1686 C1682 1.350 . S
C1686 C1683 1.463 . S
C1686 N1690 1.427 . S
C1687 H1677 0.929 . S
C1687 C1685 1.433 . S
C1687 N1690 1.384 . S
C1688 H1679 0.929 . S
C1688 C1680 1.378 . S
C1688 C1683 1.350 . S
C1689 H1676 0.929 . S
C1689 C1681 1.433 . S
C1689 N1691 1.384 . S
N1690 C1686 1.427 . S
N1690 C1687 1.384 . S
N1691 C1683 1.427 . S
N1691 C1689 1.384 . S
H1692 C1698 0.930 . S
H1693 C1702 0.930 . S
H1694 C1707 0.929 . S
H1695 C1705 0.929 . S
H1696 C1700 0.929 . S
H1697 C1706 0.929 . S
C1698 H1692 0.930 . S
C1698 C1699 1.367 . S
C1698 C1706 1.378 . S
C1699 C1698 1.367 . S
C1699 C1707 1.433 . S
C1700 H1696 0.929 . S
C1700 C1702 1.378 . S
C1700 C1704 1.350 . S
C1701 C1704 1.463 . S
C1701 C1706 1.350 . S
C1701 N1709 1.427 . S
C1702 H1693 0.930 . S
C1702 C1700 1.378 . S
C1702 C1703 1.367 . S
C1703 C1702 1.367 . S
C1703 C1705 1.433 . S
C1704 C1700 1.350 . S
C1704 C1701 1.463 . S
C1704 N1708 1.427 . S
C1705 H1695 0.929 . S
C1705 C1703 1.433 . S
C1705 N1708 1.384 . S
C1706 H1697 0.929 . S
C1706 C1698 1.378 . S
C1706 C1701 1.350 . S
C1707 H1694 0.929 . S
C1707 C1699 1.433 . S
C1707 N1709 1.384 . S
N1708 C1704 1.427 . S
N1708 C1705 1.384 . S
N1709 C1701 1.427 . S
N1709 C1707 1.384 . S
C1069 C1006 1.733 . S
C1073 C3 1.737 . S
C1087 C890 1.730 . S
C1091 C64 1.730 . S
C1105 C949 1.731 . S
C1109 C123 1.731 . S
C1123 C418 1.730 . S
C1127 C182 1.731 . S
C1141 C477 1.732 . S
C1145 C241 1.732 . S
C1159 C298 1.735 . S
C1163 C357 1.735 . S
C1177 C536 1.730 . S
C1181 C772 1.730 . S
C1195 C595 1.731 . S
C1199 C831 1.732 . S
C1213 C652 1.734 . S
C1217 C711 1.736 . S
C1231 C33 0.621 . S
C1235 C1036 0.620 . S
C1249 C937 0.596 . S
C1253 C111 0.590 . S
C1267 C170 0.597 . S
C1271 C996 0.605 . S
C1285 C465 0.598 . S
C1289 C229 0.590 . S
C1303 C288 0.605 . S
C1307 C524 0.596 . S
C1321 C328 0.622 . S
C1325 C387 0.620 . S
C1339 C583 0.591 . S
C1343 C819 0.600 . S
C1357 C878 0.597 . S
C1361 C642 0.606 . S
C1375 C741 0.621 . S
C1379 C682 0.620 . S
C1393 C52 1.848 . S
C1397 C210 1.845 . S
C1411 C269 1.846 . S
C1415 C92 1.843 . S
C1429 C347 1.844 . S
C1433 C151 1.847 . S
C1447 C300 1.826 . S
C1451 C62 1.802 . S
C1465 C121 1.803 . S
C1469 C180 1.804 . S
C1483 C239 1.806 . S
C1487 C5 1.827 . S
C1501 C406 1.845 . S
C1505 C564 1.850 . S
C1519 C623 1.845 . S
C1523 C446 1.848 . S
C1537 C701 1.846 . S
C1541 C505 1.846 . S
C1555 C654 1.826 . S
C1559 C416 1.803 . S
C1573 C475 1.804 . S
C1577 C534 1.803 . S
C1591 C593 1.809 . S
C1595 C359 1.832 . S
C1609 C918 1.846 . S
C1613 C760 1.849 . S
C1627 C977 1.845 . S
C1631 C800 1.848 . S
C1645 C859 1.846 . S
C1649 C1055 1.845 . S
C1663 C1008 1.832 . S
C1667 C770 1.811 . S
C1681 C829 1.803 . S
C1685 C888 1.804 . S
C1699 C947 1.808 . S
C1703 C713 1.827 . S
