# Generated by pormake.
# Topology umj, (4)-cn, num edge types: 1
# Building blocks:
#     Node 0, Type 0, BuildingBlock: ESEHIV_clean_sbu_0, # of connection points: 4
#     Node 1, Type 0, BuildingBlock: ESEHIV_clean_sbu_0, # of connection points: 4
#     Node 2, Type 0, BuildingBlock: ESEHIV_clean_sbu_0, # of connection points: 4
#     Node 3, Type 0, BuildingBlock: ESEHIV_clean_sbu_0, # of connection points: 4
#     Node 4, Type 0, BuildingBlock: ESEHIV_clean_sbu_0, # of connection points: 4
#     Node 5, Type 0, BuildingBlock: ESEHIV_clean_sbu_0, # of connection points: 4
#     Node 6, Type 0, BuildingBlock: ESEHIV_clean_sbu_0, # of connection points: 4
#     Node 7, Type 0, BuildingBlock: ESEHIV_clean_sbu_0, # of connection points: 4
#     Node 8, Type 0, BuildingBlock: ESEHIV_clean_sbu_0, # of connection points: 4
#     Node 9, Type 0, BuildingBlock: ESEHIV_clean_sbu_0, # of connection points: 4
#     Node 10, Type 0, BuildingBlock: ESEHIV_clean_sbu_0, # of connection points: 4
#     Node 11, Type 0, BuildingBlock: ESEHIV_clean_sbu_0, # of connection points: 4
#     Edge 12, Type (0, 0), BuildingBlock: XIVTED_clean_linker_0, # of connection points: 2
#     Edge 13, Type (0, 0), BuildingBlock: XIVTED_clean_linker_0, # of connection points: 2
#     Edge 14, Type (0, 0), BuildingBlock: XIVTED_clean_linker_0, # of connection points: 2
#     Edge 15, Type (0, 0), BuildingBlock: XIVTED_clean_linker_0, # of connection points: 2
#     Edge 16, Type (0, 0), BuildingBlock: XIVTED_clean_linker_0, # of connection points: 2
#     Edge 17, Type (0, 0), BuildingBlock: XIVTED_clean_linker_0, # of connection points: 2
#     Edge 18, Type (0, 0), BuildingBlock: XIVTED_clean_linker_0, # of connection points: 2
#     Edge 19, Type (0, 0), BuildingBlock: XIVTED_clean_linker_0, # of connection points: 2
#     Edge 20, Type (0, 0), BuildingBlock: XIVTED_clean_linker_0, # of connection points: 2
#     Edge 21, Type (0, 0), BuildingBlock: XIVTED_clean_linker_0, # of connection points: 2
#     Edge 22, Type (0, 0), BuildingBlock: XIVTED_clean_linker_0, # of connection points: 2
#     Edge 23, Type (0, 0), BuildingBlock: XIVTED_clean_linker_0, # of connection points: 2
#     Edge 24, Type (0, 0), BuildingBlock: XIVTED_clean_linker_0, # of connection points: 2
#     Edge 25, Type (0, 0), BuildingBlock: XIVTED_clean_linker_0, # of connection points: 2
#     Edge 26, Type (0, 0), BuildingBlock: XIVTED_clean_linker_0, # of connection points: 2
#     Edge 27, Type (0, 0), BuildingBlock: XIVTED_clean_linker_0, # of connection points: 2
#     Edge 28, Type (0, 0), BuildingBlock: XIVTED_clean_linker_0, # of connection points: 2
#     Edge 29, Type (0, 0), BuildingBlock: XIVTED_clean_linker_0, # of connection points: 2
#     Edge 30, Type (0, 0), BuildingBlock: XIVTED_clean_linker_0, # of connection points: 2
#     Edge 31, Type (0, 0), BuildingBlock: XIVTED_clean_linker_0, # of connection points: 2
#     Edge 32, Type (0, 0), BuildingBlock: XIVTED_clean_linker_0, # of connection points: 2
#     Edge 33, Type (0, 0), BuildingBlock: XIVTED_clean_linker_0, # of connection points: 2
#     Edge 34, Type (0, 0), BuildingBlock: XIVTED_clean_linker_0, # of connection points: 2
#     Edge 35, Type (0, 0), BuildingBlock: XIVTED_clean_linker_0, # of connection points: 2
# Relax obj value: 0.040
# Max RMSD: 0.098
# Mean RMSD: 0.085
data_MOF--net-umj--node1-ESEHIV_clean_sbu_0--edge1-XIVTED_clean_linker_0
_symmetry_space_group_name_H-M    P1
_symmetry_Int_Tables_number       1
_symmetry_cell_setting            triclinic
loop_
_symmetry_equiv_pos_as_xyz
'x, y, z'
_cell_length_a     29.114167
_cell_length_b     34.342762
_cell_length_c     88.616817
_cell_angle_alpha  90.09327
_cell_angle_beta   90.033241
_cell_angle_gamma 114.7675
loop_
_atom_site_label
_atom_site_type_symbol
_atom_site_fract_x
_atom_site_fract_y
_atom_site_fract_z
_atom_type_partial_charge
Cu0 Cu 0.08531 0.29411 0.10674 0.0
N1 N 0.04327 0.2359 0.10658 0.0
N2 N 1.01991 0.16546 0.10421 0.0
C3 C 0.05453 0.20506 0.10054 0.0
C4 C 0.98544 0.17189 0.11282 0.0
C5 C 1.00018 0.21538 0.11435 0.0
O6 O 0.12518 0.30648 0.08821 0.0
C7 C 0.15362 0.33822 0.13151 0.0
O8 O 0.16685 0.37417 0.12398 0.0
H9 H 0.08857 0.21176 0.09411 0.0
H10 H 0.98227 0.23093 0.1213 0.0
N11 N 0.04539 0.3249 0.10675 0.0
N12 N 1.0229 0.37946 0.1061 0.0
C13 C 0.06083 0.36746 0.10854 0.0
C14 C 0.996 0.30966 0.10306 0.0
C15 C 0.98207 0.3433 0.10259 0.0
C16 C 0.1006 0.30231 0.07593 0.0
O17 O 0.05173 0.29153 0.07666 0.0
H18 H 0.09957 0.38962 0.11067 0.0
H19 H 0.97231 0.27669 0.10016 0.0
O20 O 0.1231 0.30311 0.12558 0.0
H21 H 0.9536 0.1471 0.11842 0.0
H22 H 0.94525 0.34157 0.09954 0.0
Cu23 Cu 0.80007 0.02904 0.42432 0.0
N24 N 0.81038 0.05211 0.44371 0.0
N25 N 0.80809 0.05221 0.46887 0.0
C26 C 0.78444 0.03237 0.45611 0.0
C27 C 0.85039 0.08575 0.46433 0.0
C28 C 0.85166 0.08566 0.44879 0.0
O29 O 0.72654 0.99937 0.42171 0.0
C30 C 0.84697 0.97164 0.41465 0.0
O31 O 0.83017 0.97088 0.40085 0.0
H32 H 0.75148 1.00196 0.45584 0.0
H33 H 0.88234 0.10659 0.44173 0.0
N34 N 0.82976 0.07451 0.41058 0.0
N35 N 0.87124 0.11542 0.391 0.0
C36 C 0.85399 0.0761 0.39744 0.0
C37 C 0.83164 0.11405 0.41243 0.0
C38 C 0.85719 0.1393 0.40045 0.0
C39 C 0.70334 1.00274 0.40994 0.0
O40 O 0.72986 0.02318 0.39817 0.0
H41 H 0.85926 0.04924 0.39273 0.0
H42 H 0.81537 0.1238 0.42188 0.0
O43 O 0.83585 0.99211 0.42494 0.0
H44 H 0.87961 0.10726 0.47175 0.0
H45 H 0.86387 0.17241 0.39867 0.0
Cu46 Cu 0.78202 0.77229 0.78588 0.0
N47 N 0.8067 0.8282 0.79357 0.0
N48 N 0.86575 0.89376 0.7989 0.0
C49 C 0.85573 0.85552 0.7924 0.0
C50 C 0.82094 0.89044 0.80435 0.0
C51 C 0.78453 0.84976 0.80112 0.0
O52 O 0.79169 0.77777 0.76405 0.0
C53 C 0.80836 0.74526 0.81133 0.0
O54 O 0.77693 0.7614 0.81577 0.0
H55 H 0.88342 0.84737 0.78672 0.0
H56 H 0.74504 0.83688 0.80421 0.0
N57 N 0.71333 0.73825 0.78929 0.0
N58 N 0.64335 0.67706 0.7917 0.0
C59 C 0.69383 0.69514 0.78931 0.0
C60 C 0.67393 0.74824 0.79165 0.0
C61 C 0.63072 0.71057 0.79318 0.0
C62 C 0.77362 0.80237 0.75824 0.0
O63 O 0.75089 0.81945 0.76712 0.0
H64 H 0.71661 0.67762 0.78728 0.0
H65 H 0.67616 0.78043 0.79204 0.0
O66 O 0.81815 0.74537 0.79729 0.0
H67 H 0.81504 0.91526 0.81047 0.0
H68 H 0.59307 0.70831 0.79522 0.0
Cu69 Cu 0.98252 0.7569 0.10387 0.0
N70 N 1.02255 0.81534 0.10307 0.0
N71 N 0.04318 0.88544 0.10124 0.0
C72 C 1.00573 0.84553 0.1003 0.0
C73 C 0.08528 0.87989 0.10467 0.0
C74 C 0.07236 0.83653 0.10583 0.0
O75 O 0.93521 0.74463 0.08716 0.0
C76 C 0.92284 0.7108 0.1298 0.0
O77 O 0.90652 0.67545 0.12173 0.0
H78 H 0.96659 0.83812 0.09776 0.0
H79 H 0.0972 0.82153 0.10879 0.0
N80 N 1.02376 0.72852 0.10042 0.0
N81 N 0.04977 0.67622 0.09867 0.0
C82 C 1.01989 0.69097 0.10613 0.0
C83 C 0.05768 0.73801 0.08915 0.0
C84 C 0.07367 0.70569 0.088 0.0
C85 C 0.92039 0.71025 0.07942 0.0
O86 O 0.92987 0.67829 0.08431 0.0
H87 H 0.99286 0.67311 0.1147 0.0
H88 H 0.06753 0.76517 0.08168 0.0
O89 O 0.95266 0.74614 0.12392 0.0
H90 H 0.1224 0.90527 0.10672 0.0
H91 H 0.0989 0.70292 0.07952 0.0
Cu92 Cu 0.25513 0.9745 0.42003 0.0
N93 N 0.27189 0.02197 0.43292 0.0
N94 N 0.29226 0.06106 0.45418 0.0
C95 C 0.28911 0.02494 0.44722 0.0
C96 C 0.27704 0.0818 0.44375 0.0
C97 C 0.26428 0.05756 0.43071 0.0
O98 O 0.31073 0.95625 0.42052 0.0
C99 C 0.16054 0.93582 0.43554 0.0
O100 O 0.18348 0.96037 0.44705 0.0
H101 H 0.29734 1.00025 0.45255 0.0
H102 H 0.24845 0.0645 0.42058 0.0
N103 N 0.24722 0.98761 0.39995 0.0
N104 N 0.22045 0.97512 0.37599 0.0
C105 C 0.21897 0.95803 0.38978 0.0
C106 C 0.26705 0.02496 0.39237 0.0
C107 C 0.25083 1.01729 0.37756 0.0
C108 C 0.35199 0.98354 0.41488 0.0
O109 O 0.35345 1.02005 0.40993 0.0
H110 H 0.19891 0.92427 0.39238 0.0
H111 H 0.29218 0.05544 0.39718 0.0
O112 O 0.18701 0.93179 0.42471 0.0
H113 H 0.27287 0.1113 0.44565 0.0
H114 H 0.26078 0.04089 0.36864 0.0
Cu115 Cu 0.28248 0.2678 0.78182 0.0
N116 N 0.25854 0.21145 0.78901 0.0
N117 N 0.20038 0.14617 0.79504 0.0
C118 C 0.20927 0.18426 0.78863 0.0
C119 C 0.24616 0.1495 0.7996 0.0
C120 C 0.282 0.18996 0.79595 0.0
O121 O 0.27272 0.26426 0.7599 0.0
C122 C 0.25472 0.29153 0.8079 0.0
O123 O 0.28505 0.27406 0.81211 0.0
H124 H 0.18052 0.19251 0.78369 0.0
H125 H 0.32196 0.20289 0.79845 0.0
N126 N 0.3511 0.30162 0.78543 0.0
N127 N 0.42107 0.36243 0.7887 0.0
C128 C 0.37038 0.34459 0.78668 0.0
C129 C 0.39084 0.2915 0.7866 0.0
C130 C 0.43402 0.32891 0.78866 0.0
C131 C 0.28929 0.2394 0.75347 0.0
O132 O 0.31046 0.21991 0.76183 0.0
H133 H 0.34732 0.36227 0.78571 0.0
H134 H 0.38887 0.25945 0.78573 0.0
O135 O 0.24645 0.29378 0.79385 0.0
H136 H 0.25314 0.12493 0.80549 0.0
H137 H 0.47192 0.33099 0.78996 0.0
Cu138 Cu 0.74262 0.94775 0.61613 0.0
N139 N 0.73301 0.92508 0.59664 0.0
N140 N 0.73517 0.92532 0.57148 0.0
C141 C 0.73271 0.94668 0.58401 0.0
C142 C 0.73687 0.8888 0.57638 0.0
C143 C 0.7353 0.88864 0.59193 0.0
O144 O 0.70059 0.97964 0.61826 0.0
C145 C 0.84335 0.96183 0.61777 0.0
O146 O 0.82127 0.91982 0.61673 0.0
H147 H 0.73466 0.97887 0.58404 0.0
H148 H 0.7389 0.86496 0.59928 0.0
N149 N 0.72402 0.90399 0.63056 0.0
N150 N 0.72635 0.86916 0.65168 0.0
C151 C 0.7451 0.90707 0.6443 0.0
C152 C 0.69054 0.86278 0.62919 0.0
C153 C 0.69191 0.84121 0.64219 0.0
C154 C 0.65282 0.95866 0.61672 0.0
O155 O 0.63472 0.91716 0.61426 0.0
H156 H 0.77475 0.93635 0.64857 0.0
H157 H 0.66726 0.84923 0.61936 0.0
O158 O 0.81558 0.98242 0.61808 0.0
H159 H 0.74121 0.86493 0.56926 0.0
H160 H 0.66905 0.80765 0.6445 0.0
Cu161 Cu 0.81801 0.7555 0.94452 0.0
N162 N 0.83406 0.81317 0.94089 0.0
N163 N 0.88032 0.88361 0.93843 0.0
C164 C 0.87712 0.84688 0.94481 0.0
C165 C 0.83758 0.87258 0.93024 0.0
C166 C 0.80907 0.82909 0.93181 0.0
O167 O 0.85163 0.75157 0.96301 0.0
C168 C 0.80753 0.72083 0.91546 0.0
O169 O 0.76274 0.72107 0.91676 0.0
H170 H 0.90688 0.84408 0.95142 0.0
H171 H 0.77373 0.81003 0.92618 0.0
N172 N 0.74856 0.72554 0.94795 0.0
N173 N 0.67231 0.67096 0.95051 0.0
C174 C 0.72108 0.68301 0.94644 0.0
C175 C 0.71632 0.74113 0.95322 0.0
C176 C 0.66923 0.7076 0.95478 0.0
C177 C 0.84308 0.71577 0.9692 0.0
O178 O 0.81623 0.68012 0.96188 0.0
H179 H 0.73675 0.66153 0.94228 0.0
H180 H 0.72656 0.77444 0.95596 0.0
O181 O 0.83835 0.7336 0.92652 0.0
H182 H 0.82835 0.89418 0.92328 0.0
H183 H 0.63573 0.71006 0.95904 0.0
Cu184 Cu 1.03254 0.77336 0.25531 0.0
N185 N 0.06297 0.82443 0.24443 0.0
N186 N 0.07027 0.88953 0.23753 0.0
C187 C 0.06001 0.86084 0.24885 0.0
C188 C 0.08049 0.87038 0.22547 0.0
C189 C 0.07555 0.83012 0.22973 0.0
O190 O 0.04169 0.79102 0.2765 0.0
C191 C 0.94232 0.71317 0.24095 0.0
O192 O 0.95314 0.68197 0.24583 0.0
H193 H 0.04534 0.86426 0.25976 0.0
H194 H 0.07637 0.80546 0.22228 0.0
N195 N 0.06234 0.73498 0.25183 0.0
N196 N 0.07174 0.6734 0.25216 0.0
C197 C 0.04839 0.69626 0.25838 0.0
C198 C 0.09711 0.73736 0.24145 0.0
C199 C 0.10296 0.6995 0.24162 0.0
C200 C 0.08825 0.81127 0.28005 0.0
O201 O 0.12246 0.81439 0.26988 0.0
H202 H 1.01987 0.68443 0.2671 0.0
H203 H 0.11555 0.76399 0.23387 0.0
O204 O 0.96412 0.75019 0.24697 0.0
H205 H 0.08791 0.88334 0.21416 0.0
H206 H 0.12633 0.69104 0.23398 0.0
Cu207 Cu 0.32398 0.11361 0.60843 0.0
N208 N 0.33506 0.1366 0.58887 0.0
N209 N 0.33858 0.13994 0.56357 0.0
C210 C 0.33327 0.11522 0.57592 0.0
C211 C 0.34392 0.17833 0.56907 0.0
C212 C 0.34158 0.17612 0.58459 0.0
O213 O 0.36554 0.08156 0.61129 0.0
C214 C 0.22344 0.09966 0.60952 0.0
O215 O 0.24542 0.14113 0.60696 0.0
H216 H 0.32736 0.08196 0.57565 0.0
H217 H 0.34262 0.20115 0.59218 0.0
N218 N 0.34144 0.15661 0.62327 0.0
N219 N 0.33852 0.18878 0.64506 0.0
C220 C 0.31897 0.15219 0.63685 0.0
C221 C 0.37672 0.19738 0.62288 0.0
C222 C 0.37491 0.21732 0.63627 0.0
C223 C 0.41349 0.10232 0.61029 0.0
O224 O 0.4321 0.14359 0.6074 0.0
H225 H 0.28832 0.12272 0.64052 0.0
H226 H 0.40215 0.21162 0.61355 0.0
O227 O 0.25116 0.07915 0.61051 0.0
H228 H 0.34723 0.20573 0.5624 0.0
H229 H 0.39923 0.25001 0.63939 0.0
Cu230 Cu 0.24837 0.29146 0.9416 0.0
N231 N 0.23116 0.23335 0.93831 0.0
N232 N 0.18352 0.16302 0.93607 0.0
C233 C 0.18866 0.19995 0.94279 0.0
C234 C 0.22437 0.17359 0.92709 0.0
C235 C 0.25363 0.21697 0.92849 0.0
O236 O 0.2164 0.29793 0.9602 0.0
C237 C 0.25825 0.33004 0.91277 0.0
O238 O 0.30624 0.33883 0.91478 0.0
H239 H 0.16037 0.2032 0.94997 0.0
H240 H 0.28743 0.23574 0.92214 0.0
N241 N 0.31827 0.32114 0.94447 0.0
N242 N 0.39452 0.3754 0.94763 0.0
C243 C 0.34449 0.36396 0.94556 0.0
C244 C 0.35255 0.30472 0.94614 0.0
C245 C 0.39955 0.33803 0.94806 0.0
C246 C 0.23241 0.28797 0.97235 0.0
O247 O 0.26688 0.27277 0.97141 0.0
H248 H 0.32708 0.38612 0.94444 0.0
H249 H 0.34394 0.27089 0.94608 0.0
O250 O 0.22679 0.31153 0.92331 0.0
H251 H 0.23154 0.15179 0.91961 0.0
H252 H 0.43453 0.33473 0.94978 0.0
Cu253 Cu 1.03103 0.26274 0.26138 0.0
N254 N 0.99877 0.21004 0.2515 0.0
N255 N 0.98995 0.14477 0.24429 0.0
C256 C 1.01161 0.17735 0.25416 0.0
C257 C 0.9622 0.1576 0.23497 0.0
C258 C 0.96776 0.19801 0.23945 0.0
O259 O 0.03479 0.24893 0.28268 0.0
C260 C 0.08822 0.30545 0.23728 0.0
O261 O 0.04325 0.30245 0.23353 0.0
H262 H 0.03892 0.17872 0.26267 0.0
H263 H 0.95225 0.21789 0.23392 0.0
N264 N 0.99712 0.29864 0.26053 0.0
N265 N 0.98856 0.3605 0.25977 0.0
C266 C 1.02062 0.34167 0.2617 0.0
C267 C 0.94817 0.2896 0.25794 0.0
C268 C 0.94274 0.32773 0.2575 0.0
C269 C 0.99234 0.2225 0.28796 0.0
O270 O 0.95247 0.20911 0.2791 0.0
H271 H 0.06084 0.35876 0.2637 0.0
H272 H 0.91881 0.25771 0.25615 0.0
O273 O 0.09404 0.29072 0.25002 0.0
H274 H 0.94046 0.13962 0.2254 0.0
H275 H 0.90807 0.33107 0.25518 0.0
H276 H 0.1302 0.25707 0.22365 0.0
H277 H 0.19075 0.40723 0.15079 0.0
H278 H 0.12806 0.38164 0.22283 0.0
H279 H 0.14488 0.27039 0.14938 0.0
H280 H 0.19607 0.40503 0.17834 0.0
H281 H 0.165 0.26932 0.19794 0.0
C282 C 0.13953 0.28786 0.21834 0.0
C283 C 0.12684 0.31863 0.22535 0.0
C284 C 0.18579 0.37563 0.17196 0.0
C285 C 0.16493 0.33233 0.19591 0.0
C286 C 0.1829 0.37686 0.15622 0.0
C287 C 0.16653 0.33882 0.14776 0.0
C288 C 0.17262 0.33615 0.1793 0.0
C289 C 0.15693 0.30043 0.15546 0.0
C290 C 0.15858 0.29458 0.20359 0.0
C291 C 0.13793 0.35738 0.21781 0.0
N292 N 0.15956 0.3 0.17078 0.0
N293 N 0.15574 0.36295 0.20343 0.0
H294 H 0.71625 1.01979 0.48224 0.0
H295 H 0.80291 0.92145 0.55144 0.0
H296 H 0.87272 0.04574 0.4895 0.0
H297 H 0.68731 0.96751 0.5573 0.0
H298 H 0.82037 0.95363 0.52619 0.0
H299 H 0.69629 0.9881 0.50768 0.0
C300 C 0.74627 1.01889 0.48925 0.0
C301 C 0.79617 0.03559 0.48393 0.0
C302 C 0.79105 0.9565 0.53299 0.0
C303 C 0.77368 0.99871 0.51258 0.0
C304 C 0.78083 0.9379 0.54729 0.0
C305 C 0.74357 0.94186 0.55635 0.0
C306 C 0.76301 0.97832 0.52761 0.0
C307 C 0.7164 0.96399 0.5506 0.0
C308 C 0.73497 1.001 0.50369 0.0
C309 C 0.83393 0.03369 0.49333 0.0
N310 N 0.72635 0.98118 0.5365 0.0
N311 N 0.82183 1.0151 0.50714 0.0
H312 H 0.76753 0.66505 0.82272 0.0
H313 H 0.89932 0.76087 0.90126 0.0
H314 H 0.89372 0.78804 0.82759 0.0
H315 H 0.74945 0.66051 0.89548 0.0
H316 H 0.91509 0.75624 0.87418 0.0
H317 H 0.78021 0.64777 0.84874 0.0
C318 C 0.79967 0.68744 0.82903 0.0
C319 C 0.83003 0.72776 0.82302 0.0
C320 C 0.87931 0.73443 0.87895 0.0
C321 C 0.84323 0.70931 0.85298 0.0
C322 C 0.87044 0.73688 0.8944 0.0
C323 C 0.82283 0.71132 0.90051 0.0
C324 C 0.84046 0.70587 0.8697 0.0
C325 C 0.78648 0.6811 0.89113 0.0
C326 C 0.80642 0.67791 0.84396 0.0
C327 C 0.87006 0.75633 0.8318 0.0
N328 N 0.79583 0.67951 0.87618 0.0
N329 N 0.87492 0.74696 0.84648 0.0
H330 H 0.93833 0.77852 0.14853 0.0
H331 H 0.8971 0.64093 0.22349 0.0
H332 H 0.8817 0.64055 0.14846 0.0
H333 H 0.93897 0.7773 0.22309 0.0
H334 H 0.88028 0.63845 0.1964 0.0
H335 H 0.92903 0.77727 0.17589 0.0
C336 C 0.92344 0.74785 0.15425 0.0
C337 C 0.9113 0.70959 0.14616 0.0
C338 C 0.89228 0.66879 0.20229 0.0
C339 C 0.90088 0.70797 0.17766 0.0
C340 C 0.90169 0.67022 0.2178 0.0
C341 C 0.92013 0.70948 0.22562 0.0
C342 C 0.90174 0.70694 0.19446 0.0
C343 C 0.92512 0.74631 0.21759 0.0
C344 C 0.91803 0.74717 0.16991 0.0
C345 C 0.89174 0.67084 0.15422 0.0
N346 N 0.9168 0.74423 0.20244 0.0
N347 N 0.88778 0.67107 0.16954 0.0
H348 H 0.29843 0.05889 0.55166 0.0
H349 H 0.33188 0.14127 0.46616 0.0
H350 H 0.37213 0.19244 0.53911 0.0
H351 H 0.27836 1.00784 0.4782 0.0
H352 H 0.34632 0.16047 0.49288 0.0
H353 H 0.29093 0.03938 0.52498 0.0
C354 C 0.31345 0.0842 0.54338 0.0
C355 C 0.33572 0.12755 0.54782 0.0
C356 C 0.33167 0.12698 0.48969 0.0
C357 C 0.32652 0.10518 0.51703 0.0
C358 C 0.32322 0.11599 0.47441 0.0
C359 C 0.30378 0.07286 0.46987 0.0
C360 C 0.32021 0.09461 0.50061 0.0
C361 C 0.29387 0.04151 0.48111 0.0
C362 C 0.3089 0.07295 0.52808 0.0
C363 C 0.35385 0.15869 0.53637 0.0
N364 N 0.30185 0.05298 0.49594 0.0
N365 N 0.34864 0.14692 0.52158 0.0
H366 H 0.2923 0.37271 0.81876 0.0
H367 H 0.16855 0.28061 0.89853 0.0
H368 H 0.17308 0.24676 0.82523 0.0
H369 H 0.31066 0.39019 0.89193 0.0
H370 H 0.15196 0.2797 0.8713 0.0
H371 H 0.27989 0.39142 0.84467 0.0
C372 C 0.26168 0.34979 0.82541 0.0
C373 C 0.23312 0.30841 0.81985 0.0
C374 C 0.18617 0.30458 0.87589 0.0
C375 C 0.22029 0.32865 0.84969 0.0
C376 C 0.19548 0.30528 0.89144 0.0
C377 C 0.24134 0.33521 0.89744 0.0
C378 C 0.2228 0.33425 0.86637 0.0
C379 C 0.27511 0.36623 0.88772 0.0
C380 C 0.25513 0.36018 0.84028 0.0
C381 C 0.19523 0.27926 0.82908 0.0
N382 N 0.26546 0.36465 0.87268 0.0
N383 N 0.19045 0.28964 0.84364 0.0
H384 H 0.19405 0.30468 0.06898 0.0
H385 H 0.15346 0.30926 0.97936 0.0
H386 H 0.0614 0.30857 0.04858 0.0
H387 H 0.27032 0.28066 0.99983 0.0
H388 H 0.12427 0.31741 1.00465 0.0
H389 H 0.22832 0.30481 0.04366 0.0
C390 C 0.17239 0.306 0.0592 0.0
C391 C 0.12466 0.30633 0.06092 0.0
C392 C 0.15638 0.30944 1.00358 0.0
C393 C 0.16346 0.30637 0.03194 0.0
C394 C 0.17304 0.30481 0.98914 0.0
C395 C 0.21418 0.29398 0.98744 0.0
C396 C 0.18128 0.30353 1.01641 0.0
C397 C 0.2382 0.28871 1.00056 0.0
C398 C 0.19182 0.30586 0.04475 0.0
C399 C 0.09819 0.30793 0.04782 0.0
N400 N 0.22143 0.29351 1.01444 0.0
N401 N 0.11784 0.30778 0.03393 0.0
H402 H 0.8629 0.06617 0.36623 0.0
H403 H 0.04043 0.26317 0.31419 0.0
H404 H 0.93806 0.19569 0.38299 0.0
H405 H 0.92825 0.14336 0.29716 0.0
H406 H 1.01759 0.23575 0.34012 0.0
H407 H 0.90115 0.09087 0.34149 0.0
C408 C 0.88795 0.0997 0.36478 0.0
C409 C 0.89681 0.12893 0.37669 0.0
C410 C 0.99851 0.21539 0.33066 0.0
C411 C 0.94073 0.15758 0.34832 0.0
C412 C 1.0118 0.2309 0.3159 0.0
C413 C 0.98592 0.20559 0.30355 0.0
C414 C 0.95977 0.17412 0.33298 0.0
C415 C 0.94879 0.16411 0.30638 0.0
C416 C 0.90958 0.11387 0.35062 0.0
C417 C 0.92943 0.17217 0.37406 0.0
N418 N 0.9368 0.14976 0.32074 0.0
N419 N 0.95006 0.18522 0.36016 0.0
H420 H 0.77488 0.75264 0.73376 0.0
H421 H 0.76422 0.92571 0.67475 0.0
H422 H 0.77952 0.87596 0.74581 0.0
H423 H 0.72001 0.79302 0.66277 0.0
H424 H 0.78458 0.9105 0.70009 0.0
H425 H 0.76917 0.76945 0.70694 0.0
C426 C 0.77557 0.78343 0.73074 0.0
C427 C 0.77728 0.81284 0.74198 0.0
C428 C 0.77059 0.88466 0.69192 0.0
C429 C 0.77083 0.8322 0.71157 0.0
C430 C 0.7592 0.89342 0.67738 0.0
C431 C 0.74002 0.86058 0.66658 0.0
C432 C 0.76299 0.84273 0.69578 0.0
C433 C 0.73388 0.81918 0.67079 0.0
C434 C 0.77194 0.79288 0.71549 0.0
C435 C 0.77772 0.85216 0.73751 0.0
N436 N 0.7452 0.81139 0.68507 0.0
N437 N 0.7744 0.8606 0.72272 0.0
H438 H 0.91304 0.7761 0.06365 0.0
H439 H 0.83183 0.64525 0.98594 0.0
H440 H 0.88761 0.64338 0.05924 0.0
H441 H 0.88348 0.78256 0.98925 0.0
H442 H 0.84665 0.64266 1.01302 0.0
H443 H 0.89438 0.77722 0.03683 0.0
C444 C 0.90287 0.74699 0.05711 0.0
C445 C 0.90209 0.7096 0.06374 0.0
C446 C 0.85495 0.67337 1.0078 0.0
C447 C 0.88122 0.71088 0.0329 0.0
C448 C 0.84668 0.67491 0.99232 0.0
C449 C 0.8565 0.7142 0.98527 0.0
C450 C 0.87281 0.71133 1.01636 0.0
C451 C 0.87553 0.75155 0.99416 0.0
C452 C 0.8926 0.74778 0.04174 0.0
C453 C 0.88881 0.67296 0.05463 0.0
N454 N 0.8828 0.74916 1.00923 0.0
N455 N 0.8791 0.67457 0.03968 0.0
H456 H 0.18188 0.87196 0.28669 0.0
H457 H 0.13258 0.90315 0.37326 0.0
H458 H 0.03368 0.80536 0.30634 0.0
H459 H 0.25593 0.9947 0.34744 0.0
H460 H 0.09709 0.86279 0.34995 0.0
H461 H 0.21126 0.91237 0.30991 0.0
C462 C 0.15537 0.86562 0.29593 0.0
C463 C 0.10511 0.83499 0.29452 0.0
C464 C 0.13171 0.89188 0.34941 0.0
C465 C 0.13902 0.88169 0.32139 0.0
C466 C 0.15215 0.91478 0.3627 0.0
C467 C 0.19746 0.95233 0.36231 0.0
C468 C 0.1572 0.90626 0.33568 0.0
C469 C 0.22083 0.96621 0.34828 0.0
C470 C 0.17225 0.88904 0.3092 0.0
C471 C 0.0727 0.82865 0.30692 0.0
N472 N 0.20072 0.94301 0.33559 0.0
N473 N 0.09031 0.85163 0.31991 0.0
H474 H 0.29692 0.12864 0.66683 0.0
H475 H 0.29177 0.2941 0.73022 0.0
H476 H 0.34847 0.26395 0.65811 0.0
H477 H 0.28129 0.16727 0.7392 0.0
H478 H 0.29844 0.28169 0.70301 0.0
H479 H 0.27669 0.14039 0.69263 0.0
C480 C 0.30356 0.1608 0.67026 0.0
C481 C 0.32473 0.19535 0.66023 0.0
C482 C 0.29418 0.25653 0.71098 0.0
C483 C 0.30188 0.20921 0.68999 0.0
C484 C 0.28998 0.26348 0.72645 0.0
C485 C 0.28627 0.23175 0.73696 0.0
C486 C 0.29384 0.21738 0.70607 0.0
C487 C 0.28457 0.19278 0.73151 0.0
C488 C 0.29226 0.16757 0.68507 0.0
C489 C 0.33295 0.23645 0.66549 0.0
N490 N 0.28843 0.18676 0.71651 0.0
N491 N 0.3216 0.24227 0.68001 0.0
H492 H 0.04544 0.62323 0.07572 0.0
H493 H 0.07329 0.44365 0.12567 0.0
H494 H 0.04984 0.63332 0.12421 0.0
H495 H 0.98204 0.41299 0.08536 0.0
H496 H 0.08097 0.51778 0.12428 0.0
H497 H 0.03887 0.54991 0.07782 0.0
C498 C 0.04565 0.61005 0.08679 0.0
C499 C 0.04839 0.63409 0.09983 0.0
C500 C 0.05915 0.49466 0.1158 0.0
C501 C 0.04113 0.55083 0.10231 0.0
C502 C 0.05497 0.45269 0.11655 0.0
C503 C 1.02682 0.42249 0.10565 0.0
C504 C 0.03617 0.5065 0.10382 0.0
C505 C 1.00358 0.43539 0.09404 0.0
C506 C 0.04147 0.56827 0.08799 0.0
C507 C 0.0477 0.61552 0.11395 0.0
N508 N 1.0092 0.47663 0.09333 0.0
N509 N 0.04454 0.57493 0.11484 0.0
H510 H 0.63604 0.9677 0.43341 0.0
H511 H 0.41826 1.00906 0.3918 0.0
H512 H 0.64317 1.00767 0.387 0.0
H513 H 0.39126 0.94124 0.43408 0.0
H514 H 0.49987 1.00578 0.38991 0.0
H515 H 0.54634 0.95462 0.43406 0.0
C516 C 0.6187 0.97318 0.4233 0.0
C517 C 0.64755 0.98922 0.41015 0.0
C518 C 0.47615 0.99111 0.39956 0.0
C519 C 0.54498 0.97463 0.4109 0.0
C520 C 0.42941 0.99301 0.40065 0.0
C521 C 0.39795 0.97549 0.41314 0.0
C522 C 0.49257 0.97231 0.41121 0.0
C523 C 0.4143 0.95494 0.42423 0.0
C524 C 0.56745 0.96571 0.4237 0.0
C525 C 0.62285 0.99567 0.39742 0.0
N526 N 0.46093 0.95446 0.42313 0.0
N527 N 0.5734 0.98879 0.39818 0.0
H528 H 0.52415 0.40127 0.78608 0.0
H529 H 0.54006 0.63882 0.78973 0.0
H530 H 0.39419 0.42848 0.79429 0.0
H531 H 0.67038 0.61017 0.79464 0.0
H532 H 0.48587 0.56209 0.78974 0.0
H533 H 0.57821 0.47784 0.78754 0.0
C534 C 0.50673 0.423 0.78826 0.0
C535 C 0.45403 0.40775 0.78995 0.0
C536 C 0.52638 0.57273 0.79084 0.0
C537 C 0.51625 0.49614 0.79142 0.0
C538 C 0.55752 0.61672 0.79089 0.0
C539 C 0.61034 0.63162 0.79208 0.0
C540 C 0.54802 0.54316 0.79188 0.0
C541 C 0.63023 0.60078 0.7934 0.0
C542 C 0.53781 0.46692 0.78904 0.0
C543 C 0.43422 0.43819 0.79261 0.0
N544 N 0.59916 0.5582 0.79318 0.0
N545 N 0.46523 0.48077 0.79318 0.0
H546 H 0.5169 0.14039 0.61095 0.0
H547 H 0.54944 0.92052 0.61629 0.0
H548 H 0.39086 1.01617 0.61385 0.0
H549 H 0.67511 0.04526 0.61759 0.0
H550 H 0.49118 0.95487 0.61549 0.0
H551 H 0.575 0.10621 0.61337 0.0
C552 C 0.50129 0.10585 0.61211 0.0
C553 C 0.44864 0.08117 0.61215 0.0
C554 C 0.53144 0.97482 0.61601 0.0
C555 C 0.51561 0.04162 0.61492 0.0
C556 C 0.56492 0.95521 0.61646 0.0
C557 C 0.61752 0.97998 0.61698 0.0
C558 C 0.55039 1.01973 0.61598 0.0
C559 C 0.63499 0.02482 0.61721 0.0
C560 C 0.53468 0.08635 0.61353 0.0
C561 C 0.43102 0.03655 0.61376 0.0
N562 N 0.60156 0.0432 0.61664 0.0
N563 N 0.46438 1.01824 0.61502 0.0
H564 H 0.3849 0.44954 0.95385 0.0
H565 H 0.68226 0.59546 0.95017 0.0
H566 H 0.49579 0.40036 0.9436 0.0
H567 H 0.57042 0.64744 0.95087 0.0
H568 H 0.61453 0.52349 0.94965 0.0
H569 H 0.45242 0.52181 0.95469 0.0
C570 C 0.42324 0.45371 0.95171 0.0
C571 C 0.43426 0.41836 0.94859 0.0
C572 C 0.60482 0.55066 0.9499 0.0
C573 C 0.51213 0.50145 0.94978 0.0
C574 C 0.6436 0.59198 0.95012 0.0
C575 C 0.63238 0.628 0.95047 0.0
C576 C 0.55422 0.54502 0.95014 0.0
C577 C 0.58118 0.6209 0.95074 0.0
C578 C 0.46189 0.49513 0.95226 0.0
C579 C 0.48514 0.4262 0.94621 0.0
N580 N 0.54406 0.58029 0.95057 0.0
N581 N 0.52205 0.4668 0.94686 0.0
H582 H 0.98375 0.61071 0.26257 0.0
H583 H 0.07969 0.42485 0.25269 0.0
H584 H 0.13325 0.63305 0.24713 0.0
H585 H 0.92726 0.40077 0.2656 0.0
H586 H 0.10097 0.50142 0.25186 0.0
H587 H 0.9638 0.53454 0.26516 0.0
C588 C 1.01269 0.59982 0.25989 0.0
C589 C 0.06041 0.62863 0.25462 0.0
C590 C 0.06287 0.47946 0.25491 0.0
C591 C 0.03734 0.54085 0.25736 0.0
C592 C 0.0507 0.43558 0.25549 0.0
C593 C 1.00153 0.40604 0.25929 0.0
C594 C 1.02573 0.49428 0.25817 0.0
C595 C 0.96547 0.42216 0.26248 0.0
C596 C 1.00105 0.55611 0.26126 0.0
C597 C 0.09586 0.61213 0.25107 0.0
N598 N 0.97829 0.46511 0.26187 0.0
N599 N 0.08361 0.56946 0.2525 0.0
H600 H 0.10418 0.15261 0.09802 0.0
H601 H 0.95793 0.89858 0.10484 0.0
H602 H 0.94263 0.08591 0.1042 0.0
H603 H 0.11724 0.96404 0.09468 0.0
H604 H 0.9511 0.96661 0.10345 0.0
H605 H 0.10907 0.08392 0.09542 0.0
C606 C 0.06956 0.12363 0.09864 0.0
C607 C 1.02287 0.1252 0.10145 0.0
C608 C 0.98752 0.9661 0.10143 0.0
C609 C 1.02849 0.04616 0.09872 0.0
C610 C 0.99146 0.9271 0.10215 0.0
C611 C 0.03835 0.92539 0.09991 0.0
C612 C 1.03079 1.00388 0.09854 0.0
C613 C 0.08052 0.9638 0.09672 0.0
C614 C 0.07249 0.0843 0.09724 0.0
C615 C 0.97953 0.08632 0.10233 0.0
N616 N 0.07578 1.00149 0.0962 0.0
N617 N 0.98344 0.04841 0.10107 0.0
H618 H 0.88121 0.96093 0.44239 0.0
H619 H 0.10549 0.91012 0.40922 0.0
H620 H 0.89815 0.94162 0.39494 0.0
H621 H 0.09141 0.93804 0.45606 0.0
H622 H 1.02205 0.90868 0.40431 0.0
H623 H 0.95006 0.94046 0.44794 0.0
C624 C 0.89904 0.95194 0.43312 0.0
C625 C 0.88409 0.95352 0.41813 0.0
C626 C 0.03686 0.9144 0.41571 0.0
C627 C 0.96376 0.93023 0.42447 0.0
C628 C 0.08442 0.9149 0.41857 0.0
C629 C 0.10592 0.92467 0.43308 0.0
C630 C 1.01047 0.92367 0.42744 0.0
C631 C 0.07671 0.93077 0.44467 0.0
C632 C 0.93849 0.94024 0.43632 0.0
C633 C 0.90848 0.94108 0.40665 0.0
N634 N 1.0309 0.93066 0.44157 0.0
N635 N 0.94749 0.93046 0.41004 0.0
H636 H 0.10809 0.14795 0.79687 0.0
H637 H 0.95828 0.89239 0.799 0.0
H638 H 0.18149 0.06182 0.79721 0.0
H639 H 0.88466 0.97826 0.80059 0.0
H640 H 0.04025 0.95405 0.79888 0.0
H641 H 1.02619 0.08649 0.79872 0.0
C642 C 0.10705 0.11611 0.79727 0.0
C643 C 0.1519 0.11011 0.79675 0.0
C644 C 1.00623 0.95949 0.7993 0.0
C645 C 0.05789 0.03937 0.79903 0.0
C646 C 0.9593 0.92424 0.79928 0.0
C647 C 0.91436 0.93009 0.79966 0.0
C648 C 1.00851 1.00113 0.79966 0.0
C649 C 0.91823 0.9722 0.80036 0.0
C650 C 0.06018 0.08099 0.79843 0.0
C651 C 0.14805 0.06804 0.79766 0.0
N652 N 0.96445 1.00609 0.80025 0.0
N653 N 0.1019 0.03431 0.79867 0.0
H654 H 0.90525 0.04855 0.61622 0.0
H655 H 0.16211 1.01401 0.61438 0.0
H656 H 0.9098 0.92479 0.61927 0.0
H657 H 0.15721 0.13712 0.60906 0.0
H658 H 0.06982 0.98098 0.6173 0.0
H659 H 0.998 0.08219 0.61486 0.0
C660 C 0.92567 0.02849 0.6167 0.0
C661 C 0.89954 0.98376 0.61781 0.0
C662 C 0.08901 1.01525 0.61551 0.0
C663 C 1.0057 0.02195 0.61619 0.0
C664 C 0.14173 0.03409 0.61383 0.0
C665 C 0.16759 0.07839 0.61142 0.0
C666 C 0.0619 0.04088 0.61479 0.0
C667 C 0.13904 0.10282 0.61085 0.0
C668 C 0.97863 0.04766 0.61587 0.0
C669 C 0.92813 0.95938 0.61835 0.0
N670 N 0.08794 0.08379 0.61251 0.0
N671 N 0.97944 0.97872 0.61751 0.0
H672 H 0.94212 0.92098 0.96212 0.0
H673 H 0.14195 0.1084 0.91283 0.0
H674 H 0.91672 0.93939 0.91528 0.0
H675 H 0.12578 0.12527 0.96043 0.0
H676 H 0.06688 0.04007 0.91371 0.0
H677 H 1.0169 0.99029 0.96201 0.0
C678 C 0.95235 0.93968 0.95185 0.0
C679 C 0.92323 0.92467 0.93871 0.0
C680 C 0.07977 0.0587 0.92397 0.0
C681 C 1.00861 1.00313 0.93842 0.0
C682 C 0.12278 0.09746 0.9235 0.0
C683 C 0.14005 0.12235 0.9366 0.0
C684 C 0.05434 0.04426 0.93769 0.0
C685 C 0.11339 0.10701 0.95009 0.0
C686 C 0.99471 0.97915 0.9518 0.0
C687 C 0.93782 0.95007 0.92568 0.0
N688 N 0.07199 0.0687 0.95034 0.0
N689 N 0.97976 0.98784 0.92582 0.0
H690 H 0.04445 0.92775 0.21403 0.0
H691 H 1.01577 0.10541 0.26713 0.0
H692 H 0.07661 0.9399 0.26178 0.0
H693 H 0.98592 0.09696 0.21927 0.0
H694 H 0.0377 0.04447 0.2652 0.0
H695 H 1.02423 0.99 0.21542 0.0
C696 C 0.04787 0.94371 0.22478 0.0
C697 C 0.06214 0.92829 0.23783 0.0
C698 C 1.02633 0.05583 0.25509 0.0
C699 C 0.03815 0.99935 0.23953 0.0
C700 C 1.0139 0.0908 0.25619 0.0
C701 C 0.99929 0.10668 0.24333 0.0
C702 C 1.02424 0.03629 0.24102 0.0
C703 C 0.99662 0.08571 0.2295 0.0
C704 C 0.03586 0.9791 0.22558 0.0
C705 C 0.06512 0.95015 0.25147 0.0
N706 N 1.00918 0.05173 0.2287 0.0
N707 N 0.05313 0.98437 0.25196 0.0
loop_
_geom_bond_atom_site_label_1
_geom_bond_atom_site_label_2
_geom_bond_distance
_geom_bond_site_symmetry_2
_ccdc_geom_bond_type
Cu0 N1 1.999 . S
Cu0 O6 1.974 1_655 S
Cu0 N11 1.985 . S
Cu0 O20 1.959 . S
N1 Cu0 1.999 . S
N1 C3 1.263 . S
N1 C5 1.389 . S
N2 C3 1.358 . S
N2 C4 1.400 . S
C3 N1 1.263 . S
C3 N2 1.358 . S
C3 H9 0.930 1_655 S
C4 N2 1.400 . S
C4 C5 1.351 . S
C4 H21 0.930 . S
C5 N1 1.389 . S
C5 C4 1.351 . S
C5 H10 0.930 . S
O6 Cu0 1.974 1_455 S
O6 C16 1.282 . S
C7 O8 1.261 1_655 S
C7 O20 1.251 . S
O8 C7 1.261 1_455 S
H9 C3 0.930 1_455 S
H10 C5 0.930 . S
N11 Cu0 1.985 . S
N11 C13 1.335 . S
N11 C14 1.390 1_655 S
N12 C13 1.345 . S
N12 C15 1.336 1_655 S
C13 N11 1.335 . S
C13 N12 1.345 . S
C13 H18 0.930 . S
C14 N11 1.390 1_455 S
C14 C15 1.346 . S
C14 H19 0.930 . S
C15 N12 1.336 1_455 S
C15 C14 1.346 . S
C15 H22 0.929 . S
C16 O6 1.282 . S
C16 O17 1.216 . S
O17 C16 1.216 . S
H18 C13 0.930 . S
H19 C14 0.930 . S
O20 Cu0 1.959 . S
O20 C7 1.251 . S
H21 C4 0.930 . S
H22 C15 0.929 . S
Cu23 N24 1.999 . S
Cu23 O29 1.974 . S
Cu23 N34 1.985 . S
Cu23 O43 1.959 . S
N24 Cu23 1.999 . S
N24 C26 1.263 . S
N24 C28 1.389 . S
N25 C26 1.358 . S
N25 C27 1.400 . S
C26 N24 1.263 . S
C26 N25 1.358 . S
C26 H32 0.930 . S
C27 N25 1.400 . S
C27 C28 1.351 . S
C27 H44 0.930 . S
C28 N24 1.389 . S
C28 C27 1.351 . S
C28 H33 0.930 . S
O29 Cu23 1.974 . S
O29 C39 1.282 . S
C30 O31 1.261 1_545 S
C30 O43 1.251 . S
O31 C30 1.261 1_565 S
H32 C26 0.930 . S
H33 C28 0.930 . S
N34 Cu23 1.985 . S
N34 C36 1.335 . S
N34 C37 1.390 . S
N35 C36 1.345 . S
N35 C38 1.336 . S
C36 N34 1.335 . S
C36 N35 1.345 . S
C36 H41 0.930 . S
C37 N34 1.390 . S
C37 C38 1.346 . S
C37 H42 0.930 . S
C38 N35 1.336 . S
C38 C37 1.346 . S
C38 H45 0.929 . S
C39 O29 1.282 . S
C39 O40 1.216 1_545 S
O40 C39 1.216 1_565 S
H41 C36 0.930 . S
H42 C37 0.930 . S
O43 Cu23 1.959 . S
O43 C30 1.251 . S
H44 C27 0.930 . S
H45 C38 0.929 . S
Cu46 N47 1.999 . S
Cu46 O52 1.974 . S
Cu46 N57 1.985 . S
Cu46 O66 1.959 . S
N47 Cu46 1.999 . S
N47 C49 1.263 . S
N47 C51 1.389 . S
N48 C49 1.358 . S
N48 C50 1.400 . S
C49 N47 1.263 . S
C49 N48 1.358 . S
C49 H55 0.930 . S
C50 N48 1.400 . S
C50 C51 1.351 . S
C50 H67 0.930 . S
C51 N47 1.389 . S
C51 C50 1.351 . S
C51 H56 0.930 . S
O52 Cu46 1.974 . S
O52 C62 1.282 . S
C53 O54 1.261 . S
C53 O66 1.251 . S
O54 C53 1.261 . S
H55 C49 0.930 . S
H56 C51 0.930 . S
N57 Cu46 1.985 . S
N57 C59 1.335 . S
N57 C60 1.390 . S
N58 C59 1.345 . S
N58 C61 1.336 . S
C59 N57 1.335 . S
C59 N58 1.345 . S
C59 H64 0.930 . S
C60 N57 1.390 . S
C60 C61 1.346 . S
C60 H65 0.930 . S
C61 N58 1.336 . S
C61 C60 1.346 . S
C61 H68 0.929 . S
C62 O52 1.282 . S
C62 O63 1.216 . S
O63 C62 1.216 . S
H64 C59 0.930 . S
H65 C60 0.930 . S
O66 Cu46 1.959 . S
O66 C53 1.251 . S
H67 C50 0.930 . S
H68 C61 0.929 . S
Cu69 N70 1.999 . S
Cu69 O75 1.974 1_455 S
Cu69 N80 1.985 . S
Cu69 O89 1.959 . S
N70 Cu69 1.999 . S
N70 C72 1.263 . S
N70 C74 1.389 . S
N71 C72 1.358 . S
N71 C73 1.400 . S
C72 N70 1.263 . S
C72 N71 1.358 . S
C72 H78 0.930 1_455 S
C73 N71 1.400 . S
C73 C74 1.351 . S
C73 H90 0.930 . S
C74 N70 1.389 . S
C74 C73 1.351 . S
C74 H79 0.930 . S
O75 Cu69 1.974 1_655 S
O75 C85 1.282 . S
C76 O77 1.261 1_455 S
C76 O89 1.251 . S
O77 C76 1.261 1_655 S
H78 C72 0.930 1_655 S
H79 C74 0.930 . S
N80 Cu69 1.985 . S
N80 C82 1.335 . S
N80 C83 1.390 1_455 S
N81 C82 1.345 . S
N81 C84 1.336 1_455 S
C82 N80 1.335 . S
C82 N81 1.345 . S
C82 H87 0.930 . S
C83 N80 1.390 1_655 S
C83 C84 1.346 . S
C83 H88 0.930 . S
C84 N81 1.336 1_655 S
C84 C83 1.346 . S
C84 H91 0.929 . S
C85 O75 1.282 . S
C85 O86 1.216 . S
O86 C85 1.216 . S
H87 C82 0.930 . S
H88 C83 0.930 . S
O89 Cu69 1.959 . S
O89 C76 1.251 . S
H90 C73 0.930 . S
H91 C84 0.929 . S
Cu92 N93 1.999 . S
Cu92 O98 1.974 . S
Cu92 N103 1.985 . S
Cu92 O112 1.959 . S
N93 Cu92 1.999 . S
N93 C95 1.263 . S
N93 C97 1.389 . S
N94 C95 1.358 . S
N94 C96 1.400 . S
C95 N93 1.263 . S
C95 N94 1.358 . S
C95 H101 0.930 . S
C96 N94 1.400 . S
C96 C97 1.351 . S
C96 H113 0.930 . S
C97 N93 1.389 . S
C97 C96 1.351 . S
C97 H102 0.930 . S
O98 Cu92 1.974 . S
O98 C108 1.282 . S
C99 O100 1.261 1_565 S
C99 O112 1.251 . S
O100 C99 1.261 1_545 S
H101 C95 0.930 . S
H102 C97 0.930 . S
N103 Cu92 1.985 . S
N103 C105 1.335 . S
N103 C106 1.390 . S
N104 C105 1.345 . S
N104 C107 1.336 . S
C105 N103 1.335 . S
C105 N104 1.345 . S
C105 H110 0.930 . S
C106 N103 1.390 . S
C106 C107 1.346 . S
C106 H111 0.930 . S
C107 N104 1.336 . S
C107 C106 1.346 . S
C107 H114 0.929 . S
C108 O98 1.282 . S
C108 O109 1.216 1_565 S
O109 C108 1.216 1_545 S
H110 C105 0.930 . S
H111 C106 0.930 . S
O112 Cu92 1.959 . S
O112 C99 1.251 . S
H113 C96 0.930 . S
H114 C107 0.929 . S
Cu115 N116 1.999 . S
Cu115 O121 1.974 . S
Cu115 N126 1.985 . S
Cu115 O135 1.959 . S
N116 Cu115 1.999 . S
N116 C118 1.263 . S
N116 C120 1.389 . S
N117 C118 1.358 . S
N117 C119 1.400 . S
C118 N116 1.263 . S
C118 N117 1.358 . S
C118 H124 0.930 . S
C119 N117 1.400 . S
C119 C120 1.351 . S
C119 H136 0.930 . S
C120 N116 1.389 . S
C120 C119 1.351 . S
C120 H125 0.930 . S
O121 Cu115 1.974 . S
O121 C131 1.282 . S
C122 O123 1.261 . S
C122 O135 1.251 . S
O123 C122 1.261 . S
H124 C118 0.930 . S
H125 C120 0.930 . S
N126 Cu115 1.985 . S
N126 C128 1.335 . S
N126 C129 1.390 . S
N127 C128 1.345 . S
N127 C130 1.336 . S
C128 N126 1.335 . S
C128 N127 1.345 . S
C128 H133 0.930 . S
C129 N126 1.390 . S
C129 C130 1.346 . S
C129 H134 0.930 . S
C130 N127 1.336 . S
C130 C129 1.346 . S
C130 H137 0.929 . S
C131 O121 1.282 . S
C131 O132 1.216 . S
O132 C131 1.216 . S
H133 C128 0.930 . S
H134 C129 0.930 . S
O135 Cu115 1.959 . S
O135 C122 1.251 . S
H136 C119 0.930 . S
H137 C130 0.929 . S
Cu138 N139 1.999 . S
Cu138 O144 1.974 . S
Cu138 N149 1.985 . S
Cu138 O158 1.959 . S
N139 Cu138 1.999 . S
N139 C141 1.263 . S
N139 C143 1.389 . S
N140 C141 1.358 . S
N140 C142 1.400 . S
C141 N139 1.263 . S
C141 N140 1.358 . S
C141 H147 0.930 . S
C142 N140 1.400 . S
C142 C143 1.351 . S
C142 H159 0.930 . S
C143 N139 1.389 . S
C143 C142 1.351 . S
C143 H148 0.930 . S
O144 Cu138 1.974 . S
O144 C154 1.282 . S
C145 O146 1.261 1_565 S
C145 O158 1.251 . S
O146 C145 1.261 1_545 S
H147 C141 0.930 . S
H148 C143 0.930 . S
N149 Cu138 1.985 . S
N149 C151 1.335 . S
N149 C152 1.390 . S
N150 C151 1.345 . S
N150 C153 1.336 . S
C151 N149 1.335 . S
C151 N150 1.345 . S
C151 H156 0.930 . S
C152 N149 1.390 . S
C152 C153 1.346 . S
C152 H157 0.930 . S
C153 N150 1.336 . S
C153 C152 1.346 . S
C153 H160 0.929 . S
C154 O144 1.282 . S
C154 O155 1.216 1_565 S
O155 C154 1.216 1_545 S
H156 C151 0.930 . S
H157 C152 0.930 . S
O158 Cu138 1.959 . S
O158 C145 1.251 . S
H159 C142 0.930 . S
H160 C153 0.929 . S
Cu161 N162 1.999 . S
Cu161 O167 1.974 . S
Cu161 N172 1.985 . S
Cu161 O181 1.959 . S
N162 Cu161 1.999 . S
N162 C164 1.263 . S
N162 C166 1.389 . S
N163 C164 1.358 . S
N163 C165 1.400 . S
C164 N162 1.263 . S
C164 N163 1.358 . S
C164 H170 0.930 . S
C165 N163 1.400 . S
C165 C166 1.351 . S
C165 H182 0.930 . S
C166 N162 1.389 . S
C166 C165 1.351 . S
C166 H171 0.930 . S
O167 Cu161 1.974 . S
O167 C177 1.282 . S
C168 O169 1.261 . S
C168 O181 1.251 . S
O169 C168 1.261 . S
H170 C164 0.930 . S
H171 C166 0.930 . S
N172 Cu161 1.985 . S
N172 C174 1.335 . S
N172 C175 1.390 . S
N173 C174 1.345 . S
N173 C176 1.336 . S
C174 N172 1.335 . S
C174 N173 1.345 . S
C174 H179 0.930 . S
C175 N172 1.390 . S
C175 C176 1.346 . S
C175 H180 0.930 . S
C176 N173 1.336 . S
C176 C175 1.346 . S
C176 H183 0.929 . S
C177 O167 1.282 . S
C177 O178 1.216 . S
O178 C177 1.216 . S
H179 C174 0.930 . S
H180 C175 0.930 . S
O181 Cu161 1.959 . S
O181 C168 1.251 . S
H182 C165 0.930 . S
H183 C176 0.929 . S
Cu184 N185 1.999 . S
Cu184 O190 1.974 1_655 S
Cu184 N195 1.985 1_655 S
Cu184 O204 1.959 . S
N185 Cu184 1.999 . S
N185 C187 1.263 1_655 S
N185 C189 1.389 . S
N186 C187 1.358 1_655 S
N186 C188 1.400 . S
C187 N185 1.263 1_455 S
C187 N186 1.358 1_455 S
C187 H193 0.930 . S
C188 N186 1.400 . S
C188 C189 1.351 . S
C188 H205 0.930 . S
C189 N185 1.389 . S
C189 C188 1.351 . S
C189 H194 0.930 . S
O190 Cu184 1.974 1_455 S
O190 C200 1.282 . S
C191 O192 1.261 . S
C191 O204 1.251 1_455 S
O192 C191 1.261 . S
H193 C187 0.930 . S
H194 C189 0.930 . S
N195 Cu184 1.985 1_455 S
N195 C197 1.335 1_455 S
N195 C198 1.390 . S
N196 C197 1.345 1_455 S
N196 C199 1.336 . S
C197 N195 1.335 1_655 S
C197 N196 1.345 1_655 S
C197 H202 0.930 . S
C198 N195 1.390 . S
C198 C199 1.346 . S
C198 H203 0.930 . S
C199 N196 1.336 . S
C199 C198 1.346 . S
C199 H206 0.929 . S
C200 O190 1.282 . S
C200 O201 1.216 . S
O201 C200 1.216 . S
H202 C197 0.930 . S
H203 C198 0.930 . S
O204 Cu184 1.959 . S
O204 C191 1.251 1_655 S
H205 C188 0.930 . S
H206 C199 0.929 . S
Cu207 N208 1.999 . S
Cu207 O213 1.974 . S
Cu207 N218 1.985 . S
Cu207 O227 1.959 . S
N208 Cu207 1.999 . S
N208 C210 1.263 . S
N208 C212 1.389 . S
N209 C210 1.358 . S
N209 C211 1.400 . S
C210 N208 1.263 . S
C210 N209 1.358 . S
C210 H216 0.930 . S
C211 N209 1.400 . S
C211 C212 1.351 . S
C211 H228 0.930 . S
C212 N208 1.389 . S
C212 C211 1.351 . S
C212 H217 0.930 . S
O213 Cu207 1.974 . S
O213 C223 1.282 . S
C214 O215 1.261 1_545 S
C214 O227 1.251 . S
O215 C214 1.261 1_565 S
H216 C210 0.930 . S
H217 C212 0.930 . S
N218 Cu207 1.985 . S
N218 C220 1.335 . S
N218 C221 1.390 . S
N219 C220 1.345 . S
N219 C222 1.336 . S
C220 N218 1.335 . S
C220 N219 1.345 . S
C220 H225 0.930 . S
C221 N218 1.390 . S
C221 C222 1.346 . S
C221 H226 0.930 . S
C222 N219 1.336 . S
C222 C221 1.346 . S
C222 H229 0.929 . S
C223 O213 1.282 . S
C223 O224 1.216 1_545 S
O224 C223 1.216 1_565 S
H225 C220 0.930 . S
H226 C221 0.930 . S
O227 Cu207 1.959 . S
O227 C214 1.251 . S
H228 C211 0.930 . S
H229 C222 0.929 . S
Cu230 N231 1.999 . S
Cu230 O236 1.974 . S
Cu230 N241 1.985 . S
Cu230 O250 1.959 . S
N231 Cu230 1.999 . S
N231 C233 1.263 . S
N231 C235 1.389 . S
N232 C233 1.358 . S
N232 C234 1.400 . S
C233 N231 1.263 . S
C233 N232 1.358 . S
C233 H239 0.930 . S
C234 N232 1.400 . S
C234 C235 1.351 . S
C234 H251 0.930 . S
C235 N231 1.389 . S
C235 C234 1.351 . S
C235 H240 0.930 . S
O236 Cu230 1.974 . S
O236 C246 1.282 . S
C237 O238 1.261 . S
C237 O250 1.251 . S
O238 C237 1.261 . S
H239 C233 0.930 . S
H240 C235 0.930 . S
N241 Cu230 1.985 . S
N241 C243 1.335 . S
N241 C244 1.390 . S
N242 C243 1.345 . S
N242 C245 1.336 . S
C243 N241 1.335 . S
C243 N242 1.345 . S
C243 H248 0.930 . S
C244 N241 1.390 . S
C244 C245 1.346 . S
C244 H249 0.930 . S
C245 N242 1.336 . S
C245 C244 1.346 . S
C245 H252 0.929 . S
C246 O236 1.282 . S
C246 O247 1.216 . S
O247 C246 1.216 . S
H248 C243 0.930 . S
H249 C244 0.930 . S
O250 Cu230 1.959 . S
O250 C237 1.251 . S
H251 C234 0.930 . S
H252 C245 0.929 . S
Cu253 N254 1.999 . S
Cu253 O259 1.974 1_455 S
Cu253 N264 1.985 1_455 S
Cu253 O273 1.959 . S
N254 Cu253 1.999 . S
N254 C256 1.263 1_455 S
N254 C258 1.389 . S
N255 C256 1.358 1_455 S
N255 C257 1.400 . S
C256 N254 1.263 1_655 S
C256 N255 1.358 1_655 S
C256 H262 0.930 . S
C257 N255 1.400 . S
C257 C258 1.351 . S
C257 H274 0.930 . S
C258 N254 1.389 . S
C258 C257 1.351 . S
C258 H263 0.930 . S
O259 Cu253 1.974 1_655 S
O259 C269 1.282 . S
C260 O261 1.261 . S
C260 O273 1.251 1_655 S
O261 C260 1.261 . S
H262 C256 0.930 . S
H263 C258 0.930 . S
N264 Cu253 1.985 1_655 S
N264 C266 1.335 1_655 S
N264 C267 1.390 . S
N265 C266 1.345 1_655 S
N265 C268 1.336 . S
C266 N264 1.335 1_455 S
C266 N265 1.345 1_455 S
C266 H271 0.930 . S
C267 N264 1.390 . S
C267 C268 1.346 . S
C267 H272 0.930 . S
C268 N265 1.336 . S
C268 C267 1.346 . S
C268 H275 0.929 . S
C269 O259 1.282 . S
C269 O270 1.216 . S
O270 C269 1.216 . S
H271 C266 0.930 . S
H272 C267 0.930 . S
O273 Cu253 1.959 . S
O273 C260 1.251 1_455 S
H274 C257 0.930 . S
H275 C268 0.929 . S
H276 C282 0.930 . S
H277 C286 0.930 . S
H278 C291 0.929 . S
H279 C289 0.929 . S
H280 C284 0.929 . S
H281 C290 0.929 . S
C282 H276 0.930 . S
C282 C283 1.367 . S
C282 C290 1.378 . S
C283 C282 1.367 . S
C283 C291 1.433 1_655 S
C284 H280 0.929 . S
C284 C286 1.378 . S
C284 C288 1.350 1_455 S
C285 C288 1.463 . S
C285 C290 1.350 . S
C285 N293 1.427 1_655 S
C286 H277 0.930 . S
C286 C284 1.378 . S
C286 C287 1.367 1_455 S
C287 C286 1.367 1_655 S
C287 C289 1.433 . S
C288 C284 1.350 1_655 S
C288 C285 1.463 . S
C288 N292 1.427 . S
C289 H279 0.929 . S
C289 C287 1.433 . S
C289 N292 1.384 . S
C290 H281 0.929 . S
C290 C282 1.378 . S
C290 C285 1.350 . S
C291 H278 0.929 . S
C291 C283 1.433 1_455 S
C291 N293 1.384 . S
N292 C288 1.427 . S
N292 C289 1.384 . S
N293 C285 1.427 1_455 S
N293 C291 1.384 . S
H294 C300 0.930 . S
H295 C304 0.930 . S
H296 C309 0.929 . S
H297 C307 0.929 . S
H298 C302 0.929 . S
H299 C308 0.929 . S
C300 H294 0.930 . S
C300 C301 1.367 . S
C300 C308 1.378 . S
C301 C300 1.367 . S
C301 C309 1.433 1_545 S
C302 H298 0.929 . S
C302 C304 1.378 . S
C302 C306 1.350 . S
C303 C306 1.463 1_545 S
C303 C308 1.350 . S
C303 N311 1.427 1_545 S
C304 H295 0.930 . S
C304 C302 1.378 . S
C304 C305 1.367 . S
C305 C304 1.367 . S
C305 C307 1.433 1_565 S
C306 C302 1.350 . S
C306 C303 1.463 1_565 S
C306 N310 1.427 1_565 S
C307 H297 0.929 . S
C307 C305 1.433 1_545 S
C307 N310 1.384 . S
C308 H299 0.929 . S
C308 C300 1.378 . S
C308 C303 1.350 . S
C309 H296 0.929 . S
C309 C301 1.433 1_565 S
C309 N311 1.384 . S
N310 C306 1.427 1_545 S
N310 C307 1.384 . S
N311 C303 1.427 1_565 S
N311 C309 1.384 . S
H312 C318 0.930 . S
H313 C322 0.930 . S
H314 C327 0.929 . S
H315 C325 0.929 . S
H316 C320 0.929 . S
H317 C326 0.929 . S
C318 H312 0.930 . S
C318 C319 1.367 . S
C318 C326 1.378 . S
C319 C318 1.367 . S
C319 C327 1.433 . S
C320 H316 0.929 . S
C320 C322 1.378 . S
C320 C324 1.350 . S
C321 C324 1.463 . S
C321 C326 1.350 . S
C321 N329 1.427 . S
C322 H313 0.930 . S
C322 C320 1.378 . S
C322 C323 1.367 . S
C323 C322 1.367 . S
C323 C325 1.433 . S
C324 C320 1.350 . S
C324 C321 1.463 . S
C324 N328 1.427 . S
C325 H315 0.929 . S
C325 C323 1.433 . S
C325 N328 1.384 . S
C326 H317 0.929 . S
C326 C318 1.378 . S
C326 C321 1.350 . S
C327 H314 0.929 . S
C327 C319 1.433 . S
C327 N329 1.384 . S
N328 C324 1.427 . S
N328 C325 1.384 . S
N329 C321 1.427 . S
N329 C327 1.384 . S
H330 C336 0.930 . S
H331 C340 0.930 . S
H332 C345 0.928 . S
H333 C343 0.929 . S
H334 C338 0.929 . S
H335 C344 0.929 . S
C336 H330 0.930 . S
C336 C337 1.367 . S
C336 C344 1.378 . S
C337 C336 1.367 . S
C337 C345 1.433 . S
C338 H334 0.929 . S
C338 C340 1.378 . S
C338 C342 1.350 1_655 S
C339 C342 1.463 . S
C339 C344 1.350 . S
C339 N347 1.427 . S
C340 H331 0.930 . S
C340 C338 1.378 . S
C340 C341 1.367 1_655 S
C341 C340 1.367 1_455 S
C341 C343 1.433 . S
C342 C338 1.350 1_455 S
C342 C339 1.463 . S
C342 N346 1.427 . S
C343 H333 0.929 . S
C343 C341 1.433 . S
C343 N346 1.384 . S
C344 H335 0.929 . S
C344 C336 1.378 . S
C344 C339 1.350 . S
C345 H332 0.928 . S
C345 C337 1.433 . S
C345 N347 1.384 . S
N346 C342 1.427 . S
N346 C343 1.384 . S
N347 C339 1.427 . S
N347 C345 1.384 . S
H348 C354 0.930 . S
H349 C358 0.930 . S
H350 C363 0.929 . S
H351 C361 0.929 . S
H352 C356 0.929 . S
H353 C362 0.929 . S
C354 H348 0.930 . S
C354 C355 1.367 1_565 S
C354 C362 1.378 . S
C355 C354 1.367 1_545 S
C355 C363 1.433 . S
C356 H352 0.929 . S
C356 C358 1.378 . S
C356 C360 1.350 1_545 S
C357 C360 1.463 1_545 S
C357 C362 1.350 1_545 S
C357 N365 1.428 . S
C358 H349 0.930 . S
C358 C356 1.378 . S
C358 C359 1.367 1_545 S
C359 C358 1.367 1_565 S
C359 C361 1.433 . S
C360 C356 1.350 1_565 S
C360 C357 1.463 1_565 S
C360 N364 1.427 . S
C361 H351 0.929 . S
C361 C359 1.433 . S
C361 N364 1.384 . S
C362 H353 0.929 . S
C362 C354 1.378 . S
C362 C357 1.350 1_565 S
C363 H350 0.929 . S
C363 C355 1.433 . S
C363 N365 1.384 . S
N364 C360 1.427 . S
N364 C361 1.384 . S
N365 C357 1.428 . S
N365 C363 1.384 . S
H366 C372 0.930 . S
H367 C376 0.930 . S
H368 C381 0.929 . S
H369 C379 0.929 . S
H370 C374 0.929 . S
H371 C380 0.929 . S
C372 H366 0.930 . S
C372 C373 1.367 . S
C372 C380 1.378 . S
C373 C372 1.367 . S
C373 C381 1.433 . S
C374 H370 0.929 . S
C374 C376 1.378 . S
C374 C378 1.350 . S
C375 C378 1.463 . S
C375 C380 1.350 . S
C375 N383 1.427 . S
C376 H367 0.930 . S
C376 C374 1.378 . S
C376 C377 1.367 . S
C377 C376 1.367 . S
C377 C379 1.433 . S
C378 C374 1.350 . S
C378 C375 1.463 . S
C378 N382 1.427 . S
C379 H369 0.929 . S
C379 C377 1.433 . S
C379 N382 1.384 . S
C380 H371 0.929 . S
C380 C372 1.378 . S
C380 C375 1.350 . S
C381 H368 0.929 . S
C381 C373 1.433 . S
C381 N383 1.384 . S
N382 C378 1.427 . S
N382 C379 1.384 . S
N383 C375 1.427 . S
N383 C381 1.384 . S
H384 C390 0.930 . S
H385 C394 0.930 . S
H386 C399 0.929 . S
H387 C397 0.929 . S
H388 C392 0.929 . S
H389 C398 0.929 . S
C390 H384 0.930 . S
C390 C391 1.367 . S
C390 C398 1.378 . S
C391 C390 1.367 . S
C391 C399 1.433 . S
C392 H388 0.929 . S
C392 C394 1.378 . S
C392 C396 1.350 . S
C393 C396 1.463 1_554 S
C393 C398 1.350 . S
C393 N401 1.427 . S
C394 H385 0.930 . S
C394 C392 1.378 . S
C394 C395 1.367 . S
C395 C394 1.367 . S
C395 C397 1.433 . S
C396 C392 1.350 . S
C396 C393 1.463 1_556 S
C396 N400 1.427 . S
C397 H387 0.929 . S
C397 C395 1.433 . S
C397 N400 1.384 . S
C398 H389 0.929 . S
C398 C390 1.378 . S
C398 C393 1.350 . S
C399 H386 0.929 . S
C399 C391 1.433 . S
C399 N401 1.384 . S
N400 C396 1.427 . S
N400 C397 1.384 . S
N401 C393 1.427 . S
N401 C399 1.384 . S
H402 C408 0.930 . S
H403 C412 0.930 . S
H404 C417 0.929 . S
H405 C415 0.929 . S
H406 C410 0.929 . S
H407 C416 0.929 . S
C408 H402 0.930 . S
C408 C409 1.367 . S
C408 C416 1.378 . S
C409 C408 1.367 . S
C409 C417 1.433 . S
C410 H406 0.929 . S
C410 C412 1.378 . S
C410 C414 1.350 . S
C411 C414 1.463 . S
C411 C416 1.350 . S
C411 N419 1.427 . S
C412 H403 0.930 . S
C412 C410 1.378 . S
C412 C413 1.367 . S
C413 C412 1.367 . S
C413 C415 1.433 . S
C414 C410 1.350 . S
C414 C411 1.463 . S
C414 N418 1.427 . S
C415 H405 0.929 . S
C415 C413 1.433 . S
C415 N418 1.384 . S
C416 H407 0.929 . S
C416 C408 1.378 . S
C416 C411 1.350 . S
C417 H404 0.929 . S
C417 C409 1.433 . S
C417 N419 1.384 . S
N418 C414 1.427 . S
N418 C415 1.384 . S
N419 C411 1.427 . S
N419 C417 1.384 . S
H420 C426 0.930 . S
H421 C430 0.930 . S
H422 C435 0.929 . S
H423 C433 0.929 . S
H424 C428 0.929 . S
H425 C434 0.929 . S
C426 H420 0.930 . S
C426 C427 1.367 . S
C426 C434 1.378 . S
C427 C426 1.367 . S
C427 C435 1.433 . S
C428 H424 0.929 . S
C428 C430 1.378 . S
C428 C432 1.350 . S
C429 C432 1.463 . S
C429 C434 1.350 . S
C429 N437 1.427 . S
C430 H421 0.930 . S
C430 C428 1.378 . S
C430 C431 1.367 . S
C431 C430 1.367 . S
C431 C433 1.433 . S
C432 C428 1.350 . S
C432 C429 1.463 . S
C432 N436 1.427 . S
C433 H423 0.929 . S
C433 C431 1.433 . S
C433 N436 1.384 . S
C434 H425 0.929 . S
C434 C426 1.378 . S
C434 C429 1.350 . S
C435 H422 0.929 . S
C435 C427 1.433 . S
C435 N437 1.384 . S
N436 C432 1.427 . S
N436 C433 1.384 . S
N437 C429 1.427 . S
N437 C435 1.384 . S
H438 C444 0.930 . S
H439 C448 0.930 . S
H440 C453 0.929 . S
H441 C451 0.929 . S
H442 C446 0.929 . S
H443 C452 0.929 . S
C444 H438 0.930 . S
C444 C445 1.367 . S
C444 C452 1.378 . S
C445 C444 1.367 . S
C445 C453 1.433 . S
C446 H442 0.929 . S
C446 C448 1.378 . S
C446 C450 1.350 . S
C447 C450 1.463 1_554 S
C447 C452 1.350 . S
C447 N455 1.427 . S
C448 H439 0.930 . S
C448 C446 1.378 . S
C448 C449 1.367 . S
C449 C448 1.367 . S
C449 C451 1.433 . S
C450 C446 1.350 . S
C450 C447 1.463 1_556 S
C450 N454 1.427 . S
C451 H441 0.929 . S
C451 C449 1.433 . S
C451 N454 1.384 . S
C452 H443 0.929 . S
C452 C444 1.378 . S
C452 C447 1.350 . S
C453 H440 0.929 . S
C453 C445 1.433 . S
C453 N455 1.384 . S
N454 C450 1.427 . S
N454 C451 1.384 . S
N455 C447 1.427 . S
N455 C453 1.384 . S
H456 C462 0.930 . S
H457 C466 0.930 . S
H458 C471 0.929 . S
H459 C469 0.929 . S
H460 C464 0.929 . S
H461 C470 0.929 . S
C462 H456 0.930 . S
C462 C463 1.367 . S
C462 C470 1.378 . S
C463 C462 1.367 . S
C463 C471 1.433 . S
C464 H460 0.929 . S
C464 C466 1.378 . S
C464 C468 1.350 . S
C465 C468 1.463 . S
C465 C470 1.350 . S
C465 N473 1.427 . S
C466 H457 0.930 . S
C466 C464 1.378 . S
C466 C467 1.367 . S
C467 C466 1.367 . S
C467 C469 1.433 . S
C468 C464 1.350 . S
C468 C465 1.463 . S
C468 N472 1.427 . S
C469 H459 0.929 . S
C469 C467 1.433 . S
C469 N472 1.384 . S
C470 H461 0.929 . S
C470 C462 1.378 . S
C470 C465 1.350 . S
C471 H458 0.929 . S
C471 C463 1.433 . S
C471 N473 1.384 . S
N472 C468 1.427 . S
N472 C469 1.384 . S
N473 C465 1.427 . S
N473 C471 1.384 . S
H474 C480 0.930 . S
H475 C484 0.930 . S
H476 C489 0.929 . S
H477 C487 0.929 . S
H478 C482 0.929 . S
H479 C488 0.929 . S
C480 H474 0.930 . S
C480 C481 1.367 . S
C480 C488 1.378 . S
C481 C480 1.367 . S
C481 C489 1.433 . S
C482 H478 0.929 . S
C482 C484 1.378 . S
C482 C486 1.350 . S
C483 C486 1.463 . S
C483 C488 1.350 . S
C483 N491 1.427 . S
C484 H475 0.930 . S
C484 C482 1.378 . S
C484 C485 1.367 . S
C485 C484 1.367 . S
C485 C487 1.433 . S
C486 C482 1.350 . S
C486 C483 1.463 . S
C486 N490 1.427 . S
C487 H477 0.929 . S
C487 C485 1.433 . S
C487 N490 1.384 . S
C488 H479 0.929 . S
C488 C480 1.378 . S
C488 C483 1.350 . S
C489 H476 0.929 . S
C489 C481 1.433 . S
C489 N491 1.384 . S
N490 C486 1.427 . S
N490 C487 1.384 . S
N491 C483 1.427 . S
N491 C489 1.384 . S
H492 C498 0.930 . S
H493 C502 0.930 . S
H494 C507 0.929 . S
H495 C505 0.929 . S
H496 C500 0.929 . S
H497 C506 0.929 . S
C498 H492 0.930 . S
C498 C499 1.367 . S
C498 C506 1.378 . S
C499 C498 1.367 . S
C499 C507 1.433 . S
C500 H496 0.929 . S
C500 C502 1.378 . S
C500 C504 1.350 . S
C501 C504 1.463 1_455 S
C501 C506 1.350 . S
C501 N509 1.427 . S
C502 H493 0.930 . S
C502 C500 1.378 . S
C502 C503 1.367 . S
C503 C502 1.367 . S
C503 C505 1.433 . S
C504 C500 1.350 . S
C504 C501 1.463 1_655 S
C504 N508 1.427 . S
C505 H495 0.929 . S
C505 C503 1.433 . S
C505 N508 1.384 . S
C506 H497 0.929 . S
C506 C498 1.378 . S
C506 C501 1.350 . S
C507 H494 0.929 . S
C507 C499 1.433 . S
C507 N509 1.384 . S
N508 C504 1.427 . S
N508 C505 1.384 . S
N509 C501 1.427 . S
N509 C507 1.384 . S
H510 C516 0.930 . S
H511 C520 0.930 . S
H512 C525 0.929 . S
H513 C523 0.929 . S
H514 C518 0.929 . S
H515 C524 0.929 . S
C516 H510 0.930 . S
C516 C517 1.367 . S
C516 C524 1.378 . S
C517 C516 1.367 . S
C517 C525 1.433 1_545 S
C518 H514 0.929 . S
C518 C520 1.378 . S
C518 C522 1.350 . S
C519 C522 1.463 1_545 S
C519 C524 1.350 . S
C519 N527 1.427 1_545 S
C520 H511 0.930 . S
C520 C518 1.378 . S
C520 C521 1.367 . S
C521 C520 1.367 . S
C521 C523 1.433 1_565 S
C522 C518 1.350 . S
C522 C519 1.463 1_565 S
C522 N526 1.427 1_565 S
C523 H513 0.929 . S
C523 C521 1.433 1_545 S
C523 N526 1.384 . S
C524 H515 0.929 . S
C524 C516 1.378 . S
C524 C519 1.350 . S
C525 H512 0.929 . S
C525 C517 1.433 1_565 S
C525 N527 1.384 . S
N526 C522 1.427 1_545 S
N526 C523 1.384 . S
N527 C519 1.427 1_565 S
N527 C525 1.384 . S
H528 C534 0.930 . S
H529 C538 0.930 . S
H530 C543 0.929 . S
H531 C541 0.929 . S
H532 C536 0.929 . S
H533 C542 0.929 . S
C534 H528 0.930 . S
C534 C535 1.367 . S
C534 C542 1.378 . S
C535 C534 1.367 . S
C535 C543 1.433 . S
C536 H532 0.929 . S
C536 C538 1.378 . S
C536 C540 1.350 . S
C537 C540 1.463 . S
C537 C542 1.350 . S
C537 N545 1.427 . S
C538 H529 0.930 . S
C538 C536 1.378 . S
C538 C539 1.367 . S
C539 C538 1.367 . S
C539 C541 1.433 . S
C540 C536 1.350 . S
C540 C537 1.463 . S
C540 N544 1.427 . S
C541 H531 0.929 . S
C541 C539 1.433 . S
C541 N544 1.384 . S
C542 H533 0.929 . S
C542 C534 1.378 . S
C542 C537 1.350 . S
C543 H530 0.929 . S
C543 C535 1.433 . S
C543 N545 1.384 . S
N544 C540 1.427 . S
N544 C541 1.384 . S
N545 C537 1.427 . S
N545 C543 1.384 . S
H546 C552 0.930 . S
H547 C556 0.930 . S
H548 C561 0.929 . S
H549 C559 0.929 . S
H550 C554 0.929 . S
H551 C560 0.929 . S
C552 H546 0.930 . S
C552 C553 1.367 . S
C552 C560 1.378 1_545 S
C553 C552 1.367 . S
C553 C561 1.433 . S
C554 H550 0.929 . S
C554 C556 1.378 1_545 S
C554 C558 1.350 1_545 S
C555 C558 1.463 1_545 S
C555 C560 1.350 1_545 S
C555 N563 1.427 . S
C556 H547 0.930 . S
C556 C554 1.378 1_565 S
C556 C557 1.367 . S
C557 C556 1.367 . S
C557 C559 1.433 . S
C558 C554 1.350 1_565 S
C558 C555 1.463 1_565 S
C558 N562 1.427 . S
C559 H549 0.929 . S
C559 C557 1.433 . S
C559 N562 1.384 . S
C560 H551 0.929 . S
C560 C552 1.378 1_565 S
C560 C555 1.350 1_565 S
C561 H548 0.929 . S
C561 C553 1.433 . S
C561 N563 1.384 . S
N562 C558 1.427 . S
N562 C559 1.384 . S
N563 C555 1.427 . S
N563 C561 1.384 . S
H564 C570 0.930 . S
H565 C574 0.930 . S
H566 C579 0.929 . S
H567 C577 0.929 . S
H568 C572 0.929 . S
H569 C578 0.929 . S
C570 H564 0.930 . S
C570 C571 1.367 . S
C570 C578 1.378 . S
C571 C570 1.367 . S
C571 C579 1.433 . S
C572 H568 0.929 . S
C572 C574 1.378 . S
C572 C576 1.350 . S
C573 C576 1.463 . S
C573 C578 1.350 . S
C573 N581 1.427 . S
C574 H565 0.930 . S
C574 C572 1.378 . S
C574 C575 1.367 . S
C575 C574 1.367 . S
C575 C577 1.433 . S
C576 C572 1.350 . S
C576 C573 1.463 . S
C576 N580 1.427 . S
C577 H567 0.929 . S
C577 C575 1.433 . S
C577 N580 1.384 . S
C578 H569 0.929 . S
C578 C570 1.378 . S
C578 C573 1.350 . S
C579 H566 0.929 . S
C579 C571 1.433 . S
C579 N581 1.384 . S
N580 C576 1.427 . S
N580 C577 1.384 . S
N581 C573 1.427 . S
N581 C579 1.384 . S
H582 C588 0.930 . S
H583 C592 0.930 . S
H584 C597 0.929 . S
H585 C595 0.929 . S
H586 C590 0.929 . S
H587 C596 0.929 . S
C588 H582 0.930 . S
C588 C589 1.366 . S
C588 C596 1.378 . S
C589 C588 1.366 . S
C589 C597 1.433 1_655 S
C590 H586 0.929 . S
C590 C592 1.378 . S
C590 C594 1.350 . S
C591 C594 1.463 1_655 S
C591 C596 1.350 . S
C591 N599 1.427 1_655 S
C592 H583 0.930 . S
C592 C590 1.378 . S
C592 C593 1.366 . S
C593 C592 1.366 . S
C593 C595 1.432 1_455 S
C594 C590 1.350 . S
C594 C591 1.463 1_455 S
C594 N598 1.428 1_455 S
C595 H585 0.929 . S
C595 C593 1.432 1_655 S
C595 N598 1.384 . S
C596 H587 0.929 . S
C596 C588 1.378 . S
C596 C591 1.350 . S
C597 H584 0.929 . S
C597 C589 1.433 1_455 S
C597 N599 1.384 . S
N598 C594 1.428 1_655 S
N598 C595 1.384 . S
N599 C591 1.427 1_455 S
N599 C597 1.384 . S
H600 C606 0.930 . S
H601 C610 0.930 . S
H602 C615 0.929 . S
H603 C613 0.929 . S
H604 C608 0.929 . S
H605 C614 0.929 . S
C606 H600 0.930 . S
C606 C607 1.367 1_455 S
C606 C614 1.378 . S
C607 C606 1.367 1_655 S
C607 C615 1.433 . S
C608 H604 0.929 . S
C608 C610 1.378 . S
C608 C612 1.350 1_655 S
C609 C612 1.463 1_645 S
C609 C614 1.351 1_655 S
C609 N617 1.425 . S
C610 H601 0.930 . S
C610 C608 1.378 . S
C610 C611 1.367 1_655 S
C611 C610 1.367 1_455 S
C611 C613 1.433 . S
C612 C608 1.350 1_455 S
C612 C609 1.463 1_465 S
C612 N616 1.428 . S
C613 H603 0.929 . S
C613 C611 1.433 . S
C613 N616 1.384 . S
C614 H605 0.929 . S
C614 C606 1.378 . S
C614 C609 1.351 1_455 S
C615 H602 0.929 . S
C615 C607 1.433 . S
C615 N617 1.384 . S
N616 C612 1.428 . S
N616 C613 1.384 . S
N617 C609 1.425 . S
N617 C615 1.384 . S
H618 C624 0.930 . S
H619 C628 0.930 . S
H620 C633 0.929 . S
H621 C631 0.929 . S
H622 C626 0.929 . S
H623 C632 0.929 . S
C624 H618 0.930 . S
C624 C625 1.367 . S
C624 C632 1.378 . S
C625 C624 1.367 . S
C625 C633 1.433 . S
C626 H622 0.929 . S
C626 C628 1.378 . S
C626 C630 1.350 . S
C627 C630 1.463 1_645 S
C627 C632 1.350 . S
C627 N635 1.424 . S
C628 H619 0.930 . S
C628 C626 1.378 . S
C628 C629 1.367 . S
C629 C628 1.367 . S
C629 C631 1.433 . S
C630 C626 1.350 . S
C630 C627 1.463 1_465 S
C630 N634 1.427 . S
C631 H621 0.929 . S
C631 C629 1.433 . S
C631 N634 1.384 . S
C632 H623 0.929 . S
C632 C624 1.378 . S
C632 C627 1.350 . S
C633 H620 0.929 . S
C633 C625 1.433 . S
C633 N635 1.401 . S
N634 C630 1.427 . S
N634 C631 1.384 . S
N635 C627 1.424 . S
N635 C633 1.401 . S
H636 C642 0.930 . S
H637 C646 0.930 . S
H638 C651 0.929 . S
H639 C649 0.929 . S
H640 C644 0.929 1_455 S
H641 C650 0.929 1_655 S
C642 H636 0.930 . S
C642 C643 1.367 . S
C642 C650 1.378 . S
C643 C642 1.367 . S
C643 C651 1.433 . S
C644 H640 0.929 1_655 S
C644 C646 1.378 . S
C644 C648 1.350 . S
C645 C648 1.463 1_445 S
C645 C650 1.350 . S
C645 N653 1.427 . S
C646 H637 0.930 . S
C646 C644 1.378 . S
C646 C647 1.367 . S
C647 C646 1.367 . S
C647 C649 1.433 . S
C648 C644 1.350 . S
C648 C645 1.463 1_665 S
C648 N652 1.427 . S
C649 H639 0.929 . S
C649 C647 1.433 . S
C649 N652 1.384 . S
C650 H641 0.929 1_455 S
C650 C642 1.378 . S
C650 C645 1.350 . S
C651 H638 0.929 . S
C651 C643 1.433 . S
C651 N653 1.384 . S
N652 C648 1.427 . S
N652 C649 1.384 . S
N653 C645 1.427 . S
N653 C651 1.384 . S
H654 C660 0.930 . S
H655 C664 0.930 . S
H656 C669 0.929 . S
H657 C667 0.929 . S
H658 C662 0.929 . S
H659 C668 0.929 . S
C660 H654 0.930 . S
C660 C661 1.367 . S
C660 C668 1.378 . S
C661 C660 1.367 . S
C661 C669 1.433 1_565 S
C662 H658 0.929 . S
C662 C664 1.378 . S
C662 C666 1.350 . S
C663 C666 1.463 1_665 S
C663 C668 1.350 . S
C663 N671 1.427 1_565 S
C664 H655 0.930 . S
C664 C662 1.378 . S
C664 C665 1.367 . S
C665 C664 1.367 . S
C665 C667 1.433 1_545 S
C666 C662 1.350 . S
C666 C663 1.463 1_445 S
C666 N670 1.427 1_545 S
C667 H657 0.929 . S
C667 C665 1.433 1_565 S
C667 N670 1.384 . S
C668 H659 0.929 . S
C668 C660 1.378 . S
C668 C663 1.350 . S
C669 H656 0.929 . S
C669 C661 1.433 1_545 S
C669 N671 1.384 . S
N670 C666 1.427 1_565 S
N670 C667 1.384 . S
N671 C663 1.427 1_545 S
N671 C669 1.384 . S
H672 C678 0.930 . S
H673 C682 0.930 . S
H674 C687 0.929 . S
H675 C685 0.929 . S
H676 C680 0.929 . S
H677 C686 0.929 . S
C678 H672 0.930 . S
C678 C679 1.367 . S
C678 C686 1.378 . S
C679 C678 1.367 . S
C679 C687 1.433 . S
C680 H676 0.929 . S
C680 C682 1.378 . S
C680 C684 1.350 . S
C681 C684 1.463 1_665 S
C681 C686 1.350 . S
C681 N689 1.427 . S
C682 H673 0.930 . S
C682 C680 1.378 . S
C682 C683 1.367 . S
C683 C682 1.367 . S
C683 C685 1.433 . S
C684 C680 1.350 . S
C684 C681 1.463 1_445 S
C684 N688 1.427 . S
C685 H675 0.929 . S
C685 C683 1.433 . S
C685 N688 1.384 . S
C686 H677 0.929 . S
C686 C678 1.378 . S
C686 C681 1.350 . S
C687 H674 0.929 . S
C687 C679 1.433 . S
C687 N689 1.384 . S
N688 C684 1.427 . S
N688 C685 1.384 . S
N689 C681 1.427 . S
N689 C687 1.384 . S
H690 C696 0.930 . S
H691 C700 0.930 . S
H692 C705 0.929 . S
H693 C703 0.929 . S
H694 C698 0.929 . S
H695 C704 0.929 . S
C696 H690 0.930 . S
C696 C697 1.367 . S
C696 C704 1.378 . S
C697 C696 1.367 . S
C697 C705 1.433 1_655 S
C698 H694 0.929 . S
C698 C700 1.378 . S
C698 C702 1.350 . S
C699 C702 1.463 1_665 S
C699 C704 1.350 . S
C699 N707 1.427 1_655 S
C700 H691 0.930 . S
C700 C698 1.378 . S
C700 C701 1.367 . S
C701 C700 1.367 . S
C701 C703 1.433 1_455 S
C702 C698 1.350 . S
C702 C699 1.463 1_445 S
C702 N706 1.427 1_455 S
C703 H693 0.929 . S
C703 C701 1.433 1_655 S
C703 N706 1.384 . S
C704 H695 0.929 . S
C704 C696 1.378 . S
C704 C699 1.350 . S
C705 H692 0.929 . S
C705 C697 1.433 1_455 S
C705 N707 1.384 . S
N706 C702 1.427 1_655 S
N706 C703 1.384 . S
N707 C699 1.427 1_455 S
N707 C705 1.384 . S
C283 C260 1.643 . S
C287 C7 1.646 . S
C301 N25 1.547 . S
C305 N140 1.536 . S
C319 C53 1.652 . S
C323 C168 1.648 . S
C337 C76 1.645 . S
C341 C191 1.652 . S
C355 N209 1.548 . S
C359 N94 1.554 . S
C373 C122 1.652 . S
C377 C237 1.649 . S
C391 C16 1.604 . S
C395 C246 1.610 . S
C409 N35 1.598 . S
C413 C269 1.594 . S
C427 C62 1.595 . S
C431 N150 1.597 . S
C445 C85 1.610 . S
C449 C177 1.604 . S
C463 C200 1.587 . S
C467 N104 1.602 . S
C481 N219 1.599 . S
C485 C131 1.593 . S
C499 N81 1.438 . S
C503 N12 1.450 . S
C517 C39 1.520 . S
C521 C108 1.515 . S
C535 N127 1.484 . S
C539 N58 1.474 . S
C553 C223 1.517 . S
C557 C154 1.511 . S
C571 N242 1.436 . S
C575 N173 1.445 . S
C589 N196 1.488 1_655 S
C593 N265 1.477 1_455 S
C607 N2 1.465 . S
C611 N71 1.460 . S
C625 C30 1.680 . S
C629 C99 1.683 . S
C643 N117 1.397 . S
C647 N48 1.397 . S
C661 C145 1.682 . S
C665 C214 1.685 . S
C679 N163 1.463 . S
C683 N232 1.455 . S
C697 N186 1.396 . S
C701 N255 1.402 . S
