# Generated by pormake.
# Topology fca, (5)-cn, num edge types: 1
# Building blocks:
#     Node 0, Type 0, BuildingBlock: BEQFEK_clean_sbu_0, # of connection points: 5
#     Node 1, Type 0, BuildingBlock: BEQFEK_clean_sbu_0, # of connection points: 5
#     Node 2, Type 0, BuildingBlock: BEQFEK_clean_sbu_0, # of connection points: 5
#     Node 3, Type 0, BuildingBlock: BEQFEK_clean_sbu_0, # of connection points: 5
#     Node 4, Type 0, BuildingBlock: BEQFEK_clean_sbu_0, # of connection points: 5
#     Node 5, Type 0, BuildingBlock: BEQFEK_clean_sbu_0, # of connection points: 5
#     Node 6, Type 0, BuildingBlock: BEQFEK_clean_sbu_0, # of connection points: 5
#     Node 7, Type 0, BuildingBlock: BEQFEK_clean_sbu_0, # of connection points: 5
#     Node 8, Type 0, BuildingBlock: BEQFEK_clean_sbu_0, # of connection points: 5
#     Node 9, Type 0, BuildingBlock: BEQFEK_clean_sbu_0, # of connection points: 5
#     Node 10, Type 0, BuildingBlock: BEQFEK_clean_sbu_0, # of connection points: 5
#     Node 11, Type 0, BuildingBlock: BEQFEK_clean_sbu_0, # of connection points: 5
#     Node 12, Type 0, BuildingBlock: BEQFEK_clean_sbu_0, # of connection points: 5
#     Node 13, Type 0, BuildingBlock: BEQFEK_clean_sbu_0, # of connection points: 5
#     Node 14, Type 0, BuildingBlock: BEQFEK_clean_sbu_0, # of connection points: 5
#     Node 15, Type 0, BuildingBlock: BEQFEK_clean_sbu_0, # of connection points: 5
#     Node 16, Type 0, BuildingBlock: BEQFEK_clean_sbu_0, # of connection points: 5
#     Node 17, Type 0, BuildingBlock: BEQFEK_clean_sbu_0, # of connection points: 5
#     Node 18, Type 0, BuildingBlock: BEQFEK_clean_sbu_0, # of connection points: 5
#     Node 19, Type 0, BuildingBlock: BEQFEK_clean_sbu_0, # of connection points: 5
#     Node 20, Type 0, BuildingBlock: BEQFEK_clean_sbu_0, # of connection points: 5
#     Node 21, Type 0, BuildingBlock: BEQFEK_clean_sbu_0, # of connection points: 5
#     Node 22, Type 0, BuildingBlock: BEQFEK_clean_sbu_0, # of connection points: 5
#     Node 23, Type 0, BuildingBlock: BEQFEK_clean_sbu_0, # of connection points: 5
#     Edge 24, Type (0, 0), BuildingBlock: CIFDUS_clean_linker_0, # of connection points: 2
#     Edge 25, Type (0, 0), BuildingBlock: CIFDUS_clean_linker_0, # of connection points: 2
#     Edge 26, Type (0, 0), BuildingBlock: CIFDUS_clean_linker_0, # of connection points: 2
#     Edge 27, Type (0, 0), BuildingBlock: CIFDUS_clean_linker_0, # of connection points: 2
#     Edge 28, Type (0, 0), BuildingBlock: CIFDUS_clean_linker_0, # of connection points: 2
#     Edge 29, Type (0, 0), BuildingBlock: CIFDUS_clean_linker_0, # of connection points: 2
#     Edge 30, Type (0, 0), BuildingBlock: CIFDUS_clean_linker_0, # of connection points: 2
#     Edge 31, Type (0, 0), BuildingBlock: CIFDUS_clean_linker_0, # of connection points: 2
#     Edge 32, Type (0, 0), BuildingBlock: CIFDUS_clean_linker_0, # of connection points: 2
#     Edge 33, Type (0, 0), BuildingBlock: CIFDUS_clean_linker_0, # of connection points: 2
#     Edge 34, Type (0, 0), BuildingBlock: CIFDUS_clean_linker_0, # of connection points: 2
#     Edge 35, Type (0, 0), BuildingBlock: CIFDUS_clean_linker_0, # of connection points: 2
#     Edge 36, Type (0, 0), BuildingBlock: CIFDUS_clean_linker_0, # of connection points: 2
#     Edge 37, Type (0, 0), BuildingBlock: CIFDUS_clean_linker_0, # of connection points: 2
#     Edge 38, Type (0, 0), BuildingBlock: CIFDUS_clean_linker_0, # of connection points: 2
#     Edge 39, Type (0, 0), BuildingBlock: CIFDUS_clean_linker_0, # of connection points: 2
#     Edge 40, Type (0, 0), BuildingBlock: CIFDUS_clean_linker_0, # of connection points: 2
#     Edge 41, Type (0, 0), BuildingBlock: CIFDUS_clean_linker_0, # of connection points: 2
#     Edge 42, Type (0, 0), BuildingBlock: CIFDUS_clean_linker_0, # of connection points: 2
#     Edge 43, Type (0, 0), BuildingBlock: CIFDUS_clean_linker_0, # of connection points: 2
#     Edge 44, Type (0, 0), BuildingBlock: CIFDUS_clean_linker_0, # of connection points: 2
#     Edge 45, Type (0, 0), BuildingBlock: CIFDUS_clean_linker_0, # of connection points: 2
#     Edge 46, Type (0, 0), BuildingBlock: CIFDUS_clean_linker_0, # of connection points: 2
#     Edge 47, Type (0, 0), BuildingBlock: CIFDUS_clean_linker_0, # of connection points: 2
#     Edge 48, Type (0, 0), BuildingBlock: CIFDUS_clean_linker_0, # of connection points: 2
#     Edge 49, Type (0, 0), BuildingBlock: CIFDUS_clean_linker_0, # of connection points: 2
#     Edge 50, Type (0, 0), BuildingBlock: CIFDUS_clean_linker_0, # of connection points: 2
#     Edge 51, Type (0, 0), BuildingBlock: CIFDUS_clean_linker_0, # of connection points: 2
#     Edge 52, Type (0, 0), BuildingBlock: CIFDUS_clean_linker_0, # of connection points: 2
#     Edge 53, Type (0, 0), BuildingBlock: CIFDUS_clean_linker_0, # of connection points: 2
#     Edge 54, Type (0, 0), BuildingBlock: CIFDUS_clean_linker_0, # of connection points: 2
#     Edge 55, Type (0, 0), BuildingBlock: CIFDUS_clean_linker_0, # of connection points: 2
#     Edge 56, Type (0, 0), BuildingBlock: CIFDUS_clean_linker_0, # of connection points: 2
#     Edge 57, Type (0, 0), BuildingBlock: CIFDUS_clean_linker_0, # of connection points: 2
#     Edge 58, Type (0, 0), BuildingBlock: CIFDUS_clean_linker_0, # of connection points: 2
#     Edge 59, Type (0, 0), BuildingBlock: CIFDUS_clean_linker_0, # of connection points: 2
#     Edge 60, Type (0, 0), BuildingBlock: CIFDUS_clean_linker_0, # of connection points: 2
#     Edge 61, Type (0, 0), BuildingBlock: CIFDUS_clean_linker_0, # of connection points: 2
#     Edge 62, Type (0, 0), BuildingBlock: CIFDUS_clean_linker_0, # of connection points: 2
#     Edge 63, Type (0, 0), BuildingBlock: CIFDUS_clean_linker_0, # of connection points: 2
#     Edge 64, Type (0, 0), BuildingBlock: CIFDUS_clean_linker_0, # of connection points: 2
#     Edge 65, Type (0, 0), BuildingBlock: CIFDUS_clean_linker_0, # of connection points: 2
#     Edge 66, Type (0, 0), BuildingBlock: CIFDUS_clean_linker_0, # of connection points: 2
#     Edge 67, Type (0, 0), BuildingBlock: CIFDUS_clean_linker_0, # of connection points: 2
#     Edge 68, Type (0, 0), BuildingBlock: CIFDUS_clean_linker_0, # of connection points: 2
#     Edge 69, Type (0, 0), BuildingBlock: CIFDUS_clean_linker_0, # of connection points: 2
#     Edge 70, Type (0, 0), BuildingBlock: CIFDUS_clean_linker_0, # of connection points: 2
#     Edge 71, Type (0, 0), BuildingBlock: CIFDUS_clean_linker_0, # of connection points: 2
#     Edge 72, Type (0, 0), BuildingBlock: CIFDUS_clean_linker_0, # of connection points: 2
#     Edge 73, Type (0, 0), BuildingBlock: CIFDUS_clean_linker_0, # of connection points: 2
#     Edge 74, Type (0, 0), BuildingBlock: CIFDUS_clean_linker_0, # of connection points: 2
#     Edge 75, Type (0, 0), BuildingBlock: CIFDUS_clean_linker_0, # of connection points: 2
#     Edge 76, Type (0, 0), BuildingBlock: CIFDUS_clean_linker_0, # of connection points: 2
#     Edge 77, Type (0, 0), BuildingBlock: CIFDUS_clean_linker_0, # of connection points: 2
#     Edge 78, Type (0, 0), BuildingBlock: CIFDUS_clean_linker_0, # of connection points: 2
#     Edge 79, Type (0, 0), BuildingBlock: CIFDUS_clean_linker_0, # of connection points: 2
#     Edge 80, Type (0, 0), BuildingBlock: CIFDUS_clean_linker_0, # of connection points: 2
#     Edge 81, Type (0, 0), BuildingBlock: CIFDUS_clean_linker_0, # of connection points: 2
#     Edge 82, Type (0, 0), BuildingBlock: CIFDUS_clean_linker_0, # of connection points: 2
#     Edge 83, Type (0, 0), BuildingBlock: CIFDUS_clean_linker_0, # of connection points: 2
# Relax obj value: 0.535
# Max RMSD: 0.293
# Mean RMSD: 0.293
data_MOF--net-fca--node1-BEQFEK_clean_sbu_0--edge1-CIFDUS_clean_linker_0
_symmetry_space_group_name_H-M    P1
_symmetry_Int_Tables_number       1
_symmetry_cell_setting            triclinic
loop_
_symmetry_equiv_pos_as_xyz
'x, y, z'
_cell_length_a     49.256568
_cell_length_b     49.331484
_cell_length_c     49.273478
_cell_angle_alpha  90.010593
_cell_angle_beta   90.117588
_cell_angle_gamma 90.044014
loop_
_atom_site_label
_atom_site_type_symbol
_atom_site_fract_x
_atom_site_fract_y
_atom_site_fract_z
_atom_type_partial_charge
Co0 Co 0.04909 0.3999 0.29067 0.0
Co1 Co 0.08426 0.41123 0.34052 0.0
C2 C 0.10275 0.42226 0.28085 0.0
O3 O 0.08348 0.40833 0.27055 0.0
O4 O 0.1047 0.42459 0.30663 0.0
C5 C 0.0191 0.38088 0.24236 0.0
O6 O 0.04186 0.37231 0.23148 0.0
C7 C 0.12665 0.39327 0.37727 0.0
C8 C 0.124 0.4236 0.41014 0.0
C9 C 0.1367 0.39959 0.40292 0.0
N10 N 0.10842 0.41214 0.37029 0.0
N11 N 0.10741 0.43064 0.38964 0.0
C12 C 0.13415 0.37007 0.35919 0.0
H13 H 0.11853 0.35395 0.36066 0.0
H14 H 0.15426 0.3616 0.36485 0.0
H15 H 0.13451 0.37698 0.33775 0.0
C16 C 0.03138 0.35237 0.32341 0.0
N17 N 0.04945 0.37244 0.31818 0.0
N18 N 0.06321 0.3779 0.34037 0.0
C19 C 0.05347 0.36208 0.36077 0.0
C20 C 0.03298 0.34505 0.35073 0.0
C21 C 0.00986 0.34358 0.30382 0.0
H22 H 0.99469 0.36005 0.30162 0.0
H23 H 0.0191 0.33976 0.28369 0.0
H24 H 0.99926 0.32502 0.3108 0.0
O25 O 0.03838 0.43524 0.30691 0.0
O26 O 0.05857 0.4397 0.34701 0.0
H27 H 0.06338 0.38732 0.39483 0.0
H28 H 0.04652 0.35584 0.40375 0.0
C29 C 0.06141 0.36546 0.38991 0.0
H30 H 0.08144 0.35581 0.39331 0.0
H31 H 0.09442 0.44733 0.38946 0.0
O32 O 0.01939 0.3922 0.26547 0.0
C33 C 0.04225 0.44809 0.32901 0.0
Co34 Co 0.99084 0.65213 0.28288 0.0
Co35 Co 0.95915 0.63446 0.33363 0.0
C36 C 0.93602 0.62671 0.27601 0.0
O37 O 0.95568 0.63993 0.26551 0.0
O38 O 0.93452 0.62429 0.30177 0.0
C39 C 0.01238 0.68196 0.2352 0.0
O40 O 0.98808 0.69092 0.22886 0.0
C41 C 0.91883 0.64393 0.37488 0.0
C42 C 0.93145 0.61593 0.4075 0.0
C43 C 0.91344 0.63676 0.40164 0.0
N44 N 0.93951 0.6288 0.36597 0.0
N45 N 0.94651 0.61152 0.3852 0.0
C46 C 0.90528 0.66503 0.35774 0.0
H47 H 0.91815 0.6835 0.35714 0.0
H48 H 0.8849 0.67021 0.36579 0.0
H49 H 0.90335 0.65756 0.33658 0.0
C50 C 1.00854 0.6968 0.31931 0.0
N51 N 0.99064 0.67683 0.31302 0.0
N52 N 0.9783 0.66889 0.33525 0.0
C53 C 0.98862 0.68318 0.35654 0.0
C54 C 1.00822 0.70156 0.34724 0.0
C55 C 0.02921 0.7075 0.29984 0.0
H56 H 0.04305 0.69081 0.29393 0.0
H57 H 0.01882 0.71507 0.28136 0.0
H58 H 0.04152 0.72409 0.30872 0.0
O59 O 1.0083 0.61802 0.29483 0.0
O60 O 0.98679 0.60687 0.33277 0.0
H61 H 0.98605 0.65549 0.38983 0.0
H62 H 0.99418 0.68998 0.39968 0.0
C63 C 0.98211 0.67722 0.38557 0.0
H64 H 0.96027 0.68111 0.38918 0.0
H65 H 0.96255 0.59781 0.38366 0.0
O66 O 0.01561 0.6663 0.25538 0.0
C67 C 1.00488 0.60231 0.31504 0.0
Co68 Co 0.04997 0.63244 0.74992 0.0
Co69 Co 0.09177 0.63034 0.70398 0.0
C70 C 0.10661 0.61122 0.76098 0.0
O71 O 0.08286 0.61694 0.76953 0.0
O72 O 0.1133 0.61741 0.73673 0.0
C73 C 0.02262 0.64966 0.7993 0.0
O74 O 0.04608 0.65848 0.80847 0.0
C75 C 0.13489 0.65305 0.67104 0.0
C76 C 0.13173 0.62831 0.63382 0.0
C77 C 0.14498 0.65066 0.64475 0.0
N78 N 0.11612 0.63372 0.67475 0.0
N79 N 0.11481 0.61853 0.65276 0.0
C80 C 0.14266 0.67282 0.69276 0.0
H81 H 0.12851 0.6903 0.69239 0.0
H82 H 0.16377 0.68014 0.68984 0.0
H83 H 0.14078 0.66311 0.71299 0.0
C84 C 0.03351 0.68314 0.72243 0.0
N85 N 0.05269 0.66401 0.72733 0.0
N86 N 0.06883 0.66228 0.70621 0.0
C87 C 0.05981 0.67979 0.68686 0.0
C88 C 0.03708 0.69384 0.69647 0.0
C89 C 1.00906 0.68726 0.73994 0.0
H90 H 0.99669 0.66846 0.73997 0.0
H91 H 0.01565 0.69152 0.76104 0.0
H92 H 0.99622 0.70423 0.73267 0.0
O93 O 0.03637 0.60315 0.72638 0.0
O94 O 0.0682 0.60006 0.69458 0.0
H95 H 0.07141 0.65958 0.65021 0.0
H96 H 0.05773 0.6933 0.64501 0.0
C97 C 0.07047 0.68049 0.65844 0.0
H98 H 0.09134 0.68885 0.65858 0.0
H99 H 0.10142 0.60233 0.65018 0.0
O100 O 0.02119 0.63828 0.77627 0.0
C101 C 0.0461 0.59217 0.70515 0.0
Co102 Co 0.99573 0.39802 0.74719 0.0
Co103 Co 0.95386 0.40633 0.7015 0.0
C104 C 0.94016 0.42097 0.76004 0.0
O105 O 0.96309 0.41193 0.76791 0.0
O106 O 0.93336 0.41868 0.73516 0.0
C107 C 0.01835 0.36992 0.7929 0.0
O108 O 0.99412 0.35911 0.7956 0.0
C109 C 0.91034 0.38834 0.66512 0.0
C110 C 0.90906 0.42199 0.63563 0.0
C111 C 0.89785 0.3967 0.64104 0.0
N112 N 0.92837 0.40736 0.67261 0.0
N113 N 0.92698 0.42774 0.65536 0.0
C114 C 0.90656 0.36247 0.68058 0.0
H115 H 0.92127 0.36115 0.69761 0.0
H116 H 0.90919 0.34469 0.66705 0.0
H117 H 0.88574 0.36189 0.68912 0.0
C118 C 0.01271 0.35228 0.71336 0.0
N119 N 0.99265 0.36951 0.72102 0.0
N120 N 0.97598 0.37338 0.70052 0.0
C121 C 0.9853 0.35886 0.67896 0.0
C122 C 1.00898 0.34472 0.6863 0.0
C123 C 0.03848 0.3488 0.72921 0.0
H124 H 0.04741 0.36899 0.73353 0.0
H125 H 0.03387 0.33866 0.74873 0.0
H126 H 0.05386 0.33665 0.71829 0.0
O127 O 0.01059 0.42931 0.72708 0.0
O128 O 0.97942 0.43566 0.69479 0.0
H129 H 0.97482 0.38355 0.64473 0.0
H130 H 0.98557 0.34948 0.63581 0.0
C131 C 0.9743 0.36187 0.65075 0.0
H132 H 0.95296 0.35508 0.65024 0.0
H133 H 0.93899 0.44514 0.65649 0.0
O134 O 0.02263 0.38724 0.77434 0.0
C135 C 1.00154 0.44211 0.70648 0.0
Co136 Co 0.29141 0.04476 0.39734 0.0
Co137 Co 0.33698 0.08698 0.40407 0.0
C138 C 0.27922 0.10157 0.41859 0.0
O139 O 0.27174 0.07803 0.41089 0.0
O140 O 0.30383 0.10894 0.41531 0.0
C141 C 0.24278 0.02272 0.37307 0.0
O142 O 0.23765 0.0474 0.36446 0.0
C143 C 0.37297 0.1306 0.38714 0.0
C144 C 0.40924 0.12249 0.41223 0.0
C145 C 0.39987 0.13854 0.39105 0.0
N146 N 0.36748 0.11026 0.40433 0.0
N147 N 0.38892 0.10605 0.41986 0.0
C148 C 0.3525 0.14152 0.3675 0.0
H149 H 0.35213 0.12869 0.34902 0.0
H150 H 0.35735 0.16276 0.36185 0.0
H151 H 0.33194 0.14062 0.37662 0.0
C152 C 0.32482 0.02672 0.35172 0.0
N153 N 0.31728 0.04697 0.36873 0.0
N154 N 0.33734 0.06432 0.37142 0.0
C155 C 0.35838 0.05552 0.35586 0.0
C156 C 0.35136 0.03115 0.3428 0.0
C157 C 0.30941 1.0006 0.34948 0.0
H158 H 0.30607 0.99218 0.37008 0.0
H159 H 0.28928 1.00461 0.34019 0.0
H160 H 0.32016 0.98521 0.33719 0.0
O161 O 0.31102 0.03042 0.42903 0.0
O162 O 0.34239 0.0625 0.43471 0.0
H163 H 0.39505 0.06628 0.37658 0.0
H164 H 0.39957 0.05904 0.3408 0.0
C165 C 0.38593 0.06832 0.35608 0.0
H166 H 0.38405 0.09015 0.35136 0.0
H167 H 0.39021 0.09091 0.43459 0.0
O168 O 0.2638 0.01817 0.38731 0.0
C169 C 0.33101 0.04055 0.44195 0.0
Co170 Co 0.75344 0.99058 0.40432 0.0
Co171 Co 0.70615 0.95017 0.40932 0.0
C172 C 0.76489 0.93469 0.42487 0.0
O173 O 0.77413 0.95712 0.41589 0.0
O174 O 0.73955 0.92937 0.42295 0.0
C175 C 0.80145 0.02099 0.38668 0.0
O176 O 0.81165 0.99856 0.37659 0.0
C177 C 0.67146 0.90975 0.38432 0.0
C178 C 0.63551 0.91081 0.41098 0.0
C179 C 0.64485 0.90036 0.38655 0.0
N180 N 0.67683 0.92565 0.40574 0.0
N181 N 0.65559 0.92561 0.42202 0.0
C182 C 0.69193 0.90407 0.36264 0.0
H183 H 0.69129 0.92034 0.34713 0.0
H184 H 0.68791 0.88421 0.35282 0.0
H185 H 0.71266 0.90412 0.37154 0.0
C186 C 0.72454 1.00727 0.35444 0.0
N187 N 0.7294 0.98852 0.37399 0.0
N188 N 0.70767 0.97341 0.37721 0.0
C189 C 0.68788 0.983 0.36044 0.0
C190 C 0.69798 1.00465 0.34513 0.0
C191 C 0.74322 0.03031 0.34806 0.0
H192 H 0.74395 0.04438 0.36562 0.0
H193 H 0.76394 0.0224 0.34438 0.0
H194 H 0.73635 0.04174 0.32992 0.0
O195 O 0.73159 1.00258 0.43595 0.0
O196 O 0.69717 0.97357 0.43949 0.0
H197 H 0.65296 0.97039 0.38319 0.0
H198 H 0.64512 0.99008 0.35315 0.0
C199 C 0.65876 0.97443 0.36184 0.0
H200 H 0.65601 0.9555 0.35002 0.0
H201 H 0.65417 0.93705 0.43977 0.0
O202 O 0.77866 0.02053 0.39859 0.0
C203 C 0.70998 0.99439 0.44752 0.0
Co204 Co 0.29704 0.99112 0.6412 0.0
Co205 Co 0.34546 0.95292 0.6303 0.0
C206 C 0.28784 0.93457 0.61789 0.0
O207 O 0.27905 0.95704 0.62723 0.0
O208 O 0.31316 0.92908 0.61933 0.0
C209 C 0.24829 0.01052 0.66817 0.0
O210 O 0.24351 0.98547 0.67587 0.0
C211 C 0.38678 0.91142 0.64105 0.0
C212 C 0.41919 0.92405 0.61281 0.0
C213 C 0.41334 0.9055 0.63313 0.0
N214 N 0.37805 0.93275 0.62656 0.0
N215 N 0.39727 0.93982 0.60933 0.0
C216 C 0.36928 0.89709 0.66127 0.0
H217 H 0.37165 0.90678 0.68145 0.0
H218 H 0.3749 0.87535 0.66274 0.0
H219 H 0.3476 0.89893 0.65536 0.0
C220 C 0.33061 1.00795 0.68758 0.0
N221 N 0.32434 0.98911 0.66856 0.0
N222 N 0.34559 0.97361 0.66418 0.0
C223 C 0.36615 0.98236 0.68052 0.0
C224 C 0.35739 1.00463 0.69589 0.0
C225 C 0.31232 0.0309 0.69529 0.0
H226 H 0.2925 0.02269 0.70201 0.0
H227 H 0.32102 0.0433 0.71196 0.0
H228 H 0.30882 0.044 0.67732 0.0
O229 O 0.31374 1.00844 0.60931 0.0
O230 O 0.34723 0.9794 0.6011 0.0
H231 H 0.40161 0.97501 0.65666 0.0
H232 H 0.40873 0.98459 0.69142 0.0
C233 C 0.39488 0.97289 0.67803 0.0
H234 H 0.39603 0.95114 0.68351 0.0
H235 H 0.39584 0.95607 0.59585 0.0
O236 O 0.26881 0.01585 0.65357 0.0
C237 C 0.33384 1.00056 0.59519 0.0
Co238 Co 0.754 0.04188 0.64252 0.0
Co239 Co 0.7078 0.08334 0.63652 0.0
C240 C 0.76556 0.09854 0.62098 0.0
O241 O 0.77367 0.07525 0.62881 0.0
O242 O 0.74075 0.10521 0.62426 0.0
C243 C 0.80195 0.01924 0.66693 0.0
O244 O 0.8066 0.04371 0.6764 0.0
C245 C 0.67297 0.12585 0.65707 0.0
C246 C 0.63668 0.12162 0.63104 0.0
C247 C 0.64648 0.13512 0.65377 0.0
N248 N 0.67792 0.10724 0.63789 0.0
N249 N 0.65648 0.1053 0.62191 0.0
C250 C 0.69369 0.13419 0.67772 0.0
H251 H 0.69352 0.11968 0.69491 0.0
H252 H 0.68953 0.15493 0.68539 0.0
H253 H 0.71427 0.13347 0.66862 0.0
C254 C 0.72256 0.02484 0.69033 0.0
N255 N 0.72898 0.04423 0.6719 0.0
N256 N 0.70848 0.06108 0.66933 0.0
C257 C 0.68827 0.05269 0.6862 0.0
C258 C 0.69648 0.02933 0.70013 0.0
C259 C 0.73965 1.00039 0.69589 0.0
H260 H 0.74174 0.98833 0.677 0.0
H261 H 0.76014 1.00695 0.70248 0.0
H262 H 0.73076 0.98744 0.71199 0.0
O263 O 0.73324 0.02747 0.61144 0.0
O264 O 0.70079 0.05855 0.6064 0.0
H265 H 0.65318 0.06544 0.66383 0.0
H266 H 0.64551 0.0499 0.69614 0.0
C267 C 0.65985 0.06338 0.68523 0.0
H268 H 0.65925 0.08368 0.69482 0.0
H269 H 0.65481 0.09176 0.60572 0.0
O270 O 0.78141 0.01492 0.65193 0.0
C271 C 0.71243 0.03674 0.59915 0.0
Co272 Co 0.40097 0.28572 0.0551 0.0
Co273 Co 0.40264 0.33028 0.0989 0.0
C274 C 0.41943 0.27221 0.11185 0.0
O275 O 0.4129 0.2647 0.08798 0.0
O276 O 0.41496 0.29655 0.11935 0.0
C277 C 0.38172 0.23718 0.02987 0.0
O278 O 0.3726 0.2311 0.05416 0.0
C279 C 0.37888 0.36568 0.13999 0.0
C280 C 0.41042 0.39733 0.14343 0.0
C281 C 0.38443 0.39067 0.15187 0.0
N282 N 0.40013 0.35864 0.12458 0.0
N283 N 0.41927 0.37719 0.1274 0.0
C284 C 0.35414 0.34835 0.14333 0.0
H285 H 0.36027 0.32676 0.14498 0.0
H286 H 0.34099 0.35011 0.12516 0.0
H287 H 0.34245 0.35439 0.16159 0.0
C288 C 0.35134 0.31438 0.03765 0.0
N289 N 0.37015 0.30925 0.05711 0.0
N290 N 0.37177 0.33012 0.07365 0.0
C291 C 0.35474 0.34977 0.06418 0.0
C292 C 0.3408 0.3403 0.04123 0.0
C293 C 0.34707 0.29686 0.01319 0.0
H294 H 0.3662 0.29579 1.00141 0.0
H295 H 0.34158 0.27609 0.01978 0.0
H296 H 0.33081 0.30479 0.99977 0.0
O297 O 0.43298 0.30799 0.04465 0.0
O298 O 0.43418 0.33901 0.07748 0.0
H299 H 0.35191 0.39285 0.05731 0.0
H300 H 0.33661 0.38106 0.08793 0.0
C301 C 0.35431 0.37836 0.07434 0.0
H302 H 0.37319 0.38322 0.08553 0.0
H303 H 0.43783 0.37684 0.11722 0.0
O304 O 0.39464 0.25917 0.02624 0.0
C305 C 0.44397 0.3284 0.05621 0.0
Co306 Co 0.39842 0.74882 0.9879 0.0
Co307 Co 0.407 0.69734 0.95377 0.0
C308 C 0.42059 0.75312 0.93093 0.0
O309 O 0.41249 0.76472 0.95258 0.0
O310 O 0.41758 0.72757 0.92817 0.0
C311 C 0.37648 0.80088 1.00533 0.0
O312 O 0.37079 0.80621 0.97983 0.0
C313 C 0.3904 0.65672 0.91474 0.0
C314 C 0.41778 0.62264 0.92441 0.0
C315 C 0.39564 0.62976 0.90853 0.0
N316 N 0.40798 0.66468 0.93391 0.0
N317 N 0.42484 0.64453 0.93909 0.0
C318 C 0.369 0.6749 0.90311 0.0
H319 H 0.35214 0.67711 0.91782 0.0
H320 H 0.36099 0.66673 0.88369 0.0
H321 H 0.37762 0.69542 0.89976 0.0
C322 C 0.35005 0.71844 1.00692 0.0
N323 N 0.36974 0.72236 0.98811 0.0
N324 N 0.37401 0.69952 0.9751 0.0
C325 C 0.35756 0.68013 0.98581 0.0
C326 C 0.34155 0.69142 1.00638 0.0
C327 C 0.34337 0.73875 0.02847 0.0
H328 H 0.33733 0.75814 0.01881 0.0
H329 H 0.32682 0.73173 0.04196 0.0
H330 H 0.36172 0.74256 0.041 0.0
O331 O 0.43054 0.7318 1.00518 0.0
O332 O 0.43712 0.69557 0.97909 0.0
H333 H 0.38075 0.64382 0.9806 0.0
H334 H 0.34612 0.638 0.99161 0.0
C335 C 0.3594 0.6507 0.97867 0.0
H336 H 0.35311 0.64785 0.9573 0.0
H337 H 0.44025 0.64526 0.95363 0.0
O338 O 0.38799 0.77873 0.01163 0.0
C339 C 0.44396 0.71067 0.99881 0.0
Co340 Co 0.63324 0.29934 0.99169 0.0
Co341 Co 0.63168 0.34698 0.95056 0.0
C342 C 0.61913 0.29006 0.93183 0.0
O343 O 0.62271 0.28104 0.95592 0.0
O344 O 0.62468 0.31477 0.92628 0.0
C345 C 0.65118 0.25043 0.02185 0.0
O346 O 0.6639 0.24145 1.00024 0.0
C347 C 0.64579 0.387 0.90815 0.0
C348 C 0.61855 0.42061 0.91981 0.0
C349 C 0.63822 0.41335 0.90115 0.0
N350 N 0.63142 0.37952 0.93004 0.0
N351 N 0.61493 0.39956 0.93662 0.0
C352 C 0.66537 0.36861 0.89406 0.0
H353 H 0.68566 0.37055 0.90368 0.0
H354 H 0.66697 0.37385 0.87221 0.0
H355 H 0.65881 0.34721 0.89628 0.0
C356 C 0.68059 0.33051 0.013 0.0
N357 N 0.66251 0.32516 0.9929 0.0
N358 N 0.66195 0.34575 0.97595 0.0
C359 C 0.67995 0.36474 0.98474 0.0
C360 C 0.69238 0.35587 1.00878 0.0
C361 C 0.68499 0.31246 0.037 0.0
H362 H 0.66604 0.31138 0.04908 0.0
H363 H 0.6899 0.29173 0.02986 0.0
H364 H 0.7018 0.3198 0.05009 0.0
O365 O 0.60016 0.31835 1.00266 0.0
O366 O 0.59781 0.34991 0.97073 0.0
H367 H 0.66206 0.4024 0.97297 0.0
H368 H 0.69706 0.40525 0.98372 0.0
C369 C 0.68223 0.39244 0.9726 0.0
H370 H 0.68854 0.39064 0.95109 0.0
H371 H 0.60153 0.39915 0.95298 0.0
O372 O 0.63825 0.27265 0.02083 0.0
C373 C 0.58796 0.33789 0.99115 0.0
Co374 Co 0.64273 0.7547 0.03852 0.0
Co375 Co 0.63746 0.70872 0.08072 0.0
C376 C 0.62209 0.76589 0.09612 0.0
O377 O 0.62881 0.77354 0.07232 0.0
O378 O 0.62634 0.74142 0.10337 0.0
C379 C 0.65955 0.80649 0.01852 0.0
O380 O 0.65979 0.81362 0.04421 0.0
C381 C 0.65646 0.67272 0.12341 0.0
C382 C 0.63038 0.63682 0.11724 0.0
C383 C 0.65241 0.64618 0.13217 0.0
N384 N 0.63832 0.67814 0.10383 0.0
N385 N 0.62234 0.65688 0.10067 0.0
C386 C 0.6767 0.69314 0.13328 0.0
H387 H 0.69506 0.69246 0.12031 0.0
H388 H 0.68251 0.68906 0.15467 0.0
H389 H 0.66807 0.71385 0.1316 0.0
C390 C 0.69049 0.72332 0.02147 0.0
N391 N 0.67201 0.72957 0.04081 0.0
N392 N 0.66984 0.70923 0.05789 0.0
C393 C 0.68704 0.68925 0.04966 0.0
C394 C 0.70074 0.69744 0.02612 0.0
C395 C 0.69606 0.7407 0.99722 0.0
H396 H 0.67769 0.74136 0.98416 0.0
H397 H 0.70065 0.76165 1.00399 0.0
H398 H 0.71343 0.73294 0.98523 0.0
O399 O 0.61121 0.73453 0.0243 0.0
O400 O 0.60639 0.70328 0.05662 0.0
H401 H 0.69855 0.64686 0.04807 0.0
H402 H 0.69563 0.66119 0.08157 0.0
C403 C 0.68674 0.66107 0.0609 0.0
H404 H 0.66552 0.65374 0.06236 0.0
H405 H 0.60679 0.65562 0.08631 0.0
O406 O 0.65247 0.78266 0.01188 0.0
C407 C 0.59862 0.71454 0.03475 0.0
Co408 Co 0.55262 0.89202 0.78593 0.0
Co409 Co 0.58284 0.91066 0.83759 0.0
C410 C 0.60728 0.91637 0.78002 0.0
O411 O 0.58872 0.90204 0.76891 0.0
O412 O 0.60708 0.92019 0.80564 0.0
C413 C 0.52919 0.8699 0.73458 0.0
O414 O 0.55334 0.86793 0.7235 0.0
C415 C 0.62066 0.90136 0.88253 0.0
C416 C 0.61454 0.93831 0.9071 0.0
C417 C 0.62822 0.9137 0.90696 0.0
N418 N 0.603 0.91765 0.86971 0.0
N419 N 0.59996 0.93999 0.88411 0.0
C420 C 0.62836 0.87404 0.87172 0.0
H421 H 0.61638 0.8691 0.85328 0.0
H422 H 0.62501 0.85813 0.88727 0.0
H423 H 0.65016 0.87414 0.86612 0.0
C424 C 0.53181 0.84972 0.82329 0.0
N425 N 0.55114 0.86829 0.81693 0.0
N426 N 0.56297 0.87667 0.83935 0.0
C427 C 0.551 0.86408 0.86075 0.0
C428 C 0.53066 0.84639 0.85146 0.0
C429 C 0.5109 0.84013 0.8034 0.0
H430 H 0.49707 0.85719 0.79858 0.0
H431 H 0.52099 0.83352 0.78442 0.0
H432 H 0.4986 0.82317 0.81145 0.0
O433 O 0.53655 0.92721 0.79661 0.0
O434 O 0.55549 0.9385 0.83593 0.0
H435 H 0.55281 0.89383 0.8924 0.0
H436 H 0.54364 0.86013 0.90413 0.0
C437 C 0.55631 0.87177 0.88971 0.0
H438 H 0.57773 0.86758 0.89479 0.0
H439 H 0.58712 0.95594 0.87875 0.0
O440 O 0.52681 0.87885 0.75859 0.0
C441 C 0.53883 0.94316 0.81681 0.0
Co442 Co 0.49242 0.14443 0.78658 0.0
Co443 Co 0.45642 0.13542 0.83638 0.0
C444 C 0.43746 0.12297 0.77779 0.0
O445 O 0.45724 0.13595 0.76734 0.0
O446 O 0.43517 0.12159 0.80354 0.0
C447 C 0.51664 0.1673 0.73797 0.0
O448 O 0.49266 0.17737 0.73209 0.0
C449 C 0.41375 0.15451 0.87192 0.0
C450 C 0.42039 0.12945 0.90843 0.0
C451 C 0.40576 0.15152 0.89884 0.0
N452 N 0.43289 0.13598 0.86658 0.0
N453 N 0.43618 0.12047 0.88815 0.0
C454 C 0.4043 0.17483 0.85142 0.0
H455 H 0.40368 0.16531 0.831 0.0
H456 H 0.41899 0.19185 0.85039 0.0
H457 H 0.38389 0.18274 0.85668 0.0
C458 C 0.51459 0.18868 0.82095 0.0
N459 N 0.49392 0.17168 0.81429 0.0
N460 N 0.47819 0.16829 0.83549 0.0
C461 C 0.48832 0.1833 0.85631 0.0
C462 C 0.51203 0.19674 0.84806 0.0
C463 C 0.53934 0.19207 0.80367 0.0
H464 H 0.5484 0.17188 0.79968 0.0
H465 H 0.5334 0.20108 0.78391 0.0
H466 H 0.55493 0.20506 0.81334 0.0
O467 O 0.50349 0.1095 0.803 0.0
O468 O 0.48192 0.10627 0.84258 0.0
H469 H 0.47944 0.16147 0.89279 0.0
H470 H 0.48762 0.19692 0.89824 0.0
C471 C 0.4773 0.18231 0.8846 0.0
H472 H 0.45549 0.18753 0.88426 0.0
H473 H 0.45043 0.1049 0.8896 0.0
O474 O 0.51977 0.15302 0.75918 0.0
C475 C 0.49876 0.09731 0.82532 0.0
Co476 Co 0.55215 0.14107 0.2576 0.0
Co477 Co 0.59005 0.13212 0.20851 0.0
C478 C 0.60829 0.11803 0.26625 0.0
O479 O 0.58609 0.12736 0.27565 0.0
O480 O 0.61329 0.11986 0.24086 0.0
C481 C 0.5314 0.1631 0.30828 0.0
O482 O 0.55655 0.16921 0.31477 0.0
C483 C 0.62842 0.15103 0.16745 0.0
C484 C 0.6239 0.11956 0.13586 0.0
C485 C 0.63614 0.14433 0.14112 0.0
N486 N 0.61184 0.13156 0.17675 0.0
N487 N 0.60975 0.11247 0.15806 0.0
C488 C 0.6369 0.17503 0.18404 0.0
H489 H 0.62099 0.19088 0.18317 0.0
H490 H 0.65631 0.18361 0.17648 0.0
H491 H 0.63913 0.16896 0.20562 0.0
C492 C 0.53549 0.18922 0.22693 0.0
N493 N 0.55437 0.16986 0.23186 0.0
N494 N 0.56804 0.165 0.20949 0.0
C495 C 0.55713 0.18033 0.18923 0.0
C496 C 0.53627 0.19653 0.19966 0.0
C497 C 0.51347 0.19656 0.24649 0.0
H498 H 0.49972 0.17893 0.24911 0.0
H499 H 0.52255 0.20164 0.26645 0.0
H500 H 0.50129 0.21403 0.23928 0.0
O501 O 0.53589 0.10952 0.23852 0.0
O502 O 0.56436 0.10281 0.20413 0.0
H503 H 0.56653 0.15468 0.15532 0.0
H504 H 0.54722 0.18465 0.14656 0.0
C505 C 0.56352 0.1765 0.15978 0.0
H506 H 0.58251 0.18743 0.15484 0.0
H507 H 0.59758 0.09525 0.15991 0.0
O508 O 0.52634 0.1512 0.28598 0.0
C509 C 0.54338 0.09635 0.21757 0.0
Co510 Co 0.49292 0.9008 0.24676 0.0
Co511 Co 0.45565 0.90599 0.19669 0.0
C512 C 0.43514 0.92117 0.25295 0.0
O513 O 0.45787 0.91471 0.26362 0.0
O514 O 0.43099 0.91668 0.22777 0.0
C515 C 0.51472 0.87878 0.29717 0.0
O516 O 0.49049 0.86881 0.30211 0.0
C517 C 0.41446 0.88653 0.15942 0.0
C518 C 0.42341 0.91004 0.12238 0.0
C519 C 0.40726 0.88916 0.1322 0.0
N520 N 0.43436 0.90428 0.16483 0.0
N521 N 0.43919 0.91877 0.14286 0.0
C522 C 0.40317 0.86771 0.18038 0.0
H523 H 0.41582 0.84912 0.18131 0.0
H524 H 0.38185 0.86216 0.17557 0.0
H525 H 0.40404 0.87738 0.20069 0.0
C526 C 0.51271 0.85252 0.21688 0.0
N527 N 0.49301 0.8712 0.22139 0.0
N528 N 0.47845 0.87404 0.1992 0.0
C529 C 0.48884 0.85751 0.17972 0.0
C530 C 0.51101 0.84315 0.19019 0.0
C531 C 0.5359 0.84766 0.23594 0.0
H532 H 0.54714 0.86691 0.2391 0.0
H533 H 0.52789 0.84087 0.25582 0.0
H534 H 0.5502 0.8322 0.22812 0.0
O535 O 0.50801 0.93224 0.22733 0.0
O536 O 0.47961 0.93712 0.1924 0.0
H537 H 0.48155 0.87864 0.14252 0.0
H538 H 0.49185 0.84367 0.13806 0.0
C539 C 0.47977 0.85777 0.15073 0.0
H540 H 0.45815 0.85167 0.14961 0.0
H541 H 0.45415 0.93369 0.14149 0.0
O542 O 0.51876 0.89268 0.27587 0.0
C543 C 0.50014 0.94466 0.20608 0.0
Co544 Co 0.78672 0.55398 0.88989 0.0
Co545 Co 0.83895 0.5822 0.90895 0.0
C546 C 0.7817 0.60834 0.91389 0.0
O547 O 0.77027 0.59044 0.89897 0.0
O548 O 0.80724 0.60715 0.91838 0.0
C549 C 0.73712 0.52908 0.86466 0.0
O550 O 0.72635 0.55266 0.85858 0.0
C551 C 0.88098 0.62172 0.89949 0.0
C552 C 0.91332 0.60873 0.92773 0.0
C553 C 0.90783 0.62672 0.90677 0.0
N554 N 0.87165 0.60129 0.9147 0.0
N555 N 0.89073 0.59405 0.9321 0.0
C556 C 0.86409 0.63542 0.87825 0.0
H557 H 0.84289 0.63745 0.88553 0.0
H558 H 0.86352 0.62263 0.85972 0.0
H559 H 0.87235 0.65574 0.87321 0.0
C560 C 0.82305 0.53472 0.84546 0.0
N561 N 0.81752 0.55212 0.86604 0.0
N562 N 0.84031 0.5629 0.8747 0.0
C563 C 0.86119 0.552 0.86036 0.0
C564 C 0.85105 0.5336 0.84116 0.0
C565 C 0.80238 0.51607 0.83331 0.0
H566 H 0.79755 0.49998 0.84823 0.0
H567 H 0.78356 0.5275 0.8287 0.0
H568 H 0.80982 0.50625 0.81453 0.0
O569 O 0.79656 0.53878 0.92595 0.0
O570 O 0.83694 0.55532 0.93703 0.0
H571 H 0.89441 0.55307 0.88836 0.0
H572 H 0.90412 0.54485 0.85382 0.0
C573 C 0.89045 0.55731 0.8666 0.0
H574 H 0.89496 0.57901 0.86294 0.0
H575 H 0.88886 0.57811 0.94589 0.0
O576 O 0.75979 0.52792 0.87683 0.0
C577 C 0.81668 0.5403 0.94216 0.0
Co578 Co 0.23762 0.48738 0.91653 0.0
Co579 Co 0.19781 0.43968 0.91306 0.0
C580 C 0.25576 0.43089 0.93271 0.0
O581 O 0.26085 0.4558 0.92813 0.0
O582 O 0.23253 0.42119 0.92647 0.0
C583 C 0.28286 0.51815 0.89885 0.0
O584 O 0.28949 0.49588 0.88583 0.0
C585 C 0.16981 0.39546 0.88547 0.0
C586 C 0.13183 0.39337 0.90904 0.0
C587 C 0.14423 0.38335 0.88584 0.0
N588 N 0.17157 0.4125 0.90661 0.0
N589 N 0.1492 0.4105 0.92114 0.0
C590 C 0.19259 0.39113 0.86586 0.0
H591 H 0.19263 0.40751 0.85045 0.0
H592 H 0.19068 0.37118 0.8556 0.0
H593 H 0.2123 0.39224 0.87678 0.0
C594 C 0.20882 0.50608 0.86774 0.0
N595 N 0.2162 0.4854 0.88434 0.0
N596 N 0.19795 0.466 0.88303 0.0
C597 C 0.17812 0.47407 0.86548 0.0
C598 C 0.18431 0.49985 0.85493 0.0
C599 C 0.22145 0.53371 0.86916 0.0
H600 H 0.24264 0.53258 0.86174 0.0
H601 H 0.21034 0.54893 0.85692 0.0
H602 H 0.22174 0.54075 0.89053 0.0
O603 O 0.21231 0.49467 0.9465 0.0
O604 O 0.18457 0.45906 0.94499 0.0
H605 H 0.14181 0.45642 0.88155 0.0
H606 H 0.1381 0.46962 0.84737 0.0
C607 C 0.15194 0.45909 0.86164 0.0
H608 H 0.15616 0.43876 0.85323 0.0
H609 H 0.1451 0.42203 0.9384 0.0
O610 O 0.2618 0.51848 0.91361 0.0
C611 C 0.19218 0.48125 0.95561 0.0
Co612 Co 0.78352 0.49364 0.14621 0.0
Co613 Co 0.83534 0.4617 0.13318 0.0
C614 C 0.77726 0.43905 0.12305 0.0
O615 O 0.76615 0.45795 0.13675 0.0
O616 O 0.80308 0.43842 0.12048 0.0
C617 C 0.7329 0.51558 0.1687 0.0
O618 O 0.72548 0.49086 0.17527 0.0
C619 C 0.87593 0.42115 0.14716 0.0
C620 C 0.90814 0.42967 0.1172 0.0
C621 C 0.90213 0.41374 0.13959 0.0
N622 N 0.86743 0.44085 0.13046 0.0
N623 N 0.8865 0.44548 0.11224 0.0
C624 C 0.85861 0.40977 0.16933 0.0
H625 H 0.86072 0.42252 0.18777 0.0
H626 H 0.86459 0.38863 0.17418 0.0
H627 H 0.83693 0.41036 0.16315 0.0
C628 C 0.8171 0.51316 0.19255 0.0
N629 N 0.81201 0.49461 0.17285 0.0
N630 N 0.83464 0.48187 0.16691 0.0
C631 C 0.85505 0.49266 0.18209 0.0
C632 C 0.84467 0.51288 0.19908 0.0
C633 C 0.79696 0.53395 0.20159 0.0
H634 H 0.79296 0.54822 0.18464 0.0
H635 H 0.77759 0.52384 0.20696 0.0
H636 H 0.80449 0.54563 0.21932 0.0
O637 O 0.7977 0.50789 0.11109 0.0
O638 O 0.83816 0.48875 0.10538 0.0
H639 H 0.88931 0.48788 0.15588 0.0
H640 H 0.89779 0.50011 0.18957 0.0
C641 C 0.88442 0.48632 0.17779 0.0
H642 H 0.88845 0.46517 0.18424 0.0
H643 H 0.88515 0.46015 0.09703 0.0
O644 O 0.75543 0.51955 0.15687 0.0
C645 C 0.81983 0.50517 0.098 0.0
Co646 Co 0.23757 0.54633 0.13251 0.0
Co647 Co 0.19761 0.59414 0.13473 0.0
C648 C 0.25604 0.60224 0.11548 0.0
O649 O 0.26128 0.57746 0.12065 0.0
O650 O 0.23267 0.6119 0.12114 0.0
C651 C 0.28204 0.51257 0.14871 0.0
O652 O 0.29086 0.53396 0.16195 0.0
C653 C 0.16826 0.6392 0.16026 0.0
C654 C 0.13376 0.64348 0.1319 0.0
C655 C 0.14389 0.65317 0.15636 0.0
N656 N 0.17148 0.6218 0.13958 0.0
N657 N 0.15117 0.62495 0.12238 0.0
C658 C 0.18909 0.64274 0.18214 0.0
H659 H 0.20948 0.63722 0.17433 0.0
H660 H 0.18452 0.62899 0.19931 0.0
H661 H 0.18933 0.664 0.18953 0.0
C662 C 0.21002 0.52992 0.18299 0.0
N663 N 0.21643 0.5495 0.16479 0.0
N664 N 0.19782 0.56861 0.1654 0.0
C665 C 0.17862 0.56124 0.18388 0.0
C666 C 0.18568 0.53633 0.19573 0.0
C667 C 0.22573 0.5042 0.18654 0.0
H668 H 0.22441 0.49194 0.16771 0.0
H669 H 0.24729 0.50919 0.19051 0.0
H670 H 0.21817 0.49201 0.20385 0.0
O671 O 0.21209 0.53885 0.10256 0.0
O672 O 0.18417 0.57415 0.10336 0.0
H673 H 0.14489 0.58281 0.16657 0.0
H674 H 0.13604 0.56066 0.19447 0.0
C675 C 0.1516 0.57485 0.18652 0.0
H676 H 0.1534 0.59207 0.20086 0.0
H677 H 0.14861 0.6137 0.10462 0.0
O678 O 0.26028 0.51409 0.13501 0.0
C679 C 0.19186 0.55187 0.09315 0.0
Co680 Co 0.91007 0.79144 0.54582 0.0
Co681 Co 0.91219 0.83419 0.591 0.0
C682 C 0.92916 0.77593 0.60234 0.0
O683 O 0.92276 0.76944 0.57809 0.0
O684 O 0.92466 0.79998 0.61077 0.0
C685 C 0.89202 0.74409 0.51654 0.0
O686 O 0.88281 0.73494 0.53981 0.0
C687 C 0.88832 0.86532 0.63476 0.0
C688 C 0.91386 0.90211 0.63455 0.0
C689 C 0.89051 0.89119 0.64595 0.0
N690 N 0.90865 0.86193 0.61706 0.0
N691 N 0.92434 0.88361 0.61758 0.0
C692 C 0.86787 0.84365 0.64063 0.0
H693 H 0.8513 0.84446 0.62538 0.0
H694 H 0.85925 0.84612 0.66128 0.0
H695 H 0.87754 0.82341 0.63886 0.0
C696 C 0.86078 0.82114 0.52944 0.0
N697 N 0.87931 0.81463 0.54875 0.0
N698 N 0.88033 0.83402 0.56702 0.0
C699 C 0.86235 0.85367 0.55957 0.0
C700 C 0.84925 0.84617 0.53541 0.0
C701 C 0.85652 0.80528 0.50389 0.0
H702 H 0.85218 0.78386 0.50906 0.0
H703 H 0.83939 0.8134 0.49172 0.0
H704 H 0.87532 0.80594 0.49154 0.0
O705 O 0.94089 0.81448 0.53513 0.0
O706 O 0.94347 0.8444 0.56885 0.0
H707 H 0.85081 0.89601 0.55883 0.0
H708 H 0.8499 0.88003 0.59162 0.0
C709 C 0.86122 0.88122 0.57225 0.0
H710 H 0.88205 0.88851 0.57668 0.0
H711 H 0.94127 0.88643 0.6052 0.0
O712 O 0.90414 0.76676 0.51556 0.0
C713 C 0.95206 0.83477 0.54656 0.0
Co714 Co 0.89957 0.25332 0.49943 0.0
Co715 Co 0.90982 0.20555 0.46038 0.0
C716 C 0.92385 0.26272 0.44305 0.0
O717 O 0.91509 0.27112 0.46588 0.0
O718 O 0.92145 0.23769 0.43689 0.0
C719 C 0.8785 0.30508 0.51423 0.0
O720 O 0.87742 0.30911 0.4879 0.0
C721 C 0.89682 0.16546 0.41888 0.0
C722 C 0.9263 0.13305 0.42824 0.0
C723 C 0.9044 0.13926 0.41166 0.0
N724 N 0.91295 0.17376 0.43917 0.0
N725 N 0.93098 0.15461 0.44423 0.0
C726 C 0.87506 0.18284 0.40671 0.0
H727 H 0.88199 0.20425 0.40607 0.0
H728 H 0.8567 0.18216 0.41967 0.0
H729 H 0.86977 0.17589 0.38593 0.0
C730 C 0.85173 0.22112 0.51438 0.0
N731 N 0.87123 0.22702 0.49595 0.0
N732 N 0.87602 0.20551 0.48094 0.0
C733 C 0.86016 0.18487 0.4902 0.0
C734 C 0.84397 0.19406 0.51171 0.0
C735 C 0.84477 0.2394 0.5376 0.0
H736 H 0.86304 0.24235 0.55048 0.0
H737 H 0.83853 0.25949 0.52964 0.0
H738 H 0.82822 0.23101 0.55031 0.0
O739 O 0.93056 0.235 0.51749 0.0
O740 O 0.93817 0.20234 0.48735 0.0
H741 H 0.8848 0.14989 0.48304 0.0
H742 H 0.85042 0.14212 0.49353 0.0
C743 C 0.8632 0.15602 0.48133 0.0
H744 H 0.85714 0.15416 0.45976 0.0
H745 H 0.94576 0.15578 0.45939 0.0
O746 O 0.88724 0.28265 0.52337 0.0
C747 C 0.94415 0.21464 0.50918 0.0
Co748 Co 0.14593 0.78759 0.4961 0.0
Co749 Co 0.13827 0.83515 0.45684 0.0
C750 C 0.12146 0.77772 0.44057 0.0
O751 O 0.13082 0.76862 0.46293 0.0
O752 O 0.12413 0.80284 0.43492 0.0
C753 C 0.16978 0.73865 0.51736 0.0
O754 O 0.17799 0.73368 0.49251 0.0
C755 C 0.15788 0.86948 0.41376 0.0
C756 C 0.13348 0.9066 0.4192 0.0
C757 C 0.15515 0.89604 0.40462 0.0
N758 N 0.13946 0.86519 0.43325 0.0
N759 N 0.12442 0.88714 0.43597 0.0
C760 C 0.17741 0.84811 0.40469 0.0
H761 H 0.19534 0.84801 0.41837 0.0
H762 H 0.18408 0.85176 0.3835 0.0
H763 H 0.16775 0.82783 0.40618 0.0
C764 C 0.196 0.8171 0.5109 0.0
N765 N 0.17586 0.81199 0.49278 0.0
N766 N 0.17203 0.83353 0.47758 0.0
C767 C 0.18924 0.85334 0.48626 0.0
C768 C 0.20528 0.84357 0.50762 0.0
C769 C 0.20273 0.79895 0.5343 0.0
H770 H 0.18454 0.79654 0.54732 0.0
H771 H 0.20865 0.77872 0.52654 0.0
H772 H 0.21957 0.80718 0.54682 0.0
O773 O 0.11552 0.80847 0.51226 0.0
O774 O 0.10975 0.84239 0.483 0.0
H775 H 0.16636 0.88914 0.47729 0.0
H776 H 0.2003 0.89571 0.48998 0.0
C777 C 0.18777 0.88219 0.47702 0.0
H778 H 0.19524 0.88359 0.45586 0.0
H779 H 0.10896 0.88933 0.45026 0.0
O780 O 0.1558 0.75968 0.5223 0.0
C781 C 0.1032 0.82986 0.50455 0.0
Co782 Co 0.13771 0.24331 0.54839 0.0
Co783 Co 0.13787 0.19609 0.5891 0.0
C784 C 0.11995 0.25316 0.60591 0.0
O785 O 0.1253 0.26274 0.58247 0.0
O786 O 0.12567 0.22848 0.61132 0.0
C787 C 0.15456 0.29132 0.5183 0.0
O788 O 0.168 0.29943 0.53988 0.0
C789 C 0.16243 0.16301 0.63134 0.0
C790 C 0.1376 0.12579 0.62894 0.0
C791 C 0.16017 0.13683 0.64176 0.0
N792 N 0.1427 0.16659 0.61292 0.0
N793 N 0.12753 0.14456 0.61199 0.0
C794 C 0.18227 0.18482 0.63866 0.0
H795 H 0.19997 0.18382 0.62481 0.0
H796 H 0.18927 0.18254 0.65996 0.0
H797 H 0.17275 0.20503 0.63593 0.0
C798 C 0.1878 0.21618 0.52871 0.0
N799 N 0.16921 0.2204 0.54856 0.0
N800 N 0.16843 0.19901 0.56443 0.0
C801 C 0.18605 0.18021 0.55461 0.0
C802 C 0.19917 0.19048 0.53164 0.0
C803 C 0.19126 0.23428 0.5046 0.0
H804 H 0.17184 0.23541 0.49322 0.0
H805 H 0.19671 0.25494 0.51158 0.0
H806 H 0.20731 0.22684 0.49072 0.0
O807 O 0.10659 0.22063 0.53761 0.0
O808 O 0.10598 0.18705 0.56769 0.0
H809 H 0.16704 0.1431 0.56673 0.0
H810 H 0.20018 0.13874 0.55136 0.0
C811 C 0.18776 0.15172 0.56489 0.0
H812 H 0.1971 0.15178 0.58538 0.0
H813 H 0.11097 0.14193 0.59902 0.0
O814 O 0.14107 0.26944 0.519 0.0
C815 C 0.0962 0.19904 0.54714 0.0
H816 H 0.13141 0.34506 0.4065 0.0
H817 H 0.16925 0.4137 0.44545 0.0
H818 H 0.18086 0.3853 0.48457 0.0
H819 H 0.17455 0.34236 0.50972 0.0
H820 H 0.13569 0.27486 0.46934 0.0
H821 H 0.13089 0.30144 0.42826 0.0
C822 C 0.14339 0.35371 0.42273 0.0
C823 C 0.14982 0.3814 0.42278 0.0
C824 C 0.14936 0.33754 0.44519 0.0
C825 C 0.16422 0.39232 0.4449 0.0
C826 C 0.17068 0.37616 0.46732 0.0
C827 C 0.1654 0.33341 0.4918 0.0
C828 C 0.15493 0.30692 0.49282 0.0
C829 C 0.16241 0.34895 0.46809 0.0
C830 C 0.1434 0.29543 0.46934 0.0
C831 C 0.14071 0.31056 0.44574 0.0
H832 H 0.90857 0.69146 0.40367 0.0
H833 H 0.89003 0.6186 0.44832 0.0
H834 H 0.8782 0.64595 0.48807 0.0
H835 H 0.87969 0.69032 0.51147 0.0
H836 H 0.89897 0.76217 0.46519 0.0
H837 H 0.90286 0.73528 0.42415 0.0
C838 C 0.90052 0.68137 0.42136 0.0
C839 C 0.89972 0.65297 0.42274 0.0
C840 C 0.89428 0.69708 0.44404 0.0
C841 C 0.89065 0.6405 0.44672 0.0
C842 C 0.88404 0.6561 0.46947 0.0
C843 C 0.88421 0.70009 0.49228 0.0
C844 C 0.8897 0.72804 0.49147 0.0
C845 C 0.88682 0.6844 0.46864 0.0
C846 C 0.89527 0.74055 0.46647 0.0
C847 C 0.89745 0.72523 0.44295 0.0
H848 H 0.17203 0.64132 0.59808 0.0
H849 H 0.14837 0.70615 0.65213 0.0
H850 H 0.16007 0.73924 0.61828 0.0
H851 H 0.16724 0.74952 0.57071 0.0
H852 H 0.18507 0.68528 0.51407 0.0
H853 H 0.18532 0.65238 0.55131 0.0
C854 C 0.17008 0.66273 0.6027 0.0
C855 C 0.15933 0.67092 0.62787 0.0
C856 C 0.17504 0.68186 0.58227 0.0
C857 C 0.15712 0.69879 0.63353 0.0
C858 C 0.16334 0.71797 0.61379 0.0
C859 C 0.17155 0.72836 0.56652 0.0
C860 C 0.17533 0.71962 0.53968 0.0
C861 C 0.17078 0.70962 0.58772 0.0
C862 C 0.18168 0.69236 0.53459 0.0
C863 C 0.18174 0.67358 0.55584 0.0
H864 H 0.89477 0.40619 0.58703 0.0
H865 H 0.86549 0.35067 0.64811 0.0
H866 H 0.85451 0.31768 0.61312 0.0
H867 H 0.86063 0.30196 0.56596 0.0
H868 H 0.8874 0.35862 0.50493 0.0
H869 H 0.89113 0.39422 0.5392 0.0
C870 C 0.88552 0.38712 0.59289 0.0
C871 C 0.88315 0.38012 0.62051 0.0
C872 C 0.87882 0.36842 0.5726 0.0
C873 C 0.86988 0.35582 0.62732 0.0
C874 C 0.86311 0.33702 0.6072 0.0
C875 C 0.8667 0.32229 0.56015 0.0
C876 C 0.87435 0.32764 0.53323 0.0
C877 C 0.86893 0.34257 0.57993 0.0
C878 C 0.88161 0.35407 0.52564 0.0
C879 C 0.8839 0.37436 0.54523 0.0
H880 H 0.47819 0.16388 0.296 0.0
H881 H 0.53395 0.17366 0.36293 0.0
H882 H 0.49589 0.17303 0.39486 0.0
H883 H 0.44807 0.16156 0.40368 0.0
H884 H 0.39454 0.1463 0.33573 0.0
H885 H 0.43001 0.1584 0.30451 0.0
C886 C 0.48204 0.16626 0.31756 0.0
C887 C 0.50882 0.16807 0.32721 0.0
C888 C 0.4603 0.16507 0.33568 0.0
C889 C 0.51348 0.17186 0.35508 0.0
C890 C 0.49174 0.17141 0.37331 0.0
C891 C 0.44397 0.16156 0.38204 0.0
C892 C 0.41837 0.15313 0.37238 0.0
C893 C 0.46521 0.16681 0.36386 0.0
C894 C 0.41343 0.15333 0.34425 0.0
C895 C 0.43408 0.15976 0.3261 0.0
H896 H 0.5974 0.87378 0.39416 0.0
H897 H 0.64968 0.9044 0.33079 0.0
H898 H 0.61501 0.89586 0.29742 0.0
H899 H 0.56771 0.88712 0.28695 0.0
H900 H 0.51289 0.86108 0.34999 0.0
H901 H 0.55049 0.86065 0.38264 0.0
C902 C 0.60143 0.87803 0.37295 0.0
C903 C 0.62653 0.8894 0.36528 0.0
C904 C 0.58059 0.87459 0.35378 0.0
C905 C 0.63128 0.89483 0.33766 0.0
C906 C 0.61107 0.89046 0.31837 0.0
C907 C 0.56395 0.88111 0.30779 0.0
C908 C 0.53748 0.87475 0.31623 0.0
C909 C 0.58537 0.88148 0.3264 0.0
C910 C 0.53307 0.86638 0.3431 0.0
C911 C 0.55454 0.86618 0.36176 0.0
H912 H 0.5242 0.86558 0.67939 0.0
H913 H 0.47759 0.867 0.75353 0.0
H914 H 0.43607 0.8736 0.72786 0.0
H915 H 0.41514 0.88835 0.68609 0.0
H916 H 0.46018 0.88635 0.61107 0.0
H917 H 0.50031 0.87066 0.63555 0.0
C918 C 0.50488 0.86659 0.68985 0.0
C919 C 0.50414 0.86665 0.71836 0.0
C920 C 0.48088 0.87079 0.67493 0.0
C921 C 0.47887 0.86756 0.7316 0.0
C922 C 0.45504 0.87139 0.71695 0.0
C923 C 0.43302 0.88325 0.67459 0.0
C924 C 0.4344 0.88874 0.64666 0.0
C925 C 0.45602 0.87441 0.68875 0.0
C926 C 0.45855 0.88262 0.63267 0.0
C927 C 0.48158 0.87371 0.64666 0.0
H928 H 0.56934 0.16023 0.75029 0.0
H929 H 0.516 0.18183 0.68421 0.0
H930 H 0.55405 0.17886 0.65238 0.0
H931 H 0.60045 0.16289 0.64282 0.0
H932 H 0.65112 0.13662 0.70951 0.0
H933 H 0.61659 0.14962 0.7415 0.0
C934 C 0.56606 0.16464 0.72896 0.0
C935 C 0.53985 0.17057 0.71945 0.0
C936 C 0.5877 0.1622 0.71086 0.0
C937 C 0.536 0.1769 0.69193 0.0
C938 C 0.55771 0.17511 0.67374 0.0
C939 C 0.60417 0.16064 0.66441 0.0
C940 C 0.62869 0.14908 0.67351 0.0
C941 C 0.58339 0.16669 0.68287 0.0
C942 C 0.63313 0.14623 0.70158 0.0
C943 C 0.613 0.15319 0.72008 0.0
H944 H 0.32729 0.50034 0.1783 0.0
H945 H 0.26793 0.46556 0.12373 0.0
H946 H 0.29215 0.42273 0.1241 0.0
H947 H 0.3326 0.39743 0.13502 0.0
H948 H 0.39346 0.4314 0.18807 0.0
H949 H 0.36587 0.47232 0.1936 0.0
C950 C 0.31958 0.48331 0.16668 0.0
C951 C 0.29615 0.48632 0.15063 0.0
C952 C 0.33372 0.45862 0.16682 0.0
C953 C 0.28616 0.46397 0.13596 0.0
C954 C 0.29991 0.43938 0.13622 0.0
C955 C 0.33942 0.41309 0.14878 0.0
C956 C 0.3649 0.41119 0.1614 0.0
C957 C 0.32401 0.43672 0.15104 0.0
C958 C 0.37375 0.43237 0.17832 0.0
C959 C 0.35814 0.45584 0.18125 0.0
H960 H 0.3409 0.62944 0.91206 0.0
H961 H 0.40859 0.58386 0.88071 0.0
H962 H 0.37852 0.54526 0.87184 0.0
H963 H 0.3343 0.52286 0.87919 0.0
H964 H 0.26799 0.56911 0.9129 0.0
H965 H 0.29627 0.60948 0.91413 0.0
C966 C 0.34902 0.61167 0.90212 0.0
C967 C 0.37688 0.60969 0.89665 0.0
C968 C 0.33192 0.58948 0.89803 0.0
C969 C 0.3871 0.58587 0.88488 0.0
C970 C 0.36998 0.56377 0.88002 0.0
C971 C 0.32599 0.54189 0.88641 0.0
C972 C 0.29933 0.5429 0.89646 0.0
C973 C 0.34254 0.56503 0.88753 0.0
C974 C 0.28867 0.56769 0.90558 0.0
C975 C 0.30477 0.59082 0.9062 0.0
H976 H 0.68261 0.52221 0.8565 0.0
H977 H 0.75787 0.47825 0.86537 0.0
H978 H 0.73319 0.43628 0.87189 0.0
H979 H 0.69126 0.4148 0.88537 0.0
H980 H 0.61528 0.45754 0.87744 0.0
H981 H 0.63928 0.49726 0.8602 0.0
C982 C 0.69355 0.50331 0.85905 0.0
C983 C 0.72198 0.50351 0.86121 0.0
C984 C 0.67916 0.4791 0.86348 0.0
C985 C 0.73594 0.47881 0.8642 0.0
C986 C 0.72185 0.45471 0.86801 0.0
C987 C 0.6796 0.43206 0.8786 0.0
C988 C 0.65149 0.43312 0.88291 0.0
C989 C 0.69351 0.45492 0.86919 0.0
C990 C 0.63705 0.45631 0.8746 0.0
C991 C 0.65076 0.4791 0.86485 0.0
H992 H 0.63884 0.59978 0.15803 0.0
H993 H 0.70785 0.65057 0.13932 0.0
H994 H 0.73837 0.61583 0.15509 0.0
H995 H 0.74603 0.56842 0.16554 0.0
H996 H 0.67804 0.51483 0.17865 0.0
H997 H 0.64672 0.55309 0.17385 0.0
C998 C 0.66055 0.60348 0.158 0.0
C999 C 0.67075 0.6281 0.14771 0.0
C1000 C 0.67831 0.58255 0.16552 0.0
C1001 C 0.69897 0.6325 0.14782 0.0
C1002 C 0.71668 0.61226 0.15641 0.0
C1003 C 0.72436 0.56512 0.16776 0.0
C1004 C 0.71428 0.53877 0.17175 0.0
C1005 C 0.7066 0.58686 0.16401 0.0
C1006 C 0.68626 0.53491 0.17525 0.0
C1007 C 0.66837 0.55675 0.17237 0.0
H1008 H 1.00519 0.68285 0.65155 0.0
H1009 H 0.02473 0.74633 0.70827 0.0
H1010 H 0.99221 0.77664 0.68589 0.0
H1011 H 0.95853 0.7857 0.6494 0.0
H1012 H 0.93882 0.72194 0.59275 0.0
H1013 H 0.97042 0.69151 0.61581 0.0
C1014 C 1.00247 0.7034 0.65884 0.0
C1015 C 0.01782 0.71236 0.68143 0.0
C1016 C 0.98332 0.72075 0.64595 0.0
C1017 C 0.01351 0.73893 0.69084 0.0
C1018 C 0.99476 0.75628 0.67806 0.0
C1019 C 0.96075 0.76503 0.64229 0.0
C1020 C 0.94583 0.75637 0.61922 0.0
C1021 C 0.97947 0.74748 0.65556 0.0
C1022 C 0.94963 0.72944 0.61038 0.0
C1023 C 0.96796 0.71193 0.62353 0.0
H1024 H 0.03471 0.29575 0.69352 0.0
H1025 H 0.03182 0.36395 0.63903 0.0
H1026 H 0.06608 0.34271 0.61013 0.0
H1027 H 0.09691 0.30418 0.59968 0.0
H1028 H 0.1019 0.23749 0.65615 0.0
H1029 H 0.06788 0.25893 0.68489 0.0
C1030 C 0.04154 0.30596 0.67528 0.0
C1031 C 0.02981 0.33117 0.6682 0.0
C1032 C 0.06219 0.294 0.65914 0.0
C1033 C 0.03946 0.34415 0.64464 0.0
C1034 C 0.05947 0.33213 0.62822 0.0
C1035 C 0.09096 0.29447 0.61848 0.0
C1036 C 0.10239 0.26902 0.62546 0.0
C1037 C 0.07102 0.30699 0.63517 0.0
C1038 C 0.09389 0.25698 0.65 0.0
C1039 C 0.07413 0.2692 0.66649 0.0
H1040 H 0.95898 0.25085 0.40065 0.0
H1041 H 0.92734 0.31806 0.44679 0.0
H1042 H 0.95813 0.34897 0.4234 0.0
H1043 H 0.99543 0.35736 0.39048 0.0
H1044 H 0.0271 0.2905 0.34425 0.0
H1045 H 0.99543 0.25946 0.36681 0.0
C1046 C 0.95844 0.27231 0.40533 0.0
C1047 C 0.94039 0.28184 0.42559 0.0
C1048 C 0.97671 0.29023 0.39192 0.0
C1049 C 0.94065 0.30985 0.43138 0.0
C1050 C 0.95848 0.32767 0.41804 0.0
C1051 C 0.99555 0.33595 0.38553 0.0
C1052 C 0.01404 0.32629 0.36586 0.0
C1053 C 0.97691 0.31813 0.3985 0.0
C1054 C 0.01338 0.29851 0.35941 0.0
C1055 C 0.99513 0.28073 0.37229 0.0
H1056 H 0.08541 0.79185 0.39971 0.0
H1057 H 0.11649 0.72228 0.44268 0.0
H1058 H 0.08431 0.69298 0.41879 0.0
H1059 H 0.04611 0.68673 0.38611 0.0
H1060 H 0.0149 0.75624 0.34347 0.0
H1061 H 0.0478 0.78554 0.36665 0.0
C1062 C 0.0855 0.77023 0.40361 0.0
C1063 C 0.10387 0.75953 0.42305 0.0
C1064 C 0.06642 0.75331 0.38999 0.0
C1065 C 0.10299 0.73135 0.42787 0.0
C1066 C 0.08436 0.71448 0.41425 0.0
C1067 C 0.04635 0.70834 0.38211 0.0
C1068 C 0.02769 0.71922 0.36314 0.0
C1069 C 0.0657 0.72518 0.39546 0.0
C1070 C 0.02877 0.74726 0.35799 0.0
C1071 C 0.04773 0.76405 0.37122 0.0
H1072 H 0.62827 0.96671 0.79053 0.0
H1073 H 0.62803 0.90415 0.72947 0.0
H1074 H 0.65576 0.93293 0.69976 0.0
H1075 H 0.67944 0.97681 0.69044 0.0
H1076 H 0.6759 0.04046 0.75013 0.0
H1077 H 0.65035 0.01071 0.78073 0.0
C1078 C 0.63462 0.95912 0.77089 0.0
C1079 C 0.62639 0.93282 0.76265 0.0
C1080 C 0.64973 0.97629 0.75341 0.0
C1081 C 0.63424 0.92397 0.73666 0.0
C1082 C 0.65004 0.94056 0.71955 0.0
C1083 C 0.67304 0.98412 0.71017 0.0
C1084 C 0.6798 0.01092 0.71802 0.0
C1085 C 0.65777 0.96689 0.72757 0.0
C1086 C 0.67105 0.02007 0.74354 0.0
C1087 C 0.65648 1.00296 0.7611 0.0
H1088 H 0.42185 0.0706 0.78706 0.0
H1089 H 0.41563 0.13426 0.72756 0.0
H1090 H 0.39049 0.10371 0.69717 0.0
H1091 H 0.37053 0.05825 0.68706 0.0
H1092 H 0.38063 0.99367 0.74496 0.0
H1093 H 0.40409 0.02478 0.77605 0.0
C1094 C 0.41462 0.07795 0.76761 0.0
C1095 C 0.4201 0.10511 0.76001 0.0
C1096 C 0.40113 0.05981 0.7497 0.0
C1097 C 0.41139 0.11377 0.73423 0.0
C1098 C 0.3971 0.09618 0.71675 0.0
C1099 C 0.37801 0.051 0.70645 0.0
C1100 C 0.37369 0.02353 0.71367 0.0
C1101 C 0.39195 0.06906 0.72415 0.0
C1102 C 0.38369 0.01453 0.73882 0.0
C1103 C 0.39701 0.03243 0.75668 0.0
H1104 H 0.64768 0.0803 0.25258 0.0
H1105 H 0.60806 0.11614 0.32184 0.0
H1106 H 0.63121 0.08434 0.35196 0.0
H1107 H 0.66176 0.04481 0.35906 0.0
H1108 H 0.70161 0.00906 0.29018 0.0
H1109 H 0.67945 0.04178 0.25986 0.0
C1110 C 0.64444 0.08155 0.2743 0.0
C1111 C 0.62607 0.10107 0.28467 0.0
C1112 C 0.65763 0.06268 0.29174 0.0
C1113 C 0.62204 0.1017 0.313 0.0
C1114 C 0.63521 0.08329 0.33036 0.0
C1115 C 0.66539 0.0441 0.33738 0.0
C1116 C 0.68302 0.02411 0.32687 0.0
C1117 C 0.65276 0.06337 0.32001 0.0
C1118 C 0.6879 0.0239 0.29877 0.0
C1119 C 0.67529 0.04277 0.28143 0.0
H1120 H 0.34357 1.00259 0.29519 0.0
H1121 H 0.4007 0.01228 0.36079 0.0
H1122 H 0.43066 0.97863 0.34012 0.0
H1123 H 0.44139 0.94655 0.30279 0.0
H1124 H 0.38352 0.93588 0.23781 0.0
H1125 H 0.35324 0.96878 0.25904 0.0
C1126 C 0.36258 0.99732 0.30499 0.0
C1127 C 0.36993 0.01063 0.32939 0.0
C1128 C 0.37961 0.97728 0.29318 0.0
C1129 C 0.39466 1.00318 0.34171 0.0
C1130 C 0.41175 0.98359 0.33 0.0
C1131 C 0.42197 0.951 0.29343 0.0
C1132 C 0.41498 0.93827 0.26856 0.0
C1133 C 0.40454 0.97046 0.30567 0.0
C1134 C 0.38969 0.94494 0.25687 0.0
C1135 C 0.3723 0.96403 0.26898 0.0
H1136 H 0.69271 0.68245 0.97263 0.0
H1137 H 0.74973 0.67499 0.03856 0.0
H1138 H 0.78054 0.64913 1.00933 0.0
H1139 H 0.79118 0.62773 0.96514 0.0
H1140 H 0.73258 0.63151 0.9002 0.0
H1141 H 0.70288 0.65971 0.92849 0.0
C1142 C 0.71193 0.67519 0.98054 0.0
C1143 C 0.71893 0.68091 1.00787 0.0
C1144 C 0.72943 0.65975 0.9636 0.0
C1145 C 0.74378 0.67098 0.01776 0.0
C1146 C 0.76147 0.65623 1.00096 0.0
C1147 C 0.77211 0.63506 0.95694 0.0
C1148 C 0.76455 0.62781 0.93013 0.0
C1149 C 0.75457 0.65046 0.97381 0.0
C1150 C 0.73925 0.63693 0.92045 0.0
C1151 C 0.72214 0.653 0.93676 0.0
H1152 H 0.78651 0.41959 0.07166 0.0
H1153 H 0.7272 0.41807 0.1358 0.0
H1154 H 0.69622 0.39195 0.10683 0.0
H1155 H 0.68501 0.37063 0.06231 0.0
H1156 H 0.74285 0.37553 0.9971 0.0
H1157 H 0.77495 0.39921 0.02699 0.0
C1158 C 0.767 0.41312 0.07951 0.0
C1159 C 0.7596 0.42042 0.10632 0.0
C1160 C 0.74872 0.39893 0.06223 0.0
C1161 C 0.73375 0.41253 0.11558 0.0
C1162 C 0.7159 0.39767 0.09887 0.0
C1163 C 0.70468 0.37684 0.05468 0.0
C1164 C 0.71148 0.37111 0.02736 0.0
C1165 C 0.72298 0.39095 0.07202 0.0
C1166 C 0.73699 0.37964 0.01788 0.0
C1167 C 0.75543 0.39313 0.03507 0.0
H1168 H 0.35184 0.64867 0.04135 0.0
H1169 H 0.28857 0.70357 0.01655 0.0
H1170 H 0.25732 0.68284 0.04918 0.0
H1171 H 0.24724 0.64802 0.08418 0.0
H1172 H 0.31035 0.59238 0.1082 0.0
H1173 H 0.34198 0.61435 0.077 0.0
C1174 C 0.33113 0.65593 0.04291 0.0
C1175 C 0.32258 0.67759 0.02612 0.0
C1176 C 0.31313 0.64382 0.06193 0.0
C1177 C 0.29575 0.68694 0.02898 0.0
C1178 C 0.27784 0.67508 0.04776 0.0
C1179 C 0.26803 0.64095 0.083 0.0
C1180 C 0.2762 0.61851 0.09902 0.0
C1181 C 0.28621 0.65344 0.06438 0.0
C1182 C 0.30326 0.60957 0.09649 0.0
C1183 C 0.32145 0.62209 0.07843 0.0
H1184 H 0.24681 0.38478 0.96349 0.0
H1185 H 0.30994 0.44098 0.94087 0.0
H1186 H 0.34131 0.41898 0.9724 0.0
H1187 H 0.35103 0.38422 1.00775 0.0
H1188 H 0.28789 0.3285 0.03082 0.0
H1189 H 0.25672 0.34965 0.99827 0.0
C1190 C 0.26756 0.39198 0.96505 0.0
C1191 C 0.27581 0.41456 0.94931 0.0
C1192 C 0.28559 0.37946 0.98386 0.0
C1193 C 0.3028 0.42366 0.95234 0.0
C1194 C 0.32084 0.41113 0.97061 0.0
C1195 C 0.33033 0.37699 1.00593 0.0
C1196 C 0.32172 0.35503 0.02226 0.0
C1197 C 0.31244 0.38923 0.98681 0.0
C1198 C 0.29499 0.34553 0.0189 0.0
C1199 C 0.27717 0.35758 1.00011 0.0
H1200 H 0.66517 0.87156 0.91023 0.0
H1201 H 0.62122 0.92891 0.95964 0.0
H1202 H 0.63211 0.90285 1.00001 0.0
H1203 H 0.6457 0.85935 0.0199 0.0
H1204 H 0.68234 0.79842 0.96907 0.0
H1205 H 0.68179 0.82961 0.93052 0.0
C1206 C 0.65731 0.87813 0.92958 0.0
C1207 C 0.6408 0.90126 0.93139 0.0
C1208 C 0.66203 0.86207 0.95256 0.0
C1209 C 0.6333 0.91073 0.9573 0.0
C1210 C 0.63934 0.89573 0.98051 0.0
C1211 C 0.65412 0.8532 1.00052 0.0
C1212 C 0.66382 0.82671 0.9971 0.0
C1213 C 0.65239 0.87066 0.97817 0.0
C1214 C 0.67454 0.81874 0.97196 0.0
C1215 C 0.6742 0.83653 0.94996 0.0
H1216 H 0.3876 0.2489 0.97681 0.0
H1217 H 0.36696 0.18364 0.03132 0.0
H1218 H 0.36725 0.15163 0.99335 0.0
H1219 H 0.38016 0.1415 0.94619 0.0
H1220 H 0.40504 0.20717 0.8938 0.0
H1221 H 0.39519 0.23961 0.92899 0.0
C1222 C 0.38289 0.22771 0.98038 0.0
C1223 C 0.37792 0.21848 1.00686 0.0
C1224 C 0.38359 0.20947 0.95869 0.0
C1225 C 0.37119 0.19114 0.0111 0.0
C1226 C 0.37139 0.17284 0.98943 0.0
C1227 C 0.38273 0.16299 0.94227 0.0
C1228 C 0.39302 0.17165 0.91709 0.0
C1229 C 0.37854 0.18166 0.96331 0.0
C1230 C 0.39635 0.19959 0.91237 0.0
C1231 C 0.39124 0.21833 0.93285 0.0
H1232 H 0.6702 0.1991 0.03127 0.0
H1233 H 0.6324 0.26762 0.07063 0.0
H1234 H 0.62782 0.24178 0.11226 0.0
H1235 H 0.62937 0.19866 0.13557 0.0
H1236 H 0.66627 0.12926 0.09736 0.0
H1237 H 0.67641 0.15659 0.05715 0.0
C1238 C 0.66128 0.20844 0.04906 0.0
C1239 C 0.65123 0.23508 0.04762 0.0
C1240 C 0.65845 0.19334 0.07312 0.0
C1241 C 0.6399 0.24698 0.07095 0.0
C1242 C 0.63731 0.23226 0.09487 0.0
C1243 C 0.64069 0.18966 0.11909 0.0
C1244 C 0.64747 0.16205 0.11973 0.0
C1245 C 0.6459 0.20527 0.09597 0.0
C1246 C 0.66102 0.15058 0.09741 0.0
C1247 C 0.66667 0.16615 0.07437 0.0
H1248 H 0.37534 0.79157 0.05898 0.0
H1249 H 0.36852 0.85574 0.9999 0.0
H1250 H 0.37182 0.88957 0.03618 0.0
H1251 H 0.38485 0.90027 0.08329 0.0
H1252 H 0.39774 0.83447 0.13981 0.0
H1253 H 0.38289 0.80225 0.10634 0.0
C1254 C 0.37416 0.81297 0.05403 0.0
C1255 C 0.37242 0.82122 0.02682 0.0
C1256 C 0.37709 0.8321 0.07469 0.0
C1257 C 0.37019 0.84893 0.02073 0.0
C1258 C 0.37223 0.86825 0.04145 0.0
C1259 C 0.3838 0.87892 0.08848 0.0
C1260 C 0.39216 0.87016 0.1144 0.0
C1261 C 0.37696 0.86 0.06834 0.0
C1262 C 0.39068 0.84238 0.1207 0.0
C1263 C 0.38264 0.82362 0.1012 0.0
H1264 H 0.018 0.66063 0.85353 0.0
H1265 H 0.97111 0.6433 0.78135 0.0
H1266 H 0.93024 0.63884 0.80831 0.0
H1267 H 0.90997 0.63219 0.85206 0.0
H1268 H 0.95497 0.64921 0.92528 0.0
H1269 H 0.99478 0.66123 0.89807 0.0
C1270 C 0.99873 0.6564 0.84373 0.0
C1271 C 0.99771 0.65163 0.81562 0.0
C1272 C 0.97513 0.65351 0.85945 0.0
C1273 C 0.97257 0.64644 0.80307 0.0
C1274 C 0.94913 0.64393 0.81843 0.0
C1275 C 0.92774 0.63997 0.8623 0.0
C1276 C 0.92918 0.6403 0.89073 0.0
C1277 C 0.9504 0.64643 0.84666 0.0
C1278 C 0.95331 0.64896 0.90335 0.0
C1279 C 0.97609 0.65569 0.88783 0.0
H1280 H 0.07172 0.37684 0.78366 0.0
H1281 H 0.01531 0.34589 0.84295 0.0
H1282 H 0.05236 0.34083 0.87577 0.0
H1283 H 0.09874 0.35306 0.88962 0.0
H1284 H 0.15279 0.3889 0.83065 0.0
H1285 H 0.11926 0.3828 0.79556 0.0
C1286 C 0.06755 0.36868 0.80367 0.0
C1287 C 0.04078 0.3625 0.81123 0.0
C1288 C 0.0887 0.36643 0.82247 0.0
C1289 C 0.03575 0.3512 0.83687 0.0
C1290 C 0.05691 0.34833 0.85561 0.0
C1291 C 0.10347 0.35883 0.86891 0.0
C1292 C 0.12842 0.37153 0.86311 0.0
C1293 C 0.08323 0.35702 0.84896 0.0
C1294 C 0.13427 0.37866 0.8361 0.0
C1295 C 0.11471 0.37568 0.81587 0.0
H1296 H 0.01103 0.37029 0.18844 0.0
H1297 H 0.96884 0.38998 0.26266 0.0
H1298 H 0.92728 0.39798 0.23741 0.0
H1299 H 0.9057 0.40716 0.19438 0.0
H1300 H 0.94629 0.38745 0.11945 0.0
H1301 H 0.98593 0.37185 0.14499 0.0
C1302 C 0.99259 0.37575 0.19909 0.0
C1303 C 0.99323 0.38023 0.22726 0.0
C1304 C 0.96862 0.38068 0.18438 0.0
C1305 C 0.96909 0.38699 0.24087 0.0
C1306 C 0.94525 0.39158 0.22648 0.0
C1307 C 0.92241 0.39819 0.18344 0.0
C1308 C 0.92276 0.39825 0.15497 0.0
C1309 C 0.94509 0.38955 0.19817 0.0
C1310 C 0.94551 0.38764 0.14142 0.0
C1311 C 0.96822 0.37881 0.15599 0.0
H1312 H 0.10023 0.68426 0.14464 0.0
H1313 H 0.148 0.65562 0.21257 0.0
H1314 H 0.11251 0.66851 0.24342 0.0
H1315 H 0.06465 0.67754 0.25021 0.0
H1316 H 0.01384 0.70007 0.18245 0.0
H1317 H 0.05357 0.69984 0.15257 0.0
C1318 C 0.10319 0.68137 0.16627 0.0
C1319 C 0.12692 0.66853 0.1759 0.0
C1320 C 0.08169 0.68704 0.18397 0.0
C1321 C 0.13047 0.66551 0.20407 0.0
C1322 C 0.10978 0.67253 0.22195 0.0
C1323 C 0.06227 0.68287 0.22898 0.0
C1324 C 0.03629 0.68804 0.21832 0.0
C1325 C 0.08481 0.68166 0.21192 0.0
C1326 C 0.03362 0.69563 0.191 0.0
C1327 C 0.0563 0.69538 0.17394 0.0
H1328 H 0.89842 0.93743 0.67425 0.0
H1329 H 0.83471 0.8844 0.64528 0.0
H1330 H 0.80125 0.91854 0.65473 0.0
H1331 H 0.79096 0.9661 0.66184 0.0
H1332 H 0.85445 0.02167 0.68546 0.0
H1333 H 0.88695 0.98414 0.68726 0.0
C1334 C 0.87712 0.93308 0.67064 0.0
C1335 C 0.86943 0.90812 0.65904 0.0
C1336 C 0.85789 0.95368 0.67437 0.0
C1337 C 0.84168 0.90283 0.6547 0.0
C1338 C 0.82231 0.92274 0.65962 0.0
C1339 C 0.81186 0.97 0.6677 0.0
C1340 C 0.82055 0.99663 0.67275 0.0
C1341 C 0.83041 0.94862 0.66796 0.0
C1342 C 0.84742 1.00132 0.68108 0.0
C1343 C 0.86598 0.9799 0.68205 0.0
H1344 H 0.8496 0.13544 0.40792 0.0
H1345 H 0.92365 0.09524 0.38449 0.0
H1346 H 0.89766 0.05505 0.3712 0.0
H1347 H 0.85454 0.02945 0.37296 0.0
H1348 H 0.78133 0.07094 0.39738 0.0
H1349 H 0.80641 0.11294 0.4027 0.0
C1350 C 0.86011 0.11861 0.39863 0.0
C1351 C 0.88853 0.11854 0.39691 0.0
C1352 C 0.84519 0.09554 0.39165 0.0
C1353 C 0.90171 0.09578 0.38593 0.0
C1354 C 0.8869 0.07275 0.3785 0.0
C1355 C 0.84405 0.04781 0.37895 0.0
C1356 C 0.8163 0.0469 0.38543 0.0
C1357 C 0.8587 0.07203 0.38235 0.0
C1358 C 0.80285 0.07091 0.39287 0.0
C1359 C 0.81714 0.09502 0.39587 0.0
H1360 H 0.25345 0.96949 0.37627 0.0
H1361 H 0.18867 0.02606 0.36013 0.0
H1362 H 0.15544 0.98917 0.36283 0.0
H1363 H 0.14471 0.94282 0.37802 0.0
H1364 H 0.21052 0.88901 0.39966 0.0
H1365 H 0.2432 0.92235 0.38556 0.0
C1366 C 0.23208 0.97371 0.37293 0.0
C1367 C 0.22336 1.00045 0.36875 0.0
C1368 C 0.21321 0.95274 0.37541 0.0
C1369 C 0.19578 1.0056 0.36372 0.0
C1370 C 0.1768 0.98455 0.3654 0.0
C1371 C 0.16621 0.93815 0.379 0.0
C1372 C 0.17484 0.91311 0.38968 0.0
C1373 C 0.18523 0.95829 0.37249 0.0
C1374 C 0.20281 0.90743 0.39081 0.0
C1375 C 0.22178 0.92687 0.38322 0.0
H1376 H 0.15057 0.09036 0.66908 0.0
H1377 H 0.21566 0.14468 0.64651 0.0
H1378 H 0.24874 0.11124 0.65945 0.0
H1379 H 0.25915 0.06382 0.66697 0.0
H1380 H 0.19478 1.00677 0.68323 0.0
H1381 H 0.16165 0.0438 0.68298 0.0
C1382 C 0.17202 0.09513 0.6676 0.0
C1383 C 0.1803 0.12023 0.65672 0.0
C1384 C 0.19119 0.07492 0.67326 0.0
C1385 C 0.2082 0.12611 0.65523 0.0
C1386 C 0.2274 0.10662 0.6622 0.0
C1387 C 0.23791 0.0595 0.67089 0.0
C1388 C 0.22921 0.03261 0.67429 0.0
C1389 C 0.21905 0.08056 0.66966 0.0
C1390 C 0.20184 0.02734 0.68016 0.0
C1391 C 0.18292 0.04847 0.67988 0.0
H1392 H 0.45501 0.2858 0.15292 0.0
H1393 H 0.42497 0.21695 0.10804 0.0
H1394 H 0.45835 0.18772 0.13032 0.0
H1395 H 0.4976 0.18162 0.16172 0.0
H1396 H 0.52814 0.25065 0.20571 0.0
H1397 H 0.49356 0.27961 0.18472 0.0
C1398 C 0.45534 0.26431 0.14836 0.0
C1399 C 0.43697 0.25374 0.12889 0.0
C1400 C 0.47523 0.24757 0.16084 0.0
C1401 C 0.43845 0.22581 0.123 0.0
C1402 C 0.45778 0.20903 0.13565 0.0
C1403 C 0.49686 0.20307 0.16643 0.0
C1404 C 0.51588 0.21401 0.18499 0.0
C1405 C 0.47661 0.21969 0.15432 0.0
C1406 C 0.51409 0.24175 0.19129 0.0
C1407 C 0.49416 0.25831 0.17937 0.0
H1408 H 0.59224 0.7541 0.14236 0.0
H1409 H 0.61219 0.82011 0.08852 0.0
H1410 H 0.5798 0.84929 0.1119 0.0
H1411 H 0.54406 0.85616 0.14685 0.0
H1412 H 0.52436 0.79061 0.20099 0.0
H1413 H 0.55787 0.76155 0.1785 0.0
C1414 C 0.58992 0.775 0.13597 0.0
C1415 C 0.60512 0.78464 0.11354 0.0
C1416 C 0.57076 0.79186 0.14945 0.0
C1417 C 0.60118 0.81185 0.10563 0.0
C1418 C 0.58239 0.82865 0.11897 0.0
C1419 C 0.547 0.83545 0.1536 0.0
C1420 C 0.53131 0.82554 0.17547 0.0
C1421 C 0.56672 0.81885 0.14067 0.0
C1422 C 0.53588 0.79876 0.18416 0.0
C1423 C 0.55517 0.78213 0.1713 0.0
H1424 H 0.43539 0.80747 0.93063 0.0
H1425 H 0.44737 0.73278 0.88664 0.0
H1426 H 0.4822 0.75435 0.85898 0.0
H1427 H 0.51182 0.79375 0.8487 0.0
H1428 H 0.4976 0.86938 0.88997 0.0
H1429 H 0.46199 0.84817 0.91723 0.0
C1430 C 0.44523 0.79596 0.9147 0.0
C1431 C 0.43839 0.76828 0.91104 0.0
C1432 C 0.46554 0.8086 0.89857 0.0
C1433 C 0.45177 0.754 0.89016 0.0
C1434 C 0.47201 0.76633 0.87432 0.0
C1435 C 0.50079 0.80568 0.8635 0.0
C1436 C 0.50814 0.8331 0.86761 0.0
C1437 C 0.47947 0.79349 0.8786 0.0
C1438 C 0.49327 0.84809 0.88686 0.0
C1439 C 0.47257 0.83599 0.90232 0.0
H1440 H 0.5395 0.24497 0.83997 0.0
H1441 H 0.53387 0.17804 0.89584 0.0
H1442 H 0.56703 0.1997 0.92576 0.0
H1443 H 0.59679 0.23869 0.9373 0.0
H1444 H 0.60449 0.30437 0.87997 0.0
H1445 H 0.57248 0.28196 0.84952 0.0
C1446 C 0.54567 0.23501 0.8586 0.0
C1447 C 0.5334 0.21008 0.86579 0.0
C1448 C 0.56557 0.24733 0.87555 0.0
C1449 C 0.54204 0.19757 0.89002 0.0
C1450 C 0.56136 0.20986 0.9071 0.0
C1451 C 0.59194 0.24795 0.91794 0.0
C1452 C 0.60341 0.27345 0.91127 0.0
C1453 C 0.57316 0.2349 0.90027 0.0
C1454 C 0.59637 0.28487 0.88596 0.0
C1455 C 0.57776 0.27209 0.86845 0.0
H1456 H 0.12211 0.47374 0.2899 0.0
H1457 H 0.12147 0.41032 0.22975 0.0
H1458 H 0.14655 0.4396 0.19835 0.0
H1459 H 0.16821 0.48384 0.18737 0.0
H1460 H 0.16602 0.54832 0.24622 0.0
H1461 H 0.14227 0.51852 0.27828 0.0
C1462 C 0.12783 0.46614 0.27007 0.0
C1463 C 0.12032 0.4394 0.26258 0.0
C1464 C 0.14148 0.48359 0.25162 0.0
C1465 C 0.12722 0.43047 0.23636 0.0
C1466 C 0.14148 0.44735 0.21828 0.0
C1467 C 0.16255 0.49136 0.20724 0.0
C1468 C 0.16925 0.51838 0.2144 0.0
C1469 C 0.14861 0.47404 0.22556 0.0
C1470 C 0.16124 0.52777 0.2401 0.0
C1471 C 0.14776 0.51061 0.25852 0.0
H1472 H 0.89754 0.58832 0.29044 0.0
H1473 H 0.93386 0.62582 0.22022 0.0
H1474 H 0.90986 0.59411 0.19059 0.0
H1475 H 0.87966 0.55402 0.18417 0.0
H1476 H 0.84266 0.51721 0.25412 0.0
H1477 H 0.86569 0.54982 0.28391 0.0
C1478 C 0.89993 0.58995 0.26864 0.0
C1479 C 0.91767 0.6099 0.25788 0.0
C1480 C 0.88613 0.57126 0.25147 0.0
C1481 C 0.92042 0.61108 0.22941 0.0
C1482 C 0.90676 0.59269 0.21231 0.0
C1483 C 0.87677 0.5531 0.20595 0.0
C1484 C 0.85967 0.53281 0.21689 0.0
C1485 C 0.88985 0.57238 0.22305 0.0
C1486 C 0.85585 0.53232 0.24515 0.0
C1487 C 0.86899 0.5511 0.26221 0.0
H1488 H 0.09542 0.58225 0.80788 0.0
H1489 H 0.16006 0.59882 0.75128 0.0
H1490 H 0.18898 0.5658 0.77429 0.0
H1491 H 0.19596 0.53071 0.80982 0.0
H1492 H 0.13193 0.51486 0.86707 0.0
H1493 H 0.10299 0.54826 0.84439 0.0
C1494 C 0.11597 0.57901 0.80075 0.0
C1495 C 0.12534 0.5935 0.77772 0.0
C1496 C 0.13263 0.55946 0.81398 0.0
C1497 C 0.15206 0.58837 0.76887 0.0
C1498 C 0.16869 0.56924 0.782 0.0
C1499 C 0.17561 0.53448 0.81727 0.0
C1500 C 0.16609 0.51959 0.83991 0.0
C1501 C 0.15915 0.55436 0.80438 0.0
C1502 C 0.1397 0.52519 0.84932 0.0
C1503 C 0.12318 0.54465 0.83649 0.0
H1504 H 0.88878 0.49403 0.85441 0.0
H1505 H 0.84678 0.52908 0.78621 0.0
H1506 H 0.8685 0.49654 0.75563 0.0
H1507 H 0.90013 0.45827 0.74776 0.0
H1508 H 0.9432 0.42378 0.81573 0.0
H1509 H 0.92045 0.45536 0.84648 0.0
C1510 C 0.88458 0.49469 0.83281 0.0
C1511 C 0.86612 0.51425 0.82271 0.0
C1512 C 0.89722 0.47564 0.81517 0.0
C1513 C 0.8608 0.5144 0.79465 0.0
C1514 C 0.87322 0.49567 0.7771 0.0
C1515 C 0.90427 0.45728 0.76935 0.0
C1516 C 0.92335 0.43812 0.77919 0.0
C1517 C 0.89144 0.47609 0.78706 0.0
C1518 C 0.9286 0.4379 0.80733 0.0
C1519 C 0.91565 0.45618 0.82503 0.0
H1520 H 0.18688 0.1488 0.49637 0.0
H1521 H 0.25238 0.20106 0.5212 0.0
H1522 H 0.28238 0.18005 0.48753 0.0
H1523 H 0.29053 0.1459 0.45135 0.0
H1524 H 0.22453 0.09413 0.42605 0.0
H1525 H 0.19453 0.1159 0.45884 0.0
C1526 C 0.2078 0.15541 0.49451 0.0
C1527 C 0.21747 0.17623 0.51172 0.0
C1528 C 0.22491 0.14345 0.47463 0.0
C1529 C 0.24449 0.18488 0.50856 0.0
C1530 C 0.26163 0.17292 0.48915 0.0
C1531 C 0.26947 0.13965 0.45259 0.0
C1532 C 0.26005 0.11828 0.43577 0.0
C1533 C 0.25214 0.15215 0.47198 0.0
C1534 C 0.23261 0.11047 0.43834 0.0
C1535 C 0.21534 0.12286 0.45735 0.0
H1536 H 0.19295 0.8825 0.54587 0.0
H1537 H 0.26004 0.83773 0.51264 0.0
H1538 H 0.29124 0.85999 0.54453 0.0
H1539 H 0.29986 0.8931 0.5817 0.0
H1540 H 0.23229 0.93728 0.61537 0.0
H1541 H 0.20131 0.91434 0.58419 0.0
C1542 C 0.21445 0.87782 0.54549 0.0
C1543 C 0.22417 0.85875 0.52643 0.0
C1544 C 0.23231 0.89047 0.56437 0.0
C1545 C 0.25203 0.85255 0.52672 0.0
C1546 C 0.26989 0.86522 0.54513 0.0
C1547 C 0.27831 0.89742 0.58261 0.0
C1548 C 0.26871 0.91702 0.60134 0.0
C1549 C 0.26034 0.88425 0.56415 0.0
C1550 C 0.24057 0.92236 0.60155 0.0
C1551 C 0.22271 0.9093 0.58348 0.0
H1552 H 0.75312 0.14295 0.58883 0.0
H1553 H 0.82059 0.09305 0.61374 0.0
H1554 H 0.85031 0.11703 0.58217 0.0
H1555 H 0.85742 0.1517 0.54606 0.0
H1556 H 0.79012 0.20158 0.52131 0.0
H1557 H 0.76046 0.17827 0.55369 0.0
C1558 C 0.77441 0.13753 0.58774 0.0
C1559 C 0.78436 0.11609 0.60414 0.0
C1560 C 0.79156 0.15128 0.56903 0.0
C1561 C 0.8121 0.1094 0.60177 0.0
C1562 C 0.82921 0.12308 0.58347 0.0
C1563 C 0.83619 0.15726 0.54759 0.0
C1564 C 0.82599 0.17823 0.53084 0.0
C1565 C 0.81918 0.14385 0.56668 0.0
C1566 C 0.79851 0.18543 0.53364 0.0
C1567 C 0.78153 0.17213 0.55231 0.0
H1568 H 0.85887 0.86774 0.48465 0.0
H1569 H 0.79725 0.86169 0.54618 0.0
H1570 H 0.7652 0.88615 0.51688 0.0
H1571 H 0.75451 0.90984 0.47359 0.0
H1572 H 0.81747 0.91992 0.4139 0.0
H1573 H 0.84879 0.89338 0.44213 0.0
C1574 C 0.83843 0.87187 0.49164 0.0
C1575 C 0.83048 0.86269 0.51768 0.0
C1576 C 0.82017 0.88655 0.47474 0.0
C1577 C 0.80396 0.86847 0.52639 0.0
C1578 C 0.78557 0.8824 0.50952 0.0
C1579 C 0.77497 0.90588 0.46656 0.0
C1580 C 0.7833 0.91644 0.44115 0.0
C1581 C 0.79334 0.8915 0.48357 0.0
C1582 C 0.81026 0.9118 0.433 0.0
C1583 C 0.82827 0.89668 0.44928 0.0
H1584 H 0.04682 0.48561 0.29069 0.0
H1585 H 0.01927 0.47278 0.37265 0.0
H1586 H 1.00812 0.5211 0.37677 0.0
H1587 H 1.00515 0.56613 0.35624 0.0
H1588 H 0.03454 0.5789 0.27463 0.0
H1589 H 0.04738 0.53129 0.27158 0.0
C1590 C 0.03792 0.49343 0.30925 0.0
C1591 C 0.03286 0.47595 0.33104 0.0
C1592 C 0.03269 0.52108 0.31173 0.0
C1593 C 0.02256 0.4861 0.35549 0.0
C1594 C 0.01652 0.51361 0.35789 0.0
C1595 C 0.01471 0.55861 0.33791 0.0
C1596 C 0.0185 0.57586 0.31554 0.0
C1597 C 0.02148 0.53121 0.33608 0.0
C1598 C 0.03133 0.56598 0.29211 0.0
C1599 C 0.03837 0.53872 0.29021 0.0
H1600 H 0.07262 0.54595 0.6972 0.0
H1601 H 0.99304 0.58204 0.694 0.0
H1602 H 0.97244 0.53717 0.68807 0.0
H1603 H 0.97686 0.48803 0.69192 0.0
H1604 H 0.0558 0.4522 0.70393 0.0
H1605 H 0.07727 0.49661 0.698 0.0
C1606 C 0.05085 0.54389 0.69438 0.0
C1607 C 0.03418 0.56683 0.69582 0.0
C1608 C 0.03922 0.51813 0.693 0.0
C1609 C 1.00601 0.56435 0.69283 0.0
C1610 C 0.99434 0.53881 0.68961 0.0
C1611 C 0.99881 0.48994 0.69254 0.0
C1612 C 0.01489 0.46723 0.69834 0.0
C1613 C 0.01068 0.51556 0.69087 0.0
C1614 C 0.04321 0.46968 0.69959 0.0
C1615 C 0.05539 0.49496 0.69626 0.0
H1616 H 0.33599 0.06821 0.48807 0.0
H1617 H 0.34063 0.98773 0.45432 0.0
H1618 H 0.34669 0.96871 0.49993 0.0
H1619 H 0.34513 0.97481 0.54906 0.0
H1620 H 0.33271 0.05445 0.5829 0.0
H1621 H 0.33546 0.07442 0.53739 0.0
C1622 C 0.33892 0.04658 0.4908 0.0
C1623 C 0.33817 0.02923 0.46828 0.0
C1624 C 0.34073 0.03585 0.51695 0.0
C1625 C 0.34128 1.00123 0.47167 0.0
C1626 C 0.34465 0.99046 0.4976 0.0
C1627 C 0.34361 0.9966 0.54645 0.0
C1628 C 0.33894 0.01333 0.56898 0.0
C1629 C 0.34363 1.00754 0.52036 0.0
C1630 C 0.33635 0.0414 0.5656 0.0
C1631 C 0.33786 0.05271 0.53971 0.0
H1632 H 0.70094 0.06285 0.55316 0.0
H1633 H 0.70713 0.98298 0.58809 0.0
H1634 H 0.70113 0.96255 0.54312 0.0
H1635 H 0.70111 0.96791 0.49373 0.0
H1636 H 0.70345 0.0479 0.45869 0.0
H1637 H 0.69869 0.06817 0.50387 0.0
C1638 C 0.70027 0.04097 0.55089 0.0
C1639 C 0.70429 0.02427 0.57355 0.0
C1640 C 0.69858 0.0296 0.52499 0.0
C1641 C 0.70402 0.99601 0.57066 0.0
C1642 C 0.70069 0.98443 0.54506 0.0
C1643 C 0.69985 0.98976 0.49608 0.0
C1644 C 0.70237 1.00658 0.47333 0.0
C1645 C 0.69895 1.00107 0.52204 0.0
C1646 C 0.70142 0.0348 0.47622 0.0
C1647 C 0.69882 0.04628 0.50193 0.0
H1648 H 0.46257 0.33449 1.00491 0.0
H1649 H 0.4856 0.34142 0.08913 0.0
H1650 H 0.53294 0.34796 0.07636 0.0
H1651 H 0.5683 0.34546 0.04145 0.0
H1652 H 0.54534 0.34184 0.9571 0.0
H1653 H 0.49731 0.34072 0.96955 0.0
C1654 C 0.47798 0.33796 0.0203 0.0
C1655 C 0.47099 0.33709 0.04777 0.0
C1656 C 0.50504 0.34216 0.01282 0.0
C1657 C 0.49077 0.34199 0.06777 0.0
C1658 C 0.5178 0.34559 0.06054 0.0
C1659 C 0.55264 0.3451 0.02591 0.0
C1660 C 0.55992 0.34341 0.9986 0.0
C1661 C 0.52525 0.3448 0.03318 0.0
C1662 C 0.53984 0.34321 0.97834 0.0
C1663 C 0.51249 0.34235 0.98542 0.0
H1664 H 0.55319 0.71133 0.06363 0.0
H1665 H 0.58462 0.70348 0.98245 0.0
H1666 H 0.53842 0.69708 0.96482 0.0
H1667 H 0.48939 0.69874 0.97222 0.0
H1668 H 0.45789 0.7143 0.05229 0.0
H1669 H 0.50403 0.71247 0.07111 0.0
C1670 C 0.54981 0.70766 0.04216 0.0
C1671 C 0.57187 0.7075 0.02422 0.0
C1672 C 0.52335 0.70562 0.03219 0.0
C1673 C 0.56766 0.70349 0.99641 0.0
C1674 C 0.54138 0.69992 0.98644 0.0
C1675 C 0.49268 0.70116 0.99388 0.0
C1676 C 0.47061 0.70634 0.01106 0.0
C1677 C 0.51911 0.70164 1.00408 0.0
C1678 C 0.47482 0.71017 0.03891 0.0
C1679 C 0.50107 0.70919 0.04956 0.0
H1680 H 0.49613 0.05871 0.78789 0.0
H1681 H 0.52036 0.07406 0.87057 0.0
H1682 H 0.53252 0.02612 0.87624 0.0
H1683 H 0.53724 0.98067 0.85689 0.0
H1684 H 0.51083 0.96542 0.77455 0.0
H1685 H 0.49733 0.01267 0.76984 0.0
C1686 C 0.50449 0.05153 0.80699 0.0
C1687 C 0.50832 0.06961 0.82856 0.0
C1688 C 0.51031 0.0241 0.8103 0.0
C1689 C 0.51797 0.06027 0.85362 0.0
C1690 C 0.52462 0.03298 0.85688 0.0
C1691 C 0.52821 0.98758 0.83802 0.0
C1692 C 0.52541 0.96971 0.81597 0.0
C1693 C 0.5209 0.01478 0.8353 0.0
C1694 C 0.51329 0.97882 0.7918 0.0
C1695 C 0.50584 1.00587 0.78897 0.0
H1696 H 0.47321 0.99112 0.20764 0.0
H1697 H 0.55249 0.95696 0.19407 0.0
H1698 H 0.57226 1.00261 0.19213 0.0
H1699 H 0.56746 0.05123 0.1999 0.0
H1700 H 0.48938 0.08463 0.22096 0.0
H1701 H 0.46821 0.04011 0.21427 0.0
C1702 C 0.4947 0.99389 0.20363 0.0
C1703 C 0.51154 0.97125 0.20061 0.0
C1704 C 0.50594 0.01986 0.20425 0.0
C1705 C 0.5394 0.97448 0.19617 0.0
C1706 C 0.55059 1.00041 0.19521 0.0
C1707 C 0.54571 0.04882 0.2025 0.0
C1708 C 0.52982 0.0709 0.21076 0.0
C1709 C 0.53415 0.02313 0.20003 0.0
C1710 C 0.50183 0.06768 0.21463 0.0
C1711 C 0.48982 0.04235 0.21083 0.0
H1712 H 0.78252 0.503 0.05878 0.0
H1713 H 0.86367 0.53047 0.07672 0.0
H1714 H 0.87078 0.5417 0.02883 0.0
H1715 H 0.85413 0.54256 0.98227 0.0
H1716 H 0.77346 0.51315 0.96389 0.0
H1717 H 0.76632 0.50258 0.01171 0.0
C1718 C 0.80146 0.5121 0.05217 0.0
C1719 C 0.82233 0.51673 0.07096 0.0
C1720 C 0.80576 0.51722 0.02464 0.0
C1721 C 0.84723 0.52743 0.06238 0.0
C1722 C 0.85137 0.53346 0.0351 0.0
C1723 C 0.83507 0.53355 0.9886 0.0
C1724 C 0.81431 0.5288 0.96958 0.0
C1725 C 0.83089 0.52806 0.01605 0.0
C1726 C 0.78982 0.51695 0.97813 0.0
C1727 C 0.78557 0.51121 1.00549 0.0
H1728 H 0.17875 0.53189 0.97077 0.0
H1729 H 0.18003 0.4489 0.99808 0.0
H1730 H 0.17458 0.46376 0.04505 0.0
H1731 H 0.18019 0.50069 0.07809 0.0
H1732 H 0.17785 0.58366 0.05075 0.0
H1733 H 0.17224 0.56858 1.00387 0.0
C1734 C 0.17689 0.51714 0.98701 0.0
C1735 C 0.1804 0.48956 0.98144 0.0
C1736 C 0.17392 0.52583 0.01382 0.0
C1737 C 0.17753 0.47033 1.00222 0.0
C1738 C 0.17466 0.4788 0.02902 0.0
C1739 C 0.17753 0.51535 0.06188 0.0
C1740 C 0.18009 0.54306 0.06741 0.0
C1741 C 0.17446 0.50654 0.0351 0.0
C1742 C 0.17614 0.56214 0.04666 0.0
C1743 C 0.17316 0.55355 0.0199 0.0
H1744 H 0.99824 0.83684 0.57462 0.0
H1745 H 0.96399 0.85115 0.49539 0.0
H1746 H 1.0096 0.85668 0.47636 0.0
H1747 H 0.05839 0.84964 0.48109 0.0
H1748 H 0.0921 0.82698 0.55868 0.0
H1749 H 0.04755 0.83278 0.57994 0.0
C1750 C 1.00092 0.84198 0.55337 0.0
C1751 C 0.97822 0.84388 0.53629 0.0
C1752 C 0.02703 0.84319 0.5424 0.0
C1753 C 0.98148 0.84982 0.50871 0.0
C1754 C 1.00743 0.8528 0.4979 0.0
C1755 C 0.05607 0.84666 0.50279 0.0
C1756 C 0.07823 0.8379 0.51843 0.0
C1757 C 0.03028 0.84838 0.51436 0.0
C1758 C 0.07511 0.83363 0.54638 0.0
C1759 C 0.04972 0.83688 0.55845 0.0
H1760 H 0.05161 0.20538 0.57622 0.0
H1761 H 0.08071 0.17904 0.49819 0.0
H1762 H 0.03396 0.17697 0.481 0.0
H1763 H 0.98659 0.18945 0.48645 0.0
H1764 H 0.95842 0.22305 0.56227 0.0
H1765 H 1.00325 0.21539 0.5825 0.0
C1766 C 0.04743 0.19844 0.55572 0.0
C1767 C 0.06898 0.19198 0.53839 0.0
C1768 C 0.02094 0.19911 0.54567 0.0
C1769 C 0.06403 0.18373 0.51169 0.0
C1770 C 0.03747 0.18278 0.50194 0.0
C1771 C 0.99005 0.19463 0.50758 0.0
C1772 C 0.96942 0.20694 0.5229 0.0
C1773 C 0.01598 0.19145 0.51847 0.0
C1774 C 0.9742 0.21377 0.55012 0.0
C1775 C 0.99973 0.20939 0.56162 0.0
loop_
_geom_bond_atom_site_label_1
_geom_bond_atom_site_label_2
_geom_bond_distance
_geom_bond_site_symmetry_2
_ccdc_geom_bond_type
Co0 O3 1.971 . S
Co0 N17 1.989 1_455 S
Co0 O25 1.967 . S
Co0 O32 1.920 1_455 S
Co1 O4 1.966 . S
Co1 N10 2.022 . S
Co1 N18 1.993 . S
Co1 O26 1.941 . S
C2 O3 1.258 . S
C2 O4 1.263 . S
O3 Co0 1.971 . S
O3 C2 1.258 . S
O4 Co1 1.966 . S
O4 C2 1.263 . S
C5 O6 1.235 . S
C5 O32 1.289 . S
O6 C5 1.235 . S
C7 C9 1.400 . S
C7 N10 1.351 . S
C7 C12 1.501 . S
C8 C9 1.387 . S
C8 N11 1.341 . S
C9 C7 1.400 . S
C9 C8 1.387 . S
N10 Co1 2.022 . S
N10 C7 1.351 . S
N10 N11 1.365 . S
N11 C8 1.341 . S
N11 N10 1.365 . S
N11 H31 0.862 . S
C12 C7 1.501 . S
C12 H13 0.961 . S
C12 H14 0.961 . S
C12 H15 0.960 . S
H13 C12 0.961 . S
H14 C12 0.961 . S
H15 C12 0.960 . S
C16 N17 1.342 . S
C16 C20 1.401 . S
C16 C21 1.499 . S
N17 Co0 1.989 1_655 S
N17 C16 1.342 . S
N17 N18 1.388 1_655 S
N18 Co1 1.993 . S
N18 N17 1.388 1_455 S
N18 C19 1.346 . S
C19 N18 1.346 . S
C19 C20 1.396 1_455 S
C19 C29 1.510 . S
C20 C16 1.401 . S
C20 C19 1.396 1_655 S
C21 C16 1.499 . S
C21 H22 0.959 . S
C21 H23 0.960 . S
C21 H24 0.961 . S
H22 C21 0.959 . S
H23 C21 0.960 . S
H24 C21 0.961 . S
O25 Co0 1.967 . S
O25 C33 1.258 . S
O26 Co1 1.941 . S
O26 C33 1.266 . S
H27 C29 0.959 . S
H28 C29 0.961 . S
C29 C19 1.510 . S
C29 H27 0.959 . S
C29 H28 0.961 . S
C29 H30 0.960 . S
H30 C29 0.960 . S
H31 N11 0.862 . S
O32 Co0 1.920 1_655 S
O32 C5 1.289 . S
C33 O25 1.258 . S
C33 O26 1.266 . S
Co34 O37 1.970 1_455 S
Co34 N51 1.989 . S
Co34 O59 1.967 . S
Co34 O66 1.920 . S
Co35 O38 1.966 . S
Co35 N44 2.022 . S
Co35 N52 1.993 1_655 S
Co35 O60 1.941 . S
C36 O37 1.258 . S
C36 O38 1.263 . S
O37 Co34 1.970 1_655 S
O37 C36 1.258 . S
O38 Co35 1.966 . S
O38 C36 1.263 . S
C39 O40 1.235 . S
C39 O66 1.289 . S
O40 C39 1.235 . S
C41 C43 1.400 . S
C41 N44 1.351 . S
C41 C46 1.501 . S
C42 C43 1.387 . S
C42 N45 1.341 . S
C43 C41 1.400 . S
C43 C42 1.387 . S
N44 Co35 2.022 . S
N44 C41 1.351 . S
N44 N45 1.365 . S
N45 C42 1.341 . S
N45 N44 1.365 . S
N45 H65 0.862 . S
C46 C41 1.501 . S
C46 H47 0.961 . S
C46 H48 0.961 . S
C46 H49 0.960 . S
H47 C46 0.961 . S
H48 C46 0.961 . S
H49 C46 0.960 . S
C50 N51 1.342 . S
C50 C54 1.401 . S
C50 C55 1.499 . S
N51 Co34 1.989 . S
N51 C50 1.342 . S
N51 N52 1.388 . S
N52 Co35 1.993 1_455 S
N52 N51 1.388 . S
N52 C53 1.346 . S
C53 N52 1.346 . S
C53 C54 1.396 . S
C53 C63 1.510 . S
C54 C50 1.401 . S
C54 C53 1.396 . S
C55 C50 1.499 . S
C55 H56 0.959 . S
C55 H57 0.960 . S
C55 H58 0.961 . S
H56 C55 0.959 . S
H57 C55 0.960 . S
H58 C55 0.961 . S
O59 Co34 1.967 . S
O59 C67 1.257 . S
O60 Co35 1.941 . S
O60 C67 1.267 1_655 S
H61 C63 0.959 . S
H62 C63 0.961 . S
C63 C53 1.510 . S
C63 H61 0.959 . S
C63 H62 0.961 . S
C63 H64 0.960 1_455 S
H64 C63 0.960 1_655 S
H65 N45 0.862 . S
O66 Co34 1.920 . S
O66 C39 1.289 . S
C67 O59 1.257 . S
C67 O60 1.267 1_455 S
Co68 O71 1.971 . S
Co68 N85 1.989 1_455 S
Co68 O93 1.967 . S
Co68 O100 1.920 1_455 S
Co69 O72 1.966 . S
Co69 N78 2.022 . S
Co69 N86 1.993 . S
Co69 O94 1.941 . S
C70 O71 1.258 . S
C70 O72 1.263 . S
O71 Co68 1.971 . S
O71 C70 1.258 . S
O72 Co69 1.966 . S
O72 C70 1.263 . S
C73 O74 1.235 . S
C73 O100 1.289 . S
O74 C73 1.235 . S
C75 C77 1.400 . S
C75 N78 1.351 . S
C75 C80 1.501 . S
C76 C77 1.387 . S
C76 N79 1.341 . S
C77 C75 1.400 . S
C77 C76 1.387 . S
N78 Co69 2.022 . S
N78 C75 1.351 . S
N78 N79 1.365 . S
N79 C76 1.341 . S
N79 N78 1.365 . S
N79 H99 0.862 . S
C80 C75 1.501 . S
C80 H81 0.961 . S
C80 H82 0.961 . S
C80 H83 0.960 . S
H81 C80 0.961 . S
H82 C80 0.961 . S
H83 C80 0.960 . S
C84 N85 1.342 . S
C84 C88 1.401 . S
C84 C89 1.499 . S
N85 Co68 1.989 1_655 S
N85 C84 1.342 . S
N85 N86 1.388 1_655 S
N86 Co69 1.993 . S
N86 N85 1.388 1_455 S
N86 C87 1.346 . S
C87 N86 1.346 . S
C87 C88 1.396 1_455 S
C87 C97 1.510 . S
C88 C84 1.401 . S
C88 C87 1.396 1_655 S
C89 C84 1.499 . S
C89 H90 0.959 . S
C89 H91 0.960 . S
C89 H92 0.961 . S
H90 C89 0.959 . S
H91 C89 0.960 . S
H92 C89 0.961 . S
O93 Co68 1.967 . S
O93 C101 1.258 . S
O94 Co69 1.941 . S
O94 C101 1.266 . S
H95 C97 0.959 . S
H96 C97 0.961 . S
C97 C87 1.510 . S
C97 H95 0.959 . S
C97 H96 0.961 . S
C97 H98 0.960 . S
H98 C97 0.960 . S
H99 N79 0.862 . S
O100 Co68 1.920 1_655 S
O100 C73 1.289 . S
C101 O93 1.258 . S
C101 O94 1.266 . S
Co102 O105 1.970 1_455 S
Co102 N119 1.989 . S
Co102 O127 1.967 . S
Co102 O134 1.920 . S
Co103 O106 1.966 . S
Co103 N112 2.022 . S
Co103 N120 1.993 1_655 S
Co103 O128 1.941 . S
C104 O105 1.258 . S
C104 O106 1.263 . S
O105 Co102 1.970 1_655 S
O105 C104 1.258 . S
O106 Co103 1.966 . S
O106 C104 1.263 . S
C107 O108 1.235 . S
C107 O134 1.289 . S
O108 C107 1.235 . S
C109 C111 1.400 . S
C109 N112 1.351 . S
C109 C114 1.501 . S
C110 C111 1.387 . S
C110 N113 1.341 . S
C111 C109 1.400 . S
C111 C110 1.387 . S
N112 Co103 2.022 . S
N112 C109 1.351 . S
N112 N113 1.365 . S
N113 C110 1.341 . S
N113 N112 1.365 . S
N113 H133 0.862 . S
C114 C109 1.501 . S
C114 H115 0.961 . S
C114 H116 0.961 . S
C114 H117 0.960 . S
H115 C114 0.961 . S
H116 C114 0.961 . S
H117 C114 0.960 . S
C118 N119 1.342 . S
C118 C122 1.401 . S
C118 C123 1.499 . S
N119 Co102 1.989 . S
N119 C118 1.342 . S
N119 N120 1.388 . S
N120 Co103 1.993 1_455 S
N120 N119 1.388 . S
N120 C121 1.346 . S
C121 N120 1.346 . S
C121 C122 1.396 . S
C121 C131 1.510 . S
C122 C118 1.401 . S
C122 C121 1.396 . S
C123 C118 1.499 . S
C123 H124 0.959 . S
C123 H125 0.960 . S
C123 H126 0.961 . S
H124 C123 0.959 . S
H125 C123 0.960 . S
H126 C123 0.961 . S
O127 Co102 1.967 . S
O127 C135 1.257 . S
O128 Co103 1.941 . S
O128 C135 1.267 1_655 S
H129 C131 0.959 . S
H130 C131 0.961 . S
C131 C121 1.510 . S
C131 H129 0.959 . S
C131 H130 0.961 . S
C131 H132 0.960 1_455 S
H132 C131 0.960 1_655 S
H133 N113 0.862 . S
O134 Co102 1.920 . S
O134 C107 1.289 . S
C135 O127 1.257 . S
C135 O128 1.267 1_455 S
Co136 O139 1.971 . S
Co136 N153 1.989 1_545 S
Co136 O161 1.967 . S
Co136 O168 1.920 1_545 S
Co137 O140 1.966 . S
Co137 N146 2.022 . S
Co137 N154 1.993 . S
Co137 O162 1.941 . S
C138 O139 1.258 . S
C138 O140 1.263 . S
O139 Co136 1.971 . S
O139 C138 1.258 . S
O140 Co137 1.966 . S
O140 C138 1.263 . S
C141 O142 1.235 . S
C141 O168 1.289 . S
O142 C141 1.235 . S
C143 C145 1.400 . S
C143 N146 1.351 . S
C143 C148 1.501 . S
C144 C145 1.387 . S
C144 N147 1.341 . S
C145 C143 1.400 . S
C145 C144 1.387 . S
N146 Co137 2.022 . S
N146 C143 1.351 . S
N146 N147 1.365 . S
N147 C144 1.341 . S
N147 N146 1.365 . S
N147 H167 0.862 . S
C148 C143 1.501 . S
C148 H149 0.961 . S
C148 H150 0.961 . S
C148 H151 0.960 . S
H149 C148 0.961 . S
H150 C148 0.961 . S
H151 C148 0.960 . S
C152 N153 1.342 . S
C152 C156 1.401 . S
C152 C157 1.499 . S
N153 Co136 1.989 1_565 S
N153 C152 1.342 . S
N153 N154 1.388 1_565 S
N154 Co137 1.993 . S
N154 N153 1.388 1_545 S
N154 C155 1.346 . S
C155 N154 1.346 . S
C155 C156 1.396 1_545 S
C155 C165 1.510 . S
C156 C152 1.401 . S
C156 C155 1.396 1_565 S
C157 C152 1.499 . S
C157 H158 0.959 . S
C157 H159 0.960 . S
C157 H160 0.961 . S
H158 C157 0.959 . S
H159 C157 0.960 . S
H160 C157 0.961 . S
O161 Co136 1.967 . S
O161 C169 1.258 . S
O162 Co137 1.941 . S
O162 C169 1.266 . S
H163 C165 0.959 . S
H164 C165 0.961 . S
C165 C155 1.510 . S
C165 H163 0.959 . S
C165 H164 0.961 . S
C165 H166 0.960 . S
H166 C165 0.960 . S
H167 N147 0.862 . S
O168 Co136 1.920 1_565 S
O168 C141 1.289 . S
C169 O161 1.258 . S
C169 O162 1.266 . S
Co170 O173 1.970 1_545 S
Co170 N187 1.989 . S
Co170 O195 1.967 . S
Co170 O202 1.920 . S
Co171 O174 1.966 . S
Co171 N180 2.022 . S
Co171 N188 1.993 1_565 S
Co171 O196 1.941 . S
C172 O173 1.258 . S
C172 O174 1.263 . S
O173 Co170 1.970 1_565 S
O173 C172 1.258 . S
O174 Co171 1.966 . S
O174 C172 1.263 . S
C175 O176 1.235 . S
C175 O202 1.289 . S
O176 C175 1.235 . S
C177 C179 1.400 . S
C177 N180 1.351 . S
C177 C182 1.501 . S
C178 C179 1.387 . S
C178 N181 1.341 . S
C179 C177 1.400 . S
C179 C178 1.387 . S
N180 Co171 2.022 . S
N180 C177 1.351 . S
N180 N181 1.365 . S
N181 C178 1.341 . S
N181 N180 1.365 . S
N181 H201 0.862 . S
C182 C177 1.501 . S
C182 H183 0.961 . S
C182 H184 0.961 . S
C182 H185 0.960 . S
H183 C182 0.961 . S
H184 C182 0.961 . S
H185 C182 0.960 . S
C186 N187 1.342 . S
C186 C190 1.401 . S
C186 C191 1.499 . S
N187 Co170 1.989 . S
N187 C186 1.342 . S
N187 N188 1.388 . S
N188 Co171 1.993 1_545 S
N188 N187 1.388 . S
N188 C189 1.346 . S
C189 N188 1.346 . S
C189 C190 1.396 . S
C189 C199 1.510 . S
C190 C186 1.401 . S
C190 C189 1.396 . S
C191 C186 1.499 . S
C191 H192 0.959 . S
C191 H193 0.960 . S
C191 H194 0.961 . S
H192 C191 0.959 . S
H193 C191 0.960 . S
H194 C191 0.961 . S
O195 Co170 1.967 . S
O195 C203 1.257 . S
O196 Co171 1.941 . S
O196 C203 1.267 1_565 S
H197 C199 0.959 . S
H198 C199 0.961 . S
C199 C189 1.510 . S
C199 H197 0.959 . S
C199 H198 0.961 . S
C199 H200 0.960 1_545 S
H200 C199 0.960 1_565 S
H201 N181 0.862 . S
O202 Co170 1.920 . S
O202 C175 1.289 . S
C203 O195 1.257 . S
C203 O196 1.267 1_545 S
Co204 O207 1.970 1_545 S
Co204 N221 1.989 . S
Co204 O229 1.967 . S
Co204 O236 1.920 . S
Co205 O208 1.966 . S
Co205 N214 2.022 . S
Co205 N222 1.993 1_565 S
Co205 O230 1.941 . S
C206 O207 1.258 . S
C206 O208 1.263 . S
O207 Co204 1.970 1_565 S
O207 C206 1.258 . S
O208 Co205 1.966 . S
O208 C206 1.263 . S
C209 O210 1.235 . S
C209 O236 1.289 . S
O210 C209 1.235 . S
C211 C213 1.400 . S
C211 N214 1.351 . S
C211 C216 1.501 . S
C212 C213 1.387 . S
C212 N215 1.341 . S
C213 C211 1.400 . S
C213 C212 1.387 . S
N214 Co205 2.022 . S
N214 C211 1.351 . S
N214 N215 1.365 . S
N215 C212 1.341 . S
N215 N214 1.365 . S
N215 H235 0.862 . S
C216 C211 1.501 . S
C216 H217 0.961 . S
C216 H218 0.961 . S
C216 H219 0.960 . S
H217 C216 0.961 . S
H218 C216 0.961 . S
H219 C216 0.960 . S
C220 N221 1.342 . S
C220 C224 1.401 . S
C220 C225 1.499 . S
N221 Co204 1.989 . S
N221 C220 1.342 . S
N221 N222 1.388 . S
N222 Co205 1.993 1_545 S
N222 N221 1.388 . S
N222 C223 1.346 . S
C223 N222 1.346 . S
C223 C224 1.396 . S
C223 C233 1.510 . S
C224 C220 1.401 . S
C224 C223 1.396 . S
C225 C220 1.499 . S
C225 H226 0.959 . S
C225 H227 0.960 . S
C225 H228 0.961 . S
H226 C225 0.959 . S
H227 C225 0.960 . S
H228 C225 0.961 . S
O229 Co204 1.967 . S
O229 C237 1.257 . S
O230 Co205 1.941 . S
O230 C237 1.267 1_565 S
H231 C233 0.959 . S
H232 C233 0.961 . S
C233 C223 1.510 . S
C233 H231 0.959 . S
C233 H232 0.961 . S
C233 H234 0.960 1_545 S
H234 C233 0.960 1_565 S
H235 N215 0.862 . S
O236 Co204 1.920 . S
O236 C209 1.289 . S
C237 O229 1.257 . S
C237 O230 1.267 1_545 S
Co238 O241 1.971 . S
Co238 N255 1.989 1_545 S
Co238 O263 1.967 . S
Co238 O270 1.920 1_545 S
Co239 O242 1.966 . S
Co239 N248 2.022 . S
Co239 N256 1.993 . S
Co239 O264 1.941 . S
C240 O241 1.258 . S
C240 O242 1.263 . S
O241 Co238 1.971 . S
O241 C240 1.258 . S
O242 Co239 1.966 . S
O242 C240 1.263 . S
C243 O244 1.235 . S
C243 O270 1.289 . S
O244 C243 1.235 . S
C245 C247 1.400 . S
C245 N248 1.351 . S
C245 C250 1.501 . S
C246 C247 1.387 . S
C246 N249 1.341 . S
C247 C245 1.400 . S
C247 C246 1.387 . S
N248 Co239 2.022 . S
N248 C245 1.351 . S
N248 N249 1.365 . S
N249 C246 1.341 . S
N249 N248 1.365 . S
N249 H269 0.862 . S
C250 C245 1.501 . S
C250 H251 0.961 . S
C250 H252 0.961 . S
C250 H253 0.960 . S
H251 C250 0.961 . S
H252 C250 0.961 . S
H253 C250 0.960 . S
C254 N255 1.342 . S
C254 C258 1.401 . S
C254 C259 1.499 . S
N255 Co238 1.989 1_565 S
N255 C254 1.342 . S
N255 N256 1.388 1_565 S
N256 Co239 1.993 . S
N256 N255 1.388 1_545 S
N256 C257 1.346 . S
C257 N256 1.346 . S
C257 C258 1.396 1_545 S
C257 C267 1.510 . S
C258 C254 1.401 . S
C258 C257 1.396 1_565 S
C259 C254 1.499 . S
C259 H260 0.959 . S
C259 H261 0.960 . S
C259 H262 0.961 . S
H260 C259 0.959 . S
H261 C259 0.960 . S
H262 C259 0.961 . S
O263 Co238 1.967 . S
O263 C271 1.258 . S
O264 Co239 1.941 . S
O264 C271 1.266 . S
H265 C267 0.959 . S
H266 C267 0.961 . S
C267 C257 1.510 . S
C267 H265 0.959 . S
C267 H266 0.961 . S
C267 H268 0.960 . S
H268 C267 0.960 . S
H269 N249 0.862 . S
O270 Co238 1.920 1_565 S
O270 C243 1.289 . S
C271 O263 1.258 . S
C271 O264 1.266 . S
Co272 O275 1.971 . S
Co272 N289 1.989 1_554 S
Co272 O297 1.967 . S
Co272 O304 1.920 1_554 S
Co273 O276 1.966 . S
Co273 N282 2.022 . S
Co273 N290 1.993 . S
Co273 O298 1.941 . S
C274 O275 1.258 . S
C274 O276 1.263 . S
O275 Co272 1.971 . S
O275 C274 1.258 . S
O276 Co273 1.966 . S
O276 C274 1.263 . S
C277 O278 1.235 . S
C277 O304 1.289 . S
O278 C277 1.235 . S
C279 C281 1.400 . S
C279 N282 1.351 . S
C279 C284 1.501 . S
C280 C281 1.387 . S
C280 N283 1.341 . S
C281 C279 1.400 . S
C281 C280 1.387 . S
N282 Co273 2.022 . S
N282 C279 1.351 . S
N282 N283 1.365 . S
N283 C280 1.341 . S
N283 N282 1.365 . S
N283 H303 0.862 . S
C284 C279 1.501 . S
C284 H285 0.961 . S
C284 H286 0.961 . S
C284 H287 0.960 . S
H285 C284 0.961 . S
H286 C284 0.961 . S
H287 C284 0.960 . S
C288 N289 1.342 . S
C288 C292 1.401 . S
C288 C293 1.499 . S
N289 Co272 1.989 1_556 S
N289 C288 1.342 . S
N289 N290 1.388 1_556 S
N290 Co273 1.993 . S
N290 N289 1.388 1_554 S
N290 C291 1.346 . S
C291 N290 1.346 . S
C291 C292 1.396 1_554 S
C291 C301 1.510 . S
C292 C288 1.401 . S
C292 C291 1.396 1_556 S
C293 C288 1.499 . S
C293 H294 0.959 . S
C293 H295 0.960 . S
C293 H296 0.961 . S
H294 C293 0.959 . S
H295 C293 0.960 . S
H296 C293 0.961 . S
O297 Co272 1.967 . S
O297 C305 1.258 . S
O298 Co273 1.941 . S
O298 C305 1.266 . S
H299 C301 0.959 . S
H300 C301 0.961 . S
C301 C291 1.510 . S
C301 H299 0.959 . S
C301 H300 0.961 . S
C301 H302 0.960 . S
H302 C301 0.960 . S
H303 N283 0.862 . S
O304 Co272 1.920 1_556 S
O304 C277 1.289 . S
C305 O297 1.258 . S
C305 O298 1.266 . S
Co306 O309 1.970 1_554 S
Co306 N323 1.989 . S
Co306 O331 1.967 . S
Co306 O338 1.920 . S
Co307 O310 1.966 . S
Co307 N316 2.022 . S
Co307 N324 1.993 1_556 S
Co307 O332 1.941 . S
C308 O309 1.258 . S
C308 O310 1.263 . S
O309 Co306 1.970 1_556 S
O309 C308 1.258 . S
O310 Co307 1.966 . S
O310 C308 1.263 . S
C311 O312 1.235 . S
C311 O338 1.289 . S
O312 C311 1.235 . S
C313 C315 1.400 . S
C313 N316 1.351 . S
C313 C318 1.501 . S
C314 C315 1.387 . S
C314 N317 1.341 . S
C315 C313 1.400 . S
C315 C314 1.387 . S
N316 Co307 2.022 . S
N316 C313 1.351 . S
N316 N317 1.365 . S
N317 C314 1.341 . S
N317 N316 1.365 . S
N317 H337 0.862 . S
C318 C313 1.501 . S
C318 H319 0.961 . S
C318 H320 0.961 . S
C318 H321 0.960 . S
H319 C318 0.961 . S
H320 C318 0.961 . S
H321 C318 0.960 . S
C322 N323 1.342 . S
C322 C326 1.401 . S
C322 C327 1.499 . S
N323 Co306 1.989 . S
N323 C322 1.342 . S
N323 N324 1.388 . S
N324 Co307 1.993 1_554 S
N324 N323 1.388 . S
N324 C325 1.346 . S
C325 N324 1.346 . S
C325 C326 1.396 . S
C325 C335 1.510 . S
C326 C322 1.401 . S
C326 C325 1.396 . S
C327 C322 1.499 . S
C327 H328 0.959 . S
C327 H329 0.960 . S
C327 H330 0.961 . S
H328 C327 0.959 . S
H329 C327 0.960 . S
H330 C327 0.961 . S
O331 Co306 1.967 . S
O331 C339 1.257 . S
O332 Co307 1.941 . S
O332 C339 1.267 1_556 S
H333 C335 0.959 . S
H334 C335 0.961 . S
C335 C325 1.510 . S
C335 H333 0.959 . S
C335 H334 0.961 . S
C335 H336 0.960 1_554 S
H336 C335 0.960 1_556 S
H337 N317 0.862 . S
O338 Co306 1.920 . S
O338 C311 1.289 . S
C339 O331 1.257 . S
C339 O332 1.267 1_554 S
Co340 O343 1.970 1_554 S
Co340 N357 1.989 . S
Co340 O365 1.967 . S
Co340 O372 1.920 . S
Co341 O344 1.966 . S
Co341 N350 2.022 . S
Co341 N358 1.993 1_556 S
Co341 O366 1.941 . S
C342 O343 1.258 . S
C342 O344 1.263 . S
O343 Co340 1.970 1_556 S
O343 C342 1.258 . S
O344 Co341 1.966 . S
O344 C342 1.263 . S
C345 O346 1.235 . S
C345 O372 1.289 . S
O346 C345 1.235 . S
C347 C349 1.400 . S
C347 N350 1.351 . S
C347 C352 1.501 . S
C348 C349 1.387 . S
C348 N351 1.341 . S
C349 C347 1.400 . S
C349 C348 1.387 . S
N350 Co341 2.022 . S
N350 C347 1.351 . S
N350 N351 1.365 . S
N351 C348 1.341 . S
N351 N350 1.365 . S
N351 H371 0.862 . S
C352 C347 1.501 . S
C352 H353 0.961 . S
C352 H354 0.961 . S
C352 H355 0.960 . S
H353 C352 0.961 . S
H354 C352 0.961 . S
H355 C352 0.960 . S
C356 N357 1.342 . S
C356 C360 1.401 . S
C356 C361 1.499 . S
N357 Co340 1.989 . S
N357 C356 1.342 . S
N357 N358 1.388 . S
N358 Co341 1.993 1_554 S
N358 N357 1.388 . S
N358 C359 1.346 . S
C359 N358 1.346 . S
C359 C360 1.396 . S
C359 C369 1.510 . S
C360 C356 1.401 . S
C360 C359 1.396 . S
C361 C356 1.499 . S
C361 H362 0.959 . S
C361 H363 0.960 . S
C361 H364 0.961 . S
H362 C361 0.959 . S
H363 C361 0.960 . S
H364 C361 0.961 . S
O365 Co340 1.967 . S
O365 C373 1.257 . S
O366 Co341 1.941 . S
O366 C373 1.267 1_556 S
H367 C369 0.959 . S
H368 C369 0.961 . S
C369 C359 1.510 . S
C369 H367 0.959 . S
C369 H368 0.961 . S
C369 H370 0.960 1_554 S
H370 C369 0.960 1_556 S
H371 N351 0.862 . S
O372 Co340 1.920 . S
O372 C345 1.289 . S
C373 O365 1.257 . S
C373 O366 1.267 1_554 S
Co374 O377 1.971 . S
Co374 N391 1.989 1_554 S
Co374 O399 1.967 . S
Co374 O406 1.920 1_554 S
Co375 O378 1.966 . S
Co375 N384 2.022 . S
Co375 N392 1.993 . S
Co375 O400 1.941 . S
C376 O377 1.258 . S
C376 O378 1.263 . S
O377 Co374 1.971 . S
O377 C376 1.258 . S
O378 Co375 1.966 . S
O378 C376 1.263 . S
C379 O380 1.235 . S
C379 O406 1.289 . S
O380 C379 1.235 . S
C381 C383 1.400 . S
C381 N384 1.351 . S
C381 C386 1.501 . S
C382 C383 1.387 . S
C382 N385 1.341 . S
C383 C381 1.400 . S
C383 C382 1.387 . S
N384 Co375 2.022 . S
N384 C381 1.351 . S
N384 N385 1.365 . S
N385 C382 1.341 . S
N385 N384 1.365 . S
N385 H405 0.862 . S
C386 C381 1.501 . S
C386 H387 0.961 . S
C386 H388 0.961 . S
C386 H389 0.960 . S
H387 C386 0.961 . S
H388 C386 0.961 . S
H389 C386 0.960 . S
C390 N391 1.342 . S
C390 C394 1.401 . S
C390 C395 1.499 . S
N391 Co374 1.989 1_556 S
N391 C390 1.342 . S
N391 N392 1.388 1_556 S
N392 Co375 1.993 . S
N392 N391 1.388 1_554 S
N392 C393 1.346 . S
C393 N392 1.346 . S
C393 C394 1.396 1_554 S
C393 C403 1.510 . S
C394 C390 1.401 . S
C394 C393 1.396 1_556 S
C395 C390 1.499 . S
C395 H396 0.959 . S
C395 H397 0.960 . S
C395 H398 0.961 . S
H396 C395 0.959 . S
H397 C395 0.960 . S
H398 C395 0.961 . S
O399 Co374 1.967 . S
O399 C407 1.258 . S
O400 Co375 1.941 . S
O400 C407 1.266 . S
H401 C403 0.959 . S
H402 C403 0.961 . S
C403 C393 1.510 . S
C403 H401 0.959 . S
C403 H402 0.961 . S
C403 H404 0.960 . S
H404 C403 0.960 . S
H405 N385 0.862 . S
O406 Co374 1.920 1_556 S
O406 C379 1.289 . S
C407 O399 1.258 . S
C407 O400 1.266 . S
Co408 O411 1.970 . S
Co408 N425 1.989 . S
Co408 O433 1.967 . S
Co408 O440 1.920 . S
Co409 O412 1.966 . S
Co409 N418 2.022 . S
Co409 N426 1.993 . S
Co409 O434 1.941 . S
C410 O411 1.258 . S
C410 O412 1.263 . S
O411 Co408 1.970 . S
O411 C410 1.258 . S
O412 Co409 1.966 . S
O412 C410 1.263 . S
C413 O414 1.235 . S
C413 O440 1.289 . S
O414 C413 1.235 . S
C415 C417 1.400 . S
C415 N418 1.351 . S
C415 C420 1.501 . S
C416 C417 1.387 . S
C416 N419 1.341 . S
C417 C415 1.400 . S
C417 C416 1.387 . S
N418 Co409 2.022 . S
N418 C415 1.351 . S
N418 N419 1.365 . S
N419 C416 1.341 . S
N419 N418 1.365 . S
N419 H439 0.862 . S
C420 C415 1.501 . S
C420 H421 0.961 . S
C420 H422 0.961 . S
C420 H423 0.960 . S
H421 C420 0.961 . S
H422 C420 0.961 . S
H423 C420 0.960 . S
C424 N425 1.342 . S
C424 C428 1.401 . S
C424 C429 1.499 . S
N425 Co408 1.989 . S
N425 C424 1.342 . S
N425 N426 1.388 . S
N426 Co409 1.993 . S
N426 N425 1.388 . S
N426 C427 1.346 . S
C427 N426 1.346 . S
C427 C428 1.396 . S
C427 C437 1.510 . S
C428 C424 1.401 . S
C428 C427 1.396 . S
C429 C424 1.499 . S
C429 H430 0.959 . S
C429 H431 0.960 . S
C429 H432 0.961 . S
H430 C429 0.959 . S
H431 C429 0.960 . S
H432 C429 0.961 . S
O433 Co408 1.967 . S
O433 C441 1.258 . S
O434 Co409 1.941 . S
O434 C441 1.266 . S
H435 C437 0.959 . S
H436 C437 0.961 . S
C437 C427 1.510 . S
C437 H435 0.959 . S
C437 H436 0.961 . S
C437 H438 0.960 . S
H438 C437 0.960 . S
H439 N419 0.862 . S
O440 Co408 1.920 . S
O440 C413 1.289 . S
C441 O433 1.258 . S
C441 O434 1.266 . S
Co442 O445 1.970 . S
Co442 N459 1.989 . S
Co442 O467 1.967 . S
Co442 O474 1.920 . S
Co443 O446 1.966 . S
Co443 N452 2.022 . S
Co443 N460 1.993 . S
Co443 O468 1.941 . S
C444 O445 1.258 . S
C444 O446 1.263 . S
O445 Co442 1.970 . S
O445 C444 1.258 . S
O446 Co443 1.966 . S
O446 C444 1.263 . S
C447 O448 1.235 . S
C447 O474 1.289 . S
O448 C447 1.235 . S
C449 C451 1.400 . S
C449 N452 1.351 . S
C449 C454 1.501 . S
C450 C451 1.387 . S
C450 N453 1.341 . S
C451 C449 1.400 . S
C451 C450 1.387 . S
N452 Co443 2.022 . S
N452 C449 1.351 . S
N452 N453 1.365 . S
N453 C450 1.341 . S
N453 N452 1.365 . S
N453 H473 0.862 . S
C454 C449 1.501 . S
C454 H455 0.961 . S
C454 H456 0.961 . S
C454 H457 0.960 . S
H455 C454 0.961 . S
H456 C454 0.961 . S
H457 C454 0.960 . S
C458 N459 1.342 . S
C458 C462 1.401 . S
C458 C463 1.499 . S
N459 Co442 1.989 . S
N459 C458 1.342 . S
N459 N460 1.388 . S
N460 Co443 1.993 . S
N460 N459 1.388 . S
N460 C461 1.346 . S
C461 N460 1.346 . S
C461 C462 1.396 . S
C461 C471 1.510 . S
C462 C458 1.401 . S
C462 C461 1.396 . S
C463 C458 1.499 . S
C463 H464 0.959 . S
C463 H465 0.960 . S
C463 H466 0.961 . S
H464 C463 0.959 . S
H465 C463 0.960 . S
H466 C463 0.961 . S
O467 Co442 1.967 . S
O467 C475 1.258 . S
O468 Co443 1.941 . S
O468 C475 1.266 . S
H469 C471 0.959 . S
H470 C471 0.961 . S
C471 C461 1.510 . S
C471 H469 0.959 . S
C471 H470 0.961 . S
C471 H472 0.960 . S
H472 C471 0.960 . S
H473 N453 0.862 . S
O474 Co442 1.920 . S
O474 C447 1.289 . S
C475 O467 1.258 . S
C475 O468 1.266 . S
Co476 O479 1.970 . S
Co476 N493 1.989 . S
Co476 O501 1.967 . S
Co476 O508 1.920 . S
Co477 O480 1.966 . S
Co477 N486 2.022 . S
Co477 N494 1.993 . S
Co477 O502 1.941 . S
C478 O479 1.258 . S
C478 O480 1.263 . S
O479 Co476 1.970 . S
O479 C478 1.258 . S
O480 Co477 1.966 . S
O480 C478 1.263 . S
C481 O482 1.235 . S
C481 O508 1.289 . S
O482 C481 1.235 . S
C483 C485 1.400 . S
C483 N486 1.351 . S
C483 C488 1.501 . S
C484 C485 1.387 . S
C484 N487 1.341 . S
C485 C483 1.400 . S
C485 C484 1.387 . S
N486 Co477 2.022 . S
N486 C483 1.351 . S
N486 N487 1.365 . S
N487 C484 1.341 . S
N487 N486 1.365 . S
N487 H507 0.862 . S
C488 C483 1.501 . S
C488 H489 0.961 . S
C488 H490 0.961 . S
C488 H491 0.960 . S
H489 C488 0.961 . S
H490 C488 0.961 . S
H491 C488 0.960 . S
C492 N493 1.342 . S
C492 C496 1.401 . S
C492 C497 1.499 . S
N493 Co476 1.989 . S
N493 C492 1.342 . S
N493 N494 1.388 . S
N494 Co477 1.993 . S
N494 N493 1.388 . S
N494 C495 1.346 . S
C495 N494 1.346 . S
C495 C496 1.396 . S
C495 C505 1.510 . S
C496 C492 1.401 . S
C496 C495 1.396 . S
C497 C492 1.499 . S
C497 H498 0.959 . S
C497 H499 0.960 . S
C497 H500 0.961 . S
H498 C497 0.959 . S
H499 C497 0.960 . S
H500 C497 0.961 . S
O501 Co476 1.967 . S
O501 C509 1.258 . S
O502 Co477 1.941 . S
O502 C509 1.266 . S
H503 C505 0.959 . S
H504 C505 0.961 . S
C505 C495 1.510 . S
C505 H503 0.959 . S
C505 H504 0.961 . S
C505 H506 0.960 . S
H506 C505 0.960 . S
H507 N487 0.862 . S
O508 Co476 1.920 . S
O508 C481 1.289 . S
C509 O501 1.258 . S
C509 O502 1.266 . S
Co510 O513 1.970 . S
Co510 N527 1.989 . S
Co510 O535 1.967 . S
Co510 O542 1.920 . S
Co511 O514 1.966 . S
Co511 N520 2.022 . S
Co511 N528 1.993 . S
Co511 O536 1.941 . S
C512 O513 1.258 . S
C512 O514 1.263 . S
O513 Co510 1.970 . S
O513 C512 1.258 . S
O514 Co511 1.966 . S
O514 C512 1.263 . S
C515 O516 1.235 . S
C515 O542 1.289 . S
O516 C515 1.235 . S
C517 C519 1.400 . S
C517 N520 1.351 . S
C517 C522 1.501 . S
C518 C519 1.387 . S
C518 N521 1.341 . S
C519 C517 1.400 . S
C519 C518 1.387 . S
N520 Co511 2.022 . S
N520 C517 1.351 . S
N520 N521 1.365 . S
N521 C518 1.341 . S
N521 N520 1.365 . S
N521 H541 0.862 . S
C522 C517 1.501 . S
C522 H523 0.961 . S
C522 H524 0.961 . S
C522 H525 0.960 . S
H523 C522 0.961 . S
H524 C522 0.961 . S
H525 C522 0.960 . S
C526 N527 1.342 . S
C526 C530 1.401 . S
C526 C531 1.499 . S
N527 Co510 1.989 . S
N527 C526 1.342 . S
N527 N528 1.388 . S
N528 Co511 1.993 . S
N528 N527 1.388 . S
N528 C529 1.346 . S
C529 N528 1.346 . S
C529 C530 1.396 . S
C529 C539 1.510 . S
C530 C526 1.401 . S
C530 C529 1.396 . S
C531 C526 1.499 . S
C531 H532 0.959 . S
C531 H533 0.960 . S
C531 H534 0.961 . S
H532 C531 0.959 . S
H533 C531 0.960 . S
H534 C531 0.961 . S
O535 Co510 1.967 . S
O535 C543 1.258 . S
O536 Co511 1.941 . S
O536 C543 1.266 . S
H537 C539 0.959 . S
H538 C539 0.961 . S
C539 C529 1.510 . S
C539 H537 0.959 . S
C539 H538 0.961 . S
C539 H540 0.960 . S
H540 C539 0.960 . S
H541 N521 0.862 . S
O542 Co510 1.920 . S
O542 C515 1.289 . S
C543 O535 1.258 . S
C543 O536 1.266 . S
Co544 O547 1.970 . S
Co544 N561 1.989 . S
Co544 O569 1.967 . S
Co544 O576 1.920 . S
Co545 O548 1.966 . S
Co545 N554 2.022 . S
Co545 N562 1.993 . S
Co545 O570 1.941 . S
C546 O547 1.258 . S
C546 O548 1.263 . S
O547 Co544 1.970 . S
O547 C546 1.258 . S
O548 Co545 1.966 . S
O548 C546 1.263 . S
C549 O550 1.235 . S
C549 O576 1.289 . S
O550 C549 1.235 . S
C551 C553 1.400 . S
C551 N554 1.351 . S
C551 C556 1.501 . S
C552 C553 1.387 . S
C552 N555 1.341 . S
C553 C551 1.400 . S
C553 C552 1.387 . S
N554 Co545 2.022 . S
N554 C551 1.351 . S
N554 N555 1.365 . S
N555 C552 1.341 . S
N555 N554 1.365 . S
N555 H575 0.862 . S
C556 C551 1.501 . S
C556 H557 0.961 . S
C556 H558 0.961 . S
C556 H559 0.960 . S
H557 C556 0.961 . S
H558 C556 0.961 . S
H559 C556 0.960 . S
C560 N561 1.342 . S
C560 C564 1.401 . S
C560 C565 1.499 . S
N561 Co544 1.989 . S
N561 C560 1.342 . S
N561 N562 1.388 . S
N562 Co545 1.993 . S
N562 N561 1.388 . S
N562 C563 1.346 . S
C563 N562 1.346 . S
C563 C564 1.396 . S
C563 C573 1.510 . S
C564 C560 1.401 . S
C564 C563 1.396 . S
C565 C560 1.499 . S
C565 H566 0.959 . S
C565 H567 0.960 . S
C565 H568 0.961 . S
H566 C565 0.959 . S
H567 C565 0.960 . S
H568 C565 0.961 . S
O569 Co544 1.967 . S
O569 C577 1.258 . S
O570 Co545 1.941 . S
O570 C577 1.266 . S
H571 C573 0.959 . S
H572 C573 0.961 . S
C573 C563 1.510 . S
C573 H571 0.959 . S
C573 H572 0.961 . S
C573 H574 0.960 . S
H574 C573 0.960 . S
H575 N555 0.862 . S
O576 Co544 1.920 . S
O576 C549 1.289 . S
C577 O569 1.258 . S
C577 O570 1.266 . S
Co578 O581 1.970 . S
Co578 N595 1.989 . S
Co578 O603 1.967 . S
Co578 O610 1.920 . S
Co579 O582 1.966 . S
Co579 N588 2.022 . S
Co579 N596 1.993 . S
Co579 O604 1.941 . S
C580 O581 1.258 . S
C580 O582 1.263 . S
O581 Co578 1.970 . S
O581 C580 1.258 . S
O582 Co579 1.966 . S
O582 C580 1.263 . S
C583 O584 1.235 . S
C583 O610 1.289 . S
O584 C583 1.235 . S
C585 C587 1.400 . S
C585 N588 1.351 . S
C585 C590 1.501 . S
C586 C587 1.387 . S
C586 N589 1.341 . S
C587 C585 1.400 . S
C587 C586 1.387 . S
N588 Co579 2.022 . S
N588 C585 1.351 . S
N588 N589 1.365 . S
N589 C586 1.341 . S
N589 N588 1.365 . S
N589 H609 0.862 . S
C590 C585 1.501 . S
C590 H591 0.961 . S
C590 H592 0.961 . S
C590 H593 0.960 . S
H591 C590 0.961 . S
H592 C590 0.961 . S
H593 C590 0.960 . S
C594 N595 1.342 . S
C594 C598 1.401 . S
C594 C599 1.499 . S
N595 Co578 1.989 . S
N595 C594 1.342 . S
N595 N596 1.388 . S
N596 Co579 1.993 . S
N596 N595 1.388 . S
N596 C597 1.346 . S
C597 N596 1.346 . S
C597 C598 1.396 . S
C597 C607 1.510 . S
C598 C594 1.401 . S
C598 C597 1.396 . S
C599 C594 1.499 . S
C599 H600 0.959 . S
C599 H601 0.960 . S
C599 H602 0.961 . S
H600 C599 0.959 . S
H601 C599 0.960 . S
H602 C599 0.961 . S
O603 Co578 1.967 . S
O603 C611 1.258 . S
O604 Co579 1.941 . S
O604 C611 1.266 . S
H605 C607 0.959 . S
H606 C607 0.961 . S
C607 C597 1.510 . S
C607 H605 0.959 . S
C607 H606 0.961 . S
C607 H608 0.960 . S
H608 C607 0.960 . S
H609 N589 0.862 . S
O610 Co578 1.920 . S
O610 C583 1.289 . S
C611 O603 1.258 . S
C611 O604 1.266 . S
Co612 O615 1.970 . S
Co612 N629 1.989 . S
Co612 O637 1.967 . S
Co612 O644 1.920 . S
Co613 O616 1.966 . S
Co613 N622 2.022 . S
Co613 N630 1.993 . S
Co613 O638 1.941 . S
C614 O615 1.258 . S
C614 O616 1.263 . S
O615 Co612 1.970 . S
O615 C614 1.258 . S
O616 Co613 1.966 . S
O616 C614 1.263 . S
C617 O618 1.235 . S
C617 O644 1.289 . S
O618 C617 1.235 . S
C619 C621 1.400 . S
C619 N622 1.351 . S
C619 C624 1.501 . S
C620 C621 1.387 . S
C620 N623 1.341 . S
C621 C619 1.400 . S
C621 C620 1.387 . S
N622 Co613 2.022 . S
N622 C619 1.351 . S
N622 N623 1.365 . S
N623 C620 1.341 . S
N623 N622 1.365 . S
N623 H643 0.862 . S
C624 C619 1.501 . S
C624 H625 0.961 . S
C624 H626 0.961 . S
C624 H627 0.960 . S
H625 C624 0.961 . S
H626 C624 0.961 . S
H627 C624 0.960 . S
C628 N629 1.342 . S
C628 C632 1.401 . S
C628 C633 1.499 . S
N629 Co612 1.989 . S
N629 C628 1.342 . S
N629 N630 1.388 . S
N630 Co613 1.993 . S
N630 N629 1.388 . S
N630 C631 1.346 . S
C631 N630 1.346 . S
C631 C632 1.396 . S
C631 C641 1.510 . S
C632 C628 1.401 . S
C632 C631 1.396 . S
C633 C628 1.499 . S
C633 H634 0.959 . S
C633 H635 0.960 . S
C633 H636 0.961 . S
H634 C633 0.959 . S
H635 C633 0.960 . S
H636 C633 0.961 . S
O637 Co612 1.967 . S
O637 C645 1.258 . S
O638 Co613 1.941 . S
O638 C645 1.266 . S
H639 C641 0.959 . S
H640 C641 0.961 . S
C641 C631 1.510 . S
C641 H639 0.959 . S
C641 H640 0.961 . S
C641 H642 0.960 . S
H642 C641 0.960 . S
H643 N623 0.862 . S
O644 Co612 1.920 . S
O644 C617 1.289 . S
C645 O637 1.258 . S
C645 O638 1.266 . S
Co646 O649 1.970 . S
Co646 N663 1.989 . S
Co646 O671 1.967 . S
Co646 O678 1.920 . S
Co647 O650 1.966 . S
Co647 N656 2.022 . S
Co647 N664 1.993 . S
Co647 O672 1.941 . S
C648 O649 1.258 . S
C648 O650 1.263 . S
O649 Co646 1.970 . S
O649 C648 1.258 . S
O650 Co647 1.966 . S
O650 C648 1.263 . S
C651 O652 1.235 . S
C651 O678 1.289 . S
O652 C651 1.235 . S
C653 C655 1.400 . S
C653 N656 1.351 . S
C653 C658 1.501 . S
C654 C655 1.387 . S
C654 N657 1.341 . S
C655 C653 1.400 . S
C655 C654 1.387 . S
N656 Co647 2.022 . S
N656 C653 1.351 . S
N656 N657 1.365 . S
N657 C654 1.341 . S
N657 N656 1.365 . S
N657 H677 0.862 . S
C658 C653 1.501 . S
C658 H659 0.961 . S
C658 H660 0.961 . S
C658 H661 0.960 . S
H659 C658 0.961 . S
H660 C658 0.961 . S
H661 C658 0.960 . S
C662 N663 1.342 . S
C662 C666 1.401 . S
C662 C667 1.499 . S
N663 Co646 1.989 . S
N663 C662 1.342 . S
N663 N664 1.388 . S
N664 Co647 1.993 . S
N664 N663 1.388 . S
N664 C665 1.346 . S
C665 N664 1.346 . S
C665 C666 1.396 . S
C665 C675 1.510 . S
C666 C662 1.401 . S
C666 C665 1.396 . S
C667 C662 1.499 . S
C667 H668 0.959 . S
C667 H669 0.960 . S
C667 H670 0.961 . S
H668 C667 0.959 . S
H669 C667 0.960 . S
H670 C667 0.961 . S
O671 Co646 1.967 . S
O671 C679 1.258 . S
O672 Co647 1.941 . S
O672 C679 1.266 . S
H673 C675 0.959 . S
H674 C675 0.961 . S
C675 C665 1.510 . S
C675 H673 0.959 . S
C675 H674 0.961 . S
C675 H676 0.960 . S
H676 C675 0.960 . S
H677 N657 0.862 . S
O678 Co646 1.920 . S
O678 C651 1.289 . S
C679 O671 1.258 . S
C679 O672 1.266 . S
Co680 O683 1.970 . S
Co680 N697 1.989 . S
Co680 O705 1.967 . S
Co680 O712 1.920 . S
Co681 O684 1.966 . S
Co681 N690 2.022 . S
Co681 N698 1.993 . S
Co681 O706 1.941 . S
C682 O683 1.258 . S
C682 O684 1.263 . S
O683 Co680 1.970 . S
O683 C682 1.258 . S
O684 Co681 1.966 . S
O684 C682 1.263 . S
C685 O686 1.235 . S
C685 O712 1.289 . S
O686 C685 1.235 . S
C687 C689 1.400 . S
C687 N690 1.351 . S
C687 C692 1.501 . S
C688 C689 1.387 . S
C688 N691 1.341 . S
C689 C687 1.400 . S
C689 C688 1.387 . S
N690 Co681 2.022 . S
N690 C687 1.351 . S
N690 N691 1.365 . S
N691 C688 1.341 . S
N691 N690 1.365 . S
N691 H711 0.862 . S
C692 C687 1.501 . S
C692 H693 0.961 . S
C692 H694 0.961 . S
C692 H695 0.960 . S
H693 C692 0.961 . S
H694 C692 0.961 . S
H695 C692 0.960 . S
C696 N697 1.342 . S
C696 C700 1.401 . S
C696 C701 1.499 . S
N697 Co680 1.989 . S
N697 C696 1.342 . S
N697 N698 1.388 . S
N698 Co681 1.993 . S
N698 N697 1.388 . S
N698 C699 1.346 . S
C699 N698 1.346 . S
C699 C700 1.396 . S
C699 C709 1.510 . S
C700 C696 1.401 . S
C700 C699 1.396 . S
C701 C696 1.499 . S
C701 H702 0.959 . S
C701 H703 0.960 . S
C701 H704 0.961 . S
H702 C701 0.959 . S
H703 C701 0.960 . S
H704 C701 0.961 . S
O705 Co680 1.967 . S
O705 C713 1.258 . S
O706 Co681 1.941 . S
O706 C713 1.266 . S
H707 C709 0.959 . S
H708 C709 0.961 . S
C709 C699 1.510 . S
C709 H707 0.959 . S
C709 H708 0.961 . S
C709 H710 0.960 . S
H710 C709 0.960 . S
H711 N691 0.862 . S
O712 Co680 1.920 . S
O712 C685 1.289 . S
C713 O705 1.258 . S
C713 O706 1.266 . S
Co714 O717 1.970 . S
Co714 N731 1.989 . S
Co714 O739 1.967 . S
Co714 O746 1.920 . S
Co715 O718 1.966 . S
Co715 N724 2.022 . S
Co715 N732 1.993 . S
Co715 O740 1.941 . S
C716 O717 1.258 . S
C716 O718 1.263 . S
O717 Co714 1.970 . S
O717 C716 1.258 . S
O718 Co715 1.966 . S
O718 C716 1.263 . S
C719 O720 1.235 . S
C719 O746 1.289 . S
O720 C719 1.235 . S
C721 C723 1.400 . S
C721 N724 1.351 . S
C721 C726 1.501 . S
C722 C723 1.387 . S
C722 N725 1.341 . S
C723 C721 1.400 . S
C723 C722 1.387 . S
N724 Co715 2.022 . S
N724 C721 1.351 . S
N724 N725 1.365 . S
N725 C722 1.341 . S
N725 N724 1.365 . S
N725 H745 0.862 . S
C726 C721 1.501 . S
C726 H727 0.961 . S
C726 H728 0.961 . S
C726 H729 0.960 . S
H727 C726 0.961 . S
H728 C726 0.961 . S
H729 C726 0.960 . S
C730 N731 1.342 . S
C730 C734 1.401 . S
C730 C735 1.499 . S
N731 Co714 1.989 . S
N731 C730 1.342 . S
N731 N732 1.388 . S
N732 Co715 1.993 . S
N732 N731 1.388 . S
N732 C733 1.346 . S
C733 N732 1.346 . S
C733 C734 1.396 . S
C733 C743 1.510 . S
C734 C730 1.401 . S
C734 C733 1.396 . S
C735 C730 1.499 . S
C735 H736 0.959 . S
C735 H737 0.960 . S
C735 H738 0.961 . S
H736 C735 0.959 . S
H737 C735 0.960 . S
H738 C735 0.961 . S
O739 Co714 1.967 . S
O739 C747 1.258 . S
O740 Co715 1.941 . S
O740 C747 1.266 . S
H741 C743 0.959 . S
H742 C743 0.961 . S
C743 C733 1.510 . S
C743 H741 0.959 . S
C743 H742 0.961 . S
C743 H744 0.960 . S
H744 C743 0.960 . S
H745 N725 0.862 . S
O746 Co714 1.920 . S
O746 C719 1.289 . S
C747 O739 1.258 . S
C747 O740 1.266 . S
Co748 O751 1.970 . S
Co748 N765 1.989 . S
Co748 O773 1.967 . S
Co748 O780 1.920 . S
Co749 O752 1.966 . S
Co749 N758 2.022 . S
Co749 N766 1.993 . S
Co749 O774 1.941 . S
C750 O751 1.258 . S
C750 O752 1.263 . S
O751 Co748 1.970 . S
O751 C750 1.258 . S
O752 Co749 1.966 . S
O752 C750 1.263 . S
C753 O754 1.235 . S
C753 O780 1.289 . S
O754 C753 1.235 . S
C755 C757 1.400 . S
C755 N758 1.351 . S
C755 C760 1.501 . S
C756 C757 1.387 . S
C756 N759 1.341 . S
C757 C755 1.400 . S
C757 C756 1.387 . S
N758 Co749 2.022 . S
N758 C755 1.351 . S
N758 N759 1.365 . S
N759 C756 1.341 . S
N759 N758 1.365 . S
N759 H779 0.862 . S
C760 C755 1.501 . S
C760 H761 0.961 . S
C760 H762 0.961 . S
C760 H763 0.960 . S
H761 C760 0.961 . S
H762 C760 0.961 . S
H763 C760 0.960 . S
C764 N765 1.342 . S
C764 C768 1.401 . S
C764 C769 1.499 . S
N765 Co748 1.989 . S
N765 C764 1.342 . S
N765 N766 1.388 . S
N766 Co749 1.993 . S
N766 N765 1.388 . S
N766 C767 1.346 . S
C767 N766 1.346 . S
C767 C768 1.396 . S
C767 C777 1.510 . S
C768 C764 1.401 . S
C768 C767 1.396 . S
C769 C764 1.499 . S
C769 H770 0.959 . S
C769 H771 0.960 . S
C769 H772 0.961 . S
H770 C769 0.959 . S
H771 C769 0.960 . S
H772 C769 0.961 . S
O773 Co748 1.967 . S
O773 C781 1.258 . S
O774 Co749 1.941 . S
O774 C781 1.266 . S
H775 C777 0.959 . S
H776 C777 0.961 . S
C777 C767 1.510 . S
C777 H775 0.959 . S
C777 H776 0.961 . S
C777 H778 0.960 . S
H778 C777 0.960 . S
H779 N759 0.862 . S
O780 Co748 1.920 . S
O780 C753 1.289 . S
C781 O773 1.258 . S
C781 O774 1.266 . S
Co782 O785 1.970 . S
Co782 N799 1.989 . S
Co782 O807 1.967 . S
Co782 O814 1.920 . S
Co783 O786 1.966 . S
Co783 N792 2.022 . S
Co783 N800 1.993 . S
Co783 O808 1.941 . S
C784 O785 1.258 . S
C784 O786 1.263 . S
O785 Co782 1.970 . S
O785 C784 1.258 . S
O786 Co783 1.966 . S
O786 C784 1.263 . S
C787 O788 1.235 . S
C787 O814 1.289 . S
O788 C787 1.235 . S
C789 C791 1.400 . S
C789 N792 1.351 . S
C789 C794 1.501 . S
C790 C791 1.387 . S
C790 N793 1.341 . S
C791 C789 1.400 . S
C791 C790 1.387 . S
N792 Co783 2.022 . S
N792 C789 1.351 . S
N792 N793 1.365 . S
N793 C790 1.341 . S
N793 N792 1.365 . S
N793 H813 0.862 . S
C794 C789 1.501 . S
C794 H795 0.961 . S
C794 H796 0.961 . S
C794 H797 0.960 . S
H795 C794 0.961 . S
H796 C794 0.961 . S
H797 C794 0.960 . S
C798 N799 1.342 . S
C798 C802 1.401 . S
C798 C803 1.499 . S
N799 Co782 1.989 . S
N799 C798 1.342 . S
N799 N800 1.388 . S
N800 Co783 1.993 . S
N800 N799 1.388 . S
N800 C801 1.346 . S
C801 N800 1.346 . S
C801 C802 1.396 . S
C801 C811 1.510 . S
C802 C798 1.401 . S
C802 C801 1.396 . S
C803 C798 1.499 . S
C803 H804 0.959 . S
C803 H805 0.960 . S
C803 H806 0.961 . S
H804 C803 0.959 . S
H805 C803 0.960 . S
H806 C803 0.961 . S
O807 Co782 1.967 . S
O807 C815 1.258 . S
O808 Co783 1.941 . S
O808 C815 1.266 . S
H809 C811 0.959 . S
H810 C811 0.961 . S
C811 C801 1.510 . S
C811 H809 0.959 . S
C811 H810 0.961 . S
C811 H812 0.960 . S
H812 C811 0.960 . S
H813 N793 0.862 . S
O814 Co782 1.920 . S
O814 C787 1.289 . S
C815 O807 1.258 . S
C815 O808 1.266 . S
H816 C822 0.930 . S
H817 C825 0.930 . S
H818 C826 0.930 . S
H819 C827 0.930 . S
H820 C830 0.930 . S
H821 C831 0.930 . S
C822 H816 0.930 . S
C822 C823 1.355 . S
C822 C824 1.415 . S
C823 C822 1.355 . S
C823 C825 1.419 . S
C824 C822 1.415 . S
C824 C829 1.425 . S
C824 C831 1.409 . S
C825 H817 0.930 . S
C825 C823 1.419 . S
C825 C826 1.362 . S
C826 H818 0.930 . S
C826 C825 1.362 . S
C826 C829 1.409 . S
C827 H819 0.930 . S
C827 C828 1.355 . S
C827 C829 1.415 . S
C828 C827 1.355 . S
C828 C830 1.419 . S
C829 C824 1.425 . S
C829 C826 1.409 . S
C829 C827 1.415 . S
C830 H820 0.930 . S
C830 C828 1.419 . S
C830 C831 1.362 . S
C831 H821 0.930 . S
C831 C824 1.409 . S
C831 C830 1.362 . S
H832 C838 0.930 . S
H833 C841 0.930 . S
H834 C842 0.930 . S
H835 C843 0.930 . S
H836 C846 0.930 . S
H837 C847 0.930 . S
C838 H832 0.930 . S
C838 C839 1.355 . S
C838 C840 1.415 . S
C839 C838 1.355 . S
C839 C841 1.419 . S
C840 C838 1.415 . S
C840 C845 1.425 . S
C840 C847 1.409 . S
C841 H833 0.930 . S
C841 C839 1.419 . S
C841 C842 1.362 . S
C842 H834 0.930 . S
C842 C841 1.362 . S
C842 C845 1.409 . S
C843 H835 0.930 . S
C843 C844 1.355 . S
C843 C845 1.415 . S
C844 C843 1.355 . S
C844 C846 1.419 . S
C845 C840 1.425 . S
C845 C842 1.409 . S
C845 C843 1.415 . S
C846 H836 0.930 . S
C846 C844 1.419 . S
C846 C847 1.362 . S
C847 H837 0.930 . S
C847 C840 1.409 . S
C847 C846 1.362 . S
H848 C854 0.930 . S
H849 C857 0.930 . S
H850 C858 0.930 . S
H851 C859 0.930 . S
H852 C862 0.930 . S
H853 C863 0.930 . S
C854 H848 0.930 . S
C854 C855 1.355 . S
C854 C856 1.415 . S
C855 C854 1.355 . S
C855 C857 1.419 . S
C856 C854 1.415 . S
C856 C861 1.425 . S
C856 C863 1.409 . S
C857 H849 0.930 . S
C857 C855 1.419 . S
C857 C858 1.362 . S
C858 H850 0.930 . S
C858 C857 1.362 . S
C858 C861 1.409 . S
C859 H851 0.930 . S
C859 C860 1.355 . S
C859 C861 1.415 . S
C860 C859 1.355 . S
C860 C862 1.419 . S
C861 C856 1.425 . S
C861 C858 1.409 . S
C861 C859 1.415 . S
C862 H852 0.930 . S
C862 C860 1.419 . S
C862 C863 1.362 . S
C863 H853 0.930 . S
C863 C856 1.409 . S
C863 C862 1.362 . S
H864 C870 0.930 . S
H865 C873 0.930 . S
H866 C874 0.930 . S
H867 C875 0.930 . S
H868 C878 0.930 . S
H869 C879 0.930 . S
C870 H864 0.930 . S
C870 C871 1.355 . S
C870 C872 1.415 . S
C871 C870 1.355 . S
C871 C873 1.419 . S
C872 C870 1.415 . S
C872 C877 1.425 . S
C872 C879 1.409 . S
C873 H865 0.930 . S
C873 C871 1.419 . S
C873 C874 1.362 . S
C874 H866 0.930 . S
C874 C873 1.362 . S
C874 C877 1.409 . S
C875 H867 0.930 . S
C875 C876 1.355 . S
C875 C877 1.415 . S
C876 C875 1.355 . S
C876 C878 1.419 . S
C877 C872 1.425 . S
C877 C874 1.409 . S
C877 C875 1.415 . S
C878 H868 0.930 . S
C878 C876 1.419 . S
C878 C879 1.362 . S
C879 H869 0.930 . S
C879 C872 1.409 . S
C879 C878 1.362 . S
H880 C886 0.930 . S
H881 C889 0.930 . S
H882 C890 0.930 . S
H883 C891 0.930 . S
H884 C894 0.930 . S
H885 C895 0.930 . S
C886 H880 0.930 . S
C886 C887 1.355 . S
C886 C888 1.415 . S
C887 C886 1.355 . S
C887 C889 1.419 . S
C888 C886 1.415 . S
C888 C893 1.425 . S
C888 C895 1.409 . S
C889 H881 0.930 . S
C889 C887 1.419 . S
C889 C890 1.362 . S
C890 H882 0.930 . S
C890 C889 1.362 . S
C890 C893 1.409 . S
C891 H883 0.930 . S
C891 C892 1.355 . S
C891 C893 1.415 . S
C892 C891 1.355 . S
C892 C894 1.419 . S
C893 C888 1.425 . S
C893 C890 1.409 . S
C893 C891 1.415 . S
C894 H884 0.930 . S
C894 C892 1.419 . S
C894 C895 1.362 . S
C895 H885 0.930 . S
C895 C888 1.409 . S
C895 C894 1.362 . S
H896 C902 0.930 . S
H897 C905 0.930 . S
H898 C906 0.930 . S
H899 C907 0.930 . S
H900 C910 0.930 . S
H901 C911 0.930 . S
C902 H896 0.930 . S
C902 C903 1.355 . S
C902 C904 1.415 . S
C903 C902 1.355 . S
C903 C905 1.419 . S
C904 C902 1.415 . S
C904 C909 1.425 . S
C904 C911 1.409 . S
C905 H897 0.930 . S
C905 C903 1.419 . S
C905 C906 1.362 . S
C906 H898 0.930 . S
C906 C905 1.362 . S
C906 C909 1.409 . S
C907 H899 0.930 . S
C907 C908 1.355 . S
C907 C909 1.415 . S
C908 C907 1.355 . S
C908 C910 1.419 . S
C909 C904 1.425 . S
C909 C906 1.409 . S
C909 C907 1.415 . S
C910 H900 0.930 . S
C910 C908 1.419 . S
C910 C911 1.362 . S
C911 H901 0.930 . S
C911 C904 1.409 . S
C911 C910 1.362 . S
H912 C918 0.930 . S
H913 C921 0.930 . S
H914 C922 0.930 . S
H915 C923 0.930 . S
H916 C926 0.930 . S
H917 C927 0.930 . S
C918 H912 0.930 . S
C918 C919 1.355 . S
C918 C920 1.415 . S
C919 C918 1.355 . S
C919 C921 1.419 . S
C920 C918 1.415 . S
C920 C925 1.425 . S
C920 C927 1.409 . S
C921 H913 0.930 . S
C921 C919 1.419 . S
C921 C922 1.362 . S
C922 H914 0.930 . S
C922 C921 1.362 . S
C922 C925 1.409 . S
C923 H915 0.930 . S
C923 C924 1.355 . S
C923 C925 1.415 . S
C924 C923 1.355 . S
C924 C926 1.419 . S
C925 C920 1.425 . S
C925 C922 1.409 . S
C925 C923 1.415 . S
C926 H916 0.930 . S
C926 C924 1.419 . S
C926 C927 1.362 . S
C927 H917 0.930 . S
C927 C920 1.409 . S
C927 C926 1.362 . S
H928 C934 0.930 . S
H929 C937 0.930 . S
H930 C938 0.930 . S
H931 C939 0.930 . S
H932 C942 0.930 . S
H933 C943 0.930 . S
C934 H928 0.930 . S
C934 C935 1.355 . S
C934 C936 1.415 . S
C935 C934 1.355 . S
C935 C937 1.419 . S
C936 C934 1.415 . S
C936 C941 1.425 . S
C936 C943 1.409 . S
C937 H929 0.930 . S
C937 C935 1.419 . S
C937 C938 1.362 . S
C938 H930 0.930 . S
C938 C937 1.362 . S
C938 C941 1.409 . S
C939 H931 0.930 . S
C939 C940 1.355 . S
C939 C941 1.415 . S
C940 C939 1.355 . S
C940 C942 1.419 . S
C941 C936 1.425 . S
C941 C938 1.409 . S
C941 C939 1.415 . S
C942 H932 0.930 . S
C942 C940 1.419 . S
C942 C943 1.362 . S
C943 H933 0.930 . S
C943 C936 1.409 . S
C943 C942 1.362 . S
H944 C950 0.930 . S
H945 C953 0.930 . S
H946 C954 0.930 . S
H947 C955 0.930 . S
H948 C958 0.930 . S
H949 C959 0.930 . S
C950 H944 0.930 . S
C950 C951 1.355 . S
C950 C952 1.415 . S
C951 C950 1.355 . S
C951 C953 1.419 . S
C952 C950 1.415 . S
C952 C957 1.425 . S
C952 C959 1.409 . S
C953 H945 0.930 . S
C953 C951 1.419 . S
C953 C954 1.362 . S
C954 H946 0.930 . S
C954 C953 1.362 . S
C954 C957 1.409 . S
C955 H947 0.930 . S
C955 C956 1.355 . S
C955 C957 1.415 . S
C956 C955 1.355 . S
C956 C958 1.419 . S
C957 C952 1.425 . S
C957 C954 1.409 . S
C957 C955 1.415 . S
C958 H948 0.930 . S
C958 C956 1.419 . S
C958 C959 1.362 . S
C959 H949 0.930 . S
C959 C952 1.409 . S
C959 C958 1.362 . S
H960 C966 0.930 . S
H961 C969 0.930 . S
H962 C970 0.930 . S
H963 C971 0.930 . S
H964 C974 0.930 . S
H965 C975 0.930 . S
C966 H960 0.930 . S
C966 C967 1.355 . S
C966 C968 1.415 . S
C967 C966 1.355 . S
C967 C969 1.419 . S
C968 C966 1.415 . S
C968 C973 1.425 . S
C968 C975 1.409 . S
C969 H961 0.930 . S
C969 C967 1.419 . S
C969 C970 1.362 . S
C970 H962 0.930 . S
C970 C969 1.362 . S
C970 C973 1.409 . S
C971 H963 0.930 . S
C971 C972 1.355 . S
C971 C973 1.415 . S
C972 C971 1.355 . S
C972 C974 1.419 . S
C973 C968 1.425 . S
C973 C970 1.409 . S
C973 C971 1.415 . S
C974 H964 0.930 . S
C974 C972 1.419 . S
C974 C975 1.362 . S
C975 H965 0.930 . S
C975 C968 1.409 . S
C975 C974 1.362 . S
H976 C982 0.930 . S
H977 C985 0.930 . S
H978 C986 0.930 . S
H979 C987 0.930 . S
H980 C990 0.930 . S
H981 C991 0.930 . S
C982 H976 0.930 . S
C982 C983 1.355 . S
C982 C984 1.415 . S
C983 C982 1.355 . S
C983 C985 1.419 . S
C984 C982 1.415 . S
C984 C989 1.425 . S
C984 C991 1.409 . S
C985 H977 0.930 . S
C985 C983 1.419 . S
C985 C986 1.362 . S
C986 H978 0.930 . S
C986 C985 1.362 . S
C986 C989 1.409 . S
C987 H979 0.930 . S
C987 C988 1.355 . S
C987 C989 1.415 . S
C988 C987 1.355 . S
C988 C990 1.419 . S
C989 C984 1.425 . S
C989 C986 1.409 . S
C989 C987 1.415 . S
C990 H980 0.930 . S
C990 C988 1.419 . S
C990 C991 1.362 . S
C991 H981 0.930 . S
C991 C984 1.409 . S
C991 C990 1.362 . S
H992 C998 0.930 . S
H993 C1001 0.930 . S
H994 C1002 0.930 . S
H995 C1003 0.930 . S
H996 C1006 0.930 . S
H997 C1007 0.930 . S
C998 H992 0.930 . S
C998 C999 1.355 . S
C998 C1000 1.415 . S
C999 C998 1.355 . S
C999 C1001 1.419 . S
C1000 C998 1.415 . S
C1000 C1005 1.425 . S
C1000 C1007 1.409 . S
C1001 H993 0.930 . S
C1001 C999 1.419 . S
C1001 C1002 1.362 . S
C1002 H994 0.930 . S
C1002 C1001 1.362 . S
C1002 C1005 1.409 . S
C1003 H995 0.930 . S
C1003 C1004 1.355 . S
C1003 C1005 1.415 . S
C1004 C1003 1.355 . S
C1004 C1006 1.419 . S
C1005 C1000 1.425 . S
C1005 C1002 1.409 . S
C1005 C1003 1.415 . S
C1006 H996 0.930 . S
C1006 C1004 1.419 . S
C1006 C1007 1.362 . S
C1007 H997 0.930 . S
C1007 C1000 1.409 . S
C1007 C1006 1.362 . S
H1008 C1014 0.930 . S
H1009 C1017 0.930 . S
H1010 C1018 0.930 . S
H1011 C1019 0.930 . S
H1012 C1022 0.930 . S
H1013 C1023 0.930 . S
C1014 H1008 0.930 . S
C1014 C1015 1.355 . S
C1014 C1016 1.415 . S
C1015 C1014 1.355 . S
C1015 C1017 1.419 . S
C1016 C1014 1.415 . S
C1016 C1021 1.425 . S
C1016 C1023 1.409 . S
C1017 H1009 0.930 . S
C1017 C1015 1.419 . S
C1017 C1018 1.362 . S
C1018 H1010 0.930 . S
C1018 C1017 1.362 . S
C1018 C1021 1.409 . S
C1019 H1011 0.930 . S
C1019 C1020 1.355 . S
C1019 C1021 1.415 . S
C1020 C1019 1.355 . S
C1020 C1022 1.419 . S
C1021 C1016 1.425 . S
C1021 C1018 1.409 . S
C1021 C1019 1.415 . S
C1022 H1012 0.930 . S
C1022 C1020 1.419 . S
C1022 C1023 1.362 . S
C1023 H1013 0.930 . S
C1023 C1016 1.409 . S
C1023 C1022 1.362 . S
H1024 C1030 0.930 . S
H1025 C1033 0.930 . S
H1026 C1034 0.930 . S
H1027 C1035 0.930 . S
H1028 C1038 0.930 . S
H1029 C1039 0.930 . S
C1030 H1024 0.930 . S
C1030 C1031 1.355 . S
C1030 C1032 1.415 . S
C1031 C1030 1.355 . S
C1031 C1033 1.419 . S
C1032 C1030 1.415 . S
C1032 C1037 1.425 . S
C1032 C1039 1.409 . S
C1033 H1025 0.930 . S
C1033 C1031 1.419 . S
C1033 C1034 1.362 . S
C1034 H1026 0.930 . S
C1034 C1033 1.362 . S
C1034 C1037 1.409 . S
C1035 H1027 0.930 . S
C1035 C1036 1.355 . S
C1035 C1037 1.415 . S
C1036 C1035 1.355 . S
C1036 C1038 1.419 . S
C1037 C1032 1.425 . S
C1037 C1034 1.409 . S
C1037 C1035 1.415 . S
C1038 H1028 0.930 . S
C1038 C1036 1.419 . S
C1038 C1039 1.362 . S
C1039 H1029 0.930 . S
C1039 C1032 1.409 . S
C1039 C1038 1.362 . S
H1040 C1046 0.930 . S
H1041 C1049 0.930 . S
H1042 C1050 0.930 . S
H1043 C1051 0.930 . S
H1044 C1054 0.930 . S
H1045 C1055 0.930 . S
C1046 H1040 0.930 . S
C1046 C1047 1.355 . S
C1046 C1048 1.415 . S
C1047 C1046 1.355 . S
C1047 C1049 1.419 . S
C1048 C1046 1.415 . S
C1048 C1053 1.425 . S
C1048 C1055 1.409 . S
C1049 H1041 0.930 . S
C1049 C1047 1.419 . S
C1049 C1050 1.362 . S
C1050 H1042 0.930 . S
C1050 C1049 1.362 . S
C1050 C1053 1.409 . S
C1051 H1043 0.930 . S
C1051 C1052 1.355 . S
C1051 C1053 1.415 . S
C1052 C1051 1.355 . S
C1052 C1054 1.419 . S
C1053 C1048 1.425 . S
C1053 C1050 1.409 . S
C1053 C1051 1.415 . S
C1054 H1044 0.930 . S
C1054 C1052 1.419 . S
C1054 C1055 1.362 . S
C1055 H1045 0.930 . S
C1055 C1048 1.409 . S
C1055 C1054 1.362 . S
H1056 C1062 0.930 . S
H1057 C1065 0.930 . S
H1058 C1066 0.930 . S
H1059 C1067 0.930 . S
H1060 C1070 0.930 . S
H1061 C1071 0.930 . S
C1062 H1056 0.930 . S
C1062 C1063 1.355 . S
C1062 C1064 1.415 . S
C1063 C1062 1.355 . S
C1063 C1065 1.419 . S
C1064 C1062 1.415 . S
C1064 C1069 1.425 . S
C1064 C1071 1.409 . S
C1065 H1057 0.930 . S
C1065 C1063 1.419 . S
C1065 C1066 1.362 . S
C1066 H1058 0.930 . S
C1066 C1065 1.362 . S
C1066 C1069 1.409 . S
C1067 H1059 0.930 . S
C1067 C1068 1.355 . S
C1067 C1069 1.415 . S
C1068 C1067 1.355 . S
C1068 C1070 1.419 . S
C1069 C1064 1.425 . S
C1069 C1066 1.409 . S
C1069 C1067 1.415 . S
C1070 H1060 0.930 . S
C1070 C1068 1.419 . S
C1070 C1071 1.362 . S
C1071 H1061 0.930 . S
C1071 C1064 1.409 . S
C1071 C1070 1.362 . S
H1072 C1078 0.930 . S
H1073 C1081 0.930 . S
H1074 C1082 0.930 . S
H1075 C1083 0.930 . S
H1076 C1086 0.930 . S
H1077 C1087 0.930 . S
C1078 H1072 0.930 . S
C1078 C1079 1.355 . S
C1078 C1080 1.415 . S
C1079 C1078 1.355 . S
C1079 C1081 1.419 . S
C1080 C1078 1.415 . S
C1080 C1085 1.425 . S
C1080 C1087 1.409 . S
C1081 H1073 0.930 . S
C1081 C1079 1.419 . S
C1081 C1082 1.362 . S
C1082 H1074 0.930 . S
C1082 C1081 1.362 . S
C1082 C1085 1.409 . S
C1083 H1075 0.930 . S
C1083 C1084 1.355 . S
C1083 C1085 1.415 . S
C1084 C1083 1.355 . S
C1084 C1086 1.419 . S
C1085 C1080 1.425 . S
C1085 C1082 1.409 . S
C1085 C1083 1.415 . S
C1086 H1076 0.930 . S
C1086 C1084 1.419 . S
C1086 C1087 1.362 . S
C1087 H1077 0.930 . S
C1087 C1080 1.409 . S
C1087 C1086 1.362 . S
H1088 C1094 0.930 . S
H1089 C1097 0.930 . S
H1090 C1098 0.930 . S
H1091 C1099 0.930 . S
H1092 C1102 0.930 . S
H1093 C1103 0.930 . S
C1094 H1088 0.930 . S
C1094 C1095 1.355 . S
C1094 C1096 1.415 . S
C1095 C1094 1.355 . S
C1095 C1097 1.419 . S
C1096 C1094 1.415 . S
C1096 C1101 1.425 . S
C1096 C1103 1.409 . S
C1097 H1089 0.930 . S
C1097 C1095 1.419 . S
C1097 C1098 1.362 . S
C1098 H1090 0.930 . S
C1098 C1097 1.362 . S
C1098 C1101 1.409 . S
C1099 H1091 0.930 . S
C1099 C1100 1.355 . S
C1099 C1101 1.415 . S
C1100 C1099 1.355 . S
C1100 C1102 1.419 . S
C1101 C1096 1.425 . S
C1101 C1098 1.409 . S
C1101 C1099 1.415 . S
C1102 H1092 0.930 . S
C1102 C1100 1.419 . S
C1102 C1103 1.362 . S
C1103 H1093 0.930 . S
C1103 C1096 1.409 . S
C1103 C1102 1.362 . S
H1104 C1110 0.930 . S
H1105 C1113 0.930 . S
H1106 C1114 0.930 . S
H1107 C1115 0.930 . S
H1108 C1118 0.930 . S
H1109 C1119 0.930 . S
C1110 H1104 0.930 . S
C1110 C1111 1.355 . S
C1110 C1112 1.415 . S
C1111 C1110 1.355 . S
C1111 C1113 1.419 . S
C1112 C1110 1.415 . S
C1112 C1117 1.425 . S
C1112 C1119 1.409 . S
C1113 H1105 0.930 . S
C1113 C1111 1.419 . S
C1113 C1114 1.362 . S
C1114 H1106 0.930 . S
C1114 C1113 1.362 . S
C1114 C1117 1.409 . S
C1115 H1107 0.930 . S
C1115 C1116 1.355 . S
C1115 C1117 1.415 . S
C1116 C1115 1.355 . S
C1116 C1118 1.419 . S
C1117 C1112 1.425 . S
C1117 C1114 1.409 . S
C1117 C1115 1.415 . S
C1118 H1108 0.930 . S
C1118 C1116 1.419 . S
C1118 C1119 1.362 . S
C1119 H1109 0.930 . S
C1119 C1112 1.409 . S
C1119 C1118 1.362 . S
H1120 C1126 0.930 . S
H1121 C1129 0.930 . S
H1122 C1130 0.930 . S
H1123 C1131 0.930 . S
H1124 C1134 0.930 . S
H1125 C1135 0.930 . S
C1126 H1120 0.930 . S
C1126 C1127 1.355 . S
C1126 C1128 1.415 . S
C1127 C1126 1.355 . S
C1127 C1129 1.419 . S
C1128 C1126 1.415 . S
C1128 C1133 1.425 . S
C1128 C1135 1.409 . S
C1129 H1121 0.930 . S
C1129 C1127 1.419 . S
C1129 C1130 1.362 . S
C1130 H1122 0.930 . S
C1130 C1129 1.362 . S
C1130 C1133 1.409 . S
C1131 H1123 0.930 . S
C1131 C1132 1.355 . S
C1131 C1133 1.415 . S
C1132 C1131 1.355 . S
C1132 C1134 1.419 . S
C1133 C1128 1.425 . S
C1133 C1130 1.409 . S
C1133 C1131 1.415 . S
C1134 H1124 0.930 . S
C1134 C1132 1.419 . S
C1134 C1135 1.362 . S
C1135 H1125 0.930 . S
C1135 C1128 1.409 . S
C1135 C1134 1.362 . S
H1136 C1142 0.930 . S
H1137 C1145 0.930 . S
H1138 C1146 0.930 . S
H1139 C1147 0.930 . S
H1140 C1150 0.930 . S
H1141 C1151 0.930 . S
C1142 H1136 0.930 . S
C1142 C1143 1.355 . S
C1142 C1144 1.415 . S
C1143 C1142 1.355 . S
C1143 C1145 1.419 . S
C1144 C1142 1.415 . S
C1144 C1149 1.425 . S
C1144 C1151 1.409 . S
C1145 H1137 0.930 . S
C1145 C1143 1.419 . S
C1145 C1146 1.362 . S
C1146 H1138 0.930 . S
C1146 C1145 1.362 . S
C1146 C1149 1.409 . S
C1147 H1139 0.930 . S
C1147 C1148 1.355 . S
C1147 C1149 1.415 . S
C1148 C1147 1.355 . S
C1148 C1150 1.419 . S
C1149 C1144 1.425 . S
C1149 C1146 1.409 . S
C1149 C1147 1.415 . S
C1150 H1140 0.930 . S
C1150 C1148 1.419 . S
C1150 C1151 1.362 . S
C1151 H1141 0.930 . S
C1151 C1144 1.409 . S
C1151 C1150 1.362 . S
H1152 C1158 0.930 . S
H1153 C1161 0.930 . S
H1154 C1162 0.930 . S
H1155 C1163 0.930 . S
H1156 C1166 0.930 . S
H1157 C1167 0.930 . S
C1158 H1152 0.930 . S
C1158 C1159 1.355 . S
C1158 C1160 1.415 . S
C1159 C1158 1.355 . S
C1159 C1161 1.419 . S
C1160 C1158 1.415 . S
C1160 C1165 1.425 . S
C1160 C1167 1.409 . S
C1161 H1153 0.930 . S
C1161 C1159 1.419 . S
C1161 C1162 1.362 . S
C1162 H1154 0.930 . S
C1162 C1161 1.362 . S
C1162 C1165 1.409 . S
C1163 H1155 0.930 . S
C1163 C1164 1.355 . S
C1163 C1165 1.415 . S
C1164 C1163 1.355 . S
C1164 C1166 1.419 . S
C1165 C1160 1.425 . S
C1165 C1162 1.409 . S
C1165 C1163 1.415 . S
C1166 H1156 0.930 . S
C1166 C1164 1.419 . S
C1166 C1167 1.362 . S
C1167 H1157 0.930 . S
C1167 C1160 1.409 . S
C1167 C1166 1.362 . S
H1168 C1174 0.930 . S
H1169 C1177 0.930 . S
H1170 C1178 0.930 . S
H1171 C1179 0.930 . S
H1172 C1182 0.930 . S
H1173 C1183 0.930 . S
C1174 H1168 0.930 . S
C1174 C1175 1.355 . S
C1174 C1176 1.415 . S
C1175 C1174 1.355 . S
C1175 C1177 1.419 . S
C1176 C1174 1.415 . S
C1176 C1181 1.425 . S
C1176 C1183 1.409 . S
C1177 H1169 0.930 . S
C1177 C1175 1.419 . S
C1177 C1178 1.362 . S
C1178 H1170 0.930 . S
C1178 C1177 1.362 . S
C1178 C1181 1.409 . S
C1179 H1171 0.930 . S
C1179 C1180 1.355 . S
C1179 C1181 1.415 . S
C1180 C1179 1.355 . S
C1180 C1182 1.419 . S
C1181 C1176 1.425 . S
C1181 C1178 1.409 . S
C1181 C1179 1.415 . S
C1182 H1172 0.930 . S
C1182 C1180 1.419 . S
C1182 C1183 1.362 . S
C1183 H1173 0.930 . S
C1183 C1176 1.409 . S
C1183 C1182 1.362 . S
H1184 C1190 0.930 . S
H1185 C1193 0.930 . S
H1186 C1194 0.930 . S
H1187 C1195 0.930 . S
H1188 C1198 0.930 . S
H1189 C1199 0.930 . S
C1190 H1184 0.930 . S
C1190 C1191 1.355 . S
C1190 C1192 1.415 . S
C1191 C1190 1.355 . S
C1191 C1193 1.419 . S
C1192 C1190 1.415 . S
C1192 C1197 1.425 . S
C1192 C1199 1.409 . S
C1193 H1185 0.930 . S
C1193 C1191 1.419 . S
C1193 C1194 1.362 . S
C1194 H1186 0.930 . S
C1194 C1193 1.362 . S
C1194 C1197 1.409 . S
C1195 H1187 0.930 . S
C1195 C1196 1.355 . S
C1195 C1197 1.415 . S
C1196 C1195 1.355 . S
C1196 C1198 1.419 . S
C1197 C1192 1.425 . S
C1197 C1194 1.409 . S
C1197 C1195 1.415 . S
C1198 H1188 0.930 . S
C1198 C1196 1.419 . S
C1198 C1199 1.362 . S
C1199 H1189 0.930 . S
C1199 C1192 1.409 . S
C1199 C1198 1.362 . S
H1200 C1206 0.930 . S
H1201 C1209 0.930 . S
H1202 C1210 0.930 . S
H1203 C1211 0.930 . S
H1204 C1214 0.930 . S
H1205 C1215 0.930 . S
C1206 H1200 0.930 . S
C1206 C1207 1.355 . S
C1206 C1208 1.415 . S
C1207 C1206 1.355 . S
C1207 C1209 1.419 . S
C1208 C1206 1.415 . S
C1208 C1213 1.425 . S
C1208 C1215 1.409 . S
C1209 H1201 0.930 . S
C1209 C1207 1.419 . S
C1209 C1210 1.362 . S
C1210 H1202 0.930 . S
C1210 C1209 1.362 . S
C1210 C1213 1.409 . S
C1211 H1203 0.930 . S
C1211 C1212 1.355 . S
C1211 C1213 1.415 . S
C1212 C1211 1.355 . S
C1212 C1214 1.419 . S
C1213 C1208 1.425 . S
C1213 C1210 1.409 . S
C1213 C1211 1.415 . S
C1214 H1204 0.930 . S
C1214 C1212 1.419 . S
C1214 C1215 1.362 . S
C1215 H1205 0.930 . S
C1215 C1208 1.409 . S
C1215 C1214 1.362 . S
H1216 C1222 0.930 . S
H1217 C1225 0.930 . S
H1218 C1226 0.930 . S
H1219 C1227 0.930 . S
H1220 C1230 0.930 . S
H1221 C1231 0.930 . S
C1222 H1216 0.930 . S
C1222 C1223 1.355 . S
C1222 C1224 1.415 . S
C1223 C1222 1.355 . S
C1223 C1225 1.419 . S
C1224 C1222 1.415 . S
C1224 C1229 1.425 . S
C1224 C1231 1.409 . S
C1225 H1217 0.930 . S
C1225 C1223 1.419 . S
C1225 C1226 1.362 . S
C1226 H1218 0.930 . S
C1226 C1225 1.362 . S
C1226 C1229 1.409 . S
C1227 H1219 0.930 . S
C1227 C1228 1.355 . S
C1227 C1229 1.415 . S
C1228 C1227 1.355 . S
C1228 C1230 1.419 . S
C1229 C1224 1.425 . S
C1229 C1226 1.409 . S
C1229 C1227 1.415 . S
C1230 H1220 0.930 . S
C1230 C1228 1.419 . S
C1230 C1231 1.362 . S
C1231 H1221 0.930 . S
C1231 C1224 1.409 . S
C1231 C1230 1.362 . S
H1232 C1238 0.930 . S
H1233 C1241 0.930 . S
H1234 C1242 0.930 . S
H1235 C1243 0.930 . S
H1236 C1246 0.930 . S
H1237 C1247 0.930 . S
C1238 H1232 0.930 . S
C1238 C1239 1.355 . S
C1238 C1240 1.415 . S
C1239 C1238 1.355 . S
C1239 C1241 1.419 . S
C1240 C1238 1.415 . S
C1240 C1245 1.425 . S
C1240 C1247 1.409 . S
C1241 H1233 0.930 . S
C1241 C1239 1.419 . S
C1241 C1242 1.362 . S
C1242 H1234 0.930 . S
C1242 C1241 1.362 . S
C1242 C1245 1.409 . S
C1243 H1235 0.930 . S
C1243 C1244 1.355 . S
C1243 C1245 1.415 . S
C1244 C1243 1.355 . S
C1244 C1246 1.419 . S
C1245 C1240 1.425 . S
C1245 C1242 1.409 . S
C1245 C1243 1.415 . S
C1246 H1236 0.930 . S
C1246 C1244 1.419 . S
C1246 C1247 1.362 . S
C1247 H1237 0.930 . S
C1247 C1240 1.409 . S
C1247 C1246 1.362 . S
H1248 C1254 0.930 . S
H1249 C1257 0.930 . S
H1250 C1258 0.930 . S
H1251 C1259 0.930 . S
H1252 C1262 0.930 . S
H1253 C1263 0.930 . S
C1254 H1248 0.930 . S
C1254 C1255 1.355 . S
C1254 C1256 1.415 . S
C1255 C1254 1.355 . S
C1255 C1257 1.419 . S
C1256 C1254 1.415 . S
C1256 C1261 1.425 . S
C1256 C1263 1.409 . S
C1257 H1249 0.930 . S
C1257 C1255 1.419 . S
C1257 C1258 1.362 . S
C1258 H1250 0.930 . S
C1258 C1257 1.362 . S
C1258 C1261 1.409 . S
C1259 H1251 0.930 . S
C1259 C1260 1.355 . S
C1259 C1261 1.415 . S
C1260 C1259 1.355 . S
C1260 C1262 1.419 . S
C1261 C1256 1.425 . S
C1261 C1258 1.409 . S
C1261 C1259 1.415 . S
C1262 H1252 0.930 . S
C1262 C1260 1.419 . S
C1262 C1263 1.362 . S
C1263 H1253 0.930 . S
C1263 C1256 1.409 . S
C1263 C1262 1.362 . S
H1264 C1270 0.930 . S
H1265 C1273 0.930 . S
H1266 C1274 0.930 . S
H1267 C1275 0.930 . S
H1268 C1278 0.930 . S
H1269 C1279 0.930 . S
C1270 H1264 0.930 . S
C1270 C1271 1.355 . S
C1270 C1272 1.415 . S
C1271 C1270 1.355 . S
C1271 C1273 1.419 . S
C1272 C1270 1.415 . S
C1272 C1277 1.425 . S
C1272 C1279 1.409 . S
C1273 H1265 0.930 . S
C1273 C1271 1.419 . S
C1273 C1274 1.362 . S
C1274 H1266 0.930 . S
C1274 C1273 1.362 . S
C1274 C1277 1.409 . S
C1275 H1267 0.930 . S
C1275 C1276 1.355 . S
C1275 C1277 1.415 . S
C1276 C1275 1.355 . S
C1276 C1278 1.419 . S
C1277 C1272 1.425 . S
C1277 C1274 1.409 . S
C1277 C1275 1.415 . S
C1278 H1268 0.930 . S
C1278 C1276 1.419 . S
C1278 C1279 1.362 . S
C1279 H1269 0.930 . S
C1279 C1272 1.409 . S
C1279 C1278 1.362 . S
H1280 C1286 0.930 . S
H1281 C1289 0.930 . S
H1282 C1290 0.930 . S
H1283 C1291 0.930 . S
H1284 C1294 0.930 . S
H1285 C1295 0.930 . S
C1286 H1280 0.930 . S
C1286 C1287 1.355 . S
C1286 C1288 1.415 . S
C1287 C1286 1.355 . S
C1287 C1289 1.419 . S
C1288 C1286 1.415 . S
C1288 C1293 1.425 . S
C1288 C1295 1.409 . S
C1289 H1281 0.930 . S
C1289 C1287 1.419 . S
C1289 C1290 1.362 . S
C1290 H1282 0.930 . S
C1290 C1289 1.362 . S
C1290 C1293 1.409 . S
C1291 H1283 0.930 . S
C1291 C1292 1.355 . S
C1291 C1293 1.415 . S
C1292 C1291 1.355 . S
C1292 C1294 1.419 . S
C1293 C1288 1.425 . S
C1293 C1290 1.409 . S
C1293 C1291 1.415 . S
C1294 H1284 0.930 . S
C1294 C1292 1.419 . S
C1294 C1295 1.362 . S
C1295 H1285 0.930 . S
C1295 C1288 1.409 . S
C1295 C1294 1.362 . S
H1296 C1302 0.930 . S
H1297 C1305 0.930 . S
H1298 C1306 0.930 . S
H1299 C1307 0.930 . S
H1300 C1310 0.930 . S
H1301 C1311 0.930 . S
C1302 H1296 0.930 . S
C1302 C1303 1.355 . S
C1302 C1304 1.415 . S
C1303 C1302 1.355 . S
C1303 C1305 1.419 . S
C1304 C1302 1.415 . S
C1304 C1309 1.425 . S
C1304 C1311 1.409 . S
C1305 H1297 0.930 . S
C1305 C1303 1.419 . S
C1305 C1306 1.362 . S
C1306 H1298 0.930 . S
C1306 C1305 1.362 . S
C1306 C1309 1.409 . S
C1307 H1299 0.930 . S
C1307 C1308 1.355 . S
C1307 C1309 1.415 . S
C1308 C1307 1.355 . S
C1308 C1310 1.419 . S
C1309 C1304 1.425 . S
C1309 C1306 1.409 . S
C1309 C1307 1.415 . S
C1310 H1300 0.930 . S
C1310 C1308 1.419 . S
C1310 C1311 1.362 . S
C1311 H1301 0.930 . S
C1311 C1304 1.409 . S
C1311 C1310 1.362 . S
H1312 C1318 0.930 . S
H1313 C1321 0.930 . S
H1314 C1322 0.930 . S
H1315 C1323 0.930 . S
H1316 C1326 0.930 . S
H1317 C1327 0.930 . S
C1318 H1312 0.930 . S
C1318 C1319 1.355 . S
C1318 C1320 1.415 . S
C1319 C1318 1.355 . S
C1319 C1321 1.419 . S
C1320 C1318 1.415 . S
C1320 C1325 1.425 . S
C1320 C1327 1.409 . S
C1321 H1313 0.930 . S
C1321 C1319 1.419 . S
C1321 C1322 1.362 . S
C1322 H1314 0.930 . S
C1322 C1321 1.362 . S
C1322 C1325 1.409 . S
C1323 H1315 0.930 . S
C1323 C1324 1.355 . S
C1323 C1325 1.415 . S
C1324 C1323 1.355 . S
C1324 C1326 1.419 . S
C1325 C1320 1.425 . S
C1325 C1322 1.409 . S
C1325 C1323 1.415 . S
C1326 H1316 0.930 . S
C1326 C1324 1.419 . S
C1326 C1327 1.362 . S
C1327 H1317 0.930 . S
C1327 C1320 1.409 . S
C1327 C1326 1.362 . S
H1328 C1334 0.930 . S
H1329 C1337 0.930 . S
H1330 C1338 0.930 . S
H1331 C1339 0.930 . S
H1332 C1342 0.930 . S
H1333 C1343 0.930 . S
C1334 H1328 0.930 . S
C1334 C1335 1.355 . S
C1334 C1336 1.415 . S
C1335 C1334 1.355 . S
C1335 C1337 1.419 . S
C1336 C1334 1.415 . S
C1336 C1341 1.425 . S
C1336 C1343 1.409 . S
C1337 H1329 0.930 . S
C1337 C1335 1.419 . S
C1337 C1338 1.362 . S
C1338 H1330 0.930 . S
C1338 C1337 1.362 . S
C1338 C1341 1.409 . S
C1339 H1331 0.930 . S
C1339 C1340 1.355 . S
C1339 C1341 1.415 . S
C1340 C1339 1.355 . S
C1340 C1342 1.419 . S
C1341 C1336 1.425 . S
C1341 C1338 1.409 . S
C1341 C1339 1.415 . S
C1342 H1332 0.930 . S
C1342 C1340 1.419 . S
C1342 C1343 1.362 . S
C1343 H1333 0.930 . S
C1343 C1336 1.409 . S
C1343 C1342 1.362 . S
H1344 C1350 0.930 . S
H1345 C1353 0.930 . S
H1346 C1354 0.930 . S
H1347 C1355 0.930 . S
H1348 C1358 0.930 . S
H1349 C1359 0.930 . S
C1350 H1344 0.930 . S
C1350 C1351 1.355 . S
C1350 C1352 1.415 . S
C1351 C1350 1.355 . S
C1351 C1353 1.419 . S
C1352 C1350 1.415 . S
C1352 C1357 1.425 . S
C1352 C1359 1.409 . S
C1353 H1345 0.930 . S
C1353 C1351 1.419 . S
C1353 C1354 1.362 . S
C1354 H1346 0.930 . S
C1354 C1353 1.362 . S
C1354 C1357 1.409 . S
C1355 H1347 0.930 . S
C1355 C1356 1.355 . S
C1355 C1357 1.415 . S
C1356 C1355 1.355 . S
C1356 C1358 1.419 . S
C1357 C1352 1.425 . S
C1357 C1354 1.409 . S
C1357 C1355 1.415 . S
C1358 H1348 0.930 . S
C1358 C1356 1.419 . S
C1358 C1359 1.362 . S
C1359 H1349 0.930 . S
C1359 C1352 1.409 . S
C1359 C1358 1.362 . S
H1360 C1366 0.930 . S
H1361 C1369 0.930 . S
H1362 C1370 0.930 . S
H1363 C1371 0.930 . S
H1364 C1374 0.930 . S
H1365 C1375 0.930 . S
C1366 H1360 0.930 . S
C1366 C1367 1.355 . S
C1366 C1368 1.415 . S
C1367 C1366 1.355 . S
C1367 C1369 1.419 . S
C1368 C1366 1.415 . S
C1368 C1373 1.425 . S
C1368 C1375 1.409 . S
C1369 H1361 0.930 . S
C1369 C1367 1.419 . S
C1369 C1370 1.362 . S
C1370 H1362 0.930 . S
C1370 C1369 1.362 . S
C1370 C1373 1.409 . S
C1371 H1363 0.930 . S
C1371 C1372 1.355 . S
C1371 C1373 1.415 . S
C1372 C1371 1.355 . S
C1372 C1374 1.419 . S
C1373 C1368 1.425 . S
C1373 C1370 1.409 . S
C1373 C1371 1.415 . S
C1374 H1364 0.930 . S
C1374 C1372 1.419 . S
C1374 C1375 1.362 . S
C1375 H1365 0.930 . S
C1375 C1368 1.409 . S
C1375 C1374 1.362 . S
H1376 C1382 0.930 . S
H1377 C1385 0.930 . S
H1378 C1386 0.930 . S
H1379 C1387 0.930 . S
H1380 C1390 0.930 . S
H1381 C1391 0.930 . S
C1382 H1376 0.930 . S
C1382 C1383 1.355 . S
C1382 C1384 1.415 . S
C1383 C1382 1.355 . S
C1383 C1385 1.419 . S
C1384 C1382 1.415 . S
C1384 C1389 1.425 . S
C1384 C1391 1.409 . S
C1385 H1377 0.930 . S
C1385 C1383 1.419 . S
C1385 C1386 1.362 . S
C1386 H1378 0.930 . S
C1386 C1385 1.362 . S
C1386 C1389 1.409 . S
C1387 H1379 0.930 . S
C1387 C1388 1.355 . S
C1387 C1389 1.415 . S
C1388 C1387 1.355 . S
C1388 C1390 1.419 . S
C1389 C1384 1.425 . S
C1389 C1386 1.409 . S
C1389 C1387 1.415 . S
C1390 H1380 0.930 . S
C1390 C1388 1.419 . S
C1390 C1391 1.362 . S
C1391 H1381 0.930 . S
C1391 C1384 1.409 . S
C1391 C1390 1.362 . S
H1392 C1398 0.930 . S
H1393 C1401 0.930 . S
H1394 C1402 0.930 . S
H1395 C1403 0.930 . S
H1396 C1406 0.930 . S
H1397 C1407 0.930 . S
C1398 H1392 0.930 . S
C1398 C1399 1.355 . S
C1398 C1400 1.415 . S
C1399 C1398 1.355 . S
C1399 C1401 1.419 . S
C1400 C1398 1.415 . S
C1400 C1405 1.425 . S
C1400 C1407 1.409 . S
C1401 H1393 0.930 . S
C1401 C1399 1.419 . S
C1401 C1402 1.362 . S
C1402 H1394 0.930 . S
C1402 C1401 1.362 . S
C1402 C1405 1.409 . S
C1403 H1395 0.930 . S
C1403 C1404 1.355 . S
C1403 C1405 1.415 . S
C1404 C1403 1.355 . S
C1404 C1406 1.419 . S
C1405 C1400 1.425 . S
C1405 C1402 1.409 . S
C1405 C1403 1.415 . S
C1406 H1396 0.930 . S
C1406 C1404 1.419 . S
C1406 C1407 1.362 . S
C1407 H1397 0.930 . S
C1407 C1400 1.409 . S
C1407 C1406 1.362 . S
H1408 C1414 0.930 . S
H1409 C1417 0.930 . S
H1410 C1418 0.930 . S
H1411 C1419 0.930 . S
H1412 C1422 0.930 . S
H1413 C1423 0.930 . S
C1414 H1408 0.930 . S
C1414 C1415 1.355 . S
C1414 C1416 1.415 . S
C1415 C1414 1.355 . S
C1415 C1417 1.419 . S
C1416 C1414 1.415 . S
C1416 C1421 1.425 . S
C1416 C1423 1.409 . S
C1417 H1409 0.930 . S
C1417 C1415 1.419 . S
C1417 C1418 1.362 . S
C1418 H1410 0.930 . S
C1418 C1417 1.362 . S
C1418 C1421 1.409 . S
C1419 H1411 0.930 . S
C1419 C1420 1.355 . S
C1419 C1421 1.415 . S
C1420 C1419 1.355 . S
C1420 C1422 1.419 . S
C1421 C1416 1.425 . S
C1421 C1418 1.409 . S
C1421 C1419 1.415 . S
C1422 H1412 0.930 . S
C1422 C1420 1.419 . S
C1422 C1423 1.362 . S
C1423 H1413 0.930 . S
C1423 C1416 1.409 . S
C1423 C1422 1.362 . S
H1424 C1430 0.930 . S
H1425 C1433 0.930 . S
H1426 C1434 0.930 . S
H1427 C1435 0.930 . S
H1428 C1438 0.930 . S
H1429 C1439 0.930 . S
C1430 H1424 0.930 . S
C1430 C1431 1.355 . S
C1430 C1432 1.415 . S
C1431 C1430 1.355 . S
C1431 C1433 1.419 . S
C1432 C1430 1.415 . S
C1432 C1437 1.425 . S
C1432 C1439 1.409 . S
C1433 H1425 0.930 . S
C1433 C1431 1.419 . S
C1433 C1434 1.362 . S
C1434 H1426 0.930 . S
C1434 C1433 1.362 . S
C1434 C1437 1.409 . S
C1435 H1427 0.930 . S
C1435 C1436 1.355 . S
C1435 C1437 1.415 . S
C1436 C1435 1.355 . S
C1436 C1438 1.419 . S
C1437 C1432 1.425 . S
C1437 C1434 1.409 . S
C1437 C1435 1.415 . S
C1438 H1428 0.930 . S
C1438 C1436 1.419 . S
C1438 C1439 1.362 . S
C1439 H1429 0.930 . S
C1439 C1432 1.409 . S
C1439 C1438 1.362 . S
H1440 C1446 0.930 . S
H1441 C1449 0.930 . S
H1442 C1450 0.930 . S
H1443 C1451 0.930 . S
H1444 C1454 0.930 . S
H1445 C1455 0.930 . S
C1446 H1440 0.930 . S
C1446 C1447 1.355 . S
C1446 C1448 1.415 . S
C1447 C1446 1.355 . S
C1447 C1449 1.419 . S
C1448 C1446 1.415 . S
C1448 C1453 1.425 . S
C1448 C1455 1.409 . S
C1449 H1441 0.930 . S
C1449 C1447 1.419 . S
C1449 C1450 1.362 . S
C1450 H1442 0.930 . S
C1450 C1449 1.362 . S
C1450 C1453 1.409 . S
C1451 H1443 0.930 . S
C1451 C1452 1.355 . S
C1451 C1453 1.415 . S
C1452 C1451 1.355 . S
C1452 C1454 1.419 . S
C1453 C1448 1.425 . S
C1453 C1450 1.409 . S
C1453 C1451 1.415 . S
C1454 H1444 0.930 . S
C1454 C1452 1.419 . S
C1454 C1455 1.362 . S
C1455 H1445 0.930 . S
C1455 C1448 1.409 . S
C1455 C1454 1.362 . S
H1456 C1462 0.930 . S
H1457 C1465 0.930 . S
H1458 C1466 0.930 . S
H1459 C1467 0.930 . S
H1460 C1470 0.930 . S
H1461 C1471 0.930 . S
C1462 H1456 0.930 . S
C1462 C1463 1.355 . S
C1462 C1464 1.415 . S
C1463 C1462 1.355 . S
C1463 C1465 1.419 . S
C1464 C1462 1.415 . S
C1464 C1469 1.425 . S
C1464 C1471 1.409 . S
C1465 H1457 0.930 . S
C1465 C1463 1.419 . S
C1465 C1466 1.362 . S
C1466 H1458 0.930 . S
C1466 C1465 1.362 . S
C1466 C1469 1.409 . S
C1467 H1459 0.930 . S
C1467 C1468 1.355 . S
C1467 C1469 1.415 . S
C1468 C1467 1.355 . S
C1468 C1470 1.419 . S
C1469 C1464 1.425 . S
C1469 C1466 1.409 . S
C1469 C1467 1.415 . S
C1470 H1460 0.930 . S
C1470 C1468 1.419 . S
C1470 C1471 1.362 . S
C1471 H1461 0.930 . S
C1471 C1464 1.409 . S
C1471 C1470 1.362 . S
H1472 C1478 0.930 . S
H1473 C1481 0.930 . S
H1474 C1482 0.930 . S
H1475 C1483 0.930 . S
H1476 C1486 0.930 . S
H1477 C1487 0.930 . S
C1478 H1472 0.930 . S
C1478 C1479 1.355 . S
C1478 C1480 1.415 . S
C1479 C1478 1.355 . S
C1479 C1481 1.419 . S
C1480 C1478 1.415 . S
C1480 C1485 1.425 . S
C1480 C1487 1.409 . S
C1481 H1473 0.930 . S
C1481 C1479 1.419 . S
C1481 C1482 1.362 . S
C1482 H1474 0.930 . S
C1482 C1481 1.362 . S
C1482 C1485 1.409 . S
C1483 H1475 0.930 . S
C1483 C1484 1.355 . S
C1483 C1485 1.415 . S
C1484 C1483 1.355 . S
C1484 C1486 1.419 . S
C1485 C1480 1.425 . S
C1485 C1482 1.409 . S
C1485 C1483 1.415 . S
C1486 H1476 0.930 . S
C1486 C1484 1.419 . S
C1486 C1487 1.362 . S
C1487 H1477 0.930 . S
C1487 C1480 1.409 . S
C1487 C1486 1.362 . S
H1488 C1494 0.930 . S
H1489 C1497 0.930 . S
H1490 C1498 0.930 . S
H1491 C1499 0.930 . S
H1492 C1502 0.930 . S
H1493 C1503 0.930 . S
C1494 H1488 0.930 . S
C1494 C1495 1.355 . S
C1494 C1496 1.415 . S
C1495 C1494 1.355 . S
C1495 C1497 1.419 . S
C1496 C1494 1.415 . S
C1496 C1501 1.425 . S
C1496 C1503 1.409 . S
C1497 H1489 0.930 . S
C1497 C1495 1.419 . S
C1497 C1498 1.362 . S
C1498 H1490 0.930 . S
C1498 C1497 1.362 . S
C1498 C1501 1.409 . S
C1499 H1491 0.930 . S
C1499 C1500 1.355 . S
C1499 C1501 1.415 . S
C1500 C1499 1.355 . S
C1500 C1502 1.419 . S
C1501 C1496 1.425 . S
C1501 C1498 1.409 . S
C1501 C1499 1.415 . S
C1502 H1492 0.930 . S
C1502 C1500 1.419 . S
C1502 C1503 1.362 . S
C1503 H1493 0.930 . S
C1503 C1496 1.409 . S
C1503 C1502 1.362 . S
H1504 C1510 0.930 . S
H1505 C1513 0.930 . S
H1506 C1514 0.930 . S
H1507 C1515 0.930 . S
H1508 C1518 0.930 . S
H1509 C1519 0.930 . S
C1510 H1504 0.930 . S
C1510 C1511 1.355 . S
C1510 C1512 1.415 . S
C1511 C1510 1.355 . S
C1511 C1513 1.419 . S
C1512 C1510 1.415 . S
C1512 C1517 1.425 . S
C1512 C1519 1.409 . S
C1513 H1505 0.930 . S
C1513 C1511 1.419 . S
C1513 C1514 1.362 . S
C1514 H1506 0.930 . S
C1514 C1513 1.362 . S
C1514 C1517 1.409 . S
C1515 H1507 0.930 . S
C1515 C1516 1.355 . S
C1515 C1517 1.415 . S
C1516 C1515 1.355 . S
C1516 C1518 1.419 . S
C1517 C1512 1.425 . S
C1517 C1514 1.409 . S
C1517 C1515 1.415 . S
C1518 H1508 0.930 . S
C1518 C1516 1.419 . S
C1518 C1519 1.362 . S
C1519 H1509 0.930 . S
C1519 C1512 1.409 . S
C1519 C1518 1.362 . S
H1520 C1526 0.930 . S
H1521 C1529 0.930 . S
H1522 C1530 0.930 . S
H1523 C1531 0.930 . S
H1524 C1534 0.930 . S
H1525 C1535 0.930 . S
C1526 H1520 0.930 . S
C1526 C1527 1.355 . S
C1526 C1528 1.415 . S
C1527 C1526 1.355 . S
C1527 C1529 1.419 . S
C1528 C1526 1.415 . S
C1528 C1533 1.425 . S
C1528 C1535 1.409 . S
C1529 H1521 0.930 . S
C1529 C1527 1.419 . S
C1529 C1530 1.362 . S
C1530 H1522 0.930 . S
C1530 C1529 1.362 . S
C1530 C1533 1.409 . S
C1531 H1523 0.930 . S
C1531 C1532 1.355 . S
C1531 C1533 1.415 . S
C1532 C1531 1.355 . S
C1532 C1534 1.419 . S
C1533 C1528 1.425 . S
C1533 C1530 1.409 . S
C1533 C1531 1.415 . S
C1534 H1524 0.930 . S
C1534 C1532 1.419 . S
C1534 C1535 1.362 . S
C1535 H1525 0.930 . S
C1535 C1528 1.409 . S
C1535 C1534 1.362 . S
H1536 C1542 0.930 . S
H1537 C1545 0.930 . S
H1538 C1546 0.930 . S
H1539 C1547 0.930 . S
H1540 C1550 0.930 . S
H1541 C1551 0.930 . S
C1542 H1536 0.930 . S
C1542 C1543 1.355 . S
C1542 C1544 1.415 . S
C1543 C1542 1.355 . S
C1543 C1545 1.419 . S
C1544 C1542 1.415 . S
C1544 C1549 1.425 . S
C1544 C1551 1.409 . S
C1545 H1537 0.930 . S
C1545 C1543 1.419 . S
C1545 C1546 1.362 . S
C1546 H1538 0.930 . S
C1546 C1545 1.362 . S
C1546 C1549 1.409 . S
C1547 H1539 0.930 . S
C1547 C1548 1.355 . S
C1547 C1549 1.415 . S
C1548 C1547 1.355 . S
C1548 C1550 1.419 . S
C1549 C1544 1.425 . S
C1549 C1546 1.409 . S
C1549 C1547 1.415 . S
C1550 H1540 0.930 . S
C1550 C1548 1.419 . S
C1550 C1551 1.362 . S
C1551 H1541 0.930 . S
C1551 C1544 1.409 . S
C1551 C1550 1.362 . S
H1552 C1558 0.930 . S
H1553 C1561 0.930 . S
H1554 C1562 0.930 . S
H1555 C1563 0.930 . S
H1556 C1566 0.930 . S
H1557 C1567 0.930 . S
C1558 H1552 0.930 . S
C1558 C1559 1.355 . S
C1558 C1560 1.415 . S
C1559 C1558 1.355 . S
C1559 C1561 1.419 . S
C1560 C1558 1.415 . S
C1560 C1565 1.425 . S
C1560 C1567 1.409 . S
C1561 H1553 0.930 . S
C1561 C1559 1.419 . S
C1561 C1562 1.362 . S
C1562 H1554 0.930 . S
C1562 C1561 1.362 . S
C1562 C1565 1.409 . S
C1563 H1555 0.930 . S
C1563 C1564 1.355 . S
C1563 C1565 1.415 . S
C1564 C1563 1.355 . S
C1564 C1566 1.419 . S
C1565 C1560 1.425 . S
C1565 C1562 1.409 . S
C1565 C1563 1.415 . S
C1566 H1556 0.930 . S
C1566 C1564 1.419 . S
C1566 C1567 1.362 . S
C1567 H1557 0.930 . S
C1567 C1560 1.409 . S
C1567 C1566 1.362 . S
H1568 C1574 0.930 . S
H1569 C1577 0.930 . S
H1570 C1578 0.930 . S
H1571 C1579 0.930 . S
H1572 C1582 0.930 . S
H1573 C1583 0.930 . S
C1574 H1568 0.930 . S
C1574 C1575 1.355 . S
C1574 C1576 1.415 . S
C1575 C1574 1.355 . S
C1575 C1577 1.419 . S
C1576 C1574 1.415 . S
C1576 C1581 1.425 . S
C1576 C1583 1.409 . S
C1577 H1569 0.930 . S
C1577 C1575 1.419 . S
C1577 C1578 1.362 . S
C1578 H1570 0.930 . S
C1578 C1577 1.362 . S
C1578 C1581 1.409 . S
C1579 H1571 0.930 . S
C1579 C1580 1.355 . S
C1579 C1581 1.415 . S
C1580 C1579 1.355 . S
C1580 C1582 1.419 . S
C1581 C1576 1.425 . S
C1581 C1578 1.409 . S
C1581 C1579 1.415 . S
C1582 H1572 0.930 . S
C1582 C1580 1.419 . S
C1582 C1583 1.362 . S
C1583 H1573 0.930 . S
C1583 C1576 1.409 . S
C1583 C1582 1.362 . S
H1584 C1590 0.930 . S
H1585 C1593 0.930 . S
H1586 C1594 0.930 . S
H1587 C1595 0.930 . S
H1588 C1598 0.930 . S
H1589 C1599 0.930 . S
C1590 H1584 0.930 . S
C1590 C1591 1.355 . S
C1590 C1592 1.415 . S
C1591 C1590 1.355 . S
C1591 C1593 1.419 . S
C1592 C1590 1.415 . S
C1592 C1597 1.425 . S
C1592 C1599 1.409 1_455 S
C1593 H1585 0.930 . S
C1593 C1591 1.419 . S
C1593 C1594 1.362 . S
C1594 H1586 0.930 . S
C1594 C1593 1.362 . S
C1594 C1597 1.409 . S
C1595 H1587 0.930 . S
C1595 C1596 1.355 . S
C1595 C1597 1.415 . S
C1596 C1595 1.355 . S
C1596 C1598 1.419 1_455 S
C1597 C1592 1.425 . S
C1597 C1594 1.409 . S
C1597 C1595 1.415 . S
C1598 H1588 0.930 . S
C1598 C1596 1.419 1_655 S
C1598 C1599 1.362 . S
C1599 H1589 0.930 . S
C1599 C1592 1.409 1_655 S
C1599 C1598 1.362 . S
H1600 C1606 0.930 . S
H1601 C1609 0.930 . S
H1602 C1610 0.930 . S
H1603 C1611 0.930 . S
H1604 C1614 0.930 . S
H1605 C1615 0.930 . S
C1606 H1600 0.930 . S
C1606 C1607 1.355 . S
C1606 C1608 1.415 . S
C1607 C1606 1.355 . S
C1607 C1609 1.419 1_455 S
C1608 C1606 1.415 . S
C1608 C1613 1.425 1_455 S
C1608 C1615 1.409 . S
C1609 H1601 0.930 . S
C1609 C1607 1.419 1_655 S
C1609 C1610 1.362 . S
C1610 H1602 0.930 . S
C1610 C1609 1.362 . S
C1610 C1613 1.409 . S
C1611 H1603 0.930 . S
C1611 C1612 1.355 1_655 S
C1611 C1613 1.415 . S
C1612 C1611 1.355 1_455 S
C1612 C1614 1.419 . S
C1613 C1608 1.425 1_655 S
C1613 C1610 1.409 . S
C1613 C1611 1.415 . S
C1614 H1604 0.930 . S
C1614 C1612 1.419 . S
C1614 C1615 1.362 . S
C1615 H1605 0.930 . S
C1615 C1608 1.409 . S
C1615 C1614 1.362 . S
H1616 C1622 0.930 . S
H1617 C1625 0.930 . S
H1618 C1626 0.930 . S
H1619 C1627 0.930 . S
H1620 C1630 0.930 . S
H1621 C1631 0.930 . S
C1622 H1616 0.930 . S
C1622 C1623 1.355 . S
C1622 C1624 1.415 . S
C1623 C1622 1.355 . S
C1623 C1625 1.419 1_545 S
C1624 C1622 1.415 . S
C1624 C1629 1.425 1_545 S
C1624 C1631 1.409 . S
C1625 H1617 0.930 . S
C1625 C1623 1.419 1_565 S
C1625 C1626 1.362 . S
C1626 H1618 0.930 . S
C1626 C1625 1.362 . S
C1626 C1629 1.409 . S
C1627 H1619 0.930 . S
C1627 C1628 1.355 1_565 S
C1627 C1629 1.415 . S
C1628 C1627 1.355 1_545 S
C1628 C1630 1.419 . S
C1629 C1624 1.425 1_565 S
C1629 C1626 1.409 . S
C1629 C1627 1.415 . S
C1630 H1620 0.930 . S
C1630 C1628 1.419 . S
C1630 C1631 1.362 . S
C1631 H1621 0.930 . S
C1631 C1624 1.409 . S
C1631 C1630 1.362 . S
H1632 C1638 0.930 . S
H1633 C1641 0.930 . S
H1634 C1642 0.930 . S
H1635 C1643 0.930 . S
H1636 C1646 0.930 . S
H1637 C1647 0.930 . S
C1638 H1632 0.930 . S
C1638 C1639 1.355 . S
C1638 C1640 1.415 . S
C1639 C1638 1.355 . S
C1639 C1641 1.419 1_545 S
C1640 C1638 1.415 . S
C1640 C1645 1.425 1_545 S
C1640 C1647 1.409 . S
C1641 H1633 0.930 . S
C1641 C1639 1.419 1_565 S
C1641 C1642 1.362 . S
C1642 H1634 0.930 . S
C1642 C1641 1.362 . S
C1642 C1645 1.409 . S
C1643 H1635 0.930 . S
C1643 C1644 1.355 1_565 S
C1643 C1645 1.415 . S
C1644 C1643 1.355 1_545 S
C1644 C1646 1.419 . S
C1645 C1640 1.425 1_565 S
C1645 C1642 1.409 . S
C1645 C1643 1.415 . S
C1646 H1636 0.930 . S
C1646 C1644 1.419 . S
C1646 C1647 1.362 . S
C1647 H1637 0.930 . S
C1647 C1640 1.409 . S
C1647 C1646 1.362 . S
H1648 C1654 0.903 1_556 S
H1649 C1657 0.930 . S
H1650 C1658 0.930 . S
H1651 C1659 0.930 . S
H1652 C1662 0.930 . S
H1653 C1663 0.930 . S
C1654 H1648 0.903 1_554 S
C1654 C1655 1.382 . S
C1654 C1656 1.414 . S
C1655 C1654 1.382 . S
C1655 C1657 1.419 . S
C1656 C1654 1.414 . S
C1656 C1661 1.430 . S
C1656 C1663 1.405 1_554 S
C1657 H1649 0.930 . S
C1657 C1655 1.419 . S
C1657 C1658 1.362 . S
C1658 H1650 0.930 . S
C1658 C1657 1.362 . S
C1658 C1661 1.409 . S
C1659 H1651 0.930 . S
C1659 C1660 1.355 . S
C1659 C1661 1.415 . S
C1660 C1659 1.355 . S
C1660 C1662 1.419 1_554 S
C1661 C1656 1.430 . S
C1661 C1658 1.409 . S
C1661 C1659 1.415 . S
C1662 H1652 0.930 . S
C1662 C1660 1.419 1_556 S
C1662 C1663 1.362 . S
C1663 H1653 0.930 . S
C1663 C1656 1.405 1_556 S
C1663 C1662 1.362 . S
H1664 C1670 0.930 . S
H1665 C1673 0.930 . S
H1666 C1674 0.930 . S
H1667 C1675 0.930 . S
H1668 C1678 0.930 . S
H1669 C1679 0.930 . S
C1670 H1664 0.930 . S
C1670 C1671 1.355 . S
C1670 C1672 1.415 . S
C1671 C1670 1.355 . S
C1671 C1673 1.419 1_554 S
C1672 C1670 1.415 . S
C1672 C1677 1.425 1_554 S
C1672 C1679 1.409 . S
C1673 H1665 0.930 . S
C1673 C1671 1.419 1_556 S
C1673 C1674 1.362 . S
C1674 H1666 0.930 . S
C1674 C1673 1.362 . S
C1674 C1677 1.409 . S
C1675 H1667 0.930 . S
C1675 C1676 1.355 1_556 S
C1675 C1677 1.415 . S
C1676 C1675 1.355 1_554 S
C1676 C1678 1.419 . S
C1677 C1672 1.425 1_556 S
C1677 C1674 1.409 . S
C1677 C1675 1.415 . S
C1678 H1668 0.930 . S
C1678 C1676 1.419 . S
C1678 C1679 1.362 . S
C1679 H1669 0.930 . S
C1679 C1672 1.409 . S
C1679 C1678 1.362 . S
H1680 C1686 0.930 . S
H1681 C1689 0.930 . S
H1682 C1690 0.930 . S
H1683 C1691 0.930 . S
H1684 C1694 0.930 . S
H1685 C1695 0.930 1_545 S
C1686 H1680 0.930 . S
C1686 C1687 1.355 . S
C1686 C1688 1.415 . S
C1687 C1686 1.355 . S
C1687 C1689 1.419 . S
C1688 C1686 1.415 . S
C1688 C1693 1.425 . S
C1688 C1695 1.409 1_545 S
C1689 H1681 0.930 . S
C1689 C1687 1.419 . S
C1689 C1690 1.362 . S
C1690 H1682 0.930 . S
C1690 C1689 1.362 . S
C1690 C1693 1.409 . S
C1691 H1683 0.930 . S
C1691 C1692 1.355 . S
C1691 C1693 1.415 1_565 S
C1692 C1691 1.355 . S
C1692 C1694 1.419 . S
C1693 C1688 1.425 . S
C1693 C1690 1.409 . S
C1693 C1691 1.415 1_545 S
C1694 H1684 0.930 . S
C1694 C1692 1.419 . S
C1694 C1695 1.362 . S
C1695 H1685 0.930 1_565 S
C1695 C1688 1.409 1_565 S
C1695 C1694 1.362 . S
H1696 C1702 0.930 . S
H1697 C1705 0.930 . S
H1698 C1706 0.930 . S
H1699 C1707 0.930 . S
H1700 C1710 0.930 . S
H1701 C1711 0.930 . S
C1702 H1696 0.930 . S
C1702 C1703 1.355 . S
C1702 C1704 1.415 1_565 S
C1703 C1702 1.355 . S
C1703 C1705 1.419 . S
C1704 C1702 1.415 1_545 S
C1704 C1709 1.425 . S
C1704 C1711 1.409 . S
C1705 H1697 0.930 . S
C1705 C1703 1.419 . S
C1705 C1706 1.362 . S
C1706 H1698 0.930 . S
C1706 C1705 1.362 . S
C1706 C1709 1.409 1_565 S
C1707 H1699 0.930 . S
C1707 C1708 1.355 . S
C1707 C1709 1.415 . S
C1708 C1707 1.355 . S
C1708 C1710 1.419 . S
C1709 C1704 1.425 . S
C1709 C1706 1.409 1_545 S
C1709 C1707 1.415 . S
C1710 H1700 0.930 . S
C1710 C1708 1.419 . S
C1710 C1711 1.362 . S
C1711 H1701 0.930 . S
C1711 C1704 1.409 . S
C1711 C1710 1.362 . S
H1712 C1718 0.930 . S
H1713 C1721 0.930 . S
H1714 C1722 0.930 . S
H1715 C1723 0.930 . S
H1716 C1726 0.930 . S
H1717 C1727 0.946 . S
C1718 H1712 0.930 . S
C1718 C1719 1.355 . S
C1718 C1720 1.415 . S
C1719 C1718 1.355 . S
C1719 C1721 1.419 . S
C1720 C1718 1.415 . S
C1720 C1725 1.425 . S
C1720 C1727 1.431 . S
C1721 H1713 0.930 . S
C1721 C1719 1.419 . S
C1721 C1722 1.362 . S
C1722 H1714 0.930 . S
C1722 C1721 1.362 . S
C1722 C1725 1.409 . S
C1723 H1715 0.930 . S
C1723 C1724 1.355 . S
C1723 C1725 1.415 1_556 S
C1724 C1723 1.355 . S
C1724 C1726 1.419 . S
C1725 C1720 1.425 . S
C1725 C1722 1.409 . S
C1725 C1723 1.415 1_554 S
C1726 H1716 0.930 . S
C1726 C1724 1.419 . S
C1726 C1727 1.325 1_556 S
C1727 H1717 0.946 . S
C1727 C1720 1.431 . S
C1727 C1726 1.325 1_554 S
H1728 C1734 0.930 . S
H1729 C1737 0.930 . S
H1730 C1738 0.930 . S
H1731 C1739 0.930 . S
H1732 C1742 0.930 . S
H1733 C1743 0.930 . S
C1734 H1728 0.930 . S
C1734 C1735 1.355 . S
C1734 C1736 1.415 1_556 S
C1735 C1734 1.355 . S
C1735 C1737 1.419 . S
C1736 C1734 1.415 1_554 S
C1736 C1741 1.425 . S
C1736 C1743 1.409 . S
C1737 H1729 0.930 . S
C1737 C1735 1.419 . S
C1737 C1738 1.362 1_556 S
C1738 H1730 0.930 . S
C1738 C1737 1.362 1_554 S
C1738 C1741 1.409 . S
C1739 H1731 0.930 . S
C1739 C1740 1.355 . S
C1739 C1741 1.415 . S
C1740 C1739 1.355 . S
C1740 C1742 1.419 . S
C1741 C1736 1.425 . S
C1741 C1738 1.409 . S
C1741 C1739 1.415 . S
C1742 H1732 0.930 . S
C1742 C1740 1.419 . S
C1742 C1743 1.362 . S
C1743 H1733 0.930 . S
C1743 C1736 1.409 . S
C1743 C1742 1.362 . S
H1744 C1750 0.930 . S
H1745 C1753 0.930 . S
H1746 C1754 0.930 . S
H1747 C1755 0.930 . S
H1748 C1758 0.930 . S
H1749 C1759 0.930 . S
C1750 H1744 0.930 . S
C1750 C1751 1.355 . S
C1750 C1752 1.415 1_655 S
C1751 C1750 1.355 . S
C1751 C1753 1.419 . S
C1752 C1750 1.415 1_455 S
C1752 C1757 1.425 . S
C1752 C1759 1.409 . S
C1753 H1745 0.930 . S
C1753 C1751 1.419 . S
C1753 C1754 1.362 . S
C1754 H1746 0.930 . S
C1754 C1753 1.362 . S
C1754 C1757 1.409 1_655 S
C1755 H1747 0.930 . S
C1755 C1756 1.355 . S
C1755 C1757 1.415 . S
C1756 C1755 1.355 . S
C1756 C1758 1.419 . S
C1757 C1752 1.425 . S
C1757 C1754 1.409 1_455 S
C1757 C1755 1.415 . S
C1758 H1748 0.930 . S
C1758 C1756 1.419 . S
C1758 C1759 1.362 . S
C1759 H1749 0.930 . S
C1759 C1752 1.409 . S
C1759 C1758 1.362 . S
H1760 C1766 0.930 . S
H1761 C1769 0.930 . S
H1762 C1770 0.930 . S
H1763 C1771 0.930 . S
H1764 C1774 0.930 . S
H1765 C1775 0.930 . S
C1766 H1760 0.930 . S
C1766 C1767 1.355 . S
C1766 C1768 1.415 . S
C1767 C1766 1.355 . S
C1767 C1769 1.419 . S
C1768 C1766 1.415 . S
C1768 C1773 1.425 . S
C1768 C1775 1.409 1_455 S
C1769 H1761 0.930 . S
C1769 C1767 1.419 . S
C1769 C1770 1.362 . S
C1770 H1762 0.930 . S
C1770 C1769 1.362 . S
C1770 C1773 1.409 . S
C1771 H1763 0.930 . S
C1771 C1772 1.355 . S
C1771 C1773 1.415 1_655 S
C1772 C1771 1.355 . S
C1772 C1774 1.419 . S
C1773 C1768 1.425 . S
C1773 C1770 1.409 . S
C1773 C1771 1.415 1_455 S
C1774 H1764 0.930 . S
C1774 C1772 1.419 . S
C1774 C1775 1.362 . S
C1775 H1765 0.930 . S
C1775 C1768 1.409 1_655 S
C1775 C1774 1.362 . S
C823 C9 0.687 . S
C828 C787 0.675 . S
C839 C43 0.615 . S
C844 C685 0.669 . S
C855 C77 0.747 . S
C860 C753 0.761 . S
C871 C111 0.807 . S
C876 C719 0.738 . S
C887 C481 0.745 . S
C892 C145 0.716 . S
C903 C179 0.789 . S
C908 C515 0.779 . S
C919 C413 0.663 . S
C924 C213 0.629 . S
C935 C447 0.791 . S
C940 C247 0.832 . S
C951 C651 0.773 . S
C956 C281 0.852 . S
C967 C315 0.616 . S
C972 C583 0.668 . S
C983 C549 0.667 . S
C988 C349 0.665 . S
C999 C383 0.731 . S
C1004 C617 0.753 . S
C1015 C88 2.273 . S
C1020 C682 2.198 . S
C1031 C122 2.235 . S
C1036 C784 2.190 . S
C1047 C716 2.174 . S
C1052 C20 2.266 . S
C1063 C750 2.167 . S
C1068 C54 2.257 . S
C1079 C410 2.180 . S
C1084 C258 2.269 . S
C1095 C444 2.217 . S
C1100 C224 2.253 . S
C1111 C478 2.174 . S
C1116 C190 2.262 . S
C1127 C156 2.240 . S
C1132 C512 2.162 . S
C1143 C394 2.260 . S
C1148 C546 2.218 . S
C1159 C614 2.175 . S
C1164 C360 2.263 . S
C1175 C326 2.271 . S
C1180 C648 2.207 . S
C1191 C580 2.215 . S
C1196 C292 2.266 . S
C1207 C417 0.642 . S
C1212 C379 0.702 . S
C1223 C277 0.685 . S
C1228 C451 0.622 . S
C1239 C345 0.664 . S
C1244 C485 0.621 . S
C1255 C311 0.776 . S
C1260 C519 0.782 . S
C1271 C73 0.735 . S
C1276 C553 0.807 . S
C1287 C107 0.735 . S
C1292 C587 0.694 . S
C1303 C5 0.710 . S
C1308 C621 0.767 . S
C1319 C655 0.655 . S
C1324 C39 0.707 . S
C1335 C689 0.826 . S
C1340 C243 0.790 . S
C1351 C723 0.775 . S
C1356 C175 0.712 . S
C1367 C141 0.742 . S
C1372 C757 0.710 . S
C1383 C791 0.827 . S
C1388 C209 0.787 . S
C1399 C274 2.201 . S
C1404 C496 2.272 . S
C1415 C376 2.161 . S
C1420 C530 2.252 . S
C1431 C308 2.162 . S
C1436 C428 2.243 . S
C1447 C462 2.234 . S
C1452 C342 2.177 . S
C1463 C2 2.166 . S
C1468 C666 2.259 . S
C1479 C36 2.178 . S
C1484 C632 2.271 . S
C1495 C70 2.189 . S
C1500 C598 2.234 . S
C1511 C564 2.271 . S
C1516 C104 2.189 . S
C1527 C802 2.272 . S
C1532 C138 2.194 . S
C1543 C768 2.272 . S
C1548 C206 2.206 . S
C1559 C240 2.190 . S
C1564 C734 2.272 . S
C1575 C700 2.241 . S
C1580 C172 2.210 . S
C1591 C33 1.569 . S
C1596 C67 1.548 . S
C1607 C101 1.560 . S
C1612 C135 1.544 . S
C1623 C169 1.557 . S
C1628 C237 1.545 . S
C1639 C271 1.560 . S
C1644 C203 1.544 . S
C1655 C305 1.562 . S
C1660 C373 1.558 . S
C1671 C407 1.561 . S
C1676 C339 1.543 . S
C1687 C475 1.570 . S
C1692 C441 1.546 . S
C1703 C543 1.563 . S
C1708 C509 1.543 . S
C1719 C645 1.566 . S
C1724 C577 1.553 . S
C1735 C611 1.559 . S
C1740 C679 1.561 . S
C1751 C713 1.554 . S
C1756 C781 1.549 . S
C1767 C815 1.555 . S
C1772 C747 1.548 . S
