# Generated by pormake.
# Topology snp, (6)-cn, num edge types: 1
# Building blocks:
#     Node 0, Type 0, BuildingBlock: GEDQOX_clean_sbu_0, # of connection points: 6
#     Node 1, Type 0, BuildingBlock: GEDQOX_clean_sbu_0, # of connection points: 6
#     Node 2, Type 0, BuildingBlock: GEDQOX_clean_sbu_0, # of connection points: 6
#     Node 3, Type 0, BuildingBlock: GEDQOX_clean_sbu_0, # of connection points: 6
#     Edge 4, Type (0, 0), BuildingBlock: XIVTED_clean_linker_0, # of connection points: 2
#     Edge 5, Type (0, 0), BuildingBlock: XIVTED_clean_linker_0, # of connection points: 2
#     Edge 6, Type (0, 0), BuildingBlock: XIVTED_clean_linker_0, # of connection points: 2
#     Edge 7, Type (0, 0), BuildingBlock: XIVTED_clean_linker_0, # of connection points: 2
#     Edge 8, Type (0, 0), BuildingBlock: XIVTED_clean_linker_0, # of connection points: 2
#     Edge 9, Type (0, 0), BuildingBlock: XIVTED_clean_linker_0, # of connection points: 2
#     Edge 10, Type (0, 0), BuildingBlock: XIVTED_clean_linker_0, # of connection points: 2
#     Edge 11, Type (0, 0), BuildingBlock: XIVTED_clean_linker_0, # of connection points: 2
#     Edge 12, Type (0, 0), BuildingBlock: XIVTED_clean_linker_0, # of connection points: 2
#     Edge 13, Type (0, 0), BuildingBlock: XIVTED_clean_linker_0, # of connection points: 2
#     Edge 14, Type (0, 0), BuildingBlock: XIVTED_clean_linker_0, # of connection points: 2
#     Edge 15, Type (0, 0), BuildingBlock: XIVTED_clean_linker_0, # of connection points: 2
# Relax obj value: 0.199
# Max RMSD: 0.224
# Mean RMSD: 0.211
data_MOF--net-snp--node1-GEDQOX_clean_sbu_0--edge1-XIVTED_clean_linker_0
_symmetry_space_group_name_H-M    P1
_symmetry_Int_Tables_number       1
_symmetry_cell_setting            triclinic
loop_
_symmetry_equiv_pos_as_xyz
'x, y, z'
_cell_length_a     25.739259
_cell_length_b     25.545878
_cell_length_c     36.501513
_cell_angle_alpha  85.312965
_cell_angle_beta   104.78739
_cell_angle_gamma 97.59855
loop_
_atom_site_label
_atom_site_type_symbol
_atom_site_fract_x
_atom_site_fract_y
_atom_site_fract_z
_atom_type_partial_charge
Nd0 Nd 0.25316 0.03176 0.0886 0.0
Nd1 Nd 0.27491 0.12725 0.14177 0.0
C2 C 0.25362 0.95033 0.0482 0.0
C3 C 0.23744 0.93583 1.00801 0.0
C4 C 0.23647 0.97416 0.97798 0.0
C5 C 0.22087 0.95925 0.94015 0.0
C6 C 0.20552 0.90573 0.93152 0.0
C7 C 0.2067 0.86766 0.96183 0.0
C8 C 0.22246 0.88256 0.99954 0.0
C9 C 0.16529 0.0858 0.08342 0.0
C10 C 0.27035 0.15195 0.05374 0.0
C11 C 0.28173 0.1959 0.19384 0.0
C12 C 0.26614 0.20235 0.22948 0.0
C13 C 0.21188 0.20025 0.23112 0.0
C14 C 0.19922 0.20939 0.26511 0.0
C15 C 0.24053 0.22087 0.29812 0.0
C16 C 0.29462 0.22172 0.29636 0.0
C17 C 0.30717 0.21286 0.26251 0.0
C18 C 0.36368 0.08717 0.13135 0.0
C19 C 0.23591 0.00833 0.17447 0.0
O20 O 0.29513 -0.01339 0.05788 0.0
O21 O 0.21442 0.95511 0.06419 0.0
O22 O 0.1747 0.06494 0.05479 0.0
O23 O 0.20142 0.07593 0.11257 0.0
O24 O 0.28303 0.10335 0.05369 0.0
O25 O 0.2576 0.16911 0.08313 0.0
O26 O 0.2443 0.19441 0.16173 0.0
O27 O 0.31778 0.16342 0.19588 0.0
O28 O 0.36128 0.13741 0.13243 0.0
O29 O 0.32118 0.06092 0.13627 0.0
O30 O 0.24043 0.06007 0.17731 0.0
O31 O 0.24463 -0.01329 0.14504 0.0
H32 H 0.24754 0.01563 0.98377 0.0
H33 H 0.21991 -0.01024 0.91765 0.0
H34 H 0.19598 0.82606 0.95648 0.0
H35 H 0.22299 0.8523 1.02219 0.0
H36 H 0.17928 0.19222 0.20612 0.0
H37 H 0.15713 0.20872 0.26525 0.0
H38 H 0.32755 0.2292 0.32124 0.0
H39 H 0.34933 0.21469 0.26209 0.0
Nd40 Nd 0.09564 0.26725 0.70096 0.0
Nd41 Nd 0.99473 0.21417 0.72964 0.0
C42 C 0.15652 0.32266 0.65997 0.0
C43 C 0.16288 0.31441 0.62187 0.0
C44 C 0.18797 0.35485 0.60182 0.0
C45 C 0.19423 0.34651 0.56577 0.0
C46 C 0.17559 0.29741 0.54907 0.0
C47 C 0.14983 0.25722 0.56928 0.0
C48 C 0.14344 0.2657 0.6052 0.0
C49 C 0.0905 0.15996 0.71466 0.0
C50 C 0.98396 0.21774 0.63899 0.0
C51 C 0.9294 0.15512 0.76608 0.0
C52 C 0.91718 0.14918 0.8036 0.0
C53 C 0.87574 0.11073 0.80961 0.0
C54 C 0.86375 0.10343 0.84505 0.0
C55 C 0.89292 0.1346 0.87538 0.0
C56 C 0.9348 0.17313 0.86925 0.0
C57 C 0.94676 0.18039 0.83361 0.0
C58 C 0.00036 0.32063 0.71454 0.0
C59 C 0.11136 0.25598 0.79072 0.0
O60 O 0.10927 0.33525 0.6612 0.0
O61 O 0.17458 0.28703 0.68643 0.0
O62 O 0.13581 0.19065 0.71854 0.0
O63 O 0.05171 0.18632 0.70091 0.0
O64 O 0.02733 0.25322 0.64597 0.0
O65 O 0.96613 0.19136 0.66707 0.0
O66 O 0.97647 0.14248 0.76463 0.0
O67 O 0.91598 0.1977 0.74514 0.0
O68 O 0.95477 0.29004 0.70738 0.0
O69 O 0.03913 0.29523 0.73051 0.0
O70 O 0.06424 0.22565 0.78403 0.0
O71 O 0.1304 0.28284 0.76349 0.0
H72 H 0.20278 0.39287 0.61405 0.0
H73 H 0.21337 0.37875 0.55089 0.0
H74 H 0.13551 0.21873 0.55776 0.0
H75 H 0.12369 0.23395 0.62017 0.0
H76 H 0.85277 0.08597 0.78688 0.0
H77 H 0.83206 0.07264 0.8488 0.0
H78 H 0.95788 0.19806 0.8918 0.0
H79 H 0.97903 0.21027 0.82947 0.0
Nd80 Nd 0.78842 0.88141 0.15798 0.0
Nd81 Nd 0.81412 0.97767 0.21134 0.0
C82 C 0.78408 0.8121 0.10684 0.0
C83 C 0.79691 0.80845 0.06973 0.0
C84 C 0.85041 0.80932 0.06663 0.0
C85 C 0.86101 0.8024 0.03159 0.0
C86 C 0.8184 0.79436 0.99883 0.0
C87 C 0.76506 0.79459 1.00199 0.0
C88 C 0.7545 0.80126 0.03695 0.0
C89 C 0.70183 0.91728 0.17469 0.0
C90 C 0.81282 0.00196 0.1212 0.0
C91 C 0.81525 0.05937 0.25198 0.0
C92 C 0.83213 0.0741 0.29204 0.0
C93 C 0.83913 0.03565 0.32216 0.0
C94 C 0.85476 0.05071 0.35994 0.0
C95 C 0.86399 0.10456 0.36838 0.0
C96 C 0.85687 0.14275 0.33794 0.0
C97 C 0.84116 0.12766 0.30029 0.0
C98 C 0.90168 0.92753 0.20922 0.0
C99 C 0.80339 0.85794 0.24773 0.0
O100 O 0.82429 0.81884 0.13713 0.0
O101 O 0.74388 0.83862 0.10683 0.0
O102 O 0.70479 0.86741 0.17189 0.0
O103 O 0.74226 0.94519 0.1676 0.0
O104 O 0.80334 0.95052 0.11644 0.0
O105 O 0.81712 0.02287 0.15411 0.0
O106 O 0.77365 0.02312 0.24289 0.0
O107 O 0.85392 0.05411 0.23561 0.0
O108 O 0.8959 0.9467 0.23973 0.0
O109 O 0.86184 0.93622 0.18235 0.0
O110 O 0.79093 0.90629 0.24886 0.0
O111 O 0.81296 0.84101 0.21708 0.0
H112 H 0.88411 0.81451 0.09134 0.0
H113 H 0.90257 0.80196 0.03044 0.0
H114 H 0.73119 0.78957 0.97739 0.0
H115 H 0.71284 0.80019 0.03839 0.0
H116 H 0.83261 -0.00599 0.31646 0.0
H117 H 0.86041 0.02018 0.38251 0.0
H118 H 0.86275 0.1845 0.34316 0.0
H119 H 0.83584 0.15798 0.27752 0.0
Nd120 Nd 0.07821 0.78229 0.57243 0.0
Nd121 Nd 0.97112 0.74097 0.59719 0.0
C122 C 0.14942 0.827 0.53481 0.0
C123 C 0.15203 0.83773 0.49461 0.0
C124 C 0.14472 0.88823 0.47715 0.0
C125 C 0.1477 0.89923 0.43953 0.0
C126 C 0.15846 0.86013 0.41834 0.0
C127 C 0.16618 0.80965 0.43586 0.0
C128 C 0.16298 0.79855 0.47354 0.0
C129 C 0.06692 0.67908 0.59668 0.0
C130 C 0.96364 0.74259 0.50905 0.0
C131 C 0.90333 0.69436 0.63659 0.0
C132 C 0.89496 0.70427 0.67383 0.0
C133 C 0.86787 0.66484 0.6934 0.0
C134 C 0.8604 0.67403 0.72895 0.0
C135 C 0.87987 0.72298 0.74567 0.0
C136 C 0.90745 0.76224 0.72591 0.0
C137 C 0.91502 0.75292 0.69045 0.0
C138 C 0.98143 0.84563 0.57424 0.0
C139 C 0.08189 0.791 0.661 0.0
O140 O 0.1174 0.85348 0.54688 0.0
O141 O 0.14826 0.77783 0.54818 0.0
O142 O 0.113 0.70883 0.60485 0.0
O143 O 0.03015 0.70336 0.57562 0.0
O144 O 0.01086 0.7726 0.51686 0.0
O145 O 0.94176 0.71815 0.53576 0.0
O146 O 0.94919 0.67687 0.63732 0.0
O147 O 0.89047 0.73097 0.60966 0.0
O148 O 0.93501 0.81661 0.56977 0.0
O149 O 0.0184 0.81977 0.59328 0.0
O150 O 0.0346 0.76106 0.6534 0.0
O151 O 0.10633 0.80938 0.63387 0.0
H152 H 0.13696 0.91952 0.49267 0.0
H153 H 0.14257 0.93884 0.42727 0.0
H154 H 0.17423 0.77853 0.42035 0.0
H155 H 0.16918 0.75928 0.48612 0.0
H156 H 0.85262 0.62685 0.68124 0.0
H157 H 0.83988 0.64247 0.74349 0.0
H158 H 0.92251 0.80058 0.7375 0.0
H159 H 0.93641 0.78384 0.67591 0.0
H160 H 0.92833 0.88118 0.15388 0.0
H161 H 0.13213 0.13788 0.13312 0.0
H162 H 0.99117 -0.00598 0.24061 0.0
H163 H 0.07614 0.02186 0.04812 0.0
H164 H 0.07125 0.09116 0.16932 0.0
H165 H 0.98475 0.93023 0.11531 0.0
C166 C 0.95614 0.91481 0.1656 0.0
C167 C 0.9541 0.93453 0.19987 0.0
C168 C 0.07131 0.07653 0.14231 0.0
C169 C 0.01648 -0.008 0.15549 0.0
C170 C 0.10476 0.10416 0.12106 0.0
C171 C 0.11048 0.08239 0.08848 0.0
C172 C 0.04304 0.02766 0.13021 0.0
C173 C 0.07392 0.03908 0.07375 0.0
C174 C 0.98706 0.94372 0.1431 0.0
C175 C 0.99087 0.97806 0.21396 0.0
N176 N 0.04289 0.01183 0.09547 0.0
N177 N 0.01957 0.00639 0.19115 0.0
H178 H 0.91158 0.90076 0.59548 0.0
H179 H 0.1569 0.11506 0.68235 0.0
H180 H 0.06552 0.91723 0.56688 0.0
H181 H 0.008 0.08516 0.71816 0.0
H182 H 0.12454 0.04378 0.6386 0.0
H183 H 0.94207 0.97837 0.63332 0.0
C184 C 0.95097 0.92214 0.59582 0.0
C185 C 0.98693 0.90217 0.57905 0.0
C186 C 0.09936 0.05221 0.65656 0.0
C187 C 0.02278 -0.01144 0.62337 0.0
C188 C 0.11843 0.09188 0.68221 0.0
C189 C 0.08469 0.1058 0.70352 0.0
C190 C 0.04652 0.02684 0.6526 0.0
C191 C 0.03494 0.07533 0.702 0.0
C192 C 0.96888 0.96559 0.61817 0.0
C193 C 0.03737 0.93104 0.58025 0.0
N194 N 0.01678 0.03774 0.67631 0.0
N195 N 0.05455 0.97227 0.603 0.0
H196 H 0.60008 0.86576 0.16999 0.0
H197 H 0.46602 0.13693 0.13764 0.0
H198 H 0.69078 0.02084 0.17569 0.0
H199 H 0.37411 -0.01743 0.13469 0.0
H200 H 0.54924 0.09464 0.15114 0.0
H201 H 0.51646 0.90734 0.15882 0.0
C202 C 0.60236 0.90845 0.16945 0.0
C203 C 0.65206 0.94002 0.17358 0.0
C204 C 0.51084 0.07001 0.14743 0.0
C205 C 0.55735 -0.01232 0.16033 0.0
C206 C 0.46346 0.09416 0.13948 0.0
C207 C 0.4135 0.06309 0.13521 0.0
C208 C 0.50792 0.01451 0.15106 0.0
C209 C 0.41207 0.00786 0.13792 0.0
C210 C 0.55477 0.93219 0.16283 0.0
C211 C 0.65311 -0.00488 0.17255 0.0
N212 N 0.4587 -0.01474 0.14582 0.0
N213 N 0.60639 0.01723 0.16577 0.0
H214 H 0.09203 0.38835 0.73204 0.0
H215 H 0.97353 0.61283 0.58081 0.0
H216 H 0.92656 0.377 0.66552 0.0
H217 H 0.13637 0.62658 0.65188 0.0
H218 H 0.95489 0.52683 0.61204 0.0
H219 H 0.10805 0.47706 0.70431 0.0
C220 C 0.05893 0.4049 0.71177 0.0
C221 C 0.00802 0.37561 0.70072 0.0
C222 C 0.99468 0.54861 0.62083 0.0
C223 C 0.02605 0.47659 0.66877 0.0
C224 C 0.00539 0.59751 0.60297 0.0
C225 C 0.05651 0.62647 0.61398 0.0
C226 C 0.03559 0.52864 0.64969 0.0
C227 C 0.09647 0.60519 0.64264 0.0
C228 C 0.06811 0.45543 0.69592 0.0
C229 C 0.9664 0.39858 0.6746 0.0
N230 N 0.08513 0.55735 0.6596 0.0
N231 N 0.97645 0.44786 0.65921 0.0
H232 H 0.26301 0.33353 0.51981 0.0
H233 H 0.15655 0.1757 0.32903 0.0
H234 H 0.10772 0.2387 0.49167 0.0
H235 H 0.29556 0.29402 0.34963 0.0
H236 H 0.13891 0.19531 0.38906 0.0
H237 H 0.27675 0.31647 0.45843 0.0
C238 C 0.23147 0.30952 0.50067 0.0
C239 C 0.18399 0.28775 0.5112 0.0
C240 C 0.17322 0.21698 0.38036 0.0
C241 C 0.20013 0.26709 0.44063 0.0
C242 C 0.1832 0.206 0.34594 0.0
C243 C 0.22792 0.2329 0.33414 0.0
C244 C 0.20825 0.25506 0.40332 0.0
C245 C 0.26128 0.27134 0.35771 0.0
C246 C 0.23956 0.29949 0.46559 0.0
C247 C 0.14531 0.25585 0.48522 0.0
N248 N 0.25089 0.28105 0.39106 0.0
N249 N 0.15428 0.24642 0.45127 0.0
H250 H 0.79269 0.11309 0.88997 0.0
H251 H 0.90014 0.07349 0.11572 0.0
H252 H 0.96231 0.13709 0.94706 0.0
H253 H 0.74595 0.00363 0.0509 0.0
H254 H 0.91975 0.11487 0.0565 0.0
H255 H 0.7714 0.09071 0.9511 0.0
C256 C 0.82557 0.11366 0.91533 0.0
C257 C 0.87954 0.12609 0.91309 0.0
C258 C 0.88122 0.09134 0.05542 0.0
C259 C 0.85511 0.1012 0.98365 0.0
C260 C 0.86981 0.06833 0.08916 0.0
C261 C 0.82108 0.03582 0.08801 0.0
C262 C 0.84321 0.08216 1.0206 0.0
C263 C 0.78375 0.02887 0.05289 0.0
C264 C 0.8133 0.10113 0.95031 0.0
C265 C 0.92014 0.12778 0.94728 0.0
N266 N 0.79555 0.05179 1.02064 0.0
N267 N 0.90715 0.11505 0.98113 0.0
H268 H 0.00412 0.7424 0.44723 0.0
H269 H 0.7638 0.86332 0.30996 0.0
H270 H 0.85455 0.74101 0.48023 0.0
H271 H 0.8684 0.77874 0.26697 0.0
H272 H 0.79504 0.8195 0.37255 0.0
H273 H 0.95554 0.7558 0.38083 0.0
C274 C 0.9608 0.7439 0.44033 0.0
C275 C 0.93317 0.74071 0.46906 0.0
C276 C 0.81018 0.8097 0.34917 0.0
C277 C 0.87781 0.75744 0.39354 0.0
C278 C 0.79256 0.83479 0.31353 0.0
C279 C 0.81389 0.82492 0.28336 0.0
C280 C 0.85043 0.77571 0.35481 0.0
C281 C 0.85094 0.78751 0.28948 0.0
C282 C 0.93311 0.75139 0.40251 0.0
C283 C 0.87713 0.74302 0.45877 0.0
N284 N 0.86898 0.76511 0.32476 0.0
N285 N 0.85137 0.7525 0.42181 0.0
H286 H 0.16891 0.86498 0.68966 0.0
H287 H 0.12293 0.83042 0.90053 0.0
H288 H 0.04548 0.75469 0.72361 0.0
H289 H 0.24691 0.94374 0.87027 0.0
H290 H 0.09552 0.80221 0.83553 0.0
H291 H 0.19993 0.89389 0.75514 0.0
C292 C 0.14863 0.84649 0.71081 0.0
C293 C 0.10453 0.80715 0.70087 0.0
C294 C 0.12881 0.83322 0.84298 0.0
C295 C 0.13957 0.84042 0.77588 0.0
C296 C 0.14473 0.84923 0.88031 0.0
C297 C 0.18768 0.88938 0.89126 0.0
C298 C 0.15589 0.85728 0.81593 0.0
C299 C 0.21337 0.91293 0.86324 0.0
C300 C 0.16621 0.86321 0.74818 0.0
C301 C 0.07961 0.78509 0.72962 0.0
N302 N 0.19724 0.89645 0.82699 0.0
N303 N 0.09737 0.802 0.76553 0.0
H304 H 0.90245 0.83916 0.96796 0.0
H305 H 0.79064 0.68981 0.77363 0.0
H306 H 0.75892 0.72645 0.94476 0.0
H307 H 0.94838 0.77984 0.80377 0.0
H308 H 0.7767 0.70663 0.83504 0.0
H309 H 0.9184 0.82169 0.90699 0.0
C310 C 0.87439 0.81057 0.95024 0.0
C311 C 0.82908 0.78445 0.96172 0.0
C312 C 0.81443 0.72266 0.82827 0.0
C313 C 0.84686 0.76477 0.89143 0.0
C314 C 0.82262 0.71278 0.79319 0.0
C315 C 0.87092 0.73318 0.78327 0.0
C316 C 0.85462 0.75349 0.85385 0.0
C317 C 0.91019 0.76377 0.80976 0.0
C318 C 0.88343 0.80081 0.91529 0.0
C319 C 0.79382 0.74839 0.93705 0.0
N320 N 0.90117 0.77299 0.84373 0.0
N321 N 0.80341 0.73976 0.90321 0.0
H322 H 0.26939 0.91441 0.20991 0.0
H323 H 0.09463 0.91898 0.36287 0.0
H324 H 0.15913 0.02837 0.20805 0.0
H325 H 0.23126 0.82988 0.38253 0.0
H326 H 0.10669 0.94628 0.29968 0.0
H327 H 0.24466 0.86982 0.26672 0.0
C328 C 0.23931 0.92935 0.22102 0.0
C329 C 0.21667 0.97534 0.20464 0.0
C330 C 0.13394 0.92053 0.31771 0.0
C331 C 0.18825 0.92498 0.26906 0.0
C332 C 0.12722 0.9051 0.35393 0.0
C333 C 0.16252 0.87276 0.37844 0.0
C334 C 0.17639 0.90367 0.30563 0.0
C335 C 0.20306 0.85484 0.36468 0.0
C336 C 0.22549 0.90422 0.2535 0.0
C337 C 0.17809 -0.00663 0.22016 0.0
N338 N 0.20923 0.87093 0.32935 0.0
N339 N 0.16531 0.96835 0.25146 0.0
H340 H 0.22049 0.25486 0.81658 0.0
H341 H 0.21088 0.23528 0.03398 0.0
H342 H 0.07549 0.26025 0.85407 0.0
H343 H 0.30848 0.14165 0.99133 0.0
H344 H 0.18049 0.2755 0.97024 0.0
H345 H 0.27096 0.24316 0.88324 0.0
C346 C 0.1997 0.25493 0.83891 0.0
C347 C 0.14386 0.25806 0.83012 0.0
C348 C 0.2095 0.247 0.97515 0.0
C349 C 0.20097 0.24571 0.90559 0.0
C350 C 0.22712 0.22419 1.01149 0.0
C351 C 0.2617 0.18447 1.01783 0.0
C352 C 0.22725 0.2306 0.94515 0.0
C353 C 0.28127 0.17165 0.98754 0.0
C354 C 0.22834 0.24803 0.87671 0.0
C355 C 0.11846 0.25745 0.85985 0.0
N356 N 0.26337 0.19435 0.95231 0.0
N357 N 0.14722 0.25126 0.89634 0.0
H358 H 0.93784 0.18786 0.39784 0.0
H359 H 0.90711 0.1346 0.61175 0.0
H360 H 0.82993 0.05923 0.43096 0.0
H361 H 0.00944 0.26519 0.57482 0.0
H362 H 0.87705 0.10641 0.5462 0.0
H363 H 0.96384 0.21618 0.46285 0.0
C364 C 0.91925 0.16567 0.41868 0.0
C365 C 0.88123 0.12117 0.40855 0.0
C366 C 0.90579 0.14144 0.55246 0.0
C367 C 0.91147 0.1534 0.4838 0.0
C368 C 0.92276 0.15777 0.58988 0.0
C369 C 0.96073 0.20258 0.599 0.0
C370 C 0.92695 0.17004 0.52386 0.0
C371 C 0.98003 0.23051 0.56938 0.0
C372 C 0.93437 0.18179 0.45599 0.0
C373 C 0.85967 0.09349 0.43732 0.0
N374 N 0.96309 0.21375 0.53338 0.0
N375 N 0.87495 0.11009 0.47351 0.0
loop_
_geom_bond_atom_site_label_1
_geom_bond_atom_site_label_2
_geom_bond_distance
_geom_bond_site_symmetry_2
_ccdc_geom_bond_type
Nd0 C2 2.806 1_554 S
Nd0 O20 2.500 . S
Nd0 O21 2.492 . S
Nd0 O22 2.487 . S
Nd0 O23 2.682 1_565 S
Nd0 O24 2.410 1_565 S
Nd0 O29 2.414 1_565 S
Nd0 O31 2.424 . S
Nd1 C11 2.836 . S
Nd1 O23 2.414 . S
Nd1 O25 2.424 . S
Nd1 O26 2.500 . S
Nd1 O27 2.492 . S
Nd1 O28 2.487 . S
Nd1 O29 2.682 . S
Nd1 O30 2.410 . S
C2 Nd0 2.806 1_556 S
C2 C3 1.529 . S
C2 O20 1.246 1_556 S
C2 O21 1.222 1_556 S
C3 C2 1.529 . S
C3 C4 1.366 . S
C3 C8 1.407 . S
C4 C3 1.366 . S
C4 C5 1.392 . S
C4 H32 0.930 . S
C5 C4 1.392 . S
C5 C6 1.398 . S
C5 H33 0.929 . S
C6 C5 1.398 . S
C6 C7 1.352 . S
C7 C6 1.352 . S
C7 C8 1.384 . S
C7 H34 0.930 . S
C8 C3 1.407 . S
C8 C7 1.384 . S
C8 H35 0.929 . S
C9 O22 1.241 1_545 S
C9 O23 1.273 . S
C10 O24 1.251 . S
C10 O25 1.268 . S
C11 Nd1 2.836 . S
C11 C12 1.498 . S
C11 O26 1.258 . S
C11 O27 1.239 . S
C12 C11 1.498 . S
C12 C13 1.366 . S
C12 C17 1.407 . S
C13 C12 1.366 . S
C13 C14 1.392 . S
C13 H36 0.930 . S
C14 C13 1.392 . S
C14 C15 1.398 . S
C14 H37 0.929 . S
C15 C14 1.398 . S
C15 C16 1.352 . S
C16 C15 1.352 . S
C16 C17 1.384 . S
C16 H38 0.930 . S
C17 C12 1.407 . S
C17 C16 1.384 . S
C17 H39 0.929 . S
C18 O28 1.241 . S
C18 O29 1.273 . S
C19 O30 1.251 1_565 S
C19 O31 1.268 . S
O20 Nd0 2.500 . S
O20 C2 1.246 1_554 S
O21 Nd0 2.492 . S
O21 C2 1.222 1_554 S
O22 Nd0 2.487 . S
O22 C9 1.241 1_565 S
O23 Nd0 2.682 1_545 S
O23 Nd1 2.414 . S
O23 C9 1.273 . S
O24 Nd0 2.410 1_545 S
O24 C10 1.251 . S
O25 Nd1 2.424 . S
O25 C10 1.268 . S
O26 Nd1 2.500 . S
O26 C11 1.258 . S
O27 Nd1 2.492 . S
O27 C11 1.239 . S
O28 Nd1 2.487 . S
O28 C18 1.241 . S
O29 Nd0 2.414 1_545 S
O29 Nd1 2.682 . S
O29 C18 1.273 . S
O30 Nd1 2.410 . S
O30 C19 1.251 1_545 S
O31 Nd0 2.424 . S
O31 C19 1.268 . S
H32 C4 0.930 . S
H33 C5 0.929 . S
H34 C7 0.930 . S
H35 C8 0.929 . S
H36 C13 0.930 . S
H37 C14 0.929 . S
H38 C16 0.930 . S
H39 C17 0.929 . S
Nd40 C42 2.836 . S
Nd40 O60 2.500 . S
Nd40 O61 2.492 . S
Nd40 O62 2.487 . S
Nd40 O63 2.682 . S
Nd40 O64 2.410 . S
Nd40 O69 2.414 . S
Nd40 O71 2.424 . S
Nd41 C51 2.836 . S
Nd41 O63 2.414 1_655 S
Nd41 O65 2.424 . S
Nd41 O66 2.500 . S
Nd41 O67 2.492 . S
Nd41 O68 2.487 1_655 S
Nd41 O69 2.682 1_655 S
Nd41 O70 2.410 1_655 S
C42 Nd40 2.836 . S
C42 C43 1.498 . S
C42 O60 1.258 . S
C42 O61 1.239 . S
C43 C42 1.498 . S
C43 C44 1.366 . S
C43 C48 1.407 . S
C44 C43 1.366 . S
C44 C45 1.392 . S
C44 H72 0.930 . S
C45 C44 1.392 . S
C45 C46 1.398 . S
C45 H73 0.929 . S
C46 C45 1.398 . S
C46 C47 1.352 . S
C47 C46 1.352 . S
C47 C48 1.384 . S
C47 H74 0.930 . S
C48 C43 1.407 . S
C48 C47 1.384 . S
C48 H75 0.929 . S
C49 O62 1.241 . S
C49 O63 1.273 . S
C50 O64 1.251 . S
C50 O65 1.268 1_455 S
C51 Nd41 2.836 . S
C51 C52 1.498 . S
C51 O66 1.258 . S
C51 O67 1.239 . S
C52 C51 1.498 . S
C52 C53 1.366 . S
C52 C57 1.407 . S
C53 C52 1.366 . S
C53 C54 1.392 . S
C53 H76 0.930 . S
C54 C53 1.392 . S
C54 C55 1.398 . S
C54 H77 0.929 . S
C55 C54 1.398 . S
C55 C56 1.352 . S
C56 C55 1.352 . S
C56 C57 1.384 . S
C56 H78 0.930 . S
C57 C52 1.407 . S
C57 C56 1.384 . S
C57 H79 0.929 . S
C58 O68 1.241 . S
C58 O69 1.273 . S
C59 O70 1.251 . S
C59 O71 1.268 . S
O60 Nd40 2.500 . S
O60 C42 1.258 . S
O61 Nd40 2.492 . S
O61 C42 1.239 . S
O62 Nd40 2.487 . S
O62 C49 1.241 . S
O63 Nd40 2.682 . S
O63 Nd41 2.414 1_455 S
O63 C49 1.273 . S
O64 Nd40 2.410 . S
O64 C50 1.251 . S
O65 Nd41 2.424 . S
O65 C50 1.268 1_655 S
O66 Nd41 2.500 . S
O66 C51 1.258 . S
O67 Nd41 2.492 . S
O67 C51 1.239 . S
O68 Nd41 2.487 1_455 S
O68 C58 1.241 . S
O69 Nd40 2.414 . S
O69 Nd41 2.682 1_455 S
O69 C58 1.273 . S
O70 Nd41 2.410 1_455 S
O70 C59 1.251 . S
O71 Nd40 2.424 . S
O71 C59 1.268 . S
H72 C44 0.930 . S
H73 C45 0.929 . S
H74 C47 0.930 . S
H75 C48 0.929 . S
H76 C53 0.930 . S
H77 C54 0.929 . S
H78 C56 0.930 . S
H79 C57 0.929 . S
Nd80 C82 2.836 . S
Nd80 O100 2.500 . S
Nd80 O101 2.492 . S
Nd80 O102 2.487 . S
Nd80 O103 2.682 1_565 S
Nd80 O104 2.410 1_565 S
Nd80 O109 2.402 1_565 S
Nd80 O111 2.424 . S
Nd81 C91 2.836 . S
Nd81 O103 2.414 . S
Nd81 O105 2.424 . S
Nd81 O106 2.500 . S
Nd81 O107 2.492 . S
Nd81 O108 2.487 . S
Nd81 O109 2.699 . S
Nd81 O110 2.410 1_545 S
C82 Nd80 2.836 . S
C82 C83 1.498 . S
C82 O100 1.258 . S
C82 O101 1.239 . S
C83 C82 1.498 . S
C83 C84 1.366 . S
C83 C88 1.407 1_554 S
C84 C83 1.366 . S
C84 C85 1.392 1_554 S
C84 H112 0.930 . S
C85 C84 1.392 1_556 S
C85 C86 1.398 . S
C85 H113 0.929 . S
C86 C85 1.398 . S
C86 C87 1.352 . S
C87 C86 1.352 . S
C87 C88 1.384 . S
C87 H114 0.930 . S
C88 C83 1.407 1_556 S
C88 C87 1.384 . S
C88 H115 0.929 1_556 S
C89 O102 1.241 . S
C89 O103 1.273 1_565 S
C90 O104 1.251 . S
C90 O105 1.268 . S
C91 Nd81 2.836 . S
C91 C92 1.498 . S
C91 O106 1.258 . S
C91 O107 1.239 . S
C92 C91 1.498 . S
C92 C93 1.366 . S
C92 C97 1.407 . S
C93 C92 1.366 . S
C93 C94 1.392 . S
C93 H116 0.930 . S
C94 C93 1.392 . S
C94 C95 1.398 . S
C94 H117 0.929 . S
C95 C94 1.398 . S
C95 C96 1.352 . S
C96 C95 1.352 . S
C96 C97 1.384 . S
C96 H118 0.930 . S
C97 C92 1.407 . S
C97 C96 1.384 . S
C97 H119 0.929 . S
C98 O108 1.241 . S
C98 O109 1.279 . S
C99 O110 1.251 . S
C99 O111 1.268 . S
O100 Nd80 2.500 . S
O100 C82 1.258 . S
O101 Nd80 2.492 . S
O101 C82 1.239 . S
O102 Nd80 2.487 . S
O102 C89 1.241 . S
O103 Nd80 2.682 1_545 S
O103 Nd81 2.414 . S
O103 C89 1.273 1_545 S
O104 Nd80 2.410 1_545 S
O104 C90 1.251 . S
O105 Nd81 2.424 . S
O105 C90 1.268 . S
O106 Nd81 2.500 . S
O106 C91 1.258 . S
O107 Nd81 2.492 . S
O107 C91 1.239 . S
O108 Nd81 2.487 . S
O108 C98 1.241 . S
O109 Nd80 2.402 1_545 S
O109 Nd81 2.699 . S
O109 C98 1.279 . S
O110 Nd81 2.410 1_565 S
O110 C99 1.251 . S
O111 Nd80 2.424 . S
O111 C99 1.268 . S
H112 C84 0.930 . S
H113 C85 0.929 . S
H114 C87 0.930 . S
H115 C88 0.929 1_554 S
H116 C93 0.930 . S
H117 C94 0.929 . S
H118 C96 0.930 . S
H119 C97 0.929 . S
Nd120 C122 2.836 . S
Nd120 O140 2.500 . S
Nd120 O141 2.492 . S
Nd120 O142 2.487 . S
Nd120 O143 2.682 1_455 S
Nd120 O144 2.410 1_455 S
Nd120 O149 2.414 . S
Nd120 O151 2.424 . S
Nd121 C131 2.836 . S
Nd121 O143 2.414 . S
Nd121 O145 2.424 . S
Nd121 O146 2.500 . S
Nd121 O147 2.492 . S
Nd121 O148 2.487 . S
Nd121 O149 2.682 1_655 S
Nd121 O150 2.410 1_655 S
C122 Nd120 2.836 . S
C122 C123 1.498 . S
C122 O140 1.258 . S
C122 O141 1.239 . S
C123 C122 1.498 . S
C123 C124 1.366 . S
C123 C128 1.407 . S
C124 C123 1.366 . S
C124 C125 1.392 . S
C124 H152 0.930 . S
C125 C124 1.392 . S
C125 C126 1.398 . S
C125 H153 0.929 . S
C126 C125 1.398 . S
C126 C127 1.352 . S
C127 C126 1.352 . S
C127 C128 1.384 . S
C127 H154 0.930 . S
C128 C123 1.407 . S
C128 C127 1.384 . S
C128 H155 0.929 . S
C129 O142 1.241 . S
C129 O143 1.273 1_455 S
C130 O144 1.251 . S
C130 O145 1.268 . S
C131 Nd121 2.836 . S
C131 C132 1.498 . S
C131 O146 1.258 . S
C131 O147 1.239 . S
C132 C131 1.498 . S
C132 C133 1.366 . S
C132 C137 1.407 . S
C133 C132 1.366 . S
C133 C134 1.392 . S
C133 H156 0.930 . S
C134 C133 1.392 . S
C134 C135 1.398 . S
C134 H157 0.929 . S
C135 C134 1.398 . S
C135 C136 1.352 . S
C136 C135 1.352 . S
C136 C137 1.384 . S
C136 H158 0.930 . S
C137 C132 1.407 . S
C137 C136 1.384 . S
C137 H159 0.929 . S
C138 O148 1.241 . S
C138 O149 1.273 1_655 S
C139 O150 1.251 . S
C139 O151 1.268 . S
O140 Nd120 2.500 . S
O140 C122 1.258 . S
O141 Nd120 2.492 . S
O141 C122 1.239 . S
O142 Nd120 2.487 . S
O142 C129 1.241 . S
O143 Nd120 2.682 1_655 S
O143 Nd121 2.414 . S
O143 C129 1.273 1_655 S
O144 Nd120 2.410 1_655 S
O144 C130 1.251 . S
O145 Nd121 2.424 . S
O145 C130 1.268 . S
O146 Nd121 2.500 . S
O146 C131 1.258 . S
O147 Nd121 2.492 . S
O147 C131 1.239 . S
O148 Nd121 2.487 . S
O148 C138 1.241 . S
O149 Nd120 2.414 . S
O149 Nd121 2.682 1_455 S
O149 C138 1.273 1_455 S
O150 Nd121 2.410 1_455 S
O150 C139 1.251 . S
O151 Nd120 2.424 . S
O151 C139 1.268 . S
H152 C124 0.930 . S
H153 C125 0.929 . S
H154 C127 0.930 . S
H155 C128 0.929 . S
H156 C133 0.930 . S
H157 C134 0.929 . S
H158 C136 0.930 . S
H159 C137 0.929 . S
H160 C166 0.930 . S
H161 C170 0.930 . S
H162 C175 0.929 . S
H163 C173 0.929 . S
H164 C168 0.929 . S
H165 C174 0.929 1_455 S
C166 H160 0.930 . S
C166 C167 1.367 1_565 S
C166 C174 1.378 . S
C167 C166 1.367 1_545 S
C167 C175 1.433 . S
C168 H164 0.929 . S
C168 C170 1.378 . S
C168 C172 1.350 . S
C169 C172 1.463 . S
C169 C174 1.350 1_445 S
C169 N177 1.427 1_455 S
C170 H161 0.930 . S
C170 C168 1.378 . S
C170 C171 1.367 . S
C171 C170 1.367 . S
C171 C173 1.433 1_545 S
C172 C168 1.350 . S
C172 C169 1.463 . S
C172 N176 1.427 1_545 S
C173 H163 0.929 . S
C173 C171 1.433 1_565 S
C173 N176 1.384 . S
C174 H165 0.929 1_655 S
C174 C166 1.378 . S
C174 C169 1.350 1_665 S
C175 H162 0.929 . S
C175 C167 1.433 . S
C175 N177 1.384 . S
N176 C172 1.427 1_565 S
N176 C173 1.384 . S
N177 C169 1.427 1_655 S
N177 C175 1.384 . S
H178 C184 0.930 . S
H179 C188 0.930 . S
H180 C193 0.929 . S
H181 C191 0.929 . S
H182 C186 0.929 . S
H183 C192 0.929 . S
C184 H178 0.930 . S
C184 C185 1.367 . S
C184 C192 1.378 1_565 S
C185 C184 1.367 . S
C185 C193 1.433 1_655 S
C186 H182 0.929 . S
C186 C188 1.378 . S
C186 C190 1.350 . S
C187 C190 1.463 . S
C187 C192 1.350 1_455 S
C187 N195 1.427 1_545 S
C188 H179 0.930 . S
C188 C186 1.378 . S
C188 C189 1.367 . S
C189 C188 1.367 . S
C189 C191 1.433 . S
C190 C186 1.350 . S
C190 C187 1.463 . S
C190 N194 1.427 . S
C191 H181 0.929 . S
C191 C189 1.433 . S
C191 N194 1.384 . S
C192 H183 0.929 . S
C192 C184 1.378 1_545 S
C192 C187 1.350 1_655 S
C193 H180 0.929 . S
C193 C185 1.433 1_455 S
C193 N195 1.384 . S
N194 C190 1.427 . S
N194 C191 1.384 . S
N195 C187 1.427 1_565 S
N195 C193 1.384 . S
H196 C202 0.930 . S
H197 C206 0.930 . S
H198 C211 0.929 . S
H199 C209 0.929 . S
H200 C204 0.929 . S
H201 C210 0.929 . S
C202 H196 0.930 . S
C202 C203 1.367 1_565 S
C202 C210 1.378 . S
C203 C202 1.367 1_545 S
C203 C211 1.433 . S
C204 H200 0.929 . S
C204 C206 1.378 . S
C204 C208 1.350 . S
C205 C208 1.463 . S
C205 C210 1.350 1_545 S
C205 N213 1.427 . S
C206 H197 0.930 . S
C206 C204 1.378 . S
C206 C207 1.367 . S
C207 C206 1.367 . S
C207 C209 1.433 1_545 S
C208 C204 1.350 . S
C208 C205 1.463 . S
C208 N212 1.427 1_545 S
C209 H199 0.929 . S
C209 C207 1.433 1_565 S
C209 N212 1.384 . S
C210 H201 0.929 . S
C210 C202 1.378 . S
C210 C205 1.350 1_565 S
C211 H198 0.929 . S
C211 C203 1.433 . S
C211 N213 1.384 . S
N212 C208 1.427 1_565 S
N212 C209 1.384 . S
N213 C205 1.427 . S
N213 C211 1.384 . S
H214 C220 0.930 . S
H215 C224 0.930 . S
H216 C229 0.929 . S
H217 C227 0.929 . S
H218 C222 0.929 . S
H219 C228 0.929 . S
C220 H214 0.930 . S
C220 C221 1.367 . S
C220 C228 1.378 . S
C221 C220 1.367 . S
C221 C229 1.433 . S
C222 H218 0.929 . S
C222 C224 1.378 . S
C222 C226 1.350 . S
C223 C226 1.463 . S
C223 C228 1.350 . S
C223 N231 1.427 . S
C224 H215 0.930 . S
C224 C222 1.378 . S
C224 C225 1.367 . S
C225 C224 1.367 . S
C225 C227 1.433 1_455 S
C226 C222 1.350 . S
C226 C223 1.463 . S
C226 N230 1.427 1_455 S
C227 H217 0.929 . S
C227 C225 1.433 1_655 S
C227 N230 1.384 . S
C228 H219 0.929 . S
C228 C220 1.378 . S
C228 C223 1.350 . S
C229 H216 0.929 . S
C229 C221 1.433 . S
C229 N231 1.384 . S
N230 C226 1.427 1_655 S
N230 C227 1.384 . S
N231 C223 1.427 . S
N231 C229 1.384 . S
H232 C238 0.930 . S
H233 C242 0.930 . S
H234 C247 0.929 . S
H235 C245 0.929 . S
H236 C240 0.929 . S
H237 C246 0.929 . S
C238 H232 0.930 . S
C238 C239 1.367 . S
C238 C246 1.378 . S
C239 C238 1.367 . S
C239 C247 1.433 . S
C240 H236 0.929 . S
C240 C242 1.378 . S
C240 C244 1.350 . S
C241 C244 1.463 . S
C241 C246 1.350 . S
C241 N249 1.427 . S
C242 H233 0.930 . S
C242 C240 1.378 . S
C242 C243 1.367 . S
C243 C242 1.367 . S
C243 C245 1.433 . S
C244 C240 1.350 . S
C244 C241 1.463 . S
C244 N248 1.427 . S
C245 H235 0.929 . S
C245 C243 1.433 . S
C245 N248 1.384 . S
C246 H237 0.929 . S
C246 C238 1.378 . S
C246 C241 1.350 . S
C247 H234 0.929 . S
C247 C239 1.433 . S
C247 N249 1.384 . S
N248 C244 1.427 . S
N248 C245 1.384 . S
N249 C241 1.427 . S
N249 C247 1.384 . S
H250 C256 0.930 . S
H251 C260 0.930 . S
H252 C265 0.929 . S
H253 C263 0.929 . S
H254 C258 0.929 . S
H255 C264 0.929 . S
C256 H250 0.930 . S
C256 C257 1.367 . S
C256 C264 1.378 . S
C257 C256 1.367 . S
C257 C265 1.433 . S
C258 H254 0.929 . S
C258 C260 1.378 . S
C258 C262 1.350 1_554 S
C259 C262 1.463 . S
C259 C264 1.350 . S
C259 N267 1.427 . S
C260 H251 0.930 . S
C260 C258 1.378 . S
C260 C261 1.367 . S
C261 C260 1.367 . S
C261 C263 1.433 . S
C262 C258 1.350 1_556 S
C262 C259 1.463 . S
C262 N266 1.427 . S
C263 H253 0.929 . S
C263 C261 1.433 . S
C263 N266 1.384 1_554 S
C264 H255 0.929 . S
C264 C256 1.378 . S
C264 C259 1.350 . S
C265 H252 0.929 . S
C265 C257 1.433 . S
C265 N267 1.384 . S
N266 C262 1.427 . S
N266 C263 1.384 1_556 S
N267 C259 1.427 . S
N267 C265 1.384 . S
H268 C274 0.930 . S
H269 C278 0.930 . S
H270 C283 0.929 . S
H271 C281 0.929 . S
H272 C276 0.929 . S
H273 C282 0.929 . S
C274 H268 0.930 . S
C274 C275 1.367 . S
C274 C282 1.378 . S
C275 C274 1.367 . S
C275 C283 1.433 . S
C276 H272 0.929 . S
C276 C278 1.378 . S
C276 C280 1.350 . S
C277 C280 1.463 . S
C277 C282 1.350 . S
C277 N285 1.427 . S
C278 H269 0.930 . S
C278 C276 1.378 . S
C278 C279 1.367 . S
C279 C278 1.367 . S
C279 C281 1.433 . S
C280 C276 1.350 . S
C280 C277 1.463 . S
C280 N284 1.427 . S
C281 H271 0.929 . S
C281 C279 1.433 . S
C281 N284 1.384 . S
C282 H273 0.929 . S
C282 C274 1.378 . S
C282 C277 1.350 . S
C283 H270 0.929 . S
C283 C275 1.433 . S
C283 N285 1.384 . S
N284 C280 1.427 . S
N284 C281 1.384 . S
N285 C277 1.427 . S
N285 C283 1.384 . S
H286 C292 0.930 . S
H287 C296 0.930 . S
H288 C301 0.929 . S
H289 C299 0.929 . S
H290 C294 0.929 . S
H291 C300 0.929 . S
C292 H286 0.930 . S
C292 C293 1.367 . S
C292 C300 1.378 . S
C293 C292 1.367 . S
C293 C301 1.433 . S
C294 H290 0.929 . S
C294 C296 1.378 . S
C294 C298 1.350 . S
C295 C298 1.463 . S
C295 C300 1.350 . S
C295 N303 1.427 . S
C296 H287 0.930 . S
C296 C294 1.378 . S
C296 C297 1.367 . S
C297 C296 1.367 . S
C297 C299 1.433 . S
C298 C294 1.350 . S
C298 C295 1.463 . S
C298 N302 1.427 . S
C299 H289 0.929 . S
C299 C297 1.433 . S
C299 N302 1.384 . S
C300 H291 0.929 . S
C300 C292 1.378 . S
C300 C295 1.350 . S
C301 H288 0.929 . S
C301 C293 1.433 . S
C301 N303 1.384 . S
N302 C298 1.427 . S
N302 C299 1.384 . S
N303 C295 1.427 . S
N303 C301 1.384 . S
H304 C310 0.930 . S
H305 C314 0.930 . S
H306 C319 0.929 . S
H307 C317 0.929 . S
H308 C312 0.929 . S
H309 C318 0.929 . S
C310 H304 0.930 . S
C310 C311 1.367 . S
C310 C318 1.378 . S
C311 C310 1.367 . S
C311 C319 1.433 . S
C312 H308 0.929 . S
C312 C314 1.378 . S
C312 C316 1.350 . S
C313 C316 1.463 . S
C313 C318 1.350 . S
C313 N321 1.427 . S
C314 H305 0.930 . S
C314 C312 1.378 . S
C314 C315 1.367 . S
C315 C314 1.367 . S
C315 C317 1.433 . S
C316 C312 1.350 . S
C316 C313 1.463 . S
C316 N320 1.427 . S
C317 H307 0.929 . S
C317 C315 1.433 . S
C317 N320 1.384 . S
C318 H309 0.929 . S
C318 C310 1.378 . S
C318 C313 1.350 . S
C319 H306 0.929 . S
C319 C311 1.433 . S
C319 N321 1.384 . S
N320 C316 1.427 . S
N320 C317 1.384 . S
N321 C313 1.427 . S
N321 C319 1.384 . S
H322 C328 0.930 . S
H323 C332 0.930 . S
H324 C337 0.929 . S
H325 C335 0.929 . S
H326 C330 0.929 . S
H327 C336 0.929 . S
C328 H322 0.930 . S
C328 C329 1.367 . S
C328 C336 1.378 . S
C329 C328 1.367 . S
C329 C337 1.433 . S
C330 H326 0.929 . S
C330 C332 1.378 . S
C330 C334 1.350 . S
C331 C334 1.463 . S
C331 C336 1.350 . S
C331 N339 1.427 . S
C332 H323 0.930 . S
C332 C330 1.378 . S
C332 C333 1.367 . S
C333 C332 1.367 . S
C333 C335 1.433 . S
C334 C330 1.350 . S
C334 C331 1.463 . S
C334 N338 1.427 . S
C335 H325 0.929 . S
C335 C333 1.433 . S
C335 N338 1.384 . S
C336 H327 0.929 . S
C336 C328 1.378 . S
C336 C331 1.350 . S
C337 H324 0.929 . S
C337 C329 1.433 . S
C337 N339 1.384 . S
N338 C334 1.427 . S
N338 C335 1.384 . S
N339 C331 1.427 . S
N339 C337 1.384 . S
H340 C346 0.930 . S
H341 C350 0.930 . S
H342 C355 0.929 . S
H343 C353 0.929 . S
H344 C348 0.929 . S
H345 C354 0.929 . S
C346 H340 0.930 . S
C346 C347 1.367 . S
C346 C354 1.378 . S
C347 C346 1.367 . S
C347 C355 1.433 . S
C348 H344 0.929 . S
C348 C350 1.378 . S
C348 C352 1.350 . S
C349 C352 1.463 . S
C349 C354 1.350 . S
C349 N357 1.427 . S
C350 H341 0.930 . S
C350 C348 1.378 . S
C350 C351 1.367 . S
C351 C350 1.367 . S
C351 C353 1.433 . S
C352 C348 1.350 . S
C352 C349 1.463 . S
C352 N356 1.427 . S
C353 H343 0.929 . S
C353 C351 1.433 . S
C353 N356 1.384 . S
C354 H345 0.929 . S
C354 C346 1.378 . S
C354 C349 1.350 . S
C355 H342 0.929 . S
C355 C347 1.433 . S
C355 N357 1.384 . S
N356 C352 1.427 . S
N356 C353 1.384 . S
N357 C349 1.427 . S
N357 C355 1.384 . S
H358 C364 0.930 . S
H359 C368 0.930 . S
H360 C373 0.929 . S
H361 C371 0.929 . S
H362 C366 0.929 . S
H363 C372 0.929 . S
C364 H358 0.930 . S
C364 C365 1.367 . S
C364 C372 1.378 . S
C365 C364 1.367 . S
C365 C373 1.433 . S
C366 H362 0.929 . S
C366 C368 1.378 . S
C366 C370 1.350 . S
C367 C370 1.463 . S
C367 C372 1.350 . S
C367 N375 1.427 . S
C368 H359 0.930 . S
C368 C366 1.378 . S
C368 C369 1.367 . S
C369 C368 1.367 . S
C369 C371 1.433 1_655 S
C370 C366 1.350 . S
C370 C367 1.463 . S
C370 N374 1.427 . S
C371 H361 0.929 . S
C371 C369 1.433 1_455 S
C371 N374 1.384 1_455 S
C372 H363 0.929 . S
C372 C364 1.378 . S
C372 C367 1.350 . S
C373 H360 0.929 . S
C373 C365 1.433 . S
C373 N375 1.384 . S
N374 C370 1.427 . S
N374 C371 1.384 1_655 S
N375 C367 1.427 . S
N375 C373 1.384 . S
C167 C98 0.437 . S
C171 C9 0.437 . S
C185 C138 0.686 . S
C189 C49 0.685 . S
C203 C89 0.985 1_545 S
C207 C18 0.985 . S
C221 C58 1.091 . S
C225 C129 1.091 . S
C239 C46 1.055 . S
C243 C15 1.054 . S
C257 C55 1.720 . S
C261 C90 1.733 . S
C275 C130 2.149 . S
C279 C99 2.095 . S
C293 C139 1.344 . S
C297 C6 1.350 . S
C311 C86 1.054 . S
C315 C135 1.055 . S
C329 C19 1.734 . S
C333 C126 1.720 . S
C347 C59 2.149 . S
C351 C10 2.091 1_556 S
C365 C95 1.350 . S
C369 C50 1.344 1_655 S
