# Generated by pormake.
# Topology kag, (6)-cn, num edge types: 1
# Building blocks:
#     Node 0, Type 0, BuildingBlock: GEDQOX_clean_sbu_0, # of connection points: 6
#     Node 1, Type 0, BuildingBlock: GEDQOX_clean_sbu_0, # of connection points: 6
#     Node 2, Type 0, BuildingBlock: GEDQOX_clean_sbu_0, # of connection points: 6
#     Edge 3, Type (0, 0), BuildingBlock: FUNLAD_clean_linker_1, # of connection points: 2
#     Edge 4, Type (0, 0), BuildingBlock: FUNLAD_clean_linker_1, # of connection points: 2
#     Edge 5, Type (0, 0), BuildingBlock: FUNLAD_clean_linker_1, # of connection points: 2
#     Edge 6, Type (0, 0), BuildingBlock: FUNLAD_clean_linker_1, # of connection points: 2
#     Edge 7, Type (0, 0), BuildingBlock: FUNLAD_clean_linker_1, # of connection points: 2
#     Edge 8, Type (0, 0), BuildingBlock: FUNLAD_clean_linker_1, # of connection points: 2
#     Edge 9, Type (0, 0), BuildingBlock: FUNLAD_clean_linker_1, # of connection points: 2
#     Edge 10, Type (0, 0), BuildingBlock: FUNLAD_clean_linker_1, # of connection points: 2
#     Edge 11, Type (0, 0), BuildingBlock: FUNLAD_clean_linker_1, # of connection points: 2
# Relax obj value: 0.073
# Max RMSD: 0.195
# Mean RMSD: 0.111
data_MOF--net-kag--node1-GEDQOX_clean_sbu_0--edge1-FUNLAD_clean_linker_1
_symmetry_space_group_name_H-M    P1
_symmetry_Int_Tables_number       1
_symmetry_cell_setting            triclinic
loop_
_symmetry_equiv_pos_as_xyz
'x, y, z'
_cell_length_a     51.07833
_cell_length_b     43.566421
_cell_length_c     15.454613
_cell_angle_alpha  94.858312
_cell_angle_beta   89.671413
_cell_angle_gamma 139.49252
loop_
_atom_site_label
_atom_site_type_symbol
_atom_site_fract_x
_atom_site_fract_y
_atom_site_fract_z
_atom_type_partial_charge
Nd0 Nd 1.03413 0.5531 0.01409 0.0
Nd1 Nd 1.04085 0.49123 0.98789 0.0
C2 C 1.01989 0.59828 0.07021 0.0
C3 C 0.99025 0.59707 0.06401 0.0
C4 C 0.94917 0.55636 0.07603 0.0
C5 C 0.92254 0.55765 0.07409 0.0
C6 C 0.93661 0.5998 0.06 0.0
C7 C 0.97761 0.63997 0.04661 0.0
C8 C 1.00406 0.63865 0.0487 0.0
C9 C 1.03193 0.52973 0.84122 0.0
C10 C 0.94867 0.43346 0.99539 0.0
C11 C 0.05625 0.44731 0.93345 0.0
C12 C 0.09089 0.45723 0.93059 0.0
C13 C 0.12993 0.50286 0.92074 0.0
C14 C 0.1622 0.51106 0.91667 0.0
C15 C 0.1561 0.47405 0.92361 0.0
C16 C 0.11685 0.42838 0.93361 0.0
C17 C 0.08463 0.42019 0.93726 0.0
C18 C 0.04201 0.51424 0.16003 0.0
C19 C 0.1265 0.60876 0.00328 0.0
O20 O 1.01114 0.56682 0.1122 0.0
O21 O 1.03876 0.6074 1.00108 0.0
O22 O 0.04985 0.57107 0.87359 0.0
O23 O 1.01399 0.50145 0.89823 0.0
O24 O 0.96564 0.47604 0.02103 0.0
O25 O 0.9714 0.43048 0.96924 0.0
O26 O 0.05568 0.46957 0.88327 0.0
O27 O 0.04457 0.44497 0.01056 0.0
O28 O 1.0229 0.47236 0.12709 0.0
O29 O 0.06091 0.54298 0.10369 0.0
O30 O 0.10766 0.56556 0.97704 0.0
O31 O 0.10535 0.61406 0.03139 0.0
H32 H 0.9377 0.52373 0.0878 0.0
H33 H 0.89134 0.52571 0.08466 0.0
H34 H 0.98948 0.67291 0.03545 0.0
H35 H 1.03562 0.67051 0.03939 0.0
H36 H 0.13544 0.53202 0.91557 0.0
H37 H 0.19202 0.54642 0.90815 0.0
H38 H 0.11059 0.39855 0.93639 0.0
H39 H 0.05463 0.3847 0.94437 0.0
Nd40 Nd 0.52593 0.06209 0.00439 0.0
Nd41 Nd 0.54437 1.0096 0.00528 0.0
C42 C 0.5151 0.1107 0.96836 0.0
C43 C 0.52896 0.15568 0.97608 0.0
C44 C 0.52096 0.16615 0.90453 0.0
C45 C 0.52889 0.20502 0.91222 0.0
C46 C 0.54493 0.23439 0.99222 0.0
C47 C 0.55436 0.22485 0.06289 0.0
C48 C 0.54624 0.18578 0.05521 0.0
C49 C 0.53547 0.04962 0.16835 0.0
C50 C 0.62276 0.12719 0.00978 0.0
C51 C 0.55656 0.96205 0.04049 0.0
C52 C 0.54754 0.92014 0.03194 0.0
C53 C 0.52253 0.88465 0.08787 0.0
C54 C 0.51905 0.84936 0.08796 0.0
C55 C 0.54094 0.84886 0.03334 0.0
C56 C 0.56511 0.88366 0.97563 0.0
C57 C 0.56844 0.91879 0.9753 0.0
C58 C 0.53442 1.02155 0.84102 0.0
C59 C 0.44696 0.94602 0.99824 0.0
O60 O 0.53267 0.10596 0.91732 0.0
O61 O 0.50333 0.08888 0.03771 0.0
O62 O 0.5103 0.04857 0.14662 0.0
O63 O 0.55669 0.06045 0.10657 0.0
O64 O 0.59551 0.12441 0.99315 0.0
O65 O 0.61105 0.08887 0.02724 0.0
O66 O 0.53511 0.96224 0.08694 0.0
O67 O 0.57105 0.98737 0.9756 0.0
O68 O 0.55917 1.02191 0.86217 0.0
O69 O 0.51355 1.01102 0.90328 0.0
O70 O 0.47293 0.94658 0.01614 0.0
O71 O 0.46048 0.98512 0.97977 0.0
H72 H 0.50759 0.14348 0.8428 0.0
H73 H 0.52234 0.21173 0.85521 0.0
H74 H 0.56715 0.24702 0.12507 0.0
H75 H 0.55266 0.17856 0.11162 0.0
H76 H 0.5064 0.8848 0.13333 0.0
H77 H 0.49988 0.82297 0.1327 0.0
H78 H 0.58167 0.88419 0.9305 0.0
H79 H 0.58838 0.94577 0.93194 0.0
Nd80 Nd 0.50774 0.51522 0.97254 0.0
Nd81 Nd 0.60196 0.58796 0.0275 0.0
C82 C 0.43922 0.46769 0.88469 0.0
C83 C 0.40731 0.46231 0.89664 0.0
C84 C 0.39483 0.46905 0.82792 0.0
C85 C 0.36686 0.46774 0.83959 0.0
C86 C 0.35088 0.45965 0.92054 0.0
C87 C 0.36255 0.45158 0.98846 0.0
C88 C 0.39083 0.45336 0.97703 0.0
C89 C 0.52066 0.5285 0.15522 0.0
C90 C 0.56876 0.62983 0.02478 0.0
C91 C 0.66985 0.63156 0.11236 0.0
C92 C 0.69492 0.62636 0.09863 0.0
C93 C 0.68624 0.59805 0.0244 0.0
C94 C 0.70741 0.5893 0.01445 0.0
C95 C 0.73768 0.60859 0.07837 0.0
C96 C 0.74647 0.63727 0.1527 0.0
C97 C 0.72523 0.64605 0.16254 0.0
C98 C 0.58836 0.57332 0.84452 0.0
C99 C 0.54087 0.47367 0.97427 0.0
O100 O 0.47435 0.51006 0.86933 0.0
O101 O 0.44218 0.44843 0.93823 0.0
O102 O 0.48596 0.50152 0.11191 0.0
O103 O 0.54679 0.54743 0.10033 0.0
O104 O 0.53337 0.58753 0.9881 0.0
O105 O 0.59858 0.63813 0.05164 0.0
O106 O 0.63399 0.59411 0.13686 0.0
O107 O 0.66891 0.65024 0.05206 0.0
O108 O 0.62312 0.60039 0.88743 0.0
O109 O 0.56259 0.55498 0.89998 0.0
O110 O 0.57562 0.51523 0.01435 0.0
O111 O 0.51211 0.46641 0.94397 0.0
H112 H 0.40714 0.47593 0.76539 0.0
H113 H 0.35758 0.4726 0.78491 0.0
H114 H 0.3504 0.44488 0.05114 0.0
H115 H 0.40018 0.44839 0.03141 0.0
H116 H 0.6625 0.58191 0.97486 0.0
H117 H 0.69988 0.56705 0.95676 0.0
H118 H 0.76872 0.6518 0.20472 0.0
H119 H 0.7318 0.66726 0.22103 0.0
H120 H 1.00926 0.47876 0.7255 0.0
C121 C 1.02696 0.51521 0.74695 0.0
H122 H 0.06213 0.58272 0.70967 0.0
H123 H 0.10579 0.55519 0.35213 0.0
H124 H 0.16989 0.60999 0.43957 0.0
H125 H 0.17523 0.63014 0.5975 0.0
H126 H 0.11634 0.59524 0.66907 0.0
C127 C 0.04343 0.5459 0.68788 0.0
C128 C 1.03944 0.53247 0.59235 0.0
C129 C 0.07428 0.55385 0.55078 0.0
C130 C 0.07133 0.54279 0.45921 0.0
C131 C 0.10639 0.56326 0.42068 0.0
C132 C 0.14341 0.59459 0.4703 0.0
C133 C 0.14641 0.6059 0.55922 0.0
C134 C 0.11235 0.58573 0.59941 0.0
H135 H 0.06483 0.56514 0.276 0.0
C136 C 0.04666 0.52852 0.25428 0.0
H137 H 1.0105 0.46062 0.29105 0.0
H138 H 0.96722 0.48799 0.64912 0.0
H139 H 0.90315 0.43343 0.5616 0.0
H140 H 0.89787 0.41361 0.40351 0.0
H141 H 0.95674 0.44851 0.33189 0.0
C142 C 1.0296 0.49756 0.3131 0.0
C143 C 1.03359 0.51096 0.40867 0.0
C144 C 0.99876 0.48963 0.45024 0.0
C145 C 1.0017 0.50062 0.54185 0.0
C146 C 0.96663 0.48007 0.58046 0.0
C147 C 0.92964 0.44887 0.53083 0.0
C148 C 0.92667 0.43773 0.44182 0.0
C149 C 0.96071 0.4579 0.40159 0.0
H150 H 0.56591 0.04975 0.27051 0.0
C151 C 0.54316 0.0469 0.25817 0.0
H152 H 0.49972 0.03777 0.31117 0.0
H153 H 0.47266 0.94375 0.64108 0.0
H154 H 0.40946 0.87689 0.55242 0.0
H155 H 0.40036 0.88296 0.40078 0.0
H156 H 0.45463 0.95585 0.33659 0.0
C157 C 0.52318 0.04185 0.32436 0.0
C158 C 0.52974 0.03843 0.41586 0.0
C159 C 0.49749 0.99586 0.45352 0.0
C160 C 0.50252 0.99261 0.54178 0.0
C161 C 0.47025 0.94885 0.57566 0.0
C162 C 0.43381 0.90997 0.52519 0.0
C163 C 0.4287 0.91336 0.43979 0.0
C164 C 0.46009 0.95557 0.4039 0.0
H165 H 0.50384 1.02141 0.73922 0.0
C166 C 0.52648 1.02406 0.75124 0.0
H167 H 0.56963 1.03279 0.69769 0.0
H168 H 0.59674 0.12702 0.36815 0.0
H169 H 0.65999 0.1938 0.45666 0.0
H170 H 0.6691 0.1877 0.60823 0.0
H171 H 0.6148 0.11484 0.67249 0.0
C172 C 0.54625 1.02886 0.68477 0.0
C173 C 0.53965 1.0323 0.59333 0.0
C174 C 0.57191 0.07486 0.55564 0.0
C175 C 0.56688 0.07813 0.4674 0.0
C176 C 0.59916 0.12189 0.43351 0.0
C177 C 0.63562 0.16074 0.48392 0.0
C178 C 0.64074 0.15732 0.56928 0.0
C179 C 0.60933 0.11513 0.60521 0.0
H180 H 0.61031 0.58364 0.71471 0.0
C181 C 0.58371 0.56786 0.74602 0.0
H182 H 0.52553 0.53465 0.72248 0.0
H183 H 0.55337 0.60873 0.35526 0.0
H184 H 0.54699 0.65041 0.44664 0.0
H185 H 0.54318 0.64636 0.60495 0.0
H186 H 0.54594 0.60081 0.67349 0.0
C187 C 0.55173 0.5483 0.69312 0.0
C188 C 0.553 0.54935 0.59405 0.0
C189 C 0.55035 0.57512 0.55303 0.0
C190 C 0.5519 0.57684 0.46025 0.0
C191 C 0.55103 0.60482 0.42394 0.0
C192 C 0.5477 0.6293 0.47585 0.0
C193 C 0.54559 0.62706 0.56507 0.0
C194 C 0.54708 0.60059 0.60355 0.0
H195 H 0.49811 0.51728 0.28458 0.0
C196 C 0.52493 0.53351 0.25373 0.0
H197 H 0.58336 0.56749 0.27829 0.0
H198 H 0.55462 0.4923 0.64475 0.0
H199 H 0.56095 0.45058 0.55332 0.0
H200 H 0.56495 0.45481 0.39504 0.0
H201 H 0.56233 0.50053 0.32662 0.0
C202 C 0.55689 0.55334 0.30713 0.0
C203 C 0.55535 0.55203 0.40612 0.0
C204 C 0.55791 0.52619 0.4471 0.0
C205 C 0.55633 0.52443 0.53987 0.0
C206 C 0.55706 0.49631 0.57611 0.0
C207 C 0.56034 0.47179 0.52416 0.0
C208 C 0.56254 0.47412 0.43496 0.0
C209 C 0.56115 0.50069 0.39655 0.0
H210 H 0.21584 0.5131 0.88118 0.0
C211 C 0.19064 0.48346 0.91538 0.0
H212 H 0.16916 0.42952 0.98788 0.0
H213 H 0.28517 0.44829 0.74104 0.0
H214 H 0.23414 0.41135 0.6233 0.0
H215 H 0.17847 0.39819 0.64618 0.0
H216 H 0.17358 0.42204 0.78677 0.0
C217 C 0.19216 0.45715 0.94794 0.0
C218 C 0.22618 0.46606 0.93334 0.0
C219 C 0.22846 0.45174 0.85059 0.0
C220 C 0.26032 0.45889 0.83766 0.0
C221 C 0.26172 0.4439 0.75456 0.0
C222 C 0.23256 0.42253 0.68635 0.0
C223 C 0.20124 0.41516 0.69921 0.0
C224 C 0.19894 0.42929 0.78027 0.0
H225 H 0.29992 0.43661 0.98358 0.0
C226 C 0.32137 0.45835 0.93542 0.0
H227 H 0.3426 0.507 0.84765 0.0
H228 H 0.2308 0.49831 0.09902 0.0
H229 H 0.2828 0.53711 0.21608 0.0
H230 H 0.33909 0.55141 0.19264 0.0
H231 H 0.34355 0.52667 0.0524 0.0
C232 C 0.32104 0.48415 0.89468 0.0
C233 C 0.28943 0.47968 0.90776 0.0
C234 C 0.28777 0.4952 0.98984 0.0
C235 C 0.25578 0.48781 0.00287 0.0
C236 C 0.2545 0.50312 0.08563 0.0
C237 C 0.2842 0.52553 0.15329 0.0
C238 C 0.31585 0.53352 0.14013 0.0
C239 C 0.31787 0.51879 0.05944 0.0
H240 H 0.67286 0.20565 0.00855 0.0
C241 C 0.66705 0.17609 0.01225 0.0
H242 H 0.69491 0.15742 0.01564 0.0
H243 H 0.85466 0.34257 0.85056 0.0
H244 H 0.81721 0.28466 0.72166 0.0
H245 H 0.74655 0.20472 0.725 0.0
H246 H 0.71249 0.18226 0.85734 0.0
C247 C 0.69984 0.18645 0.01586 0.0
C248 C 0.74358 0.23685 0.01409 0.0
C249 C 0.76439 0.24985 0.93763 0.0
C250 C 0.80619 0.29611 0.93658 0.0
C251 C 0.82414 0.30781 0.85684 0.0
C252 C 0.80277 0.27498 0.78184 0.0
C253 C 0.76293 0.22997 0.78365 0.0
C254 C 0.74378 0.21747 0.86019 0.0
H255 H 0.8948 0.35478 0.9761 0.0
C256 C 0.90365 0.38652 0.99452 0.0
H257 H 0.88162 0.41058 0.03526 0.0
H258 H 0.71528 0.22609 0.17196 0.0
H259 H 0.75267 0.28349 0.30212 0.0
H260 H 0.82459 0.36174 0.30212 0.0
H261 H 0.85984 0.38344 0.17222 0.0
C262 C 0.87347 0.37955 0.014 0.0
C263 C 0.82873 0.32992 0.0133 0.0
C264 C 0.80769 0.31693 0.08963 0.0
C265 C 0.76564 0.27104 0.0899 0.0
C266 C 0.74665 0.26003 0.16787 0.0
C267 C 0.7678 0.29264 0.24315 0.0
C268 C 0.80832 0.33674 0.24313 0.0
C269 C 0.82817 0.34884 0.16777 0.0
H270 H 0.51197 0.78035 0.06947 0.0
C271 C 0.53732 0.81135 0.03798 0.0
H272 H 0.58996 0.84471 0.97704 0.0
H273 H 0.56078 0.69284 0.17801 0.0
H274 H 0.57598 0.73886 0.31219 0.0
H275 H 0.58474 0.8028 0.31015 0.0
H276 H 0.5776 0.8206 0.17396 0.0
C277 C 0.56407 0.81423 0.00819 0.0
C278 C 0.55867 0.77516 0.01104 0.0
C279 C 0.56416 0.76597 0.09092 0.0
C280 C 0.56064 0.73008 0.0918 0.0
C281 C 0.56444 0.72052 0.17305 0.0
C282 C 0.57297 0.74655 0.25071 0.0
C283 C 0.5778 0.78248 0.24959 0.0
C284 C 0.57348 0.79222 0.1709 0.0
H285 H 0.6055 0.70539 0.05895 0.0
C286 C 0.57559 0.67002 0.03444 0.0
H287 H 0.5166 0.62884 0.98518 0.0
H288 H 0.54608 0.78279 0.84673 0.0
H289 H 0.53253 0.73817 0.71205 0.0
H290 H 0.52855 0.67816 0.71294 0.0
H291 H 0.5382 0.66235 0.84832 0.0
C292 C 0.5462 0.664 0.01185 0.0
C293 C 0.55284 0.70418 0.01249 0.0
C294 C 0.54774 0.71377 0.93264 0.0
C295 C 0.55058 0.74901 0.93197 0.0
C296 C 0.54479 0.757 0.85107 0.0
C297 C 0.53688 0.73155 0.77321 0.0
C298 C 0.53459 0.69771 0.77371 0.0
C299 C 0.54001 0.68884 0.85211 0.0
H300 H 0.92532 0.63954 0.05286 0.0
C301 C 0.91062 0.60463 0.06067 0.0
H302 H 0.85446 0.53452 0.08246 0.0
H303 H 0.78753 0.5986 0.25888 0.0
H304 H 0.79613 0.57484 0.38135 0.0
H305 H 0.8291 0.55354 0.36698 0.0
H306 H 0.85345 0.55555 0.22992 0.0
C307 C 0.87081 0.56976 0.07185 0.0
C308 C 0.84871 0.57994 0.0783 0.0
C309 C 0.83468 0.57866 0.15895 0.0
C310 C 0.81617 0.59163 0.1676 0.0
C311 C 0.80226 0.58972 0.24889 0.0
C312 C 0.80692 0.57605 0.31974 0.0
C313 C 0.82545 0.564 0.31162 0.0
C314 C 0.83926 0.56528 0.23244 0.0
H315 H 0.74251 0.56479 0.02128 0.0
C316 C 0.75776 0.596 0.06676 0.0
H317 H 0.81042 0.6531 0.15253 0.0
H318 H 0.86639 0.5792 0.91118 0.0
H319 H 0.85904 0.60442 0.78922 0.0
H320 H 0.8316 0.63251 0.80687 0.0
H321 H 0.81065 0.63473 0.94593 0.0
C322 C 0.79394 0.62151 0.10716 0.0
C323 C 0.81179 0.60603 0.09573 0.0
C324 C 0.82531 0.60666 0.01458 0.0
C325 C 0.84292 0.59258 0.00541 0.0
C326 C 0.85431 0.59133 0.92264 0.0
C327 C 0.85002 0.60542 0.85193 0.0
C328 C 0.83443 0.62107 0.86179 0.0
C329 C 0.82226 0.62186 0.94198 0.0
H330 H 0.18622 0.63993 0.99031 0.0
C331 C 0.17243 0.64999 0.0031 0.0
H332 H 0.18451 0.70823 0.0292 0.0
H333 H 0.37023 0.87714 0.161 0.0
H334 H 0.33889 0.87148 0.28705 0.0
H335 H 0.26475 0.80507 0.28985 0.0
H336 H 0.22124 0.74358 0.16694 0.0
C337 C 0.19773 0.69756 0.0147 0.0
C338 C 0.24418 0.73742 0.01318 0.0
C339 C 0.2701 0.77399 0.08532 0.0
C340 C 0.31354 0.81296 0.0838 0.0
C341 C 0.33754 0.84753 0.15796 0.0
C342 C 0.31993 0.84461 0.231 0.0
C343 C 0.27816 0.80719 0.23257 0.0
C344 C 0.25348 0.7722 0.16115 0.0
H345 H 0.38467 0.90899 0.99165 0.0
C346 C 0.40124 0.90251 0.99957 0.0
H347 H 0.39372 0.84842 0.01436 0.0
H348 H 0.2067 0.68019 0.85703 0.0
H349 H 0.23846 0.68533 0.73308 0.0
H350 H 0.31273 0.74924 0.73464 0.0
H351 H 0.35595 0.80923 0.86008 0.0
C352 C 0.37867 0.85701 0.00949 0.0
C353 C 0.33229 0.81643 0.01022 0.0
C354 C 0.30656 0.77983 0.9384 0.0
C355 C 0.26304 0.74137 0.93891 0.0
C356 C 0.23933 0.70833 0.86275 0.0
C357 C 0.25724 0.7112 0.79042 0.0
C358 C 0.29909 0.74729 0.7912 0.0
C359 C 0.32355 0.78141 0.86377 0.0
H360 H 0.50787 0.40183 0.91848 0.0
C361 C 0.53367 0.43337 0.96221 0.0
H362 H 0.58323 0.46588 0.04811 0.0
H363 H 0.46659 0.23474 0.00939 0.0
H364 H 0.41368 0.22011 0.06422 0.0
H365 H 0.42363 0.28518 0.09112 0.0
H366 H 0.48612 0.36496 0.06208 0.0
C367 C 0.55724 0.43417 0.00495 0.0
C368 C 0.55096 0.3942 0.99214 0.0
C369 C 0.51449 0.34776 0.01192 0.0
C370 C 0.50922 0.31038 0.99908 0.0
C371 C 0.47226 0.26437 0.018 0.0
C372 C 0.44167 0.2555 0.04991 0.0
C373 C 0.44724 0.29211 0.06487 0.0
C374 C 0.48321 0.33776 0.04687 0.0
H375 H 0.57303 0.30242 0.05963 0.0
C376 C 0.55255 0.2753 0.00425 0.0
H377 H 0.51124 0.25127 0.90115 0.0
H378 H 0.62527 0.4788 0.95059 0.0
H379 H 0.67905 0.4938 0.90187 0.0
H380 H 0.67016 0.42951 0.88229 0.0
H381 H 0.60742 0.34967 0.91125 0.0
C382 C 0.53415 0.27939 0.95299 0.0
C383 C 0.54086 0.31955 0.96988 0.0
C384 C 0.57776 0.36623 0.95271 0.0
C385 C 0.58281 0.40344 0.96388 0.0
C386 C 0.61984 0.44937 0.94463 0.0
C387 C 0.65097 0.45849 0.91616 0.0
C388 C 0.64596 0.42226 0.90508 0.0
C389 C 0.6098 0.37658 0.92243 0.0
loop_
_geom_bond_atom_site_label_1
_geom_bond_atom_site_label_2
_geom_bond_distance
_geom_bond_site_symmetry_2
_ccdc_geom_bond_type
Nd0 C2 2.836 1_556 S
Nd0 O20 2.500 1_556 S
Nd0 O21 2.492 . S
Nd0 O22 2.487 . S
Nd0 O23 2.682 1_655 S
Nd0 O24 2.410 . S
Nd0 O29 2.414 1_556 S
Nd0 O31 2.425 1_656 S
Nd1 C11 2.836 1_554 S
Nd1 O23 2.414 1_554 S
Nd1 O25 2.425 1_454 S
Nd1 O26 2.500 1_554 S
Nd1 O27 2.492 . S
Nd1 O28 2.487 . S
Nd1 O29 2.682 1_455 S
Nd1 O30 2.410 . S
C2 Nd0 2.836 1_554 S
C2 C3 1.498 . S
C2 O20 1.258 . S
C2 O21 1.239 1_554 S
C3 C2 1.498 . S
C3 C4 1.366 . S
C3 C8 1.407 1_554 S
C4 C3 1.366 . S
C4 C5 1.392 . S
C4 H32 0.930 . S
C5 C4 1.392 . S
C5 C6 1.398 . S
C5 H33 0.929 . S
C6 C5 1.398 . S
C6 C7 1.352 1_554 S
C7 C6 1.352 1_556 S
C7 C8 1.384 . S
C7 H34 0.930 . S
C8 C3 1.407 1_556 S
C8 C7 1.384 . S
C8 H35 0.929 . S
C9 O22 1.217 1_455 S
C9 O23 1.285 . S
C10 O24 1.251 . S
C10 O25 1.269 . S
C11 Nd1 2.836 1_556 S
C11 C12 1.498 . S
C11 O26 1.258 . S
C11 O27 1.239 1_556 S
C12 C11 1.498 . S
C12 C13 1.366 . S
C12 C17 1.407 1_556 S
C13 C12 1.366 . S
C13 C14 1.392 . S
C13 H36 0.930 . S
C14 C13 1.392 . S
C14 C15 1.398 . S
C14 H37 0.929 . S
C15 C14 1.398 . S
C15 C16 1.352 1_556 S
C16 C15 1.352 1_554 S
C16 C17 1.384 . S
C16 H38 0.930 . S
C17 C12 1.407 1_554 S
C17 C16 1.384 . S
C17 H39 0.929 . S
C18 O28 1.241 . S
C18 O29 1.273 1_455 S
C19 O30 1.251 . S
C19 O31 1.270 . S
O20 Nd0 2.500 1_554 S
O20 C2 1.258 . S
O21 Nd0 2.492 . S
O21 C2 1.239 1_556 S
O22 Nd0 2.487 . S
O22 C9 1.217 1_655 S
O23 Nd0 2.682 1_455 S
O23 Nd1 2.414 1_556 S
O23 C9 1.285 . S
O24 Nd0 2.410 . S
O24 C10 1.251 . S
O25 Nd1 2.425 1_656 S
O25 C10 1.269 . S
O26 Nd1 2.500 1_556 S
O26 C11 1.258 . S
O27 Nd1 2.492 . S
O27 C11 1.239 1_554 S
O28 Nd1 2.487 . S
O28 C18 1.241 . S
O29 Nd0 2.414 1_554 S
O29 Nd1 2.682 1_655 S
O29 C18 1.273 1_655 S
O30 Nd1 2.410 . S
O30 C19 1.251 . S
O31 Nd0 2.425 1_454 S
O31 C19 1.270 . S
H32 C4 0.930 . S
H33 C5 0.929 . S
H34 C7 0.930 . S
H35 C8 0.929 . S
H36 C13 0.930 . S
H37 C14 0.929 . S
H38 C16 0.930 . S
H39 C17 0.929 . S
Nd40 C42 2.836 . S
Nd40 O60 2.500 1_554 S
Nd40 O61 2.492 . S
Nd40 O62 2.487 . S
Nd40 O63 2.682 1_545 S
Nd40 O64 2.410 . S
Nd40 O69 2.414 1_554 S
Nd40 O71 2.424 1_545 S
Nd41 C51 2.836 . S
Nd41 O63 2.414 1_556 S
Nd41 O65 2.424 1_565 S
Nd41 O66 2.500 1_556 S
Nd41 O67 2.492 . S
Nd41 O68 2.487 . S
Nd41 O69 2.682 1_565 S
Nd41 O70 2.410 . S
C42 Nd40 2.836 . S
C42 C43 1.498 . S
C42 O60 1.258 1_554 S
C42 O61 1.239 . S
C43 C42 1.498 . S
C43 C44 1.366 1_554 S
C43 C48 1.407 . S
C44 C43 1.366 1_556 S
C44 C45 1.392 . S
C44 H72 0.930 . S
C45 C44 1.392 . S
C45 C46 1.398 1_556 S
C45 H73 0.929 . S
C46 C45 1.398 1_554 S
C46 C47 1.352 . S
C47 C46 1.352 . S
C47 C48 1.384 . S
C47 H74 0.930 . S
C48 C43 1.407 . S
C48 C47 1.384 . S
C48 H75 0.929 . S
C49 O62 1.241 . S
C49 O63 1.273 1_545 S
C50 O64 1.251 . S
C50 O65 1.268 1_554 S
C51 Nd41 2.836 . S
C51 C52 1.498 . S
C51 O66 1.258 1_556 S
C51 O67 1.239 . S
C52 C51 1.498 . S
C52 C53 1.366 1_556 S
C52 C57 1.407 . S
C53 C52 1.366 1_554 S
C53 C54 1.392 . S
C53 H76 0.930 . S
C54 C53 1.392 . S
C54 C55 1.398 1_554 S
C54 H77 0.929 . S
C55 C54 1.398 1_556 S
C55 C56 1.352 . S
C56 C55 1.352 . S
C56 C57 1.384 . S
C56 H78 0.930 . S
C57 C52 1.407 . S
C57 C56 1.384 . S
C57 H79 0.929 . S
C58 O68 1.241 . S
C58 O69 1.273 1_565 S
C59 O70 1.251 . S
C59 O71 1.268 1_556 S
O60 Nd40 2.500 1_556 S
O60 C42 1.258 1_556 S
O61 Nd40 2.492 . S
O61 C42 1.239 . S
O62 Nd40 2.487 . S
O62 C49 1.241 . S
O63 Nd40 2.682 1_565 S
O63 Nd41 2.414 1_554 S
O63 C49 1.273 1_565 S
O64 Nd40 2.410 . S
O64 C50 1.251 . S
O65 Nd41 2.424 1_545 S
O65 C50 1.268 1_556 S
O66 Nd41 2.500 1_554 S
O66 C51 1.258 1_554 S
O67 Nd41 2.492 . S
O67 C51 1.239 . S
O68 Nd41 2.487 . S
O68 C58 1.241 . S
O69 Nd40 2.414 1_556 S
O69 Nd41 2.682 1_545 S
O69 C58 1.273 1_545 S
O70 Nd41 2.410 . S
O70 C59 1.251 . S
O71 Nd40 2.424 1_565 S
O71 C59 1.268 1_554 S
H72 C44 0.930 . S
H73 C45 0.929 . S
H74 C47 0.930 . S
H75 C48 0.929 . S
H76 C53 0.930 . S
H77 C54 0.929 . S
H78 C56 0.930 . S
H79 C57 0.929 . S
Nd80 C82 2.836 1_554 S
Nd80 O100 2.500 1_554 S
Nd80 O101 2.492 . S
Nd80 O102 2.487 . S
Nd80 O103 2.682 . S
Nd80 O104 2.410 . S
Nd80 O109 2.414 1_554 S
Nd80 O111 2.424 1_554 S
Nd81 C91 2.836 1_556 S
Nd81 O103 2.414 1_556 S
Nd81 O105 2.424 1_556 S
Nd81 O106 2.500 1_556 S
Nd81 O107 2.492 . S
Nd81 O108 2.487 . S
Nd81 O109 2.682 . S
Nd81 O110 2.410 . S
C82 Nd80 2.836 1_556 S
C82 C83 1.498 . S
C82 O100 1.258 . S
C82 O101 1.239 1_556 S
C83 C82 1.498 . S
C83 C84 1.366 . S
C83 C88 1.407 1_556 S
C84 C83 1.366 . S
C84 C85 1.392 . S
C84 H112 0.930 . S
C85 C84 1.392 . S
C85 C86 1.398 . S
C85 H113 0.929 . S
C86 C85 1.398 . S
C86 C87 1.352 1_556 S
C87 C86 1.352 1_554 S
C87 C88 1.384 . S
C87 H114 0.930 . S
C88 C83 1.407 1_554 S
C88 C87 1.384 . S
C88 H115 0.929 . S
C89 O102 1.241 . S
C89 O103 1.273 . S
C90 O104 1.251 . S
C90 O105 1.268 . S
C91 Nd81 2.836 1_554 S
C91 C92 1.498 . S
C91 O106 1.258 . S
C91 O107 1.239 1_554 S
C92 C91 1.498 . S
C92 C93 1.366 . S
C92 C97 1.407 1_554 S
C93 C92 1.366 . S
C93 C94 1.392 . S
C93 H116 0.930 . S
C94 C93 1.392 . S
C94 C95 1.398 . S
C94 H117 0.929 . S
C95 C94 1.398 . S
C95 C96 1.352 1_554 S
C96 C95 1.352 1_556 S
C96 C97 1.384 . S
C96 H118 0.930 . S
C97 C92 1.407 1_556 S
C97 C96 1.384 . S
C97 H119 0.929 . S
C98 O108 1.241 . S
C98 O109 1.273 . S
C99 O110 1.251 . S
C99 O111 1.268 . S
O100 Nd80 2.500 1_556 S
O100 C82 1.258 . S
O101 Nd80 2.492 . S
O101 C82 1.239 1_554 S
O102 Nd80 2.487 . S
O102 C89 1.241 . S
O103 Nd80 2.682 . S
O103 Nd81 2.414 1_554 S
O103 C89 1.273 . S
O104 Nd80 2.410 . S
O104 C90 1.251 . S
O105 Nd81 2.424 1_554 S
O105 C90 1.268 . S
O106 Nd81 2.500 1_554 S
O106 C91 1.258 . S
O107 Nd81 2.492 . S
O107 C91 1.239 1_556 S
O108 Nd81 2.487 . S
O108 C98 1.241 . S
O109 Nd80 2.414 1_556 S
O109 Nd81 2.682 . S
O109 C98 1.273 . S
O110 Nd81 2.410 . S
O110 C99 1.251 . S
O111 Nd80 2.424 1_556 S
O111 C99 1.268 . S
H112 C84 0.930 . S
H113 C85 0.929 . S
H114 C87 0.930 . S
H115 C88 0.929 . S
H116 C93 0.930 . S
H117 C94 0.929 . S
H118 C96 0.930 . S
H119 C97 0.929 . S
H120 C121 0.951 . S
C121 H120 0.951 . S
C121 C127 1.265 1_455 S
H122 C127 0.950 . S
H123 C131 0.949 . S
H124 C132 0.950 . S
H125 C133 0.951 . S
H126 C134 0.951 . S
C127 C121 1.265 1_655 S
C127 H122 0.950 . S
C127 C128 1.478 . S
C128 C127 1.478 . S
C128 C129 1.397 1_655 S
C128 C145 1.394 . S
C129 C128 1.397 1_455 S
C129 C130 1.438 . S
C129 C134 1.429 . S
C130 C129 1.438 . S
C130 C131 1.428 . S
C130 C143 1.394 . S
C131 H123 0.949 . S
C131 C130 1.428 . S
C131 C132 1.345 . S
C132 H124 0.950 . S
C132 C131 1.345 . S
C132 C133 1.424 . S
C133 H125 0.951 . S
C133 C132 1.424 . S
C133 C134 1.347 . S
C134 H126 0.951 . S
C134 C129 1.429 . S
C134 C133 1.347 . S
H135 C136 0.951 . S
C136 H135 0.951 . S
C136 C142 1.265 1_655 S
H137 C142 0.950 . S
H138 C146 0.949 . S
H139 C147 0.950 . S
H140 C148 0.951 . S
H141 C149 0.951 . S
C142 C136 1.265 1_455 S
C142 H137 0.950 . S
C142 C143 1.478 . S
C143 C130 1.394 . S
C143 C142 1.478 . S
C143 C144 1.397 1_455 S
C144 C143 1.397 1_655 S
C144 C145 1.438 . S
C144 C149 1.429 . S
C145 C128 1.394 . S
C145 C144 1.438 . S
C145 C146 1.428 . S
C146 H138 0.949 . S
C146 C145 1.428 . S
C146 C147 1.345 . S
C147 H139 0.950 . S
C147 C146 1.345 . S
C147 C148 1.424 . S
C148 H140 0.951 . S
C148 C147 1.424 . S
C148 C149 1.347 . S
C149 H141 0.951 . S
C149 C144 1.429 . S
C149 C148 1.347 . S
H150 C151 0.951 . S
C151 H150 0.951 . S
C151 C157 1.265 1_545 S
H152 C157 0.950 . S
H153 C161 0.949 . S
H154 C162 0.950 . S
H155 C163 0.951 . S
H156 C164 0.951 . S
C157 C151 1.265 1_565 S
C157 H152 0.950 . S
C157 C158 1.478 . S
C158 C157 1.478 . S
C158 C159 1.397 . S
C158 C175 1.394 1_565 S
C159 C158 1.397 . S
C159 C160 1.438 . S
C159 C164 1.429 . S
C160 C159 1.438 . S
C160 C161 1.428 . S
C160 C173 1.394 1_565 S
C161 H153 0.949 . S
C161 C160 1.428 . S
C161 C162 1.345 . S
C162 H154 0.950 . S
C162 C161 1.345 . S
C162 C163 1.424 . S
C163 H155 0.951 . S
C163 C162 1.424 . S
C163 C164 1.347 . S
C164 H156 0.951 . S
C164 C159 1.429 . S
C164 C163 1.347 . S
H165 C166 0.951 . S
C166 H165 0.951 . S
C166 C172 1.265 1_565 S
H167 C172 0.950 . S
H168 C176 0.949 . S
H169 C177 0.950 . S
H170 C178 0.951 . S
H171 C179 0.951 . S
C172 C166 1.265 1_545 S
C172 H167 0.950 . S
C172 C173 1.478 . S
C173 C160 1.394 1_545 S
C173 C172 1.478 . S
C173 C174 1.397 . S
C174 C173 1.397 . S
C174 C175 1.438 . S
C174 C179 1.429 . S
C175 C158 1.394 1_545 S
C175 C174 1.438 . S
C175 C176 1.428 . S
C176 H168 0.949 . S
C176 C175 1.428 . S
C176 C177 1.345 . S
C177 H169 0.950 . S
C177 C176 1.345 . S
C177 C178 1.424 . S
C178 H170 0.951 . S
C178 C177 1.424 . S
C178 C179 1.347 . S
C179 H171 0.951 . S
C179 C174 1.429 . S
C179 C178 1.347 . S
H180 C181 0.951 . S
C181 H180 0.951 . S
C181 C187 1.265 . S
H182 C187 0.950 . S
H183 C191 0.949 . S
H184 C192 0.950 . S
H185 C193 0.951 . S
H186 C194 0.951 . S
C187 C181 1.265 . S
C187 H182 0.950 . S
C187 C188 1.478 . S
C188 C187 1.478 . S
C188 C189 1.397 . S
C188 C205 1.394 . S
C189 C188 1.397 . S
C189 C190 1.438 . S
C189 C194 1.429 . S
C190 C189 1.438 . S
C190 C191 1.428 . S
C190 C203 1.394 . S
C191 H183 0.949 . S
C191 C190 1.428 . S
C191 C192 1.345 . S
C192 H184 0.950 . S
C192 C191 1.345 . S
C192 C193 1.424 . S
C193 H185 0.951 . S
C193 C192 1.424 . S
C193 C194 1.347 . S
C194 H186 0.951 . S
C194 C189 1.429 . S
C194 C193 1.347 . S
H195 C196 0.951 . S
C196 H195 0.951 . S
C196 C202 1.265 . S
H197 C202 0.950 . S
H198 C206 0.949 . S
H199 C207 0.950 . S
H200 C208 0.951 . S
H201 C209 0.951 . S
C202 C196 1.265 . S
C202 H197 0.950 . S
C202 C203 1.478 . S
C203 C190 1.394 . S
C203 C202 1.478 . S
C203 C204 1.397 . S
C204 C203 1.397 . S
C204 C205 1.438 . S
C204 C209 1.429 . S
C205 C188 1.394 . S
C205 C204 1.438 . S
C205 C206 1.428 . S
C206 H198 0.949 . S
C206 C205 1.428 . S
C206 C207 1.345 . S
C207 H199 0.950 . S
C207 C206 1.345 . S
C207 C208 1.424 . S
C208 H200 0.951 . S
C208 C207 1.424 . S
C208 C209 1.347 . S
C209 H201 0.951 . S
C209 C204 1.429 . S
C209 C208 1.347 . S
H210 C211 0.951 . S
C211 H210 0.951 . S
C211 C217 1.265 . S
H212 C217 0.950 . S
H213 C221 0.949 . S
H214 C222 0.950 . S
H215 C223 0.951 . S
H216 C224 0.951 . S
C217 C211 1.265 . S
C217 H212 0.950 . S
C217 C218 1.478 . S
C218 C217 1.478 . S
C218 C219 1.397 . S
C218 C235 1.394 1_556 S
C219 C218 1.397 . S
C219 C220 1.438 . S
C219 C224 1.429 . S
C220 C219 1.438 . S
C220 C221 1.428 . S
C220 C233 1.394 . S
C221 H213 0.949 . S
C221 C220 1.428 . S
C221 C222 1.345 . S
C222 H214 0.950 . S
C222 C221 1.345 . S
C222 C223 1.424 . S
C223 H215 0.951 . S
C223 C222 1.424 . S
C223 C224 1.347 . S
C224 H216 0.951 . S
C224 C219 1.429 . S
C224 C223 1.347 . S
H225 C226 0.951 . S
C226 H225 0.951 . S
C226 C232 1.265 . S
H227 C232 0.950 . S
H228 C236 0.949 . S
H229 C237 0.950 . S
H230 C238 0.951 . S
H231 C239 0.951 . S
C232 C226 1.265 . S
C232 H227 0.950 . S
C232 C233 1.478 . S
C233 C220 1.394 . S
C233 C232 1.478 . S
C233 C234 1.397 1_556 S
C234 C233 1.397 1_554 S
C234 C235 1.438 . S
C234 C239 1.429 . S
C235 C218 1.394 1_554 S
C235 C234 1.438 . S
C235 C236 1.428 . S
C236 H228 0.949 . S
C236 C235 1.428 . S
C236 C237 1.345 . S
C237 H229 0.950 . S
C237 C236 1.345 . S
C237 C238 1.424 . S
C238 H230 0.951 . S
C238 C237 1.424 . S
C238 C239 1.347 . S
C239 H231 0.951 . S
C239 C234 1.429 . S
C239 C238 1.347 . S
H240 C241 0.951 . S
C241 H240 0.951 . S
C241 C247 1.264 1_554 S
H242 C247 0.950 . S
H243 C251 0.949 . S
H244 C252 0.950 . S
H245 C253 0.951 . S
H246 C254 0.951 . S
C247 C241 1.264 1_556 S
C247 H242 0.950 . S
C247 C248 1.478 . S
C248 C247 1.478 . S
C248 C249 1.397 . S
C248 C265 1.394 1_556 S
C249 C248 1.397 . S
C249 C250 1.438 . S
C249 C254 1.429 . S
C250 C249 1.438 . S
C250 C251 1.428 . S
C250 C263 1.394 1_556 S
C251 H243 0.949 . S
C251 C250 1.428 . S
C251 C252 1.345 . S
C252 H244 0.950 . S
C252 C251 1.345 . S
C252 C253 1.424 . S
C253 H245 0.951 . S
C253 C252 1.424 . S
C253 C254 1.347 . S
C254 H246 0.951 . S
C254 C249 1.429 . S
C254 C253 1.347 . S
H255 C256 0.951 . S
C256 H255 0.951 . S
C256 C262 1.265 1_556 S
H257 C262 0.950 . S
H258 C266 0.949 . S
H259 C267 0.950 . S
H260 C268 0.951 . S
H261 C269 0.951 . S
C262 C256 1.265 1_554 S
C262 H257 0.950 . S
C262 C263 1.478 . S
C263 C250 1.394 1_554 S
C263 C262 1.478 . S
C263 C264 1.397 . S
C264 C263 1.397 . S
C264 C265 1.438 . S
C264 C269 1.429 . S
C265 C248 1.394 1_554 S
C265 C264 1.438 . S
C265 C266 1.428 . S
C266 H258 0.949 . S
C266 C265 1.428 . S
C266 C267 1.345 . S
C267 H259 0.950 . S
C267 C266 1.345 . S
C267 C268 1.424 . S
C268 H260 0.951 . S
C268 C267 1.424 . S
C268 C269 1.347 . S
C269 H261 0.951 . S
C269 C264 1.429 . S
C269 C268 1.347 . S
H270 C271 0.951 . S
C271 H270 0.951 . S
C271 C277 1.265 1_556 S
H272 C277 0.950 . S
H273 C281 0.949 . S
H274 C282 0.950 . S
H275 C283 0.951 . S
H276 C284 0.951 . S
C277 C271 1.265 1_554 S
C277 H272 0.950 . S
C277 C278 1.479 1_554 S
C278 C277 1.479 1_556 S
C278 C279 1.390 1_556 S
C278 C295 1.400 . S
C279 C278 1.390 1_554 S
C279 C280 1.438 . S
C279 C284 1.429 . S
C280 C279 1.438 . S
C280 C281 1.428 . S
C280 C293 1.394 1_554 S
C281 H273 0.949 . S
C281 C280 1.428 . S
C281 C282 1.345 . S
C282 H274 0.950 . S
C282 C281 1.345 . S
C282 C283 1.424 . S
C283 H275 0.951 . S
C283 C282 1.424 . S
C283 C284 1.347 . S
C284 H276 0.951 . S
C284 C279 1.429 . S
C284 C283 1.347 . S
H285 C286 0.951 . S
C286 H285 0.951 . S
C286 C292 1.265 1_554 S
H287 C292 0.950 . S
H288 C296 0.949 . S
H289 C297 0.950 . S
H290 C298 0.951 . S
H291 C299 0.951 . S
C292 C286 1.265 1_556 S
C292 H287 0.950 . S
C292 C293 1.478 . S
C293 C280 1.394 1_556 S
C293 C292 1.478 . S
C293 C294 1.397 . S
C294 C293 1.397 . S
C294 C295 1.438 . S
C294 C299 1.429 . S
C295 C278 1.400 . S
C295 C294 1.438 . S
C295 C296 1.428 . S
C296 H288 0.949 . S
C296 C295 1.428 . S
C296 C297 1.345 . S
C297 H289 0.950 . S
C297 C296 1.345 . S
C297 C298 1.424 . S
C298 H290 0.951 . S
C298 C297 1.424 . S
C298 C299 1.347 . S
C299 H291 0.951 . S
C299 C294 1.429 . S
C299 C298 1.347 . S
H300 C301 0.951 . S
C301 H300 0.951 . S
C301 C307 1.265 . S
H302 C307 0.950 . S
H303 C311 0.949 . S
H304 C312 0.950 . S
H305 C313 0.951 . S
H306 C314 0.951 . S
C307 C301 1.265 . S
C307 H302 0.950 . S
C307 C308 1.478 . S
C308 C307 1.478 . S
C308 C309 1.397 . S
C308 C325 1.394 1_554 S
C309 C308 1.397 . S
C309 C310 1.438 . S
C309 C314 1.429 . S
C310 C309 1.438 . S
C310 C311 1.428 . S
C310 C323 1.394 . S
C311 H303 0.949 . S
C311 C310 1.428 . S
C311 C312 1.345 . S
C312 H304 0.950 . S
C312 C311 1.345 . S
C312 C313 1.424 . S
C313 H305 0.951 . S
C313 C312 1.424 . S
C313 C314 1.347 . S
C314 H306 0.951 . S
C314 C309 1.429 . S
C314 C313 1.347 . S
H315 C316 0.951 . S
C316 H315 0.951 . S
C316 C322 1.265 . S
H317 C322 0.950 . S
H318 C326 0.949 . S
H319 C327 0.950 . S
H320 C328 0.951 . S
H321 C329 0.951 . S
C322 C316 1.265 . S
C322 H317 0.950 . S
C322 C323 1.478 . S
C323 C310 1.394 . S
C323 C322 1.478 . S
C323 C324 1.397 1_554 S
C324 C323 1.397 1_556 S
C324 C325 1.438 . S
C324 C329 1.429 . S
C325 C308 1.394 1_556 S
C325 C324 1.438 . S
C325 C326 1.428 . S
C326 H318 0.949 . S
C326 C325 1.428 . S
C326 C327 1.345 . S
C327 H319 0.950 . S
C327 C326 1.345 . S
C327 C328 1.424 . S
C328 H320 0.951 . S
C328 C327 1.424 . S
C328 C329 1.347 . S
C329 H321 0.951 . S
C329 C324 1.429 . S
C329 C328 1.347 . S
H330 C331 0.951 . S
C331 H330 0.951 . S
C331 C337 1.265 1_554 S
H332 C337 0.950 . S
H333 C341 0.949 . S
H334 C342 0.950 . S
H335 C343 0.951 . S
H336 C344 0.951 . S
C337 C331 1.265 1_556 S
C337 H332 0.950 . S
C337 C338 1.478 . S
C338 C337 1.478 . S
C338 C339 1.397 1_556 S
C338 C355 1.394 . S
C339 C338 1.397 1_554 S
C339 C340 1.438 . S
C339 C344 1.429 . S
C340 C339 1.438 . S
C340 C341 1.428 . S
C340 C353 1.394 . S
C341 H333 0.949 . S
C341 C340 1.428 . S
C341 C342 1.345 . S
C342 H334 0.950 . S
C342 C341 1.345 . S
C342 C343 1.424 . S
C343 H335 0.951 . S
C343 C342 1.424 . S
C343 C344 1.347 . S
C344 H336 0.951 . S
C344 C339 1.429 . S
C344 C343 1.347 . S
H345 C346 0.951 . S
C346 H345 0.951 . S
C346 C352 1.265 1_556 S
H347 C352 0.950 . S
H348 C356 0.949 . S
H349 C357 0.950 . S
H350 C358 0.951 . S
H351 C359 0.951 . S
C352 C346 1.265 1_554 S
C352 H347 0.950 . S
C352 C353 1.478 . S
C353 C340 1.394 . S
C353 C352 1.478 . S
C353 C354 1.397 1_554 S
C354 C353 1.397 1_556 S
C354 C355 1.438 . S
C354 C359 1.429 . S
C355 C338 1.394 . S
C355 C354 1.438 . S
C355 C356 1.428 . S
C356 H348 0.949 . S
C356 C355 1.428 . S
C356 C357 1.345 . S
C357 H349 0.950 . S
C357 C356 1.345 . S
C357 C358 1.424 . S
C358 H350 0.951 . S
C358 C357 1.424 . S
C358 C359 1.347 . S
C359 H351 0.951 . S
C359 C354 1.429 . S
C359 C358 1.347 . S
H360 C361 0.951 1_554 S
C361 H360 0.951 1_556 S
C361 C367 1.265 . S
H362 C367 0.950 . S
H363 C371 0.949 . S
H364 C372 0.950 . S
H365 C373 0.951 . S
H366 C374 0.951 . S
C367 C361 1.265 . S
C367 H362 0.950 . S
C367 C368 1.478 . S
C368 C367 1.478 . S
C368 C369 1.397 . S
C368 C385 1.394 1_556 S
C369 C368 1.397 . S
C369 C370 1.438 . S
C369 C374 1.429 . S
C370 C369 1.438 . S
C370 C371 1.428 . S
C370 C383 1.394 1_556 S
C371 H363 0.949 . S
C371 C370 1.428 . S
C371 C372 1.345 . S
C372 H364 0.950 . S
C372 C371 1.345 . S
C372 C373 1.424 . S
C373 H365 0.951 . S
C373 C372 1.424 . S
C373 C374 1.347 . S
C374 H366 0.951 . S
C374 C369 1.429 . S
C374 C373 1.347 . S
H375 C376 0.951 1_556 S
C376 H375 0.951 1_554 S
C376 C382 1.265 . S
H377 C382 0.950 . S
H378 C386 0.949 . S
H379 C387 0.950 . S
H380 C388 0.951 . S
H381 C389 0.951 . S
C382 C376 1.265 . S
C382 H377 0.950 . S
C382 C383 1.478 . S
C383 C370 1.394 1_554 S
C383 C382 1.478 . S
C383 C384 1.397 . S
C384 C383 1.397 . S
C384 C385 1.438 . S
C384 C389 1.429 . S
C385 C368 1.394 1_554 S
C385 C384 1.438 . S
C385 C386 1.428 . S
C386 H378 0.949 . S
C386 C385 1.428 . S
C386 C387 1.345 . S
C387 H379 0.950 . S
C387 C386 1.345 . S
C387 C388 1.424 . S
C388 H380 0.951 . S
C388 C387 1.424 . S
C388 C389 1.347 . S
C389 H381 0.951 . S
C389 C384 1.429 . S
C389 C388 1.347 . S
C121 C9 1.490 . S
C136 C18 1.481 1_655 S
C151 C49 1.482 . S
C166 C58 1.482 . S
C181 C98 1.382 . S
C196 C89 1.382 . S
C211 C15 0.946 . S
C226 C86 0.932 . S
C241 C50 2.587 . S
C256 C10 2.606 . S
C271 C55 2.006 . S
C286 C90 2.044 . S
C301 C6 0.867 . S
C316 C95 0.891 . S
C331 C19 2.609 . S
C346 C59 2.543 . S
C361 C99 2.013 . S
C376 C46 1.931 . S
