# Generated by pormake.
# Topology pem, (4)-cn, num edge types: 1
# Building blocks:
#     Node 0, Type 0, BuildingBlock: NAHDIM_clean_sbu_0, # of connection points: 4
#     Node 1, Type 0, BuildingBlock: NAHDIM_clean_sbu_0, # of connection points: 4
#     Node 2, Type 0, BuildingBlock: NAHDIM_clean_sbu_0, # of connection points: 4
#     Node 3, Type 0, BuildingBlock: NAHDIM_clean_sbu_0, # of connection points: 4
#     Node 4, Type 0, BuildingBlock: NAHDIM_clean_sbu_0, # of connection points: 4
#     Node 5, Type 0, BuildingBlock: NAHDIM_clean_sbu_0, # of connection points: 4
#     Node 6, Type 0, BuildingBlock: NAHDIM_clean_sbu_0, # of connection points: 4
#     Node 7, Type 0, BuildingBlock: NAHDIM_clean_sbu_0, # of connection points: 4
#     Node 8, Type 0, BuildingBlock: NAHDIM_clean_sbu_0, # of connection points: 4
#     Node 9, Type 0, BuildingBlock: NAHDIM_clean_sbu_0, # of connection points: 4
#     Node 10, Type 0, BuildingBlock: NAHDIM_clean_sbu_0, # of connection points: 4
#     Node 11, Type 0, BuildingBlock: NAHDIM_clean_sbu_0, # of connection points: 4
#     Node 12, Type 0, BuildingBlock: NAHDIM_clean_sbu_0, # of connection points: 4
#     Node 13, Type 0, BuildingBlock: NAHDIM_clean_sbu_0, # of connection points: 4
#     Node 14, Type 0, BuildingBlock: NAHDIM_clean_sbu_0, # of connection points: 4
#     Node 15, Type 0, BuildingBlock: NAHDIM_clean_sbu_0, # of connection points: 4
#     Node 16, Type 0, BuildingBlock: NAHDIM_clean_sbu_0, # of connection points: 4
#     Node 17, Type 0, BuildingBlock: NAHDIM_clean_sbu_0, # of connection points: 4
#     Node 18, Type 0, BuildingBlock: NAHDIM_clean_sbu_0, # of connection points: 4
#     Node 19, Type 0, BuildingBlock: NAHDIM_clean_sbu_0, # of connection points: 4
#     Node 20, Type 0, BuildingBlock: NAHDIM_clean_sbu_0, # of connection points: 4
#     Node 21, Type 0, BuildingBlock: NAHDIM_clean_sbu_0, # of connection points: 4
#     Node 22, Type 0, BuildingBlock: NAHDIM_clean_sbu_0, # of connection points: 4
#     Node 23, Type 0, BuildingBlock: NAHDIM_clean_sbu_0, # of connection points: 4
#     Node 24, Type 0, BuildingBlock: NAHDIM_clean_sbu_0, # of connection points: 4
#     Node 25, Type 0, BuildingBlock: NAHDIM_clean_sbu_0, # of connection points: 4
#     Node 26, Type 0, BuildingBlock: NAHDIM_clean_sbu_0, # of connection points: 4
#     Node 27, Type 0, BuildingBlock: NAHDIM_clean_sbu_0, # of connection points: 4
#     Node 28, Type 0, BuildingBlock: NAHDIM_clean_sbu_0, # of connection points: 4
#     Node 29, Type 0, BuildingBlock: NAHDIM_clean_sbu_0, # of connection points: 4
#     Node 30, Type 0, BuildingBlock: NAHDIM_clean_sbu_0, # of connection points: 4
#     Node 31, Type 0, BuildingBlock: NAHDIM_clean_sbu_0, # of connection points: 4
#     Edge 32, Type (0, 0), BuildingBlock: KIFKEQ_clean_linker_1, # of connection points: 2
#     Edge 33, Type (0, 0), BuildingBlock: KIFKEQ_clean_linker_1, # of connection points: 2
#     Edge 34, Type (0, 0), BuildingBlock: KIFKEQ_clean_linker_1, # of connection points: 2
#     Edge 35, Type (0, 0), BuildingBlock: KIFKEQ_clean_linker_1, # of connection points: 2
#     Edge 36, Type (0, 0), BuildingBlock: KIFKEQ_clean_linker_1, # of connection points: 2
#     Edge 37, Type (0, 0), BuildingBlock: KIFKEQ_clean_linker_1, # of connection points: 2
#     Edge 38, Type (0, 0), BuildingBlock: KIFKEQ_clean_linker_1, # of connection points: 2
#     Edge 39, Type (0, 0), BuildingBlock: KIFKEQ_clean_linker_1, # of connection points: 2
#     Edge 40, Type (0, 0), BuildingBlock: KIFKEQ_clean_linker_1, # of connection points: 2
#     Edge 41, Type (0, 0), BuildingBlock: KIFKEQ_clean_linker_1, # of connection points: 2
#     Edge 42, Type (0, 0), BuildingBlock: KIFKEQ_clean_linker_1, # of connection points: 2
#     Edge 43, Type (0, 0), BuildingBlock: KIFKEQ_clean_linker_1, # of connection points: 2
#     Edge 44, Type (0, 0), BuildingBlock: KIFKEQ_clean_linker_1, # of connection points: 2
#     Edge 45, Type (0, 0), BuildingBlock: KIFKEQ_clean_linker_1, # of connection points: 2
#     Edge 46, Type (0, 0), BuildingBlock: KIFKEQ_clean_linker_1, # of connection points: 2
#     Edge 47, Type (0, 0), BuildingBlock: KIFKEQ_clean_linker_1, # of connection points: 2
#     Edge 48, Type (0, 0), BuildingBlock: KIFKEQ_clean_linker_1, # of connection points: 2
#     Edge 49, Type (0, 0), BuildingBlock: KIFKEQ_clean_linker_1, # of connection points: 2
#     Edge 50, Type (0, 0), BuildingBlock: KIFKEQ_clean_linker_1, # of connection points: 2
#     Edge 51, Type (0, 0), BuildingBlock: KIFKEQ_clean_linker_1, # of connection points: 2
#     Edge 52, Type (0, 0), BuildingBlock: KIFKEQ_clean_linker_1, # of connection points: 2
#     Edge 53, Type (0, 0), BuildingBlock: KIFKEQ_clean_linker_1, # of connection points: 2
#     Edge 54, Type (0, 0), BuildingBlock: KIFKEQ_clean_linker_1, # of connection points: 2
#     Edge 55, Type (0, 0), BuildingBlock: KIFKEQ_clean_linker_1, # of connection points: 2
#     Edge 56, Type (0, 0), BuildingBlock: KIFKEQ_clean_linker_1, # of connection points: 2
#     Edge 57, Type (0, 0), BuildingBlock: KIFKEQ_clean_linker_1, # of connection points: 2
#     Edge 58, Type (0, 0), BuildingBlock: KIFKEQ_clean_linker_1, # of connection points: 2
#     Edge 59, Type (0, 0), BuildingBlock: KIFKEQ_clean_linker_1, # of connection points: 2
#     Edge 60, Type (0, 0), BuildingBlock: KIFKEQ_clean_linker_1, # of connection points: 2
#     Edge 61, Type (0, 0), BuildingBlock: KIFKEQ_clean_linker_1, # of connection points: 2
#     Edge 62, Type (0, 0), BuildingBlock: KIFKEQ_clean_linker_1, # of connection points: 2
#     Edge 63, Type (0, 0), BuildingBlock: KIFKEQ_clean_linker_1, # of connection points: 2
#     Edge 64, Type (0, 0), BuildingBlock: KIFKEQ_clean_linker_1, # of connection points: 2
#     Edge 65, Type (0, 0), BuildingBlock: KIFKEQ_clean_linker_1, # of connection points: 2
#     Edge 66, Type (0, 0), BuildingBlock: KIFKEQ_clean_linker_1, # of connection points: 2
#     Edge 67, Type (0, 0), BuildingBlock: KIFKEQ_clean_linker_1, # of connection points: 2
#     Edge 68, Type (0, 0), BuildingBlock: KIFKEQ_clean_linker_1, # of connection points: 2
#     Edge 69, Type (0, 0), BuildingBlock: KIFKEQ_clean_linker_1, # of connection points: 2
#     Edge 70, Type (0, 0), BuildingBlock: KIFKEQ_clean_linker_1, # of connection points: 2
#     Edge 71, Type (0, 0), BuildingBlock: KIFKEQ_clean_linker_1, # of connection points: 2
#     Edge 72, Type (0, 0), BuildingBlock: KIFKEQ_clean_linker_1, # of connection points: 2
#     Edge 73, Type (0, 0), BuildingBlock: KIFKEQ_clean_linker_1, # of connection points: 2
#     Edge 74, Type (0, 0), BuildingBlock: KIFKEQ_clean_linker_1, # of connection points: 2
#     Edge 75, Type (0, 0), BuildingBlock: KIFKEQ_clean_linker_1, # of connection points: 2
#     Edge 76, Type (0, 0), BuildingBlock: KIFKEQ_clean_linker_1, # of connection points: 2
#     Edge 77, Type (0, 0), BuildingBlock: KIFKEQ_clean_linker_1, # of connection points: 2
#     Edge 78, Type (0, 0), BuildingBlock: KIFKEQ_clean_linker_1, # of connection points: 2
#     Edge 79, Type (0, 0), BuildingBlock: KIFKEQ_clean_linker_1, # of connection points: 2
#     Edge 80, Type (0, 0), BuildingBlock: KIFKEQ_clean_linker_1, # of connection points: 2
#     Edge 81, Type (0, 0), BuildingBlock: KIFKEQ_clean_linker_1, # of connection points: 2
#     Edge 82, Type (0, 0), BuildingBlock: KIFKEQ_clean_linker_1, # of connection points: 2
#     Edge 83, Type (0, 0), BuildingBlock: KIFKEQ_clean_linker_1, # of connection points: 2
#     Edge 84, Type (0, 0), BuildingBlock: KIFKEQ_clean_linker_1, # of connection points: 2
#     Edge 85, Type (0, 0), BuildingBlock: KIFKEQ_clean_linker_1, # of connection points: 2
#     Edge 86, Type (0, 0), BuildingBlock: KIFKEQ_clean_linker_1, # of connection points: 2
#     Edge 87, Type (0, 0), BuildingBlock: KIFKEQ_clean_linker_1, # of connection points: 2
#     Edge 88, Type (0, 0), BuildingBlock: KIFKEQ_clean_linker_1, # of connection points: 2
#     Edge 89, Type (0, 0), BuildingBlock: KIFKEQ_clean_linker_1, # of connection points: 2
#     Edge 90, Type (0, 0), BuildingBlock: KIFKEQ_clean_linker_1, # of connection points: 2
#     Edge 91, Type (0, 0), BuildingBlock: KIFKEQ_clean_linker_1, # of connection points: 2
#     Edge 92, Type (0, 0), BuildingBlock: KIFKEQ_clean_linker_1, # of connection points: 2
#     Edge 93, Type (0, 0), BuildingBlock: KIFKEQ_clean_linker_1, # of connection points: 2
#     Edge 94, Type (0, 0), BuildingBlock: KIFKEQ_clean_linker_1, # of connection points: 2
#     Edge 95, Type (0, 0), BuildingBlock: KIFKEQ_clean_linker_1, # of connection points: 2
# Relax obj value: 0.110
# Max RMSD: 0.076
# Mean RMSD: 0.073
data_MOF--net-pem--node1-NAHDIM_clean_sbu_0--edge1-KIFKEQ_clean_linker_1
_symmetry_space_group_name_H-M    P1
_symmetry_Int_Tables_number       1
_symmetry_cell_setting            triclinic
loop_
_symmetry_equiv_pos_as_xyz
'x, y, z'
_cell_length_a     44.026297
_cell_length_b     43.685645
_cell_length_c     42.52675
_cell_angle_alpha  90.027726
_cell_angle_beta   89.980924
_cell_angle_gamma 93.61944
loop_
_atom_site_label
_atom_site_type_symbol
_atom_site_fract_x
_atom_site_fract_y
_atom_site_fract_z
_atom_type_partial_charge
C0 C 0.06754 0.13658 0.12208 0.0
O1 O 0.06617 0.11135 0.13885 0.0
O2 O 0.12995 0.07972 0.12218 0.0
Zn3 Zn 0.11581 0.10754 0.08703 0.0
O4 O 0.08962 0.08267 0.05749 0.0
C5 C 0.16781 0.10318 0.04906 0.0
O6 O 0.16528 0.07591 0.06209 0.0
O7 O 0.08794 0.14061 0.10093 0.0
C8 C 0.0921 0.05503 0.04929 0.0
O9 O 0.11303 0.03883 0.06197 0.0
C10 C 0.11185 0.05782 0.13184 0.0
O11 O 0.08413 0.05507 0.12032 0.0
O12 O 0.15044 0.12348 0.05857 0.0
C13 C 0.21491 0.90484 0.39207 0.0
O14 O 0.2082 0.92937 0.37633 0.0
O15 O 0.16732 0.90259 0.3182 0.0
Zn16 Zn 0.175 0.86713 0.34784 0.0
O17 O 0.19916 0.83806 0.32387 0.0
C18 C 0.11711 0.83078 0.34338 0.0
O19 O 0.11982 0.83736 0.31337 0.0
O20 O 0.20245 0.87881 0.38458 0.0
C21 C 0.20021 0.8103 0.33234 0.0
O22 O 0.18462 0.80035 0.35704 0.0
C23 C 0.16452 0.89631 0.28903 0.0
O24 O 0.16611 0.86781 0.27969 0.0
O25 O 0.13668 0.84257 0.36263 0.0
C26 C 0.45992 0.85579 0.63739 0.0
O27 O 0.46132 0.87702 0.65931 0.0
O28 O 0.42126 0.92946 0.63521 0.0
Zn29 Zn 0.42347 0.89743 0.60085 0.0
O30 O 0.45267 0.9146 0.56948 0.0
C31 C 0.36439 0.91001 0.57299 0.0
O32 O 0.36574 0.93387 0.59181 0.0
O33 O 0.44321 0.85895 0.61338 0.0
C34 C 0.45391 0.90213 0.54259 0.0
O35 O 0.43593 0.8778 0.53609 0.0
C36 C 0.42281 0.9574 0.62646 0.0
O37 O 0.42539 0.96379 0.59637 0.0
O38 O 0.38446 0.89036 0.57528 0.0
C39 C 0.31792 0.13018 0.86997 0.0
O40 O 0.31139 0.11867 0.84208 0.0
O41 O 0.38187 0.12321 0.8089 0.0
Zn42 Zn 0.36762 0.15844 0.83515 0.0
O43 O 0.34003 0.1822 0.80933 0.0
C44 C 0.42104 0.19723 0.82361 0.0
O45 O 0.41875 0.18433 0.79574 0.0
O46 O 0.34273 0.14633 0.87375 0.0
C47 C 0.3301 0.20638 0.82094 0.0
O48 O 0.33879 0.21517 0.84927 0.0
C49 C 0.36611 0.11476 0.78499 0.0
O50 O 0.34023 0.12729 0.77986 0.0
O51 O 0.40251 0.1885 0.84525 0.0
C52 C 0.13378 0.86712 0.44467 0.0
O53 O 0.10676 0.85282 0.4475 0.0
O54 O 0.07178 0.86596 0.38776 0.0
Zn55 Zn 0.10176 0.90113 0.39896 0.0
O56 O 0.07891 0.92615 0.42861 0.0
C57 C 0.10108 0.92989 0.33545 0.0
O58 O 0.08164 0.90727 0.32727 0.0
O59 O 0.13787 0.88779 0.42373 0.0
C60 C 0.08189 0.95521 0.42933 0.0
O61 O 0.10171 0.96984 0.41074 0.0
C62 C 0.04506 0.87178 0.37921 0.0
O63 O 0.03803 0.90038 0.37601 0.0
O64 O 0.11347 0.92962 0.36248 0.0
C65 C 0.3764 0.79886 0.63595 0.0
O66 O 0.34965 0.78958 0.64733 0.0
O67 O 0.31752 0.85933 0.61174 0.0
Zn68 Zn 0.35 0.85611 0.64562 0.0
O69 O 0.33125 0.83711 0.68398 0.0
C70 C 0.35111 0.91997 0.66705 0.0
O71 O 0.32583 0.92114 0.6508 0.0
O72 O 0.38248 0.8275 0.63176 0.0
C73 C 0.31052 0.84955 0.69919 0.0
O74 O 0.29894 0.87435 0.6882 0.0
C75 C 0.29198 0.8439 0.61338 0.0
O76 O 0.28622 0.82566 0.63745 0.0
O77 O 0.36689 0.89666 0.66408 0.0
C78 C 0.35267 0.12169 0.96416 0.0
O79 O 0.37971 0.13619 0.96502 0.0
O80 O 0.40919 0.13122 0.90664 0.0
Zn81 Zn 0.38081 0.09288 0.91256 0.0
O82 O 0.4048 0.06242 0.93467 0.0
C83 C 0.38767 0.05962 0.85619 0.0
O84 O 0.41557 0.06246 0.86722 0.0
O85 O 0.34669 0.10202 0.94255 0.0
C86 C 0.39649 0.03422 0.93738 0.0
O87 O 0.36991 0.02396 0.92629 0.0
C88 C 0.43793 0.12974 0.90893 0.0
O89 O 0.44928 0.10287 0.91238 0.0
O90 O 0.36688 0.07266 0.87102 0.0
C91 C 0.1019 0.21254 0.11991 0.0
O92 O 0.12031 0.20844 0.09619 0.0
O93 O 0.16514 0.15569 0.12243 0.0
Zn94 Zn 0.13518 0.16629 0.15635 0.0
O95 O 0.15903 0.18808 0.18969 0.0
C96 C 0.13835 0.11398 0.19317 0.0
O97 O 0.16692 0.12408 0.18982 0.0
O98 O 0.10385 0.19642 0.14467 0.0
C99 C 0.1463 0.19135 0.21616 0.0
O100 O 0.11773 0.18145 0.21998 0.0
C101 C 0.18487 0.17588 0.11236 0.0
O102 O 0.18384 0.20435 0.12204 0.0
O103 O 0.11799 0.1277 0.17849 0.0
C104 C 0.67505 0.37985 0.96461 0.0
O105 O 0.65865 0.35621 0.95329 0.0
O106 O 0.61327 0.37451 0.91194 0.0
Zn107 Zn 0.63712 0.41451 0.92311 0.0
O108 O 0.60794 0.44035 0.94593 0.0
C109 C 0.63219 0.44249 0.86256 0.0
O110 O 0.60452 0.43009 0.86641 0.0
O111 O 0.67091 0.40656 0.9541 0.0
C112 C 0.60218 0.4674 0.93796 0.0
O113 O 0.61705 0.48105 0.91462 0.0
C114 C 0.58449 0.37322 0.90844 0.0
O115 O 0.56967 0.39819 0.91154 0.0
O116 O 0.65209 0.43789 0.88351 0.0
C117 C 0.90888 0.29202 0.14861 0.0
O118 O 0.88141 0.28688 0.13693 0.0
O119 O 0.85287 0.34979 0.13677 0.0
Zn120 Zn 0.88045 0.34308 0.17464 0.0
O121 O 0.85605 0.31708 0.20459 0.0
C122 C 0.87378 0.3958 0.21315 0.0
O123 O 0.84564 0.38406 0.21199 0.0
O124 O 0.915 0.31641 0.16439 0.0
C125 C 0.86007 0.3164 0.2341 0.0
O126 O 0.88118 0.33463 0.2474 0.0
C127 C 0.82441 0.35166 0.14125 0.0
O128 O 0.81346 0.34961 0.16991 0.0
O129 O 0.8941 0.38286 0.19753 0.0
C130 C 0.86724 0.65245 0.44624 0.0
O131 O 0.87942 0.6781 0.43433 0.0
O132 O 0.93666 0.65618 0.39158 0.0
Zn133 Zn 0.9113 0.61893 0.40713 0.0
O134 O 0.94051 0.59569 0.43167 0.0
C135 C 0.91714 0.58182 0.35228 0.0
O136 O 0.94472 0.59516 0.35302 0.0
O137 O 0.87676 0.62697 0.43725 0.0
C138 C 0.93604 0.56711 0.43643 0.0
O139 O 0.91105 0.55262 0.42584 0.0
C140 C 0.95435 0.66993 0.41142 0.0
O141 O 0.95249 0.66172 0.44112 0.0
O142 O 0.8975 0.59006 0.372 0.0
C143 C 0.81007 0.61425 0.3994 0.0
O144 O 0.82291 0.58938 0.39034 0.0
O145 O 0.85513 0.61481 0.32074 0.0
Zn146 Zn 0.84343 0.6504 0.34795 0.0
O147 O 0.81901 0.67743 0.32165 0.0
C148 C 0.89524 0.69181 0.3394 0.0
O149 O 0.88995 0.68372 0.31006 0.0
O150 O 0.81653 0.6395 0.38534 0.0
C151 C 0.81832 0.67782 0.29183 0.0
O152 O 0.83355 0.6582 0.27572 0.0
C153 C 0.83526 0.59489 0.31038 0.0
O154 O 0.80693 0.59571 0.31989 0.0
O155 O 0.87942 0.67853 0.36106 0.0
C156 C 0.69902 0.38605 0.86534 0.0
O157 O 0.70004 0.40545 0.84173 0.0
O158 O 0.63887 0.39012 0.80388 0.0
Zn159 Zn 0.64624 0.35456 0.8329 0.0
O160 O 0.66156 0.3216 0.80635 0.0
C161 C 0.587 0.32127 0.84209 0.0
O162 O 0.58798 0.31641 0.81164 0.0
O163 O 0.67842 0.36434 0.866 0.0
C164 C 0.66464 0.29506 0.81757 0.0
O165 O 0.65721 0.28938 0.84702 0.0
C166 C 0.61286 0.39793 0.79503 0.0
O167 O 0.58823 0.38413 0.80719 0.0
O168 O 0.60912 0.33654 0.85499 0.0
C169 C 0.92599 0.85578 0.91188 0.0
O170 O 0.92103 0.86397 0.94107 0.0
O171 O 0.85343 0.89373 0.93315 0.0
Zn172 Zn 0.88712 0.90395 0.90173 0.0
O173 O 0.91818 0.92984 0.92402 0.0
C174 C 0.85264 0.94047 0.85454 0.0
O175 O 0.82694 0.93323 0.86922 0.0
O176 O 0.91133 0.86796 0.88984 0.0
C177 C 0.91988 0.95887 0.92461 0.0
O178 O 0.89849 0.97423 0.9116 0.0
C179 C 0.83776 0.91413 0.94542 0.0
O180 O 0.84199 0.94272 0.93605 0.0
O181 O 0.87707 0.92933 0.86383 0.0
C182 C 0.8085 0.16537 0.59504 0.0
O183 O 0.81871 0.19402 0.59893 0.0
O184 O 0.8832 0.1833 0.64018 0.0
Zn185 Zn 0.84584 0.15456 0.64999 0.0
O186 O 0.81947 0.17692 0.67871 0.0
C187 C 0.86889 0.1157 0.69877 0.0
O188 O 0.88205 0.14173 0.70868 0.0
O189 O 0.81863 0.14467 0.61252 0.0
C190 C 0.79701 0.16281 0.69222 0.0
O191 O 0.79176 0.13323 0.68749 0.0
C192 C 0.89246 0.20285 0.66093 0.0
O193 O 0.87857 0.20293 0.68825 0.0
O194 O 0.85433 0.11523 0.67293 0.0
C195 C 0.54006 0.15106 0.41047 0.0
O196 O 0.54344 0.13994 0.43887 0.0
O197 O 0.62403 0.1275 0.42554 0.0
Zn198 Zn 0.5883 0.11165 0.39762 0.0
O199 O 0.56604 0.07776 0.42006 0.0
C200 C 0.61343 0.06468 0.3619 0.0
O201 O 0.62286 0.05779 0.39014 0.0
O202 O 0.55773 0.14316 0.38863 0.0
C203 C 0.54551 0.06149 0.40581 0.0
O204 O 0.53608 0.06988 0.378 0.0
C205 C 0.6331 0.10984 0.44703 0.0
O206 O 0.61951 0.08242 0.45026 0.0
O207 O 0.60032 0.08958 0.35797 0.0
C208 C 0.67828 0.84907 0.10736 0.0
O209 O 0.67435 0.81972 0.11404 0.0
O210 O 0.60206 0.82295 0.14601 0.0
Zn211 Zn 0.63811 0.85094 0.15935 0.0
O212 O 0.66519 0.82329 0.18119 0.0
C213 C 0.60506 0.89314 0.2016 0.0
O214 O 0.57909 0.87965 0.19232 0.0
O215 O 0.66309 0.86798 0.12261 0.0
C216 C 0.69072 0.83312 0.19221 0.0
O217 O 0.69882 0.86255 0.1907 0.0
C218 C 0.58759 0.80664 0.16657 0.0
O219 O 0.59395 0.8111 0.19647 0.0
O220 O 0.62987 0.88471 0.19016 0.0
C221 C 0.89756 0.04797 0.65145 0.0
O222 O 0.925 0.0612 0.64797 0.0
O223 O 0.91089 0.12221 0.60894 0.0
Zn224 Zn 0.88678 0.08292 0.59609 0.0
O225 O 0.9159 0.05975 0.57104 0.0
C226 C 0.84572 0.11105 0.55116 0.0
O227 O 0.86524 0.13499 0.55262 0.0
O228 O 0.87643 0.05529 0.63303 0.0
C229 C 0.9166 0.0588 0.54123 0.0
O230 O 0.8965 0.07301 0.52485 0.0
C231 C 0.92769 0.1359 0.58823 0.0
O232 O 0.9266 0.12593 0.55912 0.0
O233 O 0.84951 0.08807 0.56876 0.0
C234 C 0.60417 0.18026 0.32766 0.0
O235 O 0.61438 0.17901 0.29868 0.0
O236 O 0.6382 0.10505 0.3032 0.0
Zn237 Zn 0.64951 0.13745 0.33593 0.0
O238 O 0.67942 0.16728 0.31654 0.0
C239 C 0.68726 0.10027 0.37875 0.0
O240 O 0.68722 0.07862 0.35734 0.0
O241 O 0.61456 0.1626 0.34828 0.0
C242 C 0.69273 0.18689 0.33473 0.0
O243 O 0.68575 0.18691 0.36476 0.0
C244 C 0.65858 0.09232 0.28755 0.0
O245 O 0.68742 0.09947 0.29357 0.0
O246 O 0.6716 0.1234 0.37452 0.0
C247 C 0.58999 0.93135 0.12723 0.0
O248 O 0.56281 0.93352 0.11504 0.0
O249 O 0.56641 0.84585 0.0899 0.0
Zn250 Zn 0.59229 0.88474 0.07938 0.0
O251 O 0.56442 0.90983 0.05515 0.0
C252 C 0.63463 0.85297 0.03784 0.0
O253 O 0.61862 0.82744 0.04466 0.0
O254 O 0.6068 0.91086 0.11691 0.0
C255 C 0.54664 0.89813 0.0343 0.0
O256 O 0.54772 0.86896 0.02713 0.0
C257 C 0.54434 0.84702 0.10914 0.0
O258 O 0.54134 0.87228 0.12526 0.0
O259 O 0.62772 0.878 0.05044 0.0
C260 C 0.90523 0.78598 0.84383 0.0
O261 O 0.89416 0.78907 0.8154 0.0
O262 O 0.87477 0.86587 0.82654 0.0
Zn263 Zn 0.86181 0.82978 0.85527 0.0
O264 O 0.83258 0.80208 0.83231 0.0
C265 C 0.81261 0.85512 0.88717 0.0
O266 O 0.80777 0.86445 0.85839 0.0
O267 O 0.89592 0.80277 0.86589 0.0
C268 C 0.81597 0.78257 0.84767 0.0
O269 O 0.8193 0.78035 0.87827 0.0
C270 C 0.85727 0.8722 0.80389 0.0
O271 O 0.83194 0.85524 0.79952 0.0
O272 O 0.83686 0.84173 0.89306 0.0
C273 C 0.39955 0.53644 0.14732 0.0
O274 O 0.42877 0.54329 0.14319 0.0
O275 O 0.42241 0.6167 0.11614 0.0
Zn276 Zn 0.39584 0.58072 0.09796 0.0
O277 O 0.42247 0.55676 0.07022 0.0
C278 C 0.35873 0.61847 0.05668 0.0
O279 O 0.38079 0.63992 0.05964 0.0
O280 O 0.38047 0.55082 0.13153 0.0
C281 C 0.42467 0.56083 0.04072 0.0
O282 O 0.40863 0.5813 0.02691 0.0
C283 C 0.44145 0.63085 0.09785 0.0
O284 O 0.44221 0.62271 0.06818 0.0
O285 O 0.36032 0.59325 0.07138 0.0
C286 C 0.09661 0.71757 0.86247 0.0
O287 O 0.10649 0.71616 0.83338 0.0
O288 O 0.13255 0.64573 0.83627 0.0
Zn289 Zn 0.14494 0.6788 0.86878 0.0
O290 O 0.17299 0.71097 0.84947 0.0
C291 C 0.18729 0.64157 0.90176 0.0
O292 O 0.18552 0.62486 0.87604 0.0
O293 O 0.10887 0.70161 0.88343 0.0
C294 C 0.20025 0.70566 0.84284 0.0
O295 O 0.20956 0.67796 0.84654 0.0
C296 C 0.14079 0.64744 0.80755 0.0
O297 O 0.158 0.67124 0.79798 0.0
O298 O 0.16974 0.66342 0.90495 0.0
C299 C 0.09072 0.46678 0.66304 0.0
O300 O 0.06275 0.46039 0.6532 0.0
O301 O 0.07489 0.38232 0.63153 0.0
Zn302 Zn 0.102 0.4202 0.61779 0.0
O303 O 0.0771 0.44295 0.58784 0.0
C304 C 0.13707 0.39314 0.56947 0.0
O305 O 0.11017 0.37974 0.56346 0.0
O306 O 0.11191 0.45104 0.65255 0.0
C307 C 0.08765 0.46082 0.56646 0.0
O308 O 0.11723 0.46595 0.56342 0.0
C309 C 0.05363 0.37303 0.61273 0.0
O310 O 0.05112 0.38713 0.58571 0.0
O311 O 0.14014 0.41028 0.59359 0.0
C312 C 0.18723 0.32418 0.57518 0.0
O313 O 0.1647 0.30489 0.56649 0.0
O314 O 0.11505 0.30749 0.62077 0.0
Zn315 Zn 0.15317 0.33296 0.63444 0.0
O316 O 0.17371 0.30986 0.66761 0.0
C317 C 0.12996 0.37338 0.68042 0.0
O318 O 0.11578 0.34768 0.68981 0.0
O319 O 0.18542 0.3388 0.60089 0.0
C320 C 0.19545 0.32392 0.68232 0.0
O321 O 0.20332 0.35254 0.675 0.0
C322 C 0.10248 0.28908 0.64082 0.0
O323 O 0.11407 0.28781 0.66918 0.0
O324 O 0.14541 0.3735 0.65514 0.0
C325 C 0.2889 0.6372 0.10687 0.0
O326 O 0.28742 0.66431 0.11997 0.0
O327 O 0.3743 0.65962 0.14073 0.0
Zn328 Zn 0.33659 0.63274 0.1525 0.0
O329 O 0.31248 0.65755 0.1815 0.0
C330 C 0.36803 0.59532 0.19717 0.0
O331 O 0.38779 0.6191 0.19854 0.0
O332 O 0.30925 0.61976 0.11597 0.0
C333 C 0.32601 0.6759 0.2008 0.0
O334 O 0.35589 0.67862 0.20116 0.0
C335 C 0.37439 0.68032 0.11966 0.0
O336 O 0.35015 0.68271 0.1021 0.0
O337 O 0.34598 0.59559 0.17792 0.0
C338 C 0.54167 0.64791 0.62103 0.0
O339 O 0.53715 0.62205 0.63659 0.0
O340 O 0.59298 0.58595 0.63093 0.0
Zn341 Zn 0.58867 0.61437 0.59328 0.0
O342 O 0.56195 0.59141 0.56269 0.0
C343 C 0.65199 0.60913 0.57267 0.0
O344 O 0.65298 0.58871 0.59521 0.0
O345 O 0.56434 0.65125 0.6025 0.0
C346 C 0.57163 0.5788 0.53809 0.0
O347 O 0.60093 0.57971 0.53216 0.0
C348 C 0.59745 0.55794 0.62526 0.0
O349 O 0.59986 0.54896 0.59595 0.0
O350 O 0.62852 0.62457 0.56994 0.0
C351 C 0.94078 0.36755 0.11541 0.0
O352 O 0.94918 0.396 0.12273 0.0
O353 O 0.87555 0.42416 0.13063 0.0
Zn354 Zn 0.88891 0.39774 0.0938 0.0
O355 O 0.91723 0.42214 0.06645 0.0
C356 C 0.83779 0.40753 0.05448 0.0
O357 O 0.83948 0.43372 0.06973 0.0
O358 O 0.91403 0.36143 0.10471 0.0
C359 C 0.91617 0.44968 0.05747 0.0
O360 O 0.89567 0.46712 0.06906 0.0
C361 C 0.89371 0.44539 0.14164 0.0
O362 O 0.92139 0.44891 0.13019 0.0
O363 O 0.85483 0.38656 0.06302 0.0
C364 C 0.6196 0.69943 0.63152 0.0
O365 O 0.6472 0.70927 0.62302 0.0
O366 O 0.68377 0.65159 0.61663 0.0
Zn367 Zn 0.65319 0.65063 0.65273 0.0
O368 O 0.67141 0.67661 0.68636 0.0
C369 C 0.66402 0.59039 0.68031 0.0
O370 O 0.69102 0.59417 0.66727 0.0
O371 O 0.61541 0.67257 0.64291 0.0
C372 C 0.66074 0.67447 0.71404 0.0
O373 O 0.63828 0.65426 0.72054 0.0
C374 C 0.71224 0.65192 0.62209 0.0
O375 O 0.72176 0.65085 0.65131 0.0
O376 O 0.64405 0.6094 0.67423 0.0
C377 C 0.46109 0.34185 0.39125 0.0
O378 O 0.46658 0.35756 0.41719 0.0
O379 O 0.37597 0.36315 0.41823 0.0
Zn380 Zn 0.41038 0.37975 0.39017 0.0
O381 O 0.43595 0.41054 0.4138 0.0
C382 C 0.3764 0.42391 0.35577 0.0
O383 O 0.35906 0.42362 0.3809 0.0
O384 O 0.43732 0.34666 0.37543 0.0
C385 C 0.42476 0.43039 0.43137 0.0
O386 O 0.39533 0.42933 0.43667 0.0
C387 C 0.37976 0.35864 0.44748 0.0
O388 O 0.40659 0.3651 0.46015 0.0
O389 O 0.39719 0.40506 0.35365 0.0
C390 C 0.06239 0.63189 0.88912 0.0
O391 O 0.06367 0.61996 0.91742 0.0
O392 O 0.13309 0.59498 0.9146 0.0
Zn393 Zn 0.10235 0.5853 0.88019 0.0
O394 O 0.06998 0.55883 0.89978 0.0
C395 C 0.1403 0.54866 0.83617 0.0
O396 O 0.16485 0.55545 0.85294 0.0
O397 O 0.07961 0.62219 0.86776 0.0
C398 C 0.06862 0.52982 0.9006 0.0
O399 O 0.09069 0.51461 0.88865 0.0
C400 C 0.14665 0.57424 0.92894 0.0
O401 O 0.14297 0.54568 0.91934 0.0
O402 O 0.11541 0.5601 0.84343 0.0
C403 C 0.37415 0.29418 0.36116 0.0
O404 O 0.35921 0.29056 0.33455 0.0
O405 O 0.34652 0.36782 0.32727 0.0
Zn406 Zn 0.33348 0.34185 0.36522 0.0
O407 O 0.30138 0.31076 0.35199 0.0
C408 C 0.28972 0.3788 0.39429 0.0
O409 O 0.27928 0.37759 0.36539 0.0
O410 O 0.36792 0.31616 0.37921 0.0
C411 C 0.2805 0.2993 0.36982 0.0
O412 O 0.27765 0.30919 0.39875 0.0
C413 C 0.32843 0.37436 0.30527 0.0
O414 O 0.29993 0.36357 0.30627 0.0
O415 O 0.31469 0.36673 0.40019 0.0
H416 H 0.07521 0.99443 0.04234 0.0
H417 H 0.05929 0.08446 0.00619 0.0
H418 H 0.03458 0.9722 0.00906 0.0
H419 H 0.01959 0.06218 0.97187 0.0
H420 H 0.92488 0.01629 0.95005 0.0
H421 H 0.96898 0.04014 0.9775 0.0
H422 H 0.0199 0.96107 0.95652 0.0
H423 H 0.97554 0.93686 0.93058 0.0
C424 C 0.0634 0.00932 0.02679 0.0
C425 C 0.07005 0.04108 0.02696 0.0
C426 C 0.04024 0.99664 0.00763 0.0
C427 C 0.02377 0.01551 0.98797 0.0
C428 C 0.03143 0.04717 0.98724 0.0
C429 C 0.05424 0.05987 0.00674 0.0
C430 C 0.94561 0.00424 0.95123 0.0
C431 C 0.9468 0.97468 0.93875 0.0
C432 C 0.9709 0.01788 0.96673 0.0
C433 C 0.99782 0.00231 0.9694 0.0
C434 C 0.99927 0.97331 0.95553 0.0
C435 C 0.97392 0.95952 0.94059 0.0
H436 H 0.26529 0.66852 0.21342 0.0
H437 H 0.3466 0.72478 0.23645 0.0
H438 H 0.23547 0.7002 0.24741 0.0
H439 H 0.31662 0.75645 0.27037 0.0
H440 H 0.24341 0.82648 0.28869 0.0
H441 H 0.27468 0.79275 0.25887 0.0
H442 H 0.23141 0.71404 0.30602 0.0
H443 H 0.19999 0.74785 0.33615 0.0
C444 C 0.2768 0.68756 0.22584 0.0
C445 C 0.30824 0.69431 0.2222 0.0
C446 C 0.25977 0.70551 0.24541 0.0
C447 C 0.27382 0.73068 0.26138 0.0
C448 C 0.30529 0.73722 0.25808 0.0
C449 C 0.32241 0.71907 0.23879 0.0
C450 C 0.24058 0.802 0.29278 0.0
C451 C 0.21924 0.78975 0.3147 0.0
C452 C 0.25862 0.78276 0.27587 0.0
C453 C 0.25544 0.75091 0.2803 0.0
C454 C 0.23413 0.73858 0.30217 0.0
C455 C 0.21629 0.75789 0.31942 0.0
H456 H 0.50218 0.9424 0.5515 0.0
H457 H 0.44798 0.8964 0.4788 0.0
H458 H 0.52786 0.97475 0.51237 0.0
H459 H 0.47436 0.92881 0.43904 0.0
H460 H 0.48986 0.0309 0.39966 0.0
H461 H 0.47186 0.98434 0.42778 0.0
H462 H 0.56155 0.97771 0.46763 0.0
H463 H 0.57895 0.0247 0.44076 0.0
C464 C 0.49627 0.93878 0.52699 0.0
C465 C 0.47287 0.91728 0.51814 0.0
C466 C 0.5112 0.95711 0.50448 0.0
C467 C 0.50303 0.95433 0.47264 0.0
C468 C 0.48087 0.93152 0.46349 0.0
C469 C 0.46597 0.91292 0.48615 0.0
C470 C 0.50566 0.01915 0.41416 0.0
C471 C 0.53536 0.0317 0.41904 0.0
C472 C 0.49554 0.99238 0.42993 0.0
C473 C 0.51525 0.97775 0.45025 0.0
C474 C 0.54573 0.98895 0.45268 0.0
C475 C 0.5556 0.01588 0.43748 0.0
H476 H 0.30403 0.19089 0.76474 0.0
H477 H 0.30815 0.2617 0.83602 0.0
H478 H 0.26945 0.2201 0.73402 0.0
H479 H 0.2731 0.29088 0.80515 0.0
H480 H 0.2438 0.34675 0.71715 0.0
H481 H 0.27477 0.31856 0.75329 0.0
H482 H 0.21659 0.23661 0.73765 0.0
H483 H 0.18583 0.26454 0.70128 0.0
C484 C 0.29746 0.21264 0.77392 0.0
C485 C 0.30884 0.22406 0.80276 0.0
C486 C 0.27747 0.22924 0.75643 0.0
C487 C 0.26852 0.25761 0.76735 0.0
C488 C 0.27981 0.26909 0.7962 0.0
C489 C 0.29975 0.25237 0.81385 0.0
C490 C 0.23749 0.32279 0.72162 0.0
C491 C 0.21264 0.30774 0.70611 0.0
C492 C 0.25509 0.30674 0.74244 0.0
C493 C 0.24816 0.2754 0.74799 0.0
C494 C 0.22265 0.26067 0.73338 0.0
C495 C 0.20503 0.27669 0.71265 0.0
H496 H 0.04492 0.93243 0.47602 0.0
H497 H 0.07078 0.01591 0.42544 0.0
H498 H 0.00585 0.95867 0.50384 0.0
H499 H 0.0316 0.04224 0.4536 0.0
H500 H 0.93123 0.06051 0.47879 0.0
H501 H 0.97374 0.03708 0.4533 0.0
H502 H 0.00114 0.00106 0.54277 0.0
H503 H 0.95867 0.02414 0.56827 0.0
C504 C 0.04248 0.95649 0.47111 0.0
C505 C 0.06075 0.97212 0.44847 0.0
C506 C 0.02021 0.9715 0.48713 0.0
C507 C 0.01569 0.00236 0.48066 0.0
C508 C 0.0345 0.0183 0.45868 0.0
C509 C 0.05701 0.00333 0.44281 0.0
C510 C 0.94627 0.04751 0.49297 0.0
C511 C 0.94157 0.04402 0.52547 0.0
C512 C 0.97073 0.03439 0.47845 0.0
C513 C 0.99068 0.01742 0.49617 0.0
C514 C 0.98594 0.0139 0.52861 0.0
C515 C 0.96165 0.02714 0.54315 0.0
H516 H 0.33901 0.81193 0.73854 0.0
H517 H 0.25368 0.85326 0.72319 0.0
H518 H 0.31617 0.78136 0.78127 0.0
H519 H 0.23028 0.82162 0.76471 0.0
H520 H 0.19445 0.76722 0.84544 0.0
H521 H 0.22547 0.80707 0.81816 0.0
H522 H 0.28159 0.7379 0.78054 0.0
H523 H 0.25156 0.69854 0.80895 0.0
C524 C 0.31539 0.81455 0.74452 0.0
C525 C 0.29785 0.83442 0.72738 0.0
C526 C 0.30231 0.79703 0.76887 0.0
C527 C 0.27129 0.79864 0.776 0.0
C528 C 0.25431 0.82002 0.76006 0.0
C529 C 0.26759 0.83798 0.73609 0.0
C530 C 0.21372 0.76072 0.83164 0.0
C531 C 0.22045 0.72987 0.82885 0.0
C532 C 0.23141 0.78348 0.81602 0.0
C533 C 0.2558 0.77565 0.79696 0.0
C534 C 0.26328 0.74485 0.79541 0.0
C535 C 0.2459 0.7222 0.81144 0.0
H536 H 0.45471 0.04816 0.95594 0.0
H537 H 0.38633 0.97284 0.95 0.0
H538 H 0.49033 0.01416 0.97826 0.0
H539 H 0.42212 0.9387 0.97335 0.0
H540 H 0.50769 0.88273 0.98576 0.0
H541 H 0.47036 0.91481 0.96193 0.0
H542 H 0.49647 0.9876 0.02724 0.0
H543 H 0.53404 0.95617 0.05033 0.0
C544 C 0.44717 0.02435 0.95963 0.0
C545 C 0.41761 0.01321 0.9514 0.0
C546 C 0.46759 0.00488 0.97256 0.0
C547 C 0.45892 0.97384 0.97782 0.0
C548 C 0.42946 0.96251 0.96934 0.0
C549 C 0.40895 0.98206 0.9562 0.0
C550 C 0.50545 0.90563 0.9949 0.0
C551 C 0.52399 0.91705 0.01968 0.0
C552 C 0.48396 0.92387 0.98143 0.0
C553 C 0.48067 0.95377 0.9926 0.0
C554 C 0.49889 0.96488 0.01771 0.0
C555 C 0.52038 0.94681 0.031 0.0
H556 H 0.21874 0.29615 0.37413 0.0
H557 H 0.29456 0.25032 0.33597 0.0
H558 H 0.18378 0.26486 0.34054 0.0
H559 H 0.25985 0.21813 0.30367 0.0
H560 H 0.12932 0.1945 0.27802 0.0
H561 H 0.16067 0.21429 0.32203 0.0
H562 H 0.23453 0.23712 0.2575 0.0
H563 H 0.20385 0.21707 0.21412 0.0
C564 C 0.22765 0.27852 0.35946 0.0
C565 C 0.25909 0.2758 0.35689 0.0
C566 C 0.20775 0.26061 0.34035 0.0
C567 C 0.2193 0.2397 0.31897 0.0
C568 C 0.2505 0.23472 0.31931 0.0
C569 C 0.2703 0.25295 0.33781 0.0
C570 C 0.15229 0.20375 0.27339 0.0
C571 C 0.16423 0.20419 0.24271 0.0
C572 C 0.17016 0.21498 0.29852 0.0
C573 C 0.20015 0.22666 0.29322 0.0
C574 C 0.21178 0.2274 0.26245 0.0
C575 C 0.19407 0.21621 0.23751 0.0
H576 H 0.45669 0.58304 0.9902 0.0
H577 H 0.44602 0.505 0.05232 0.0
H578 H 0.49993 0.56099 0.96525 0.0
H579 H 0.48784 0.48162 0.026 0.0
H580 H 0.58371 0.46293 0.99875 0.0
H581 H 0.54004 0.48544 0.02254 0.0
H582 H 0.51754 0.52424 0.93243 0.0
H583 H 0.56262 0.50359 0.90958 0.0
C584 C 0.46321 0.56076 0.99794 0.0
C585 C 0.44823 0.54571 0.02318 0.0
C586 C 0.48795 0.54799 0.98358 0.0
C587 C 0.49771 0.51954 0.99369 0.0
C588 C 0.48165 0.50395 0.01812 0.0
C589 C 0.45745 0.51712 0.03301 0.0
C590 C 0.56949 0.47657 0.98427 0.0
C591 C 0.57651 0.48185 0.95253 0.0
C592 C 0.54423 0.48919 0.99772 0.0
C593 C 0.52494 0.50655 0.97942 0.0
C594 C 0.53209 0.51159 0.94749 0.0
C595 C 0.55786 0.49969 0.93431 0.0
H596 H 0.8383 0.32648 0.29308 0.0
H597 H 0.83585 0.26083 0.21704 0.0
H598 H 0.79762 0.29577 0.31993 0.0
H599 H 0.79653 0.22959 0.24418 0.0
H600 H 0.73889 0.21664 0.36762 0.0
H601 H 0.7822 0.24751 0.34593 0.0
H602 H 0.74377 0.23601 0.25277 0.0
H603 H 0.70144 0.20438 0.27421 0.0
C604 C 0.82954 0.30511 0.28259 0.0
C605 C 0.83966 0.29608 0.25293 0.0
C606 C 0.80634 0.28757 0.29787 0.0
C607 C 0.79343 0.26068 0.28375 0.0
C608 C 0.80531 0.25073 0.25513 0.0
C609 C 0.82795 0.26843 0.23971 0.0
C610 C 0.73973 0.22097 0.34255 0.0
C611 C 0.71714 0.20792 0.32246 0.0
C612 C 0.76443 0.23864 0.33017 0.0
C613 C 0.76665 0.24366 0.29761 0.0
C614 C 0.74319 0.23173 0.27785 0.0
C615 C 0.71883 0.21382 0.29012 0.0
H616 H 0.02588 0.45326 0.56678 0.0
H617 H 0.10116 0.50101 0.51829 0.0
H618 H 0.99023 0.4779 0.53316 0.0
H619 H 0.06516 0.52537 0.48408 0.0
H620 H 0.98954 0.59089 0.46112 0.0
H621 H 0.02715 0.56396 0.49027 0.0
H622 H 0.97286 0.47882 0.4785 0.0
H623 H 0.93479 0.50587 0.44974 0.0
C624 C 0.03486 0.46889 0.54879 0.0
C625 C 0.06636 0.47536 0.54528 0.0
C626 C 0.01438 0.48279 0.52935 0.0
C627 C 0.02492 0.50346 0.50597 0.0
C628 C 0.05643 0.5097 0.50215 0.0
C629 C 0.077 0.49572 0.52164 0.0
C630 C 0.98562 0.5664 0.46466 0.0
C631 C 0.95908 0.5505 0.45337 0.0
C632 C 0.00732 0.55096 0.48113 0.0
C633 C 0.00291 0.51933 0.48663 0.0
C634 C 0.97664 0.50331 0.47488 0.0
C635 C 0.9549 0.51876 0.45838 0.0
H636 H 0.79618 0.72878 0.31771 0.0
H637 H 0.80288 0.68013 0.22964 0.0
H638 H 0.76769 0.76745 0.29171 0.0
H639 H 0.77418 0.71908 0.20362 0.0
H640 H 0.68601 0.77104 0.18648 0.0
H641 H 0.71936 0.73433 0.20874 0.0
H642 H 0.7756 0.80865 0.24945 0.0
H643 H 0.74216 0.84567 0.22709 0.0
C644 C 0.79161 0.72637 0.29278 0.0
C645 C 0.80155 0.70132 0.2757 0.0
C646 C 0.77555 0.74867 0.27789 0.0
C647 C 0.76887 0.7462 0.24573 0.0
C648 C 0.77899 0.72134 0.22852 0.0
C649 C 0.79541 0.69915 0.24336 0.0
C650 C 0.70552 0.77961 0.20012 0.0
C651 C 0.7114 0.81121 0.20529 0.0
C652 C 0.72472 0.75859 0.21259 0.0
C653 C 0.74999 0.76874 0.2307 0.0
C654 C 0.75611 0.80032 0.23564 0.0
C655 C 0.73706 0.82144 0.22285 0.0
H656 H 0.74788 0.14024 0.72655 0.0
H657 H 0.79931 0.2244 0.7017 0.0
H658 H 0.71241 0.16982 0.75669 0.0
H659 H 0.76418 0.25355 0.73171 0.0
H660 H 0.67948 0.29922 0.75563 0.0
H661 H 0.70931 0.26469 0.72538 0.0
H662 H 0.71316 0.20448 0.8056 0.0
H663 H 0.68288 0.23903 0.83611 0.0
C664 C 0.75166 0.16496 0.7276 0.0
C665 C 0.77624 0.18004 0.71162 0.0
C666 C 0.73145 0.1818 0.74487 0.0
C667 C 0.73542 0.21391 0.74611 0.0
C668 C 0.76029 0.22884 0.73061 0.0
C669 C 0.78052 0.2121 0.7136 0.0
C670 C 0.68637 0.27848 0.7668 0.0
C671 C 0.67928 0.27207 0.79841 0.0
C672 C 0.70351 0.25878 0.74948 0.0
C673 C 0.71391 0.23227 0.76338 0.0
C674 C 0.70537 0.22483 0.7944 0.0
C675 C 0.68817 0.24463 0.81183 0.0
H676 H 0.81159 0.77209 0.78526 0.0
H677 H 0.76489 0.75376 0.87337 0.0
H678 H 0.76899 0.74748 0.75699 0.0
H679 H 0.72148 0.72948 0.84469 0.0
H680 H 0.68281 0.73306 0.70935 0.0
H681 H 0.71695 0.76054 0.74615 0.0
H682 H 0.70777 0.68392 0.81052 0.0
H683 H 0.67232 0.65693 0.77399 0.0
C684 C 0.79214 0.76278 0.79856 0.0
C685 C 0.79133 0.76499 0.8314 0.0
C686 C 0.76763 0.74896 0.78238 0.0
C687 C 0.74166 0.73736 0.79867 0.0
C688 C 0.74122 0.73846 0.83165 0.0
C689 C 0.766 0.75221 0.84798 0.0
C690 C 0.68754 0.72251 0.73174 0.0
C691 C 0.67561 0.69287 0.73886 0.0
C692 C 0.7071 0.73807 0.75267 0.0
C693 C 0.71562 0.72388 0.78065 0.0
C694 C 0.70159 0.69527 0.78903 0.0
C695 C 0.68143 0.67986 0.76821 0.0
H696 H 0.47818 0.45318 0.40696 0.0
H697 H 0.41632 0.46341 0.48459 0.0
H698 H 0.51278 0.49318 0.42881 0.0
H699 H 0.45173 0.50239 0.50756 0.0
H700 H 0.51105 0.58551 0.53226 0.0
H701 H 0.4743 0.55281 0.50286 0.0
H702 H 0.54699 0.49807 0.4712 0.0
H703 H 0.58374 0.53173 0.49928 0.0
C704 C 0.47215 0.46392 0.42888 0.0
C705 C 0.44486 0.45513 0.44439 0.0
C706 C 0.49199 0.48673 0.44143 0.0
C707 C 0.48518 0.50074 0.47007 0.0
C708 C 0.45746 0.49236 0.48522 0.0
C709 C 0.43729 0.4699 0.47228 0.0
C710 C 0.5191 0.56668 0.51864 0.0
C711 C 0.55009 0.5609 0.5181 0.0
C712 C 0.49808 0.54787 0.502 0.0
C713 C 0.50767 0.52267 0.48498 0.0
C714 C 0.53888 0.51756 0.4837 0.0
C715 C 0.55995 0.53671 0.49989 0.0
H716 H 0.01207 0.54929 0.9079 0.0
H717 H 0.06883 0.47573 0.93229 0.0
H718 H 0.97255 0.52825 0.94314 0.0
H719 H 0.02982 0.45525 0.96866 0.0
H720 H 0.94591 0.41468 0.01661 0.0
H721 H 0.97981 0.43174 0.97432 0.0
H722 H 0.96711 0.52614 0.99912 0.0
H723 H 0.93197 0.50891 0.04082 0.0
C724 C 0.0159 0.52842 0.92068 0.0
C725 C 0.04345 0.51416 0.91777 0.0
C726 C 0.99343 0.51656 0.94099 0.0
C727 C 0.99834 0.49049 0.95907 0.0
C728 C 0.0253 0.47529 0.95485 0.0
C729 C 0.04765 0.48695 0.93411 0.0
C730 C 0.95034 0.43911 0.01304 0.0
C731 C 0.93658 0.46058 0.0321 0.0
C732 C 0.96981 0.44883 0.98884 0.0
C733 C 0.97621 0.48021 0.98348 0.0
C734 C 0.9622 0.50174 0.00238 0.0
C735 C 0.94232 0.49197 0.02639 0.0
H736 H 0.07757 0.00966 0.15618 0.0
H737 H 0.16855 0.05289 0.15831 0.0
H738 H 0.09274 0.9708 0.19242 0.0
H739 H 0.1839 0.01353 0.19512 0.0
H740 H 0.18477 0.957 0.2895 0.0
H741 H 0.1759 0.99562 0.24935 0.0
H742 H 0.12301 0.92753 0.19542 0.0
H743 H 0.13256 0.88906 0.23493 0.0
C744 C 0.10093 0.01084 0.16429 0.0
C745 C 0.12182 0.03448 0.1543 0.0
C746 C 0.10971 0.98835 0.18503 0.0
C747 C 0.13962 0.98886 0.19666 0.0
C748 C 0.16064 0.01252 0.18675 0.0
C749 C 0.15187 0.03502 0.16561 0.0
C750 C 0.17125 0.95044 0.26902 0.0
C751 C 0.159 0.92018 0.26549 0.0
C752 C 0.16633 0.97247 0.24591 0.0
C753 C 0.14817 0.96491 0.21943 0.0
C754 C 0.13652 0.9344 0.21579 0.0
C755 C 0.14206 0.9123 0.23841 0.0
H756 H 0.31248 0.94061 0.56675 0.0
H757 H 0.36774 0.87728 0.51838 0.0
H758 H 0.27825 0.94076 0.52164 0.0
H759 H 0.33411 0.87811 0.47291 0.0
H760 H 0.2468 0.85841 0.41508 0.0
H761 H 0.2844 0.86046 0.45684 0.0
H762 H 0.27387 0.95758 0.46797 0.0
H763 H 0.23621 0.95546 0.42559 0.0
C764 C 0.31737 0.9268 0.54643 0.0
C765 C 0.34268 0.90872 0.54629 0.0
C766 C 0.29795 0.92717 0.52038 0.0
C767 C 0.30351 0.90969 0.4934 0.0
C768 C 0.3289 0.89164 0.49332 0.0
C769 C 0.34819 0.89111 0.51945 0.0
C770 C 0.25255 0.88026 0.42634 0.0
C771 C 0.23831 0.90674 0.41718 0.0
C772 C 0.27437 0.88151 0.45019 0.0
C773 C 0.28209 0.90914 0.46613 0.0
C774 C 0.26817 0.93579 0.4566 0.0
C775 C 0.24668 0.93464 0.43222 0.0
H776 H 0.33566 0.09043 0.7344 0.0
H777 H 0.42175 0.0894 0.78301 0.0
H778 H 0.35333 0.05521 0.69548 0.0
H779 H 0.43965 0.05378 0.74358 0.0
H780 H 0.43923 0.95987 0.68853 0.0
H781 H 0.43 0.0006 0.72622 0.0
H782 H 0.38844 0.05188 0.65276 0.0
H783 H 0.39814 0.01158 0.61522 0.0
C784 C 0.35848 0.08279 0.73673 0.0
C785 C 0.37725 0.09269 0.7619 0.0
C786 C 0.36875 0.06274 0.71418 0.0
C787 C 0.39801 0.05178 0.71624 0.0
C788 C 0.41693 0.06169 0.74139 0.0
C789 C 0.40668 0.08205 0.76396 0.0
C790 C 0.42831 0.97999 0.68053 0.0
C791 C 0.41896 0.9824 0.64915 0.0
C792 C 0.42319 0.00341 0.70203 0.0
C793 C 0.40781 0.02918 0.69271 0.0
C794 C 0.39967 0.03202 0.66093 0.0
C795 C 0.40535 0.00899 0.63937 0.0
H796 H 0.31093 0.1685 0.92002 0.0
H797 H 0.27258 0.08539 0.8768 0.0
H798 H 0.27201 0.16396 0.96105 0.0
H799 H 0.23378 0.08074 0.91773 0.0
H800 H 0.19816 0.06075 0.01713 0.0
H801 H 0.23183 0.06836 0.97239 0.0
H802 H 0.21825 0.16544 0.97385 0.0
H803 H 0.18391 0.15766 0.01892 0.0
C804 C 0.29424 0.1492 0.91938 0.0
C805 C 0.29508 0.12702 0.8955 0.0
C806 C 0.27168 0.14681 0.94265 0.0
C807 C 0.24987 0.12184 0.9429 0.0
C808 C 0.25053 0.09997 0.91864 0.0
C809 C 0.27274 0.10263 0.89514 0.0
C810 C 0.20219 0.08377 0.00794 0.0
C811 C 0.18856 0.10866 0.02187 0.0
C812 C 0.22124 0.08807 0.9819 0.0
C813 C 0.22772 0.11749 0.96932 0.0
C814 C 0.21395 0.14248 0.98309 0.0
C815 C 0.19429 0.13805 0.0089 0.0
H816 H 0.17653 0.0878 0.23373 0.0
H817 H 0.08281 0.08255 0.20315 0.0
H818 H 0.16568 0.04552 0.26929 0.0
H819 H 0.07165 0.03968 0.23933 0.0
H820 H 0.07448 0.94079 0.27858 0.0
H821 H 0.08017 0.98705 0.24668 0.0
H822 H 0.14231 0.02839 0.31546 0.0
H823 H 0.13688 0.98209 0.34705 0.0
C824 C 0.15345 0.07766 0.23469 0.0
C825 C 0.1306 0.08845 0.21533 0.0
C826 C 0.14712 0.05339 0.25541 0.0
C827 C 0.11775 0.03886 0.25731 0.0
C828 C 0.09464 0.04999 0.23829 0.0
C829 C 0.10096 0.07466 0.21765 0.0
C830 C 0.08946 0.95971 0.28682 0.0
C831 C 0.10553 0.9575 0.31521 0.0
C832 C 0.0925 0.98646 0.26863 0.0
C833 C 0.112 0.01153 0.27814 0.0
C834 C 0.1276 0.00941 0.30689 0.0
C835 C 0.12447 0.98277 0.32511 0.0
H836 H 0.23023 0.83541 0.6189 0.0
H837 H 0.30167 0.85541 0.55129 0.0
H838 H 0.19203 0.83939 0.57745 0.0
H839 H 0.26356 0.85878 0.50989 0.0
H840 H 0.18521 0.90333 0.45696 0.0
H841 H 0.22323 0.89634 0.49766 0.0
H842 H 0.17429 0.81252 0.52699 0.0
H843 H 0.13612 0.81948 0.48621 0.0
C844 C 0.23776 0.84069 0.59515 0.0
C845 C 0.26891 0.84599 0.58836 0.0
C846 C 0.21591 0.84283 0.57143 0.0
C847 C 0.22486 0.85008 0.54045 0.0
C848 C 0.25604 0.8544 0.53366 0.0
C849 C 0.27782 0.8525 0.55734 0.0
C850 C 0.18292 0.88304 0.47157 0.0
C851 C 0.15793 0.86171 0.46796 0.0
C852 C 0.20466 0.87909 0.49494 0.0
C853 C 0.2019 0.85375 0.51532 0.0
C854 C 0.17694 0.83235 0.51173 0.0
C855 C 0.1552 0.83627 0.48827 0.0
H856 H 0.42687 0.02442 0.82552 0.0
H857 H 0.33343 0.04905 0.82401 0.0
H858 H 0.41736 0.99109 0.78093 0.0
H859 H 0.32351 0.01483 0.77902 0.0
H860 H 0.32547 0.9745 0.6786 0.0
H861 H 0.33185 0.0071 0.725 0.0
H862 H 0.39491 0.94515 0.76362 0.0
H863 H 0.38896 0.91315 0.71713 0.0
C864 C 0.40413 0.02264 0.81572 0.0
C865 C 0.38094 0.03956 0.82843 0.0
C866 C 0.39854 0.00314 0.79009 0.0
C867 C 0.36956 -0.00011 0.7761 0.0
C868 C 0.34623 0.01687 0.78881 0.0
C869 C 0.35183 0.0364 0.81475 0.0
C870 C 0.34098 0.96809 0.69687 0.0
C871 C 0.3571 0.94146 0.6938 0.0
C872 C 0.34443 0.98666 0.72372 0.0
C873 C 0.36425 0.97922 0.74817 0.0
C874 C 0.38002 0.95227 0.74513 0.0
C875 C 0.37665 0.93382 0.7183 0.0
H876 H 0.34812 0.17497 0.99637 0.0
H877 H 0.30597 0.08359 0.98665 0.0
H878 H 0.30956 0.18731 0.03458 0.0
H879 H 0.26776 0.09553 0.02556 0.0
H880 H 0.21039 0.12057 0.1091 0.0
H881 H 0.25318 0.10688 0.07661 0.0
H882 H 0.25827 0.19789 0.03615 0.0
H883 H 0.21657 0.21176 0.0698 0.0
C884 C 0.3306 0.15747 0.00253 0.0
C885 C 0.32971 0.1285 0.98813 0.0
C886 C 0.30831 0.16459 0.0243 0.0
C887 C 0.28478 0.14276 0.03257 0.0
C888 C 0.28505 0.11317 0.01942 0.0
C889 C 0.30693 0.10628 0.99704 0.0
C890 C 0.22076 0.13759 0.09325 0.0
C891 C 0.21005 0.16717 0.09182 0.0
C892 C 0.24529 0.12976 0.07454 0.0
C893 C 0.25948 0.15125 0.05369 0.0
C894 C 0.24858 0.18087 0.05239 0.0
C895 C 0.2244 0.1888 0.07144 0.0
H896 H 0.95674 0.28183 0.18721 0.0
H897 H 0.91192 0.2492 0.10224 0.0
H898 H 0.99337 0.24243 0.18199 0.0
H899 H 0.94931 0.21056 0.09626 0.0
H900 H 0.03845 0.15073 0.17625 0.0
H901 H 0.99894 0.18712 0.1832 0.0
H902 H 0.00361 0.20867 0.08413 0.0
H903 H 0.04319 0.17242 0.07735 0.0
C904 C 0.95489 0.26637 0.16728 0.0
C905 C 0.93162 0.26872 0.14501 0.0
C906 C 0.97578 0.2437 0.16434 0.0
C907 C 0.97459 0.2236 0.13844 0.0
C908 C 0.95118 0.22595 0.11623 0.0
C909 C 0.9297 0.248 0.11971 0.0
C910 C 0.03097 0.16328 0.15601 0.0
C911 C 0.04401 0.15896 0.12632 0.0
C912 C 0.00846 0.1842 0.15999 0.0
C913 C 0.99807 0.20082 0.13422 0.0
C914 C 0.01078 0.19598 0.1044 0.0
C915 C 0.03367 0.17546 0.10054 0.0
H916 H 0.57295 0.29104 0.91269 0.0
H917 H 0.53657 0.37173 0.86405 0.0
H918 H 0.56764 0.25069 0.91646 0.0
H919 H 0.49954 0.3283 0.83832 0.0
H920 H 0.41735 0.24513 0.86374 0.0
H921 H 0.45828 0.28242 0.87918 0.0
H922 H 0.5178 0.24421 0.81106 0.0
H923 H 0.47683 0.20661 0.79563 0.0
C924 C 0.57985 0.31201 0.91502 0.0
C925 C 0.568 0.34454 0.89862 0.0
C926 C 0.56156 0.27531 0.90527 0.0
C927 C 0.51799 0.28332 0.86354 0.0
C928 C 0.51651 0.32129 0.85476 0.0
C929 C 0.53996 0.34855 0.87157 0.0
C930 C 0.43924 0.24461 0.85216 0.0
C931 C 0.44455 0.22199 0.82977 0.0
C932 C 0.46259 0.26595 0.86092 0.0
C933 C 0.49194 0.26415 0.84849 0.0
C934 C 0.49607 0.24438 0.82292 0.0
C935 C 0.47259 0.22307 0.81392 0.0
H936 H 0.98762 0.71076 0.44803 0.0
H937 H 0.97659 0.68029 0.35194 0.0
H938 H 0.02787 0.74794 0.43201 0.0
H939 H 0.01759 0.71694 0.33574 0.0
H940 H 0.06721 0.80809 0.31083 0.0
H941 H 0.02945 0.76826 0.32684 0.0
H942 H 0.0767 0.75916 0.41521 0.0
H943 H 0.11365 0.80007 0.39955 0.0
C944 C 0.99395 0.71191 0.42343 0.0
C945 C 0.97858 0.69288 0.4012 0.0
C946 C 0.01743 0.73303 0.4142 0.0
C947 C 0.02618 0.73585 0.38242 0.0
C948 C 0.01117 0.71617 0.3603 0.0
C949 C 0.98761 0.69505 0.36957 0.0
C950 C 0.06948 0.79762 0.33372 0.0
C951 C 0.09341 0.80735 0.35393 0.0
C952 C 0.04796 0.77439 0.34282 0.0
C953 C 0.04987 0.76001 0.37234 0.0
C954 C 0.07396 0.76984 0.39252 0.0
C955 C 0.0953 0.79334 0.38353 0.0
H956 H 0.98925 0.36625 0.15467 0.0
H957 H 0.94467 0.31682 0.07796 0.0
H958 H 0.02947 0.3304 0.15454 0.0
H959 H 0.98504 0.28065 0.07781 0.0
H960 H 0.07459 0.23956 0.16915 0.0
H961 H 0.03691 0.27787 0.16762 0.0
H962 H 0.03958 0.27715 0.0661 0.0
H963 H 0.07834 0.23932 0.06769 0.0
C964 C 0.98798 0.34754 0.13789 0.0
C965 C 0.96367 0.34415 0.11654 0.0
C966 C 0.01101 0.32695 0.13784 0.0
C967 C 0.01056 0.30263 0.11614 0.0
C968 C 0.98631 0.29937 0.09456 0.0
C969 C 0.96299 0.31981 0.0949 0.0
C970 C 0.06729 0.24766 0.14647 0.0
C971 C 0.07934 0.23629 0.11853 0.0
C972 C 0.04571 0.26973 0.14558 0.0
C973 C 0.03484 0.28033 0.11674 0.0
C974 C 0.04711 0.26915 0.08872 0.0
C975 C 0.06944 0.24764 0.08962 0.0
H976 H 0.56964 0.69857 0.66981 0.0
H977 H 0.61477 0.74966 0.59454 0.0
H978 H 0.53078 0.73604 0.67204 0.0
H979 H 0.57645 0.7874 0.59706 0.0
H980 H 0.48738 0.83242 0.58653 0.0
H981 H 0.52512 0.79419 0.58515 0.0
H982 H 0.52164 0.78755 0.68653 0.0
H983 H 0.48324 0.82578 0.68768 0.0
C984 C 0.57106 0.71767 0.65353 0.0
C985 C 0.59493 0.72091 0.63161 0.0
C986 C 0.54901 0.73937 0.65507 0.0
C987 C 0.55024 0.76471 0.63459 0.0
C988 C 0.57429 0.76789 0.61276 0.0
C989 C 0.59639 0.74632 0.61138 0.0
C990 C 0.49454 0.82265 0.60853 0.0
C991 C 0.48209 0.83175 0.63721 0.0
C992 C 0.51652 0.80098 0.60779 0.0
C993 C 0.52658 0.7877 0.63572 0.0
C994 C 0.5141 0.79688 0.6645 0.0
C995 C 0.49224 0.81888 0.66524 0.0
H996 H 0.90274 0.72326 0.395 0.0
H997 H 0.9361 0.7209 0.29958 0.0
H998 H 0.9362 0.76875 0.40537 0.0
H999 H 0.97 0.7658 0.31004 0.0
H1000 H 0.0096 0.86165 0.32767 0.0
H1001 H 0.97121 0.81952 0.31898 0.0
H1002 H 0.98758 0.78576 0.41259 0.0
H1003 H 0.02715 0.82679 0.42023 0.0
C1004 C 0.91741 0.73227 0.37632 0.0
C1005 C 0.91681 0.71834 0.3465 0.0
C1006 C 0.93662 0.75841 0.38225 0.0
C1007 C 0.95568 0.77124 0.35848 0.0
C1008 C 0.95513 0.75712 0.32872 0.0
C1009 C 0.9359 0.73109 0.3228 0.0
C1010 C 0.00506 0.84492 0.34614 0.0
C1011 C 0.02162 0.84683 0.37427 0.0
C1012 C 0.98318 0.82078 0.34123 0.0
C1013 C 0.97689 0.79855 0.36473 0.0
C1014 C 0.99226 0.80187 0.39367 0.0
C1015 C 0.01496 0.82532 0.3981 0.0
H1016 H 0.49953 0.1339 0.90098 0.0
H1017 H 0.42335 0.18897 0.91887 0.0
H1018 H 0.53349 0.17995 0.89942 0.0
H1019 H 0.45721 0.23501 0.9177 0.0
H1020 H 0.51908 0.3275 0.92056 0.0
H1021 H 0.49241 0.27224 0.93633 0.0
H1022 H 0.54493 0.2134 0.85957 0.0
H1023 H 0.58024 0.25706 0.83252 0.0
C1024 C 0.49 0.15591 0.90449 0.0
C1025 C 0.45857 0.15787 0.90901 0.0
C1026 C 0.5095 0.18242 0.90346 0.0
C1027 C 0.49809 0.21157 0.90695 0.0
C1028 C 0.46699 0.21322 0.91407 0.0
C1029 C 0.44736 0.18675 0.9145 0.0
C1030 C 0.52612 0.30757 0.90744 0.0
C1031 C 0.56498 0.30146 0.86177 0.0
C1032 C 0.50915 0.27289 0.91771 0.0
C1033 C 0.5175 0.23982 0.89929 0.0
C1034 C 0.54316 0.23605 0.86934 0.0
C1035 C 0.56541 0.26367 0.8513 0.0
H1036 H 0.90458 0.10559 0.74959 0.0
H1037 H 0.82929 0.06477 0.69585 0.0
H1038 H 0.89965 0.06328 0.78679 0.0
H1039 H 0.82466 0.02196 0.73284 0.0
H1040 H 0.80573 0.96703 0.82435 0.0
H1041 H 0.80961 0.00892 0.7861 0.0
H1042 H 0.90769 0.01037 0.7915 0.0
H1043 H 0.90384 0.96892 0.82938 0.0
C1044 C 0.88714 0.0874 0.74555 0.0
C1045 C 0.86744 0.0885 0.71968 0.0
C1046 C 0.88436 0.06303 0.76685 0.0
C1047 C 0.86171 0.03913 0.76291 0.0
C1048 C 0.84204 0.04018 0.73691 0.0
C1049 C 0.84495 0.06453 0.71547 0.0
C1050 C 0.82808 0.97625 0.8172 0.0
C1051 C 0.85444 0.96459 0.82995 0.0
C1052 C 0.83033 0.00018 0.79518 0.0
C1053 C 0.85898 0.01316 0.78571 0.0
C1054 C 0.88524 0.0013 0.79846 0.0
C1055 C 0.88301 0.97727 0.82009 0.0
H1056 H 0.66777 0.07251 0.48051 0.0
H1057 H 0.65626 0.16815 0.46176 0.0
H1058 H 0.70926 0.08631 0.51593 0.0
H1059 H 0.69731 0.18243 0.49872 0.0
H1060 H 0.76713 0.11644 0.59783 0.0
H1061 H 0.72363 0.10492 0.56391 0.0
H1062 H 0.74938 0.18483 0.50754 0.0
H1063 H 0.79185 0.19733 0.5431 0.0
C1064 C 0.67388 0.09663 0.48434 0.0
C1065 C 0.65866 0.11923 0.46834 0.0
C1066 C 0.69763 0.10465 0.50504 0.0
C1067 C 0.7068 0.13561 0.51073 0.0
C1068 C 0.69136 0.15833 0.49476 0.0
C1069 C 0.66771 0.15021 0.47361 0.0
C1070 C 0.76349 0.13154 0.57818 0.0
C1071 C 0.78302 0.15771 0.57306 0.0
C1072 C 0.73852 0.12488 0.5585 0.0
C1073 C 0.73274 0.14379 0.53261 0.0
C1074 C 0.75249 0.16998 0.52749 0.0
C1075 C 0.77712 0.17702 0.54768 0.0
H1076 H 0.55703 0.92079 0.22849 0.0
H1077 H 0.65522 0.92178 0.22885 0.0
H1078 H 0.55922 0.96233 0.2671 0.0
H1079 H 0.6574 0.96301 0.26711 0.0
H1080 H 0.57618 0.05821 0.31042 0.0
H1081 H 0.57343 0.01615 0.27238 0.0
H1082 H 0.64754 0.97526 0.31999 0.0
H1083 H 0.65046 0.0174 0.35752 0.0
C1084 C 0.57905 0.92978 0.23685 0.0
C1085 C 0.60593 0.91798 0.22547 0.0
C1086 C 0.58033 0.95375 0.25883 0.0
C1087 C 0.60851 0.96626 0.27015 0.0
C1088 C 0.63528 0.95392 0.25918 0.0
C1089 C 0.63402 0.93028 0.23704 0.0
C1090 C 0.59211 0.0404 0.31245 0.0
C1091 C 0.61371 0.04123 0.33679 0.0
C1092 C 0.59025 0.01604 0.29094 0.0
C1093 C 0.61019 0.99216 0.2931 0.0
C1094 C 0.63207 0.99338 0.31725 0.0
C1095 C 0.63373 0.01753 0.33885 0.0
H1096 H 0.78813 0.94453 0.96269 0.0
H1097 H 0.83803 0.86569 0.98579 0.0
H1098 H 0.75095 0.9303 0.00333 0.0
H1099 H 0.80166 0.85194 0.02731 0.0
H1100 H 0.69737 0.90833 0.09228 0.0
H1101 H 0.738 0.92538 0.05613 0.0
H1102 H 0.75266 0.83083 0.03387 0.0
H1103 H 0.71317 0.81403 0.07075 0.0
C1104 C 0.79129 0.9243 0.97674 0.0
C1105 C 0.81572 0.90598 0.97078 0.0
C1106 C 0.77006 0.9162 0.00026 0.0
C1107 C 0.77288 0.88966 0.01858 0.0
C1108 C 0.79812 0.87206 0.01327 0.0
C1109 C 0.81912 0.87998 0.98951 0.0
C1110 C 0.70937 0.89124 0.07967 0.0
C1111 C 0.70198 0.85981 0.08441 0.0
C1112 C 0.73265 0.901 0.05881 0.0
C1113 C 0.74894 0.87957 0.04198 0.0
C1114 C 0.74136 0.84814 0.04685 0.0
C1115 C 0.71833 0.83843 0.06782 0.0
H1116 H 0.85079 0.00403 0.65201 0.0
H1117 H 0.93253 0.03426 0.70205 0.0
H1118 H 0.84287 0.96112 0.68784 0.0
H1119 H 0.92407 0.99202 0.73897 0.0
H1120 H 0.9133 0.89872 0.78756 0.0
H1121 H 0.92401 0.94027 0.74988 0.0
H1122 H 0.82726 0.9481 0.73737 0.0
H1123 H 0.817 0.90548 0.77299 0.0
C1124 C 0.86688 0.00171 0.67099 0.0
C1125 C 0.89216 0.02267 0.67432 0.0
C1126 C 0.86228 0.9771 0.69177 0.0
C1127 C 0.88253 0.97305 0.71688 0.0
C1128 C 0.90804 0.994 0.71994 0.0
C1129 C 0.91282 0.01845 0.69887 0.0
C1130 C 0.89445 0.90936 0.77654 0.0
C1131 C 0.86435 0.89864 0.78287 0.0
C1132 C 0.90051 0.93331 0.75501 0.0
C1133 C 0.87654 0.94751 0.73995 0.0
C1134 C 0.84644 0.93718 0.74731 0.0
C1135 C 0.84048 0.91287 0.76811 0.0
H1136 H 0.83807 0.15133 0.50324 0.0
H1137 H 0.79941 0.06673 0.54324 0.0
H1138 H 0.80065 0.14746 0.46124 0.0
H1139 H 0.76122 0.0633 0.50162 0.0
H1140 H 0.71015 0.15012 0.41121 0.0
H1141 H 0.74843 0.1523 0.45218 0.0
H1142 H 0.75368 0.05399 0.44641 0.0
H1143 H 0.71492 0.05188 0.40504 0.0
C1144 C 0.82141 0.132 0.50323 0.0
C1145 C 0.82173 0.10937 0.52666 0.0
C1146 C 0.79983 0.12981 0.47914 0.0
C1147 C 0.77781 0.10505 0.47794 0.0
C1148 C 0.77809 0.08243 0.50146 0.0
C1149 C 0.79983 0.08453 0.52551 0.0
C1150 C 0.7193 0.12889 0.41873 0.0
C1151 C 0.70931 0.10076 0.40502 0.0
C1152 C 0.74162 0.13019 0.44203 0.0
C1153 C 0.75432 0.10335 0.45265 0.0
C1154 C 0.74415 0.0751 0.4391 0.0
C1155 C 0.72202 0.07385 0.41535 0.0
H1156 H 0.55616 0.9654 0.16558 0.0
H1157 H 0.64912 0.94893 0.1423 0.0
H1158 H 0.57366 0.00439 0.20304 0.0
H1159 H 0.66699 0.98961 0.17833 0.0
H1160 H 0.6082 0.0905 0.25036 0.0
H1161 H 0.59348 0.05316 0.20987 0.0
H1162 H 0.67464 0.00535 0.22903 0.0
H1163 H 0.68982 0.04378 0.26833 0.0
C1164 C 0.58043 0.97044 0.16824 0.0
C1165 C 0.60125 0.95411 0.15098 0.0
C1166 C 0.59057 0.99322 0.18948 0.0
C1167 C 0.62188 0.00088 0.19361 0.0
C1168 C 0.64273 0.98432 0.17629 0.0
C1169 C 0.63253 0.96099 0.15548 0.0
C1170 C 0.62287 0.07201 0.24574 0.0
C1171 C 0.64997 0.06983 0.26265 0.0
C1172 C 0.61437 0.05036 0.22263 0.0
C1173 C 0.63242 0.02552 0.21634 0.0
C1174 C 0.66006 0.02402 0.23284 0.0
C1175 C 0.66877 0.04599 0.2556 0.0
H1176 H 0.66193 0.80359 0.01304 0.0
H1177 H 0.66525 0.9026 0.01114 0.0
H1178 H 0.7048 0.80428 0.97647 0.0
H1179 H 0.70771 0.90331 0.97469 0.0
H1180 H 0.80253 0.81872 0.93904 0.0
H1181 H 0.7588 0.81759 0.97452 0.0
H1182 H 0.72239 0.89198 0.92259 0.0
H1183 H 0.76622 0.89332 0.8876 0.0
C1184 C 0.67172 0.82548 0.00475 0.0
C1185 C 0.66025 0.85303 0.01516 0.0
C1186 C 0.69642 0.8259 0.98393 0.0
C1187 C 0.71 0.85387 0.97279 0.0
C1188 C 0.6979 0.88133 0.98264 0.0
C1189 C 0.67356 0.88093 0.00372 0.0
C1190 C 0.78532 0.83503 0.93548 0.0
C1191 C 0.78789 0.85623 0.91066 0.0
C1192 C 0.76002 0.83411 0.95553 0.0
C1193 C 0.73688 0.85458 0.95137 0.0
C1194 C 0.73984 0.87608 0.92677 0.0
C1195 C 0.76495 0.87681 0.90663 0.0
H1196 H 0.9576 0.85175 0.85697 0.0
H1197 H 0.95169 0.81547 0.95122 0.0
H1198 H 0.00059 0.82144 0.8463 0.0
H1199 H 0.99293 0.78294 0.94011 0.0
H1200 H 0.07982 0.73767 0.92067 0.0
H1201 H 0.04113 0.77302 0.93297 0.0
H1202 H 0.01757 0.77662 0.83414 0.0
H1203 H 0.05837 0.74421 0.82205 0.0
C1204 C 0.9652 0.83675 0.87525 0.0
C1205 C 0.95101 0.83573 0.9048 0.0
C1206 C 0.9899 0.81903 0.86912 0.0
C1207 C 0.00062 0.79899 0.89208 0.0
C1208 C 0.98632 0.79833 0.92181 0.0
C1209 C 0.96214 0.81671 0.92816 0.0
C1210 C 0.06645 0.74633 0.90165 0.0
C1211 C 0.07218 0.73812 0.87041 0.0
C1212 C 0.04387 0.7665 0.90866 0.0
C1213 C 0.02569 0.77825 0.88469 0.0
C1214 C 0.0314 0.76942 0.85344 0.0
C1215 C 0.0547 0.75027 0.8464 0.0
H1216 H 0.45934 0.64429 0.15862 0.0
H1217 H 0.47282 0.67365 0.06248 0.0
H1218 H 0.49674 0.68449 0.17595 0.0
H1219 H 0.50905 0.714 0.0794 0.0
H1220 H 0.58831 0.77396 0.11204 0.0
H1221 H 0.55582 0.72929 0.09731 0.0
H1222 H 0.50604 0.73622 0.18455 0.0
H1223 H 0.5401 0.77973 0.19993 0.0
C1224 C 0.47013 0.65949 0.14124 0.0
C1225 C 0.46307 0.65581 0.1092 0.0
C1226 C 0.49158 0.68266 0.15113 0.0
C1227 C 0.50614 0.70295 0.12922 0.0
C1228 C 0.49895 0.69889 0.09717 0.0
C1229 C 0.47782 0.67572 0.08736 0.0
C1230 C 0.57038 0.76589 0.12802 0.0
C1231 C 0.56656 0.78052 0.157 0.0
C1232 C 0.55154 0.74024 0.11955 0.0
C1233 C 0.52778 0.72895 0.13947 0.0
C1234 C 0.5242 0.74366 0.16863 0.0
C1235 C 0.54354 0.76892 0.17739 0.0
H1236 H 0.04906 0.33808 0.66686 0.0
H1237 H 0.00632 0.35063 0.57681 0.0
H1238 H 0.01081 0.29692 0.67903 0.0
H1239 H 0.9679 0.31072 0.58907 0.0
H1240 H 0.91671 0.22001 0.60382 0.0
H1241 H 0.95615 0.26002 0.593 0.0
H1242 H 0.96212 0.28109 0.69232 0.0
H1243 H 0.92376 0.24003 0.70298 0.0
C1244 C 0.03151 0.3321 0.6497 0.0
C1245 C 0.03099 0.34756 0.62079 0.0
C1246 C 0.0093 0.30858 0.65671 0.0
C1247 C 0.98619 0.29976 0.63489 0.0
C1248 C 0.98568 0.31573 0.6062 0.0
C1249 C 0.00776 0.33905 0.59923 0.0
C1250 C 0.92679 0.23292 0.62334 0.0
C1251 C 0.91728 0.22657 0.65424 0.0
C1252 C 0.94919 0.25635 0.61717 0.0
C1253 C 0.96267 0.27423 0.64172 0.0
C1254 C 0.95303 0.26767 0.6727 0.0
C1255 C 0.93071 0.24418 0.67884 0.0
H1256 H 0.05323 0.66222 0.83376 0.0
H1257 H 0.01772 0.65003 0.92784 0.0
H1258 H 0.01451 0.69768 0.82238 0.0
H1259 H 0.97782 0.68356 0.9162 0.0
H1260 H 0.92595 0.76724 0.90068 0.0
H1261 H 0.96349 0.73053 0.91098 0.0
H1262 H 0.96788 0.71065 0.81129 0.0
H1263 H 0.93278 0.74997 0.80117 0.0
C1264 C 0.03699 0.66701 0.85197 0.0
C1265 C 0.03898 0.65375 0.88188 0.0
C1266 C 0.01431 0.68714 0.84537 0.0
C1267 C 0.99278 0.69436 0.86842 0.0
C1268 C 0.9944 0.68005 0.89801 0.0
C1269 C 0.01732 0.66038 0.90472 0.0
C1270 C 0.93546 0.75543 0.88096 0.0
C1271 C 0.92709 0.76228 0.85011 0.0
C1272 C 0.95664 0.73362 0.88685 0.0
C1273 C 0.96934 0.71714 0.86205 0.0
C1274 C 0.95978 0.72324 0.83116 0.0
C1275 C 0.93922 0.7457 0.82528 0.0
H1276 H 0.39045 0.24447 0.32801 0.0
H1277 H 0.41017 0.2945 0.41398 0.0
H1278 H 0.4287 0.20908 0.34099 0.0
H1279 H 0.45003 0.26009 0.42622 0.0
H1280 H 0.5037 0.17848 0.45282 0.0
H1281 H 0.46257 0.21165 0.44207 0.0
H1282 H 0.48029 0.20436 0.34237 0.0
H1283 H 0.52006 0.16984 0.35319 0.0
C1284 C 0.40317 0.24809 0.34963 0.0
C1285 C 0.39745 0.27257 0.36977 0.0
C1286 C 0.42542 0.22786 0.35699 0.0
C1287 C 0.44296 0.23172 0.38452 0.0
C1288 C 0.43679 0.25593 0.40503 0.0
C1289 C 0.41414 0.27597 0.39785 0.0
C1290 C 0.49865 0.18385 0.42859 0.0
C1291 C 0.5153 0.17163 0.40388 0.0
C1292 C 0.4752 0.20317 0.4224 0.0
C1293 C 0.46787 0.21092 0.39131 0.0
C1294 C 0.4846 0.19853 0.36662 0.0
C1295 C 0.50777 0.17894 0.37281 0.0
H1296 H 0.95569 0.14544 0.64498 0.0
H1297 H 0.95251 0.18097 0.55055 0.0
H1298 H 0.99815 0.18153 0.65697 0.0
H1299 H 0.99308 0.21903 0.56286 0.0
H1300 H 0.0835 0.26945 0.58243 0.0
H1301 H 0.04176 0.23246 0.57003 0.0
H1302 H 0.01759 0.22772 0.66882 0.0
H1303 H 0.06123 0.2619 0.68098 0.0
C1304 C 0.96368 0.16158 0.62701 0.0
C1305 C 0.95082 0.16041 0.59687 0.0
C1306 C 0.98809 0.1826 0.63385 0.0
C1307 C -0.00029 0.2037 0.61098 0.0
C1308 C 0.98597 0.20282 0.58101 0.0
C1309 C 0.96216 0.18124 0.57398 0.0
C1310 C 0.06921 0.26029 0.60138 0.0
C1311 C 0.07571 0.26846 0.63265 0.0
C1312 C 0.0449 0.23917 0.59434 0.0
C1313 C 0.02578 0.22645 0.61832 0.0
C1314 C 0.03206 0.23561 0.64955 0.0
C1315 C 0.05701 0.25573 0.65662 0.0
H1316 H 0.39324 0.71361 0.0681 0.0
H1317 H 0.41293 0.70047 0.16638 0.0
H1318 H 0.4339 0.75437 0.0653 0.0
H1319 H 0.45316 0.7413 0.16383 0.0
H1320 H 0.53035 0.80234 0.06547 0.0
H1321 H 0.4886 0.76288 0.06705 0.0
H1322 H 0.46174 0.79579 0.15811 0.0
H1323 H 0.50327 0.83541 0.15628 0.0
C1324 C 0.40637 0.71939 0.08905 0.0
C1325 C 0.40009 0.70373 0.11739 0.0
C1326 C 0.42971 0.74267 0.08746 0.0
C1327 C 0.44689 0.7512 0.11434 0.0
C1328 C 0.44027 0.73563 0.14273 0.0
C1329 C 0.4174 0.71196 0.14414 0.0
C1330 C 0.51564 0.80098 0.0859 0.0
C1331 C 0.52027 0.82181 0.11088 0.0
C1332 C 0.49152 0.77851 0.08672 0.0
C1333 C 0.47187 0.77591 0.11283 0.0
C1334 C 0.47663 0.79679 0.13781 0.0
C1335 C 0.50039 0.81958 0.13674 0.0
H1336 H 0.65829 0.42322 0.75768 0.0
H1337 H 0.56192 0.42562 0.77591 0.0
H1338 H 0.6544 0.46153 0.71657 0.0
H1339 H 0.55815 0.46442 0.73497 0.0
H1340 H 0.57189 0.55802 0.68404 0.0
H1341 H 0.57495 0.51877 0.72492 0.0
H1342 H 0.63247 0.46785 0.66455 0.0
H1343 H 0.62922 0.50678 0.62389 0.0
C1344 C 0.63626 0.43194 0.75294 0.0
C1345 C 0.61043 0.42141 0.77017 0.0
C1346 C 0.63401 0.45384 0.72926 0.0
C1347 C 0.60601 0.46625 0.72265 0.0
C1348 C 0.58013 0.45564 0.73978 0.0
C1349 C 0.58227 0.43329 0.76312 0.0
C1350 C 0.58523 0.53846 0.67966 0.0
C1351 C 0.60031 0.53542 0.65084 0.0
C1352 C 0.58676 0.51585 0.70288 0.0
C1353 C 0.60393 0.49015 0.69796 0.0
C1354 C 0.61931 0.48748 0.66924 0.0
C1355 C 0.61733 0.50972 0.64589 0.0
H1356 H 0.79921 0.44813 0.03053 0.0
H1357 H 0.83411 0.35958 0.01261 0.0
H1358 H 0.76865 0.44328 0.98303 0.0
H1359 H 0.80346 0.35467 0.96489 0.0
H1360 H 0.7163 0.34137 0.90501 0.0
H1361 H 0.75218 0.34638 0.94849 0.0
H1362 H 0.76912 0.44269 0.92722 0.0
H1363 H 0.73317 0.43749 0.88351 0.0
C1364 C 0.80044 0.42761 0.01641 0.0
C1365 C 0.81878 0.40403 0.02571 0.0
C1366 C 0.78313 0.42498 0.98887 0.0
C1367 C 0.78345 0.39855 0.96999 0.0
C1368 C 0.80218 0.37513 0.97907 0.0
C1369 C 0.8198 0.37795 0.00645 0.0
C1370 C 0.72779 0.36359 0.90955 0.0
C1371 C 0.72172 0.38911 0.89101 0.0
C1372 C 0.7486 0.36644 0.93437 0.0
C1373 C 0.76338 0.39503 0.94175 0.0
C1374 C 0.75774 0.42043 0.92269 0.0
C1375 C 0.73728 0.41745 0.89749 0.0
H1376 H 0.88358 0.60024 0.27015 0.0
H1377 H 0.8042 0.54146 0.29287 0.0
H1378 H 0.89538 0.56648 0.22718 0.0
H1379 H 0.81664 0.50658 0.25092 0.0
H1380 H 0.83557 0.4552 0.16142 0.0
H1381 H 0.8202 0.49307 0.19947 0.0
H1382 H 0.91492 0.52169 0.2151 0.0
H1383 H 0.92973 0.48531 0.17623 0.0
C1384 C 0.86886 0.57978 0.26621 0.0
C1385 C 0.84314 0.57335 0.28515 0.0
C1386 C 0.87568 0.56019 0.24153 0.0
C1387 C 0.85736 0.53316 0.23549 0.0
C1388 C 0.83131 0.52711 0.25433 0.0
C1389 C 0.82426 0.54699 0.27873 0.0
C1390 C 0.853 0.46973 0.17303 0.0
C1391 C 0.88387 0.46722 0.16576 0.0
C1392 C 0.84424 0.49146 0.19503 0.0
C1393 C 0.86619 0.51088 0.2107 0.0
C1394 C 0.89706 0.50805 0.20325 0.0
C1395 C 0.90571 0.48674 0.18105 0.0
H1396 H 0.77864 0.66149 0.42187 0.0
H1397 H 0.79014 0.56493 0.43568 0.0
H1398 H 0.74138 0.66052 0.46393 0.0
H1399 H 0.75207 0.56378 0.47757 0.0
H1400 H 0.70536 0.58021 0.57184 0.0
H1401 H 0.7436 0.5811 0.53032 0.0
H1402 H 0.69082 0.64241 0.47615 0.0
H1403 H 0.65315 0.64226 0.51804 0.0
C1404 C 0.77306 0.63993 0.43373 0.0
C1405 C 0.78738 0.61324 0.42527 0.0
C1406 C 0.75145 0.63934 0.45778 0.0
C1407 C 0.74346 0.61204 0.4741 0.0
C1408 C 0.75786 0.58531 0.46574 0.0
C1409 C 0.77957 0.5859 0.44159 0.0
C1410 C 0.70198 0.59399 0.55111 0.0
C1411 C 0.6762 0.61125 0.54834 0.0
C1412 C 0.72377 0.59422 0.52713 0.0
C1413 C 0.72025 0.61161 0.49969 0.0
C1414 C 0.69453 0.62902 0.49706 0.0
C1415 C 0.67284 0.62892 0.52111 0.0
H1416 H 0.68737 0.46503 0.83835 0.0
H1417 H 0.59036 0.47144 0.82881 0.0
H1418 H 0.69578 0.5014 0.79489 0.0
H1419 H 0.59856 0.50729 0.78583 0.0
H1420 H 0.62123 0.59078 0.72675 0.0
H1421 H 0.61572 0.55733 0.77227 0.0
H1422 H 0.69007 0.50599 0.73891 0.0
H1423 H 0.69615 0.54029 0.69367 0.0
C1424 C 0.66788 0.47408 0.82694 0.0
C1425 C 0.63821 0.4649 0.83671 0.0
C1426 C 0.67265 0.49488 0.80197 0.0
C1427 C 0.64785 0.50734 0.78664 0.0
C1428 C 0.61829 0.49866 0.79718 0.0
C1429 C 0.61356 0.47773 0.82174 0.0
C1430 C 0.6363 0.57225 0.72896 0.0
C1431 C 0.65895 0.56806 0.70636 0.0
C1432 C 0.63316 0.55299 0.75516 0.0
C1433 C 0.65236 0.52875 0.75938 0.0
C1434 C 0.67508 0.52459 0.73673 0.0
C1435 C 0.67835 0.54403 0.71057 0.0
H1436 H 0.82287 0.32315 0.08399 0.0
H1437 H 0.77771 0.38898 0.13991 0.0
H1438 H 0.78569 0.3286 0.04181 0.0
H1439 H 0.74094 0.395 0.09781 0.0
H1440 H 0.70237 0.42354 0.00313 0.0
H1441 H 0.73772 0.41615 0.04611 0.0
H1442 H 0.73296 0.31876 0.02743 0.0
H1443 H 0.69719 0.32614 0.98469 0.0
C1444 C 0.80513 0.33899 0.08705 0.0
C1445 C 0.8033 0.35595 0.11492 0.0
C1446 C 0.78365 0.34192 0.06309 0.0
C1447 C 0.76046 0.36253 0.06621 0.0
C1448 C 0.75879 0.3794 0.09427 0.0
C1449 C 0.77977 0.3759 0.11844 0.0
C1450 C 0.70882 0.40054 0.00822 0.0
C1451 C 0.69703 0.37546 0.9904 0.0
C1452 C 0.72893 0.39624 0.03305 0.0
C1453 C 0.73837 0.36685 0.04022 0.0
C1454 C 0.72659 0.34177 0.02231 0.0
C1455 C 0.70592 0.34598 0.99792 0.0
H1456 H 0.94841 0.56491 0.30026 0.0
H1457 H 0.87149 0.53698 0.35874 0.0
H1458 H 0.93923 0.51911 0.26829 0.0
H1459 H 0.86318 0.49033 0.32814 0.0
H1460 H 0.83441 0.42717 0.24794 0.0
H1461 H 0.84527 0.47005 0.2826 0.0
H1462 H 0.94136 0.46698 0.2624 0.0
H1463 H 0.93008 0.42385 0.22685 0.0
C1464 C 0.92959 0.54885 0.30636 0.0
C1465 C 0.91052 0.55473 0.33185 0.0
C1466 C 0.9245 0.52227 0.28823 0.0
C1467 C 0.90042 0.5006 0.29537 0.0
C1468 C 0.88155 0.50654 0.3212 0.0
C1469 C 0.88634 0.53337 0.33895 0.0
C1470 C 0.85792 0.43556 0.25083 0.0
C1471 C 0.88134 0.42221 0.23429 0.0
C1472 C 0.86426 0.46024 0.27107 0.0
C1473 C 0.89425 0.47265 0.27533 0.0
C1474 C 0.91786 0.45874 0.25931 0.0
C1475 C 0.91147 0.43386 0.23896 0.0
H1476 H 0.84526 0.60484 0.48311 0.0
H1477 H 0.83581 0.70126 0.46607 0.0
H1478 H 0.8077 0.60572 0.52511 0.0
H1479 H 0.7982 0.70211 0.50841 0.0
H1480 H 0.70813 0.67989 0.56473 0.0
H1481 H 0.74559 0.68135 0.52198 0.0
H1482 H 0.80415 0.6277 0.57831 0.0
H1483 H 0.76701 0.62666 0.62097 0.0
C1484 C 0.83524 0.62628 0.48835 0.0
C1485 C 0.84371 0.65303 0.47127 0.0
C1486 C 0.81384 0.62681 0.51262 0.0
C1487 C 0.80018 0.65406 0.52036 0.0
C1488 C 0.80824 0.68073 0.50298 0.0
C1489 C 0.8299 0.68027 0.47881 0.0
C1490 C 0.72907 0.6685 0.5679 0.0
C1491 C 0.73461 0.653 0.59606 0.0
C1492 C 0.75061 0.66952 0.54355 0.0
C1493 C 0.77779 0.65445 0.54664 0.0
C1494 C 0.78328 0.63916 0.57497 0.0
C1495 C 0.76209 0.63869 0.59947 0.0
H1496 H 0.504 0.65914 0.6698 0.0
H1497 H 0.52727 0.68902 0.57575 0.0
H1498 H 0.46478 0.69558 0.67215 0.0
H1499 H 0.48625 0.72369 0.57658 0.0
H1500 H 0.42543 0.8025 0.59592 0.0
H1501 H 0.46487 0.7663 0.5907 0.0
H1502 H 0.4178 0.70663 0.65841 0.0
H1503 H 0.37906 0.74315 0.66386 0.0
C1504 C 0.50038 0.67332 0.64942 0.0
C1505 C 0.51867 0.67119 0.62262 0.0
C1506 C 0.47747 0.69406 0.65049 0.0
C1507 C 0.47138 0.71257 0.62432 0.0
C1508 C 0.49006 0.71044 0.59751 0.0
C1509 C 0.51363 0.69032 0.59686 0.0
C1510 C 0.42396 0.78188 0.61008 0.0
C1511 C 0.3997 0.77623 0.63106 0.0
C1512 C 0.44658 0.76088 0.60704 0.0
C1513 C 0.44586 0.7339 0.62532 0.0
C1514 C 0.42047 0.72768 0.64504 0.0
C1515 C 0.39781 0.74853 0.64788 0.0
H1516 H 0.41525 0.58292 0.23594 0.0
H1517 H 0.32383 0.55051 0.21051 0.0
H1518 H 0.41664 0.54237 0.27521 0.0
H1519 H 0.32533 0.50979 0.24939 0.0
H1520 H 0.32765 0.4575 0.34241 0.0
H1521 H 0.32563 0.49973 0.30489 0.0
H1522 H 0.41917 0.48821 0.27906 0.0
H1523 H 0.42094 0.44598 0.31603 0.0
C1524 C 0.3955 0.56706 0.23864 0.0
C1525 C 0.3695 0.56988 0.22001 0.0
C1526 C 0.39632 0.54373 0.26108 0.0
C1527 C 0.37108 0.52275 0.26553 0.0
C1528 C 0.34501 0.52576 0.24698 0.0
C1529 C 0.34428 0.54894 0.22441 0.0
C1530 C 0.34767 0.46395 0.32851 0.0
C1531 C 0.37436 0.44831 0.33195 0.0
C1532 C 0.34652 0.48806 0.30695 0.0
C1533 C 0.37221 0.49735 0.28878 0.0
C1534 C 0.39897 0.48181 0.29263 0.0
C1535 C 0.39992 0.4574 0.31368 0.0
H1536 H 0.27225 0.57837 0.08895 0.0
H1537 H 0.25393 0.67265 0.07105 0.0
H1538 H 0.23442 0.56155 0.04984 0.0
H1539 H 0.21707 0.65632 0.03134 0.0
H1540 H 0.14112 0.62198 0.96937 0.0
H1541 H 0.17167 0.63495 0.01561 0.0
H1542 H 0.22576 0.55747 0.99726 0.0
H1543 H 0.19365 0.54355 0.95242 0.0
C1544 C 0.26027 0.59552 0.07642 0.0
C1545 C 0.26629 0.62684 0.08281 0.0
C1546 C 0.23858 0.58592 0.05384 0.0
C1547 C 0.22275 0.60746 0.03667 0.0
C1548 C 0.22843 0.6388 0.04386 0.0
C1549 C 0.24985 0.64832 0.0666 0.0
C1550 C 0.15945 0.60766 0.97545 0.0
C1551 C 0.16522 0.58194 0.95713 0.0
C1552 C 0.1772 0.61518 0.00193 0.0
C1553 C 0.20173 0.59761 0.01035 0.0
C1554 C 0.20694 0.57143 0.99219 0.0
C1555 C 0.18869 0.56352 0.96615 0.0
H1556 H 0.18881 0.52118 0.80981 0.0
H1557 H 0.09069 0.52076 0.80753 0.0
H1558 H 0.18694 0.47885 0.77208 0.0
H1559 H 0.08888 0.48018 0.76883 0.0
H1560 H 0.09038 0.38589 0.72702 0.0
H1561 H 0.09436 0.42787 0.76457 0.0
H1562 H 0.17727 0.46355 0.71952 0.0
H1563 H 0.17339 0.42101 0.68221 0.0
C1564 C 0.16691 0.51237 0.80096 0.0
C1565 C 0.13995 0.52454 0.81158 0.0
C1566 C 0.1658 0.4882 0.77918 0.0
C1567 C 0.13771 0.47574 0.76752 0.0
C1568 C 0.1109 0.48846 0.7778 0.0
C1569 C 0.11199 0.51224 0.79969 0.0
C1570 C 0.10933 0.40283 0.72502 0.0
C1571 C 0.13134 0.40036 0.70145 0.0
C1572 C 0.11159 0.42706 0.74648 0.0
C1573 C 0.136 0.44946 0.74501 0.0
C1574 C 0.15829 0.44667 0.72161 0.0
C1575 C 0.15585 0.42254 0.69991 0.0
H1576 H 0.19585 0.31134 0.51284 0.0
H1577 H 0.2436 0.34241 0.59664 0.0
H1578 H 0.24293 0.31765 0.48293 0.0
H1579 H 0.29113 0.34566 0.56804 0.0
H1580 H 0.36625 0.38298 0.50383 0.0
H1581 H 0.32047 0.37327 0.53473 0.0
H1582 H 0.28898 0.30283 0.46847 0.0
H1583 H 0.33402 0.31489 0.43634 0.0
C1584 C 0.21657 0.31911 0.52494 0.0
C1585 C 0.2159 0.32697 0.5569 0.0
C1586 C 0.24384 0.3223 0.50791 0.0
C1587 C 0.27139 0.33229 0.52276 0.0
C1588 C 0.2706 0.33893 0.55517 0.0
C1589 C 0.24322 0.33683 0.57181 0.0
C1590 C 0.34957 0.36525 0.49614 0.0
C1591 C 0.35343 0.34987 0.46766 0.0
C1592 C 0.32326 0.35933 0.51405 0.0
C1593 C 0.30046 0.33709 0.50445 0.0
C1594 C 0.30529 0.32069 0.47647 0.0
C1595 C 0.33127 0.32733 0.45809 0.0
H1596 H 0.38503 0.38152 0.27886 0.0
H1597 H 0.29518 0.41525 0.27458 0.0
H1598 H 0.40209 0.41732 0.23761 0.0
H1599 H 0.3124 0.45263 0.23525 0.0
H1600 H 0.3431 0.50656 0.15067 0.0
H1601 H 0.32647 0.46438 0.18509 0.0
H1602 H 0.41622 0.46702 0.22685 0.0
H1603 H 0.43282 0.50841 0.19175 0.0
C1604 C 0.36898 0.39675 0.2691 0.0
C1605 C 0.33878 0.39556 0.27979 0.0
C1606 C 0.37876 0.41753 0.24557 0.0
C1607 C 0.35879 0.43828 0.2328 0.0
C1608 C 0.32846 0.43676 0.24363 0.0
C1609 C 0.31853 0.41543 0.26649 0.0
C1610 C 0.35922 0.4981 0.16729 0.0
C1611 C 0.3892 0.51108 0.16869 0.0
C1612 C 0.34966 0.4739 0.18724 0.0
C1613 C 0.3697 0.46229 0.2095 0.0
C1614 C 0.39994 0.47496 0.21021 0.0
C1615 C 0.40952 0.49899 0.19011 0.0
H1616 H 0.34124 0.67173 0.03043 0.0
H1617 H 0.32008 0.57386 0.03122 0.0
H1618 H 0.30124 0.67772 0.99161 0.0
H1619 H 0.28001 0.57978 0.99279 0.0
H1620 H 0.22725 0.59613 0.9037 0.0
H1621 H 0.26991 0.59153 0.93952 0.0
H1622 H 0.2476 0.67517 0.98604 0.0
H1623 H 0.20496 0.67963 0.95039 0.0
C1624 C 0.32798 0.65151 0.02237 0.0
C1625 C 0.33374 0.62235 0.034 0.0
C1626 C 0.30494 0.65493 0.0002 0.0
C1627 C 0.28728 0.62924 0.98896 0.0
C1628 C 0.29335 0.60006 0.00047 0.0
C1629 C 0.31615 0.59668 0.02283 0.0
C1630 C 0.23138 0.61346 0.92168 0.0
C1631 C 0.21244 0.63803 0.9244 0.0
C1632 C 0.25583 0.61079 0.9423 0.0
C1633 C 0.26212 0.63279 0.966 0.0
C1634 C 0.24355 0.65776 0.96815 0.0
C1635 C 0.21887 0.6602 0.94783 0.0
H1636 H 0.05032 0.50106 0.69394 0.0
H1637 H 0.14647 0.49405 0.67833 0.0
H1638 H 0.06109 0.54635 0.72618 0.0
H1639 H 0.1576 0.53763 0.71285 0.0
H1640 H 0.17098 0.6318 0.7546 0.0
H1641 H 0.15797 0.5899 0.71842 0.0
H1642 H 0.07778 0.56478 0.7738 0.0
H1643 H 0.0905 0.60739 0.80913 0.0
C1644 C 0.07384 0.50892 0.6978 0.0
C1645 C 0.09756 0.49355 0.68397 0.0
C1646 C 0.0801 0.53487 0.71659 0.0
C1647 C 0.1103 0.54597 0.72245 0.0
C1648 C 0.13401 0.53044 0.70853 0.0
C1649 C 0.12768 0.5049 0.6892 0.0
C1650 C 0.15051 0.61733 0.75892 0.0
C1651 C 0.13209 0.62246 0.78513 0.0
C1652 C 0.14316 0.593 0.73833 0.0
C1653 C 0.11713 0.57316 0.74334 0.0
C1654 C 0.09807 0.57927 0.76894 0.0
C1655 C 0.10551 0.60356 0.78957 0.0
H1656 H 0.19398 0.42335 0.56976 0.0
H1657 H 0.13607 0.35975 0.51547 0.0
H1658 H 0.23198 0.42453 0.52767 0.0
H1659 H 0.17385 0.36041 0.4741 0.0
H1660 H 0.22893 0.38619 0.39093 0.0
H1661 H 0.19375 0.39246 0.43391 0.0
H1662 H 0.26866 0.39719 0.49967 0.0
H1663 H 0.30423 0.39181 0.45596 0.0
C1664 C 0.18947 0.40942 0.54902 0.0
C1665 C 0.16181 0.39171 0.54588 0.0
C1666 C 0.21127 0.41008 0.52487 0.0
C1667 C 0.20579 0.39313 0.49704 0.0
C1668 C 0.17851 0.37469 0.49457 0.0
C1669 C 0.1569 0.37398 0.51859 0.0
C1670 C 0.23808 0.38897 0.41447 0.0
C1671 C 0.26939 0.3876 0.42016 0.0
C1672 C 0.21777 0.3922 0.43927 0.0
C1673 C 0.22814 0.3941 0.47054 0.0
C1674 C 0.25974 0.39523 0.476 0.0
C1675 C 0.28014 0.39189 0.45104 0.0
H1676 H 0.45629 0.3036 0.34003 0.0
H1677 H 0.5145 0.32857 0.41891 0.0
H1678 H 0.49057 0.26461 0.32476 0.0
H1679 H 0.54966 0.29108 0.40271 0.0
H1680 H 0.59103 0.20029 0.38672 0.0
H1681 H 0.55672 0.23932 0.40137 0.0
H1682 H 0.53729 0.25463 0.30311 0.0
H1683 H 0.57043 0.21437 0.28873 0.0
C1684 C 0.4766 0.30101 0.3539 0.0
C1685 C 0.48247 0.319 0.38087 0.0
C1686 C 0.49649 0.2788 0.34498 0.0
C1687 C 0.52305 0.27444 0.36249 0.0
C1688 C 0.52917 0.29307 0.38902 0.0
C1689 C 0.50906 0.31488 0.39818 0.0
C1690 C 0.57916 0.21177 0.36828 0.0
C1691 C 0.58306 0.20385 0.3366 0.0
C1692 C 0.55984 0.23463 0.37663 0.0
C1693 C 0.54409 0.25039 0.35347 0.0
C1694 C 0.54842 0.24267 0.32171 0.0
C1695 C 0.56763 0.21968 0.3134 0.0
loop_
_geom_bond_atom_site_label_1
_geom_bond_atom_site_label_2
_geom_bond_distance
_geom_bond_site_symmetry_2
_ccdc_geom_bond_type
C0 O1 1.160 . S
C0 O7 1.185 . S
O1 C0 1.160 . S
O2 Zn3 1.899 . S
O2 C10 1.284 . S
Zn3 O2 1.899 . S
Zn3 O4 2.032 . S
Zn3 O7 2.086 . S
Zn3 O12 1.977 . S
O4 Zn3 2.032 . S
O4 C8 1.278 . S
C5 O6 1.203 . S
C5 O12 1.267 . S
O6 C5 1.203 . S
O7 C0 1.185 . S
O7 Zn3 2.086 . S
C8 O4 1.278 . S
C8 O9 1.211 . S
O9 C8 1.211 . S
C10 O2 1.284 . S
C10 O11 1.273 . S
O11 C10 1.273 . S
O12 Zn3 1.977 . S
O12 C5 1.267 . S
C13 O14 1.160 . S
C13 O20 1.185 . S
O14 C13 1.160 . S
O15 Zn16 1.899 . S
O15 C23 1.284 . S
Zn16 O15 1.899 . S
Zn16 O17 2.032 . S
Zn16 O20 2.086 . S
Zn16 O25 1.977 . S
O17 Zn16 2.032 . S
O17 C21 1.278 . S
C18 O19 1.203 . S
C18 O25 1.267 . S
O19 C18 1.203 . S
O20 C13 1.185 . S
O20 Zn16 2.086 . S
C21 O17 1.278 . S
C21 O22 1.211 . S
O22 C21 1.211 . S
C23 O15 1.284 . S
C23 O24 1.273 . S
O24 C23 1.273 . S
O25 Zn16 1.977 . S
O25 C18 1.267 . S
C26 O27 1.160 . S
C26 O33 1.185 . S
O27 C26 1.160 . S
O28 Zn29 1.899 . S
O28 C36 1.284 . S
Zn29 O28 1.899 . S
Zn29 O30 2.032 . S
Zn29 O33 2.086 . S
Zn29 O38 1.977 . S
O30 Zn29 2.032 . S
O30 C34 1.278 . S
C31 O32 1.203 . S
C31 O38 1.267 . S
O32 C31 1.203 . S
O33 C26 1.185 . S
O33 Zn29 2.086 . S
C34 O30 1.278 . S
C34 O35 1.211 . S
O35 C34 1.211 . S
C36 O28 1.284 . S
C36 O37 1.273 . S
O37 C36 1.273 . S
O38 Zn29 1.977 . S
O38 C31 1.267 . S
C39 O40 1.160 . S
C39 O46 1.185 . S
O40 C39 1.160 . S
O41 Zn42 1.899 . S
O41 C49 1.284 . S
Zn42 O41 1.899 . S
Zn42 O43 2.032 . S
Zn42 O46 2.086 . S
Zn42 O51 1.977 . S
O43 Zn42 2.032 . S
O43 C47 1.278 . S
C44 O45 1.203 . S
C44 O51 1.267 . S
O45 C44 1.203 . S
O46 C39 1.185 . S
O46 Zn42 2.086 . S
C47 O43 1.278 . S
C47 O48 1.211 . S
O48 C47 1.211 . S
C49 O41 1.284 . S
C49 O50 1.273 . S
O50 C49 1.273 . S
O51 Zn42 1.977 . S
O51 C44 1.267 . S
C52 O53 1.160 . S
C52 O59 1.185 . S
O53 C52 1.160 . S
O54 Zn55 1.899 . S
O54 C62 1.284 . S
Zn55 O54 1.899 . S
Zn55 O56 2.032 . S
Zn55 O59 2.086 . S
Zn55 O64 1.977 . S
O56 Zn55 2.032 . S
O56 C60 1.278 . S
C57 O58 1.203 . S
C57 O64 1.267 . S
O58 C57 1.203 . S
O59 C52 1.185 . S
O59 Zn55 2.086 . S
C60 O56 1.278 . S
C60 O61 1.211 . S
O61 C60 1.211 . S
C62 O54 1.284 . S
C62 O63 1.273 . S
O63 C62 1.273 . S
O64 Zn55 1.977 . S
O64 C57 1.267 . S
C65 O66 1.160 . S
C65 O72 1.185 . S
O66 C65 1.160 . S
O67 Zn68 1.899 . S
O67 C75 1.284 . S
Zn68 O67 1.899 . S
Zn68 O69 2.032 . S
Zn68 O72 2.086 . S
Zn68 O77 1.977 . S
O69 Zn68 2.032 . S
O69 C73 1.278 . S
C70 O71 1.203 . S
C70 O77 1.267 . S
O71 C70 1.203 . S
O72 C65 1.185 . S
O72 Zn68 2.086 . S
C73 O69 1.278 . S
C73 O74 1.211 . S
O74 C73 1.211 . S
C75 O67 1.284 . S
C75 O76 1.273 . S
O76 C75 1.273 . S
O77 Zn68 1.977 . S
O77 C70 1.267 . S
C78 O79 1.160 . S
C78 O85 1.185 . S
O79 C78 1.160 . S
O80 Zn81 1.899 . S
O80 C88 1.284 . S
Zn81 O80 1.899 . S
Zn81 O82 2.032 . S
Zn81 O85 2.086 . S
Zn81 O90 1.977 . S
O82 Zn81 2.032 . S
O82 C86 1.278 . S
C83 O84 1.203 . S
C83 O90 1.267 . S
O84 C83 1.203 . S
O85 C78 1.185 . S
O85 Zn81 2.086 . S
C86 O82 1.278 . S
C86 O87 1.211 . S
O87 C86 1.211 . S
C88 O80 1.284 . S
C88 O89 1.273 . S
O89 C88 1.273 . S
O90 Zn81 1.977 . S
O90 C83 1.267 . S
C91 O92 1.160 . S
C91 O98 1.185 . S
O92 C91 1.160 . S
O93 Zn94 1.899 . S
O93 C101 1.284 . S
Zn94 O93 1.899 . S
Zn94 O95 2.032 . S
Zn94 O98 2.086 . S
Zn94 O103 1.977 . S
O95 Zn94 2.032 . S
O95 C99 1.278 . S
C96 O97 1.203 . S
C96 O103 1.267 . S
O97 C96 1.203 . S
O98 C91 1.185 . S
O98 Zn94 2.086 . S
C99 O95 1.278 . S
C99 O100 1.211 . S
O100 C99 1.211 . S
C101 O93 1.284 . S
C101 O102 1.273 . S
O102 C101 1.273 . S
O103 Zn94 1.977 . S
O103 C96 1.267 . S
C104 O105 1.160 . S
C104 O111 1.185 . S
O105 C104 1.160 . S
O106 Zn107 1.899 . S
O106 C114 1.284 . S
Zn107 O106 1.899 . S
Zn107 O108 2.032 . S
Zn107 O111 2.086 . S
Zn107 O116 1.977 . S
O108 Zn107 2.032 . S
O108 C112 1.278 . S
C109 O110 1.203 . S
C109 O116 1.267 . S
O110 C109 1.203 . S
O111 C104 1.185 . S
O111 Zn107 2.086 . S
C112 O108 1.278 . S
C112 O113 1.211 . S
O113 C112 1.211 . S
C114 O106 1.284 . S
C114 O115 1.273 . S
O115 C114 1.273 . S
O116 Zn107 1.977 . S
O116 C109 1.267 . S
C117 O118 1.160 . S
C117 O124 1.185 . S
O118 C117 1.160 . S
O119 Zn120 1.899 . S
O119 C127 1.284 . S
Zn120 O119 1.899 . S
Zn120 O121 2.032 . S
Zn120 O124 2.086 . S
Zn120 O129 1.977 . S
O121 Zn120 2.032 . S
O121 C125 1.278 . S
C122 O123 1.203 . S
C122 O129 1.267 . S
O123 C122 1.203 . S
O124 C117 1.185 . S
O124 Zn120 2.086 . S
C125 O121 1.278 . S
C125 O126 1.211 . S
O126 C125 1.211 . S
C127 O119 1.284 . S
C127 O128 1.273 . S
O128 C127 1.273 . S
O129 Zn120 1.977 . S
O129 C122 1.267 . S
C130 O131 1.160 . S
C130 O137 1.185 . S
O131 C130 1.160 . S
O132 Zn133 1.899 . S
O132 C140 1.284 . S
Zn133 O132 1.899 . S
Zn133 O134 2.032 . S
Zn133 O137 2.086 . S
Zn133 O142 1.977 . S
O134 Zn133 2.032 . S
O134 C138 1.278 . S
C135 O136 1.203 . S
C135 O142 1.267 . S
O136 C135 1.203 . S
O137 C130 1.185 . S
O137 Zn133 2.086 . S
C138 O134 1.278 . S
C138 O139 1.211 . S
O139 C138 1.211 . S
C140 O132 1.284 . S
C140 O141 1.273 . S
O141 C140 1.273 . S
O142 Zn133 1.977 . S
O142 C135 1.267 . S
C143 O144 1.160 . S
C143 O150 1.185 . S
O144 C143 1.160 . S
O145 Zn146 1.899 . S
O145 C153 1.284 . S
Zn146 O145 1.899 . S
Zn146 O147 2.032 . S
Zn146 O150 2.086 . S
Zn146 O155 1.977 . S
O147 Zn146 2.032 . S
O147 C151 1.278 . S
C148 O149 1.203 . S
C148 O155 1.267 . S
O149 C148 1.203 . S
O150 C143 1.185 . S
O150 Zn146 2.086 . S
C151 O147 1.278 . S
C151 O152 1.211 . S
O152 C151 1.211 . S
C153 O145 1.284 . S
C153 O154 1.273 . S
O154 C153 1.273 . S
O155 Zn146 1.977 . S
O155 C148 1.267 . S
C156 O157 1.160 . S
C156 O163 1.185 . S
O157 C156 1.160 . S
O158 Zn159 1.899 . S
O158 C166 1.284 . S
Zn159 O158 1.899 . S
Zn159 O160 2.032 . S
Zn159 O163 2.086 . S
Zn159 O168 1.977 . S
O160 Zn159 2.032 . S
O160 C164 1.278 . S
C161 O162 1.203 . S
C161 O168 1.267 . S
O162 C161 1.203 . S
O163 C156 1.185 . S
O163 Zn159 2.086 . S
C164 O160 1.278 . S
C164 O165 1.211 . S
O165 C164 1.211 . S
C166 O158 1.284 . S
C166 O167 1.273 . S
O167 C166 1.273 . S
O168 Zn159 1.977 . S
O168 C161 1.267 . S
C169 O170 1.160 . S
C169 O176 1.185 . S
O170 C169 1.160 . S
O171 Zn172 1.899 . S
O171 C179 1.284 . S
Zn172 O171 1.899 . S
Zn172 O173 2.032 . S
Zn172 O176 2.086 . S
Zn172 O181 1.977 . S
O173 Zn172 2.032 . S
O173 C177 1.278 . S
C174 O175 1.203 . S
C174 O181 1.267 . S
O175 C174 1.203 . S
O176 C169 1.185 . S
O176 Zn172 2.086 . S
C177 O173 1.278 . S
C177 O178 1.211 . S
O178 C177 1.211 . S
C179 O171 1.284 . S
C179 O180 1.273 . S
O180 C179 1.273 . S
O181 Zn172 1.977 . S
O181 C174 1.267 . S
C182 O183 1.160 . S
C182 O189 1.185 . S
O183 C182 1.160 . S
O184 Zn185 1.899 . S
O184 C192 1.284 . S
Zn185 O184 1.899 . S
Zn185 O186 2.032 . S
Zn185 O189 2.086 . S
Zn185 O194 1.977 . S
O186 Zn185 2.032 . S
O186 C190 1.278 . S
C187 O188 1.203 . S
C187 O194 1.267 . S
O188 C187 1.203 . S
O189 C182 1.185 . S
O189 Zn185 2.086 . S
C190 O186 1.278 . S
C190 O191 1.211 . S
O191 C190 1.211 . S
C192 O184 1.284 . S
C192 O193 1.273 . S
O193 C192 1.273 . S
O194 Zn185 1.977 . S
O194 C187 1.267 . S
C195 O196 1.160 . S
C195 O202 1.185 . S
O196 C195 1.160 . S
O197 Zn198 1.899 . S
O197 C205 1.284 . S
Zn198 O197 1.899 . S
Zn198 O199 2.032 . S
Zn198 O202 2.086 . S
Zn198 O207 1.977 . S
O199 Zn198 2.032 . S
O199 C203 1.278 . S
C200 O201 1.203 . S
C200 O207 1.267 . S
O201 C200 1.203 . S
O202 C195 1.185 . S
O202 Zn198 2.086 . S
C203 O199 1.278 . S
C203 O204 1.211 . S
O204 C203 1.211 . S
C205 O197 1.284 . S
C205 O206 1.273 . S
O206 C205 1.273 . S
O207 Zn198 1.977 . S
O207 C200 1.267 . S
C208 O209 1.160 . S
C208 O215 1.185 . S
O209 C208 1.160 . S
O210 Zn211 1.899 . S
O210 C218 1.284 . S
Zn211 O210 1.899 . S
Zn211 O212 2.032 . S
Zn211 O215 2.086 . S
Zn211 O220 1.977 . S
O212 Zn211 2.032 . S
O212 C216 1.278 . S
C213 O214 1.203 . S
C213 O220 1.267 . S
O214 C213 1.203 . S
O215 C208 1.185 . S
O215 Zn211 2.086 . S
C216 O212 1.278 . S
C216 O217 1.211 . S
O217 C216 1.211 . S
C218 O210 1.284 . S
C218 O219 1.273 . S
O219 C218 1.273 . S
O220 Zn211 1.977 . S
O220 C213 1.267 . S
C221 O222 1.160 . S
C221 O228 1.185 . S
O222 C221 1.160 . S
O223 Zn224 1.899 . S
O223 C231 1.284 . S
Zn224 O223 1.899 . S
Zn224 O225 2.032 . S
Zn224 O228 2.086 . S
Zn224 O233 1.977 . S
O225 Zn224 2.032 . S
O225 C229 1.278 . S
C226 O227 1.203 . S
C226 O233 1.267 . S
O227 C226 1.203 . S
O228 C221 1.185 . S
O228 Zn224 2.086 . S
C229 O225 1.278 . S
C229 O230 1.211 . S
O230 C229 1.211 . S
C231 O223 1.284 . S
C231 O232 1.273 . S
O232 C231 1.273 . S
O233 Zn224 1.977 . S
O233 C226 1.267 . S
C234 O235 1.160 . S
C234 O241 1.185 . S
O235 C234 1.160 . S
O236 Zn237 1.899 . S
O236 C244 1.284 . S
Zn237 O236 1.899 . S
Zn237 O238 2.032 . S
Zn237 O241 2.086 . S
Zn237 O246 1.977 . S
O238 Zn237 2.032 . S
O238 C242 1.278 . S
C239 O240 1.203 . S
C239 O246 1.267 . S
O240 C239 1.203 . S
O241 C234 1.185 . S
O241 Zn237 2.086 . S
C242 O238 1.278 . S
C242 O243 1.211 . S
O243 C242 1.211 . S
C244 O236 1.284 . S
C244 O245 1.273 . S
O245 C244 1.273 . S
O246 Zn237 1.977 . S
O246 C239 1.267 . S
C247 O248 1.160 . S
C247 O254 1.185 . S
O248 C247 1.160 . S
O249 Zn250 1.899 . S
O249 C257 1.284 . S
Zn250 O249 1.899 . S
Zn250 O251 2.032 . S
Zn250 O254 2.086 . S
Zn250 O259 1.977 . S
O251 Zn250 2.032 . S
O251 C255 1.278 . S
C252 O253 1.203 . S
C252 O259 1.267 . S
O253 C252 1.203 . S
O254 C247 1.185 . S
O254 Zn250 2.086 . S
C255 O251 1.278 . S
C255 O256 1.211 . S
O256 C255 1.211 . S
C257 O249 1.284 . S
C257 O258 1.273 . S
O258 C257 1.273 . S
O259 Zn250 1.977 . S
O259 C252 1.267 . S
C260 O261 1.160 . S
C260 O267 1.185 . S
O261 C260 1.160 . S
O262 Zn263 1.899 . S
O262 C270 1.284 . S
Zn263 O262 1.899 . S
Zn263 O264 2.032 . S
Zn263 O267 2.086 . S
Zn263 O272 1.977 . S
O264 Zn263 2.032 . S
O264 C268 1.278 . S
C265 O266 1.203 . S
C265 O272 1.267 . S
O266 C265 1.203 . S
O267 C260 1.185 . S
O267 Zn263 2.086 . S
C268 O264 1.278 . S
C268 O269 1.211 . S
O269 C268 1.211 . S
C270 O262 1.284 . S
C270 O271 1.273 . S
O271 C270 1.273 . S
O272 Zn263 1.977 . S
O272 C265 1.267 . S
C273 O274 1.160 . S
C273 O280 1.185 . S
O274 C273 1.160 . S
O275 Zn276 1.899 . S
O275 C283 1.284 . S
Zn276 O275 1.899 . S
Zn276 O277 2.032 . S
Zn276 O280 2.086 . S
Zn276 O285 1.977 . S
O277 Zn276 2.032 . S
O277 C281 1.278 . S
C278 O279 1.203 . S
C278 O285 1.267 . S
O279 C278 1.203 . S
O280 C273 1.185 . S
O280 Zn276 2.086 . S
C281 O277 1.278 . S
C281 O282 1.211 . S
O282 C281 1.211 . S
C283 O275 1.284 . S
C283 O284 1.273 . S
O284 C283 1.273 . S
O285 Zn276 1.977 . S
O285 C278 1.267 . S
C286 O287 1.160 . S
C286 O293 1.185 . S
O287 C286 1.160 . S
O288 Zn289 1.899 . S
O288 C296 1.284 . S
Zn289 O288 1.899 . S
Zn289 O290 2.032 . S
Zn289 O293 2.086 . S
Zn289 O298 1.977 . S
O290 Zn289 2.032 . S
O290 C294 1.278 . S
C291 O292 1.203 . S
C291 O298 1.267 . S
O292 C291 1.203 . S
O293 C286 1.185 . S
O293 Zn289 2.086 . S
C294 O290 1.278 . S
C294 O295 1.211 . S
O295 C294 1.211 . S
C296 O288 1.284 . S
C296 O297 1.273 . S
O297 C296 1.273 . S
O298 Zn289 1.977 . S
O298 C291 1.267 . S
C299 O300 1.160 . S
C299 O306 1.185 . S
O300 C299 1.160 . S
O301 Zn302 1.899 . S
O301 C309 1.284 . S
Zn302 O301 1.899 . S
Zn302 O303 2.032 . S
Zn302 O306 2.086 . S
Zn302 O311 1.977 . S
O303 Zn302 2.032 . S
O303 C307 1.278 . S
C304 O305 1.203 . S
C304 O311 1.267 . S
O305 C304 1.203 . S
O306 C299 1.185 . S
O306 Zn302 2.086 . S
C307 O303 1.278 . S
C307 O308 1.211 . S
O308 C307 1.211 . S
C309 O301 1.284 . S
C309 O310 1.273 . S
O310 C309 1.273 . S
O311 Zn302 1.977 . S
O311 C304 1.267 . S
C312 O313 1.160 . S
C312 O319 1.185 . S
O313 C312 1.160 . S
O314 Zn315 1.899 . S
O314 C322 1.284 . S
Zn315 O314 1.899 . S
Zn315 O316 2.032 . S
Zn315 O319 2.086 . S
Zn315 O324 1.977 . S
O316 Zn315 2.032 . S
O316 C320 1.278 . S
C317 O318 1.203 . S
C317 O324 1.267 . S
O318 C317 1.203 . S
O319 C312 1.185 . S
O319 Zn315 2.086 . S
C320 O316 1.278 . S
C320 O321 1.211 . S
O321 C320 1.211 . S
C322 O314 1.284 . S
C322 O323 1.273 . S
O323 C322 1.273 . S
O324 Zn315 1.977 . S
O324 C317 1.267 . S
C325 O326 1.160 . S
C325 O332 1.185 . S
O326 C325 1.160 . S
O327 Zn328 1.899 . S
O327 C335 1.284 . S
Zn328 O327 1.899 . S
Zn328 O329 2.032 . S
Zn328 O332 2.086 . S
Zn328 O337 1.977 . S
O329 Zn328 2.032 . S
O329 C333 1.278 . S
C330 O331 1.203 . S
C330 O337 1.267 . S
O331 C330 1.203 . S
O332 C325 1.185 . S
O332 Zn328 2.086 . S
C333 O329 1.278 . S
C333 O334 1.211 . S
O334 C333 1.211 . S
C335 O327 1.284 . S
C335 O336 1.273 . S
O336 C335 1.273 . S
O337 Zn328 1.977 . S
O337 C330 1.267 . S
C338 O339 1.160 . S
C338 O345 1.185 . S
O339 C338 1.160 . S
O340 Zn341 1.899 . S
O340 C348 1.284 . S
Zn341 O340 1.899 . S
Zn341 O342 2.032 . S
Zn341 O345 2.086 . S
Zn341 O350 1.977 . S
O342 Zn341 2.032 . S
O342 C346 1.278 . S
C343 O344 1.203 . S
C343 O350 1.267 . S
O344 C343 1.203 . S
O345 C338 1.185 . S
O345 Zn341 2.086 . S
C346 O342 1.278 . S
C346 O347 1.211 . S
O347 C346 1.211 . S
C348 O340 1.284 . S
C348 O349 1.273 . S
O349 C348 1.273 . S
O350 Zn341 1.977 . S
O350 C343 1.267 . S
C351 O352 1.160 . S
C351 O358 1.185 . S
O352 C351 1.160 . S
O353 Zn354 1.899 . S
O353 C361 1.284 . S
Zn354 O353 1.899 . S
Zn354 O355 2.032 . S
Zn354 O358 2.086 . S
Zn354 O363 1.977 . S
O355 Zn354 2.032 . S
O355 C359 1.278 . S
C356 O357 1.203 . S
C356 O363 1.267 . S
O357 C356 1.203 . S
O358 C351 1.185 . S
O358 Zn354 2.086 . S
C359 O355 1.278 . S
C359 O360 1.211 . S
O360 C359 1.211 . S
C361 O353 1.284 . S
C361 O362 1.273 . S
O362 C361 1.273 . S
O363 Zn354 1.977 . S
O363 C356 1.267 . S
C364 O365 1.160 . S
C364 O371 1.185 . S
O365 C364 1.160 . S
O366 Zn367 1.899 . S
O366 C374 1.284 . S
Zn367 O366 1.899 . S
Zn367 O368 2.032 . S
Zn367 O371 2.086 . S
Zn367 O376 1.977 . S
O368 Zn367 2.032 . S
O368 C372 1.278 . S
C369 O370 1.203 . S
C369 O376 1.267 . S
O370 C369 1.203 . S
O371 C364 1.185 . S
O371 Zn367 2.086 . S
C372 O368 1.278 . S
C372 O373 1.211 . S
O373 C372 1.211 . S
C374 O366 1.284 . S
C374 O375 1.273 . S
O375 C374 1.273 . S
O376 Zn367 1.977 . S
O376 C369 1.267 . S
C377 O378 1.160 . S
C377 O384 1.185 . S
O378 C377 1.160 . S
O379 Zn380 1.899 . S
O379 C387 1.284 . S
Zn380 O379 1.899 . S
Zn380 O381 2.032 . S
Zn380 O384 2.086 . S
Zn380 O389 1.977 . S
O381 Zn380 2.032 . S
O381 C385 1.278 . S
C382 O383 1.203 . S
C382 O389 1.267 . S
O383 C382 1.203 . S
O384 C377 1.185 . S
O384 Zn380 2.086 . S
C385 O381 1.278 . S
C385 O386 1.211 . S
O386 C385 1.211 . S
C387 O379 1.284 . S
C387 O388 1.273 . S
O388 C387 1.273 . S
O389 Zn380 1.977 . S
O389 C382 1.267 . S
C390 O391 1.160 . S
C390 O397 1.185 . S
O391 C390 1.160 . S
O392 Zn393 1.899 . S
O392 C400 1.284 . S
Zn393 O392 1.899 . S
Zn393 O394 2.032 . S
Zn393 O397 2.086 . S
Zn393 O402 1.977 . S
O394 Zn393 2.032 . S
O394 C398 1.278 . S
C395 O396 1.203 . S
C395 O402 1.267 . S
O396 C395 1.203 . S
O397 C390 1.185 . S
O397 Zn393 2.086 . S
C398 O394 1.278 . S
C398 O399 1.211 . S
O399 C398 1.211 . S
C400 O392 1.284 . S
C400 O401 1.273 . S
O401 C400 1.273 . S
O402 Zn393 1.977 . S
O402 C395 1.267 . S
C403 O404 1.160 . S
C403 O410 1.185 . S
O404 C403 1.160 . S
O405 Zn406 1.899 . S
O405 C413 1.284 . S
Zn406 O405 1.899 . S
Zn406 O407 2.032 . S
Zn406 O410 2.086 . S
Zn406 O415 1.977 . S
O407 Zn406 2.032 . S
O407 C411 1.278 . S
C408 O409 1.203 . S
C408 O415 1.267 . S
O409 C408 1.203 . S
O410 C403 1.185 . S
O410 Zn406 2.086 . S
C411 O407 1.278 . S
C411 O412 1.211 . S
O412 C411 1.211 . S
C413 O405 1.284 . S
C413 O414 1.273 . S
O414 C413 1.273 . S
O415 Zn406 1.977 . S
O415 C408 1.267 . S
H416 C424 0.950 . S
H417 C429 0.950 . S
H418 C426 0.926 1_565 S
H419 C428 0.950 . S
H420 C430 0.950 . S
H421 C432 0.950 1_545 S
H422 C434 0.950 . S
H423 C435 0.950 . S
C424 H416 0.950 . S
C424 C425 1.386 . S
C424 C426 1.407 . S
C425 C424 1.386 . S
C425 C429 1.393 . S
C426 H418 0.926 1_545 S
C426 C424 1.407 . S
C426 C427 1.408 . S
C427 C426 1.408 . S
C427 C428 1.398 1_455 S
C427 C433 1.491 1_444 S
C428 H419 0.950 . S
C428 C427 1.398 1_655 S
C428 C429 1.391 1_655 S
C429 H417 0.950 . S
C429 C425 1.393 . S
C429 C428 1.391 1_455 S
C430 H420 0.950 . S
C430 C431 1.386 . S
C430 C432 1.391 . S
C431 C430 1.386 . S
C431 C435 1.393 . S
C432 H421 0.950 1_565 S
C432 C430 1.391 . S
C432 C433 1.400 . S
C433 C427 1.491 1_666 S
C433 C432 1.400 . S
C433 C434 1.398 1_655 S
C434 H422 0.950 . S
C434 C433 1.398 1_455 S
C434 C435 1.391 1_455 S
C435 H423 0.950 . S
C435 C431 1.393 . S
C435 C434 1.391 1_655 S
H436 C444 0.950 . S
H437 C449 0.950 . S
H438 C446 0.950 . S
H439 C448 0.950 . S
H440 C450 0.950 . S
H441 C452 0.950 . S
H442 C454 0.950 . S
H443 C455 0.950 . S
C444 H436 0.950 . S
C444 C445 1.386 . S
C444 C446 1.391 . S
C445 C444 1.386 . S
C445 C449 1.393 . S
C446 H438 0.950 . S
C446 C444 1.391 . S
C446 C447 1.400 . S
C447 C446 1.400 . S
C447 C448 1.398 . S
C447 C453 1.491 . S
C448 H439 0.950 . S
C448 C447 1.398 . S
C448 C449 1.391 . S
C449 H437 0.950 . S
C449 C445 1.393 . S
C449 C448 1.391 . S
C450 H440 0.950 . S
C450 C451 1.386 . S
C450 C452 1.391 . S
C451 C450 1.386 . S
C451 C455 1.393 . S
C452 H441 0.950 . S
C452 C450 1.391 . S
C452 C453 1.400 . S
C453 C447 1.491 . S
C453 C452 1.400 . S
C453 C454 1.398 . S
C454 H442 0.950 . S
C454 C453 1.398 . S
C454 C455 1.391 . S
C455 H443 0.950 . S
C455 C451 1.393 . S
C455 C454 1.391 . S
H456 C464 0.950 . S
H457 C469 0.950 . S
H458 C466 0.950 1_545 S
H459 C468 0.950 . S
H460 C470 0.950 . S
H461 C472 0.938 1_565 S
H462 C474 0.950 . S
H463 C475 0.950 . S
C464 H456 0.950 . S
C464 C465 1.386 . S
C464 C466 1.391 . S
C465 C464 1.386 . S
C465 C469 1.393 . S
C466 H458 0.950 1_565 S
C466 C464 1.391 . S
C466 C467 1.400 . S
C467 C466 1.400 . S
C467 C468 1.398 . S
C467 C473 1.491 1_565 S
C468 H459 0.950 . S
C468 C467 1.398 . S
C468 C469 1.391 . S
C469 H457 0.950 . S
C469 C465 1.393 . S
C469 C468 1.391 . S
C470 H460 0.950 . S
C470 C471 1.386 . S
C470 C472 1.391 . S
C471 C470 1.386 . S
C471 C475 1.393 . S
C472 H461 0.938 1_545 S
C472 C470 1.391 . S
C472 C473 1.400 . S
C473 C467 1.491 1_545 S
C473 C472 1.400 . S
C473 C474 1.398 . S
C474 H462 0.950 . S
C474 C473 1.398 . S
C474 C475 1.391 . S
C475 H463 0.950 . S
C475 C471 1.393 . S
C475 C474 1.391 . S
H476 C484 0.950 . S
H477 C489 0.950 . S
H478 C486 0.950 . S
H479 C488 0.950 . S
H480 C490 0.950 . S
H481 C492 0.950 . S
H482 C494 0.950 . S
H483 C495 0.950 . S
C484 H476 0.950 . S
C484 C485 1.386 . S
C484 C486 1.391 . S
C485 C484 1.386 . S
C485 C489 1.393 . S
C486 H478 0.950 . S
C486 C484 1.391 . S
C486 C487 1.400 . S
C487 C486 1.400 . S
C487 C488 1.398 . S
C487 C493 1.491 . S
C488 H479 0.950 . S
C488 C487 1.398 . S
C488 C489 1.391 . S
C489 H477 0.950 . S
C489 C485 1.393 . S
C489 C488 1.391 . S
C490 H480 0.950 . S
C490 C491 1.386 . S
C490 C492 1.391 . S
C491 C490 1.386 . S
C491 C495 1.393 . S
C492 H481 0.950 . S
C492 C490 1.391 . S
C492 C493 1.400 . S
C493 C487 1.491 . S
C493 C492 1.400 . S
C493 C494 1.398 . S
C494 H482 0.950 . S
C494 C493 1.398 . S
C494 C495 1.391 . S
C495 H483 0.950 . S
C495 C491 1.393 . S
C495 C494 1.391 . S
H496 C504 0.950 . S
H497 C509 0.950 . S
H498 C506 0.950 . S
H499 C508 0.950 1_545 S
H500 C510 0.950 . S
H501 C512 0.950 . S
H502 C514 0.950 . S
H503 C515 0.950 . S
C504 H496 0.950 . S
C504 C505 1.386 . S
C504 C506 1.391 . S
C505 C504 1.386 . S
C505 C509 1.393 . S
C506 H498 0.950 . S
C506 C504 1.391 . S
C506 C507 1.400 . S
C507 C506 1.400 . S
C507 C508 1.398 . S
C507 C513 1.491 1_465 S
C508 H499 0.950 1_565 S
C508 C507 1.398 . S
C508 C509 1.391 . S
C509 H497 0.950 . S
C509 C505 1.393 . S
C509 C508 1.391 . S
C510 H500 0.950 . S
C510 C511 1.386 . S
C510 C512 1.391 . S
C511 C510 1.386 . S
C511 C515 1.393 . S
C512 H501 0.950 . S
C512 C510 1.391 . S
C512 C513 1.400 . S
C513 C507 1.491 1_645 S
C513 C512 1.400 . S
C513 C514 1.398 1_545 S
C514 H502 0.950 . S
C514 C513 1.398 1_565 S
C514 C515 1.391 1_565 S
C515 H503 0.950 . S
C515 C511 1.393 . S
C515 C514 1.391 1_545 S
H516 C524 0.950 . S
H517 C529 0.950 . S
H518 C526 0.950 . S
H519 C528 0.950 . S
H520 C530 0.950 . S
H521 C532 0.950 . S
H522 C534 0.950 . S
H523 C535 0.950 . S
C524 H516 0.950 . S
C524 C525 1.386 . S
C524 C526 1.391 . S
C525 C524 1.386 . S
C525 C529 1.393 . S
C526 H518 0.950 . S
C526 C524 1.391 . S
C526 C527 1.400 . S
C527 C526 1.400 . S
C527 C528 1.398 . S
C527 C533 1.491 . S
C528 H519 0.950 . S
C528 C527 1.398 . S
C528 C529 1.391 . S
C529 H517 0.950 . S
C529 C525 1.393 . S
C529 C528 1.391 . S
C530 H520 0.950 . S
C530 C531 1.386 . S
C530 C532 1.391 . S
C531 C530 1.386 . S
C531 C535 1.393 . S
C532 H521 0.950 . S
C532 C530 1.391 . S
C532 C533 1.400 . S
C533 C527 1.491 . S
C533 C532 1.400 . S
C533 C534 1.398 . S
C534 H522 0.950 . S
C534 C533 1.398 . S
C534 C535 1.391 . S
C535 H523 0.950 . S
C535 C531 1.393 . S
C535 C534 1.391 . S
H536 C544 0.950 . S
H537 C549 0.950 . S
H538 C546 0.950 . S
H539 C548 0.950 1_565 S
H540 C550 0.950 . S
H541 C552 0.950 1_556 S
H542 C554 0.950 . S
H543 C555 0.963 . S
C544 H536 0.950 . S
C544 C545 1.386 . S
C544 C546 1.391 1_556 S
C545 C544 1.386 . S
C545 C549 1.393 . S
C546 H538 0.950 . S
C546 C544 1.391 1_554 S
C546 C547 1.400 1_554 S
C547 C546 1.400 1_556 S
C547 C548 1.398 . S
C547 C553 1.491 1_546 S
C548 H539 0.950 1_545 S
C548 C547 1.398 . S
C548 C549 1.391 . S
C549 H537 0.950 . S
C549 C545 1.393 . S
C549 C548 1.391 . S
C550 H540 0.950 . S
C550 C551 1.386 . S
C550 C552 1.391 . S
C551 C550 1.386 . S
C551 C555 1.393 . S
C552 H541 0.950 1_554 S
C552 C550 1.391 . S
C552 C553 1.400 . S
C553 C547 1.491 1_564 S
C553 C552 1.400 . S
C553 C554 1.398 1_565 S
C554 H542 0.950 . S
C554 C553 1.398 1_545 S
C554 C555 1.391 1_545 S
C555 H543 0.963 . S
C555 C551 1.393 . S
C555 C554 1.391 1_565 S
H556 C564 0.950 . S
H557 C569 0.950 . S
H558 C566 0.950 . S
H559 C568 0.950 . S
H560 C570 0.950 . S
H561 C572 0.950 . S
H562 C574 0.950 . S
H563 C575 0.950 . S
C564 H556 0.950 . S
C564 C565 1.386 . S
C564 C566 1.391 . S
C565 C564 1.386 . S
C565 C569 1.393 . S
C566 H558 0.950 . S
C566 C564 1.391 . S
C566 C567 1.400 . S
C567 C566 1.400 . S
C567 C568 1.398 . S
C567 C573 1.491 . S
C568 H559 0.950 . S
C568 C567 1.398 . S
C568 C569 1.391 . S
C569 H557 0.950 . S
C569 C565 1.393 . S
C569 C568 1.391 . S
C570 H560 0.950 . S
C570 C571 1.386 . S
C570 C572 1.391 . S
C571 C570 1.386 . S
C571 C575 1.393 . S
C572 H561 0.950 . S
C572 C570 1.391 . S
C572 C573 1.400 . S
C573 C567 1.491 . S
C573 C572 1.400 . S
C573 C574 1.398 . S
C574 H562 0.950 . S
C574 C573 1.398 . S
C574 C575 1.391 . S
C575 H563 0.950 . S
C575 C571 1.393 . S
C575 C574 1.391 . S
H576 C584 0.950 . S
H577 C589 0.950 . S
H578 C586 0.950 1_556 S
H579 C588 0.950 . S
H580 C590 0.948 1_554 S
H581 C592 0.950 . S
H582 C594 0.950 . S
H583 C595 0.950 . S
C584 H576 0.950 . S
C584 C585 1.386 . S
C584 C586 1.391 . S
C585 C584 1.386 . S
C585 C589 1.393 . S
C586 H578 0.950 1_554 S
C586 C584 1.391 . S
C586 C587 1.400 . S
C587 C586 1.400 . S
C587 C588 1.398 . S
C587 C593 1.491 1_554 S
C588 H579 0.950 . S
C588 C587 1.398 . S
C588 C589 1.391 . S
C589 H577 0.950 . S
C589 C585 1.393 . S
C589 C588 1.391 . S
C590 H580 0.948 1_556 S
C590 C591 1.386 . S
C590 C592 1.391 1_556 S
C591 C590 1.386 . S
C591 C595 1.393 . S
C592 H581 0.950 . S
C592 C590 1.391 1_554 S
C592 C593 1.400 1_554 S
C593 C587 1.491 1_556 S
C593 C592 1.400 1_556 S
C593 C594 1.398 . S
C594 H582 0.950 . S
C594 C593 1.398 . S
C594 C595 1.391 . S
C595 H583 0.950 . S
C595 C591 1.393 . S
C595 C594 1.391 . S
H596 C604 0.950 . S
H597 C609 0.950 . S
H598 C606 0.950 . S
H599 C608 0.950 . S
H600 C610 0.950 . S
H601 C612 0.950 . S
H602 C614 0.950 . S
H603 C615 0.950 . S
C604 H596 0.950 . S
C604 C605 1.386 . S
C604 C606 1.391 . S
C605 C604 1.386 . S
C605 C609 1.393 . S
C606 H598 0.950 . S
C606 C604 1.391 . S
C606 C607 1.400 . S
C607 C606 1.400 . S
C607 C608 1.398 . S
C607 C613 1.491 . S
C608 H599 0.950 . S
C608 C607 1.398 . S
C608 C609 1.391 . S
C609 H597 0.950 . S
C609 C605 1.393 . S
C609 C608 1.391 . S
C610 H600 0.950 . S
C610 C611 1.386 . S
C610 C612 1.391 . S
C611 C610 1.386 . S
C611 C615 1.393 . S
C612 H601 0.950 . S
C612 C610 1.391 . S
C612 C613 1.400 . S
C613 C607 1.491 . S
C613 C612 1.400 . S
C613 C614 1.398 . S
C614 H602 0.950 . S
C614 C613 1.398 . S
C614 C615 1.391 . S
C615 H603 0.950 . S
C615 C611 1.393 . S
C615 C614 1.391 . S
H616 C624 0.950 . S
H617 C629 0.950 . S
H618 C626 0.950 . S
H619 C628 0.950 . S
H620 C630 0.950 . S
H621 C632 0.950 1_455 S
H622 C634 0.950 . S
H623 C635 0.950 . S
C624 H616 0.950 . S
C624 C625 1.386 . S
C624 C626 1.391 1_455 S
C625 C624 1.386 . S
C625 C629 1.393 . S
C626 H618 0.950 . S
C626 C624 1.391 1_655 S
C626 C627 1.400 1_655 S
C627 C626 1.400 1_455 S
C627 C628 1.398 . S
C627 C633 1.491 1_455 S
C628 H619 0.950 . S
C628 C627 1.398 . S
C628 C629 1.391 . S
C629 H617 0.950 . S
C629 C625 1.393 . S
C629 C628 1.391 . S
C630 H620 0.950 . S
C630 C631 1.386 . S
C630 C632 1.391 . S
C631 C630 1.386 . S
C631 C635 1.393 . S
C632 H621 0.950 1_655 S
C632 C630 1.391 . S
C632 C633 1.400 . S
C633 C627 1.491 1_655 S
C633 C632 1.400 . S
C633 C634 1.398 . S
C634 H622 0.950 . S
C634 C633 1.398 . S
C634 C635 1.391 . S
C635 H623 0.950 . S
C635 C631 1.393 . S
C635 C634 1.391 . S
H636 C644 0.950 . S
H637 C649 0.950 . S
H638 C646 0.950 . S
H639 C648 0.950 . S
H640 C650 0.950 . S
H641 C652 0.950 . S
H642 C654 0.950 . S
H643 C655 0.950 . S
C644 H636 0.950 . S
C644 C645 1.386 . S
C644 C646 1.391 . S
C645 C644 1.386 . S
C645 C649 1.393 . S
C646 H638 0.950 . S
C646 C644 1.391 . S
C646 C647 1.400 . S
C647 C646 1.400 . S
C647 C648 1.398 . S
C647 C653 1.491 . S
C648 H639 0.950 . S
C648 C647 1.398 . S
C648 C649 1.391 . S
C649 H637 0.950 . S
C649 C645 1.393 . S
C649 C648 1.391 . S
C650 H640 0.950 . S
C650 C651 1.386 . S
C650 C652 1.391 . S
C651 C650 1.386 . S
C651 C655 1.393 . S
C652 H641 0.950 . S
C652 C650 1.391 . S
C652 C653 1.400 . S
C653 C647 1.491 . S
C653 C652 1.400 . S
C653 C654 1.398 . S
C654 H642 0.950 . S
C654 C653 1.398 . S
C654 C655 1.391 . S
C655 H643 0.950 . S
C655 C651 1.393 . S
C655 C654 1.391 . S
H656 C664 0.950 . S
H657 C669 0.950 . S
H658 C666 0.950 . S
H659 C668 0.950 . S
H660 C670 0.950 . S
H661 C672 0.950 . S
H662 C674 0.950 . S
H663 C675 0.950 . S
C664 H656 0.950 . S
C664 C665 1.386 . S
C664 C666 1.391 . S
C665 C664 1.386 . S
C665 C669 1.393 . S
C666 H658 0.950 . S
C666 C664 1.391 . S
C666 C667 1.400 . S
C667 C666 1.400 . S
C667 C668 1.398 . S
C667 C673 1.491 . S
C668 H659 0.950 . S
C668 C667 1.398 . S
C668 C669 1.391 . S
C669 H657 0.950 . S
C669 C665 1.393 . S
C669 C668 1.391 . S
C670 H660 0.950 . S
C670 C671 1.386 . S
C670 C672 1.391 . S
C671 C670 1.386 . S
C671 C675 1.393 . S
C672 H661 0.950 . S
C672 C670 1.391 . S
C672 C673 1.400 . S
C673 C667 1.491 . S
C673 C672 1.400 . S
C673 C674 1.398 . S
C674 H662 0.950 . S
C674 C673 1.398 . S
C674 C675 1.391 . S
C675 H663 0.950 . S
C675 C671 1.393 . S
C675 C674 1.391 . S
H676 C684 0.950 . S
H677 C689 0.950 . S
H678 C686 0.950 . S
H679 C688 0.950 . S
H680 C690 0.950 . S
H681 C692 0.950 . S
H682 C694 0.950 . S
H683 C695 0.950 . S
C684 H676 0.950 . S
C684 C685 1.386 . S
C684 C686 1.391 . S
C685 C684 1.386 . S
C685 C689 1.393 . S
C686 H678 0.950 . S
C686 C684 1.391 . S
C686 C687 1.400 . S
C687 C686 1.400 . S
C687 C688 1.398 . S
C687 C693 1.491 . S
C688 H679 0.950 . S
C688 C687 1.398 . S
C688 C689 1.391 . S
C689 H677 0.950 . S
C689 C685 1.393 . S
C689 C688 1.391 . S
C690 H680 0.950 . S
C690 C691 1.386 . S
C690 C692 1.391 . S
C691 C690 1.386 . S
C691 C695 1.393 . S
C692 H681 0.950 . S
C692 C690 1.391 . S
C692 C693 1.400 . S
C693 C687 1.491 . S
C693 C692 1.400 . S
C693 C694 1.398 . S
C694 H682 0.950 . S
C694 C693 1.398 . S
C694 C695 1.391 . S
C695 H683 0.950 . S
C695 C691 1.393 . S
C695 C694 1.391 . S
H696 C704 0.950 . S
H697 C709 0.950 . S
H698 C706 0.950 . S
H699 C708 0.950 . S
H700 C710 0.950 . S
H701 C712 0.950 . S
H702 C714 0.950 . S
H703 C715 0.950 . S
C704 H696 0.950 . S
C704 C705 1.386 . S
C704 C706 1.391 . S
C705 C704 1.386 . S
C705 C709 1.393 . S
C706 H698 0.950 . S
C706 C704 1.391 . S
C706 C707 1.400 . S
C707 C706 1.400 . S
C707 C708 1.398 . S
C707 C713 1.491 . S
C708 H699 0.950 . S
C708 C707 1.398 . S
C708 C709 1.391 . S
C709 H697 0.950 . S
C709 C705 1.393 . S
C709 C708 1.391 . S
C710 H700 0.950 . S
C710 C711 1.386 . S
C710 C712 1.391 . S
C711 C710 1.386 . S
C711 C715 1.393 . S
C712 H701 0.950 . S
C712 C710 1.391 . S
C712 C713 1.400 . S
C713 C707 1.491 . S
C713 C712 1.400 . S
C713 C714 1.398 . S
C714 H702 0.950 . S
C714 C713 1.398 . S
C714 C715 1.391 . S
C715 H703 0.950 . S
C715 C711 1.393 . S
C715 C714 1.391 . S
H716 C724 0.950 . S
H717 C729 0.950 . S
H718 C726 0.920 1_655 S
H719 C728 0.950 . S
H720 C730 0.950 . S
H721 C732 0.950 . S
H722 C734 0.950 . S
H723 C735 0.950 . S
C724 H716 0.950 . S
C724 C725 1.386 . S
C724 C726 1.409 . S
C725 C724 1.386 . S
C725 C729 1.393 . S
C726 H718 0.920 1_455 S
C726 C724 1.409 . S
C726 C727 1.412 . S
C727 C726 1.412 . S
C727 C728 1.398 . S
C727 C733 1.491 1_456 S
C728 H719 0.950 . S
C728 C727 1.398 . S
C728 C729 1.391 . S
C729 H717 0.950 . S
C729 C725 1.393 . S
C729 C728 1.391 . S
C730 H720 0.950 . S
C730 C731 1.386 . S
C730 C732 1.391 1_655 S
C731 C730 1.386 . S
C731 C735 1.393 . S
C732 H721 0.950 . S
C732 C730 1.391 1_455 S
C732 C733 1.400 1_455 S
C733 C727 1.491 1_654 S
C733 C732 1.400 1_655 S
C733 C734 1.398 . S
C734 H722 0.950 . S
C734 C733 1.398 . S
C734 C735 1.391 . S
C735 H723 0.950 . S
C735 C731 1.393 . S
C735 C734 1.391 . S
H736 C744 0.950 . S
H737 C749 0.950 . S
H738 C746 0.950 . S
H739 C748 0.950 . S
H740 C750 0.950 . S
H741 C752 0.950 . S
H742 C754 0.950 . S
H743 C755 0.950 . S
C744 H736 0.950 . S
C744 C745 1.386 . S
C744 C746 1.391 . S
C745 C744 1.386 . S
C745 C749 1.393 . S
C746 H738 0.950 . S
C746 C744 1.391 . S
C746 C747 1.400 1_545 S
C747 C746 1.400 1_565 S
C747 C748 1.398 . S
C747 C753 1.491 . S
C748 H739 0.950 . S
C748 C747 1.398 . S
C748 C749 1.391 1_565 S
C749 H737 0.950 . S
C749 C745 1.393 . S
C749 C748 1.391 1_545 S
C750 H740 0.950 . S
C750 C751 1.386 . S
C750 C752 1.391 . S
C751 C750 1.386 . S
C751 C755 1.393 . S
C752 H741 0.950 . S
C752 C750 1.391 . S
C752 C753 1.400 . S
C753 C747 1.491 . S
C753 C752 1.400 . S
C753 C754 1.398 . S
C754 H742 0.950 . S
C754 C753 1.398 . S
C754 C755 1.391 . S
C755 H743 0.950 . S
C755 C751 1.393 . S
C755 C754 1.391 . S
H756 C764 0.950 . S
H757 C769 0.950 . S
H758 C766 0.950 . S
H759 C768 0.950 . S
H760 C770 0.950 . S
H761 C772 0.950 . S
H762 C774 0.950 . S
H763 C775 0.950 . S
C764 H756 0.950 . S
C764 C765 1.386 . S
C764 C766 1.391 . S
C765 C764 1.386 . S
C765 C769 1.393 . S
C766 H758 0.950 . S
C766 C764 1.391 . S
C766 C767 1.400 . S
C767 C766 1.400 . S
C767 C768 1.398 . S
C767 C773 1.491 . S
C768 H759 0.950 . S
C768 C767 1.398 . S
C768 C769 1.391 . S
C769 H757 0.950 . S
C769 C765 1.393 . S
C769 C768 1.391 . S
C770 H760 0.950 . S
C770 C771 1.386 . S
C770 C772 1.391 . S
C771 C770 1.386 . S
C771 C775 1.393 . S
C772 H761 0.950 . S
C772 C770 1.391 . S
C772 C773 1.400 . S
C773 C767 1.491 . S
C773 C772 1.400 . S
C773 C774 1.398 . S
C774 H762 0.950 . S
C774 C773 1.398 . S
C774 C775 1.391 . S
C775 H763 0.950 . S
C775 C771 1.393 . S
C775 C774 1.391 . S
H776 C784 0.950 . S
H777 C789 0.950 . S
H778 C786 0.950 . S
H779 C788 0.950 . S
H780 C790 0.950 . S
H781 C792 0.950 . S
H782 C794 0.950 . S
H783 C795 0.950 . S
C784 H776 0.950 . S
C784 C785 1.386 . S
C784 C786 1.391 . S
C785 C784 1.386 . S
C785 C789 1.393 . S
C786 H778 0.950 . S
C786 C784 1.391 . S
C786 C787 1.400 . S
C787 C786 1.400 . S
C787 C788 1.398 . S
C787 C793 1.491 . S
C788 H779 0.950 . S
C788 C787 1.398 . S
C788 C789 1.391 . S
C789 H777 0.950 . S
C789 C785 1.393 . S
C789 C788 1.391 . S
C790 H780 0.950 . S
C790 C791 1.386 . S
C790 C792 1.391 1_565 S
C791 C790 1.386 . S
C791 C795 1.393 . S
C792 H781 0.950 . S
C792 C790 1.391 1_545 S
C792 C793 1.400 . S
C793 C787 1.491 . S
C793 C792 1.400 . S
C793 C794 1.398 1_545 S
C794 H782 0.950 . S
C794 C793 1.398 1_565 S
C794 C795 1.391 . S
C795 H783 0.950 . S
C795 C791 1.393 . S
C795 C794 1.391 . S
H796 C804 0.950 . S
H797 C809 0.950 . S
H798 C806 0.950 . S
H799 C808 0.950 . S
H800 C810 0.950 . S
H801 C812 0.939 1_556 S
H802 C814 0.950 . S
H803 C815 0.950 . S
C804 H796 0.950 . S
C804 C805 1.386 . S
C804 C806 1.391 . S
C805 C804 1.386 . S
C805 C809 1.393 . S
C806 H798 0.950 . S
C806 C804 1.391 . S
C806 C807 1.400 . S
C807 C806 1.400 . S
C807 C808 1.398 . S
C807 C813 1.491 . S
C808 H799 0.950 . S
C808 C807 1.398 . S
C808 C809 1.391 . S
C809 H797 0.950 . S
C809 C805 1.393 . S
C809 C808 1.391 . S
C810 H800 0.950 . S
C810 C811 1.386 . S
C810 C812 1.408 . S
C811 C810 1.386 . S
C811 C815 1.393 . S
C812 H801 0.939 1_554 S
C812 C810 1.408 . S
C812 C813 1.394 1_554 S
C813 C807 1.491 . S
C813 C812 1.394 1_556 S
C813 C814 1.398 1_556 S
C814 H802 0.950 . S
C814 C813 1.398 1_554 S
C814 C815 1.391 . S
C815 H803 0.950 . S
C815 C811 1.393 . S
C815 C814 1.391 . S
H816 C824 0.950 . S
H817 C829 0.950 . S
H818 C826 0.950 . S
H819 C828 0.950 . S
H820 C830 0.950 . S
H821 C832 0.950 . S
H822 C834 0.950 . S
H823 C835 0.950 . S
C824 H816 0.950 . S
C824 C825 1.386 . S
C824 C826 1.391 . S
C825 C824 1.386 . S
C825 C829 1.393 . S
C826 H818 0.950 . S
C826 C824 1.391 . S
C826 C827 1.400 . S
C827 C826 1.400 . S
C827 C828 1.398 . S
C827 C833 1.491 . S
C828 H819 0.950 . S
C828 C827 1.398 . S
C828 C829 1.391 . S
C829 H817 0.950 . S
C829 C825 1.393 . S
C829 C828 1.391 . S
C830 H820 0.950 . S
C830 C831 1.386 . S
C830 C832 1.391 1_565 S
C831 C830 1.386 . S
C831 C835 1.393 . S
C832 H821 0.950 . S
C832 C830 1.391 1_545 S
C832 C833 1.400 . S
C833 C827 1.491 . S
C833 C832 1.400 . S
C833 C834 1.398 1_545 S
C834 H822 0.950 . S
C834 C833 1.398 1_565 S
C834 C835 1.391 . S
C835 H823 0.950 . S
C835 C831 1.393 . S
C835 C834 1.391 . S
H836 C844 0.950 . S
H837 C849 0.950 . S
H838 C846 0.950 . S
H839 C848 0.950 . S
H840 C850 0.950 . S
H841 C852 0.950 . S
H842 C854 0.950 . S
H843 C855 0.950 . S
C844 H836 0.950 . S
C844 C845 1.386 . S
C844 C846 1.391 . S
C845 C844 1.386 . S
C845 C849 1.393 . S
C846 H838 0.950 . S
C846 C844 1.391 . S
C846 C847 1.400 . S
C847 C846 1.400 . S
C847 C848 1.398 . S
C847 C853 1.491 . S
C848 H839 0.950 . S
C848 C847 1.398 . S
C848 C849 1.391 . S
C849 H837 0.950 . S
C849 C845 1.393 . S
C849 C848 1.391 . S
C850 H840 0.950 . S
C850 C851 1.386 . S
C850 C852 1.391 . S
C851 C850 1.386 . S
C851 C855 1.393 . S
C852 H841 0.950 . S
C852 C850 1.391 . S
C852 C853 1.400 . S
C853 C847 1.491 . S
C853 C852 1.400 . S
C853 C854 1.398 . S
C854 H842 0.950 . S
C854 C853 1.398 . S
C854 C855 1.391 . S
C855 H843 0.950 . S
C855 C851 1.393 . S
C855 C854 1.391 . S
H856 C864 0.950 . S
H857 C869 0.950 . S
H858 C866 0.950 . S
H859 C868 0.950 . S
H860 C870 0.950 . S
H861 C872 0.950 . S
H862 C874 0.950 . S
H863 C875 0.950 . S
C864 H856 0.950 . S
C864 C865 1.386 . S
C864 C866 1.391 1_545 S
C865 C864 1.386 . S
C865 C869 1.393 . S
C866 H858 0.950 . S
C866 C864 1.391 1_565 S
C866 C867 1.400 . S
C867 C866 1.400 . S
C867 C868 1.398 1_565 S
C867 C873 1.491 . S
C868 H859 0.950 . S
C868 C867 1.398 1_545 S
C868 C869 1.391 . S
C869 H857 0.950 . S
C869 C865 1.393 . S
C869 C868 1.391 . S
C870 H860 0.950 . S
C870 C871 1.386 . S
C870 C872 1.391 . S
C871 C870 1.386 . S
C871 C875 1.393 . S
C872 H861 0.950 . S
C872 C870 1.391 . S
C872 C873 1.400 . S
C873 C867 1.491 . S
C873 C872 1.400 . S
C873 C874 1.398 . S
C874 H862 0.950 . S
C874 C873 1.398 . S
C874 C875 1.391 . S
C875 H863 0.950 . S
C875 C871 1.393 . S
C875 C874 1.391 . S
H876 C884 0.950 1_554 S
H877 C889 0.950 . S
H878 C886 0.950 . S
H879 C888 0.950 . S
H880 C890 0.950 . S
H881 C892 0.950 . S
H882 C894 0.950 . S
H883 C895 0.950 . S
C884 H876 0.950 1_556 S
C884 C885 1.386 . S
C884 C886 1.391 1_556 S
C885 C884 1.386 . S
C885 C889 1.393 . S
C886 H878 0.950 . S
C886 C884 1.391 1_554 S
C886 C887 1.400 . S
C887 C886 1.400 . S
C887 C888 1.398 1_554 S
C887 C893 1.491 . S
C888 H879 0.950 . S
C888 C887 1.398 1_556 S
C888 C889 1.391 . S
C889 H877 0.950 . S
C889 C885 1.393 . S
C889 C888 1.391 . S
C890 H880 0.950 . S
C890 C891 1.386 . S
C890 C892 1.391 . S
C891 C890 1.386 . S
C891 C895 1.393 . S
C892 H881 0.950 . S
C892 C890 1.391 . S
C892 C893 1.400 . S
C893 C887 1.491 . S
C893 C892 1.400 . S
C893 C894 1.398 . S
C894 H882 0.950 . S
C894 C893 1.398 . S
C894 C895 1.391 . S
C895 H883 0.950 . S
C895 C891 1.393 . S
C895 C894 1.391 . S
H896 C904 0.950 . S
H897 C909 0.950 . S
H898 C906 0.950 . S
H899 C908 0.950 . S
H900 C910 0.950 1_655 S
H901 C912 0.950 . S
H902 C914 0.950 . S
H903 C915 0.950 . S
C904 H896 0.950 . S
C904 C905 1.386 . S
C904 C906 1.391 . S
C905 C904 1.386 . S
C905 C909 1.393 . S
C906 H898 0.950 . S
C906 C904 1.391 . S
C906 C907 1.400 . S
C907 C906 1.400 . S
C907 C908 1.398 . S
C907 C913 1.491 . S
C908 H899 0.950 . S
C908 C907 1.398 . S
C908 C909 1.391 . S
C909 H897 0.950 . S
C909 C905 1.393 . S
C909 C908 1.391 . S
C910 H900 0.950 1_455 S
C910 C911 1.386 . S
C910 C912 1.391 1_455 S
C911 C910 1.386 . S
C911 C915 1.393 . S
C912 H901 0.950 . S
C912 C910 1.391 1_655 S
C912 C913 1.400 . S
C913 C907 1.491 . S
C913 C912 1.400 . S
C913 C914 1.398 1_655 S
C914 H902 0.950 . S
C914 C913 1.398 1_455 S
C914 C915 1.391 . S
C915 H903 0.950 . S
C915 C911 1.393 . S
C915 C914 1.391 . S
H916 C924 0.950 . S
H917 C929 0.950 . S
H918 C926 0.950 . S
H919 C928 0.950 . S
H920 C930 0.950 . S
H921 C932 0.950 . S
H922 C934 0.950 . S
H923 C935 0.950 . S
C924 H916 0.950 . S
C924 C925 1.386 . S
C924 C926 1.391 . S
C925 C924 1.386 . S
C925 C929 1.393 . S
C926 H918 0.950 . S
C926 C924 1.391 . S
C926 C927 1.400 . S
C927 C926 1.400 . S
C927 C928 1.398 . S
C927 C933 1.491 . S
C928 H919 0.950 . S
C928 C927 1.398 . S
C928 C929 1.391 . S
C929 H917 0.950 . S
C929 C925 1.393 . S
C929 C928 1.391 . S
C930 H920 0.950 . S
C930 C931 1.386 . S
C930 C932 1.391 . S
C931 C930 1.386 . S
C931 C935 1.393 . S
C932 H921 0.950 . S
C932 C930 1.391 . S
C932 C933 1.400 . S
C933 C927 1.491 . S
C933 C932 1.400 . S
C933 C934 1.398 . S
C934 H922 0.950 . S
C934 C933 1.398 . S
C934 C935 1.391 . S
C935 H923 0.950 . S
C935 C931 1.393 . S
C935 C934 1.391 . S
H936 C944 0.950 . S
H937 C949 0.950 . S
H938 C946 0.950 . S
H939 C948 0.950 . S
H940 C950 0.950 . S
H941 C952 0.950 1_655 S
H942 C954 0.950 . S
H943 C955 0.950 . S
C944 H936 0.950 . S
C944 C945 1.386 . S
C944 C946 1.391 1_655 S
C945 C944 1.386 . S
C945 C949 1.393 . S
C946 H938 0.950 . S
C946 C944 1.391 1_455 S
C946 C947 1.400 1_455 S
C947 C946 1.400 1_655 S
C947 C948 1.398 . S
C947 C953 1.491 1_655 S
C948 H939 0.950 . S
C948 C947 1.398 . S
C948 C949 1.391 . S
C949 H937 0.950 . S
C949 C945 1.393 . S
C949 C948 1.391 . S
C950 H940 0.950 . S
C950 C951 1.386 . S
C950 C952 1.391 . S
C951 C950 1.386 . S
C951 C955 1.393 . S
C952 H941 0.950 1_455 S
C952 C950 1.391 . S
C952 C953 1.400 . S
C953 C947 1.491 1_455 S
C953 C952 1.400 . S
C953 C954 1.398 . S
C954 H942 0.950 . S
C954 C953 1.398 . S
C954 C955 1.391 . S
C955 H943 0.950 . S
C955 C951 1.393 . S
C955 C954 1.391 . S
H956 C964 0.950 1_455 S
H957 C969 0.950 . S
H958 C966 0.950 . S
H959 C968 0.950 . S
H960 C970 0.950 . S
H961 C972 0.950 . S
H962 C974 0.950 . S
H963 C975 0.950 . S
C964 H956 0.950 1_655 S
C964 C965 1.386 . S
C964 C966 1.391 1_655 S
C965 C964 1.386 . S
C965 C969 1.393 . S
C966 H958 0.950 . S
C966 C964 1.391 1_455 S
C966 C967 1.400 . S
C967 C966 1.400 . S
C967 C968 1.398 1_455 S
C967 C973 1.491 . S
C968 H959 0.950 . S
C968 C967 1.398 1_655 S
C968 C969 1.391 . S
C969 H957 0.950 . S
C969 C965 1.393 . S
C969 C968 1.391 . S
C970 H960 0.950 . S
C970 C971 1.386 . S
C970 C972 1.391 . S
C971 C970 1.386 . S
C971 C975 1.393 . S
C972 H961 0.950 . S
C972 C970 1.391 . S
C972 C973 1.400 . S
C973 C967 1.491 . S
C973 C972 1.400 . S
C973 C974 1.398 . S
C974 H962 0.950 . S
C974 C973 1.398 . S
C974 C975 1.391 . S
C975 H963 0.950 . S
C975 C971 1.393 . S
C975 C974 1.391 . S
H976 C984 0.950 . S
H977 C989 0.950 . S
H978 C986 0.950 . S
H979 C988 0.950 . S
H980 C990 0.950 . S
H981 C992 0.950 . S
H982 C994 0.950 . S
H983 C995 0.950 . S
C984 H976 0.950 . S
C984 C985 1.386 . S
C984 C986 1.391 . S
C985 C984 1.386 . S
C985 C989 1.393 . S
C986 H978 0.950 . S
C986 C984 1.391 . S
C986 C987 1.400 . S
C987 C986 1.400 . S
C987 C988 1.398 . S
C987 C993 1.491 . S
C988 H979 0.950 . S
C988 C987 1.398 . S
C988 C989 1.391 . S
C989 H977 0.950 . S
C989 C985 1.393 . S
C989 C988 1.391 . S
C990 H980 0.950 . S
C990 C991 1.386 . S
C990 C992 1.391 . S
C991 C990 1.386 . S
C991 C995 1.393 . S
C992 H981 0.950 . S
C992 C990 1.391 . S
C992 C993 1.400 . S
C993 C987 1.491 . S
C993 C992 1.400 . S
C993 C994 1.398 . S
C994 H982 0.950 . S
C994 C993 1.398 . S
C994 C995 1.391 . S
C995 H983 0.950 . S
C995 C991 1.393 . S
C995 C994 1.391 . S
H996 C1004 0.950 . S
H997 C1009 0.950 . S
H998 C1006 0.950 . S
H999 C1008 0.950 . S
H1000 C1010 0.950 . S
H1001 C1012 0.950 1_655 S
H1002 C1014 0.950 . S
H1003 C1015 0.950 . S
C1004 H996 0.950 . S
C1004 C1005 1.386 . S
C1004 C1006 1.391 . S
C1005 C1004 1.386 . S
C1005 C1009 1.393 . S
C1006 H998 0.950 . S
C1006 C1004 1.391 . S
C1006 C1007 1.400 . S
C1007 C1006 1.400 . S
C1007 C1008 1.398 . S
C1007 C1013 1.491 1_655 S
C1008 H999 0.950 . S
C1008 C1007 1.398 . S
C1008 C1009 1.391 . S
C1009 H997 0.950 . S
C1009 C1005 1.393 . S
C1009 C1008 1.391 . S
C1010 H1000 0.950 . S
C1010 C1011 1.386 . S
C1010 C1012 1.391 . S
C1011 C1010 1.386 . S
C1011 C1015 1.393 . S
C1012 H1001 0.950 1_455 S
C1012 C1010 1.391 . S
C1012 C1013 1.400 . S
C1013 C1007 1.491 1_455 S
C1013 C1012 1.400 . S
C1013 C1014 1.398 . S
C1014 H1002 0.950 . S
C1014 C1013 1.398 . S
C1014 C1015 1.391 . S
C1015 H1003 0.950 . S
C1015 C1011 1.393 . S
C1015 C1014 1.391 . S
H1016 C1024 0.950 . S
H1017 C1029 0.950 . S
H1018 C1026 0.950 . S
H1019 C1028 0.950 . S
H1020 C1030 0.950 . S
H1021 C1032 0.950 . S
H1022 C1034 0.950 . S
H1023 C1035 0.950 . S
C1024 H1016 0.950 . S
C1024 C1025 1.386 . S
C1024 C1026 1.391 . S
C1025 C1024 1.386 . S
C1025 C1029 1.393 . S
C1026 H1018 0.950 . S
C1026 C1024 1.391 . S
C1026 C1027 1.400 . S
C1027 C1026 1.400 . S
C1027 C1028 1.398 . S
C1027 C1033 1.491 . S
C1028 H1019 0.950 . S
C1028 C1027 1.398 . S
C1028 C1029 1.391 . S
C1029 H1017 0.950 . S
C1029 C1025 1.393 . S
C1029 C1028 1.391 . S
C1030 H1020 0.950 . S
C1030 C1031 1.386 . S
C1030 C1032 1.391 . S
C1031 C1030 1.386 . S
C1031 C1035 1.393 . S
C1032 H1021 0.950 . S
C1032 C1030 1.391 . S
C1032 C1033 1.400 . S
C1033 C1027 1.491 . S
C1033 C1032 1.400 . S
C1033 C1034 1.398 . S
C1034 H1022 0.950 . S
C1034 C1033 1.398 . S
C1034 C1035 1.391 . S
C1035 H1023 0.950 . S
C1035 C1031 1.393 . S
C1035 C1034 1.391 . S
H1036 C1044 0.950 . S
H1037 C1049 0.950 . S
H1038 C1046 0.950 . S
H1039 C1048 0.950 . S
H1040 C1050 0.950 . S
H1041 C1052 0.950 1_545 S
H1042 C1054 0.950 1_545 S
H1043 C1055 0.950 . S
C1044 H1036 0.950 . S
C1044 C1045 1.386 . S
C1044 C1046 1.391 . S
C1045 C1044 1.386 . S
C1045 C1049 1.393 . S
C1046 H1038 0.950 . S
C1046 C1044 1.391 . S
C1046 C1047 1.400 . S
C1047 C1046 1.400 . S
C1047 C1048 1.398 . S
C1047 C1053 1.491 . S
C1048 H1039 0.950 . S
C1048 C1047 1.398 . S
C1048 C1049 1.391 . S
C1049 H1037 0.950 . S
C1049 C1045 1.393 . S
C1049 C1048 1.391 . S
C1050 H1040 0.950 . S
C1050 C1051 1.386 . S
C1050 C1052 1.391 . S
C1051 C1050 1.386 . S
C1051 C1055 1.393 . S
C1052 H1041 0.950 1_565 S
C1052 C1050 1.391 . S
C1052 C1053 1.400 1_565 S
C1053 C1047 1.491 . S
C1053 C1052 1.400 1_545 S
C1053 C1054 1.398 1_545 S
C1054 H1042 0.950 1_565 S
C1054 C1053 1.398 1_565 S
C1054 C1055 1.391 . S
C1055 H1043 0.950 . S
C1055 C1051 1.393 . S
C1055 C1054 1.391 . S
H1056 C1064 0.950 . S
H1057 C1069 0.950 . S
H1058 C1066 0.950 . S
H1059 C1068 0.950 . S
H1060 C1070 0.950 . S
H1061 C1072 0.950 . S
H1062 C1074 0.950 . S
H1063 C1075 0.950 . S
C1064 H1056 0.950 . S
C1064 C1065 1.386 . S
C1064 C1066 1.391 . S
C1065 C1064 1.386 . S
C1065 C1069 1.393 . S
C1066 H1058 0.950 . S
C1066 C1064 1.391 . S
C1066 C1067 1.400 . S
C1067 C1066 1.400 . S
C1067 C1068 1.398 . S
C1067 C1073 1.491 . S
C1068 H1059 0.950 . S
C1068 C1067 1.398 . S
C1068 C1069 1.391 . S
C1069 H1057 0.950 . S
C1069 C1065 1.393 . S
C1069 C1068 1.391 . S
C1070 H1060 0.950 . S
C1070 C1071 1.386 . S
C1070 C1072 1.391 . S
C1071 C1070 1.386 . S
C1071 C1075 1.393 . S
C1072 H1061 0.950 . S
C1072 C1070 1.391 . S
C1072 C1073 1.400 . S
C1073 C1067 1.491 . S
C1073 C1072 1.400 . S
C1073 C1074 1.398 . S
C1074 H1062 0.950 . S
C1074 C1073 1.398 . S
C1074 C1075 1.391 . S
C1075 H1063 0.950 . S
C1075 C1071 1.393 . S
C1075 C1074 1.391 . S
H1076 C1084 0.950 . S
H1077 C1089 0.950 . S
H1078 C1086 0.950 . S
H1079 C1088 0.950 . S
H1080 C1090 0.950 . S
H1081 C1092 0.950 . S
H1082 C1094 0.950 . S
H1083 C1095 0.950 . S
C1084 H1076 0.950 . S
C1084 C1085 1.386 . S
C1084 C1086 1.391 . S
C1085 C1084 1.386 . S
C1085 C1089 1.393 . S
C1086 H1078 0.950 . S
C1086 C1084 1.391 . S
C1086 C1087 1.400 . S
C1087 C1086 1.400 . S
C1087 C1088 1.398 . S
C1087 C1093 1.491 . S
C1088 H1079 0.950 . S
C1088 C1087 1.398 . S
C1088 C1089 1.391 . S
C1089 H1077 0.950 . S
C1089 C1085 1.393 . S
C1089 C1088 1.391 . S
C1090 H1080 0.950 . S
C1090 C1091 1.386 . S
C1090 C1092 1.391 . S
C1091 C1090 1.386 . S
C1091 C1095 1.393 . S
C1092 H1081 0.950 . S
C1092 C1090 1.391 . S
C1092 C1093 1.400 1_545 S
C1093 C1087 1.491 . S
C1093 C1092 1.400 1_565 S
C1093 C1094 1.398 . S
C1094 H1082 0.950 . S
C1094 C1093 1.398 . S
C1094 C1095 1.391 1_565 S
C1095 H1083 0.950 . S
C1095 C1091 1.393 . S
C1095 C1094 1.391 1_545 S
H1096 C1104 0.950 . S
H1097 C1109 0.950 . S
H1098 C1106 0.950 . S
H1099 C1108 0.953 1_554 S
H1100 C1110 0.950 . S
H1101 C1112 0.950 . S
H1102 C1114 0.950 1_556 S
H1103 C1115 0.950 . S
C1104 H1096 0.950 . S
C1104 C1105 1.386 . S
C1104 C1106 1.391 . S
C1105 C1104 1.386 . S
C1105 C1109 1.393 . S
C1106 H1098 0.950 . S
C1106 C1104 1.391 . S
C1106 C1107 1.400 . S
C1107 C1106 1.400 . S
C1107 C1108 1.398 . S
C1107 C1113 1.491 1_556 S
C1108 H1099 0.953 1_556 S
C1108 C1107 1.398 . S
C1108 C1109 1.389 . S
C1109 H1097 0.950 . S
C1109 C1105 1.393 . S
C1109 C1108 1.389 . S
C1110 H1100 0.950 . S
C1110 C1111 1.386 . S
C1110 C1112 1.391 . S
C1111 C1110 1.386 . S
C1111 C1115 1.393 . S
C1112 H1101 0.950 . S
C1112 C1110 1.391 . S
C1112 C1113 1.400 . S
C1113 C1107 1.491 1_554 S
C1113 C1112 1.400 . S
C1113 C1114 1.398 . S
C1114 H1102 0.950 1_554 S
C1114 C1113 1.398 . S
C1114 C1115 1.391 . S
C1115 H1103 0.950 . S
C1115 C1111 1.393 . S
C1115 C1114 1.391 . S
H1116 C1124 0.950 . S
H1117 C1129 0.950 1_565 S
H1118 C1126 0.950 . S
H1119 C1128 0.950 . S
H1120 C1130 0.950 . S
H1121 C1132 0.950 . S
H1122 C1134 0.950 . S
H1123 C1135 0.950 . S
C1124 H1116 0.950 . S
C1124 C1125 1.386 . S
C1124 C1126 1.391 . S
C1125 C1124 1.386 . S
C1125 C1129 1.393 . S
C1126 H1118 0.950 . S
C1126 C1124 1.391 . S
C1126 C1127 1.400 1_545 S
C1127 C1126 1.400 1_565 S
C1127 C1128 1.398 . S
C1127 C1133 1.491 . S
C1128 H1119 0.950 . S
C1128 C1127 1.398 . S
C1128 C1129 1.391 1_565 S
C1129 H1117 0.950 1_545 S
C1129 C1125 1.393 . S
C1129 C1128 1.391 1_545 S
C1130 H1120 0.950 . S
C1130 C1131 1.386 . S
C1130 C1132 1.391 . S
C1131 C1130 1.386 . S
C1131 C1135 1.393 . S
C1132 H1121 0.950 . S
C1132 C1130 1.391 . S
C1132 C1133 1.400 . S
C1133 C1127 1.491 . S
C1133 C1132 1.400 . S
C1133 C1134 1.398 . S
C1134 H1122 0.950 . S
C1134 C1133 1.398 . S
C1134 C1135 1.391 . S
C1135 H1123 0.950 . S
C1135 C1131 1.393 . S
C1135 C1134 1.391 . S
H1136 C1144 0.950 . S
H1137 C1149 0.950 . S
H1138 C1146 0.950 . S
H1139 C1148 0.950 . S
H1140 C1150 0.950 . S
H1141 C1152 0.950 . S
H1142 C1154 0.950 . S
H1143 C1155 0.950 . S
C1144 H1136 0.950 . S
C1144 C1145 1.386 . S
C1144 C1146 1.391 . S
C1145 C1144 1.386 . S
C1145 C1149 1.393 . S
C1146 H1138 0.950 . S
C1146 C1144 1.391 . S
C1146 C1147 1.400 . S
C1147 C1146 1.400 . S
C1147 C1148 1.398 . S
C1147 C1153 1.491 . S
C1148 H1139 0.950 . S
C1148 C1147 1.398 . S
C1148 C1149 1.391 . S
C1149 H1137 0.950 . S
C1149 C1145 1.393 . S
C1149 C1148 1.391 . S
C1150 H1140 0.950 . S
C1150 C1151 1.386 . S
C1150 C1152 1.391 . S
C1151 C1150 1.386 . S
C1151 C1155 1.393 . S
C1152 H1141 0.950 . S
C1152 C1150 1.391 . S
C1152 C1153 1.400 . S
C1153 C1147 1.491 . S
C1153 C1152 1.400 . S
C1153 C1154 1.398 . S
C1154 H1142 0.950 . S
C1154 C1153 1.398 . S
C1154 C1155 1.391 . S
C1155 H1143 0.950 . S
C1155 C1151 1.393 . S
C1155 C1154 1.391 . S
H1156 C1164 0.950 . S
H1157 C1169 0.949 1_545 S
H1158 C1166 0.950 . S
H1159 C1168 0.950 . S
H1160 C1170 0.950 . S
H1161 C1172 0.950 . S
H1162 C1174 0.950 . S
H1163 C1175 0.950 . S
C1164 H1156 0.950 . S
C1164 C1165 1.386 . S
C1164 C1166 1.391 . S
C1165 C1164 1.386 . S
C1165 C1169 1.395 . S
C1166 H1158 0.950 . S
C1166 C1164 1.391 . S
C1166 C1167 1.400 1_565 S
C1167 C1166 1.400 1_545 S
C1167 C1168 1.398 . S
C1167 C1173 1.491 . S
C1168 H1159 0.950 . S
C1168 C1167 1.398 . S
C1168 C1169 1.389 1_545 S
C1169 H1157 0.949 1_565 S
C1169 C1165 1.395 . S
C1169 C1168 1.389 1_565 S
C1170 H1160 0.950 . S
C1170 C1171 1.386 . S
C1170 C1172 1.391 . S
C1171 C1170 1.386 . S
C1171 C1175 1.393 . S
C1172 H1161 0.950 . S
C1172 C1170 1.391 . S
C1172 C1173 1.400 . S
C1173 C1167 1.491 . S
C1173 C1172 1.400 . S
C1173 C1174 1.398 . S
C1174 H1162 0.950 . S
C1174 C1173 1.398 . S
C1174 C1175 1.391 . S
C1175 H1163 0.950 . S
C1175 C1171 1.393 . S
C1175 C1174 1.391 . S
H1176 C1184 0.950 . S
H1177 C1189 0.950 . S
H1178 C1186 0.950 . S
H1179 C1188 0.950 . S
H1180 C1190 0.950 . S
H1181 C1192 0.950 1_554 S
H1182 C1194 0.950 . S
H1183 C1195 0.950 . S
C1184 H1176 0.950 . S
C1184 C1185 1.386 . S
C1184 C1186 1.391 1_554 S
C1185 C1184 1.386 . S
C1185 C1189 1.393 . S
C1186 H1178 0.950 . S
C1186 C1184 1.391 1_556 S
C1186 C1187 1.400 1_556 S
C1187 C1186 1.400 1_554 S
C1187 C1188 1.399 . S
C1187 C1193 1.490 1_554 S
C1188 H1179 0.950 . S
C1188 C1187 1.399 . S
C1188 C1189 1.391 . S
C1189 H1177 0.950 . S
C1189 C1185 1.393 . S
C1189 C1188 1.391 . S
C1190 H1180 0.950 . S
C1190 C1191 1.386 . S
C1190 C1192 1.391 . S
C1191 C1190 1.386 . S
C1191 C1195 1.393 . S
C1192 H1181 0.950 1_556 S
C1192 C1190 1.391 . S
C1192 C1193 1.400 . S
C1193 C1187 1.490 1_556 S
C1193 C1192 1.400 . S
C1193 C1194 1.398 . S
C1194 H1182 0.950 . S
C1194 C1193 1.398 . S
C1194 C1195 1.391 . S
C1195 H1183 0.950 . S
C1195 C1191 1.393 . S
C1195 C1194 1.391 . S
H1196 C1204 0.950 . S
H1197 C1209 0.950 . S
H1198 C1206 0.950 . S
H1199 C1208 0.950 . S
H1200 C1210 0.950 . S
H1201 C1212 0.950 . S
H1202 C1214 0.950 . S
H1203 C1215 0.950 . S
C1204 H1196 0.950 . S
C1204 C1205 1.386 . S
C1204 C1206 1.391 . S
C1205 C1204 1.386 . S
C1205 C1209 1.393 . S
C1206 H1198 0.950 . S
C1206 C1204 1.391 . S
C1206 C1207 1.400 1_655 S
C1207 C1206 1.400 1_455 S
C1207 C1208 1.398 . S
C1207 C1213 1.491 . S
C1208 H1199 0.950 . S
C1208 C1207 1.398 . S
C1208 C1209 1.391 1_455 S
C1209 H1197 0.950 . S
C1209 C1205 1.393 . S
C1209 C1208 1.391 1_655 S
C1210 H1200 0.950 . S
C1210 C1211 1.386 . S
C1210 C1212 1.391 . S
C1211 C1210 1.386 . S
C1211 C1215 1.393 . S
C1212 H1201 0.950 . S
C1212 C1210 1.391 . S
C1212 C1213 1.400 . S
C1213 C1207 1.491 . S
C1213 C1212 1.400 . S
C1213 C1214 1.398 . S
C1214 H1202 0.950 . S
C1214 C1213 1.398 . S
C1214 C1215 1.391 . S
C1215 H1203 0.950 . S
C1215 C1211 1.393 . S
C1215 C1214 1.391 . S
H1216 C1224 0.950 . S
H1217 C1229 0.950 . S
H1218 C1226 0.950 . S
H1219 C1228 0.950 . S
H1220 C1230 0.950 . S
H1221 C1232 0.950 . S
H1222 C1234 0.950 . S
H1223 C1235 0.950 . S
C1224 H1216 0.950 . S
C1224 C1225 1.386 . S
C1224 C1226 1.391 . S
C1225 C1224 1.386 . S
C1225 C1229 1.393 . S
C1226 H1218 0.950 . S
C1226 C1224 1.391 . S
C1226 C1227 1.400 . S
C1227 C1226 1.400 . S
C1227 C1228 1.398 . S
C1227 C1233 1.491 . S
C1228 H1219 0.950 . S
C1228 C1227 1.398 . S
C1228 C1229 1.391 . S
C1229 H1217 0.950 . S
C1229 C1225 1.393 . S
C1229 C1228 1.391 . S
C1230 H1220 0.950 . S
C1230 C1231 1.386 . S
C1230 C1232 1.391 . S
C1231 C1230 1.386 . S
C1231 C1235 1.393 . S
C1232 H1221 0.950 . S
C1232 C1230 1.391 . S
C1232 C1233 1.400 . S
C1233 C1227 1.491 . S
C1233 C1232 1.400 . S
C1233 C1234 1.398 . S
C1234 H1222 0.950 . S
C1234 C1233 1.398 . S
C1234 C1235 1.391 . S
C1235 H1223 0.950 . S
C1235 C1231 1.393 . S
C1235 C1234 1.391 . S
H1236 C1244 0.950 . S
H1237 C1249 0.950 . S
H1238 C1246 0.950 . S
H1239 C1248 0.950 . S
H1240 C1250 0.950 . S
H1241 C1252 0.950 . S
H1242 C1254 0.950 . S
H1243 C1255 0.950 . S
C1244 H1236 0.950 . S
C1244 C1245 1.386 . S
C1244 C1246 1.391 . S
C1245 C1244 1.386 . S
C1245 C1249 1.393 . S
C1246 H1238 0.950 . S
C1246 C1244 1.391 . S
C1246 C1247 1.400 1_455 S
C1247 C1246 1.400 1_655 S
C1247 C1248 1.398 . S
C1247 C1253 1.491 . S
C1248 H1239 0.950 . S
C1248 C1247 1.398 . S
C1248 C1249 1.391 1_655 S
C1249 H1237 0.950 . S
C1249 C1245 1.393 . S
C1249 C1248 1.391 1_455 S
C1250 H1240 0.950 . S
C1250 C1251 1.386 . S
C1250 C1252 1.391 . S
C1251 C1250 1.386 . S
C1251 C1255 1.393 . S
C1252 H1241 0.950 . S
C1252 C1250 1.391 . S
C1252 C1253 1.400 . S
C1253 C1247 1.491 . S
C1253 C1252 1.400 . S
C1253 C1254 1.398 . S
C1254 H1242 0.950 . S
C1254 C1253 1.398 . S
C1254 C1255 1.391 . S
C1255 H1243 0.950 . S
C1255 C1251 1.393 . S
C1255 C1254 1.391 . S
H1256 C1264 0.950 . S
H1257 C1269 0.950 . S
H1258 C1266 0.950 . S
H1259 C1268 0.950 . S
H1260 C1270 0.950 . S
H1261 C1272 0.950 . S
H1262 C1274 0.950 . S
H1263 C1275 0.950 . S
C1264 H1256 0.950 . S
C1264 C1265 1.386 . S
C1264 C1266 1.391 . S
C1265 C1264 1.386 . S
C1265 C1269 1.393 . S
C1266 H1258 0.950 . S
C1266 C1264 1.391 . S
C1266 C1267 1.400 1_455 S
C1267 C1266 1.400 1_655 S
C1267 C1268 1.398 . S
C1267 C1273 1.491 . S
C1268 H1259 0.950 . S
C1268 C1267 1.398 . S
C1268 C1269 1.391 1_655 S
C1269 H1257 0.950 . S
C1269 C1265 1.393 . S
C1269 C1268 1.391 1_455 S
C1270 H1260 0.950 . S
C1270 C1271 1.386 . S
C1270 C1272 1.391 . S
C1271 C1270 1.386 . S
C1271 C1275 1.393 . S
C1272 H1261 0.950 . S
C1272 C1270 1.391 . S
C1272 C1273 1.400 . S
C1273 C1267 1.491 . S
C1273 C1272 1.400 . S
C1273 C1274 1.398 . S
C1274 H1262 0.950 . S
C1274 C1273 1.398 . S
C1274 C1275 1.391 . S
C1275 H1263 0.950 . S
C1275 C1271 1.393 . S
C1275 C1274 1.391 . S
H1276 C1284 0.950 . S
H1277 C1289 0.950 . S
H1278 C1286 0.950 . S
H1279 C1288 0.950 . S
H1280 C1290 0.950 . S
H1281 C1292 0.950 . S
H1282 C1294 0.950 . S
H1283 C1295 0.950 . S
C1284 H1276 0.950 . S
C1284 C1285 1.386 . S
C1284 C1286 1.391 . S
C1285 C1284 1.386 . S
C1285 C1289 1.393 . S
C1286 H1278 0.950 . S
C1286 C1284 1.391 . S
C1286 C1287 1.400 . S
C1287 C1286 1.400 . S
C1287 C1288 1.398 . S
C1287 C1293 1.491 . S
C1288 H1279 0.950 . S
C1288 C1287 1.398 . S
C1288 C1289 1.391 . S
C1289 H1277 0.950 . S
C1289 C1285 1.393 . S
C1289 C1288 1.391 . S
C1290 H1280 0.950 . S
C1290 C1291 1.386 . S
C1290 C1292 1.391 . S
C1291 C1290 1.386 . S
C1291 C1295 1.393 . S
C1292 H1281 0.950 . S
C1292 C1290 1.391 . S
C1292 C1293 1.400 . S
C1293 C1287 1.491 . S
C1293 C1292 1.400 . S
C1293 C1294 1.398 . S
C1294 H1282 0.950 . S
C1294 C1293 1.398 . S
C1294 C1295 1.391 . S
C1295 H1283 0.950 . S
C1295 C1291 1.393 . S
C1295 C1294 1.391 . S
H1296 C1304 0.950 . S
H1297 C1309 0.950 . S
H1298 C1306 0.943 1_455 S
H1299 C1308 0.950 . S
H1300 C1310 0.950 . S
H1301 C1312 0.950 . S
H1302 C1314 0.950 . S
H1303 C1315 0.950 . S
C1304 H1296 0.950 . S
C1304 C1305 1.386 . S
C1304 C1306 1.391 . S
C1305 C1304 1.386 . S
C1305 C1309 1.393 . S
C1306 H1298 0.943 1_655 S
C1306 C1304 1.391 . S
C1306 C1307 1.400 1_655 S
C1307 C1306 1.400 1_455 S
C1307 C1308 1.398 . S
C1307 C1313 1.491 . S
C1308 H1299 0.950 . S
C1308 C1307 1.398 . S
C1308 C1309 1.391 1_455 S
C1309 H1297 0.950 . S
C1309 C1305 1.393 . S
C1309 C1308 1.391 1_655 S
C1310 H1300 0.950 . S
C1310 C1311 1.386 . S
C1310 C1312 1.391 . S
C1311 C1310 1.386 . S
C1311 C1315 1.393 . S
C1312 H1301 0.950 . S
C1312 C1310 1.391 . S
C1312 C1313 1.400 . S
C1313 C1307 1.491 . S
C1313 C1312 1.400 . S
C1313 C1314 1.398 . S
C1314 H1302 0.950 . S
C1314 C1313 1.398 . S
C1314 C1315 1.391 . S
C1315 H1303 0.950 . S
C1315 C1311 1.393 . S
C1315 C1314 1.391 . S
H1316 C1324 0.950 . S
H1317 C1329 0.950 . S
H1318 C1326 0.950 . S
H1319 C1328 0.950 . S
H1320 C1330 0.950 . S
H1321 C1332 0.950 . S
H1322 C1334 0.950 . S
H1323 C1335 0.950 . S
C1324 H1316 0.950 . S
C1324 C1325 1.386 . S
C1324 C1326 1.391 . S
C1325 C1324 1.386 . S
C1325 C1329 1.393 . S
C1326 H1318 0.950 . S
C1326 C1324 1.391 . S
C1326 C1327 1.400 . S
C1327 C1326 1.400 . S
C1327 C1328 1.398 . S
C1327 C1333 1.491 . S
C1328 H1319 0.950 . S
C1328 C1327 1.398 . S
C1328 C1329 1.391 . S
C1329 H1317 0.950 . S
C1329 C1325 1.393 . S
C1329 C1328 1.391 . S
C1330 H1320 0.950 . S
C1330 C1331 1.386 . S
C1330 C1332 1.391 . S
C1331 C1330 1.386 . S
C1331 C1335 1.393 . S
C1332 H1321 0.950 . S
C1332 C1330 1.391 . S
C1332 C1333 1.400 . S
C1333 C1327 1.491 . S
C1333 C1332 1.400 . S
C1333 C1334 1.398 . S
C1334 H1322 0.950 . S
C1334 C1333 1.398 . S
C1334 C1335 1.391 . S
C1335 H1323 0.950 . S
C1335 C1331 1.393 . S
C1335 C1334 1.391 . S
H1336 C1344 0.950 . S
H1337 C1349 0.950 . S
H1338 C1346 0.950 . S
H1339 C1348 0.950 . S
H1340 C1350 0.950 . S
H1341 C1352 0.950 . S
H1342 C1354 0.950 . S
H1343 C1355 0.950 . S
C1344 H1336 0.950 . S
C1344 C1345 1.386 . S
C1344 C1346 1.391 . S
C1345 C1344 1.386 . S
C1345 C1349 1.393 . S
C1346 H1338 0.950 . S
C1346 C1344 1.391 . S
C1346 C1347 1.400 . S
C1347 C1346 1.400 . S
C1347 C1348 1.398 . S
C1347 C1353 1.491 . S
C1348 H1339 0.950 . S
C1348 C1347 1.398 . S
C1348 C1349 1.391 . S
C1349 H1337 0.950 . S
C1349 C1345 1.393 . S
C1349 C1348 1.391 . S
C1350 H1340 0.950 . S
C1350 C1351 1.386 . S
C1350 C1352 1.391 . S
C1351 C1350 1.386 . S
C1351 C1355 1.393 . S
C1352 H1341 0.950 . S
C1352 C1350 1.391 . S
C1352 C1353 1.400 . S
C1353 C1347 1.491 . S
C1353 C1352 1.400 . S
C1353 C1354 1.398 . S
C1354 H1342 0.950 . S
C1354 C1353 1.398 . S
C1354 C1355 1.391 . S
C1355 H1343 0.950 . S
C1355 C1351 1.393 . S
C1355 C1354 1.391 . S
H1356 C1364 0.950 . S
H1357 C1369 0.950 . S
H1358 C1366 0.950 . S
H1359 C1368 0.950 . S
H1360 C1370 0.950 . S
H1361 C1372 0.950 . S
H1362 C1374 0.950 . S
H1363 C1375 0.950 . S
C1364 H1356 0.950 . S
C1364 C1365 1.386 . S
C1364 C1366 1.391 . S
C1365 C1364 1.386 . S
C1365 C1369 1.393 . S
C1366 H1358 0.950 . S
C1366 C1364 1.391 . S
C1366 C1367 1.400 1_554 S
C1367 C1366 1.400 1_556 S
C1367 C1368 1.398 . S
C1367 C1373 1.491 . S
C1368 H1359 0.950 . S
C1368 C1367 1.398 . S
C1368 C1369 1.391 1_556 S
C1369 H1357 0.950 . S
C1369 C1365 1.393 . S
C1369 C1368 1.391 1_554 S
C1370 H1360 0.950 . S
C1370 C1371 1.386 . S
C1370 C1372 1.391 . S
C1371 C1370 1.386 . S
C1371 C1375 1.393 . S
C1372 H1361 0.950 . S
C1372 C1370 1.391 . S
C1372 C1373 1.400 . S
C1373 C1367 1.491 . S
C1373 C1372 1.400 . S
C1373 C1374 1.398 . S
C1374 H1362 0.950 . S
C1374 C1373 1.398 . S
C1374 C1375 1.391 . S
C1375 H1363 0.950 . S
C1375 C1371 1.393 . S
C1375 C1374 1.391 . S
H1376 C1384 0.950 . S
H1377 C1389 0.950 . S
H1378 C1386 0.950 . S
H1379 C1388 0.950 . S
H1380 C1390 0.950 . S
H1381 C1392 0.950 . S
H1382 C1394 0.950 . S
H1383 C1395 0.950 . S
C1384 H1376 0.950 . S
C1384 C1385 1.386 . S
C1384 C1386 1.391 . S
C1385 C1384 1.386 . S
C1385 C1389 1.393 . S
C1386 H1378 0.950 . S
C1386 C1384 1.391 . S
C1386 C1387 1.400 . S
C1387 C1386 1.400 . S
C1387 C1388 1.398 . S
C1387 C1393 1.491 . S
C1388 H1379 0.950 . S
C1388 C1387 1.398 . S
C1388 C1389 1.391 . S
C1389 H1377 0.950 . S
C1389 C1385 1.393 . S
C1389 C1388 1.391 . S
C1390 H1380 0.950 . S
C1390 C1391 1.386 . S
C1390 C1392 1.391 . S
C1391 C1390 1.386 . S
C1391 C1395 1.393 . S
C1392 H1381 0.950 . S
C1392 C1390 1.391 . S
C1392 C1393 1.400 . S
C1393 C1387 1.491 . S
C1393 C1392 1.400 . S
C1393 C1394 1.398 . S
C1394 H1382 0.950 . S
C1394 C1393 1.398 . S
C1394 C1395 1.391 . S
C1395 H1383 0.950 . S
C1395 C1391 1.393 . S
C1395 C1394 1.391 . S
H1396 C1404 0.950 . S
H1397 C1409 0.950 . S
H1398 C1406 0.950 . S
H1399 C1408 0.950 . S
H1400 C1410 0.950 . S
H1401 C1412 0.950 . S
H1402 C1414 0.950 . S
H1403 C1415 0.950 . S
C1404 H1396 0.950 . S
C1404 C1405 1.386 . S
C1404 C1406 1.391 . S
C1405 C1404 1.386 . S
C1405 C1409 1.393 . S
C1406 H1398 0.950 . S
C1406 C1404 1.391 . S
C1406 C1407 1.400 . S
C1407 C1406 1.400 . S
C1407 C1408 1.398 . S
C1407 C1413 1.491 . S
C1408 H1399 0.950 . S
C1408 C1407 1.398 . S
C1408 C1409 1.391 . S
C1409 H1397 0.950 . S
C1409 C1405 1.393 . S
C1409 C1408 1.391 . S
C1410 H1400 0.950 . S
C1410 C1411 1.386 . S
C1410 C1412 1.391 . S
C1411 C1410 1.386 . S
C1411 C1415 1.393 . S
C1412 H1401 0.950 . S
C1412 C1410 1.391 . S
C1412 C1413 1.400 . S
C1413 C1407 1.491 . S
C1413 C1412 1.400 . S
C1413 C1414 1.398 . S
C1414 H1402 0.950 . S
C1414 C1413 1.398 . S
C1414 C1415 1.391 . S
C1415 H1403 0.950 . S
C1415 C1411 1.393 . S
C1415 C1414 1.391 . S
H1416 C1424 0.950 . S
H1417 C1429 0.950 . S
H1418 C1426 0.950 . S
H1419 C1428 0.950 . S
H1420 C1430 0.950 . S
H1421 C1432 0.950 . S
H1422 C1434 0.950 . S
H1423 C1435 0.950 . S
C1424 H1416 0.950 . S
C1424 C1425 1.386 . S
C1424 C1426 1.391 . S
C1425 C1424 1.386 . S
C1425 C1429 1.393 . S
C1426 H1418 0.950 . S
C1426 C1424 1.391 . S
C1426 C1427 1.400 . S
C1427 C1426 1.400 . S
C1427 C1428 1.398 . S
C1427 C1433 1.491 . S
C1428 H1419 0.950 . S
C1428 C1427 1.398 . S
C1428 C1429 1.391 . S
C1429 H1417 0.950 . S
C1429 C1425 1.393 . S
C1429 C1428 1.391 . S
C1430 H1420 0.950 . S
C1430 C1431 1.386 . S
C1430 C1432 1.391 . S
C1431 C1430 1.386 . S
C1431 C1435 1.393 . S
C1432 H1421 0.950 . S
C1432 C1430 1.391 . S
C1432 C1433 1.400 . S
C1433 C1427 1.491 . S
C1433 C1432 1.400 . S
C1433 C1434 1.398 . S
C1434 H1422 0.950 . S
C1434 C1433 1.398 . S
C1434 C1435 1.391 . S
C1435 H1423 0.950 . S
C1435 C1431 1.393 . S
C1435 C1434 1.391 . S
H1436 C1444 0.950 . S
H1437 C1449 0.950 . S
H1438 C1446 0.950 . S
H1439 C1448 0.950 . S
H1440 C1450 0.950 . S
H1441 C1452 0.950 . S
H1442 C1454 0.950 . S
H1443 C1455 0.950 . S
C1444 H1436 0.950 . S
C1444 C1445 1.386 . S
C1444 C1446 1.391 . S
C1445 C1444 1.386 . S
C1445 C1449 1.393 . S
C1446 H1438 0.950 . S
C1446 C1444 1.391 . S
C1446 C1447 1.400 . S
C1447 C1446 1.400 . S
C1447 C1448 1.398 . S
C1447 C1453 1.491 . S
C1448 H1439 0.950 . S
C1448 C1447 1.398 . S
C1448 C1449 1.391 . S
C1449 H1437 0.950 . S
C1449 C1445 1.393 . S
C1449 C1448 1.391 . S
C1450 H1440 0.950 . S
C1450 C1451 1.386 . S
C1450 C1452 1.391 1_556 S
C1451 C1450 1.386 . S
C1451 C1455 1.393 . S
C1452 H1441 0.950 . S
C1452 C1450 1.391 1_554 S
C1452 C1453 1.400 . S
C1453 C1447 1.491 . S
C1453 C1452 1.400 . S
C1453 C1454 1.398 1_554 S
C1454 H1442 0.950 . S
C1454 C1453 1.398 1_556 S
C1454 C1455 1.391 . S
C1455 H1443 0.950 . S
C1455 C1451 1.393 . S
C1455 C1454 1.391 . S
H1456 C1464 0.950 . S
H1457 C1469 0.950 . S
H1458 C1466 0.950 . S
H1459 C1468 0.950 . S
H1460 C1470 0.950 . S
H1461 C1472 0.950 . S
H1462 C1474 0.950 . S
H1463 C1475 0.950 . S
C1464 H1456 0.950 . S
C1464 C1465 1.386 . S
C1464 C1466 1.391 . S
C1465 C1464 1.386 . S
C1465 C1469 1.393 . S
C1466 H1458 0.950 . S
C1466 C1464 1.391 . S
C1466 C1467 1.400 . S
C1467 C1466 1.400 . S
C1467 C1468 1.398 . S
C1467 C1473 1.491 . S
C1468 H1459 0.950 . S
C1468 C1467 1.398 . S
C1468 C1469 1.391 . S
C1469 H1457 0.950 . S
C1469 C1465 1.393 . S
C1469 C1468 1.391 . S
C1470 H1460 0.950 . S
C1470 C1471 1.386 . S
C1470 C1472 1.391 . S
C1471 C1470 1.386 . S
C1471 C1475 1.393 . S
C1472 H1461 0.950 . S
C1472 C1470 1.391 . S
C1472 C1473 1.400 . S
C1473 C1467 1.491 . S
C1473 C1472 1.400 . S
C1473 C1474 1.398 . S
C1474 H1462 0.950 . S
C1474 C1473 1.398 . S
C1474 C1475 1.391 . S
C1475 H1463 0.950 . S
C1475 C1471 1.393 . S
C1475 C1474 1.391 . S
H1476 C1484 0.950 . S
H1477 C1489 0.950 . S
H1478 C1486 0.950 . S
H1479 C1488 0.950 . S
H1480 C1490 0.950 . S
H1481 C1492 0.950 . S
H1482 C1494 0.950 . S
H1483 C1495 0.950 . S
C1484 H1476 0.950 . S
C1484 C1485 1.386 . S
C1484 C1486 1.391 . S
C1485 C1484 1.386 . S
C1485 C1489 1.393 . S
C1486 H1478 0.950 . S
C1486 C1484 1.391 . S
C1486 C1487 1.400 . S
C1487 C1486 1.400 . S
C1487 C1488 1.398 . S
C1487 C1493 1.491 . S
C1488 H1479 0.950 . S
C1488 C1487 1.398 . S
C1488 C1489 1.391 . S
C1489 H1477 0.950 . S
C1489 C1485 1.393 . S
C1489 C1488 1.391 . S
C1490 H1480 0.950 . S
C1490 C1491 1.386 . S
C1490 C1492 1.391 . S
C1491 C1490 1.386 . S
C1491 C1495 1.393 . S
C1492 H1481 0.950 . S
C1492 C1490 1.391 . S
C1492 C1493 1.400 . S
C1493 C1487 1.491 . S
C1493 C1492 1.400 . S
C1493 C1494 1.398 . S
C1494 H1482 0.950 . S
C1494 C1493 1.398 . S
C1494 C1495 1.391 . S
C1495 H1483 0.950 . S
C1495 C1491 1.393 . S
C1495 C1494 1.391 . S
H1496 C1504 0.950 . S
H1497 C1509 0.950 . S
H1498 C1506 0.950 . S
H1499 C1508 0.950 . S
H1500 C1510 0.950 . S
H1501 C1512 0.950 . S
H1502 C1514 0.950 . S
H1503 C1515 0.950 . S
C1504 H1496 0.950 . S
C1504 C1505 1.386 . S
C1504 C1506 1.391 . S
C1505 C1504 1.386 . S
C1505 C1509 1.393 . S
C1506 H1498 0.950 . S
C1506 C1504 1.391 . S
C1506 C1507 1.400 . S
C1507 C1506 1.400 . S
C1507 C1508 1.398 . S
C1507 C1513 1.491 . S
C1508 H1499 0.950 . S
C1508 C1507 1.398 . S
C1508 C1509 1.391 . S
C1509 H1497 0.950 . S
C1509 C1505 1.393 . S
C1509 C1508 1.391 . S
C1510 H1500 0.950 . S
C1510 C1511 1.386 . S
C1510 C1512 1.391 . S
C1511 C1510 1.386 . S
C1511 C1515 1.393 . S
C1512 H1501 0.950 . S
C1512 C1510 1.391 . S
C1512 C1513 1.400 . S
C1513 C1507 1.491 . S
C1513 C1512 1.400 . S
C1513 C1514 1.398 . S
C1514 H1502 0.950 . S
C1514 C1513 1.398 . S
C1514 C1515 1.391 . S
C1515 H1503 0.950 . S
C1515 C1511 1.393 . S
C1515 C1514 1.391 . S
H1516 C1524 0.950 . S
H1517 C1529 0.950 . S
H1518 C1526 0.950 . S
H1519 C1528 0.950 . S
H1520 C1530 0.950 . S
H1521 C1532 0.950 . S
H1522 C1534 0.950 . S
H1523 C1535 0.950 . S
C1524 H1516 0.950 . S
C1524 C1525 1.386 . S
C1524 C1526 1.391 . S
C1525 C1524 1.386 . S
C1525 C1529 1.393 . S
C1526 H1518 0.950 . S
C1526 C1524 1.391 . S
C1526 C1527 1.400 . S
C1527 C1526 1.400 . S
C1527 C1528 1.398 . S
C1527 C1533 1.491 . S
C1528 H1519 0.950 . S
C1528 C1527 1.398 . S
C1528 C1529 1.391 . S
C1529 H1517 0.950 . S
C1529 C1525 1.393 . S
C1529 C1528 1.391 . S
C1530 H1520 0.950 . S
C1530 C1531 1.386 . S
C1530 C1532 1.391 . S
C1531 C1530 1.386 . S
C1531 C1535 1.393 . S
C1532 H1521 0.950 . S
C1532 C1530 1.391 . S
C1532 C1533 1.400 . S
C1533 C1527 1.491 . S
C1533 C1532 1.400 . S
C1533 C1534 1.398 . S
C1534 H1522 0.950 . S
C1534 C1533 1.398 . S
C1534 C1535 1.391 . S
C1535 H1523 0.950 . S
C1535 C1531 1.393 . S
C1535 C1534 1.391 . S
H1536 C1544 0.950 . S
H1537 C1549 0.950 . S
H1538 C1546 0.950 . S
H1539 C1548 0.950 . S
H1540 C1550 0.950 . S
H1541 C1552 0.950 . S
H1542 C1554 0.950 . S
H1543 C1555 0.950 . S
C1544 H1536 0.950 . S
C1544 C1545 1.386 . S
C1544 C1546 1.391 . S
C1545 C1544 1.386 . S
C1545 C1549 1.393 . S
C1546 H1538 0.950 . S
C1546 C1544 1.391 . S
C1546 C1547 1.400 . S
C1547 C1546 1.400 . S
C1547 C1548 1.398 . S
C1547 C1553 1.491 1_554 S
C1548 H1539 0.950 . S
C1548 C1547 1.398 . S
C1548 C1549 1.391 . S
C1549 H1537 0.950 . S
C1549 C1545 1.393 . S
C1549 C1548 1.391 . S
C1550 H1540 0.950 . S
C1550 C1551 1.386 . S
C1550 C1552 1.391 . S
C1551 C1550 1.386 . S
C1551 C1555 1.393 . S
C1552 H1541 0.950 . S
C1552 C1550 1.391 . S
C1552 C1553 1.400 . S
C1553 C1547 1.491 1_556 S
C1553 C1552 1.400 . S
C1553 C1554 1.398 . S
C1554 H1542 0.950 . S
C1554 C1553 1.398 . S
C1554 C1555 1.391 . S
C1555 H1543 0.950 . S
C1555 C1551 1.393 . S
C1555 C1554 1.391 . S
H1556 C1564 0.950 . S
H1557 C1569 0.950 . S
H1558 C1566 0.950 . S
H1559 C1568 0.950 . S
H1560 C1570 0.950 . S
H1561 C1572 0.950 . S
H1562 C1574 0.950 . S
H1563 C1575 0.950 . S
C1564 H1556 0.950 . S
C1564 C1565 1.386 . S
C1564 C1566 1.391 . S
C1565 C1564 1.386 . S
C1565 C1569 1.393 . S
C1566 H1558 0.950 . S
C1566 C1564 1.391 . S
C1566 C1567 1.400 . S
C1567 C1566 1.400 . S
C1567 C1568 1.398 . S
C1567 C1573 1.491 . S
C1568 H1559 0.950 . S
C1568 C1567 1.398 . S
C1568 C1569 1.391 . S
C1569 H1557 0.950 . S
C1569 C1565 1.393 . S
C1569 C1568 1.391 . S
C1570 H1560 0.950 . S
C1570 C1571 1.386 . S
C1570 C1572 1.391 . S
C1571 C1570 1.386 . S
C1571 C1575 1.393 . S
C1572 H1561 0.950 . S
C1572 C1570 1.391 . S
C1572 C1573 1.400 . S
C1573 C1567 1.491 . S
C1573 C1572 1.400 . S
C1573 C1574 1.398 . S
C1574 H1562 0.950 . S
C1574 C1573 1.398 . S
C1574 C1575 1.391 . S
C1575 H1563 0.950 . S
C1575 C1571 1.393 . S
C1575 C1574 1.391 . S
H1576 C1584 0.950 . S
H1577 C1589 0.950 . S
H1578 C1586 0.950 . S
H1579 C1588 0.950 . S
H1580 C1590 0.950 . S
H1581 C1592 0.950 . S
H1582 C1594 0.950 . S
H1583 C1595 0.950 . S
C1584 H1576 0.950 . S
C1584 C1585 1.386 . S
C1584 C1586 1.391 . S
C1585 C1584 1.386 . S
C1585 C1589 1.393 . S
C1586 H1578 0.950 . S
C1586 C1584 1.391 . S
C1586 C1587 1.400 . S
C1587 C1586 1.400 . S
C1587 C1588 1.398 . S
C1587 C1593 1.491 . S
C1588 H1579 0.950 . S
C1588 C1587 1.398 . S
C1588 C1589 1.391 . S
C1589 H1577 0.950 . S
C1589 C1585 1.393 . S
C1589 C1588 1.391 . S
C1590 H1580 0.950 . S
C1590 C1591 1.386 . S
C1590 C1592 1.391 . S
C1591 C1590 1.386 . S
C1591 C1595 1.393 . S
C1592 H1581 0.950 . S
C1592 C1590 1.391 . S
C1592 C1593 1.400 . S
C1593 C1587 1.491 . S
C1593 C1592 1.400 . S
C1593 C1594 1.398 . S
C1594 H1582 0.950 . S
C1594 C1593 1.398 . S
C1594 C1595 1.391 . S
C1595 H1583 0.950 . S
C1595 C1591 1.393 . S
C1595 C1594 1.391 . S
H1596 C1604 0.950 . S
H1597 C1609 0.950 . S
H1598 C1606 0.950 . S
H1599 C1608 0.950 . S
H1600 C1610 0.950 . S
H1601 C1612 0.950 . S
H1602 C1614 0.950 . S
H1603 C1615 0.950 . S
C1604 H1596 0.950 . S
C1604 C1605 1.386 . S
C1604 C1606 1.391 . S
C1605 C1604 1.386 . S
C1605 C1609 1.393 . S
C1606 H1598 0.950 . S
C1606 C1604 1.391 . S
C1606 C1607 1.400 . S
C1607 C1606 1.400 . S
C1607 C1608 1.398 . S
C1607 C1613 1.491 . S
C1608 H1599 0.950 . S
C1608 C1607 1.398 . S
C1608 C1609 1.391 . S
C1609 H1597 0.950 . S
C1609 C1605 1.393 . S
C1609 C1608 1.391 . S
C1610 H1600 0.950 . S
C1610 C1611 1.386 . S
C1610 C1612 1.391 . S
C1611 C1610 1.386 . S
C1611 C1615 1.393 . S
C1612 H1601 0.950 . S
C1612 C1610 1.391 . S
C1612 C1613 1.400 . S
C1613 C1607 1.491 . S
C1613 C1612 1.400 . S
C1613 C1614 1.398 . S
C1614 H1602 0.950 . S
C1614 C1613 1.398 . S
C1614 C1615 1.391 . S
C1615 H1603 0.950 . S
C1615 C1611 1.393 . S
C1615 C1614 1.391 . S
H1616 C1624 0.950 . S
H1617 C1629 0.950 . S
H1618 C1626 0.950 . S
H1619 C1628 0.950 . S
H1620 C1630 0.950 . S
H1621 C1632 0.950 . S
H1622 C1634 0.950 1_554 S
H1623 C1635 0.950 . S
C1624 H1616 0.950 . S
C1624 C1625 1.386 . S
C1624 C1626 1.391 . S
C1625 C1624 1.386 . S
C1625 C1629 1.393 . S
C1626 H1618 0.950 . S
C1626 C1624 1.391 . S
C1626 C1627 1.395 1_554 S
C1627 C1626 1.395 1_556 S
C1627 C1628 1.400 . S
C1627 C1633 1.494 . S
C1628 H1619 0.950 . S
C1628 C1627 1.400 . S
C1628 C1629 1.391 1_556 S
C1629 H1617 0.950 . S
C1629 C1625 1.393 . S
C1629 C1628 1.391 1_554 S
C1630 H1620 0.950 . S
C1630 C1631 1.386 . S
C1630 C1632 1.391 . S
C1631 C1630 1.386 . S
C1631 C1635 1.393 . S
C1632 H1621 0.950 . S
C1632 C1630 1.391 . S
C1632 C1633 1.400 . S
C1633 C1627 1.494 . S
C1633 C1632 1.400 . S
C1633 C1634 1.398 . S
C1634 H1622 0.950 1_556 S
C1634 C1633 1.398 . S
C1634 C1635 1.391 . S
C1635 H1623 0.950 . S
C1635 C1631 1.393 . S
C1635 C1634 1.391 . S
H1636 C1644 0.950 . S
H1637 C1649 0.950 . S
H1638 C1646 0.950 . S
H1639 C1648 0.950 . S
H1640 C1650 0.950 . S
H1641 C1652 0.950 . S
H1642 C1654 0.950 . S
H1643 C1655 0.950 . S
C1644 H1636 0.950 . S
C1644 C1645 1.386 . S
C1644 C1646 1.391 . S
C1645 C1644 1.386 . S
C1645 C1649 1.393 . S
C1646 H1638 0.950 . S
C1646 C1644 1.391 . S
C1646 C1647 1.400 . S
C1647 C1646 1.400 . S
C1647 C1648 1.398 . S
C1647 C1653 1.491 . S
C1648 H1639 0.950 . S
C1648 C1647 1.398 . S
C1648 C1649 1.391 . S
C1649 H1637 0.950 . S
C1649 C1645 1.393 . S
C1649 C1648 1.391 . S
C1650 H1640 0.950 . S
C1650 C1651 1.386 . S
C1650 C1652 1.391 . S
C1651 C1650 1.386 . S
C1651 C1655 1.393 . S
C1652 H1641 0.950 . S
C1652 C1650 1.391 . S
C1652 C1653 1.400 . S
C1653 C1647 1.491 . S
C1653 C1652 1.400 . S
C1653 C1654 1.398 . S
C1654 H1642 0.950 . S
C1654 C1653 1.398 . S
C1654 C1655 1.391 . S
C1655 H1643 0.950 . S
C1655 C1651 1.393 . S
C1655 C1654 1.391 . S
H1656 C1664 0.950 . S
H1657 C1669 0.950 . S
H1658 C1666 0.950 . S
H1659 C1668 0.950 . S
H1660 C1670 0.950 . S
H1661 C1672 0.950 . S
H1662 C1674 0.950 . S
H1663 C1675 0.950 . S
C1664 H1656 0.950 . S
C1664 C1665 1.386 . S
C1664 C1666 1.391 . S
C1665 C1664 1.386 . S
C1665 C1669 1.393 . S
C1666 H1658 0.950 . S
C1666 C1664 1.391 . S
C1666 C1667 1.400 . S
C1667 C1666 1.400 . S
C1667 C1668 1.398 . S
C1667 C1673 1.491 . S
C1668 H1659 0.950 . S
C1668 C1667 1.398 . S
C1668 C1669 1.391 . S
C1669 H1657 0.950 . S
C1669 C1665 1.393 . S
C1669 C1668 1.391 . S
C1670 H1660 0.950 . S
C1670 C1671 1.386 . S
C1670 C1672 1.391 . S
C1671 C1670 1.386 . S
C1671 C1675 1.393 . S
C1672 H1661 0.950 . S
C1672 C1670 1.391 . S
C1672 C1673 1.400 . S
C1673 C1667 1.491 . S
C1673 C1672 1.400 . S
C1673 C1674 1.398 . S
C1674 H1662 0.950 . S
C1674 C1673 1.398 . S
C1674 C1675 1.391 . S
C1675 H1663 0.950 . S
C1675 C1671 1.393 . S
C1675 C1674 1.391 . S
H1676 C1684 0.950 . S
H1677 C1689 0.950 . S
H1678 C1686 0.950 . S
H1679 C1688 0.950 . S
H1680 C1690 0.950 . S
H1681 C1692 0.950 . S
H1682 C1694 0.950 . S
H1683 C1695 0.950 . S
C1684 H1676 0.950 . S
C1684 C1685 1.386 . S
C1684 C1686 1.391 . S
C1685 C1684 1.386 . S
C1685 C1689 1.393 . S
C1686 H1678 0.950 . S
C1686 C1684 1.391 . S
C1686 C1687 1.400 . S
C1687 C1686 1.400 . S
C1687 C1688 1.398 . S
C1687 C1693 1.491 . S
C1688 H1679 0.950 . S
C1688 C1687 1.398 . S
C1688 C1689 1.391 . S
C1689 H1677 0.950 . S
C1689 C1685 1.393 . S
C1689 C1688 1.391 . S
C1690 H1680 0.950 . S
C1690 C1691 1.386 . S
C1690 C1692 1.391 . S
C1691 C1690 1.386 . S
C1691 C1695 1.393 . S
C1692 H1681 0.950 . S
C1692 C1690 1.391 . S
C1692 C1693 1.400 . S
C1693 C1687 1.491 . S
C1693 C1692 1.400 . S
C1693 C1694 1.398 . S
C1694 H1682 0.950 . S
C1694 C1693 1.398 . S
C1694 C1695 1.391 . S
C1695 H1683 0.950 . S
C1695 C1691 1.393 . S
C1695 C1694 1.391 . S
C425 C8 0.926 . S
C431 C177 0.911 . S
C445 C333 1.271 . S
C451 C21 1.276 . S
C465 C34 0.920 . S
C471 C203 0.932 . S
C485 C47 1.283 . S
C491 C320 1.289 . S
C505 C60 1.375 . S
C511 C229 1.385 . S
C525 C73 1.004 . S
C531 C294 1.024 . S
C545 C86 1.378 . S
C551 C255 1.382 . S
C565 C411 1.034 . S
C571 C99 1.015 . S
C585 C281 1.389 . S
C591 C112 1.375 . S
C605 C125 1.032 . S
C611 C242 1.026 . S
C625 C307 1.395 . S
C631 C138 1.364 . S
C645 C151 1.267 . S
C651 C216 1.277 . S
C665 C190 1.272 . S
C671 C164 1.272 . S
C685 C268 1.027 . S
C691 C372 1.032 . S
C705 C385 0.904 . S
C711 C346 0.914 . S
C725 C398 0.910 . S
C731 C359 0.926 . S
C745 C10 1.555 . S
C751 C23 1.570 . S
C765 C31 1.483 . S
C771 C13 1.518 . S
C785 C49 1.554 . S
C791 C36 1.570 . S
C805 C39 1.513 . S
C811 C5 1.482 . S
C825 C96 1.370 . S
C831 C57 1.373 . S
C845 C75 1.513 . S
C851 C52 1.559 . S
C865 C83 1.394 . S
C871 C70 1.393 . S
C885 C78 1.560 . S
C891 C101 1.508 . S
C905 C117 1.570 . S
C911 C0 1.575 . S
C925 C114 1.448 . S
C931 C44 1.475 . S
C945 C140 1.472 . S
C951 C18 1.495 . S
C965 C351 1.570 . S
C971 C91 1.562 . S
C985 C364 1.562 . S
C991 C26 1.575 . S
C1005 C148 1.478 . S
C1011 C62 1.447 . S
C1025 C88 1.474 . S
C1031 C161 1.492 . S
C1045 C187 1.545 . S
C1051 C174 1.548 . S
C1065 C205 1.439 . S
C1071 C182 1.479 . S
C1085 C213 1.556 . S
C1091 C200 1.536 . S
C1105 C179 1.442 . S
C1111 C208 1.481 . S
C1125 C221 1.481 . S
C1131 C270 1.448 . S
C1145 C226 1.606 . S
C1151 C239 1.584 . S
C1165 C247 1.481 . S
C1171 C244 1.447 . S
C1185 C252 1.607 . S
C1191 C265 1.583 . S
C1205 C169 1.499 . S
C1211 C286 1.489 . S
C1225 C283 1.494 . S
C1231 C218 1.508 . S
C1245 C309 1.496 . S
C1251 C192 1.508 . S
C1265 C390 1.497 . S
C1271 C260 1.485 . S
C1285 C403 1.474 . S
C1291 C195 1.484 . S
C1305 C231 1.487 . S
C1311 C322 1.505 . S
C1325 C335 1.483 . S
C1331 C257 1.490 . S
C1345 C166 1.572 . S
C1351 C348 1.578 . S
C1365 C356 1.475 . S
C1371 C156 1.521 . S
C1385 C153 1.578 . S
C1391 C361 1.561 . S
C1405 C143 1.513 . S
C1411 C343 1.482 . S
C1425 C109 1.384 . S
C1431 C369 1.381 . S
C1445 C127 1.492 . S
C1451 C104 1.566 . S
C1465 C135 1.389 . S
C1471 C122 1.388 . S
C1485 C130 1.557 . S
C1491 C374 1.517 . S
C1505 C338 1.570 . S
C1511 C65 1.561 . S
C1525 C330 1.546 . S
C1531 C382 1.548 . S
C1545 C325 1.475 . S
C1551 C400 1.442 . S
C1565 C395 1.532 . S
C1571 C317 1.558 . S
C1585 C312 1.479 . S
C1591 C387 1.438 . S
C1605 C413 1.431 . S
C1611 C273 1.473 . S
C1625 C278 1.600 . S
C1631 C291 1.591 . S
C1645 C299 1.466 . S
C1651 C296 1.426 . S
C1665 C304 1.600 . S
C1671 C408 1.590 . S
C1685 C377 1.498 . S
C1691 C234 1.494 . S
