# Generated by pormake.
# Topology gan, (5)-cn, num edge types: 1
# Building blocks:
#     Node 0, Type 0, BuildingBlock: XOMCOT_clean_sbu_1, # of connection points: 5
#     Node 1, Type 0, BuildingBlock: XOMCOT_clean_sbu_1, # of connection points: 5
#     Node 2, Type 0, BuildingBlock: XOMCOT_clean_sbu_1, # of connection points: 5
#     Node 3, Type 0, BuildingBlock: XOMCOT_clean_sbu_1, # of connection points: 5
#     Node 4, Type 0, BuildingBlock: XOMCOT_clean_sbu_1, # of connection points: 5
#     Node 5, Type 0, BuildingBlock: XOMCOT_clean_sbu_1, # of connection points: 5
#     Node 6, Type 0, BuildingBlock: XOMCOT_clean_sbu_1, # of connection points: 5
#     Node 7, Type 0, BuildingBlock: XOMCOT_clean_sbu_1, # of connection points: 5
#     Node 8, Type 0, BuildingBlock: XOMCOT_clean_sbu_1, # of connection points: 5
#     Node 9, Type 0, BuildingBlock: XOMCOT_clean_sbu_1, # of connection points: 5
#     Node 10, Type 0, BuildingBlock: XOMCOT_clean_sbu_1, # of connection points: 5
#     Node 11, Type 0, BuildingBlock: XOMCOT_clean_sbu_1, # of connection points: 5
#     Node 12, Type 0, BuildingBlock: XOMCOT_clean_sbu_1, # of connection points: 5
#     Node 13, Type 0, BuildingBlock: XOMCOT_clean_sbu_1, # of connection points: 5
#     Node 14, Type 0, BuildingBlock: XOMCOT_clean_sbu_1, # of connection points: 5
#     Node 15, Type 0, BuildingBlock: XOMCOT_clean_sbu_1, # of connection points: 5
#     Edge 16, Type (0, 0), BuildingBlock: OJICUG_clean_linker_0, # of connection points: 2
#     Edge 17, Type (0, 0), BuildingBlock: OJICUG_clean_linker_0, # of connection points: 2
#     Edge 18, Type (0, 0), BuildingBlock: OJICUG_clean_linker_0, # of connection points: 2
#     Edge 19, Type (0, 0), BuildingBlock: OJICUG_clean_linker_0, # of connection points: 2
#     Edge 20, Type (0, 0), BuildingBlock: OJICUG_clean_linker_0, # of connection points: 2
#     Edge 21, Type (0, 0), BuildingBlock: OJICUG_clean_linker_0, # of connection points: 2
#     Edge 22, Type (0, 0), BuildingBlock: OJICUG_clean_linker_0, # of connection points: 2
#     Edge 23, Type (0, 0), BuildingBlock: OJICUG_clean_linker_0, # of connection points: 2
#     Edge 24, Type (0, 0), BuildingBlock: OJICUG_clean_linker_0, # of connection points: 2
#     Edge 25, Type (0, 0), BuildingBlock: OJICUG_clean_linker_0, # of connection points: 2
#     Edge 26, Type (0, 0), BuildingBlock: OJICUG_clean_linker_0, # of connection points: 2
#     Edge 27, Type (0, 0), BuildingBlock: OJICUG_clean_linker_0, # of connection points: 2
#     Edge 28, Type (0, 0), BuildingBlock: OJICUG_clean_linker_0, # of connection points: 2
#     Edge 29, Type (0, 0), BuildingBlock: OJICUG_clean_linker_0, # of connection points: 2
#     Edge 30, Type (0, 0), BuildingBlock: OJICUG_clean_linker_0, # of connection points: 2
#     Edge 31, Type (0, 0), BuildingBlock: OJICUG_clean_linker_0, # of connection points: 2
#     Edge 32, Type (0, 0), BuildingBlock: OJICUG_clean_linker_0, # of connection points: 2
#     Edge 33, Type (0, 0), BuildingBlock: OJICUG_clean_linker_0, # of connection points: 2
#     Edge 34, Type (0, 0), BuildingBlock: OJICUG_clean_linker_0, # of connection points: 2
#     Edge 35, Type (0, 0), BuildingBlock: OJICUG_clean_linker_0, # of connection points: 2
#     Edge 36, Type (0, 0), BuildingBlock: OJICUG_clean_linker_0, # of connection points: 2
#     Edge 37, Type (0, 0), BuildingBlock: OJICUG_clean_linker_0, # of connection points: 2
#     Edge 38, Type (0, 0), BuildingBlock: OJICUG_clean_linker_0, # of connection points: 2
#     Edge 39, Type (0, 0), BuildingBlock: OJICUG_clean_linker_0, # of connection points: 2
#     Edge 40, Type (0, 0), BuildingBlock: OJICUG_clean_linker_0, # of connection points: 2
#     Edge 41, Type (0, 0), BuildingBlock: OJICUG_clean_linker_0, # of connection points: 2
#     Edge 42, Type (0, 0), BuildingBlock: OJICUG_clean_linker_0, # of connection points: 2
#     Edge 43, Type (0, 0), BuildingBlock: OJICUG_clean_linker_0, # of connection points: 2
#     Edge 44, Type (0, 0), BuildingBlock: OJICUG_clean_linker_0, # of connection points: 2
#     Edge 45, Type (0, 0), BuildingBlock: OJICUG_clean_linker_0, # of connection points: 2
#     Edge 46, Type (0, 0), BuildingBlock: OJICUG_clean_linker_0, # of connection points: 2
#     Edge 47, Type (0, 0), BuildingBlock: OJICUG_clean_linker_0, # of connection points: 2
#     Edge 48, Type (0, 0), BuildingBlock: OJICUG_clean_linker_0, # of connection points: 2
#     Edge 49, Type (0, 0), BuildingBlock: OJICUG_clean_linker_0, # of connection points: 2
#     Edge 50, Type (0, 0), BuildingBlock: OJICUG_clean_linker_0, # of connection points: 2
#     Edge 51, Type (0, 0), BuildingBlock: OJICUG_clean_linker_0, # of connection points: 2
#     Edge 52, Type (0, 0), BuildingBlock: OJICUG_clean_linker_0, # of connection points: 2
#     Edge 53, Type (0, 0), BuildingBlock: OJICUG_clean_linker_0, # of connection points: 2
#     Edge 54, Type (0, 0), BuildingBlock: OJICUG_clean_linker_0, # of connection points: 2
#     Edge 55, Type (0, 0), BuildingBlock: OJICUG_clean_linker_0, # of connection points: 2
# Relax obj value: 0.073
# Max RMSD: 0.108
# Mean RMSD: 0.095
data_MOF--net-gan--node1-XOMCOT_clean_sbu_1--edge1-OJICUG_clean_linker_0
_symmetry_space_group_name_H-M    P1
_symmetry_Int_Tables_number       1
_symmetry_cell_setting            triclinic
loop_
_symmetry_equiv_pos_as_xyz
'x, y, z'
_cell_length_a     32.542907
_cell_length_b     32.660755
_cell_length_c     31.463787
_cell_angle_alpha  91.359059
_cell_angle_beta   90.539404
_cell_angle_gamma 90.983477
loop_
_atom_site_label
_atom_site_type_symbol
_atom_site_fract_x
_atom_site_fract_y
_atom_site_fract_z
_atom_type_partial_charge
C0 C 0.10378 0.15299 0.21135 0.0
C1 C 0.07455 0.12874 0.19073 0.0
N2 N 0.07783 0.13379 0.14848 0.0
N3 N 0.12606 0.17345 0.18264 0.0
C4 C 0.10927 0.16142 0.14442 0.0
H5 H 0.10869 0.1555 0.24537 0.0
Co6 Co 0.17018 0.20911 0.19964 0.0
C7 C 0.22696 0.20556 0.12684 0.0
O8 O 0.25772 0.20291 0.15396 0.0
N9 N 0.21354 0.2464 0.21803 0.0
C10 C 0.2536 0.3026 0.21855 0.0
C11 C 0.22664 0.27831 0.19491 0.0
C12 C 0.23241 0.25311 0.25651 0.0
N13 N 0.25727 0.28708 0.25769 0.0
O14 O 0.13686 0.25423 0.18905 0.0
H15 H 0.21611 0.28454 0.16305 0.0
H16 H 0.22639 0.23495 0.28398 0.0
O17 O 0.19026 0.20914 0.1406 0.0
C18 C 0.11775 0.26728 0.22167 0.0
O19 O 0.12489 0.25043 0.25847 0.0
N20 N 0.20066 0.16313 0.21308 0.0
C21 C 0.22124 0.08565 0.2405 0.0
C22 C 0.22244 0.0948 0.19729 0.0
C23 C 0.20991 0.13288 0.18413 0.0
C24 C 0.20188 0.15554 0.25544 0.0
C25 C 0.21239 0.11707 0.26996 0.0
H26 H 0.20377 0.13598 0.15071 0.0
H27 H 0.18982 0.17767 0.27785 0.0
H28 H 0.12027 0.17214 0.11423 0.0
H29 H 0.05215 0.10922 0.20593 0.0
H30 H 0.26865 0.33009 0.20756 0.0
H31 H 0.22886 0.07144 0.17337 0.0
H32 H 0.20947 0.11106 0.30351 0.0
C33 C 0.26806 0.85494 0.32088 0.0
C34 C 0.2963 0.83281 0.29786 0.0
N35 N 0.27755 0.79906 0.28113 0.0
N36 N 0.23076 0.8361 0.31865 0.0
C37 C 0.23791 0.80155 0.29442 0.0
H38 H 0.27455 0.88341 0.33807 0.0
Co39 Co 0.18129 0.85914 0.34383 0.0
C40 C 0.19331 0.85785 0.43677 0.0
O41 O 0.15467 0.84769 0.44327 0.0
N42 N 0.13178 0.88332 0.36924 0.0
C43 C 0.0678 0.89062 0.39385 0.0
C44 C 0.0933 0.86688 0.3692 0.0
C45 C 0.12783 0.91837 0.39378 0.0
N46 N 0.08926 0.92312 0.4098 0.0
O47 O 0.2021 0.91219 0.33568 0.0
H48 H 0.08376 0.83869 0.3533 0.0
H49 H 0.15333 0.93905 0.40141 0.0
O50 O 0.20725 0.85986 0.39906 0.0
C51 C 0.19468 0.92191 0.29764 0.0
O52 O 0.17521 0.89524 0.27244 0.0
N53 N 0.15954 0.80686 0.34764 0.0
C54 C 0.10918 0.73807 0.34102 0.0
C55 C 0.13551 0.74396 0.3764 0.0
C56 C 0.16151 0.77851 0.37868 0.0
C57 C 0.1383 0.79869 0.3109 0.0
C58 C 0.11299 0.76432 0.30675 0.0
H59 H 0.18144 0.78306 0.40598 0.0
H60 H 0.13869 0.82085 0.28591 0.0
H61 H 0.21455 0.77883 0.28591 0.0
H62 H 0.32852 0.84068 0.29426 0.0
H63 H 0.03559 0.88428 0.39957 0.0
H64 H 0.13405 0.72359 0.40303 0.0
H65 H 0.09333 0.76101 0.27886 0.0
C66 C 0.34455 0.81475 0.67198 0.0
C67 C 0.31963 0.78738 0.69263 0.0
N68 N 0.32205 0.79549 0.73462 0.0
N69 N 0.36263 0.8414 0.70019 0.0
C70 C 0.3487 0.82823 0.73861 0.0
H71 H 0.34939 0.81477 0.63808 0.0
Co72 Co 0.39985 0.88458 0.68121 0.0
C73 C 0.37061 0.96041 0.72115 0.0
O74 O 0.37673 0.97701 0.68405 0.0
N75 N 0.43924 0.92695 0.66133 0.0
C76 C 0.49317 0.97071 0.66663 0.0
C77 C 0.46558 0.94681 0.68856 0.0
C78 C 0.45212 0.94014 0.6224 0.0
N79 N 0.48499 0.96666 0.62473 0.0
O80 O 0.44187 0.86515 0.71717 0.0
H81 H 0.46537 0.94349 0.72268 0.0
H82 H 0.43891 0.92981 0.59242 0.0
O83 O 0.3791 0.92263 0.72609 0.0
C84 C 0.46112 0.84201 0.69126 0.0
O85 O 0.44519 0.83512 0.65315 0.0
N86 N 0.36002 0.89971 0.64206 0.0
C87 C 0.30253 0.89942 0.57618 0.0
C88 C 0.29134 0.9116 0.61753 0.0
C89 C 0.32057 0.9109 0.6504 0.0
C90 C 0.37079 0.88715 0.60227 0.0
C91 C 0.34297 0.88758 0.56878 0.0
H92 H 0.31074 0.91663 0.68264 0.0
H93 H 0.40033 0.87345 0.59712 0.0
H94 H 0.35789 0.84226 0.76881 0.0
H95 H 0.30174 0.76254 0.6779 0.0
H96 H 0.51742 0.98981 0.68072 0.0
H97 H 0.26003 0.91984 0.62468 0.0
H98 H 0.35238 0.87582 0.53796 0.0
C99 C 0.39202 0.15431 0.94721 0.0
C100 C 0.41906 0.13342 0.97225 0.0
N101 N 0.40799 0.09348 0.97214 0.0
N102 N 0.36346 0.12834 0.93 0.0
C103 C 0.37371 0.09122 0.94639 0.0
H104 H 0.39313 0.18689 0.9419 0.0
Co105 Co 0.32187 0.15014 0.89199 0.0
C106 C 0.30388 0.08616 0.82652 0.0
O107 O 0.29808 0.11646 0.80057 0.0
N108 N 0.27907 0.17458 0.85503 0.0
C109 C 0.21559 0.18359 0.82883 0.0
C110 C 0.24009 0.15969 0.85379 0.0
C111 C 0.27669 0.20855 0.83006 0.0
N112 N 0.2382 0.21483 0.81345 0.0
O113 O 0.28197 0.14234 0.93559 0.0
H114 H 0.22974 0.13296 0.87058 0.0
H115 H 0.30251 0.22875 0.82439 0.0
O116 O 0.3118 0.09433 0.86596 0.0
C117 C 0.27129 0.17613 0.95317 0.0
O118 O 0.28392 0.21068 0.93671 0.0
N119 N 0.36334 0.16065 0.85308 0.0
C120 C 0.44348 0.18095 0.83233 0.0
C121 C 0.42929 0.14064 0.82705 0.0
C122 C 0.38919 0.13089 0.83853 0.0
C123 C 0.37584 0.20063 0.85454 0.0
C124 C 0.41588 0.21157 0.84397 0.0
H125 H 0.3817 0.0989 0.84133 0.0
H126 H 0.35678 0.22332 0.86977 0.0
H127 H 0.35673 0.06308 0.93926 0.0
H128 H 0.44466 0.14701 0.99007 0.0
H129 H 0.18307 0.17831 0.82342 0.0
H130 H 0.45029 0.11625 0.81928 0.0
H131 H 0.42634 0.24301 0.84903 0.0
C132 C 0.76861 0.35478 0.82145 0.0
C133 C 0.79681 0.33262 0.7984 0.0
N134 N 0.77775 0.29948 0.7807 0.0
N135 N 0.73104 0.33659 0.81827 0.0
C136 C 0.73796 0.30238 0.79344 0.0
H137 H 0.77533 0.3828 0.83936 0.0
Co138 Co 0.68161 0.3598 0.84336 0.0
C139 C 0.69246 0.35554 0.93629 0.0
O140 O 0.65359 0.3458 0.94198 0.0
N141 N 0.63211 0.38409 0.86879 0.0
C142 C 0.56798 0.39163 0.89296 0.0
C143 C 0.59348 0.368 0.86819 0.0
C144 C 0.62828 0.41884 0.89386 0.0
N145 N 0.58959 0.42372 0.90957 0.0
O146 O 0.70329 0.41283 0.83672 0.0
H147 H 0.58377 0.34011 0.85183 0.0
H148 H 0.65388 0.43921 0.90203 0.0
O149 O 0.70685 0.35876 0.89887 0.0
C150 C 0.69689 0.42296 0.7986 0.0
O151 O 0.67771 0.39668 0.77273 0.0
N152 N 0.65913 0.30769 0.84557 0.0
C153 C 0.60848 0.23929 0.83706 0.0
C154 C 0.6351 0.24396 0.87235 0.0
C155 C 0.66122 0.27835 0.87559 0.0
C156 C 0.63776 0.30065 0.80869 0.0
C157 C 0.61221 0.26652 0.80363 0.0
H158 H 0.6814 0.28194 0.90281 0.0
H159 H 0.63818 0.32353 0.78441 0.0
H160 H 0.71435 0.28019 0.78415 0.0
H161 H 0.82921 0.34 0.79549 0.0
H162 H 0.53566 0.38551 0.8983 0.0
H163 H 0.63377 0.22274 0.89827 0.0
H164 H 0.59238 0.26413 0.77581 0.0
C165 C 0.86884 0.30411 0.17757 0.0
C166 C 0.84704 0.27336 0.1967 0.0
N167 N 0.8332 0.28732 0.23442 0.0
N168 N 0.86966 0.33819 0.20259 0.0
C169 C 0.84731 0.32703 0.23737 0.0
H170 H 0.88389 0.30156 0.14716 0.0
Co171 Co 0.901 0.3848 0.18275 0.0
C172 C 0.86369 0.45751 0.22125 0.0
O173 O 0.86617 0.47303 0.18318 0.0
N174 N 0.93505 0.43077 0.16159 0.0
C175 C 0.98393 0.48007 0.16604 0.0
C176 C 0.95729 0.45558 0.18844 0.0
C177 C 0.94953 0.44136 0.1224 0.0
N178 N 0.97942 0.47123 0.12426 0.0
O179 O 0.94577 0.3708 0.21847 0.0
H180 H 0.95547 0.45485 0.22272 0.0
H181 H 0.94026 0.42626 0.09292 0.0
O182 O 0.87687 0.4213 0.22736 0.0
C183 C 0.96915 0.35248 0.1921 0.0
O184 O 0.9562 0.34689 0.15267 0.0
N185 N 0.85896 0.39416 0.144 0.0
C186 C 0.80114 0.38961 0.07838 0.0
C187 C 0.78921 0.40024 0.11993 0.0
C188 C 0.81863 0.40148 0.15268 0.0
C189 C 0.87031 0.38194 0.1043 0.0
C190 C 0.84226 0.38023 0.07094 0.0
H191 H 0.80864 0.40648 0.185 0.0
H192 H 0.90089 0.37085 0.09897 0.0
H193 H 0.84262 0.34703 0.26475 0.0
H194 H 0.84214 0.24255 0.18396 0.0
H195 H 1.00537 0.50251 0.17975 0.0
H196 H 0.75743 0.40644 0.12721 0.0
H197 H 0.85238 0.36949 0.03999 0.0
C198 C 0.89067 0.65477 0.44908 0.0
C199 C 0.91784 0.63408 0.47416 0.0
N200 N 0.90763 0.59392 0.47321 0.0
N201 N 0.86289 0.62847 0.43105 0.0
C202 C 0.87374 0.59132 0.44695 0.0
H203 H 0.89119 0.68744 0.44423 0.0
Co204 Co 0.82163 0.64999 0.39258 0.0
C205 C 0.80391 0.58556 0.32759 0.0
O206 O 0.79953 0.61567 0.30108 0.0
N207 N 0.77912 0.67419 0.3551 0.0
C208 C 0.71596 0.68244 0.32776 0.0
C209 C 0.74044 0.65859 0.35279 0.0
C210 C 0.77654 0.70862 0.33082 0.0
N211 N 0.7382 0.71451 0.3136 0.0
O212 O 0.78142 0.6426 0.43595 0.0
H213 H 0.73033 0.6313 0.36878 0.0
H214 H 0.80199 0.72962 0.32645 0.0
O215 O 0.81146 0.59399 0.36704 0.0
C216 C 0.77039 0.6764 0.45322 0.0
O217 O 0.78263 0.71093 0.43646 0.0
N218 N 0.86343 0.6601 0.35394 0.0
C219 C 0.94425 0.67982 0.3353 0.0
C220 C 0.92985 0.63961 0.32965 0.0
C221 C 0.88938 0.63015 0.34001 0.0
C222 C 0.87617 0.70001 0.35558 0.0
C223 C 0.91657 0.71065 0.34609 0.0
H224 H 0.88156 0.59821 0.34258 0.0
H225 H 0.85697 0.72285 0.37032 0.0
H226 H 0.85751 0.56292 0.43903 0.0
H227 H 0.94294 0.64792 0.49253 0.0
H228 H 0.68382 0.67619 0.32099 0.0
H229 H 0.95083 0.61505 0.32239 0.0
H230 H 0.9271 0.74204 0.35129 0.0
C231 C 0.89213 0.86632 0.95548 0.0
C232 C 0.87062 0.83856 0.92968 0.0
N233 N 0.85344 0.8586 0.8971 0.0
N234 N 0.88917 0.90402 0.93943 0.0
C235 C 0.86522 0.89837 0.9041 0.0
H236 H 0.90871 0.85939 0.9843 0.0
Co237 Co 0.91141 0.95394 0.96297 0.0
C238 C 0.94527 0.99249 0.88588 0.0
O239 O 0.97993 1.00288 0.90533 0.0
N240 N 0.93348 1.00529 0.98655 0.0
C241 C 0.94582 0.07268 0.99507 0.0
C242 C 0.92353 0.04274 0.97272 0.0
C243 C 0.9613 1.01389 1.0184 0.0
N244 N 0.96976 0.05451 1.02395 0.0
O245 O 0.85725 0.97396 0.96547 0.0
H246 H 0.90161 0.04805 0.94748 0.0
H247 H 0.97582 0.99119 0.03733 0.0
O248 O 0.917 0.97363 0.90562 0.0
C249 C 0.84307 0.95808 0.99895 0.0
O250 O 0.86932 0.94279 1.02607 0.0
N251 N 0.96304 0.93066 0.96418 0.0
C252 C 0.03254 0.88468 0.97945 0.0
C253 C 1.02113 0.89451 0.93773 0.0
C254 C 0.98566 0.91687 0.93068 0.0
C255 C 0.97267 0.91959 1.00445 0.0
C256 C 1.00803 0.89806 1.01307 0.0
H257 H 0.97523 0.92058 0.89839 0.0
H258 H 0.95186 0.92656 0.0301 0.0
H259 H 0.85603 0.92335 0.8844 0.0
H260 H 0.86821 0.806 0.93481 0.0
H261 H 0.94401 0.10537 0.99068 0.0
H262 H 0.03774 0.88262 0.91058 0.0
H263 H 1.01493 0.8903 0.04561 0.0
C264 C 0.92358 0.13021 0.69599 0.0
C265 C 0.89805 0.15301 0.7216 0.0
N266 N 0.87429 0.17614 0.6969 0.0
N267 N 0.91573 0.13757 0.65465 0.0
C268 C 0.88588 0.16656 0.65637 0.0
H269 H 0.94691 0.10989 0.70721 0.0
Co270 Co 0.94417 0.11253 0.60683 0.0
C271 C 0.87567 0.08159 0.55162 0.0
O272 O 0.89385 0.04637 0.5455 0.0
N273 N 0.97324 0.08822 0.55761 0.0
C274 C 1.00155 0.08667 0.4928 0.0
C275 C 0.97885 0.10912 0.52144 0.0
C276 C 0.99255 0.05188 0.54884 0.0
N277 N 1.01052 0.05045 0.50972 0.0
O278 O 0.95514 0.16637 0.58711 0.0
H279 H 0.96692 0.13914 0.51556 0.0
H280 H 0.99382 0.02683 0.5706 0.0
O281 O 0.89274 0.10945 0.57528 0.0
C282 C 0.98612 0.18083 0.60792 0.0
O283 O 1.00532 0.15648 0.63389 0.0
N284 N 0.93666 0.06139 0.63091 0.0
C285 C 0.93573 1.01587 0.70475 0.0
C286 C 0.89907 0.02288 0.68206 0.0
C287 C 0.90009 0.0464 0.6454 0.0
C288 C 0.97271 0.05038 0.64928 0.0
C289 C 0.97302 0.02752 0.686 0.0
H290 H 0.87136 0.05695 0.63258 0.0
H291 H 1.00119 0.06449 0.6392 0.0
H292 H 0.87297 0.18046 0.62848 0.0
H293 H 0.89791 0.15356 0.75602 0.0
H294 H 1.01006 0.09611 0.46128 0.0
H295 H 0.86951 1.01371 0.69452 0.0
H296 H 1.00223 0.02381 0.70198 0.0
C297 C 0.57267 0.1126 0.45113 0.0
C298 C 0.54667 0.0925 0.47809 0.0
N299 N 0.56701 0.0619 0.49637 0.0
N300 N 0.61007 0.09537 0.45141 0.0
C301 C 0.60575 0.0644 0.47983 0.0
H302 H 0.5643 0.13782 0.43136 0.0
Co303 Co 0.65128 0.11447 0.41157 0.0
C304 C 0.72919 0.12044 0.45788 0.0
O305 O 0.73276 0.15711 0.442 0.0
N306 N 0.69253 0.13397 0.36979 0.0
C307 C 0.74496 0.12849 0.32435 0.0
C308 C 0.7172 0.10759 0.34887 0.0
C309 C 0.70689 0.17153 0.35654 0.0
N310 N 0.73908 0.16906 0.32915 0.0
O311 O 0.64904 0.06149 0.38341 0.0
H312 H 0.71632 0.07473 0.35206 0.0
H313 H 0.69597 0.20057 0.36835 0.0
O314 O 0.69706 0.09821 0.44943 0.0
C315 C 0.6159 0.05634 0.36163 0.0
O316 O 0.58904 0.0859 0.36188 0.0
N317 N 0.64845 0.16617 0.43665 0.0
C318 C 0.6327 0.24509 0.46508 0.0
C319 C 0.64799 0.21641 0.49336 0.0
C320 C 0.6552 0.17652 0.47851 0.0
C321 C 0.63041 0.1928 0.41005 0.0
C322 C 0.62356 0.23282 0.42312 0.0
H323 H 0.66519 0.15384 0.50064 0.0
H324 H 0.62156 0.18272 0.37821 0.0
H325 H 0.62992 0.04322 0.48701 0.0
H326 H 0.51484 0.09987 0.48371 0.0
H327 H 0.76809 0.1144 0.30463 0.0
H328 H 0.65313 0.22444 0.52661 0.0
H329 H 0.60929 0.25344 0.40112 0.0
C330 C 0.67542 0.89691 0.16072 0.0
C331 C 0.7004 0.87104 0.18297 0.0
N332 N 0.67701 0.84435 0.20478 0.0
N333 N 0.63558 0.88727 0.16734 0.0
C334 C 0.6376 0.85507 0.19451 0.0
H335 H 0.68592 0.92165 0.1411 0.0
Co336 Co 0.58867 0.91731 0.14426 0.0
C337 C 0.53557 0.85124 0.10779 0.0
O338 O 0.52729 0.87378 0.07486 0.0
N339 N 0.54023 0.94676 0.12178 0.0
C340 C 0.47387 0.96449 0.11799 0.0
C341 C 0.50312 0.94354 0.14048 0.0
C342 C 0.5319 0.97072 0.08737 0.0
N343 N 0.49166 0.98185 0.08424 0.0
O344 O 0.5704 0.92618 0.20146 0.0
H345 H 0.49719 0.9261 0.16863 0.0
H346 H 0.55431 0.97913 0.06396 0.0
O347 O 0.55901 0.86547 0.13766 0.0
C348 C 0.59513 0.95456 0.21495 0.0
O349 O 0.62105 0.97072 0.18802 0.0
N350 N 0.61132 0.91362 0.09046 0.0
C351 C 0.6741 0.92087 0.03175 0.0
C352 C 0.65659 0.88223 0.04027 0.0
C353 C 0.62506 0.87917 0.07015 0.0
C354 C 0.62643 0.95126 0.0805 0.0
C355 C 0.6568 0.95573 0.0503 0.0
H356 H 0.61544 0.84919 0.08041 0.0
H357 H 0.61793 0.97782 0.09939 0.0
H358 H 0.61049 0.84033 0.20715 0.0
H359 H 0.7336 0.87219 0.18269 0.0
H360 H 0.44181 0.96696 0.12633 0.0
H361 H 0.66983 0.85452 1.02719 0.0
H362 H 0.67021 0.98591 0.04592 0.0
C363 C 0.42398 0.63004 0.19639 0.0
C364 C 0.39859 0.65282 0.22217 0.0
N365 N 0.37455 0.67583 0.19764 0.0
N366 N 0.41577 0.6373 0.1551 0.0
C367 C 0.38584 0.6662 0.15703 0.0
H368 H 0.44743 0.60977 0.20744 0.0
Co369 Co 0.44368 0.61209 0.10705 0.0
C370 C 0.37438 0.58178 0.05239 0.0
O371 O 0.3923 0.54651 0.04556 0.0
N372 N 0.47223 0.5876 0.0576 0.0
C373 C 0.4997 0.58592 0.9924 0.0
C374 C 0.47692 0.60822 1.02111 0.0
C375 C 0.49215 0.55157 0.04897 0.0
N376 N 0.50962 0.55009 1.00961 0.0
O377 O 0.45473 0.66583 0.08714 0.0
H378 H 0.46435 0.63796 1.01514 0.0
H379 H 0.49431 0.52683 0.07102 0.0
O380 O 0.39193 0.60931 0.07606 0.0
C381 C 0.48596 0.68023 0.10756 0.0
O382 O 0.50537 0.65587 0.13335 0.0
N383 N 0.43611 0.56101 0.13125 0.0
C384 C 0.43539 0.51548 0.20511 0.0
C385 C 0.39864 0.52264 0.18262 0.0
C386 C 0.39957 0.54615 0.14594 0.0
C387 C 0.4722 0.54993 0.14948 0.0
C388 C 0.47262 0.52706 0.18619 0.0
H389 H 0.37082 0.55675 0.13325 0.0
H390 H 0.50067 0.564 0.13931 0.0
H391 H 0.37262 0.67996 0.12921 0.0
H392 H 0.39872 0.65341 0.2566 0.0
H393 H 0.50765 0.5952 0.96067 0.0
H394 H 0.36913 0.51355 0.19523 0.0
H395 H 0.50189 0.52326 0.20203 0.0
C396 C 0.06953 0.60945 0.94608 0.0
C397 C 0.04308 0.58906 0.97233 0.0
N398 N 0.06412 0.56102 0.99387 0.0
N399 N 0.10788 0.5948 0.94993 0.0
C400 C 0.10369 0.56528 0.97994 0.0
H401 H 0.061 0.6333 0.92461 0.0
Co402 Co 0.15035 0.61582 0.91267 0.0
C403 C 0.2263 0.62251 0.96233 0.0
O404 O 0.22943 0.6597 0.94753 0.0
N405 N 0.19283 0.63721 0.87362 0.0
C406 C 0.25245 0.63675 0.83819 0.0
C407 C 0.22462 0.61386 0.86095 0.0
C408 C 0.20227 0.67453 0.8564 0.0
N409 N 0.23863 0.67517 0.83525 0.0
O410 O 0.15077 0.56371 0.8829 0.0
H411 H 0.22839 0.5822 0.86928 0.0
H412 H 0.18417 0.70163 0.86033 0.0
O413 O 0.19501 0.59966 0.95213 0.0
C414 C 0.11892 0.5599 0.85894 0.0
O415 O 0.09332 0.59051 0.85754 0.0
N416 N 0.14516 0.6667 0.93916 0.0
C417 C 0.12787 0.74492 0.96858 0.0
C418 C 0.14297 0.716 0.9967 0.0
C419 C 0.15087 0.67642 0.98134 0.0
C420 C 0.12655 0.69325 0.91295 0.0
C421 C 0.11898 0.73298 0.92648 0.0
H422 H 0.16088 0.65356 1.00327 0.0
H423 H 0.11772 0.68332 0.88106 0.0
H424 H 0.12876 0.54653 0.99044 0.0
H425 H 1.01053 0.59467 0.97547 0.0
H426 H 0.28092 0.62582 0.82491 0.0
H427 H 0.14771 0.72369 0.03008 0.0
H428 H 0.10459 0.75369 0.90466 0.0
C429 C 0.17598 0.39796 0.66193 0.0
C430 C 0.20081 0.37214 0.68447 0.0
N431 N 0.1772 0.34495 0.70532 0.0
N432 N 0.1361 0.38779 0.66758 0.0
C433 C 0.13791 0.35523 0.6943 0.0
H434 H 0.18658 0.42306 0.64285 0.0
Co435 Co 0.08933 0.4178 0.64434 0.0
C436 C 0.03604 0.35177 0.60827 0.0
O437 O 0.02813 0.37416 0.57513 0.0
N438 N 0.04097 0.44725 0.62178 0.0
C439 C 0.97453 0.46468 0.61799 0.0
C440 C 1.00384 0.44378 0.64042 0.0
C441 C 0.03259 0.47136 0.58751 0.0
N442 N 0.99229 0.48228 0.58438 0.0
O443 O 0.07129 0.4273 0.70152 0.0
H444 H 0.99797 0.42618 0.66847 0.0
H445 H 0.05501 0.48004 0.56421 0.0
O446 O 0.05939 0.36603 0.63821 0.0
C447 C 0.09616 0.45582 0.71441 0.0
O448 O 0.12181 0.47167 0.68703 0.0
N449 N 0.11188 0.41354 0.59055 0.0
C450 C 0.17531 0.41984 0.53248 0.0
C451 C 0.15762 0.38138 0.54137 0.0
C452 C 0.12577 0.3788 0.57092 0.0
C453 C 0.12711 0.45101 0.58012 0.0
C454 C 0.15783 0.45499 0.55022 0.0
H455 H 0.11606 0.34899 0.58158 0.0
H456 H 0.11859 0.47782 0.59859 0.0
H457 H 0.11076 0.34002 0.70629 0.0
H458 H 0.23404 0.37345 0.68503 0.0
H459 H 0.94244 0.46695 0.62627 0.0
H460 H 0.17097 0.35347 0.5289 0.0
H461 H 0.17137 0.48507 0.54553 0.0
C462 C 0.60687 0.64873 0.71183 0.0
C463 C 0.578 0.62411 0.69114 0.0
N464 N 0.58026 0.63034 0.649 0.0
N465 N 0.62796 0.67056 0.68327 0.0
C466 C 0.61077 0.65902 0.6451 0.0
H467 H 0.61215 0.65073 0.74581 0.0
Co468 Co 0.6706 0.70799 0.70015 0.0
C469 C 0.72748 0.70676 0.62719 0.0
O470 O 0.75863 0.70595 0.65404 0.0
N471 N 0.71245 0.74699 0.71844 0.0
C472 C 0.75052 0.80451 0.71922 0.0
C473 C 0.72401 0.77966 0.69563 0.0
C474 C 0.73181 0.75371 0.75664 0.0
N475 N 0.75549 0.78849 0.758 0.0
O476 O 0.63547 0.75144 0.6886 0.0
H477 H 0.71285 0.78583 0.66398 0.0
H478 H 0.72714 0.73474 0.78378 0.0
O479 O 0.69075 0.70832 0.64125 0.0
C480 C 0.61539 0.76461 0.72049 0.0
O481 O 0.62364 0.75017 0.7582 0.0
N482 N 0.70287 0.66345 0.71436 0.0
C483 C 0.72525 0.5868 0.7427 0.0
C484 C 0.72795 0.59613 0.6996 0.0
C485 C 0.71446 0.63369 0.68588 0.0
C486 C 0.70305 0.65595 0.75677 0.0
C487 C 0.71436 0.61789 0.77175 0.0
H488 H 0.70936 0.63648 0.65227 0.0
H489 H 0.68948 0.67766 0.77866 0.0
H490 H 0.62065 0.67106 0.61505 0.0
H491 H 0.5564 0.60366 0.70625 0.0
H492 H 0.76445 0.83264 0.70843 0.0
H493 H 0.73609 0.57306 0.67599 0.0
H494 H 0.71035 0.61175 0.80513 0.0
C495 C 0.39432 0.36405 0.45499 0.0
C496 C 0.37271 0.33639 0.42916 0.0
N497 N 0.35512 0.35664 0.39697 0.0
N498 N 0.39099 0.40188 0.43933 0.0
C499 C 0.36674 0.39641 0.40421 0.0
H500 H 0.41124 0.35696 0.48355 0.0
Co501 Co 0.41314 0.45172 0.46308 0.0
C502 C 0.4459 0.4913 0.38607 0.0
O503 O 0.48063 0.5018 0.40533 0.0
N504 N 0.43511 0.50297 0.48694 0.0
C505 C 0.44692 0.57037 0.49627 0.0
C506 C 0.42467 0.54051 0.47376 0.0
C507 C 0.46322 0.51142 0.51855 0.0
N508 N 0.47136 0.55203 0.52459 0.0
O509 O 0.3589 0.4714 0.46641 0.0
H510 H 0.4024 0.54595 0.44888 0.0
H511 H 0.47814 0.4886 0.53697 0.0
O512 O 0.41797 0.47199 0.40586 0.0
C513 C 0.34488 0.45508 0.49974 0.0
O514 O 0.37124 0.43917 0.52634 0.0
N515 N 0.46495 0.42875 0.46339 0.0
C516 C 0.53524 0.3835 0.47724 0.0
C517 C 0.52311 0.39348 0.43578 0.0
C518 C 0.48727 0.41549 0.42944 0.0
C519 C 0.47521 0.41741 0.50339 0.0
C520 C 0.51099 0.3963 0.51132 0.0
H521 H 0.47638 0.41938 0.39734 0.0
H522 H 0.45465 0.42391 0.52939 0.0
H523 H 0.35718 0.42149 0.38483 0.0
H524 H 0.37055 0.30375 0.43392 0.0
H525 H 0.44473 0.60309 0.49238 0.0
H526 H 0.53948 0.38202 0.40828 0.0
H527 H 0.51845 0.38845 0.5437 0.0
C528 C 0.2964 0.34542 0.29263 0.0
C529 C 0.28112 0.30471 0.29337 0.0
H530 H 0.33164 0.39341 0.3236 0.0
C531 C 0.29019 0.28175 0.32951 0.0
H532 H 0.28995 0.36474 0.26607 0.0
C533 C 0.31392 0.29875 0.36337 0.0
C534 C 0.32966 0.33931 0.36232 0.0
H535 H 0.27943 0.25036 0.3316 0.0
H536 H 0.31974 0.27979 0.39038 0.0
C537 C 0.32026 0.36231 0.32631 0.0
C538 C 0.06539 0.02716 0.45964 0.0
C539 C 0.03351 1.0178 0.48837 0.0
H540 H 0.10852 1.00496 0.41309 0.0
C541 C 1.02283 0.97621 0.49286 0.0
H542 H 0.07487 0.05871 0.4554 0.0
C543 C 0.04189 0.94539 0.46804 0.0
C544 C 0.07293 0.95486 0.43839 0.0
H545 H 0.99851 0.9676 0.5143 0.0
H546 H 0.03187 0.91391 0.47171 0.0
C547 C 0.08502 0.99625 0.43543 0.0
C548 C 0.23745 0.73836 0.79148 0.0
C549 C 0.25951 0.70927 0.81443 0.0
H550 H 0.24017 0.78846 0.748 0.0
C551 C 0.30291 0.71269 0.81429 0.0
H552 H 0.20421 0.73669 0.79038 0.0
C553 C 0.32348 0.74318 0.79094 0.0
C554 C 0.30142 0.77097 0.76646 0.0
H555 H 0.32111 0.69114 0.83166 0.0
H556 H 0.35674 0.74363 0.79014 0.0
C557 C 0.25809 0.76824 0.76734 0.0
C558 C 0.40781 0.03028 1.01653 0.0
C559 C 0.42925 0.06207 0.99633 0.0
H560 H 0.41028 0.98028 0.05981 0.0
C561 C 0.47224 0.06494 1.00364 0.0
H562 H 0.37488 0.02696 1.01214 0.0
C563 C 0.49279 0.03804 0.03094 0.0
C564 C 0.47117 1.00736 0.05271 0.0
H565 H 0.49016 0.08864 0.98857 0.0
H566 H 0.52552 0.0423 0.03614 0.0
C567 C 0.42831 1.00366 0.0444 0.0
C568 C 0.34872 0.74728 0.20234 0.0
C569 C 0.34555 0.70593 0.21358 0.0
H570 H 0.33001 0.80926 0.21539 0.0
C571 C 0.3169 0.69549 0.24515 0.0
H572 H 0.37084 0.7565 0.17876 0.0
C573 C 0.29272 0.72553 0.26545 0.0
C574 C 0.29743 0.76718 0.25578 0.0
H575 H 0.314 0.664 0.25487 0.0
H576 H 0.27192 0.7165 0.29033 0.0
C577 C 0.32547 0.7775 0.22355 0.0
C578 C 0.54898 0.99903 0.59495 0.0
C579 C 0.50706 0.98701 0.59044 0.0
H580 H 0.60117 0.03112 0.56857 0.0
C581 C 0.48691 0.99726 0.55247 0.0
H582 H 0.56596 0.99143 0.62334 0.0
C583 C 0.50717 1.02024 0.52125 0.0
C584 C 0.54863 0.03334 0.52627 0.0
H585 H 0.45486 0.9889 0.54754 0.0
H586 H 0.48998 0.02849 0.4932 0.0
C587 C 0.5695 0.02149 0.56327 0.0
C588 C 0.24754 0.28231 0.7765 0.0
C589 C 0.22299 0.2478 0.78625 0.0
H590 H 0.25277 0.3396 0.74481 0.0
C591 C 0.1825 0.24665 0.76883 0.0
H592 H 0.27854 0.28533 0.78898 0.0
C593 C 0.16742 0.27828 0.74315 0.0
C594 C 0.19207 0.31257 0.73326 0.0
H595 H 0.16199 0.22107 0.7745 0.0
H596 H 0.13646 0.27537 0.73044 0.0
C597 C 0.23247 0.31385 0.75069 0.0
C598 C 0.03472 0.07439 0.1229 0.0
C599 C 0.05247 0.11329 0.11575 0.0
H600 H 0.99484 0.02565 0.10023 0.0
C601 C 0.04331 0.13205 0.07704 0.0
H602 H 0.04132 0.05859 0.15196 0.0
C603 C 1.01635 0.1129 0.047 0.0
C604 C 0.99816 0.07419 0.05455 0.0
H605 H 0.05617 0.16197 0.0704 0.0
H606 H 1.0099 0.12843 1.01775 0.0
C607 C 1.00818 0.05517 0.09286 0.0
C608 C 0.816 0.19585 0.74352 0.0
C609 C 0.84536 0.20638 0.71269 0.0
H610 H 0.77058 0.21681 0.78824 0.0
C611 C 0.8494 0.24789 0.70227 0.0
H612 H 0.81246 0.16423 0.75263 0.0
C613 C 0.82625 0.27813 0.72359 0.0
C614 C 0.79749 0.2677 0.75511 0.0
H615 H 0.8721 0.25717 0.67931 0.0
H616 H 0.83146 0.30997 0.71612 0.0
C617 C 0.79194 0.22594 0.76391 0.0
C618 C 1.00576 0.51679 1.01768 0.0
C619 C 0.04572 0.53348 1.0247 0.0
H620 H 0.95384 0.48383 0.04284 0.0
C621 C 0.06451 0.52652 0.06428 0.0
H622 H 0.99021 0.52135 0.98764 0.0
C623 C 0.04322 0.50538 0.09637 0.0
C624 C 1.00267 0.48983 0.08976 0.0
H625 H 0.09493 0.53907 0.07112 0.0
H626 H 0.05845 0.50167 0.12671 0.0
C627 C 0.9848 0.49506 0.04939 0.0
C628 C 0.74919 0.77844 0.27093 0.0
C629 C 0.72287 0.74768 0.28671 0.0
H630 H 0.7562 0.83238 0.23415 0.0
C631 C 0.68067 0.75024 0.27513 0.0
H632 H 0.78166 0.77843 0.27851 0.0
C633 C 0.66573 0.78154 0.24893 0.0
C634 C 0.69211 0.81206 0.23288 0.0
H635 H 0.65851 0.72804 0.28617 0.0
H636 H 0.63331 0.78141 0.24101 0.0
C637 C 0.73422 0.80979 0.24479 0.0
C638 C 0.97214 0.56616 0.5049 0.0
C639 C 0.92927 0.56256 0.49708 0.0
H640 H 0.02555 0.54401 0.5376 0.0
C641 C 0.90824 0.53006 0.51653 0.0
H642 H 0.98975 0.59045 0.49043 0.0
C643 C 0.92897 0.50342 0.54417 0.0
C644 C 0.97169 0.50782 0.55297 0.0
H645 H 0.8754 0.52618 0.51173 0.0
H646 H 0.91124 0.47947 0.55903 0.0
C647 C 0.99295 0.53922 0.53195 0.0
C648 C 0.58477 0.49676 0.93534 0.0
C649 C 0.57317 0.45524 0.93836 0.0
H650 H 0.57381 0.55911 0.95522 0.0
C651 C 0.5423 0.44542 0.96806 0.0
H652 H 0.60809 0.50571 0.91291 0.0
C653 C 0.52292 0.47602 0.99291 0.0
C654 C 0.53306 0.51773 0.98834 0.0
H655 H 0.53262 0.41383 0.9717 0.0
H656 H 0.49872 0.46714 1.01438 0.0
C657 C 0.56477 0.52745 0.95954 0.0
C658 C 0.79401 0.84722 0.79309 0.0
C659 C 0.77952 0.80622 0.79354 0.0
H660 H 0.82854 0.8956 0.82424 0.0
C661 C 0.78948 0.78309 0.8293 0.0
H662 H 0.78691 0.86667 0.76682 0.0
C663 C 0.81321 0.8002 0.86311 0.0
C664 C 0.8281 0.84109 0.8624 0.0
H665 H 0.77941 0.75147 0.83119 0.0
H666 H 0.81968 0.78103 0.88978 0.0
C667 C 0.81789 0.86424 0.82672 0.0
C668 C 0.80419 0.19353 0.2958 0.0
C669 C 0.76405 0.20164 0.31004 0.0
H670 H 0.85723 0.21419 0.26183 0.0
C671 C 0.749 0.24141 0.3031 0.0
H672 H 0.8179 0.16416 0.30116 0.0
C673 C 0.77254 0.27092 0.28073 0.0
C674 C 0.81178 0.26151 0.26478 0.0
H675 H 0.71841 0.2492 0.31337 0.0
H676 H 0.75925 0.30027 0.27406 0.0
C677 C 0.82727 0.22262 0.27353 0.0
C678 C 0.51734 0.61072 0.54822 0.0
C679 C 0.49991 0.57154 0.55515 0.0
H680 H 0.55672 0.65993 0.57207 0.0
C681 C 0.5109 0.55186 0.59281 0.0
H682 H 0.51015 0.62678 0.51948 0.0
C683 C 0.53765 0.57083 0.62279 0.0
C684 C 0.55464 0.61017 0.61627 0.0
H685 H 0.49817 0.52197 0.59973 0.0
H686 H 0.54503 0.55448 0.6513 0.0
C687 C 0.54448 0.62965 0.57822 0.0
C688 C 0.23555 0.03074 0.2932 0.0
C689 C 0.22008 0.0424 0.25349 0.0
H690 H 0.23956 0.98305 0.33866 0.0
C691 C 0.19873 1.01318 0.22778 0.0
H692 H 0.25228 0.0525 0.31362 0.0
C693 C 0.19195 0.97374 0.24177 0.0
C694 C 0.20572 0.9626 0.2821 0.0
H695 H 0.18522 1.02114 0.19757 0.0
H696 H 0.17442 0.95249 0.22146 0.0
C697 C 0.2283 0.99108 0.30749 0.0
C698 C 0.20826 0.86237 0.51484 0.0
C699 C 0.21998 0.87032 0.47294 0.0
H700 H 0.22536 0.86551 0.5807 0.0
C701 C 0.25699 0.89166 0.46579 0.0
H702 H 0.17966 0.84632 0.52126 0.0
C703 C 0.28252 0.90353 0.49976 0.0
C704 C 0.27187 0.89382 0.54153 0.0
H705 H 0.26642 0.89906 0.4339 0.0
H706 H 0.31123 0.91935 0.49323 0.0
C707 C 0.2341 0.87388 0.54889 0.0
C708 C 0.31395 1.00712 0.73919 0.0
C709 C 0.34739 0.98433 0.75324 0.0
H710 H 0.2727 0.05578 0.75237 0.0
C711 C 0.36083 0.98949 0.79569 0.0
H712 H 0.30255 1.00337 0.70683 0.0
C713 C 0.34361 1.02005 0.82217 0.0
C714 C 0.31276 0.0456 0.80637 0.0
H715 H 0.38661 0.97226 0.80727 0.0
H716 H 0.35681 0.0259 0.8535 0.0
C717 C 0.29668 0.03705 0.76545 0.0
C718 C 0.22533 0.20872 1.00666 0.0
C719 C 0.25335 0.17788 0.99599 0.0
H720 H 0.19409 0.24111 0.05679 0.0
C721 C 0.27001 0.15429 1.02835 0.0
H722 H 0.21249 0.22762 0.98219 0.0
C723 C 0.26084 0.16314 0.07088 0.0
C724 C 0.23399 0.19495 0.08168 0.0
H725 H 0.29225 0.13089 1.02103 0.0
H726 H 0.27535 0.14554 0.09545 0.0
C727 C 0.21507 0.21666 0.04918 0.0
C728 C 0.05629 0.30331 0.25082 0.0
C729 C 0.08352 0.29584 0.21703 0.0
H730 H 0.99807 0.32776 0.2696 0.0
C731 C 0.07532 0.31255 0.17732 0.0
H732 H 0.06203 0.29103 0.28195 0.0
C733 C 0.03905 0.33335 0.17049 0.0
C734 C 1.01026 0.33799 0.20318 0.0
H735 H 0.09593 0.30788 0.15087 0.0
H736 H 0.03276 0.34431 0.13888 0.0
C737 C 1.01979 0.32439 0.24393 0.0
C738 C 0.55482 0.19365 0.80225 0.0
C739 C 0.57074 0.21384 0.83901 0.0
H740 H 0.50113 0.16752 0.77109 0.0
C741 C 0.54572 0.21831 0.87484 0.0
H742 H 0.57363 0.18982 0.77426 0.0
C743 C 0.50455 0.20645 0.87264 0.0
C744 C 0.48783 0.18961 0.83476 0.0
H745 H 0.55691 0.23415 0.90341 0.0
H746 H 0.48533 0.21186 0.90008 0.0
C747 C 0.5135 0.18136 0.80023 0.0
C748 C 1.0048 0.70626 0.37605 0.0
C749 C 0.98864 0.68829 0.33843 0.0
H750 H 0.05673 0.73487 0.4068 0.0
C751 C 1.01491 0.67883 0.30471 0.0
H752 H 0.98514 0.7126 0.40295 0.0
C753 C 0.05623 0.69108 0.30708 0.0
C754 C 0.07157 0.71249 0.34338 0.0
H755 H 1.00302 0.66412 0.27581 0.0
H756 H 0.07549 0.68635 0.27956 0.0
C757 C 0.04598 0.7181 0.3786 0.0
C758 C 0.55452 0.80234 0.7488 0.0
C759 C 0.5787 0.78967 0.71413 0.0
H760 H 0.49786 0.82932 0.76892 0.0
C761 C 0.5653 0.79761 0.67274 0.0
H762 H 0.56423 0.79674 0.78114 0.0
C763 C 0.5275 0.81557 0.66594 0.0
C764 C 0.50233 0.82642 0.70033 0.0
H765 H 0.58321 0.78847 0.64536 0.0
H766 H 0.51768 0.82025 0.63344 0.0
C767 C 0.5166 0.82087 0.74193 0.0
C768 C 0.96965 0.9854 0.76902 0.0
C769 C 0.93531 1.00404 0.75043 0.0
H770 H 1.00029 0.96872 0.82659 0.0
C771 C 0.9031 1.01651 0.77729 0.0
H772 H 0.99455 0.97413 0.7497 0.0
C773 C 0.90594 1.01186 0.82129 0.0
C774 C 0.94153 0.99603 0.83954 0.0
H775 H 0.87642 0.03167 0.76485 0.0
H776 H 0.88103 0.02221 0.84124 0.0
C777 C 0.97307 0.98223 0.81312 0.0
C778 C 0.81405 0.05863 0.50716 0.0
C779 C 0.83543 0.0894 0.53107 0.0
H780 H 0.76256 0.04398 0.46565 0.0
C781 C 0.81858 0.12862 0.53421 0.0
H782 H 0.82606 0.02797 0.50442 0.0
C783 C 0.78265 0.13756 0.51215 0.0
C784 C 0.76228 0.1075 0.48674 0.0
H785 H 0.83386 0.15298 0.55259 0.0
H786 H 0.77142 0.1686 0.51397 0.0
C787 C 0.77753 0.06757 0.48533 0.0
C788 C 0.56945 1.0125 0.31514 0.0
C789 C 0.60923 1.02122 0.33158 0.0
H790 H 0.53335 0.98294 0.26529 0.0
C791 C 0.64266 1.00041 0.31421 0.0
H792 H 0.543 0.02786 0.3282 0.0
C793 C 0.63699 0.97494 0.2782 0.0
C794 C 0.59778 0.96924 0.2595 0.0
H795 H 0.67357 1.00642 0.32612 0.0
H796 H 0.66377 0.96199 0.26311 0.0
C797 C 0.56372 0.98648 0.27944 0.0
C798 C 0.72686 0.9575 0.9879 0.0
C799 C 0.71607 0.92492 1.01443 0.0
H800 H 0.77594 0.99389 0.96204 0.0
C801 C 0.74733 0.9017 0.03237 0.0
H802 H 0.70326 0.97602 0.97386 0.0
C803 C 0.78835 0.91253 1.0266 0.0
C804 C 0.79924 0.94656 1.00233 0.0
H805 H 0.74017 0.87694 0.05355 0.0
H806 H 0.81157 0.89462 0.04213 0.0
C807 C 0.76827 0.96802 0.98155 0.0
C808 C 0.08293 0.7879 1.01298 0.0
C809 C 0.11454 0.78548 0.98323 0.0
H810 H 0.03136 0.82135 0.03461 0.0
C811 C 0.12493 0.81995 0.9595 0.0
H812 H 0.07427 0.76148 0.0313 0.0
C813 C 0.10047 0.85452 0.96139 0.0
C814 C 0.06528 0.85478 0.98685 0.0
H815 H 0.14948 0.81858 0.9365 0.0
H816 H 0.10716 0.87957 0.94045 0.0
C817 C 0.05827 0.82229 1.01467 0.0
C818 C 0.52746 0.73964 0.13628 0.0
C819 C 0.4982 0.72406 0.10664 0.0
H820 H 0.56166 0.7917 0.16025 0.0
C821 C 0.4805 0.75091 0.07774 0.0
H822 H 0.54156 0.71993 0.15925 0.0
C823 C 0.4923 0.79243 0.07824 0.0
C824 C 0.5216 0.80786 0.10799 0.0
H825 H 0.45776 0.73984 0.05468 0.0
H826 H 0.47846 0.8124 0.05536 0.0
C827 C 0.53884 0.78099 0.13709 0.0
C828 C 0.02727 0.24028 0.6371 0.0
C829 C 0.99833 0.22468 0.60714 0.0
H830 H 0.06131 0.29234 0.66132 0.0
C831 C 0.98097 0.25149 0.57799 0.0
H832 H 0.04109 0.2206 0.66027 0.0
C833 C 0.99284 0.29299 0.57854 0.0
C834 C 1.02188 0.30844 0.60856 0.0
H835 H 0.95848 0.24041 0.55468 0.0
H836 H 0.9793 0.31293 0.55543 0.0
C837 C 0.03872 0.28161 0.63794 0.0
C838 C 0.56269 0.3216 0.51206 0.0
C839 C 0.56858 0.35406 0.48395 0.0
H840 H 0.58005 0.26124 0.52875 0.0
C841 C 0.60326 0.3542 0.45773 0.0
H842 H 0.53621 0.3203 0.53259 0.0
C843 C 0.62826 0.32003 0.45549 0.0
C844 C 0.61896 0.28556 0.47966 0.0
H845 H 0.60914 0.37926 0.43655 0.0
H846 H 0.65237 0.31894 0.43199 0.0
C847 C 0.58792 0.28765 0.51007 0.0
C848 C 0.72999 0.49226 0.81004 0.0
C849 C 0.70886 0.46361 0.78354 0.0
H850 H 0.75319 0.55389 0.81735 0.0
C851 C 0.69732 0.47456 0.74242 0.0
H852 H 0.73955 0.48437 0.84184 0.0
C853 C 0.70462 0.514 0.7287 0.0
C854 C 0.72428 0.54347 0.75552 0.0
H855 H 0.68104 0.45316 0.72119 0.0
H856 H 0.69264 0.52176 0.69776 0.0
C857 C 0.73776 0.53195 0.79606 0.0
C858 C 0.70731 0.35502 1.0144 0.0
C859 C 0.71915 0.36549 0.97318 0.0
H860 H 0.72421 0.35433 0.08032 0.0
C861 C 0.75638 0.38685 0.96743 0.0
H862 H 0.67857 0.33882 1.01973 0.0
C863 C 0.78188 0.39656 1.00206 0.0
C864 C 0.77103 0.3846 0.04311 0.0
H865 H 0.76592 0.39613 0.93614 0.0
H866 H 0.81057 0.41283 0.99657 0.0
C867 C 0.73316 0.36435 0.04912 0.0
C868 C 0.85795 0.48762 0.2959 0.0
C869 C 0.84201 0.48159 0.25445 0.0
H870 H 0.85757 0.52542 0.353 0.0
C871 C 0.80781 0.50421 0.24206 0.0
H872 H 0.88438 0.47061 0.3062 0.0
C873 C 0.79239 0.53496 0.26861 0.0
C874 C 0.81094 0.54432 0.30821 0.0
H875 H 0.7945 0.49985 0.21054 0.0
H876 H 0.76788 0.55369 0.2566 0.0
C877 C 0.84247 0.51889 0.32271 0.0
C878 C 0.71434 0.71655 0.54952 0.0
C879 C 0.73449 0.69597 0.58207 0.0
H880 H 0.71036 0.72642 0.48236 0.0
C881 C 0.7623 0.66499 0.57134 0.0
H882 H 0.69261 0.74033 0.55709 0.0
C883 C 0.77108 0.65581 0.52879 0.0
C884 C 0.75305 0.67827 0.4963 0.0
H885 H 0.77777 0.64827 0.59597 0.0
H886 H 0.794 0.63308 0.52147 0.0
C887 C 0.72421 0.70833 0.50694 0.0
C888 C 0.46954 0.48462 0.26903 0.0
C889 C 0.43517 0.50347 0.25074 0.0
H890 H 0.50045 0.46758 0.32633 0.0
C891 C 0.40316 0.51592 0.27785 0.0
H892 H 0.4943 0.47334 0.2495 0.0
C893 C 0.40622 0.51107 0.32182 0.0
C894 C 0.44187 0.49504 0.33977 0.0
H895 H 0.37646 0.53122 0.26564 0.0
H896 H 0.38146 0.52141 0.34198 0.0
C897 C 0.4732 0.48124 0.31309 0.0
C898 C 0.28045 0.63841 1.01627 0.0
C899 C 0.25979 0.60893 0.99037 0.0
H900 H 0.33227 0.65297 0.05616 0.0
C901 C 0.27522 0.56911 0.9875 0.0
H902 H 0.26912 0.66935 1.01919 0.0
C903 C 0.31213 0.55974 1.00839 0.0
C904 C 0.33378 0.58997 0.03277 0.0
H905 H 0.26005 0.54599 0.96738 0.0
H906 H 0.32422 0.52921 1.00452 0.0
C907 C 0.3168 0.62903 0.03736 0.0
C908 C 0.14472 0.50261 0.81268 0.0
C909 C 0.11172 0.52443 0.82953 0.0
H910 H 0.165 0.46269 0.76239 0.0
C911 C 0.07179 0.51618 0.81329 0.0
H912 H 0.17573 0.50834 0.82447 0.0
C913 C 0.06551 0.48948 0.77824 0.0
C914 C 0.09917 0.4711 0.75872 0.0
H915 H 0.04567 0.53235 0.82601 0.0
H916 H 0.03507 0.48627 0.76417 0.0
C917 C 0.13851 0.47646 0.77726 0.0
C918 C 0.28963 0.41091 0.52864 0.0
C919 C 0.30092 0.44427 0.50359 0.0
H920 H 0.24102 0.37625 0.55606 0.0
C921 C 0.27019 0.46561 0.48226 0.0
H922 H 0.31261 0.39312 0.54469 0.0
C923 C 0.22868 0.45555 0.4886 0.0
C924 C 0.2175 0.42354 0.51567 0.0
H925 H 0.27815 0.49098 0.46218 0.0
H926 H 0.20529 0.47394 0.47399 0.0
C927 C 0.24849 0.40053 0.53441 0.0
loop_
_geom_bond_atom_site_label_1
_geom_bond_atom_site_label_2
_geom_bond_distance
_geom_bond_site_symmetry_2
_ccdc_geom_bond_type
C0 C1 1.351 . S
C0 N3 1.368 . S
C0 H5 0.931 . S
C1 C0 1.351 . S
C1 N2 1.373 . S
C1 H29 0.930 1_455 S
N2 C1 1.373 . S
N2 C4 1.340 . S
N3 C0 1.368 . S
N3 C4 1.321 . S
N3 Co6 2.135 . S
C4 N2 1.340 . S
C4 N3 1.321 . S
C4 H28 0.930 . S
H5 C0 0.931 . S
Co6 N3 2.135 . S
Co6 N9 2.121 . S
Co6 O14 2.055 . S
Co6 O17 2.039 . S
Co6 N20 2.140 . S
C7 O8 1.227 . S
C7 O17 1.265 . S
O8 C7 1.227 . S
N9 Co6 2.121 . S
N9 C11 1.375 . S
N9 C12 1.313 . S
C10 C11 1.338 . S
C10 N13 1.377 . S
C10 H30 0.930 . S
C11 N9 1.375 . S
C11 C10 1.338 . S
C11 H15 0.931 . S
C12 N9 1.313 . S
C12 N13 1.344 . S
C12 H16 0.930 . S
N13 C10 1.377 . S
N13 C12 1.344 . S
O14 Co6 2.055 . S
O14 C18 1.253 . S
H15 C11 0.931 . S
H16 C12 0.930 . S
O17 Co6 2.039 . S
O17 C7 1.265 . S
C18 O14 1.253 . S
C18 O19 1.227 . S
O19 C18 1.227 . S
N20 Co6 2.140 . S
N20 C23 1.346 . S
N20 C24 1.345 . S
C21 C22 1.387 . S
C21 C25 1.391 . S
C22 C21 1.387 . S
C22 C23 1.369 . S
C22 H31 0.929 . S
C23 N20 1.346 . S
C23 C22 1.369 . S
C23 H26 0.928 . S
C24 N20 1.345 . S
C24 C25 1.371 . S
C24 H27 0.931 . S
C25 C21 1.391 . S
C25 C24 1.371 . S
C25 H32 0.930 . S
H26 C23 0.928 . S
H27 C24 0.931 . S
H28 C4 0.930 . S
H29 C1 0.930 1_655 S
H30 C10 0.930 . S
H31 C22 0.929 . S
H32 C25 0.930 . S
C33 C34 1.351 . S
C33 N36 1.368 . S
C33 H38 0.931 . S
C34 C33 1.351 . S
C34 N35 1.373 . S
C34 H62 0.930 . S
N35 C34 1.373 . S
N35 C37 1.340 . S
N36 C33 1.368 . S
N36 C37 1.321 . S
N36 Co39 2.135 . S
C37 N35 1.340 . S
C37 N36 1.321 . S
C37 H61 0.930 . S
H38 C33 0.931 . S
Co39 N36 2.135 . S
Co39 N42 2.121 . S
Co39 O47 2.055 . S
Co39 O50 2.039 . S
Co39 N53 2.140 . S
C40 O41 1.227 . S
C40 O50 1.265 . S
O41 C40 1.227 . S
N42 Co39 2.121 . S
N42 C44 1.375 . S
N42 C45 1.313 . S
C43 C44 1.338 . S
C43 N46 1.377 . S
C43 H63 0.930 . S
C44 N42 1.375 . S
C44 C43 1.338 . S
C44 H48 0.931 . S
C45 N42 1.313 . S
C45 N46 1.344 . S
C45 H49 0.930 . S
N46 C43 1.377 . S
N46 C45 1.344 . S
O47 Co39 2.055 . S
O47 C51 1.253 . S
H48 C44 0.931 . S
H49 C45 0.930 . S
O50 Co39 2.039 . S
O50 C40 1.265 . S
C51 O47 1.253 . S
C51 O52 1.227 . S
O52 C51 1.227 . S
N53 Co39 2.140 . S
N53 C56 1.346 . S
N53 C57 1.345 . S
C54 C55 1.387 . S
C54 C58 1.391 . S
C55 C54 1.387 . S
C55 C56 1.369 . S
C55 H64 0.929 . S
C56 N53 1.346 . S
C56 C55 1.369 . S
C56 H59 0.928 . S
C57 N53 1.345 . S
C57 C58 1.371 . S
C57 H60 0.931 . S
C58 C54 1.391 . S
C58 C57 1.371 . S
C58 H65 0.930 . S
H59 C56 0.928 . S
H60 C57 0.931 . S
H61 C37 0.930 . S
H62 C34 0.930 . S
H63 C43 0.930 . S
H64 C55 0.929 . S
H65 C58 0.930 . S
C66 C67 1.351 . S
C66 N69 1.368 . S
C66 H71 0.931 . S
C67 C66 1.351 . S
C67 N68 1.373 . S
C67 H95 0.930 . S
N68 C67 1.373 . S
N68 C70 1.340 . S
N69 C66 1.368 . S
N69 C70 1.321 . S
N69 Co72 2.135 . S
C70 N68 1.340 . S
C70 N69 1.321 . S
C70 H94 0.930 . S
H71 C66 0.931 . S
Co72 N69 2.135 . S
Co72 N75 2.121 . S
Co72 O80 2.055 . S
Co72 O83 2.039 . S
Co72 N86 2.140 . S
C73 O74 1.227 . S
C73 O83 1.265 . S
O74 C73 1.227 . S
N75 Co72 2.121 . S
N75 C77 1.375 . S
N75 C78 1.313 . S
C76 C77 1.338 . S
C76 N79 1.377 . S
C76 H96 0.930 . S
C77 N75 1.375 . S
C77 C76 1.338 . S
C77 H81 0.931 . S
C78 N75 1.313 . S
C78 N79 1.344 . S
C78 H82 0.930 . S
N79 C76 1.377 . S
N79 C78 1.344 . S
O80 Co72 2.055 . S
O80 C84 1.253 . S
H81 C77 0.931 . S
H82 C78 0.930 . S
O83 Co72 2.039 . S
O83 C73 1.265 . S
C84 O80 1.253 . S
C84 O85 1.227 . S
O85 C84 1.227 . S
N86 Co72 2.140 . S
N86 C89 1.346 . S
N86 C90 1.345 . S
C87 C88 1.387 . S
C87 C91 1.391 . S
C88 C87 1.387 . S
C88 C89 1.369 . S
C88 H97 0.929 . S
C89 N86 1.346 . S
C89 C88 1.369 . S
C89 H92 0.928 . S
C90 N86 1.345 . S
C90 C91 1.371 . S
C90 H93 0.931 . S
C91 C87 1.391 . S
C91 C90 1.371 . S
C91 H98 0.930 . S
H92 C89 0.928 . S
H93 C90 0.931 . S
H94 C70 0.930 . S
H95 C67 0.930 . S
H96 C76 0.930 . S
H97 C88 0.929 . S
H98 C91 0.930 . S
C99 C100 1.351 . S
C99 N102 1.368 . S
C99 H104 0.931 . S
C100 C99 1.351 . S
C100 N101 1.373 . S
C100 H128 0.930 1_556 S
N101 C100 1.373 . S
N101 C103 1.340 . S
N102 C99 1.368 . S
N102 C103 1.321 . S
N102 Co105 2.135 . S
C103 N101 1.340 . S
C103 N102 1.321 . S
C103 H127 0.930 . S
H104 C99 0.931 . S
Co105 N102 2.135 . S
Co105 N108 2.121 . S
Co105 O113 2.055 . S
Co105 O116 2.039 . S
Co105 N119 2.140 . S
C106 O107 1.227 . S
C106 O116 1.265 . S
O107 C106 1.227 . S
N108 Co105 2.121 . S
N108 C110 1.375 . S
N108 C111 1.313 . S
C109 C110 1.338 . S
C109 N112 1.377 . S
C109 H129 0.930 . S
C110 N108 1.375 . S
C110 C109 1.338 . S
C110 H114 0.931 . S
C111 N108 1.313 . S
C111 N112 1.344 . S
C111 H115 0.930 . S
N112 C109 1.377 . S
N112 C111 1.344 . S
O113 Co105 2.055 . S
O113 C117 1.253 . S
H114 C110 0.931 . S
H115 C111 0.930 . S
O116 Co105 2.039 . S
O116 C106 1.265 . S
C117 O113 1.253 . S
C117 O118 1.227 . S
O118 C117 1.227 . S
N119 Co105 2.140 . S
N119 C122 1.346 . S
N119 C123 1.345 . S
C120 C121 1.387 . S
C120 C124 1.391 . S
C121 C120 1.387 . S
C121 C122 1.369 . S
C121 H130 0.929 . S
C122 N119 1.346 . S
C122 C121 1.369 . S
C122 H125 0.928 . S
C123 N119 1.345 . S
C123 C124 1.371 . S
C123 H126 0.931 . S
C124 C120 1.391 . S
C124 C123 1.371 . S
C124 H131 0.930 . S
H125 C122 0.928 . S
H126 C123 0.931 . S
H127 C103 0.930 . S
H128 C100 0.930 1_554 S
H129 C109 0.930 . S
H130 C121 0.929 . S
H131 C124 0.930 . S
C132 C133 1.351 . S
C132 N135 1.368 . S
C132 H137 0.931 . S
C133 C132 1.351 . S
C133 N134 1.373 . S
C133 H161 0.930 . S
N134 C133 1.373 . S
N134 C136 1.340 . S
N135 C132 1.368 . S
N135 C136 1.321 . S
N135 Co138 2.135 . S
C136 N134 1.340 . S
C136 N135 1.321 . S
C136 H160 0.930 . S
H137 C132 0.931 . S
Co138 N135 2.135 . S
Co138 N141 2.121 . S
Co138 O146 2.055 . S
Co138 O149 2.039 . S
Co138 N152 2.140 . S
C139 O140 1.227 . S
C139 O149 1.265 . S
O140 C139 1.227 . S
N141 Co138 2.121 . S
N141 C143 1.375 . S
N141 C144 1.313 . S
C142 C143 1.338 . S
C142 N145 1.377 . S
C142 H162 0.930 . S
C143 N141 1.375 . S
C143 C142 1.338 . S
C143 H147 0.931 . S
C144 N141 1.313 . S
C144 N145 1.344 . S
C144 H148 0.930 . S
N145 C142 1.377 . S
N145 C144 1.344 . S
O146 Co138 2.055 . S
O146 C150 1.253 . S
H147 C143 0.931 . S
H148 C144 0.930 . S
O149 Co138 2.039 . S
O149 C139 1.265 . S
C150 O146 1.253 . S
C150 O151 1.227 . S
O151 C150 1.227 . S
N152 Co138 2.140 . S
N152 C155 1.346 . S
N152 C156 1.345 . S
C153 C154 1.387 . S
C153 C157 1.391 . S
C154 C153 1.387 . S
C154 C155 1.369 . S
C154 H163 0.929 . S
C155 N152 1.346 . S
C155 C154 1.369 . S
C155 H158 0.928 . S
C156 N152 1.345 . S
C156 C157 1.371 . S
C156 H159 0.931 . S
C157 C153 1.391 . S
C157 C156 1.371 . S
C157 H164 0.930 . S
H158 C155 0.928 . S
H159 C156 0.931 . S
H160 C136 0.930 . S
H161 C133 0.930 . S
H162 C142 0.930 . S
H163 C154 0.929 . S
H164 C157 0.930 . S
C165 C166 1.351 . S
C165 N168 1.368 . S
C165 H170 0.931 . S
C166 C165 1.351 . S
C166 N167 1.373 . S
C166 H194 0.930 . S
N167 C166 1.373 . S
N167 C169 1.340 . S
N168 C165 1.368 . S
N168 C169 1.321 . S
N168 Co171 2.135 . S
C169 N167 1.340 . S
C169 N168 1.321 . S
C169 H193 0.930 . S
H170 C165 0.931 . S
Co171 N168 2.135 . S
Co171 N174 2.121 . S
Co171 O179 2.055 . S
Co171 O182 2.039 . S
Co171 N185 2.140 . S
C172 O173 1.227 . S
C172 O182 1.265 . S
O173 C172 1.227 . S
N174 Co171 2.121 . S
N174 C176 1.375 . S
N174 C177 1.313 . S
C175 C176 1.338 . S
C175 N178 1.377 . S
C175 H195 0.930 . S
C176 N174 1.375 . S
C176 C175 1.338 . S
C176 H180 0.931 . S
C177 N174 1.313 . S
C177 N178 1.344 . S
C177 H181 0.930 . S
N178 C175 1.377 . S
N178 C177 1.344 . S
O179 Co171 2.055 . S
O179 C183 1.253 . S
H180 C176 0.931 . S
H181 C177 0.930 . S
O182 Co171 2.039 . S
O182 C172 1.265 . S
C183 O179 1.253 . S
C183 O184 1.227 . S
O184 C183 1.227 . S
N185 Co171 2.140 . S
N185 C188 1.346 . S
N185 C189 1.345 . S
C186 C187 1.387 . S
C186 C190 1.391 . S
C187 C186 1.387 . S
C187 C188 1.369 . S
C187 H196 0.929 . S
C188 N185 1.346 . S
C188 C187 1.369 . S
C188 H191 0.928 . S
C189 N185 1.345 . S
C189 C190 1.371 . S
C189 H192 0.931 . S
C190 C186 1.391 . S
C190 C189 1.371 . S
C190 H197 0.930 . S
H191 C188 0.928 . S
H192 C189 0.931 . S
H193 C169 0.930 . S
H194 C166 0.930 . S
H195 C175 0.930 . S
H196 C187 0.929 . S
H197 C190 0.930 . S
C198 C199 1.351 . S
C198 N201 1.368 . S
C198 H203 0.931 . S
C199 C198 1.351 . S
C199 N200 1.373 . S
C199 H227 0.930 . S
N200 C199 1.373 . S
N200 C202 1.340 . S
N201 C198 1.368 . S
N201 C202 1.321 . S
N201 Co204 2.135 . S
C202 N200 1.340 . S
C202 N201 1.321 . S
C202 H226 0.930 . S
H203 C198 0.931 . S
Co204 N201 2.135 . S
Co204 N207 2.121 . S
Co204 O212 2.055 . S
Co204 O215 2.039 . S
Co204 N218 2.140 . S
C205 O206 1.227 . S
C205 O215 1.265 . S
O206 C205 1.227 . S
N207 Co204 2.121 . S
N207 C209 1.375 . S
N207 C210 1.313 . S
C208 C209 1.338 . S
C208 N211 1.377 . S
C208 H228 0.930 . S
C209 N207 1.375 . S
C209 C208 1.338 . S
C209 H213 0.931 . S
C210 N207 1.313 . S
C210 N211 1.344 . S
C210 H214 0.930 . S
N211 C208 1.377 . S
N211 C210 1.344 . S
O212 Co204 2.055 . S
O212 C216 1.253 . S
H213 C209 0.931 . S
H214 C210 0.930 . S
O215 Co204 2.039 . S
O215 C205 1.265 . S
C216 O212 1.253 . S
C216 O217 1.227 . S
O217 C216 1.227 . S
N218 Co204 2.140 . S
N218 C221 1.346 . S
N218 C222 1.345 . S
C219 C220 1.387 . S
C219 C223 1.391 . S
C220 C219 1.387 . S
C220 C221 1.369 . S
C220 H229 0.929 . S
C221 N218 1.346 . S
C221 C220 1.369 . S
C221 H224 0.928 . S
C222 N218 1.345 . S
C222 C223 1.371 . S
C222 H225 0.931 . S
C223 C219 1.391 . S
C223 C222 1.371 . S
C223 H230 0.930 . S
H224 C221 0.928 . S
H225 C222 0.931 . S
H226 C202 0.930 . S
H227 C199 0.930 . S
H228 C208 0.930 . S
H229 C220 0.929 . S
H230 C223 0.930 . S
C231 C232 1.351 . S
C231 N234 1.368 . S
C231 H236 0.931 . S
C232 C231 1.351 . S
C232 N233 1.373 . S
C232 H260 0.930 . S
N233 C232 1.373 . S
N233 C235 1.340 . S
N234 C231 1.368 . S
N234 C235 1.321 . S
N234 Co237 2.135 . S
C235 N233 1.340 . S
C235 N234 1.321 . S
C235 H259 0.930 . S
H236 C231 0.931 . S
Co237 N234 2.135 . S
Co237 N240 2.121 . S
Co237 O245 2.055 . S
Co237 O248 2.039 . S
Co237 N251 2.140 . S
C238 O239 1.227 . S
C238 O248 1.265 . S
O239 C238 1.227 . S
N240 Co237 2.121 . S
N240 C242 1.375 . S
N240 C243 1.313 . S
C241 C242 1.338 . S
C241 N244 1.377 . S
C241 H261 0.930 . S
C242 N240 1.375 . S
C242 C241 1.338 . S
C242 H246 0.931 . S
C243 N240 1.313 . S
C243 N244 1.344 . S
C243 H247 0.930 . S
N244 C241 1.377 . S
N244 C243 1.344 . S
O245 Co237 2.055 . S
O245 C249 1.253 . S
H246 C242 0.931 . S
H247 C243 0.930 . S
O248 Co237 2.039 . S
O248 C238 1.265 . S
C249 O245 1.253 . S
C249 O250 1.227 . S
O250 C249 1.227 . S
N251 Co237 2.140 . S
N251 C254 1.346 . S
N251 C255 1.345 . S
C252 C253 1.387 . S
C252 C256 1.391 . S
C253 C252 1.387 . S
C253 C254 1.369 . S
C253 H262 0.929 . S
C254 N251 1.346 . S
C254 C253 1.369 . S
C254 H257 0.928 . S
C255 N251 1.345 . S
C255 C256 1.371 . S
C255 H258 0.931 . S
C256 C252 1.391 . S
C256 C255 1.371 . S
C256 H263 0.930 . S
H257 C254 0.928 . S
H258 C255 0.931 . S
H259 C235 0.930 . S
H260 C232 0.930 . S
H261 C241 0.930 . S
H262 C253 0.929 . S
H263 C256 0.930 . S
C264 C265 1.351 . S
C264 N267 1.368 . S
C264 H269 0.931 . S
C265 C264 1.351 . S
C265 N266 1.373 . S
C265 H293 0.930 . S
N266 C265 1.373 . S
N266 C268 1.340 . S
N267 C264 1.368 . S
N267 C268 1.321 . S
N267 Co270 2.135 . S
C268 N266 1.340 . S
C268 N267 1.321 . S
C268 H292 0.930 . S
H269 C264 0.931 . S
Co270 N267 2.135 . S
Co270 N273 2.121 . S
Co270 O278 2.055 . S
Co270 O281 2.039 . S
Co270 N284 2.140 . S
C271 O272 1.227 . S
C271 O281 1.265 . S
O272 C271 1.227 . S
N273 Co270 2.121 . S
N273 C275 1.375 . S
N273 C276 1.313 . S
C274 C275 1.338 . S
C274 N277 1.377 . S
C274 H294 0.930 . S
C275 N273 1.375 . S
C275 C274 1.338 . S
C275 H279 0.931 . S
C276 N273 1.313 . S
C276 N277 1.344 . S
C276 H280 0.930 . S
N277 C274 1.377 . S
N277 C276 1.344 . S
O278 Co270 2.055 . S
O278 C282 1.253 . S
H279 C275 0.931 . S
H280 C276 0.930 . S
O281 Co270 2.039 . S
O281 C271 1.265 . S
C282 O278 1.253 . S
C282 O283 1.227 . S
O283 C282 1.227 . S
N284 Co270 2.140 . S
N284 C287 1.346 . S
N284 C288 1.345 . S
C285 C286 1.387 . S
C285 C289 1.391 . S
C286 C285 1.387 . S
C286 C287 1.369 . S
C286 H295 0.929 . S
C287 N284 1.346 . S
C287 C286 1.369 . S
C287 H290 0.928 . S
C288 N284 1.345 . S
C288 C289 1.371 . S
C288 H291 0.931 . S
C289 C285 1.391 . S
C289 C288 1.371 . S
C289 H296 0.930 . S
H290 C287 0.928 . S
H291 C288 0.931 . S
H292 C268 0.930 . S
H293 C265 0.930 . S
H294 C274 0.930 . S
H295 C286 0.929 . S
H296 C289 0.930 . S
C297 C298 1.351 . S
C297 N300 1.368 . S
C297 H302 0.931 . S
C298 C297 1.351 . S
C298 N299 1.373 . S
C298 H326 0.930 . S
N299 C298 1.373 . S
N299 C301 1.340 . S
N300 C297 1.368 . S
N300 C301 1.321 . S
N300 Co303 2.135 . S
C301 N299 1.340 . S
C301 N300 1.321 . S
C301 H325 0.930 . S
H302 C297 0.931 . S
Co303 N300 2.135 . S
Co303 N306 2.121 . S
Co303 O311 2.055 . S
Co303 O314 2.039 . S
Co303 N317 2.140 . S
C304 O305 1.227 . S
C304 O314 1.265 . S
O305 C304 1.227 . S
N306 Co303 2.121 . S
N306 C308 1.375 . S
N306 C309 1.313 . S
C307 C308 1.338 . S
C307 N310 1.377 . S
C307 H327 0.930 . S
C308 N306 1.375 . S
C308 C307 1.338 . S
C308 H312 0.931 . S
C309 N306 1.313 . S
C309 N310 1.344 . S
C309 H313 0.930 . S
N310 C307 1.377 . S
N310 C309 1.344 . S
O311 Co303 2.055 . S
O311 C315 1.253 . S
H312 C308 0.931 . S
H313 C309 0.930 . S
O314 Co303 2.039 . S
O314 C304 1.265 . S
C315 O311 1.253 . S
C315 O316 1.227 . S
O316 C315 1.227 . S
N317 Co303 2.140 . S
N317 C320 1.346 . S
N317 C321 1.345 . S
C318 C319 1.387 . S
C318 C322 1.391 . S
C319 C318 1.387 . S
C319 C320 1.369 . S
C319 H328 0.929 . S
C320 N317 1.346 . S
C320 C319 1.369 . S
C320 H323 0.928 . S
C321 N317 1.345 . S
C321 C322 1.371 . S
C321 H324 0.931 . S
C322 C318 1.391 . S
C322 C321 1.371 . S
C322 H329 0.930 . S
H323 C320 0.928 . S
H324 C321 0.931 . S
H325 C301 0.930 . S
H326 C298 0.930 . S
H327 C307 0.930 . S
H328 C319 0.929 . S
H329 C322 0.930 . S
C330 C331 1.351 . S
C330 N333 1.368 . S
C330 H335 0.931 . S
C331 C330 1.351 . S
C331 N332 1.373 . S
C331 H359 0.930 . S
N332 C331 1.373 . S
N332 C334 1.340 . S
N333 C330 1.368 . S
N333 C334 1.321 . S
N333 Co336 2.135 . S
C334 N332 1.340 . S
C334 N333 1.321 . S
C334 H358 0.930 . S
H335 C330 0.931 . S
Co336 N333 2.135 . S
Co336 N339 2.121 . S
Co336 O344 2.055 . S
Co336 O347 2.039 . S
Co336 N350 2.140 . S
C337 O338 1.227 . S
C337 O347 1.265 . S
O338 C337 1.227 . S
N339 Co336 2.121 . S
N339 C341 1.375 . S
N339 C342 1.313 . S
C340 C341 1.338 . S
C340 N343 1.377 . S
C340 H360 0.930 . S
C341 N339 1.375 . S
C341 C340 1.338 . S
C341 H345 0.931 . S
C342 N339 1.313 . S
C342 N343 1.344 . S
C342 H346 0.930 . S
N343 C340 1.377 . S
N343 C342 1.344 . S
O344 Co336 2.055 . S
O344 C348 1.253 . S
H345 C341 0.931 . S
H346 C342 0.930 . S
O347 Co336 2.039 . S
O347 C337 1.265 . S
C348 O344 1.253 . S
C348 O349 1.227 . S
O349 C348 1.227 . S
N350 Co336 2.140 . S
N350 C353 1.346 . S
N350 C354 1.345 . S
C351 C352 1.387 . S
C351 C355 1.391 . S
C352 C351 1.387 . S
C352 C353 1.369 . S
C352 H361 0.929 . S
C353 N350 1.346 . S
C353 C352 1.369 . S
C353 H356 0.928 . S
C354 N350 1.345 . S
C354 C355 1.371 . S
C354 H357 0.931 . S
C355 C351 1.391 . S
C355 C354 1.371 . S
C355 H362 0.930 . S
H356 C353 0.928 . S
H357 C354 0.931 . S
H358 C334 0.930 . S
H359 C331 0.930 . S
H360 C340 0.930 . S
H361 C352 0.929 . S
H362 C355 0.930 . S
C363 C364 1.351 . S
C363 N366 1.368 . S
C363 H368 0.931 . S
C364 C363 1.351 . S
C364 N365 1.373 . S
C364 H392 0.930 . S
N365 C364 1.373 . S
N365 C367 1.340 . S
N366 C363 1.368 . S
N366 C367 1.321 . S
N366 Co369 2.135 . S
C367 N365 1.340 . S
C367 N366 1.321 . S
C367 H391 0.930 . S
H368 C363 0.931 . S
Co369 N366 2.135 . S
Co369 N372 2.121 . S
Co369 O377 2.055 . S
Co369 O380 2.039 . S
Co369 N383 2.140 . S
C370 O371 1.227 . S
C370 O380 1.265 . S
O371 C370 1.227 . S
N372 Co369 2.121 . S
N372 C374 1.375 . S
N372 C375 1.313 . S
C373 C374 1.338 . S
C373 N376 1.377 . S
C373 H393 0.930 . S
C374 N372 1.375 . S
C374 C373 1.338 . S
C374 H378 0.931 . S
C375 N372 1.313 . S
C375 N376 1.344 . S
C375 H379 0.930 . S
N376 C373 1.377 . S
N376 C375 1.344 . S
O377 Co369 2.055 . S
O377 C381 1.253 . S
H378 C374 0.931 . S
H379 C375 0.930 . S
O380 Co369 2.039 . S
O380 C370 1.265 . S
C381 O377 1.253 . S
C381 O382 1.227 . S
O382 C381 1.227 . S
N383 Co369 2.140 . S
N383 C386 1.346 . S
N383 C387 1.345 . S
C384 C385 1.387 . S
C384 C388 1.391 . S
C385 C384 1.387 . S
C385 C386 1.369 . S
C385 H394 0.929 . S
C386 N383 1.346 . S
C386 C385 1.369 . S
C386 H389 0.928 . S
C387 N383 1.345 . S
C387 C388 1.371 . S
C387 H390 0.931 . S
C388 C384 1.391 . S
C388 C387 1.371 . S
C388 H395 0.930 . S
H389 C386 0.928 . S
H390 C387 0.931 . S
H391 C367 0.930 . S
H392 C364 0.930 . S
H393 C373 0.930 . S
H394 C385 0.929 . S
H395 C388 0.930 . S
C396 C397 1.351 . S
C396 N399 1.368 . S
C396 H401 0.931 . S
C397 C396 1.351 . S
C397 N398 1.373 . S
C397 H425 0.930 . S
N398 C397 1.373 . S
N398 C400 1.340 . S
N399 C396 1.368 . S
N399 C400 1.321 . S
N399 Co402 2.135 . S
C400 N398 1.340 . S
C400 N399 1.321 . S
C400 H424 0.930 . S
H401 C396 0.931 . S
Co402 N399 2.135 . S
Co402 N405 2.121 . S
Co402 O410 2.055 . S
Co402 O413 2.039 . S
Co402 N416 2.140 . S
C403 O404 1.227 . S
C403 O413 1.265 . S
O404 C403 1.227 . S
N405 Co402 2.121 . S
N405 C407 1.375 . S
N405 C408 1.313 . S
C406 C407 1.338 . S
C406 N409 1.377 . S
C406 H426 0.930 . S
C407 N405 1.375 . S
C407 C406 1.338 . S
C407 H411 0.931 . S
C408 N405 1.313 . S
C408 N409 1.344 . S
C408 H412 0.930 . S
N409 C406 1.377 . S
N409 C408 1.344 . S
O410 Co402 2.055 . S
O410 C414 1.253 . S
H411 C407 0.931 . S
H412 C408 0.930 . S
O413 Co402 2.039 . S
O413 C403 1.265 . S
C414 O410 1.253 . S
C414 O415 1.227 . S
O415 C414 1.227 . S
N416 Co402 2.140 . S
N416 C419 1.346 . S
N416 C420 1.345 . S
C417 C418 1.387 . S
C417 C421 1.391 . S
C418 C417 1.387 . S
C418 C419 1.369 . S
C418 H427 0.929 . S
C419 N416 1.346 . S
C419 C418 1.369 . S
C419 H422 0.928 . S
C420 N416 1.345 . S
C420 C421 1.371 . S
C420 H423 0.931 . S
C421 C417 1.391 . S
C421 C420 1.371 . S
C421 H428 0.930 . S
H422 C419 0.928 . S
H423 C420 0.931 . S
H424 C400 0.930 . S
H425 C397 0.930 . S
H426 C406 0.930 . S
H427 C418 0.929 . S
H428 C421 0.930 . S
C429 C430 1.351 . S
C429 N432 1.368 . S
C429 H434 0.931 . S
C430 C429 1.351 . S
C430 N431 1.373 . S
C430 H458 0.930 . S
N431 C430 1.373 . S
N431 C433 1.340 . S
N432 C429 1.368 . S
N432 C433 1.321 . S
N432 Co435 2.135 . S
C433 N431 1.340 . S
C433 N432 1.321 . S
C433 H457 0.930 . S
H434 C429 0.931 . S
Co435 N432 2.135 . S
Co435 N438 2.121 . S
Co435 O443 2.055 . S
Co435 O446 2.039 . S
Co435 N449 2.140 . S
C436 O437 1.227 . S
C436 O446 1.265 . S
O437 C436 1.227 . S
N438 Co435 2.121 . S
N438 C440 1.375 . S
N438 C441 1.313 . S
C439 C440 1.338 . S
C439 N442 1.377 . S
C439 H459 0.930 . S
C440 N438 1.375 . S
C440 C439 1.338 . S
C440 H444 0.931 . S
C441 N438 1.313 . S
C441 N442 1.344 . S
C441 H445 0.930 . S
N442 C439 1.377 . S
N442 C441 1.344 . S
O443 Co435 2.055 . S
O443 C447 1.253 . S
H444 C440 0.931 . S
H445 C441 0.930 . S
O446 Co435 2.039 . S
O446 C436 1.265 . S
C447 O443 1.253 . S
C447 O448 1.227 . S
O448 C447 1.227 . S
N449 Co435 2.140 . S
N449 C452 1.346 . S
N449 C453 1.345 . S
C450 C451 1.387 . S
C450 C454 1.391 . S
C451 C450 1.387 . S
C451 C452 1.369 . S
C451 H460 0.929 . S
C452 N449 1.346 . S
C452 C451 1.369 . S
C452 H455 0.928 . S
C453 N449 1.345 . S
C453 C454 1.371 . S
C453 H456 0.931 . S
C454 C450 1.391 . S
C454 C453 1.371 . S
C454 H461 0.930 . S
H455 C452 0.928 . S
H456 C453 0.931 . S
H457 C433 0.930 . S
H458 C430 0.930 . S
H459 C439 0.930 . S
H460 C451 0.929 . S
H461 C454 0.930 . S
C462 C463 1.351 . S
C462 N465 1.368 . S
C462 H467 0.931 . S
C463 C462 1.351 . S
C463 N464 1.373 . S
C463 H491 0.930 . S
N464 C463 1.373 . S
N464 C466 1.340 . S
N465 C462 1.368 . S
N465 C466 1.321 . S
N465 Co468 2.135 . S
C466 N464 1.340 . S
C466 N465 1.321 . S
C466 H490 0.930 . S
H467 C462 0.931 . S
Co468 N465 2.135 . S
Co468 N471 2.121 . S
Co468 O476 2.055 . S
Co468 O479 2.039 . S
Co468 N482 2.140 . S
C469 O470 1.227 . S
C469 O479 1.265 . S
O470 C469 1.227 . S
N471 Co468 2.121 . S
N471 C473 1.375 . S
N471 C474 1.313 . S
C472 C473 1.338 . S
C472 N475 1.377 . S
C472 H492 0.930 . S
C473 N471 1.375 . S
C473 C472 1.338 . S
C473 H477 0.931 . S
C474 N471 1.313 . S
C474 N475 1.344 . S
C474 H478 0.930 . S
N475 C472 1.377 . S
N475 C474 1.344 . S
O476 Co468 2.055 . S
O476 C480 1.253 . S
H477 C473 0.931 . S
H478 C474 0.930 . S
O479 Co468 2.039 . S
O479 C469 1.265 . S
C480 O476 1.253 . S
C480 O481 1.227 . S
O481 C480 1.227 . S
N482 Co468 2.140 . S
N482 C485 1.346 . S
N482 C486 1.345 . S
C483 C484 1.387 . S
C483 C487 1.391 . S
C484 C483 1.387 . S
C484 C485 1.369 . S
C484 H493 0.929 . S
C485 N482 1.346 . S
C485 C484 1.369 . S
C485 H488 0.928 . S
C486 N482 1.345 . S
C486 C487 1.371 . S
C486 H489 0.931 . S
C487 C483 1.391 . S
C487 C486 1.371 . S
C487 H494 0.930 . S
H488 C485 0.928 . S
H489 C486 0.931 . S
H490 C466 0.930 . S
H491 C463 0.930 . S
H492 C472 0.930 . S
H493 C484 0.929 . S
H494 C487 0.930 . S
C495 C496 1.351 . S
C495 N498 1.368 . S
C495 H500 0.931 . S
C496 C495 1.351 . S
C496 N497 1.373 . S
C496 H524 0.930 . S
N497 C496 1.373 . S
N497 C499 1.340 . S
N498 C495 1.368 . S
N498 C499 1.321 . S
N498 Co501 2.135 . S
C499 N497 1.340 . S
C499 N498 1.321 . S
C499 H523 0.930 . S
H500 C495 0.931 . S
Co501 N498 2.135 . S
Co501 N504 2.121 . S
Co501 O509 2.055 . S
Co501 O512 2.039 . S
Co501 N515 2.140 . S
C502 O503 1.227 . S
C502 O512 1.265 . S
O503 C502 1.227 . S
N504 Co501 2.121 . S
N504 C506 1.375 . S
N504 C507 1.313 . S
C505 C506 1.338 . S
C505 N508 1.377 . S
C505 H525 0.930 . S
C506 N504 1.375 . S
C506 C505 1.338 . S
C506 H510 0.931 . S
C507 N504 1.313 . S
C507 N508 1.344 . S
C507 H511 0.930 . S
N508 C505 1.377 . S
N508 C507 1.344 . S
O509 Co501 2.055 . S
O509 C513 1.253 . S
H510 C506 0.931 . S
H511 C507 0.930 . S
O512 Co501 2.039 . S
O512 C502 1.265 . S
C513 O509 1.253 . S
C513 O514 1.227 . S
O514 C513 1.227 . S
N515 Co501 2.140 . S
N515 C518 1.346 . S
N515 C519 1.345 . S
C516 C517 1.387 . S
C516 C520 1.391 . S
C517 C516 1.387 . S
C517 C518 1.369 . S
C517 H526 0.929 . S
C518 N515 1.346 . S
C518 C517 1.369 . S
C518 H521 0.928 . S
C519 N515 1.345 . S
C519 C520 1.371 . S
C519 H522 0.931 . S
C520 C516 1.391 . S
C520 C519 1.371 . S
C520 H527 0.930 . S
H521 C518 0.928 . S
H522 C519 0.931 . S
H523 C499 0.930 . S
H524 C496 0.930 . S
H525 C505 0.930 . S
H526 C517 0.929 . S
H527 C520 0.930 . S
C528 C529 1.387 . S
C528 H532 0.950 . S
C528 C537 1.390 . S
C529 C528 1.387 . S
C529 C531 1.387 . S
H530 C537 0.950 . S
C531 C529 1.387 . S
C531 C533 1.390 . S
C531 H535 0.950 . S
H532 C528 0.950 . S
C533 C531 1.390 . S
C533 C534 1.387 . S
C533 H536 0.950 . S
C534 C533 1.387 . S
C534 C537 1.387 . S
H535 C531 0.950 . S
H536 C533 0.950 . S
C537 C528 1.390 . S
C537 H530 0.950 . S
C537 C534 1.387 . S
C538 C539 1.387 1_455 S
C538 H542 0.950 1_455 S
C538 C547 1.390 . S
C539 C538 1.387 1_655 S
C539 C541 1.387 1_655 S
H540 C547 0.950 . S
C541 C539 1.387 1_455 S
C541 C543 1.390 1_545 S
C541 H545 0.953 1_455 S
H542 C538 0.950 1_655 S
C543 C541 1.390 1_565 S
C543 C544 1.379 1_565 S
C543 H546 0.950 . S
C544 C543 1.379 1_545 S
C544 C547 1.413 . S
H545 C541 0.953 1_655 S
H546 C543 0.950 . S
C547 C538 1.390 . S
C547 H540 0.950 . S
C547 C544 1.413 . S
C548 C549 1.387 . S
C548 H552 0.950 . S
C548 C557 1.390 . S
C549 C548 1.387 . S
C549 C551 1.387 . S
H550 C557 0.950 . S
C551 C549 1.387 . S
C551 C553 1.390 . S
C551 H555 0.950 . S
H552 C548 0.950 . S
C553 C551 1.390 . S
C553 C554 1.387 . S
C553 H556 0.950 . S
C554 C553 1.387 . S
C554 C557 1.387 . S
H555 C551 0.950 . S
H556 C553 0.950 . S
C557 C548 1.390 . S
C557 H550 0.950 . S
C557 C554 1.387 . S
C558 C559 1.387 . S
C558 H562 0.950 . S
C558 C567 1.390 1_556 S
C559 C558 1.387 . S
C559 C561 1.387 1_566 S
H560 C567 0.950 . S
C561 C559 1.387 1_544 S
C561 C563 1.390 . S
C561 H565 0.950 . S
H562 C558 0.950 . S
C563 C561 1.390 . S
C563 C564 1.387 1_545 S
C563 H566 0.950 . S
C564 C563 1.387 1_565 S
C564 C567 1.387 . S
H565 C561 0.950 . S
H566 C563 0.950 . S
C567 C558 1.390 1_554 S
C567 H560 0.950 . S
C567 C564 1.387 . S
C568 C569 1.387 . S
C568 H572 0.950 . S
C568 C577 1.390 . S
C569 C568 1.387 . S
C569 C571 1.387 . S
H570 C577 0.950 . S
C571 C569 1.387 . S
C571 C573 1.390 . S
C571 H575 0.950 . S
H572 C568 0.950 . S
C573 C571 1.390 . S
C573 C574 1.387 . S
C573 H576 0.950 . S
C574 C573 1.387 . S
C574 C577 1.387 . S
H575 C571 0.950 . S
H576 C573 0.950 . S
C577 C568 1.390 . S
C577 H570 0.950 . S
C577 C574 1.387 . S
C578 C579 1.387 1_545 S
C578 H582 0.950 . S
C578 C587 1.390 . S
C579 C578 1.387 1_565 S
C579 C581 1.387 . S
H580 C587 0.950 . S
C581 C579 1.387 . S
C581 C583 1.390 . S
C581 H585 0.950 . S
H582 C578 0.950 . S
C583 C581 1.390 . S
C583 C584 1.387 1_565 S
C583 H586 0.950 . S
C584 C583 1.387 1_545 S
C584 C587 1.387 . S
H585 C581 0.950 . S
H586 C583 0.950 . S
C587 C578 1.390 . S
C587 H580 0.950 . S
C587 C584 1.387 . S
C588 C589 1.387 . S
C588 H592 0.950 . S
C588 C597 1.390 . S
C589 C588 1.387 . S
C589 C591 1.387 . S
H590 C597 0.950 . S
C591 C589 1.387 . S
C591 C593 1.390 . S
C591 H595 0.950 . S
H592 C588 0.950 . S
C593 C591 1.390 . S
C593 C594 1.387 . S
C593 H596 0.950 . S
C594 C593 1.387 . S
C594 C597 1.387 . S
H595 C591 0.950 . S
H596 C593 0.950 . S
C597 C588 1.390 . S
C597 H590 0.950 . S
C597 C594 1.387 . S
C598 C599 1.387 1_655 S
C598 H602 0.950 . S
C598 C607 1.390 . S
C599 C598 1.387 1_455 S
C599 C601 1.387 1_554 S
H600 C607 0.950 1_565 S
C601 C599 1.387 1_556 S
C601 C603 1.390 1_455 S
C601 H605 0.950 . S
H602 C598 0.950 . S
C603 C601 1.390 1_655 S
C603 C604 1.387 1_545 S
C603 H606 0.950 . S
C604 C603 1.387 1_565 S
C604 C607 1.387 1_566 S
H605 C601 0.950 . S
H606 C603 0.950 . S
C607 C598 1.390 . S
C607 H600 0.950 1_545 S
C607 C604 1.387 1_544 S
C608 C609 1.387 . S
C608 H612 0.950 . S
C608 C617 1.390 . S
C609 C608 1.387 . S
C609 C611 1.387 . S
H610 C617 0.950 . S
C611 C609 1.387 . S
C611 C613 1.390 . S
C611 H615 0.950 . S
H612 C608 0.950 . S
C613 C611 1.390 . S
C613 C614 1.387 . S
C613 H616 0.950 . S
C614 C613 1.387 . S
C614 C617 1.387 . S
H615 C611 0.950 . S
H616 C613 0.950 . S
C617 C608 1.390 . S
C617 H610 0.950 . S
C617 C614 1.387 . S
C618 C619 1.387 . S
C618 H622 0.950 . S
C618 C627 1.390 1_556 S
C619 C618 1.387 . S
C619 C621 1.387 1_556 S
H620 C627 0.950 . S
C621 C619 1.387 1_554 S
C621 C623 1.390 . S
C621 H625 0.950 . S
H622 C618 0.950 . S
C623 C621 1.390 . S
C623 C624 1.387 . S
C623 H626 0.950 1_455 S
C624 C623 1.387 . S
C624 C627 1.387 . S
H625 C621 0.950 . S
H626 C623 0.950 1_655 S
C627 C618 1.390 1_554 S
C627 H620 0.950 . S
C627 C624 1.387 . S
C628 C629 1.387 . S
C628 H632 0.950 . S
C628 C637 1.390 . S
C629 C628 1.387 . S
C629 C631 1.387 . S
H630 C637 0.950 . S
C631 C629 1.387 . S
C631 C633 1.390 . S
C631 H635 0.950 . S
H632 C628 0.950 . S
C633 C631 1.390 . S
C633 C634 1.387 . S
C633 H636 0.950 . S
C634 C633 1.387 . S
C634 C637 1.387 . S
H635 C631 0.950 . S
H636 C633 0.950 . S
C637 C628 1.390 . S
C637 H630 0.950 . S
C637 C634 1.387 . S
C638 C639 1.387 . S
C638 H642 0.950 . S
C638 C647 1.390 . S
C639 C638 1.387 . S
C639 C641 1.387 . S
H640 C647 0.950 1_455 S
C641 C639 1.387 . S
C641 C643 1.390 . S
C641 H645 0.950 . S
H642 C638 0.950 . S
C643 C641 1.390 . S
C643 C644 1.387 1_655 S
C643 H646 0.950 . S
C644 C643 1.387 1_455 S
C644 C647 1.387 1_455 S
H645 C641 0.950 . S
H646 C643 0.950 . S
C647 C638 1.390 . S
C647 H640 0.950 1_655 S
C647 C644 1.387 1_655 S
C648 C649 1.387 . S
C648 H652 0.950 . S
C648 C657 1.390 . S
C649 C648 1.387 . S
C649 C651 1.387 1_556 S
H650 C657 0.950 . S
C651 C649 1.387 1_554 S
C651 C653 1.390 . S
C651 H655 0.950 . S
H652 C648 0.950 . S
C653 C651 1.390 . S
C653 C654 1.387 . S
C653 H656 0.950 . S
C654 C653 1.387 . S
C654 C657 1.387 1_554 S
H655 C651 0.950 . S
H656 C653 0.950 . S
C657 C648 1.390 . S
C657 H650 0.950 . S
C657 C654 1.387 1_556 S
C658 C659 1.387 . S
C658 H662 0.950 . S
C658 C667 1.390 . S
C659 C658 1.387 . S
C659 C661 1.387 . S
H660 C667 0.950 . S
C661 C659 1.387 . S
C661 C663 1.390 . S
C661 H665 0.950 . S
H662 C658 0.950 . S
C663 C661 1.390 . S
C663 C664 1.387 . S
C663 H666 0.950 . S
C664 C663 1.387 . S
C664 C667 1.387 . S
H665 C661 0.950 . S
H666 C663 0.950 . S
C667 C658 1.390 . S
C667 H660 0.950 . S
C667 C664 1.387 . S
C668 C669 1.387 . S
C668 H672 0.950 . S
C668 C677 1.390 . S
C669 C668 1.387 . S
C669 C671 1.387 . S
H670 C677 0.950 . S
C671 C669 1.387 . S
C671 C673 1.390 . S
C671 H675 0.950 . S
H672 C668 0.950 . S
C673 C671 1.390 . S
C673 C674 1.387 . S
C673 H676 0.950 . S
C674 C673 1.387 . S
C674 C677 1.387 . S
H675 C671 0.950 . S
H676 C673 0.950 . S
C677 C668 1.390 . S
C677 H670 0.950 . S
C677 C674 1.387 . S
C678 C679 1.387 . S
C678 H682 0.950 . S
C678 C687 1.390 . S
C679 C678 1.387 . S
C679 C681 1.387 . S
H680 C687 0.950 . S
C681 C679 1.387 . S
C681 C683 1.390 . S
C681 H685 0.950 . S
H682 C678 0.950 . S
C683 C681 1.390 . S
C683 C684 1.387 . S
C683 H686 0.950 . S
C684 C683 1.387 . S
C684 C687 1.387 . S
H685 C681 0.950 . S
H686 C683 0.950 . S
C687 C678 1.390 . S
C687 H680 0.950 . S
C687 C684 1.387 . S
C688 C689 1.387 . S
C688 H692 0.950 . S
C688 C697 1.390 1_545 S
C689 C688 1.387 . S
C689 C691 1.387 . S
H690 C697 0.950 . S
C691 C689 1.387 . S
C691 C693 1.390 1_545 S
C691 H695 0.950 . S
H692 C688 0.950 . S
C693 C691 1.390 1_565 S
C693 C694 1.387 . S
C693 H696 0.950 . S
C694 C693 1.387 . S
C694 C697 1.387 . S
H695 C691 0.950 . S
H696 C693 0.950 . S
C697 C688 1.390 1_565 S
C697 H690 0.950 . S
C697 C694 1.387 . S
C698 C699 1.387 . S
C698 H702 0.950 . S
C698 C707 1.390 . S
C699 C698 1.387 . S
C699 C701 1.387 . S
H700 C707 0.950 . S
C701 C699 1.387 . S
C701 C703 1.390 . S
C701 H705 0.950 . S
H702 C698 0.950 . S
C703 C701 1.390 . S
C703 C704 1.387 . S
C703 H706 0.950 . S
C704 C703 1.387 . S
C704 C707 1.387 . S
H705 C701 0.950 . S
H706 C703 0.950 . S
C707 C698 1.390 . S
C707 H700 0.950 . S
C707 C704 1.387 . S
C708 C709 1.387 . S
C708 H712 0.950 . S
C708 C717 1.390 1_565 S
C709 C708 1.387 . S
C709 C711 1.387 . S
H710 C717 0.950 . S
C711 C709 1.387 . S
C711 C713 1.390 . S
C711 H715 0.950 . S
H712 C708 0.950 . S
C713 C711 1.390 . S
C713 C714 1.387 1_565 S
C713 H716 0.950 . S
C714 C713 1.387 1_545 S
C714 C717 1.387 . S
H715 C711 0.950 . S
H716 C713 0.950 . S
C717 C708 1.390 1_545 S
C717 H710 0.950 . S
C717 C714 1.387 . S
C718 C719 1.387 . S
C718 H722 0.950 . S
C718 C727 1.390 . S
C719 C718 1.387 . S
C719 C721 1.387 . S
H720 C727 0.950 . S
C721 C719 1.387 . S
C721 C723 1.390 1_556 S
C721 H725 0.950 . S
H722 C718 0.950 . S
C723 C721 1.390 1_554 S
C723 C724 1.387 . S
C723 H726 0.950 . S
C724 C723 1.387 . S
C724 C727 1.387 1_554 S
H725 C721 0.950 . S
H726 C723 0.950 . S
C727 C718 1.390 . S
C727 H720 0.950 . S
C727 C724 1.387 1_556 S
C728 C729 1.387 . S
C728 H732 0.950 . S
C728 C737 1.390 1_455 S
C729 C728 1.387 . S
C729 C731 1.387 . S
H730 C737 0.950 . S
C731 C729 1.387 . S
C731 C733 1.390 1_455 S
C731 H735 0.950 . S
H732 C728 0.950 . S
C733 C731 1.390 1_655 S
C733 C734 1.387 . S
C733 H736 0.950 . S
C734 C733 1.387 . S
C734 C737 1.387 . S
H735 C731 0.950 . S
H736 C733 0.950 . S
C737 C728 1.390 1_655 S
C737 H730 0.950 . S
C737 C734 1.387 . S
C738 C739 1.387 . S
C738 H742 0.950 . S
C738 C747 1.390 . S
C739 C738 1.387 . S
C739 C741 1.387 . S
H740 C747 0.950 . S
C741 C739 1.387 . S
C741 C743 1.390 . S
C741 H745 0.950 . S
H742 C738 0.950 . S
C743 C741 1.390 . S
C743 C744 1.387 . S
C743 H746 0.950 . S
C744 C743 1.387 . S
C744 C747 1.387 . S
H745 C741 0.950 . S
H746 C743 0.950 . S
C747 C738 1.390 . S
C747 H740 0.950 . S
C747 C744 1.387 . S
C748 C749 1.387 . S
C748 H752 0.950 . S
C748 C757 1.390 1_655 S
C749 C748 1.387 . S
C749 C751 1.387 . S
H750 C757 0.950 . S
C751 C749 1.387 . S
C751 C753 1.390 1_655 S
C751 H755 0.950 . S
H752 C748 0.950 . S
C753 C751 1.390 1_455 S
C753 C754 1.387 . S
C753 H756 0.950 . S
C754 C753 1.387 . S
C754 C757 1.387 . S
H755 C751 0.950 . S
H756 C753 0.950 . S
C757 C748 1.390 1_455 S
C757 H750 0.950 . S
C757 C754 1.387 . S
C758 C759 1.387 . S
C758 H762 0.950 . S
C758 C767 1.390 . S
C759 C758 1.387 . S
C759 C761 1.387 . S
H760 C767 0.950 . S
C761 C759 1.387 . S
C761 C763 1.390 . S
C761 H765 0.950 . S
H762 C758 0.950 . S
C763 C761 1.390 . S
C763 C764 1.387 . S
C763 H766 0.950 . S
C764 C763 1.387 . S
C764 C767 1.387 . S
H765 C761 0.950 . S
H766 C763 0.950 . S
C767 C758 1.390 . S
C767 H760 0.950 . S
C767 C764 1.387 . S
C768 C769 1.387 . S
C768 H772 0.950 . S
C768 C777 1.390 1_545 S
C769 C768 1.387 . S
C769 C771 1.387 . S
H770 C777 0.950 . S
C771 C769 1.387 . S
C771 C773 1.390 1_545 S
C771 H775 0.950 . S
H772 C768 0.950 . S
C773 C771 1.390 1_565 S
C773 C774 1.387 . S
C773 H776 0.950 . S
C774 C773 1.387 . S
C774 C777 1.387 . S
H775 C771 0.950 . S
H776 C773 0.950 . S
C777 C768 1.390 1_565 S
C777 H770 0.950 . S
C777 C774 1.387 . S
C778 C779 1.387 . S
C778 H782 0.950 . S
C778 C787 1.390 . S
C779 C778 1.387 . S
C779 C781 1.387 . S
H780 C787 0.950 . S
C781 C779 1.387 . S
C781 C783 1.390 . S
C781 H785 0.950 . S
H782 C778 0.950 . S
C783 C781 1.390 . S
C783 C784 1.387 . S
C783 H786 0.950 . S
C784 C783 1.387 . S
C784 C787 1.387 . S
H785 C781 0.950 . S
H786 C783 0.950 . S
C787 C778 1.390 . S
C787 H780 0.950 . S
C787 C784 1.387 . S
C788 C789 1.387 1_565 S
C788 H792 0.950 . S
C788 C797 1.390 . S
C789 C788 1.387 1_545 S
C789 C791 1.387 . S
H790 C797 0.950 . S
C791 C789 1.387 . S
C791 C793 1.390 . S
C791 H795 0.950 . S
H792 C788 0.950 . S
C793 C791 1.390 . S
C793 C794 1.387 1_545 S
C793 H796 0.950 . S
C794 C793 1.387 1_565 S
C794 C797 1.387 . S
H795 C791 0.950 . S
H796 C793 0.950 . S
C797 C788 1.390 . S
C797 H790 0.950 . S
C797 C794 1.387 . S
C798 C799 1.387 1_556 S
C798 H802 0.950 . S
C798 C807 1.390 . S
C799 C798 1.387 1_554 S
C799 C801 1.387 . S
H800 C807 0.950 . S
C801 C799 1.387 . S
C801 C803 1.390 . S
C801 H805 0.950 . S
H802 C798 0.950 . S
C803 C801 1.390 . S
C803 C804 1.387 1_554 S
C803 H806 0.950 . S
C804 C803 1.387 1_556 S
C804 C807 1.387 . S
H805 C801 0.950 . S
H806 C803 0.950 . S
C807 C798 1.390 . S
C807 H800 0.950 . S
C807 C804 1.387 . S
C808 C809 1.387 . S
C808 H812 0.950 . S
C808 C817 1.390 1_455 S
C809 C808 1.387 . S
C809 C811 1.387 . S
H810 C817 0.950 . S
C811 C809 1.387 . S
C811 C813 1.390 1_455 S
C811 H815 0.950 . S
H812 C808 0.950 . S
C813 C811 1.390 1_655 S
C813 C814 1.387 . S
C813 H816 0.950 . S
C814 C813 1.387 . S
C814 C817 1.387 . S
H815 C811 0.950 . S
H816 C813 0.950 . S
C817 C808 1.390 1_655 S
C817 H810 0.950 . S
C817 C814 1.387 . S
C818 C819 1.387 . S
C818 H822 0.950 . S
C818 C827 1.390 . S
C819 C818 1.387 . S
C819 C821 1.387 . S
H820 C827 0.950 . S
C821 C819 1.387 . S
C821 C823 1.390 . S
C821 H825 0.950 . S
H822 C818 0.950 . S
C823 C821 1.390 . S
C823 C824 1.387 . S
C823 H826 0.950 . S
C824 C823 1.387 . S
C824 C827 1.387 . S
H825 C821 0.950 . S
H826 C823 0.950 . S
C827 C818 1.390 . S
C827 H820 0.950 . S
C827 C824 1.387 . S
C828 C829 1.387 . S
C828 H832 0.950 . S
C828 C837 1.390 1_655 S
C829 C828 1.387 . S
C829 C831 1.387 . S
H830 C837 0.950 . S
C831 C829 1.387 . S
C831 C833 1.390 1_655 S
C831 H835 0.950 . S
H832 C828 0.950 . S
C833 C831 1.390 1_455 S
C833 C834 1.387 . S
C833 H836 0.950 . S
C834 C833 1.387 . S
C834 C837 1.387 . S
H835 C831 0.950 . S
H836 C833 0.950 . S
C837 C828 1.390 1_455 S
C837 H830 0.950 . S
C837 C834 1.387 . S
C838 C839 1.387 . S
C838 H842 0.950 . S
C838 C847 1.390 . S
C839 C838 1.387 . S
C839 C841 1.387 . S
H840 C847 0.950 . S
C841 C839 1.387 . S
C841 C843 1.390 . S
C841 H845 0.950 . S
H842 C838 0.950 . S
C843 C841 1.390 . S
C843 C844 1.387 . S
C843 H846 0.950 . S
C844 C843 1.387 . S
C844 C847 1.387 . S
H845 C841 0.950 . S
H846 C843 0.950 . S
C847 C838 1.390 . S
C847 H840 0.950 . S
C847 C844 1.387 . S
C848 C849 1.387 . S
C848 H852 0.950 . S
C848 C857 1.390 . S
C849 C848 1.387 . S
C849 C851 1.387 . S
H850 C857 0.950 . S
C851 C849 1.387 . S
C851 C853 1.390 . S
C851 H855 0.950 . S
H852 C848 0.950 . S
C853 C851 1.390 . S
C853 C854 1.387 . S
C853 H856 0.950 . S
C854 C853 1.387 . S
C854 C857 1.387 . S
H855 C851 0.950 . S
H856 C853 0.950 . S
C857 C848 1.390 . S
C857 H850 0.950 . S
C857 C854 1.387 . S
C858 C859 1.387 . S
C858 H862 0.950 . S
C858 C867 1.390 . S
C859 C858 1.387 . S
C859 C861 1.387 . S
H860 C867 0.950 1_554 S
C861 C859 1.387 . S
C861 C863 1.390 1_556 S
C861 H865 0.950 . S
H862 C858 0.950 . S
C863 C861 1.390 1_554 S
C863 C864 1.387 . S
C863 H866 0.950 . S
C864 C863 1.387 . S
C864 C867 1.387 1_554 S
H865 C861 0.950 . S
H866 C863 0.950 . S
C867 C858 1.390 . S
C867 H860 0.950 1_556 S
C867 C864 1.387 1_556 S
C868 C869 1.387 . S
C868 H872 0.950 . S
C868 C877 1.390 . S
C869 C868 1.387 . S
C869 C871 1.387 . S
H870 C877 0.950 . S
C871 C869 1.387 . S
C871 C873 1.390 . S
C871 H875 0.950 . S
H872 C868 0.950 . S
C873 C871 1.390 . S
C873 C874 1.387 . S
C873 H876 0.950 . S
C874 C873 1.387 . S
C874 C877 1.387 . S
H875 C871 0.950 . S
H876 C873 0.950 . S
C877 C868 1.390 . S
C877 H870 0.950 . S
C877 C874 1.387 . S
C878 C879 1.387 . S
C878 H882 0.950 . S
C878 C887 1.390 . S
C879 C878 1.387 . S
C879 C881 1.387 . S
H880 C887 0.950 . S
C881 C879 1.387 . S
C881 C883 1.390 . S
C881 H885 0.950 . S
H882 C878 0.950 . S
C883 C881 1.390 . S
C883 C884 1.387 . S
C883 H886 0.950 . S
C884 C883 1.387 . S
C884 C887 1.387 . S
H885 C881 0.950 . S
H886 C883 0.950 . S
C887 C878 1.390 . S
C887 H880 0.950 . S
C887 C884 1.387 . S
C888 C889 1.387 . S
C888 H892 0.950 . S
C888 C897 1.390 . S
C889 C888 1.387 . S
C889 C891 1.387 . S
H890 C897 0.950 . S
C891 C889 1.387 . S
C891 C893 1.390 . S
C891 H895 0.950 . S
H892 C888 0.950 . S
C893 C891 1.390 . S
C893 C894 1.387 . S
C893 H896 0.950 . S
C894 C893 1.387 . S
C894 C897 1.387 . S
H895 C891 0.950 . S
H896 C893 0.950 . S
C897 C888 1.390 . S
C897 H890 0.950 . S
C897 C894 1.387 . S
C898 C899 1.387 . S
C898 H902 0.950 . S
C898 C907 1.390 1_556 S
C899 C898 1.387 . S
C899 C901 1.387 . S
H900 C907 0.950 . S
C901 C899 1.387 . S
C901 C903 1.390 1_556 S
C901 H905 0.950 . S
H902 C898 0.950 . S
C903 C901 1.390 1_554 S
C903 C904 1.387 . S
C903 H906 0.950 . S
C904 C903 1.387 . S
C904 C907 1.387 . S
H905 C901 0.950 . S
H906 C903 0.950 . S
C907 C898 1.390 1_554 S
C907 H900 0.950 . S
C907 C904 1.387 . S
C908 C909 1.387 . S
C908 H912 0.950 . S
C908 C917 1.390 . S
C909 C908 1.387 . S
C909 C911 1.387 . S
H910 C917 0.950 . S
C911 C909 1.387 . S
C911 C913 1.390 . S
C911 H915 0.950 . S
H912 C908 0.950 . S
C913 C911 1.390 . S
C913 C914 1.387 . S
C913 H916 0.950 . S
C914 C913 1.387 . S
C914 C917 1.387 . S
H915 C911 0.950 . S
H916 C913 0.950 . S
C917 C908 1.390 . S
C917 H910 0.950 . S
C917 C914 1.387 . S
C918 C919 1.387 . S
C918 H922 0.950 . S
C918 C927 1.390 . S
C919 C918 1.387 . S
C919 C921 1.387 . S
H920 C927 0.950 . S
C921 C919 1.387 . S
C921 C923 1.390 . S
C921 H925 0.950 . S
H922 C918 0.950 . S
C923 C921 1.390 . S
C923 C924 1.387 . S
C923 H926 0.950 . S
C924 C923 1.387 . S
C924 C927 1.387 . S
H925 C921 0.950 . S
H926 C923 0.950 . S
C927 C918 1.390 . S
C927 H920 0.950 . S
C927 C924 1.387 . S
C529 N13 1.460 . S
C534 N497 1.476 . S
C539 N277 1.847 . S
C544 N46 1.832 1_545 S
C549 N409 1.655 . S
C554 N68 1.678 . S
C559 N101 1.851 1_565 S
C564 N343 1.794 . S
C569 N365 1.856 . S
C574 N35 1.868 . S
C579 N79 1.686 . S
C584 N299 1.696 . S
C589 N112 1.785 . S
C594 N431 1.822 . S
C599 N2 1.499 . S
C604 N244 1.465 . S
C609 N266 1.857 . S
C614 N134 1.867 . S
C619 N398 1.695 . S
C624 N178 1.687 1_455 S
C629 N211 1.785 . S
C634 N332 1.822 . S
C639 N200 1.852 . S
C644 N442 1.793 . S
C649 N145 1.851 . S
C654 N376 1.848 . S
C659 N475 1.460 . S
C664 N233 1.476 . S
C669 N310 1.657 . S
C674 N167 1.677 . S
C679 N508 1.463 . S
C684 N464 1.496 . S
C689 C21 1.198 . S
C694 C51 1.198 . S
C699 C40 1.222 . S
C704 C87 1.224 . S
C709 C73 1.464 . S
C714 C106 1.463 . S
C719 C117 1.453 . S
C724 C7 1.444 . S
C729 C18 1.064 . S
C734 C183 1.064 . S
C739 C153 0.922 . S
C744 C120 0.922 . S
C749 C219 0.922 . S
C754 C54 0.922 . S
C759 C480 1.064 . S
C764 C84 1.064 . S
C769 C285 0.929 . S
C774 C238 0.929 . S
C779 C271 1.327 . S
C784 C304 1.330 . S
C789 C315 1.515 . S
C794 C348 1.515 . S
C799 C351 1.087 . S
C804 C249 1.086 . S
C809 C417 1.029 . S
C814 C252 1.029 . S
C819 C381 1.351 . S
C824 C337 1.351 . S
C829 C282 1.351 . S
C834 C436 1.351 . S
C839 C516 1.029 . S
C844 C318 1.029 . S
C849 C150 1.198 . S
C854 C483 1.198 . S
C859 C139 1.222 . S
C864 C186 1.224 . S
C869 C172 1.464 . S
C874 C205 1.463 . S
C879 C469 1.445 . S
C884 C216 1.454 . S
C889 C384 0.929 . S
C894 C502 0.929 . S
C899 C403 1.330 . S
C904 C370 1.326 . S
C909 C414 1.514 . S
C914 C447 1.515 . S
C919 C513 1.086 . S
C924 C450 1.087 . S
